MODEL 1
USER: ADFR SOLUTION from run 136
USER: SCORE 17.613236 LL:  -4.290 LR: -15.231 RR:   0.000 FEB:  -8.967
USER: RMSD 3.188073
USER: SEED 135
USER: STATUS no improvement in best in 4 clusters for 5 generations
USER: GENES 23
USER: genes 0 Translation |==|  0.61372 0.48675 0.55155
USER: genes 1 Rotation |==|  0.56863 0.47142 0.50466 0.99442
USER: genes 2 Torsion [N]-CA--C-[N] |==|  0.43978
USER: genes 3 Torsion [C]-N--CA-[C] |==|  0.62239
USER: genes 4 Torsion [N]-CA--C-[N] |==|  0.41327
USER: genes 5 Torsion [C]-N--CA-[CB] |==|  0.91078
USER: genes 6 Torsion [N]-CA--C-[N] |==|  0.32191
USER: genes 7 Torsion [N]-CA--C-[OXT] |==|  0.83440
USER: genes 8 Torsion [N]-CA--CB-[OG] |==|  0.83685
USER: genes 9 Torsion [CA]-CB--OG-[HG] |==|  0.70641
USER: genes 10 Torsion [N]-CA--CB-[CG2] |==|  0.93013
USER: genes 11 Torsion [CA]-CB--CG1-[CD1] |==|  0.39805
USER: genes 12 Torsion [N]-C--CA-[N] |==|  0.19220
USER: genes 13 Torsion [C]-CA--CB-[CG] |==|  0.21230
USER: genes 14 Torsion [CA]-CB--CG-[CD1] |==|  0.51882
USER: genes 15 Torsion [C]-CA--N-[C] |==|  0.54171
USER: genes 16 Torsion [N]-C--CA-[N] |==|  0.38932
USER: genes 17 Torsion [C]-CA--CB-[CG] |==|  0.30659
USER: genes 18 Torsion [CA]-CB--CG-[OD1] |==|  0.64291
USER: genes 19 Torsion [C]-CA--N-[C] |==|  0.56416
USER: genes 20 Torsion [N]-C--CA-[N] |==|  0.73631
USER: genes 21 Torsion [C]-CA--CB-[CG] |==|  0.46703
USER: genes 22 Torsion [CA]-CB--CG-[CD2] |==|  0.28202
ROOT
ATOM      1  C   PHE C 305      16.292   6.513   0.770  0.50 34.66 LIG 0.24  C 
ATOM      2 O    PHE C 305      17.076   5.808   0.142  0.50 33.80 LIG-0.27  OA
ATOM      3  N   PRO C 306      15.118   6.044   1.235  0.50 35.29 LIG-0.34  N 
ATOM      4  CA  PRO C 306      14.514   4.879   0.607  0.50 35.79 LIG 0.18  C 
ATOM      5  CB  PRO C 306      13.766   4.194   1.774  0.50 35.80 LIG 0.04  C 
ATOM      6  CG  PRO C 306      13.879   5.156   2.962  0.50 35.25 LIG 0.02  C 
ATOM      7  CD  PRO C 306      14.329   6.475   2.399  0.50 35.51 LIG 0.13  C 
ENDROOT
BRANCH 4 8
ATOM      8  C   PRO C 306      13.498   5.313  -0.451  0.50 36.50 LIG 0.24  C 
ATOM      9  N   ILE C 307      13.209   4.403  -1.396  0.50 37.01 LIG-0.35  N 
ATOM     10 H    ILE C 307      13.593   3.638  -1.475  0.50 37.01 LIG 0.16  HD
ATOM     11 O    PRO C 306      12.979   6.451  -0.397  0.50 36.74 LIG-0.27  OA
BRANCH 9 12
ATOM     12  CA  ILE C 307      12.171   4.687  -2.388  0.50 37.44 LIG 0.18  C 
BRANCH 12 13
ATOM     13  C   ILE C 307      11.241   3.494  -2.624  0.50 38.23 LIG 0.24  C 
ATOM     14  N   SER C 308       9.991   3.815  -2.947  0.50 38.91 LIG-0.34  N 
ATOM     15 H    SER C 308       9.689   4.619  -2.903  0.50 38.91 LIG 0.16  HD
ATOM     16 O    ILE C 307      11.649   2.328  -2.524  0.50 38.79 LIG-0.27  OA
BRANCH 14 17
ATOM     17  CA  SER C 308       9.000   2.847  -3.409  0.50 39.43 LIG 0.20  C 
BRANCH 17 18
ATOM     18  C   SER C 308       8.334   2.294  -2.148  0.50 39.77 LIG 0.24  C 
ATOM     19  N   PRO C 309       7.023   2.543  -1.979  0.50 40.03 LIG-0.34  N 
ATOM     20  CD  PRO C 309       6.044   2.964  -2.994  0.50 39.83 LIG 0.13  C 
ATOM     21  CA  PRO C 309       6.404   2.355  -0.666  0.50 40.09 LIG 0.19  C 
ATOM     22  CG  PRO C 309       4.896   3.454  -2.169  0.50 40.19 LIG 0.02  C 
ATOM     23  CB  PRO C 309       4.914   2.594  -0.942  0.50 40.09 LIG 0.04  C 
ATOM     24 O    SER C 308       8.989   1.633  -1.337  0.50 39.81 LIG-0.27  OA
BRANCH 21 25
ATOM     25  C   PRO C 309       6.643   0.965  -0.076  0.50 40.04 LIG 0.20  C 
ATOM     26 OXT  PRO C 309       6.267  -0.056  -0.658  0.50 40.10 LIG-0.65  OA
ATOM     27 O    PRO C 309       7.210   0.831   1.011  0.50 40.34 LIG-0.65  OA
ENDBRANCH 21 25
ENDBRANCH 17 18
BRANCH 17 28
ATOM     28  CB  SER C 308       9.665   1.719  -4.202  0.50 39.49 LIG 0.20  C 
BRANCH 28 29
ATOM     29 OG   SER C 308      10.370   2.222  -5.328  0.50 39.70 LIG-0.40  OA
ATOM     30 HG   SER C 308       9.939   2.050  -6.028  0.50 39.70 LIG 0.21  HD
ENDBRANCH 28 29
ENDBRANCH 17 28
ENDBRANCH 14 17
ENDBRANCH 12 13
BRANCH 12 31
ATOM     31  CB  ILE C 307      12.762   5.103  -3.757  0.50 37.20 LIG 0.01  C 
ATOM     32  CG2 ILE C 307      14.164   5.707  -3.587  0.50 36.86 LIG 0.01  C 
BRANCH 31 33
ATOM     33  CG1 ILE C 307      12.738   3.898  -4.714  0.50 35.88 LIG 0.00  C 
ATOM     34  CD1 ILE C 307      12.434   4.221  -6.156  0.50 32.01 LIG 0.01  C 
ENDBRANCH 31 33
ENDBRANCH 12 31
ENDBRANCH 9 12
ENDBRANCH 4 8
BRANCH 1 35
ATOM     35  CA  PHE C 305      16.659   7.970   1.081  0.50 34.47 LIG 0.18  C 
BRANCH 35 36
ATOM     36  CB  PHE C 305      17.892   8.322   0.234  0.50 34.49 LIG 0.07  C 
BRANCH 36 37
ATOM     37  CG  PHE C 305      17.609   8.585  -1.236  0.50 35.55 LIG-0.06  A 
ATOM     38  CD1 PHE C 305      18.635   8.779  -2.159  0.50 36.28 LIG 0.01  A 
ATOM     39  CE1 PHE C 305      18.350   9.016  -3.507  0.50 36.66 LIG 0.00  A 
ATOM     40  CZ  PHE C 305      17.023   9.074  -3.943  0.50 36.87 LIG 0.00  A 
ATOM     41  CE2 PHE C 305      15.994   8.888  -3.038  0.50 36.76 LIG 0.00  A 
ATOM     42  CD2 PHE C 305      16.289   8.653  -1.686  0.50 36.02 LIG 0.01  A 
ENDBRANCH 36 37
ENDBRANCH 35 36
BRANCH 35 43
ATOM     43  N   PHE C 305      16.962   8.242   2.491  0.50 33.54 LIG-0.35  N 
ATOM     44 H    PHE C 305      17.104   7.542   2.970  0.50 33.54 LIG 0.16  HD
ATOM     45  C   ASN C 304      17.003   9.492   2.953  0.50 33.07 LIG 0.24  C 
ATOM     46 O    ASN C 304      16.465  10.438   2.365  0.50 33.39 LIG-0.27  OA
BRANCH 45 47
ATOM     47  CA  ASN C 304      17.773   9.710   4.262  0.50 32.40 LIG 0.18  C 
BRANCH 47 48
ATOM     48  CB  ASN C 304      16.862   9.750   5.499  0.50 32.38 LIG 0.14  C 
BRANCH 48 49
ATOM     49  CG  ASN C 304      17.032   8.515   6.418  0.50 31.77 LIG 0.22  C 
ATOM     50 OD1  ASN C 304      16.065   7.856   6.783  0.50 27.48 LIG-0.27  OA
ATOM     51  ND2 ASN C 304      18.267   8.242   6.821  0.50 32.56 LIG-0.37  N 
ATOM     52 21HD ASN C 304      18.409   7.583   7.357  0.50 32.56 LIG 0.16  HD
ATOM     53 22HD ASN C 304      18.925   8.723   6.547  0.50 32.56 LIG 0.16  HD
ENDBRANCH 48 49
ENDBRANCH 47 48
BRANCH 47 54
ATOM     54  N   ASN C 304      18.529  10.937   4.203  0.50 31.56 LIG-0.34  N 
ATOM     55  C   LEU C 303      19.589  11.115   4.978  0.50 30.83 LIG 0.26  C 
ATOM     56 O    LEU C 303      20.101  10.202   5.609  0.50 29.02 LIG-0.27  OA
ATOM     57 H    ASN C 304      18.237  11.517   3.639  0.50 31.56 LIG 0.16  HD
BRANCH 55 58
ATOM     58  CA  LEU C 303      20.144  12.544   5.033  0.50 30.56 LIG 0.40  C 
ATOM     59  N   LEU C 303      21.260  12.792   4.079  0.50 30.88 LIG 0.61  N 
BRANCH 58 60
ATOM     60  CB  LEU C 303      19.030  13.577   4.825  0.50 30.80 LIG 0.06  C 
BRANCH 60 61
ATOM     61  CG  LEU C 303      19.351  15.047   5.123  0.50 30.92 LIG-0.02  C 
ATOM     62  CD2 LEU C 303      19.614  15.825   3.821  0.50 31.43 LIG 0.01  C 
ATOM     63  CD1 LEU C 303      20.509  15.174   6.097  0.50 30.50 LIG 0.01  C 
ENDBRANCH 60 61
ENDBRANCH 58 60
ENDBRANCH 55 58
ENDBRANCH 47 54
ENDBRANCH 45 47
ENDBRANCH 35 43
ENDBRANCH 1 35
TORSDOF 21
ENDMDL
MODEL 2
USER: ADFR SOLUTION from run 72
USER: SCORE 17.991507 LL:  -4.552 LR: -14.959 RR:   0.000 FEB:  -8.694
USER: RMSD 3.006204
USER: SEED 71
USER: STATUS no improvement in best in 4 clusters for 5 generations
USER: GENES 23
USER: genes 0 Translation |==|  0.62267 0.48891 0.52006
USER: genes 1 Rotation |==|  0.50742 0.44365 0.49223 0.99670
USER: genes 2 Torsion [N]-CA--C-[N] |==|  0.47910
USER: genes 3 Torsion [C]-N--CA-[C] |==|  0.60000
USER: genes 4 Torsion [N]-CA--C-[N] |==|  0.36872
USER: genes 5 Torsion [C]-N--CA-[CB] |==|  0.88887
USER: genes 6 Torsion [N]-CA--C-[N] |==|  0.34085
USER: genes 7 Torsion [N]-CA--C-[OXT] |==|  0.81624
USER: genes 8 Torsion [N]-CA--CB-[OG] |==|  0.67993
USER: genes 9 Torsion [CA]-CB--OG-[HG] |==|  0.41806
USER: genes 10 Torsion [N]-CA--CB-[CG2] |==|  0.37695
USER: genes 11 Torsion [CA]-CB--CG1-[CD1] |==|  0.45948
USER: genes 12 Torsion [N]-C--CA-[N] |==|  0.26882
USER: genes 13 Torsion [C]-CA--CB-[CG] |==|  0.25244
USER: genes 14 Torsion [CA]-CB--CG-[CD1] |==|  0.83607
USER: genes 15 Torsion [C]-CA--N-[C] |==|  0.68616
USER: genes 16 Torsion [N]-C--CA-[N] |==|  0.25639
USER: genes 17 Torsion [C]-CA--CB-[CG] |==|  0.36027
USER: genes 18 Torsion [CA]-CB--CG-[OD1] |==|  0.17059
USER: genes 19 Torsion [C]-CA--N-[C] |==|  0.59609
USER: genes 20 Torsion [N]-C--CA-[N] |==|  0.40574
USER: genes 21 Torsion [C]-CA--CB-[CG] |==|  0.00452
USER: genes 22 Torsion [CA]-CB--CG-[CD2] |==|  0.75875
ROOT
ATOM      1  C   PHE C 305      16.520   6.565   0.132  0.50 34.66 LIG 0.24  C 
ATOM      2 O    PHE C 305      17.293   5.679  -0.222  0.50 33.80 LIG-0.27  OA
ATOM      3  N   PRO C 306      15.270   6.299   0.558  0.50 35.29 LIG-0.34  N 
ATOM      4  CA  PRO C 306      14.626   5.059   0.154  0.50 35.79 LIG 0.18  C 
ATOM      5  CB  PRO C 306      13.712   4.726   1.357  0.50 35.80 LIG 0.04  C 
ATOM      6  CG  PRO C 306      13.798   5.937   2.293  0.50 35.25 LIG 0.02  C 
ATOM      7  CD  PRO C 306      14.416   7.049   1.492  0.50 35.51 LIG 0.13  C 
ENDROOT
BRANCH 4 8
ATOM      8  C   PRO C 306      13.757   5.291  -1.083  0.50 36.50 LIG 0.24  C 
ATOM      9  N   ILE C 307      13.233   4.189  -1.647  0.50 37.01 LIG-0.35  N 
ATOM     10 H    ILE C 307      13.399   3.384  -1.399  0.50 37.01 LIG 0.16  HD
ATOM     11 O    PRO C 306      13.559   6.452  -1.507  0.50 36.74 LIG-0.27  OA
BRANCH 9 12
ATOM     12  CA  ILE C 307      12.303   4.317  -2.771  0.50 37.44 LIG 0.18  C 
BRANCH 12 13
ATOM     13  C   ILE C 307      11.195   3.262  -2.740  0.50 38.23 LIG 0.24  C 
ATOM     14  N   SER C 308       9.967   3.735  -2.936  0.50 38.91 LIG-0.34  N 
ATOM     15 H    SER C 308       9.787   4.576  -2.950  0.50 38.91 LIG 0.16  HD
ATOM     16 O    ILE C 307      11.451   2.063  -2.555  0.50 38.79 LIG-0.27  OA
BRANCH 14 17
ATOM     17  CA  SER C 308       8.797   2.887  -3.148  0.50 39.43 LIG 0.20  C 
BRANCH 17 18
ATOM     18  C   SER C 308       8.371   2.407  -1.759  0.50 39.77 LIG 0.24  C 
ATOM     19  N   PRO C 309       7.114   2.682  -1.366  0.50 40.03 LIG-0.34  N 
ATOM     20  CD  PRO C 309       5.968   3.067  -2.205  0.50 39.83 LIG 0.13  C 
ATOM     21  CA  PRO C 309       6.745   2.568   0.046  0.50 40.09 LIG 0.19  C 
ATOM     22  CG  PRO C 309       4.993   3.613  -1.210  0.50 40.19 LIG 0.02  C 
ATOM     23  CB  PRO C 309       5.231   2.814   0.035  0.50 40.09 LIG 0.04  C 
ATOM     24 O    SER C 308       9.161   1.777  -1.049  0.50 39.81 LIG-0.27  OA
BRANCH 21 25
ATOM     25  C   PRO C 309       7.082   1.206   0.653  0.50 40.04 LIG 0.20  C 
ATOM     26 OXT  PRO C 309       6.512   0.176   0.281  0.50 40.10 LIG-0.65  OA
ATOM     27 O    PRO C 309       7.928   1.104   1.544  0.50 40.34 LIG-0.65  OA
ENDBRANCH 21 25
ENDBRANCH 17 18
BRANCH 17 28
ATOM     28  CB  SER C 308       9.140   1.696  -4.045  0.50 39.49 LIG 0.20  C 
BRANCH 28 29
ATOM     29 OG   SER C 308       8.433   1.753  -5.276  0.50 39.70 LIG-0.40  OA
ATOM     30 HG   SER C 308       8.886   1.380  -5.877  0.50 39.70 LIG 0.21  HD
ENDBRANCH 28 29
ENDBRANCH 17 28
ENDBRANCH 14 17
ENDBRANCH 12 13
BRANCH 12 31
ATOM     31  CB  ILE C 307      13.017   4.214  -4.141  0.50 37.20 LIG 0.01  C 
ATOM     32  CG2 ILE C 307      12.230   3.310  -5.101  0.50 36.86 LIG 0.01  C 
BRANCH 31 33
ATOM     33  CG1 ILE C 307      13.253   5.627  -4.703  0.50 35.88 LIG 0.00  C 
ATOM     34  CD1 ILE C 307      14.231   5.712  -5.850  0.50 32.01 LIG 0.01  C 
ENDBRANCH 31 33
ENDBRANCH 12 31
ENDBRANCH 9 12
ENDBRANCH 4 8
BRANCH 1 35
ATOM     35  CA  PHE C 305      16.987   8.026   0.135  0.50 34.47 LIG 0.18  C 
BRANCH 35 36
ATOM     36  CB  PHE C 305      17.849   8.234  -1.120  0.50 34.49 LIG 0.07  C 
BRANCH 36 37
ATOM     37  CG  PHE C 305      17.091   8.701  -2.352  0.50 35.55 LIG-0.06  A 
ATOM     38  CD1 PHE C 305      16.046   7.957  -2.898  0.50 36.28 LIG 0.01  A 
ATOM     39  CE1 PHE C 305      15.361   8.409  -4.030  0.50 36.66 LIG 0.00  A 
ATOM     40  CZ  PHE C 305      15.729   9.613  -4.637  0.50 36.87 LIG 0.00  A 
ATOM     41  CE2 PHE C 305      16.767  10.360  -4.109  0.50 36.76 LIG 0.00  A 
ATOM     42  CD2 PHE C 305      17.451   9.898  -2.974  0.50 36.02 LIG 0.01  A 
ENDBRANCH 36 37
ENDBRANCH 35 36
BRANCH 35 43
ATOM     43  N   PHE C 305      17.765   8.423   1.314  0.50 33.54 LIG-0.35  N 
ATOM     44 H    PHE C 305      18.535   8.046   1.381  0.50 33.54 LIG 0.16  HD
ATOM     45  C   ASN C 304      17.279   9.304   2.189  0.50 33.07 LIG 0.24  C 
ATOM     46 O    ASN C 304      16.073   9.561   2.277  0.50 33.39 LIG-0.27  OA
BRANCH 45 47
ATOM     47  CA  ASN C 304      18.304  10.006   3.090  0.50 32.40 LIG 0.18  C 
BRANCH 47 48
ATOM     48  CB  ASN C 304      17.770  10.295   4.501  0.50 32.38 LIG 0.14  C 
BRANCH 48 49
ATOM     49  CG  ASN C 304      18.726   9.813   5.622  0.50 31.77 LIG 0.22  C 
ATOM     50 OD1  ASN C 304      19.860  10.265   5.728  0.50 27.48 LIG-0.27  OA
ATOM     51  ND2 ASN C 304      18.266   8.861   6.424  0.50 32.56 LIG-0.37  N 
ATOM     52 21HD ASN C 304      18.770   8.540   7.043  0.50 32.56 LIG 0.16  HD
ATOM     53 22HD ASN C 304      17.465   8.564   6.325  0.50 32.56 LIG 0.16  HD
ENDBRANCH 48 49
ENDBRANCH 47 48
BRANCH 47 54
ATOM     54  N   ASN C 304      18.732  11.248   2.493  0.50 31.56 LIG-0.34  N 
ATOM     55  C   LEU C 303      19.977  11.675   2.642  0.50 30.83 LIG 0.26  C 
ATOM     56 O    LEU C 303      20.865  10.965   3.094  0.50 29.02 LIG-0.27  OA
ATOM     57 H    ASN C 304      18.125  11.665   2.049  0.50 31.56 LIG 0.16  HD
BRANCH 55 58
ATOM     58  CA  LEU C 303      20.245  13.121   2.207  0.50 30.56 LIG 0.40  C 
ATOM     59  N   LEU C 303      21.267  13.818   3.035  0.50 30.88 LIG 0.61  N 
BRANCH 58 60
ATOM     60  CB  LEU C 303      20.630  13.188   0.724  0.50 30.80 LIG 0.06  C 
BRANCH 60 61
ATOM     61  CG  LEU C 303      20.651  11.877  -0.070  0.50 30.92 LIG-0.02  C 
ATOM     62  CD2 LEU C 303      22.017  11.179   0.061  0.50 31.43 LIG 0.01  C 
ATOM     63  CD1 LEU C 303      20.274  12.104  -1.524  0.50 30.50 LIG 0.01  C 
ENDBRANCH 60 61
ENDBRANCH 58 60
ENDBRANCH 55 58
ENDBRANCH 47 54
ENDBRANCH 45 47
ENDBRANCH 35 43
ENDBRANCH 1 35
TORSDOF 21
ENDMDL
MODEL 3
USER: ADFR SOLUTION from run 106
USER: SCORE 17.368784 LL:  -5.217 LR: -14.880 RR:   0.000 FEB:  -8.616
USER: RMSD 3.247548
USER: SEED 105
USER: STATUS no improvement in best in 3 clusters for 5 generations
USER: GENES 23
USER: genes 0 Translation |==|  0.62492 0.49593 0.54994
USER: genes 1 Rotation |==|  0.47333 0.49538 0.50073 0.99927
USER: genes 2 Torsion [N]-CA--C-[N] |==|  0.29693
USER: genes 3 Torsion [C]-N--CA-[C] |==|  0.70407
USER: genes 4 Torsion [N]-CA--C-[N] |==|  0.08739
USER: genes 5 Torsion [C]-N--CA-[CB] |==|  0.40414
USER: genes 6 Torsion [N]-CA--C-[N] |==|  0.21646
USER: genes 7 Torsion [N]-CA--C-[OXT] |==|  0.86651
USER: genes 8 Torsion [N]-CA--CB-[OG] |==|  0.79007
USER: genes 9 Torsion [CA]-CB--OG-[HG] |==|  0.85505
USER: genes 10 Torsion [N]-CA--CB-[CG2] |==|  0.58007
USER: genes 11 Torsion [CA]-CB--CG1-[CD1] |==|  0.52349
USER: genes 12 Torsion [N]-C--CA-[N] |==|  0.27230
USER: genes 13 Torsion [C]-CA--CB-[CG] |==|  0.43284
USER: genes 14 Torsion [CA]-CB--CG-[CD1] |==|  0.56623
USER: genes 15 Torsion [C]-CA--N-[C] |==|  0.72507
USER: genes 16 Torsion [N]-C--CA-[N] |==|  0.18051
USER: genes 17 Torsion [C]-CA--CB-[CG] |==|  0.39545
USER: genes 18 Torsion [CA]-CB--CG-[OD1] |==|  0.87416
USER: genes 19 Torsion [C]-CA--N-[C] |==|  0.65389
USER: genes 20 Torsion [N]-C--CA-[N] |==|  0.29583
USER: genes 21 Torsion [C]-CA--CB-[CG] |==|  0.06681
USER: genes 22 Torsion [CA]-CB--CG-[CD2] |==|  0.67701
ROOT
ATOM      1  C   PHE C 305      16.577   6.733   0.737  0.50 34.66 LIG 0.24  C 
ATOM      2 O    PHE C 305      17.292   5.813   0.351  0.50 33.80 LIG-0.27  OA
ATOM      3  N   PRO C 306      15.451   6.519   1.445  0.50 35.29 LIG-0.34  N 
ATOM      4  CA  PRO C 306      14.783   5.231   1.353  0.50 35.79 LIG 0.18  C 
ATOM      5  CB  PRO C 306      14.148   5.060   2.753  0.50 35.80 LIG 0.04  C 
ATOM      6  CG  PRO C 306      14.381   6.389   3.481  0.50 35.25 LIG 0.02  C 
ATOM      7  CD  PRO C 306      14.782   7.385   2.428  0.50 35.51 LIG 0.13  C 
ENDROOT
BRANCH 4 8
ATOM      8  C   PRO C 306      13.671   5.284   0.304  0.50 36.50 LIG 0.24  C 
ATOM      9  N   ILE C 307      13.918   4.636  -0.847  0.50 37.01 LIG-0.35  N 
ATOM     10 H    ILE C 307      14.663   4.257  -1.047  0.50 37.01 LIG 0.16  HD
ATOM     11 O    PRO C 306      12.604   5.894   0.545  0.50 36.74 LIG-0.27  OA
BRANCH 9 12
ATOM     12  CA  ILE C 307      12.875   4.541  -1.869  0.50 37.44 LIG 0.18  C 
BRANCH 12 13
ATOM     13  C   ILE C 307      12.267   3.139  -1.960  0.50 38.23 LIG 0.24  C 
ATOM     14  N   SER C 308      12.235   2.468  -0.813  0.50 38.91 LIG-0.34  N 
ATOM     15 H    SER C 308      12.638   2.738  -0.102  0.50 38.91 LIG 0.16  HD
ATOM     16 O    ILE C 307      11.835   2.693  -3.033  0.50 38.79 LIG-0.27  OA
BRANCH 14 17
ATOM     17  CA  SER C 308      11.521   1.208  -0.631  0.50 39.43 LIG 0.20  C 
BRANCH 17 18
ATOM     18  C   SER C 308      10.148   1.581  -0.068  0.50 39.77 LIG 0.24  C 
ATOM     19  N   PRO C 309       9.232   2.058  -0.930  0.50 40.03 LIG-0.34  N 
ATOM     20  CD  PRO C 309       9.226   1.945  -2.398  0.50 39.83 LIG 0.13  C 
ATOM     21  CA  PRO C 309       8.043   2.749  -0.429  0.50 40.09 LIG 0.19  C 
ATOM     22  CG  PRO C 309       8.219   2.972  -2.808  0.50 40.19 LIG 0.02  C 
ATOM     23  CB  PRO C 309       7.213   2.984  -1.698  0.50 40.09 LIG 0.04  C 
ATOM     24 O    SER C 308       9.906   1.427   1.133  0.50 39.81 LIG-0.27  OA
BRANCH 21 25
ATOM     25  C   PRO C 309       7.260   1.937   0.603  0.50 40.04 LIG 0.20  C 
ATOM     26 OXT  PRO C 309       6.970   0.754   0.407  0.50 40.10 LIG-0.65  OA
ATOM     27 O    PRO C 309       6.885   2.453   1.658  0.50 40.34 LIG-0.65  OA
ENDBRANCH 21 25
ENDBRANCH 17 18
BRANCH 17 28
ATOM     28  CB  SER C 308      12.267   0.290   0.340  0.50 39.49 LIG 0.20  C 
BRANCH 28 29
ATOM     29 OG   SER C 308      13.403  -0.301  -0.274  0.50 39.70 LIG-0.40  OA
ATOM     30 HG   SER C 308      13.175  -0.667  -0.994  0.50 39.70 LIG 0.21  HD
ENDBRANCH 28 29
ENDBRANCH 17 28
ENDBRANCH 14 17
ENDBRANCH 12 13
BRANCH 12 31
ATOM     31  CB  ILE C 307      13.393   4.925  -3.277  0.50 37.20 LIG 0.01  C 
ATOM     32  CG2 ILE C 307      12.260   5.503  -4.138  0.50 36.86 LIG 0.01  C 
BRANCH 31 33
ATOM     33  CG1 ILE C 307      14.591   5.880  -3.139  0.50 35.88 LIG 0.00  C 
ATOM     34  CD1 ILE C 307      15.078   6.498  -4.428  0.50 32.01 LIG 0.01  C 
ENDBRANCH 31 33
ENDBRANCH 12 31
ENDBRANCH 9 12
ENDBRANCH 4 8
BRANCH 1 35
ATOM     35  CA  PHE C 305      16.982   8.185   0.448  0.50 34.47 LIG 0.18  C 
BRANCH 35 36
ATOM     36  CB  PHE C 305      17.531   8.230  -0.986  0.50 34.49 LIG 0.07  C 
BRANCH 36 37
ATOM     37  CG  PHE C 305      17.450   9.588  -1.663  0.50 35.55 LIG-0.06  A 
ATOM     38  CD1 PHE C 305      17.431   9.717  -3.052  0.50 36.28 LIG 0.01  A 
ATOM     39  CE1 PHE C 305      17.352  10.978  -3.652  0.50 36.66 LIG 0.00  A 
ATOM     40  CZ  PHE C 305      17.305  12.129  -2.861  0.50 36.87 LIG 0.00  A 
ATOM     41  CE2 PHE C 305      17.327  12.017  -1.482  0.50 36.76 LIG 0.00  A 
ATOM     42  CD2 PHE C 305      17.409  10.748  -0.887  0.50 36.02 LIG 0.01  A 
ENDBRANCH 36 37
ENDBRANCH 35 36
BRANCH 35 43
ATOM     43  N   PHE C 305      17.992   8.736   1.359  0.50 33.54 LIG-0.35  N 
ATOM     44 H    PHE C 305      18.803   8.516   1.172  0.50 33.54 LIG 0.16  HD
ATOM     45  C   ASN C 304      17.639   9.514   2.383  0.50 33.07 LIG 0.24  C 
ATOM     46 O    ASN C 304      16.491   9.531   2.841  0.50 33.39 LIG-0.27  OA
BRANCH 45 47
ATOM     47  CA  ASN C 304      18.738  10.410   2.969  0.50 32.40 LIG 0.18  C 
BRANCH 47 48
ATOM     48  CB  ASN C 304      18.302  11.141   4.248  0.50 32.38 LIG 0.14  C 
BRANCH 48 49
ATOM     49  CG  ASN C 304      19.435  11.250   5.301  0.50 31.77 LIG 0.22  C 
ATOM     50 OD1  ASN C 304      20.141  10.286   5.576  0.50 27.48 LIG-0.27  OA
ATOM     51  ND2 ASN C 304      19.564  12.420   5.914  0.50 32.56 LIG-0.37  N 
ATOM     52 21HD ASN C 304      20.159  12.521   6.527  0.50 32.56 LIG 0.16  HD
ATOM     53 22HD ASN C 304      19.053  13.077   5.698  0.50 32.56 LIG 0.16  HD
ENDBRANCH 48 49
ENDBRANCH 47 48
BRANCH 47 54
ATOM     54  N   ASN C 304      19.163  11.388   1.997  0.50 31.56 LIG-0.34  N 
ATOM     55  C   LEU C 303      20.438  11.490   1.655  0.50 30.83 LIG 0.26  C 
ATOM     56 O    LEU C 303      21.270  10.649   1.965  0.50 29.02 LIG-0.27  OA
ATOM     57 H    ASN C 304      18.532  11.877   1.676  0.50 31.56 LIG 0.16  HD
BRANCH 55 58
ATOM     58  CA  LEU C 303      20.813  12.730   0.834  0.50 30.56 LIG 0.40  C 
ATOM     59  N   LEU C 303      21.571  13.753   1.604  0.50 30.88 LIG 0.61  N 
BRANCH 58 60
ATOM     60  CB  LEU C 303      21.586  12.340  -0.432  0.50 30.80 LIG 0.06  C 
BRANCH 60 61
ATOM     61  CG  LEU C 303      21.388  10.923  -0.984  0.50 30.92 LIG-0.02  C 
ATOM     62  CD2 LEU C 303      22.703  10.124  -0.927  0.50 31.43 LIG 0.01  C 
ATOM     63  CD1 LEU C 303      20.809  10.952  -2.388  0.50 30.50 LIG 0.01  C 
ENDBRANCH 60 61
ENDBRANCH 58 60
ENDBRANCH 55 58
ENDBRANCH 47 54
ENDBRANCH 45 47
ENDBRANCH 35 43
ENDBRANCH 1 35
TORSDOF 21
ENDMDL
MODEL 4
USER: ADFR SOLUTION from run 133
USER: SCORE 16.845784 LL:  -4.345 LR: -14.410 RR:   0.000 FEB:  -8.145
USER: RMSD 2.755382
USER: SEED 132
USER: STATUS no improvement in best in 3 clusters for 5 generations
USER: GENES 23
USER: genes 0 Translation |==|  0.60396 0.51549 0.48585
USER: genes 1 Rotation |==|  0.47210 0.39500 0.46067 0.98647
USER: genes 2 Torsion [N]-CA--C-[N] |==|  0.39770
USER: genes 3 Torsion [C]-N--CA-[C] |==|  0.60094
USER: genes 4 Torsion [N]-CA--C-[N] |==|  0.31904
USER: genes 5 Torsion [C]-N--CA-[CB] |==|  0.15996
USER: genes 6 Torsion [N]-CA--C-[N] |==|  0.51574
USER: genes 7 Torsion [N]-CA--C-[OXT] |==|  0.45310
USER: genes 8 Torsion [N]-CA--CB-[OG] |==|  0.14646
USER: genes 9 Torsion [CA]-CB--OG-[HG] |==|  0.41685
USER: genes 10 Torsion [N]-CA--CB-[CG2] |==|  0.40206
USER: genes 11 Torsion [CA]-CB--CG1-[CD1] |==|  0.50047
USER: genes 12 Torsion [N]-C--CA-[N] |==|  0.32968
USER: genes 13 Torsion [C]-CA--CB-[CG] |==|  0.25363
USER: genes 14 Torsion [CA]-CB--CG-[CD1] |==|  0.94737
USER: genes 15 Torsion [C]-CA--N-[C] |==|  0.79214
USER: genes 16 Torsion [N]-C--CA-[N] |==|  0.15281
USER: genes 17 Torsion [C]-CA--CB-[CG] |==|  0.38624
USER: genes 18 Torsion [CA]-CB--CG-[OD1] |==|  0.13648
USER: genes 19 Torsion [C]-CA--N-[C] |==|  0.61005
USER: genes 20 Torsion [N]-C--CA-[N] |==|  0.35642
USER: genes 21 Torsion [C]-CA--CB-[CG] |==|  0.04491
USER: genes 22 Torsion [CA]-CB--CG-[CD2] |==|  0.72198
ROOT
ATOM      1  C   PHE C 305      16.043   7.203  -0.561  0.50 34.66 LIG 0.24  C 
ATOM      2 O    PHE C 305      16.720   6.183  -0.649  0.50 33.80 LIG-0.27  OA
ATOM      3  N   PRO C 306      14.710   7.166  -0.368  0.50 35.29 LIG-0.34  N 
ATOM      4  CA  PRO C 306      13.965   5.976  -0.750  0.50 35.79 LIG 0.18  C 
ATOM      5  CB  PRO C 306      12.806   5.940   0.274  0.50 35.80 LIG 0.04  C 
ATOM      6  CG  PRO C 306      12.908   7.249   1.065  0.50 35.25 LIG 0.02  C 
ATOM      7  CD  PRO C 306      13.828   8.146   0.284  0.50 35.51 LIG 0.13  C 
ENDROOT
BRANCH 4 8
ATOM      8  C   PRO C 306      13.384   6.143  -2.155  0.50 36.50 LIG 0.24  C 
ATOM      9  N   ILE C 307      13.371   5.038  -2.920  0.50 37.01 LIG-0.35  N 
ATOM     10 H    ILE C 307      13.713   4.282  -2.696  0.50 37.01 LIG 0.16  HD
ATOM     11 O    PRO C 306      12.946   7.254  -2.529  0.50 36.74 LIG-0.27  OA
BRANCH 9 12
ATOM     12  CA  ILE C 307      12.739   5.071  -4.239  0.50 37.44 LIG 0.18  C 
BRANCH 12 13
ATOM     13  C   ILE C 307      12.026   3.762  -4.584  0.50 38.23 LIG 0.24  C 
ATOM     14  N   SER C 308      10.705   3.860  -4.707  0.50 38.91 LIG-0.34  N 
ATOM     15 H    SER C 308      10.267   4.566  -4.486  0.50 38.91 LIG 0.16  HD
ATOM     16 O    ILE C 307      12.657   2.706  -4.741  0.50 38.79 LIG-0.27  OA
BRANCH 14 17
ATOM     17  CA  SER C 308       9.859   2.789  -5.226  0.50 39.43 LIG 0.20  C 
BRANCH 17 18
ATOM     18  C   SER C 308       8.422   3.307  -5.131  0.50 39.77 LIG 0.24  C 
ATOM     19  N   PRO C 309       7.433   2.451  -5.444  0.50 40.03 LIG-0.34  N 
ATOM     20  CD  PRO C 309       7.497   0.983  -5.524  0.50 39.83 LIG 0.13  C 
ATOM     21  CA  PRO C 309       6.084   2.955  -5.710  0.50 40.09 LIG 0.19  C 
ATOM     22  CG  PRO C 309       6.253   0.634  -6.278  0.50 40.19 LIG 0.02  C 
ATOM     23  CB  PRO C 309       5.255   1.674  -5.870  0.50 40.09 LIG 0.04  C 
ATOM     24 O    SER C 308       8.201   4.464  -4.763  0.50 39.81 LIG-0.27  OA
BRANCH 21 25
ATOM     25  C   PRO C 309       5.533   3.836  -4.588  0.50 40.04 LIG 0.20  C 
ATOM     26 OXT  PRO C 309       4.566   4.581  -4.769  0.50 40.10 LIG-0.65  OA
ATOM     27 O    PRO C 309       6.054   3.832  -3.471  0.50 40.34 LIG-0.65  OA
ENDBRANCH 21 25
ENDBRANCH 17 18
BRANCH 17 28
ATOM     28  CB  SER C 308      10.023   1.512  -4.399  0.50 39.49 LIG 0.20  C 
BRANCH 28 29
ATOM     29 OG   SER C 308       9.829   1.761  -3.014  0.50 39.70 LIG-0.40  OA
ATOM     30 HG   SER C 308       9.521   1.072  -2.646  0.50 39.70 LIG 0.21  HD
ENDBRANCH 28 29
ENDBRANCH 17 28
ENDBRANCH 14 17
ENDBRANCH 12 13
BRANCH 12 31
ATOM     31  CB  ILE C 307      13.753   5.370  -5.371  0.50 37.20 LIG 0.01  C 
ATOM     32  CG2 ILE C 307      13.389   4.599  -6.649  0.50 36.86 LIG 0.01  C 
BRANCH 31 33
ATOM     33  CG1 ILE C 307      13.843   6.890  -5.590  0.50 35.88 LIG 0.00  C 
ATOM     34  CD1 ILE C 307      14.797   7.333  -6.673  0.50 32.01 LIG 0.01  C 
ENDBRANCH 31 33
ENDBRANCH 12 31
ENDBRANCH 9 12
ENDBRANCH 4 8
BRANCH 1 35
ATOM     35  CA  PHE C 305      16.723   8.576  -0.630  0.50 34.47 LIG 0.18  C 
BRANCH 35 36
ATOM     36  CB  PHE C 305      17.398   8.684  -2.006  0.50 34.49 LIG 0.07  C 
BRANCH 36 37
ATOM     37  CG  PHE C 305      16.540   9.303  -3.097  0.50 35.55 LIG-0.06  A 
ATOM     38  CD1 PHE C 305      15.152   9.379  -2.986  0.50 36.28 LIG 0.01  A 
ATOM     39  CE1 PHE C 305      14.383   9.956  -4.002  0.50 36.66 LIG 0.00  A 
ATOM     40  CZ  PHE C 305      15.003  10.452  -5.152  0.50 36.87 LIG 0.00  A 
ATOM     41  CE2 PHE C 305      16.378  10.379  -5.279  0.50 36.76 LIG 0.00  A 
ATOM     42  CD2 PHE C 305      17.142   9.796  -4.256  0.50 36.02 LIG 0.01  A 
ENDBRANCH 36 37
ENDBRANCH 35 36
BRANCH 35 43
ATOM     43  N   PHE C 305      17.730   8.819   0.410  0.50 33.54 LIG-0.35  N 
ATOM     44 H    PHE C 305      18.545   8.778   0.139  0.50 33.54 LIG 0.16  HD
ATOM     45  C   ASN C 304      17.366   9.080   1.666  0.50 33.07 LIG 0.24  C 
ATOM     46 O    ASN C 304      16.248   8.792   2.110  0.50 33.39 LIG-0.27  OA
BRANCH 45 47
ATOM     47  CA  ASN C 304      18.412   9.775   2.548  0.50 32.40 LIG 0.18  C 
BRANCH 47 48
ATOM     48  CB  ASN C 304      17.893  10.102   3.957  0.50 32.38 LIG 0.14  C 
BRANCH 48 49
ATOM     49  CG  ASN C 304      18.939   9.831   5.067  0.50 31.77 LIG 0.22  C 
ATOM     50 OD1  ASN C 304      20.087  10.253   4.976  0.50 27.48 LIG-0.27  OA
ATOM     51  ND2 ASN C 304      18.539   9.086   6.090  0.50 32.56 LIG-0.37  N 
ATOM     52 21HD ASN C 304      19.092   8.883   6.717  0.50 32.56 LIG 0.16  HD
ATOM     53 22HD ASN C 304      17.727   8.805   6.126  0.50 32.56 LIG 0.16  HD
ENDBRANCH 48 49
ENDBRANCH 47 48
BRANCH 47 54
ATOM     54  N   ASN C 304      18.864  10.996   1.926  0.50 31.56 LIG-0.34  N 
ATOM     55  C   LEU C 303      20.140  11.347   1.977  0.50 30.83 LIG 0.26  C 
ATOM     56 O    LEU C 303      21.017  10.581   2.351  0.50 29.02 LIG-0.27  OA
ATOM     57 H    ASN C 304      18.249  11.453   1.535  0.50 31.56 LIG 0.16  HD
BRANCH 55 58
ATOM     58  CA  LEU C 303      20.458  12.780   1.530  0.50 30.56 LIG 0.40  C 
ATOM     59  N   LEU C 303      21.267  13.550   2.514  0.50 30.88 LIG 0.61  N 
BRANCH 58 60
ATOM     60  CB  LEU C 303      21.143  12.790   0.158  0.50 30.80 LIG 0.06  C 
BRANCH 60 61
ATOM     61  CG  LEU C 303      21.061  11.517  -0.693  0.50 30.92 LIG-0.02  C 
ATOM     62  CD2 LEU C 303      22.363  10.701  -0.583  0.50 31.43 LIG 0.01  C 
ATOM     63  CD1 LEU C 303      20.719  11.837  -2.137  0.50 30.50 LIG 0.01  C 
ENDBRANCH 60 61
ENDBRANCH 58 60
ENDBRANCH 55 58
ENDBRANCH 47 54
ENDBRANCH 45 47
ENDBRANCH 35 43
ENDBRANCH 1 35
TORSDOF 21
ENDMDL
MODEL 5
USER: ADFR SOLUTION from run 116
USER: SCORE 16.679531 LL:  -4.458 LR: -14.413 RR:   0.000 FEB:  -8.149
USER: RMSD 2.416551
USER: SEED 115
USER: STATUS searching
USER: GENES 23
USER: genes 0 Translation |==|  0.60738 0.47939 0.55244
USER: genes 1 Rotation |==|  0.57591 0.50165 0.51673 0.99392
USER: genes 2 Torsion [N]-CA--C-[N] |==|  0.43705
USER: genes 3 Torsion [C]-N--CA-[C] |==|  0.61564
USER: genes 4 Torsion [N]-CA--C-[N] |==|  0.41820
USER: genes 5 Torsion [C]-N--CA-[CB] |==|  0.21652
USER: genes 6 Torsion [N]-CA--C-[N] |==|  0.38351
USER: genes 7 Torsion [N]-CA--C-[OXT] |==|  0.43904
USER: genes 8 Torsion [N]-CA--CB-[OG] |==|  0.51039
USER: genes 9 Torsion [CA]-CB--OG-[HG] |==|  0.20473
USER: genes 10 Torsion [N]-CA--CB-[CG2] |==|  0.96446
USER: genes 11 Torsion [CA]-CB--CG1-[CD1] |==|  0.57454
USER: genes 12 Torsion [N]-C--CA-[N] |==|  0.19600
USER: genes 13 Torsion [C]-CA--CB-[CG] |==|  0.19875
USER: genes 14 Torsion [CA]-CB--CG-[CD1] |==|  0.01639
USER: genes 15 Torsion [C]-CA--N-[C] |==|  0.56443
USER: genes 16 Torsion [N]-C--CA-[N] |==|  0.33013
USER: genes 17 Torsion [C]-CA--CB-[CG] |==|  0.30127
USER: genes 18 Torsion [CA]-CB--CG-[OD1] |==|  0.64036
USER: genes 19 Torsion [C]-CA--N-[C] |==|  0.55650
USER: genes 20 Torsion [N]-C--CA-[N] |==|  0.78052
USER: genes 21 Torsion [C]-CA--CB-[CG] |==|  0.25347
USER: genes 22 Torsion [CA]-CB--CG-[CD2] |==|  0.23186
ROOT
ATOM      1  C   PHE C 305      16.130   6.336   0.788  0.50 34.66 LIG 0.24  C 
ATOM      2 O    PHE C 305      16.881   5.699   0.056  0.50 33.80 LIG-0.27  OA
ATOM      3  N   PRO C 306      15.049   5.779   1.368  0.50 35.29 LIG-0.34  N 
ATOM      4  CA  PRO C 306      14.455   4.590   0.778  0.50 35.79 LIG 0.18  C 
ATOM      5  CB  PRO C 306      13.890   3.831   2.001  0.50 35.80 LIG 0.04  C 
ATOM      6  CG  PRO C 306      14.075   4.773   3.197  0.50 35.25 LIG 0.02  C 
ATOM      7  CD  PRO C 306      14.371   6.132   2.625  0.50 35.51 LIG 0.13  C 
ENDROOT
BRANCH 4 8
ATOM      8  C   PRO C 306      13.298   4.978  -0.146  0.50 36.50 LIG 0.24  C 
ATOM      9  N   ILE C 307      12.977   4.079  -1.092  0.50 37.01 LIG-0.35  N 
ATOM     10 H    ILE C 307      13.406   3.350  -1.243  0.50 37.01 LIG 0.16  HD
ATOM     11 O    PRO C 306      12.705   6.068   0.010  0.50 36.74 LIG-0.27  OA
BRANCH 9 12
ATOM     12  CA  ILE C 307      11.818   4.312  -1.955  0.50 37.44 LIG 0.18  C 
BRANCH 12 13
ATOM     13  C   ILE C 307      10.992   3.045  -2.187  0.50 38.23 LIG 0.24  C 
ATOM     14  N   SER C 308       9.696   3.253  -2.400  0.50 38.91 LIG-0.34  N 
ATOM     15 H    SER C 308       9.322   4.019  -2.290  0.50 38.91 LIG 0.16  HD
ATOM     16 O    ILE C 307      11.519   1.923  -2.182  0.50 38.79 LIG-0.27  OA
BRANCH 14 17
ATOM     17  CA  SER C 308       8.771   2.212  -2.841  0.50 39.43 LIG 0.20  C 
BRANCH 17 18
ATOM     18  C   SER C 308       7.544   2.946  -3.386  0.50 39.77 LIG 0.24  C 
ATOM     19  N   PRO C 309       6.995   2.478  -4.522  0.50 40.03 LIG-0.34  N 
ATOM     20  CD  PRO C 309       7.177   1.153  -5.135  0.50 39.83 LIG 0.13  C 
ATOM     21  CA  PRO C 309       6.057   3.309  -5.279  0.50 40.09 LIG 0.19  C 
ATOM     22  CG  PRO C 309       6.664   1.355  -6.527  0.50 40.19 LIG 0.02  C 
ATOM     23  CB  PRO C 309       5.567   2.365  -6.386  0.50 40.09 LIG 0.04  C 
ATOM     24 O    SER C 308       7.081   3.918  -2.782  0.50 39.81 LIG-0.27  OA
BRANCH 21 25
ATOM     25  C   PRO C 309       4.892   3.830  -4.438  0.50 40.04 LIG 0.20  C 
ATOM     26 OXT  PRO C 309       4.250   4.829  -4.774  0.50 40.10 LIG-0.65  OA
ATOM     27 O    PRO C 309       4.571   3.267  -3.389  0.50 40.34 LIG-0.65  OA
ENDBRANCH 21 25
ENDBRANCH 17 18
BRANCH 17 28
ATOM     28  CB  SER C 308       8.377   1.301  -1.677  0.50 39.49 LIG 0.20  C 
BRANCH 28 29
ATOM     29 OG   SER C 308       7.545   0.235  -2.111  0.50 39.70 LIG-0.40  OA
ATOM     30 HG   SER C 308       8.006  -0.327  -2.532  0.50 39.70 LIG 0.21  HD
ENDBRANCH 28 29
ENDBRANCH 17 28
ENDBRANCH 14 17
ENDBRANCH 12 13
BRANCH 12 31
ATOM     31  CB  ILE C 307      12.218   4.876  -3.340  0.50 37.20 LIG 0.01  C 
ATOM     32  CG2 ILE C 307      13.683   5.341  -3.339  0.50 36.86 LIG 0.01  C 
BRANCH 31 33
ATOM     33  CG1 ILE C 307      11.921   3.827  -4.426  0.50 35.88 LIG 0.00  C 
ATOM     34  CD1 ILE C 307      12.778   3.917  -5.665  0.50 32.01 LIG 0.01  C 
ENDBRANCH 31 33
ENDBRANCH 12 31
ENDBRANCH 9 12
ENDBRANCH 4 8
BRANCH 1 35
ATOM     35  CA  PHE C 305      16.436   7.807   1.098  0.50 34.47 LIG 0.18  C 
BRANCH 35 36
ATOM     36  CB  PHE C 305      17.514   8.270   0.106  0.50 34.49 LIG 0.07  C 
BRANCH 36 37
ATOM     37  CG  PHE C 305      17.040   8.437  -1.328  0.50 35.55 LIG-0.06  A 
ATOM     38  CD1 PHE C 305      15.697   8.303  -1.679  0.50 36.28 LIG 0.01  A 
ATOM     39  CE1 PHE C 305      15.284   8.465  -3.005  0.50 36.66 LIG 0.00  A 
ATOM     40  CZ  PHE C 305      16.222   8.752  -4.001  0.50 36.87 LIG 0.00  A 
ATOM     41  CE2 PHE C 305      17.559   8.883  -3.669  0.50 36.76 LIG 0.00  A 
ATOM     42  CD2 PHE C 305      17.965   8.716  -2.336  0.50 36.02 LIG 0.01  A 
ENDBRANCH 36 37
ENDBRANCH 35 36
BRANCH 35 43
ATOM     43  N   PHE C 305      16.909   8.065   2.463  0.50 33.54 LIG-0.35  N 
ATOM     44 H    PHE C 305      17.265   7.387   2.855  0.50 33.54 LIG 0.16  HD
ATOM     45  C   ASN C 304      16.778   9.271   3.016  0.50 33.07 LIG 0.24  C 
ATOM     46 O    ASN C 304      15.972  10.111   2.600  0.50 33.39 LIG-0.27  OA
BRANCH 45 47
ATOM     47  CA  ASN C 304      17.696   9.578   4.207  0.50 32.40 LIG 0.18  C 
BRANCH 47 48
ATOM     48  CB  ASN C 304      16.925   9.875   5.503  0.50 32.38 LIG 0.14  C 
BRANCH 48 49
ATOM     49  CG  ASN C 304      17.040   8.738   6.550  0.50 31.77 LIG 0.22  C 
ATOM     50 OD1  ASN C 304      16.044   8.267   7.088  0.50 27.48 LIG-0.27  OA
ATOM     51  ND2 ASN C 304      18.267   8.341   6.862  0.50 32.56 LIG-0.37  N 
ATOM     52 21HD ASN C 304      18.383   7.733   7.460  0.50 32.56 LIG 0.16  HD
ATOM     53 22HD ASN C 304      18.946   8.691   6.467  0.50 32.56 LIG 0.16  HD
ENDBRANCH 48 49
ENDBRANCH 47 48
BRANCH 47 54
ATOM     54  N   ASN C 304      18.550  10.702   3.907  0.50 31.56 LIG-0.34  N 
ATOM     55  C   LEU C 303      19.669  10.900   4.587  0.50 30.83 LIG 0.26  C 
ATOM     56 O    LEU C 303      20.140  10.054   5.335  0.50 29.02 LIG-0.27  OA
ATOM     57 H    ASN C 304      18.271  11.209   3.270  0.50 31.56 LIG 0.16  HD
BRANCH 55 58
ATOM     58  CA  LEU C 303      20.348  12.259   4.377  0.50 30.56 LIG 0.40  C 
ATOM     59  N   LEU C 303      21.132  12.350   3.115  0.50 30.88 LIG 0.61  N 
BRANCH 58 60
ATOM     60  CB  LEU C 303      19.327  13.402   4.449  0.50 30.80 LIG 0.06  C 
BRANCH 60 61
ATOM     61  CG  LEU C 303      19.081  14.057   5.813  0.50 30.92 LIG-0.02  C 
ATOM     62  CD2 LEU C 303      20.142  15.135   6.102  0.50 31.43 LIG 0.01  C 
ATOM     63  CD1 LEU C 303      19.017  13.021   6.922  0.50 30.50 LIG 0.01  C 
ENDBRANCH 60 61
ENDBRANCH 58 60
ENDBRANCH 55 58
ENDBRANCH 47 54
ENDBRANCH 45 47
ENDBRANCH 35 43
ENDBRANCH 1 35
TORSDOF 21
ENDMDL
MODEL 6
USER: ADFR SOLUTION from run 17
USER: SCORE 16.951228 LL:  -4.674 LR: -14.376 RR:   0.000 FEB:  -8.111
USER: RMSD 4.129685
USER: SEED 16
USER: STATUS no improvement in best in 11 clusters for 5 generations
USER: GENES 23
USER: genes 0 Translation |==|  0.61542 0.50742 0.51667
USER: genes 1 Rotation |==|  0.50722 0.44160 0.51860 0.99618
USER: genes 2 Torsion [N]-CA--C-[N] |==|  0.49607
USER: genes 3 Torsion [C]-N--CA-[C] |==|  0.59635
USER: genes 4 Torsion [N]-CA--C-[N] |==|  0.35384
USER: genes 5 Torsion [C]-N--CA-[CB] |==|  0.89237
USER: genes 6 Torsion [N]-CA--C-[N] |==|  0.30430
USER: genes 7 Torsion [N]-CA--C-[OXT] |==|  0.83024
USER: genes 8 Torsion [N]-CA--CB-[OG] |==|  0.82299
USER: genes 9 Torsion [CA]-CB--OG-[HG] |==|  0.59373
USER: genes 10 Torsion [N]-CA--CB-[CG2] |==|  0.40362
USER: genes 11 Torsion [CA]-CB--CG1-[CD1] |==|  0.46664
USER: genes 12 Torsion [N]-C--CA-[N] |==|  0.23333
USER: genes 13 Torsion [C]-CA--CB-[CG] |==|  0.27477
USER: genes 14 Torsion [CA]-CB--CG-[CD1] |==|  0.81078
USER: genes 15 Torsion [C]-CA--N-[C] |==|  0.65483
USER: genes 16 Torsion [N]-C--CA-[N] |==|  0.84129
USER: genes 17 Torsion [C]-CA--CB-[CG] |==|  0.71187
USER: genes 18 Torsion [CA]-CB--CG-[OD1] |==|  0.78646
USER: genes 19 Torsion [C]-CA--N-[C] |==|  0.61346
USER: genes 20 Torsion [N]-C--CA-[N] |==|  0.40274
USER: genes 21 Torsion [C]-CA--CB-[CG] |==|  0.99206
USER: genes 22 Torsion [CA]-CB--CG-[CD2] |==|  0.59729
ROOT
ATOM      1  C   PHE C 305      16.335   7.009   0.064  0.50 34.66 LIG 0.24  C 
ATOM      2 O    PHE C 305      17.200   6.205  -0.271  0.50 33.80 LIG-0.27  OA
ATOM      3  N   PRO C 306      15.115   6.619   0.481  0.50 35.29 LIG-0.34  N 
ATOM      4  CA  PRO C 306      14.608   5.314   0.088  0.50 35.79 LIG 0.18  C 
ATOM      5  CB  PRO C 306      13.721   4.902   1.287  0.50 35.80 LIG 0.04  C 
ATOM      6  CG  PRO C 306      13.671   6.127   2.207  0.50 35.25 LIG 0.02  C 
ATOM      7  CD  PRO C 306      14.178   7.288   1.397  0.50 35.51 LIG 0.13  C 
ENDROOT
BRANCH 4 8
ATOM      8  C   PRO C 306      13.733   5.439  -1.161  0.50 36.50 LIG 0.24  C 
ATOM      9  N   ILE C 307      13.228   4.290  -1.640  0.50 37.01 LIG-0.35  N 
ATOM     10 H    ILE C 307      13.409   3.507  -1.334  0.50 37.01 LIG 0.16  HD
ATOM     11 O    PRO C 306      13.514   6.562  -1.667  0.50 36.74 LIG-0.27  OA
BRANCH 9 12
ATOM     12  CA  ILE C 307      12.294   4.318  -2.767  0.50 37.44 LIG 0.18  C 
BRANCH 12 13
ATOM     13  C   ILE C 307      11.224   3.228  -2.672  0.50 38.23 LIG 0.24  C 
ATOM     14  N   SER C 308       9.972   3.662  -2.781  0.50 38.91 LIG-0.34  N 
ATOM     15 H    SER C 308       9.765   4.497  -2.775  0.50 38.91 LIG 0.16  HD
ATOM     16 O    ILE C 307      11.529   2.036  -2.515  0.50 38.79 LIG-0.27  OA
BRANCH 14 17
ATOM     17  CA  SER C 308       8.817   2.779  -2.922  0.50 39.43 LIG 0.20  C 
BRANCH 17 18
ATOM     18  C   SER C 308       8.480   2.301  -1.507  0.50 39.77 LIG 0.24  C 
ATOM     19  N   PRO C 309       7.352   2.771  -0.947  0.50 40.03 LIG-0.34  N 
ATOM     20  CD  PRO C 309       6.203   3.401  -1.617  0.50 39.83 LIG 0.13  C 
ATOM     21  CA  PRO C 309       7.141   2.642   0.497  0.50 40.09 LIG 0.19  C 
ATOM     22  CG  PRO C 309       5.471   4.052  -0.485  0.50 40.19 LIG 0.02  C 
ATOM     23  CB  PRO C 309       5.707   3.152   0.689  0.50 40.09 LIG 0.04  C 
ATOM     24 O    SER C 308       9.221   1.502  -0.928  0.50 39.81 LIG-0.27  OA
BRANCH 21 25
ATOM     25  C   PRO C 309       7.293   1.209   1.006  0.50 40.04 LIG 0.20  C 
ATOM     26 OXT  PRO C 309       6.561   0.301   0.603  0.50 40.10 LIG-0.65  OA
ATOM     27 O    PRO C 309       8.150   0.926   1.846  0.50 40.34 LIG-0.65  OA
ENDBRANCH 21 25
ENDBRANCH 17 18
BRANCH 17 28
ATOM     28  CB  SER C 308       9.146   1.588  -3.825  0.50 39.49 LIG 0.20  C 
BRANCH 28 29
ATOM     29 OG   SER C 308       9.443   2.008  -5.149  0.50 39.70 LIG-0.40  OA
ATOM     30 HG   SER C 308       9.174   1.428  -5.694  0.50 39.70 LIG 0.21  HD
ENDBRANCH 28 29
ENDBRANCH 17 28
ENDBRANCH 14 17
ENDBRANCH 12 13
BRANCH 12 31
ATOM     31  CB  ILE C 307      13.011   4.159  -4.130  0.50 37.20 LIG 0.01  C 
ATOM     32  CG2 ILE C 307      12.141   3.366  -5.117  0.50 36.86 LIG 0.01  C 
BRANCH 31 33
ATOM     33  CG1 ILE C 307      13.412   5.546  -4.662  0.50 35.88 LIG 0.00  C 
ATOM     34  CD1 ILE C 307      14.362   5.540  -5.835  0.50 32.01 LIG 0.01  C 
ENDBRANCH 31 33
ENDBRANCH 12 31
ENDBRANCH 9 12
ENDBRANCH 4 8
BRANCH 1 35
ATOM     35  CA  PHE C 305      16.647   8.511   0.051  0.50 34.47 LIG 0.18  C 
BRANCH 35 36
ATOM     36  CB  PHE C 305      17.747   8.742  -0.996  0.50 34.49 LIG 0.07  C 
BRANCH 36 37
ATOM     37  CG  PHE C 305      17.256   9.237  -2.347  0.50 35.55 LIG-0.06  A 
ATOM     38  CD1 PHE C 305      16.496   8.430  -3.193  0.50 36.28 LIG 0.01  A 
ATOM     39  CE1 PHE C 305      16.053   8.909  -4.430  0.50 36.66 LIG 0.00  A 
ATOM     40  CZ  PHE C 305      16.382  10.205  -4.839  0.50 36.87 LIG 0.00  A 
ATOM     41  CE2 PHE C 305      17.140  11.015  -4.011  0.50 36.76 LIG 0.00  A 
ATOM     42  CD2 PHE C 305      17.582  10.526  -2.772  0.50 36.02 LIG 0.01  A 
ENDBRANCH 36 37
ENDBRANCH 35 36
BRANCH 35 43
ATOM     43  N   PHE C 305      17.096   9.059   1.336  0.50 33.54 LIG-0.35  N 
ATOM     44 H    PHE C 305      17.782   8.666   1.675  0.50 33.54 LIG 0.16  HD
ATOM     45  C   ASN C 304      16.460  10.086   1.901  0.50 33.07 LIG 0.24  C 
ATOM     46 O    ASN C 304      15.303  10.401   1.601  0.50 33.39 LIG-0.27  OA
BRANCH 45 47
ATOM     47  CA  ASN C 304      17.248  10.881   2.952  0.50 32.40 LIG 0.18  C 
BRANCH 47 48
ATOM     48  CB  ASN C 304      18.467  11.611   2.367  0.50 32.38 LIG 0.14  C 
BRANCH 48 49
ATOM     49  CG  ASN C 304      19.809  10.909   2.694  0.50 31.77 LIG 0.22  C 
ATOM     50 OD1  ASN C 304      20.322  11.004   3.804  0.50 27.48 LIG-0.27  OA
ATOM     51  ND2 ASN C 304      20.388  10.245   1.702  0.50 32.56 LIG-0.37  N 
ATOM     52 21HD ASN C 304      21.149   9.863   1.826  0.50 32.56 LIG 0.16  HD
ATOM     53 22HD ASN C 304      20.003  10.196   0.934  0.50 32.56 LIG 0.16  HD
ENDBRANCH 48 49
ENDBRANCH 47 48
BRANCH 47 54
ATOM     54  N   ASN C 304      17.693  10.009   4.012  0.50 31.56 LIG-0.34  N 
ATOM     55  C   LEU C 303      17.644  10.404   5.276  0.50 30.83 LIG 0.26  C 
ATOM     56 O    LEU C 303      17.038  11.406   5.626  0.50 29.02 LIG-0.27  OA
ATOM     57 H    ASN C 304      17.982   9.241   3.753  0.50 31.56 LIG 0.16  HD
BRANCH 55 58
ATOM     58  CA  LEU C 303      18.390   9.520   6.282  0.50 30.56 LIG 0.40  C 
ATOM     59  N   LEU C 303      19.020  10.279   7.397  0.50 30.88 LIG 0.61  N 
BRANCH 58 60
ATOM     60  CB  LEU C 303      17.473   8.424   6.840  0.50 30.80 LIG 0.06  C 
BRANCH 60 61
ATOM     61  CG  LEU C 303      16.008   8.418   6.388  0.50 30.92 LIG-0.02  C 
ATOM     62  CD2 LEU C 303      15.085   7.956   7.531  0.50 31.43 LIG 0.01  C 
ATOM     63  CD1 LEU C 303      15.817   7.578   5.138  0.50 30.50 LIG 0.01  C 
ENDBRANCH 60 61
ENDBRANCH 58 60
ENDBRANCH 55 58
ENDBRANCH 47 54
ENDBRANCH 45 47
ENDBRANCH 35 43
ENDBRANCH 1 35
TORSDOF 21
ENDMDL
MODEL 7
USER: ADFR SOLUTION from run 185
USER: SCORE 17.397076 LL:  -4.950 LR: -14.210 RR:   0.000 FEB:  -7.946
USER: RMSD 3.087851
USER: SEED 184
USER: STATUS searching
USER: GENES 23
USER: genes 0 Translation |==|  0.61741 0.48453 0.54749
USER: genes 1 Rotation |==|  0.56243 0.46435 0.49434 0.99477
USER: genes 2 Torsion [N]-CA--C-[N] |==|  0.29654
USER: genes 3 Torsion [C]-N--CA-[C] |==|  0.75503
USER: genes 4 Torsion [N]-CA--C-[N] |==|  0.01997
USER: genes 5 Torsion [C]-N--CA-[CB] |==|  0.59237
USER: genes 6 Torsion [N]-CA--C-[N] |==|  0.81117
USER: genes 7 Torsion [N]-CA--C-[OXT] |==|  0.89470
USER: genes 8 Torsion [N]-CA--CB-[OG] |==|  0.98156
USER: genes 9 Torsion [CA]-CB--OG-[HG] |==|  0.85072
USER: genes 10 Torsion [N]-CA--CB-[CG2] |==|  0.95304
USER: genes 11 Torsion [CA]-CB--CG1-[CD1] |==|  0.51524
USER: genes 12 Torsion [N]-C--CA-[N] |==|  0.23365
USER: genes 13 Torsion [C]-CA--CB-[CG] |==|  0.22938
USER: genes 14 Torsion [CA]-CB--CG-[CD1] |==|  0.00658
USER: genes 15 Torsion [C]-CA--N-[C] |==|  0.68806
USER: genes 16 Torsion [N]-C--CA-[N] |==|  0.22269
USER: genes 17 Torsion [C]-CA--CB-[CG] |==|  0.28185
USER: genes 18 Torsion [CA]-CB--CG-[OD1] |==|  0.62493
USER: genes 19 Torsion [C]-CA--N-[C] |==|  0.57239
USER: genes 20 Torsion [N]-C--CA-[N] |==|  0.43313
USER: genes 21 Torsion [C]-CA--CB-[CG] |==|  0.04539
USER: genes 22 Torsion [CA]-CB--CG-[CD2] |==|  0.58419
ROOT
ATOM      1  C   PHE C 305      16.386   6.460   0.688  0.50 34.66 LIG 0.24  C 
ATOM      2 O    PHE C 305      17.150   5.705   0.093  0.50 33.80 LIG-0.27  OA
ATOM      3  N   PRO C 306      15.181   6.055   1.135  0.50 35.29 LIG-0.34  N 
ATOM      4  CA  PRO C 306      14.539   4.905   0.519  0.50 35.79 LIG 0.18  C 
ATOM      5  CB  PRO C 306      13.734   4.282   1.683  0.50 35.80 LIG 0.04  C 
ATOM      6  CG  PRO C 306      13.865   5.264   2.853  0.50 35.25 LIG 0.02  C 
ATOM      7  CD  PRO C 306      14.388   6.549   2.271  0.50 35.51 LIG 0.13  C 
ENDROOT
BRANCH 4 8
ATOM      8  C   PRO C 306      13.567   5.362  -0.571  0.50 36.50 LIG 0.24  C 
ATOM      9  N   ILE C 307      13.962   5.149  -1.837  0.50 37.01 LIG-0.35  N 
ATOM     10 H    ILE C 307      14.730   4.837  -2.066  0.50 37.01 LIG 0.16  HD
ATOM     11 O    PRO C 306      12.473   5.887  -0.261  0.50 36.74 LIG-0.27  OA
BRANCH 9 12
ATOM     12  CA  ILE C 307      13.057   5.455  -2.945  0.50 37.44 LIG 0.18  C 
BRANCH 12 13
ATOM     13  C   ILE C 307      12.145   4.278  -3.302  0.50 38.23 LIG 0.24  C 
ATOM     14  N   SER C 308      12.215   3.244  -2.468  0.50 38.91 LIG-0.34  N 
ATOM     15 H    SER C 308      12.813   3.179  -1.853  0.50 38.91 LIG 0.16  HD
ATOM     16 O    ILE C 307      11.402   4.316  -4.293  0.50 38.79 LIG-0.27  OA
BRANCH 14 17
ATOM     17  CA  SER C 308      11.293   2.112  -2.504  0.50 39.43 LIG 0.20  C 
BRANCH 17 18
ATOM     18  C   SER C 308       9.991   2.650  -3.101  0.50 39.77 LIG 0.24  C 
ATOM     19  N   PRO C 309       9.291   3.533  -2.367  0.50 40.03 LIG-0.34  N 
ATOM     20  CD  PRO C 309       9.760   4.335  -1.226  0.50 39.83 LIG 0.13  C 
ATOM     21  CA  PRO C 309       7.895   3.823  -2.703  0.50 40.09 LIG 0.19  C 
ATOM     22  CG  PRO C 309       8.485   4.801  -0.596  0.50 40.19 LIG 0.02  C 
ATOM     23  CB  PRO C 309       7.532   4.962  -1.741  0.50 40.09 LIG 0.04  C 
ATOM     24 O    SER C 308       9.624   2.287  -4.222  0.50 39.81 LIG-0.27  OA
BRANCH 21 25
ATOM     25  C   PRO C 309       7.697   4.242  -4.159  0.50 40.04 LIG 0.20  C 
ATOM     26 OXT  PRO C 309       8.517   4.957  -4.741  0.50 40.10 LIG-0.65  OA
ATOM     27 O    PRO C 309       6.698   3.884  -4.788  0.50 40.34 LIG-0.65  OA
ENDBRANCH 21 25
ENDBRANCH 17 18
BRANCH 17 28
ATOM     28  CB  SER C 308      11.050   1.560  -1.097  0.50 39.49 LIG 0.20  C 
BRANCH 28 29
ATOM     29 OG   SER C 308      11.893   2.186  -0.141  0.50 39.70 LIG-0.40  OA
ATOM     30 HG   SER C 308      12.693   2.124  -0.389  0.50 39.70 LIG 0.21  HD
ENDBRANCH 28 29
ENDBRANCH 17 28
ENDBRANCH 14 17
ENDBRANCH 12 13
BRANCH 12 31
ATOM     31  CB  ILE C 307      13.816   5.871  -4.229  0.50 37.20 LIG 0.01  C 
ATOM     32  CG2 ILE C 307      15.266   6.260  -3.905  0.50 36.86 LIG 0.01  C 
BRANCH 31 33
ATOM     33  CG1 ILE C 307      13.714   4.745  -5.273  0.50 35.88 LIG 0.00  C 
ATOM     34  CD1 ILE C 307      14.517   4.956  -6.533  0.50 32.01 LIG 0.01  C 
ENDBRANCH 31 33
ENDBRANCH 12 31
ENDBRANCH 9 12
ENDBRANCH 4 8
BRANCH 1 35
ATOM     35  CA  PHE C 305      16.814   7.905   0.976  0.50 34.47 LIG 0.18  C 
BRANCH 35 36
ATOM     36  CB  PHE C 305      17.827   8.307  -0.107  0.50 34.49 LIG 0.07  C 
BRANCH 36 37
ATOM     37  CG  PHE C 305      17.217   8.772  -1.419  0.50 35.55 LIG-0.06  A 
ATOM     38  CD1 PHE C 305      15.838   8.871  -1.594  0.50 36.28 LIG 0.01  A 
ATOM     39  CE1 PHE C 305      15.300   9.306  -2.809  0.50 36.66 LIG 0.00  A 
ATOM     40  CZ  PHE C 305      16.147   9.634  -3.872  0.50 36.87 LIG 0.00  A 
ATOM     41  CE2 PHE C 305      17.518   9.536  -3.715  0.50 36.76 LIG 0.00  A 
ATOM     42  CD2 PHE C 305      18.049   9.097  -2.492  0.50 36.02 LIG 0.01  A 
ENDBRANCH 36 37
ENDBRANCH 35 36
BRANCH 35 43
ATOM     43  N   PHE C 305      17.422   8.117   2.294  0.50 33.54 LIG-0.35  N 
ATOM     44 H    PHE C 305      18.190   7.744   2.401  0.50 33.54 LIG 0.16  HD
ATOM     45  C   ASN C 304      16.799   8.839   3.226  0.50 33.07 LIG 0.24  C 
ATOM     46 O    ASN C 304      15.583   9.062   3.195  0.50 33.39 LIG-0.27  OA
BRANCH 45 47
ATOM     47  CA  ASN C 304      17.677   9.400   4.353  0.50 32.40 LIG 0.18  C 
BRANCH 47 48
ATOM     48  CB  ASN C 304      16.886   9.728   5.629  0.50 32.38 LIG 0.14  C 
BRANCH 48 49
ATOM     49  CG  ASN C 304      17.034   8.649   6.730  0.50 31.77 LIG 0.22  C 
ATOM     50 OD1  ASN C 304      16.061   8.239   7.354  0.50 27.48 LIG-0.27  OA
ATOM     51  ND2 ASN C 304      18.267   8.231   6.988  0.50 32.56 LIG-0.37  N 
ATOM     52 21HD ASN C 304      18.404   7.653   7.611  0.50 32.56 LIG 0.16  HD
ATOM     53 22HD ASN C 304      18.929   8.537   6.532  0.50 32.56 LIG 0.16  HD
ENDBRANCH 48 49
ENDBRANCH 47 48
BRANCH 47 54
ATOM     54  N   ASN C 304      18.362  10.591   3.912  0.50 31.56 LIG-0.34  N 
ATOM     55  C   LEU C 303      19.510  10.953   4.465  0.50 30.83 LIG 0.26  C 
ATOM     56 O    LEU C 303      20.145  10.213   5.203  0.50 29.02 LIG-0.27  OA
ATOM     57 H    ASN C 304      17.968  11.023   3.282  0.50 31.56 LIG 0.16  HD
BRANCH 55 58
ATOM     58  CA  LEU C 303      20.003  12.363   4.119  0.50 30.56 LIG 0.40  C 
ATOM     59  N   LEU C 303      20.925  12.943   5.134  0.50 30.88 LIG 0.61  N 
BRANCH 58 60
ATOM     60  CB  LEU C 303      20.657  12.393   2.732  0.50 30.80 LIG 0.06  C 
BRANCH 60 61
ATOM     61  CG  LEU C 303      20.389  11.215   1.788  0.50 30.92 LIG-0.02  C 
ATOM     62  CD2 LEU C 303      21.589  10.981   0.851  0.50 31.43 LIG 0.01  C 
ATOM     63  CD1 LEU C 303      19.099  11.409   1.012  0.50 30.50 LIG 0.01  C 
ENDBRANCH 60 61
ENDBRANCH 58 60
ENDBRANCH 55 58
ENDBRANCH 47 54
ENDBRANCH 45 47
ENDBRANCH 35 43
ENDBRANCH 1 35
TORSDOF 21
ENDMDL
MODEL 8
USER: ADFR SOLUTION from run 163
USER: SCORE 15.885274 LL:  -4.203 LR: -14.136 RR:   0.000 FEB:  -7.872
USER: RMSD 2.774087
USER: SEED 162
USER: STATUS no improvement in best in 4 clusters for 5 generations
USER: GENES 23
USER: genes 0 Translation |==|  0.61645 0.48228 0.53873
USER: genes 1 Rotation |==|  0.53041 0.51214 0.51389 0.99873
USER: genes 2 Torsion [N]-CA--C-[N] |==|  0.54065
USER: genes 3 Torsion [C]-N--CA-[C] |==|  0.20639
USER: genes 4 Torsion [N]-CA--C-[N] |==|  0.42616
USER: genes 5 Torsion [C]-N--CA-[CB] |==|  0.21664
USER: genes 6 Torsion [N]-CA--C-[N] |==|  0.80607
USER: genes 7 Torsion [N]-CA--C-[OXT] |==|  0.45100
USER: genes 8 Torsion [N]-CA--CB-[OG] |==|  0.79082
USER: genes 9 Torsion [CA]-CB--OG-[HG] |==|  0.59514
USER: genes 10 Torsion [N]-CA--CB-[CG2] |==|  0.51769
USER: genes 11 Torsion [CA]-CB--CG1-[CD1] |==|  0.36267
USER: genes 12 Torsion [N]-C--CA-[N] |==|  0.20272
USER: genes 13 Torsion [C]-CA--CB-[CG] |==|  0.25038
USER: genes 14 Torsion [CA]-CB--CG-[CD1] |==|  0.91873
USER: genes 15 Torsion [C]-CA--N-[C] |==|  0.55556
USER: genes 16 Torsion [N]-C--CA-[N] |==|  0.40606
USER: genes 17 Torsion [C]-CA--CB-[CG] |==|  0.39356
USER: genes 18 Torsion [CA]-CB--CG-[OD1] |==|  0.12123
USER: genes 19 Torsion [C]-CA--N-[C] |==|  0.64730
USER: genes 20 Torsion [N]-C--CA-[N] |==|  0.77235
USER: genes 21 Torsion [C]-CA--CB-[CG] |==|  0.19284
USER: genes 22 Torsion [CA]-CB--CG-[CD2] |==|  0.68729
ROOT
ATOM      1  C   PHE C 305      16.362   6.406   0.510  0.50 34.66 LIG 0.24  C 
ATOM      2 O    PHE C 305      17.084   5.639  -0.120  0.50 33.80 LIG-0.27  OA
ATOM      3  N   PRO C 306      15.302   5.973   1.221  0.50 35.29 LIG-0.34  N 
ATOM      4  CA  PRO C 306      14.684   4.701   0.882  0.50 35.79 LIG 0.18  C 
ATOM      5  CB  PRO C 306      14.164   4.184   2.243  0.50 35.80 LIG 0.04  C 
ATOM      6  CG  PRO C 306      14.395   5.327   3.238  0.50 35.25 LIG 0.02  C 
ATOM      7  CD  PRO C 306      14.672   6.556   2.416  0.50 35.51 LIG 0.13  C 
ENDROOT
BRANCH 4 8
ATOM      8  C   PRO C 306      13.495   4.923  -0.055  0.50 36.50 LIG 0.24  C 
ATOM      9  N   ILE C 307      12.660   3.880  -0.199  0.50 37.01 LIG-0.35  N 
ATOM     10 H    ILE C 307      12.782   3.101   0.144  0.50 37.01 LIG 0.16  HD
ATOM     11 O    PRO C 306      13.337   6.026  -0.624  0.50 36.74 LIG-0.27  OA
BRANCH 9 12
ATOM     12  CA  ILE C 307      11.437   4.029  -0.990  0.50 37.44 LIG 0.18  C 
BRANCH 12 13
ATOM     13  C   ILE C 307      11.711   4.067  -2.496  0.50 38.23 LIG 0.24  C 
ATOM     14  N   SER C 308      10.704   3.652  -3.258  0.50 38.91 LIG-0.34  N 
ATOM     15 H    SER C 308      10.002   3.270  -2.938  0.50 38.91 LIG 0.16  HD
ATOM     16 O    ILE C 307      12.795   4.469  -2.944  0.50 38.79 LIG-0.27  OA
BRANCH 14 17
ATOM     17  CA  SER C 308      10.675   3.796  -4.711  0.50 39.43 LIG 0.20  C 
BRANCH 17 18
ATOM     18  C   SER C 308       9.210   3.624  -5.121  0.50 39.77 LIG 0.24  C 
ATOM     19  N   PRO C 309       8.675   2.395  -5.004  0.50 40.03 LIG-0.34  N 
ATOM     20  CD  PRO C 309       9.173   1.262  -4.209  0.50 39.83 LIG 0.13  C 
ATOM     21  CA  PRO C 309       7.418   2.076  -5.685  0.50 40.09 LIG 0.19  C 
ATOM     22  CG  PRO C 309       8.419   0.099  -4.774  0.50 40.19 LIG 0.02  C 
ATOM     23  CB  PRO C 309       7.092   0.665  -5.178  0.50 40.09 LIG 0.04  C 
ATOM     24 O    SER C 308       8.560   4.592  -5.524  0.50 39.81 LIG-0.27  OA
BRANCH 21 25
ATOM     25  C   PRO C 309       6.289   3.055  -5.364  0.50 40.04 LIG 0.20  C 
ATOM     26 OXT  PRO C 309       5.283   3.134  -6.075  0.50 40.10 LIG-0.65  OA
ATOM     27 O    PRO C 309       6.362   3.804  -4.388  0.50 40.34 LIG-0.65  OA
ENDBRANCH 21 25
ENDBRANCH 17 18
BRANCH 17 28
ATOM     28  CB  SER C 308      11.548   2.734  -5.383  0.50 39.49 LIG 0.20  C 
BRANCH 28 29
ATOM     29 OG   SER C 308      12.929   3.038  -5.252  0.50 39.70 LIG-0.40  OA
ATOM     30 HG   SER C 308      13.338   2.784  -5.941  0.50 39.70 LIG 0.21  HD
ENDBRANCH 28 29
ENDBRANCH 17 28
ENDBRANCH 14 17
ENDBRANCH 12 13
BRANCH 12 31
ATOM     31  CB  ILE C 307      10.648   5.309  -0.620  0.50 37.20 LIG 0.01  C 
ATOM     32  CG2 ILE C 307       9.299   5.351  -1.353  0.50 36.86 LIG 0.01  C 
BRANCH 31 33
ATOM     33  CG1 ILE C 307      10.504   5.397   0.909  0.50 35.88 LIG 0.00  C 
ATOM     34  CD1 ILE C 307      10.881   6.726   1.519  0.50 32.01 LIG 0.01  C 
ENDBRANCH 31 33
ENDBRANCH 12 31
ENDBRANCH 9 12
ENDBRANCH 4 8
BRANCH 1 35
ATOM     35  CA  PHE C 305      16.681   7.906   0.534  0.50 34.47 LIG 0.18  C 
BRANCH 35 36
ATOM     36  CB  PHE C 305      17.676   8.180  -0.604  0.50 34.49 LIG 0.07  C 
BRANCH 36 37
ATOM     37  CG  PHE C 305      17.043   8.536  -1.940  0.50 35.55 LIG-0.06  A 
ATOM     38  CD1 PHE C 305      15.787   8.056  -2.310  0.50 36.28 LIG 0.01  A 
ATOM     39  CE1 PHE C 305      15.225   8.399  -3.543  0.50 36.66 LIG 0.00  A 
ATOM     40  CZ  PHE C 305      15.927   9.222  -4.429  0.50 36.87 LIG 0.00  A 
ATOM     41  CE2 PHE C 305      17.176   9.702  -4.078  0.50 36.76 LIG 0.00  A 
ATOM     42  CD2 PHE C 305      17.735   9.350  -2.839  0.50 36.02 LIG 0.01  A 
ENDBRANCH 36 37
ENDBRANCH 35 36
BRANCH 35 43
ATOM     43  N   PHE C 305      17.257   8.395   1.792  0.50 33.54 LIG-0.35  N 
ATOM     44 H    PHE C 305      17.609   7.786   2.287  0.50 33.54 LIG 0.16  HD
ATOM     45  C   ASN C 304      17.217   9.690   2.105  0.50 33.07 LIG 0.24  C 
ATOM     46 O    ASN C 304      16.422  10.479   1.580  0.50 33.39 LIG-0.27  OA
BRANCH 45 47
ATOM     47  CA  ASN C 304      18.227  10.169   3.157  0.50 32.40 LIG 0.18  C 
BRANCH 47 48
ATOM     48  CB  ASN C 304      17.675  10.119   4.590  0.50 32.38 LIG 0.14  C 
BRANCH 48 49
ATOM     49  CG  ASN C 304      18.730   9.668   5.631  0.50 31.77 LIG 0.22  C 
ATOM     50 OD1  ASN C 304      19.875  10.105   5.605  0.50 27.48 LIG-0.27  OA
ATOM     51  ND2 ASN C 304      18.340   8.757   6.514  0.50 32.56 LIG-0.37  N 
ATOM     52 21HD ASN C 304      18.899   8.453   7.094  0.50 32.56 LIG 0.16  HD
ATOM     53 22HD ASN C 304      17.530   8.470   6.507  0.50 32.56 LIG 0.16  HD
ENDBRANCH 48 49
ENDBRANCH 47 48
BRANCH 47 54
ATOM     54  N   ASN C 304      18.651  11.518   2.869  0.50 31.56 LIG-0.34  N 
ATOM     55  C   LEU C 303      19.939  11.815   2.779  0.50 30.83 LIG 0.26  C 
ATOM     56 O    LEU C 303      20.807  10.956   2.718  0.50 29.02 LIG-0.27  OA
ATOM     57 H    ASN C 304      18.012  12.085   2.767  0.50 31.56 LIG 0.16  HD
BRANCH 55 58
ATOM     58  CA  LEU C 303      20.279  13.310   2.747  0.50 30.56 LIG 0.40  C 
ATOM     59  N   LEU C 303      20.134  13.930   1.402  0.50 30.88 LIG 0.61  N 
BRANCH 58 60
ATOM     60  CB  LEU C 303      19.452  14.086   3.779  0.50 30.80 LIG 0.06  C 
BRANCH 60 61
ATOM     61  CG  LEU C 303      19.760  13.855   5.264  0.50 30.92 LIG-0.02  C 
ATOM     62  CD2 LEU C 303      18.586  13.144   5.962  0.50 31.43 LIG 0.01  C 
ATOM     63  CD1 LEU C 303      20.126  15.153   5.962  0.50 30.50 LIG 0.01  C 
ENDBRANCH 60 61
ENDBRANCH 58 60
ENDBRANCH 55 58
ENDBRANCH 47 54
ENDBRANCH 45 47
ENDBRANCH 35 43
ENDBRANCH 1 35
TORSDOF 21
ENDMDL
MODEL 9
USER: ADFR SOLUTION from run 40
USER: SCORE 15.994786 LL:  -4.681 LR: -14.099 RR:   0.000 FEB:  -7.835
USER: RMSD 3.186253
USER: SEED 39
USER: STATUS searching
USER: GENES 23
USER: genes 0 Translation |==|  0.62652 0.49787 0.54858
USER: genes 1 Rotation |==|  0.49669 0.50142 0.50943 0.99990
USER: genes 2 Torsion [N]-CA--C-[N] |==|  0.32285
USER: genes 3 Torsion [C]-N--CA-[C] |==|  0.69354
USER: genes 4 Torsion [N]-CA--C-[N] |==|  0.08285
USER: genes 5 Torsion [C]-N--CA-[CB] |==|  0.41865
USER: genes 6 Torsion [N]-CA--C-[N] |==|  0.23545
USER: genes 7 Torsion [N]-CA--C-[OXT] |==|  0.37771
USER: genes 8 Torsion [N]-CA--CB-[OG] |==|  0.79654
USER: genes 9 Torsion [CA]-CB--OG-[HG] |==|  0.74736
USER: genes 10 Torsion [N]-CA--CB-[CG2] |==|  0.56081
USER: genes 11 Torsion [CA]-CB--CG1-[CD1] |==|  0.43907
USER: genes 12 Torsion [N]-C--CA-[N] |==|  0.20570
USER: genes 13 Torsion [C]-CA--CB-[CG] |==|  0.32915
USER: genes 14 Torsion [CA]-CB--CG-[CD1] |==|  0.23973
USER: genes 15 Torsion [C]-CA--N-[C] |==|  0.53333
USER: genes 16 Torsion [N]-C--CA-[N] |==|  0.44203
USER: genes 17 Torsion [C]-CA--CB-[CG] |==|  0.37448
USER: genes 18 Torsion [CA]-CB--CG-[OD1] |==|  0.13126
USER: genes 19 Torsion [C]-CA--N-[C] |==|  0.61121
USER: genes 20 Torsion [N]-C--CA-[N] |==|  0.79765
USER: genes 21 Torsion [C]-CA--CB-[CG] |==|  0.20668
USER: genes 22 Torsion [CA]-CB--CG-[CD2] |==|  0.72635
ROOT
ATOM      1  C   PHE C 305      16.618   6.780   0.710  0.50 34.66 LIG 0.24  C 
ATOM      2 O    PHE C 305      17.352   5.925   0.222  0.50 33.80 LIG-0.27  OA
ATOM      3  N   PRO C 306      15.520   6.461   1.422  0.50 35.29 LIG-0.34  N 
ATOM      4  CA  PRO C 306      14.892   5.164   1.227  0.50 35.79 LIG 0.18  C 
ATOM      5  CB  PRO C 306      14.302   4.842   2.619  0.50 35.80 LIG 0.04  C 
ATOM      6  CG  PRO C 306      14.511   6.105   3.462  0.50 35.25 LIG 0.02  C 
ATOM      7  CD  PRO C 306      14.849   7.208   2.498  0.50 35.51 LIG 0.13  C 
ENDROOT
BRANCH 4 8
ATOM      8  C   PRO C 306      13.750   5.275   0.214  0.50 36.50 LIG 0.24  C 
ATOM      9  N   ILE C 307      13.907   4.581  -0.925  0.50 37.01 LIG-0.35  N 
ATOM     10 H    ILE C 307      14.614   4.141  -1.140  0.50 37.01 LIG 0.16  HD
ATOM     11 O    PRO C 306      12.742   5.969   0.474  0.50 36.74 LIG-0.27  OA
BRANCH 9 12
ATOM     12  CA  ILE C 307      12.824   4.539  -1.909  0.50 37.44 LIG 0.18  C 
BRANCH 12 13
ATOM     13  C   ILE C 307      12.170   3.158  -2.005  0.50 38.23 LIG 0.24  C 
ATOM     14  N   SER C 308      12.192   2.449  -0.880  0.50 38.91 LIG-0.34  N 
ATOM     15 H    SER C 308      12.646   2.684  -0.188  0.50 38.91 LIG 0.16  HD
ATOM     16 O    ILE C 307      11.658   2.760  -3.061  0.50 38.79 LIG-0.27  OA
BRANCH 14 17
ATOM     17  CA  SER C 308      11.453   1.203  -0.694  0.50 39.43 LIG 0.20  C 
BRANCH 17 18
ATOM     18  C   SER C 308      10.079   1.607  -0.154  0.50 39.77 LIG 0.24  C 
ATOM     19  N   PRO C 309       9.138   1.954  -1.051  0.50 40.03 LIG-0.34  N 
ATOM     20  CD  PRO C 309       9.114   1.667  -2.495  0.50 39.83 LIG 0.13  C 
ATOM     21  CA  PRO C 309       7.938   2.670  -0.615  0.50 40.09 LIG 0.19  C 
ATOM     22  CG  PRO C 309       8.073   2.612  -3.007  0.50 40.19 LIG 0.02  C 
ATOM     23  CB  PRO C 309       7.084   2.731  -1.888  0.50 40.09 LIG 0.04  C 
ATOM     24 O    SER C 308       9.858   1.591   1.060  0.50 39.81 LIG-0.27  OA
BRANCH 21 25
ATOM     25  C   PRO C 309       7.192   1.968   0.520  0.50 40.04 LIG 0.20  C 
ATOM     26 OXT  PRO C 309       6.759   2.594   1.491  0.50 40.10 LIG-0.65  OA
ATOM     27 O    PRO C 309       7.015   0.748   0.497  0.50 40.34 LIG-0.65  OA
ENDBRANCH 21 25
ENDBRANCH 17 18
BRANCH 17 28
ATOM     28  CB  SER C 308      12.170   0.286   0.299  0.50 39.49 LIG 0.20  C 
BRANCH 28 29
ATOM     29 OG   SER C 308      13.334  -0.291  -0.274  0.50 39.70 LIG-0.40  OA
ATOM     30 HG   SER C 308      13.137  -1.024  -0.633  0.50 39.70 LIG 0.21  HD
ENDBRANCH 28 29
ENDBRANCH 17 28
ENDBRANCH 14 17
ENDBRANCH 12 13
BRANCH 12 31
ATOM     31  CB  ILE C 307      13.299   4.937  -3.327  0.50 37.20 LIG 0.01  C 
ATOM     32  CG2 ILE C 307      12.118   5.407  -4.189  0.50 36.86 LIG 0.01  C 
BRANCH 31 33
ATOM     33  CG1 ILE C 307      14.418   5.988  -3.216  0.50 35.88 LIG 0.00  C 
ATOM     34  CD1 ILE C 307      15.324   6.099  -4.418  0.50 32.01 LIG 0.01  C 
ENDBRANCH 31 33
ENDBRANCH 12 31
ENDBRANCH 9 12
ENDBRANCH 4 8
BRANCH 1 35
ATOM     35  CA  PHE C 305      16.967   8.265   0.548  0.50 34.47 LIG 0.18  C 
BRANCH 35 36
ATOM     36  CB  PHE C 305      17.996   8.373  -0.588  0.50 34.49 LIG 0.07  C 
BRANCH 36 37
ATOM     37  CG  PHE C 305      17.548   9.193  -1.786  0.50 35.55 LIG-0.06  A 
ATOM     38  CD1 PHE C 305      17.713  10.577  -1.833  0.50 36.28 LIG 0.01  A 
ATOM     39  CE1 PHE C 305      17.296  11.309  -2.949  0.50 36.66 LIG 0.00  A 
ATOM     40  CZ  PHE C 305      16.694  10.659  -4.030  0.50 36.87 LIG 0.00  A 
ATOM     41  CE2 PHE C 305      16.519   9.287  -3.995  0.50 36.76 LIG 0.00  A 
ATOM     42  CD2 PHE C 305      16.938   8.559  -2.871  0.50 36.02 LIG 0.01  A 
ENDBRANCH 36 37
ENDBRANCH 35 36
BRANCH 35 43
ATOM     43  N   PHE C 305      17.519   8.903   1.748  0.50 33.54 LIG-0.35  N 
ATOM     44 H    PHE C 305      17.747   8.358   2.374  0.50 33.54 LIG 0.16  HD
ATOM     45  C   ASN C 304      17.642  10.229   1.823  0.50 33.07 LIG 0.24  C 
ATOM     46 O    ASN C 304      17.004  11.000   1.095  0.50 33.39 LIG-0.27  OA
BRANCH 45 47
ATOM     47  CA  ASN C 304      18.635  10.764   2.863  0.50 32.40 LIG 0.18  C 
BRANCH 47 48
ATOM     48  CB  ASN C 304      18.075  10.756   4.293  0.50 32.38 LIG 0.14  C 
BRANCH 48 49
ATOM     49  CG  ASN C 304      19.080  10.201   5.335  0.50 31.77 LIG 0.22  C 
ATOM     50 OD1  ASN C 304      20.245  10.580   5.358  0.50 27.48 LIG-0.27  OA
ATOM     51  ND2 ASN C 304      18.622   9.270   6.162  0.50 32.56 LIG-0.37  N 
ATOM     52 21HD ASN C 304      19.149   8.910   6.739  0.50 32.56 LIG 0.16  HD
ATOM     53 22HD ASN C 304      17.798   9.026   6.121  0.50 32.56 LIG 0.16  HD
ENDBRANCH 48 49
ENDBRANCH 47 48
BRANCH 47 54
ATOM     54  N   ASN C 304      19.037  12.110   2.529  0.50 31.56 LIG-0.34  N 
ATOM     55  C   LEU C 303      20.294  12.496   2.683  0.50 30.83 LIG 0.26  C 
ATOM     56 O    LEU C 303      21.202  11.706   2.901  0.50 29.02 LIG-0.27  OA
ATOM     57 H    ASN C 304      18.405  12.613   2.233  0.50 31.56 LIG 0.16  HD
BRANCH 55 58
ATOM     58  CA  LEU C 303      20.549  14.004   2.564  0.50 30.56 LIG 0.40  C 
ATOM     59  N   LEU C 303      20.455  14.521   1.171  0.50 30.88 LIG 0.61  N 
BRANCH 58 60
ATOM     60  CB  LEU C 303      19.614  14.796   3.486  0.50 30.80 LIG 0.06  C 
BRANCH 60 61
ATOM     61  CG  LEU C 303      19.910  14.780   4.991  0.50 30.92 LIG-0.02  C 
ATOM     62  CD2 LEU C 303      19.022  13.749   5.712  0.50 31.43 LIG 0.01  C 
ATOM     63  CD1 LEU C 303      19.770  16.165   5.597  0.50 30.50 LIG 0.01  C 
ENDBRANCH 60 61
ENDBRANCH 58 60
ENDBRANCH 55 58
ENDBRANCH 47 54
ENDBRANCH 45 47
ENDBRANCH 35 43
ENDBRANCH 1 35
TORSDOF 21
ENDMDL
MODEL 10
USER: ADFR SOLUTION from run 74
USER: SCORE 16.915951 LL:  -4.549 LR: -13.940 RR:   0.000 FEB:  -7.676
USER: RMSD 2.117621
USER: SEED 73
USER: STATUS searching
USER: GENES 23
USER: genes 0 Translation |==|  0.60238 0.51121 0.53912
USER: genes 1 Rotation |==|  0.58447 0.49668 0.55934 0.98922
USER: genes 2 Torsion [N]-CA--C-[N] |==|  0.46383
USER: genes 3 Torsion [C]-N--CA-[C] |==|  0.63582
USER: genes 4 Torsion [N]-CA--C-[N] |==|  0.39781
USER: genes 5 Torsion [C]-N--CA-[CB] |==|  0.22814
USER: genes 6 Torsion [N]-CA--C-[N] |==|  0.35117
USER: genes 7 Torsion [N]-CA--C-[OXT] |==|  0.94346
USER: genes 8 Torsion [N]-CA--CB-[OG] |==|  0.85405
USER: genes 9 Torsion [CA]-CB--OG-[HG] |==|  0.79378
USER: genes 10 Torsion [N]-CA--CB-[CG2] |==|  0.93370
USER: genes 11 Torsion [CA]-CB--CG1-[CD1] |==|  0.36290
USER: genes 12 Torsion [N]-C--CA-[N] |==|  0.34955
USER: genes 13 Torsion [C]-CA--CB-[CG] |==|  0.83409
USER: genes 14 Torsion [CA]-CB--CG-[CD1] |==|  0.86910
USER: genes 15 Torsion [C]-CA--N-[C] |==|  0.71576
USER: genes 16 Torsion [N]-C--CA-[N] |==|  0.07139
USER: genes 17 Torsion [C]-CA--CB-[CG] |==|  0.38580
USER: genes 18 Torsion [CA]-CB--CG-[OD1] |==|  0.87313
USER: genes 19 Torsion [C]-CA--N-[C] |==|  0.65601
USER: genes 20 Torsion [N]-C--CA-[N] |==|  0.21610
USER: genes 21 Torsion [C]-CA--CB-[CG] |==|  0.16942
USER: genes 22 Torsion [CA]-CB--CG-[CD2] |==|  0.64719
ROOT
ATOM      1  C   PHE C 305      16.003   7.100   0.518  0.50 34.66 LIG 0.24  C 
ATOM      2 O    PHE C 305      16.879   6.626  -0.199  0.50 33.80 LIG-0.27  OA
ATOM      3  N   PRO C 306      15.006   6.349   1.027  0.50 35.29 LIG-0.34  N 
ATOM      4  CA  PRO C 306      14.642   5.104   0.369  0.50 35.79 LIG 0.18  C 
ATOM      5  CB  PRO C 306      14.162   4.213   1.538  0.50 35.80 LIG 0.04  C 
ATOM      6  CG  PRO C 306      14.138   5.122   2.772  0.50 35.25 LIG 0.02  C 
ATOM      7  CD  PRO C 306      14.228   6.533   2.262  0.50 35.51 LIG 0.13  C 
ENDROOT
BRANCH 4 8
ATOM      8  C   PRO C 306      13.476   5.334  -0.594  0.50 36.50 LIG 0.24  C 
ATOM      9  N   ILE C 307      13.223   4.336  -1.458  0.50 37.01 LIG-0.35  N 
ATOM     10 H    ILE C 307      13.698   3.625  -1.540  0.50 37.01 LIG 0.16  HD
ATOM     11 O    PRO C 306      12.815   6.395  -0.542  0.50 36.74 LIG-0.27  OA
BRANCH 9 12
ATOM     12  CA  ILE C 307      12.064   4.418  -2.347  0.50 37.44 LIG 0.18  C 
BRANCH 12 13
ATOM     13  C   ILE C 307      11.220   3.141  -2.333  0.50 38.23 LIG 0.24  C 
ATOM     14  N   SER C 308       9.908   3.337  -2.426  0.50 38.91 LIG-0.34  N 
ATOM     15 H    SER C 308       9.546   4.116  -2.368  0.50 38.91 LIG 0.16  HD
ATOM     16 O    ILE C 307      11.746   2.022  -2.251  0.50 38.79 LIG-0.27  OA
BRANCH 14 17
ATOM     17  CA  SER C 308       8.941   2.263  -2.635  0.50 39.43 LIG 0.20  C 
BRANCH 17 18
ATOM     18  C   SER C 308       7.696   2.927  -3.227  0.50 39.77 LIG 0.24  C 
ATOM     19  N   PRO C 309       7.215   2.427  -4.379  0.50 40.03 LIG-0.34  N 
ATOM     20  CD  PRO C 309       7.490   1.111  -4.979  0.50 39.83 LIG 0.13  C 
ATOM     21  CA  PRO C 309       6.261   3.203  -5.173  0.50 40.09 LIG 0.19  C 
ATOM     22  CG  PRO C 309       7.017   1.281  -6.389  0.50 40.19 LIG 0.02  C 
ATOM     23  CB  PRO C 309       5.862   2.231  -6.292  0.50 40.09 LIG 0.04  C 
ATOM     24 O    SER C 308       7.160   3.874  -2.644  0.50 39.81 LIG-0.27  OA
BRANCH 21 25
ATOM     25  C   PRO C 309       5.040   3.662  -4.376  0.50 40.04 LIG 0.20  C 
ATOM     26 OXT  PRO C 309       4.709   3.105  -3.325  0.50 40.10 LIG-0.65  OA
ATOM     27 O    PRO C 309       4.343   4.598  -4.774  0.50 40.34 LIG-0.65  OA
ENDBRANCH 21 25
ENDBRANCH 17 18
BRANCH 17 28
ATOM     28  CB  SER C 308       8.602   1.568  -1.314  0.50 39.49 LIG 0.20  C 
BRANCH 28 29
ATOM     29 OG   SER C 308       9.774   1.149  -0.631  0.50 39.70 LIG-0.40  OA
ATOM     30 HG   SER C 308      10.097   0.476  -1.015  0.50 39.70 LIG 0.21  HD
ENDBRANCH 28 29
ENDBRANCH 17 28
ENDBRANCH 14 17
ENDBRANCH 12 13
BRANCH 12 31
ATOM     31  CB  ILE C 307      12.465   4.704  -3.815  0.50 37.20 LIG 0.01  C 
ATOM     32  CG2 ILE C 307      13.835   5.396  -3.883  0.50 36.86 LIG 0.01  C 
BRANCH 31 33
ATOM     33  CG1 ILE C 307      12.412   3.397  -4.625  0.50 35.88 LIG 0.00  C 
ATOM     34  CD1 ILE C 307      11.654   3.473  -5.928  0.50 32.01 LIG 0.01  C 
ENDBRANCH 31 33
ENDBRANCH 12 31
ENDBRANCH 9 12
ENDBRANCH 4 8
BRANCH 1 35
ATOM     35  CA  PHE C 305      16.047   8.587   0.892  0.50 34.47 LIG 0.18  C 
BRANCH 35 36
ATOM     36  CB  PHE C 305      15.766   9.390  -0.387  0.50 34.49 LIG 0.07  C 
BRANCH 36 37
ATOM     37  CG  PHE C 305      16.752   9.160  -1.521  0.50 35.55 LIG-0.06  A 
ATOM     38  CD1 PHE C 305      18.130   9.176  -1.311  0.50 36.28 LIG 0.01  A 
ATOM     39  CE1 PHE C 305      19.018   8.958  -2.369  0.50 36.66 LIG 0.00  A 
ATOM     40  CZ  PHE C 305      18.528   8.735  -3.660  0.50 36.87 LIG 0.00  A 
ATOM     41  CE2 PHE C 305      17.163   8.721  -3.884  0.50 36.76 LIG 0.00  A 
ATOM     42  CD2 PHE C 305      16.279   8.943  -2.817  0.50 36.02 LIG 0.01  A 
ENDBRANCH 36 37
ENDBRANCH 35 36
BRANCH 35 43
ATOM     43  N   PHE C 305      17.319   9.042   1.465  0.50 33.54 LIG-0.35  N 
ATOM     44 H    PHE C 305      17.948   9.168   0.891  0.50 33.54 LIG 0.16  HD
ATOM     45  C   ASN C 304      17.449   9.233   2.778  0.50 33.07 LIG 0.24  C 
ATOM     46 O    ASN C 304      16.682   8.725   3.605  0.50 33.39 LIG-0.27  OA
BRANCH 45 47
ATOM     47  CA  ASN C 304      18.606  10.137   3.225  0.50 32.40 LIG 0.18  C 
BRANCH 47 48
ATOM     48  CB  ASN C 304      18.292  10.933   4.501  0.50 32.38 LIG 0.14  C 
BRANCH 48 49
ATOM     49  CG  ASN C 304      19.487  10.999   5.485  0.50 31.77 LIG 0.22  C 
ATOM     50 OD1  ASN C 304      20.141   9.999   5.758  0.50 27.48 LIG-0.27  OA
ATOM     51  ND2 ASN C 304      19.731  12.178   6.043  0.50 32.56 LIG-0.37  N 
ATOM     52 21HD ASN C 304      20.366  12.258   6.618  0.50 32.56 LIG 0.16  HD
ATOM     53 22HD ASN C 304      19.255  12.861   5.830  0.50 32.56 LIG 0.16  HD
ENDBRANCH 48 49
ENDBRANCH 47 48
BRANCH 47 54
ATOM     54  N   ASN C 304      18.956  11.061   2.174  0.50 31.56 LIG-0.34  N 
ATOM     55  C   LEU C 303      20.195  11.115   1.708  0.50 30.83 LIG 0.26  C 
ATOM     56 O    LEU C 303      21.034  10.267   1.976  0.50 29.02 LIG-0.27  OA
ATOM     57 H    ASN C 304      18.309  11.553   1.893  0.50 31.56 LIG 0.16  HD
BRANCH 55 58
ATOM     58  CA  LEU C 303      20.517  12.310   0.801  0.50 30.56 LIG 0.40  C 
ATOM     59  N   LEU C 303      20.742  13.582   1.540  0.50 30.88 LIG 0.61  N 
BRANCH 58 60
ATOM     60  CB  LEU C 303      21.715  12.006  -0.106  0.50 30.80 LIG 0.06  C 
BRANCH 60 61
ATOM     61  CG  LEU C 303      21.591  10.835  -1.089  0.50 30.92 LIG-0.02  C 
ATOM     62  CD2 LEU C 303      22.771   9.859  -0.929  0.50 31.43 LIG 0.01  C 
ATOM     63  CD1 LEU C 303      21.457  11.325  -2.520  0.50 30.50 LIG 0.01  C 
ENDBRANCH 60 61
ENDBRANCH 58 60
ENDBRANCH 55 58
ENDBRANCH 47 54
ENDBRANCH 45 47
ENDBRANCH 35 43
ENDBRANCH 1 35
TORSDOF 21
ENDMDL
MODEL 11
USER: ADFR SOLUTION from run 42
USER: SCORE 16.594960 LL:  -4.233 LR: -13.924 RR:   0.000 FEB:  -7.660
USER: RMSD 3.449736
USER: SEED 41
USER: STATUS no improvement in best in 8 clusters for 5 generations
USER: GENES 23
USER: genes 0 Translation |==|  0.61884 0.48852 0.53662
USER: genes 1 Rotation |==|  0.51970 0.46263 0.50138 0.99821
USER: genes 2 Torsion [N]-CA--C-[N] |==|  0.50422
USER: genes 3 Torsion [C]-N--CA-[C] |==|  0.74324
USER: genes 4 Torsion [N]-CA--C-[N] |==|  0.51981
USER: genes 5 Torsion [C]-N--CA-[CB] |==|  0.53826
USER: genes 6 Torsion [N]-CA--C-[N] |==|  0.36832
USER: genes 7 Torsion [N]-CA--C-[OXT] |==|  0.96728
USER: genes 8 Torsion [N]-CA--CB-[OG] |==|  0.92410
USER: genes 9 Torsion [CA]-CB--OG-[HG] |==|  0.64030
USER: genes 10 Torsion [N]-CA--CB-[CG2] |==|  0.23615
USER: genes 11 Torsion [CA]-CB--CG1-[CD1] |==|  0.30763
USER: genes 12 Torsion [N]-C--CA-[N] |==|  0.22746
USER: genes 13 Torsion [C]-CA--CB-[CG] |==|  0.26107
USER: genes 14 Torsion [CA]-CB--CG-[CD1] |==|  0.83993
USER: genes 15 Torsion [C]-CA--N-[C] |==|  0.57101
USER: genes 16 Torsion [N]-C--CA-[N] |==|  0.39546
USER: genes 17 Torsion [C]-CA--CB-[CG] |==|  0.39668
USER: genes 18 Torsion [CA]-CB--CG-[OD1] |==|  0.11920
USER: genes 19 Torsion [C]-CA--N-[C] |==|  0.65721
USER: genes 20 Torsion [N]-C--CA-[N] |==|  0.89531
USER: genes 21 Torsion [C]-CA--CB-[CG] |==|  0.77224
USER: genes 22 Torsion [CA]-CB--CG-[CD2] |==|  0.64110
ROOT
ATOM      1  C   PHE C 305      16.422   6.556   0.468  0.50 34.66 LIG 0.24  C 
ATOM      2 O    PHE C 305      17.202   5.722   0.016  0.50 33.80 LIG-0.27  OA
ATOM      3  N   PRO C 306      15.220   6.215   0.971  0.50 35.29 LIG-0.34  N 
ATOM      4  CA  PRO C 306      14.599   4.967   0.558  0.50 35.79 LIG 0.18  C 
ATOM      5  CB  PRO C 306      13.793   4.541   1.808  0.50 35.80 LIG 0.04  C 
ATOM      6  CG  PRO C 306      13.900   5.712   2.791  0.50 35.25 LIG 0.02  C 
ATOM      7  CD  PRO C 306      14.409   6.885   2.000  0.50 35.51 LIG 0.13  C 
ENDROOT
BRANCH 4 8
ATOM      8  C   PRO C 306      13.630   5.214  -0.600  0.50 36.50 LIG 0.24  C 
ATOM      9  N   ILE C 307      12.967   4.135  -1.051  0.50 37.01 LIG-0.35  N 
ATOM     10 H    ILE C 307      13.095   3.331  -0.778  0.50 37.01 LIG 0.16  HD
ATOM     11 O    PRO C 306      13.482   6.367  -1.063  0.50 36.74 LIG-0.27  OA
BRANCH 9 12
ATOM     12  CA  ILE C 307      11.942   4.289  -2.084  0.50 37.44 LIG 0.18  C 
BRANCH 12 13
ATOM     13  C   ILE C 307      10.540   4.475  -1.498  0.50 38.23 LIG 0.24  C 
ATOM     14  N   SER C 308       9.556   4.470  -2.393  0.50 38.91 LIG-0.34  N 
ATOM     15 H    SER C 308       9.695   4.491  -3.241  0.50 38.91 LIG 0.16  HD
ATOM     16 O    ILE C 307      10.363   4.608  -0.279  0.50 38.79 LIG-0.27  OA
BRANCH 14 17
ATOM     17  CA  SER C 308       8.140   4.428  -2.038  0.50 39.43 LIG 0.20  C 
BRANCH 17 18
ATOM     18  C   SER C 308       8.007   3.338  -0.972  0.50 39.77 LIG 0.24  C 
ATOM     19  N   PRO C 309       7.298   3.634   0.133  0.50 40.03 LIG-0.34  N 
ATOM     20  CD  PRO C 309       6.330   4.726   0.321  0.50 39.83 LIG 0.13  C 
ATOM     21  CA  PRO C 309       7.412   2.791   1.325  0.50 40.09 LIG 0.19  C 
ATOM     22  CG  PRO C 309       6.183   4.790   1.809  0.50 40.19 LIG 0.02  C 
ATOM     23  CB  PRO C 309       6.354   3.375   2.270  0.50 40.09 LIG 0.04  C 
ATOM     24 O    SER C 308       8.523   2.231  -1.147  0.50 39.81 LIG-0.27  OA
BRANCH 21 25
ATOM     25  C   PRO C 309       7.152   1.311   1.048  0.50 40.04 LIG 0.20  C 
ATOM     26 OXT  PRO C 309       6.670   0.930  -0.023  0.50 40.10 LIG-0.65  OA
ATOM     27 O    PRO C 309       7.408   0.456   1.899  0.50 40.34 LIG-0.65  OA
ENDBRANCH 21 25
ENDBRANCH 17 18
BRANCH 17 28
ATOM     28  CB  SER C 308       7.279   4.092  -3.258  0.50 39.49 LIG 0.20  C 
BRANCH 28 29
ATOM     29 OG   SER C 308       7.904   4.507  -4.464  0.50 39.70 LIG-0.40  OA
ATOM     30 HG   SER C 308       7.362   4.956  -4.921  0.50 39.70 LIG 0.21  HD
ENDBRANCH 28 29
ENDBRANCH 17 28
ENDBRANCH 14 17
ENDBRANCH 12 13
BRANCH 12 31
ATOM     31  CB  ILE C 307      11.894   3.081  -3.051  0.50 37.20 LIG 0.01  C 
ATOM     32  CG2 ILE C 307      11.017   1.956  -2.479  0.50 36.86 LIG 0.01  C 
BRANCH 31 33
ATOM     33  CG1 ILE C 307      11.433   3.555  -4.441  0.50 35.88 LIG 0.00  C 
ATOM     34  CD1 ILE C 307      12.488   3.517  -5.520  0.50 32.01 LIG 0.01  C 
ENDBRANCH 31 33
ENDBRANCH 12 31
ENDBRANCH 9 12
ENDBRANCH 4 8
BRANCH 1 35
ATOM     35  CA  PHE C 305      16.827   8.035   0.505  0.50 34.47 LIG 0.18  C 
BRANCH 35 36
ATOM     36  CB  PHE C 305      17.886   8.248  -0.588  0.50 34.49 LIG 0.07  C 
BRANCH 36 37
ATOM     37  CG  PHE C 305      17.344   8.724  -1.926  0.50 35.55 LIG-0.06  A 
ATOM     38  CD1 PHE C 305      16.382   7.999  -2.629  0.50 36.28 LIG 0.01  A 
ATOM     39  CE1 PHE C 305      15.896   8.459  -3.856  0.50 36.66 LIG 0.00  A 
ATOM     40  CZ  PHE C 305      16.383   9.651  -4.401  0.50 36.87 LIG 0.00  A 
ATOM     41  CE2 PHE C 305      17.341  10.378  -3.717  0.50 36.76 LIG 0.00  A 
ATOM     42  CD2 PHE C 305      17.825   9.908  -2.486  0.50 36.02 LIG 0.01  A 
ENDBRANCH 36 37
ENDBRANCH 35 36
BRANCH 35 43
ATOM     43  N   PHE C 305      17.373   8.493   1.788  0.50 33.54 LIG-0.35  N 
ATOM     44 H    PHE C 305      17.734   7.876   2.266  0.50 33.54 LIG 0.16  HD
ATOM     45  C   ASN C 304      17.295   9.775   2.145  0.50 33.07 LIG 0.24  C 
ATOM     46 O    ASN C 304      16.487  10.561   1.637  0.50 33.39 LIG-0.27  OA
BRANCH 45 47
ATOM     47  CA  ASN C 304      18.278  10.242   3.228  0.50 32.40 LIG 0.18  C 
BRANCH 47 48
ATOM     48  CB  ASN C 304      17.677  10.215   4.641  0.50 32.38 LIG 0.14  C 
BRANCH 48 49
ATOM     49  CG  ASN C 304      18.695   9.778   5.725  0.50 31.77 LIG 0.22  C 
ATOM     50 OD1  ASN C 304      19.845  10.202   5.725  0.50 27.48 LIG-0.27  OA
ATOM     51  ND2 ASN C 304      18.267   8.892   6.616  0.50 32.56 LIG-0.37  N 
ATOM     52 21HD ASN C 304      18.804   8.596   7.220  0.50 32.56 LIG 0.16  HD
ATOM     53 22HD ASN C 304      17.454   8.614   6.591  0.50 32.56 LIG 0.16  HD
ENDBRANCH 48 49
ENDBRANCH 47 48
BRANCH 47 54
ATOM     54  N   ASN C 304      18.739  11.579   2.945  0.50 31.56 LIG-0.34  N 
ATOM     55  C   LEU C 303      20.034  11.836   2.826  0.50 30.83 LIG 0.26  C 
ATOM     56 O    LEU C 303      20.872  10.950   2.736  0.50 29.02 LIG-0.27  OA
ATOM     57 H    ASN C 304      18.117  12.168   2.864  0.50 31.56 LIG 0.16  HD
BRANCH 55 58
ATOM     58  CA  LEU C 303      20.422  13.320   2.803  0.50 30.56 LIG 0.40  C 
ATOM     59  N   LEU C 303      19.459  14.181   2.063  0.50 30.88 LIG 0.61  N 
BRANCH 58 60
ATOM     60  CB  LEU C 303      20.629  13.857   4.224  0.50 30.80 LIG 0.06  C 
BRANCH 60 61
ATOM     61  CG  LEU C 303      19.387  14.279   5.019  0.50 30.92 LIG-0.02  C 
ATOM     62  CD2 LEU C 303      19.565  15.693   5.601  0.50 31.43 LIG 0.01  C 
ATOM     63  CD1 LEU C 303      19.050  13.265   6.098  0.50 30.50 LIG 0.01  C 
ENDBRANCH 60 61
ENDBRANCH 58 60
ENDBRANCH 55 58
ENDBRANCH 47 54
ENDBRANCH 45 47
ENDBRANCH 35 43
ENDBRANCH 1 35
TORSDOF 21
ENDMDL
MODEL 12
USER: ADFR SOLUTION from run 42
USER: SCORE 17.142687 LL:  -4.644 LR: -13.848 RR:   0.000 FEB:  -7.583
USER: RMSD 3.596135
USER: SEED 41
USER: STATUS no improvement in best in 8 clusters for 5 generations
USER: GENES 23
USER: genes 0 Translation |==|  0.61860 0.50026 0.53811
USER: genes 1 Rotation |==|  0.46974 0.46376 0.50371 0.99775
USER: genes 2 Torsion [N]-CA--C-[N] |==|  0.49905
USER: genes 3 Torsion [C]-N--CA-[C] |==|  0.72778
USER: genes 4 Torsion [N]-CA--C-[N] |==|  0.49682
USER: genes 5 Torsion [C]-N--CA-[CB] |==|  0.55323
USER: genes 6 Torsion [N]-CA--C-[N] |==|  0.34018
USER: genes 7 Torsion [N]-CA--C-[OXT] |==|  0.98712
USER: genes 8 Torsion [N]-CA--CB-[OG] |==|  0.80722
USER: genes 9 Torsion [CA]-CB--OG-[HG] |==|  0.76061
USER: genes 10 Torsion [N]-CA--CB-[CG2] |==|  0.27046
USER: genes 11 Torsion [CA]-CB--CG1-[CD1] |==|  0.68746
USER: genes 12 Torsion [N]-C--CA-[N] |==|  0.30276
USER: genes 13 Torsion [C]-CA--CB-[CG] |==|  0.45382
USER: genes 14 Torsion [CA]-CB--CG-[CD1] |==|  0.04544
USER: genes 15 Torsion [C]-CA--N-[C] |==|  0.76515
USER: genes 16 Torsion [N]-C--CA-[N] |==|  0.14236
USER: genes 17 Torsion [C]-CA--CB-[CG] |==|  0.39417
USER: genes 18 Torsion [CA]-CB--CG-[OD1] |==|  0.84568
USER: genes 19 Torsion [C]-CA--N-[C] |==|  0.61543
USER: genes 20 Torsion [N]-C--CA-[N] |==|  0.34413
USER: genes 21 Torsion [C]-CA--CB-[CG] |==|  0.05646
USER: genes 22 Torsion [CA]-CB--CG-[CD2] |==|  0.72198
ROOT
ATOM      1  C   PHE C 305      16.416   6.837   0.498  0.50 34.66 LIG 0.24  C 
ATOM      2 O    PHE C 305      17.190   5.926   0.219  0.50 33.80 LIG-0.27  OA
ATOM      3  N   PRO C 306      15.214   6.611   1.062  0.50 35.29 LIG-0.34  N 
ATOM      4  CA  PRO C 306      14.585   5.309   0.908  0.50 35.79 LIG 0.18  C 
ATOM      5  CB  PRO C 306      13.782   5.144   2.219  0.50 35.80 LIG 0.04  C 
ATOM      6  CG  PRO C 306      13.899   6.487   2.950  0.50 35.25 LIG 0.02  C 
ATOM      7  CD  PRO C 306      14.411   7.476   1.940  0.50 35.51 LIG 0.13  C 
ENDROOT
BRANCH 4 8
ATOM      8  C   PRO C 306      13.613   5.326  -0.274  0.50 36.50 LIG 0.24  C 
ATOM      9  N   ILE C 307      12.972   4.172  -0.523  0.50 37.01 LIG-0.35  N 
ATOM     10 H    ILE C 307      13.115   3.432  -0.111  0.50 37.01 LIG 0.16  HD
ATOM     11 O    PRO C 306      13.443   6.375  -0.935  0.50 36.74 LIG-0.27  OA
BRANCH 9 12
ATOM     12  CA  ILE C 307      11.945   4.119  -1.565  0.50 37.44 LIG 0.18  C 
BRANCH 12 13
ATOM     13  C   ILE C 307      10.528   4.244  -1.000  0.50 38.23 LIG 0.24  C 
ATOM     14  N   SER C 308       9.559   4.225  -1.912  0.50 38.91 LIG-0.34  N 
ATOM     15 H    SER C 308       9.712   4.270  -2.757  0.50 38.91 LIG 0.16  HD
ATOM     16 O    ILE C 307      10.326   4.344   0.219  0.50 38.79 LIG-0.27  OA
BRANCH 14 17
ATOM     17  CA  SER C 308       8.140   4.127  -1.583  0.50 39.43 LIG 0.20  C 
BRANCH 17 18
ATOM     18  C   SER C 308       8.042   3.106  -0.446  0.50 39.77 LIG 0.24  C 
ATOM     19  N   PRO C 309       7.471   3.511   0.702  0.50 40.03 LIG-0.34  N 
ATOM     20  CD  PRO C 309       6.604   4.680   0.919  0.50 39.83 LIG 0.13  C 
ATOM     21  CA  PRO C 309       7.649   2.726   1.926  0.50 40.09 LIG 0.19  C 
ATOM     22  CG  PRO C 309       6.614   4.833   2.408  0.50 40.19 LIG 0.02  C 
ATOM     23  CB  PRO C 309       6.734   3.435   2.933  0.50 40.09 LIG 0.04  C 
ATOM     24 O    SER C 308       8.462   1.957  -0.605  0.50 39.81 LIG-0.27  OA
BRANCH 21 25
ATOM     25  C   PRO C 309       7.262   1.256   1.764  0.50 40.04 LIG 0.20  C 
ATOM     26 OXT  PRO C 309       6.766   0.831   0.717  0.50 40.10 LIG-0.65  OA
ATOM     27 O    PRO C 309       7.426   0.456   2.688  0.50 40.34 LIG-0.65  OA
ENDBRANCH 21 25
ENDBRANCH 17 18
BRANCH 17 28
ATOM     28  CB  SER C 308       7.329   3.659  -2.794  0.50 39.49 LIG 0.20  C 
BRANCH 28 29
ATOM     29 OG   SER C 308       7.282   4.657  -3.804  0.50 39.70 LIG-0.40  OA
ATOM     30 HG   SER C 308       6.646   5.183  -3.649  0.50 39.70 LIG 0.21  HD
ENDBRANCH 28 29
ENDBRANCH 17 28
ENDBRANCH 14 17
ENDBRANCH 12 13
BRANCH 12 31
ATOM     31  CB  ILE C 307      12.011   2.812  -2.391  0.50 37.20 LIG 0.01  C 
ATOM     32  CG2 ILE C 307      10.997   1.782  -1.870  0.50 36.86 LIG 0.01  C 
BRANCH 31 33
ATOM     33  CG1 ILE C 307      11.823   3.139  -3.883  0.50 35.88 LIG 0.00  C 
ATOM     34  CD1 ILE C 307      10.545   2.627  -4.503  0.50 32.01 LIG 0.01  C 
ENDBRANCH 31 33
ENDBRANCH 12 31
ENDBRANCH 9 12
ENDBRANCH 4 8
BRANCH 1 35
ATOM     35  CA  PHE C 305      16.829   8.292   0.239  0.50 34.47 LIG 0.18  C 
BRANCH 35 36
ATOM     36  CB  PHE C 305      17.298   8.382  -1.221  0.50 34.49 LIG 0.07  C 
BRANCH 36 37
ATOM     37  CG  PHE C 305      17.373   9.791  -1.787  0.50 35.55 LIG-0.06  A 
ATOM     38  CD1 PHE C 305      17.367  10.916  -0.963  0.50 36.28 LIG 0.01  A 
ATOM     39  CE1 PHE C 305      17.440  12.201  -1.508  0.50 36.66 LIG 0.00  A 
ATOM     40  CZ  PHE C 305      17.506  12.373  -2.894  0.50 36.87 LIG 0.00  A 
ATOM     41  CE2 PHE C 305      17.507  11.266  -3.724  0.50 36.76 LIG 0.00  A 
ATOM     42  CD2 PHE C 305      17.431   9.979  -3.169  0.50 36.02 LIG 0.01  A 
ENDBRANCH 36 37
ENDBRANCH 35 36
BRANCH 35 43
ATOM     43  N   PHE C 305      17.897   8.795   1.111  0.50 33.54 LIG-0.35  N 
ATOM     44 H    PHE C 305      18.688   8.742   0.778  0.50 33.54 LIG 0.16  HD
ATOM     45  C   ASN C 304      17.619   9.287   2.319  0.50 33.07 LIG 0.24  C 
ATOM     46 O    ASN C 304      16.564   9.038   2.914  0.50 33.39 LIG-0.27  OA
BRANCH 45 47
ATOM     47  CA  ASN C 304      18.681  10.202   2.943  0.50 32.40 LIG 0.18  C 
BRANCH 47 48
ATOM     48  CB  ASN C 304      18.221  10.854   4.255  0.50 32.38 LIG 0.14  C 
BRANCH 48 49
ATOM     49  CG  ASN C 304      19.350  10.953   5.312  0.50 31.77 LIG 0.22  C 
ATOM     50 OD1  ASN C 304      19.969   9.960   5.676  0.50 27.48 LIG-0.27  OA
ATOM     51  ND2 ASN C 304      19.574  12.155   5.829  0.50 32.56 LIG-0.37  N 
ATOM     52 21HD ASN C 304      20.171  12.255   6.441  0.50 32.56 LIG 0.16  HD
ATOM     53 22HD ASN C 304      19.123  12.833   5.553  0.50 32.56 LIG 0.16  HD
ENDBRANCH 48 49
ENDBRANCH 47 48
BRANCH 47 54
ATOM     54  N   ASN C 304      19.058  11.241   2.015  0.50 31.56 LIG-0.34  N 
ATOM     55  C   LEU C 303      20.327  11.597   1.879  0.50 30.83 LIG 0.26  C 
ATOM     56 O    LEU C 303      21.246  10.942   2.351  0.50 29.02 LIG-0.27  OA
ATOM     57 H    ASN C 304      18.405  11.592   1.579  0.50 31.56 LIG 0.16  HD
BRANCH 55 58
ATOM     58  CA  LEU C 303      20.579  12.883   1.083  0.50 30.56 LIG 0.40  C 
ATOM     59  N   LEU C 303      21.359  13.908   1.829  0.50 30.88 LIG 0.61  N 
BRANCH 58 60
ATOM     60  CB  LEU C 303      21.256  12.577  -0.259  0.50 30.80 LIG 0.06  C 
BRANCH 60 61
ATOM     61  CG  LEU C 303      21.141  11.151  -0.810  0.50 30.92 LIG-0.02  C 
ATOM     62  CD2 LEU C 303      22.425  10.350  -0.527  0.50 31.43 LIG 0.01  C 
ATOM     63  CD1 LEU C 303      20.796  11.154  -2.289  0.50 30.50 LIG 0.01  C 
ENDBRANCH 60 61
ENDBRANCH 58 60
ENDBRANCH 55 58
ENDBRANCH 47 54
ENDBRANCH 45 47
ENDBRANCH 35 43
ENDBRANCH 1 35
TORSDOF 21
ENDMDL
MODEL 13
USER: ADFR SOLUTION from run 72
USER: SCORE 16.166213 LL:  -4.660 LR: -13.826 RR:   0.000 FEB:  -7.561
USER: RMSD 3.083427
USER: SEED 71
USER: STATUS no improvement in best in 4 clusters for 5 generations
USER: GENES 23
USER: genes 0 Translation |==|  0.61917 0.50234 0.51286
USER: genes 1 Rotation |==|  0.47047 0.45540 0.49304 0.99708
USER: genes 2 Torsion [N]-CA--C-[N] |==|  0.45659
USER: genes 3 Torsion [C]-N--CA-[C] |==|  0.58443
USER: genes 4 Torsion [N]-CA--C-[N] |==|  0.37788
USER: genes 5 Torsion [C]-N--CA-[CB] |==|  0.21073
USER: genes 6 Torsion [N]-CA--C-[N] |==|  0.37321
USER: genes 7 Torsion [N]-CA--C-[OXT] |==|  0.96380
USER: genes 8 Torsion [N]-CA--CB-[OG] |==|  0.86246
USER: genes 9 Torsion [CA]-CB--OG-[HG] |==|  0.76729
USER: genes 10 Torsion [N]-CA--CB-[CG2] |==|  0.37520
USER: genes 11 Torsion [CA]-CB--CG1-[CD1] |==|  0.52457
USER: genes 12 Torsion [N]-C--CA-[N] |==|  0.26699
USER: genes 13 Torsion [C]-CA--CB-[CG] |==|  0.26885
USER: genes 14 Torsion [CA]-CB--CG-[CD1] |==|  0.79358
USER: genes 15 Torsion [C]-CA--N-[C] |==|  0.69339
USER: genes 16 Torsion [N]-C--CA-[N] |==|  0.75069
USER: genes 17 Torsion [C]-CA--CB-[CG] |==|  0.49185
USER: genes 18 Torsion [CA]-CB--CG-[OD1] |==|  0.12449
USER: genes 19 Torsion [C]-CA--N-[C] |==|  0.69115
USER: genes 20 Torsion [N]-C--CA-[N] |==|  0.41714
USER: genes 21 Torsion [C]-CA--CB-[CG] |==|  0.96563
USER: genes 22 Torsion [CA]-CB--CG-[CD2] |==|  0.61635
ROOT
ATOM      1  C   PHE C 305      16.431   6.887  -0.014  0.50 34.66 LIG 0.24  C 
ATOM      2 O    PHE C 305      17.177   5.947  -0.271  0.50 33.80 LIG-0.27  OA
ATOM      3  N   PRO C 306      15.201   6.707   0.506  0.50 35.29 LIG-0.34  N 
ATOM      4  CA  PRO C 306      14.526   5.432   0.320  0.50 35.79 LIG 0.18  C 
ATOM      5  CB  PRO C 306      13.671   5.292   1.600  0.50 35.80 LIG 0.04  C 
ATOM      6  CG  PRO C 306      13.815   6.625   2.344  0.50 35.25 LIG 0.02  C 
ATOM      7  CD  PRO C 306      14.402   7.599   1.360  0.50 35.51 LIG 0.13  C 
ENDROOT
BRANCH 4 8
ATOM      8  C   PRO C 306      13.599   5.495  -0.896  0.50 36.50 LIG 0.24  C 
ATOM      9  N   ILE C 307      13.172   4.312  -1.370  0.50 37.01 LIG-0.35  N 
ATOM     10 H    ILE C 307      13.428   3.545  -1.079  0.50 37.01 LIG 0.16  HD
ATOM     11 O    PRO C 306      13.270   6.600  -1.382  0.50 36.74 LIG-0.27  OA
BRANCH 9 12
ATOM     12  CA  ILE C 307      12.199   4.273  -2.462  0.50 37.44 LIG 0.18  C 
BRANCH 12 13
ATOM     13  C   ILE C 307      11.292   3.042  -2.399  0.50 38.23 LIG 0.24  C 
ATOM     14  N   SER C 308      10.004   3.284  -2.622  0.50 38.91 LIG-0.34  N 
ATOM     15 H    SER C 308       9.679   4.079  -2.669  0.50 38.91 LIG 0.16  HD
ATOM     16 O    ILE C 307      11.752   1.914  -2.167  0.50 38.79 LIG-0.27  OA
BRANCH 14 17
ATOM     17  CA  SER C 308       9.004   2.236  -2.810  0.50 39.43 LIG 0.20  C 
BRANCH 17 18
ATOM     18  C   SER C 308       7.783   2.926  -3.422  0.50 39.77 LIG 0.24  C 
ATOM     19  N   PRO C 309       7.190   2.324  -4.468  0.50 40.03 LIG-0.34  N 
ATOM     20  CD  PRO C 309       7.317   0.921  -4.896  0.50 39.83 LIG 0.13  C 
ATOM     21  CA  PRO C 309       6.255   3.071  -5.312  0.50 40.09 LIG 0.19  C 
ATOM     22  CG  PRO C 309       6.772   0.946  -6.290  0.50 40.19 LIG 0.02  C 
ATOM     23  CB  PRO C 309       5.708   2.000  -6.264  0.50 40.09 LIG 0.04  C 
ATOM     24 O    SER C 308       7.365   3.986  -2.948  0.50 39.81 LIG-0.27  OA
BRANCH 21 25
ATOM     25  C   PRO C 309       5.129   3.739  -4.523  0.50 40.04 LIG 0.20  C 
ATOM     26 OXT  PRO C 309       4.907   3.450  -3.344  0.50 40.10 LIG-0.65  OA
ATOM     27 O    PRO C 309       4.401   4.581  -5.054  0.50 40.34 LIG-0.65  OA
ENDBRANCH 21 25
ENDBRANCH 17 18
BRANCH 17 28
ATOM     28  CB  SER C 308       8.637   1.584  -1.475  0.50 39.49 LIG 0.20  C 
BRANCH 28 29
ATOM     29 OG   SER C 308       9.796   1.206  -0.746  0.50 39.70 LIG-0.40  OA
ATOM     30 HG   SER C 308      10.063   0.456  -1.013  0.50 39.70 LIG 0.21  HD
ENDBRANCH 28 29
ENDBRANCH 17 28
ENDBRANCH 14 17
ENDBRANCH 12 13
BRANCH 12 31
ATOM     31  CB  ILE C 307      12.875   4.293  -3.855  0.50 37.20 LIG 0.01  C 
ATOM     32  CG2 ILE C 307      12.237   3.252  -4.788  0.50 36.86 LIG 0.01  C 
BRANCH 31 33
ATOM     33  CG1 ILE C 307      12.829   5.721  -4.427  0.50 35.88 LIG 0.00  C 
ATOM     34  CD1 ILE C 307      13.263   5.856  -5.866  0.50 32.01 LIG 0.01  C 
ENDBRANCH 31 33
ENDBRANCH 12 31
ENDBRANCH 9 12
ENDBRANCH 4 8
BRANCH 1 35
ATOM     35  CA  PHE C 305      16.910   8.326  -0.247  0.50 34.47 LIG 0.18  C 
BRANCH 35 36
ATOM     36  CB  PHE C 305      17.725   8.331  -1.550  0.50 34.49 LIG 0.07  C 
BRANCH 36 37
ATOM     37  CG  PHE C 305      16.954   8.757  -2.789  0.50 35.55 LIG-0.06  A 
ATOM     38  CD1 PHE C 305      16.023   7.918  -3.400  0.50 36.28 LIG 0.01  A 
ATOM     39  CE1 PHE C 305      15.324   8.333  -4.537  0.50 36.66 LIG 0.00  A 
ATOM     40  CZ  PHE C 305      15.563   9.597  -5.085  0.50 36.87 LIG 0.00  A 
ATOM     41  CE2 PHE C 305      16.488  10.439  -4.492  0.50 36.76 LIG 0.00  A 
ATOM     42  CD2 PHE C 305      17.188  10.013  -3.352  0.50 36.02 LIG 0.01  A 
ENDBRANCH 36 37
ENDBRANCH 35 36
BRANCH 35 43
ATOM     43  N   PHE C 305      17.737   8.883   0.829  0.50 33.54 LIG-0.35  N 
ATOM     44 H    PHE C 305      18.520   8.532   0.900  0.50 33.54 LIG 0.16  HD
ATOM     45  C   ASN C 304      17.274   9.857   1.613  0.50 33.07 LIG 0.24  C 
ATOM     46 O    ASN C 304      16.067  10.098   1.734  0.50 33.39 LIG-0.27  OA
BRANCH 45 47
ATOM     47  CA  ASN C 304      18.326  10.687   2.363  0.50 32.40 LIG 0.18  C 
BRANCH 47 48
ATOM     48  CB  ASN C 304      19.639  10.844   1.582  0.50 32.38 LIG 0.14  C 
BRANCH 48 49
ATOM     49  CG  ASN C 304      20.673  11.742   2.308  0.50 31.77 LIG 0.22  C 
ATOM     50 OD1  ASN C 304      20.891  11.617   3.508  0.50 27.48 LIG-0.27  OA
ATOM     51  ND2 ASN C 304      21.267  12.675   1.575  0.50 32.56 LIG-0.37  N 
ATOM     52 21HD ASN C 304      21.827  13.217   1.939  0.50 32.56 LIG 0.16  HD
ATOM     53 22HD ASN C 304      21.093  12.737   0.735  0.50 32.56 LIG 0.16  HD
ENDBRANCH 48 49
ENDBRANCH 47 48
BRANCH 47 54
ATOM     54  N   ASN C 304      18.616  10.091   3.645  0.50 31.56 LIG-0.34  N 
ATOM     55  C   LEU C 303      18.248  10.692   4.767  0.50 30.83 LIG 0.26  C 
ATOM     56 O    LEU C 303      17.479  11.642   4.780  0.50 29.02 LIG-0.27  OA
ATOM     57 H    ASN C 304      19.033   9.340   3.609  0.50 31.56 LIG 0.16  HD
BRANCH 55 58
ATOM     58  CA  LEU C 303      18.844  10.119   6.058  0.50 30.56 LIG 0.40  C 
ATOM     59  N   LEU C 303      19.017  11.127   7.139  0.50 30.88 LIG 0.61  N 
BRANCH 58 60
ATOM     60  CB  LEU C 303      18.015   8.933   6.569  0.50 30.80 LIG 0.06  C 
BRANCH 60 61
ATOM     61  CG  LEU C 303      16.638   8.698   5.937  0.50 30.92 LIG-0.02  C 
ATOM     62  CD2 LEU C 303      15.599   8.331   7.013  0.50 31.43 LIG 0.01  C 
ATOM     63  CD1 LEU C 303      16.703   7.652   4.839  0.50 30.50 LIG 0.01  C 
ENDBRANCH 60 61
ENDBRANCH 58 60
ENDBRANCH 55 58
ENDBRANCH 47 54
ENDBRANCH 45 47
ENDBRANCH 35 43
ENDBRANCH 1 35
TORSDOF 21
ENDMDL
MODEL 14
USER: ADFR SOLUTION from run 163
USER: SCORE 16.647512 LL:  -5.272 LR: -13.781 RR:   0.000 FEB:  -7.516
USER: RMSD 2.766641
USER: SEED 162
USER: STATUS no improvement in best in 4 clusters for 5 generations
USER: GENES 23
USER: genes 0 Translation |==|  0.61673 0.49849 0.53910
USER: genes 1 Rotation |==|  0.52945 0.51334 0.53815 0.99749
USER: genes 2 Torsion [N]-CA--C-[N] |==|  0.55831
USER: genes 3 Torsion [C]-N--CA-[C] |==|  0.18966
USER: genes 4 Torsion [N]-CA--C-[N] |==|  0.44601
USER: genes 5 Torsion [C]-N--CA-[CB] |==|  0.21802
USER: genes 6 Torsion [N]-CA--C-[N] |==|  0.80333
USER: genes 7 Torsion [N]-CA--C-[OXT] |==|  0.45966
USER: genes 8 Torsion [N]-CA--CB-[OG] |==|  0.78393
USER: genes 9 Torsion [CA]-CB--OG-[HG] |==|  0.60370
USER: genes 10 Torsion [N]-CA--CB-[CG2] |==|  0.53915
USER: genes 11 Torsion [CA]-CB--CG1-[CD1] |==|  0.36197
USER: genes 12 Torsion [N]-C--CA-[N] |==|  0.30220
USER: genes 13 Torsion [C]-CA--CB-[CG] |==|  0.14809
USER: genes 14 Torsion [CA]-CB--CG-[CD1] |==|  0.70520
USER: genes 15 Torsion [C]-CA--N-[C] |==|  0.71695
USER: genes 16 Torsion [N]-C--CA-[N] |==|  0.13642
USER: genes 17 Torsion [C]-CA--CB-[CG] |==|  0.38096
USER: genes 18 Torsion [CA]-CB--CG-[OD1] |==|  0.85750
USER: genes 19 Torsion [C]-CA--N-[C] |==|  0.60036
USER: genes 20 Torsion [N]-C--CA-[N] |==|  0.38498
USER: genes 21 Torsion [C]-CA--CB-[CG] |==|  0.01886
USER: genes 22 Torsion [CA]-CB--CG-[CD2] |==|  0.68015
ROOT
ATOM      1  C   PHE C 305      16.369   6.795   0.518  0.50 34.66 LIG 0.24  C 
ATOM      2 O    PHE C 305      17.163   6.101  -0.110  0.50 33.80 LIG-0.27  OA
ATOM      3  N   PRO C 306      15.355   6.262   1.228  0.50 35.29 LIG-0.34  N 
ATOM      4  CA  PRO C 306      14.865   4.935   0.890  0.50 35.79 LIG 0.18  C 
ATOM      5  CB  PRO C 306      14.396   4.372   2.252  0.50 35.80 LIG 0.04  C 
ATOM      6  CG  PRO C 306      14.513   5.534   3.245  0.50 35.25 LIG 0.02  C 
ATOM      7  CD  PRO C 306      14.670   6.782   2.422  0.50 35.51 LIG 0.13  C 
ENDROOT
BRANCH 4 8
ATOM      8  C   PRO C 306      13.660   5.039  -0.048  0.50 36.50 LIG 0.24  C 
ATOM      9  N   ILE C 307      12.855   3.964  -0.091  0.50 37.01 LIG-0.35  N 
ATOM     10 H    ILE C 307      13.003   3.223   0.318  0.50 37.01 LIG 0.16  HD
ATOM     11 O    PRO C 306      13.464   6.083  -0.710  0.50 36.74 LIG-0.27  OA
BRANCH 9 12
ATOM     12  CA  ILE C 307      11.621   4.008  -0.877  0.50 37.44 LIG 0.18  C 
BRANCH 12 13
ATOM     13  C   ILE C 307      11.885   4.069  -2.383  0.50 38.23 LIG 0.24  C 
ATOM     14  N   SER C 308      10.857   3.708  -3.146  0.50 38.91 LIG-0.34  N 
ATOM     15 H    SER C 308      10.145   3.345  -2.829  0.50 38.91 LIG 0.16  HD
ATOM     16 O    ILE C 307      12.980   4.441  -2.831  0.50 38.79 LIG-0.27  OA
BRANCH 14 17
ATOM     17  CA  SER C 308      10.823   3.885  -4.595  0.50 39.43 LIG 0.20  C 
BRANCH 17 18
ATOM     18  C   SER C 308       9.349   3.788  -4.995  0.50 39.77 LIG 0.24  C 
ATOM     19  N   PRO C 309       8.764   2.579  -4.919  0.50 40.03 LIG-0.34  N 
ATOM     20  CD  PRO C 309       9.224   1.397  -4.174  0.50 39.83 LIG 0.13  C 
ATOM     21  CA  PRO C 309       7.489   2.338  -5.598  0.50 40.09 LIG 0.19  C 
ATOM     22  CG  PRO C 309       8.418   0.288  -4.774  0.50 40.19 LIG 0.02  C 
ATOM     23  CB  PRO C 309       7.111   0.923  -5.141  0.50 40.09 LIG 0.04  C 
ATOM     24 O    SER C 308       8.735   4.797  -5.354  0.50 39.81 LIG-0.27  OA
BRANCH 21 25
ATOM     25  C   PRO C 309       6.404   3.349  -5.228  0.50 40.04 LIG 0.20  C 
ATOM     26 OXT  PRO C 309       5.370   3.456  -5.892  0.50 40.10 LIG-0.65  OA
ATOM     27 O    PRO C 309       6.544   4.096  -4.257  0.50 40.34 LIG-0.65  OA
ENDBRANCH 21 25
ENDBRANCH 17 18
BRANCH 17 28
ATOM     28  CB  SER C 308      11.641   2.800  -5.299  0.50 39.49 LIG 0.20  C 
BRANCH 28 29
ATOM     29 OG   SER C 308      13.034   3.068  -5.223  0.50 39.70 LIG-0.40  OA
ATOM     30 HG   SER C 308      13.403   2.842  -5.942  0.50 39.70 LIG 0.21  HD
ENDBRANCH 28 29
ENDBRANCH 17 28
ENDBRANCH 14 17
ENDBRANCH 12 13
BRANCH 12 31
ATOM     31  CB  ILE C 307      10.727   5.215  -0.503  0.50 37.20 LIG 0.01  C 
ATOM     32  CG2 ILE C 307       9.312   5.045  -1.076  0.50 36.86 LIG 0.01  C 
BRANCH 31 33
ATOM     33  CG1 ILE C 307      10.738   5.408   1.023  0.50 35.88 LIG 0.00  C 
ATOM     34  CD1 ILE C 307      11.020   6.814   1.496  0.50 32.01 LIG 0.01  C 
ENDBRANCH 31 33
ENDBRANCH 12 31
ENDBRANCH 9 12
ENDBRANCH 4 8
BRANCH 1 35
ATOM     35  CA  PHE C 305      16.541   8.319   0.540  0.50 34.47 LIG 0.18  C 
BRANCH 35 36
ATOM     36  CB  PHE C 305      16.668   8.786  -0.918  0.50 34.49 LIG 0.07  C 
BRANCH 36 37
ATOM     37  CG  PHE C 305      15.550   8.329  -1.841  0.50 35.55 LIG-0.06  A 
ATOM     38  CD1 PHE C 305      15.744   7.324  -2.788  0.50 36.28 LIG 0.01  A 
ATOM     39  CE1 PHE C 305      14.699   6.918  -3.624  0.50 36.66 LIG 0.00  A 
ATOM     40  CZ  PHE C 305      13.445   7.528  -3.526  0.50 36.87 LIG 0.00  A 
ATOM     41  CE2 PHE C 305      13.240   8.529  -2.594  0.50 36.76 LIG 0.00  A 
ATOM     42  CD2 PHE C 305      14.294   8.933  -1.760  0.50 36.02 LIG 0.01  A 
ENDBRANCH 36 37
ENDBRANCH 35 36
BRANCH 35 43
ATOM     43  N   PHE C 305      17.706   8.798   1.292  0.50 33.54 LIG-0.35  N 
ATOM     44 H    PHE C 305      18.457   8.724   0.879  0.50 33.54 LIG 0.16  HD
ATOM     45  C   ASN C 304      17.568   9.300   2.520  0.50 33.07 LIG 0.24  C 
ATOM     46 O    ASN C 304      16.575   9.079   3.223  0.50 33.39 LIG-0.27  OA
BRANCH 45 47
ATOM     47  CA  ASN C 304      18.712  10.190   3.025  0.50 32.40 LIG 0.18  C 
BRANCH 47 48
ATOM     48  CB  ASN C 304      18.386  10.899   4.349  0.50 32.38 LIG 0.14  C 
BRANCH 48 49
ATOM     49  CG  ASN C 304      19.566  10.881   5.352  0.50 31.77 LIG 0.22  C 
ATOM     50 OD1  ASN C 304      20.139   9.836   5.641  0.50 27.48 LIG-0.27  OA
ATOM     51  ND2 ASN C 304      19.888  12.041   5.910  0.50 32.56 LIG-0.37  N 
ATOM     52 21HD ASN C 304      20.517  12.078   6.496  0.50 32.56 LIG 0.16  HD
ATOM     53 22HD ASN C 304      19.467  12.757   5.686  0.50 32.56 LIG 0.16  HD
ENDBRANCH 48 49
ENDBRANCH 47 48
BRANCH 47 54
ATOM     54  N   ASN C 304      19.048  11.186   2.036  0.50 31.56 LIG-0.34  N 
ATOM     55  C   LEU C 303      20.306  11.563   1.860  0.50 30.83 LIG 0.26  C 
ATOM     56 O    LEU C 303      21.248  10.958   2.352  0.50 29.02 LIG-0.27  OA
ATOM     57 H    ASN C 304      18.380  11.496   1.592  0.50 31.56 LIG 0.16  HD
BRANCH 55 58
ATOM     58  CA  LEU C 303      20.514  12.810   0.991  0.50 30.56 LIG 0.40  C 
ATOM     59  N   LEU C 303      21.552  13.740   1.513  0.50 30.88 LIG 0.61  N 
BRANCH 58 60
ATOM     60  CB  LEU C 303      20.831  12.424  -0.459  0.50 30.80 LIG 0.06  C 
BRANCH 60 61
ATOM     61  CG  LEU C 303      20.734  10.943  -0.844  0.50 30.92 LIG-0.02  C 
ATOM     62  CD2 LEU C 303      22.116  10.388  -1.236  0.50 31.43 LIG 0.01  C 
ATOM     63  CD1 LEU C 303      19.708  10.722  -1.941  0.50 30.50 LIG 0.01  C 
ENDBRANCH 60 61
ENDBRANCH 58 60
ENDBRANCH 55 58
ENDBRANCH 47 54
ENDBRANCH 45 47
ENDBRANCH 35 43
ENDBRANCH 1 35
TORSDOF 21
ENDMDL
MODEL 15
USER: ADFR SOLUTION from run 137
USER: SCORE 16.930505 LL:  -5.551 LR: -13.731 RR:   0.000 FEB:  -7.467
USER: RMSD 2.827526
USER: SEED 136
USER: STATUS no improvement in best in 5 clusters for 5 generations
USER: GENES 23
USER: genes 0 Translation |==|  0.63025 0.49931 0.54205
USER: genes 1 Rotation |==|  0.50244 0.51257 0.48015 0.99944
USER: genes 2 Torsion [N]-CA--C-[N] |==|  0.15864
USER: genes 3 Torsion [C]-N--CA-[C] |==|  0.77485
USER: genes 4 Torsion [N]-CA--C-[N] |==|  0.17053
USER: genes 5 Torsion [C]-N--CA-[CB] |==|  0.49653
USER: genes 6 Torsion [N]-CA--C-[N] |==|  0.26760
USER: genes 7 Torsion [N]-CA--C-[OXT] |==|  0.28423
USER: genes 8 Torsion [N]-CA--CB-[OG] |==|  0.91112
USER: genes 9 Torsion [CA]-CB--OG-[HG] |==|  0.94862
USER: genes 10 Torsion [N]-CA--CB-[CG2] |==|  0.73998
USER: genes 11 Torsion [CA]-CB--CG1-[CD1] |==|  0.19834
USER: genes 12 Torsion [N]-C--CA-[N] |==|  0.22747
USER: genes 13 Torsion [C]-CA--CB-[CG] |==|  0.33846
USER: genes 14 Torsion [CA]-CB--CG-[CD1] |==|  0.10953
USER: genes 15 Torsion [C]-CA--N-[C] |==|  0.68745
USER: genes 16 Torsion [N]-C--CA-[N] |==|  0.26112
USER: genes 17 Torsion [C]-CA--CB-[CG] |==|  0.41829
USER: genes 18 Torsion [CA]-CB--CG-[OD1] |==|  0.84132
USER: genes 19 Torsion [C]-CA--N-[C] |==|  0.58529
USER: genes 20 Torsion [N]-C--CA-[N] |==|  0.41462
USER: genes 21 Torsion [C]-CA--CB-[CG] |==|  0.02235
USER: genes 22 Torsion [CA]-CB--CG-[CD2] |==|  0.76687
ROOT
ATOM      1  C   PHE C 305      16.713   6.815   0.578  0.50 34.66 LIG 0.24  C 
ATOM      2 O    PHE C 305      17.320   5.892   0.041  0.50 33.80 LIG-0.27  OA
ATOM      3  N   PRO C 306      15.616   6.609   1.333  0.50 35.29 LIG-0.34  N 
ATOM      4  CA  PRO C 306      14.833   5.399   1.141  0.50 35.79 LIG 0.18  C 
ATOM      5  CB  PRO C 306      14.269   5.114   2.553  0.50 35.80 LIG 0.04  C 
ATOM      6  CG  PRO C 306      14.662   6.323   3.410  0.50 35.25 LIG 0.02  C 
ATOM      7  CD  PRO C 306      15.086   7.402   2.452  0.50 35.51 LIG 0.13  C 
ENDROOT
BRANCH 4 8
ATOM      8  C   PRO C 306      13.669   5.667   0.184  0.50 36.50 LIG 0.24  C 
ATOM      9  N   ILE C 307      14.004   6.138  -1.029  0.50 37.01 LIG-0.35  N 
ATOM     10 H    ILE C 307      14.801   6.348  -1.272  0.50 37.01 LIG 0.16  HD
ATOM     11 O    PRO C 306      12.492   5.437   0.542  0.50 36.74 LIG-0.27  OA
BRANCH 9 12
ATOM     12  CA  ILE C 307      12.971   6.325  -2.049  0.50 37.44 LIG 0.18  C 
BRANCH 12 13
ATOM     13  C   ILE C 307      12.612   5.022  -2.768  0.50 38.23 LIG 0.24  C 
ATOM     14  N   SER C 308      12.116   4.069  -1.983  0.50 38.91 LIG-0.34  N 
ATOM     15 H    SER C 308      12.115   4.124  -1.125  0.50 38.91 LIG 0.16  HD
ATOM     16 O    ILE C 307      12.771   4.895  -3.990  0.50 38.79 LIG-0.27  OA
BRANCH 14 17
ATOM     17  CA  SER C 308      11.523   2.834  -2.486  0.50 39.43 LIG 0.20  C 
BRANCH 17 18
ATOM     18  C   SER C 308      10.320   3.259  -3.332  0.50 39.77 LIG 0.24  C 
ATOM     19  N   PRO C 309      10.502   3.363  -4.660  0.50 40.03 LIG-0.34  N 
ATOM     20  CD  PRO C 309      11.585   2.787  -5.473  0.50 39.83 LIG 0.13  C 
ATOM     21  CA  PRO C 309       9.525   4.083  -5.480  0.50 40.09 LIG 0.19  C 
ATOM     22  CG  PRO C 309      11.481   3.548  -6.758  0.50 40.19 LIG 0.02  C 
ATOM     23  CB  PRO C 309      10.018   3.836  -6.912  0.50 40.09 LIG 0.04  C 
ATOM     24 O    SER C 308       9.230   3.478  -2.796  0.50 39.81 LIG-0.27  OA
BRANCH 21 25
ATOM     25  C   PRO C 309       8.092   3.585  -5.294  0.50 40.04 LIG 0.20  C 
ATOM     26 OXT  PRO C 309       7.279   4.206  -4.604  0.50 40.10 LIG-0.65  OA
ATOM     27 O    PRO C 309       7.716   2.536  -5.821  0.50 40.34 LIG-0.65  OA
ENDBRANCH 21 25
ENDBRANCH 17 18
BRANCH 17 28
ATOM     28  CB  SER C 308      11.075   1.932  -1.333  0.50 39.49 LIG 0.20  C 
BRANCH 28 29
ATOM     29 OG   SER C 308      11.915   2.084  -0.199  0.50 39.70 LIG-0.40  OA
ATOM     30 HG   SER C 308      12.641   2.438  -0.432  0.50 39.70 LIG 0.21  HD
ENDBRANCH 28 29
ENDBRANCH 17 28
ENDBRANCH 14 17
ENDBRANCH 12 13
BRANCH 12 31
ATOM     31  CB  ILE C 307      13.385   7.359  -3.124  0.50 37.20 LIG 0.01  C 
ATOM     32  CG2 ILE C 307      12.868   8.760  -2.763  0.50 36.86 LIG 0.01  C 
BRANCH 31 33
ATOM     33  CG1 ILE C 307      14.911   7.313  -3.319  0.50 35.88 LIG 0.00  C 
ATOM     34  CD1 ILE C 307      15.438   6.084  -4.019  0.50 32.01 LIG 0.01  C 
ENDBRANCH 31 33
ENDBRANCH 12 31
ENDBRANCH 9 12
ENDBRANCH 4 8
BRANCH 1 35
ATOM     35  CA  PHE C 305      17.227   8.252   0.429  0.50 34.47 LIG 0.18  C 
BRANCH 35 36
ATOM     36  CB  PHE C 305      18.054   8.312  -0.865  0.50 34.49 LIG 0.07  C 
BRANCH 36 37
ATOM     37  CG  PHE C 305      17.570   9.322  -1.892  0.50 35.55 LIG-0.06  A 
ATOM     38  CD1 PHE C 305      17.100  10.581  -1.520  0.50 36.28 LIG 0.01  A 
ATOM     39  CE1 PHE C 305      16.664  11.496  -2.484  0.50 36.66 LIG 0.00  A 
ATOM     40  CZ  PHE C 305      16.683  11.149  -3.838  0.50 36.87 LIG 0.00  A 
ATOM     41  CE2 PHE C 305      17.142   9.901  -4.222  0.50 36.76 LIG 0.00  A 
ATOM     42  CD2 PHE C 305      17.576   8.989  -3.248  0.50 36.02 LIG 0.01  A 
ENDBRANCH 36 37
ENDBRANCH 35 36
BRANCH 35 43
ATOM     43  N   PHE C 305      18.056   8.730   1.541  0.50 33.54 LIG-0.35  N 
ATOM     44 H    PHE C 305      18.818   8.338   1.617  0.50 33.54 LIG 0.16  HD
ATOM     45  C   ASN C 304      17.624   9.699   2.349  0.50 33.07 LIG 0.24  C 
ATOM     46 O    ASN C 304      16.428   9.997   2.453  0.50 33.39 LIG-0.27  OA
BRANCH 45 47
ATOM     47  CA  ASN C 304      18.698  10.448   3.150  0.50 32.40 LIG 0.18  C 
BRANCH 47 48
ATOM     48  CB  ASN C 304      18.235  10.840   4.561  0.50 32.38 LIG 0.14  C 
BRANCH 48 49
ATOM     49  CG  ASN C 304      19.397  10.909   5.584  0.50 31.77 LIG 0.22  C 
ATOM     50 OD1  ASN C 304      20.120   9.941   5.791  0.50 27.48 LIG-0.27  OA
ATOM     51  ND2 ASN C 304      19.535  12.050   6.249  0.50 32.56 LIG-0.37  N 
ATOM     52 21HD ASN C 304      20.147  12.127   6.848  0.50 32.56 LIG 0.16  HD
ATOM     53 22HD ASN C 304      19.012  12.711   6.080  0.50 32.56 LIG 0.16  HD
ENDBRANCH 48 49
ENDBRANCH 47 48
BRANCH 47 54
ATOM     54  N   ASN C 304      19.108  11.640   2.448  0.50 31.56 LIG-0.34  N 
ATOM     55  C   LEU C 303      20.343  12.103   2.570  0.50 30.83 LIG 0.26  C 
ATOM     56 O    LEU C 303      21.239  11.454   3.090  0.50 29.02 LIG-0.27  OA
ATOM     57 H    ASN C 304      18.498  12.004   1.964  0.50 31.56 LIG 0.16  HD
BRANCH 55 58
ATOM     58  CA  LEU C 303      20.588  13.510   2.011  0.50 30.56 LIG 0.40  C 
ATOM     59  N   LEU C 303      21.642  14.270   2.736  0.50 30.88 LIG 0.61  N 
BRANCH 58 60
ATOM     60  CB  LEU C 303      20.910  13.459   0.512  0.50 30.80 LIG 0.06  C 
BRANCH 60 61
ATOM     61  CG  LEU C 303      20.755  12.114  -0.208  0.50 30.92 LIG-0.02  C 
ATOM     62  CD2 LEU C 303      22.017  11.250  -0.031  0.50 31.43 LIG 0.01  C 
ATOM     63  CD1 LEU C 303      20.408  12.308  -1.674  0.50 30.50 LIG 0.01  C 
ENDBRANCH 60 61
ENDBRANCH 58 60
ENDBRANCH 55 58
ENDBRANCH 47 54
ENDBRANCH 45 47
ENDBRANCH 35 43
ENDBRANCH 1 35
TORSDOF 21
ENDMDL
MODEL 16
USER: ADFR SOLUTION from run 108
USER: SCORE 16.795455 LL:  -4.945 LR: -13.631 RR:   0.000 FEB:  -7.367
USER: RMSD 3.672816
USER: SEED 107
USER: STATUS no improvement in best in 4 clusters for 5 generations
USER: GENES 23
USER: genes 0 Translation |==|  0.62122 0.55700 0.36463
USER: genes 1 Rotation |==|  0.54294 0.55912 0.56164 0.99078
USER: genes 2 Torsion [N]-CA--C-[N] |==|  0.49073
USER: genes 3 Torsion [C]-N--CA-[C] |==|  0.62705
USER: genes 4 Torsion [N]-CA--C-[N] |==|  0.40691
USER: genes 5 Torsion [C]-N--CA-[CB] |==|  0.23252
USER: genes 6 Torsion [N]-CA--C-[N] |==|  0.33593
USER: genes 7 Torsion [N]-CA--C-[OXT] |==|  0.42577
USER: genes 8 Torsion [N]-CA--CB-[OG] |==|  0.67929
USER: genes 9 Torsion [CA]-CB--OG-[HG] |==|  0.88631
USER: genes 10 Torsion [N]-CA--CB-[CG2] |==|  0.00981
USER: genes 11 Torsion [CA]-CB--CG1-[CD1] |==|  0.30610
USER: genes 12 Torsion [N]-C--CA-[N] |==|  0.31356
USER: genes 13 Torsion [C]-CA--CB-[CG] |==|  0.13459
USER: genes 14 Torsion [CA]-CB--CG-[CD1] |==|  0.72221
USER: genes 15 Torsion [C]-CA--N-[C] |==|  0.85354
USER: genes 16 Torsion [N]-C--CA-[N] |==|  0.44089
USER: genes 17 Torsion [C]-CA--CB-[CG] |==|  0.58028
USER: genes 18 Torsion [CA]-CB--CG-[OD1] |==|  0.81153
USER: genes 19 Torsion [C]-CA--N-[C] |==|  0.66645
USER: genes 20 Torsion [N]-C--CA-[N] |==|  0.28326
USER: genes 21 Torsion [C]-CA--CB-[CG] |==|  0.47899
USER: genes 22 Torsion [CA]-CB--CG-[CD2] |==|  0.71381
ROOT
ATOM      1  C   PHE C 305      16.483   8.199  -3.015  0.50 34.66 LIG 0.24  C 
ATOM      2 O    PHE C 305      17.215   7.617  -3.811  0.50 33.80 LIG-0.27  OA
ATOM      3  N   PRO C 306      15.675   7.536  -2.165  0.50 35.29 LIG-0.34  N 
ATOM      4  CA  PRO C 306      15.267   6.176  -2.480  0.50 35.79 LIG 0.18  C 
ATOM      5  CB  PRO C 306      15.113   5.519  -1.089  0.50 35.80 LIG 0.04  C 
ATOM      6  CG  PRO C 306      15.293   6.652  -0.072  0.50 35.25 LIG 0.02  C 
ATOM      7  CD  PRO C 306      15.171   7.938  -0.843  0.50 35.51 LIG 0.13  C 
ENDROOT
BRANCH 4 8
ATOM      8  C   PRO C 306      13.907   6.181  -3.182  0.50 36.50 LIG 0.24  C 
ATOM      9  N   ILE C 307      13.452   4.983  -3.588  0.50 37.01 LIG-0.35  N 
ATOM     10 H    ILE C 307      13.892   4.247  -3.534  0.50 37.01 LIG 0.16  HD
ATOM     11 O    PRO C 306      13.281   7.253  -3.338  0.50 36.74 LIG-0.27  OA
BRANCH 9 12
ATOM     12  CA  ILE C 307      12.116   4.871  -4.174  0.50 37.44 LIG 0.18  C 
BRANCH 12 13
ATOM     13  C   ILE C 307      11.322   3.692  -3.607  0.50 38.23 LIG 0.24  C 
ATOM     14  N   SER C 308      10.011   3.895  -3.512  0.50 38.91 LIG-0.34  N 
ATOM     15 H    SER C 308       9.647   4.665  -3.634  0.50 38.91 LIG 0.16  HD
ATOM     16 O    ILE C 307      11.882   2.636  -3.279  0.50 38.79 LIG-0.27  OA
BRANCH 14 17
ATOM     17  CA  SER C 308       9.050   2.842  -3.193  0.50 39.43 LIG 0.20  C 
BRANCH 17 18
ATOM     18  C   SER C 308       7.708   3.315  -3.757  0.50 39.77 LIG 0.24  C 
ATOM     19  N   PRO C 309       7.109   2.530  -4.670  0.50 40.03 LIG-0.34  N 
ATOM     20  CD  PRO C 309       7.370   1.110  -4.954  0.50 39.83 LIG 0.13  C 
ATOM     21  CA  PRO C 309       6.023   3.064  -5.496  0.50 40.09 LIG 0.19  C 
ATOM     22  CG  PRO C 309       6.713   0.908  -6.284  0.50 40.19 LIG 0.02  C 
ATOM     23  CB  PRO C 309       5.534   1.833  -6.271  0.50 40.09 LIG 0.04  C 
ATOM     24 O    SER C 308       7.204   4.370  -3.362  0.50 39.81 LIG-0.27  OA
BRANCH 21 25
ATOM     25  C   PRO C 309       4.893   3.691  -4.681  0.50 40.04 LIG 0.20  C 
ATOM     26 OXT  PRO C 309       4.177   4.581  -5.149  0.50 40.10 LIG-0.65  OA
ATOM     27 O    PRO C 309       4.676   3.329  -3.522  0.50 40.34 LIG-0.65  OA
ENDBRANCH 21 25
ENDBRANCH 17 18
BRANCH 17 28
ATOM     28  CB  SER C 308       8.951   2.632  -1.681  0.50 39.49 LIG 0.20  C 
BRANCH 28 29
ATOM     29 OG   SER C 308       9.403   1.339  -1.306  0.50 39.70 LIG-0.40  OA
ATOM     30 HG   SER C 308       9.128   0.773  -1.862  0.50 39.70 LIG 0.21  HD
ENDBRANCH 28 29
ENDBRANCH 17 28
ENDBRANCH 14 17
ENDBRANCH 12 13
BRANCH 12 31
ATOM     31  CB  ILE C 307      12.158   4.716  -5.714  0.50 37.20 LIG 0.01  C 
ATOM     32  CG2 ILE C 307      13.608   4.633  -6.216  0.50 36.86 LIG 0.01  C 
BRANCH 31 33
ATOM     33  CG1 ILE C 307      11.307   3.504  -6.131  0.50 35.88 LIG 0.00  C 
ATOM     34  CD1 ILE C 307      10.028   3.831  -6.862  0.50 32.01 LIG 0.01  C 
ENDBRANCH 31 33
ENDBRANCH 12 31
ENDBRANCH 9 12
ENDBRANCH 4 8
BRANCH 1 35
ATOM     35  CA  PHE C 305      16.502   9.731  -2.943  0.50 34.47 LIG 0.18  C 
BRANCH 35 36
ATOM     36  CB  PHE C 305      16.211  10.260  -4.356  0.50 34.49 LIG 0.07  C 
BRANCH 36 37
ATOM     37  CG  PHE C 305      15.013   9.626  -5.046  0.50 35.55 LIG-0.06  A 
ATOM     38  CD1 PHE C 305      15.161   8.616  -5.995  0.50 36.28 LIG 0.01  A 
ATOM     39  CE1 PHE C 305      14.044   8.047  -6.613  0.50 36.66 LIG 0.00  A 
ATOM     40  CZ  PHE C 305      12.759   8.497  -6.293  0.50 36.87 LIG 0.00  A 
ATOM     41  CE2 PHE C 305      12.598   9.502  -5.356  0.50 36.76 LIG 0.00  A 
ATOM     42  CD2 PHE C 305      13.724  10.070  -4.742  0.50 36.02 LIG 0.01  A 
ENDBRANCH 36 37
ENDBRANCH 35 36
BRANCH 35 43
ATOM     43  N   PHE C 305      17.766  10.311  -2.474  0.50 33.54 LIG-0.35  N 
ATOM     44 H    PHE C 305      18.100  10.913  -2.991  0.50 33.54 LIG 0.16  HD
ATOM     45  C   ASN C 304      18.320   9.909  -1.330  0.50 33.07 LIG 0.24  C 
ATOM     46 O    ASN C 304      18.035   8.831  -0.794  0.50 33.39 LIG-0.27  OA
BRANCH 45 47
ATOM     47  CA  ASN C 304      19.337  10.865  -0.692  0.50 32.40 LIG 0.18  C 
BRANCH 47 48
ATOM     48  CB  ASN C 304      20.723  10.801  -1.352  0.50 32.38 LIG 0.14  C 
BRANCH 48 49
ATOM     49  CG  ASN C 304      21.876  11.149  -0.376  0.50 31.77 LIG 0.22  C 
ATOM     50 OD1  ASN C 304      22.012  12.283   0.067  0.50 27.48 LIG-0.27  OA
ATOM     51  ND2 ASN C 304      22.725  10.170  -0.089  0.50 32.56 LIG-0.37  N 
ATOM     52 21HD ASN C 304      23.398  10.321   0.425  0.50 32.56 LIG 0.16  HD
ATOM     53 22HD ASN C 304      22.602   9.384  -0.416  0.50 32.56 LIG 0.16  HD
ENDBRANCH 48 49
ENDBRANCH 47 48
BRANCH 47 54
ATOM     54  N   ASN C 304      19.479  10.581   0.716  0.50 31.56 LIG-0.34  N 
ATOM     55  C   LEU C 303      19.203  11.507   1.622  0.50 30.83 LIG 0.26  C 
ATOM     56 O    LEU C 303      18.624  12.547   1.342  0.50 29.02 LIG-0.27  OA
ATOM     57 H    ASN C 304      19.749   9.785   0.900  0.50 31.56 LIG 0.16  HD
BRANCH 55 58
ATOM     58  CA  LEU C 303      19.649  11.193   3.056  0.50 30.56 LIG 0.40  C 
ATOM     59  N   LEU C 303      20.893  11.901   3.466  0.50 30.88 LIG 0.61  N 
BRANCH 58 60
ATOM     60  CB  LEU C 303      18.524  11.478   4.058  0.50 30.80 LIG 0.06  C 
BRANCH 60 61
ATOM     61  CG  LEU C 303      18.738  11.053   5.516  0.50 30.92 LIG-0.02  C 
ATOM     62  CD2 LEU C 303      17.955   9.765   5.831  0.50 31.43 LIG 0.01  C 
ATOM     63  CD1 LEU C 303      18.386  12.174   6.477  0.50 30.50 LIG 0.01  C 
ENDBRANCH 60 61
ENDBRANCH 58 60
ENDBRANCH 55 58
ENDBRANCH 47 54
ENDBRANCH 45 47
ENDBRANCH 35 43
ENDBRANCH 1 35
TORSDOF 21
ENDMDL
MODEL 17
USER: ADFR SOLUTION from run 134
USER: SCORE 17.344463 LL:  -5.226 LR: -13.539 RR:   0.000 FEB:  -7.275
USER: RMSD 3.167727
USER: SEED 133
USER: STATUS searching
USER: GENES 23
USER: genes 0 Translation |==|  0.61660 0.48609 0.55070
USER: genes 1 Rotation |==|  0.58127 0.50289 0.49270 0.99329
USER: genes 2 Torsion [N]-CA--C-[N] |==|  0.20435
USER: genes 3 Torsion [C]-N--CA-[C] |==|  0.85973
USER: genes 4 Torsion [N]-CA--C-[N] |==|  0.89257
USER: genes 5 Torsion [C]-N--CA-[CB] |==|  0.77346
USER: genes 6 Torsion [N]-CA--C-[N] |==|  0.19040
USER: genes 7 Torsion [N]-CA--C-[OXT] |==|  0.78300
USER: genes 8 Torsion [N]-CA--CB-[OG] |==|  0.88910
USER: genes 9 Torsion [CA]-CB--OG-[HG] |==|  0.85349
USER: genes 10 Torsion [N]-CA--CB-[CG2] |==|  0.79712
USER: genes 11 Torsion [CA]-CB--CG1-[CD1] |==|  0.40032
USER: genes 12 Torsion [N]-C--CA-[N] |==|  0.19903
USER: genes 13 Torsion [C]-CA--CB-[CG] |==|  0.26655
USER: genes 14 Torsion [CA]-CB--CG-[CD1] |==|  0.13121
USER: genes 15 Torsion [C]-CA--N-[C] |==|  0.66530
USER: genes 16 Torsion [N]-C--CA-[N] |==|  0.25319
USER: genes 17 Torsion [C]-CA--CB-[CG] |==|  0.28486
USER: genes 18 Torsion [CA]-CB--CG-[OD1] |==|  0.64174
USER: genes 19 Torsion [C]-CA--N-[C] |==|  0.57498
USER: genes 20 Torsion [N]-C--CA-[N] |==|  0.75511
USER: genes 21 Torsion [C]-CA--CB-[CG] |==|  0.17128
USER: genes 22 Torsion [CA]-CB--CG-[CD2] |==|  0.03645
ROOT
ATOM      1  C   PHE C 305      16.365   6.497   0.753  0.50 34.66 LIG 0.24  C 
ATOM      2 O    PHE C 305      17.039   5.809  -0.008  0.50 33.80 LIG-0.27  OA
ATOM      3  N   PRO C 306      15.248   6.031   1.344  0.50 35.29 LIG-0.34  N 
ATOM      4  CA  PRO C 306      14.533   4.916   0.743  0.50 35.79 LIG 0.18  C 
ATOM      5  CB  PRO C 306      13.922   4.187   1.963  0.50 35.80 LIG 0.04  C 
ATOM      6  CG  PRO C 306      14.218   5.081   3.172  0.50 35.25 LIG 0.02  C 
ATOM      7  CD  PRO C 306      14.631   6.418   2.622  0.50 35.51 LIG 0.13  C 
ENDROOT
BRANCH 4 8
ATOM      8  C   PRO C 306      13.401   5.431  -0.148  0.50 36.50 LIG 0.24  C 
ATOM      9  N   ILE C 307      13.776   5.974  -1.319  0.50 37.01 LIG-0.35  N 
ATOM     10 H    ILE C 307      14.590   6.101  -1.563  0.50 37.01 LIG 0.16  HD
ATOM     11 O    PRO C 306      12.209   5.323   0.220  0.50 36.74 LIG-0.27  OA
BRANCH 9 12
ATOM     12  CA  ILE C 307      12.762   6.398  -2.285  0.50 37.44 LIG 0.18  C 
BRANCH 12 13
ATOM     13  C   ILE C 307      11.724   5.308  -2.565  0.50 38.23 LIG 0.24  C 
ATOM     14  N   SER C 308      12.214   4.074  -2.630  0.50 38.91 LIG-0.34  N 
ATOM     15 H    SER C 308      13.058   3.906  -2.644  0.50 38.91 LIG 0.16  HD
ATOM     16 O    ILE C 307      10.524   5.582  -2.707  0.50 38.79 LIG-0.27  OA
BRANCH 14 17
ATOM     17  CA  SER C 308      11.383   2.875  -2.684  0.50 39.43 LIG 0.20  C 
BRANCH 17 18
ATOM     18  C   SER C 308      10.189   3.232  -3.574  0.50 39.77 LIG 0.24  C 
ATOM     19  N   PRO C 309      10.429   3.429  -4.882  0.50 40.03 LIG-0.34  N 
ATOM     20  CD  PRO C 309      11.606   3.009  -5.661  0.50 39.83 LIG 0.13  C 
ATOM     21  CA  PRO C 309       9.431   4.099  -5.718  0.50 40.09 LIG 0.19  C 
ATOM     22  CG  PRO C 309      11.493   3.829  -6.907  0.50 40.19 LIG 0.02  C 
ATOM     23  CB  PRO C 309      10.020   3.984  -7.130  0.50 40.09 LIG 0.04  C 
ATOM     24 O    SER C 308       9.056   3.314  -3.091  0.50 39.81 LIG-0.27  OA
BRANCH 21 25
ATOM     25  C   PRO C 309       8.046   3.456  -5.641  0.50 40.04 LIG 0.20  C 
ATOM     26 OXT  PRO C 309       7.782   2.419  -6.256  0.50 40.10 LIG-0.65  OA
ATOM     27 O    PRO C 309       7.150   3.969  -4.968  0.50 40.34 LIG-0.65  OA
ENDBRANCH 21 25
ENDBRANCH 17 18
BRANCH 17 28
ATOM     28  CB  SER C 308      10.907   2.474  -1.286  0.50 39.49 LIG 0.20  C 
BRANCH 28 29
ATOM     29 OG   SER C 308      11.934   2.645  -0.319  0.50 39.70 LIG-0.40  OA
ATOM     30 HG   SER C 308      12.628   2.246  -0.574  0.50 39.70 LIG 0.21  HD
ENDBRANCH 28 29
ENDBRANCH 17 28
ENDBRANCH 14 17
ENDBRANCH 12 13
BRANCH 12 31
ATOM     31  CB  ILE C 307      13.379   6.824  -3.639  0.50 37.20 LIG 0.01  C 
ATOM     32  CG2 ILE C 307      14.087   8.182  -3.516  0.50 36.86 LIG 0.01  C 
BRANCH 31 33
ATOM     33  CG1 ILE C 307      14.305   5.707  -4.153  0.50 35.88 LIG 0.00  C 
ATOM     34  CD1 ILE C 307      14.312   5.509  -5.650  0.50 32.01 LIG 0.01  C 
ENDBRANCH 31 33
ENDBRANCH 12 31
ENDBRANCH 9 12
ENDBRANCH 4 8
BRANCH 1 35
ATOM     35  CA  PHE C 305      16.814   7.926   1.086  0.50 34.47 LIG 0.18  C 
BRANCH 35 36
ATOM     36  CB  PHE C 305      17.892   8.317   0.063  0.50 34.49 LIG 0.07  C 
BRANCH 36 37
ATOM     37  CG  PHE C 305      17.388   9.107  -1.133  0.50 35.55 LIG-0.06  A 
ATOM     38  CD1 PHE C 305      16.536  10.201  -0.986  0.50 36.28 LIG 0.01  A 
ATOM     39  CE1 PHE C 305      16.089  10.914  -2.102  0.50 36.66 LIG 0.00  A 
ATOM     40  CZ  PHE C 305      16.483  10.526  -3.386  0.50 36.87 LIG 0.00  A 
ATOM     41  CE2 PHE C 305      17.324   9.440  -3.548  0.50 36.76 LIG 0.00  A 
ATOM     42  CD2 PHE C 305      17.767   8.728  -2.423  0.50 36.02 LIG 0.01  A 
ENDBRANCH 36 37
ENDBRANCH 35 36
BRANCH 35 43
ATOM     43  N   PHE C 305      17.359   8.102   2.437  0.50 33.54 LIG-0.35  N 
ATOM     44 H    PHE C 305      18.050   7.621   2.612  0.50 33.54 LIG 0.16  HD
ATOM     45  C   ASN C 304      16.796   8.954   3.295  0.50 33.07 LIG 0.24  C 
ATOM     46 O    ASN C 304      15.635   9.360   3.167  0.50 33.39 LIG-0.27  OA
BRANCH 45 47
ATOM     47  CA  ASN C 304      17.674   9.424   4.463  0.50 32.40 LIG 0.18  C 
BRANCH 47 48
ATOM     48  CB  ASN C 304      16.879   9.674   5.753  0.50 32.38 LIG 0.14  C 
BRANCH 48 49
ATOM     49  CG  ASN C 304      17.028   8.531   6.789  0.50 31.77 LIG 0.22  C 
ATOM     50 OD1  ASN C 304      16.046   8.008   7.304  0.50 27.48 LIG-0.27  OA
ATOM     51  ND2 ASN C 304      18.267   8.187   7.117  0.50 32.56 LIG-0.37  N 
ATOM     52 21HD ASN C 304      18.401   7.578   7.710  0.50 32.56 LIG 0.16  HD
ATOM     53 22HD ASN C 304      18.935   8.573   6.738  0.50 32.56 LIG 0.16  HD
ENDBRANCH 48 49
ENDBRANCH 47 48
BRANCH 47 54
ATOM     54  N   ASN C 304      18.377  10.633   4.109  0.50 31.56 LIG-0.34  N 
ATOM     55  C   LEU C 303      19.535  10.933   4.678  0.50 30.83 LIG 0.26  C 
ATOM     56 O    LEU C 303      20.162  10.127   5.351  0.50 29.02 LIG-0.27  OA
ATOM     57 H    ASN C 304      17.986  11.120   3.517  0.50 31.56 LIG 0.16  HD
BRANCH 55 58
ATOM     58  CA  LEU C 303      20.050  12.357   4.437  0.50 30.56 LIG 0.40  C 
ATOM     59  N   LEU C 303      20.874  12.497   3.205  0.50 30.88 LIG 0.61  N 
BRANCH 58 60
ATOM     60  CB  LEU C 303      18.895  13.365   4.418  0.50 30.80 LIG 0.06  C 
BRANCH 60 61
ATOM     61  CG  LEU C 303      18.054  13.515   5.691  0.50 30.92 LIG-0.02  C 
ATOM     62  CD2 LEU C 303      18.745  12.833   6.887  0.50 31.43 LIG 0.01  C 
ATOM     63  CD1 LEU C 303      16.642  12.996   5.487  0.50 30.50 LIG 0.01  C 
ENDBRANCH 60 61
ENDBRANCH 58 60
ENDBRANCH 55 58
ENDBRANCH 47 54
ENDBRANCH 45 47
ENDBRANCH 35 43
ENDBRANCH 1 35
TORSDOF 21
ENDMDL
MODEL 18
USER: ADFR SOLUTION from run 134
USER: SCORE 17.077649 LL:  -5.185 LR: -13.500 RR:   0.000 FEB:  -7.235
USER: RMSD 2.904438
USER: SEED 133
USER: STATUS searching
USER: GENES 23
USER: genes 0 Translation |==|  0.60315 0.50281 0.52561
USER: genes 1 Rotation |==|  0.60603 0.40853 0.50259 0.97998
USER: genes 2 Torsion [N]-CA--C-[N] |==|  0.47227
USER: genes 3 Torsion [C]-N--CA-[C] |==|  0.76178
USER: genes 4 Torsion [N]-CA--C-[N] |==|  0.91077
USER: genes 5 Torsion [C]-N--CA-[CB] |==|  0.88329
USER: genes 6 Torsion [N]-CA--C-[N] |==|  0.32988
USER: genes 7 Torsion [N]-CA--C-[OXT] |==|  0.45642
USER: genes 8 Torsion [N]-CA--CB-[OG] |==|  0.46602
USER: genes 9 Torsion [CA]-CB--OG-[HG] |==|  0.82787
USER: genes 10 Torsion [N]-CA--CB-[CG2] |==|  0.80917
USER: genes 11 Torsion [CA]-CB--CG1-[CD1] |==|  0.28484
USER: genes 12 Torsion [N]-C--CA-[N] |==|  0.26914
USER: genes 13 Torsion [C]-CA--CB-[CG] |==|  0.15210
USER: genes 14 Torsion [CA]-CB--CG-[CD1] |==|  0.09729
USER: genes 15 Torsion [C]-CA--N-[C] |==|  0.62114
USER: genes 16 Torsion [N]-C--CA-[N] |==|  0.25611
USER: genes 17 Torsion [C]-CA--CB-[CG] |==|  0.33056
USER: genes 18 Torsion [CA]-CB--CG-[OD1] |==|  0.63202
USER: genes 19 Torsion [C]-CA--N-[C] |==|  0.55657
USER: genes 20 Torsion [N]-C--CA-[N] |==|  0.76560
USER: genes 21 Torsion [C]-CA--CB-[CG] |==|  0.16710
USER: genes 22 Torsion [CA]-CB--CG-[CD2] |==|  0.05173
ROOT
ATOM      1  C   PHE C 305      16.022   6.899   0.245  0.50 34.66 LIG 0.24  C 
ATOM      2 O    PHE C 305      16.929   6.257  -0.278  0.50 33.80 LIG-0.27  OA
ATOM      3  N   PRO C 306      14.763   6.427   0.327  0.50 35.29 LIG-0.34  N 
ATOM      4  CA  PRO C 306      14.320   5.405  -0.608  0.50 35.79 LIG 0.18  C 
ATOM      5  CB  PRO C 306      13.295   4.590   0.215  0.50 35.80 LIG 0.04  C 
ATOM      6  CG  PRO C 306      13.121   5.352   1.534  0.50 35.25 LIG 0.02  C 
ATOM      7  CD  PRO C 306      13.715   6.717   1.317  0.50 35.51 LIG 0.13  C 
ENDROOT
BRANCH 4 8
ATOM      8  C   PRO C 306      13.605   6.049  -1.798  0.50 36.50 LIG 0.24  C 
ATOM      9  N   ILE C 307      13.332   5.234  -2.830  0.50 37.01 LIG-0.35  N 
ATOM     10 H    ILE C 307      13.580   4.413  -2.887  0.50 37.01 LIG 0.16  HD
ATOM     11 O    PRO C 306      13.298   7.262  -1.768  0.50 36.74 LIG-0.27  OA
BRANCH 9 12
ATOM     12  CA  ILE C 307      12.558   5.732  -3.968  0.50 37.44 LIG 0.18  C 
BRANCH 12 13
ATOM     13  C   ILE C 307      11.047   5.622  -3.745  0.50 38.23 LIG 0.24  C 
ATOM     14  N   SER C 308      10.666   4.587  -3.002  0.50 38.91 LIG-0.34  N 
ATOM     15 H    SER C 308      11.202   3.956  -2.770  0.50 38.91 LIG 0.16  HD
ATOM     16 O    ILE C 307      10.263   6.453  -4.225  0.50 38.79 LIG-0.27  OA
BRANCH 14 17
ATOM     17  CA  SER C 308       9.306   4.409  -2.500  0.50 39.43 LIG 0.20  C 
BRANCH 17 18
ATOM     18  C   SER C 308       8.487   3.890  -3.684  0.50 39.77 LIG 0.24  C 
ATOM     19  N   PRO C 309       7.916   2.678  -3.559  0.50 40.03 LIG-0.34  N 
ATOM     20  CD  PRO C 309       7.662   1.920  -2.324  0.50 39.83 LIG 0.13  C 
ATOM     21  CA  PRO C 309       7.421   1.976  -4.745  0.50 40.09 LIG 0.19  C 
ATOM     22  CG  PRO C 309       7.392   0.538  -2.829  0.50 40.19 LIG 0.02  C 
ATOM     23  CB  PRO C 309       6.729   0.740  -4.157  0.50 40.09 LIG 0.04  C 
ATOM     24 O    SER C 308       8.354   4.581  -4.698  0.50 39.81 LIG-0.27  OA
BRANCH 21 25
ATOM     25  C   PRO C 309       6.450   2.810  -5.581  0.50 40.04 LIG 0.20  C 
ATOM     26 OXT  PRO C 309       6.163   2.495  -6.740  0.50 40.10 LIG-0.65  OA
ATOM     27 O    PRO C 309       5.936   3.831  -5.119  0.50 40.34 LIG-0.65  OA
ENDBRANCH 21 25
ENDBRANCH 17 18
BRANCH 17 28
ATOM     28  CB  SER C 308       8.733   5.733  -1.990  0.50 39.49 LIG 0.20  C 
BRANCH 28 29
ATOM     29 OG   SER C 308       7.334   5.639  -1.762  0.50 39.70 LIG-0.40  OA
ATOM     30 HG   SER C 308       6.943   5.466  -2.485  0.50 39.70 LIG 0.21  HD
ENDBRANCH 28 29
ENDBRANCH 17 28
ENDBRANCH 14 17
ENDBRANCH 12 13
BRANCH 12 31
ATOM     31  CB  ILE C 307      12.898   4.989  -5.283  0.50 37.20 LIG 0.01  C 
ATOM     32  CG2 ILE C 307      14.321   5.327  -5.751  0.50 36.86 LIG 0.01  C 
BRANCH 31 33
ATOM     33  CG1 ILE C 307      12.671   3.478  -5.091  0.50 35.88 LIG 0.00  C 
ATOM     34  CD1 ILE C 307      11.400   2.932  -5.694  0.50 32.01 LIG 0.01  C 
ENDBRANCH 31 33
ENDBRANCH 12 31
ENDBRANCH 9 12
ENDBRANCH 4 8
BRANCH 1 35
ATOM     35  CA  PHE C 305      16.320   8.269   0.867  0.50 34.47 LIG 0.18  C 
BRANCH 35 36
ATOM     36  CB  PHE C 305      17.313   8.987  -0.061  0.50 34.49 LIG 0.07  C 
BRANCH 36 37
ATOM     37  CG  PHE C 305      16.869   9.107  -1.509  0.50 35.55 LIG-0.06  A 
ATOM     38  CD1 PHE C 305      15.531   9.294  -1.856  0.50 36.28 LIG 0.01  A 
ATOM     39  CE1 PHE C 305      15.148   9.405  -3.195  0.50 36.66 LIG 0.00  A 
ATOM     40  CZ  PHE C 305      16.107   9.315  -4.209  0.50 36.87 LIG 0.00  A 
ATOM     41  CE2 PHE C 305      17.437   9.124  -3.881  0.50 36.76 LIG 0.00  A 
ATOM     42  CD2 PHE C 305      17.814   9.011  -2.533  0.50 36.02 LIG 0.01  A 
ENDBRANCH 36 37
ENDBRANCH 35 36
BRANCH 35 43
ATOM     43  N   PHE C 305      16.887   8.222   2.219  0.50 33.54 LIG-0.35  N 
ATOM     44 H    PHE C 305      17.503   7.633   2.332  0.50 33.54 LIG 0.16  HD
ATOM     45  C   ASN C 304      16.452   9.048   3.172  0.50 33.07 LIG 0.24  C 
ATOM     46 O    ASN C 304      15.360   9.625   3.107  0.50 33.39 LIG-0.27  OA
BRANCH 45 47
ATOM     47  CA  ASN C 304      17.390   9.264   4.367  0.50 32.40 LIG 0.18  C 
BRANCH 47 48
ATOM     48  CB  ASN C 304      16.641   9.459   5.695  0.50 32.38 LIG 0.14  C 
BRANCH 48 49
ATOM     49  CG  ASN C 304      16.979   8.373   6.747  0.50 31.77 LIG 0.22  C 
ATOM     50 OD1  ASN C 304      16.096   7.800   7.375  0.50 27.48 LIG-0.27  OA
ATOM     51  ND2 ASN C 304      18.267   8.135   6.961  0.50 32.56 LIG-0.37  N 
ATOM     52 21HD ASN C 304      18.505   7.562   7.556  0.50 32.56 LIG 0.16  HD
ATOM     53 22HD ASN C 304      18.863   8.554   6.503  0.50 32.56 LIG 0.16  HD
ENDBRANCH 48 49
ENDBRANCH 47 48
BRANCH 47 54
ATOM     54  N   ASN C 304      18.239  10.408   4.141  0.50 31.56 LIG-0.34  N 
ATOM     55  C   LEU C 303      19.370  10.554   4.815  0.50 30.83 LIG 0.26  C 
ATOM     56 O    LEU C 303      19.853   9.653   5.487  0.50 29.02 LIG-0.27  OA
ATOM     57 H    ASN C 304      17.951  10.962   3.550  0.50 31.56 LIG 0.16  HD
BRANCH 55 58
ATOM     58  CA  LEU C 303      20.046  11.926   4.699  0.50 30.56 LIG 0.40  C 
ATOM     59  N   LEU C 303      20.911  12.069   3.497  0.50 30.88 LIG 0.61  N 
BRANCH 58 60
ATOM     60  CB  LEU C 303      19.010  13.056   4.743  0.50 30.80 LIG 0.06  C 
BRANCH 60 61
ATOM     61  CG  LEU C 303      18.135  13.177   5.997  0.50 30.92 LIG-0.02  C 
ATOM     62  CD2 LEU C 303      18.765  12.418   7.179  0.50 31.43 LIG 0.01  C 
ATOM     63  CD1 LEU C 303      16.714  12.714   5.727  0.50 30.50 LIG 0.01  C 
ENDBRANCH 60 61
ENDBRANCH 58 60
ENDBRANCH 55 58
ENDBRANCH 47 54
ENDBRANCH 45 47
ENDBRANCH 35 43
ENDBRANCH 1 35
TORSDOF 21
ENDMDL
MODEL 19
USER: ADFR SOLUTION from run 17
USER: SCORE 15.852381 LL:  -4.697 LR: -13.468 RR:   0.000 FEB:  -7.204
USER: RMSD 3.500877
USER: SEED 16
USER: STATUS no improvement in best in 11 clusters for 5 generations
USER: GENES 23
USER: genes 0 Translation |==|  0.62459 0.50283 0.55527
USER: genes 1 Rotation |==|  0.61546 0.40624 0.50251 0.97736
USER: genes 2 Torsion [N]-CA--C-[N] |==|  0.47101
USER: genes 3 Torsion [C]-N--CA-[C] |==|  0.57364
USER: genes 4 Torsion [N]-CA--C-[N] |==|  0.27518
USER: genes 5 Torsion [C]-N--CA-[CB] |==|  0.15324
USER: genes 6 Torsion [N]-CA--C-[N] |==|  0.46286
USER: genes 7 Torsion [N]-CA--C-[OXT] |==|  0.40025
USER: genes 8 Torsion [N]-CA--CB-[OG] |==|  0.13337
USER: genes 9 Torsion [CA]-CB--OG-[HG] |==|  0.27390
USER: genes 10 Torsion [N]-CA--CB-[CG2] |==|  0.08743
USER: genes 11 Torsion [CA]-CB--CG1-[CD1] |==|  0.50453
USER: genes 12 Torsion [N]-C--CA-[N] |==|  0.26970
USER: genes 13 Torsion [C]-CA--CB-[CG] |==|  0.12831
USER: genes 14 Torsion [CA]-CB--CG-[CD1] |==|  0.12864
USER: genes 15 Torsion [C]-CA--N-[C] |==|  0.70738
USER: genes 16 Torsion [N]-C--CA-[N] |==|  0.25560
USER: genes 17 Torsion [C]-CA--CB-[CG] |==|  0.79789
USER: genes 18 Torsion [CA]-CB--CG-[OD1] |==|  0.93154
USER: genes 19 Torsion [C]-CA--N-[C] |==|  0.62272
USER: genes 20 Torsion [N]-C--CA-[N] |==|  0.36010
USER: genes 21 Torsion [C]-CA--CB-[CG] |==|  0.03784
USER: genes 22 Torsion [CA]-CB--CG-[CD2] |==|  0.57790
ROOT
ATOM      1  C   PHE C 305      16.569   6.899   0.845  0.50 34.66 LIG 0.24  C 
ATOM      2 O    PHE C 305      17.484   6.282   0.307  0.50 33.80 LIG-0.27  OA
ATOM      3  N   PRO C 306      15.311   6.418   0.896  0.50 35.29 LIG-0.34  N 
ATOM      4  CA  PRO C 306      14.883   5.431  -0.083  0.50 35.79 LIG 0.18  C 
ATOM      5  CB  PRO C 306      13.854   4.581   0.698  0.50 35.80 LIG 0.04  C 
ATOM      6  CG  PRO C 306      13.662   5.291   2.043  0.50 35.25 LIG 0.02  C 
ATOM      7  CD  PRO C 306      14.251   6.665   1.885  0.50 35.51 LIG 0.13  C 
ENDROOT
BRANCH 4 8
ATOM      8  C   PRO C 306      14.177   6.118  -1.254  0.50 36.50 LIG 0.24  C 
ATOM      9  N   ILE C 307      13.927   5.344  -2.324  0.50 37.01 LIG-0.35  N 
ATOM     10 H    ILE C 307      14.185   4.529  -2.411  0.50 37.01 LIG 0.16  HD
ATOM     11 O    PRO C 306      13.857   7.325  -1.177  0.50 36.74 LIG-0.27  OA
BRANCH 9 12
ATOM     12  CA  ILE C 307      13.163   5.882  -3.450  0.50 37.44 LIG 0.18  C 
BRANCH 12 13
ATOM     13  C   ILE C 307      12.429   4.793  -4.236  0.50 38.23 LIG 0.24  C 
ATOM     14  N   SER C 308      11.141   4.657  -3.934  0.50 38.91 LIG-0.34  N 
ATOM     15 H    SER C 308      10.774   5.053  -3.265  0.50 38.91 LIG 0.16  HD
ATOM     16 O    ILE C 307      13.012   4.111  -5.091  0.50 38.79 LIG-0.27  OA
BRANCH 14 17
ATOM     17  CA  SER C 308      10.213   3.828  -4.698  0.50 39.43 LIG 0.20  C 
BRANCH 17 18
ATOM     18  C   SER C 308       8.888   3.866  -3.933  0.50 39.77 LIG 0.24  C 
ATOM     19  N   PRO C 309       7.793   3.409  -4.566  0.50 40.03 LIG-0.34  N 
ATOM     20  CD  PRO C 309       7.730   2.547  -5.757  0.50 39.83 LIG 0.13  C 
ATOM     21  CA  PRO C 309       6.461   3.726  -4.048  0.50 40.09 LIG 0.19  C 
ATOM     22  CG  PRO C 309       6.314   2.706  -6.212  0.50 40.19 LIG 0.02  C 
ATOM     23  CB  PRO C 309       5.529   2.906  -4.951  0.50 40.09 LIG 0.04  C 
ATOM     24 O    SER C 308       8.852   4.290  -2.774  0.50 39.81 LIG-0.27  OA
BRANCH 21 25
ATOM     25  C   PRO C 309       6.278   3.352  -2.577  0.50 40.04 LIG 0.20  C 
ATOM     26 OXT  PRO C 309       5.598   4.046  -1.816  0.50 40.10 LIG-0.65  OA
ATOM     27 O    PRO C 309       6.820   2.348  -2.110  0.50 40.34 LIG-0.65  OA
ENDBRANCH 21 25
ENDBRANCH 17 18
BRANCH 17 28
ATOM     28  CB  SER C 308      10.727   2.390  -4.808  0.50 39.49 LIG 0.20  C 
BRANCH 28 29
ATOM     29 OG   SER C 308      11.142   1.890  -3.545  0.50 39.70 LIG-0.40  OA
ATOM     30 HG   SER C 308      10.530   1.419  -3.214  0.50 39.70 LIG 0.21  HD
ENDBRANCH 28 29
ENDBRANCH 17 28
ENDBRANCH 14 17
ENDBRANCH 12 13
BRANCH 12 31
ATOM     31  CB  ILE C 307      14.053   6.665  -4.446  0.50 37.20 LIG 0.01  C 
ATOM     32  CG2 ILE C 307      15.473   6.081  -4.488  0.50 36.86 LIG 0.01  C 
BRANCH 31 33
ATOM     33  CG1 ILE C 307      13.374   6.695  -5.826  0.50 35.88 LIG 0.00  C 
ATOM     34  CD1 ILE C 307      14.149   7.397  -6.914  0.50 32.01 LIG 0.01  C 
ENDBRANCH 31 33
ENDBRANCH 12 31
ENDBRANCH 9 12
ENDBRANCH 4 8
BRANCH 1 35
ATOM     35  CA  PHE C 305      16.854   8.245   1.523  0.50 34.47 LIG 0.18  C 
BRANCH 35 36
ATOM     36  CB  PHE C 305      17.848   9.005   0.631  0.50 34.49 LIG 0.07  C 
BRANCH 36 37
ATOM     37  CG  PHE C 305      17.515   9.004  -0.852  0.50 35.55 LIG-0.06  A 
ATOM     38  CD1 PHE C 305      16.228   9.273  -1.316  0.50 36.28 LIG 0.01  A 
ATOM     39  CE1 PHE C 305      15.947   9.270  -2.686  0.50 36.66 LIG 0.00  A 
ATOM     40  CZ  PHE C 305      16.957   8.980  -3.608  0.50 36.87 LIG 0.00  A 
ATOM     41  CE2 PHE C 305      18.237   8.706  -3.162  0.50 36.76 LIG 0.00  A 
ATOM     42  CD2 PHE C 305      18.511   8.709  -1.785  0.50 36.02 LIG 0.01  A 
ENDBRANCH 36 37
ENDBRANCH 35 36
BRANCH 35 43
ATOM     43  N   PHE C 305      17.411   8.150   2.877  0.50 33.54 LIG-0.35  N 
ATOM     44 H    PHE C 305      18.238   7.917   2.910  0.50 33.54 LIG 0.16  HD
ATOM     45  C   ASN C 304      16.659   8.411   3.946  0.50 33.07 LIG 0.24  C 
ATOM     46 O    ASN C 304      15.422   8.394   3.912  0.50 33.39 LIG-0.27  OA
BRANCH 45 47
ATOM     47  CA  ASN C 304      17.409   8.751   5.241  0.50 32.40 LIG 0.18  C 
BRANCH 47 48
ATOM     48  CB  ASN C 304      16.696   8.243   6.503  0.50 32.38 LIG 0.14  C 
BRANCH 48 49
ATOM     49  CG  ASN C 304      15.423   9.056   6.849  0.50 31.77 LIG 0.22  C 
ATOM     50 OD1  ASN C 304      15.288  10.216   6.476  0.50 27.48 LIG-0.27  OA
ATOM     51  ND2 ASN C 304      14.517   8.446   7.604  0.50 32.56 LIG-0.37  N 
ATOM     52 21HD ASN C 304      13.806   8.866   7.847  0.50 32.56 LIG 0.16  HD
ATOM     53 22HD ASN C 304      14.640   7.632   7.850  0.50 32.56 LIG 0.16  HD
ENDBRANCH 48 49
ENDBRANCH 47 48
BRANCH 47 54
ATOM     54  N   ASN C 304      17.595  10.178   5.355  0.50 31.56 LIG-0.34  N 
ATOM     55  C   LEU C 303      18.761  10.678   5.734  0.50 30.83 LIG 0.26  C 
ATOM     56 O    LEU C 303      19.777   9.999   5.798  0.50 29.02 LIG-0.27  OA
ATOM     57 H    ASN C 304      16.903  10.650   5.160  0.50 31.56 LIG 0.16  HD
BRANCH 55 58
ATOM     58  CA  LEU C 303      18.766  12.171   6.086  0.50 30.56 LIG 0.40  C 
ATOM     59  N   LEU C 303      19.392  12.476   7.401  0.50 30.88 LIG 0.61  N 
BRANCH 58 60
ATOM     60  CB  LEU C 303      19.433  12.996   4.978  0.50 30.80 LIG 0.06  C 
BRANCH 60 61
ATOM     61  CG  LEU C 303      19.678  12.314   3.627  0.50 30.92 LIG-0.02  C 
ATOM     62  CD2 LEU C 303      20.892  12.937   2.912  0.50 31.43 LIG 0.01  C 
ATOM     63  CD1 LEU C 303      18.435  12.349   2.756  0.50 30.50 LIG 0.01  C 
ENDBRANCH 60 61
ENDBRANCH 58 60
ENDBRANCH 55 58
ENDBRANCH 47 54
ENDBRANCH 45 47
ENDBRANCH 35 43
ENDBRANCH 1 35
TORSDOF 21
ENDMDL
MODEL 20
USER: ADFR SOLUTION from run 139
USER: SCORE 16.134296 LL:  -4.455 LR: -13.437 RR:   0.000 FEB:  -7.173
USER: RMSD 3.554553
USER: SEED 138
USER: STATUS no improvement in best in 11 clusters for 5 generations
USER: GENES 23
USER: genes 0 Translation |==|  0.62084 0.48786 0.53475
USER: genes 1 Rotation |==|  0.52437 0.46395 0.49609 0.99809
USER: genes 2 Torsion [N]-CA--C-[N] |==|  0.43006
USER: genes 3 Torsion [C]-N--CA-[C] |==|  0.66623
USER: genes 4 Torsion [N]-CA--C-[N] |==|  0.25277
USER: genes 5 Torsion [C]-N--CA-[CB] |==|  0.21188
USER: genes 6 Torsion [N]-CA--C-[N] |==|  0.82546
USER: genes 7 Torsion [N]-CA--C-[OXT] |==|  0.88197
USER: genes 8 Torsion [N]-CA--CB-[OG] |==|  0.88870
USER: genes 9 Torsion [CA]-CB--OG-[HG] |==|  0.64917
USER: genes 10 Torsion [N]-CA--CB-[CG2] |==|  0.47137
USER: genes 11 Torsion [CA]-CB--CG1-[CD1] |==|  0.59935
USER: genes 12 Torsion [N]-C--CA-[N] |==|  0.23357
USER: genes 13 Torsion [C]-CA--CB-[CG] |==|  0.25596
USER: genes 14 Torsion [CA]-CB--CG-[CD1] |==|  0.83151
USER: genes 15 Torsion [C]-CA--N-[C] |==|  0.60946
USER: genes 16 Torsion [N]-C--CA-[N] |==|  0.35954
USER: genes 17 Torsion [C]-CA--CB-[CG] |==|  0.37403
USER: genes 18 Torsion [CA]-CB--CG-[OD1] |==|  0.11337
USER: genes 19 Torsion [C]-CA--N-[C] |==|  0.64685
USER: genes 20 Torsion [N]-C--CA-[N] |==|  0.77915
USER: genes 21 Torsion [C]-CA--CB-[CG] |==|  0.20438
USER: genes 22 Torsion [CA]-CB--CG-[CD2] |==|  0.69810
ROOT
ATOM      1  C   PHE C 305      16.474   6.540   0.430  0.50 34.66 LIG 0.24  C 
ATOM      2 O    PHE C 305      17.234   5.700  -0.043  0.50 33.80 LIG-0.27  OA
ATOM      3  N   PRO C 306      15.267   6.213   0.934  0.50 35.29 LIG-0.34  N 
ATOM      4  CA  PRO C 306      14.620   4.985   0.500  0.50 35.79 LIG 0.18  C 
ATOM      5  CB  PRO C 306      13.814   4.549   1.745  0.50 35.80 LIG 0.04  C 
ATOM      6  CG  PRO C 306      13.949   5.698   2.751  0.50 35.25 LIG 0.02  C 
ATOM      7  CD  PRO C 306      14.476   6.877   1.981  0.50 35.51 LIG 0.13  C 
ENDROOT
BRANCH 4 8
ATOM      8  C   PRO C 306      13.649   5.274  -0.647  0.50 36.50 LIG 0.24  C 
ATOM      9  N   ILE C 307      13.392   4.245  -1.472  0.50 37.01 LIG-0.35  N 
ATOM     10 H    ILE C 307      13.773   3.476  -1.432  0.50 37.01 LIG 0.16  HD
ATOM     11 O    PRO C 306      13.137   6.409  -0.768  0.50 36.74 LIG-0.27  OA
BRANCH 9 12
ATOM     12  CA  ILE C 307      12.396   4.393  -2.534  0.50 37.44 LIG 0.18  C 
BRANCH 12 13
ATOM     13  C   ILE C 307      11.246   3.392  -2.406  0.50 38.23 LIG 0.24  C 
ATOM     14  N   SER C 308      10.207   3.822  -1.696  0.50 38.91 LIG-0.34  N 
ATOM     15 H    SER C 308      10.224   4.548  -1.234  0.50 38.91 LIG 0.16  HD
ATOM     16 O    ILE C 307      11.299   2.276  -2.943  0.50 38.79 LIG-0.27  OA
BRANCH 14 17
ATOM     17  CA  SER C 308       8.931   3.116  -1.618  0.50 39.43 LIG 0.20  C 
BRANCH 17 18
ATOM     18  C   SER C 308       7.925   4.128  -1.064  0.50 39.77 LIG 0.24  C 
ATOM     19  N   PRO C 309       8.142   4.603   0.175  0.50 40.03 LIG-0.34  N 
ATOM     20  CD  PRO C 309       9.393   4.571   0.950  0.50 39.83 LIG 0.13  C 
ATOM     21  CA  PRO C 309       7.068   5.289   0.896  0.50 40.09 LIG 0.19  C 
ATOM     22  CG  PRO C 309       8.932   4.868   2.343  0.50 40.19 LIG 0.02  C 
ATOM     23  CB  PRO C 309       7.764   5.790   2.169  0.50 40.09 LIG 0.04  C 
ATOM     24 O    SER C 308       6.966   4.492  -1.752  0.50 39.81 LIG-0.27  OA
BRANCH 21 25
ATOM     25  C   PRO C 309       6.451   6.445   0.109  0.50 40.04 LIG 0.20  C 
ATOM     26 OXT  PRO C 309       7.151   7.237  -0.528  0.50 40.10 LIG-0.65  OA
ATOM     27 O    PRO C 309       5.231   6.623   0.103  0.50 40.34 LIG-0.65  OA
ENDBRANCH 21 25
ENDBRANCH 17 18
BRANCH 17 28
ATOM     28  CB  SER C 308       9.033   1.901  -0.694  0.50 39.49 LIG 0.20  C 
BRANCH 28 29
ATOM     29 OG   SER C 308      10.268   1.220  -0.865  0.50 39.70 LIG-0.40  OA
ATOM     30 HG   SER C 308      10.121   0.409  -1.024  0.50 39.70 LIG 0.21  HD
ENDBRANCH 28 29
ENDBRANCH 17 28
ENDBRANCH 14 17
ENDBRANCH 12 13
BRANCH 12 31
ATOM     31  CB  ILE C 307      13.011   4.229  -3.945  0.50 37.20 LIG 0.01  C 
ATOM     32  CG2 ILE C 307      11.912   4.135  -5.014  0.50 36.86 LIG 0.01  C 
BRANCH 31 33
ATOM     33  CG1 ILE C 307      14.007   5.373  -4.206  0.50 35.88 LIG 0.00  C 
ATOM     34  CD1 ILE C 307      14.052   5.881  -5.627  0.50 32.01 LIG 0.01  C 
ENDBRANCH 31 33
ENDBRANCH 12 31
ENDBRANCH 9 12
ENDBRANCH 4 8
BRANCH 1 35
ATOM     35  CA  PHE C 305      16.907   8.010   0.494  0.50 34.47 LIG 0.18  C 
BRANCH 35 36
ATOM     36  CB  PHE C 305      17.922   8.238  -0.636  0.50 34.49 LIG 0.07  C 
BRANCH 36 37
ATOM     37  CG  PHE C 305      17.327   8.723  -1.948  0.50 35.55 LIG-0.06  A 
ATOM     38  CD1 PHE C 305      16.388   7.970  -2.652  0.50 36.28 LIG 0.01  A 
ATOM     39  CE1 PHE C 305      15.851   8.439  -3.855  0.50 36.66 LIG 0.00  A 
ATOM     40  CZ  PHE C 305      16.265   9.669  -4.374  0.50 36.87 LIG 0.00  A 
ATOM     41  CE2 PHE C 305      17.200  10.425  -3.689  0.50 36.76 LIG 0.00  A 
ATOM     42  CD2 PHE C 305      17.735   9.946  -2.483  0.50 36.02 LIG 0.01  A 
ENDBRANCH 36 37
ENDBRANCH 35 36
BRANCH 35 43
ATOM     43  N   PHE C 305      17.516   8.418   1.765  0.50 33.54 LIG-0.35  N 
ATOM     44 H    PHE C 305      18.041   7.834   2.117  0.50 33.54 LIG 0.16  HD
ATOM     45  C   ASN C 304      17.250   9.610   2.299  0.50 33.07 LIG 0.24  C 
ATOM     46 O    ASN C 304      16.254  10.274   1.986  0.50 33.39 LIG-0.27  OA
BRANCH 45 47
ATOM     47  CA  ASN C 304      18.258  10.136   3.330  0.50 32.40 LIG 0.18  C 
BRANCH 47 48
ATOM     48  CB  ASN C 304      17.717  10.118   4.768  0.50 32.38 LIG 0.14  C 
BRANCH 48 49
ATOM     49  CG  ASN C 304      18.733   9.550   5.791  0.50 31.77 LIG 0.22  C 
ATOM     50 OD1  ASN C 304      19.923   9.834   5.729  0.50 27.48 LIG-0.27  OA
ATOM     51  ND2 ASN C 304      18.251   8.712   6.701  0.50 32.56 LIG-0.37  N 
ATOM     52 21HD ASN C 304      18.781   8.348   7.273  0.50 32.56 LIG 0.16  HD
ATOM     53 22HD ASN C 304      17.410   8.533   6.719  0.50 32.56 LIG 0.16  HD
ENDBRANCH 48 49
ENDBRANCH 47 48
BRANCH 47 54
ATOM     54  N   ASN C 304      18.658  11.483   3.001  0.50 31.56 LIG-0.34  N 
ATOM     55  C   LEU C 303      19.939  11.800   2.896  0.50 30.83 LIG 0.26  C 
ATOM     56 O    LEU C 303      20.823  10.956   2.857  0.50 29.02 LIG-0.27  OA
ATOM     57 H    ASN C 304      18.009  12.036   2.885  0.50 31.56 LIG 0.16  HD
BRANCH 55 58
ATOM     58  CA  LEU C 303      20.253  13.300   2.819  0.50 30.56 LIG 0.40  C 
ATOM     59  N   LEU C 303      20.036  13.890   1.470  0.50 30.88 LIG 0.61  N 
BRANCH 58 60
ATOM     60  CB  LEU C 303      19.461  14.083   3.873  0.50 30.80 LIG 0.06  C 
BRANCH 60 61
ATOM     61  CG  LEU C 303      19.902  13.963   5.336  0.50 30.92 LIG-0.02  C 
ATOM     62  CD2 LEU C 303      18.885  13.141   6.149  0.50 31.43 LIG 0.01  C 
ATOM     63  CD1 LEU C 303      20.143  15.329   5.956  0.50 30.50 LIG 0.01  C 
ENDBRANCH 60 61
ENDBRANCH 58 60
ENDBRANCH 55 58
ENDBRANCH 47 54
ENDBRANCH 45 47
ENDBRANCH 35 43
ENDBRANCH 1 35
TORSDOF 21
ENDMDL
MODEL 21
USER: ADFR SOLUTION from run 51
USER: SCORE 16.446988 LL:  -5.273 LR: -13.355 RR:   0.000 FEB:  -7.091
USER: RMSD 3.009542
USER: SEED 50
USER: STATUS no improvement in best in 6 clusters for 5 generations
USER: GENES 23
USER: genes 0 Translation |==|  0.63429 0.50695 0.53614
USER: genes 1 Rotation |==|  0.44569 0.40643 0.50628 0.98811
USER: genes 2 Torsion [N]-CA--C-[N] |==|  0.54508
USER: genes 3 Torsion [C]-N--CA-[C] |==|  0.77388
USER: genes 4 Torsion [N]-CA--C-[N] |==|  0.37907
USER: genes 5 Torsion [C]-N--CA-[CB] |==|  0.44659
USER: genes 6 Torsion [N]-CA--C-[N] |==|  0.26221
USER: genes 7 Torsion [N]-CA--C-[OXT] |==|  0.76940
USER: genes 8 Torsion [N]-CA--CB-[OG] |==|  0.95500
USER: genes 9 Torsion [CA]-CB--OG-[HG] |==|  0.42639
USER: genes 10 Torsion [N]-CA--CB-[CG2] |==|  0.14233
USER: genes 11 Torsion [CA]-CB--CG1-[CD1] |==|  0.16015
USER: genes 12 Torsion [N]-C--CA-[N] |==|  0.32281
USER: genes 13 Torsion [C]-CA--CB-[CG] |==|  0.36845
USER: genes 14 Torsion [CA]-CB--CG-[CD1] |==|  0.60750
USER: genes 15 Torsion [C]-CA--N-[C] |==|  0.80134
USER: genes 16 Torsion [N]-C--CA-[N] |==|  0.13889
USER: genes 17 Torsion [C]-CA--CB-[CG] |==|  0.38364
USER: genes 18 Torsion [CA]-CB--CG-[OD1] |==|  0.81817
USER: genes 19 Torsion [C]-CA--N-[C] |==|  0.63917
USER: genes 20 Torsion [N]-C--CA-[N] |==|  0.35690
USER: genes 21 Torsion [C]-CA--CB-[CG] |==|  0.05348
USER: genes 22 Torsion [CA]-CB--CG-[CD2] |==|  0.74493
ROOT
ATOM      1  C   PHE C 305      16.816   6.998   0.458  0.50 34.66 LIG 0.24  C 
ATOM      2 O    PHE C 305      17.639   6.087   0.454  0.50 33.80 LIG-0.27  OA
ATOM      3  N   PRO C 306      15.518   6.792   0.752  0.50 35.29 LIG-0.34  N 
ATOM      4  CA  PRO C 306      14.949   5.463   0.587  0.50 35.79 LIG 0.18  C 
ATOM      5  CB  PRO C 306      13.867   5.400   1.690  0.50 35.80 LIG 0.04  C 
ATOM      6  CG  PRO C 306      13.805   6.808   2.292  0.50 35.25 LIG 0.02  C 
ATOM      7  CD  PRO C 306      14.529   7.713   1.334  0.50 35.51 LIG 0.13  C 
ENDROOT
BRANCH 4 8
ATOM      8  C   PRO C 306      14.275   5.342  -0.781  0.50 36.50 LIG 0.24  C 
ATOM      9  N   ILE C 307      13.431   4.307  -0.929  0.50 37.01 LIG-0.35  N 
ATOM     10 H    ILE C 307      13.297   3.694  -0.342  0.50 37.01 LIG 0.16  HD
ATOM     11 O    PRO C 306      14.511   6.182  -1.678  0.50 36.74 LIG-0.27  OA
BRANCH 9 12
ATOM     12  CA  ILE C 307      12.658   4.167  -2.164  0.50 37.44 LIG 0.18  C 
BRANCH 12 13
ATOM     13  C   ILE C 307      11.406   5.047  -2.178  0.50 38.23 LIG 0.24  C 
ATOM     14  N   SER C 308      11.185   5.686  -3.324  0.50 38.91 LIG-0.34  N 
ATOM     15 H    SER C 308      11.759   5.711  -3.963  0.50 38.91 LIG 0.16  HD
ATOM     16 O    ILE C 307      10.667   5.132  -1.187  0.50 38.79 LIG-0.27  OA
BRANCH 14 17
ATOM     17  CA  SER C 308       9.952   6.410  -3.622  0.50 39.43 LIG 0.20  C 
BRANCH 17 18
ATOM     18  C   SER C 308       8.927   5.346  -4.022  0.50 39.77 LIG 0.24  C 
ATOM     19  N   PRO C 309       8.113   4.876  -3.060  0.50 40.03 LIG-0.34  N 
ATOM     20  CD  PRO C 309       7.814   5.481  -1.752  0.50 39.83 LIG 0.13  C 
ATOM     21  CA  PRO C 309       7.360   3.639  -3.277  0.50 40.09 LIG 0.19  C 
ATOM     22  CG  PRO C 309       7.193   4.350  -0.995  0.50 40.19 LIG 0.02  C 
ATOM     23  CB  PRO C 309       6.468   3.549  -2.032  0.50 40.09 LIG 0.04  C 
ATOM     24 O    SER C 308       8.856   4.961  -5.193  0.50 39.81 LIG-0.27  OA
BRANCH 21 25
ATOM     25  C   PRO C 309       6.527   3.652  -4.558  0.50 40.04 LIG 0.20  C 
ATOM     26 OXT  PRO C 309       5.409   4.175  -4.594  0.50 40.10 LIG-0.65  OA
ATOM     27 O    PRO C 309       6.949   3.126  -5.590  0.50 40.34 LIG-0.65  OA
ENDBRANCH 21 25
ENDBRANCH 17 18
BRANCH 17 28
ATOM     28  CB  SER C 308      10.165   7.406  -4.764  0.50 39.49 LIG 0.20  C 
BRANCH 28 29
ATOM     29 OG   SER C 308      11.546   7.647  -4.993  0.50 39.70 LIG-0.40  OA
ATOM     30 HG   SER C 308      11.662   7.876  -5.792  0.50 39.70 LIG 0.21  HD
ENDBRANCH 28 29
ENDBRANCH 17 28
ENDBRANCH 14 17
ENDBRANCH 12 13
BRANCH 12 31
ATOM     31  CB  ILE C 307      12.212   2.706  -2.419  0.50 37.20 LIG 0.01  C 
ATOM     32  CG2 ILE C 307      11.516   2.123  -1.180  0.50 36.86 LIG 0.01  C 
BRANCH 31 33
ATOM     33  CG1 ILE C 307      11.336   2.650  -3.682  0.50 35.88 LIG 0.00  C 
ATOM     34  CD1 ILE C 307      11.982   3.173  -4.942  0.50 32.01 LIG 0.01  C 
ENDBRANCH 31 33
ENDBRANCH 12 31
ENDBRANCH 9 12
ENDBRANCH 4 8
BRANCH 1 35
ATOM     35  CA  PHE C 305      17.268   8.433   0.159  0.50 34.47 LIG 0.18  C 
BRANCH 35 36
ATOM     36  CB  PHE C 305      17.900   8.431  -1.242  0.50 34.49 LIG 0.07  C 
BRANCH 36 37
ATOM     37  CG  PHE C 305      17.428   9.545  -2.162  0.50 35.55 LIG-0.06  A 
ATOM     38  CD1 PHE C 305      17.207   9.330  -3.522  0.50 36.28 LIG 0.01  A 
ATOM     39  CE1 PHE C 305      16.769  10.370  -4.349  0.50 36.66 LIG 0.00  A 
ATOM     40  CZ  PHE C 305      16.560  11.646  -3.818  0.50 36.87 LIG 0.00  A 
ATOM     41  CE2 PHE C 305      16.780  11.875  -2.472  0.50 36.76 LIG 0.00  A 
ATOM     42  CD2 PHE C 305      17.222  10.827  -1.649  0.50 36.02 LIG 0.01  A 
ENDBRANCH 36 37
ENDBRANCH 35 36
BRANCH 35 43
ATOM     43  N   PHE C 305      18.236   8.987   1.113  0.50 33.54 LIG-0.35  N 
ATOM     44 H    PHE C 305      19.035   9.074   0.806  0.50 33.54 LIG 0.16  HD
ATOM     45  C   ASN C 304      17.864   9.317   2.350  0.50 33.07 LIG 0.24  C 
ATOM     46 O    ASN C 304      16.839   8.872   2.879  0.50 33.39 LIG-0.27  OA
BRANCH 45 47
ATOM     47  CA  ASN C 304      18.776  10.301   3.096  0.50 32.40 LIG 0.18  C 
BRANCH 47 48
ATOM     48  CB  ASN C 304      18.185  10.778   4.431  0.50 32.38 LIG 0.14  C 
BRANCH 48 49
ATOM     49  CG  ASN C 304      19.232  10.837   5.572  0.50 31.77 LIG 0.22  C 
ATOM     50 OD1  ASN C 304      19.767   9.819   5.997  0.50 27.48 LIG-0.27  OA
ATOM     51  ND2 ASN C 304      19.481  12.035   6.087  0.50 32.56 LIG-0.37  N 
ATOM     52 21HD ASN C 304      20.033  12.115   6.742  0.50 32.56 LIG 0.16  HD
ATOM     53 22HD ASN C 304      19.090  12.730   5.766  0.50 32.56 LIG 0.16  HD
ENDBRANCH 48 49
ENDBRANCH 47 48
BRANCH 47 54
ATOM     54  N   ASN C 304      19.053  11.453   2.273  0.50 31.56 LIG-0.34  N 
ATOM     55  C   LEU C 303      20.297  11.872   2.094  0.50 30.83 LIG 0.26  C 
ATOM     56 O    LEU C 303      21.267  11.205   2.425  0.50 29.02 LIG-0.27  OA
ATOM     57 H    ASN C 304      18.360  11.825   1.925  0.50 31.56 LIG 0.16  HD
BRANCH 55 58
ATOM     58  CA  LEU C 303      20.451  13.250   1.439  0.50 30.56 LIG 0.40  C 
ATOM     59  N   LEU C 303      21.338  14.177   2.193  0.50 30.88 LIG 0.61  N 
BRANCH 58 60
ATOM     60  CB  LEU C 303      20.933  13.119  -0.012  0.50 30.80 LIG 0.06  C 
BRANCH 60 61
ATOM     61  CG  LEU C 303      20.750  11.765  -0.708  0.50 30.92 LIG-0.02  C 
ATOM     62  CD2 LEU C 303      22.000  10.883  -0.526  0.50 31.43 LIG 0.01  C 
ATOM     63  CD1 LEU C 303      20.394  11.939  -2.173  0.50 30.50 LIG 0.01  C 
ENDBRANCH 60 61
ENDBRANCH 58 60
ENDBRANCH 55 58
ENDBRANCH 47 54
ENDBRANCH 45 47
ENDBRANCH 35 43
ENDBRANCH 1 35
TORSDOF 21
ENDMDL
MODEL 22
USER: ADFR SOLUTION from run 134
USER: SCORE 16.784571 LL:  -5.743 LR: -13.307 RR:   0.000 FEB:  -7.042
USER: RMSD 4.056840
USER: SEED 133
USER: STATUS searching
USER: GENES 23
USER: genes 0 Translation |==|  0.60880 0.54733 0.48357
USER: genes 1 Rotation |==|  0.54833 0.39613 0.42297 0.98056
USER: genes 2 Torsion [N]-CA--C-[N] |==|  0.41434
USER: genes 3 Torsion [C]-N--CA-[C] |==|  0.63354
USER: genes 4 Torsion [N]-CA--C-[N] |==|  0.87106
USER: genes 5 Torsion [C]-N--CA-[CB] |==|  0.49541
USER: genes 6 Torsion [N]-CA--C-[N] |==|  0.81638
USER: genes 7 Torsion [N]-CA--C-[OXT] |==|  0.89126
USER: genes 8 Torsion [N]-CA--CB-[OG] |==|  0.00313
USER: genes 9 Torsion [CA]-CB--OG-[HG] |==|  0.75241
USER: genes 10 Torsion [N]-CA--CB-[CG2] |==|  0.14738
USER: genes 11 Torsion [CA]-CB--CG1-[CD1] |==|  0.19480
USER: genes 12 Torsion [N]-C--CA-[N] |==|  0.29855
USER: genes 13 Torsion [C]-CA--CB-[CG] |==|  0.18404
USER: genes 14 Torsion [CA]-CB--CG-[CD1] |==|  0.23984
USER: genes 15 Torsion [C]-CA--N-[C] |==|  0.70386
USER: genes 16 Torsion [N]-C--CA-[N] |==|  0.29608
USER: genes 17 Torsion [C]-CA--CB-[CG] |==|  0.53981
USER: genes 18 Torsion [CA]-CB--CG-[OD1] |==|  0.89909
USER: genes 19 Torsion [C]-CA--N-[C] |==|  0.66865
USER: genes 20 Torsion [N]-C--CA-[N] |==|  0.61369
USER: genes 21 Torsion [C]-CA--CB-[CG] |==|  0.24446
USER: genes 22 Torsion [CA]-CB--CG-[CD2] |==|  0.04442
ROOT
ATOM      1  C   PHE C 305      16.166   7.967  -0.607  0.50 34.66 LIG 0.24  C 
ATOM      2 O    PHE C 305      16.765   6.973  -1.008  0.50 33.80 LIG-0.27  OA
ATOM      3  N   PRO C 306      14.827   7.989  -0.462  0.50 35.29 LIG-0.34  N 
ATOM      4  CA  PRO C 306      14.010   7.056  -1.222  0.50 35.79 LIG 0.18  C 
ATOM      5  CB  PRO C 306      12.806   6.796  -0.287  0.50 35.80 LIG 0.04  C 
ATOM      6  CG  PRO C 306      12.973   7.767   0.887  0.50 35.25 LIG 0.02  C 
ATOM      7  CD  PRO C 306      13.995   8.782   0.456  0.50 35.51 LIG 0.13  C 
ENDROOT
BRANCH 4 8
ATOM      8  C   PRO C 306      13.509   7.717  -2.508  0.50 36.50 LIG 0.24  C 
ATOM      9  N   ILE C 307      13.326   6.896  -3.556  0.50 37.01 LIG-0.35  N 
ATOM     10 H    ILE C 307      13.524   6.059  -3.566  0.50 37.01 LIG 0.16  HD
ATOM     11 O    PRO C 306      13.283   8.947  -2.539  0.50 36.74 LIG-0.27  OA
BRANCH 9 12
ATOM     12  CA  ILE C 307      12.750   7.415  -4.797  0.50 37.44 LIG 0.18  C 
BRANCH 12 13
ATOM     13  C   ILE C 307      11.620   6.534  -5.335  0.50 38.23 LIG 0.24  C 
ATOM     14  N   SER C 308      11.887   5.231  -5.352  0.50 38.91 LIG-0.34  N 
ATOM     15 H    SER C 308      12.671   4.913  -5.198  0.50 38.91 LIG 0.16  HD
ATOM     16 O    ILE C 307      10.545   7.023  -5.710  0.50 38.79 LIG-0.27  OA
BRANCH 14 17
ATOM     17  CA  SER C 308      10.887   4.204  -5.631  0.50 39.43 LIG 0.20  C 
BRANCH 17 18
ATOM     18  C   SER C 308       9.836   4.329  -4.525  0.50 39.77 LIG 0.24  C 
ATOM     19  N   PRO C 309      10.219   4.035  -3.270  0.50 40.03 LIG-0.34  N 
ATOM     20  CD  PRO C 309      11.589   3.951  -2.738  0.50 39.83 LIG 0.13  C 
ATOM     21  CA  PRO C 309       9.213   3.798  -2.233  0.50 40.09 LIG 0.19  C 
ATOM     22  CG  PRO C 309      11.401   3.222  -1.444  0.50 40.19 LIG 0.02  C 
ATOM     23  CB  PRO C 309      10.051   3.653  -0.956  0.50 40.09 LIG 0.04  C 
ATOM     24 O    SER C 308       8.692   4.704  -4.795  0.50 39.81 LIG-0.27  OA
BRANCH 21 25
ATOM     25  C   PRO C 309       8.197   4.932  -2.103  0.50 40.04 LIG 0.20  C 
ATOM     26 OXT  PRO C 309       8.535   6.115  -2.201  0.50 40.10 LIG-0.65  OA
ATOM     27 O    PRO C 309       7.008   4.691  -1.884  0.50 40.34 LIG-0.65  OA
ENDBRANCH 21 25
ENDBRANCH 17 18
BRANCH 17 28
ATOM     28  CB  SER C 308      11.517   2.809  -5.615  0.50 39.49 LIG 0.20  C 
BRANCH 28 29
ATOM     29 OG   SER C 308      12.903   2.868  -5.309  0.50 39.70 LIG-0.40  OA
ATOM     30 HG   SER C 308      13.343   2.959  -6.018  0.50 39.70 LIG 0.21  HD
ENDBRANCH 28 29
ENDBRANCH 17 28
ENDBRANCH 14 17
ENDBRANCH 12 13
BRANCH 12 31
ATOM     31  CB  ILE C 307      13.806   7.567  -5.919  0.50 37.20 LIG 0.01  C 
ATOM     32  CG2 ILE C 307      14.574   6.253  -6.130  0.50 36.86 LIG 0.01  C 
BRANCH 31 33
ATOM     33  CG1 ILE C 307      13.123   8.077  -7.200  0.50 35.88 LIG 0.00  C 
ATOM     34  CD1 ILE C 307      12.643   9.507  -7.153  0.50 32.01 LIG 0.01  C 
ENDBRANCH 31 33
ENDBRANCH 12 31
ENDBRANCH 9 12
ENDBRANCH 4 8
BRANCH 1 35
ATOM     35  CA  PHE C 305      16.954   9.223  -0.214  0.50 34.47 LIG 0.18  C 
BRANCH 35 36
ATOM     36  CB  PHE C 305      17.913   9.543  -1.372  0.50 34.49 LIG 0.07  C 
BRANCH 36 37
ATOM     37  CG  PHE C 305      17.239   9.959  -2.669  0.50 35.55 LIG-0.06  A 
ATOM     38  CD1 PHE C 305      16.882  11.283  -2.921  0.50 36.28 LIG 0.01  A 
ATOM     39  CE1 PHE C 305      16.267  11.642  -4.124  0.50 36.66 LIG 0.00  A 
ATOM     40  CZ  PHE C 305      15.988  10.667  -5.087  0.50 36.87 LIG 0.00  A 
ATOM     41  CE2 PHE C 305      16.331   9.348  -4.849  0.50 36.76 LIG 0.00  A 
ATOM     42  CD2 PHE C 305      16.947   8.996  -3.638  0.50 36.02 LIG 0.01  A 
ENDBRANCH 36 37
ENDBRANCH 35 36
BRANCH 35 43
ATOM     43  N   PHE C 305      17.733   9.102   1.023  0.50 33.54 LIG-0.35  N 
ATOM     44 H    PHE C 305      18.440   8.617   0.958  0.50 33.54 LIG 0.16  HD
ATOM     45  C   ASN C 304      17.340   9.713   2.142  0.50 33.07 LIG 0.24  C 
ATOM     46 O    ASN C 304      16.178  10.098   2.318  0.50 33.39 LIG-0.27  OA
BRANCH 45 47
ATOM     47  CA  ASN C 304      18.416   9.931   3.214  0.50 32.40 LIG 0.18  C 
BRANCH 47 48
ATOM     48  CB  ASN C 304      17.971   9.486   4.615  0.50 32.38 LIG 0.14  C 
BRANCH 48 49
ATOM     49  CG  ASN C 304      18.892  10.017   5.742  0.50 31.77 LIG 0.22  C 
ATOM     50 OD1  ASN C 304      20.103  10.116   5.579  0.50 27.48 LIG-0.27  OA
ATOM     51  ND2 ASN C 304      18.307  10.313   6.896  0.50 32.56 LIG-0.37  N 
ATOM     52 21HD ASN C 304      18.781  10.584   7.561  0.50 32.56 LIG 0.16  HD
ATOM     53 22HD ASN C 304      17.455  10.233   6.979  0.50 32.56 LIG 0.16  HD
ENDBRANCH 48 49
ENDBRANCH 47 48
BRANCH 47 54
ATOM     54  N   ASN C 304      18.799  11.321   3.268  0.50 31.56 LIG-0.34  N 
ATOM     55  C   LEU C 303      20.048  11.687   3.024  0.50 30.83 LIG 0.26  C 
ATOM     56 O    LEU C 303      20.873  10.924   2.543  0.50 29.02 LIG-0.27  OA
ATOM     57 H    ASN C 304      18.162  11.864   3.465  0.50 31.56 LIG 0.16  HD
BRANCH 55 58
ATOM     58  CA  LEU C 303      20.401  13.138   3.377  0.50 30.56 LIG 0.40  C 
ATOM     59  N   LEU C 303      21.267  13.807   2.369  0.50 30.88 LIG 0.61  N 
BRANCH 58 60
ATOM     60  CB  LEU C 303      19.135  13.968   3.622  0.50 30.80 LIG 0.06  C 
BRANCH 60 61
ATOM     61  CG  LEU C 303      18.556  13.989   5.042  0.50 30.92 LIG-0.02  C 
ATOM     62  CD2 LEU C 303      19.588  13.474   6.062  0.50 31.43 LIG 0.01  C 
ATOM     63  CD1 LEU C 303      17.253  13.212   5.120  0.50 30.50 LIG 0.01  C 
ENDBRANCH 60 61
ENDBRANCH 58 60
ENDBRANCH 55 58
ENDBRANCH 47 54
ENDBRANCH 45 47
ENDBRANCH 35 43
ENDBRANCH 1 35
TORSDOF 21
ENDMDL
MODEL 23
USER: ADFR SOLUTION from run 33
USER: SCORE 15.334394 LL:  -5.026 LR: -13.266 RR:   0.000 FEB:  -7.002
USER: RMSD 2.039555
USER: SEED 32
USER: STATUS no improvement in best in 3 clusters for 5 generations
USER: GENES 23
USER: genes 0 Translation |==|  0.62762 0.50043 0.54457
USER: genes 1 Rotation |==|  0.50979 0.52024 0.48854 0.99936
USER: genes 2 Torsion [N]-CA--C-[N] |==|  0.41114
USER: genes 3 Torsion [C]-N--CA-[C] |==|  0.55935
USER: genes 4 Torsion [N]-CA--C-[N] |==|  0.36062
USER: genes 5 Torsion [C]-N--CA-[CB] |==|  0.38166
USER: genes 6 Torsion [N]-CA--C-[N] |==|  0.20716
USER: genes 7 Torsion [N]-CA--C-[OXT] |==|  0.76988
USER: genes 8 Torsion [N]-CA--CB-[OG] |==|  0.49125
USER: genes 9 Torsion [CA]-CB--OG-[HG] |==|  0.08228
USER: genes 10 Torsion [N]-CA--CB-[CG2] |==|  0.13632
USER: genes 11 Torsion [CA]-CB--CG1-[CD1] |==|  0.45033
USER: genes 12 Torsion [N]-C--CA-[N] |==|  0.22711
USER: genes 13 Torsion [C]-CA--CB-[CG] |==|  0.23122
USER: genes 14 Torsion [CA]-CB--CG-[CD1] |==|  0.43420
USER: genes 15 Torsion [C]-CA--N-[C] |==|  0.67163
USER: genes 16 Torsion [N]-C--CA-[N] |==|  0.26667
USER: genes 17 Torsion [C]-CA--CB-[CG] |==|  0.41714
USER: genes 18 Torsion [CA]-CB--CG-[OD1] |==|  0.85266
USER: genes 19 Torsion [C]-CA--N-[C] |==|  0.65054
USER: genes 20 Torsion [N]-C--CA-[N] |==|  0.76210
USER: genes 21 Torsion [C]-CA--CB-[CG] |==|  0.13434
USER: genes 22 Torsion [CA]-CB--CG-[CD2] |==|  0.49006
ROOT
ATOM      1  C   PHE C 305      16.646   6.841   0.629  0.50 34.66 LIG 0.24  C 
ATOM      2 O    PHE C 305      17.266   5.957   0.045  0.50 33.80 LIG-0.27  OA
ATOM      3  N   PRO C 306      15.580   6.576   1.408  0.50 35.29 LIG-0.34  N 
ATOM      4  CA  PRO C 306      14.830   5.347   1.201  0.50 35.79 LIG 0.18  C 
ATOM      5  CB  PRO C 306      14.319   5.000   2.618  0.50 35.80 LIG 0.04  C 
ATOM      6  CG  PRO C 306      14.697   6.194   3.502  0.50 35.25 LIG 0.02  C 
ATOM      7  CD  PRO C 306      15.057   7.316   2.567  0.50 35.51 LIG 0.13  C 
ENDROOT
BRANCH 4 8
ATOM      8  C   PRO C 306      13.631   5.606   0.287  0.50 36.50 LIG 0.24  C 
ATOM      9  N   ILE C 307      13.266   4.583  -0.505  0.50 37.01 LIG-0.35  N 
ATOM     10 H    ILE C 307      13.688   3.838  -0.571  0.50 37.01 LIG 0.16  HD
ATOM     11 O    PRO C 306      13.044   6.711   0.313  0.50 36.74 LIG-0.27  OA
BRANCH 9 12
ATOM     12  CA  ILE C 307      12.067   4.697  -1.337  0.50 37.44 LIG 0.18  C 
BRANCH 12 13
ATOM     13  C   ILE C 307      11.507   3.335  -1.753  0.50 38.23 LIG 0.24  C 
ATOM     14  N   SER C 308      10.206   3.174  -1.532  0.50 38.91 LIG-0.34  N 
ATOM     15 H    SER C 308       9.736   3.732  -1.076  0.50 38.91 LIG 0.16  HD
ATOM     16 O    ILE C 307      12.233   2.469  -2.264  0.50 38.79 LIG-0.27  OA
BRANCH 14 17
ATOM     17  CA  SER C 308       9.434   2.040  -2.035  0.50 39.43 LIG 0.20  C 
BRANCH 17 18
ATOM     18  C   SER C 308       8.652   2.567  -3.240  0.50 39.77 LIG 0.24  C 
ATOM     19  N   PRO C 309       9.337   2.780  -4.378  0.50 40.03 LIG-0.34  N 
ATOM     20  CD  PRO C 309      10.658   2.249  -4.752  0.50 39.83 LIG 0.13  C 
ATOM     21  CA  PRO C 309       8.750   3.591  -5.446  0.50 40.09 LIG 0.19  C 
ATOM     22  CG  PRO C 309      11.055   3.120  -5.903  0.50 40.19 LIG 0.02  C 
ATOM     23  CB  PRO C 309       9.766   3.456  -6.589  0.50 40.09 LIG 0.04  C 
ATOM     24 O    SER C 308       7.437   2.766  -3.155  0.50 39.81 LIG-0.27  OA
BRANCH 21 25
ATOM     25  C   PRO C 309       7.363   3.115  -5.878  0.50 40.04 LIG 0.20  C 
ATOM     26 OXT  PRO C 309       7.221   2.193  -6.686  0.50 40.10 LIG-0.65  OA
ATOM     27 O    PRO C 309       6.346   3.653  -5.435  0.50 40.34 LIG-0.65  OA
ENDBRANCH 21 25
ENDBRANCH 17 18
BRANCH 17 28
ATOM     28  CB  SER C 308       8.476   1.513  -0.964  0.50 39.49 LIG 0.20  C 
BRANCH 28 29
ATOM     29 OG   SER C 308       7.669   0.457  -1.465  0.50 39.70 LIG-0.40  OA
ATOM     30 HG   SER C 308       8.088   0.042  -2.063  0.50 39.70 LIG 0.21  HD
ENDBRANCH 28 29
ENDBRANCH 17 28
ENDBRANCH 14 17
ENDBRANCH 12 13
BRANCH 12 31
ATOM     31  CB  ILE C 307      12.319   5.519  -2.624  0.50 37.20 LIG 0.01  C 
ATOM     32  CG2 ILE C 307      13.581   5.028  -3.349  0.50 36.86 LIG 0.01  C 
BRANCH 31 33
ATOM     33  CG1 ILE C 307      11.062   5.478  -3.512  0.50 35.88 LIG 0.00  C 
ATOM     34  CD1 ILE C 307      10.986   6.546  -4.576  0.50 32.01 LIG 0.01  C 
ENDBRANCH 31 33
ENDBRANCH 12 31
ENDBRANCH 9 12
ENDBRANCH 4 8
BRANCH 1 35
ATOM     35  CA  PHE C 305      17.108   8.299   0.511  0.50 34.47 LIG 0.18  C 
BRANCH 35 36
ATOM     36  CB  PHE C 305      17.896   8.426  -0.802  0.50 34.49 LIG 0.07  C 
BRANCH 36 37
ATOM     37  CG  PHE C 305      17.047   8.633  -2.045  0.50 35.55 LIG-0.06  A 
ATOM     38  CD1 PHE C 305      17.561   9.234  -3.194  0.50 36.28 LIG 0.01  A 
ATOM     39  CE1 PHE C 305      16.761   9.411  -4.327  0.50 36.66 LIG 0.00  A 
ATOM     40  CZ  PHE C 305      15.426   8.997  -4.314  0.50 36.87 LIG 0.00  A 
ATOM     41  CE2 PHE C 305      14.901   8.403  -3.180  0.50 36.76 LIG 0.00  A 
ATOM     42  CD2 PHE C 305      15.710   8.232  -2.046  0.50 36.02 LIG 0.01  A 
ENDBRANCH 36 37
ENDBRANCH 35 36
BRANCH 35 43
ATOM     43  N   PHE C 305      17.952   8.771   1.615  0.50 33.54 LIG-0.35  N 
ATOM     44 H    PHE C 305      18.696   8.349   1.705  0.50 33.54 LIG 0.16  HD
ATOM     45  C   ASN C 304      17.558   9.777   2.396  0.50 33.07 LIG 0.24  C 
ATOM     46 O    ASN C 304      16.375  10.128   2.485  0.50 33.39 LIG-0.27  OA
BRANCH 45 47
ATOM     47  CA  ASN C 304      18.658  10.502   3.183  0.50 32.40 LIG 0.18  C 
BRANCH 47 48
ATOM     48  CB  ASN C 304      18.222  10.906   4.599  0.50 32.38 LIG 0.14  C 
BRANCH 48 49
ATOM     49  CG  ASN C 304      19.396  10.939   5.610  0.50 31.77 LIG 0.22  C 
ATOM     50 OD1  ASN C 304      20.137   9.973   5.755  0.50 27.48 LIG-0.27  OA
ATOM     51  ND2 ASN C 304      19.523  12.043   6.334  0.50 32.56 LIG-0.37  N 
ATOM     52 21HD ASN C 304      20.142  12.098   6.930  0.50 32.56 LIG 0.16  HD
ATOM     53 22HD ASN C 304      18.988  12.704   6.209  0.50 32.56 LIG 0.16  HD
ENDBRANCH 48 49
ENDBRANCH 47 48
BRANCH 47 54
ATOM     54  N   ASN C 304      19.089  11.683   2.474  0.50 31.56 LIG-0.34  N 
ATOM     55  C   LEU C 303      20.369  11.869   2.190  0.50 30.83 LIG 0.26  C 
ATOM     56 O    LEU C 303      21.204  10.984   2.311  0.50 29.02 LIG-0.27  OA
ATOM     57 H    ASN C 304      18.459  12.229   2.265  0.50 31.56 LIG 0.16  HD
BRANCH 55 58
ATOM     58  CA  LEU C 303      20.745  13.270   1.689  0.50 30.56 LIG 0.40  C 
ATOM     59  N   LEU C 303      20.567  13.451   0.222  0.50 30.88 LIG 0.61  N 
BRANCH 58 60
ATOM     60  CB  LEU C 303      19.975  14.353   2.453  0.50 30.80 LIG 0.06  C 
BRANCH 60 61
ATOM     61  CG  LEU C 303      19.949  14.269   3.984  0.50 30.92 LIG-0.02  C 
ATOM     62  CD2 LEU C 303      19.211  15.478   4.587  0.50 31.43 LIG 0.01  C 
ATOM     63  CD1 LEU C 303      21.349  14.123   4.555  0.50 30.50 LIG 0.01  C 
ENDBRANCH 60 61
ENDBRANCH 58 60
ENDBRANCH 55 58
ENDBRANCH 47 54
ENDBRANCH 45 47
ENDBRANCH 35 43
ENDBRANCH 1 35
TORSDOF 21
ENDMDL
