MODEL 1
USER: ADFR SOLUTION from run 133
USER: SCORE 17.019023 LL:  -2.920 LR: -14.601 RR:   0.000 FEB:  -8.933
USER: RMSD 3.225186
USER: SEED 132
USER: STATUS searching
USER: GENES 21
USER: genes 0 Translation |==|  0.51146 0.44521 0.53728
USER: genes 1 Rotation |==|  0.48835 0.53394 0.46602 0.99755
USER: genes 2 Torsion [N]-CA--C-[N] |==|  0.95721
USER: genes 3 Torsion [C]-N--CA-[C] |==|  0.61000
USER: genes 4 Torsion [N]-CA--C-[N] |==|  0.50548
USER: genes 5 Torsion [C]-N--CA-[CB] |==|  0.24215
USER: genes 6 Torsion [N]-CA--C-[O] |==|  0.18007
USER: genes 7 Torsion [N]-CA--CB-[CG] |==|  0.98286
USER: genes 8 Torsion [CA]-CB--CG-[CD] |==|  0.53913
USER: genes 9 Torsion [CB]-CG--CD-[CE] |==|  0.74490
USER: genes 10 Torsion [CG]-CD--CE-[NZ] |==|  0.92296
USER: genes 11 Torsion [CD]-CE--NZ-[HZ1] |==|  0.43854
USER: genes 12 Torsion [N]-CA--CB-[CG2] |==|  0.83115
USER: genes 13 Torsion [CA]-CB--OG1-[HG1] |==|  0.93180
USER: genes 14 Torsion [C]-CA--CB-[CG] |==|  0.16181
USER: genes 15 Torsion [CA]-CB--CG-[CD] |==|  0.48155
USER: genes 16 Torsion [CB]-CG--CD-[NE] |==|  0.73293
USER: genes 17 Torsion [CG]-CD--NE-[CZ] |==|  0.33008
USER: genes 18 Torsion [C]-CA--N-[C] |==|  0.81256
USER: genes 19 Torsion [N]-C--CA-[N] |==|  0.90327
USER: genes 20 Torsion [C]-CA--N-[C] |==|  0.87719
ROOT
ATOM      1  CA  ARG D   2       5.133   6.554  34.191  1.00  9.56 LIG 0.18  C 
ENDROOT
BRANCH 1 2
ATOM      2  C   ARG D   2       3.762   5.828  34.155  1.00 11.06 LIG 0.24  C 
ATOM      3  N   THR D   3       2.685   6.604  34.079  1.00 11.45 LIG-0.34  N 
ATOM      4 H    THR D   3       2.699   7.459  33.998  1.00 11.45 LIG 0.16  HD
ATOM      5 O    ARG D   2       3.683   4.589  34.153  1.00  9.90 LIG-0.27  OA
BRANCH 3 6
ATOM      6  CA  THR D   3       1.373   6.012  34.133  1.00 13.43 LIG 0.20  C 
BRANCH 6 7
ATOM      7  C   THR D   3       0.404   6.675  33.166  1.00 15.00 LIG 0.24  C 
ATOM      8  N   LYS D   4      -0.864   6.217  33.172  1.00 14.79 LIG-0.35  N 
ATOM      9 H    LYS D   4      -1.158   5.621  33.719  1.00 14.79 LIG 0.16  HD
ATOM     10 O    THR D   3       0.828   7.581  32.421  1.00 15.79 LIG-0.27  OA
BRANCH 8 11
ATOM     11  CA  LYS D   4      -1.884   6.722  32.203  1.00 18.13 LIG 0.16  C 
BRANCH 11 12
ATOM     12  C   LYS D   4      -3.316   6.679  32.719  1.00 20.20 LIG 0.22  C 
ATOM     13 O    LYS D   4      -3.577   7.423  33.703  1.00 21.26 LIG-0.29  OA
ENDBRANCH 11 12
BRANCH 11 14
ATOM     14  CB  LYS D   4      -1.815   5.893  30.895  1.00 18.02 LIG 0.03  C 
BRANCH 14 15
ATOM     15  CG  LYS D   4      -0.666   4.911  30.873  1.00 21.48 LIG 0.00  C 
BRANCH 15 16
ATOM     16  CD  LYS D   4      -0.407   4.366  29.489  1.00 25.56 LIG 0.03  C 
BRANCH 16 17
ATOM     17  CE  LYS D   4      -1.208   3.060  29.277  1.00 25.12 LIG 0.23  C 
BRANCH 17 18
ATOM     18  NZ  LYS D   4      -1.465   2.319  30.580  1.00 20.07 LIG-0.08  N 
ATOM     19 HZ1  LYS D   4      -2.166   1.780  30.482  1.00 20.07 LIG 0.27  HD
ATOM     20 HZ2  LYS D   4      -0.748   1.837  30.794  1.00 20.07 LIG 0.27  HD
ATOM     21 HZ3  LYS D   4      -1.632   2.907  31.227  1.00 20.07 LIG 0.27  HD
ENDBRANCH 17 18
ENDBRANCH 16 17
ENDBRANCH 15 16
ENDBRANCH 14 15
ENDBRANCH 11 14
ENDBRANCH 8 11
ENDBRANCH 6 7
BRANCH 6 22
ATOM     22  CB  THR D   3       0.770   5.995  35.585  1.00 14.57 LIG 0.15  C 
ATOM     23  CG2 THR D   3       1.667   5.162  36.548  1.00 14.25 LIG 0.04  C 
BRANCH 22 24
ATOM     24 OG1  THR D   3       0.641   7.337  36.077  1.00 15.86 LIG-0.39  OA
ATOM     25 HG1  THR D   3       1.189   7.836  35.681  1.00 15.86 LIG 0.21  HD
ENDBRANCH 22 24
ENDBRANCH 6 22
ENDBRANCH 3 6
ENDBRANCH 1 2
BRANCH 1 26
ATOM     26  CB  ARG D   2       5.819   6.467  35.567  1.00  9.49 LIG 0.04  C 
BRANCH 26 27
ATOM     27  CG  ARG D   2       6.048   4.970  36.002  1.00 10.73 LIG 0.02  C 
BRANCH 27 28
ATOM     28  CD  ARG D   2       6.881   4.972  37.294  1.00 10.86 LIG 0.14  C 
BRANCH 28 29
ATOM     29  NE  ARG D   2       8.284   4.791  37.022  1.00 10.69 LIG-0.23  N 
ATOM     30  CZ  ARG D   2       9.268   5.683  37.324  1.00  9.43 LIG 0.67  C 
ATOM     31  NH1 ARG D   2       9.006   6.876  37.882  1.00 10.34 LIG-0.23  N 
ATOM     32  NH2 ARG D   2      10.505   5.415  36.968  1.00 11.18 LIG-0.23  N 
ATOM     33 2HH1 ARG D   2       9.650   7.417  38.061  1.00 10.34 LIG 0.17  HD
ATOM     34 1HH1 ARG D   2       8.195   7.099  38.060  1.00 10.34 LIG 0.17  HD
ATOM     35 2HH2 ARG D   2      11.136   5.970  37.153  1.00 11.18 LIG 0.17  HD
ATOM     36 1HH2 ARG D   2      10.684   4.685  36.551  1.00 11.18 LIG 0.17  HD
ATOM     37 HE   ARG D   2       8.520   4.060  36.636  1.00 10.69 LIG 0.18  HD
ENDBRANCH 28 29
ENDBRANCH 27 28
ENDBRANCH 26 27
ENDBRANCH 1 26
BRANCH 1 38
ATOM     38  N   ARG D   2       4.990   7.957  33.768  1.00  9.04 LIG-0.35  N 
ATOM     39 H    ARG D   2       5.127   8.540  34.386  1.00  9.04 LIG 0.16  HD
ATOM     40  C   ALA D   1       4.667   8.252  32.497  1.00 11.17 LIG 0.24  C 
ATOM     41 O    ALA D   1       4.490   7.366  31.662  1.00 13.49 LIG-0.27  OA
BRANCH 40 42
ATOM     42  CA  ALA D   1       4.583   9.710  32.091  1.00 12.65 LIG 0.17  C 
ATOM     43  CB  ALA D   1       5.953  10.259  31.633  1.00 13.08 LIG 0.04  C 
BRANCH 42 44
ATOM     44  N   ALA D   1       4.073  10.577  33.161  1.00 12.52 LIG-0.35  N 
ATOM     45  C   ACE D   0       2.882  10.309  34.086  1.00 13.59 LIG 0.21  C 
ATOM     46 O    ACE D   0       2.297   9.202  33.855  1.00 14.78 LIG-0.27  OA
ATOM     47  CH3 ACE D   0       2.514  11.325  35.133  1.00 14.73 LIG 0.12  C 
ATOM     48 H    ALA D   1       4.534  11.301  33.231  1.00 12.52 LIG 0.16  HD
ENDBRANCH 42 44
ENDBRANCH 40 42
ENDBRANCH 1 38
TORSDOF 19
ENDMDL
MODEL 2
USER: ADFR SOLUTION from run 11
USER: SCORE 17.651238 LL:  -3.449 LR: -14.457 RR:   0.000 FEB:  -8.789
USER: RMSD 2.198137
USER: SEED 702587
USER: STATUS no improvement in best in 2 clusters for 5 generations
USER: GENES 21
USER: genes 0 Translation |==|  0.53049 0.44084 0.54434
USER: genes 1 Rotation |==|  0.49303 0.54251 0.48066 0.99776
USER: genes 2 Torsion [N]-CA--C-[N] |==|  0.90768
USER: genes 3 Torsion [C]-N--CA-[C] |==|  0.80134
USER: genes 4 Torsion [N]-CA--C-[N] |==|  0.93967
USER: genes 5 Torsion [C]-N--CA-[CB] |==|  0.22808
USER: genes 6 Torsion [N]-CA--C-[O] |==|  0.81354
USER: genes 7 Torsion [N]-CA--CB-[CG] |==|  0.74064
USER: genes 8 Torsion [CA]-CB--CG-[CD] |==|  0.74670
USER: genes 9 Torsion [CB]-CG--CD-[CE] |==|  0.22452
USER: genes 10 Torsion [CG]-CD--CE-[NZ] |==|  0.21394
USER: genes 11 Torsion [CD]-CE--NZ-[HZ1] |==|  0.22177
USER: genes 12 Torsion [N]-CA--CB-[CG2] |==|  0.29690
USER: genes 13 Torsion [CA]-CB--OG1-[HG1] |==|  0.11737
USER: genes 14 Torsion [C]-CA--CB-[CG] |==|  0.11398
USER: genes 15 Torsion [CA]-CB--CG-[CD] |==|  0.48553
USER: genes 16 Torsion [CB]-CG--CD-[NE] |==|  0.77536
USER: genes 17 Torsion [CG]-CD--NE-[CZ] |==|  0.32735
USER: genes 18 Torsion [C]-CA--N-[C] |==|  0.81313
USER: genes 19 Torsion [N]-C--CA-[N] |==|  0.87238
USER: genes 20 Torsion [C]-CA--N-[C] |==|  0.87419
ROOT
ATOM      1  CA  ARG D   2       5.505   6.485  34.313  1.00  9.56 LIG 0.18  C 
ENDROOT
BRANCH 1 2
ATOM      2  C   ARG D   2       4.175   5.684  34.304  1.00 11.06 LIG 0.24  C 
ATOM      3  N   THR D   3       3.080   6.353  34.650  1.00 11.45 LIG-0.34  N 
ATOM      4 H    THR D   3       3.051   7.194  34.824  1.00 11.45 LIG 0.16  HD
ATOM      5 O    ARG D   2       4.136   4.494  33.950  1.00  9.90 LIG-0.27  OA
BRANCH 3 6
ATOM      6  CA  THR D   3       1.822   5.659  34.755  1.00 13.43 LIG 0.20  C 
BRANCH 6 7
ATOM      7  C   THR D   3       1.273   5.259  33.393  1.00 15.00 LIG 0.24  C 
ATOM      8  N   LYS D   4       1.730   5.952  32.330  1.00 14.79 LIG-0.35  N 
ATOM      9 H    LYS D   4       2.341   6.555  32.376  1.00 14.79 LIG 0.16  HD
ATOM     10 O    THR D   3       0.434   4.339  33.334  1.00 15.79 LIG-0.27  OA
BRANCH 8 11
ATOM     11  CA  LYS D   4       1.195   5.716  30.954  1.00 18.13 LIG 0.16  C 
BRANCH 11 12
ATOM     12  C   LYS D   4       2.147   6.114  29.835  1.00 20.20 LIG 0.22  C 
ATOM     13 O    LYS D   4       2.385   7.347  29.716  1.00 21.26 LIG-0.29  OA
ENDBRANCH 11 12
BRANCH 11 14
ATOM     14  CB  LYS D   4      -0.128   6.501  30.767  1.00 18.02 LIG 0.03  C 
BRANCH 14 15
ATOM     15  CG  LYS D   4      -1.356   5.679  31.085  1.00 21.48 LIG 0.00  C 
BRANCH 15 16
ATOM     16  CD  LYS D   4      -1.900   4.970  29.868  1.00 25.56 LIG 0.03  C 
BRANCH 16 17
ATOM     17  CE  LYS D   4      -1.089   3.681  29.601  1.00 25.12 LIG 0.23  C 
BRANCH 17 18
ATOM     18  NZ  LYS D   4      -1.464   2.552  30.548  1.00 20.07 LIG-0.08  N 
ATOM     19 HZ1  LYS D   4      -2.215   2.166  30.267  1.00 20.07 LIG 0.27  HD
ATOM     20 HZ2  LYS D   4      -0.810   1.950  30.566  1.00 20.07 LIG 0.27  HD
ATOM     21 HZ3  LYS D   4      -1.588   2.880  31.366  1.00 20.07 LIG 0.27  HD
ENDBRANCH 17 18
ENDBRANCH 16 17
ENDBRANCH 15 16
ENDBRANCH 14 15
ENDBRANCH 11 14
ENDBRANCH 8 11
ENDBRANCH 6 7
BRANCH 6 22
ATOM     22  CB  THR D   3       0.744   6.470  35.562  1.00 14.57 LIG 0.15  C 
ATOM     23  CG2 THR D   3      -0.345   7.046  34.610  1.00 14.25 LIG 0.04  C 
BRANCH 22 24
ATOM     24 OG1  THR D   3       0.132   5.623  36.548  1.00 15.86 LIG-0.39  OA
ATOM     25 HG1  THR D   3       0.722   5.154  36.920  1.00 15.86 LIG 0.21  HD
ENDBRANCH 22 24
ENDBRANCH 6 22
ENDBRANCH 3 6
ENDBRANCH 1 2
BRANCH 1 26
ATOM     26  CB  ARG D   2       6.242   6.404  35.662  1.00  9.49 LIG 0.04  C 
BRANCH 26 27
ATOM     27  CG  ARG D   2       6.186   4.948  36.262  1.00 10.73 LIG 0.02  C 
BRANCH 27 28
ATOM     28  CD  ARG D   2       7.051   4.924  37.533  1.00 10.86 LIG 0.14  C 
BRANCH 28 29
ATOM     29  NE  ARG D   2       8.449   4.782  37.220  1.00 10.69 LIG-0.23  N 
ATOM     30  CZ  ARG D   2       9.420   5.692  37.512  1.00  9.43 LIG 0.67  C 
ATOM     31  NH1 ARG D   2       9.145   6.868  38.098  1.00 10.34 LIG-0.23  N 
ATOM     32  NH2 ARG D   2      10.653   5.460  37.119  1.00 11.18 LIG-0.23  N 
ATOM     33 2HH1 ARG D   2       9.780   7.421  38.270  1.00 10.34 LIG 0.17  HD
ATOM     34 1HH1 ARG D   2       8.334   7.068  38.302  1.00 10.34 LIG 0.17  HD
ATOM     35 2HH2 ARG D   2      11.276   6.027  37.297  1.00 11.18 LIG 0.17  HD
ATOM     36 1HH2 ARG D   2      10.838   4.743  36.683  1.00 11.18 LIG 0.17  HD
ATOM     37 HE   ARG D   2       8.693   4.063  36.815  1.00 10.69 LIG 0.18  HD
ENDBRANCH 28 29
ENDBRANCH 27 28
ENDBRANCH 26 27
ENDBRANCH 1 26
BRANCH 1 38
ATOM     38  N   ARG D   2       5.269   7.888  33.932  1.00  9.04 LIG-0.35  N 
ATOM     39 H    ARG D   2       5.397   8.462  34.558  1.00  9.04 LIG 0.16  HD
ATOM     40  C   ALA D   1       4.882   8.194  32.681  1.00 11.17 LIG 0.24  C 
ATOM     41 O    ALA D   1       4.721   7.319  31.831  1.00 13.49 LIG-0.27  OA
BRANCH 40 42
ATOM     42  CA  ALA D   1       4.702   9.654  32.316  1.00 12.65 LIG 0.17  C 
ATOM     43  CB  ALA D   1       6.058  10.360  32.088  1.00 13.08 LIG 0.04  C 
BRANCH 42 44
ATOM     44  N   ALA D   1       3.952  10.412  33.325  1.00 12.52 LIG-0.35  N 
ATOM     45  C   ACE D   0       2.661   9.989  34.034  1.00 13.59 LIG 0.21  C 
ATOM     46 O    ACE D   0       2.227   8.851  33.666  1.00 14.78 LIG-0.27  OA
ATOM     47  CH3 ACE D   0       2.039  10.909  35.050  1.00 14.73 LIG 0.12  C 
ATOM     48 H    ALA D   1       4.325  11.168  33.498  1.00 12.52 LIG 0.16  HD
ENDBRANCH 42 44
ENDBRANCH 40 42
ENDBRANCH 1 38
TORSDOF 19
ENDMDL
MODEL 3
USER: ADFR SOLUTION from run 34
USER: SCORE 16.472360 LL:  -2.928 LR: -13.740 RR:   0.000 FEB:  -8.073
USER: RMSD 3.529327
USER: SEED 33
USER: STATUS no improvement in best in 3 clusters for 5 generations
USER: GENES 21
USER: genes 0 Translation |==|  0.50689 0.45310 0.56627
USER: genes 1 Rotation |==|  0.35090 0.60305 0.30948 0.92527
USER: genes 2 Torsion [N]-CA--C-[N] |==|  0.92895
USER: genes 3 Torsion [C]-N--CA-[C] |==|  0.85479
USER: genes 4 Torsion [N]-CA--C-[N] |==|  0.88889
USER: genes 5 Torsion [C]-N--CA-[CB] |==|  0.38545
USER: genes 6 Torsion [N]-CA--C-[O] |==|  0.90957
USER: genes 7 Torsion [N]-CA--CB-[CG] |==|  0.42194
USER: genes 8 Torsion [CA]-CB--CG-[CD] |==|  0.71721
USER: genes 9 Torsion [CB]-CG--CD-[CE] |==|  0.50840
USER: genes 10 Torsion [CG]-CD--CE-[NZ] |==|  0.81534
USER: genes 11 Torsion [CD]-CE--NZ-[HZ1] |==|  0.40175
USER: genes 12 Torsion [N]-CA--CB-[CG2] |==|  0.86707
USER: genes 13 Torsion [CA]-CB--OG1-[HG1] |==|  0.83023
USER: genes 14 Torsion [C]-CA--CB-[CG] |==|  0.27376
USER: genes 15 Torsion [CA]-CB--CG-[CD] |==|  0.58769
USER: genes 16 Torsion [CB]-CG--CD-[NE] |==|  0.82186
USER: genes 17 Torsion [CG]-CD--NE-[CZ] |==|  0.81706
USER: genes 18 Torsion [C]-CA--N-[C] |==|  0.80523
USER: genes 19 Torsion [N]-C--CA-[N] |==|  0.96463
USER: genes 20 Torsion [C]-CA--N-[C] |==|  0.82704
ROOT
ATOM      1  CA  ARG D   2       5.044   6.678  34.691  1.00  9.56 LIG 0.18  C 
ENDROOT
BRANCH 1 2
ATOM      2  C   ARG D   2       3.652   7.070  35.255  1.00 11.06 LIG 0.24  C 
ATOM      3  N   THR D   3       3.241   8.309  35.006  1.00 11.45 LIG-0.34  N 
ATOM      4 H    THR D   3       3.663   8.880  34.520  1.00 11.45 LIG 0.16  HD
ATOM      5 O    ARG D   2       2.945   6.252  35.866  1.00  9.90 LIG-0.27  OA
BRANCH 3 6
ATOM      6  CA  THR D   3       2.002   8.778  35.571  1.00 13.43 LIG 0.20  C 
BRANCH 6 7
ATOM      7  C   THR D   3       0.844   7.837  35.274  1.00 15.00 LIG 0.24  C 
ATOM      8  N   LYS D   4       0.806   7.296  34.039  1.00 14.79 LIG-0.35  N 
ATOM      9 H    LYS D   4       1.417   7.411  33.445  1.00 14.79 LIG 0.16  HD
ATOM     10 O    THR D   3      -0.002   7.631  36.166  1.00 15.79 LIG-0.27  OA
BRANCH 8 11
ATOM     11  CA  LYS D   4      -0.332   6.433  33.598  1.00 18.13 LIG 0.16  C 
BRANCH 11 12
ATOM     12  C   LYS D   4      -0.050   4.939  33.671  1.00 20.20 LIG 0.22  C 
ATOM     13 O    LYS D   4       1.140   4.583  33.458  1.00 21.26 LIG-0.29  OA
ENDBRANCH 11 12
BRANCH 11 14
ATOM     14  CB  LYS D   4      -0.715   6.783  32.137  1.00 18.02 LIG 0.03  C 
BRANCH 14 15
ATOM     15  CG  LYS D   4      -1.320   5.618  31.386  1.00 21.48 LIG 0.00  C 
BRANCH 15 16
ATOM     16  CD  LYS D   4      -0.331   4.964  30.453  1.00 25.56 LIG 0.03  C 
BRANCH 16 17
ATOM     17  CE  LYS D   4      -1.022   3.832  29.659  1.00 25.12 LIG 0.23  C 
BRANCH 17 18
ATOM     18  NZ  LYS D   4      -1.448   2.676  30.548  1.00 20.07 LIG-0.08  N 
ATOM     19 HZ1  LYS D   4      -2.214   2.336  30.247  1.00 20.07 LIG 0.27  HD
ATOM     20 HZ2  LYS D   4      -0.820   2.046  30.538  1.00 20.07 LIG 0.27  HD
ATOM     21 HZ3  LYS D   4      -1.562   2.968  31.381  1.00 20.07 LIG 0.27  HD
ENDBRANCH 17 18
ENDBRANCH 16 17
ENDBRANCH 15 16
ENDBRANCH 14 15
ENDBRANCH 11 14
ENDBRANCH 8 11
ENDBRANCH 6 7
BRANCH 6 22
ATOM     22  CB  THR D   3       1.645  10.243  35.125  1.00 14.57 LIG 0.15  C 
ATOM     23  CG2 THR D   3       2.872  11.187  35.288  1.00 14.25 LIG 0.04  C 
BRANCH 22 24
ATOM     24 OG1  THR D   3       1.205  10.245  33.758  1.00 15.86 LIG-0.39  OA
ATOM     25 HG1  THR D   3       1.823   9.963  33.264  1.00 15.86 LIG 0.21  HD
ENDBRANCH 22 24
ENDBRANCH 6 22
ENDBRANCH 3 6
ENDBRANCH 1 2
BRANCH 1 26
ATOM     26  CB  ARG D   2       6.161   6.760  35.748  1.00  9.49 LIG 0.04  C 
BRANCH 26 27
ATOM     27  CG  ARG D   2       6.482   5.343  36.357  1.00 10.73 LIG 0.02  C 
BRANCH 27 28
ATOM     28  CD  ARG D   2       6.926   5.541  37.815  1.00 10.86 LIG 0.14  C 
BRANCH 28 29
ATOM     29  NE  ARG D   2       8.153   6.291  37.900  1.00 10.69 LIG-0.23  N 
ATOM     30  CZ  ARG D   2       9.367   5.869  37.449  1.00  9.43 LIG 0.67  C 
ATOM     31  NH1 ARG D   2       9.548   4.655  36.907  1.00 10.34 LIG-0.23  N 
ATOM     32  NH2 ARG D   2      10.420   6.634  37.641  1.00 11.18 LIG-0.23  N 
ATOM     33 2HH1 ARG D   2      10.328   4.419  36.632  1.00 10.34 LIG 0.17  HD
ATOM     34 1HH1 ARG D   2       8.884   4.113  36.835  1.00 10.34 LIG 0.17  HD
ATOM     35 2HH2 ARG D   2      11.193   6.380  37.361  1.00 11.18 LIG 0.17  HD
ATOM     36 1HH2 ARG D   2      10.337   7.387  38.046  1.00 11.18 LIG 0.17  HD
ATOM     37 HE   ARG D   2       8.116   7.068  38.266  1.00 10.69 LIG 0.18  HD
ENDBRANCH 28 29
ENDBRANCH 27 28
ENDBRANCH 26 27
ENDBRANCH 1 26
BRANCH 1 38
ATOM     38  N   ARG D   2       5.379   7.499  33.516  1.00  9.04 LIG-0.35  N 
ATOM     39 H    ARG D   2       6.009   8.071  33.638  1.00  9.04 LIG 0.16  HD
ATOM     40  C   ALA D   1       4.717   7.326  32.358  1.00 11.17 LIG 0.24  C 
ATOM     41 O    ALA D   1       3.827   6.484  32.252  1.00 13.49 LIG-0.27  OA
BRANCH 40 42
ATOM     42  CA  ALA D   1       5.129   8.155  31.157  1.00 12.65 LIG 0.17  C 
ATOM     43  CB  ALA D   1       5.820   7.294  30.075  1.00 13.08 LIG 0.04  C 
BRANCH 42 44
ATOM     44  N   ALA D   1       6.026   9.265  31.505  1.00 12.52 LIG-0.35  N 
ATOM     45  C   ACE D   0       5.719  10.455  32.420  1.00 13.59 LIG 0.21  C 
ATOM     46 O    ACE D   0       4.541  10.437  32.901  1.00 14.78 LIG-0.27  OA
ATOM     47  CH3 ACE D   0       6.778  11.497  32.658  1.00 14.73 LIG 0.12  C 
ATOM     48 H    ALA D   1       6.793   9.185  31.124  1.00 12.52 LIG 0.16  HD
ENDBRANCH 42 44
ENDBRANCH 40 42
ENDBRANCH 1 38
TORSDOF 19
ENDMDL
MODEL 4
USER: ADFR SOLUTION from run 96
USER: SCORE 16.672867 LL:  -3.882 LR: -12.963 RR:   0.000 FEB:  -7.295
USER: RMSD 2.837848
USER: SEED 95
USER: STATUS searching
USER: GENES 21
USER: genes 0 Translation |==|  0.52697 0.44353 0.54643
USER: genes 1 Rotation |==|  0.49963 0.50222 0.50187 0.99999
USER: genes 2 Torsion [N]-CA--C-[N] |==|  0.90828
USER: genes 3 Torsion [C]-N--CA-[C] |==|  0.81143
USER: genes 4 Torsion [N]-CA--C-[N] |==|  0.92843
USER: genes 5 Torsion [C]-N--CA-[CB] |==|  0.74699
USER: genes 6 Torsion [N]-CA--C-[O] |==|  0.61781
USER: genes 7 Torsion [N]-CA--CB-[CG] |==|  0.94839
USER: genes 8 Torsion [CA]-CB--CG-[CD] |==|  0.68106
USER: genes 9 Torsion [CB]-CG--CD-[CE] |==|  0.61439
USER: genes 10 Torsion [CG]-CD--CE-[NZ] |==|  0.28851
USER: genes 11 Torsion [CD]-CE--NZ-[HZ1] |==|  0.23262
USER: genes 12 Torsion [N]-CA--CB-[CG2] |==|  0.85320
USER: genes 13 Torsion [CA]-CB--OG1-[HG1] |==|  0.86691
USER: genes 14 Torsion [C]-CA--CB-[CG] |==|  0.13485
USER: genes 15 Torsion [CA]-CB--CG-[CD] |==|  0.45689
USER: genes 16 Torsion [CB]-CG--CD-[NE] |==|  0.74416
USER: genes 17 Torsion [CG]-CD--NE-[CZ] |==|  0.33065
USER: genes 18 Torsion [C]-CA--N-[C] |==|  0.81203
USER: genes 19 Torsion [N]-C--CA-[N] |==|  0.90274
USER: genes 20 Torsion [C]-CA--N-[C] |==|  0.86667
ROOT
ATOM      1  CA  ARG D   2       5.436   6.528  34.349  1.00  9.56 LIG 0.18  C 
ENDROOT
BRANCH 1 2
ATOM      2  C   ARG D   2       4.199   5.620  34.109  1.00 11.06 LIG 0.24  C 
ATOM      3  N   THR D   3       3.009   6.186  34.283  1.00 11.45 LIG-0.34  N 
ATOM      4 H    THR D   3       2.880   7.017  34.465  1.00 11.45 LIG 0.16  HD
ATOM      5 O    ARG D   2       4.320   4.443  33.733  1.00  9.90 LIG-0.27  OA
BRANCH 3 6
ATOM      6  CA  THR D   3       1.816   5.389  34.168  1.00 13.43 LIG 0.20  C 
BRANCH 6 7
ATOM      7  C   THR D   3       1.578   4.913  32.743  1.00 15.00 LIG 0.24  C 
ATOM      8  N   LYS D   4       2.107   5.668  31.758  1.00 14.79 LIG-0.35  N 
ATOM      9 H    LYS D   4       2.605   6.356  31.894  1.00 14.79 LIG 0.16  HD
ATOM     10 O    THR D   3       0.906   3.878  32.562  1.00 15.79 LIG-0.27  OA
BRANCH 8 11
ATOM     11  CA  LYS D   4       1.862   5.357  30.317  1.00 18.13 LIG 0.16  C 
BRANCH 11 12
ATOM     12  C   LYS D   4       0.515   4.703  30.037  1.00 20.20 LIG 0.22  C 
ATOM     13 O    LYS D   4       0.519   3.746  29.215  1.00 21.26 LIG-0.29  OA
ENDBRANCH 11 12
BRANCH 11 14
ATOM     14  CB  LYS D   4       2.976   4.417  29.789  1.00 18.02 LIG 0.03  C 
BRANCH 14 15
ATOM     15  CG  LYS D   4       4.212   4.415  30.659  1.00 21.48 LIG 0.00  C 
BRANCH 15 16
ATOM     16  CD  LYS D   4       5.415   4.982  29.944  1.00 25.56 LIG 0.03  C 
BRANCH 16 17
ATOM     17  CE  LYS D   4       6.669   4.137  30.266  1.00 25.12 LIG 0.23  C 
BRANCH 17 18
ATOM     18  NZ  LYS D   4       7.063   3.223  29.117  1.00 20.07 LIG-0.08  N 
ATOM     19 HZ1  LYS D   4       7.555   3.677  28.531  1.00 20.07 LIG 0.27  HD
ATOM     20 HZ2  LYS D   4       7.535   2.537  29.432  1.00 20.07 LIG 0.27  HD
ATOM     21 HZ3  LYS D   4       6.330   2.918  28.715  1.00 20.07 LIG 0.27  HD
ENDBRANCH 17 18
ENDBRANCH 16 17
ENDBRANCH 15 16
ENDBRANCH 14 15
ENDBRANCH 11 14
ENDBRANCH 8 11
ENDBRANCH 6 7
BRANCH 6 22
ATOM     22  CB  THR D   3       0.538   6.120  34.721  1.00 14.57 LIG 0.15  C 
ATOM     23  CG2 THR D   3       0.775   6.630  36.173  1.00 14.25 LIG 0.04  C 
BRANCH 22 24
ATOM     24 OG1  THR D   3       0.196   7.222  33.866  1.00 15.86 LIG-0.39  OA
ATOM     25 HG1  THR D   3       0.885   7.677  33.707  1.00 15.86 LIG 0.21  HD
ENDBRANCH 22 24
ENDBRANCH 6 22
ENDBRANCH 3 6
ENDBRANCH 1 2
BRANCH 1 26
ATOM     26  CB  ARG D   2       5.953   6.462  35.797  1.00  9.49 LIG 0.04  C 
BRANCH 26 27
ATOM     27  CG  ARG D   2       6.109   4.972  36.286  1.00 10.73 LIG 0.02  C 
BRANCH 27 28
ATOM     28  CD  ARG D   2       6.978   4.975  37.554  1.00 10.86 LIG 0.14  C 
BRANCH 28 29
ATOM     29  NE  ARG D   2       8.373   4.795  37.242  1.00 10.69 LIG-0.23  N 
ATOM     30  CZ  ARG D   2       9.364   5.686  37.520  1.00  9.43 LIG 0.67  C 
ATOM     31  NH1 ARG D   2       9.118   6.877  38.088  1.00 10.34 LIG-0.23  N 
ATOM     32  NH2 ARG D   2      10.592   5.420  37.128  1.00 11.18 LIG-0.23  N 
ATOM     33 2HH1 ARG D   2       9.767   7.417  38.252  1.00 10.34 LIG 0.17  HD
ATOM     34 1HH1 ARG D   2       8.312   7.099  38.290  1.00 10.34 LIG 0.17  HD
ATOM     35 2HH2 ARG D   2      11.227   5.974  37.298  1.00 11.18 LIG 0.17  HD
ATOM     36 1HH2 ARG D   2      10.759   4.691  36.703  1.00 11.18 LIG 0.17  HD
ATOM     37 HE   ARG D   2       8.598   4.065  36.847  1.00 10.69 LIG 0.18  HD
ENDBRANCH 28 29
ENDBRANCH 27 28
ENDBRANCH 26 27
ENDBRANCH 1 26
BRANCH 1 38
ATOM     38  N   ARG D   2       5.143   7.918  33.963  1.00  9.04 LIG-0.35  N 
ATOM     39 H    ARG D   2       5.115   8.479  34.615  1.00  9.04 LIG 0.16  HD
ATOM     40  C   ALA D   1       4.943   8.235  32.672  1.00 11.17 LIG 0.24  C 
ATOM     41 O    ALA D   1       5.003   7.381  31.789  1.00 13.49 LIG-0.27  OA
BRANCH 40 42
ATOM     42  CA  ALA D   1       4.698   9.688  32.313  1.00 12.65 LIG 0.17  C 
ATOM     43  CB  ALA D   1       6.020  10.449  32.066  1.00 13.08 LIG 0.04  C 
BRANCH 42 44
ATOM     44  N   ALA D   1       3.932  10.412  33.336  1.00 12.52 LIG-0.35  N 
ATOM     45  C   ACE D   0       2.639   9.960  34.022  1.00 13.59 LIG 0.21  C 
ATOM     46 O    ACE D   0       2.218   8.828  33.620  1.00 14.78 LIG-0.27  OA
ATOM     47  CH3 ACE D   0       2.001  10.848  35.057  1.00 14.73 LIG 0.12  C 
ATOM     48 H    ALA D   1       4.298  11.166  33.532  1.00 12.52 LIG 0.16  HD
ENDBRANCH 42 44
ENDBRANCH 40 42
ENDBRANCH 1 38
TORSDOF 19
ENDMDL
MODEL 5
USER: ADFR SOLUTION from run 28
USER: SCORE 16.736484 LL:  -4.297 LR: -12.619 RR:   0.000 FEB:  -6.951
USER: RMSD 1.117137
USER: SEED 27
USER: STATUS no improvement in best in 2 clusters for 5 generations
USER: GENES 21
USER: genes 0 Translation |==|  0.52011 0.44137 0.54457
USER: genes 1 Rotation |==|  0.49938 0.51426 0.48965 0.99969
USER: genes 2 Torsion [N]-CA--C-[N] |==|  0.90399
USER: genes 3 Torsion [C]-N--CA-[C] |==|  0.81481
USER: genes 4 Torsion [N]-CA--C-[N] |==|  0.92281
USER: genes 5 Torsion [C]-N--CA-[CB] |==|  0.42961
USER: genes 6 Torsion [N]-CA--C-[O] |==|  0.89514
USER: genes 7 Torsion [N]-CA--CB-[CG] |==|  0.93095
USER: genes 8 Torsion [CA]-CB--CG-[CD] |==|  0.36367
USER: genes 9 Torsion [CB]-CG--CD-[CE] |==|  0.36759
USER: genes 10 Torsion [CG]-CD--CE-[NZ] |==|  0.34660
USER: genes 11 Torsion [CD]-CE--NZ-[HZ1] |==|  0.43654
USER: genes 12 Torsion [N]-CA--CB-[CG2] |==|  0.84483
USER: genes 13 Torsion [CA]-CB--OG1-[HG1] |==|  0.85871
USER: genes 14 Torsion [C]-CA--CB-[CG] |==|  0.14595
USER: genes 15 Torsion [CA]-CB--CG-[CD] |==|  0.46466
USER: genes 16 Torsion [CB]-CG--CD-[NE] |==|  0.74643
USER: genes 17 Torsion [CG]-CD--NE-[CZ] |==|  0.33213
USER: genes 18 Torsion [C]-CA--N-[C] |==|  0.80334
USER: genes 19 Torsion [N]-C--CA-[N] |==|  0.90556
USER: genes 20 Torsion [C]-CA--N-[C] |==|  0.86109
ROOT
ATOM      1  CA  ARG D   2       5.302   6.494  34.317  1.00  9.56 LIG 0.18  C 
ENDROOT
BRANCH 1 2
ATOM      2  C   ARG D   2       4.013   5.648  34.139  1.00 11.06 LIG 0.24  C 
ATOM      3  N   THR D   3       2.863   6.262  34.399  1.00 11.45 LIG-0.34  N 
ATOM      4 H    THR D   3       2.784   7.093  34.604  1.00 11.45 LIG 0.16  HD
ATOM      5 O    ARG D   2       4.056   4.475  33.734  1.00  9.90 LIG-0.27  OA
BRANCH 3 6
ATOM      6  CA  THR D   3       1.629   5.521  34.346  1.00 13.43 LIG 0.20  C 
BRANCH 6 7
ATOM      7  C   THR D   3       1.296   5.062  32.934  1.00 15.00 LIG 0.24  C 
ATOM      8  N   LYS D   4       1.773   5.820  31.924  1.00 14.79 LIG-0.35  N 
ATOM      9 H    LYS D   4       2.287   6.500  32.035  1.00 14.79 LIG 0.16  HD
ATOM     10 O    THR D   3       0.600   4.039  32.786  1.00 15.79 LIG-0.27  OA
BRANCH 8 11
ATOM     11  CA  LYS D   4       1.433   5.526  30.499  1.00 18.13 LIG 0.16  C 
BRANCH 11 12
ATOM     12  C   LYS D   4       2.310   4.462  29.852  1.00 20.20 LIG 0.22  C 
ATOM     13 O    LYS D   4       3.529   4.473  30.172  1.00 21.26 LIG-0.29  OA
ENDBRANCH 11 12
BRANCH 11 14
ATOM     14  CB  LYS D   4       1.545   6.823  29.658  1.00 18.02 LIG 0.03  C 
BRANCH 14 15
ATOM     15  CG  LYS D   4       1.364   8.080  30.478  1.00 21.48 LIG 0.00  C 
BRANCH 15 16
ATOM     16  CD  LYS D   4       2.453   9.093  30.221  1.00 25.56 LIG 0.03  C 
BRANCH 16 17
ATOM     17  CE  LYS D   4       1.833  10.489  29.982  1.00 25.12 LIG 0.23  C 
BRANCH 17 18
ATOM     18  NZ  LYS D   4       2.394  11.542  30.923  1.00 20.07 LIG-0.08  N 
ATOM     19 HZ1  LYS D   4       2.285  12.349  30.565  1.00 20.07 LIG 0.27  HD
ATOM     20 HZ2  LYS D   4       1.966  11.503  31.702  1.00 20.07 LIG 0.27  HD
ATOM     21 HZ3  LYS D   4       3.262  11.391  31.054  1.00 20.07 LIG 0.27  HD
ENDBRANCH 17 18
ENDBRANCH 16 17
ENDBRANCH 15 16
ENDBRANCH 14 15
ENDBRANCH 11 14
ENDBRANCH 8 11
ENDBRANCH 6 7
BRANCH 6 22
ATOM     22  CB  THR D   3       0.418   6.309  34.965  1.00 14.57 LIG 0.15  C 
ATOM     23  CG2 THR D   3       0.725   6.737  36.430  1.00 14.25 LIG 0.04  C 
BRANCH 22 24
ATOM     24 OG1  THR D   3       0.129   7.469  34.169  1.00 15.86 LIG-0.39  OA
ATOM     25 HG1  THR D   3       0.835   7.906  34.044  1.00 15.86 LIG 0.21  HD
ENDBRANCH 22 24
ENDBRANCH 6 22
ENDBRANCH 3 6
ENDBRANCH 1 2
BRANCH 1 26
ATOM     26  CB  ARG D   2       5.885   6.403  35.739  1.00  9.49 LIG 0.04  C 
BRANCH 26 27
ATOM     27  CG  ARG D   2       6.085   4.905  36.184  1.00 10.73 LIG 0.02  C 
BRANCH 27 28
ATOM     28  CD  ARG D   2       6.952   4.897  37.454  1.00 10.86 LIG 0.14  C 
BRANCH 28 29
ATOM     29  NE  ARG D   2       8.354   4.788  37.139  1.00 10.69 LIG-0.23  N 
ATOM     30  CZ  ARG D   2       9.308   5.705  37.461  1.00  9.43 LIG 0.67  C 
ATOM     31  NH1 ARG D   2       9.013   6.857  38.083  1.00 10.34 LIG-0.23  N 
ATOM     32  NH2 ARG D   2      10.546   5.507  37.062  1.00 11.18 LIG-0.23  N 
ATOM     33 2HH1 ARG D   2       9.639   7.415  38.273  1.00 10.34 LIG 0.17  HD
ATOM     34 1HH1 ARG D   2       8.199   7.037  38.292  1.00 10.34 LIG 0.17  HD
ATOM     35 2HH2 ARG D   2      11.158   6.078  37.259  1.00 11.18 LIG 0.17  HD
ATOM     36 1HH2 ARG D   2      10.743   4.806  36.605  1.00 11.18 LIG 0.17  HD
ATOM     37 HE   ARG D   2       8.609   4.087  36.712  1.00 10.69 LIG 0.18  HD
ENDBRANCH 28 29
ENDBRANCH 27 28
ENDBRANCH 26 27
ENDBRANCH 1 26
BRANCH 1 38
ATOM     38  N   ARG D   2       5.059   7.896  33.942  1.00  9.04 LIG-0.35  N 
ATOM     39 H    ARG D   2       5.048   8.452  34.598  1.00  9.04 LIG 0.16  HD
ATOM     40  C   ALA D   1       4.875   8.231  32.653  1.00 11.17 LIG 0.24  C 
ATOM     41 O    ALA D   1       4.909   7.384  31.763  1.00 13.49 LIG-0.27  OA
BRANCH 40 42
ATOM     42  CA  ALA D   1       4.682   9.695  32.305  1.00 12.65 LIG 0.17  C 
ATOM     43  CB  ALA D   1       6.029  10.406  32.045  1.00 13.08 LIG 0.04  C 
BRANCH 42 44
ATOM     44  N   ALA D   1       3.959  10.442  33.343  1.00 12.52 LIG-0.35  N 
ATOM     45  C   ACE D   0       2.637  10.057  34.014  1.00 13.59 LIG 0.21  C 
ATOM     46 O    ACE D   0       2.147   8.964  33.584  1.00 14.78 LIG-0.27  OA
ATOM     47  CH3 ACE D   0       2.052  10.958  35.067  1.00 14.73 LIG 0.12  C 
ATOM     48 H    ALA D   1       4.371  11.166  33.558  1.00 12.52 LIG 0.16  HD
ENDBRANCH 42 44
ENDBRANCH 40 42
ENDBRANCH 1 38
TORSDOF 19
ENDMDL
