MODEL 1
USER: ADFR SOLUTION from run 50
USER: SCORE 22.349803 LL:  -3.448 LR: -20.303 RR:   0.000 FEB: -13.442
USER: RMSD 1.268070
USER: SEED 49
USER: STATUS no improvement in best in 2 clusters for 5 generations
USER: GENES 25
USER: genes 0 Translation |==|  0.51831 0.33877 0.70257
USER: genes 1 Rotation |==|  0.42821 0.48110 0.52494 0.99383
USER: genes 2 Torsion [C]-CA--N-[C] |==|  0.64319
USER: genes 3 Torsion [N]-C--CA-[N] |==|  0.95112
USER: genes 4 Torsion [C]-CA--N-[C] |==|  0.80349
USER: genes 5 Torsion [N]-C--CA-[CB] |==|  0.67476
USER: genes 6 Torsion [N]-C--CA-[N] |==|  0.36210
USER: genes 7 Torsion [C]-CA--CB-[CG] |==|  0.47443
USER: genes 8 Torsion [CA]-CB--CG-[OD1] |==|  0.76313
USER: genes 9 Torsion [C]-CA--CB-[CG2] |==|  0.80819
USER: genes 10 Torsion [CA]-CB--CG1-[CD1] |==|  0.24395
USER: genes 11 Torsion [N]-CA--C-[N] |==|  0.30967
USER: genes 12 Torsion [C]-N--CA-[CB] |==|  0.16878
USER: genes 13 Torsion [N]-CA--CB-[CG] |==|  0.20101
USER: genes 14 Torsion [CA]-CB--CG-[OD1] |==|  0.25769
USER: genes 15 Torsion [N]-CA--C-[N] |==|  0.45614
USER: genes 16 Torsion [C]-N--CA-[C] |==|  0.74774
USER: genes 17 Torsion [N]-CA--C-[N] |==|  0.36150
USER: genes 18 Torsion [C]-N--CA-[CB] |==|  0.37822
USER: genes 19 Torsion [N]-CA--CB-[CG] |==|  0.87324
USER: genes 20 Torsion [CA]-CB--CG-[OD2] |==|  0.28361
USER: genes 21 Torsion [N]-CA--C-[O] |==|  0.56394
USER: genes 22 Torsion [N]-CA--CB-[CG1] |==|  0.76991
USER: genes 23 Torsion [N]-CA--CB-[OG] |==|  0.99133
USER: genes 24 Torsion [CA]-CB--OG-[HG] |==|  0.14508
ROOT
ATOM      1  CA  SER C 462      16.423   6.331   9.715  1.00 28.28 LIG 0.20  C 
ENDROOT
BRANCH 1 2
ATOM      2  N   SER C 462      15.213   5.776   9.111  1.00 22.18 LIG-0.34  N 
ATOM      3 H    SER C 462      15.330   5.067   8.638  1.00 22.18 LIG 0.16  HD
ATOM      4  C   ILE C 461      14.065   6.354   9.308  0.90 26.05 LIG 0.24  C 
ATOM      5 O    ILE C 461      13.963   7.350   9.945  1.00 25.33 LIG-0.27  OA
BRANCH 4 6
ATOM      6  CA  ILE C 461      12.848   5.720   8.659  1.00 25.76 LIG 0.18  C 
BRANCH 6 7
ATOM      7  N   ILE C 461      13.172   4.804   7.596  1.00 27.84 LIG-0.35  N 
ATOM      8 H    ILE C 461      13.038   3.971   7.763  1.00 27.84 LIG 0.16  HD
ATOM      9  C   PRO C 460      13.641   5.293   6.471  0.79 31.68 LIG 0.24  C 
ATOM     10 O    PRO C 460      13.909   6.479   6.344  0.87 32.12 LIG-0.27  OA
BRANCH 9 11
ATOM     11  CA  PRO C 460      13.861   4.338   5.278  1.00 30.82 LIG 0.18  C 
ATOM     12  N   PRO C 460      13.240   4.855   4.046  0.83 28.79 LIG-0.34  N 
ATOM     13  C   ASN C 459      11.922   4.816   3.848  1.00 34.90 LIG 0.26  C 
ATOM     14  CD  PRO C 460      14.251   5.455   3.158  0.88 33.76 LIG 0.13  C 
ATOM     15 O    ASN C 459      11.177   4.284   4.599  1.00 32.66 LIG-0.27  OA
ATOM     16  CG  PRO C 460      15.532   5.352   3.958  0.52 26.84 LIG 0.02  C 
ATOM     17  CB  PRO C 460      15.348   4.319   4.945  0.87 26.32 LIG 0.04  C 
BRANCH 13 18
ATOM     18  CA  ASN C 459      11.327   5.487   2.595  1.00 33.71 LIG 0.41  C 
ATOM     19  N   ASN C 459      10.427   4.603   1.891  1.00 33.83 LIG 0.61  N 
BRANCH 18 20
ATOM     20  CB  ASN C 459      10.557   6.709   3.024  1.00 30.86 LIG 0.15  C 
BRANCH 20 21
ATOM     21  CG  ASN C 459      10.119   7.562   1.862  1.00 37.39 LIG 0.22  C 
ATOM     22 OD1  ASN C 459      10.865   8.408   1.378  1.00 38.33 LIG-0.27  OA
ATOM     23  ND2 ASN C 459       8.905   7.358   1.423  1.00 33.08 LIG-0.37  N 
ATOM     24 21HD ASN C 459       8.600   7.825   0.768  1.00 33.08 LIG 0.16  HD
ATOM     25 22HD ASN C 459       8.411   6.756   1.787  1.00 33.08 LIG 0.16  HD
ENDBRANCH 20 21
ENDBRANCH 18 20
ENDBRANCH 13 18
ENDBRANCH 9 11
ENDBRANCH 6 7
BRANCH 6 26
ATOM     26  CB  ILE C 461      11.919   5.122   9.683  1.00 26.47 LIG 0.01  C 
ATOM     27  CG2 ILE C 461      12.533   3.908  10.336  1.00 25.39 LIG 0.01  C 
BRANCH 26 28
ATOM     28  CG1 ILE C 461      11.537   6.208  10.701  1.00 25.72 LIG 0.00  C 
ATOM     29  CD1 ILE C 461      10.446   6.934  10.324  1.00 23.87 LIG 0.01  C 
ENDBRANCH 26 28
ENDBRANCH 6 26
ENDBRANCH 4 6
ENDBRANCH 1 2
BRANCH 1 30
ATOM     30  C   SER C 462      17.500   6.513   8.666  1.00 25.50 LIG 0.24  C 
ATOM     31 O    SER C 462      18.025   5.549   8.101  0.83 24.32 LIG-0.27  OA
ATOM     32  N   ASP C 463      17.769   7.764   8.409  1.00 22.92 LIG-0.34  N 
ATOM     33 H    ASP C 463      17.388   8.413   8.825  1.00 22.92 LIG 0.16  HD
BRANCH 32 34
ATOM     34  CA  ASP C 463      18.698   8.197   7.437  1.00 22.73 LIG 0.19  C 
BRANCH 34 35
ATOM     35  CB  ASP C 463      18.301   7.726   6.044  1.00 28.12 LIG 0.15  C 
BRANCH 35 36
ATOM     36  CG  ASP C 463      17.093   8.470   5.483  1.00 33.32 LIG 0.17  C 
ATOM     37 OD1  ASP C 463      17.318   9.455   4.793  1.00 34.35 LIG-0.65  OA
ATOM     38 OD2  ASP C 463      15.971   8.096   5.768  1.00 29.24 LIG-0.65  OA
ENDBRANCH 35 36
ENDBRANCH 34 35
BRANCH 34 39
ATOM     39  C   ASP C 463      18.746   9.712   7.507  0.93 22.51 LIG 0.24  C 
ATOM     40 O    ASP C 463      17.927  10.366   8.062  0.95 19.76 LIG-0.27  OA
ATOM     41  N   VAL C 464      19.785  10.215   6.903  1.00 24.79 LIG-0.35  N 
ATOM     42 H    VAL C 464      20.365   9.735   6.487  1.00 24.79 LIG 0.16  HD
BRANCH 41 43
ATOM     43  CA  VAL C 464      20.071  11.613   6.868  1.00 23.67 LIG 0.18  C 
BRANCH 43 44
ATOM     44  C   VAL C 464      19.433  12.278   5.628  0.83 28.47 LIG 0.24  C 
ATOM     45  N   ASP C 465      18.725  13.365   5.836  1.00 23.35 LIG-0.34  N 
ATOM     46 H    ASP C 465      18.606  13.698   6.620  1.00 23.35 LIG 0.16  HD
ATOM     47 O    VAL C 464      19.518  11.770   4.549  0.85 31.06 LIG-0.27  OA
BRANCH 45 48
ATOM     48  CA  ASP C 465      18.077  14.116   4.797  0.96 24.34 LIG 0.20  C 
BRANCH 48 49
ATOM     49  CB  ASP C 465      16.668  14.522   5.195  1.00 26.52 LIG 0.15  C 
BRANCH 49 50
ATOM     50  CG  ASP C 465      15.863  13.389   5.825  1.00 29.54 LIG 0.17  C 
ATOM     51 OD2  ASP C 465      15.702  13.333   7.036  1.00 27.46 LIG-0.65  OA
ATOM     52 OD1  ASP C 465      15.360  12.599   5.086  1.00 31.86 LIG-0.65  OA
ENDBRANCH 49 50
ENDBRANCH 48 49
BRANCH 48 53
ATOM     53  C   ASP C 465      18.860  15.393   4.476  0.80 27.02 LIG 0.20  C 
ATOM     54 O    ASP C 465      18.245  16.303   3.961  0.89 29.01 LIG-0.65  OA
ATOM     55 OXT  ASP C 465      19.956  15.603   4.976  1.00 25.29 LIG-0.65  OA
ENDBRANCH 48 53
ENDBRANCH 45 48
ENDBRANCH 43 44
BRANCH 43 56
ATOM     56  CB  VAL C 464      21.589  11.584   6.950  1.00 20.27 LIG 0.01  C 
ATOM     57  CG1 VAL C 464      22.188  11.454   8.287  1.00 23.93 LIG 0.01  C 
ATOM     58  CG2 VAL C 464      22.244  11.151   5.754  0.99 20.75 LIG 0.01  C 
ENDBRANCH 43 56
ENDBRANCH 41 43
ENDBRANCH 34 39
ENDBRANCH 32 34
ENDBRANCH 1 30
BRANCH 1 59
ATOM     59  CB  SER C 462      16.933   5.463  10.858  1.00 26.51 LIG 0.20  C 
BRANCH 59 60
ATOM     60 OG   SER C 462      16.049   4.384  11.072  0.75 30.44 LIG-0.40  OA
ATOM     61 HG   SER C 462      15.915   3.982  10.346  0.75 30.44 LIG 0.21  HD
ENDBRANCH 59 60
ENDBRANCH 1 59
TORSDOF 23
ENDMDL
MODEL 2
USER: ADFR SOLUTION from run 36
USER: SCORE 22.900501 LL:  -4.553 LR: -19.876 RR:   0.000 FEB: -13.015
USER: RMSD 3.558866
USER: SEED 35
USER: STATUS no improvement in best in 2 clusters for 5 generations
USER: GENES 25
USER: genes 0 Translation |==|  0.51906 0.33883 0.70940
USER: genes 1 Rotation |==|  0.45672 0.46539 0.49648 0.99691
USER: genes 2 Torsion [C]-CA--N-[C] |==|  0.60213
USER: genes 3 Torsion [N]-C--CA-[N] |==|  0.96571
USER: genes 4 Torsion [C]-CA--N-[C] |==|  0.77306
USER: genes 5 Torsion [N]-C--CA-[CB] |==|  0.26166
USER: genes 6 Torsion [N]-C--CA-[N] |==|  0.23496
USER: genes 7 Torsion [C]-CA--CB-[CG] |==|  0.18975
USER: genes 8 Torsion [CA]-CB--CG-[OD1] |==|  0.50021
USER: genes 9 Torsion [C]-CA--CB-[CG2] |==|  0.85924
USER: genes 10 Torsion [CA]-CB--CG1-[CD1] |==|  0.09558
USER: genes 11 Torsion [N]-CA--C-[N] |==|  0.24748
USER: genes 12 Torsion [C]-N--CA-[CB] |==|  0.20671
USER: genes 13 Torsion [N]-CA--CB-[CG] |==|  0.19822
USER: genes 14 Torsion [CA]-CB--CG-[OD1] |==|  0.27370
USER: genes 15 Torsion [N]-CA--C-[N] |==|  0.46186
USER: genes 16 Torsion [C]-N--CA-[C] |==|  0.74263
USER: genes 17 Torsion [N]-CA--C-[N] |==|  0.35689
USER: genes 18 Torsion [C]-N--CA-[CB] |==|  0.37666
USER: genes 19 Torsion [N]-CA--CB-[CG] |==|  0.90680
USER: genes 20 Torsion [CA]-CB--CG-[OD2] |==|  0.20534
USER: genes 21 Torsion [N]-CA--C-[O] |==|  0.56312
USER: genes 22 Torsion [N]-CA--CB-[CG1] |==|  0.80071
USER: genes 23 Torsion [N]-CA--CB-[OG] |==|  0.00848
USER: genes 24 Torsion [CA]-CB--OG-[HG] |==|  0.25219
ROOT
ATOM      1  CA  SER C 462      16.438   6.332   9.858  1.00 28.28 LIG 0.20  C 
ENDROOT
BRANCH 1 2
ATOM      2  N   SER C 462      15.231   5.980   9.111  1.00 22.18 LIG-0.34  N 
ATOM      3 H    SER C 462      15.357   5.469   8.431  1.00 22.18 LIG 0.16  HD
ATOM      4  C   ILE C 461      14.076   6.437   9.494  0.90 26.05 LIG 0.24  C 
ATOM      5 O    ILE C 461      13.963   7.165  10.423  1.00 25.33 LIG-0.27  OA
BRANCH 4 6
ATOM      6  CA  ILE C 461      12.863   6.026   8.678  1.00 25.76 LIG 0.18  C 
BRANCH 6 7
ATOM      7  N   ILE C 461      13.196   5.407   7.420  1.00 27.84 LIG-0.35  N 
ATOM      8 H    ILE C 461      13.180   4.547   7.407  1.00 27.84 LIG 0.16  HD
ATOM      9  C   PRO C 460      13.495   6.182   6.403  0.79 31.68 LIG 0.24  C 
ATOM     10 O    PRO C 460      13.605   7.394   6.524  0.87 32.12 LIG-0.27  OA
BRANCH 9 11
ATOM     11  CA  PRO C 460      13.718   5.540   5.018  1.00 30.82 LIG 0.18  C 
ATOM     12  N   PRO C 460      14.000   4.097   5.125  0.83 28.79 LIG-0.34  N 
ATOM     13  C   ASN C 459      15.181   3.636   5.541  1.00 34.90 LIG 0.26  C 
ATOM     14  CD  PRO C 460      12.807   3.301   4.790  0.88 33.76 LIG 0.13  C 
ATOM     15 O    ASN C 459      16.104   4.345   5.760  1.00 32.66 LIG-0.27  OA
ATOM     16  CG  PRO C 460      11.739   4.346   4.548  0.52 26.84 LIG 0.02  C 
ATOM     17  CB  PRO C 460      12.405   5.588   4.247  0.87 26.32 LIG 0.04  C 
BRANCH 13 18
ATOM     18  CA  ASN C 459      15.367   2.121   5.751  1.00 33.71 LIG 0.41  C 
ATOM     19  N   ASN C 459      15.709   1.448   4.519  1.00 33.83 LIG 0.61  N 
BRANCH 18 20
ATOM     20  CB  ASN C 459      16.484   1.906   6.739  1.00 30.86 LIG 0.15  C 
BRANCH 20 21
ATOM     21  CG  ASN C 459      16.130   2.360   8.131  1.00 37.39 LIG 0.22  C 
ATOM     22 OD1  ASN C 459      16.931   2.257   9.056  1.00 38.33 LIG-0.27  OA
ATOM     23  ND2 ASN C 459      14.927   2.847   8.290  1.00 33.08 LIG-0.37  N 
ATOM     24 21HD ASN C 459      14.669   3.111   9.067  1.00 33.08 LIG 0.16  HD
ATOM     25 22HD ASN C 459      14.394   2.904   7.618  1.00 33.08 LIG 0.16  HD
ENDBRANCH 20 21
ENDBRANCH 18 20
ENDBRANCH 13 18
ENDBRANCH 9 11
ENDBRANCH 6 7
BRANCH 6 26
ATOM     26  CB  ILE C 461      11.895   5.208   9.493  1.00 26.47 LIG 0.01  C 
ATOM     27  CG2 ILE C 461      12.594   4.068  10.192  1.00 25.39 LIG 0.01  C 
BRANCH 26 28
ATOM     28  CG1 ILE C 461      11.162   6.138  10.472  1.00 25.72 LIG 0.00  C 
ATOM     29  CD1 ILE C 461      10.936   7.381   9.962  1.00 23.87 LIG 0.01  C 
ENDBRANCH 26 28
ENDBRANCH 6 26
ENDBRANCH 4 6
ENDBRANCH 1 2
BRANCH 1 30
ATOM     30  C   SER C 462      17.606   6.524   8.913  1.00 25.50 LIG 0.24  C 
ATOM     31 O    SER C 462      18.336   5.584   8.586  0.83 24.32 LIG-0.27  OA
ATOM     32  N   ASP C 463      17.721   7.746   8.471  1.00 22.92 LIG-0.34  N 
ATOM     33 H    ASP C 463      17.198   8.380   8.724  1.00 22.92 LIG 0.16  HD
BRANCH 32 34
ATOM     34  CA  ASP C 463      18.698   8.170   7.542  1.00 22.73 LIG 0.19  C 
BRANCH 34 35
ATOM     35  CB  ASP C 463      18.367   7.689   6.135  1.00 28.12 LIG 0.15  C 
BRANCH 35 36
ATOM     36  CG  ASP C 463      17.174   8.416   5.520  1.00 33.32 LIG 0.17  C 
ATOM     37 OD1  ASP C 463      17.419   9.335   4.751  1.00 34.35 LIG-0.65  OA
ATOM     38 OD2  ASP C 463      16.045   8.095   5.840  1.00 29.24 LIG-0.65  OA
ENDBRANCH 35 36
ENDBRANCH 34 35
BRANCH 34 39
ATOM     39  C   ASP C 463      18.746   9.685   7.603  0.93 22.51 LIG 0.24  C 
ATOM     40 O    ASP C 463      17.921  10.343   8.144  0.95 19.76 LIG-0.27  OA
ATOM     41  N   VAL C 464      19.794  10.184   7.010  1.00 24.79 LIG-0.35  N 
ATOM     42 H    VAL C 464      20.378   9.700   6.604  1.00 24.79 LIG 0.16  HD
BRANCH 41 43
ATOM     43  CA  VAL C 464      20.081  11.581   6.969  1.00 23.67 LIG 0.18  C 
BRANCH 43 44
ATOM     44  C   VAL C 464      19.498  12.230   5.694  0.83 28.47 LIG 0.24  C 
ATOM     45  N   ASP C 465      18.755  13.301   5.860  1.00 23.35 LIG-0.34  N 
ATOM     46 H    ASP C 465      18.584  13.631   6.636  1.00 23.35 LIG 0.16  HD
ATOM     47 O    VAL C 464      19.656  11.724   4.622  0.85 31.06 LIG-0.27  OA
BRANCH 45 48
ATOM     48  CA  ASP C 465      18.149  14.035   4.785  0.96 24.34 LIG 0.20  C 
BRANCH 48 49
ATOM     49  CB  ASP C 465      16.706  14.397   5.097  1.00 26.52 LIG 0.15  C 
BRANCH 49 50
ATOM     50  CG  ASP C 465      15.983  13.346   5.935  1.00 29.54 LIG 0.17  C 
ATOM     51 OD2  ASP C 465      16.226  13.219   7.127  1.00 27.46 LIG-0.65  OA
ATOM     52 OD1  ASP C 465      15.141  12.699   5.392  1.00 31.86 LIG-0.65  OA
ENDBRANCH 49 50
ENDBRANCH 48 49
BRANCH 48 53
ATOM     53  C   ASP C 465      18.910  15.337   4.516  0.80 27.02 LIG 0.20  C 
ATOM     54 O    ASP C 465      18.302  16.228   3.961  0.89 29.01 LIG-0.65  OA
ATOM     55 OXT  ASP C 465      19.964  15.581   5.086  1.00 25.29 LIG-0.65  OA
ENDBRANCH 48 53
ENDBRANCH 45 48
ENDBRANCH 43 44
BRANCH 43 56
ATOM     56  CB  VAL C 464      21.594  11.552   7.118  1.00 20.27 LIG 0.01  C 
ATOM     57  CG1 VAL C 464      22.134  11.191   8.438  1.00 23.93 LIG 0.01  C 
ATOM     58  CG2 VAL C 464      22.311  11.349   5.898  0.99 20.75 LIG 0.01  C 
ENDBRANCH 43 56
ENDBRANCH 41 43
ENDBRANCH 34 39
ENDBRANCH 32 34
ENDBRANCH 1 30
BRANCH 1 59
ATOM     59  CB  SER C 462      16.772   5.288  10.915  1.00 26.51 LIG 0.20  C 
BRANCH 59 60
ATOM     60 OG   SER C 462      15.856   4.217  10.838  0.75 30.44 LIG-0.40  OA
ATOM     61 HG   SER C 462      16.153   3.630  10.316  0.75 30.44 LIG 0.21  HD
ENDBRANCH 59 60
ENDBRANCH 1 59
TORSDOF 23
ENDMDL
MODEL 3
USER: ADFR SOLUTION from run 170
USER: SCORE 21.260924 LL:  -3.675 LR: -19.132 RR:   0.000 FEB: -12.271
USER: RMSD 2.333680
USER: SEED 169
USER: STATUS no improvement in best in 4 clusters for 5 generations
USER: GENES 25
USER: genes 0 Translation |==|  0.52661 0.31453 0.71166
USER: genes 1 Rotation |==|  0.50923 0.46415 0.47820 0.99815
USER: genes 2 Torsion [C]-CA--N-[C] |==|  0.62703
USER: genes 3 Torsion [N]-C--CA-[N] |==|  0.94200
USER: genes 4 Torsion [C]-CA--N-[C] |==|  0.81564
USER: genes 5 Torsion [N]-C--CA-[CB] |==|  0.34438
USER: genes 6 Torsion [N]-C--CA-[N] |==|  0.84117
USER: genes 7 Torsion [C]-CA--CB-[CG] |==|  0.62616
USER: genes 8 Torsion [CA]-CB--CG-[OD1] |==|  0.21539
USER: genes 9 Torsion [C]-CA--CB-[CG2] |==|  0.91505
USER: genes 10 Torsion [CA]-CB--CG1-[CD1] |==|  0.99446
USER: genes 11 Torsion [N]-CA--C-[N] |==|  0.17281
USER: genes 12 Torsion [C]-N--CA-[CB] |==|  0.24429
USER: genes 13 Torsion [N]-CA--CB-[CG] |==|  0.26680
USER: genes 14 Torsion [CA]-CB--CG-[OD1] |==|  0.79877
USER: genes 15 Torsion [N]-CA--C-[N] |==|  0.44846
USER: genes 16 Torsion [C]-N--CA-[C] |==|  0.76560
USER: genes 17 Torsion [N]-CA--C-[N] |==|  0.40840
USER: genes 18 Torsion [C]-N--CA-[CB] |==|  0.35293
USER: genes 19 Torsion [N]-CA--CB-[CG] |==|  0.87245
USER: genes 20 Torsion [CA]-CB--CG-[OD2] |==|  0.23905
USER: genes 21 Torsion [N]-CA--C-[O] |==|  0.55631
USER: genes 22 Torsion [N]-CA--CB-[CG1] |==|  0.28145
USER: genes 23 Torsion [N]-CA--CB-[OG] |==|  0.97413
USER: genes 24 Torsion [CA]-CB--OG-[HG] |==|  0.18157
ROOT
ATOM      1  CA  SER C 462      16.591   5.840   9.906  1.00 28.28 LIG 0.20  C 
ENDROOT
BRANCH 1 2
ATOM      2  N   SER C 462      15.380   5.727   9.094  1.00 22.18 LIG-0.34  N 
ATOM      3 H    SER C 462      15.463   5.260   8.375  1.00 22.18 LIG 0.16  HD
ATOM      4  C   ILE C 461      14.285   6.311   9.478  0.90 26.05 LIG 0.24  C 
ATOM      5 O    ILE C 461      14.234   6.969  10.463  1.00 25.33 LIG-0.27  OA
BRANCH 4 6
ATOM      6  CA  ILE C 461      13.062   6.145   8.592  1.00 25.76 LIG 0.18  C 
BRANCH 6 7
ATOM      7  N   ILE C 461      13.379   5.776   7.235  1.00 27.84 LIG-0.35  N 
ATOM      8 H    ILE C 461      13.124   4.993   6.989  1.00 27.84 LIG 0.16  HD
ATOM      9  C   PRO C 460      14.021   6.642   6.486  0.79 31.68 LIG 0.24  C 
ATOM     10 O    PRO C 460      14.448   7.696   6.938  0.87 32.12 LIG-0.27  OA
BRANCH 9 11
ATOM     11  CA  PRO C 460      14.243   6.316   4.994  1.00 30.82 LIG 0.18  C 
ATOM     12  N   PRO C 460      13.459   5.143   4.570  0.83 28.79 LIG-0.34  N 
ATOM     13  C   ASN C 459      13.808   3.900   4.905  1.00 34.90 LIG 0.26  C 
ATOM     14  CD  PRO C 460      12.256   5.555   3.826  0.88 33.76 LIG 0.13  C 
ATOM     15 O    ASN C 459      14.813   3.650   5.480  1.00 32.66 LIG-0.27  OA
ATOM     16  CG  PRO C 460      12.301   7.066   3.887  0.52 26.84 LIG 0.02  C 
ATOM     17  CB  PRO C 460      13.662   7.452   4.161  0.87 26.32 LIG 0.04  C 
BRANCH 13 18
ATOM     18  CA  ASN C 459      12.876   2.730   4.538  1.00 33.71 LIG 0.41  C 
ATOM     19  N   ASN C 459      11.552   2.907   5.089  1.00 33.83 LIG 0.61  N 
BRANCH 18 20
ATOM     20  CB  ASN C 459      12.762   2.658   3.037  1.00 30.86 LIG 0.15  C 
BRANCH 20 21
ATOM     21  CG  ASN C 459      11.343   2.475   2.566  1.00 37.39 LIG 0.22  C 
ATOM     22 OD1  ASN C 459      10.555   3.416   2.542  1.00 38.33 LIG-0.27  OA
ATOM     23  ND2 ASN C 459      11.007   1.264   2.206  1.00 33.08 LIG-0.37  N 
ATOM     24 21HD ASN C 459      10.206   1.101   1.940  1.00 33.08 LIG 0.16  HD
ATOM     25 22HD ASN C 459      11.587   0.630   2.236  1.00 33.08 LIG 0.16  HD
ENDBRANCH 20 21
ENDBRANCH 18 20
ENDBRANCH 13 18
ENDBRANCH 9 11
ENDBRANCH 6 7
BRANCH 6 26
ATOM     26  CB  ILE C 461      12.038   5.236   9.220  1.00 26.47 LIG 0.01  C 
ATOM     27  CG2 ILE C 461      12.693   4.194  10.093  1.00 25.39 LIG 0.01  C 
BRANCH 26 28
ATOM     28  CG1 ILE C 461      11.020   6.093   9.989  1.00 25.72 LIG 0.00  C 
ATOM     29  CD1 ILE C 461      11.308   7.425   9.954  1.00 23.87 LIG 0.01  C 
ENDBRANCH 26 28
ENDBRANCH 6 26
ENDBRANCH 4 6
ENDBRANCH 1 2
BRANCH 1 30
ATOM     30  C   SER C 462      17.785   6.160   9.031  1.00 25.50 LIG 0.24  C 
ATOM     31 O    SER C 462      18.731   5.375   8.912  0.83 24.32 LIG-0.27  OA
ATOM     32  N   ASP C 463      17.682   7.302   8.408  1.00 22.92 LIG-0.34  N 
ATOM     33 H    ASP C 463      17.011   7.829   8.517  1.00 22.92 LIG 0.16  HD
BRANCH 32 34
ATOM     34  CA  ASP C 463      18.639   7.804   7.497  1.00 22.73 LIG 0.19  C 
BRANCH 34 35
ATOM     35  CB  ASP C 463      18.363   7.315   6.081  1.00 28.12 LIG 0.15  C 
BRANCH 35 36
ATOM     36  CG  ASP C 463      17.568   8.317   5.248  1.00 33.32 LIG 0.17  C 
ATOM     37 OD1  ASP C 463      16.384   8.453   5.523  1.00 34.35 LIG-0.65  OA
ATOM     38 OD2  ASP C 463      18.112   8.900   4.330  1.00 29.24 LIG-0.65  OA
ENDBRANCH 35 36
ENDBRANCH 34 35
BRANCH 34 39
ATOM     39  C   ASP C 463      18.579   9.317   7.574  0.93 22.51 LIG 0.24  C 
ATOM     40 O    ASP C 463      17.663   9.912   8.036  0.95 19.76 LIG-0.27  OA
ATOM     41  N   VAL C 464      19.644   9.892   7.090  1.00 24.79 LIG-0.35  N 
ATOM     42 H    VAL C 464      20.296   9.454   6.740  1.00 24.79 LIG 0.16  HD
BRANCH 41 43
ATOM     43  CA  VAL C 464      19.839  11.306   7.087  1.00 23.67 LIG 0.18  C 
BRANCH 43 44
ATOM     44  C   VAL C 464      19.159  11.958   5.862  0.83 28.47 LIG 0.24  C 
ATOM     45  N   ASP C 465      18.672  13.167   6.028  1.00 23.35 LIG-0.34  N 
ATOM     46 H    ASP C 465      18.714  13.585   6.778  1.00 23.35 LIG 0.16  HD
ATOM     47 O    VAL C 464      19.016  11.347   4.845  0.85 31.06 LIG-0.27  OA
BRANCH 45 48
ATOM     48  CA  ASP C 465      18.023  13.922   4.993  0.96 24.34 LIG 0.20  C 
BRANCH 48 49
ATOM     49  CB  ASP C 465      16.656  14.419   5.435  1.00 26.52 LIG 0.15  C 
BRANCH 49 50
ATOM     50  CG  ASP C 465      15.815  13.350   6.128  1.00 29.54 LIG 0.17  C 
ATOM     51 OD2  ASP C 465      15.925  13.146   7.328  1.00 27.46 LIG-0.65  OA
ATOM     52 OD1  ASP C 465      15.017  12.767   5.460  1.00 31.86 LIG-0.65  OA
ENDBRANCH 49 50
ENDBRANCH 48 49
BRANCH 48 53
ATOM     53  C   ASP C 465      18.861  15.143   4.601  0.80 27.02 LIG 0.20  C 
ATOM     54 O    ASP C 465      18.285  16.050   4.037  0.89 29.01 LIG-0.65  OA
ATOM     55 OXT  ASP C 465      19.967  15.331   5.086  1.00 25.29 LIG-0.65  OA
ENDBRANCH 48 53
ENDBRANCH 45 48
ENDBRANCH 43 44
BRANCH 43 56
ATOM     56  CB  VAL C 464      21.356  11.372   7.170  1.00 20.27 LIG 0.01  C 
ATOM     57  CG1 VAL C 464      22.087  11.646   5.923  1.00 23.93 LIG 0.01  C 
ATOM     58  CG2 VAL C 464      21.870  11.694   8.465  0.99 20.75 LIG 0.01  C 
ENDBRANCH 43 56
ENDBRANCH 41 43
ENDBRANCH 34 39
ENDBRANCH 32 34
ENDBRANCH 1 30
BRANCH 1 59
ATOM     59  CB  SER C 462      16.847   4.577  10.717  1.00 26.51 LIG 0.20  C 
BRANCH 59 60
ATOM     60 OG   SER C 462      15.732   3.716  10.629  0.75 30.44 LIG-0.40  OA
ATOM     61 HG   SER C 462      15.645   3.449   9.838  0.75 30.44 LIG 0.21  HD
ENDBRANCH 59 60
ENDBRANCH 1 59
TORSDOF 23
ENDMDL
MODEL 4
USER: ADFR SOLUTION from run 78
USER: SCORE 21.546819 LL:  -4.564 LR: -19.116 RR:   0.000 FEB: -12.255
USER: RMSD 3.984722
USER: SEED 77
USER: STATUS no improvement in best in 3 clusters for 5 generations
USER: GENES 25
USER: genes 0 Translation |==|  0.67362 0.27822 0.67594
USER: genes 1 Rotation |==|  0.52848 0.71880 0.51074 0.94855
USER: genes 2 Torsion [C]-CA--N-[C] |==|  0.77375
USER: genes 3 Torsion [N]-C--CA-[N] |==|  0.72746
USER: genes 4 Torsion [C]-CA--N-[C] |==|  0.69444
USER: genes 5 Torsion [N]-C--CA-[CB] |==|  0.28318
USER: genes 6 Torsion [N]-C--CA-[N] |==|  0.44699
USER: genes 7 Torsion [C]-CA--CB-[CG] |==|  0.52952
USER: genes 8 Torsion [CA]-CB--CG-[OD1] |==|  0.18288
USER: genes 9 Torsion [C]-CA--CB-[CG2] |==|  0.78362
USER: genes 10 Torsion [CA]-CB--CG1-[CD1] |==|  0.27552
USER: genes 11 Torsion [N]-CA--C-[N] |==|  0.20450
USER: genes 12 Torsion [C]-N--CA-[CB] |==|  0.22021
USER: genes 13 Torsion [N]-CA--CB-[CG] |==|  0.45252
USER: genes 14 Torsion [CA]-CB--CG-[OD1] |==|  0.61644
USER: genes 15 Torsion [N]-CA--C-[N] |==|  0.33225
USER: genes 16 Torsion [C]-N--CA-[C] |==|  0.73217
USER: genes 17 Torsion [N]-CA--C-[N] |==|  0.41772
USER: genes 18 Torsion [C]-N--CA-[CB] |==|  0.34814
USER: genes 19 Torsion [N]-CA--CB-[CG] |==|  0.86636
USER: genes 20 Torsion [CA]-CB--CG-[OD2] |==|  0.32563
USER: genes 21 Torsion [N]-CA--C-[O] |==|  0.54461
USER: genes 22 Torsion [N]-CA--CB-[CG1] |==|  0.24306
USER: genes 23 Torsion [N]-CA--CB-[OG] |==|  0.89492
USER: genes 24 Torsion [CA]-CB--OG-[HG] |==|  0.20340
ROOT
ATOM      1  CA  SER C 462      19.568   5.105   9.156  1.00 28.28 LIG 0.20  C 
ENDROOT
BRANCH 1 2
ATOM      2  N   SER C 462      18.273   4.794   9.760  1.00 22.18 LIG-0.34  N 
ATOM      3 H    SER C 462      18.038   3.968   9.719  1.00 22.18 LIG 0.16  HD
ATOM      4  C   ILE C 461      17.569   5.740  10.307  0.90 26.05 LIG 0.24  C 
ATOM      5 O    ILE C 461      17.927   6.871  10.309  1.00 25.33 LIG-0.27  OA
BRANCH 4 6
ATOM      6  CA  ILE C 461      16.238   5.347  10.923  1.00 25.76 LIG 0.18  C 
BRANCH 6 7
ATOM      7  N   ILE C 461      15.108   5.593  10.063  1.00 27.84 LIG-0.35  N 
ATOM      8 H    ILE C 461      15.043   5.086   9.372  1.00 27.84 LIG 0.16  HD
ATOM      9  C   PRO C 460      14.276   6.555  10.387  0.79 31.68 LIG 0.24  C 
ATOM     10 O    PRO C 460      14.492   7.309  11.326  0.87 32.12 LIG-0.27  OA
BRANCH 9 11
ATOM     11  CA  PRO C 460      12.990   6.740   9.554  1.00 30.82 LIG 0.18  C 
ATOM     12  N   PRO C 460      13.023   5.939   8.317  0.83 28.79 LIG-0.34  N 
ATOM     13  C   ASN C 459      13.767   6.291   7.267  1.00 34.90 LIG 0.26  C 
ATOM     14  CD  PRO C 460      12.207   4.720   8.455  0.88 33.76 LIG 0.13  C 
ATOM     15 O    ASN C 459      14.372   7.308   7.222  1.00 32.66 LIG-0.27  OA
ATOM     16  CG  PRO C 460      11.731   4.774   9.891  0.52 26.84 LIG 0.02  C 
ATOM     17  CB  PRO C 460      11.823   6.143  10.330  0.87 26.32 LIG 0.04  C 
BRANCH 13 18
ATOM     18  CA  ASN C 459      13.856   5.344   6.055  1.00 33.71 LIG 0.41  C 
ATOM     19  N   ASN C 459      14.309   6.034   4.869  1.00 33.83 LIG 0.61  N 
BRANCH 18 20
ATOM     20  CB  ASN C 459      14.836   4.245   6.372  1.00 30.86 LIG 0.15  C 
BRANCH 20 21
ATOM     21  CG  ASN C 459      15.190   3.411   5.169  1.00 37.39 LIG 0.22  C 
ATOM     22 OD1  ASN C 459      15.806   3.891   4.222  1.00 38.33 LIG-0.27  OA
ATOM     23  ND2 ASN C 459      14.789   2.167   5.192  1.00 33.08 LIG-0.37  N 
ATOM     24 21HD ASN C 459      14.955   1.649   4.526  1.00 33.08 LIG 0.16  HD
ATOM     25 22HD ASN C 459      14.360   1.866   5.874  1.00 33.08 LIG 0.16  HD
ENDBRANCH 20 21
ENDBRANCH 18 20
ENDBRANCH 13 18
ENDBRANCH 9 11
ENDBRANCH 6 7
BRANCH 6 26
ATOM     26  CB  ILE C 461      16.267   3.939  11.460  1.00 26.47 LIG 0.01  C 
ATOM     27  CG2 ILE C 461      16.134   2.926  10.349  1.00 25.39 LIG 0.01  C 
BRANCH 26 28
ATOM     28  CG1 ILE C 461      17.553   3.747  12.280  1.00 25.72 LIG 0.00  C 
ATOM     29  CD1 ILE C 461      17.353   3.868  13.623  1.00 23.87 LIG 0.01  C 
ENDBRANCH 26 28
ENDBRANCH 6 26
ENDBRANCH 4 6
ENDBRANCH 1 2
BRANCH 1 30
ATOM     30  C   SER C 462      19.378   5.661   7.760  1.00 25.50 LIG 0.24  C 
ATOM     31 O    SER C 462      19.606   4.982   6.755  0.83 24.32 LIG-0.27  OA
ATOM     32  N   ASP C 463      18.925   6.884   7.745  1.00 22.92 LIG-0.34  N 
ATOM     33 H    ASP C 463      18.782   7.333   8.464  1.00 22.92 LIG 0.16  HD
BRANCH 32 34
ATOM     34  CA  ASP C 463      18.618   7.608   6.570  1.00 22.73 LIG 0.19  C 
BRANCH 34 35
ATOM     35  CB  ASP C 463      17.264   7.199   6.007  1.00 28.12 LIG 0.15  C 
BRANCH 35 36
ATOM     36  CG  ASP C 463      16.701   8.208   5.010  1.00 33.32 LIG 0.17  C 
ATOM     37 OD1  ASP C 463      15.508   8.462   5.090  1.00 34.35 LIG-0.65  OA
ATOM     38 OD2  ASP C 463      17.431   8.682   4.159  1.00 29.24 LIG-0.65  OA
ENDBRANCH 35 36
ENDBRANCH 34 35
BRANCH 34 39
ATOM     39  C   ASP C 463      18.636   9.081   6.934  0.93 22.51 LIG 0.24  C 
ATOM     40 O    ASP C 463      17.925   9.559   7.755  0.95 19.76 LIG-0.27  OA
ATOM     41  N   VAL C 464      19.521   9.759   6.260  1.00 24.79 LIG-0.35  N 
ATOM     42 H    VAL C 464      20.020   9.408   5.654  1.00 24.79 LIG 0.16  HD
BRANCH 41 43
ATOM     43  CA  VAL C 464      19.754  11.154   6.455  1.00 23.67 LIG 0.18  C 
BRANCH 43 44
ATOM     44  C   VAL C 464      18.969  11.996   5.423  0.83 28.47 LIG 0.24  C 
ATOM     45  N   ASP C 465      18.595  13.198   5.801  1.00 23.35 LIG-0.34  N 
ATOM     46 H    ASP C 465      18.762  13.511   6.584  1.00 23.35 LIG 0.16  HD
ATOM     47 O    VAL C 464      18.654  11.532   4.367  0.85 31.06 LIG-0.27  OA
BRANCH 45 48
ATOM     48  CA  ASP C 465      17.873  14.115   4.965  0.96 24.34 LIG 0.20  C 
BRANCH 48 49
ATOM     49  CB  ASP C 465      16.591  14.590   5.630  1.00 26.52 LIG 0.15  C 
BRANCH 49 50
ATOM     50  CG  ASP C 465      15.754  13.457   6.216  1.00 29.54 LIG 0.17  C 
ATOM     51 OD2  ASP C 465      15.535  13.395   7.418  1.00 27.46 LIG-0.65  OA
ATOM     52 OD1  ASP C 465      15.283  12.674   5.449  1.00 31.86 LIG-0.65  OA
ENDBRANCH 49 50
ENDBRANCH 48 49
BRANCH 48 53
ATOM     53  C   ASP C 465      18.722  15.351   4.649  0.80 27.02 LIG 0.20  C 
ATOM     54 O    ASP C 465      18.143  16.323   4.214  0.89 29.01 LIG-0.65  OA
ATOM     55 OXT  ASP C 465      19.859  15.463   5.086  1.00 25.29 LIG-0.65  OA
ENDBRANCH 48 53
ENDBRANCH 45 48
ENDBRANCH 43 44
BRANCH 43 56
ATOM     56  CB  VAL C 464      21.272  11.189   6.385  1.00 20.27 LIG 0.01  C 
ATOM     57  CG1 VAL C 464      21.882  11.339   5.055  1.00 23.93 LIG 0.01  C 
ATOM     58  CG2 VAL C 464      21.916  11.606   7.592  0.99 20.75 LIG 0.01  C 
ENDBRANCH 43 56
ENDBRANCH 41 43
ENDBRANCH 34 39
ENDBRANCH 32 34
ENDBRANCH 1 30
BRANCH 1 59
ATOM     59  CB  SER C 462      20.483   3.888   9.125  1.00 26.51 LIG 0.20  C 
BRANCH 59 60
ATOM     60 OG   SER C 462      20.316   3.133  10.306  0.75 30.44 LIG-0.40  OA
ATOM     61 HG   SER C 462      19.580   2.729  10.280  0.75 30.44 LIG 0.21  HD
ENDBRANCH 59 60
ENDBRANCH 1 59
TORSDOF 23
ENDMDL
MODEL 5
USER: ADFR SOLUTION from run 168
USER: SCORE 22.149993 LL:  -4.821 LR: -18.813 RR:   0.000 FEB: -11.952
USER: RMSD 2.501795
USER: SEED 167
USER: STATUS no improvement in best in 3 clusters for 5 generations
USER: GENES 25
USER: genes 0 Translation |==|  0.50347 0.31848 0.72872
USER: genes 1 Rotation |==|  0.45923 0.46436 0.50168 0.99706
USER: genes 2 Torsion [C]-CA--N-[C] |==|  0.61672
USER: genes 3 Torsion [N]-C--CA-[N] |==|  0.97486
USER: genes 4 Torsion [C]-CA--N-[C] |==|  0.77381
USER: genes 5 Torsion [N]-C--CA-[CB] |==|  0.81918
USER: genes 6 Torsion [N]-C--CA-[N] |==|  0.49350
USER: genes 7 Torsion [C]-CA--CB-[CG] |==|  0.78079
USER: genes 8 Torsion [CA]-CB--CG-[OD1] |==|  0.18615
USER: genes 9 Torsion [C]-CA--CB-[CG2] |==|  0.85723
USER: genes 10 Torsion [CA]-CB--CG1-[CD1] |==|  0.09660
USER: genes 11 Torsion [N]-CA--C-[N] |==|  0.23934
USER: genes 12 Torsion [C]-N--CA-[CB] |==|  0.21611
USER: genes 13 Torsion [N]-CA--CB-[CG] |==|  0.20612
USER: genes 14 Torsion [CA]-CB--CG-[OD1] |==|  0.27856
USER: genes 15 Torsion [N]-CA--C-[N] |==|  0.45755
USER: genes 16 Torsion [C]-N--CA-[C] |==|  0.76759
USER: genes 17 Torsion [N]-CA--C-[N] |==|  0.36424
USER: genes 18 Torsion [C]-N--CA-[CB] |==|  0.85975
USER: genes 19 Torsion [N]-CA--CB-[CG] |==|  0.69974
USER: genes 20 Torsion [CA]-CB--CG-[OD2] |==|  0.26493
USER: genes 21 Torsion [N]-CA--C-[O] |==|  0.21237
USER: genes 22 Torsion [N]-CA--CB-[CG1] |==|  0.29990
USER: genes 23 Torsion [N]-CA--CB-[OG] |==|  0.15826
USER: genes 24 Torsion [CA]-CB--OG-[HG] |==|  0.15453
ROOT
ATOM      1  CA  SER C 462      16.122   5.920  10.264  1.00 28.28 LIG 0.20  C 
ENDROOT
BRANCH 1 2
ATOM      2  N   SER C 462      14.925   5.549   9.511  1.00 22.18 LIG-0.34  N 
ATOM      3 H    SER C 462      15.054   4.990   8.870  1.00 22.18 LIG 0.16  HD
ATOM      4  C   ILE C 461      13.773   6.058   9.832  0.90 26.05 LIG 0.24  C 
ATOM      5 O    ILE C 461      13.656   6.849  10.708  1.00 25.33 LIG-0.27  OA
BRANCH 4 6
ATOM      6  CA  ILE C 461      12.570   5.623   9.015  1.00 25.76 LIG 0.18  C 
BRANCH 6 7
ATOM      7  N   ILE C 461      12.913   4.848   7.849  1.00 27.84 LIG-0.35  N 
ATOM      8 H    ILE C 461      12.844   3.995   7.930  1.00 27.84 LIG 0.16  HD
ATOM      9  C   PRO C 460      13.301   5.485   6.769  0.79 31.68 LIG 0.24  C 
ATOM     10 O    PRO C 460      13.481   6.695   6.761  0.87 32.12 LIG-0.27  OA
BRANCH 9 11
ATOM     11  CA  PRO C 460      13.538   4.680   5.474  1.00 30.82 LIG 0.18  C 
ATOM     12  N   PRO C 460      14.002   5.542   4.373  0.83 28.79 LIG-0.34  N 
ATOM     13  C   ASN C 459      13.178   6.365   3.723  1.00 34.90 LIG 0.26  C 
ATOM     14  CD  PRO C 460      15.456   5.408   4.175  0.88 33.76 LIG 0.13  C 
ATOM     15 O    ASN C 459      12.010   6.390   3.921  1.00 32.66 LIG-0.27  OA
ATOM     16  CG  PRO C 460      15.879   4.466   5.282  0.52 26.84 LIG 0.02  C 
ATOM     17  CB  PRO C 460      14.711   3.734   5.702  0.87 26.32 LIG 0.04  C 
BRANCH 13 18
ATOM     18  CA  ASN C 459      13.752   7.331   2.670  1.00 33.71 LIG 0.41  C 
ATOM     19  N   ASN C 459      12.713   8.106   2.031  1.00 33.83 LIG 0.61  N 
BRANCH 18 20
ATOM     20  CB  ASN C 459      14.702   8.280   3.353  1.00 30.86 LIG 0.15  C 
BRANCH 20 21
ATOM     21  CG  ASN C 459      13.996   9.391   4.083  1.00 37.39 LIG 0.22  C 
ATOM     22 OD1  ASN C 459      13.304   9.164   5.072  1.00 38.33 LIG-0.27  OA
ATOM     23  ND2 ASN C 459      14.150  10.593   3.592  1.00 33.08 LIG-0.37  N 
ATOM     24 21HD ASN C 459      13.759  11.263   3.963  1.00 33.08 LIG 0.16  HD
ATOM     25 22HD ASN C 459      14.642  10.714   2.898  1.00 33.08 LIG 0.16  HD
ENDBRANCH 20 21
ENDBRANCH 18 20
ENDBRANCH 13 18
ENDBRANCH 9 11
ENDBRANCH 6 7
BRANCH 6 26
ATOM     26  CB  ILE C 461      11.526   4.956   9.872  1.00 26.47 LIG 0.01  C 
ATOM     27  CG2 ILE C 461      12.127   3.855  10.711  1.00 25.39 LIG 0.01  C 
BRANCH 26 28
ATOM     28  CG1 ILE C 461      10.824   6.026  10.722  1.00 25.72 LIG 0.00  C 
ATOM     29  CD1 ILE C 461      10.689   7.219  10.075  1.00 23.87 LIG 0.01  C 
ENDBRANCH 26 28
ENDBRANCH 6 26
ENDBRANCH 4 6
ENDBRANCH 1 2
BRANCH 1 30
ATOM     30  C   SER C 462      17.288   6.145   9.324  1.00 25.50 LIG 0.24  C 
ATOM     31 O    SER C 462      18.070   5.237   9.032  0.83 24.32 LIG-0.27  OA
ATOM     32  N   ASP C 463      17.342   7.358   8.844  1.00 22.92 LIG-0.34  N 
ATOM     33 H    ASP C 463      16.783   7.970   9.073  1.00 22.92 LIG 0.16  HD
BRANCH 32 34
ATOM     34  CA  ASP C 463      18.304   7.805   7.911  1.00 22.73 LIG 0.19  C 
BRANCH 34 35
ATOM     35  CB  ASP C 463      17.968   7.333   6.503  1.00 28.12 LIG 0.15  C 
BRANCH 35 36
ATOM     36  CG  ASP C 463      16.802   8.096   5.879  1.00 33.32 LIG 0.17  C 
ATOM     37 OD1  ASP C 463      17.081   8.984   5.085  1.00 34.35 LIG-0.65  OA
ATOM     38 OD2  ASP C 463      15.663   7.832   6.215  1.00 29.24 LIG-0.65  OA
ENDBRANCH 35 36
ENDBRANCH 34 35
BRANCH 34 39
ATOM     39  C   ASP C 463      18.331   9.320   7.987  0.93 22.51 LIG 0.24  C 
ATOM     40 O    ASP C 463      17.488   9.962   8.519  0.95 19.76 LIG-0.27  OA
ATOM     41  N   VAL C 464      19.382   9.837   7.417  1.00 24.79 LIG-0.35  N 
ATOM     42 H    VAL C 464      19.981   9.365   7.018  1.00 24.79 LIG 0.16  HD
BRANCH 41 43
ATOM     43  CA  VAL C 464      19.652  11.239   7.394  1.00 23.67 LIG 0.18  C 
BRANCH 43 44
ATOM     44  C   VAL C 464      18.897  11.930   6.236  0.83 28.47 LIG 0.24  C 
ATOM     45  N   ASP C 465      18.219  13.015   6.535  1.00 23.35 LIG-0.34  N 
ATOM     46 H    ASP C 465      18.179  13.332   7.332  1.00 23.35 LIG 0.16  HD
ATOM     47 O    VAL C 464      18.873  11.443   5.144  0.85 31.06 LIG-0.27  OA
BRANCH 45 48
ATOM     48  CA  ASP C 465      17.475  13.787   5.579  0.96 24.34 LIG 0.20  C 
BRANCH 48 49
ATOM     49  CB  ASP C 465      18.313  14.126   4.358  1.00 26.52 LIG 0.15  C 
BRANCH 49 50
ATOM     50  CG  ASP C 465      18.717  15.596   4.286  1.00 29.54 LIG 0.17  C 
ATOM     51 OD2  ASP C 465      19.802  15.969   4.711  1.00 27.46 LIG-0.65  OA
ATOM     52 OD1  ASP C 465      17.958  16.346   3.755  1.00 31.86 LIG-0.65  OA
ENDBRANCH 49 50
ENDBRANCH 48 49
BRANCH 48 53
ATOM     53  C   ASP C 465      16.238  13.020   5.101  0.80 27.02 LIG 0.20  C 
ATOM     54 O    ASP C 465      15.291  12.971   5.857  0.89 29.01 LIG-0.65  OA
ATOM     55 OXT  ASP C 465      16.092  12.732   3.921  1.00 25.29 LIG-0.65  OA
ENDBRANCH 48 53
ENDBRANCH 45 48
ENDBRANCH 43 44
BRANCH 43 56
ATOM     56  CB  VAL C 464      21.171  11.224   7.336  1.00 20.27 LIG 0.01  C 
ATOM     57  CG1 VAL C 464      21.800  11.609   6.063  1.00 23.93 LIG 0.01  C 
ATOM     58  CG2 VAL C 464      21.819  11.365   8.603  0.99 20.75 LIG 0.01  C 
ENDBRANCH 43 56
ENDBRANCH 41 43
ENDBRANCH 34 39
ENDBRANCH 32 34
ENDBRANCH 1 30
BRANCH 1 59
ATOM     59  CB  SER C 462      16.477   4.874  11.312  1.00 26.51 LIG 0.20  C 
BRANCH 59 60
ATOM     60 OG   SER C 462      16.652   3.617  10.695  0.75 30.44 LIG-0.40  OA
ATOM     61 HG   SER C 462      17.231   3.679  10.090  0.75 30.44 LIG 0.21  HD
ENDBRANCH 59 60
ENDBRANCH 1 59
TORSDOF 23
ENDMDL
