MODEL 1
USER: ADFR SOLUTION from run 156
USER: SCORE 24.609914 LL:  -4.466 LR: -23.162 RR:   0.000 FEB: -15.407
USER: RMSD 3.191399
USER: SEED 155
USER: STATUS 1 or 2 clusters left
USER: GENES 28
USER: genes 0 Translation |==|  0.43849 0.63857 0.64137
USER: genes 1 Rotation |==|  0.51546 0.50428 0.50203 0.99974
USER: genes 2 Torsion [N]-CA--C-[N] |==|  0.16947
USER: genes 3 Torsion [C]-N--CA-[CB] |==|  0.26667
USER: genes 4 Torsion [N]-CA--CB-[CG] |==|  0.27494
USER: genes 5 Torsion [CA]-CB--CG-[CD] |==|  0.78713
USER: genes 6 Torsion [CB]-CG--CD-[OE2] |==|  0.01615
USER: genes 7 Torsion [N]-CA--C-[N] |==|  0.44311
USER: genes 8 Torsion [C]-N--CA-[CB] |==|  0.42812
USER: genes 9 Torsion [N]-CA--C-[N] |==|  0.43599
USER: genes 10 Torsion [C]-N--CA-[C] |==|  0.67460
USER: genes 11 Torsion [N]-CA--C-[OXT] |==|  0.98512
USER: genes 12 Torsion [N]-CA--CB-[CG] |==|  0.85971
USER: genes 13 Torsion [CA]-CB--CG-[OD1] |==|  0.70293
USER: genes 14 Torsion [N]-CA--CB-[CG2] |==|  0.13955
USER: genes 15 Torsion [C]-CA--CB-[CG] |==|  0.86977
USER: genes 16 Torsion [CA]-CB--CG-[CD] |==|  0.38487
USER: genes 17 Torsion [CB]-CG--CD-[OE1] |==|  0.12522
USER: genes 18 Torsion [C]-CA--N-[C] |==|  0.74037
USER: genes 19 Torsion [N]-C--CA-[N] |==|  0.93954
USER: genes 20 Torsion [C]-CA--N-[C] |==|  0.72354
USER: genes 21 Torsion [N]-C--CA-[N] |==|  0.91624
USER: genes 22 Torsion [C]-CA--CB-[OG1] |==|  0.63490
USER: genes 23 Torsion [CA]-CB--OG1-[HG1] |==|  0.13173
USER: genes 24 Torsion [C]-CA--N-[C] |==|  0.73525
USER: genes 25 Torsion [N]-C--CA-[N] |==|  0.92626
USER: genes 26 Torsion [C]-CA--CB-[CG1] |==|  0.20999
USER: genes 27 Torsion [CA]-CB--CG1-[CD1] |==|  0.44397
ROOT
ATOM      1  CA  GLU C 638     -17.888  -5.688  10.480  1.00 17.54 LIG 0.18  C 
ENDROOT
BRANCH 1 2
ATOM      2  C   GLU C 638     -18.797  -6.152   9.346  0.98 18.52 LIG 0.24  C 
ATOM      3  N   GLU C 639     -18.404  -7.255   8.726  0.99 18.65 LIG-0.35  N 
ATOM      4 H    GLU C 639     -17.663  -7.659   8.893  0.99 18.65 LIG 0.16  HD
ATOM      5 O    GLU C 638     -19.815  -5.527   9.035  0.88 20.91 LIG-0.27  OA
BRANCH 3 6
ATOM      6  CA  GLU C 639     -19.206  -7.885   7.694  0.92 18.88 LIG 0.18  C 
BRANCH 6 7
ATOM      7  CB  GLU C 639     -18.759  -7.447   6.297  1.00 24.27 LIG 0.04  C 
BRANCH 7 8
ATOM      8  CG  GLU C 639     -17.844  -8.450   5.595  0.67 25.94 LIG 0.12  C 
BRANCH 8 9
ATOM      9  CD  GLU C 639     -16.412  -8.428   6.113  0.35 26.37 LIG 0.17  C 
ATOM     10 OE2  GLU C 639     -16.136  -7.713   7.098  0.36 27.92 LIG-0.65  OA
ATOM     11 OE1  GLU C 639     -15.553  -9.131   5.540  0.59 30.05 LIG-0.65  OA
ENDBRANCH 8 9
ENDBRANCH 7 8
ENDBRANCH 6 7
BRANCH 6 12
ATOM     12  C   GLU C 639     -19.107  -9.388   7.839  0.91 17.75 LIG 0.24  C 
ATOM     13  N   VAL C 640     -20.076 -10.088   7.272  1.00 17.26 LIG-0.35  N 
ATOM     14 H    VAL C 640     -20.730  -9.740   6.835  1.00 17.26 LIG 0.16  HD
ATOM     15 O    GLU C 639     -18.189  -9.901   8.471  0.96 15.43 LIG-0.27  OA
BRANCH 13 16
ATOM     16  CA  VAL C 640     -20.104 -11.537   7.351  0.98 17.07 LIG 0.18  C 
BRANCH 16 17
ATOM     17  C   VAL C 640     -19.235 -12.170   6.268  0.84 18.29 LIG 0.24  C 
ATOM     18 O    VAL C 640     -18.967 -11.560   5.233  0.87 20.22 LIG-0.27  OA
ATOM     19  N   ASP C 641     -18.807 -13.403   6.521  0.93 16.51 LIG-0.34  N 
ATOM     20 H    ASP C 641     -19.008 -13.833   7.238  0.93 16.51 LIG 0.16  HD
BRANCH 19 21
ATOM     21  CA  ASP C 641     -17.954 -14.154   5.608  0.98 21.00 LIG 0.20  C 
BRANCH 21 22
ATOM     22  C   ASP C 641     -18.638 -15.418   5.092  0.73 18.91 LIG 0.20  C 
ATOM     23 OXT  ASP C 641     -19.745 -15.781   5.509  0.98 17.70 LIG-0.65  OA
ATOM     24 O    ASP C 641     -18.082 -16.121   4.249  0.91 21.96 LIG-0.65  OA
ENDBRANCH 21 22
BRANCH 21 25
ATOM     25  CB  ASP C 641     -16.661 -14.554   6.315  0.96 19.58 LIG 0.15  C 
BRANCH 25 26
ATOM     26  CG  ASP C 641     -15.991 -13.385   6.998  0.90 21.89 LIG 0.17  C 
ATOM     27 OD1  ASP C 641     -14.951 -12.919   6.488  0.85 27.90 LIG-0.65  OA
ATOM     28 OD2  ASP C 641     -16.513 -12.932   8.037  0.93 20.35 LIG-0.65  OA
ENDBRANCH 25 26
ENDBRANCH 21 25
ENDBRANCH 19 21
ENDBRANCH 16 17
BRANCH 16 29
ATOM     29  CB  VAL C 640     -21.545 -12.062   7.219  1.00 16.33 LIG 0.01  C 
ATOM     30  CG2 VAL C 640     -22.214 -11.444   6.005  1.00 16.91 LIG 0.01  C 
ATOM     31  CG1 VAL C 640     -22.338 -11.760   8.478  1.00 16.01 LIG 0.01  C 
ENDBRANCH 16 29
ENDBRANCH 13 16
ENDBRANCH 6 12
ENDBRANCH 3 6
ENDBRANCH 1 2
BRANCH 1 32
ATOM     32  CB  GLU C 638     -18.484  -4.496  11.230  1.00 21.71 LIG 0.04  C 
BRANCH 32 33
ATOM     33  CG  GLU C 638     -19.000  -3.415  10.281  1.00 22.46 LIG 0.12  C 
BRANCH 33 34
ATOM     34  CD  GLU C 638     -20.324  -2.820  10.713  0.75 28.07 LIG 0.17  C 
ATOM     35 OE1  GLU C 638     -20.479  -2.508  11.913  0.87 31.25 LIG-0.65  OA
ATOM     36 OE2  GLU C 638     -21.208  -2.657   9.846  0.82 29.94 LIG-0.65  OA
ENDBRANCH 33 34
ENDBRANCH 32 33
ENDBRANCH 1 32
BRANCH 1 37
ATOM     37  N   GLU C 638     -16.543  -5.382   9.999  1.00 17.26 LIG-0.35  N 
ATOM     38  C   ILE C 637     -15.571  -6.290  10.022  0.84 18.48 LIG 0.24  C 
ATOM     39 O    ILE C 637     -15.752  -7.447  10.411  0.97 17.51 LIG-0.27  OA
ATOM     40 H    GLU C 638     -16.444  -4.579   9.708  1.00 17.26 LIG 0.16  HD
BRANCH 38 41
ATOM     41  CA  ILE C 637     -14.197  -5.840   9.513  1.00 18.14 LIG 0.18  C 
BRANCH 41 42
ATOM     42  N   ILE C 637     -14.313  -4.682   8.637  0.98 19.60 LIG-0.35  N 
ATOM     43 H    ILE C 637     -14.397  -3.931   9.048  0.98 19.60 LIG 0.16  HD
ATOM     44  C   THR C 636     -14.287  -4.809   7.316  0.88 23.50 LIG 0.24  C 
ATOM     45 O    THR C 636     -14.110  -5.892   6.750  0.88 24.24 LIG-0.27  OA
BRANCH 44 46
ATOM     46  CA  THR C 636     -14.484  -3.526   6.514  0.86 24.41 LIG 0.20  C 
BRANCH 46 47
ATOM     47  CB  THR C 636     -13.112  -2.912   6.147  1.00 21.14 LIG 0.15  C 
ATOM     48  CG2 THR C 636     -12.818  -3.085   4.664  0.94 24.86 LIG 0.04  C 
BRANCH 47 49
ATOM     49 OG1  THR C 636     -13.102  -1.514   6.467  0.91 21.02 LIG-0.39  OA
ATOM     50 HG1  THR C 636     -13.406  -1.401   7.242  0.91 21.02 LIG 0.21  HD
ENDBRANCH 47 49
ENDBRANCH 46 47
BRANCH 46 51
ATOM     51  N   THR C 636     -15.327  -2.593   7.250  1.00 28.35 LIG-0.34  N 
ATOM     52 H    THR C 636     -14.909  -2.105   7.822  1.00 28.35 LIG 0.16  HD
ATOM     53  C   PRO C 635     -16.637  -2.531   7.030  0.97 29.67 LIG 0.25  C 
ATOM     54 O    PRO C 635     -17.201  -3.178   6.148  0.74 30.58 LIG-0.27  OA
BRANCH 53 55
ATOM     55  CA  PRO C 635     -17.441  -1.588   7.917  0.83 29.80 LIG 0.35  C 
ATOM     56  N   PRO C 635     -16.800  -1.383   9.221  0.99 34.94 LIG 0.32  N 
ATOM     57  CD  PRO C 635     -16.049  -0.116   9.286  1.00 36.87 LIG 0.32  C 
ATOM     58  CG  PRO C 635     -16.306   0.518   7.951  0.65 32.23 LIG 0.04  C 
ATOM     59  CB  PRO C 635     -17.456  -0.184   7.315  0.86 32.79 LIG 0.05  C 
ENDBRANCH 53 55
ENDBRANCH 46 51
ENDBRANCH 44 46
ENDBRANCH 41 42
BRANCH 41 60
ATOM     60  CB  ILE C 637     -13.246  -5.548  10.700  0.96 16.96 LIG 0.01  C 
ATOM     61  CG2 ILE C 637     -13.910  -4.626  11.716  1.00 17.73 LIG 0.01  C 
BRANCH 60 62
ATOM     62  CG1 ILE C 637     -12.746  -6.859  11.327  0.90 16.94 LIG 0.00  C 
ATOM     63  CD1 ILE C 637     -11.483  -6.705  12.142  1.00 16.64 LIG 0.01  C 
ENDBRANCH 60 62
ENDBRANCH 41 60
ENDBRANCH 38 41
ENDBRANCH 1 37
TORSDOF 26
ENDMDL
MODEL 2
USER: ADFR SOLUTION from run 82
USER: SCORE 23.715914 LL:  -3.957 LR: -22.773 RR:   0.000 FEB: -15.017
USER: RMSD 1.770298
USER: SEED 81
USER: STATUS 1 or 2 clusters left
USER: GENES 28
USER: genes 0 Translation |==|  0.45219 0.64572 0.63522
USER: genes 1 Rotation |==|  0.50607 0.48836 0.49319 0.99978
USER: genes 2 Torsion [N]-CA--C-[N] |==|  0.21723
USER: genes 3 Torsion [C]-N--CA-[CB] |==|  0.21077
USER: genes 4 Torsion [N]-CA--CB-[CG] |==|  0.08419
USER: genes 5 Torsion [CA]-CB--CG-[CD] |==|  0.23458
USER: genes 6 Torsion [CB]-CG--CD-[OE2] |==|  0.06985
USER: genes 7 Torsion [N]-CA--C-[N] |==|  0.45878
USER: genes 8 Torsion [C]-N--CA-[CB] |==|  0.38790
USER: genes 9 Torsion [N]-CA--C-[N] |==|  0.39915
USER: genes 10 Torsion [C]-N--CA-[C] |==|  0.70608
USER: genes 11 Torsion [N]-CA--C-[OXT] |==|  0.99772
USER: genes 12 Torsion [N]-CA--CB-[CG] |==|  0.89279
USER: genes 13 Torsion [CA]-CB--CG-[OD1] |==|  0.72966
USER: genes 14 Torsion [N]-CA--CB-[CG2] |==|  0.13840
USER: genes 15 Torsion [C]-CA--CB-[CG] |==|  0.13878
USER: genes 16 Torsion [CA]-CB--CG-[CD] |==|  0.58144
USER: genes 17 Torsion [CB]-CG--CD-[OE1] |==|  0.23547
USER: genes 18 Torsion [C]-CA--N-[C] |==|  0.75685
USER: genes 19 Torsion [N]-C--CA-[N] |==|  0.93701
USER: genes 20 Torsion [C]-CA--N-[C] |==|  0.75429
USER: genes 21 Torsion [N]-C--CA-[N] |==|  0.41677
USER: genes 22 Torsion [C]-CA--CB-[OG1] |==|  0.29435
USER: genes 23 Torsion [CA]-CB--OG1-[HG1] |==|  0.03758
USER: genes 24 Torsion [C]-CA--N-[C] |==|  0.63121
USER: genes 25 Torsion [N]-C--CA-[N] |==|  0.31150
USER: genes 26 Torsion [C]-CA--CB-[CG1] |==|  0.14972
USER: genes 27 Torsion [CA]-CB--CG1-[CD1] |==|  0.33547
ROOT
ATOM      1  CA  GLU C 638     -17.632  -5.527  10.355  1.00 17.54 LIG 0.18  C 
ENDROOT
BRANCH 1 2
ATOM      2  C   GLU C 638     -18.485  -6.002   9.183  0.98 18.52 LIG 0.24  C 
ATOM      3  N   GLU C 639     -18.336  -7.278   8.860  0.99 18.65 LIG-0.35  N 
ATOM      4 H    GLU C 639     -17.761  -7.800   9.229  0.99 18.65 LIG 0.16  HD
ATOM      5 O    GLU C 638     -19.246  -5.236   8.586  0.88 20.91 LIG-0.27  OA
BRANCH 3 6
ATOM      6  CA  GLU C 639     -19.146  -7.912   7.837  0.92 18.88 LIG 0.18  C 
BRANCH 6 7
ATOM      7  CB  GLU C 639     -18.691  -7.503   6.434  1.00 24.27 LIG 0.04  C 
BRANCH 7 8
ATOM      8  CG  GLU C 639     -17.198  -7.192   6.331  0.67 25.94 LIG 0.12  C 
BRANCH 8 9
ATOM      9  CD  GLU C 639     -16.336  -8.430   6.117  0.35 26.37 LIG 0.17  C 
ATOM     10 OE2  GLU C 639     -16.844  -9.437   5.586  0.36 27.92 LIG-0.65  OA
ATOM     11 OE1  GLU C 639     -15.140  -8.399   6.476  0.59 30.05 LIG-0.65  OA
ENDBRANCH 8 9
ENDBRANCH 7 8
ENDBRANCH 6 7
BRANCH 6 12
ATOM     12  C   GLU C 639     -19.071  -9.414   8.006  0.91 17.75 LIG 0.24  C 
ATOM     13  N   VAL C 640     -19.983 -10.115   7.353  1.00 17.26 LIG-0.35  N 
ATOM     14 H    VAL C 640     -20.589  -9.769   6.850  1.00 17.26 LIG 0.16  HD
ATOM     15 O    GLU C 639     -18.223  -9.924   8.731  0.96 15.43 LIG-0.27  OA
BRANCH 13 16
ATOM     16  CA  VAL C 640     -20.027 -11.563   7.443  0.98 17.07 LIG 0.18  C 
BRANCH 16 17
ATOM     17  C   VAL C 640     -19.345 -12.216   6.244  0.84 18.29 LIG 0.24  C 
ATOM     18 O    VAL C 640     -19.435 -11.725   5.118  0.87 20.22 LIG-0.27  OA
ATOM     19  N   ASP C 641     -18.671 -13.332   6.503  0.93 16.51 LIG-0.34  N 
ATOM     20 H    ASP C 641     -18.622 -13.681   7.287  0.93 16.51 LIG 0.16  HD
BRANCH 19 21
ATOM     21  CA  ASP C 641     -17.945 -14.080   5.483  0.98 21.00 LIG 0.20  C 
BRANCH 21 22
ATOM     22  C   ASP C 641     -18.668 -15.365   5.091  0.73 18.91 LIG 0.20  C 
ATOM     23 OXT  ASP C 641     -19.736 -15.704   5.615  0.98 17.70 LIG-0.65  OA
ATOM     24 O    ASP C 641     -18.182 -16.113   4.242  0.91 21.96 LIG-0.65  OA
ENDBRANCH 21 22
BRANCH 21 25
ATOM     25  CB  ASP C 641     -16.552 -14.440   5.995  0.96 19.58 LIG 0.15  C 
BRANCH 25 26
ATOM     26  CG  ASP C 641     -15.931 -13.329   6.809  0.90 21.89 LIG 0.17  C 
ATOM     27 OD1  ASP C 641     -15.131 -12.556   6.241  0.85 27.90 LIG-0.65  OA
ATOM     28 OD2  ASP C 641     -16.252 -13.229   8.011  0.93 20.35 LIG-0.65  OA
ENDBRANCH 25 26
ENDBRANCH 21 25
ENDBRANCH 19 21
ENDBRANCH 16 17
BRANCH 16 29
ATOM     29  CB  VAL C 640     -21.481 -12.059   7.535  1.00 16.33 LIG 0.01  C 
ATOM     30  CG2 VAL C 640     -22.317 -11.423   6.440  1.00 16.91 LIG 0.01  C 
ATOM     31  CG1 VAL C 640     -22.064 -11.748   8.902  1.00 16.01 LIG 0.01  C 
ENDBRANCH 16 29
ENDBRANCH 13 16
ENDBRANCH 6 12
ENDBRANCH 3 6
ENDBRANCH 1 2
BRANCH 1 32
ATOM     32  CB  GLU C 638     -18.227  -4.286  11.023  1.00 21.71 LIG 0.04  C 
BRANCH 32 33
ATOM     33  CG  GLU C 638     -19.709  -4.461  11.350  1.00 22.46 LIG 0.12  C 
BRANCH 33 34
ATOM     34  CD  GLU C 638     -20.485  -3.161  11.332  0.75 28.07 LIG 0.17  C 
ATOM     35 OE1  GLU C 638     -20.926  -2.740  10.242  0.87 31.25 LIG-0.65  OA
ATOM     36 OE2  GLU C 638     -20.658  -2.564  12.416  0.82 29.94 LIG-0.65  OA
ENDBRANCH 33 34
ENDBRANCH 32 33
ENDBRANCH 1 32
BRANCH 1 37
ATOM     37  N   GLU C 638     -16.248  -5.288   9.950  1.00 17.26 LIG-0.35  N 
ATOM     38  C   ILE C 637     -15.341  -6.261   9.958  0.84 18.48 LIG 0.24  C 
ATOM     39 O    ILE C 637     -15.617  -7.424  10.268  0.97 17.51 LIG-0.27  OA
ATOM     40 H    GLU C 638     -16.082  -4.478   9.712  1.00 17.26 LIG 0.16  HD
BRANCH 38 41
ATOM     41  CA  ILE C 637     -13.918  -5.880   9.534  1.00 18.14 LIG 0.18  C 
BRANCH 41 42
ATOM     42  N   ILE C 637     -13.919  -4.680   8.708  0.98 19.60 LIG-0.35  N 
ATOM     43 H    ILE C 637     -13.825  -3.945   9.146  0.98 19.60 LIG 0.16  HD
ATOM     44  C   THR C 636     -14.055  -4.748   7.389  0.88 23.50 LIG 0.24  C 
ATOM     45 O    THR C 636     -14.133  -5.818   6.778  0.88 24.24 LIG-0.27  OA
BRANCH 44 46
ATOM     46  CA  THR C 636     -14.104  -3.415   6.649  0.86 24.41 LIG 0.20  C 
BRANCH 46 47
ATOM     47  CB  THR C 636     -15.550  -2.866   6.636  1.00 21.14 LIG 0.15  C 
ATOM     48  CG2 THR C 636     -16.546  -3.948   7.028  0.94 24.86 LIG 0.04  C 
BRANCH 47 49
ATOM     49 OG1  THR C 636     -15.664  -1.769   7.554  0.91 21.02 LIG-0.39  OA
ATOM     50 HG1  THR C 636     -14.897  -1.515   7.783  0.91 21.02 LIG 0.21  HD
ENDBRANCH 47 49
ENDBRANCH 46 47
BRANCH 46 51
ATOM     51  N   THR C 636     -13.558  -3.563   5.305  1.00 28.35 LIG-0.34  N 
ATOM     52 H    THR C 636     -13.854  -4.243   4.870  1.00 28.35 LIG 0.16  HD
ATOM     53  C   PRO C 635     -12.673  -2.695   4.825  0.97 29.67 LIG 0.25  C 
ATOM     54 O    PRO C 635     -12.328  -1.681   5.432  0.74 30.58 LIG-0.27  OA
BRANCH 53 55
ATOM     55  CA  PRO C 635     -12.095  -2.991   3.446  0.83 29.80 LIG 0.35  C 
ATOM     56  N   PRO C 635     -12.538  -2.013   2.445  0.99 34.94 LIG 0.32  N 
ATOM     57  CD  PRO C 635     -11.522  -0.979   2.180  1.00 36.87 LIG 0.32  C 
ATOM     58  CG  PRO C 635     -10.360  -1.396   3.032  0.65 32.23 LIG 0.04  C 
ATOM     59  CB  PRO C 635     -10.578  -2.806   3.461  0.86 32.79 LIG 0.05  C 
ENDBRANCH 53 55
ENDBRANCH 46 51
ENDBRANCH 44 46
ENDBRANCH 41 42
BRANCH 41 60
ATOM     60  CB  ILE C 637     -13.010  -5.701  10.776  0.96 16.96 LIG 0.01  C 
ATOM     61  CG2 ILE C 637     -13.367  -4.427  11.532  1.00 17.73 LIG 0.01  C 
BRANCH 60 62
ATOM     62  CG1 ILE C 637     -13.060  -6.953  11.666  0.90 16.94 LIG 0.00  C 
ATOM     63  CD1 ILE C 637     -11.716  -7.611  11.871  1.00 16.64 LIG 0.01  C 
ENDBRANCH 60 62
ENDBRANCH 41 60
ENDBRANCH 38 41
ENDBRANCH 1 37
TORSDOF 26
ENDMDL
