MODEL 1
USER: ADFR SOLUTION from run 102
USER: SCORE 15.562676 LL:  -1.042 LR: -14.815 RR:   0.000 FEB:  -9.147
USER: RMSD 4.540269
USER: SEED 101
USER: STATUS searching
USER: GENES 21
USER: genes 0 Translation |==|  0.53571 0.35293 0.42120
USER: genes 1 Rotation |==|  0.60953 0.03357 0.44960 0.63381
USER: genes 2 Torsion [C]-N--CA-[CB] |==|  0.86062
USER: genes 3 Torsion [N]-CA--CB-[CG] |==|  0.51320
USER: genes 4 Torsion [CA]-CB--CG-[CD] |==|  0.49101
USER: genes 5 Torsion [CB]-CG--CD-[CE] |==|  0.62058
USER: genes 6 Torsion [CG]-CD--CE-[NZ] |==|  0.19746
USER: genes 7 Torsion [CD]-CE--NZ-[HZ1] |==|  0.93626
USER: genes 8 Torsion [N]-CA--C-[N] |==|  0.39444
USER: genes 9 Torsion [C]-N--CA-[CB] |==|  0.29726
USER: genes 10 Torsion [N]-CA--CB-[CG] |==|  0.72641
USER: genes 11 Torsion [CA]-CB--CG-[CD2] |==|  0.92668
USER: genes 12 Torsion [N]-CA--C-[O] |==|  0.60268
USER: genes 13 Torsion [N]-C--CA-[N] |==|  0.35116
USER: genes 14 Torsion [C]-CA--N-[C] |==|  0.64935
USER: genes 15 Torsion [N]-C--CA-[N] |==|  0.01004
USER: genes 16 Torsion [C]-CA--CB-[CG] |==|  0.11659
USER: genes 17 Torsion [CA]-CB--CG-[CD] |==|  0.32709
USER: genes 18 Torsion [CB]-CG--CD-[CE] |==|  0.34231
USER: genes 19 Torsion [CG]-CD--CE-[NZ] |==|  0.35176
USER: genes 20 Torsion [CD]-CE--NZ-[HZ2] |==|  0.37519
ROOT
ATOM      1  C   LYS L   5     -24.200 -79.180 -28.431  1.00 61.96 LIG 0.24  C 
ATOM      2 O    LYS L   5     -24.364 -79.163 -27.204  1.00 44.78 LIG-0.27  OA
ATOM      3  N   LYS L   6     -24.272 -78.084 -29.182  1.00 60.12 LIG-0.35  N 
ATOM      4 H    LYS L   6     -24.023 -78.047 -30.004  1.00 60.12 LIG 0.16  HD
ENDROOT
BRANCH 3 5
ATOM      5  CA  LYS L   6     -24.793 -76.829 -28.651  1.00 64.44 LIG 0.18  C 
BRANCH 5 6
ATOM      6  CB  LYS L   6     -26.141 -77.042 -27.960  1.00 71.41 LIG 0.04  C 
BRANCH 6 7
ATOM      7  CG  LYS L   6     -26.797 -75.750 -27.483  1.00 72.05 LIG 0.00  C 
BRANCH 7 8
ATOM      8  CD  LYS L   6     -28.169 -75.999 -26.874  1.00 65.16 LIG 0.03  C 
BRANCH 8 9
ATOM      9  CE  LYS L   6     -29.169 -74.958 -27.355  1.00 70.38 LIG 0.23  C 
BRANCH 9 10
ATOM     10  NZ  LYS L   6     -29.517 -75.161 -28.790  1.00 74.13 LIG-0.08  N 
ATOM     11 HZ2  LYS L   6     -30.277 -75.621 -28.850  1.00 74.13 LIG 0.27  HD
ATOM     12 HZ1  LYS L   6     -28.865 -75.614 -29.193  1.00 74.13 LIG 0.27  HD
ATOM     13 HZ3  LYS L   6     -29.616 -74.371 -29.186  1.00 74.13 LIG 0.27  HD
ENDBRANCH 9 10
ENDBRANCH 8 9
ENDBRANCH 7 8
ENDBRANCH 6 7
ENDBRANCH 5 6
BRANCH 5 14
ATOM     14  C   LYS L   6     -23.773 -76.284 -27.663  1.00 59.21 LIG 0.24  C 
ATOM     15  N   LEU L   7     -23.589 -74.968 -27.647  1.00 55.77 LIG-0.35  N 
ATOM     16 H    LEU L   7     -24.048 -74.410 -28.115  1.00 55.77 LIG 0.16  HD
ATOM     17 O    LYS L   6     -23.149 -77.049 -26.935  1.00 62.62 LIG-0.27  OA
BRANCH 15 18
ATOM     18  CA  LEU L   7     -22.560 -74.356 -26.802  1.00 55.07 LIG 0.16  C 
BRANCH 18 19
ATOM     19  CB  LEU L   7     -21.384 -73.863 -27.651  1.00 49.39 LIG 0.04  C 
BRANCH 19 20
ATOM     20  CG  LEU L   7     -20.181 -74.803 -27.705  1.00 45.34 LIG-0.02  C 
ATOM     21  CD2 LEU L   7     -20.130 -75.671 -26.444  1.00 40.01 LIG 0.01  C 
ATOM     22  CD1 LEU L   7     -18.916 -73.982 -27.856  1.00 33.03 LIG 0.01  C 
ENDBRANCH 19 20
ENDBRANCH 18 19
BRANCH 18 23
ATOM     23  C   LEU L   7     -23.108 -73.212 -25.953  1.00 52.26 LIG 0.22  C 
ATOM     24 O    LEU L   7     -22.423 -72.211 -25.739  1.00 59.22 LIG-0.29  OA
ENDBRANCH 18 23
ENDBRANCH 15 18
ENDBRANCH 5 14
ENDBRANCH 3 5
BRANCH 1 25
ATOM     25  CA  LYS L   5     -23.889 -80.490 -29.172  1.00 63.64 LIG 0.18  C 
BRANCH 25 26
ATOM     26  N   LYS L   5     -22.745 -81.219 -28.622  1.00 68.83 LIG-0.35  N 
ATOM     27  C   ALA L   4     -21.718 -81.595 -29.384  1.00 74.38 LIG 0.26  C 
ATOM     28 O    ALA L   4     -21.612 -81.277 -30.573  1.00 71.28 LIG-0.27  OA
ATOM     29 H    LYS L   5     -22.799 -81.378 -27.778  1.00 68.83 LIG 0.16  HD
BRANCH 27 30
ATOM     30  CA  ALA L   4     -20.646 -82.461 -28.711  1.00 68.81 LIG 0.40  C 
ATOM     31  N   ALA L   4     -21.024 -82.780 -27.337  1.00 73.56 LIG 0.61  N 
ATOM     32  CB  ALA L   4     -20.394 -83.746 -29.512  1.00 57.48 LIG 0.06  C 
ENDBRANCH 27 30
ENDBRANCH 25 26
BRANCH 25 33
ATOM     33  CB  LYS L   5     -25.125 -81.393 -29.165  1.00 69.62 LIG 0.04  C 
BRANCH 33 34
ATOM     34  CG  LYS L   5     -26.437 -80.675 -29.426  1.00 80.66 LIG 0.00  C 
BRANCH 34 35
ATOM     35  CD  LYS L   5     -27.096 -81.192 -30.702  1.00 85.15 LIG 0.03  C 
BRANCH 35 36
ATOM     36  CE  LYS L   5     -28.501 -81.709 -30.431  1.00 90.30 LIG 0.23  C 
BRANCH 36 37
ATOM     37  NZ  LYS L   5     -29.521 -81.083 -31.323  1.00 90.68 LIG-0.08  N 
ATOM     38 HZ3  LYS L   5     -29.992 -80.484 -30.863  1.00 90.68 LIG 0.27  HD
ATOM     39 HZ2  LYS L   5     -30.067 -81.712 -31.637  1.00 90.68 LIG 0.27  HD
ATOM     40 HZ1  LYS L   5     -29.113 -80.679 -32.004  1.00 90.68 LIG 0.27  HD
ENDBRANCH 36 37
ENDBRANCH 35 36
ENDBRANCH 34 35
ENDBRANCH 33 34
ENDBRANCH 25 33
ENDBRANCH 1 25
TORSDOF 19
ENDMDL
MODEL 2
USER: ADFR SOLUTION from run 54
USER: SCORE 14.388790 LL:  -1.307 LR: -14.133 RR:   0.000 FEB:  -8.465
USER: RMSD 2.482930
USER: SEED 53
USER: STATUS no improvement in best in 3 clusters for 5 generations
USER: GENES 21
USER: genes 0 Translation |==|  0.51033 0.41206 0.41306
USER: genes 1 Rotation |==|  0.52389 0.54293 0.45463 0.99551
USER: genes 2 Torsion [C]-N--CA-[CB] |==|  0.46667
USER: genes 3 Torsion [N]-CA--CB-[CG] |==|  0.70768
USER: genes 4 Torsion [CA]-CB--CG-[CD] |==|  0.36584
USER: genes 5 Torsion [CB]-CG--CD-[CE] |==|  0.76318
USER: genes 6 Torsion [CG]-CD--CE-[NZ] |==|  0.79275
USER: genes 7 Torsion [CD]-CE--NZ-[HZ1] |==|  0.28227
USER: genes 8 Torsion [N]-CA--C-[N] |==|  0.46291
USER: genes 9 Torsion [C]-N--CA-[CB] |==|  0.47646
USER: genes 10 Torsion [N]-CA--CB-[CG] |==|  0.62790
USER: genes 11 Torsion [CA]-CB--CG-[CD2] |==|  0.98426
USER: genes 12 Torsion [N]-CA--C-[O] |==|  0.62349
USER: genes 13 Torsion [N]-C--CA-[N] |==|  0.36448
USER: genes 14 Torsion [C]-CA--N-[C] |==|  0.68212
USER: genes 15 Torsion [N]-C--CA-[N] |==|  0.22349
USER: genes 16 Torsion [C]-CA--CB-[CG] |==|  0.67273
USER: genes 17 Torsion [CA]-CB--CG-[CD] |==|  0.50627
USER: genes 18 Torsion [CB]-CG--CD-[CE] |==|  0.13957
USER: genes 19 Torsion [CG]-CD--CE-[NZ] |==|  0.63239
USER: genes 20 Torsion [CD]-CE--NZ-[HZ2] |==|  0.06264
ROOT
ATOM      1  C   LYS L   5     -24.695 -77.894 -28.547  1.00 61.96 LIG 0.24  C 
ATOM      2 O    LYS L   5     -24.107 -77.468 -29.550  1.00 44.78 LIG-0.27  OA
ATOM      3  N   LYS L   6     -25.200 -77.091 -27.614  1.00 60.12 LIG-0.35  N 
ATOM      4 H    LYS L   6     -25.731 -77.353 -26.990  1.00 60.12 LIG 0.16  HD
ENDROOT
BRANCH 3 5
ATOM      5  CA  LYS L   6     -24.881 -75.667 -27.580  1.00 64.44 LIG 0.18  C 
BRANCH 5 6
ATOM      6  CB  LYS L   6     -25.802 -74.921 -26.614  1.00 71.41 LIG 0.04  C 
BRANCH 6 7
ATOM      7  CG  LYS L   6     -26.874 -74.087 -27.308  1.00 72.05 LIG 0.00  C 
BRANCH 7 8
ATOM      8  CD  LYS L   6     -28.255 -74.326 -26.716  1.00 65.16 LIG 0.03  C 
BRANCH 8 9
ATOM      9  CE  LYS L   6     -28.914 -75.538 -27.358  1.00 70.38 LIG 0.23  C 
BRANCH 9 10
ATOM     10  NZ  LYS L   6     -29.391 -75.231 -28.737  1.00 74.13 LIG-0.08  N 
ATOM     11 HZ2  LYS L   6     -30.192 -75.598 -28.862  1.00 74.13 LIG 0.27  HD
ATOM     12 HZ1  LYS L   6     -28.817 -75.563 -29.330  1.00 74.13 LIG 0.27  HD
ATOM     13 HZ3  LYS L   6     -29.449 -74.349 -28.842  1.00 74.13 LIG 0.27  HD
ENDBRANCH 9 10
ENDBRANCH 8 9
ENDBRANCH 7 8
ENDBRANCH 6 7
ENDBRANCH 5 6
BRANCH 5 14
ATOM     14  C   LYS L   6     -23.431 -75.527 -27.143  1.00 59.21 LIG 0.24  C 
ATOM     15  N   LEU L   7     -22.861 -74.338 -27.308  1.00 55.77 LIG-0.35  N 
ATOM     16 H    LEU L   7     -23.275 -73.638 -27.590  1.00 55.77 LIG 0.16  HD
ATOM     17 O    LYS L   6     -22.831 -76.490 -26.676  1.00 62.62 LIG-0.27  OA
BRANCH 15 18
ATOM     18  CA  LEU L   7     -21.442 -74.129 -27.011  1.00 55.07 LIG 0.16  C 
BRANCH 18 19
ATOM     19  CB  LEU L   7     -20.987 -72.743 -27.479  1.00 49.39 LIG 0.04  C 
BRANCH 19 20
ATOM     20  CG  LEU L   7     -19.667 -72.715 -28.246  1.00 45.34 LIG-0.02  C 
ATOM     21  CD2 LEU L   7     -19.025 -74.106 -28.246  1.00 40.01 LIG 0.01  C 
ATOM     22  CD1 LEU L   7     -18.748 -71.687 -27.615  1.00 33.03 LIG 0.01  C 
ENDBRANCH 19 20
ENDBRANCH 18 19
BRANCH 18 23
ATOM     23  C   LEU L   7     -21.124 -74.311 -25.529  1.00 52.26 LIG 0.22  C 
ATOM     24 O    LEU L   7     -20.396 -73.508 -24.944  1.00 59.22 LIG-0.29  OA
ENDBRANCH 18 23
ENDBRANCH 15 18
ENDBRANCH 5 14
ENDBRANCH 3 5
BRANCH 1 25
ATOM     25  CA  LYS L   5     -24.887 -79.401 -28.320  1.00 63.64 LIG 0.18  C 
BRANCH 25 26
ATOM     26  N   LYS L   5     -25.406 -80.111 -29.490  1.00 68.83 LIG-0.35  N 
ATOM     27  C   ALA L   4     -26.610 -80.683 -29.489  1.00 74.38 LIG 0.26  C 
ATOM     28 O    ALA L   4     -27.403 -80.576 -28.548  1.00 71.28 LIG-0.27  OA
ATOM     29 H    LYS L   5     -24.870 -80.123 -30.163  1.00 68.83 LIG 0.16  HD
BRANCH 27 30
ATOM     30  CA  ALA L   4     -26.981 -81.501 -30.732  1.00 68.81 LIG 0.40  C 
ATOM     31  N   ALA L   4     -26.382 -82.831 -30.676  1.00 73.56 LIG 0.61  N 
ATOM     32  CB  ALA L   4     -28.505 -81.603 -30.888  1.00 57.48 LIG 0.06  C 
ENDBRANCH 27 30
ENDBRANCH 25 26
BRANCH 25 33
ATOM     33  CB  LYS L   5     -23.560 -80.031 -27.884  1.00 69.62 LIG 0.04  C 
BRANCH 33 34
ATOM     34  CG  LYS L   5     -23.013 -81.079 -28.835  1.00 80.66 LIG 0.00  C 
BRANCH 34 35
ATOM     35  CD  LYS L   5     -21.723 -81.687 -28.292  1.00 85.15 LIG 0.03  C 
BRANCH 35 36
ATOM     36  CE  LYS L   5     -21.889 -82.144 -26.850  1.00 90.30 LIG 0.23  C 
BRANCH 36 37
ATOM     37  NZ  LYS L   5     -20.771 -81.683 -25.974  1.00 90.68 LIG-0.08  N 
ATOM     38 HZ3  LYS L   5     -21.091 -81.466 -25.173  1.00 90.68 LIG 0.27  HD
ATOM     39 HZ2  LYS L   5     -20.381 -80.972 -26.340  1.00 90.68 LIG 0.27  HD
ATOM     40 HZ1  LYS L   5     -20.173 -82.337 -25.887  1.00 90.68 LIG 0.27  HD
ENDBRANCH 36 37
ENDBRANCH 35 36
ENDBRANCH 34 35
ENDBRANCH 33 34
ENDBRANCH 25 33
ENDBRANCH 1 25
TORSDOF 19
ENDMDL
MODEL 3
USER: ADFR SOLUTION from run 183
USER: SCORE 14.332859 LL:  -1.946 LR: -13.763 RR:   0.000 FEB:  -8.095
USER: RMSD 4.112668
USER: SEED 182
USER: STATUS no improvement in best in 6 clusters for 5 generations
USER: GENES 21
USER: genes 0 Translation |==|  0.50159 0.41696 0.39473
USER: genes 1 Rotation |==|  0.56863 0.38353 0.50627 0.98134
USER: genes 2 Torsion [C]-N--CA-[CB] |==|  0.51667
USER: genes 3 Torsion [N]-CA--CB-[CG] |==|  0.39233
USER: genes 4 Torsion [CA]-CB--CG-[CD] |==|  0.26513
USER: genes 5 Torsion [CB]-CG--CD-[CE] |==|  0.71975
USER: genes 6 Torsion [CG]-CD--CE-[NZ] |==|  0.26483
USER: genes 7 Torsion [CD]-CE--NZ-[HZ1] |==|  0.10633
USER: genes 8 Torsion [N]-CA--C-[N] |==|  0.33155
USER: genes 9 Torsion [C]-N--CA-[CB] |==|  0.29649
USER: genes 10 Torsion [N]-CA--CB-[CG] |==|  0.38552
USER: genes 11 Torsion [CA]-CB--CG-[CD2] |==|  0.67802
USER: genes 12 Torsion [N]-CA--C-[O] |==|  0.93117
USER: genes 13 Torsion [N]-C--CA-[N] |==|  0.68795
USER: genes 14 Torsion [C]-CA--N-[C] |==|  0.67108
USER: genes 15 Torsion [N]-C--CA-[N] |==|  0.55566
USER: genes 16 Torsion [C]-CA--CB-[CG] |==|  0.42194
USER: genes 17 Torsion [CA]-CB--CG-[CD] |==|  0.72355
USER: genes 18 Torsion [CB]-CG--CD-[CE] |==|  0.67665
USER: genes 19 Torsion [CG]-CD--CE-[NZ] |==|  0.44313
USER: genes 20 Torsion [CD]-CE--NZ-[HZ2] |==|  0.39073
ROOT
ATOM      1  C   LYS L   5     -24.865 -77.787 -28.808  1.00 61.96 LIG 0.24  C 
ATOM      2 O    LYS L   5     -23.885 -77.130 -29.186  1.00 44.78 LIG-0.27  OA
ATOM      3  N   LYS L   6     -25.971 -77.221 -28.333  1.00 60.12 LIG-0.35  N 
ATOM      4 H    LYS L   6     -26.709 -77.643 -28.201  1.00 60.12 LIG 0.16  HD
ENDROOT
BRANCH 3 5
ATOM      5  CA  LYS L   6     -26.016 -75.803 -27.992  1.00 64.44 LIG 0.18  C 
BRANCH 5 6
ATOM      6  CB  LYS L   6     -27.347 -75.437 -27.334  1.00 71.41 LIG 0.04  C 
BRANCH 6 7
ATOM      7  CG  LYS L   6     -27.212 -74.435 -26.192  1.00 72.05 LIG 0.00  C 
BRANCH 7 8
ATOM      8  CD  LYS L   6     -27.453 -73.006 -26.655  1.00 65.16 LIG 0.03  C 
BRANCH 8 9
ATOM      9  CE  LYS L   6     -26.135 -72.273 -26.851  1.00 70.38 LIG 0.23  C 
BRANCH 9 10
ATOM     10  NZ  LYS L   6     -25.690 -72.325 -28.273  1.00 74.13 LIG-0.08  N 
ATOM     11 HZ2  LYS L   6     -25.121 -71.659 -28.431  1.00 74.13 LIG 0.27  HD
ATOM     12 HZ1  LYS L   6     -26.396 -72.246 -28.808  1.00 74.13 LIG 0.27  HD
ATOM     13 HZ3  LYS L   6     -25.286 -73.103 -28.429  1.00 74.13 LIG 0.27  HD
ENDBRANCH 9 10
ENDBRANCH 8 9
ENDBRANCH 7 8
ENDBRANCH 6 7
ENDBRANCH 5 6
BRANCH 5 14
ATOM     14  C   LYS L   6     -24.860 -75.518 -27.045  1.00 59.21 LIG 0.24  C 
ATOM     15  N   LEU L   7     -23.952 -74.634 -27.446  1.00 55.77 LIG-0.35  N 
ATOM     16 H    LEU L   7     -24.009 -74.180 -28.175  1.00 55.77 LIG 0.16  HD
ATOM     17 O    LYS L   6     -24.785 -76.102 -25.969  1.00 62.62 LIG-0.27  OA
BRANCH 15 18
ATOM     18  CA  LEU L   7     -22.753 -74.365 -26.650  1.00 55.07 LIG 0.16  C 
BRANCH 18 19
ATOM     19  CB  LEU L   7     -21.514 -74.983 -27.308  1.00 49.39 LIG 0.04  C 
BRANCH 19 20
ATOM     20  CG  LEU L   7     -20.260 -74.112 -27.280  1.00 45.34 LIG-0.02  C 
ATOM     21  CD2 LEU L   7     -19.846 -73.734 -28.707  1.00 40.01 LIG 0.01  C 
ATOM     22  CD1 LEU L   7     -19.151 -74.862 -26.569  1.00 33.03 LIG 0.01  C 
ENDBRANCH 19 20
ENDBRANCH 18 19
BRANCH 18 23
ATOM     23  C   LEU L   7     -22.532 -72.872 -26.417  1.00 52.26 LIG 0.22  C 
ATOM     24 O    LEU L   7     -22.996 -72.044 -27.201  1.00 59.22 LIG-0.29  OA
ENDBRANCH 18 23
ENDBRANCH 15 18
ENDBRANCH 5 14
ENDBRANCH 3 5
BRANCH 1 25
ATOM     25  CA  LYS L   5     -24.864 -79.322 -28.874  1.00 63.64 LIG 0.18  C 
BRANCH 25 26
ATOM     26  N   LYS L   5     -23.925 -79.951 -27.944  1.00 68.83 LIG-0.35  N 
ATOM     27  C   ALA L   4     -22.914 -80.709 -28.370  1.00 74.38 LIG 0.26  C 
ATOM     28 O    ALA L   4     -22.643 -80.857 -29.566  1.00 71.28 LIG-0.27  OA
ATOM     29 H    LYS L   5     -24.084 -79.787 -27.115  1.00 68.83 LIG 0.16  HD
BRANCH 27 30
ATOM     30  CA  ALA L   4     -22.081 -81.409 -27.289  1.00 68.81 LIG 0.40  C 
ATOM     31  N   ALA L   4     -20.775 -81.799 -27.813  1.00 73.56 LIG 0.61  N 
ATOM     32  CB  ALA L   4     -21.920 -80.513 -26.053  1.00 57.48 LIG 0.06  C 
ENDBRANCH 27 30
ENDBRANCH 25 26
BRANCH 25 33
ATOM     33  CB  LYS L   5     -26.277 -79.851 -28.611  1.00 69.62 LIG 0.04  C 
BRANCH 33 34
ATOM     34  CG  LYS L   5     -26.589 -81.183 -29.269  1.00 80.66 LIG 0.00  C 
BRANCH 34 35
ATOM     35  CD  LYS L   5     -27.382 -80.983 -30.556  1.00 85.15 LIG 0.03  C 
BRANCH 35 36
ATOM     36  CE  LYS L   5     -28.768 -81.604 -30.457  1.00 90.30 LIG 0.23  C 
BRANCH 36 37
ATOM     37  NZ  LYS L   5     -29.722 -81.032 -31.452  1.00 90.68 LIG-0.08  N 
ATOM     38 HZ3  LYS L   5     -30.232 -80.418 -31.057  1.00 90.68 LIG 0.27  HD
ATOM     39 HZ2  LYS L   5     -30.238 -81.681 -31.777  1.00 90.68 LIG 0.27  HD
ATOM     40 HZ1  LYS L   5     -29.267 -80.655 -32.118  1.00 90.68 LIG 0.27  HD
ENDBRANCH 36 37
ENDBRANCH 35 36
ENDBRANCH 34 35
ENDBRANCH 33 34
ENDBRANCH 25 33
ENDBRANCH 1 25
TORSDOF 19
ENDMDL
MODEL 4
USER: ADFR SOLUTION from run 98
USER: SCORE 14.179519 LL:  -1.357 LR: -13.626 RR:   0.000 FEB:  -7.959
USER: RMSD 2.900545
USER: SEED 97
USER: STATUS no improvement in best in 7 clusters for 5 generations
USER: GENES 21
USER: genes 0 Translation |==|  0.46786 0.45400 0.42359
USER: genes 1 Rotation |==|  0.52592 0.43717 0.61061 0.98285
USER: genes 2 Torsion [C]-N--CA-[CB] |==|  0.50557
USER: genes 3 Torsion [N]-CA--CB-[CG] |==|  0.53913
USER: genes 4 Torsion [CA]-CB--CG-[CD] |==|  0.27506
USER: genes 5 Torsion [CB]-CG--CD-[CE] |==|  0.22486
USER: genes 6 Torsion [CG]-CD--CE-[NZ] |==|  0.68451
USER: genes 7 Torsion [CD]-CE--NZ-[HZ1] |==|  0.42627
USER: genes 8 Torsion [N]-CA--C-[N] |==|  0.41153
USER: genes 9 Torsion [C]-N--CA-[CB] |==|  0.48183
USER: genes 10 Torsion [N]-CA--CB-[CG] |==|  0.62706
USER: genes 11 Torsion [CA]-CB--CG-[CD2] |==|  0.94600
USER: genes 12 Torsion [N]-CA--C-[O] |==|  0.90976
USER: genes 13 Torsion [N]-C--CA-[N] |==|  0.27099
USER: genes 14 Torsion [C]-CA--N-[C] |==|  0.73863
USER: genes 15 Torsion [N]-C--CA-[N] |==|  0.25014
USER: genes 16 Torsion [C]-CA--CB-[CG] |==|  0.46610
USER: genes 17 Torsion [CA]-CB--CG-[CD] |==|  0.66053
USER: genes 18 Torsion [CB]-CG--CD-[CE] |==|  0.45519
USER: genes 19 Torsion [CG]-CD--CE-[NZ] |==|  0.25555
USER: genes 20 Torsion [CD]-CE--NZ-[HZ2] |==|  0.59990
ROOT
ATOM      1  C   LYS L   5     -25.523 -76.982 -28.397  1.00 61.96 LIG 0.24  C 
ATOM      2 O    LYS L   5     -24.926 -76.154 -29.099  1.00 44.78 LIG-0.27  OA
ATOM      3  N   LYS L   6     -26.714 -76.740 -27.856  1.00 60.12 LIG-0.35  N 
ATOM      4 H    LYS L   6     -27.207 -77.343 -27.490  1.00 60.12 LIG 0.16  HD
ENDROOT
BRANCH 3 5
ATOM      5  CA  LYS L   6     -27.289 -75.400 -27.845  1.00 64.44 LIG 0.18  C 
BRANCH 5 6
ATOM      6  CB  LYS L   6     -28.638 -75.385 -27.124  1.00 71.41 LIG 0.04  C 
BRANCH 6 7
ATOM      7  CG  LYS L   6     -29.449 -74.115 -27.364  1.00 72.05 LIG 0.00  C 
BRANCH 7 8
ATOM      8  CD  LYS L   6     -30.512 -74.311 -28.433  1.00 65.16 LIG 0.03  C 
BRANCH 8 9
ATOM      9  CE  LYS L   6     -31.742 -74.993 -27.852  1.00 70.38 LIG 0.23  C 
BRANCH 9 10
ATOM     10  NZ  LYS L   6     -31.931 -76.356 -28.427  1.00 74.13 LIG-0.08  N 
ATOM     11 HZ2  LYS L   6     -32.397 -76.297 -29.183  1.00 74.13 LIG 0.27  HD
ATOM     12 HZ1  LYS L   6     -32.373 -76.864 -27.846  1.00 74.13 LIG 0.27  HD
ATOM     13 HZ3  LYS L   6     -31.137 -76.720 -28.595  1.00 74.13 LIG 0.27  HD
ENDBRANCH 9 10
ENDBRANCH 8 9
ENDBRANCH 7 8
ENDBRANCH 6 7
ENDBRANCH 5 6
BRANCH 5 14
ATOM     14  C   LYS L   6     -26.303 -74.478 -27.143  1.00 59.21 LIG 0.24  C 
ATOM     15  N   LEU L   7     -26.260 -73.214 -27.551  1.00 55.77 LIG-0.35  N 
ATOM     16 H    LEU L   7     -26.788 -72.878 -28.141  1.00 55.77 LIG 0.16  HD
ATOM     17 O    LYS L   6     -25.580 -74.912 -26.252  1.00 62.62 LIG-0.27  OA
BRANCH 15 18
ATOM     18  CA  LEU L   7     -25.277 -72.275 -27.006  1.00 55.07 LIG 0.16  C 
BRANCH 18 19
ATOM     19  CB  LEU L   7     -25.330 -70.938 -27.752  1.00 49.39 LIG 0.04  C 
BRANCH 19 20
ATOM     20  CG  LEU L   7     -23.974 -70.360 -28.151  1.00 45.34 LIG-0.02  C 
ATOM     21  CD2 LEU L   7     -22.861 -70.992 -27.309  1.00 40.01 LIG 0.01  C 
ATOM     22  CD1 LEU L   7     -24.006 -68.855 -27.977  1.00 33.03 LIG 0.01  C 
ENDBRANCH 19 20
ENDBRANCH 18 19
BRANCH 18 23
ATOM     23  C   LEU L   7     -25.459 -72.046 -25.507  1.00 52.26 LIG 0.22  C 
ATOM     24 O    LEU L   7     -26.582 -72.084 -25.004  1.00 59.22 LIG-0.29  OA
ENDBRANCH 18 23
ENDBRANCH 15 18
ENDBRANCH 5 14
ENDBRANCH 3 5
BRANCH 1 25
ATOM     25  CA  LYS L   5     -24.916 -78.364 -28.110  1.00 63.64 LIG 0.18  C 
BRANCH 25 26
ATOM     26  N   LYS L   5     -25.133 -79.336 -29.183  1.00 68.83 LIG-0.35  N 
ATOM     27  C   ALA L   4     -26.163 -80.182 -29.168  1.00 74.38 LIG 0.26  C 
ATOM     28 O    ALA L   4     -27.050 -80.145 -28.309  1.00 71.28 LIG-0.27  OA
ATOM     29 H    LYS L   5     -24.544 -79.308 -29.810  1.00 68.83 LIG 0.16  HD
BRANCH 27 30
ATOM     30  CA  ALA L   4     -26.204 -81.231 -30.286  1.00 68.81 LIG 0.40  C 
ATOM     31  N   ALA L   4     -25.502 -82.446 -29.884  1.00 73.56 LIG 0.61  N 
ATOM     32  CB  ALA L   4     -27.651 -81.552 -30.685  1.00 57.48 LIG 0.06  C 
ENDBRANCH 27 30
ENDBRANCH 25 26
BRANCH 25 33
ATOM     33  CB  LYS L   5     -23.414 -78.223 -27.841  1.00 69.62 LIG 0.04  C 
BRANCH 33 34
ATOM     34  CG  LYS L   5     -22.754 -79.461 -27.263  1.00 80.66 LIG 0.00  C 
BRANCH 34 35
ATOM     35  CD  LYS L   5     -22.086 -79.149 -25.928  1.00 85.15 LIG 0.03  C 
BRANCH 35 36
ATOM     36  CE  LYS L   5     -21.770 -80.421 -25.154  1.00 90.30 LIG 0.23  C 
BRANCH 36 37
ATOM     37  NZ  LYS L   5     -20.396 -80.932 -25.433  1.00 90.68 LIG-0.08  N 
ATOM     38 HZ3  LYS L   5     -20.125 -80.637 -26.228  1.00 90.68 LIG 0.27  HD
ATOM     39 HZ2  LYS L   5     -20.404 -81.822 -25.435  1.00 90.68 LIG 0.27  HD
ATOM     40 HZ1  LYS L   5     -19.837 -80.642 -24.803  1.00 90.68 LIG 0.27  HD
ENDBRANCH 36 37
ENDBRANCH 35 36
ENDBRANCH 34 35
ENDBRANCH 33 34
ENDBRANCH 25 33
ENDBRANCH 1 25
TORSDOF 19
ENDMDL
MODEL 5
USER: ADFR SOLUTION from run 27
USER: SCORE 13.938464 LL:  -1.430 LR: -13.628 RR:   0.000 FEB:  -7.961
USER: RMSD 6.295124
USER: SEED 26
USER: STATUS no improvement in best in 2 clusters for 5 generations
USER: GENES 21
USER: genes 0 Translation |==|  0.53259 0.43350 0.53546
USER: genes 1 Rotation |==|  0.36086 0.13298 0.24820 0.68036
USER: genes 2 Torsion [C]-N--CA-[CB] |==|  0.22403
USER: genes 3 Torsion [N]-CA--CB-[CG] |==|  0.53616
USER: genes 4 Torsion [CA]-CB--CG-[CD] |==|  0.43104
USER: genes 5 Torsion [CB]-CG--CD-[CE] |==|  0.36070
USER: genes 6 Torsion [CG]-CD--CE-[NZ] |==|  0.51658
USER: genes 7 Torsion [CD]-CE--NZ-[HZ1] |==|  0.36477
USER: genes 8 Torsion [N]-CA--C-[N] |==|  0.69998
USER: genes 9 Torsion [C]-N--CA-[CB] |==|  0.18393
USER: genes 10 Torsion [N]-CA--CB-[CG] |==|  0.49276
USER: genes 11 Torsion [CA]-CB--CG-[CD2] |==|  0.57789
USER: genes 12 Torsion [N]-CA--C-[O] |==|  0.91155
USER: genes 13 Torsion [N]-C--CA-[N] |==|  0.35598
USER: genes 14 Torsion [C]-CA--N-[C] |==|  0.83169
USER: genes 15 Torsion [N]-C--CA-[N] |==|  0.21224
USER: genes 16 Torsion [C]-CA--CB-[CG] |==|  0.28333
USER: genes 17 Torsion [CA]-CB--CG-[CD] |==|  0.44869
USER: genes 18 Torsion [CB]-CG--CD-[CE] |==|  0.66707
USER: genes 19 Torsion [CG]-CD--CE-[NZ] |==|  0.36228
USER: genes 20 Torsion [CD]-CE--NZ-[HZ2] |==|  0.97640
ROOT
ATOM      1  C   LYS L   5     -24.260 -77.427 -26.803  1.00 61.96 LIG 0.24  C 
ATOM      2 O    LYS L   5     -24.077 -78.125 -25.796  1.00 44.78 LIG-0.27  OA
ATOM      3  N   LYS L   6     -23.391 -76.504 -27.207  1.00 60.12 LIG-0.35  N 
ATOM      4 H    LYS L   6     -23.427 -76.113 -27.972  1.00 60.12 LIG 0.16  HD
ENDROOT
BRANCH 3 5
ATOM      5  CA  LYS L   6     -22.283 -76.077 -26.359  1.00 64.44 LIG 0.18  C 
BRANCH 5 6
ATOM      6  CB  LYS L   6     -21.123 -77.071 -26.428  1.00 71.41 LIG 0.04  C 
BRANCH 6 7
ATOM      7  CG  LYS L   6     -20.071 -76.863 -25.344  1.00 72.05 LIG 0.00  C 
BRANCH 7 8
ATOM      8  CD  LYS L   6     -19.300 -78.140 -25.045  1.00 65.16 LIG 0.03  C 
BRANCH 8 9
ATOM      9  CE  LYS L   6     -17.800 -77.884 -25.076  1.00 70.38 LIG 0.23  C 
BRANCH 9 10
ATOM     10  NZ  LYS L   6     -17.029 -79.151 -24.927  1.00 74.13 LIG-0.08  N 
ATOM     11 HZ2  LYS L   6     -16.645 -79.173 -24.125  1.00 74.13 LIG 0.27  HD
ATOM     12 HZ1  LYS L   6     -16.402 -79.193 -25.557  1.00 74.13 LIG 0.27  HD
ATOM     13 HZ3  LYS L   6     -17.579 -79.845 -25.012  1.00 74.13 LIG 0.27  HD
ENDBRANCH 9 10
ENDBRANCH 8 9
ENDBRANCH 7 8
ENDBRANCH 6 7
ENDBRANCH 5 6
BRANCH 5 14
ATOM     14  C   LYS L   6     -21.835 -74.705 -26.839  1.00 59.21 LIG 0.24  C 
ATOM     15  N   LEU L   7     -20.671 -74.637 -27.476  1.00 55.77 LIG-0.35  N 
ATOM     16 H    LEU L   7     -20.191 -75.322 -27.681  1.00 55.77 LIG 0.16  HD
ATOM     17 O    LYS L   6     -22.529 -73.718 -26.620  1.00 62.62 LIG-0.27  OA
BRANCH 15 18
ATOM     18  CA  LEU L   7     -20.107 -73.350 -27.890  1.00 55.07 LIG 0.16  C 
BRANCH 18 19
ATOM     19  CB  LEU L   7     -19.730 -72.505 -26.668  1.00 49.39 LIG 0.04  C 
BRANCH 19 20
ATOM     20  CG  LEU L   7     -19.072 -71.163 -26.983  1.00 45.34 LIG-0.02  C 
ATOM     21  CD2 LEU L   7     -18.149 -70.744 -25.834  1.00 40.01 LIG 0.01  C 
ATOM     22  CD1 LEU L   7     -20.151 -70.126 -27.225  1.00 33.03 LIG 0.01  C 
ENDBRANCH 19 20
ENDBRANCH 18 19
BRANCH 18 23
ATOM     23  C   LEU L   7     -18.897 -73.513 -28.807  1.00 52.26 LIG 0.22  C 
ATOM     24 O    LEU L   7     -18.147 -74.481 -28.683  1.00 59.22 LIG-0.29  OA
ENDBRANCH 18 23
ENDBRANCH 15 18
ENDBRANCH 5 14
ENDBRANCH 3 5
BRANCH 1 25
ATOM     25  CA  LYS L   5     -25.522 -77.594 -27.665  1.00 63.64 LIG 0.18  C 
BRANCH 25 26
ATOM     26  N   LYS L   5     -25.778 -78.976 -28.071  1.00 68.83 LIG-0.35  N 
ATOM     27  C   ALA L   4     -24.907 -79.666 -28.809  1.00 74.38 LIG 0.26  C 
ATOM     28 O    ALA L   4     -23.794 -79.228 -29.118  1.00 71.28 LIG-0.27  OA
ATOM     29 H    LYS L   5     -26.527 -79.294 -27.794  1.00 68.83 LIG 0.16  HD
BRANCH 27 30
ATOM     30  CA  ALA L   4     -25.352 -81.059 -29.271  1.00 68.81 LIG 0.40  C 
ATOM     31  N   ALA L   4     -26.297 -80.961 -30.379  1.00 73.56 LIG 0.61  N 
ATOM     32  CB  ALA L   4     -24.143 -81.918 -29.669  1.00 57.48 LIG 0.06  C 
ENDBRANCH 27 30
ENDBRANCH 25 26
BRANCH 25 33
ATOM     33  CB  LYS L   5     -26.738 -77.047 -26.911  1.00 69.62 LIG 0.04  C 
BRANCH 33 34
ATOM     34  CG  LYS L   5     -27.200 -75.674 -27.363  1.00 80.66 LIG 0.00  C 
BRANCH 34 35
ATOM     35  CD  LYS L   5     -28.632 -75.405 -26.911  1.00 85.15 LIG 0.03  C 
BRANCH 35 36
ATOM     36  CE  LYS L   5     -29.552 -75.158 -28.099  1.00 90.30 LIG 0.23  C 
BRANCH 36 37
ATOM     37  NZ  LYS L   5     -30.796 -75.981 -28.037  1.00 90.68 LIG-0.08  N 
ATOM     38 HZ3  LYS L   5     -31.496 -75.451 -27.894  1.00 90.68 LIG 0.27  HD
ATOM     39 HZ2  LYS L   5     -30.730 -76.570 -27.374  1.00 90.68 LIG 0.27  HD
ATOM     40 HZ1  LYS L   5     -30.904 -76.414 -28.808  1.00 90.68 LIG 0.27  HD
ENDBRANCH 36 37
ENDBRANCH 35 36
ENDBRANCH 34 35
ENDBRANCH 33 34
ENDBRANCH 25 33
ENDBRANCH 1 25
TORSDOF 19
ENDMDL
MODEL 6
USER: ADFR SOLUTION from run 35
USER: SCORE 14.423976 LL:  -1.632 LR: -13.505 RR:   0.000 FEB:  -7.837
USER: RMSD 3.682288
USER: SEED 34
USER: STATUS no improvement in best in 9 clusters for 5 generations
USER: GENES 21
USER: genes 0 Translation |==|  0.61433 0.37728 0.54168
USER: genes 1 Rotation |==|  0.49091 0.28683 0.63650 0.93110
USER: genes 2 Torsion [C]-N--CA-[CB] |==|  0.54847
USER: genes 3 Torsion [N]-CA--CB-[CG] |==|  0.51843
USER: genes 4 Torsion [CA]-CB--CG-[CD] |==|  0.64711
USER: genes 5 Torsion [CB]-CG--CD-[CE] |==|  0.93714
USER: genes 6 Torsion [CG]-CD--CE-[NZ] |==|  0.74405
USER: genes 7 Torsion [CD]-CE--NZ-[HZ1] |==|  0.35516
USER: genes 8 Torsion [N]-CA--C-[N] |==|  0.30237
USER: genes 9 Torsion [C]-N--CA-[CB] |==|  0.45516
USER: genes 10 Torsion [N]-CA--CB-[CG] |==|  0.84450
USER: genes 11 Torsion [CA]-CB--CG-[CD2] |==|  0.81394
USER: genes 12 Torsion [N]-CA--C-[O] |==|  0.77608
USER: genes 13 Torsion [N]-C--CA-[N] |==|  0.33031
USER: genes 14 Torsion [C]-CA--N-[C] |==|  0.82778
USER: genes 15 Torsion [N]-C--CA-[N] |==|  0.20872
USER: genes 16 Torsion [C]-CA--CB-[CG] |==|  0.68550
USER: genes 17 Torsion [CA]-CB--CG-[CD] |==|  0.21036
USER: genes 18 Torsion [CB]-CG--CD-[CE] |==|  0.44683
USER: genes 19 Torsion [CG]-CD--CE-[NZ] |==|  0.25479
USER: genes 20 Torsion [CD]-CE--NZ-[HZ2] |==|  0.33380
ROOT
ATOM      1  C   LYS L   5     -22.666 -78.650 -26.714  1.00 61.96 LIG 0.24  C 
ATOM      2 O    LYS L   5     -21.844 -77.752 -26.937  1.00 44.78 LIG-0.27  OA
ATOM      3  N   LYS L   6     -23.957 -78.536 -27.018  1.00 60.12 LIG-0.35  N 
ATOM      4 H    LYS L   6     -24.514 -79.191 -27.006  1.00 60.12 LIG 0.16  HD
ENDROOT
BRANCH 3 5
ATOM      5  CA  LYS L   6     -24.538 -77.255 -27.407  1.00 64.44 LIG 0.18  C 
BRANCH 5 6
ATOM      6  CB  LYS L   6     -26.062 -77.283 -27.286  1.00 71.41 LIG 0.04  C 
BRANCH 6 7
ATOM      7  CG  LYS L   6     -26.744 -76.031 -27.828  1.00 72.05 LIG 0.00  C 
BRANCH 7 8
ATOM      8  CD  LYS L   6     -27.686 -75.408 -26.808  1.00 65.16 LIG 0.03  C 
BRANCH 8 9
ATOM      9  CE  LYS L   6     -28.125 -76.439 -25.780  1.00 70.38 LIG 0.23  C 
BRANCH 9 10
ATOM     10  NZ  LYS L   6     -29.396 -77.105 -26.186  1.00 74.13 LIG-0.08  N 
ATOM     11 HZ2  LYS L   6     -30.048 -76.866 -25.629  1.00 74.13 LIG 0.27  HD
ATOM     12 HZ1  LYS L   6     -29.290 -77.988 -26.156  1.00 74.13 LIG 0.27  HD
ATOM     13 HZ3  LYS L   6     -29.608 -76.860 -27.014  1.00 74.13 LIG 0.27  HD
ENDBRANCH 9 10
ENDBRANCH 8 9
ENDBRANCH 7 8
ENDBRANCH 6 7
ENDBRANCH 5 6
BRANCH 5 14
ATOM     14  C   LYS L   6     -23.954 -76.186 -26.495  1.00 59.21 LIG 0.24  C 
ATOM     15  N   LEU L   7     -23.091 -75.334 -27.037  1.00 55.77 LIG-0.35  N 
ATOM     16 H    LEU L   7     -22.889 -75.317 -27.873  1.00 55.77 LIG 0.16  HD
ATOM     17 O    LYS L   6     -24.272 -76.143 -25.311  1.00 62.62 LIG-0.27  OA
BRANCH 15 18
ATOM     18  CA  LEU L   7     -22.400 -74.332 -26.222  1.00 55.07 LIG 0.16  C 
BRANCH 18 19
ATOM     19  CB  LEU L   7     -21.195 -73.756 -26.973  1.00 49.39 LIG 0.04  C 
BRANCH 19 20
ATOM     20  CG  LEU L   7     -20.175 -74.786 -27.454  1.00 45.34 LIG-0.02  C 
ATOM     21  CD2 LEU L   7     -19.477 -75.439 -26.257  1.00 40.01 LIG 0.01  C 
ATOM     22  CD1 LEU L   7     -19.176 -74.105 -28.367  1.00 33.03 LIG 0.01  C 
ENDBRANCH 19 20
ENDBRANCH 18 19
BRANCH 18 23
ATOM     23  C   LEU L   7     -23.328 -73.204 -25.777  1.00 52.26 LIG 0.22  C 
ATOM     24 O    LEU L   7     -23.597 -72.279 -26.545  1.00 59.22 LIG-0.29  OA
ENDBRANCH 18 23
ENDBRANCH 15 18
ENDBRANCH 5 14
ENDBRANCH 3 5
BRANCH 1 25
ATOM     25  CA  LYS L   5     -22.238 -79.977 -26.069  1.00 63.64 LIG 0.18  C 
BRANCH 25 26
ATOM     26  N   LYS L   5     -21.251 -80.721 -26.853  1.00 68.83 LIG-0.35  N 
ATOM     27  C   ALA L   4     -21.521 -81.169 -28.080  1.00 74.38 LIG 0.26  C 
ATOM     28 O    ALA L   4     -22.573 -80.910 -28.673  1.00 71.28 LIG-0.27  OA
ATOM     29 H    LYS L   5     -20.498 -80.839 -26.455  1.00 68.83 LIG 0.16  HD
BRANCH 27 30
ATOM     30  CA  ALA L   4     -20.446 -82.041 -28.742  1.00 68.81 LIG 0.40  C 
ATOM     31  N   ALA L   4     -20.439 -83.382 -28.166  1.00 73.56 LIG 0.61  N 
ATOM     32  CB  ALA L   4     -20.654 -82.108 -30.262  1.00 57.48 LIG 0.06  C 
ENDBRANCH 27 30
ENDBRANCH 25 26
BRANCH 25 33
ATOM     33  CB  LYS L   5     -21.683 -79.713 -24.665  1.00 69.62 LIG 0.04  C 
BRANCH 33 34
ATOM     34  CG  LYS L   5     -20.201 -79.996 -24.505  1.00 80.66 LIG 0.00  C 
BRANCH 34 35
ATOM     35  CD  LYS L   5     -19.363 -78.892 -25.143  1.00 85.15 LIG 0.03  C 
BRANCH 35 36
ATOM     36  CE  LYS L   5     -17.939 -78.896 -24.607  1.00 90.30 LIG 0.23  C 
BRANCH 36 37
ATOM     37  NZ  LYS L   5     -17.020 -79.731 -25.435  1.00 90.68 LIG-0.08  N 
ATOM     38 HZ3  LYS L   5     -16.676 -80.381 -24.935  1.00 90.68 LIG 0.27  HD
ATOM     39 HZ2  LYS L   5     -16.362 -79.223 -25.753  1.00 90.68 LIG 0.27  HD
ATOM     40 HZ1  LYS L   5     -17.473 -80.087 -26.114  1.00 90.68 LIG 0.27  HD
ENDBRANCH 36 37
ENDBRANCH 35 36
ENDBRANCH 34 35
ENDBRANCH 33 34
ENDBRANCH 25 33
ENDBRANCH 1 25
TORSDOF 19
ENDMDL
MODEL 7
USER: ADFR SOLUTION from run 61
USER: SCORE 14.154333 LL:  -1.832 LR: -13.438 RR:   0.000 FEB:  -7.770
USER: RMSD 2.580266
USER: SEED 60
USER: STATUS searching
USER: GENES 21
USER: genes 0 Translation |==|  0.52089 0.49784 0.47613
USER: genes 1 Rotation |==|  0.42263 0.72643 0.49875 0.93902
USER: genes 2 Torsion [C]-N--CA-[CB] |==|  0.27726
USER: genes 3 Torsion [N]-CA--CB-[CG] |==|  0.01191
USER: genes 4 Torsion [CA]-CB--CG-[CD] |==|  0.76971
USER: genes 5 Torsion [CB]-CG--CD-[CE] |==|  0.70687
USER: genes 6 Torsion [CG]-CD--CE-[NZ] |==|  0.37552
USER: genes 7 Torsion [CD]-CE--NZ-[HZ1] |==|  0.06035
USER: genes 8 Torsion [N]-CA--C-[N] |==|  0.40035
USER: genes 9 Torsion [C]-N--CA-[CB] |==|  0.20491
USER: genes 10 Torsion [N]-CA--CB-[CG] |==|  0.17705
USER: genes 11 Torsion [CA]-CB--CG-[CD2] |==|  0.65796
USER: genes 12 Torsion [N]-CA--C-[O] |==|  0.91552
USER: genes 13 Torsion [N]-C--CA-[N] |==|  0.41515
USER: genes 14 Torsion [C]-CA--N-[C] |==|  0.81393
USER: genes 15 Torsion [N]-C--CA-[N] |==|  0.47313
USER: genes 16 Torsion [C]-CA--CB-[CG] |==|  0.23052
USER: genes 17 Torsion [CA]-CB--CG-[CD] |==|  0.36392
USER: genes 18 Torsion [CB]-CG--CD-[CE] |==|  0.88778
USER: genes 19 Torsion [CG]-CD--CE-[NZ] |==|  0.39690
USER: genes 20 Torsion [CD]-CE--NZ-[HZ2] |==|  0.95319
ROOT
ATOM      1  C   LYS L   5     -24.489 -76.028 -27.648  1.00 61.96 LIG 0.24  C 
ATOM      2 O    LYS L   5     -24.896 -75.951 -28.815  1.00 44.78 LIG-0.27  OA
ATOM      3  N   LYS L   6     -24.468 -74.984 -26.823  1.00 60.12 LIG-0.35  N 
ATOM      4 H    LYS L   6     -24.327 -75.043 -25.977  1.00 60.12 LIG 0.16  HD
ENDROOT
BRANCH 3 5
ATOM      5  CA  LYS L   6     -24.689 -73.626 -27.307  1.00 64.44 LIG 0.18  C 
BRANCH 5 6
ATOM      6  CB  LYS L   6     -26.126 -73.175 -27.044  1.00 71.41 LIG 0.04  C 
BRANCH 6 7
ATOM      7  CG  LYS L   6     -26.953 -74.187 -26.257  1.00 72.05 LIG 0.00  C 
BRANCH 7 8
ATOM      8  CD  LYS L   6     -27.532 -75.270 -27.154  1.00 65.16 LIG 0.03  C 
BRANCH 8 9
ATOM      9  CE  LYS L   6     -29.023 -75.054 -27.367  1.00 70.38 LIG 0.23  C 
BRANCH 9 10
ATOM     10  NZ  LYS L   6     -29.399 -75.231 -28.799  1.00 74.13 LIG-0.08  N 
ATOM     11 HZ2  LYS L   6     -30.187 -75.641 -28.850  1.00 74.13 LIG 0.27  HD
ATOM     12 HZ1  LYS L   6     -28.782 -75.723 -29.209  1.00 74.13 LIG 0.27  HD
ATOM     13 HZ3  LYS L   6     -29.452 -74.435 -29.192  1.00 74.13 LIG 0.27  HD
ENDBRANCH 9 10
ENDBRANCH 8 9
ENDBRANCH 7 8
ENDBRANCH 6 7
ENDBRANCH 5 6
BRANCH 5 14
ATOM     14  C   LYS L   6     -23.707 -72.712 -26.589  1.00 59.21 LIG 0.24  C 
ATOM     15  N   LEU L   7     -23.201 -71.700 -27.285  1.00 55.77 LIG-0.35  N 
ATOM     16 H    LEU L   7     -23.436 -71.500 -28.089  1.00 55.77 LIG 0.16  HD
ATOM     17 O    LYS L   6     -23.400 -72.932 -25.422  1.00 62.62 LIG-0.27  OA
BRANCH 15 18
ATOM     18  CA  LEU L   7     -22.175 -70.824 -26.714  1.00 55.07 LIG 0.16  C 
BRANCH 18 19
ATOM     19  CB  LEU L   7     -20.822 -71.540 -26.655  1.00 49.39 LIG 0.04  C 
BRANCH 19 20
ATOM     20  CG  LEU L   7     -20.228 -71.923 -28.009  1.00 45.34 LIG-0.02  C 
ATOM     21  CD2 LEU L   7     -19.963 -73.431 -28.064  1.00 40.01 LIG 0.01  C 
ATOM     22  CD1 LEU L   7     -18.953 -71.133 -28.233  1.00 33.03 LIG 0.01  C 
ENDBRANCH 19 20
ENDBRANCH 18 19
BRANCH 18 23
ATOM     23  C   LEU L   7     -22.039 -69.510 -27.479  1.00 52.26 LIG 0.22  C 
ATOM     24 O    LEU L   7     -22.275 -69.465 -28.687  1.00 59.22 LIG-0.29  OA
ENDBRANCH 18 23
ENDBRANCH 15 18
ENDBRANCH 5 14
ENDBRANCH 3 5
BRANCH 1 25
ATOM     25  CA  LYS L   5     -23.982 -77.359 -27.070  1.00 63.64 LIG 0.18  C 
BRANCH 25 26
ATOM     26  N   LYS L   5     -24.626 -78.536 -27.653  1.00 68.83 LIG-0.35  N 
ATOM     27  C   ALA L   4     -25.918 -78.801 -27.456  1.00 74.38 LIG 0.26  C 
ATOM     28 O    ALA L   4     -26.677 -78.034 -26.856  1.00 71.28 LIG-0.27  OA
ATOM     29 H    LYS L   5     -24.102 -79.030 -28.124  1.00 68.83 LIG 0.16  HD
BRANCH 27 30
ATOM     30  CA  ALA L   4     -26.438 -80.131 -28.017  1.00 68.81 LIG 0.40  C 
ATOM     31  N   ALA L   4     -27.791 -80.401 -27.541  1.00 73.56 LIG 0.61  N 
ATOM     32  CB  ALA L   4     -26.396 -80.133 -29.552  1.00 57.48 LIG 0.06  C 
ENDBRANCH 27 30
ENDBRANCH 25 26
BRANCH 25 33
ATOM     33  CB  LYS L   5     -22.465 -77.458 -27.257  1.00 69.62 LIG 0.04  C 
BRANCH 33 34
ATOM     34  CG  LYS L   5     -21.646 -76.749 -26.194  1.00 80.66 LIG 0.00  C 
BRANCH 34 35
ATOM     35  CD  LYS L   5     -20.552 -77.662 -25.651  1.00 85.15 LIG 0.03  C 
BRANCH 35 36
ATOM     36  CE  LYS L   5     -21.056 -79.086 -25.468  1.00 90.30 LIG 0.23  C 
BRANCH 36 37
ATOM     37  NZ  LYS L   5     -20.021 -80.106 -25.807  1.00 90.68 LIG-0.08  N 
ATOM     38 HZ3  LYS L   5     -19.677 -80.442 -25.058  1.00 90.68 LIG 0.27  HD
ATOM     39 HZ2  LYS L   5     -19.374 -79.725 -26.285  1.00 90.68 LIG 0.27  HD
ATOM     40 HZ1  LYS L   5     -20.394 -80.761 -26.282  1.00 90.68 LIG 0.27  HD
ENDBRANCH 36 37
ENDBRANCH 35 36
ENDBRANCH 34 35
ENDBRANCH 33 34
ENDBRANCH 25 33
ENDBRANCH 1 25
TORSDOF 19
ENDMDL
MODEL 8
USER: ADFR SOLUTION from run 67
USER: SCORE 13.753422 LL:  -1.304 LR: -13.403 RR:   0.000 FEB:  -7.735
USER: RMSD 3.251272
USER: SEED 66
USER: STATUS no improvement in best in 8 clusters for 5 generations
USER: GENES 21
USER: genes 0 Translation |==|  0.50602 0.34087 0.42723
USER: genes 1 Rotation |==|  0.57025 0.02250 0.44750 0.61958
USER: genes 2 Torsion [C]-N--CA-[CB] |==|  0.87154
USER: genes 3 Torsion [N]-CA--CB-[CG] |==|  0.42571
USER: genes 4 Torsion [CA]-CB--CG-[CD] |==|  0.29804
USER: genes 5 Torsion [CB]-CG--CD-[CE] |==|  0.19608
USER: genes 6 Torsion [CG]-CD--CE-[NZ] |==|  0.67167
USER: genes 7 Torsion [CD]-CE--NZ-[HZ1] |==|  0.44090
USER: genes 8 Torsion [N]-CA--C-[N] |==|  0.40939
USER: genes 9 Torsion [C]-N--CA-[CB] |==|  0.25494
USER: genes 10 Torsion [N]-CA--CB-[CG] |==|  0.51183
USER: genes 11 Torsion [CA]-CB--CG-[CD2] |==|  0.56818
USER: genes 12 Torsion [N]-CA--C-[O] |==|  0.88876
USER: genes 13 Torsion [N]-C--CA-[N] |==|  0.80219
USER: genes 14 Torsion [C]-CA--N-[C] |==|  0.69026
USER: genes 15 Torsion [N]-C--CA-[N] |==|  0.47808
USER: genes 16 Torsion [C]-CA--CB-[CG] |==|  0.35410
USER: genes 17 Torsion [CA]-CB--CG-[CD] |==|  0.46977
USER: genes 18 Torsion [CB]-CG--CD-[CE] |==|  0.37670
USER: genes 19 Torsion [CG]-CD--CE-[NZ] |==|  0.75116
USER: genes 20 Torsion [CD]-CE--NZ-[HZ2] |==|  0.65997
ROOT
ATOM      1  C   LYS L   5     -24.779 -79.442 -28.345  1.00 61.96 LIG 0.24  C 
ATOM      2 O    LYS L   5     -24.993 -79.362 -27.128  1.00 44.78 LIG-0.27  OA
ATOM      3  N   LYS L   6     -24.636 -78.372 -29.123  1.00 60.12 LIG-0.35  N 
ATOM      4 H    LYS L   6     -24.347 -78.401 -29.932  1.00 60.12 LIG 0.16  HD
ENDROOT
BRANCH 3 5
ATOM      5  CA  LYS L   6     -24.968 -77.033 -28.646  1.00 64.44 LIG 0.18  C 
BRANCH 5 6
ATOM      6  CB  LYS L   6     -26.320 -77.023 -27.932  1.00 71.41 LIG 0.04  C 
BRANCH 6 7
ATOM      7  CG  LYS L   6     -26.455 -75.920 -26.888  1.00 72.05 LIG 0.00  C 
BRANCH 7 8
ATOM      8  CD  LYS L   6     -27.384 -74.808 -27.350  1.00 65.16 LIG 0.03  C 
BRANCH 8 9
ATOM      9  CE  LYS L   6     -28.828 -75.287 -27.375  1.00 70.38 LIG 0.23  C 
BRANCH 9 10
ATOM     10  NZ  LYS L   6     -29.396 -75.231 -28.752  1.00 74.13 LIG-0.08  N 
ATOM     11 HZ2  LYS L   6     -29.658 -74.400 -28.932  1.00 74.13 LIG 0.27  HD
ATOM     12 HZ1  LYS L   6     -30.093 -75.780 -28.808  1.00 74.13 LIG 0.27  HD
ATOM     13 HZ3  LYS L   6     -28.775 -75.481 -29.339  1.00 74.13 LIG 0.27  HD
ENDBRANCH 9 10
ENDBRANCH 8 9
ENDBRANCH 7 8
ENDBRANCH 6 7
ENDBRANCH 5 6
BRANCH 5 14
ATOM     14  C   LYS L   6     -23.864 -76.593 -27.696  1.00 59.21 LIG 0.24  C 
ATOM     15  N   LEU L   7     -23.574 -75.297 -27.665  1.00 55.77 LIG-0.35  N 
ATOM     16 H    LEU L   7     -24.005 -74.694 -28.102  1.00 55.77 LIG 0.16  HD
ATOM     17 O    LYS L   6     -23.273 -77.421 -27.010  1.00 62.62 LIG-0.27  OA
BRANCH 15 18
ATOM     18  CA  LEU L   7     -22.462 -74.788 -26.857  1.00 55.07 LIG 0.16  C 
BRANCH 18 19
ATOM     19  CB  LEU L   7     -21.173 -74.730 -27.683  1.00 49.39 LIG 0.04  C 
BRANCH 19 20
ATOM     20  CG  LEU L   7     -19.924 -74.309 -26.911  1.00 45.34 LIG-0.02  C 
ATOM     21  CD2 LEU L   7     -18.889 -73.706 -27.867  1.00 40.01 LIG 0.01  C 
ATOM     22  CD1 LEU L   7     -19.361 -75.513 -26.183  1.00 33.03 LIG 0.01  C 
ENDBRANCH 19 20
ENDBRANCH 18 19
BRANCH 18 23
ATOM     23  C   LEU L   7     -22.761 -73.417 -26.255  1.00 52.26 LIG 0.22  C 
ATOM     24 O    LEU L   7     -23.350 -72.561 -26.915  1.00 59.22 LIG-0.29  OA
ENDBRANCH 18 23
ENDBRANCH 15 18
ENDBRANCH 5 14
ENDBRANCH 3 5
BRANCH 1 25
ATOM     25  CA  LYS L   5     -24.654 -80.807 -29.040  1.00 63.64 LIG 0.18  C 
BRANCH 25 26
ATOM     26  N   LYS L   5     -25.786 -81.129 -29.911  1.00 68.83 LIG-0.35  N 
ATOM     27  C   ALA L   4     -26.645 -82.105 -29.615  1.00 74.38 LIG 0.26  C 
ATOM     28 O    ALA L   4     -26.605 -82.736 -28.554  1.00 71.28 LIG-0.27  OA
ATOM     29 H    LYS L   5     -25.842 -80.639 -30.615  1.00 68.83 LIG 0.16  HD
BRANCH 27 30
ATOM     30  CA  ALA L   4     -27.711 -82.422 -30.671  1.00 68.81 LIG 0.40  C 
ATOM     31  N   ALA L   4     -28.461 -83.621 -30.308  1.00 73.56 LIG 0.61  N 
ATOM     32  CB  ALA L   4     -28.660 -81.232 -30.868  1.00 57.48 LIG 0.06  C 
ENDBRANCH 27 30
ENDBRANCH 25 26
BRANCH 25 33
ATOM     33  CB  LYS L   5     -23.354 -80.857 -29.849  1.00 69.62 LIG 0.04  C 
BRANCH 33 34
ATOM     34  CG  LYS L   5     -22.470 -82.056 -29.557  1.00 80.66 LIG 0.00  C 
BRANCH 34 35
ATOM     35  CD  LYS L   5     -21.347 -82.167 -30.582  1.00 85.15 LIG 0.03  C 
BRANCH 35 36
ATOM     36  CE  LYS L   5     -20.013 -82.469 -29.914  1.00 90.30 LIG 0.23  C 
BRANCH 36 37
ATOM     37  NZ  LYS L   5     -19.272 -81.231 -29.533  1.00 90.68 LIG-0.08  N 
ATOM     38 HZ3  LYS L   5     -19.732 -80.516 -29.798  1.00 90.68 LIG 0.27  HD
ATOM     39 HZ2  LYS L   5     -18.473 -81.231 -29.923  1.00 90.68 LIG 0.27  HD
ATOM     40 HZ1  LYS L   5     -19.170 -81.206 -28.648  1.00 90.68 LIG 0.27  HD
ENDBRANCH 36 37
ENDBRANCH 35 36
ENDBRANCH 34 35
ENDBRANCH 33 34
ENDBRANCH 25 33
ENDBRANCH 1 25
TORSDOF 19
ENDMDL
MODEL 9
USER: ADFR SOLUTION from run 163
USER: SCORE 13.562689 LL:  -2.003 LR: -13.380 RR:   0.000 FEB:  -7.712
USER: RMSD 2.834510
USER: SEED 162
USER: STATUS no improvement in best in 5 clusters for 5 generations
USER: GENES 21
USER: genes 0 Translation |==|  0.52767 0.42786 0.43015
USER: genes 1 Rotation |==|  0.51787 0.64488 0.45157 0.97576
USER: genes 2 Torsion [C]-N--CA-[CB] |==|  0.35659
USER: genes 3 Torsion [N]-CA--CB-[CG] |==|  0.79433
USER: genes 4 Torsion [CA]-CB--CG-[CD] |==|  0.19549
USER: genes 5 Torsion [CB]-CG--CD-[CE] |==|  0.37357
USER: genes 6 Torsion [CG]-CD--CE-[NZ] |==|  0.23932
USER: genes 7 Torsion [CD]-CE--NZ-[HZ1] |==|  0.41112
USER: genes 8 Torsion [N]-CA--C-[N] |==|  0.22608
USER: genes 9 Torsion [C]-N--CA-[CB] |==|  0.29363
USER: genes 10 Torsion [N]-CA--CB-[CG] |==|  0.65073
USER: genes 11 Torsion [CA]-CB--CG-[CD2] |==|  0.02888
USER: genes 12 Torsion [N]-CA--C-[O] |==|  0.93839
USER: genes 13 Torsion [N]-C--CA-[N] |==|  0.42749
USER: genes 14 Torsion [C]-CA--N-[C] |==|  0.70490
USER: genes 15 Torsion [N]-C--CA-[N] |==|  0.21684
USER: genes 16 Torsion [C]-CA--CB-[CG] |==|  0.18710
USER: genes 17 Torsion [CA]-CB--CG-[CD] |==|  0.49853
USER: genes 18 Torsion [CB]-CG--CD-[CE] |==|  0.70202
USER: genes 19 Torsion [CG]-CD--CE-[NZ] |==|  0.47418
USER: genes 20 Torsion [CD]-CE--NZ-[HZ2] |==|  0.08114
ROOT
ATOM      1  C   LYS L   5     -24.356 -77.550 -28.303  1.00 61.96 LIG 0.24  C 
ATOM      2 O    LYS L   5     -24.224 -77.106 -29.452  1.00 44.78 LIG-0.27  OA
ATOM      3  N   LYS L   6     -24.440 -76.764 -27.233  1.00 60.12 LIG-0.35  N 
ATOM      4 H    LYS L   6     -24.673 -77.038 -26.452  1.00 60.12 LIG 0.16  HD
ENDROOT
BRANCH 3 5
ATOM      5  CA  LYS L   6     -24.133 -75.339 -27.308  1.00 64.44 LIG 0.18  C 
BRANCH 5 6
ATOM      6  CB  LYS L   6     -25.267 -74.501 -26.716  1.00 71.41 LIG 0.04  C 
BRANCH 6 7
ATOM      7  CG  LYS L   6     -26.503 -74.423 -27.606  1.00 72.05 LIG 0.00  C 
BRANCH 7 8
ATOM      8  CD  LYS L   6     -27.243 -75.749 -27.672  1.00 65.16 LIG 0.03  C 
BRANCH 8 9
ATOM      9  CE  LYS L   6     -28.741 -75.540 -27.505  1.00 70.38 LIG 0.23  C 
BRANCH 9 10
ATOM     10  NZ  LYS L   6     -29.396 -75.231 -28.808  1.00 74.13 LIG-0.08  N 
ATOM     11 HZ2  LYS L   6     -29.423 -74.349 -28.925  1.00 74.13 LIG 0.27  HD
ATOM     12 HZ1  LYS L   6     -30.224 -75.556 -28.808  1.00 74.13 LIG 0.27  HD
ATOM     13 HZ3  LYS L   6     -28.932 -75.604 -29.469  1.00 74.13 LIG 0.27  HD
ENDBRANCH 9 10
ENDBRANCH 8 9
ENDBRANCH 7 8
ENDBRANCH 6 7
ENDBRANCH 5 6
BRANCH 5 14
ATOM     14  C   LYS L   6     -22.842 -75.102 -26.540  1.00 59.21 LIG 0.24  C 
ATOM     15  N   LEU L   7     -21.703 -75.364 -27.173  1.00 55.77 LIG-0.35  N 
ATOM     16 H    LEU L   7     -21.653 -75.603 -27.998  1.00 55.77 LIG 0.16  HD
ATOM     17 O    LYS L   6     -22.878 -74.700 -25.381  1.00 62.62 LIG-0.27  OA
BRANCH 15 18
ATOM     18  CA  LEU L   7     -20.413 -75.262 -26.487  1.00 55.07 LIG 0.16  C 
BRANCH 18 19
ATOM     19  CB  LEU L   7     -19.848 -76.653 -26.182  1.00 49.39 LIG 0.04  C 
BRANCH 19 20
ATOM     20  CG  LEU L   7     -19.487 -76.903 -24.720  1.00 45.34 LIG-0.02  C 
ATOM     21  CD2 LEU L   7     -20.021 -75.768 -23.841  1.00 40.01 LIG 0.01  C 
ATOM     22  CD1 LEU L   7     -17.982 -77.032 -24.595  1.00 33.03 LIG 0.01  C 
ENDBRANCH 19 20
ENDBRANCH 18 19
BRANCH 18 23
ATOM     23  C   LEU L   7     -19.395 -74.446 -27.281  1.00 52.26 LIG 0.22  C 
ATOM     24 O    LEU L   7     -19.523 -74.304 -28.497  1.00 59.22 LIG-0.29  OA
ENDBRANCH 18 23
ENDBRANCH 15 18
ENDBRANCH 5 14
ENDBRANCH 3 5
BRANCH 1 25
ATOM     25  CA  LYS L   5     -24.442 -79.062 -28.042  1.00 63.64 LIG 0.18  C 
BRANCH 25 26
ATOM     26  N   LYS L   5     -24.944 -79.829 -29.183  1.00 68.83 LIG-0.35  N 
ATOM     27  C   ALA L   4     -26.173 -80.344 -29.198  1.00 74.38 LIG 0.26  C 
ATOM     28 O    ALA L   4     -27.000 -80.135 -28.305  1.00 71.28 LIG-0.27  OA
ATOM     29 H    LYS L   5     -24.381 -79.912 -29.828  1.00 68.83 LIG 0.16  HD
BRANCH 27 30
ATOM     30  CA  ALA L   4     -26.529 -81.231 -30.398  1.00 68.81 LIG 0.40  C 
ATOM     31  N   ALA L   4     -25.950 -82.562 -30.250  1.00 73.56 LIG 0.61  N 
ATOM     32  CB  ALA L   4     -28.051 -81.322 -30.581  1.00 57.48 LIG 0.06  C 
ENDBRANCH 27 30
ENDBRANCH 25 26
BRANCH 25 33
ATOM     33  CB  LYS L   5     -23.065 -79.593 -27.632  1.00 69.62 LIG 0.04  C 
BRANCH 33 34
ATOM     34  CG  LYS L   5     -22.568 -79.098 -26.286  1.00 80.66 LIG 0.00  C 
BRANCH 34 35
ATOM     35  CD  LYS L   5     -21.201 -79.689 -25.959  1.00 85.15 LIG 0.03  C 
BRANCH 35 36
ATOM     36  CE  LYS L   5     -21.299 -80.746 -24.868  1.00 90.30 LIG 0.23  C 
BRANCH 36 37
ATOM     37  NZ  LYS L   5     -20.021 -81.495 -24.683  1.00 90.68 LIG-0.08  N 
ATOM     38 HZ3  LYS L   5     -19.944 -81.747 -23.833  1.00 90.68 LIG 0.27  HD
ATOM     39 HZ2  LYS L   5     -19.335 -80.971 -24.899  1.00 90.68 LIG 0.27  HD
ATOM     40 HZ1  LYS L   5     -20.020 -82.215 -25.207  1.00 90.68 LIG 0.27  HD
ENDBRANCH 36 37
ENDBRANCH 35 36
ENDBRANCH 34 35
ENDBRANCH 33 34
ENDBRANCH 25 33
ENDBRANCH 1 25
TORSDOF 19
ENDMDL
MODEL 10
USER: ADFR SOLUTION from run 37
USER: SCORE 13.842009 LL:  -1.851 LR: -13.345 RR:   0.000 FEB:  -7.678
USER: RMSD 2.871952
USER: SEED 36
USER: STATUS no improvement in best in 2 clusters for 5 generations
USER: GENES 21
USER: genes 0 Translation |==|  0.52350 0.44841 0.44232
USER: genes 1 Rotation |==|  0.55871 0.71459 0.41769 0.94015
USER: genes 2 Torsion [C]-N--CA-[CB] |==|  0.43416
USER: genes 3 Torsion [N]-CA--CB-[CG] |==|  0.58204
USER: genes 4 Torsion [CA]-CB--CG-[CD] |==|  0.25837
USER: genes 5 Torsion [CB]-CG--CD-[CE] |==|  0.66782
USER: genes 6 Torsion [CG]-CD--CE-[NZ] |==|  0.23604
USER: genes 7 Torsion [CD]-CE--NZ-[HZ1] |==|  0.54526
USER: genes 8 Torsion [N]-CA--C-[N] |==|  0.47189
USER: genes 9 Torsion [C]-N--CA-[CB] |==|  0.47588
USER: genes 10 Torsion [N]-CA--CB-[CG] |==|  0.17437
USER: genes 11 Torsion [CA]-CB--CG-[CD2] |==|  0.70885
USER: genes 12 Torsion [N]-CA--C-[O] |==|  0.99346
USER: genes 13 Torsion [N]-C--CA-[N] |==|  0.45554
USER: genes 14 Torsion [C]-CA--N-[C] |==|  0.57205
USER: genes 15 Torsion [N]-C--CA-[N] |==|  0.24430
USER: genes 16 Torsion [C]-CA--CB-[CG] |==|  0.19302
USER: genes 17 Torsion [CA]-CB--CG-[CD] |==|  0.44643
USER: genes 18 Torsion [CB]-CG--CD-[CE] |==|  0.46413
USER: genes 19 Torsion [CG]-CD--CE-[NZ] |==|  0.47316
USER: genes 20 Torsion [CD]-CE--NZ-[HZ2] |==|  0.68804
ROOT
ATOM      1  C   LYS L   5     -24.438 -77.103 -28.130  1.00 61.96 LIG 0.24  C 
ATOM      2 O    LYS L   5     -24.544 -76.494 -29.203  1.00 44.78 LIG-0.27  OA
ATOM      3  N   LYS L   6     -24.063 -76.510 -26.999  1.00 60.12 LIG-0.35  N 
ATOM      4 H    LYS L   6     -24.121 -76.875 -26.223  1.00 60.12 LIG 0.16  HD
ENDROOT
BRANCH 3 5
ATOM      5  CA  LYS L   6     -23.513 -75.159 -26.994  1.00 64.44 LIG 0.18  C 
BRANCH 5 6
ATOM      6  CB  LYS L   6     -23.704 -74.493 -25.630  1.00 71.41 LIG 0.04  C 
BRANCH 6 7
ATOM      7  CG  LYS L   6     -23.839 -72.975 -25.702  1.00 72.05 LIG 0.00  C 
BRANCH 7 8
ATOM      8  CD  LYS L   6     -25.292 -72.534 -25.788  1.00 65.16 LIG 0.03  C 
BRANCH 8 9
ATOM      9  CE  LYS L   6     -25.546 -71.760 -27.072  1.00 70.38 LIG 0.23  C 
BRANCH 9 10
ATOM     10  NZ  LYS L   6     -25.840 -72.677 -28.211  1.00 74.13 LIG-0.08  N 
ATOM     11 HZ2  LYS L   6     -25.271 -73.361 -28.196  1.00 74.13 LIG 0.27  HD
ATOM     12 HZ1  LYS L   6     -25.751 -72.234 -28.978  1.00 74.13 LIG 0.27  HD
ATOM     13 HZ3  LYS L   6     -26.673 -72.981 -28.140  1.00 74.13 LIG 0.27  HD
ENDBRANCH 9 10
ENDBRANCH 8 9
ENDBRANCH 7 8
ENDBRANCH 6 7
ENDBRANCH 5 6
BRANCH 5 14
ATOM     14  C   LYS L   6     -22.033 -75.260 -27.330  1.00 59.21 LIG 0.24  C 
ATOM     15  N   LEU L   7     -21.389 -74.124 -27.579  1.00 55.77 LIG-0.35  N 
ATOM     16 H    LEU L   7     -21.742 -73.343 -27.507  1.00 55.77 LIG 0.16  HD
ATOM     17 O    LYS L   6     -21.484 -76.356 -27.378  1.00 62.62 LIG-0.27  OA
BRANCH 15 18
ATOM     18  CA  LEU L   7     -19.989 -74.124 -28.008  1.00 55.07 LIG 0.16  C 
BRANCH 18 19
ATOM     19  CB  LEU L   7     -19.551 -72.719 -28.433  1.00 49.39 LIG 0.04  C 
BRANCH 19 20
ATOM     20  CG  LEU L   7     -19.589 -71.663 -27.330  1.00 45.34 LIG-0.02  C 
ATOM     21  CD2 LEU L   7     -20.794 -70.738 -27.524  1.00 40.01 LIG 0.01  C 
ATOM     22  CD1 LEU L   7     -18.290 -70.882 -27.345  1.00 33.03 LIG 0.01  C 
ENDBRANCH 19 20
ENDBRANCH 18 19
BRANCH 18 23
ATOM     23  C   LEU L   7     -19.050 -74.662 -26.931  1.00 52.26 LIG 0.22  C 
ATOM     24 O    LEU L   7     -19.490 -74.995 -25.830  1.00 59.22 LIG-0.29  OA
ENDBRANCH 18 23
ENDBRANCH 15 18
ENDBRANCH 5 14
ENDBRANCH 3 5
BRANCH 1 25
ATOM     25  CA  LYS L   5     -24.746 -78.606 -28.037  1.00 63.64 LIG 0.18  C 
BRANCH 25 26
ATOM     26  N   LYS L   5     -25.494 -79.125 -29.183  1.00 68.83 LIG-0.35  N 
ATOM     27  C   ALA L   4     -26.274 -80.202 -29.084  1.00 74.38 LIG 0.26  C 
ATOM     28 O    ALA L   4     -26.495 -80.775 -28.013  1.00 71.28 LIG-0.27  OA
ATOM     29 H    LYS L   5     -25.385 -78.677 -29.909  1.00 68.83 LIG 0.16  HD
BRANCH 27 30
ATOM     30  CA  ALA L   4     -26.902 -80.714 -30.386  1.00 68.81 LIG 0.40  C 
ATOM     31  N   ALA L   4     -26.010 -81.654 -31.058  1.00 73.56 LIG 0.61  N 
ATOM     32  CB  ALA L   4     -28.268 -81.363 -30.119  1.00 57.48 LIG 0.06  C 
ENDBRANCH 27 30
ENDBRANCH 25 26
BRANCH 25 33
ATOM     33  CB  LYS L   5     -23.441 -79.392 -27.877  1.00 69.62 LIG 0.04  C 
BRANCH 33 34
ATOM     34  CG  LYS L   5     -22.747 -79.205 -26.541  1.00 80.66 LIG 0.00  C 
BRANCH 34 35
ATOM     35  CD  LYS L   5     -21.761 -80.338 -26.276  1.00 85.15 LIG 0.03  C 
BRANCH 35 36
ATOM     36  CE  LYS L   5     -20.838 -80.010 -25.111  1.00 90.30 LIG 0.23  C 
BRANCH 36 37
ATOM     37  NZ  LYS L   5     -20.021 -81.184 -24.683  1.00 90.68 LIG-0.08  N 
ATOM     38 HZ3  LYS L   5     -20.135 -81.852 -25.260  1.00 90.68 LIG 0.27  HD
ATOM     39 HZ2  LYS L   5     -20.279 -81.446 -23.873  1.00 90.68 LIG 0.27  HD
ATOM     40 HZ1  LYS L   5     -19.161 -80.955 -24.661  1.00 90.68 LIG 0.27  HD
ENDBRANCH 36 37
ENDBRANCH 35 36
ENDBRANCH 34 35
ENDBRANCH 33 34
ENDBRANCH 25 33
ENDBRANCH 1 25
TORSDOF 19
ENDMDL
MODEL 11
USER: ADFR SOLUTION from run 99
USER: SCORE 14.040417 LL:  -1.791 LR: -13.341 RR:   0.000 FEB:  -7.673
USER: RMSD 1.848310
USER: SEED 98
USER: STATUS no improvement in best in 1 clusters for 5 generations
USER: GENES 21
USER: genes 0 Translation |==|  0.48842 0.44034 0.43986
USER: genes 1 Rotation |==|  0.52329 0.38482 0.51139 0.98586
USER: genes 2 Torsion [C]-N--CA-[CB] |==|  0.50556
USER: genes 3 Torsion [N]-CA--CB-[CG] |==|  0.90673
USER: genes 4 Torsion [CA]-CB--CG-[CD] |==|  0.60617
USER: genes 5 Torsion [CB]-CG--CD-[CE] |==|  0.63935
USER: genes 6 Torsion [CG]-CD--CE-[NZ] |==|  0.78099
USER: genes 7 Torsion [CD]-CE--NZ-[HZ1] |==|  0.31033
USER: genes 8 Torsion [N]-CA--C-[N] |==|  0.34448
USER: genes 9 Torsion [C]-N--CA-[CB] |==|  0.42570
USER: genes 10 Torsion [N]-CA--CB-[CG] |==|  0.74219
USER: genes 11 Torsion [CA]-CB--CG-[CD2] |==|  0.04294
USER: genes 12 Torsion [N]-CA--C-[O] |==|  0.92257
USER: genes 13 Torsion [N]-C--CA-[N] |==|  0.27817
USER: genes 14 Torsion [C]-CA--N-[C] |==|  0.66340
USER: genes 15 Torsion [N]-C--CA-[N] |==|  0.22533
USER: genes 16 Torsion [C]-CA--CB-[CG] |==|  0.11485
USER: genes 17 Torsion [CA]-CB--CG-[CD] |==|  0.52668
USER: genes 18 Torsion [CB]-CG--CD-[CE] |==|  0.83909
USER: genes 19 Torsion [CG]-CD--CE-[NZ] |==|  0.42849
USER: genes 20 Torsion [CD]-CE--NZ-[HZ2] |==|  0.14954
ROOT
ATOM      1  C   LYS L   5     -25.122 -77.279 -28.165  1.00 61.96 LIG 0.24  C 
ATOM      2 O    LYS L   5     -24.131 -76.723 -28.658  1.00 44.78 LIG-0.27  OA
ATOM      3  N   LYS L   6     -26.213 -76.611 -27.798  1.00 60.12 LIG-0.35  N 
ATOM      4 H    LYS L   6     -26.959 -76.986 -27.591  1.00 60.12 LIG 0.16  HD
ENDROOT
BRANCH 3 5
ATOM      5  CA  LYS L   6     -26.225 -75.154 -27.720  1.00 64.44 LIG 0.18  C 
BRANCH 5 6
ATOM      6  CB  LYS L   6     -27.579 -74.641 -27.229  1.00 71.41 LIG 0.04  C 
BRANCH 6 7
ATOM      7  CG  LYS L   6     -28.760 -75.492 -27.684  1.00 72.05 LIG 0.00  C 
BRANCH 7 8
ATOM      8  CD  LYS L   6     -29.972 -74.643 -28.039  1.00 65.16 LIG 0.03  C 
BRANCH 8 9
ATOM      9  CE  LYS L   6     -31.218 -75.163 -27.340  1.00 70.38 LIG 0.23  C 
BRANCH 9 10
ATOM     10  NZ  LYS L   6     -31.777 -76.356 -28.038  1.00 74.13 LIG-0.08  N 
ATOM     11 HZ2  LYS L   6     -32.643 -76.228 -28.199  1.00 74.13 LIG 0.27  HD
ATOM     12 HZ1  LYS L   6     -31.674 -77.076 -27.525  1.00 74.13 LIG 0.27  HD
ATOM     13 HZ3  LYS L   6     -31.347 -76.477 -28.808  1.00 74.13 LIG 0.27  HD
ENDBRANCH 9 10
ENDBRANCH 8 9
ENDBRANCH 7 8
ENDBRANCH 6 7
ENDBRANCH 5 6
BRANCH 5 14
ATOM     14  C   LYS L   6     -25.120 -74.733 -26.763  1.00 59.21 LIG 0.24  C 
ATOM     15  N   LEU L   7     -24.208 -73.884 -27.227  1.00 55.77 LIG-0.35  N 
ATOM     16 H    LEU L   7     -24.238 -73.522 -28.006  1.00 55.77 LIG 0.16  HD
ATOM     17 O    LYS L   6     -25.086 -75.183 -25.622  1.00 62.62 LIG-0.27  OA
BRANCH 15 18
ATOM     18  CA  LEU L   7     -23.052 -73.496 -26.416  1.00 55.07 LIG 0.16  C 
BRANCH 18 19
ATOM     19  CB  LEU L   7     -21.872 -73.096 -27.308  1.00 49.39 LIG 0.04  C 
BRANCH 19 20
ATOM     20  CG  LEU L   7     -20.892 -74.222 -27.635  1.00 45.34 LIG-0.02  C 
ATOM     21  CD2 LEU L   7     -21.519 -75.581 -27.307  1.00 40.01 LIG 0.01  C 
ATOM     22  CD1 LEU L   7     -19.611 -74.006 -26.854  1.00 33.03 LIG 0.01  C 
ENDBRANCH 19 20
ENDBRANCH 18 19
BRANCH 18 23
ATOM     23  C   LEU L   7     -23.377 -72.366 -25.441  1.00 52.26 LIG 0.22  C 
ATOM     24 O    LEU L   7     -24.266 -71.554 -25.703  1.00 59.22 LIG-0.29  OA
ENDBRANCH 18 23
ENDBRANCH 15 18
ENDBRANCH 5 14
ENDBRANCH 3 5
BRANCH 1 25
ATOM     25  CA  LYS L   5     -25.155 -78.800 -27.952  1.00 63.64 LIG 0.18  C 
BRANCH 25 26
ATOM     26  N   LYS L   5     -25.453 -79.558 -29.168  1.00 68.83 LIG-0.35  N 
ATOM     27  C   ALA L   4     -26.503 -80.375 -29.248  1.00 74.38 LIG 0.26  C 
ATOM     28 O    ALA L   4     -27.344 -80.477 -28.349  1.00 71.28 LIG-0.27  OA
ATOM     29 H    LYS L   5     -24.897 -79.429 -29.811  1.00 68.83 LIG 0.16  HD
BRANCH 27 30
ATOM     30  CA  ALA L   4     -26.630 -81.204 -30.532  1.00 68.81 LIG 0.40  C 
ATOM     31  N   ALA L   4     -25.773 -82.384 -30.475  1.00 73.56 LIG 0.61  N 
ATOM     32  CB  ALA L   4     -28.090 -81.610 -30.782  1.00 57.48 LIG 0.06  C 
ENDBRANCH 27 30
ENDBRANCH 25 26
BRANCH 25 33
ATOM     33  CB  LYS L   5     -23.818 -79.269 -27.370  1.00 69.62 LIG 0.04  C 
BRANCH 33 34
ATOM     34  CG  LYS L   5     -23.240 -78.363 -26.298  1.00 80.66 LIG 0.00  C 
BRANCH 34 35
ATOM     35  CD  LYS L   5     -21.813 -78.773 -25.949  1.00 85.15 LIG 0.03  C 
BRANCH 35 36
ATOM     36  CE  LYS L   5     -21.751 -80.219 -25.475  1.00 90.30 LIG 0.23  C 
BRANCH 36 37
ATOM     37  NZ  LYS L   5     -20.413 -80.838 -25.709  1.00 90.68 LIG-0.08  N 
ATOM     38 HZ3  LYS L   5     -20.392 -81.648 -25.339  1.00 90.68 LIG 0.27  HD
ATOM     39 HZ2  LYS L   5     -19.782 -80.329 -25.343  1.00 90.68 LIG 0.27  HD
ATOM     40 HZ1  LYS L   5     -20.267 -80.909 -26.584  1.00 90.68 LIG 0.27  HD
ENDBRANCH 36 37
ENDBRANCH 35 36
ENDBRANCH 34 35
ENDBRANCH 33 34
ENDBRANCH 25 33
ENDBRANCH 1 25
TORSDOF 19
ENDMDL
MODEL 12
USER: ADFR SOLUTION from run 39
USER: SCORE 13.022320 LL:  -1.071 LR: -13.256 RR:   0.000 FEB:  -7.588
USER: RMSD 4.849411
USER: SEED 38
USER: STATUS no improvement in best in 10 clusters for 5 generations
USER: GENES 21
USER: genes 0 Translation |==|  0.47192 0.44640 0.39451
USER: genes 1 Rotation |==|  0.55486 0.45493 0.60141 0.98443
USER: genes 2 Torsion [C]-N--CA-[CB] |==|  0.52817
USER: genes 3 Torsion [N]-CA--CB-[CG] |==|  0.67807
USER: genes 4 Torsion [CA]-CB--CG-[CD] |==|  0.48528
USER: genes 5 Torsion [CB]-CG--CD-[CE] |==|  0.55540
USER: genes 6 Torsion [CG]-CD--CE-[NZ] |==|  0.12224
USER: genes 7 Torsion [CD]-CE--NZ-[HZ1] |==|  0.35161
USER: genes 8 Torsion [N]-CA--C-[N] |==|  0.43085
USER: genes 9 Torsion [C]-N--CA-[CB] |==|  0.46699
USER: genes 10 Torsion [N]-CA--CB-[CG] |==|  0.46306
USER: genes 11 Torsion [CA]-CB--CG-[CD2] |==|  0.55758
USER: genes 12 Torsion [N]-CA--C-[O] |==|  0.04029
USER: genes 13 Torsion [N]-C--CA-[N] |==|  0.75662
USER: genes 14 Torsion [C]-CA--N-[C] |==|  0.56191
USER: genes 15 Torsion [N]-C--CA-[N] |==|  0.51854
USER: genes 16 Torsion [C]-CA--CB-[CG] |==|  0.38471
USER: genes 17 Torsion [CA]-CB--CG-[CD] |==|  0.67914
USER: genes 18 Torsion [CB]-CG--CD-[CE] |==|  0.79961
USER: genes 19 Torsion [CG]-CD--CE-[NZ] |==|  0.46093
USER: genes 20 Torsion [CD]-CE--NZ-[HZ2] |==|  0.94578
ROOT
ATOM      1  C   LYS L   5     -25.443 -77.147 -28.811  1.00 61.96 LIG 0.24  C 
ATOM      2 O    LYS L   5     -24.897 -76.261 -29.482  1.00 44.78 LIG-0.27  OA
ATOM      3  N   LYS L   6     -26.572 -76.945 -28.136  1.00 60.12 LIG-0.35  N 
ATOM      4 H    LYS L   6     -27.041 -77.575 -27.784  1.00 60.12 LIG 0.16  HD
ENDROOT
BRANCH 3 5
ATOM      5  CA  LYS L   6     -27.111 -75.604 -27.936  1.00 64.44 LIG 0.18  C 
BRANCH 5 6
ATOM      6  CB  LYS L   6     -28.262 -75.619 -26.929  1.00 71.41 LIG 0.04  C 
BRANCH 6 7
ATOM      7  CG  LYS L   6     -29.606 -75.211 -27.525  1.00 72.05 LIG 0.00  C 
BRANCH 7 8
ATOM      8  CD  LYS L   6     -30.743 -75.363 -26.527  1.00 65.16 LIG 0.03  C 
BRANCH 8 9
ATOM      9  CE  LYS L   6     -32.083 -75.432 -27.242  1.00 70.38 LIG 0.23  C 
BRANCH 9 10
ATOM     10  NZ  LYS L   6     -32.019 -76.327 -28.433  1.00 74.13 LIG-0.08  N 
ATOM     11 HZ2  LYS L   6     -32.124 -75.845 -29.173  1.00 74.13 LIG 0.27  HD
ATOM     12 HZ1  LYS L   6     -32.666 -76.936 -28.382  1.00 74.13 LIG 0.27  HD
ATOM     13 HZ3  LYS L   6     -31.229 -76.736 -28.454  1.00 74.13 LIG 0.27  HD
ENDBRANCH 9 10
ENDBRANCH 8 9
ENDBRANCH 7 8
ENDBRANCH 6 7
ENDBRANCH 5 6
BRANCH 5 14
ATOM     14  C   LYS L   6     -25.980 -74.720 -27.434  1.00 59.21 LIG 0.24  C 
ATOM     15  N   LEU L   7     -26.085 -73.415 -27.663  1.00 55.77 LIG-0.35  N 
ATOM     16 H    LEU L   7     -26.771 -73.041 -28.023  1.00 55.77 LIG 0.16  HD
ATOM     17 O    LYS L   6     -25.017 -75.216 -26.859  1.00 62.62 LIG-0.27  OA
BRANCH 15 18
ATOM     18  CA  LEU L   7     -25.003 -72.494 -27.307  1.00 55.07 LIG 0.16  C 
BRANCH 18 19
ATOM     19  CB  LEU L   7     -25.238 -71.114 -27.930  1.00 49.39 LIG 0.04  C 
BRANCH 19 20
ATOM     20  CG  LEU L   7     -24.359 -69.992 -27.380  1.00 45.34 LIG-0.02  C 
ATOM     21  CD2 LEU L   7     -24.998 -68.630 -27.668  1.00 40.01 LIG 0.01  C 
ATOM     22  CD1 LEU L   7     -22.980 -70.093 -28.000  1.00 33.03 LIG 0.01  C 
ENDBRANCH 19 20
ENDBRANCH 18 19
BRANCH 18 23
ATOM     23  C   LEU L   7     -24.824 -72.362 -25.796  1.00 52.26 LIG 0.22  C 
ATOM     24 O    LEU L   7     -25.349 -73.173 -25.034  1.00 59.22 LIG-0.29  OA
ENDBRANCH 18 23
ENDBRANCH 15 18
ENDBRANCH 5 14
ENDBRANCH 3 5
BRANCH 1 25
ATOM     25  CA  LYS L   5     -24.845 -78.559 -28.724  1.00 63.64 LIG 0.18  C 
BRANCH 25 26
ATOM     26  N   LYS L   5     -23.948 -78.749 -27.582  1.00 68.83 LIG-0.35  N 
ATOM     27  C   ALA L   4     -23.020 -79.706 -27.568  1.00 74.38 LIG 0.26  C 
ATOM     28 O    ALA L   4     -22.788 -80.431 -28.540  1.00 71.28 LIG-0.27  OA
ATOM     29 H    LYS L   5     -24.075 -78.194 -26.937  1.00 68.83 LIG 0.16  HD
BRANCH 27 30
ATOM     30  CA  ALA L   4     -22.232 -79.876 -26.263  1.00 68.81 LIG 0.40  C 
ATOM     31  N   ALA L   4     -21.151 -80.842 -26.431  1.00 73.56 LIG 0.61  N 
ATOM     32  CB  ALA L   4     -21.680 -78.529 -25.774  1.00 57.48 LIG 0.06  C 
ENDBRANCH 27 30
ENDBRANCH 25 26
BRANCH 25 33
ATOM     33  CB  LYS L   5     -25.971 -79.595 -28.668  1.00 69.62 LIG 0.04  C 
BRANCH 33 34
ATOM     34  CG  LYS L   5     -25.734 -80.837 -29.508  1.00 80.66 LIG 0.00  C 
BRANCH 34 35
ATOM     35  CD  LYS L   5     -26.761 -80.940 -30.631  1.00 85.15 LIG 0.03  C 
BRANCH 35 36
ATOM     36  CE  LYS L   5     -28.136 -81.313 -30.093  1.00 90.30 LIG 0.23  C 
BRANCH 36 37
ATOM     37  NZ  LYS L   5     -29.219 -81.096 -31.097  1.00 90.68 LIG-0.08  N 
ATOM     38 HZ3  LYS L   5     -29.437 -81.874 -31.472  1.00 90.68 LIG 0.27  HD
ATOM     39 HZ2  LYS L   5     -28.934 -80.534 -31.725  1.00 90.68 LIG 0.27  HD
ATOM     40 HZ1  LYS L   5     -29.934 -80.751 -30.693  1.00 90.68 LIG 0.27  HD
ENDBRANCH 36 37
ENDBRANCH 35 36
ENDBRANCH 34 35
ENDBRANCH 33 34
ENDBRANCH 25 33
ENDBRANCH 1 25
TORSDOF 19
ENDMDL
MODEL 13
USER: ADFR SOLUTION from run 18
USER: SCORE 13.304523 LL:  -1.563 LR: -13.136 RR:   0.000 FEB:  -7.468
USER: RMSD 6.144462
USER: SEED 17
USER: STATUS no improvement in best in 4 clusters for 5 generations
USER: GENES 21
USER: genes 0 Translation |==|  0.59183 0.44714 0.53880
USER: genes 1 Rotation |==|  0.47576 0.23506 0.18957 0.78784
USER: genes 2 Torsion [C]-N--CA-[CB] |==|  0.17227
USER: genes 3 Torsion [N]-CA--CB-[CG] |==|  0.56294
USER: genes 4 Torsion [CA]-CB--CG-[CD] |==|  0.33263
USER: genes 5 Torsion [CB]-CG--CD-[CE] |==|  0.35970
USER: genes 6 Torsion [CG]-CD--CE-[NZ] |==|  0.50575
USER: genes 7 Torsion [CD]-CE--NZ-[HZ1] |==|  0.05706
USER: genes 8 Torsion [N]-CA--C-[N] |==|  0.92811
USER: genes 9 Torsion [C]-N--CA-[CB] |==|  0.31966
USER: genes 10 Torsion [N]-CA--CB-[CG] |==|  0.73723
USER: genes 11 Torsion [CA]-CB--CG-[CD2] |==|  0.92405
USER: genes 12 Torsion [N]-CA--C-[O] |==|  0.93383
USER: genes 13 Torsion [N]-C--CA-[N] |==|  0.54049
USER: genes 14 Torsion [C]-CA--N-[C] |==|  0.59666
USER: genes 15 Torsion [N]-C--CA-[N] |==|  0.23065
USER: genes 16 Torsion [C]-CA--CB-[CG] |==|  0.36755
USER: genes 17 Torsion [CA]-CB--CG-[CD] |==|  0.44319
USER: genes 18 Torsion [CB]-CG--CD-[CE] |==|  0.73547
USER: genes 19 Torsion [CG]-CD--CE-[NZ] |==|  0.74083
USER: genes 20 Torsion [CD]-CE--NZ-[HZ2] |==|  0.89546
ROOT
ATOM      1  C   LYS L   5     -23.105 -77.131 -26.755  1.00 61.96 LIG 0.24  C 
ATOM      2 O    LYS L   5     -22.472 -78.147 -26.438  1.00 44.78 LIG-0.27  OA
ATOM      3  N   LYS L   6     -22.665 -75.900 -26.503  1.00 60.12 LIG-0.35  N 
ATOM      4 H    LYS L   6     -23.012 -75.188 -26.837  1.00 60.12 LIG 0.16  HD
ENDROOT
BRANCH 3 5
ATOM      5  CA  LYS L   6     -21.529 -75.664 -25.619  1.00 64.44 LIG 0.18  C 
BRANCH 5 6
ATOM      6  CB  LYS L   6     -20.258 -76.313 -26.170  1.00 71.41 LIG 0.04  C 
BRANCH 6 7
ATOM      7  CG  LYS L   6     -19.200 -76.590 -25.107  1.00 72.05 LIG 0.00  C 
BRANCH 7 8
ATOM      8  CD  LYS L   6     -18.866 -78.071 -25.007  1.00 65.16 LIG 0.03  C 
BRANCH 8 9
ATOM      9  CE  LYS L   6     -17.362 -78.290 -25.068  1.00 70.38 LIG 0.23  C 
BRANCH 9 10
ATOM     10  NZ  LYS L   6     -17.021 -79.740 -25.022  1.00 74.13 LIG-0.08  N 
ATOM     11 HZ2  LYS L   6     -16.348 -79.905 -25.581  1.00 74.13 LIG 0.27  HD
ATOM     12 HZ1  LYS L   6     -17.731 -80.220 -25.264  1.00 74.13 LIG 0.27  HD
ATOM     13 HZ3  LYS L   6     -16.782 -79.963 -24.195  1.00 74.13 LIG 0.27  HD
ENDBRANCH 9 10
ENDBRANCH 8 9
ENDBRANCH 7 8
ENDBRANCH 6 7
ENDBRANCH 5 6
BRANCH 5 14
ATOM     14  C   LYS L   6     -21.344 -74.159 -25.495  1.00 59.21 LIG 0.24  C 
ATOM     15  N   LEU L   7     -21.781 -73.410 -26.502  1.00 55.77 LIG-0.35  N 
ATOM     16 H    LEU L   7     -22.206 -73.717 -27.183  1.00 55.77 LIG 0.16  HD
ATOM     17 O    LYS L   6     -20.798 -73.683 -24.504  1.00 62.62 LIG-0.27  OA
BRANCH 15 18
ATOM     18  CA  LEU L   7     -21.561 -71.962 -26.521  1.00 55.07 LIG 0.16  C 
BRANCH 18 19
ATOM     19  CB  LEU L   7     -20.643 -71.568 -27.683  1.00 49.39 LIG 0.04  C 
BRANCH 19 20
ATOM     20  CG  LEU L   7     -19.161 -71.450 -27.331  1.00 45.34 LIG-0.02  C 
ATOM     21  CD2 LEU L   7     -18.995 -71.088 -25.852  1.00 40.01 LIG 0.01  C 
ATOM     22  CD1 LEU L   7     -18.520 -70.407 -28.225  1.00 33.03 LIG 0.01  C 
ENDBRANCH 19 20
ENDBRANCH 18 19
BRANCH 18 23
ATOM     23  C   LEU L   7     -22.867 -71.175 -26.596  1.00 52.26 LIG 0.22  C 
ATOM     24 O    LEU L   7     -23.882 -71.696 -27.061  1.00 59.22 LIG-0.29  OA
ENDBRANCH 18 23
ENDBRANCH 15 18
ENDBRANCH 5 14
ENDBRANCH 3 5
BRANCH 1 25
ATOM     25  CA  LYS L   5     -24.457 -77.231 -27.478  1.00 63.64 LIG 0.18  C 
BRANCH 25 26
ATOM     26  N   LYS L   5     -25.052 -78.568 -27.431  1.00 68.83 LIG-0.35  N 
ATOM     27  C   ALA L   4     -25.760 -79.059 -28.447  1.00 74.38 LIG 0.26  C 
ATOM     28 O    ALA L   4     -25.886 -78.470 -29.525  1.00 71.28 LIG-0.27  OA
ATOM     29 H    LYS L   5     -24.902 -78.997 -26.700  1.00 68.83 LIG 0.16  HD
BRANCH 27 30
ATOM     30  CA  ALA L   4     -26.432 -80.420 -28.220  1.00 68.81 LIG 0.40  C 
ATOM     31  N   ALA L   4     -27.704 -80.260 -27.521  1.00 73.56 LIG 0.61  N 
ATOM     32  CB  ALA L   4     -26.638 -81.159 -29.550  1.00 57.48 LIG 0.06  C 
ENDBRANCH 27 30
ENDBRANCH 25 26
BRANCH 25 33
ATOM     33  CB  LYS L   5     -25.437 -76.214 -26.886  1.00 69.62 LIG 0.04  C 
BRANCH 33 34
ATOM     34  CG  LYS L   5     -26.187 -75.383 -27.911  1.00 80.66 LIG 0.00  C 
BRANCH 34 35
ATOM     35  CD  LYS L   5     -27.454 -74.786 -27.307  1.00 85.15 LIG 0.03  C 
BRANCH 35 36
ATOM     36  CE  LYS L   5     -28.669 -75.656 -27.595  1.00 90.30 LIG 0.23  C 
BRANCH 36 37
ATOM     37  NZ  LYS L   5     -29.396 -75.231 -28.827  1.00 90.68 LIG-0.08  N 
ATOM     38 HZ3  LYS L   5     -28.994 -75.575 -29.543  1.00 90.68 LIG 0.27  HD
ATOM     39 HZ2  LYS L   5     -29.392 -74.343 -28.883  1.00 90.68 LIG 0.27  HD
ATOM     40 HZ1  LYS L   5     -30.237 -75.522 -28.792  1.00 90.68 LIG 0.27  HD
ENDBRANCH 36 37
ENDBRANCH 35 36
ENDBRANCH 34 35
ENDBRANCH 33 34
ENDBRANCH 25 33
ENDBRANCH 1 25
TORSDOF 19
ENDMDL
MODEL 14
USER: ADFR SOLUTION from run 191
USER: SCORE 13.886681 LL:  -1.703 LR: -13.019 RR:   0.000 FEB:  -7.351
USER: RMSD 2.995233
USER: SEED 190
USER: STATUS no improvement in best in 4 clusters for 5 generations
USER: GENES 21
USER: genes 0 Translation |==|  0.48956 0.43891 0.42462
USER: genes 1 Rotation |==|  0.50361 0.49912 0.41500 0.99271
USER: genes 2 Torsion [C]-N--CA-[CB] |==|  0.48437
USER: genes 3 Torsion [N]-CA--CB-[CG] |==|  0.00408
USER: genes 4 Torsion [CA]-CB--CG-[CD] |==|  0.70253
USER: genes 5 Torsion [CB]-CG--CD-[CE] |==|  0.30878
USER: genes 6 Torsion [CG]-CD--CE-[NZ] |==|  0.64500
USER: genes 7 Torsion [CD]-CE--NZ-[HZ1] |==|  0.29129
USER: genes 8 Torsion [N]-CA--C-[N] |==|  0.47481
USER: genes 9 Torsion [C]-N--CA-[CB] |==|  0.49414
USER: genes 10 Torsion [N]-CA--CB-[CG] |==|  0.64800
USER: genes 11 Torsion [CA]-CB--CG-[CD2] |==|  0.94987
USER: genes 12 Torsion [N]-CA--C-[O] |==|  0.40305
USER: genes 13 Torsion [N]-C--CA-[N] |==|  0.40055
USER: genes 14 Torsion [C]-CA--N-[C] |==|  0.60929
USER: genes 15 Torsion [N]-C--CA-[N] |==|  0.21833
USER: genes 16 Torsion [C]-CA--CB-[CG] |==|  0.28546
USER: genes 17 Torsion [CA]-CB--CG-[CD] |==|  0.12454
USER: genes 18 Torsion [CB]-CG--CD-[CE] |==|  0.71717
USER: genes 19 Torsion [CG]-CD--CE-[NZ] |==|  0.37220
USER: genes 20 Torsion [CD]-CE--NZ-[HZ2] |==|  0.95720
ROOT
ATOM      1  C   LYS L   5     -25.100 -77.310 -28.382  1.00 61.96 LIG 0.24  C 
ATOM      2 O    LYS L   5     -24.307 -77.101 -29.311  1.00 44.78 LIG-0.27  OA
ATOM      3  N   LYS L   6     -25.596 -76.333 -27.627  1.00 60.12 LIG-0.35  N 
ATOM      4 H    LYS L   6     -26.249 -76.435 -27.077  1.00 60.12 LIG 0.16  HD
ENDROOT
BRANCH 3 5
ATOM      5  CA  LYS L   6     -25.053 -74.980 -27.677  1.00 64.44 LIG 0.18  C 
BRANCH 5 6
ATOM      6  CB  LYS L   6     -25.884 -74.022 -26.822  1.00 71.41 LIG 0.04  C 
BRANCH 6 7
ATOM      7  CG  LYS L   6     -27.045 -74.695 -26.098  1.00 72.05 LIG 0.00  C 
BRANCH 7 8
ATOM      8  CD  LYS L   6     -28.388 -74.335 -26.716  1.00 65.16 LIG 0.03  C 
BRANCH 8 9
ATOM      9  CE  LYS L   6     -29.006 -75.544 -27.403  1.00 70.38 LIG 0.23  C 
BRANCH 9 10
ATOM     10  NZ  LYS L   6     -29.396 -75.231 -28.808  1.00 74.13 LIG-0.08  N 
ATOM     11 HZ2  LYS L   6     -30.208 -75.556 -28.971  1.00 74.13 LIG 0.27  HD
ATOM     12 HZ1  LYS L   6     -28.811 -75.601 -29.367  1.00 74.13 LIG 0.27  HD
ATOM     13 HZ3  LYS L   6     -29.400 -74.349 -28.926  1.00 74.13 LIG 0.27  HD
ENDBRANCH 9 10
ENDBRANCH 8 9
ENDBRANCH 7 8
ENDBRANCH 6 7
ENDBRANCH 5 6
BRANCH 5 14
ATOM     14  C   LYS L   6     -23.620 -75.036 -27.169  1.00 59.21 LIG 0.24  C 
ATOM     15  N   LEU L   7     -22.885 -73.938 -27.308  1.00 55.77 LIG-0.35  N 
ATOM     16 H    LEU L   7     -23.185 -73.191 -27.612  1.00 55.77 LIG 0.16  HD
ATOM     17 O    LYS L   6     -23.182 -76.068 -26.671  1.00 62.62 LIG-0.27  OA
BRANCH 15 18
ATOM     18  CA  LEU L   7     -21.467 -73.923 -26.941  1.00 55.07 LIG 0.16  C 
BRANCH 18 19
ATOM     19  CB  LEU L   7     -20.842 -72.558 -27.245  1.00 49.39 LIG 0.04  C 
BRANCH 19 20
ATOM     20  CG  LEU L   7     -19.581 -72.597 -28.108  1.00 45.34 LIG-0.02  C 
ATOM     21  CD2 LEU L   7     -18.980 -74.006 -28.103  1.00 40.01 LIG 0.01  C 
ATOM     22  CD1 LEU L   7     -18.590 -71.576 -27.585  1.00 33.03 LIG 0.01  C 
ENDBRANCH 19 20
ENDBRANCH 18 19
BRANCH 18 23
ATOM     23  C   LEU L   7     -21.241 -74.287 -25.475  1.00 52.26 LIG 0.22  C 
ATOM     24 O    LEU L   7     -20.244 -74.927 -25.139  1.00 59.22 LIG-0.29  OA
ENDBRANCH 18 23
ENDBRANCH 15 18
ENDBRANCH 5 14
ENDBRANCH 3 5
BRANCH 1 25
ATOM     25  CA  LYS L   5     -25.572 -78.733 -28.046  1.00 63.64 LIG 0.18  C 
BRANCH 25 26
ATOM     26  N   LYS L   5     -25.736 -79.591 -29.221  1.00 68.83 LIG-0.35  N 
ATOM     27  C   ALA L   4     -26.750 -80.451 -29.327  1.00 74.38 LIG 0.26  C 
ATOM     28 O    ALA L   4     -27.663 -80.519 -28.499  1.00 71.28 LIG-0.27  OA
ATOM     29 H    LYS L   5     -25.130 -79.488 -29.822  1.00 68.83 LIG 0.16  HD
BRANCH 27 30
ATOM     30  CA  ALA L   4     -26.735 -81.378 -30.549  1.00 68.81 LIG 0.40  C 
ATOM     31  N   ALA L   4     -25.804 -82.484 -30.351  1.00 73.56 LIG 0.61  N 
ATOM     32  CB  ALA L   4     -28.144 -81.907 -30.854  1.00 57.48 LIG 0.06  C 
ENDBRANCH 27 30
ENDBRANCH 25 26
BRANCH 25 33
ATOM     33  CB  LYS L   5     -24.591 -79.385 -27.068  1.00 69.62 LIG 0.04  C 
BRANCH 33 34
ATOM     34  CG  LYS L   5     -25.066 -79.428 -25.627  1.00 80.66 LIG 0.00  C 
BRANCH 34 35
ATOM     35  CD  LYS L   5     -26.521 -79.877 -25.546  1.00 85.15 LIG 0.03  C 
BRANCH 35 36
ATOM     36  CE  LYS L   5     -27.455 -78.696 -25.324  1.00 90.30 LIG 0.23  C 
BRANCH 36 37
ATOM     37  NZ  LYS L   5     -28.646 -78.733 -26.223  1.00 90.68 LIG-0.08  N 
ATOM     38 HZ3  LYS L   5     -29.361 -78.988 -25.759  1.00 90.68 LIG 0.27  HD
ATOM     39 HZ2  LYS L   5     -28.501 -79.311 -26.884  1.00 90.68 LIG 0.27  HD
ATOM     40 HZ1  LYS L   5     -28.787 -77.922 -26.564  1.00 90.68 LIG 0.27  HD
ENDBRANCH 36 37
ENDBRANCH 35 36
ENDBRANCH 34 35
ENDBRANCH 33 34
ENDBRANCH 25 33
ENDBRANCH 1 25
TORSDOF 19
ENDMDL
MODEL 15
USER: ADFR SOLUTION from run 115
USER: SCORE 13.054148 LL:  -1.342 LR: -12.888 RR:   0.000 FEB:  -7.220
USER: RMSD 3.614201
USER: SEED 114
USER: STATUS no improvement in best in 4 clusters for 5 generations
USER: GENES 21
USER: genes 0 Translation |==|  0.50876 0.40301 0.39539
USER: genes 1 Rotation |==|  0.56467 0.39377 0.50159 0.98428
USER: genes 2 Torsion [C]-N--CA-[CB] |==|  0.53366
USER: genes 3 Torsion [N]-CA--CB-[CG] |==|  0.52653
USER: genes 4 Torsion [CA]-CB--CG-[CD] |==|  0.39641
USER: genes 5 Torsion [CB]-CG--CD-[CE] |==|  0.96270
USER: genes 6 Torsion [CG]-CD--CE-[NZ] |==|  0.74227
USER: genes 7 Torsion [CD]-CE--NZ-[HZ1] |==|  0.91343
USER: genes 8 Torsion [N]-CA--C-[N] |==|  0.38312
USER: genes 9 Torsion [C]-N--CA-[CB] |==|  0.22399
USER: genes 10 Torsion [N]-CA--CB-[CG] |==|  0.61737
USER: genes 11 Torsion [CA]-CB--CG-[CD2] |==|  0.07555
USER: genes 12 Torsion [N]-CA--C-[O] |==|  0.69193
USER: genes 13 Torsion [N]-C--CA-[N] |==|  0.64569
USER: genes 14 Torsion [C]-CA--N-[C] |==|  0.69860
USER: genes 15 Torsion [N]-C--CA-[N] |==|  0.17743
USER: genes 16 Torsion [C]-CA--CB-[CG] |==|  0.78560
USER: genes 17 Torsion [CA]-CB--CG-[CD] |==|  0.42727
USER: genes 18 Torsion [CB]-CG--CD-[CE] |==|  0.70459
USER: genes 19 Torsion [CG]-CD--CE-[NZ] |==|  0.38830
USER: genes 20 Torsion [CD]-CE--NZ-[HZ2] |==|  0.07703
ROOT
ATOM      1  C   LYS L   5     -24.725 -78.091 -28.799  1.00 61.96 LIG 0.24  C 
ATOM      2 O    LYS L   5     -23.753 -77.455 -29.228  1.00 44.78 LIG-0.27  OA
ATOM      3  N   LYS L   6     -25.800 -77.500 -28.283  1.00 60.12 LIG-0.35  N 
ATOM      4 H    LYS L   6     -26.538 -77.908 -28.112  1.00 60.12 LIG 0.16  HD
ENDROOT
BRANCH 3 5
ATOM      5  CA  LYS L   6     -25.807 -76.078 -27.959  1.00 64.44 LIG 0.18  C 
BRANCH 5 6
ATOM      6  CB  LYS L   6     -27.029 -75.711 -27.116  1.00 71.41 LIG 0.04  C 
BRANCH 6 7
ATOM      7  CG  LYS L   6     -27.223 -74.208 -26.936  1.00 72.05 LIG 0.00  C 
BRANCH 7 8
ATOM      8  CD  LYS L   6     -28.692 -73.816 -26.958  1.00 65.16 LIG 0.03  C 
BRANCH 8 9
ATOM      9  CE  LYS L   6     -29.548 -74.961 -27.477  1.00 70.38 LIG 0.23  C 
BRANCH 9 10
ATOM     10  NZ  LYS L   6     -29.764 -74.856 -28.949  1.00 74.13 LIG-0.08  N 
ATOM     11 HZ2  LYS L   6     -29.106 -75.277 -29.376  1.00 74.13 LIG 0.27  HD
ATOM     12 HZ1  LYS L   6     -29.771 -73.999 -29.187  1.00 74.13 LIG 0.27  HD
ATOM     13 HZ3  LYS L   6     -30.543 -75.229 -29.162  1.00 74.13 LIG 0.27  HD
ENDBRANCH 9 10
ENDBRANCH 8 9
ENDBRANCH 7 8
ENDBRANCH 6 7
ENDBRANCH 5 6
BRANCH 5 14
ATOM     14  C   LYS L   6     -24.527 -75.769 -27.197  1.00 59.21 LIG 0.24  C 
ATOM     15  N   LEU L   7     -23.889 -74.648 -27.514  1.00 55.77 LIG-0.35  N 
ATOM     16 H    LEU L   7     -24.183 -74.067 -28.076  1.00 55.77 LIG 0.16  HD
ATOM     17 O    LYS L   6     -24.114 -76.547 -26.343  1.00 62.62 LIG-0.27  OA
BRANCH 15 18
ATOM     18  CA  LEU L   7     -22.598 -74.312 -26.908  1.00 55.07 LIG 0.16  C 
BRANCH 18 19
ATOM     19  CB  LEU L   7     -21.459 -75.061 -27.607  1.00 49.39 LIG 0.04  C 
BRANCH 19 20
ATOM     20  CG  LEU L   7     -20.396 -75.644 -26.678  1.00 45.34 LIG-0.02  C 
ATOM     21  CD2 LEU L   7     -21.002 -75.946 -25.304  1.00 40.01 LIG 0.01  C 
ATOM     22  CD1 LEU L   7     -19.243 -74.666 -26.566  1.00 33.03 LIG 0.01  C 
ENDBRANCH 19 20
ENDBRANCH 18 19
BRANCH 18 23
ATOM     23  C   LEU L   7     -22.322 -72.810 -26.919  1.00 52.26 LIG 0.22  C 
ATOM     24 O    LEU L   7     -21.438 -72.345 -27.639  1.00 59.22 LIG-0.29  OA
ENDBRANCH 18 23
ENDBRANCH 15 18
ENDBRANCH 5 14
ENDBRANCH 3 5
BRANCH 1 25
ATOM     25  CA  LYS L   5     -24.752 -79.626 -28.844  1.00 63.64 LIG 0.18  C 
BRANCH 25 26
ATOM     26  N   LYS L   5     -23.577 -80.253 -28.238  1.00 68.83 LIG-0.35  N 
ATOM     27  C   ALA L   4     -22.645 -80.860 -28.973  1.00 74.38 LIG 0.26  C 
ATOM     28 O    ALA L   4     -22.655 -80.855 -30.208  1.00 71.28 LIG-0.27  OA
ATOM     29 H    LYS L   5     -23.546 -80.193 -27.380  1.00 68.83 LIG 0.16  HD
BRANCH 27 30
ATOM     30  CA  ALA L   4     -21.531 -81.584 -28.206  1.00 68.81 LIG 0.40  C 
ATOM     31  N   ALA L   4     -22.074 -82.692 -27.426  1.00 73.56 LIG 0.61  N 
ATOM     32  CB  ALA L   4     -20.440 -82.084 -29.164  1.00 57.48 LIG 0.06  C 
ENDBRANCH 27 30
ENDBRANCH 25 26
BRANCH 25 33
ATOM     33  CB  LYS L   5     -26.020 -80.141 -28.157  1.00 69.62 LIG 0.04  C 
BRANCH 33 34
ATOM     34  CG  LYS L   5     -25.976 -80.113 -26.640  1.00 80.66 LIG 0.00  C 
BRANCH 34 35
ATOM     35  CD  LYS L   5     -27.382 -80.005 -26.056  1.00 85.15 LIG 0.03  C 
BRANCH 35 36
ATOM     36  CE  LYS L   5     -27.648 -78.612 -25.504  1.00 90.30 LIG 0.23  C 
BRANCH 36 37
ATOM     37  NZ  LYS L   5     -29.028 -78.132 -25.808  1.00 90.68 LIG-0.08  N 
ATOM     38 HZ3  LYS L   5     -29.314 -77.609 -25.147  1.00 90.68 LIG 0.27  HD
ATOM     39 HZ2  LYS L   5     -29.574 -78.830 -25.889  1.00 90.68 LIG 0.27  HD
ATOM     40 HZ1  LYS L   5     -29.021 -77.671 -26.570  1.00 90.68 LIG 0.27  HD
ENDBRANCH 36 37
ENDBRANCH 35 36
ENDBRANCH 34 35
ENDBRANCH 33 34
ENDBRANCH 25 33
ENDBRANCH 1 25
TORSDOF 19
ENDMDL
