MODEL 1
USER: ADFR SOLUTION from run 131
USER: SCORE 12.960530 LL:  -2.632 LR: -12.391 RR:   0.000 FEB:  -7.022
USER: RMSD 2.941494
USER: SEED 130
USER: STATUS no improvement in best in 5 clusters for 5 generations
USER: GENES 20
USER: genes 0 Translation |==|  0.54051 0.57478 0.44624
USER: genes 1 Rotation |==|  0.64709 0.45515 0.45954 0.97404
USER: genes 2 Torsion [C]-N--CA-[CB] |==|  0.21984
USER: genes 3 Torsion [N]-CA--CB-[CG2] |==|  0.49477
USER: genes 4 Torsion [CA]-CB--OG1-[HG1] |==|  0.93427
USER: genes 5 Torsion [N]-CA--C-[N] |==|  0.22950
USER: genes 6 Torsion [N]-CA--C-[O] |==|  0.26172
USER: genes 7 Torsion [C]-N--CA-[CB] |==|  0.50281
USER: genes 8 Torsion [N]-CA--C-[O] |==|  0.81428
USER: genes 9 Torsion [N]-CA--CB-[SG] |==|  0.55908
USER: genes 10 Torsion [CA]-CB--SG-[HG] |==|  0.30247
USER: genes 11 Torsion [N]-C--CA-[N] |==|  0.49337
USER: genes 12 Torsion [C]-CA--N-[C] |==|  0.53357
USER: genes 13 Torsion [N]-C--CA-[N] |==|  0.77826
USER: genes 14 Torsion [C]-CA--N-[C] |==|  0.60062
USER: genes 15 Torsion [N]-C--CA-[N] |==|  0.16908
USER: genes 16 Torsion [C]-CA--CB-[OG] |==|  0.76455
USER: genes 17 Torsion [CA]-CB--OG-[HG] |==|  0.19896
USER: genes 18 Torsion [C]-CA--CB-[OG] |==|  0.38797
USER: genes 19 Torsion [CA]-CB--OG-[HG] |==|  0.85620
ROOT
ATOM      1  C   SER B   4     -18.392  -6.729  14.269  1.00 56.97 LIG 0.24  C 
ATOM      2 O    SER B   4     -18.358  -6.265  13.125  1.00 57.23 LIG-0.27  OA
ATOM      3  N   THR B   5     -17.322  -6.765  15.069  1.00 55.89 LIG-0.34  N 
ATOM      4 H    THR B   5     -17.326  -7.097  15.862  1.00 55.89 LIG 0.16  HD
ENDROOT
BRANCH 3 5
ATOM      5  CA  THR B   5     -16.019  -6.224  14.645  1.00 55.10 LIG 0.20  C 
BRANCH 5 6
ATOM      6  CB  THR B   5     -15.971  -4.659  14.769  1.00 55.33 LIG 0.15  C 
ATOM      7  CG2 THR B   5     -14.599  -4.099  14.371  1.00 55.26 LIG 0.04  C 
BRANCH 6 8
ATOM      8 OG1  THR B   5     -16.986  -4.061  13.943  1.00 55.55 LIG-0.39  OA
ATOM      9 HG1  THR B   5     -17.191  -4.590  13.324  1.00 55.55 LIG 0.21  HD
ENDBRANCH 6 8
ENDBRANCH 5 6
BRANCH 5 10
ATOM     10  C   THR B   5     -14.818  -6.846  15.382  1.00 54.13 LIG 0.24  C 
ATOM     11  N   PRO B   6     -14.352  -8.029  14.923  1.00 52.90 LIG-0.34  N 
ATOM     12  CD  PRO B   6     -14.916  -8.860  13.841  1.00 52.89 LIG 0.13  C 
ATOM     13  CA  PRO B   6     -13.152  -8.638  15.514  1.00 51.99 LIG 0.18  C 
ATOM     14  CG  PRO B   6     -14.070 -10.108  13.866  1.00 52.79 LIG 0.02  C 
ATOM     15  CB  PRO B   6     -12.797  -9.757  14.529  1.00 51.93 LIG 0.04  C 
ATOM     16 O    THR B   5     -14.301  -6.254  16.341  1.00 54.19 LIG-0.27  OA
BRANCH 13 17
ATOM     17  C   PRO B   6     -12.015  -7.626  15.607  1.00 51.04 LIG 0.24  C 
ATOM     18 O    PRO B   6     -11.851  -6.990  16.653  1.00 50.92 LIG-0.27  OA
ATOM     19  N   CYS B   7     -11.237  -7.477  14.534  1.00 49.72 LIG-0.34  N 
ATOM     20 H    CYS B   7     -11.391  -7.842  13.771  1.00 49.72 LIG 0.16  HD
BRANCH 19 21
ATOM     21  CA  CYS B   7     -10.015  -6.648  14.585  1.00 48.85 LIG 0.19  C 
BRANCH 21 22
ATOM     22  C   CYS B   7     -10.255  -5.226  15.090  1.00 48.04 LIG 0.20  C 
ATOM     23 OXT  CYS B   7      -9.792  -4.837  16.160  1.00 47.16 LIG-0.65  OA
ATOM     24 O    CYS B   7     -10.921  -4.438  14.425  1.00 47.51 LIG-0.65  OA
ENDBRANCH 21 22
BRANCH 21 25
ATOM     25  CB  CYS B   7      -9.322  -6.626  13.216  1.00 48.98 LIG 0.11  C 
BRANCH 25 26
ATOM     26 SG   CYS B   7      -7.578  -6.180  13.337  1.00 48.50 LIG-0.18  SA
ATOM     27 HG   CYS B   7      -6.901  -7.145  13.115  1.00 48.50 LIG 0.10  HD
ENDBRANCH 25 26
ENDBRANCH 21 25
ENDBRANCH 19 21
ENDBRANCH 13 17
ENDBRANCH 5 10
ENDBRANCH 3 5
BRANCH 1 28
ATOM     28  CA  SER B   4     -19.696  -7.309  14.829  1.00 57.59 LIG 0.20  C 
BRANCH 28 29
ATOM     29  N   SER B   4     -20.821  -7.172  13.895  1.00 58.14 LIG-0.34  N 
ATOM     30  C   SER B   3     -22.084  -7.390  14.263  1.00 58.75 LIG 0.24  C 
ATOM     31 O    SER B   3     -22.411  -7.564  15.440  1.00 58.75 LIG-0.27  OA
ATOM     32 H    SER B   4     -20.591  -6.941  13.099  1.00 58.14 LIG 0.16  HD
BRANCH 30 33
ATOM     33  CA  SER B   3     -23.146  -7.394  13.142  1.00 59.17 LIG 0.20  C 
BRANCH 33 34
ATOM     34  N   SER B   3     -23.514  -6.021  12.763  1.00 59.50 LIG-0.34  N 
ATOM     35  C   PRO B   2     -24.741  -5.615  12.409  1.00 59.86 LIG 0.25  C 
ATOM     36 O    PRO B   2     -24.958  -4.464  12.013  1.00 59.80 LIG-0.27  OA
ATOM     37 H    SER B   3     -22.845  -5.480  12.791  1.00 59.50 LIG 0.16  HD
BRANCH 35 38
ATOM     38  CA  PRO B   2     -25.917  -6.603  12.483  1.00 60.11 LIG 0.35  C 
ATOM     39  CB  PRO B   2     -27.249  -5.916  12.140  1.00 60.16 LIG 0.05  C 
ATOM     40  CG  PRO B   2     -28.240  -6.446  13.120  1.00 60.30 LIG 0.04  C 
ATOM     41  CD  PRO B   2     -27.476  -6.765  14.362  1.00 60.25 LIG 0.32  C 
ATOM     42  N   PRO B   2     -26.129  -7.084  13.857  1.00 60.27 LIG 0.32  N 
ENDBRANCH 35 38
ENDBRANCH 33 34
BRANCH 33 43
ATOM     43  CB  SER B   3     -22.610  -8.153  11.921  1.00 59.26 LIG 0.20  C 
BRANCH 43 44
ATOM     44 OG   SER B   3     -21.828  -7.303  11.098  1.00 59.53 LIG-0.40  OA
ATOM     45 HG   SER B   3     -21.100  -7.135  11.481  1.00 59.53 LIG 0.21  HD
ENDBRANCH 43 44
ENDBRANCH 33 43
ENDBRANCH 30 33
ENDBRANCH 28 29
BRANCH 28 46
ATOM     46  CB  SER B   4     -19.510  -8.793  15.156  1.00 57.64 LIG 0.20  C 
BRANCH 46 47
ATOM     47 OG   SER B   4     -20.160  -9.127  16.375  1.00 57.32 LIG-0.40  OA
ATOM     48 HG   SER B   4     -19.918  -8.594  16.977  1.00 57.32 LIG 0.21  HD
ENDBRANCH 46 47
ENDBRANCH 28 46
ENDBRANCH 1 28
TORSDOF 18
ENDMDL
MODEL 2
USER: ADFR SOLUTION from run 131
USER: SCORE 13.085084 LL:  -2.844 LR: -11.837 RR:   0.000 FEB:  -6.468
USER: RMSD 3.028789
USER: SEED 130
USER: STATUS no improvement in best in 5 clusters for 5 generations
USER: GENES 20
USER: genes 0 Translation |==|  0.54059 0.57395 0.44541
USER: genes 1 Rotation |==|  0.65158 0.45526 0.46126 0.97278
USER: genes 2 Torsion [C]-N--CA-[CB] |==|  0.22053
USER: genes 3 Torsion [N]-CA--CB-[CG2] |==|  0.49467
USER: genes 4 Torsion [CA]-CB--OG1-[HG1] |==|  0.93433
USER: genes 5 Torsion [N]-CA--C-[N] |==|  0.22764
USER: genes 6 Torsion [N]-CA--C-[O] |==|  0.26137
USER: genes 7 Torsion [C]-N--CA-[CB] |==|  0.50251
USER: genes 8 Torsion [N]-CA--C-[O] |==|  0.81479
USER: genes 9 Torsion [N]-CA--CB-[SG] |==|  0.55965
USER: genes 10 Torsion [CA]-CB--SG-[HG] |==|  0.30239
USER: genes 11 Torsion [N]-C--CA-[N] |==|  0.49829
USER: genes 12 Torsion [C]-CA--N-[C] |==|  0.55078
USER: genes 13 Torsion [N]-C--CA-[N] |==|  0.50556
USER: genes 14 Torsion [C]-CA--N-[C] |==|  0.75837
USER: genes 15 Torsion [N]-C--CA-[N] |==|  0.19221
USER: genes 16 Torsion [C]-CA--CB-[OG] |==|  0.76607
USER: genes 17 Torsion [CA]-CB--OG-[HG] |==|  0.20701
USER: genes 18 Torsion [C]-CA--CB-[OG] |==|  0.38643
USER: genes 19 Torsion [CA]-CB--OG-[HG] |==|  0.86050
ROOT
ATOM      1  C   SER B   4     -18.389  -6.742  14.257  1.00 56.97 LIG 0.24  C 
ATOM      2 O    SER B   4     -18.355  -6.257  13.122  1.00 57.23 LIG-0.27  OA
ATOM      3  N   THR B   5     -17.322  -6.783  15.060  1.00 55.89 LIG-0.34  N 
ATOM      4 H    THR B   5     -17.327  -7.130  15.848  1.00 55.89 LIG 0.16  HD
ENDROOT
BRANCH 3 5
ATOM      5  CA  THR B   5     -16.022  -6.225  14.651  1.00 55.10 LIG 0.20  C 
BRANCH 5 6
ATOM      6  CB  THR B   5     -15.985  -4.662  14.809  1.00 55.33 LIG 0.15  C 
ATOM      7  CG2 THR B   5     -14.615  -4.085  14.427  1.00 55.26 LIG 0.04  C 
BRANCH 6 8
ATOM      8 OG1  THR B   5     -17.001  -4.053  13.994  1.00 55.55 LIG-0.39  OA
ATOM      9 HG1  THR B   5     -17.202  -4.570  13.363  1.00 55.55 LIG 0.21  HD
ENDBRANCH 6 8
ENDBRANCH 5 6
BRANCH 5 10
ATOM     10  C   THR B   5     -14.818  -6.854  15.376  1.00 54.13 LIG 0.24  C 
ATOM     11  N   PRO B   6     -14.352  -8.031  14.901  1.00 52.90 LIG-0.34  N 
ATOM     12  CD  PRO B   6     -14.919  -8.849  13.811  1.00 52.89 LIG 0.13  C 
ATOM     13  CA  PRO B   6     -13.150  -8.646  15.481  1.00 51.99 LIG 0.18  C 
ATOM     14  CG  PRO B   6     -14.072 -10.097  13.817  1.00 52.79 LIG 0.02  C 
ATOM     15  CB  PRO B   6     -12.796  -9.753  14.481  1.00 51.93 LIG 0.04  C 
ATOM     16 O    THR B   5     -14.300  -6.275  16.341  1.00 54.19 LIG-0.27  OA
BRANCH 13 17
ATOM     17  C   PRO B   6     -12.014  -7.634  15.583  1.00 51.04 LIG 0.24  C 
ATOM     18 O    PRO B   6     -11.849  -7.010  16.636  1.00 50.92 LIG-0.27  OA
ATOM     19  N   CYS B   7     -11.237  -7.473  14.511  1.00 49.72 LIG-0.34  N 
ATOM     20 H    CYS B   7     -11.392  -7.829  13.744  1.00 49.72 LIG 0.16  HD
BRANCH 19 21
ATOM     21  CA  CYS B   7     -10.017  -6.643  14.570  1.00 48.85 LIG 0.19  C 
BRANCH 21 22
ATOM     22  C   CYS B   7     -10.257  -5.226  15.088  1.00 48.04 LIG 0.20  C 
ATOM     23 OXT  CYS B   7      -9.791  -4.846  16.160  1.00 47.16 LIG-0.65  OA
ATOM     24 O    CYS B   7     -10.927  -4.433  14.432  1.00 47.51 LIG-0.65  OA
ENDBRANCH 21 22
BRANCH 21 25
ATOM     25  CB  CYS B   7      -9.324  -6.608  13.201  1.00 48.98 LIG 0.11  C 
BRANCH 25 26
ATOM     26 SG   CYS B   7      -7.579  -6.167  13.326  1.00 48.50 LIG-0.18  SA
ATOM     27 HG   CYS B   7      -6.904  -7.131  13.093  1.00 48.50 LIG 0.10  HD
ENDBRANCH 25 26
ENDBRANCH 21 25
ENDBRANCH 19 21
ENDBRANCH 13 17
ENDBRANCH 5 10
ENDBRANCH 3 5
BRANCH 1 28
ATOM     28  CA  SER B   4     -19.691  -7.342  14.802  1.00 57.59 LIG 0.20  C 
BRANCH 28 29
ATOM     29  N   SER B   4     -20.804  -7.234  13.850  1.00 58.14 LIG-0.34  N 
ATOM     30  C   SER B   3     -22.078  -7.354  14.225  1.00 58.75 LIG 0.24  C 
ATOM     31 O    SER B   3     -22.418  -7.404  15.410  1.00 58.75 LIG-0.27  OA
ATOM     32 H    SER B   4     -20.559  -7.087  13.038  1.00 58.14 LIG 0.16  HD
BRANCH 30 33
ATOM     33  CA  SER B   3     -23.134  -7.406  13.099  1.00 59.17 LIG 0.20  C 
BRANCH 33 34
ATOM     34  N   SER B   3     -24.492  -7.492  13.657  1.00 59.50 LIG-0.34  N 
ATOM     35  C   PRO B   2     -25.123  -8.624  13.996  1.00 59.86 LIG 0.25  C 
ATOM     36 O    PRO B   2     -26.301  -8.626  14.373  1.00 59.80 LIG-0.27  OA
ATOM     37 H    SER B   3     -24.859  -6.719  13.751  1.00 59.50 LIG 0.16  HD
BRANCH 35 38
ATOM     38  CA  PRO B   2     -24.376  -9.965  13.907  1.00 60.11 LIG 0.35  C 
ATOM     39  CB  PRO B   2     -25.300 -11.146  14.243  1.00 60.16 LIG 0.05  C 
ATOM     40  CG  PRO B   2     -24.489 -12.064  15.094  1.00 60.30 LIG 0.04  C 
ATOM     41  CD  PRO B   2     -23.519 -11.205  15.834  1.00 60.25 LIG 0.32  C 
ATOM     42  N   PRO B   2     -23.321 -10.060  14.928  1.00 60.27 LIG 0.32  N 
ENDBRANCH 35 38
ENDBRANCH 33 34
BRANCH 33 43
ATOM     43  CB  SER B   3     -23.005  -6.165  12.208  1.00 59.26 LIG 0.20  C 
BRANCH 43 44
ATOM     44 OG   SER B   3     -23.716  -5.068  12.760  1.00 59.53 LIG-0.40  OA
ATOM     45 HG   SER B   3     -23.291  -4.761  13.416  1.00 59.53 LIG 0.21  HD
ENDBRANCH 43 44
ENDBRANCH 33 43
ENDBRANCH 30 33
ENDBRANCH 28 29
BRANCH 28 46
ATOM     46  CB  SER B   4     -19.482  -8.819  15.145  1.00 57.64 LIG 0.20  C 
BRANCH 46 47
ATOM     47 OG   SER B   4     -20.134  -9.152  16.363  1.00 57.32 LIG-0.40  OA
ATOM     48 HG   SER B   4     -19.921  -8.597  16.955  1.00 57.32 LIG 0.21  HD
ENDBRANCH 46 47
ENDBRANCH 28 46
ENDBRANCH 1 28
TORSDOF 18
ENDMDL
MODEL 3
USER: ADFR SOLUTION from run 58
USER: SCORE 12.972951 LL:  -2.598 LR: -11.557 RR:   0.000 FEB:  -6.188
USER: RMSD 3.755480
USER: SEED 57
USER: STATUS no improvement in best in 9 clusters for 5 generations
USER: GENES 20
USER: genes 0 Translation |==|  0.57715 0.62212 0.42832
USER: genes 1 Rotation |==|  0.66134 0.50189 0.51856 0.97289
USER: genes 2 Torsion [C]-N--CA-[CB] |==|  0.18328
USER: genes 3 Torsion [N]-CA--CB-[CG2] |==|  0.20774
USER: genes 4 Torsion [CA]-CB--OG1-[HG1] |==|  0.06570
USER: genes 5 Torsion [N]-CA--C-[N] |==|  0.13237
USER: genes 6 Torsion [N]-CA--C-[O] |==|  0.31576
USER: genes 7 Torsion [C]-N--CA-[CB] |==|  0.29340
USER: genes 8 Torsion [N]-CA--C-[O] |==|  0.50764
USER: genes 9 Torsion [N]-CA--CB-[SG] |==|  0.88249
USER: genes 10 Torsion [CA]-CB--SG-[HG] |==|  0.21704
USER: genes 11 Torsion [N]-C--CA-[N] |==|  0.48221
USER: genes 12 Torsion [C]-CA--N-[C] |==|  0.56092
USER: genes 13 Torsion [N]-C--CA-[N] |==|  0.57176
USER: genes 14 Torsion [C]-CA--N-[C] |==|  0.61790
USER: genes 15 Torsion [N]-C--CA-[N] |==|  0.43707
USER: genes 16 Torsion [C]-CA--CB-[OG] |==|  0.68111
USER: genes 17 Torsion [CA]-CB--OG-[HG] |==|  0.18320
USER: genes 18 Torsion [C]-CA--CB-[OG] |==|  0.43332
USER: genes 19 Torsion [CA]-CB--OG-[HG] |==|  0.88340
ROOT
ATOM      1  C   SER B   4     -17.347  -6.019  14.014  1.00 56.97 LIG 0.24  C 
ATOM      2 O    SER B   4     -17.568  -5.526  12.903  1.00 57.23 LIG-0.27  OA
ATOM      3  N   THR B   5     -16.229  -5.778  14.705  1.00 55.89 LIG-0.34  N 
ATOM      4 H    THR B   5     -16.055  -6.125  15.473  1.00 55.89 LIG 0.16  HD
ENDROOT
BRANCH 3 5
ATOM      5  CA  THR B   5     -15.182  -4.877  14.195  1.00 55.10 LIG 0.20  C 
BRANCH 5 6
ATOM      6  CB  THR B   5     -15.687  -3.392  14.105  1.00 55.33 LIG 0.15  C 
ATOM      7  CG2 THR B   5     -15.770  -2.736  15.490  1.00 55.26 LIG 0.04  C 
BRANCH 6 8
ATOM      8 OG1  THR B   5     -14.814  -2.617  13.265  1.00 55.55 LIG-0.39  OA
ATOM      9 HG1  THR B   5     -14.409  -3.128  12.735  1.00 55.55 LIG 0.21  HD
ENDBRANCH 6 8
ENDBRANCH 5 6
BRANCH 5 10
ATOM     10  C   THR B   5     -13.867  -4.937  14.993  1.00 54.13 LIG 0.24  C 
ATOM     11  N   PRO B   6     -13.364  -6.160  15.273  1.00 52.90 LIG-0.34  N 
ATOM     12  CD  PRO B   6     -13.977  -7.472  14.984  1.00 52.89 LIG 0.13  C 
ATOM     13  CA  PRO B   6     -12.067  -6.297  15.949  1.00 51.99 LIG 0.18  C 
ATOM     14  CG  PRO B   6     -13.042  -8.459  15.636  1.00 52.79 LIG 0.02  C 
ATOM     15  CB  PRO B   6     -11.735  -7.785  15.789  1.00 51.93 LIG 0.04  C 
ATOM     16 O    THR B   5     -13.297  -3.890  15.335  1.00 54.19 LIG-0.27  OA
BRANCH 13 17
ATOM     17  C   PRO B   6     -11.005  -5.436  15.273  1.00 51.04 LIG 0.24  C 
ATOM     18 O    PRO B   6     -10.520  -4.479  15.884  1.00 50.92 LIG-0.27  OA
ATOM     19  N   CYS B   7     -10.644  -5.768  14.033  1.00 49.72 LIG-0.34  N 
ATOM     20 H    CYS B   7     -11.035  -6.372  13.561  1.00 49.72 LIG 0.16  HD
BRANCH 19 21
ATOM     21  CA  CYS B   7      -9.511  -5.099  13.362  1.00 48.85 LIG 0.19  C 
BRANCH 21 22
ATOM     22  C   CYS B   7      -9.843  -4.570  11.968  1.00 48.04 LIG 0.20  C 
ATOM     23 OXT  CYS B   7     -10.975  -4.659  11.499  1.00 47.16 LIG-0.65  OA
ATOM     24 O    CYS B   7      -8.972  -4.038  11.285  1.00 47.51 LIG-0.65  OA
ENDBRANCH 21 22
BRANCH 21 25
ATOM     25  CB  CYS B   7      -8.291  -6.030  13.311  1.00 48.98 LIG 0.11  C 
BRANCH 25 26
ATOM     26 SG   CYS B   7      -8.042  -6.920  14.860  1.00 48.50 LIG-0.18  SA
ATOM     27 HG   CYS B   7      -8.816  -7.835  14.925  1.00 48.50 LIG 0.10  HD
ENDBRANCH 25 26
ENDBRANCH 21 25
ENDBRANCH 19 21
ENDBRANCH 13 17
ENDBRANCH 5 10
ENDBRANCH 3 5
BRANCH 1 28
ATOM     28  CA  SER B   4     -18.370  -6.963  14.656  1.00 57.59 LIG 0.20  C 
BRANCH 28 29
ATOM     29  N   SER B   4     -19.621  -7.045  13.892  1.00 58.14 LIG-0.34  N 
ATOM     30  C   SER B   3     -20.771  -7.436  14.443  1.00 58.75 LIG 0.24  C 
ATOM     31 O    SER B   3     -20.899  -7.602  15.659  1.00 58.75 LIG-0.27  OA
ATOM     32 H    SER B   4     -19.543  -6.819  13.065  1.00 58.14 LIG 0.16  HD
BRANCH 30 33
ATOM     33  CA  SER B   3     -21.963  -7.656  13.487  1.00 59.17 LIG 0.20  C 
BRANCH 33 34
ATOM     34  N   SER B   3     -23.241  -7.476  14.192  1.00 59.50 LIG-0.34  N 
ATOM     35  C   PRO B   2     -24.321  -8.258  14.056  1.00 59.86 LIG 0.25  C 
ATOM     36 O    PRO B   2     -25.393  -7.992  14.611  1.00 59.80 LIG-0.27  OA
ATOM     37 H    SER B   3     -23.234  -6.798  14.721  1.00 59.50 LIG 0.16  HD
BRANCH 35 38
ATOM     38  CA  PRO B   2     -24.239  -9.518  13.178  1.00 60.11 LIG 0.35  C 
ATOM     39  CB  PRO B   2     -24.569  -9.202  11.711  1.00 60.16 LIG 0.05  C 
ATOM     40  CG  PRO B   2     -25.426 -10.327  11.238  1.00 60.30 LIG 0.04  C 
ATOM     41  CD  PRO B   2     -26.173 -10.818  12.433  1.00 60.25 LIG 0.32  C 
ATOM     42  N   PRO B   2     -25.268 -10.500  13.552  1.00 60.27 LIG 0.32  N 
ENDBRANCH 35 38
ENDBRANCH 33 34
BRANCH 33 43
ATOM     43  CB  SER B   3     -21.869  -6.682  12.306  1.00 59.26 LIG 0.20  C 
BRANCH 43 44
ATOM     44 OG   SER B   3     -22.949  -5.762  12.319  1.00 59.53 LIG-0.40  OA
ATOM     45 HG   SER B   3     -22.886  -5.267  12.994  1.00 59.53 LIG 0.21  HD
ENDBRANCH 43 44
ENDBRANCH 33 43
ENDBRANCH 30 33
ENDBRANCH 28 29
BRANCH 28 46
ATOM     46  CB  SER B   4     -17.779  -8.370  14.779  1.00 57.64 LIG 0.20  C 
BRANCH 46 47
ATOM     47 OG   SER B   4     -18.422  -9.100  15.814  1.00 57.32 LIG-0.40  OA
ATOM     48 HG   SER B   4     -18.538  -8.601  16.479  1.00 57.32 LIG 0.21  HD
ENDBRANCH 46 47
ENDBRANCH 28 46
ENDBRANCH 1 28
TORSDOF 18
ENDMDL
MODEL 4
USER: ADFR SOLUTION from run 146
USER: SCORE 13.067681 LL:  -2.812 LR: -11.508 RR:   0.000 FEB:  -6.139
USER: RMSD 2.320995
USER: SEED 145
USER: STATUS no improvement in best in 3 clusters for 5 generations
USER: GENES 20
USER: genes 0 Translation |==|  0.51039 0.40860 0.52372
USER: genes 1 Rotation |==|  0.52884 0.53366 0.52827 0.99723
USER: genes 2 Torsion [C]-N--CA-[CB] |==|  0.21504
USER: genes 3 Torsion [N]-CA--CB-[CG2] |==|  0.71690
USER: genes 4 Torsion [CA]-CB--OG1-[HG1] |==|  0.96001
USER: genes 5 Torsion [N]-CA--C-[N] |==|  0.26394
USER: genes 6 Torsion [N]-CA--C-[O] |==|  0.77994
USER: genes 7 Torsion [C]-N--CA-[CB] |==|  0.38984
USER: genes 8 Torsion [N]-CA--C-[O] |==|  0.77215
USER: genes 9 Torsion [N]-CA--CB-[SG] |==|  0.67958
USER: genes 10 Torsion [CA]-CB--SG-[HG] |==|  0.61653
USER: genes 11 Torsion [N]-C--CA-[N] |==|  0.42142
USER: genes 12 Torsion [C]-CA--N-[C] |==|  0.81816
USER: genes 13 Torsion [N]-C--CA-[N] |==|  0.36183
USER: genes 14 Torsion [C]-CA--N-[C] |==|  0.69884
USER: genes 15 Torsion [N]-C--CA-[N] |==|  0.84487
USER: genes 16 Torsion [C]-CA--CB-[OG] |==|  0.64997
USER: genes 17 Torsion [CA]-CB--OG-[HG] |==|  0.18190
USER: genes 18 Torsion [C]-CA--CB-[OG] |==|  0.43123
USER: genes 19 Torsion [CA]-CB--OG-[HG] |==|  0.79153
ROOT
ATOM      1  C   SER B   4     -19.250  -9.222  15.373  1.00 56.97 LIG 0.24  C 
ATOM      2 O    SER B   4     -19.588  -9.390  14.197  1.00 57.23 LIG-0.27  OA
ATOM      3  N   THR B   5     -18.119  -8.601  15.721  1.00 55.89 LIG-0.34  N 
ATOM      4 H    THR B   5     -17.863  -8.489  16.535  1.00 55.89 LIG 0.16  HD
ENDROOT
BRANCH 3 5
ATOM      5  CA  THR B   5     -17.198  -8.046  14.714  1.00 55.10 LIG 0.20  C 
BRANCH 5 6
ATOM      6  CB  THR B   5     -17.725  -6.685  14.133  1.00 55.33 LIG 0.15  C 
ATOM      7  CG2 THR B   5     -18.359  -6.867  12.747  1.00 55.26 LIG 0.04  C 
BRANCH 6 8
ATOM      8 OG1  THR B   5     -18.692  -6.102  15.024  1.00 55.55 LIG-0.39  OA
ATOM      9 HG1  THR B   5     -18.942  -6.678  15.583  1.00 55.55 LIG 0.21  HD
ENDBRANCH 6 8
ENDBRANCH 5 6
BRANCH 5 10
ATOM     10  C   THR B   5     -15.753  -7.876  15.219  1.00 54.13 LIG 0.24  C 
ATOM     11  N   PRO B   6     -14.882  -8.876  14.957  1.00 52.90 LIG-0.34  N 
ATOM     12  CD  PRO B   6     -15.168 -10.174  14.315  1.00 52.89 LIG 0.13  C 
ATOM     13  CA  PRO B   6     -13.465  -8.746  15.324  1.00 51.99 LIG 0.18  C 
ATOM     14  CG  PRO B   6     -13.862 -10.922  14.412  1.00 52.79 LIG 0.02  C 
ATOM     15  CB  PRO B   6     -12.796  -9.912  14.588  1.00 51.93 LIG 0.04  C 
ATOM     16 O    THR B   5     -15.420  -6.845  15.820  1.00 54.19 LIG-0.27  OA
BRANCH 13 17
ATOM     17  C   PRO B   6     -12.897  -7.414  14.844  1.00 51.04 LIG 0.24  C 
ATOM     18 O    PRO B   6     -12.572  -7.283  13.660  1.00 50.92 LIG-0.27  OA
ATOM     19  N   CYS B   7     -12.782  -6.436  15.744  1.00 49.72 LIG-0.34  N 
ATOM     20 H    CYS B   7     -12.917  -6.538  16.587  1.00 49.72 LIG 0.16  HD
BRANCH 19 21
ATOM     21  CA  CYS B   7     -12.402  -5.067  15.341  1.00 48.85 LIG 0.19  C 
BRANCH 21 22
ATOM     22  C   CYS B   7     -10.905  -4.783  15.452  1.00 48.04 LIG 0.20  C 
ATOM     23 OXT  CYS B   7     -10.164  -4.851  14.474  1.00 47.16 LIG-0.65  OA
ATOM     24 O    CYS B   7     -10.413  -4.476  16.534  1.00 47.51 LIG-0.65  OA
ENDBRANCH 21 22
BRANCH 21 25
ATOM     25  CB  CYS B   7     -13.210  -4.030  16.133  1.00 48.98 LIG 0.11  C 
BRANCH 25 26
ATOM     26 SG   CYS B   7     -14.301  -3.057  15.075  1.00 48.50 LIG-0.18  SA
ATOM     27 HG   CYS B   7     -14.261  -1.905  15.410  1.00 48.50 LIG 0.10  HD
ENDBRANCH 25 26
ENDBRANCH 21 25
ENDBRANCH 19 21
ENDBRANCH 13 17
ENDBRANCH 5 10
ENDBRANCH 3 5
BRANCH 1 28
ATOM     28  CA  SER B   4     -20.134  -9.744  16.512  1.00 57.59 LIG 0.20  C 
BRANCH 28 29
ATOM     29  N   SER B   4     -21.556  -9.790  16.147  1.00 58.14 LIG-0.34  N 
ATOM     30  C   SER B   3     -22.263  -8.690  15.891  1.00 58.75 LIG 0.24  C 
ATOM     31 O    SER B   3     -21.741  -7.577  15.785  1.00 58.75 LIG-0.27  OA
ATOM     32 H    SER B   4     -21.884 -10.585  16.116  1.00 58.14 LIG 0.16  HD
BRANCH 30 33
ATOM     33  CA  SER B   3     -23.785  -8.868  15.704  1.00 59.17 LIG 0.20  C 
BRANCH 33 34
ATOM     34  N   SER B   3     -24.531  -7.907  16.532  1.00 59.50 LIG-0.34  N 
ATOM     35  C   PRO B   2     -25.237  -8.210  17.629  1.00 59.86 LIG 0.25  C 
ATOM     36 O    PRO B   2     -25.916  -7.364  18.223  1.00 59.80 LIG-0.27  OA
ATOM     37 H    SER B   3     -24.471  -7.101  16.237  1.00 59.50 LIG 0.16  HD
BRANCH 35 38
ATOM     38  CA  PRO B   2     -25.219  -9.650  18.168  1.00 60.11 LIG 0.35  C 
ATOM     39  CB  PRO B   2     -23.791 -10.101  18.515  1.00 60.16 LIG 0.05  C 
ATOM     40  CG  PRO B   2     -23.682 -11.506  18.028  1.00 60.30 LIG 0.04  C 
ATOM     41  CD  PRO B   2     -24.595 -11.616  16.853  1.00 60.25 LIG 0.32  C 
ATOM     42  N   PRO B   2     -25.637 -10.615  17.139  1.00 60.27 LIG 0.32  N 
ENDBRANCH 35 38
ENDBRANCH 33 34
BRANCH 33 43
ATOM     43  CB  SER B   3     -24.153  -8.688  14.226  1.00 59.26 LIG 0.20  C 
BRANCH 43 44
ATOM     44 OG   SER B   3     -25.165  -7.708  14.070  1.00 59.53 LIG-0.40  OA
ATOM     45 HG   SER B   3     -24.867  -6.958  14.301  1.00 59.53 LIG 0.21  HD
ENDBRANCH 43 44
ENDBRANCH 33 43
ENDBRANCH 30 33
ENDBRANCH 28 29
BRANCH 28 46
ATOM     46  CB  SER B   4     -19.687 -11.150  16.919  1.00 57.64 LIG 0.20  C 
BRANCH 46 47
ATOM     47 OG   SER B   4     -20.056 -11.429  18.262  1.00 57.32 LIG-0.40  OA
ATOM     48 HG   SER B   4     -19.545 -11.016  18.785  1.00 57.32 LIG 0.21  HD
ENDBRANCH 46 47
ENDBRANCH 28 46
ENDBRANCH 1 28
TORSDOF 18
ENDMDL
MODEL 5
USER: ADFR SOLUTION from run 1
USER: SCORE 12.415554 LL:  -2.646 LR: -11.327 RR:   0.000 FEB:  -5.958
USER: RMSD 3.479169
USER: SEED 771795
USER: STATUS no improvement in best in 3 clusters for 5 generations
USER: GENES 20
USER: genes 0 Translation |==|  0.54136 0.35886 0.55493
USER: genes 1 Rotation |==|  0.47129 0.54592 0.60187 0.98651
USER: genes 2 Torsion [C]-N--CA-[CB] |==|  0.28751
USER: genes 3 Torsion [N]-CA--CB-[CG2] |==|  0.85727
USER: genes 4 Torsion [CA]-CB--OG1-[HG1] |==|  0.87435
USER: genes 5 Torsion [N]-CA--C-[N] |==|  0.31051
USER: genes 6 Torsion [N]-CA--C-[O] |==|  0.78340
USER: genes 7 Torsion [C]-N--CA-[CB] |==|  0.39206
USER: genes 8 Torsion [N]-CA--C-[O] |==|  0.74647
USER: genes 9 Torsion [N]-CA--CB-[SG] |==|  0.76412
USER: genes 10 Torsion [CA]-CB--SG-[HG] |==|  0.21369
USER: genes 11 Torsion [N]-C--CA-[N] |==|  0.35556
USER: genes 12 Torsion [C]-CA--N-[C] |==|  0.80522
USER: genes 13 Torsion [N]-C--CA-[N] |==|  0.18905
USER: genes 14 Torsion [C]-CA--N-[C] |==|  0.75977
USER: genes 15 Torsion [N]-C--CA-[N] |==|  0.45453
USER: genes 16 Torsion [C]-CA--CB-[OG] |==|  0.10814
USER: genes 17 Torsion [CA]-CB--OG-[HG] |==|  0.44450
USER: genes 18 Torsion [C]-CA--CB-[OG] |==|  0.29265
USER: genes 19 Torsion [CA]-CB--OG-[HG] |==|  0.14649
ROOT
ATOM      1  C   SER B   4     -18.367  -9.968  15.818  1.00 56.97 LIG 0.24  C 
ATOM      2 O    SER B   4     -18.623 -10.473  14.720  1.00 57.23 LIG-0.27  OA
ATOM      3  N   THR B   5     -17.489  -8.973  15.971  1.00 55.89 LIG-0.34  N 
ATOM      4 H    THR B   5     -17.290  -8.621  16.731  1.00 55.89 LIG 0.16  HD
ENDROOT
BRANCH 3 5
ATOM      5  CA  THR B   5     -16.774  -8.387  14.825  1.00 55.10 LIG 0.20  C 
BRANCH 5 6
ATOM      6  CB  THR B   5     -17.375  -6.993  14.417  1.00 55.33 LIG 0.15  C 
ATOM      7  CG2 THR B   5     -18.896  -7.065  14.224  1.00 55.26 LIG 0.04  C 
BRANCH 6 8
ATOM      8 OG1  THR B   5     -17.069  -6.005  15.416  1.00 55.55 LIG-0.39  OA
ATOM      9 HG1  THR B   5     -17.214  -6.324  16.180  1.00 55.55 LIG 0.21  HD
ENDBRANCH 6 8
ENDBRANCH 5 6
BRANCH 5 10
ATOM     10  C   THR B   5     -15.254  -8.260  15.038  1.00 54.13 LIG 0.24  C 
ATOM     11  N   PRO B   6     -14.453  -9.049  14.287  1.00 52.90 LIG-0.34  N 
ATOM     12  CD  PRO B   6     -14.863 -10.101  13.336  1.00 52.89 LIG 0.13  C 
ATOM     13  CA  PRO B   6     -12.992  -8.919  14.366  1.00 51.99 LIG 0.18  C 
ATOM     14  CG  PRO B   6     -13.560 -10.727  12.906  1.00 52.79 LIG 0.02  C 
ATOM     15  CB  PRO B   6     -12.494  -9.736  13.168  1.00 51.93 LIG 0.04  C 
ATOM     16 O    THR B   5     -14.805  -7.443  15.855  1.00 54.19 LIG-0.27  OA
BRANCH 13 17
ATOM     17  C   PRO B   6     -12.565  -7.461  14.234  1.00 51.04 LIG 0.24  C 
ATOM     18 O    PRO B   6     -12.544  -6.932  13.119  1.00 50.92 LIG-0.27  OA
ATOM     19  N   CYS B   7     -12.235  -6.815  15.354  1.00 49.72 LIG-0.34  N 
ATOM     20 H    CYS B   7     -12.157  -7.190  16.123  1.00 49.72 LIG 0.16  HD
BRANCH 19 21
ATOM     21  CA  CYS B   7     -11.972  -5.361  15.348  1.00 48.85 LIG 0.19  C 
BRANCH 21 22
ATOM     22  C   CYS B   7     -10.498  -5.001  15.176  1.00 48.04 LIG 0.20  C 
ATOM     23 OXT  CYS B   7      -9.998  -4.851  14.063  1.00 47.16 LIG-0.65  OA
ATOM     24 O    CYS B   7      -9.779  -4.851  16.160  1.00 47.51 LIG-0.65  OA
ENDBRANCH 21 22
BRANCH 21 25
ATOM     25  CB  CYS B   7     -12.545  -4.706  16.612  1.00 48.98 LIG 0.11  C 
BRANCH 25 26
ATOM     26 SG   CYS B   7     -14.291  -4.287  16.436  1.00 48.50 LIG-0.18  SA
ATOM     27 HG   CYS B   7     -14.955  -5.281  16.548  1.00 48.50 LIG 0.10  HD
ENDBRANCH 25 26
ENDBRANCH 21 25
ENDBRANCH 19 21
ENDBRANCH 13 17
ENDBRANCH 5 10
ENDBRANCH 3 5
BRANCH 1 28
ATOM     28  CA  SER B   4     -19.059 -10.485  17.085  1.00 57.59 LIG 0.20  C 
BRANCH 28 29
ATOM     29  N   SER B   4     -20.522 -10.516  16.957  1.00 58.14 LIG-0.34  N 
ATOM     30  C   SER B   3     -21.258  -9.405  16.912  1.00 58.75 LIG 0.24  C 
ATOM     31 O    SER B   3     -20.757  -8.282  16.814  1.00 58.75 LIG-0.27  OA
ATOM     32 H    SER B   4     -20.853 -11.309  16.914  1.00 58.14 LIG 0.16  HD
BRANCH 30 33
ATOM     33  CA  SER B   3     -22.791  -9.583  16.965  1.00 59.17 LIG 0.20  C 
BRANCH 33 34
ATOM     34  N   SER B   3     -23.216 -10.078  18.284  1.00 59.50 LIG-0.34  N 
ATOM     35  C   PRO B   2     -23.270 -11.365  18.650  1.00 59.86 LIG 0.25  C 
ATOM     36 O    PRO B   2     -23.726 -11.713  19.746  1.00 59.80 LIG-0.27  OA
ATOM     37 H    SER B   3     -23.436  -9.442  18.820  1.00 59.50 LIG 0.16  HD
BRANCH 35 38
ATOM     38  CA  PRO B   2     -22.762 -12.450  17.686  1.00 60.11 LIG 0.35  C 
ATOM     39  CB  PRO B   2     -23.823 -12.805  16.632  1.00 60.16 LIG 0.05  C 
ATOM     40  CG  PRO B   2     -23.779 -14.290  16.498  1.00 60.30 LIG 0.04  C 
ATOM     41  CD  PRO B   2     -23.356 -14.819  17.828  1.00 60.25 LIG 0.32  C 
ATOM     42  N   PRO B   2     -22.539 -13.726  18.383  1.00 60.27 LIG 0.32  N 
ENDBRANCH 35 38
ENDBRANCH 33 34
BRANCH 33 43
ATOM     43  CB  SER B   3     -23.480  -8.249  16.654  1.00 59.26 LIG 0.20  C 
BRANCH 43 44
ATOM     44 OG   SER B   3     -22.794  -7.550  15.628  1.00 59.53 LIG-0.40  OA
ATOM     45 HG   SER B   3     -23.308  -6.982  15.284  1.00 59.53 LIG 0.21  HD
ENDBRANCH 43 44
ENDBRANCH 33 43
ENDBRANCH 30 33
ENDBRANCH 28 29
BRANCH 28 46
ATOM     46  CB  SER B   4     -18.566 -11.897  17.411  1.00 57.64 LIG 0.20  C 
BRANCH 46 47
ATOM     47 OG   SER B   4     -17.672 -11.877  18.515  1.00 57.32 LIG-0.40  OA
ATOM     48 HG   SER B   4     -18.031 -11.477  19.160  1.00 57.32 LIG 0.21  HD
ENDBRANCH 46 47
ENDBRANCH 28 46
ENDBRANCH 1 28
TORSDOF 18
ENDMDL
MODEL 6
USER: ADFR SOLUTION from run 90
USER: SCORE 11.867190 LL:  -2.487 LR: -11.218 RR:   0.000 FEB:  -5.849
USER: RMSD 1.234645
USER: SEED 89
USER: STATUS no improvement in best in 7 clusters for 5 generations
USER: GENES 20
USER: genes 0 Translation |==|  0.49622 0.49044 0.46414
USER: genes 1 Rotation |==|  0.57203 0.50885 0.47260 0.99395
USER: genes 2 Torsion [C]-N--CA-[CB] |==|  0.18220
USER: genes 3 Torsion [N]-CA--CB-[CG2] |==|  0.13177
USER: genes 4 Torsion [CA]-CB--OG1-[HG1] |==|  0.25256
USER: genes 5 Torsion [N]-CA--C-[N] |==|  0.26351
USER: genes 6 Torsion [N]-CA--C-[O] |==|  0.77408
USER: genes 7 Torsion [C]-N--CA-[CB] |==|  0.40742
USER: genes 8 Torsion [N]-CA--C-[O] |==|  0.76905
USER: genes 9 Torsion [N]-CA--CB-[SG] |==|  0.73845
USER: genes 10 Torsion [CA]-CB--SG-[HG] |==|  0.57037
USER: genes 11 Torsion [N]-C--CA-[N] |==|  0.47210
USER: genes 12 Torsion [C]-CA--N-[C] |==|  0.59894
USER: genes 13 Torsion [N]-C--CA-[N] |==|  0.55535
USER: genes 14 Torsion [C]-CA--N-[C] |==|  0.54444
USER: genes 15 Torsion [N]-C--CA-[N] |==|  0.37210
USER: genes 16 Torsion [C]-CA--CB-[OG] |==|  0.71610
USER: genes 17 Torsion [CA]-CB--OG-[HG] |==|  0.14063
USER: genes 18 Torsion [C]-CA--CB-[OG] |==|  0.27669
USER: genes 19 Torsion [CA]-CB--OG-[HG] |==|  0.95507
ROOT
ATOM      1  C   SER B   4     -19.654  -7.994  14.524  1.00 56.97 LIG 0.24  C 
ATOM      2 O    SER B   4     -19.909  -7.894  13.320  1.00 57.23 LIG-0.27  OA
ATOM      3  N   THR B   5     -18.448  -7.726  15.034  1.00 55.89 LIG-0.34  N 
ATOM      4 H    THR B   5     -18.252  -7.804  15.868  1.00 55.89 LIG 0.16  HD
ENDROOT
BRANCH 3 5
ATOM      5  CA  THR B   5     -17.335  -7.263  14.189  1.00 55.10 LIG 0.20  C 
BRANCH 5 6
ATOM      6  CB  THR B   5     -17.622  -5.845  13.576  1.00 55.33 LIG 0.15  C 
ATOM      7  CG2 THR B   5     -18.133  -4.860  14.637  1.00 55.26 LIG 0.04  C 
BRANCH 6 8
ATOM      8 OG1  THR B   5     -16.431  -5.313  12.969  1.00 55.55 LIG-0.39  OA
ATOM      9 HG1  THR B   5     -16.405  -5.536  12.160  1.00 55.55 LIG 0.21  HD
ENDBRANCH 6 8
ENDBRANCH 5 6
BRANCH 5 10
ATOM     10  C   THR B   5     -15.971  -7.259  14.904  1.00 54.13 LIG 0.24  C 
ATOM     11  N   PRO B   6     -15.183  -8.346  14.746  1.00 52.90 LIG-0.34  N 
ATOM     12  CD  PRO B   6     -15.510  -9.598  14.036  1.00 52.89 LIG 0.13  C 
ATOM     13  CA  PRO B   6     -13.830  -8.377  15.319  1.00 51.99 LIG 0.18  C 
ATOM     14  CG  PRO B   6     -14.321 -10.486  14.303  1.00 52.79 LIG 0.02  C 
ATOM     15  CB  PRO B   6     -13.190  -9.603  14.659  1.00 51.93 LIG 0.04  C 
ATOM     16 O    THR B   5     -15.621  -6.276  15.574  1.00 54.19 LIG-0.27  OA
BRANCH 13 17
ATOM     17  C   PRO B   6     -13.057  -7.112  14.963  1.00 51.04 LIG 0.24  C 
ATOM     18 O    PRO B   6     -12.515  -7.022  13.857  1.00 50.92 LIG-0.27  OA
ATOM     19  N   CYS B   7     -13.009  -6.144  15.879  1.00 49.72 LIG-0.34  N 
ATOM     20 H    CYS B   7     -13.301  -6.225  16.684  1.00 49.72 LIG 0.16  HD
BRANCH 19 21
ATOM     21  CA  CYS B   7     -12.430  -4.822  15.565  1.00 48.85 LIG 0.19  C 
BRANCH 21 22
ATOM     22  C   CYS B   7     -10.923  -4.735  15.801  1.00 48.04 LIG 0.20  C 
ATOM     23 OXT  CYS B   7     -10.119  -4.886  14.883  1.00 47.16 LIG-0.65  OA
ATOM     24 O    CYS B   7     -10.485  -4.509  16.926  1.00 47.51 LIG-0.65  OA
ENDBRANCH 21 22
BRANCH 21 25
ATOM     25  CB  CYS B   7     -13.162  -3.716  16.336  1.00 48.98 LIG 0.11  C 
BRANCH 25 26
ATOM     26 SG   CYS B   7     -14.490  -2.969  15.370  1.00 48.50 LIG-0.18  SA
ATOM     27 HG   CYS B   7     -14.692  -1.853  15.762  1.00 48.50 LIG 0.10  HD
ENDBRANCH 25 26
ENDBRANCH 21 25
ENDBRANCH 19 21
ENDBRANCH 13 17
ENDBRANCH 5 10
ENDBRANCH 3 5
BRANCH 1 28
ATOM     28  CA  SER B   4     -20.736  -8.454  15.507  1.00 57.59 LIG 0.20  C 
BRANCH 28 29
ATOM     29  N   SER B   4     -22.072  -8.497  14.897  1.00 58.14 LIG-0.34  N 
ATOM     30  C   SER B   3     -23.176  -8.181  15.575  1.00 58.75 LIG 0.24  C 
ATOM     31 O    SER B   3     -23.142  -7.682  16.703  1.00 58.75 LIG-0.27  OA
ATOM     32 H    SER B   4     -22.074  -8.741  14.073  1.00 58.14 LIG 0.16  HD
BRANCH 30 33
ATOM     33  CA  SER B   3     -24.525  -8.448  14.872  1.00 59.17 LIG 0.20  C 
BRANCH 33 34
ATOM     34  N   SER B   3     -25.601  -7.653  15.482  1.00 59.50 LIG-0.34  N 
ATOM     35  C   PRO B   2     -26.914  -7.867  15.320  1.00 59.86 LIG 0.25  C 
ATOM     36 O    PRO B   2     -27.763  -7.101  15.790  1.00 59.80 LIG-0.27  OA
ATOM     37 H    SER B   3     -25.301  -7.012  15.972  1.00 59.50 LIG 0.16  HD
BRANCH 35 38
ATOM     38  CA  PRO B   2     -27.389  -9.092  14.522  1.00 60.11 LIG 0.35  C 
ATOM     39  CB  PRO B   2     -28.036  -8.677  13.191  1.00 60.16 LIG 0.05  C 
ATOM     40  CG  PRO B   2     -29.236  -9.549  13.036  1.00 60.30 LIG 0.04  C 
ATOM     41  CD  PRO B   2     -29.708  -9.865  14.416  1.00 60.25 LIG 0.32  C 
ATOM     42  N   PRO B   2     -28.474  -9.800  15.219  1.00 60.27 LIG 0.32  N 
ENDBRANCH 35 38
ENDBRANCH 33 34
BRANCH 33 43
ATOM     43  CB  SER B   3     -24.407  -8.120  13.379  1.00 59.26 LIG 0.20  C 
BRANCH 43 44
ATOM     44 OG   SER B   3     -25.001  -6.865  13.086  1.00 59.53 LIG-0.40  OA
ATOM     45 HG   SER B   3     -24.705  -6.285  13.616  1.00 59.53 LIG 0.21  HD
ENDBRANCH 43 44
ENDBRANCH 33 43
ENDBRANCH 30 33
ENDBRANCH 28 29
BRANCH 28 46
ATOM     46  CB  SER B   4     -20.399  -9.848  16.042  1.00 57.64 LIG 0.20  C 
BRANCH 46 47
ATOM     47 OG   SER B   4     -19.804  -9.765  17.330  1.00 57.32 LIG-0.40  OA
ATOM     48 HG   SER B   4     -19.546  -8.978  17.469  1.00 57.32 LIG 0.21  HD
ENDBRANCH 46 47
ENDBRANCH 28 46
ENDBRANCH 1 28
TORSDOF 18
ENDMDL
MODEL 7
USER: ADFR SOLUTION from run 114
USER: SCORE 12.780706 LL:  -3.127 LR: -11.094 RR:   0.000 FEB:  -5.725
USER: RMSD 4.261248
USER: SEED 113
USER: STATUS no improvement in best in 11 clusters for 5 generations
USER: GENES 20
USER: genes 0 Translation |==|  0.53679 0.56644 0.45323
USER: genes 1 Rotation |==|  0.63395 0.46386 0.47248 0.97958
USER: genes 2 Torsion [C]-N--CA-[CB] |==|  0.21665
USER: genes 3 Torsion [N]-CA--CB-[CG2] |==|  0.48029
USER: genes 4 Torsion [CA]-CB--OG1-[HG1] |==|  0.01291
USER: genes 5 Torsion [N]-CA--C-[N] |==|  0.22117
USER: genes 6 Torsion [N]-CA--C-[O] |==|  0.25869
USER: genes 7 Torsion [C]-N--CA-[CB] |==|  0.41743
USER: genes 8 Torsion [N]-CA--C-[O] |==|  0.15506
USER: genes 9 Torsion [N]-CA--CB-[SG] |==|  0.64700
USER: genes 10 Torsion [CA]-CB--SG-[HG] |==|  0.51764
USER: genes 11 Torsion [N]-C--CA-[N] |==|  0.48304
USER: genes 12 Torsion [C]-CA--N-[C] |==|  0.54781
USER: genes 13 Torsion [N]-C--CA-[N] |==|  0.04926
USER: genes 14 Torsion [C]-CA--N-[C] |==|  0.75476
USER: genes 15 Torsion [N]-C--CA-[N] |==|  0.34050
USER: genes 16 Torsion [C]-CA--CB-[OG] |==|  0.21846
USER: genes 17 Torsion [CA]-CB--OG-[HG] |==|  0.90786
USER: genes 18 Torsion [C]-CA--CB-[OG] |==|  0.37419
USER: genes 19 Torsion [CA]-CB--OG-[HG] |==|  0.90999
ROOT
ATOM      1  C   SER B   4     -18.497  -6.854  14.369  1.00 56.97 LIG 0.24  C 
ATOM      2 O    SER B   4     -18.516  -6.458  13.199  1.00 57.23 LIG-0.27  OA
ATOM      3  N   THR B   5     -17.409  -6.783  15.142  1.00 55.89 LIG-0.34  N 
ATOM      4 H    THR B   5     -17.378  -7.068  15.953  1.00 55.89 LIG 0.16  HD
ENDROOT
BRANCH 3 5
ATOM      5  CA  THR B   5     -16.150  -6.197  14.654  1.00 55.10 LIG 0.20  C 
BRANCH 5 6
ATOM      6  CB  THR B   5     -16.199  -4.626  14.660  1.00 55.33 LIG 0.15  C 
ATOM      7  CG2 THR B   5     -14.834  -4.014  14.320  1.00 55.26 LIG 0.04  C 
BRANCH 6 8
ATOM      8 OG1  THR B   5     -17.179  -4.154  13.719  1.00 55.55 LIG-0.39  OA
ATOM      9 HG1  THR B   5     -17.588  -4.808  13.387  1.00 55.55 LIG 0.21  HD
ENDBRANCH 6 8
ENDBRANCH 5 6
BRANCH 5 10
ATOM     10  C   THR B   5     -14.901  -6.685  15.412  1.00 54.13 LIG 0.24  C 
ATOM     11  N   PRO B   6     -14.405  -7.897  15.078  1.00 52.90 LIG-0.34  N 
ATOM     12  CD  PRO B   6     -14.972  -8.868  14.122  1.00 52.89 LIG 0.13  C 
ATOM     13  CA  PRO B   6     -13.164  -8.390  15.690  1.00 51.99 LIG 0.18  C 
ATOM     14  CG  PRO B   6     -14.078 -10.075  14.259  1.00 52.79 LIG 0.02  C 
ATOM     15  CB  PRO B   6     -12.797  -9.604  14.830  1.00 51.93 LIG 0.04  C 
ATOM     16 O    THR B   5     -14.377  -5.967  16.277  1.00 54.19 LIG-0.27  OA
BRANCH 13 17
ATOM     17  C   PRO B   6     -12.065  -7.334  15.622  1.00 51.04 LIG 0.24  C 
ATOM     18 O    PRO B   6     -11.905  -6.562  16.572  1.00 50.92 LIG-0.27  OA
ATOM     19  N   CYS B   7     -11.314  -7.301  14.520  1.00 49.72 LIG-0.34  N 
ATOM     20 H    CYS B   7     -11.469  -7.768  13.815  1.00 49.72 LIG 0.16  HD
BRANCH 19 21
ATOM     21  CA  CYS B   7     -10.124  -6.429  14.433  1.00 48.85 LIG 0.19  C 
BRANCH 21 22
ATOM     22  C   CYS B   7     -10.439  -4.994  14.014  1.00 48.04 LIG 0.20  C 
ATOM     23 OXT  CYS B   7      -9.901  -4.476  13.038  1.00 47.16 LIG-0.65  OA
ATOM     24 O    CYS B   7     -11.248  -4.327  14.654  1.00 47.51 LIG-0.65  OA
ENDBRANCH 21 22
BRANCH 21 25
ATOM     25  CB  CYS B   7      -9.073  -7.046  13.500  1.00 48.98 LIG 0.11  C 
BRANCH 25 26
ATOM     26 SG   CYS B   7      -7.453  -7.174  14.283  1.00 48.50 LIG-0.18  SA
ATOM     27 HG   CYS B   7      -6.646  -7.545  13.476  1.00 48.50 LIG 0.10  HD
ENDBRANCH 25 26
ENDBRANCH 21 25
ENDBRANCH 19 21
ENDBRANCH 13 17
ENDBRANCH 5 10
ENDBRANCH 3 5
BRANCH 1 28
ATOM     28  CA  SER B   4     -19.754  -7.472  14.994  1.00 57.59 LIG 0.20  C 
BRANCH 28 29
ATOM     29  N   SER B   4     -20.927  -7.375  14.117  1.00 58.14 LIG-0.34  N 
ATOM     30  C   SER B   3     -22.172  -7.532  14.570  1.00 58.75 LIG 0.24  C 
ATOM     31 O    SER B   3     -22.434  -7.611  15.773  1.00 58.75 LIG-0.27  OA
ATOM     32 H    SER B   4     -20.738  -7.208  13.294  1.00 58.14 LIG 0.16  HD
BRANCH 30 33
ATOM     33  CA  SER B   3     -23.296  -7.591  13.512  1.00 59.17 LIG 0.20  C 
BRANCH 33 34
ATOM     34  N   SER B   3     -22.747  -7.878  12.178  1.00 59.50 LIG-0.34  N 
ATOM     35  C   PRO B   2     -22.310  -6.961  11.304  1.00 59.86 LIG 0.25  C 
ATOM     36 O    PRO B   2     -21.947  -7.269  10.163  1.00 59.80 LIG-0.27  OA
ATOM     37 H    SER B   3     -22.730  -8.720  12.003  1.00 59.50 LIG 0.16  HD
BRANCH 35 38
ATOM     38  CA  PRO B   2     -22.265  -5.481  11.717  1.00 60.11 LIG 0.35  C 
ATOM     39  CB  PRO B   2     -23.097  -4.607  10.764  1.00 60.16 LIG 0.05  C 
ATOM     40  CG  PRO B   2     -22.286  -3.377  10.532  1.00 60.30 LIG 0.04  C 
ATOM     41  CD  PRO B   2     -20.856  -3.787  10.653  1.00 60.25 LIG 0.32  C 
ATOM     42  N   PRO B   2     -20.908  -4.927  11.584  1.00 60.27 LIG 0.32  N 
ENDBRANCH 35 38
ENDBRANCH 33 34
BRANCH 33 43
ATOM     43  CB  SER B   3     -24.321  -8.662  13.903  1.00 59.26 LIG 0.20  C 
BRANCH 43 44
ATOM     44 OG   SER B   3     -25.195  -8.183  14.913  1.00 59.53 LIG-0.40  OA
ATOM     45 HG   SER B   3     -24.779  -7.656  15.416  1.00 59.53 LIG 0.21  HD
ENDBRANCH 43 44
ENDBRANCH 33 43
ENDBRANCH 30 33
ENDBRANCH 28 29
BRANCH 28 46
ATOM     46  CB  SER B   4     -19.505  -8.948  15.317  1.00 57.64 LIG 0.20  C 
BRANCH 46 47
ATOM     47 OG   SER B   4     -19.983  -9.269  16.616  1.00 57.32 LIG-0.40  OA
ATOM     48 HG   SER B   4     -19.901  -8.600  17.118  1.00 57.32 LIG 0.21  HD
ENDBRANCH 46 47
ENDBRANCH 28 46
ENDBRANCH 1 28
TORSDOF 18
ENDMDL
MODEL 8
USER: ADFR SOLUTION from run 50
USER: SCORE 13.001650 LL:  -3.080 LR: -10.894 RR:   0.000 FEB:  -5.525
USER: RMSD 4.104272
USER: SEED 49
USER: STATUS no improvement in best in 11 clusters for 5 generations
USER: GENES 20
USER: genes 0 Translation |==|  0.57765 0.58525 0.42994
USER: genes 1 Rotation |==|  0.61719 0.48990 0.55166 0.98321
USER: genes 2 Torsion [C]-N--CA-[CB] |==|  0.21111
USER: genes 3 Torsion [N]-CA--CB-[CG2] |==|  0.54935
USER: genes 4 Torsion [CA]-CB--OG1-[HG1] |==|  0.94756
USER: genes 5 Torsion [N]-CA--C-[N] |==|  0.13687
USER: genes 6 Torsion [N]-CA--C-[O] |==|  0.26610
USER: genes 7 Torsion [C]-N--CA-[CB] |==|  0.35774
USER: genes 8 Torsion [N]-CA--C-[O] |==|  0.49907
USER: genes 9 Torsion [N]-CA--CB-[SG] |==|  0.90362
USER: genes 10 Torsion [CA]-CB--SG-[HG] |==|  0.13227
USER: genes 11 Torsion [N]-C--CA-[N] |==|  0.44846
USER: genes 12 Torsion [C]-CA--N-[C] |==|  0.61883
USER: genes 13 Torsion [N]-C--CA-[N] |==|  0.48387
USER: genes 14 Torsion [C]-CA--N-[C] |==|  0.77094
USER: genes 15 Torsion [N]-C--CA-[N] |==|  0.19829
USER: genes 16 Torsion [C]-CA--CB-[OG] |==|  0.70046
USER: genes 17 Torsion [CA]-CB--OG-[HG] |==|  0.41934
USER: genes 18 Torsion [C]-CA--CB-[OG] |==|  0.39293
USER: genes 19 Torsion [CA]-CB--OG-[HG] |==|  0.99449
ROOT
ATOM      1  C   SER B   4     -17.333  -6.572  14.037  1.00 56.97 LIG 0.24  C 
ATOM      2 O    SER B   4     -17.485  -6.306  12.840  1.00 57.23 LIG-0.27  OA
ATOM      3  N   THR B   5     -16.323  -6.087  14.765  1.00 55.89 LIG-0.34  N 
ATOM      4 H    THR B   5     -16.196  -6.275  15.594  1.00 55.89 LIG 0.16  HD
ENDROOT
BRANCH 3 5
ATOM      5  CA  THR B   5     -15.323  -5.171  14.189  1.00 55.10 LIG 0.20  C 
BRANCH 5 6
ATOM      6  CB  THR B   5     -15.895  -3.718  14.023  1.00 55.33 LIG 0.15  C 
ATOM      7  CG2 THR B   5     -15.052  -2.883  13.049  1.00 55.26 LIG 0.04  C 
BRANCH 6 8
ATOM      8 OG1  THR B   5     -17.254  -3.766  13.554  1.00 55.55 LIG-0.39  OA
ATOM      9 HG1  THR B   5     -17.407  -4.518  13.214  1.00 55.55 LIG 0.21  HD
ENDBRANCH 6 8
ENDBRANCH 5 6
BRANCH 5 10
ATOM     10  C   THR B   5     -13.997  -5.127  14.971  1.00 54.13 LIG 0.24  C 
ATOM     11  N   PRO B   6     -13.420  -6.309  15.283  1.00 52.90 LIG-0.34  N 
ATOM     12  CD  PRO B   6     -13.956  -7.663  15.045  1.00 52.89 LIG 0.13  C 
ATOM     13  CA  PRO B   6     -12.108  -6.347  15.945  1.00 51.99 LIG 0.18  C 
ATOM     14  CG  PRO B   6     -12.957  -8.571  15.716  1.00 52.79 LIG 0.02  C 
ATOM     15  CB  PRO B   6     -11.690  -7.817  15.828  1.00 51.93 LIG 0.04  C 
ATOM     16 O    THR B   5     -13.487  -4.038  15.271  1.00 54.19 LIG-0.27  OA
BRANCH 13 17
ATOM     17  C   PRO B   6     -11.108  -5.447  15.227  1.00 51.04 LIG 0.24  C 
ATOM     18 O    PRO B   6     -10.924  -4.296  15.635  1.00 50.92 LIG-0.27  OA
ATOM     19  N   CYS B   7     -10.467  -5.959  14.175  1.00 49.72 LIG-0.34  N 
ATOM     20 H    CYS B   7     -10.648  -6.722  13.824  1.00 49.72 LIG 0.16  HD
BRANCH 19 21
ATOM     21  CA  CYS B   7      -9.364  -5.226  13.522  1.00 48.85 LIG 0.19  C 
BRANCH 21 22
ATOM     22  C   CYS B   7      -9.741  -4.617  12.172  1.00 48.04 LIG 0.20  C 
ATOM     23 OXT  CYS B   7     -10.868  -4.749  11.700  1.00 47.16 LIG-0.65  OA
ATOM     24 O    CYS B   7      -8.913  -3.977  11.530  1.00 47.51 LIG-0.65  OA
ENDBRANCH 21 22
BRANCH 21 25
ATOM     25  CB  CYS B   7      -8.127  -6.125  13.383  1.00 48.98 LIG 0.11  C 
BRANCH 25 26
ATOM     26 SG   CYS B   7      -7.946  -7.261  14.773  1.00 48.50 LIG-0.18  SA
ATOM     27 HG   CYS B   7      -8.998  -7.797  14.992  1.00 48.50 LIG 0.10  HD
ENDBRANCH 25 26
ENDBRANCH 21 25
ENDBRANCH 19 21
ENDBRANCH 13 17
ENDBRANCH 5 10
ENDBRANCH 3 5
BRANCH 1 28
ATOM     28  CA  SER B   4     -18.318  -7.505  14.752  1.00 57.59 LIG 0.20  C 
BRANCH 28 29
ATOM     29  N   SER B   4     -19.593  -7.635  14.035  1.00 58.14 LIG-0.34  N 
ATOM     30  C   SER B   3     -20.770  -7.617  14.663  1.00 58.75 LIG 0.24  C 
ATOM     31 O    SER B   3     -20.878  -7.332  15.859  1.00 58.75 LIG-0.27  OA
ATOM     32 H    SER B   4     -19.511  -7.723  13.184  1.00 58.14 LIG 0.16  HD
BRANCH 30 33
ATOM     33  CA  SER B   3     -22.017  -7.950  13.816  1.00 59.17 LIG 0.20  C 
BRANCH 33 34
ATOM     34  N   SER B   3     -23.219  -8.029  14.660  1.00 59.50 LIG-0.34  N 
ATOM     35  C   PRO B   2     -23.597  -9.096  15.377  1.00 59.86 LIG 0.25  C 
ATOM     36 O    PRO B   2     -24.670  -9.122  15.991  1.00 59.80 LIG-0.27  OA
ATOM     37 H    SER B   3     -23.675  -7.299  14.653  1.00 59.50 LIG 0.16  HD
BRANCH 35 38
ATOM     38  CA  PRO B   2     -22.685 -10.332  15.436  1.00 60.11 LIG 0.35  C 
ATOM     39  CB  PRO B   2     -23.363 -11.495  16.178  1.00 60.16 LIG 0.05  C 
ATOM     40  CG  PRO B   2     -22.304 -12.097  17.038  1.00 60.30 LIG 0.04  C 
ATOM     41  CD  PRO B   2     -21.366 -10.990  17.388  1.00 60.25 LIG 0.32  C 
ATOM     42  N   PRO B   2     -21.481 -10.073  16.241  1.00 60.27 LIG 0.32  N 
ENDBRANCH 35 38
ENDBRANCH 33 34
BRANCH 33 43
ATOM     43  CB  SER B   3     -22.204  -6.888  12.727  1.00 59.26 LIG 0.20  C 
BRANCH 43 44
ATOM     44 OG   SER B   3     -23.312  -6.051  13.019  1.00 59.53 LIG-0.40  OA
ATOM     45 HG   SER B   3     -23.182  -5.290  12.688  1.00 59.53 LIG 0.21  HD
ENDBRANCH 43 44
ENDBRANCH 33 43
ENDBRANCH 30 33
ENDBRANCH 28 29
BRANCH 28 46
ATOM     46  CB  SER B   4     -17.701  -8.896  14.908  1.00 57.64 LIG 0.20  C 
BRANCH 46 47
ATOM     47 OG   SER B   4     -18.040  -9.461  16.167  1.00 57.32 LIG-0.40  OA
ATOM     48 HG   SER B   4     -18.498  -8.912  16.607  1.00 57.32 LIG 0.21  HD
ENDBRANCH 46 47
ENDBRANCH 28 46
ENDBRANCH 1 28
TORSDOF 18
ENDMDL
MODEL 9
USER: ADFR SOLUTION from run 118
USER: SCORE 12.495687 LL:  -2.959 LR: -10.795 RR:   0.000 FEB:  -5.425
USER: RMSD 2.843221
USER: SEED 117
USER: STATUS no improvement in best in 14 clusters for 5 generations
USER: GENES 20
USER: genes 0 Translation |==|  0.49059 0.53751 0.39902
USER: genes 1 Rotation |==|  0.42160 0.41894 0.46740 0.98603
USER: genes 2 Torsion [C]-N--CA-[CB] |==|  0.25378
USER: genes 3 Torsion [N]-CA--CB-[CG2] |==|  0.62422
USER: genes 4 Torsion [CA]-CB--OG1-[HG1] |==|  0.99125
USER: genes 5 Torsion [N]-CA--C-[N] |==|  0.38465
USER: genes 6 Torsion [N]-CA--C-[O] |==|  0.34386
USER: genes 7 Torsion [C]-N--CA-[CB] |==|  0.87157
USER: genes 8 Torsion [N]-CA--C-[O] |==|  0.71973
USER: genes 9 Torsion [N]-CA--CB-[SG] |==|  0.78969
USER: genes 10 Torsion [CA]-CB--SG-[HG] |==|  0.65286
USER: genes 11 Torsion [N]-C--CA-[N] |==|  0.44808
USER: genes 12 Torsion [C]-CA--N-[C] |==|  0.80549
USER: genes 13 Torsion [N]-C--CA-[N] |==|  0.35832
USER: genes 14 Torsion [C]-CA--N-[C] |==|  0.65231
USER: genes 15 Torsion [N]-C--CA-[N] |==|  0.15075
USER: genes 16 Torsion [C]-CA--CB-[OG] |==|  0.55238
USER: genes 17 Torsion [CA]-CB--OG-[HG] |==|  0.16232
USER: genes 18 Torsion [C]-CA--CB-[OG] |==|  0.47828
USER: genes 19 Torsion [CA]-CB--OG-[HG] |==|  0.99200
ROOT
ATOM      1  C   SER B   4     -19.814  -7.288  13.596  1.00 56.97 LIG 0.24  C 
ATOM      2 O    SER B   4     -19.704  -7.918  12.539  1.00 57.23 LIG-0.27  OA
ATOM      3  N   THR B   5     -18.773  -6.727  14.218  1.00 55.89 LIG-0.34  N 
ATOM      4 H    THR B   5     -18.832  -6.298  14.961  1.00 55.89 LIG 0.16  HD
ENDROOT
BRANCH 3 5
ATOM      5  CA  THR B   5     -17.409  -6.802  13.667  1.00 55.10 LIG 0.20  C 
BRANCH 5 6
ATOM      6  CB  THR B   5     -17.089  -5.573  12.742  1.00 55.33 LIG 0.15  C 
ATOM      7  CG2 THR B   5     -16.393  -6.006  11.444  1.00 55.26 LIG 0.04  C 
BRANCH 6 8
ATOM      8 OG1  THR B   5     -18.296  -4.862  12.420  1.00 55.55 LIG-0.39  OA
ATOM      9 HG1  THR B   5     -18.955  -5.263  12.752  1.00 55.55 LIG 0.21  HD
ENDBRANCH 6 8
ENDBRANCH 5 6
BRANCH 5 10
ATOM     10  C   THR B   5     -16.313  -6.952  14.738  1.00 54.13 LIG 0.24  C 
ATOM     11  N   PRO B   6     -15.306  -7.816  14.480  1.00 52.90 LIG-0.34  N 
ATOM     12  CD  PRO B   6     -15.169  -8.717  13.319  1.00 52.89 LIG 0.13  C 
ATOM     13  CA  PRO B   6     -14.175  -7.945  15.410  1.00 51.99 LIG 0.18  C 
ATOM     14  CG  PRO B   6     -13.936  -9.528  13.633  1.00 52.79 LIG 0.02  C 
ATOM     15  CB  PRO B   6     -13.146  -8.754  14.613  1.00 51.93 LIG 0.04  C 
ATOM     16 O    THR B   5     -16.362  -6.280  15.779  1.00 54.19 LIG-0.27  OA
BRANCH 13 17
ATOM     17  C   PRO B   6     -13.613  -6.576  15.778  1.00 51.04 LIG 0.24  C 
ATOM     18 O    PRO B   6     -13.544  -6.246  16.965  1.00 50.92 LIG-0.27  OA
ATOM     19  N   CYS B   7     -13.210  -5.789  14.778  1.00 49.72 LIG-0.34  N 
ATOM     20 H    CYS B   7     -13.333  -5.965  13.946  1.00 49.72 LIG 0.16  HD
BRANCH 19 21
ATOM     21  CA  CYS B   7     -12.500  -4.521  15.042  1.00 48.85 LIG 0.19  C 
BRANCH 21 22
ATOM     22  C   CYS B   7     -11.020  -4.699  15.376  1.00 48.04 LIG 0.20  C 
ATOM     23 OXT  CYS B   7     -10.181  -4.891  14.499  1.00 47.16 LIG-0.65  OA
ATOM     24 O    CYS B   7     -10.639  -4.650  16.543  1.00 47.51 LIG-0.65  OA
ENDBRANCH 21 22
BRANCH 21 25
ATOM     25  CB  CYS B   7     -13.212  -3.726  16.145  1.00 48.98 LIG 0.11  C 
BRANCH 25 26
ATOM     26 SG   CYS B   7     -14.718  -2.929  15.553  1.00 48.50 LIG-0.18  SA
ATOM     27 HG   CYS B   7     -14.667  -1.752  15.785  1.00 48.50 LIG 0.10  HD
ENDBRANCH 25 26
ENDBRANCH 21 25
ENDBRANCH 19 21
ENDBRANCH 13 17
ENDBRANCH 5 10
ENDBRANCH 3 5
BRANCH 1 28
ATOM     28  CA  SER B   4     -21.187  -7.130  14.260  1.00 57.59 LIG 0.20  C 
BRANCH 28 29
ATOM     29  N   SER B   4     -22.296  -7.376  13.330  1.00 58.14 LIG-0.34  N 
ATOM     30  C   SER B   3     -22.591  -6.539  12.334  1.00 58.75 LIG 0.24  C 
ATOM     31 O    SER B   3     -21.863  -5.592  12.027  1.00 58.75 LIG-0.27  OA
ATOM     32 H    SER B   4     -22.732  -8.101  13.486  1.00 58.14 LIG 0.16  HD
BRANCH 30 33
ATOM     33  CA  SER B   3     -23.892  -6.821  11.550  1.00 59.17 LIG 0.20  C 
BRANCH 33 34
ATOM     34  N   SER B   3     -24.723  -5.611  11.463  1.00 59.50 LIG-0.34  N 
ATOM     35  C   PRO B   2     -26.003  -5.518  11.849  1.00 59.86 LIG 0.25  C 
ATOM     36 O    PRO B   2     -26.668  -4.493  11.660  1.00 59.80 LIG-0.27  OA
ATOM     37 H    SER B   3     -24.298  -4.942  11.128  1.00 59.50 LIG 0.16  HD
BRANCH 35 38
ATOM     38  CA  PRO B   2     -26.676  -6.716  12.539  1.00 60.11 LIG 0.35  C 
ATOM     39  CB  PRO B   2     -28.034  -6.325  13.142  1.00 60.16 LIG 0.05  C 
ATOM     40  CG  PRO B   2     -28.094  -6.996  14.472  1.00 60.30 LIG 0.04  C 
ATOM     41  CD  PRO B   2     -26.685  -7.098  14.955  1.00 60.25 LIG 0.32  C 
ATOM     42  N   PRO B   2     -25.904  -7.165  13.708  1.00 60.27 LIG 0.32  N 
ENDBRANCH 35 38
ENDBRANCH 33 34
BRANCH 33 43
ATOM     43  CB  SER B   3     -23.551  -7.331  10.145  1.00 59.26 LIG 0.20  C 
BRANCH 43 44
ATOM     44 OG   SER B   3     -24.659  -7.190   9.271  1.00 59.53 LIG-0.40  OA
ATOM     45 HG   SER B   3     -24.886  -6.382   9.235  1.00 59.53 LIG 0.21  HD
ENDBRANCH 43 44
ENDBRANCH 33 43
ENDBRANCH 30 33
ENDBRANCH 28 29
BRANCH 28 46
ATOM     46  CB  SER B   4     -21.313  -8.099  15.438  1.00 57.64 LIG 0.20  C 
BRANCH 46 47
ATOM     47 OG   SER B   4     -22.500  -7.846  16.177  1.00 57.32 LIG-0.40  OA
ATOM     48 HG   SER B   4     -22.897  -7.182  15.851  1.00 57.32 LIG 0.21  HD
ENDBRANCH 46 47
ENDBRANCH 28 46
ENDBRANCH 1 28
TORSDOF 18
ENDMDL
MODEL 10
USER: ADFR SOLUTION from run 106
USER: SCORE 12.545204 LL:  -3.030 LR: -10.703 RR:   0.000 FEB:  -5.334
USER: RMSD 3.176202
USER: SEED 105
USER: STATUS no improvement in best in 4 clusters for 5 generations
USER: GENES 20
USER: genes 0 Translation |==|  0.51375 0.39630 0.52385
USER: genes 1 Rotation |==|  0.48906 0.51878 0.55786 0.99616
USER: genes 2 Torsion [C]-N--CA-[CB] |==|  0.24444
USER: genes 3 Torsion [N]-CA--CB-[CG2] |==|  0.78139
USER: genes 4 Torsion [CA]-CB--OG1-[HG1] |==|  0.01801
USER: genes 5 Torsion [N]-CA--C-[N] |==|  0.26850
USER: genes 6 Torsion [N]-CA--C-[O] |==|  0.78110
USER: genes 7 Torsion [C]-N--CA-[CB] |==|  0.39430
USER: genes 8 Torsion [N]-CA--C-[O] |==|  0.77123
USER: genes 9 Torsion [N]-CA--CB-[SG] |==|  0.68293
USER: genes 10 Torsion [CA]-CB--SG-[HG] |==|  0.62059
USER: genes 11 Torsion [N]-C--CA-[N] |==|  0.40460
USER: genes 12 Torsion [C]-CA--N-[C] |==|  0.80050
USER: genes 13 Torsion [N]-C--CA-[N] |==|  0.96338
USER: genes 14 Torsion [C]-CA--N-[C] |==|  0.77056
USER: genes 15 Torsion [N]-C--CA-[N] |==|  0.21745
USER: genes 16 Torsion [C]-CA--CB-[OG] |==|  0.12121
USER: genes 17 Torsion [CA]-CB--OG-[HG] |==|  0.10541
USER: genes 18 Torsion [C]-CA--CB-[OG] |==|  0.23571
USER: genes 19 Torsion [CA]-CB--OG-[HG] |==|  0.28625
ROOT
ATOM      1  C   SER B   4     -19.154  -9.406  15.375  1.00 56.97 LIG 0.24  C 
ATOM      2 O    SER B   4     -19.370  -9.781  14.218  1.00 57.23 LIG-0.27  OA
ATOM      3  N   THR B   5     -18.138  -8.601  15.699  1.00 55.89 LIG-0.34  N 
ATOM      4 H    THR B   5     -17.967  -8.343  16.501  1.00 55.89 LIG 0.16  HD
ENDROOT
BRANCH 3 5
ATOM      5  CA  THR B   5     -17.210  -8.079  14.682  1.00 55.10 LIG 0.20  C 
BRANCH 5 6
ATOM      6  CB  THR B   5     -17.730  -6.736  14.055  1.00 55.33 LIG 0.15  C 
ATOM      7  CG2 THR B   5     -18.820  -6.984  13.004  1.00 55.26 LIG 0.04  C 
BRANCH 6 8
ATOM      8 OG1  THR B   5     -18.250  -5.873  15.082  1.00 55.55 LIG-0.39  OA
ATOM      9 HG1  THR B   5     -18.097  -6.211  15.836  1.00 55.55 LIG 0.21  HD
ENDBRANCH 6 8
ENDBRANCH 5 6
BRANCH 5 10
ATOM     10  C   THR B   5     -15.768  -7.895  15.192  1.00 54.13 LIG 0.24  C 
ATOM     11  N   PRO B   6     -14.887  -8.889  14.937  1.00 52.90 LIG-0.34  N 
ATOM     12  CD  PRO B   6     -15.161 -10.192  14.300  1.00 52.89 LIG 0.13  C 
ATOM     13  CA  PRO B   6     -13.473  -8.747  15.309  1.00 51.99 LIG 0.18  C 
ATOM     14  CG  PRO B   6     -13.849 -10.929  14.405  1.00 52.79 LIG 0.02  C 
ATOM     15  CB  PRO B   6     -12.792  -9.911  14.581  1.00 51.93 LIG 0.04  C 
ATOM     16 O    THR B   5     -15.445  -6.859  15.790  1.00 54.19 LIG-0.27  OA
BRANCH 13 17
ATOM     17  C   PRO B   6     -12.914  -7.412  14.826  1.00 51.04 LIG 0.24  C 
ATOM     18 O    PRO B   6     -12.592  -7.281  13.641  1.00 50.92 LIG-0.27  OA
ATOM     19  N   CYS B   7     -12.802  -6.433  15.725  1.00 49.72 LIG-0.34  N 
ATOM     20 H    CYS B   7     -12.935  -6.533  16.568  1.00 49.72 LIG 0.16  HD
BRANCH 19 21
ATOM     21  CA  CYS B   7     -12.431  -5.062  15.319  1.00 48.85 LIG 0.19  C 
BRANCH 21 22
ATOM     22  C   CYS B   7     -10.931  -4.781  15.388  1.00 48.04 LIG 0.20  C 
ATOM     23 OXT  CYS B   7     -10.217  -4.851  14.391  1.00 47.16 LIG-0.65  OA
ATOM     24 O    CYS B   7     -10.408  -4.476  16.457  1.00 47.51 LIG-0.65  OA
ENDBRANCH 21 22
BRANCH 21 25
ATOM     25  CB  CYS B   7     -13.213  -4.027  16.139  1.00 48.98 LIG 0.11  C 
BRANCH 25 26
ATOM     26 SG   CYS B   7     -14.357  -3.070  15.124  1.00 48.50 LIG-0.18  SA
ATOM     27 HG   CYS B   7     -14.293  -1.912  15.431  1.00 48.50 LIG 0.10  HD
ENDBRANCH 25 26
ENDBRANCH 21 25
ENDBRANCH 19 21
ENDBRANCH 13 17
ENDBRANCH 5 10
ENDBRANCH 3 5
BRANCH 1 28
ATOM     28  CA  SER B   4     -20.062  -9.873  16.520  1.00 57.59 LIG 0.20  C 
BRANCH 28 29
ATOM     29  N   SER B   4     -21.463 -10.018  16.105  1.00 58.14 LIG-0.34  N 
ATOM     30  C   SER B   3     -22.244  -8.969  15.847  1.00 58.75 LIG 0.24  C 
ATOM     31 O    SER B   3     -21.806  -7.817  15.782  1.00 58.75 LIG-0.27  OA
ATOM     32 H    SER B   4     -21.729 -10.835  16.046  1.00 58.14 LIG 0.16  HD
BRANCH 30 33
ATOM     33  CA  SER B   3     -23.741  -9.257  15.605  1.00 59.17 LIG 0.20  C 
BRANCH 33 34
ATOM     34  N   SER B   3     -23.972 -10.695  15.401  1.00 59.50 LIG-0.34  N 
ATOM     35  C   PRO B   2     -23.810 -11.353  14.245  1.00 59.86 LIG 0.25  C 
ATOM     36 O    PRO B   2     -24.112 -12.545  14.124  1.00 59.80 LIG-0.27  OA
ATOM     37 H    SER B   3     -24.232 -11.093  16.119  1.00 59.50 LIG 0.16  HD
BRANCH 35 38
ATOM     38  CA  PRO B   2     -23.240 -10.610  13.024  1.00 60.11 LIG 0.35  C 
ATOM     39  CB  PRO B   2     -23.429 -11.424  11.734  1.00 60.16 LIG 0.05  C 
ATOM     40  CG  PRO B   2     -22.155 -11.278  10.974  1.00 60.30 LIG 0.04  C 
ATOM     41  CD  PRO B   2     -21.077 -11.095  11.990  1.00 60.25 LIG 0.32  C 
ATOM     42  N   PRO B   2     -21.780 -10.461  13.119  1.00 60.27 LIG 0.32  N 
ENDBRANCH 35 38
ENDBRANCH 33 34
BRANCH 33 43
ATOM     43  CB  SER B   3     -24.567  -8.753  16.795  1.00 59.26 LIG 0.20  C 
BRANCH 43 44
ATOM     44 OG   SER B   3     -24.128  -7.469  17.209  1.00 59.53 LIG-0.40  OA
ATOM     45 HG   SER B   3     -23.924  -7.012  16.535  1.00 59.53 LIG 0.21  HD
ENDBRANCH 43 44
ENDBRANCH 33 43
ENDBRANCH 30 33
ENDBRANCH 28 29
BRANCH 28 46
ATOM     46  CB  SER B   4     -19.570 -11.216  17.063  1.00 57.64 LIG 0.20  C 
BRANCH 46 47
ATOM     47 OG   SER B   4     -18.548 -11.026  18.032  1.00 57.32 LIG-0.40  OA
ATOM     48 HG   SER B   4     -18.867 -11.136  18.800  1.00 57.32 LIG 0.21  HD
ENDBRANCH 46 47
ENDBRANCH 28 46
ENDBRANCH 1 28
TORSDOF 18
ENDMDL
MODEL 11
USER: ADFR SOLUTION from run 11
USER: SCORE 12.356049 LL:  -2.902 LR: -10.675 RR:   0.000 FEB:  -5.306
USER: RMSD 3.019547
USER: SEED 17586
USER: STATUS no improvement in best in 4 clusters for 5 generations
USER: GENES 20
USER: genes 0 Translation |==|  0.50030 0.48770 0.46087
USER: genes 1 Rotation |==|  0.57499 0.50186 0.47529 0.99372
USER: genes 2 Torsion [C]-N--CA-[CB] |==|  0.18333
USER: genes 3 Torsion [N]-CA--CB-[CG2] |==|  0.12141
USER: genes 4 Torsion [CA]-CB--OG1-[HG1] |==|  0.26477
USER: genes 5 Torsion [N]-CA--C-[N] |==|  0.26647
USER: genes 6 Torsion [N]-CA--C-[O] |==|  0.76327
USER: genes 7 Torsion [C]-N--CA-[CB] |==|  0.41726
USER: genes 8 Torsion [N]-CA--C-[O] |==|  0.76529
USER: genes 9 Torsion [N]-CA--CB-[SG] |==|  0.74255
USER: genes 10 Torsion [CA]-CB--SG-[HG] |==|  0.67176
USER: genes 11 Torsion [N]-C--CA-[N] |==|  0.47777
USER: genes 12 Torsion [C]-CA--N-[C] |==|  0.60736
USER: genes 13 Torsion [N]-C--CA-[N] |==|  0.95318
USER: genes 14 Torsion [C]-CA--N-[C] |==|  0.81030
USER: genes 15 Torsion [N]-C--CA-[N] |==|  0.39188
USER: genes 16 Torsion [C]-CA--CB-[OG] |==|  0.66701
USER: genes 17 Torsion [CA]-CB--OG-[HG] |==|  0.73266
USER: genes 18 Torsion [C]-CA--CB-[OG] |==|  0.26704
USER: genes 19 Torsion [CA]-CB--OG-[HG] |==|  0.98219
ROOT
ATOM      1  C   SER B   4     -19.537  -8.035  14.477  1.00 56.97 LIG 0.24  C 
ATOM      2 O    SER B   4     -19.758  -7.924  13.267  1.00 57.23 LIG-0.27  OA
ATOM      3  N   THR B   5     -18.349  -7.765  15.026  1.00 55.89 LIG-0.34  N 
ATOM      4 H    THR B   5     -18.177  -7.851  15.865  1.00 55.89 LIG 0.16  HD
ENDROOT
BRANCH 3 5
ATOM      5  CA  THR B   5     -17.214  -7.286  14.219  1.00 55.10 LIG 0.20  C 
BRANCH 5 6
ATOM      6  CB  THR B   5     -17.488  -5.859  13.621  1.00 55.33 LIG 0.15  C 
ATOM      7  CG2 THR B   5     -18.116  -4.919  14.659  1.00 55.26 LIG 0.04  C 
BRANCH 6 8
ATOM      8 OG1  THR B   5     -16.265  -5.279  13.134  1.00 55.55 LIG-0.39  OA
ATOM      9 HG1  THR B   5     -16.193  -5.427  12.311  1.00 55.55 LIG 0.21  HD
ENDBRANCH 6 8
ENDBRANCH 5 6
BRANCH 5 10
ATOM     10  C   THR B   5     -15.870  -7.291  14.971  1.00 54.13 LIG 0.24  C 
ATOM     11  N   PRO B   6     -15.066  -8.364  14.801  1.00 52.90 LIG-0.34  N 
ATOM     12  CD  PRO B   6     -15.359  -9.595  14.042  1.00 52.89 LIG 0.13  C 
ATOM     13  CA  PRO B   6     -13.729  -8.399  15.410  1.00 51.99 LIG 0.18  C 
ATOM     14  CG  PRO B   6     -14.167 -10.479  14.313  1.00 52.79 LIG 0.02  C 
ATOM     15  CB  PRO B   6     -13.057  -9.596  14.729  1.00 51.93 LIG 0.04  C 
ATOM     16 O    THR B   5     -15.551  -6.326  15.682  1.00 54.19 LIG-0.27  OA
BRANCH 13 17
ATOM     17  C   PRO B   6     -12.961  -7.114  15.116  1.00 51.04 LIG 0.24  C 
ATOM     18 O    PRO B   6     -12.330  -7.012  14.060  1.00 50.92 LIG-0.27  OA
ATOM     19  N   CYS B   7     -13.015  -6.145  16.030  1.00 49.72 LIG-0.34  N 
ATOM     20 H    CYS B   7     -13.372  -6.232  16.807  1.00 49.72 LIG 0.16  HD
BRANCH 19 21
ATOM     21  CA  CYS B   7     -12.445  -4.808  15.761  1.00 48.85 LIG 0.19  C 
BRANCH 21 22
ATOM     22  C   CYS B   7     -10.947  -4.707  16.042  1.00 48.04 LIG 0.20  C 
ATOM     23 OXT  CYS B   7     -10.114  -4.851  15.150  1.00 47.16 LIG-0.65  OA
ATOM     24 O    CYS B   7     -10.546  -4.476  17.180  1.00 47.51 LIG-0.65  OA
ENDBRANCH 21 22
BRANCH 21 25
ATOM     25  CB  CYS B   7     -13.215  -3.730  16.535  1.00 48.98 LIG 0.11  C 
BRANCH 25 26
ATOM     26 SG   CYS B   7     -14.552  -3.009  15.562  1.00 48.50 LIG-0.18  SA
ATOM     27 HG   CYS B   7     -14.349  -1.836  15.410  1.00 48.50 LIG 0.10  HD
ENDBRANCH 25 26
ENDBRANCH 21 25
ENDBRANCH 19 21
ENDBRANCH 13 17
ENDBRANCH 5 10
ENDBRANCH 3 5
BRANCH 1 28
ATOM     28  CA  SER B   4     -20.646  -8.513  15.423  1.00 57.59 LIG 0.20  C 
BRANCH 28 29
ATOM     29  N   SER B   4     -21.953  -8.603  14.761  1.00 58.14 LIG-0.34  N 
ATOM     30  C   SER B   3     -23.087  -8.253  15.369  1.00 58.75 LIG 0.24  C 
ATOM     31 O    SER B   3     -23.104  -7.685  16.464  1.00 58.75 LIG-0.27  OA
ATOM     32 H    SER B   4     -21.918  -8.898  13.953  1.00 58.14 LIG 0.16  HD
BRANCH 30 33
ATOM     33  CA  SER B   3     -24.403  -8.573  14.627  1.00 59.17 LIG 0.20  C 
BRANCH 33 34
ATOM     34  N   SER B   3     -24.150  -8.850  13.205  1.00 59.50 LIG-0.34  N 
ATOM     35  C   PRO B   2     -23.741  -7.951  12.299  1.00 59.86 LIG 0.25  C 
ATOM     36 O    PRO B   2     -23.637  -8.234  11.100  1.00 59.80 LIG-0.27  OA
ATOM     37 H    SER B   3     -24.293  -9.672  12.998  1.00 59.50 LIG 0.16  HD
BRANCH 35 38
ATOM     38  CA  PRO B   2     -23.397  -6.522  12.751  1.00 60.11 LIG 0.35  C 
ATOM     39  CB  PRO B   2     -24.509  -5.531  12.372  1.00 60.16 LIG 0.05  C 
ATOM     40  CG  PRO B   2     -23.810  -4.310  11.878  1.00 60.30 LIG 0.04  C 
ATOM     41  CD  PRO B   2     -22.524  -4.774  11.279  1.00 60.25 LIG 0.32  C 
ATOM     42  N   PRO B   2     -22.221  -6.001  12.036  1.00 60.27 LIG 0.32  N 
ENDBRANCH 35 38
ENDBRANCH 33 34
BRANCH 33 43
ATOM     43  CB  SER B   3     -25.091  -9.776  15.285  1.00 59.26 LIG 0.20  C 
BRANCH 43 44
ATOM     44 OG   SER B   3     -25.242 -10.842  14.362  1.00 59.53 LIG-0.40  OA
ATOM     45 HG   SER B   3     -26.011 -10.815  14.027  1.00 59.53 LIG 0.21  HD
ENDBRANCH 43 44
ENDBRANCH 33 43
ENDBRANCH 30 33
ENDBRANCH 28 29
BRANCH 28 46
ATOM     46  CB  SER B   4     -20.291  -9.888  15.993  1.00 57.64 LIG 0.20  C 
BRANCH 46 47
ATOM     47 OG   SER B   4     -19.679  -9.764  17.270  1.00 57.32 LIG-0.40  OA
ATOM     48 HG   SER B   4     -19.545  -8.952  17.438  1.00 57.32 LIG 0.21  HD
ENDBRANCH 46 47
ENDBRANCH 28 46
ENDBRANCH 1 28
TORSDOF 18
ENDMDL
MODEL 12
USER: ADFR SOLUTION from run 101
USER: SCORE 12.455067 LL:  -2.962 LR: -10.524 RR:   0.000 FEB:  -5.154
USER: RMSD 2.988204
USER: SEED 100
USER: STATUS no improvement in best in 2 clusters for 5 generations
USER: GENES 20
USER: genes 0 Translation |==|  0.51066 0.38016 0.54355
USER: genes 1 Rotation |==|  0.32654 0.55012 0.57367 0.96040
USER: genes 2 Torsion [C]-N--CA-[CB] |==|  0.17062
USER: genes 3 Torsion [N]-CA--CB-[CG2] |==|  0.70357
USER: genes 4 Torsion [CA]-CB--OG1-[HG1] |==|  0.54586
USER: genes 5 Torsion [N]-CA--C-[N] |==|  0.86379
USER: genes 6 Torsion [N]-CA--C-[O] |==|  0.89146
USER: genes 7 Torsion [C]-N--CA-[CB] |==|  0.22828
USER: genes 8 Torsion [N]-CA--C-[O] |==|  0.40253
USER: genes 9 Torsion [N]-CA--CB-[SG] |==|  0.79745
USER: genes 10 Torsion [CA]-CB--SG-[HG] |==|  0.87783
USER: genes 11 Torsion [N]-C--CA-[N] |==|  0.37685
USER: genes 12 Torsion [C]-CA--N-[C] |==|  0.76007
USER: genes 13 Torsion [N]-C--CA-[N] |==|  0.47723
USER: genes 14 Torsion [C]-CA--N-[C] |==|  0.54541
USER: genes 15 Torsion [N]-C--CA-[N] |==|  0.33453
USER: genes 16 Torsion [C]-CA--CB-[OG] |==|  0.37737
USER: genes 17 Torsion [CA]-CB--OG-[HG] |==|  0.51173
USER: genes 18 Torsion [C]-CA--CB-[OG] |==|  0.58763
USER: genes 19 Torsion [CA]-CB--OG-[HG] |==|  0.54222
ROOT
ATOM      1  C   SER B   4     -19.242  -9.649  15.656  1.00 56.97 LIG 0.24  C 
ATOM      2 O    SER B   4     -19.437 -10.679  15.003  1.00 57.23 LIG-0.27  OA
ATOM      3  N   THR B   5     -18.318  -8.743  15.322  1.00 55.89 LIG-0.34  N 
ATOM      4 H    THR B   5     -18.162  -8.028  15.774  1.00 55.89 LIG 0.16  HD
ENDROOT
BRANCH 3 5
ATOM      5  CA  THR B   5     -17.475  -8.901  14.125  1.00 55.10 LIG 0.20  C 
BRANCH 5 6
ATOM      6  CB  THR B   5     -18.333  -8.936  12.810  1.00 55.33 LIG 0.15  C 
ATOM      7  CG2 THR B   5     -18.408 -10.349  12.217  1.00 55.26 LIG 0.04  C 
BRANCH 6 8
ATOM      8 OG1  THR B   5     -19.665  -8.459  13.070  1.00 55.55 LIG-0.39  OA
ATOM      9 HG1  THR B   5     -20.172  -8.687  12.440  1.00 55.55 LIG 0.21  HD
ENDBRANCH 6 8
ENDBRANCH 5 6
BRANCH 5 10
ATOM     10  C   THR B   5     -16.366  -7.839  14.000  1.00 54.13 LIG 0.24  C 
ATOM     11  N   PRO B   6     -16.725  -6.545  14.152  1.00 52.90 LIG-0.34  N 
ATOM     12  CD  PRO B   6     -18.086  -6.005  14.337  1.00 52.89 LIG 0.13  C 
ATOM     13  CA  PRO B   6     -15.710  -5.482  14.139  1.00 51.99 LIG 0.18  C 
ATOM     14  CG  PRO B   6     -17.888  -4.510  14.312  1.00 52.79 LIG 0.02  C 
ATOM     15  CB  PRO B   6     -16.471  -4.253  14.647  1.00 51.93 LIG 0.04  C 
ATOM     16 O    THR B   5     -15.194  -8.184  13.790  1.00 54.19 LIG-0.27  OA
BRANCH 13 17
ATOM     17  C   PRO B   6     -14.554  -5.821  15.075  1.00 51.04 LIG 0.24  C 
ATOM     18 O    PRO B   6     -14.788  -6.361  16.160  1.00 50.92 LIG-0.27  OA
ATOM     19  N   CYS B   7     -13.322  -5.515  14.663  1.00 49.72 LIG-0.34  N 
ATOM     20 H    CYS B   7     -13.148  -5.060  13.955  1.00 49.72 LIG 0.16  HD
BRANCH 19 21
ATOM     21  CA  CYS B   7     -12.133  -5.954  15.422  1.00 48.85 LIG 0.19  C 
BRANCH 21 22
ATOM     22  C   CYS B   7     -10.920  -5.040  15.252  1.00 48.04 LIG 0.20  C 
ATOM     23 OXT  CYS B   7     -10.684  -4.476  14.186  1.00 47.16 LIG-0.65  OA
ATOM     24 O    CYS B   7     -10.153  -4.850  16.192  1.00 47.51 LIG-0.65  OA
ENDBRANCH 21 22
BRANCH 21 25
ATOM     25  CB  CYS B   7     -11.772  -7.403  15.066  1.00 48.98 LIG 0.11  C 
BRANCH 25 26
ATOM     26 SG   CYS B   7     -12.931  -8.591  15.772  1.00 48.50 LIG-0.18  SA
ATOM     27 HG   CYS B   7     -13.167  -8.293  16.910  1.00 48.50 LIG 0.10  HD
ENDBRANCH 25 26
ENDBRANCH 21 25
ENDBRANCH 19 21
ENDBRANCH 13 17
ENDBRANCH 5 10
ENDBRANCH 3 5
BRANCH 1 28
ATOM     28  CA  SER B   4     -20.068  -9.365  16.916  1.00 57.59 LIG 0.20  C 
BRANCH 28 29
ATOM     29  N   SER B   4     -21.500  -9.628  16.723  1.00 58.14 LIG-0.34  N 
ATOM     30  C   SER B   3     -22.333  -8.714  16.224  1.00 58.75 LIG 0.24  C 
ATOM     31 O    SER B   3     -21.937  -7.648  15.745  1.00 58.75 LIG-0.27  OA
ATOM     32 H    SER B   4     -21.747 -10.418  16.959  1.00 58.14 LIG 0.16  HD
BRANCH 30 33
ATOM     33  CA  SER B   3     -23.839  -9.055  16.250  1.00 59.17 LIG 0.20  C 
BRANCH 33 34
ATOM     34  N   SER B   3     -24.647  -7.892  15.855  1.00 59.50 LIG-0.34  N 
ATOM     35  C   PRO B   2     -25.963  -7.752  16.065  1.00 59.86 LIG 0.25  C 
ATOM     36 O    PRO B   2     -26.596  -6.786  15.623  1.00 59.80 LIG-0.27  OA
ATOM     37 H    SER B   3     -24.182  -7.285  15.461  1.00 59.50 LIG 0.16  HD
BRANCH 35 38
ATOM     38  CA  PRO B   2     -26.720  -8.822  16.870  1.00 60.11 LIG 0.35  C 
ATOM     39  CB  PRO B   2     -27.912  -9.381  16.078  1.00 60.16 LIG 0.05  C 
ATOM     40  CG  PRO B   2     -29.029  -9.500  17.058  1.00 60.30 LIG 0.04  C 
ATOM     41  CD  PRO B   2     -28.813  -8.429  18.074  1.00 60.25 LIG 0.32  C 
ATOM     42  N   PRO B   2     -27.351  -8.246  18.068  1.00 60.27 LIG 0.32  N 
ENDBRANCH 35 38
ENDBRANCH 33 34
BRANCH 33 43
ATOM     43  CB  SER B   3     -24.120 -10.237  15.313  1.00 59.26 LIG 0.20  C 
BRANCH 43 44
ATOM     44 OG   SER B   3     -24.990 -11.174  15.925  1.00 59.53 LIG-0.40  OA
ATOM     45 HG   SER B   3     -25.085 -11.839  15.421  1.00 59.53 LIG 0.21  HD
ENDBRANCH 43 44
ENDBRANCH 33 43
ENDBRANCH 30 33
ENDBRANCH 28 29
BRANCH 28 46
ATOM     46  CB  SER B   4     -19.565 -10.226  18.076  1.00 57.64 LIG 0.20  C 
BRANCH 46 47
ATOM     47 OG   SER B   4     -20.629 -10.559  18.958  1.00 57.32 LIG-0.40  OA
ATOM     48 HG   SER B   4     -20.314 -10.845  19.682  1.00 57.32 LIG 0.21  HD
ENDBRANCH 46 47
ENDBRANCH 28 46
ENDBRANCH 1 28
TORSDOF 18
ENDMDL
