MODEL 1
USER: ADFR SOLUTION from run 55
USER: SCORE 22.176341 LL:  -6.550 LR: -19.486 RR:   0.000 FEB: -10.835
USER: RMSD 4.817078
USER: SEED 54
USER: STATUS 1 or 2 clusters left
USER: GENES 31
USER: genes 0 Translation |==|  0.41088 0.43502 0.43072
USER: genes 1 Rotation |==|  0.48858 0.48630 0.50651 0.99964
USER: genes 2 Torsion [C]-CA--CB-[CG] |==|  0.91235
USER: genes 3 Torsion [CA]-CB--CG-[CD] |==|  0.83834
USER: genes 4 Torsion [CB]-CG--CD-[NE] |==|  0.69962
USER: genes 5 Torsion [CG]-CD--NE-[CZ] |==|  0.53671
USER: genes 6 Torsion [N]-CA--C-[N] |==|  0.44289
USER: genes 7 Torsion [C]-N--CA-[CB] |==|  0.45000
USER: genes 8 Torsion [N]-CA--C-[N] |==|  0.44288
USER: genes 9 Torsion [C]-N--CA-[CB] |==|  0.23878
USER: genes 10 Torsion [N]-CA--CB-[CG2] |==|  0.01516
USER: genes 11 Torsion [N]-CA--C-[N] |==|  0.28755
USER: genes 12 Torsion [N]-CA--C-[O] |==|  0.82845
USER: genes 13 Torsion [C]-N--CA-[C] |==|  0.71506
USER: genes 14 Torsion [N]-CA--C-[O] |==|  0.24602
USER: genes 15 Torsion [N]-CA--CB-[SG] |==|  0.73820
USER: genes 16 Torsion [CA]-CB--SG-[HG] |==|  0.74682
USER: genes 17 Torsion [N]-CA--CB-[CG] |==|  0.49903
USER: genes 18 Torsion [CA]-CB--CG-[CD] |==|  0.52793
USER: genes 19 Torsion [CB]-CG--CD-[OE2] |==|  0.78544
USER: genes 20 Torsion [CB]-CA--N-[C] |==|  0.18136
USER: genes 21 Torsion [N]-C--CA-[N] |==|  0.89460
USER: genes 22 Torsion [C]-CA--N-[C] |==|  0.80683
USER: genes 23 Torsion [N]-C--CA-[N] |==|  0.59328
USER: genes 24 Torsion [C]-CA--CB-[CG] |==|  0.36714
USER: genes 25 Torsion [CA]-CB--CG-[CD] |==|  0.48803
USER: genes 26 Torsion [CB]-CG--CD-[OE1] |==|  0.73226
USER: genes 27 Torsion [C]-CA--N-[C] |==|  0.68219
USER: genes 28 Torsion [C]-CA--CB-[CG] |==|  0.15221
USER: genes 29 Torsion [CA]-CB--CG-[CD] |==|  0.63210
USER: genes 30 Torsion [CB]-CG--CD-[OE1] |==|  0.37337
ROOT
ATOM      1  CA  ARG B   3     -23.903  -9.306  14.829  0.80 33.15 LIG 0.18  C 
ENDROOT
BRANCH 1 2
ATOM      2  CB  ARG B   3     -23.739  -9.381  13.300  0.80 33.78 LIG 0.04  C 
BRANCH 2 3
ATOM      3  CG  ARG B   3     -22.729  -8.421  12.667  0.80 35.93 LIG 0.02  C 
BRANCH 3 4
ATOM      4  CD  ARG B   3     -23.036  -6.969  12.956  0.80 39.27 LIG 0.14  C 
BRANCH 4 5
ATOM      5  NE  ARG B   3     -23.533  -6.259  11.776  0.80 40.38 LIG-0.23  N 
ATOM      6  CZ  ARG B   3     -23.639  -4.934  11.683  0.80 40.37 LIG 0.67  C 
ATOM      7  NH1 ARG B   3     -23.281  -4.168  12.701  0.80 40.12 LIG-0.23  N 
ATOM      8  NH2 ARG B   3     -24.093  -4.375  10.566  0.80 41.10 LIG-0.23  N 
ATOM      9 2HH1 ARG B   3     -23.349  -3.313  12.640  0.80 40.12 LIG 0.17  HD
ATOM     10 1HH1 ARG B   3     -22.980  -4.525  13.424  0.80 40.12 LIG 0.17  HD
ATOM     11 2HH2 ARG B   3     -24.160  -3.520  10.510  0.80 41.10 LIG 0.17  HD
ATOM     12 1HH2 ARG B   3     -24.320  -4.868   9.900  0.80 41.10 LIG 0.17  HD
ATOM     13 HE   ARG B   3     -23.773  -6.730  11.097  0.80 40.38 LIG 0.18  HD
ENDBRANCH 4 5
ENDBRANCH 3 4
ENDBRANCH 2 3
ENDBRANCH 1 2
BRANCH 1 14
ATOM     14  C   ARG B   3     -22.601  -8.909  15.505  0.80 30.98 LIG 0.24  C 
ATOM     15 O    ARG B   3     -22.448  -7.764  15.921  0.80 30.41 LIG-0.27  OA
ATOM     16  N   GLU B   4     -21.691  -9.872  15.624  0.80 28.71 LIG-0.35  N 
ATOM     17 H    GLU B   4     -21.842 -10.697  15.432  0.80 28.71 LIG 0.16  HD
BRANCH 16 18
ATOM     18  CA  GLU B   4     -20.337  -9.606  16.098  0.80 27.21 LIG 0.18  C 
BRANCH 18 19
ATOM     19  C   GLU B   4     -19.541  -8.977  14.968  0.80 25.80 LIG 0.24  C 
ATOM     20 O    GLU B   4     -19.907  -9.088  13.783  0.80 26.39 LIG-0.27  OA
ATOM     21  N   VAL B   5     -18.464  -8.300  15.338  0.80 23.72 LIG-0.35  N 
ATOM     22 H    VAL B   5     -18.245  -8.168  16.160  0.80 23.72 LIG 0.16  HD
BRANCH 21 23
ATOM     23  CA  VAL B   5     -17.542  -7.714  14.380  0.80 22.93 LIG 0.18  C 
BRANCH 23 24
ATOM     24  CB  VAL B   5     -17.985  -6.317  13.930  0.80 23.26 LIG 0.01  C 
ATOM     25  CG2 VAL B   5     -19.213  -5.867  14.721  0.80 23.62 LIG 0.01  C 
ATOM     26  CG1 VAL B   5     -18.286  -6.316  12.449  0.80 24.46 LIG 0.01  C 
ENDBRANCH 23 24
BRANCH 23 27
ATOM     27  C   VAL B   5     -16.179  -7.635  15.060  0.80 21.40 LIG 0.24  C 
ATOM     28  N   PRO B   6     -15.268  -8.552  14.699  0.80 20.87 LIG-0.34  N 
ATOM     29  CD  PRO B   6     -15.411  -9.773  13.896  0.80 21.07 LIG 0.13  C 
ATOM     30  CA  PRO B   6     -13.936  -8.466  15.301  0.80 20.34 LIG 0.18  C 
ATOM     31  CG  PRO B   6     -14.233 -10.607  14.329  0.80 22.12 LIG 0.02  C 
ATOM     32  CB  PRO B   6     -13.185  -9.634  14.660  0.80 19.87 LIG 0.04  C 
ATOM     33 O    VAL B   5     -15.952  -6.755  15.899  0.80 20.67 LIG-0.27  OA
BRANCH 30 34
ATOM     34  C   PRO B   6     -13.259  -7.150  14.976  0.80 20.23 LIG 0.24  C 
ATOM     35 O    PRO B   6     -13.015  -6.859  13.787  0.80 20.62 LIG-0.27  OA
ATOM     36  N   CYS B   7     -12.985  -6.358  16.014  0.80 18.87 LIG-0.34  N 
ATOM     37 H    CYS B   7     -13.064  -6.601  16.835  0.80 18.87 LIG 0.16  HD
BRANCH 36 38
ATOM     38  CA  CYS B   7     -12.514  -4.973  15.836  0.80 19.21 LIG 0.19  C 
BRANCH 38 39
ATOM     39  C   CYS B   7     -11.021  -4.858  16.068  0.80 19.13 LIG 0.20  C 
ATOM     40 O    CYS B   7     -10.213  -5.028  15.138  0.80 18.45 LIG-0.65  OA
ATOM     41 OXT  CYS B   7     -10.590  -4.547  17.175  0.80 19.35 LIG-0.65  OA
ENDBRANCH 38 39
BRANCH 38 42
ATOM     42  CB  CYS B   7     -13.294  -4.009  16.727  0.80 19.02 LIG 0.11  C 
BRANCH 42 43
ATOM     43 SG   CYS B   7     -14.691  -3.270  15.844  0.80 21.06 LIG-0.18  SA
ATOM     44 HG   CYS B   7     -14.342  -2.245  15.329  0.80 21.06 LIG 0.10  HD
ENDBRANCH 42 43
ENDBRANCH 38 42
ENDBRANCH 36 38
ENDBRANCH 30 34
ENDBRANCH 23 27
ENDBRANCH 21 23
ENDBRANCH 18 19
BRANCH 18 45
ATOM     45  CB  GLU B   4     -19.637 -10.882  16.562  0.80 27.21 LIG 0.04  C 
BRANCH 45 46
ATOM     46  CG  GLU B   4     -18.227 -10.673  17.056  0.80 28.14 LIG 0.12  C 
BRANCH 46 47
ATOM     47  CD  GLU B   4     -17.472 -11.967  17.282  0.80 29.53 LIG 0.17  C 
ATOM     48 OE1  GLU B   4     -16.619 -12.353  16.448  0.80 28.59 LIG-0.65  OA
ATOM     49 OE2  GLU B   4     -17.741 -12.606  18.316  0.80 31.57 LIG-0.65  OA
ENDBRANCH 46 47
ENDBRANCH 45 46
ENDBRANCH 18 45
ENDBRANCH 16 18
ENDBRANCH 1 14
BRANCH 1 50
ATOM     50  N   ARG B   3     -24.933  -8.346  15.203  0.80 34.16 LIG-0.35  N 
ATOM     51  C   GLU B   2     -26.209  -8.539  14.883  0.80 36.27 LIG 0.24  C 
ATOM     52 O    GLU B   2     -26.596  -9.484  14.188  0.80 35.80 LIG-0.27  OA
ATOM     53 H    ARG B   3     -24.643  -7.663  15.637  0.80 34.16 LIG 0.16  HD
BRANCH 51 54
ATOM     54  CA  GLU B   2     -27.192  -7.485  15.387  0.80 37.72 LIG 0.18  C 
BRANCH 54 55
ATOM     55  N   GLU B   2     -26.811  -7.041  16.727  0.80 39.05 LIG-0.35  N 
ATOM     56  C   GLN B   1     -26.928  -7.852  17.775  0.80 40.84 LIG 0.24  C 
ATOM     57 O    GLN B   1     -27.318  -9.020  17.681  0.80 40.79 LIG-0.27  OA
ATOM     58 H    GLU B   2     -26.515  -6.234  16.769  0.80 39.05 LIG 0.16  HD
BRANCH 56 59
ATOM     59  CA  GLN B   1     -26.553  -7.271  19.138  0.80 42.15 LIG 0.18  C 
BRANCH 59 60
ATOM     60  CB  GLN B   1     -25.564  -6.110  18.995  0.80 42.68 LIG 0.04  C 
BRANCH 60 61
ATOM     61  CG  GLN B   1     -25.965  -4.876  19.815  0.80 43.94 LIG 0.10  C 
BRANCH 61 62
ATOM     62  CD  GLN B   1     -24.938  -3.762  19.760  0.80 46.27 LIG 0.21  C 
ATOM     63 OE1  GLN B   1     -24.096  -3.636  20.651  0.80 48.62 LIG-0.27  OA
ATOM     64  NE2 GLN B   1     -24.994  -2.950  18.705  0.80 47.40 LIG-0.37  N 
ATOM     65 22HE GLN B   1     -24.428  -2.307  18.627  0.80 47.40 LIG 0.16  HD
ATOM     66 21HE GLN B   1     -25.596  -3.070  18.103  0.80 47.40 LIG 0.16  HD
ENDBRANCH 61 62
ENDBRANCH 60 61
ENDBRANCH 59 60
BRANCH 59 67
ATOM     67  N   GLN B   1     -25.970  -8.328  19.961  0.80 42.89 LIG-0.35  N 
ATOM     68  C   ACE B   0     -26.558  -8.779  21.069  0.80 43.46 LIG 0.21  C 
ATOM     69  CH3 ACE B   0     -25.897  -9.981  21.683  0.80 43.70 LIG 0.12  C 
ATOM     70 O    ACE B   0     -27.701  -8.440  21.386  0.80 44.01 LIG-0.27  OA
ATOM     71 H    GLN B   1     -25.220  -8.627  19.666  0.80 42.89 LIG 0.16  HD
ENDBRANCH 59 67
ENDBRANCH 56 59
ENDBRANCH 54 55
BRANCH 54 72
ATOM     72  CB  GLU B   2     -27.307  -6.310  14.401  0.80 37.98 LIG 0.04  C 
BRANCH 72 73
ATOM     73  CG  GLU B   2     -27.669  -6.669  12.963  0.80 38.47 LIG 0.12  C 
BRANCH 73 74
ATOM     74  CD  GLU B   2     -26.765  -5.982  11.945  0.80 38.45 LIG 0.17  C 
ATOM     75 OE1  GLU B   2     -26.304  -6.660  11.005  0.80 41.05 LIG-0.65  OA
ATOM     76 OE2  GLU B   2     -26.531  -4.767  12.077  0.80 38.47 LIG-0.65  OA
ENDBRANCH 73 74
ENDBRANCH 72 73
ENDBRANCH 54 72
ENDBRANCH 51 54
ENDBRANCH 1 50
TORSDOF 29
ENDMDL
MODEL 2
USER: ADFR SOLUTION from run 167
USER: SCORE 21.906053 LL:  -5.547 LR: -19.361 RR:   0.000 FEB: -10.711
USER: RMSD 2.768053
USER: SEED 166
USER: STATUS 1 or 2 clusters left
USER: GENES 31
USER: genes 0 Translation |==|  0.43016 0.46236 0.44713
USER: genes 1 Rotation |==|  0.58600 0.53310 0.52487 0.99081
USER: genes 2 Torsion [C]-CA--CB-[CG] |==|  0.90023
USER: genes 3 Torsion [CA]-CB--CG-[CD] |==|  0.64642
USER: genes 4 Torsion [CB]-CG--CD-[NE] |==|  0.46448
USER: genes 5 Torsion [CG]-CD--NE-[CZ] |==|  0.18527
USER: genes 6 Torsion [N]-CA--C-[N] |==|  0.31585
USER: genes 7 Torsion [C]-N--CA-[CB] |==|  0.50620
USER: genes 8 Torsion [N]-CA--C-[N] |==|  0.41190
USER: genes 9 Torsion [C]-N--CA-[CB] |==|  0.26541
USER: genes 10 Torsion [N]-CA--CB-[CG2] |==|  0.96806
USER: genes 11 Torsion [N]-CA--C-[N] |==|  0.27230
USER: genes 12 Torsion [N]-CA--C-[O] |==|  0.85577
USER: genes 13 Torsion [C]-N--CA-[C] |==|  0.71925
USER: genes 14 Torsion [N]-CA--C-[O] |==|  0.11412
USER: genes 15 Torsion [N]-CA--CB-[SG] |==|  0.84313
USER: genes 16 Torsion [CA]-CB--SG-[HG] |==|  0.27437
USER: genes 17 Torsion [N]-CA--CB-[CG] |==|  0.32431
USER: genes 18 Torsion [CA]-CB--CG-[CD] |==|  0.42035
USER: genes 19 Torsion [CB]-CG--CD-[OE2] |==|  0.50179
USER: genes 20 Torsion [CB]-CA--N-[C] |==|  0.52478
USER: genes 21 Torsion [N]-C--CA-[N] |==|  0.00600
USER: genes 22 Torsion [C]-CA--N-[C] |==|  0.18993
USER: genes 23 Torsion [N]-C--CA-[N] |==|  0.36496
USER: genes 24 Torsion [C]-CA--CB-[CG] |==|  0.11322
USER: genes 25 Torsion [CA]-CB--CG-[CD] |==|  0.30999
USER: genes 26 Torsion [CB]-CG--CD-[OE1] |==|  0.66319
USER: genes 27 Torsion [C]-CA--N-[C] |==|  0.68245
USER: genes 28 Torsion [C]-CA--CB-[CG] |==|  0.98198
USER: genes 29 Torsion [CA]-CB--CG-[CD] |==|  0.29797
USER: genes 30 Torsion [CB]-CG--CD-[OE1] |==|  0.09046
ROOT
ATOM      1  CA  ARG B   3     -23.296  -8.814  15.124  0.80 33.15 LIG 0.18  C 
ENDROOT
BRANCH 1 2
ATOM      2  CB  ARG B   3     -23.444  -8.303  13.680  0.80 33.78 LIG 0.04  C 
BRANCH 2 3
ATOM      3  CG  ARG B   3     -22.705  -7.010  13.326  0.80 35.93 LIG 0.02  C 
BRANCH 3 4
ATOM      4  CD  ARG B   3     -23.607  -5.969  12.701  0.80 39.27 LIG 0.14  C 
BRANCH 4 5
ATOM      5  NE  ARG B   3     -22.977  -4.649  12.642  0.80 40.38 LIG-0.23  N 
ATOM      6  CZ  ARG B   3     -21.919  -4.353  11.888  0.80 40.37 LIG 0.67  C 
ATOM      7  NH1 ARG B   3     -21.368  -5.283  11.125  0.80 40.12 LIG-0.23  N 
ATOM      8  NH2 ARG B   3     -21.419  -3.122  11.889  0.80 41.10 LIG-0.23  N 
ATOM      9 2HH1 ARG B   3     -20.685  -5.092  10.638  0.80 40.12 LIG 0.17  HD
ATOM     10 1HH1 ARG B   3     -21.693  -6.080  11.115  0.80 40.12 LIG 0.17  HD
ATOM     11 2HH2 ARG B   3     -20.736  -2.935  11.402  0.80 41.10 LIG 0.17  HD
ATOM     12 1HH2 ARG B   3     -21.778  -2.513  12.379  0.80 41.10 LIG 0.17  HD
ATOM     13 HE   ARG B   3     -23.313  -4.023  13.126  0.80 40.38 LIG 0.18  HD
ENDBRANCH 4 5
ENDBRANCH 3 4
ENDBRANCH 2 3
ENDBRANCH 1 2
BRANCH 1 14
ATOM     14  C   ARG B   3     -21.901  -8.546  15.664  0.80 30.98 LIG 0.24  C 
ATOM     15 O    ARG B   3     -21.465  -7.398  15.699  0.80 30.41 LIG-0.27  OA
ATOM     16  N   GLU B   4     -21.232  -9.610  16.100  0.80 28.71 LIG-0.35  N 
ATOM     17 H    GLU B   4     -21.579 -10.393  16.176  0.80 28.71 LIG 0.16  HD
BRANCH 16 18
ATOM     18  CA  GLU B   4     -19.828  -9.537  16.490  0.80 27.21 LIG 0.18  C 
BRANCH 18 19
ATOM     19  C   GLU B   4     -19.023  -9.003  15.318  0.80 25.80 LIG 0.24  C 
ATOM     20 O    GLU B   4     -19.372  -9.225  14.144  0.80 26.39 LIG-0.27  OA
ATOM     21  N   VAL B   5     -17.958  -8.284  15.639  0.80 23.72 LIG-0.35  N 
ATOM     22 H    VAL B   5     -17.752  -8.075  16.448  0.80 23.72 LIG 0.16  HD
BRANCH 21 23
ATOM     23  CA  VAL B   5     -17.030  -7.776  14.643  0.80 22.93 LIG 0.18  C 
BRANCH 23 24
ATOM     24  CB  VAL B   5     -17.351  -6.333  14.235  0.80 23.26 LIG 0.01  C 
ATOM     25  CG2 VAL B   5     -18.721  -5.919  14.772  0.80 23.62 LIG 0.01  C 
ATOM     26  CG1 VAL B   5     -17.314  -6.195  12.731  0.80 24.46 LIG 0.01  C 
ENDBRANCH 23 24
BRANCH 23 27
ATOM     27  C   VAL B   5     -15.634  -7.847  15.254  0.80 21.40 LIG 0.24  C 
ATOM     28  N   PRO B   6     -14.881  -8.907  14.922  0.80 20.87 LIG-0.34  N 
ATOM     29  CD  PRO B   6     -15.236 -10.146  14.218  0.80 21.07 LIG 0.13  C 
ATOM     30  CA  PRO B   6     -13.519  -8.972  15.456  0.80 20.34 LIG 0.18  C 
ATOM     31  CG  PRO B   6     -14.165 -11.108  14.660  0.80 22.12 LIG 0.02  C 
ATOM     32  CB  PRO B   6     -12.975 -10.276  14.870  0.80 19.87 LIG 0.04  C 
ATOM     33 O    VAL B   5     -15.242  -6.954  16.014  0.80 20.67 LIG-0.27  OA
BRANCH 30 34
ATOM     34  C   PRO B   6     -12.684  -7.791  15.004  0.80 20.23 LIG 0.24  C 
ATOM     35 O    PRO B   6     -12.619  -7.510  13.790  0.80 20.62 LIG-0.27  OA
ATOM     36  N   CYS B   7     -12.078  -7.096  15.969  0.80 18.87 LIG-0.34  N 
ATOM     37 H    CYS B   7     -12.045  -7.348  16.791  0.80 18.87 LIG 0.16  HD
BRANCH 36 38
ATOM     38  CA  CYS B   7     -11.402  -5.815  15.701  0.80 19.21 LIG 0.19  C 
BRANCH 38 39
ATOM     39  C   CYS B   7      -9.899  -5.988  15.607  0.80 19.13 LIG 0.20  C 
ATOM     40 O    CYS B   7      -9.402  -6.962  15.016  0.80 18.45 LIG-0.65  OA
ATOM     41 OXT  CYS B   7      -9.149  -5.136  16.076  0.80 19.35 LIG-0.65  OA
ENDBRANCH 38 39
BRANCH 38 42
ATOM     42  CB  CYS B   7     -11.780  -4.766  16.744  0.80 19.02 LIG 0.11  C 
BRANCH 42 43
ATOM     43 SG   CYS B   7     -13.572  -4.526  16.826  0.80 21.06 LIG-0.18  SA
ATOM     44 HG   CYS B   7     -14.019  -5.154  17.746  0.80 21.06 LIG 0.10  HD
ENDBRANCH 42 43
ENDBRANCH 38 42
ENDBRANCH 36 38
ENDBRANCH 30 34
ENDBRANCH 23 27
ENDBRANCH 21 23
ENDBRANCH 18 19
BRANCH 18 45
ATOM     45  CB  GLU B   4     -19.281 -10.904  16.900  0.80 27.21 LIG 0.04  C 
BRANCH 45 46
ATOM     46  CG  GLU B   4     -18.172 -11.420  16.016  0.80 28.14 LIG 0.12  C 
BRANCH 46 47
ATOM     47  CD  GLU B   4     -17.207 -12.337  16.739  0.80 29.53 LIG 0.17  C 
ATOM     48 OE1  GLU B   4     -17.381 -12.609  17.949  0.80 28.59 LIG-0.65  OA
ATOM     49 OE2  GLU B   4     -16.257 -12.792  16.075  0.80 31.57 LIG-0.65  OA
ENDBRANCH 46 47
ENDBRANCH 45 46
ENDBRANCH 18 45
ENDBRANCH 16 18
ENDBRANCH 1 14
BRANCH 1 50
ATOM     50  N   ARG B   3     -24.266  -8.184  16.008  0.80 34.16 LIG-0.35  N 
ATOM     51  C   GLU B   2     -24.208  -8.343  17.328  0.80 36.27 LIG 0.24  C 
ATOM     52 O    GLU B   2     -23.394  -9.088  17.883  0.80 35.80 LIG-0.27  OA
ATOM     53 H    ARG B   3     -24.863  -7.714  15.606  0.80 34.16 LIG 0.16  HD
BRANCH 51 54
ATOM     54  CA  GLU B   2     -25.252  -7.581  18.141  0.80 37.72 LIG 0.18  C 
BRANCH 54 55
ATOM     55  N   GLU B   2     -26.152  -6.853  17.248  0.80 39.05 LIG-0.35  N 
ATOM     56  C   GLN B   1     -27.006  -7.502  16.461  0.80 40.84 LIG 0.24  C 
ATOM     57 O    GLN B   1     -27.121  -8.732  16.462  0.80 40.79 LIG-0.27  OA
ATOM     58 H    GLU B   2     -26.078  -5.997  17.281  0.80 39.05 LIG 0.16  HD
BRANCH 56 59
ATOM     59  CA  GLN B   1     -27.864  -6.648  15.528  0.80 42.15 LIG 0.18  C 
BRANCH 59 60
ATOM     60  CB  GLN B   1     -29.319  -6.591  16.005  0.80 42.68 LIG 0.04  C 
BRANCH 60 61
ATOM     61  CG  GLN B   1     -29.446  -6.448  17.528  0.80 43.94 LIG 0.10  C 
BRANCH 61 62
ATOM     62  CD  GLN B   1     -29.995  -5.102  17.958  0.80 46.27 LIG 0.21  C 
ATOM     63 OE1  GLN B   1     -29.346  -4.364  18.702  0.80 48.62 LIG-0.27  OA
ATOM     64  NE2 GLN B   1     -31.194  -4.768  17.484  0.80 47.40 LIG-0.37  N 
ATOM     65 22HE GLN B   1     -31.545  -4.011  17.695  0.80 47.40 LIG 0.16  HD
ATOM     66 21HE GLN B   1     -31.618  -5.309  16.967  0.80 47.40 LIG 0.16  HD
ENDBRANCH 61 62
ENDBRANCH 60 61
ENDBRANCH 59 60
BRANCH 59 67
ATOM     67  N   GLN B   1     -27.801  -7.207  14.180  0.80 42.89 LIG-0.35  N 
ATOM     68  C   ACE B   0     -27.240  -6.557  13.161  0.80 43.46 LIG 0.21  C 
ATOM     69  CH3 ACE B   0     -27.117  -7.361  11.897  0.80 43.70 LIG 0.12  C 
ATOM     70 O    ACE B   0     -26.607  -5.511  13.323  0.80 44.01 LIG-0.27  OA
ATOM     71 H    GLN B   1     -28.156  -7.987  14.108  0.80 42.89 LIG 0.16  HD
ENDBRANCH 59 67
ENDBRANCH 56 59
ENDBRANCH 54 55
BRANCH 54 72
ATOM     72  CB  GLU B   2     -26.015  -8.519  19.091  0.80 37.98 LIG 0.04  C 
BRANCH 72 73
ATOM     73  CG  GLU B   2     -25.720 -10.009  18.948  0.80 38.47 LIG 0.12  C 
BRANCH 73 74
ATOM     74  CD  GLU B   2     -24.888 -10.553  20.104  0.80 38.45 LIG 0.17  C 
ATOM     75 OE1  GLU B   2     -25.041 -10.050  21.236  0.80 41.05 LIG-0.65  OA
ATOM     76 OE2  GLU B   2     -24.096 -11.487  19.885  0.80 38.47 LIG-0.65  OA
ENDBRANCH 73 74
ENDBRANCH 72 73
ENDBRANCH 54 72
ENDBRANCH 51 54
ENDBRANCH 1 50
TORSDOF 29
ENDMDL
MODEL 3
USER: ADFR SOLUTION from run 26
USER: SCORE 21.400716 LL:  -6.130 LR: -19.148 RR:   0.000 FEB: -10.497
USER: RMSD 4.378404
USER: SEED 25
USER: STATUS no improvement in best in 4 clusters for 5 generations
USER: GENES 31
USER: genes 0 Translation |==|  0.41565 0.43444 0.44961
USER: genes 1 Rotation |==|  0.46751 0.50219 0.50651 0.99890
USER: genes 2 Torsion [C]-CA--CB-[CG] |==|  0.91326
USER: genes 3 Torsion [CA]-CB--CG-[CD] |==|  0.69283
USER: genes 4 Torsion [CB]-CG--CD-[NE] |==|  0.27865
USER: genes 5 Torsion [CG]-CD--NE-[CZ] |==|  0.32918
USER: genes 6 Torsion [N]-CA--C-[N] |==|  0.41536
USER: genes 7 Torsion [C]-N--CA-[CB] |==|  0.46962
USER: genes 8 Torsion [N]-CA--C-[N] |==|  0.43336
USER: genes 9 Torsion [C]-N--CA-[CB] |==|  0.24930
USER: genes 10 Torsion [N]-CA--CB-[CG2] |==|  0.10750
USER: genes 11 Torsion [N]-CA--C-[N] |==|  0.31043
USER: genes 12 Torsion [N]-CA--C-[O] |==|  0.83591
USER: genes 13 Torsion [C]-N--CA-[C] |==|  0.72066
USER: genes 14 Torsion [N]-CA--C-[O] |==|  0.24436
USER: genes 15 Torsion [N]-CA--CB-[SG] |==|  0.73952
USER: genes 16 Torsion [CA]-CB--SG-[HG] |==|  0.19731
USER: genes 17 Torsion [N]-CA--CB-[CG] |==|  0.69747
USER: genes 18 Torsion [CA]-CB--CG-[CD] |==|  0.48518
USER: genes 19 Torsion [CB]-CG--CD-[OE2] |==|  0.62228
USER: genes 20 Torsion [CB]-CA--N-[C] |==|  0.19631
USER: genes 21 Torsion [N]-C--CA-[N] |==|  0.89235
USER: genes 22 Torsion [C]-CA--N-[C] |==|  0.83402
USER: genes 23 Torsion [N]-C--CA-[N] |==|  0.01784
USER: genes 24 Torsion [C]-CA--CB-[CG] |==|  0.28547
USER: genes 25 Torsion [CA]-CB--CG-[CD] |==|  0.78217
USER: genes 26 Torsion [CB]-CG--CD-[OE1] |==|  0.40555
USER: genes 27 Torsion [C]-CA--N-[C] |==|  0.54444
USER: genes 28 Torsion [C]-CA--CB-[CG] |==|  0.00219
USER: genes 29 Torsion [CA]-CB--CG-[CD] |==|  0.53482
USER: genes 30 Torsion [CB]-CG--CD-[OE1] |==|  0.86446
ROOT
ATOM      1  CA  ARG B   3     -23.753  -9.316  15.169  0.80 33.15 LIG 0.18  C 
ENDROOT
BRANCH 1 2
ATOM      2  CB  ARG B   3     -23.685  -9.521  13.645  0.80 33.78 LIG 0.04  C 
BRANCH 2 3
ATOM      3  CG  ARG B   3     -22.709  -8.631  12.872  0.80 35.93 LIG 0.02  C 
BRANCH 3 4
ATOM      4  CD  ARG B   3     -23.408  -7.617  11.994  0.80 39.27 LIG 0.14  C 
BRANCH 4 5
ATOM      5  NE  ARG B   3     -23.448  -6.287  12.604  0.80 40.38 LIG-0.23  N 
ATOM      6  CZ  ARG B   3     -22.883  -5.201  12.078  0.80 40.37 LIG 0.67  C 
ATOM      7  NH1 ARG B   3     -22.230  -5.283  10.930  0.80 40.12 LIG-0.23  N 
ATOM      8  NH2 ARG B   3     -22.979  -4.029  12.698  0.80 41.10 LIG-0.23  N 
ATOM      9 2HH1 ARG B   3     -21.866  -4.581  10.591  0.80 40.12 LIG 0.17  HD
ATOM     10 1HH1 ARG B   3     -22.172  -6.037  10.521  0.80 40.12 LIG 0.17  HD
ATOM     11 2HH2 ARG B   3     -22.612  -3.330  12.357  0.80 41.10 LIG 0.17  HD
ATOM     12 1HH2 ARG B   3     -23.407  -3.970  13.442  0.80 41.10 LIG 0.17  HD
ATOM     13 HE   ARG B   3     -23.866  -6.200  13.351  0.80 40.38 LIG 0.18  HD
ENDBRANCH 4 5
ENDBRANCH 3 4
ENDBRANCH 2 3
ENDBRANCH 1 2
BRANCH 1 14
ATOM     14  C   ARG B   3     -22.411  -8.872  15.727  0.80 30.98 LIG 0.24  C 
ATOM     15 O    ARG B   3     -22.167  -7.676  15.863  0.80 30.41 LIG-0.27  OA
ATOM     16  N   GLU B   4     -21.570  -9.846  16.063  0.80 28.71 LIG-0.35  N 
ATOM     17 H    GLU B   4     -21.783 -10.679  16.070  0.80 28.71 LIG 0.16  HD
BRANCH 16 18
ATOM     18  CA  GLU B   4     -20.189  -9.580  16.454  0.80 27.21 LIG 0.18  C 
BRANCH 18 19
ATOM     19  C   GLU B   4     -19.416  -9.121  15.230  0.80 25.80 LIG 0.24  C 
ATOM     20 O    GLU B   4     -19.798  -9.413  14.081  0.80 26.39 LIG-0.27  OA
ATOM     21  N   VAL B   5     -18.340  -8.389  15.477  0.80 23.72 LIG-0.35  N 
ATOM     22 H    VAL B   5     -18.111  -8.133  16.265  0.80 23.72 LIG 0.16  HD
BRANCH 21 23
ATOM     23  CA  VAL B   5     -17.439  -7.946  14.427  0.80 22.93 LIG 0.18  C 
BRANCH 23 24
ATOM     24  CB  VAL B   5     -17.852  -6.590  13.842  0.80 23.26 LIG 0.01  C 
ATOM     25  CG2 VAL B   5     -18.360  -5.666  14.948  0.80 23.62 LIG 0.01  C 
ATOM     26  CG1 VAL B   5     -18.915  -6.778  12.785  0.80 24.46 LIG 0.01  C 
ENDBRANCH 23 24
BRANCH 23 27
ATOM     27  C   VAL B   5     -16.047  -7.847  15.043  0.80 21.40 LIG 0.24  C 
ATOM     28  N   PRO B   6     -15.133  -8.734  14.621  0.80 20.87 LIG-0.34  N 
ATOM     29  CD  PRO B   6     -15.285  -9.942  13.800  0.80 21.07 LIG 0.13  C 
ATOM     30  CA  PRO B   6     -13.776  -8.627  15.161  0.80 20.34 LIG 0.18  C 
ATOM     31  CG  PRO B   6     -14.069 -10.755  14.160  0.80 22.12 LIG 0.02  C 
ATOM     32  CB  PRO B   6     -13.029  -9.764  14.461  0.80 19.87 LIG 0.04  C 
ATOM     33 O    VAL B   5     -15.802  -6.979  15.889  0.80 20.67 LIG-0.27  OA
BRANCH 30 34
ATOM     34  C   PRO B   6     -13.147  -7.289  14.832  0.80 20.23 LIG 0.24  C 
ATOM     35 O    PRO B   6     -13.013  -6.947  13.639  0.80 20.62 LIG-0.27  OA
ATOM     36  N   CYS B   7     -12.792  -6.534  15.874  0.80 18.87 LIG-0.34  N 
ATOM     37 H    CYS B   7     -12.795  -6.811  16.688  0.80 18.87 LIG 0.16  HD
BRANCH 36 38
ATOM     38  CA  CYS B   7     -12.356  -5.136  15.712  0.80 19.21 LIG 0.19  C 
BRANCH 38 39
ATOM     39  C   CYS B   7     -10.846  -5.013  15.767  0.80 19.13 LIG 0.20  C 
ATOM     40 O    CYS B   7     -10.156  -5.136  14.741  0.80 18.45 LIG-0.65  OA
ATOM     41 OXT  CYS B   7     -10.287  -4.742  16.826  0.80 19.35 LIG-0.65  OA
ENDBRANCH 38 39
BRANCH 38 42
ATOM     42  CB  CYS B   7     -13.029  -4.229  16.739  0.80 19.02 LIG 0.11  C 
BRANCH 42 43
ATOM     43 SG   CYS B   7     -14.535  -3.476  16.076  0.80 21.06 LIG-0.18  SA
ATOM     44 HG   CYS B   7     -15.388  -4.313  15.968  0.80 21.06 LIG 0.10  HD
ENDBRANCH 42 43
ENDBRANCH 38 42
ENDBRANCH 36 38
ENDBRANCH 30 34
ENDBRANCH 23 27
ENDBRANCH 21 23
ENDBRANCH 18 19
BRANCH 18 45
ATOM     45  CB  GLU B   4     -19.517 -10.818  17.044  0.80 27.21 LIG 0.04  C 
BRANCH 45 46
ATOM     46  CG  GLU B   4     -19.272 -10.743  18.530  0.80 28.14 LIG 0.12  C 
BRANCH 46 47
ATOM     47  CD  GLU B   4     -18.724 -12.030  19.114  0.80 29.53 LIG 0.17  C 
ATOM     48 OE1  GLU B   4     -17.810 -12.651  18.523  0.80 28.59 LIG-0.65  OA
ATOM     49 OE2  GLU B   4     -19.221 -12.420  20.187  0.80 31.57 LIG-0.65  OA
ENDBRANCH 46 47
ENDBRANCH 45 46
ENDBRANCH 18 45
ENDBRANCH 16 18
ENDBRANCH 1 14
BRANCH 1 50
ATOM     50  N   ARG B   3     -24.756  -8.322  15.523  0.80 34.16 LIG-0.35  N 
ATOM     51  C   GLU B   2     -26.056  -8.573  15.399  0.80 36.27 LIG 0.24  C 
ATOM     52 O    GLU B   2     -26.498  -9.617  14.906  0.80 35.80 LIG-0.27  OA
ATOM     53 H    ARG B   3     -24.435  -7.578  15.811  0.80 34.16 LIG 0.16  HD
BRANCH 51 54
ATOM     54  CA  GLU B   2     -26.999  -7.466  15.861  0.80 37.72 LIG 0.18  C 
BRANCH 54 55
ATOM     55  N   GLU B   2     -26.479  -6.834  17.072  0.80 39.05 LIG-0.35  N 
ATOM     56  C   GLN B   1     -26.277  -7.542  18.180  0.80 40.84 LIG 0.24  C 
ATOM     57 O    GLN B   1     -26.471  -8.760  18.245  0.80 40.79 LIG-0.27  OA
ATOM     58 H    GLU B   2     -26.323  -5.991  17.000  0.80 39.05 LIG 0.16  HD
BRANCH 56 59
ATOM     59  CA  GLN B   1     -25.782  -6.774  19.405  0.80 42.15 LIG 0.18  C 
BRANCH 59 60
ATOM     60  CB  GLN B   1     -26.659  -7.054  20.630  0.80 42.68 LIG 0.04  C 
BRANCH 60 61
ATOM     61  CG  GLN B   1     -26.014  -8.034  21.618  0.80 43.94 LIG 0.10  C 
BRANCH 61 62
ATOM     62  CD  GLN B   1     -26.120  -9.482  21.181  0.80 46.27 LIG 0.21  C 
ATOM     63 OE1  GLN B   1     -25.221 -10.286  21.435  0.80 48.62 LIG-0.27  OA
ATOM     64  NE2 GLN B   1     -27.228  -9.827  20.527  0.80 47.40 LIG-0.37  N 
ATOM     65 22HE GLN B   1     -27.337 -10.639  20.264  0.80 47.40 LIG 0.16  HD
ATOM     66 21HE GLN B   1     -27.835  -9.238  20.367  0.80 47.40 LIG 0.16  HD
ENDBRANCH 61 62
ENDBRANCH 60 61
ENDBRANCH 59 60
BRANCH 59 67
ATOM     67  N   GLN B   1     -25.785  -5.345  19.103  0.80 42.89 LIG-0.35  N 
ATOM     68  C   ACE B   0     -25.125  -4.455  19.844  0.80 43.46 LIG 0.21  C 
ATOM     69  CH3 ACE B   0     -25.106  -3.062  19.279  0.80 43.70 LIG 0.12  C 
ATOM     70 O    ACE B   0     -24.350  -4.798  20.739  0.80 44.01 LIG-0.27  OA
ATOM     71 H    GLN B   1     -26.249  -5.136  18.410  0.80 42.89 LIG 0.16  HD
ENDBRANCH 59 67
ENDBRANCH 56 59
ENDBRANCH 54 55
BRANCH 54 72
ATOM     72  CB  GLU B   2     -27.253  -6.444  14.740  0.80 37.98 LIG 0.04  C 
BRANCH 72 73
ATOM     73  CG  GLU B   2     -26.559  -6.717  13.408  0.80 38.47 LIG 0.12  C 
BRANCH 73 74
ATOM     74  CD  GLU B   2     -26.612  -5.519  12.467  0.80 38.45 LIG 0.17  C 
ATOM     75 OE1  GLU B   2     -27.710  -4.955  12.283  0.80 41.05 LIG-0.65  OA
ATOM     76 OE2  GLU B   2     -25.559  -5.134  11.926  0.80 38.47 LIG-0.65  OA
ENDBRANCH 73 74
ENDBRANCH 72 73
ENDBRANCH 54 72
ENDBRANCH 51 54
ENDBRANCH 1 50
TORSDOF 29
ENDMDL
MODEL 4
USER: ADFR SOLUTION from run 64
USER: SCORE 20.699152 LL:  -5.279 LR: -19.008 RR:   0.000 FEB: -10.358
USER: RMSD 2.453139
USER: SEED 63
USER: STATUS 1 or 2 clusters left
USER: GENES 31
USER: genes 0 Translation |==|  0.43002 0.45291 0.45557
USER: genes 1 Rotation |==|  0.57057 0.53322 0.52350 0.99332
USER: genes 2 Torsion [C]-CA--CB-[CG] |==|  0.08494
USER: genes 3 Torsion [CA]-CB--CG-[CD] |==|  0.64392
USER: genes 4 Torsion [CB]-CG--CD-[NE] |==|  0.07101
USER: genes 5 Torsion [CG]-CD--NE-[CZ] |==|  0.63889
USER: genes 6 Torsion [N]-CA--C-[N] |==|  0.32925
USER: genes 7 Torsion [C]-N--CA-[CB] |==|  0.49446
USER: genes 8 Torsion [N]-CA--C-[N] |==|  0.38654
USER: genes 9 Torsion [C]-N--CA-[CB] |==|  0.28639
USER: genes 10 Torsion [N]-CA--CB-[CG2] |==|  0.90555
USER: genes 11 Torsion [N]-CA--C-[N] |==|  0.30181
USER: genes 12 Torsion [N]-CA--C-[O] |==|  0.76241
USER: genes 13 Torsion [C]-N--CA-[C] |==|  0.77387
USER: genes 14 Torsion [N]-CA--C-[O] |==|  0.25044
USER: genes 15 Torsion [N]-CA--CB-[SG] |==|  0.73417
USER: genes 16 Torsion [CA]-CB--SG-[HG] |==|  0.70177
USER: genes 17 Torsion [N]-CA--CB-[CG] |==|  0.70398
USER: genes 18 Torsion [CA]-CB--CG-[CD] |==|  0.46499
USER: genes 19 Torsion [CB]-CG--CD-[OE2] |==|  0.67746
USER: genes 20 Torsion [CB]-CA--N-[C] |==|  0.50985
USER: genes 21 Torsion [N]-C--CA-[N] |==|  0.03631
USER: genes 22 Torsion [C]-CA--N-[C] |==|  0.17101
USER: genes 23 Torsion [N]-C--CA-[N] |==|  0.83269
USER: genes 24 Torsion [C]-CA--CB-[CG] |==|  0.35389
USER: genes 25 Torsion [CA]-CB--CG-[CD] |==|  0.45066
USER: genes 26 Torsion [CB]-CG--CD-[OE1] |==|  0.14034
USER: genes 27 Torsion [C]-CA--N-[C] |==|  0.74351
USER: genes 28 Torsion [C]-CA--CB-[CG] |==|  0.95171
USER: genes 29 Torsion [CA]-CB--CG-[CD] |==|  0.31440
USER: genes 30 Torsion [CB]-CG--CD-[OE1] |==|  0.63593
ROOT
ATOM      1  CA  ARG B   3     -23.300  -8.984  15.276  0.80 33.15 LIG 0.18  C 
ENDROOT
BRANCH 1 2
ATOM      2  CB  ARG B   3     -23.444  -8.564  13.803  0.80 33.78 LIG 0.04  C 
BRANCH 2 3
ATOM      3  CG  ARG B   3     -22.182  -8.634  12.939  0.80 35.93 LIG 0.02  C 
BRANCH 3 4
ATOM      4  CD  ARG B   3     -21.904  -7.344  12.199  0.80 39.27 LIG 0.14  C 
BRANCH 4 5
ATOM      5  NE  ARG B   3     -22.480  -6.180  12.873  0.80 40.38 LIG-0.23  N 
ATOM      6  CZ  ARG B   3     -23.233  -5.259  12.273  0.80 40.37 LIG 0.67  C 
ATOM      7  NH1 ARG B   3     -23.505  -5.364  10.982  0.80 40.12 LIG-0.23  N 
ATOM      8  NH2 ARG B   3     -23.723  -4.237  12.968  0.80 41.10 LIG-0.23  N 
ATOM      9 2HH1 ARG B   3     -23.992  -4.769  10.596  0.80 40.12 LIG 0.17  HD
ATOM     10 1HH1 ARG B   3     -23.196  -6.027  10.529  0.80 40.12 LIG 0.17  HD
ATOM     11 2HH2 ARG B   3     -24.209  -3.645  12.577  0.80 41.10 LIG 0.17  HD
ATOM     12 1HH2 ARG B   3     -23.554  -4.169  13.808  0.80 41.10 LIG 0.17  HD
ATOM     13 HE   ARG B   3     -22.322  -6.083  13.713  0.80 40.38 LIG 0.18  HD
ENDBRANCH 4 5
ENDBRANCH 3 4
ENDBRANCH 2 3
ENDBRANCH 1 2
BRANCH 1 14
ATOM     14  C   ARG B   3     -21.906  -8.685  15.802  0.80 30.98 LIG 0.24  C 
ATOM     15 O    ARG B   3     -21.502  -7.526  15.848  0.80 30.41 LIG-0.27  OA
ATOM     16  N   GLU B   4     -21.202  -9.736  16.213  0.80 28.71 LIG-0.35  N 
ATOM     17 H    GLU B   4     -21.526 -10.529  16.282  0.80 28.71 LIG 0.16  HD
BRANCH 16 18
ATOM     18  CA  GLU B   4     -19.795  -9.630  16.586  0.80 27.21 LIG 0.18  C 
BRANCH 18 19
ATOM     19  C   GLU B   4     -19.006  -9.156  15.378  0.80 25.80 LIG 0.24  C 
ATOM     20 O    GLU B   4     -19.259  -9.581  14.236  0.80 26.39 LIG-0.27  OA
ATOM     21  N   VAL B   5     -18.061  -8.261  15.630  0.80 23.72 LIG-0.35  N 
ATOM     22 H    VAL B   5     -17.927  -7.919  16.408  0.80 23.72 LIG 0.16  HD
BRANCH 21 23
ATOM     23  CA  VAL B   5     -17.156  -7.773  14.604  0.80 22.93 LIG 0.18  C 
BRANCH 23 24
ATOM     24  CB  VAL B   5     -17.536  -6.370  14.116  0.80 23.26 LIG 0.01  C 
ATOM     25  CG2 VAL B   5     -19.054  -6.195  14.131  0.80 23.62 LIG 0.01  C 
ATOM     26  CG1 VAL B   5     -16.995  -6.138  12.724  0.80 24.46 LIG 0.01  C 
ENDBRANCH 23 24
BRANCH 23 27
ATOM     27  C   VAL B   5     -15.758  -7.751  15.215  0.80 21.40 LIG 0.24  C 
ATOM     28  N   PRO B   6     -14.889  -8.673  14.773  0.80 20.87 LIG-0.34  N 
ATOM     29  CD  PRO B   6     -15.102  -9.858  13.931  0.80 21.07 LIG 0.13  C 
ATOM     30  CA  PRO B   6     -13.526  -8.640  15.307  0.80 20.34 LIG 0.18  C 
ATOM     31  CG  PRO B   6     -13.924 -10.733  14.270  0.80 22.12 LIG 0.02  C 
ATOM     32  CB  PRO B   6     -12.837  -9.798  14.583  0.80 19.87 LIG 0.04  C 
ATOM     33 O    VAL B   5     -15.467  -6.911  16.074  0.80 20.67 LIG-0.27  OA
BRANCH 30 34
ATOM     34  C   PRO B   6     -12.835  -7.327  14.998  0.80 20.23 LIG 0.24  C 
ATOM     35 O    PRO B   6     -12.250  -7.181  13.905  0.80 20.62 LIG-0.27  OA
ATOM     36  N   CYS B   7     -12.924  -6.381  15.935  0.80 18.87 LIG-0.34  N 
ATOM     37 H    CYS B   7     -13.242  -6.517  16.722  0.80 18.87 LIG 0.16  HD
BRANCH 36 38
ATOM     38  CA  CYS B   7     -12.477  -4.999  15.692  0.80 19.21 LIG 0.19  C 
BRANCH 38 39
ATOM     39  C   CYS B   7     -10.977  -4.860  15.861  0.80 19.13 LIG 0.20  C 
ATOM     40 O    CYS B   7     -10.206  -5.025  14.900  0.80 18.45 LIG-0.65  OA
ATOM     41 OXT  CYS B   7     -10.506  -4.536  16.947  0.80 19.35 LIG-0.65  OA
ENDBRANCH 38 39
BRANCH 38 42
ATOM     42  CB  CYS B   7     -13.233  -4.014  16.580  0.80 19.02 LIG 0.11  C 
BRANCH 42 43
ATOM     43 SG   CYS B   7     -14.647  -3.288  15.715  0.80 21.06 LIG-0.18  SA
ATOM     44 HG   CYS B   7     -14.407  -2.144  15.443  0.80 21.06 LIG 0.10  HD
ENDBRANCH 42 43
ENDBRANCH 38 42
ENDBRANCH 36 38
ENDBRANCH 30 34
ENDBRANCH 23 27
ENDBRANCH 21 23
ENDBRANCH 18 19
BRANCH 18 45
ATOM     45  CB  GLU B   4     -19.233 -10.967  17.066  0.80 27.21 LIG 0.04  C 
BRANCH 45 46
ATOM     46  CG  GLU B   4     -19.006 -11.045  18.556  0.80 28.14 LIG 0.12  C 
BRANCH 46 47
ATOM     47  CD  GLU B   4     -18.742 -12.453  19.050  0.80 29.53 LIG 0.17  C 
ATOM     48 OE1  GLU B   4     -17.721 -13.073  18.671  0.80 28.59 LIG-0.65  OA
ATOM     49 OE2  GLU B   4     -19.577 -12.943  19.833  0.80 31.57 LIG-0.65  OA
ENDBRANCH 46 47
ENDBRANCH 45 46
ENDBRANCH 18 45
ENDBRANCH 16 18
ENDBRANCH 1 14
BRANCH 1 50
ATOM     50  N   ARG B   3     -24.272  -8.298  16.117  0.80 34.16 LIG-0.35  N 
ATOM     51  C   GLU B   2     -24.282  -8.458  17.437  0.80 36.27 LIG 0.24  C 
ATOM     52 O    GLU B   2     -23.537  -9.248  18.027  0.80 35.80 LIG-0.27  OA
ATOM     53 H    ARG B   3     -24.822  -7.796  15.689  0.80 34.16 LIG 0.16  HD
BRANCH 51 54
ATOM     54  CA  GLU B   2     -25.315  -7.636  18.204  0.80 37.72 LIG 0.18  C 
BRANCH 54 55
ATOM     55  N   GLU B   2     -26.292  -7.066  17.278  0.80 39.05 LIG-0.35  N 
ATOM     56  C   GLN B   1     -27.064  -7.849  16.530  0.80 40.84 LIG 0.24  C 
ATOM     57 O    GLN B   1     -27.036  -9.082  16.597  0.80 40.79 LIG-0.27  OA
ATOM     58 H    GLU B   2     -26.317  -6.206  17.265  0.80 39.05 LIG 0.16  HD
BRANCH 56 59
ATOM     59  CA  GLN B   1     -28.013  -7.151  15.557  0.80 42.15 LIG 0.18  C 
BRANCH 59 60
ATOM     60  CB  GLN B   1     -27.241  -6.317  14.529  0.80 42.68 LIG 0.04  C 
BRANCH 60 61
ATOM     61  CG  GLN B   1     -27.631  -6.639  13.080  0.80 43.94 LIG 0.10  C 
BRANCH 61 62
ATOM     62  CD  GLN B   1     -27.216  -5.564  12.095  0.80 46.27 LIG 0.21  C 
ATOM     63 OE1  GLN B   1     -26.062  -5.134  12.080  0.80 48.62 LIG-0.27  OA
ATOM     64  NE2 GLN B   1     -28.156  -5.128  11.257  0.80 47.40 LIG-0.37  N 
ATOM     65 22HE GLN B   1     -27.967  -4.523  10.676  0.80 47.40 LIG 0.16  HD
ATOM     66 21HE GLN B   1     -28.952  -5.452  11.298  0.80 47.40 LIG 0.16  HD
ENDBRANCH 61 62
ENDBRANCH 60 61
ENDBRANCH 59 60
BRANCH 59 67
ATOM     67  N   GLN B   1     -28.924  -6.296  16.312  0.80 42.89 LIG-0.35  N 
ATOM     68  C   ACE B   0     -30.116  -6.718  16.737  0.80 43.46 LIG 0.21  C 
ATOM     69  CH3 ACE B   0     -30.834  -5.756  17.641  0.80 43.70 LIG 0.12  C 
ATOM     70 O    ACE B   0     -30.459  -7.899  16.649  0.80 44.01 LIG-0.27  OA
ATOM     71 H    GLN B   1     -28.622  -5.504  16.455  0.80 42.89 LIG 0.16  HD
ENDBRANCH 59 67
ENDBRANCH 56 59
ENDBRANCH 54 55
BRANCH 54 72
ATOM     72  CB  GLU B   2     -25.986  -8.471  19.308  0.80 37.98 LIG 0.04  C 
BRANCH 72 73
ATOM     73  CG  GLU B   2     -25.842  -9.986  19.190  0.80 38.47 LIG 0.12  C 
BRANCH 73 74
ATOM     74  CD  GLU B   2     -24.993 -10.579  20.309  0.80 38.45 LIG 0.17  C 
ATOM     75 OE1  GLU B   2     -24.077 -11.369  20.005  0.80 41.05 LIG-0.65  OA
ATOM     76 OE2  GLU B   2     -25.232 -10.246  21.484  0.80 38.47 LIG-0.65  OA
ENDBRANCH 73 74
ENDBRANCH 72 73
ENDBRANCH 54 72
ENDBRANCH 51 54
ENDBRANCH 1 50
TORSDOF 29
ENDMDL
MODEL 5
USER: ADFR SOLUTION from run 156
USER: SCORE 21.748560 LL:  -6.090 LR: -18.279 RR:   0.000 FEB:  -9.628
USER: RMSD 4.220826
USER: SEED 155
USER: STATUS searching
USER: GENES 31
USER: genes 0 Translation |==|  0.42330 0.45548 0.44783
USER: genes 1 Rotation |==|  0.55339 0.52603 0.50941 0.99637
USER: genes 2 Torsion [C]-CA--CB-[CG] |==|  0.73576
USER: genes 3 Torsion [CA]-CB--CG-[CD] |==|  0.74506
USER: genes 4 Torsion [CB]-CG--CD-[NE] |==|  0.27918
USER: genes 5 Torsion [CG]-CD--NE-[CZ] |==|  0.60232
USER: genes 6 Torsion [N]-CA--C-[N] |==|  0.35556
USER: genes 7 Torsion [C]-N--CA-[CB] |==|  0.49740
USER: genes 8 Torsion [N]-CA--C-[N] |==|  0.40516
USER: genes 9 Torsion [C]-N--CA-[CB] |==|  0.26074
USER: genes 10 Torsion [N]-CA--CB-[CG2] |==|  0.01565
USER: genes 11 Torsion [N]-CA--C-[N] |==|  0.28110
USER: genes 12 Torsion [N]-CA--C-[O] |==|  0.77109
USER: genes 13 Torsion [C]-N--CA-[C] |==|  0.77851
USER: genes 14 Torsion [N]-CA--C-[O] |==|  0.26669
USER: genes 15 Torsion [N]-CA--CB-[SG] |==|  0.73768
USER: genes 16 Torsion [CA]-CB--SG-[HG] |==|  0.69732
USER: genes 17 Torsion [N]-CA--CB-[CG] |==|  0.49169
USER: genes 18 Torsion [CA]-CB--CG-[CD] |==|  0.51335
USER: genes 19 Torsion [CB]-CG--CD-[OE2] |==|  0.80460
USER: genes 20 Torsion [CB]-CA--N-[C] |==|  0.50661
USER: genes 21 Torsion [N]-C--CA-[N] |==|  0.38830
USER: genes 22 Torsion [C]-CA--N-[C] |==|  0.82451
USER: genes 23 Torsion [N]-C--CA-[N] |==|  0.97773
USER: genes 24 Torsion [C]-CA--CB-[CG] |==|  0.82144
USER: genes 25 Torsion [CA]-CB--CG-[CD] |==|  0.21101
USER: genes 26 Torsion [CB]-CG--CD-[OE1] |==|  0.18948
USER: genes 27 Torsion [C]-CA--N-[C] |==|  0.76815
USER: genes 28 Torsion [C]-CA--CB-[CG] |==|  0.57105
USER: genes 29 Torsion [CA]-CB--CG-[CD] |==|  0.54088
USER: genes 30 Torsion [CB]-CG--CD-[OE1] |==|  0.73198
ROOT
ATOM      1  CA  ARG B   3     -23.512  -8.937  15.137  0.80 33.15 LIG 0.18  C 
ENDROOT
BRANCH 1 2
ATOM      2  CB  ARG B   3     -23.598  -8.619  13.634  0.80 33.78 LIG 0.04  C 
BRANCH 2 3
ATOM      3  CG  ARG B   3     -24.106  -7.226  13.252  0.80 35.93 LIG 0.02  C 
BRANCH 3 4
ATOM      4  CD  ARG B   3     -25.602  -7.184  13.035  0.80 39.27 LIG 0.14  C 
BRANCH 4 5
ATOM      5  NE  ARG B   3     -26.317  -6.639  14.191  0.80 40.38 LIG-0.23  N 
ATOM      6  CZ  ARG B   3     -27.502  -7.074  14.616  0.80 40.37 LIG 0.67  C 
ATOM      7  NH1 ARG B   3     -28.112  -8.063  13.982  0.80 40.12 LIG-0.23  N 
ATOM      8  NH2 ARG B   3     -28.074  -6.525  15.683  0.80 41.10 LIG-0.23  N 
ATOM      9 2HH1 ARG B   3     -28.877  -8.343  14.257  0.80 40.12 LIG 0.17  HD
ATOM     10 1HH1 ARG B   3     -27.743  -8.427  13.295  0.80 40.12 LIG 0.17  HD
ATOM     11 2HH2 ARG B   3     -28.839  -6.808  15.954  0.80 41.10 LIG 0.17  HD
ATOM     12 1HH2 ARG B   3     -27.679  -5.887  16.102  0.80 41.10 LIG 0.17  HD
ATOM     13 HE   ARG B   3     -25.946  -5.996  14.624  0.80 40.38 LIG 0.18  HD
ENDBRANCH 4 5
ENDBRANCH 3 4
ENDBRANCH 2 3
ENDBRANCH 1 2
BRANCH 1 14
ATOM     14  C   ARG B   3     -22.116  -8.678  15.677  0.80 30.98 LIG 0.24  C 
ATOM     15 O    ARG B   3     -21.713  -7.526  15.813  0.80 30.41 LIG-0.27  OA
ATOM     16  N   GLU B   4     -21.407  -9.757  15.998  0.80 28.71 LIG-0.35  N 
ATOM     17 H    GLU B   4     -21.729 -10.554  16.006  0.80 28.71 LIG 0.16  HD
BRANCH 16 18
ATOM     18  CA  GLU B   4     -19.998  -9.677  16.370  0.80 27.21 LIG 0.18  C 
BRANCH 18 19
ATOM     19  C   GLU B   4     -19.220  -9.082  15.209  0.80 25.80 LIG 0.24  C 
ATOM     20 O    GLU B   4     -19.557  -9.299  14.031  0.80 26.39 LIG-0.27  OA
ATOM     21  N   VAL B   5     -18.192  -8.318  15.545  0.80 23.72 LIG-0.35  N 
ATOM     22 H    VAL B   5     -17.996  -8.115  16.358  0.80 23.72 LIG 0.16  HD
BRANCH 21 23
ATOM     23  CA  VAL B   5     -17.290  -7.746  14.560  0.80 22.93 LIG 0.18  C 
BRANCH 23 24
ATOM     24  CB  VAL B   5     -17.704  -6.329  14.148  0.80 23.26 LIG 0.01  C 
ATOM     25  CG2 VAL B   5     -18.882  -5.851  14.997  0.80 23.62 LIG 0.01  C 
ATOM     26  CG1 VAL B   5     -18.066  -6.295  12.682  0.80 24.46 LIG 0.01  C 
ENDBRANCH 23 24
BRANCH 23 27
ATOM     27  C   VAL B   5     -15.899  -7.722  15.187  0.80 21.40 LIG 0.24  C 
ATOM     28  N   PRO B   6     -15.049  -8.691  14.813  0.80 20.87 LIG-0.34  N 
ATOM     29  CD  PRO B   6     -15.283  -9.920  14.042  0.80 21.07 LIG 0.13  C 
ATOM     30  CA  PRO B   6     -13.692  -8.660  15.362  0.80 20.34 LIG 0.18  C 
ATOM     31  CG  PRO B   6     -14.132 -10.802  14.450  0.80 22.12 LIG 0.02  C 
ATOM     32  CB  PRO B   6     -13.025  -9.877  14.719  0.80 19.87 LIG 0.04  C 
ATOM     33 O    VAL B   5     -15.597  -6.838  15.997  0.80 20.67 LIG-0.27  OA
BRANCH 30 34
ATOM     34  C   PRO B   6     -12.964  -7.386  14.983  0.80 20.23 LIG 0.24  C 
ATOM     35 O    PRO B   6     -12.412  -7.301  13.867  0.80 20.62 LIG-0.27  OA
ATOM     36  N   CYS B   7     -12.985  -6.405  15.887  0.80 18.87 LIG-0.34  N 
ATOM     37 H    CYS B   7     -13.280  -6.501  16.690  0.80 18.87 LIG 0.16  HD
BRANCH 36 38
ATOM     38  CA  CYS B   7     -12.496  -5.050  15.580  0.80 19.21 LIG 0.19  C 
BRANCH 38 39
ATOM     39  C   CYS B   7     -10.984  -4.974  15.654  0.80 19.13 LIG 0.20  C 
ATOM     40 O    CYS B   7     -10.286  -5.089  14.632  0.80 18.45 LIG-0.65  OA
ATOM     41 OXT  CYS B   7     -10.429  -4.749  16.726  0.80 19.35 LIG-0.65  OA
ENDBRANCH 38 39
BRANCH 38 42
ATOM     42  CB  CYS B   7     -13.153  -4.011  16.485  0.80 19.02 LIG 0.11  C 
BRANCH 42 43
ATOM     43 SG   CYS B   7     -14.607  -3.272  15.701  0.80 21.06 LIG-0.18  SA
ATOM     44 HG   CYS B   7     -14.366  -2.136  15.398  0.80 21.06 LIG 0.10  HD
ENDBRANCH 42 43
ENDBRANCH 38 42
ENDBRANCH 36 38
ENDBRANCH 30 34
ENDBRANCH 23 27
ENDBRANCH 21 23
ENDBRANCH 18 19
BRANCH 18 45
ATOM     45  CB  GLU B   4     -19.424 -11.050  16.715  0.80 27.21 LIG 0.04  C 
BRANCH 45 46
ATOM     46  CG  GLU B   4     -17.950 -11.044  17.039  0.80 28.14 LIG 0.12  C 
BRANCH 46 47
ATOM     47  CD  GLU B   4     -17.379 -12.430  17.264  0.80 29.53 LIG 0.17  C 
ATOM     48 OE1  GLU B   4     -16.593 -12.931  16.427  0.80 28.59 LIG-0.65  OA
ATOM     49 OE2  GLU B   4     -17.727 -13.022  18.302  0.80 31.57 LIG-0.65  OA
ENDBRANCH 46 47
ENDBRANCH 45 46
ENDBRANCH 18 45
ENDBRANCH 16 18
ENDBRANCH 1 14
BRANCH 1 50
ATOM     50  N   ARG B   3     -24.462  -8.141  15.901  0.80 34.16 LIG-0.35  N 
ATOM     51  C   GLU B   2     -24.526  -8.221  17.227  0.80 36.27 LIG 0.24  C 
ATOM     52 O    GLU B   2     -23.856  -9.021  17.888  0.80 35.80 LIG-0.27  OA
ATOM     53 H    ARG B   3     -24.963  -7.629  15.425  0.80 34.16 LIG 0.16  HD
BRANCH 51 54
ATOM     54  CA  GLU B   2     -25.526  -7.289  17.906  0.80 37.72 LIG 0.18  C 
BRANCH 54 55
ATOM     55  N   GLU B   2     -26.203  -7.986  18.997  0.80 39.05 LIG-0.35  N 
ATOM     56  C   GLN B   1     -26.974  -9.044  18.759  0.80 40.84 LIG 0.24  C 
ATOM     57 O    GLN B   1     -27.131  -9.520  17.630  0.80 40.79 LIG-0.27  OA
ATOM     58 H    GLU B   2     -26.060  -7.657  19.779  0.80 39.05 LIG 0.16  HD
BRANCH 56 59
ATOM     59  CA  GLN B   1     -27.679  -9.666  19.963  0.80 42.15 LIG 0.18  C 
BRANCH 59 60
ATOM     60  CB  GLN B   1     -29.199  -9.493  19.870  0.80 42.68 LIG 0.04  C 
BRANCH 60 61
ATOM     61  CG  GLN B   1     -29.640  -8.025  19.922  0.80 43.94 LIG 0.10  C 
BRANCH 61 62
ATOM     62  CD  GLN B   1     -29.397  -7.281  18.623  0.80 46.27 LIG 0.21  C 
ATOM     63 OE1  GLN B   1     -30.041  -7.555  17.609  0.80 48.62 LIG-0.27  OA
ATOM     64  NE2 GLN B   1     -28.470  -6.324  18.648  0.80 47.40 LIG-0.37  N 
ATOM     65 22HE GLN B   1     -28.302  -5.870  17.937  0.80 47.40 LIG 0.16  HD
ATOM     66 21HE GLN B   1     -28.041  -6.160  19.375  0.80 47.40 LIG 0.16  HD
ENDBRANCH 61 62
ENDBRANCH 60 61
ENDBRANCH 59 60
BRANCH 59 67
ATOM     67  N   GLN B   1     -27.178  -9.038  21.183  0.80 42.89 LIG-0.35  N 
ATOM     68  C   ACE B   0     -26.053  -9.431  21.781  0.80 43.46 LIG 0.21  C 
ATOM     69  CH3 ACE B   0     -25.612  -8.556  22.921  0.80 43.70 LIG 0.12  C 
ATOM     70 O    ACE B   0     -25.288 -10.246  21.260  0.80 44.01 LIG-0.27  OA
ATOM     71 H    GLN B   1     -27.673  -8.399  21.475  0.80 42.89 LIG 0.16  HD
ENDBRANCH 59 67
ENDBRANCH 56 59
ENDBRANCH 54 55
BRANCH 54 72
ATOM     72  CB  GLU B   2     -24.847  -5.993  18.383  0.80 37.98 LIG 0.04  C 
BRANCH 72 73
ATOM     73  CG  GLU B   2     -25.512  -5.274  19.553  0.80 38.47 LIG 0.12  C 
BRANCH 73 74
ATOM     74  CD  GLU B   2     -25.002  -3.848  19.727  0.80 38.45 LIG 0.17  C 
ATOM     75 OE1  GLU B   2     -24.096  -3.636  20.557  0.80 41.05 LIG-0.65  OA
ATOM     76 OE2  GLU B   2     -25.495  -2.946  19.024  0.80 38.47 LIG-0.65  OA
ENDBRANCH 73 74
ENDBRANCH 72 73
ENDBRANCH 54 72
ENDBRANCH 51 54
ENDBRANCH 1 50
TORSDOF 29
ENDMDL
MODEL 6
USER: ADFR SOLUTION from run 133
USER: SCORE 21.206902 LL:  -5.856 LR: -18.252 RR:   0.000 FEB:  -9.601
USER: RMSD 4.214264
USER: SEED 132
USER: STATUS no improvement in best in 9 clusters for 5 generations
USER: GENES 31
USER: genes 0 Translation |==|  0.41985 0.45277 0.46158
USER: genes 1 Rotation |==|  0.53222 0.53712 0.51152 0.99744
USER: genes 2 Torsion [C]-CA--CB-[CG] |==|  0.75642
USER: genes 3 Torsion [CA]-CB--CG-[CD] |==|  0.72991
USER: genes 4 Torsion [CB]-CG--CD-[NE] |==|  0.26663
USER: genes 5 Torsion [CG]-CD--NE-[CZ] |==|  0.65719
USER: genes 6 Torsion [N]-CA--C-[N] |==|  0.33071
USER: genes 7 Torsion [C]-N--CA-[CB] |==|  0.50830
USER: genes 8 Torsion [N]-CA--C-[N] |==|  0.41779
USER: genes 9 Torsion [C]-N--CA-[CB] |==|  0.23848
USER: genes 10 Torsion [N]-CA--CB-[CG2] |==|  0.46265
USER: genes 11 Torsion [N]-CA--C-[N] |==|  0.31398
USER: genes 12 Torsion [N]-CA--C-[O] |==|  0.81271
USER: genes 13 Torsion [C]-N--CA-[C] |==|  0.73608
USER: genes 14 Torsion [N]-CA--C-[O] |==|  0.27188
USER: genes 15 Torsion [N]-CA--CB-[SG] |==|  0.71657
USER: genes 16 Torsion [CA]-CB--SG-[HG] |==|  0.72367
USER: genes 17 Torsion [N]-CA--CB-[CG] |==|  0.31281
USER: genes 18 Torsion [CA]-CB--CG-[CD] |==|  0.43220
USER: genes 19 Torsion [CB]-CG--CD-[OE2] |==|  0.53250
USER: genes 20 Torsion [CB]-CA--N-[C] |==|  0.48342
USER: genes 21 Torsion [N]-C--CA-[N] |==|  0.40758
USER: genes 22 Torsion [C]-CA--N-[C] |==|  0.78678
USER: genes 23 Torsion [N]-C--CA-[N] |==|  0.34273
USER: genes 24 Torsion [C]-CA--CB-[CG] |==|  0.04890
USER: genes 25 Torsion [CA]-CB--CG-[CD] |==|  0.21873
USER: genes 26 Torsion [CB]-CG--CD-[OE1] |==|  0.92417
USER: genes 27 Torsion [C]-CA--N-[C] |==|  0.84079
USER: genes 28 Torsion [C]-CA--CB-[CG] |==|  0.56853
USER: genes 29 Torsion [CA]-CB--CG-[CD] |==|  0.51509
USER: genes 30 Torsion [CB]-CG--CD-[OE1] |==|  0.71772
ROOT
ATOM      1  CA  ARG B   3     -23.621  -8.986  15.384  0.80 33.15 LIG 0.18  C 
ENDROOT
BRANCH 1 2
ATOM      2  CB  ARG B   3     -23.774  -8.798  13.865  0.80 33.78 LIG 0.04  C 
BRANCH 2 3
ATOM      3  CG  ARG B   3     -24.154  -7.398  13.377  0.80 35.93 LIG 0.02  C 
BRANCH 3 4
ATOM      4  CD  ARG B   3     -25.637  -7.248  13.118  0.80 39.27 LIG 0.14  C 
BRANCH 4 5
ATOM      5  NE  ARG B   3     -26.345  -6.664  14.259  0.80 40.38 LIG-0.23  N 
ATOM      6  CZ  ARG B   3     -27.375  -7.239  14.879  0.80 40.37 LIG 0.67  C 
ATOM      7  NH1 ARG B   3     -27.821  -8.416  14.471  0.80 40.12 LIG-0.23  N 
ATOM      8  NH2 ARG B   3     -27.953  -6.639  15.915  0.80 41.10 LIG-0.23  N 
ATOM      9 2HH1 ARG B   3     -28.486  -8.787  14.872  0.80 40.12 LIG 0.17  HD
ATOM     10 1HH1 ARG B   3     -27.446  -8.812  13.806  0.80 40.12 LIG 0.17  HD
ATOM     11 2HH2 ARG B   3     -28.617  -7.013  16.312  0.80 41.10 LIG 0.17  HD
ATOM     12 1HH2 ARG B   3     -27.662  -5.877  16.187  0.80 41.10 LIG 0.17  HD
ATOM     13 HE   ARG B   3     -26.079  -5.899  14.548  0.80 40.38 LIG 0.18  HD
ENDBRANCH 4 5
ENDBRANCH 3 4
ENDBRANCH 2 3
ENDBRANCH 1 2
BRANCH 1 14
ATOM     14  C   ARG B   3     -22.208  -8.660  15.841  0.80 30.98 LIG 0.24  C 
ATOM     15 O    ARG B   3     -21.767  -7.522  15.709  0.80 30.41 LIG-0.27  OA
ATOM     16  N   GLU B   4     -21.530  -9.661  16.394  0.80 28.71 LIG-0.35  N 
ATOM     17 H    GLU B   4     -21.878 -10.424  16.586  0.80 28.71 LIG 0.16  HD
BRANCH 16 18
ATOM     18  CA  GLU B   4     -20.114  -9.549  16.729  0.80 27.21 LIG 0.18  C 
BRANCH 18 19
ATOM     19  C   GLU B   4     -19.347  -9.164  15.476  0.80 25.80 LIG 0.24  C 
ATOM     20 O    GLU B   4     -19.754  -9.492  14.346  0.80 26.39 LIG-0.27  OA
ATOM     21  N   VAL B   5     -18.248  -8.453  15.677  0.80 23.72 LIG-0.35  N 
ATOM     22 H    VAL B   5     -17.999  -8.171  16.451  0.80 23.72 LIG 0.16  HD
BRANCH 21 23
ATOM     23  CA  VAL B   5     -17.350  -8.081  14.596  0.80 22.93 LIG 0.18  C 
BRANCH 23 24
ATOM     24  CB  VAL B   5     -17.788  -6.788  13.898  0.80 23.26 LIG 0.01  C 
ATOM     25  CG2 VAL B   5     -16.664  -6.256  13.009  0.80 23.62 LIG 0.01  C 
ATOM     26  CG1 VAL B   5     -18.183  -5.750  14.922  0.80 24.46 LIG 0.01  C 
ENDBRANCH 23 24
BRANCH 23 27
ATOM     27  C   VAL B   5     -15.964  -7.900  15.208  0.80 21.40 LIG 0.24  C 
ATOM     28  N   PRO B   6     -15.022  -8.784  14.845  0.80 20.87 LIG-0.34  N 
ATOM     29  CD  PRO B   6     -15.134 -10.046  14.102  0.80 21.07 LIG 0.13  C 
ATOM     30  CA  PRO B   6     -13.671  -8.601  15.379  0.80 20.34 LIG 0.18  C 
ATOM     31  CG  PRO B   6     -13.895 -10.796  14.515  0.80 22.12 LIG 0.02  C 
ATOM     32  CB  PRO B   6     -12.887  -9.756  14.754  0.80 19.87 LIG 0.04  C 
ATOM     33 O    VAL B   5     -15.748  -6.973  15.996  0.80 20.67 LIG-0.27  OA
BRANCH 30 34
ATOM     34  C   PRO B   6     -13.081  -7.267  14.966  0.80 20.23 LIG 0.24  C 
ATOM     35 O    PRO B   6     -12.808  -7.059  13.766  0.80 20.62 LIG-0.27  OA
ATOM     36  N   CYS B   7     -12.914  -6.372  15.941  0.80 18.87 LIG-0.34  N 
ATOM     37 H    CYS B   7     -13.011  -6.551  16.776  0.80 18.87 LIG 0.16  HD
BRANCH 36 38
ATOM     38  CA  CYS B   7     -12.542  -4.974  15.661  0.80 19.21 LIG 0.19  C 
BRANCH 38 39
ATOM     39  C   CYS B   7     -11.044  -4.766  15.759  0.80 19.13 LIG 0.20  C 
ATOM     40 O    CYS B   7     -10.329  -4.769  14.742  0.80 18.45 LIG-0.65  OA
ATOM     41 OXT  CYS B   7     -10.521  -4.544  16.848  0.80 19.35 LIG-0.65  OA
ENDBRANCH 38 39
BRANCH 38 42
ATOM     42  CB  CYS B   7     -13.301  -4.011  16.570  0.80 19.02 LIG 0.11  C 
BRANCH 42 43
ATOM     43 SG   CYS B   7     -14.678  -3.222  15.701  0.80 21.06 LIG-0.18  SA
ATOM     44 HG   CYS B   7     -14.352  -2.122  15.348  0.80 21.06 LIG 0.10  HD
ENDBRANCH 42 43
ENDBRANCH 38 42
ENDBRANCH 36 38
ENDBRANCH 30 34
ENDBRANCH 23 27
ENDBRANCH 21 23
ENDBRANCH 18 19
BRANCH 18 45
ATOM     45  CB  GLU B   4     -19.556 -10.858  17.283  0.80 27.21 LIG 0.04  C 
BRANCH 45 46
ATOM     46  CG  GLU B   4     -18.547 -11.533  16.387  0.80 28.14 LIG 0.12  C 
BRANCH 46 47
ATOM     47  CD  GLU B   4     -17.597 -12.447  17.134  0.80 29.53 LIG 0.17  C 
ATOM     48 OE1  GLU B   4     -17.826 -12.756  18.326  0.80 28.59 LIG-0.65  OA
ATOM     49 OE2  GLU B   4     -16.604 -12.862  16.508  0.80 31.57 LIG-0.65  OA
ENDBRANCH 46 47
ENDBRANCH 45 46
ENDBRANCH 18 45
ENDBRANCH 16 18
ENDBRANCH 1 14
BRANCH 1 50
ATOM     50  N   ARG B   3     -24.553  -8.143  16.117  0.80 34.16 LIG-0.35  N 
ATOM     51  C   GLU B   2     -24.677  -8.229  17.439  0.80 36.27 LIG 0.24  C 
ATOM     52 O    GLU B   2     -24.081  -9.072  18.118  0.80 35.80 LIG-0.27  OA
ATOM     53 H    ARG B   3     -25.004  -7.599  15.627  0.80 34.16 LIG 0.16  HD
BRANCH 51 54
ATOM     54  CA  GLU B   2     -25.648  -7.246  18.087  0.80 37.72 LIG 0.18  C 
BRANCH 54 55
ATOM     55  N   GLU B   2     -26.289  -7.863  19.247  0.80 39.05 LIG-0.35  N 
ATOM     56  C   GLN B   1     -27.271  -8.749  19.095  0.80 40.84 LIG 0.24  C 
ATOM     57 O    GLN B   1     -27.668  -9.130  17.990  0.80 40.79 LIG-0.27  OA
ATOM     58 H    GLU B   2     -25.981  -7.607  20.008  0.80 39.05 LIG 0.16  HD
BRANCH 56 59
ATOM     59  CA  GLN B   1     -27.909  -9.292  20.373  0.80 42.15 LIG 0.18  C 
BRANCH 59 60
ATOM     60  CB  GLN B   1     -27.649 -10.794  20.531  0.80 42.68 LIG 0.04  C 
BRANCH 60 61
ATOM     61  CG  GLN B   1     -26.496 -11.298  19.653  0.80 43.94 LIG 0.10  C 
BRANCH 61 62
ATOM     62  CD  GLN B   1     -25.127 -10.985  20.225  0.80 46.27 LIG 0.21  C 
ATOM     63 OE1  GLN B   1     -24.959 -10.012  20.962  0.80 48.62 LIG-0.27  OA
ATOM     64  NE2 GLN B   1     -24.139 -11.816  19.896  0.80 47.40 LIG-0.37  N 
ATOM     65 22HE GLN B   1     -23.346 -11.683  20.201  0.80 47.40 LIG 0.16  HD
ATOM     66 21HE GLN B   1     -24.295 -12.485  19.378  0.80 47.40 LIG 0.16  HD
ENDBRANCH 61 62
ENDBRANCH 60 61
ENDBRANCH 59 60
BRANCH 59 67
ATOM     67  N   GLN B   1     -29.345  -9.033  20.334  0.80 42.89 LIG-0.35  N 
ATOM     68  C   ACE B   0     -29.849  -7.807  20.196  0.80 43.46 LIG 0.21  C 
ATOM     69  CH3 ACE B   0     -31.339  -7.761  20.005  0.80 43.70 LIG 0.12  C 
ATOM     70 O    ACE B   0     -29.136  -6.834  19.942  0.80 44.01 LIG-0.27  OA
ATOM     71 H    GLN B   1     -29.830  -9.740  20.408  0.80 42.89 LIG 0.16  HD
ENDBRANCH 59 67
ENDBRANCH 56 59
ENDBRANCH 54 55
BRANCH 54 72
ATOM     72  CB  GLU B   2     -24.948  -5.925  18.449  0.80 37.98 LIG 0.04  C 
BRANCH 72 73
ATOM     73  CG  GLU B   2     -25.581  -5.113  19.575  0.80 38.47 LIG 0.12  C 
BRANCH 73 74
ATOM     74  CD  GLU B   2     -24.901  -3.763  19.774  0.80 38.45 LIG 0.17  C 
ATOM     75 OE1  GLU B   2     -24.096  -3.636  20.719  0.80 41.05 LIG-0.65  OA
ATOM     76 OE2  GLU B   2     -25.157  -2.840  18.980  0.80 38.47 LIG-0.65  OA
ENDBRANCH 73 74
ENDBRANCH 72 73
ENDBRANCH 54 72
ENDBRANCH 51 54
ENDBRANCH 1 50
TORSDOF 29
ENDMDL
MODEL 7
USER: ADFR SOLUTION from run 20
USER: SCORE 21.146073 LL:  -5.440 LR: -18.050 RR:   0.000 FEB:  -9.400
USER: RMSD 4.047109
USER: SEED 19
USER: STATUS searching
USER: GENES 31
USER: genes 0 Translation |==|  0.41798 0.45835 0.44859
USER: genes 1 Rotation |==|  0.55917 0.53117 0.51408 0.99531
USER: genes 2 Torsion [C]-CA--CB-[CG] |==|  0.90954
USER: genes 3 Torsion [CA]-CB--CG-[CD] |==|  0.67888
USER: genes 4 Torsion [CB]-CG--CD-[NE] |==|  0.43521
USER: genes 5 Torsion [CG]-CD--NE-[CZ] |==|  0.24521
USER: genes 6 Torsion [N]-CA--C-[N] |==|  0.33619
USER: genes 7 Torsion [C]-N--CA-[CB] |==|  0.50156
USER: genes 8 Torsion [N]-CA--C-[N] |==|  0.43511
USER: genes 9 Torsion [C]-N--CA-[CB] |==|  0.21445
USER: genes 10 Torsion [N]-CA--CB-[CG2] |==|  0.43422
USER: genes 11 Torsion [N]-CA--C-[N] |==|  0.29824
USER: genes 12 Torsion [N]-CA--C-[O] |==|  0.81638
USER: genes 13 Torsion [C]-N--CA-[C] |==|  0.73650
USER: genes 14 Torsion [N]-CA--C-[O] |==|  0.24518
USER: genes 15 Torsion [N]-CA--CB-[SG] |==|  0.72605
USER: genes 16 Torsion [CA]-CB--SG-[HG] |==|  0.70804
USER: genes 17 Torsion [N]-CA--CB-[CG] |==|  0.53068
USER: genes 18 Torsion [CA]-CB--CG-[CD] |==|  0.57615
USER: genes 19 Torsion [CB]-CG--CD-[OE2] |==|  0.77463
USER: genes 20 Torsion [CB]-CA--N-[C] |==|  0.52227
USER: genes 21 Torsion [N]-C--CA-[N] |==|  0.38273
USER: genes 22 Torsion [C]-CA--N-[C] |==|  0.81425
USER: genes 23 Torsion [N]-C--CA-[N] |==|  0.98546
USER: genes 24 Torsion [C]-CA--CB-[CG] |==|  0.26537
USER: genes 25 Torsion [CA]-CB--CG-[CD] |==|  0.15290
USER: genes 26 Torsion [CB]-CG--CD-[OE1] |==|  0.07489
USER: genes 27 Torsion [C]-CA--N-[C] |==|  0.74592
USER: genes 28 Torsion [C]-CA--CB-[CG] |==|  0.57550
USER: genes 29 Torsion [CA]-CB--CG-[CD] |==|  0.52798
USER: genes 30 Torsion [CB]-CG--CD-[OE1] |==|  0.24540
ROOT
ATOM      1  CA  ARG B   3     -23.680  -8.886  15.151  0.80 33.15 LIG 0.18  C 
ENDROOT
BRANCH 1 2
ATOM      2  CB  ARG B   3     -23.801  -8.533  13.658  0.80 33.78 LIG 0.04  C 
BRANCH 2 3
ATOM      3  CG  ARG B   3     -22.952  -7.364  13.153  0.80 35.93 LIG 0.02  C 
BRANCH 3 4
ATOM      4  CD  ARG B   3     -23.784  -6.198  12.669  0.80 39.27 LIG 0.14  C 
BRANCH 4 5
ATOM      5  NE  ARG B   3     -23.047  -4.934  12.707  0.80 40.38 LIG-0.23  N 
ATOM      6  CZ  ARG B   3     -22.289  -4.474  11.712  0.80 40.37 LIG 0.67  C 
ATOM      7  NH1 ARG B   3     -22.165  -5.173  10.596  0.80 40.12 LIG-0.23  N 
ATOM      8  NH2 ARG B   3     -21.662  -3.308  11.831  0.80 41.10 LIG-0.23  N 
ATOM      9 2HH1 ARG B   3     -21.676  -4.876   9.954  0.80 40.12 LIG 0.17  HD
ATOM     10 1HH1 ARG B   3     -22.575  -5.925  10.511  0.80 40.12 LIG 0.17  HD
ATOM     11 2HH2 ARG B   3     -21.174  -3.014  11.188  0.80 41.10 LIG 0.17  HD
ATOM     12 1HH2 ARG B   3     -21.745  -2.847  12.553  0.80 41.10 LIG 0.17  HD
ATOM     13 HE   ARG B   3     -23.107  -4.456  13.420  0.80 40.38 LIG 0.18  HD
ENDBRANCH 4 5
ENDBRANCH 3 4
ENDBRANCH 2 3
ENDBRANCH 1 2
BRANCH 1 14
ATOM     14  C   ARG B   3     -22.278  -8.612  15.670  0.80 30.98 LIG 0.24  C 
ATOM     15 O    ARG B   3     -21.850  -7.461  15.706  0.80 30.41 LIG-0.27  OA
ATOM     16  N   GLU B   4     -21.595  -9.673  16.087  0.80 28.71 LIG-0.35  N 
ATOM     17 H    GLU B   4     -21.935 -10.460  16.164  0.80 28.71 LIG 0.16  HD
BRANCH 16 18
ATOM     18  CA  GLU B   4     -20.185  -9.594  16.456  0.80 27.21 LIG 0.18  C 
BRANCH 18 19
ATOM     19  C   GLU B   4     -19.397  -9.085  15.261  0.80 25.80 LIG 0.24  C 
ATOM     20 O    GLU B   4     -19.840  -9.198  14.103  0.80 26.39 LIG-0.27  OA
ATOM     21  N   VAL B   5     -18.239  -8.510  15.546  0.80 23.72 LIG-0.35  N 
ATOM     22 H    VAL B   5     -17.961  -8.373  16.348  0.80 23.72 LIG 0.16  HD
BRANCH 21 23
ATOM     23  CA  VAL B   5     -17.321  -8.051  14.516  0.80 22.93 LIG 0.18  C 
BRANCH 23 24
ATOM     24  CB  VAL B   5     -17.771  -6.728  13.886  0.80 23.26 LIG 0.01  C 
ATOM     25  CG2 VAL B   5     -16.575  -5.994  13.280  0.80 23.62 LIG 0.01  C 
ATOM     26  CG1 VAL B   5     -18.450  -5.861  14.920  0.80 24.46 LIG 0.01  C 
ENDBRANCH 23 24
BRANCH 23 27
ATOM     27  C   VAL B   5     -15.958  -7.877  15.178  0.80 21.40 LIG 0.24  C 
ATOM     28  N   PRO B   6     -15.018  -8.786  14.877  0.80 20.87 LIG-0.34  N 
ATOM     29  CD  PRO B   6     -15.123 -10.067  14.165  0.80 21.07 LIG 0.13  C 
ATOM     30  CA  PRO B   6     -13.686  -8.612  15.460  0.80 20.34 LIG 0.18  C 
ATOM     31  CG  PRO B   6     -13.915 -10.826  14.648  0.80 22.12 LIG 0.02  C 
ATOM     32  CB  PRO B   6     -12.899  -9.798  14.898  0.80 19.87 LIG 0.04  C 
ATOM     33 O    VAL B   5     -15.756  -6.932  15.949  0.80 20.67 LIG-0.27  OA
BRANCH 30 34
ATOM     34  C   PRO B   6     -13.056  -7.301  15.035  0.80 20.23 LIG 0.24  C 
ATOM     35 O    PRO B   6     -12.755  -7.121  13.837  0.80 20.62 LIG-0.27  OA
ATOM     36  N   CYS B   7     -12.886  -6.391  15.996  0.80 18.87 LIG-0.34  N 
ATOM     37 H    CYS B   7     -13.004  -6.553  16.833  0.80 18.87 LIG 0.16  HD
BRANCH 36 38
ATOM     38  CA  CYS B   7     -12.475  -5.008  15.698  0.80 19.21 LIG 0.19  C 
BRANCH 38 39
ATOM     39  C   CYS B   7     -10.974  -4.835  15.819  0.80 19.13 LIG 0.20  C 
ATOM     40 O    CYS B   7     -10.225  -5.048  14.850  0.80 18.45 LIG-0.65  OA
ATOM     41 OXT  CYS B   7     -10.481  -4.434  16.870  0.80 19.35 LIG-0.65  OA
ENDBRANCH 38 39
BRANCH 38 42
ATOM     42  CB  CYS B   7     -13.225  -4.011  16.577  0.80 19.02 LIG 0.11  C 
BRANCH 42 43
ATOM     43 SG   CYS B   7     -14.629  -3.277  15.701  0.80 21.06 LIG-0.18  SA
ATOM     44 HG   CYS B   7     -14.360  -2.151  15.385  0.80 21.06 LIG 0.10  HD
ENDBRANCH 42 43
ENDBRANCH 38 42
ENDBRANCH 36 38
ENDBRANCH 30 34
ENDBRANCH 23 27
ENDBRANCH 21 23
ENDBRANCH 18 19
BRANCH 18 45
ATOM     45  CB  GLU B   4     -19.633 -10.952  16.886  0.80 27.21 LIG 0.04  C 
BRANCH 45 46
ATOM     46  CG  GLU B   4     -18.268 -10.893  17.525  0.80 28.14 LIG 0.12  C 
BRANCH 46 47
ATOM     47  CD  GLU B   4     -17.468 -12.168  17.350  0.80 29.53 LIG 0.17  C 
ATOM     48 OE1  GLU B   4     -16.597 -12.248  16.452  0.80 28.59 LIG-0.65  OA
ATOM     49 OE2  GLU B   4     -17.719 -13.105  18.131  0.80 31.57 LIG-0.65  OA
ENDBRANCH 46 47
ENDBRANCH 45 46
ENDBRANCH 18 45
ENDBRANCH 16 18
ENDBRANCH 1 14
BRANCH 1 50
ATOM     50  N   ARG B   3     -24.630  -8.127  15.951  0.80 34.16 LIG-0.35  N 
ATOM     51  C   GLU B   2     -24.595  -8.154  17.280  0.80 36.27 LIG 0.24  C 
ATOM     52 O    GLU B   2     -23.823  -8.876  17.921  0.80 35.80 LIG-0.27  OA
ATOM     53 H    ARG B   3     -25.199  -7.673  15.494  0.80 34.16 LIG 0.16  HD
BRANCH 51 54
ATOM     54  CA  GLU B   2     -25.611  -7.267  17.996  0.80 37.72 LIG 0.18  C 
BRANCH 54 55
ATOM     55  N   GLU B   2     -26.192  -7.981  19.131  0.80 39.05 LIG-0.35  N 
ATOM     56  C   GLN B   1     -26.972  -9.043  18.944  0.80 40.84 LIG 0.24  C 
ATOM     57 O    GLN B   1     -27.218  -9.508  17.827  0.80 40.79 LIG-0.27  OA
ATOM     58 H    GLU B   2     -25.987  -7.659  19.902  0.80 39.05 LIG 0.16  HD
BRANCH 56 59
ATOM     59  CA  GLN B   1     -27.572  -9.682  20.196  0.80 42.15 LIG 0.18  C 
BRANCH 59 60
ATOM     60  CB  GLN B   1     -29.101  -9.581  20.195  0.80 42.68 LIG 0.04  C 
BRANCH 60 61
ATOM     61  CG  GLN B   1     -29.785 -10.840  19.645  0.80 43.94 LIG 0.10  C 
BRANCH 61 62
ATOM     62  CD  GLN B   1     -29.367 -12.109  20.361  0.80 46.27 LIG 0.21  C 
ATOM     63 OE1  GLN B   1     -28.983 -12.076  21.532  0.80 48.62 LIG-0.27  OA
ATOM     64  NE2 GLN B   1     -29.449 -13.242  19.664  0.80 47.40 LIG-0.37  N 
ATOM     65 22HE GLN B   1     -29.229 -13.988  20.030  0.80 47.40 LIG 0.16  HD
ATOM     66 21HE GLN B   1     -29.722 -13.226  18.849  0.80 47.40 LIG 0.16  HD
ENDBRANCH 61 62
ENDBRANCH 60 61
ENDBRANCH 59 60
BRANCH 59 67
ATOM     67  N   GLN B   1     -27.027  -9.018  21.377  0.80 42.89 LIG-0.35  N 
ATOM     68  C   ACE B   0     -25.930  -9.450  21.999  0.80 43.46 LIG 0.21  C 
ATOM     69  CH3 ACE B   0     -25.428  -8.541  23.086  0.80 43.70 LIG 0.12  C 
ATOM     70 O    ACE B   0     -25.223 -10.345  21.530  0.80 44.01 LIG-0.27  OA
ATOM     71 H    GLN B   1     -27.476  -8.330  21.629  0.80 42.89 LIG 0.16  HD
ENDBRANCH 59 67
ENDBRANCH 56 59
ENDBRANCH 54 55
BRANCH 54 72
ATOM     72  CB  GLU B   2     -24.984  -5.927  18.417  0.80 37.98 LIG 0.04  C 
BRANCH 72 73
ATOM     73  CG  GLU B   2     -25.604  -5.243  19.631  0.80 38.47 LIG 0.12  C 
BRANCH 73 74
ATOM     74  CD  GLU B   2     -25.090  -3.822  19.827  0.80 38.45 LIG 0.17  C 
ATOM     75 OE1  GLU B   2     -25.683  -2.889  19.248  0.80 41.05 LIG-0.65  OA
ATOM     76 OE2  GLU B   2     -24.107  -3.636  20.568  0.80 38.47 LIG-0.65  OA
ENDBRANCH 73 74
ENDBRANCH 72 73
ENDBRANCH 54 72
ENDBRANCH 51 54
ENDBRANCH 1 50
TORSDOF 29
ENDMDL
MODEL 8
USER: ADFR SOLUTION from run 20
USER: SCORE 21.255036 LL:  -6.317 LR: -17.950 RR:   0.000 FEB:  -9.300
USER: RMSD 3.661762
USER: SEED 19
USER: STATUS searching
USER: GENES 31
USER: genes 0 Translation |==|  0.41806 0.43750 0.47416
USER: genes 1 Rotation |==|  0.46350 0.52466 0.48592 0.99786
USER: genes 2 Torsion [C]-CA--CB-[CG] |==|  0.84105
USER: genes 3 Torsion [CA]-CB--CG-[CD] |==|  0.72857
USER: genes 4 Torsion [CB]-CG--CD-[NE] |==|  0.34551
USER: genes 5 Torsion [CG]-CD--NE-[CZ] |==|  0.22174
USER: genes 6 Torsion [N]-CA--C-[N] |==|  0.39650
USER: genes 7 Torsion [C]-N--CA-[CB] |==|  0.50013
USER: genes 8 Torsion [N]-CA--C-[N] |==|  0.41801
USER: genes 9 Torsion [C]-N--CA-[CB] |==|  0.23333
USER: genes 10 Torsion [N]-CA--CB-[CG2] |==|  0.40534
USER: genes 11 Torsion [N]-CA--C-[N] |==|  0.30681
USER: genes 12 Torsion [N]-CA--C-[O] |==|  0.84047
USER: genes 13 Torsion [C]-N--CA-[C] |==|  0.70813
USER: genes 14 Torsion [N]-CA--C-[O] |==|  0.26491
USER: genes 15 Torsion [N]-CA--CB-[SG] |==|  0.71981
USER: genes 16 Torsion [CA]-CB--SG-[HG] |==|  0.71263
USER: genes 17 Torsion [N]-CA--CB-[CG] |==|  0.47345
USER: genes 18 Torsion [CA]-CB--CG-[CD] |==|  0.57555
USER: genes 19 Torsion [CB]-CG--CD-[OE2] |==|  0.82485
USER: genes 20 Torsion [CB]-CA--N-[C] |==|  0.45558
USER: genes 21 Torsion [N]-C--CA-[N] |==|  0.31311
USER: genes 22 Torsion [C]-CA--N-[C] |==|  0.69131
USER: genes 23 Torsion [N]-C--CA-[N] |==|  0.97157
USER: genes 24 Torsion [C]-CA--CB-[CG] |==|  0.73626
USER: genes 25 Torsion [CA]-CB--CG-[CD] |==|  0.25520
USER: genes 26 Torsion [CB]-CG--CD-[OE1] |==|  0.08337
USER: genes 27 Torsion [C]-CA--N-[C] |==|  0.75611
USER: genes 28 Torsion [C]-CA--CB-[CG] |==|  0.64833
USER: genes 29 Torsion [CA]-CB--CG-[CD] |==|  0.57626
USER: genes 30 Torsion [CB]-CG--CD-[OE1] |==|  0.46027
ROOT
ATOM      1  CA  ARG B   3     -23.677  -9.261  15.611  0.80 33.15 LIG 0.18  C 
ENDROOT
BRANCH 1 2
ATOM      2  CB  ARG B   3     -23.756  -9.493  14.092  0.80 33.78 LIG 0.04  C 
BRANCH 2 3
ATOM      3  CG  ARG B   3     -23.278  -8.351  13.193  0.80 35.93 LIG 0.02  C 
BRANCH 3 4
ATOM      4  CD  ARG B   3     -24.412  -7.490  12.683  0.80 39.27 LIG 0.14  C 
BRANCH 4 5
ATOM      5  NE  ARG B   3     -24.229  -6.075  13.011  0.80 40.38 LIG-0.23  N 
ATOM      6  CZ  ARG B   3     -23.436  -5.243  12.337  0.80 40.37 LIG 0.67  C 
ATOM      7  NH1 ARG B   3     -22.750  -5.680  11.293  0.80 40.12 LIG-0.23  N 
ATOM      8  NH2 ARG B   3     -23.338  -3.968  12.701  0.80 41.10 LIG-0.23  N 
ATOM      9 2HH1 ARG B   3     -22.239  -5.142  10.859  0.80 40.12 LIG 0.17  HD
ATOM     10 1HH1 ARG B   3     -22.815  -6.502  11.049  0.80 40.12 LIG 0.17  HD
ATOM     11 2HH2 ARG B   3     -22.826  -3.434  12.264  0.80 41.10 LIG 0.17  HD
ATOM     12 1HH2 ARG B   3     -23.788  -3.678  13.375  0.80 41.10 LIG 0.17  HD
ATOM     13 HE   ARG B   3     -24.662  -5.760  13.684  0.80 40.38 LIG 0.18  HD
ENDBRANCH 4 5
ENDBRANCH 3 4
ENDBRANCH 2 3
ENDBRANCH 1 2
BRANCH 1 14
ATOM     14  C   ARG B   3     -22.259  -8.930  16.045  0.80 30.98 LIG 0.24  C 
ATOM     15 O    ARG B   3     -21.863  -7.768  16.016  0.80 30.41 LIG-0.27  OA
ATOM     16  N   GLU B   4     -21.525  -9.956  16.465  0.80 28.71 LIG-0.35  N 
ATOM     17 H    GLU B   4     -21.838 -10.748  16.589  0.80 28.71 LIG 0.16  HD
BRANCH 16 18
ATOM     18  CA  GLU B   4     -20.101  -9.825  16.755  0.80 27.21 LIG 0.18  C 
BRANCH 18 19
ATOM     19  C   GLU B   4     -19.389  -9.354  15.499  0.80 25.80 LIG 0.24  C 
ATOM     20 O    GLU B   4     -19.829  -9.631  14.368  0.80 26.39 LIG-0.27  OA
ATOM     21  N   VAL B   5     -18.300  -8.627  15.700  0.80 23.72 LIG-0.35  N 
ATOM     22 H    VAL B   5     -18.030  -8.381  16.479  0.80 23.72 LIG 0.16  HD
BRANCH 21 23
ATOM     23  CA  VAL B   5     -17.451  -8.175  14.611  0.80 22.93 LIG 0.18  C 
BRANCH 23 24
ATOM     24  CB  VAL B   5     -17.970  -6.882  13.971  0.80 23.26 LIG 0.01  C 
ATOM     25  CG2 VAL B   5     -16.801  -6.012  13.508  0.80 23.62 LIG 0.01  C 
ATOM     26  CG1 VAL B   5     -18.833  -6.123  14.952  0.80 24.46 LIG 0.01  C 
ENDBRANCH 23 24
BRANCH 23 27
ATOM     27  C   VAL B   5     -16.059  -7.948  15.192  0.80 21.40 LIG 0.24  C 
ATOM     28  N   PRO B   6     -15.098  -8.805  14.814  0.80 20.87 LIG-0.34  N 
ATOM     29  CD  PRO B   6     -15.186 -10.074  14.081  0.80 21.07 LIG 0.13  C 
ATOM     30  CA  PRO B   6     -13.742  -8.577  15.319  0.80 20.34 LIG 0.18  C 
ATOM     31  CG  PRO B   6     -13.916 -10.784  14.472  0.80 22.12 LIG 0.02  C 
ATOM     32  CB  PRO B   6     -12.936  -9.712  14.684  0.80 19.87 LIG 0.04  C 
ATOM     33 O    VAL B   5     -15.856  -7.009  15.971  0.80 20.67 LIG-0.27  OA
BRANCH 30 34
ATOM     34  C   PRO B   6     -13.203  -7.229  14.886  0.80 20.23 LIG 0.24  C 
ATOM     35 O    PRO B   6     -13.137  -6.952  13.671  0.80 20.62 LIG-0.27  OA
ATOM     36  N   CYS B   7     -12.848  -6.396  15.867  0.80 18.87 LIG-0.34  N 
ATOM     37 H    CYS B   7     -12.802  -6.624  16.695  0.80 18.87 LIG 0.16  HD
BRANCH 36 38
ATOM     38  CA  CYS B   7     -12.498  -4.989  15.606  0.80 19.21 LIG 0.19  C 
BRANCH 38 39
ATOM     39  C   CYS B   7     -11.002  -4.761  15.696  0.80 19.13 LIG 0.20  C 
ATOM     40 O    CYS B   7     -10.289  -4.784  14.678  0.80 18.45 LIG-0.65  OA
ATOM     41 OXT  CYS B   7     -10.481  -4.503  16.777  0.80 19.35 LIG-0.65  OA
ENDBRANCH 38 39
BRANCH 38 42
ATOM     42  CB  CYS B   7     -13.263  -4.052  16.537  0.80 19.02 LIG 0.11  C 
BRANCH 42 43
ATOM     43 SG   CYS B   7     -14.679  -3.294  15.701  0.80 21.06 LIG-0.18  SA
ATOM     44 HG   CYS B   7     -14.416  -2.158  15.417  0.80 21.06 LIG 0.10  HD
ENDBRANCH 42 43
ENDBRANCH 38 42
ENDBRANCH 36 38
ENDBRANCH 30 34
ENDBRANCH 23 27
ENDBRANCH 21 23
ENDBRANCH 18 19
BRANCH 18 45
ATOM     45  CB  GLU B   4     -19.492 -11.147  17.218  0.80 27.21 LIG 0.04  C 
BRANCH 45 46
ATOM     46  CG  GLU B   4     -17.986 -11.137  17.316  0.80 28.14 LIG 0.12  C 
BRANCH 46 47
ATOM     47  CD  GLU B   4     -17.363 -12.505  17.126  0.80 29.53 LIG 0.17  C 
ATOM     48 OE1  GLU B   4     -16.596 -12.719  16.158  0.80 28.59 LIG-0.65  OA
ATOM     49 OE2  GLU B   4     -17.649 -13.378  17.965  0.80 31.57 LIG-0.65  OA
ENDBRANCH 46 47
ENDBRANCH 45 46
ENDBRANCH 18 45
ENDBRANCH 16 18
ENDBRANCH 1 14
BRANCH 1 50
ATOM     50  N   ARG B   3     -24.556  -8.177  16.026  0.80 34.16 LIG-0.35  N 
ATOM     51  C   GLU B   2     -24.891  -8.005  17.301  0.80 36.27 LIG 0.24  C 
ATOM     52 O    GLU B   2     -24.555  -8.785  18.199  0.80 35.80 LIG-0.27  OA
ATOM     53 H    ARG B   3     -24.830  -7.675  15.384  0.80 34.16 LIG 0.16  HD
BRANCH 51 54
ATOM     54  CA  GLU B   2     -25.772  -6.796  17.605  0.80 37.72 LIG 0.18  C 
BRANCH 54 55
ATOM     55  N   GLU B   2     -27.095  -7.234  18.044  0.80 39.05 LIG-0.35  N 
ATOM     56  C   GLN B   1     -28.168  -7.039  17.282  0.80 40.84 LIG 0.24  C 
ATOM     57 O    GLN B   1     -28.112  -6.523  16.161  0.80 40.79 LIG-0.27  OA
ATOM     58 H    GLU B   2     -27.111  -7.616  18.815  0.80 39.05 LIG 0.16  HD
BRANCH 56 59
ATOM     59  CA  GLN B   1     -29.511  -7.486  17.858  0.80 42.15 LIG 0.18  C 
BRANCH 59 60
ATOM     60  CB  GLN B   1     -30.406  -6.286  18.180  0.80 42.68 LIG 0.04  C 
BRANCH 60 61
ATOM     61  CG  GLN B   1     -30.305  -5.837  19.644  0.80 43.94 LIG 0.10  C 
BRANCH 61 62
ATOM     62  CD  GLN B   1     -29.257  -4.764  19.869  0.80 46.27 LIG 0.21  C 
ATOM     63 OE1  GLN B   1     -28.980  -3.956  18.980  0.80 48.62 LIG-0.27  OA
ATOM     64  NE2 GLN B   1     -28.674  -4.741  21.067  0.80 47.40 LIG-0.37  N 
ATOM     65 22HE GLN B   1     -28.078  -4.147  21.244  0.80 47.40 LIG 0.16  HD
ATOM     66 21HE GLN B   1     -28.894  -5.321  21.663  0.80 47.40 LIG 0.16  HD
ENDBRANCH 61 62
ENDBRANCH 60 61
ENDBRANCH 59 60
BRANCH 59 67
ATOM     67  N   GLN B   1     -29.271  -8.270  19.067  0.80 42.89 LIG-0.35  N 
ATOM     68  C   ACE B   0     -29.064  -9.587  19.037  0.80 43.46 LIG 0.21  C 
ATOM     69  CH3 ACE B   0     -28.666 -10.188  20.356  0.80 43.70 LIG 0.12  C 
ATOM     70 O    ACE B   0     -28.912 -10.200  17.978  0.80 44.01 LIG-0.27  OA
ATOM     71 H    GLN B   1     -29.277  -7.807  19.791  0.80 42.89 LIG 0.16  HD
ENDBRANCH 59 67
ENDBRANCH 56 59
ENDBRANCH 54 55
BRANCH 54 72
ATOM     72  CB  GLU B   2     -25.104  -5.861  18.629  0.80 37.98 LIG 0.04  C 
BRANCH 72 73
ATOM     73  CG  GLU B   2     -25.934  -5.505  19.859  0.80 38.47 LIG 0.12  C 
BRANCH 73 74
ATOM     74  CD  GLU B   2     -25.553  -4.151  20.447  0.80 38.45 LIG 0.17  C 
ATOM     75 OE1  GLU B   2     -26.323  -3.625  21.275  0.80 41.05 LIG-0.65  OA
ATOM     76 OE2  GLU B   2     -24.482  -3.625  20.094  0.80 38.47 LIG-0.65  OA
ENDBRANCH 73 74
ENDBRANCH 72 73
ENDBRANCH 54 72
ENDBRANCH 51 54
ENDBRANCH 1 50
TORSDOF 29
ENDMDL
MODEL 9
USER: ADFR SOLUTION from run 90
USER: SCORE 20.344570 LL:  -5.972 LR: -17.907 RR:   0.000 FEB:  -9.256
USER: RMSD 2.796374
USER: SEED 89
USER: STATUS no improvement in best in 6 clusters for 5 generations
USER: GENES 31
USER: genes 0 Translation |==|  0.42689 0.43561 0.52689
USER: genes 1 Rotation |==|  0.40044 0.54195 0.46041 0.98658
USER: genes 2 Torsion [C]-CA--CB-[CG] |==|  0.85569
USER: genes 3 Torsion [CA]-CB--CG-[CD] |==|  0.73231
USER: genes 4 Torsion [CB]-CG--CD-[NE] |==|  0.32225
USER: genes 5 Torsion [CG]-CD--NE-[CZ] |==|  0.31727
USER: genes 6 Torsion [N]-CA--C-[N] |==|  0.41939
USER: genes 7 Torsion [C]-N--CA-[CB] |==|  0.50115
USER: genes 8 Torsion [N]-CA--C-[N] |==|  0.39697
USER: genes 9 Torsion [C]-N--CA-[CB] |==|  0.24255
USER: genes 10 Torsion [N]-CA--CB-[CG2] |==|  0.37654
USER: genes 11 Torsion [N]-CA--C-[N] |==|  0.34286
USER: genes 12 Torsion [N]-CA--C-[O] |==|  0.85624
USER: genes 13 Torsion [C]-N--CA-[C] |==|  0.68017
USER: genes 14 Torsion [N]-CA--C-[O] |==|  0.24678
USER: genes 15 Torsion [N]-CA--CB-[SG] |==|  0.69487
USER: genes 16 Torsion [CA]-CB--SG-[HG] |==|  0.73404
USER: genes 17 Torsion [N]-CA--CB-[CG] |==|  0.44828
USER: genes 18 Torsion [CA]-CB--CG-[CD] |==|  0.62662
USER: genes 19 Torsion [CB]-CG--CD-[OE2] |==|  0.85455
USER: genes 20 Torsion [CB]-CA--N-[C] |==|  0.28842
USER: genes 21 Torsion [N]-C--CA-[N] |==|  0.32283
USER: genes 22 Torsion [C]-CA--N-[C] |==|  0.87449
USER: genes 23 Torsion [N]-C--CA-[N] |==|  0.02283
USER: genes 24 Torsion [C]-CA--CB-[CG] |==|  0.92579
USER: genes 25 Torsion [CA]-CB--CG-[CD] |==|  0.36491
USER: genes 26 Torsion [CB]-CG--CD-[OE1] |==|  0.42691
USER: genes 27 Torsion [C]-CA--N-[C] |==|  0.77222
USER: genes 28 Torsion [C]-CA--CB-[CG] |==|  0.28271
USER: genes 29 Torsion [CA]-CB--CG-[CD] |==|  0.28444
USER: genes 30 Torsion [CB]-CG--CD-[OE1] |==|  0.08282
ROOT
ATOM      1  CA  ARG B   3     -23.399  -9.295  16.560  0.80 33.15 LIG 0.18  C 
ENDROOT
BRANCH 1 2
ATOM      2  CB  ARG B   3     -23.623  -9.892  15.159  0.80 33.78 LIG 0.04  C 
BRANCH 2 3
ATOM      3  CG  ARG B   3     -23.015  -9.131  13.979  0.80 35.93 LIG 0.02  C 
BRANCH 3 4
ATOM      4  CD  ARG B   3     -24.006  -8.210  13.301  0.80 39.27 LIG 0.14  C 
BRANCH 4 5
ATOM      5  NE  ARG B   3     -23.625  -6.801  13.417  0.80 40.38 LIG-0.23  N 
ATOM      6  CZ  ARG B   3     -23.278  -6.029  12.388  0.80 40.37 LIG 0.67  C 
ATOM      7  NH1 ARG B   3     -23.262  -6.526  11.161  0.80 40.12 LIG-0.23  N 
ATOM      8  NH2 ARG B   3     -22.956  -4.754  12.585  0.80 41.10 LIG-0.23  N 
ATOM      9 2HH1 ARG B   3     -23.038  -6.027  10.498  0.80 40.12 LIG 0.17  HD
ATOM     10 1HH1 ARG B   3     -23.476  -7.348  11.027  0.80 40.12 LIG 0.17  HD
ATOM     11 2HH2 ARG B   3     -22.733  -4.259  11.919  0.80 41.10 LIG 0.17  HD
ATOM     12 1HH2 ARG B   3     -22.972  -4.425  13.380  0.80 41.10 LIG 0.17  HD
ATOM     13 HE   ARG B   3     -23.626  -6.448  14.201  0.80 40.38 LIG 0.18  HD
ENDBRANCH 4 5
ENDBRANCH 3 4
ENDBRANCH 2 3
ENDBRANCH 1 2
BRANCH 1 14
ATOM     14  C   ARG B   3     -21.927  -9.014  16.812  0.80 30.98 LIG 0.24  C 
ATOM     15 O    ARG B   3     -21.470  -7.894  16.600  0.80 30.41 LIG-0.27  OA
ATOM     16  N   GLU B   4     -21.213 -10.032  17.282  0.80 28.71 LIG-0.35  N 
ATOM     17 H    GLU B   4     -21.556 -10.780  17.533  0.80 28.71 LIG 0.16  HD
BRANCH 16 18
ATOM     18  CA  GLU B   4     -19.761  -9.966  17.416  0.80 27.21 LIG 0.18  C 
BRANCH 18 19
ATOM     19  C   GLU B   4     -19.159  -9.688  16.050  0.80 25.80 LIG 0.24  C 
ATOM     20 O    GLU B   4     -19.653 -10.176  15.017  0.80 26.39 LIG-0.27  OA
ATOM     21  N   VAL B   5     -18.102  -8.888  16.046  0.80 23.72 LIG-0.35  N 
ATOM     22 H    VAL B   5     -17.799  -8.499  16.750  0.80 23.72 LIG 0.16  HD
BRANCH 21 23
ATOM     23  CA  VAL B   5     -17.352  -8.592  14.837  0.80 22.93 LIG 0.18  C 
BRANCH 23 24
ATOM     24  CB  VAL B   5     -17.937  -7.401  14.068  0.80 23.26 LIG 0.01  C 
ATOM     25  CG2 VAL B   5     -16.820  -6.464  13.610  0.80 23.62 LIG 0.01  C 
ATOM     26  CG1 VAL B   5     -18.926  -6.656  14.933  0.80 24.46 LIG 0.01  C 
ENDBRANCH 23 24
BRANCH 23 27
ATOM     27  C   VAL B   5     -15.920  -8.286  15.263  0.80 21.40 LIG 0.24  C 
ATOM     28  N   PRO B   6     -14.951  -9.031  14.710  0.80 20.87 LIG-0.34  N 
ATOM     29  CD  PRO B   6     -15.033 -10.254  13.900  0.80 21.07 LIG 0.13  C 
ATOM     30  CA  PRO B   6     -13.564  -8.723  15.065  0.80 20.34 LIG 0.18  C 
ATOM     31  CG  PRO B   6     -13.673 -10.877  14.083  0.80 22.12 LIG 0.02  C 
ATOM     32  CB  PRO B   6     -12.759  -9.741  14.255  0.80 19.87 LIG 0.04  C 
ATOM     33 O    VAL B   5     -15.693  -7.385  16.079  0.80 20.67 LIG-0.27  OA
BRANCH 30 34
ATOM     34  C   PRO B   6     -13.187  -7.308  14.673  0.80 20.23 LIG 0.24  C 
ATOM     35 O    PRO B   6     -13.395  -6.916  13.506  0.80 20.62 LIG-0.27  OA
ATOM     36  N   CYS B   7     -12.667  -6.549  15.639  0.80 18.87 LIG-0.34  N 
ATOM     37 H    CYS B   7     -12.435  -6.850  16.410  0.80 18.87 LIG 0.16  HD
BRANCH 36 38
ATOM     38  CA  CYS B   7     -12.441  -5.104  15.459  0.80 19.21 LIG 0.19  C 
BRANCH 38 39
ATOM     39  C   CYS B   7     -10.966  -4.761  15.503  0.80 19.13 LIG 0.20  C 
ATOM     40 O    CYS B   7     -10.273  -4.778  14.471  0.80 18.45 LIG-0.65  OA
ATOM     41 OXT  CYS B   7     -10.444  -4.414  16.559  0.80 19.35 LIG-0.65  OA
ENDBRANCH 38 39
BRANCH 38 42
ATOM     42  CB  CYS B   7     -13.235  -4.294  16.481  0.80 19.02 LIG 0.11  C 
BRANCH 42 43
ATOM     43 SG   CYS B   7     -14.596  -3.391  15.701  0.80 21.06 LIG-0.18  SA
ATOM     44 HG   CYS B   7     -14.246  -2.268  15.460  0.80 21.06 LIG 0.10  HD
ENDBRANCH 42 43
ENDBRANCH 38 42
ENDBRANCH 36 38
ENDBRANCH 30 34
ENDBRANCH 23 27
ENDBRANCH 21 23
ENDBRANCH 18 19
BRANCH 18 45
ATOM     45  CB  GLU B   4     -19.182 -11.267  17.970  0.80 27.21 LIG 0.04  C 
BRANCH 45 46
ATOM     46  CG  GLU B   4     -17.704 -11.443  17.726  0.80 28.14 LIG 0.12  C 
BRANCH 46 47
ATOM     47  CD  GLU B   4     -17.338 -12.826  17.226  0.80 29.53 LIG 0.17  C 
ATOM     48 OE1  GLU B   4     -16.650 -12.959  16.187  0.80 28.59 LIG-0.65  OA
ATOM     49 OE2  GLU B   4     -17.750 -13.795  17.891  0.80 31.57 LIG-0.65  OA
ENDBRANCH 46 47
ENDBRANCH 45 46
ENDBRANCH 18 45
ENDBRANCH 16 18
ENDBRANCH 1 14
BRANCH 1 50
ATOM     50  N   ARG B   3     -24.145  -8.057  16.731  0.80 34.16 LIG-0.35  N 
ATOM     51  C   GLU B   2     -25.266  -8.015  17.446  0.80 36.27 LIG 0.24  C 
ATOM     52 O    GLU B   2     -25.790  -9.019  17.939  0.80 35.80 LIG-0.27  OA
ATOM     53 H    ARG B   3     -23.801  -7.375  16.335  0.80 34.16 LIG 0.16  HD
BRANCH 51 54
ATOM     54  CA  GLU B   2     -25.916  -6.641  17.593  0.80 37.72 LIG 0.18  C 
BRANCH 54 55
ATOM     55  N   GLU B   2     -27.231  -6.636  16.955  0.80 39.05 LIG-0.35  N 
ATOM     56  C   GLN B   1     -27.409  -7.169  15.749  0.80 40.84 LIG 0.24  C 
ATOM     57 O    GLN B   1     -26.504  -7.726  15.120  0.80 40.79 LIG-0.27  OA
ATOM     58 H    GLU B   2     -27.855  -6.269  17.420  0.80 39.05 LIG 0.16  HD
BRANCH 56 59
ATOM     59  CA  GLN B   1     -28.811  -7.062  15.151  0.80 42.15 LIG 0.18  C 
BRANCH 59 60
ATOM     60  CB  GLN B   1     -28.767  -6.508  13.724  0.80 42.68 LIG 0.04  C 
BRANCH 60 61
ATOM     61  CG  GLN B   1     -27.545  -5.616  13.464  0.80 43.94 LIG 0.10  C 
BRANCH 61 62
ATOM     62  CD  GLN B   1     -26.807  -5.971  12.188  0.80 46.27 LIG 0.21  C 
ATOM     63 OE1  GLN B   1     -26.145  -5.124  11.585  0.80 48.62 LIG-0.27  OA
ATOM     64  NE2 GLN B   1     -26.907  -7.233  11.772  0.80 47.40 LIG-0.37  N 
ATOM     65 22HE GLN B   1     -26.500  -7.484  11.057  0.80 47.40 LIG 0.16  HD
ATOM     66 21HE GLN B   1     -27.378  -7.797  12.220  0.80 47.40 LIG 0.16  HD
ENDBRANCH 61 62
ENDBRANCH 60 61
ENDBRANCH 59 60
BRANCH 59 67
ATOM     67  N   GLN B   1     -29.625  -6.197  16.000  0.80 42.89 LIG-0.35  N 
ATOM     68  C   ACE B   0     -30.223  -6.636  17.107  0.80 43.46 LIG 0.21  C 
ATOM     69  CH3 ACE B   0     -30.871  -5.563  17.936  0.80 43.70 LIG 0.12  C 
ATOM     70 O    ACE B   0     -30.005  -7.760  17.564  0.80 44.01 LIG-0.27  OA
ATOM     71 H    GLN B   1     -29.681  -5.385  15.720  0.80 42.89 LIG 0.16  HD
ENDBRANCH 59 67
ENDBRANCH 56 59
ENDBRANCH 54 55
BRANCH 54 72
ATOM     72  CB  GLU B   2     -25.988  -6.212  19.068  0.80 37.98 LIG 0.04  C 
BRANCH 72 73
ATOM     73  CG  GLU B   2     -24.939  -5.203  19.529  0.80 38.47 LIG 0.12  C 
BRANCH 73 74
ATOM     74  CD  GLU B   2     -25.500  -3.790  19.641  0.80 38.45 LIG 0.17  C 
ATOM     75 OE1  GLU B   2     -26.708  -3.649  19.923  0.80 41.05 LIG-0.65  OA
ATOM     76 OE2  GLU B   2     -24.734  -2.825  19.465  0.80 38.47 LIG-0.65  OA
ENDBRANCH 73 74
ENDBRANCH 72 73
ENDBRANCH 54 72
ENDBRANCH 51 54
ENDBRANCH 1 50
TORSDOF 29
ENDMDL
MODEL 10
USER: ADFR SOLUTION from run 29
USER: SCORE 19.772646 LL:  -6.162 LR: -17.702 RR:   0.000 FEB:  -9.051
USER: RMSD 5.085108
USER: SEED 28
USER: STATUS no improvement in best in 8 clusters for 5 generations
USER: GENES 31
USER: genes 0 Translation |==|  0.42113 0.43356 0.45424
USER: genes 1 Rotation |==|  0.46992 0.49387 0.50152 0.99905
USER: genes 2 Torsion [C]-CA--CB-[CG] |==|  0.86082
USER: genes 3 Torsion [CA]-CB--CG-[CD] |==|  0.39573
USER: genes 4 Torsion [CB]-CG--CD-[NE] |==|  0.87471
USER: genes 5 Torsion [CG]-CD--NE-[CZ] |==|  0.37025
USER: genes 6 Torsion [N]-CA--C-[N] |==|  0.42727
USER: genes 7 Torsion [C]-N--CA-[CB] |==|  0.46424
USER: genes 8 Torsion [N]-CA--C-[N] |==|  0.43636
USER: genes 9 Torsion [C]-N--CA-[CB] |==|  0.25785
USER: genes 10 Torsion [N]-CA--CB-[CG2] |==|  0.94587
USER: genes 11 Torsion [N]-CA--C-[N] |==|  0.27985
USER: genes 12 Torsion [N]-CA--C-[O] |==|  0.86114
USER: genes 13 Torsion [C]-N--CA-[C] |==|  0.71970
USER: genes 14 Torsion [N]-CA--C-[O] |==|  0.11209
USER: genes 15 Torsion [N]-CA--CB-[SG] |==|  0.81965
USER: genes 16 Torsion [CA]-CB--SG-[HG] |==|  0.10753
USER: genes 17 Torsion [N]-CA--CB-[CG] |==|  0.71545
USER: genes 18 Torsion [CA]-CB--CG-[CD] |==|  0.48617
USER: genes 19 Torsion [CB]-CG--CD-[OE2] |==|  0.59964
USER: genes 20 Torsion [CB]-CA--N-[C] |==|  0.21905
USER: genes 21 Torsion [N]-C--CA-[N] |==|  0.88401
USER: genes 22 Torsion [C]-CA--N-[C] |==|  0.81246
USER: genes 23 Torsion [N]-C--CA-[N] |==|  0.02930
USER: genes 24 Torsion [C]-CA--CB-[CG] |==|  0.39026
USER: genes 25 Torsion [CA]-CB--CG-[CD] |==|  0.35855
USER: genes 26 Torsion [CB]-CG--CD-[OE1] |==|  0.31459
USER: genes 27 Torsion [C]-CA--N-[C] |==|  0.53333
USER: genes 28 Torsion [C]-CA--CB-[CG] |==|  0.99307
USER: genes 29 Torsion [CA]-CB--CG-[CD] |==|  0.55231
USER: genes 30 Torsion [CB]-CG--CD-[OE1] |==|  0.33375
ROOT
ATOM      1  CA  ARG B   3     -23.580  -9.332  15.252  0.80 33.15 LIG 0.18  C 
ENDROOT
BRANCH 1 2
ATOM      2  CB  ARG B   3     -23.463  -9.524  13.730  0.80 33.78 LIG 0.04  C 
BRANCH 2 3
ATOM      3  CG  ARG B   3     -22.809  -8.388  12.939  0.80 35.93 LIG 0.02  C 
BRANCH 3 4
ATOM      4  CD  ARG B   3     -21.943  -8.885  11.804  0.80 39.27 LIG 0.14  C 
BRANCH 4 5
ATOM      5  NE  ARG B   3     -21.079  -9.996  12.207  0.80 40.38 LIG-0.23  N 
ATOM      6  CZ  ARG B   3     -20.923 -11.120  11.508  0.80 40.37 LIG 0.67  C 
ATOM      7  NH1 ARG B   3     -21.571 -11.286  10.366  0.80 40.12 LIG-0.23  N 
ATOM      8  NH2 ARG B   3     -20.108 -12.074  11.947  0.80 41.10 LIG-0.23  N 
ATOM      9 2HH1 ARG B   3     -21.469 -12.011   9.915  0.80 40.12 LIG 0.17  HD
ATOM     10 1HH1 ARG B   3     -22.094 -10.668  10.074  0.80 40.12 LIG 0.17  HD
ATOM     11 2HH2 ARG B   3     -20.010 -12.797  11.493  0.80 41.10 LIG 0.17  HD
ATOM     12 1HH2 ARG B   3     -19.680 -11.968  12.685  0.80 41.10 LIG 0.17  HD
ATOM     13 HE   ARG B   3     -20.643  -9.919  12.944  0.80 40.38 LIG 0.18  HD
ENDBRANCH 4 5
ENDBRANCH 3 4
ENDBRANCH 2 3
ENDBRANCH 1 2
BRANCH 1 14
ATOM     14  C   ARG B   3     -22.251  -8.918  15.860  0.80 30.98 LIG 0.24  C 
ATOM     15 O    ARG B   3     -22.022  -7.733  16.090  0.80 30.41 LIG-0.27  OA
ATOM     16  N   GLU B   4     -21.403  -9.906  16.133  0.80 28.71 LIG-0.35  N 
ATOM     17 H    GLU B   4     -21.607 -10.739  16.074  0.80 28.71 LIG 0.16  HD
BRANCH 16 18
ATOM     18  CA  GLU B   4     -20.031  -9.655  16.562  0.80 27.21 LIG 0.18  C 
BRANCH 18 19
ATOM     19  C   GLU B   4     -19.235  -9.143  15.374  0.80 25.80 LIG 0.24  C 
ATOM     20 O    GLU B   4     -19.605  -9.367  14.207  0.80 26.39 LIG-0.27  OA
ATOM     21  N   VAL B   5     -18.153  -8.439  15.674  0.80 23.72 LIG-0.35  N 
ATOM     22 H    VAL B   5     -17.931  -8.229  16.478  0.80 23.72 LIG 0.16  HD
BRANCH 21 23
ATOM     23  CA  VAL B   5     -17.232  -7.954  14.661  0.80 22.93 LIG 0.18  C 
BRANCH 23 24
ATOM     24  CB  VAL B   5     -17.574  -6.532  14.199  0.80 23.26 LIG 0.01  C 
ATOM     25  CG2 VAL B   5     -19.023  -6.194  14.549  0.80 23.62 LIG 0.01  C 
ATOM     26  CG1 VAL B   5     -17.348  -6.398  12.711  0.80 24.46 LIG 0.01  C 
ENDBRANCH 23 24
BRANCH 23 27
ATOM     27  C   VAL B   5     -15.836  -7.981  15.275  0.80 21.40 LIG 0.24  C 
ATOM     28  N   PRO B   6     -15.046  -9.012  14.939  0.80 20.87 LIG-0.34  N 
ATOM     29  CD  PRO B   6     -15.356 -10.258  14.226  0.80 21.07 LIG 0.13  C 
ATOM     30  CA  PRO B   6     -13.684  -9.033  15.475  0.80 20.34 LIG 0.18  C 
ATOM     31  CG  PRO B   6     -14.253 -11.185  14.664  0.80 22.12 LIG 0.02  C 
ATOM     32  CB  PRO B   6     -13.092 -10.314  14.883  0.80 19.87 LIG 0.04  C 
ATOM     33 O    VAL B   5     -15.476  -7.080  16.042  0.80 20.67 LIG-0.27  OA
BRANCH 30 34
ATOM     34  C   PRO B   6     -12.889  -7.821  15.034  0.80 20.23 LIG 0.24  C 
ATOM     35 O    PRO B   6     -12.860  -7.509  13.826  0.80 20.62 LIG-0.27  OA
ATOM     36  N   CYS B   7     -12.277  -7.135  16.001  0.80 18.87 LIG-0.34  N 
ATOM     37 H    CYS B   7     -12.218  -7.406  16.815  0.80 18.87 LIG 0.16  HD
BRANCH 36 38
ATOM     38  CA  CYS B   7     -11.639  -5.831  15.749  0.80 19.21 LIG 0.19  C 
BRANCH 38 39
ATOM     39  C   CYS B   7     -10.135  -5.964  15.611  0.80 19.13 LIG 0.20  C 
ATOM     40 O    CYS B   7      -9.630  -6.918  14.994  0.80 18.45 LIG-0.65  OA
ATOM     41 OXT  CYS B   7      -9.394  -5.100  16.071  0.80 19.35 LIG-0.65  OA
ENDBRANCH 38 39
BRANCH 38 42
ATOM     42  CB  CYS B   7     -12.014  -4.819  16.829  0.80 19.02 LIG 0.11  C 
BRANCH 42 43
ATOM     43 SG   CYS B   7     -13.784  -4.441  16.800  0.80 21.06 LIG-0.18  SA
ATOM     44 HG   CYS B   7     -14.404  -5.442  16.571  0.80 21.06 LIG 0.10  HD
ENDBRANCH 42 43
ENDBRANCH 38 42
ENDBRANCH 36 38
ENDBRANCH 30 34
ENDBRANCH 23 27
ENDBRANCH 21 23
ENDBRANCH 18 19
BRANCH 18 45
ATOM     45  CB  GLU B   4     -19.368 -10.918  17.110  0.80 27.21 LIG 0.04  C 
BRANCH 45 46
ATOM     46  CG  GLU B   4     -19.290 -10.976  18.615  0.80 28.14 LIG 0.12  C 
BRANCH 46 47
ATOM     47  CD  GLU B   4     -18.739 -12.287  19.138  0.80 29.53 LIG 0.17  C 
ATOM     48 OE1  GLU B   4     -17.833 -12.884  18.512  0.80 28.59 LIG-0.65  OA
ATOM     49 OE2  GLU B   4     -19.227 -12.721  20.198  0.80 31.57 LIG-0.65  OA
ENDBRANCH 46 47
ENDBRANCH 45 46
ENDBRANCH 18 45
ENDBRANCH 16 18
ENDBRANCH 1 14
BRANCH 1 50
ATOM     50  N   ARG B   3     -24.577  -8.324  15.582  0.80 34.16 LIG-0.35  N 
ATOM     51  C   GLU B   2     -25.878  -8.602  15.565  0.80 36.27 LIG 0.24  C 
ATOM     52 O    GLU B   2     -26.330  -9.690  15.194  0.80 35.80 LIG-0.27  OA
ATOM     53 H    ARG B   3     -24.252  -7.553  15.783  0.80 34.16 LIG 0.16  HD
BRANCH 51 54
ATOM     54  CA  GLU B   2     -26.810  -7.470  15.988  0.80 37.72 LIG 0.18  C 
BRANCH 54 55
ATOM     55  N   GLU B   2     -26.261  -6.771  17.148  0.80 39.05 LIG-0.35  N 
ATOM     56  C   GLN B   1     -26.171  -7.374  18.331  0.80 40.84 LIG 0.24  C 
ATOM     57 O    GLN B   1     -26.502  -8.550  18.512  0.80 40.79 LIG-0.27  OA
ATOM     58 H    GLU B   2     -26.010  -5.962  16.996  0.80 39.05 LIG 0.16  HD
BRANCH 56 59
ATOM     59  CA  GLN B   1     -25.632  -6.537  19.489  0.80 42.15 LIG 0.18  C 
BRANCH 59 60
ATOM     60  CB  GLN B   1     -26.518  -6.670  20.732  0.80 42.68 LIG 0.04  C 
BRANCH 60 61
ATOM     61  CG  GLN B   1     -25.714  -6.743  22.037  0.80 43.94 LIG 0.10  C 
BRANCH 61 62
ATOM     62  CD  GLN B   1     -26.189  -5.759  23.089  0.80 46.27 LIG 0.21  C 
ATOM     63 OE1  GLN B   1     -26.712  -6.154  24.132  0.80 48.62 LIG-0.27  OA
ATOM     64  NE2 GLN B   1     -26.002  -4.467  22.824  0.80 47.40 LIG-0.37  N 
ATOM     65 22HE GLN B   1     -26.250  -3.871  23.393  0.80 47.40 LIG 0.16  HD
ATOM     66 21HE GLN B   1     -25.634  -4.229  22.084  0.80 47.40 LIG 0.16  HD
ENDBRANCH 61 62
ENDBRANCH 60 61
ENDBRANCH 59 60
BRANCH 59 67
ATOM     67  N   GLN B   1     -25.561  -5.139  19.073  0.80 42.89 LIG-0.35  N 
ATOM     68  C   ACE B   0     -24.916  -4.212  19.781  0.80 43.46 LIG 0.21  C 
ATOM     69  CH3 ACE B   0     -24.806  -2.873  19.108  0.80 43.70 LIG 0.12  C 
ATOM     70 O    ACE B   0     -24.213  -4.505  20.752  0.80 44.01 LIG-0.27  OA
ATOM     71 H    GLN B   1     -25.970  -4.973  18.335  0.80 42.89 LIG 0.16  HD
ENDBRANCH 59 67
ENDBRANCH 56 59
ENDBRANCH 54 55
BRANCH 54 72
ATOM     72  CB  GLU B   2     -27.093  -6.512  14.818  0.80 37.98 LIG 0.04  C 
BRANCH 72 73
ATOM     73  CG  GLU B   2     -26.372  -6.815  13.508  0.80 38.47 LIG 0.12  C 
BRANCH 73 74
ATOM     74  CD  GLU B   2     -26.333  -5.612  12.572  0.80 38.45 LIG 0.17  C 
ATOM     75 OE1  GLU B   2     -25.222  -5.165  12.223  0.80 41.05 LIG-0.65  OA
ATOM     76 OE2  GLU B   2     -27.408  -5.126  12.175  0.80 38.47 LIG-0.65  OA
ENDBRANCH 73 74
ENDBRANCH 72 73
ENDBRANCH 54 72
ENDBRANCH 51 54
ENDBRANCH 1 50
TORSDOF 29
ENDMDL
MODEL 11
USER: ADFR SOLUTION from run 118
USER: SCORE 20.969814 LL:  -6.549 LR: -17.660 RR:   0.000 FEB:  -9.009
USER: RMSD 3.124684
USER: SEED 117
USER: STATUS 1 or 2 clusters left
USER: GENES 31
USER: genes 0 Translation |==|  0.43083 0.46773 0.43199
USER: genes 1 Rotation |==|  0.60864 0.52644 0.51873 0.98698
USER: genes 2 Torsion [C]-CA--CB-[CG] |==|  0.11909
USER: genes 3 Torsion [CA]-CB--CG-[CD] |==|  0.18963
USER: genes 4 Torsion [CB]-CG--CD-[NE] |==|  0.74772
USER: genes 5 Torsion [CG]-CD--NE-[CZ] |==|  0.38837
USER: genes 6 Torsion [N]-CA--C-[N] |==|  0.32515
USER: genes 7 Torsion [C]-N--CA-[CB] |==|  0.50054
USER: genes 8 Torsion [N]-CA--C-[N] |==|  0.40025
USER: genes 9 Torsion [C]-N--CA-[CB] |==|  0.26879
USER: genes 10 Torsion [N]-CA--CB-[CG2] |==|  0.04718
USER: genes 11 Torsion [N]-CA--C-[N] |==|  0.25864
USER: genes 12 Torsion [N]-CA--C-[O] |==|  0.84896
USER: genes 13 Torsion [C]-N--CA-[C] |==|  0.72536
USER: genes 14 Torsion [N]-CA--C-[O] |==|  0.10229
USER: genes 15 Torsion [N]-CA--CB-[SG] |==|  0.80207
USER: genes 16 Torsion [CA]-CB--SG-[HG] |==|  0.12763
USER: genes 17 Torsion [N]-CA--CB-[CG] |==|  0.54265
USER: genes 18 Torsion [CA]-CB--CG-[CD] |==|  0.52633
USER: genes 19 Torsion [CB]-CG--CD-[OE2] |==|  0.74586
USER: genes 20 Torsion [CB]-CA--N-[C] |==|  0.52681
USER: genes 21 Torsion [N]-C--CA-[N] |==|  0.03889
USER: genes 22 Torsion [C]-CA--N-[C] |==|  0.17250
USER: genes 23 Torsion [N]-C--CA-[N] |==|  0.84548
USER: genes 24 Torsion [C]-CA--CB-[CG] |==|  0.19295
USER: genes 25 Torsion [CA]-CB--CG-[CD] |==|  0.45369
USER: genes 26 Torsion [CB]-CG--CD-[OE1] |==|  0.03970
USER: genes 27 Torsion [C]-CA--N-[C] |==|  0.69538
USER: genes 28 Torsion [C]-CA--CB-[CG] |==|  0.95943
USER: genes 29 Torsion [CA]-CB--CG-[CD] |==|  0.32962
USER: genes 30 Torsion [CB]-CG--CD-[OE1] |==|  0.59641
ROOT
ATOM      1  CA  ARG B   3     -23.275  -8.717  14.852  0.80 33.15 LIG 0.18  C 
ENDROOT
BRANCH 1 2
ATOM      2  CB  ARG B   3     -23.379  -8.072  13.458  0.80 33.78 LIG 0.04  C 
BRANCH 2 3
ATOM      3  CG  ARG B   3     -22.207  -8.302  12.502  0.80 35.93 LIG 0.02  C 
BRANCH 3 4
ATOM      4  CD  ARG B   3     -22.095  -9.739  12.044  0.80 39.27 LIG 0.14  C 
BRANCH 4 5
ATOM      5  NE  ARG B   3     -21.232 -10.536  12.917  0.80 40.38 LIG-0.23  N 
ATOM      6  CZ  ARG B   3     -21.486 -11.792  13.284  0.80 40.37 LIG 0.67  C 
ATOM      7  NH1 ARG B   3     -22.580 -12.400  12.853  0.80 40.12 LIG-0.23  N 
ATOM      8  NH2 ARG B   3     -20.639 -12.443  14.074  0.80 41.10 LIG-0.23  N 
ATOM      9 2HH1 ARG B   3     -22.743 -13.210  13.090  0.80 40.12 LIG 0.17  HD
ATOM     10 1HH1 ARG B   3     -23.128 -11.984  12.336  0.80 40.12 LIG 0.17  HD
ATOM     11 2HH2 ARG B   3     -20.806 -13.253  14.309  0.80 41.10 LIG 0.17  HD
ATOM     12 1HH2 ARG B   3     -19.924 -12.055  14.351  0.80 41.10 LIG 0.17  HD
ATOM     13 HE   ARG B   3     -20.513 -10.169  13.214  0.80 40.38 LIG 0.18  HD
ENDBRANCH 4 5
ENDBRANCH 3 4
ENDBRANCH 2 3
ENDBRANCH 1 2
BRANCH 1 14
ATOM     14  C   ARG B   3     -21.882  -8.548  15.435  0.80 30.98 LIG 0.24  C 
ATOM     15 O    ARG B   3     -21.432  -7.423  15.638  0.80 30.41 LIG-0.27  OA
ATOM     16  N   GLU B   4     -21.229  -9.672  15.716  0.80 28.71 LIG-0.35  N 
ATOM     17 H    GLU B   4     -21.586 -10.453  15.677  0.80 28.71 LIG 0.16  HD
BRANCH 16 18
ATOM     18  CA  GLU B   4     -19.827  -9.674  16.123  0.80 27.21 LIG 0.18  C 
BRANCH 18 19
ATOM     19  C   GLU B   4     -19.000  -9.033  15.024  0.80 25.80 LIG 0.24  C 
ATOM     20 O    GLU B   4     -19.298  -9.181  13.824  0.80 26.39 LIG-0.27  OA
ATOM     21  N   VAL B   5     -17.972  -8.305  15.436  0.80 23.72 LIG-0.35  N 
ATOM     22 H    VAL B   5     -17.803  -8.148  16.264  0.80 23.72 LIG 0.16  HD
BRANCH 21 23
ATOM     23  CA  VAL B   5     -17.027  -7.698  14.514  0.80 22.93 LIG 0.18  C 
BRANCH 23 24
ATOM     24  CB  VAL B   5     -17.365  -6.231  14.220  0.80 23.26 LIG 0.01  C 
ATOM     25  CG2 VAL B   5     -18.330  -5.686  15.272  0.80 23.62 LIG 0.01  C 
ATOM     26  CG1 VAL B   5     -17.964  -6.100  12.839  0.80 24.46 LIG 0.01  C 
ENDBRANCH 23 24
BRANCH 23 27
ATOM     27  C   VAL B   5     -15.648  -7.796  15.158  0.80 21.40 LIG 0.24  C 
ATOM     28  N   PRO B   6     -14.904  -8.866  14.837  0.80 20.87 LIG-0.34  N 
ATOM     29  CD  PRO B   6     -15.262 -10.095  14.116  0.80 21.07 LIG 0.13  C 
ATOM     30  CA  PRO B   6     -13.557  -8.957  15.403  0.80 20.34 LIG 0.18  C 
ATOM     31  CG  PRO B   6     -14.218 -11.077  14.577  0.80 22.12 LIG 0.02  C 
ATOM     32  CB  PRO B   6     -13.020 -10.266  14.822  0.80 19.87 LIG 0.04  C 
ATOM     33 O    VAL B   5     -15.259  -6.915  15.934  0.80 20.67 LIG-0.27  OA
BRANCH 30 34
ATOM     34  C   PRO B   6     -12.692  -7.787  14.981  0.80 20.23 LIG 0.24  C 
ATOM     35 O    PRO B   6     -12.555  -7.528  13.768  0.80 20.62 LIG-0.27  OA
ATOM     36  N   CYS B   7     -12.139  -7.079  15.967  0.80 18.87 LIG-0.34  N 
ATOM     37 H    CYS B   7     -12.154  -7.317  16.793  0.80 18.87 LIG 0.16  HD
BRANCH 36 38
ATOM     38  CA  CYS B   7     -11.442  -5.805  15.716  0.80 19.21 LIG 0.19  C 
BRANCH 38 39
ATOM     39  C   CYS B   7      -9.939  -5.994  15.658  0.80 19.13 LIG 0.20  C 
ATOM     40 O    CYS B   7      -9.441  -7.012  15.148  0.80 18.45 LIG-0.65  OA
ATOM     41 OXT  CYS B   7      -9.190  -5.115  16.076  0.80 19.35 LIG-0.65  OA
ENDBRANCH 38 39
BRANCH 38 42
ATOM     42  CB  CYS B   7     -11.834  -4.753  16.751  0.80 19.02 LIG 0.11  C 
BRANCH 42 43
ATOM     43 SG   CYS B   7     -13.533  -4.179  16.505  0.80 21.06 LIG-0.18  SA
ATOM     44 HG   CYS B   7     -14.254  -5.123  16.330  0.80 21.06 LIG 0.10  HD
ENDBRANCH 42 43
ENDBRANCH 38 42
ENDBRANCH 36 38
ENDBRANCH 30 34
ENDBRANCH 23 27
ENDBRANCH 21 23
ENDBRANCH 18 19
BRANCH 18 45
ATOM     45  CB  GLU B   4     -19.315 -11.090  16.383  0.80 27.21 LIG 0.04  C 
BRANCH 45 46
ATOM     46  CG  GLU B   4     -18.014 -11.150  17.146  0.80 28.14 LIG 0.12  C 
BRANCH 46 47
ATOM     47  CD  GLU B   4     -17.410 -12.538  17.195  0.80 29.53 LIG 0.17  C 
ATOM     48 OE1  GLU B   4     -16.635 -12.921  16.287  0.80 28.59 LIG-0.65  OA
ATOM     49 OE2  GLU B   4     -17.720 -13.256  18.164  0.80 31.57 LIG-0.65  OA
ENDBRANCH 46 47
ENDBRANCH 45 46
ENDBRANCH 18 45
ENDBRANCH 16 18
ENDBRANCH 1 14
BRANCH 1 50
ATOM     50  N   ARG B   3     -24.239  -8.137  15.775  0.80 34.16 LIG-0.35  N 
ATOM     51  C   GLU B   2     -24.202  -8.406  17.077  0.80 36.27 LIG 0.24  C 
ATOM     52 O    GLU B   2     -23.413  -9.215  17.577  0.80 35.80 LIG-0.27  OA
ATOM     53 H    ARG B   3     -24.819  -7.620  15.407  0.80 34.16 LIG 0.16  HD
BRANCH 51 54
ATOM     54  CA  GLU B   2     -25.235  -7.686  17.940  0.80 37.72 LIG 0.18  C 
BRANCH 54 55
ATOM     55  N   GLU B   2     -26.271  -7.093  17.096  0.80 39.05 LIG-0.35  N 
ATOM     56  C   GLN B   1     -27.048  -7.855  16.331  0.80 40.84 LIG 0.24  C 
ATOM     57 O    GLN B   1     -26.974  -9.088  16.314  0.80 40.79 LIG-0.27  OA
ATOM     58 H    GLU B   2     -26.326  -6.236  17.141  0.80 39.05 LIG 0.16  HD
BRANCH 56 59
ATOM     59  CA  GLN B   1     -28.062  -7.131  15.446  0.80 42.15 LIG 0.18  C 
BRANCH 59 60
ATOM     60  CB  GLN B   1     -27.365  -6.292  14.371  0.80 42.68 LIG 0.04  C 
BRANCH 60 61
ATOM     61  CG  GLN B   1     -26.673  -7.145  13.299  0.80 43.94 LIG 0.10  C 
BRANCH 61 62
ATOM     62  CD  GLN B   1     -26.334  -6.367  12.043  0.80 46.27 LIG 0.21  C 
ATOM     63 OE1  GLN B   1     -26.365  -5.136  12.035  0.80 48.62 LIG-0.27  OA
ATOM     64  NE2 GLN B   1     -25.998  -7.084  10.971  0.80 47.40 LIG-0.37  N 
ATOM     65 22HE GLN B   1     -25.791  -6.687  10.236  0.80 47.40 LIG 0.16  HD
ATOM     66 21HE GLN B   1     -25.987  -7.943  11.014  0.80 47.40 LIG 0.16  HD
ENDBRANCH 61 62
ENDBRANCH 60 61
ENDBRANCH 59 60
BRANCH 59 67
ATOM     67  N   GLN B   1     -28.899  -6.277  16.284  0.80 42.89 LIG-0.35  N 
ATOM     68  C   ACE B   0     -30.184  -6.541  16.521  0.80 43.46 LIG 0.21  C 
ATOM     69  CH3 ACE B   0     -30.830  -5.647  17.541  0.80 43.70 LIG 0.12  C 
ATOM     70 O    ACE B   0     -30.706  -7.602  16.171  0.80 44.01 LIG-0.27  OA
ATOM     71 H    GLN B   1     -28.488  -5.594  16.607  0.80 42.89 LIG 0.16  HD
ENDBRANCH 59 67
ENDBRANCH 56 59
ENDBRANCH 54 55
BRANCH 54 72
ATOM     72  CB  GLU B   2     -25.826  -8.625  19.005  0.80 37.98 LIG 0.04  C 
BRANCH 72 73
ATOM     73  CG  GLU B   2     -25.570 -10.116  18.807  0.80 38.47 LIG 0.12  C 
BRANCH 73 74
ATOM     74  CD  GLU B   2     -24.775 -10.729  19.954  0.80 38.45 LIG 0.17  C 
ATOM     75 OE1  GLU B   2     -23.963 -11.640  19.696  0.80 41.05 LIG-0.65  OA
ATOM     76 OE2  GLU B   2     -24.950 -10.290  21.106  0.80 38.47 LIG-0.65  OA
ENDBRANCH 73 74
ENDBRANCH 72 73
ENDBRANCH 54 72
ENDBRANCH 51 54
ENDBRANCH 1 50
TORSDOF 29
ENDMDL
MODEL 12
USER: ADFR SOLUTION from run 159
USER: SCORE 21.010932 LL:  -6.316 LR: -17.641 RR:   0.000 FEB:  -8.990
USER: RMSD 3.596235
USER: SEED 158
USER: STATUS no improvement in best in 10 clusters for 5 generations
USER: GENES 31
USER: genes 0 Translation |==|  0.42589 0.45746 0.45230
USER: genes 1 Rotation |==|  0.59000 0.54095 0.51527 0.98989
USER: genes 2 Torsion [C]-CA--CB-[CG] |==|  0.53258
USER: genes 3 Torsion [CA]-CB--CG-[CD] |==|  0.83871
USER: genes 4 Torsion [CB]-CG--CD-[NE] |==|  0.21302
USER: genes 5 Torsion [CG]-CD--NE-[CZ] |==|  0.58391
USER: genes 6 Torsion [N]-CA--C-[N] |==|  0.30358
USER: genes 7 Torsion [C]-N--CA-[CB] |==|  0.51111
USER: genes 8 Torsion [N]-CA--C-[N] |==|  0.38597
USER: genes 9 Torsion [C]-N--CA-[CB] |==|  0.26042
USER: genes 10 Torsion [N]-CA--CB-[CG2] |==|  0.05788
USER: genes 11 Torsion [N]-CA--C-[N] |==|  0.30112
USER: genes 12 Torsion [N]-CA--C-[O] |==|  0.81092
USER: genes 13 Torsion [C]-N--CA-[C] |==|  0.73261
USER: genes 14 Torsion [N]-CA--C-[O] |==|  0.24652
USER: genes 15 Torsion [N]-CA--CB-[SG] |==|  0.73003
USER: genes 16 Torsion [CA]-CB--SG-[HG] |==|  0.69039
USER: genes 17 Torsion [N]-CA--CB-[CG] |==|  0.32724
USER: genes 18 Torsion [CA]-CB--CG-[CD] |==|  0.42664
USER: genes 19 Torsion [CB]-CG--CD-[OE2] |==|  0.50232
USER: genes 20 Torsion [CB]-CA--N-[C] |==|  0.51702
USER: genes 21 Torsion [N]-C--CA-[N] |==|  0.01400
USER: genes 22 Torsion [C]-CA--N-[C] |==|  0.18367
USER: genes 23 Torsion [N]-C--CA-[N] |==|  0.40828
USER: genes 24 Torsion [C]-CA--CB-[CG] |==|  0.01147
USER: genes 25 Torsion [CA]-CB--CG-[CD] |==|  0.28209
USER: genes 26 Torsion [CB]-CG--CD-[OE1] |==|  0.09321
USER: genes 27 Torsion [C]-CA--N-[C] |==|  0.62916
USER: genes 28 Torsion [C]-CA--CB-[CG] |==|  0.97989
USER: genes 29 Torsion [CA]-CB--CG-[CD] |==|  0.28936
USER: genes 30 Torsion [CB]-CG--CD-[OE1] |==|  0.59714
ROOT
ATOM      1  CA  ARG B   3     -23.430  -8.902  15.217  0.80 33.15 LIG 0.18  C 
ENDROOT
BRANCH 1 2
ATOM      2  CB  ARG B   3     -23.616  -8.368  13.786  0.80 33.78 LIG 0.04  C 
BRANCH 2 3
ATOM      3  CG  ARG B   3     -25.052  -8.264  13.269  0.80 35.93 LIG 0.02  C 
BRANCH 3 4
ATOM      4  CD  ARG B   3     -25.783  -9.588  13.292  0.80 39.27 LIG 0.14  C 
BRANCH 4 5
ATOM      5  NE  ARG B   3     -26.219  -9.960  14.638  0.80 40.38 LIG-0.23  N 
ATOM      6  CZ  ARG B   3     -26.344 -11.215  15.069  0.80 40.37 LIG 0.67  C 
ATOM      7  NH1 ARG B   3     -26.065 -12.225  14.260  0.80 40.12 LIG-0.23  N 
ATOM      8  NH2 ARG B   3     -26.739 -11.460  16.314  0.80 41.10 LIG-0.23  N 
ATOM      9 2HH1 ARG B   3     -26.145 -13.034  14.539  0.80 40.12 LIG 0.17  HD
ATOM     10 1HH1 ARG B   3     -25.802 -12.071  13.455  0.80 40.12 LIG 0.17  HD
ATOM     11 2HH2 ARG B   3     -26.818 -12.270  16.589  0.80 41.10 LIG 0.17  HD
ATOM     12 1HH2 ARG B   3     -26.915 -10.807  16.846  0.80 41.10 LIG 0.17  HD
ATOM     13 HE   ARG B   3     -26.408  -9.327  15.188  0.80 40.38 LIG 0.18  HD
ENDBRANCH 4 5
ENDBRANCH 3 4
ENDBRANCH 2 3
ENDBRANCH 1 2
BRANCH 1 14
ATOM     14  C   ARG B   3     -22.008  -8.687  15.706  0.80 30.98 LIG 0.24  C 
ATOM     15 O    ARG B   3     -21.504  -7.568  15.662  0.80 30.41 LIG-0.27  OA
ATOM     16  N   GLU B   4     -21.390  -9.762  16.188  0.80 28.71 LIG-0.35  N 
ATOM     17 H    GLU B   4     -21.780 -10.517  16.320  0.80 28.71 LIG 0.16  HD
BRANCH 16 18
ATOM     18  CA  GLU B   4     -19.974  -9.751  16.539  0.80 27.21 LIG 0.18  C 
BRANCH 18 19
ATOM     19  C   GLU B   4     -19.176  -9.293  15.331  0.80 25.80 LIG 0.24  C 
ATOM     20 O    GLU B   4     -19.471  -9.674  14.183  0.80 26.39 LIG-0.27  OA
ATOM     21  N   VAL B   5     -18.178  -8.461  15.589  0.80 23.72 LIG-0.35  N 
ATOM     22 H    VAL B   5     -18.012  -8.147  16.373  0.80 23.72 LIG 0.16  HD
BRANCH 21 23
ATOM     23  CA  VAL B   5     -17.260  -8.000  14.561  0.80 22.93 LIG 0.18  C 
BRANCH 23 24
ATOM     24  CB  VAL B   5     -17.699  -6.663  13.951  0.80 23.26 LIG 0.01  C 
ATOM     25  CG2 VAL B   5     -18.651  -5.933  14.897  0.80 23.62 LIG 0.01  C 
ATOM     26  CG1 VAL B   5     -18.363  -6.893  12.613  0.80 24.46 LIG 0.01  C 
ENDBRANCH 23 24
BRANCH 23 27
ATOM     27  C   VAL B   5     -15.892  -7.849  15.218  0.80 21.40 LIG 0.24  C 
ATOM     28  N   PRO B   6     -14.957  -8.752  14.884  0.80 20.87 LIG-0.34  N 
ATOM     29  CD  PRO B   6     -15.071 -10.011  14.136  0.80 21.07 LIG 0.13  C 
ATOM     30  CA  PRO B   6     -13.620  -8.599  15.462  0.80 20.34 LIG 0.18  C 
ATOM     31  CG  PRO B   6     -13.863 -10.788  14.588  0.80 22.12 LIG 0.02  C 
ATOM     32  CB  PRO B   6     -12.841  -9.770  14.861  0.80 19.87 LIG 0.04  C 
ATOM     33 O    VAL B   5     -15.682  -6.927  16.015  0.80 20.67 LIG-0.27  OA
BRANCH 30 34
ATOM     34  C   PRO B   6     -12.989  -7.278  15.071  0.80 20.23 LIG 0.24  C 
ATOM     35 O    PRO B   6     -12.662  -7.078  13.883  0.80 20.62 LIG-0.27  OA
ATOM     36  N   CYS B   7     -12.847  -6.382  16.050  0.80 18.87 LIG-0.34  N 
ATOM     37 H    CYS B   7     -12.982  -6.556  16.881  0.80 18.87 LIG 0.16  HD
BRANCH 36 38
ATOM     38  CA  CYS B   7     -12.438  -4.992  15.781  0.80 19.21 LIG 0.19  C 
BRANCH 38 39
ATOM     39  C   CYS B   7     -10.946  -4.804  15.972  0.80 19.13 LIG 0.20  C 
ATOM     40 O    CYS B   7     -10.152  -4.992  15.034  0.80 18.45 LIG-0.65  OA
ATOM     41 OXT  CYS B   7     -10.505  -4.415  17.050  0.80 19.35 LIG-0.65  OA
ENDBRANCH 38 39
BRANCH 38 42
ATOM     42  CB  CYS B   7     -13.238  -4.010  16.633  0.80 19.02 LIG 0.11  C 
BRANCH 42 43
ATOM     43 SG   CYS B   7     -14.633  -3.315  15.712  0.80 21.06 LIG-0.18  SA
ATOM     44 HG   CYS B   7     -14.437  -2.150  15.507  0.80 21.06 LIG 0.10  HD
ENDBRANCH 42 43
ENDBRANCH 38 42
ENDBRANCH 36 38
ENDBRANCH 30 34
ENDBRANCH 23 27
ENDBRANCH 21 23
ENDBRANCH 18 19
BRANCH 18 45
ATOM     45  CB  GLU B   4     -19.487 -11.132  16.975  0.80 27.21 LIG 0.04  C 
BRANCH 45 46
ATOM     46  CG  GLU B   4     -18.412 -11.719  16.093  0.80 28.14 LIG 0.12  C 
BRANCH 46 47
ATOM     47  CD  GLU B   4     -17.515 -12.705  16.814  0.80 29.53 LIG 0.17  C 
ATOM     48 OE1  GLU B   4     -17.716 -12.973  18.022  0.80 28.59 LIG-0.65  OA
ATOM     49 OE2  GLU B   4     -16.594 -13.219  16.153  0.80 31.57 LIG-0.65  OA
ENDBRANCH 46 47
ENDBRANCH 45 46
ENDBRANCH 18 45
ENDBRANCH 16 18
ENDBRANCH 1 14
BRANCH 1 50
ATOM     50  N   ARG B   3     -24.345  -8.252  16.146  0.80 34.16 LIG-0.35  N 
ATOM     51  C   GLU B   2     -24.276  -8.472  17.455  0.80 36.27 LIG 0.24  C 
ATOM     52 O    GLU B   2     -23.503  -9.291  17.963  0.80 35.80 LIG-0.27  OA
ATOM     53 H    ARG B   3     -24.917  -7.728  15.775  0.80 34.16 LIG 0.16  HD
BRANCH 51 54
ATOM     54  CA  GLU B   2     -25.256  -7.683  18.320  0.80 37.72 LIG 0.18  C 
BRANCH 54 55
ATOM     55  N   GLU B   2     -26.167  -6.913  17.474  0.80 39.05 LIG-0.35  N 
ATOM     56  C   GLN B   1     -27.047  -7.524  16.684  0.80 40.84 LIG 0.24  C 
ATOM     57 O    GLN B   1     -27.177  -8.751  16.645  0.80 40.79 LIG-0.27  OA
ATOM     58 H    GLU B   2     -26.081  -6.060  17.535  0.80 39.05 LIG 0.16  HD
BRANCH 56 59
ATOM     59  CA  GLN B   1     -27.914  -6.628  15.801  0.80 42.15 LIG 0.18  C 
BRANCH 59 60
ATOM     60  CB  GLN B   1     -29.226  -6.258  16.501  0.80 42.68 LIG 0.04  C 
BRANCH 60 61
ATOM     61  CG  GLN B   1     -29.307  -6.784  17.940  0.80 43.94 LIG 0.10  C 
BRANCH 61 62
ATOM     62  CD  GLN B   1     -29.024  -5.721  18.983  0.80 46.27 LIG 0.21  C 
ATOM     63 OE1  GLN B   1     -29.353  -4.549  18.795  0.80 48.62 LIG-0.27  OA
ATOM     64  NE2 GLN B   1     -28.417  -6.127  20.098  0.80 47.40 LIG-0.37  N 
ATOM     65 22HE GLN B   1     -28.242  -5.561  20.722  0.80 47.40 LIG 0.16  HD
ATOM     66 21HE GLN B   1     -28.203  -6.954  20.194  0.80 47.40 LIG 0.16  HD
ENDBRANCH 61 62
ENDBRANCH 60 61
ENDBRANCH 59 60
BRANCH 59 67
ATOM     67  N   GLN B   1     -28.194  -7.323  14.548  0.80 42.89 LIG-0.35  N 
ATOM     68  C   ACE B   0     -28.073  -6.733  13.358  0.80 43.46 LIG 0.21  C 
ATOM     69  CH3 ACE B   0     -28.236  -7.655  12.183  0.80 43.70 LIG 0.12  C 
ATOM     70 O    ACE B   0     -27.573  -5.612  13.234  0.80 44.01 LIG-0.27  OA
ATOM     71 H    GLN B   1     -28.441  -8.140  14.650  0.80 42.89 LIG 0.16  HD
ENDBRANCH 59 67
ENDBRANCH 56 59
ENDBRANCH 54 55
BRANCH 54 72
ATOM     72  CB  GLU B   2     -26.012  -8.604  19.293  0.80 37.98 LIG 0.04  C 
BRANCH 72 73
ATOM     73  CG  GLU B   2     -25.791 -10.103  19.111  0.80 38.47 LIG 0.12  C 
BRANCH 73 74
ATOM     74  CD  GLU B   2     -24.866 -10.688  20.172  0.80 38.45 LIG 0.17  C 
ATOM     75 OE1  GLU B   2     -24.094 -11.612  19.844  0.80 41.05 LIG-0.65  OA
ATOM     76 OE2  GLU B   2     -24.899 -10.216  21.323  0.80 38.47 LIG-0.65  OA
ENDBRANCH 73 74
ENDBRANCH 72 73
ENDBRANCH 54 72
ENDBRANCH 51 54
ENDBRANCH 1 50
TORSDOF 29
ENDMDL
MODEL 13
USER: ADFR SOLUTION from run 100
USER: SCORE 19.268439 LL:  -4.689 LR: -17.631 RR:   0.000 FEB:  -8.980
USER: RMSD 3.292780
USER: SEED 99
USER: STATUS no improvement in best in 15 clusters for 5 generations
USER: GENES 31
USER: genes 0 Translation |==|  0.41991 0.46319 0.46166
USER: genes 1 Rotation |==|  0.59150 0.55646 0.50856 0.98823
USER: genes 2 Torsion [C]-CA--CB-[CG] |==|  0.92906
USER: genes 3 Torsion [CA]-CB--CG-[CD] |==|  0.61629
USER: genes 4 Torsion [CB]-CG--CD-[NE] |==|  0.43967
USER: genes 5 Torsion [CG]-CD--NE-[CZ] |==|  0.24886
USER: genes 6 Torsion [N]-CA--C-[N] |==|  0.28817
USER: genes 7 Torsion [C]-N--CA-[CB] |==|  0.52778
USER: genes 8 Torsion [N]-CA--C-[N] |==|  0.41765
USER: genes 9 Torsion [C]-N--CA-[CB] |==|  0.21977
USER: genes 10 Torsion [N]-CA--CB-[CG2] |==|  0.45457
USER: genes 11 Torsion [N]-CA--C-[N] |==|  0.31231
USER: genes 12 Torsion [N]-CA--C-[O] |==|  0.87610
USER: genes 13 Torsion [C]-N--CA-[C] |==|  0.70647
USER: genes 14 Torsion [N]-CA--C-[O] |==|  0.26108
USER: genes 15 Torsion [N]-CA--CB-[SG] |==|  0.79183
USER: genes 16 Torsion [CA]-CB--SG-[HG] |==|  0.11107
USER: genes 17 Torsion [N]-CA--CB-[CG] |==|  0.79002
USER: genes 18 Torsion [CA]-CB--CG-[CD] |==|  0.59553
USER: genes 19 Torsion [CB]-CG--CD-[OE2] |==|  0.50603
USER: genes 20 Torsion [CB]-CA--N-[C] |==|  0.23802
USER: genes 21 Torsion [N]-C--CA-[N] |==|  0.39820
USER: genes 22 Torsion [C]-CA--N-[C] |==|  0.55007
USER: genes 23 Torsion [N]-C--CA-[N] |==|  0.31750
USER: genes 24 Torsion [C]-CA--CB-[CG] |==|  0.72679
USER: genes 25 Torsion [CA]-CB--CG-[CD] |==|  0.21542
USER: genes 26 Torsion [CB]-CG--CD-[OE1] |==|  0.13828
USER: genes 27 Torsion [C]-CA--N-[C] |==|  0.72033
USER: genes 28 Torsion [C]-CA--CB-[CG] |==|  0.93564
USER: genes 29 Torsion [CA]-CB--CG-[CD] |==|  0.39198
USER: genes 30 Torsion [CB]-CG--CD-[OE1] |==|  0.64952
ROOT
ATOM      1  CA  ARG B   3     -23.619  -8.799  15.386  0.80 33.15 LIG 0.18  C 
ENDROOT
BRANCH 1 2
ATOM      2  CB  ARG B   3     -23.891  -8.257  13.971  0.80 33.78 LIG 0.04  C 
BRANCH 2 3
ATOM      3  CG  ARG B   3     -22.962  -7.151  13.465  0.80 35.93 LIG 0.02  C 
BRANCH 3 4
ATOM      4  CD  ARG B   3     -23.699  -6.053  12.731  0.80 39.27 LIG 0.14  C 
BRANCH 4 5
ATOM      5  NE  ARG B   3     -22.943  -4.800  12.698  0.80 40.38 LIG-0.23  N 
ATOM      6  CZ  ARG B   3     -22.074  -4.470  11.744  0.80 40.37 LIG 0.67  C 
ATOM      7  NH1 ARG B   3     -21.848  -5.300  10.738  0.80 40.12 LIG-0.23  N 
ATOM      8  NH2 ARG B   3     -21.439  -3.304  11.790  0.80 41.10 LIG-0.23  N 
ATOM      9 2HH1 ARG B   3     -21.287  -5.086  10.122  0.80 40.12 LIG 0.17  HD
ATOM     10 1HH1 ARG B   3     -22.262  -6.053  10.700  0.80 40.12 LIG 0.17  HD
ATOM     11 2HH2 ARG B   3     -20.879  -3.094  11.173  0.80 41.10 LIG 0.17  HD
ATOM     12 1HH2 ARG B   3     -21.588  -2.758  12.438  0.80 41.10 LIG 0.17  HD
ATOM     13 HE   ARG B   3     -23.069  -4.239  13.338  0.80 40.38 LIG 0.18  HD
ENDBRANCH 4 5
ENDBRANCH 3 4
ENDBRANCH 2 3
ENDBRANCH 1 2
BRANCH 1 14
ATOM     14  C   ARG B   3     -22.164  -8.608  15.780  0.80 30.98 LIG 0.24  C 
ATOM     15 O    ARG B   3     -21.618  -7.521  15.609  0.80 30.41 LIG-0.27  OA
ATOM     16  N   GLU B   4     -21.565  -9.663  16.324  0.80 28.71 LIG-0.35  N 
ATOM     17 H    GLU B   4     -21.978 -10.385  16.543  0.80 28.71 LIG 0.16  HD
BRANCH 16 18
ATOM     18  CA  GLU B   4     -20.132  -9.687  16.599  0.80 27.21 LIG 0.18  C 
BRANCH 18 19
ATOM     19  C   GLU B   4     -19.390  -9.228  15.356  0.80 25.80 LIG 0.24  C 
ATOM     20 O    GLU B   4     -19.865  -9.408  14.220  0.80 26.39 LIG-0.27  OA
ATOM     21  N   VAL B   5     -18.233  -8.621  15.576  0.80 23.72 LIG-0.35  N 
ATOM     22 H    VAL B   5     -17.933  -8.439  16.361  0.80 23.72 LIG 0.16  HD
BRANCH 21 23
ATOM     23  CA  VAL B   5     -17.355  -8.202  14.496  0.80 22.93 LIG 0.18  C 
BRANCH 23 24
ATOM     24  CB  VAL B   5     -17.820  -6.895  13.844  0.80 23.26 LIG 0.01  C 
ATOM     25  CG2 VAL B   5     -16.691  -6.281  13.016  0.80 23.62 LIG 0.01  C 
ATOM     26  CG1 VAL B   5     -18.285  -5.920  14.901  0.80 24.46 LIG 0.01  C 
ENDBRANCH 23 24
BRANCH 23 27
ATOM     27  C   VAL B   5     -15.964  -8.019  15.096  0.80 21.40 LIG 0.24  C 
ATOM     28  N   PRO B   6     -15.017  -8.884  14.704  0.80 20.87 LIG-0.34  N 
ATOM     29  CD  PRO B   6     -15.123 -10.132  13.935  0.80 21.07 LIG 0.13  C 
ATOM     30  CA  PRO B   6     -13.662  -8.699  15.227  0.80 20.34 LIG 0.18  C 
ATOM     31  CG  PRO B   6     -13.872 -10.877  14.319  0.80 22.12 LIG 0.02  C 
ATOM     32  CB  PRO B   6     -12.872  -9.832  14.569  0.80 19.87 LIG 0.04  C 
ATOM     33 O    VAL B   5     -15.749  -7.106  15.902  0.80 20.67 LIG-0.27  OA
BRANCH 30 34
ATOM     34  C   PRO B   6     -13.091  -7.350  14.837  0.80 20.23 LIG 0.24  C 
ATOM     35 O    PRO B   6     -13.225  -6.939  13.666  0.80 20.62 LIG-0.27  OA
ATOM     36  N   CYS B   7     -12.488  -6.663  15.809  0.80 18.87 LIG-0.34  N 
ATOM     37 H    CYS B   7     -12.312  -6.989  16.586  0.80 18.87 LIG 0.16  HD
BRANCH 36 38
ATOM     38  CA  CYS B   7     -12.066  -5.263  15.629  0.80 19.21 LIG 0.19  C 
BRANCH 38 39
ATOM     39  C   CYS B   7     -10.563  -5.151  15.466  0.80 19.13 LIG 0.20  C 
ATOM     40 O    CYS B   7     -10.041  -5.133  14.338  0.80 18.45 LIG-0.65  OA
ATOM     41 OXT  CYS B   7      -9.843  -5.028  16.453  0.80 19.35 LIG-0.65  OA
ENDBRANCH 38 39
BRANCH 38 42
ATOM     42  CB  CYS B   7     -12.572  -4.387  16.772  0.80 19.02 LIG 0.11  C 
BRANCH 42 43
ATOM     43 SG   CYS B   7     -14.344  -4.050  16.619  0.80 21.06 LIG-0.18  SA
ATOM     44 HG   CYS B   7     -14.909  -5.042  16.249  0.80 21.06 LIG 0.10  HD
ENDBRANCH 42 43
ENDBRANCH 38 42
ENDBRANCH 36 38
ENDBRANCH 30 34
ENDBRANCH 23 27
ENDBRANCH 21 23
ENDBRANCH 18 19
BRANCH 18 45
ATOM     45  CB  GLU B   4     -19.652 -11.083  16.991  0.80 27.21 LIG 0.04  C 
BRANCH 45 46
ATOM     46  CG  GLU B   4     -20.018 -11.495  18.395  0.80 28.14 LIG 0.12  C 
BRANCH 46 47
ATOM     47  CD  GLU B   4     -18.968 -12.363  19.059  0.80 29.53 LIG 0.17  C 
ATOM     48 OE1  GLU B   4     -17.904 -12.637  18.458  0.80 28.59 LIG-0.65  OA
ATOM     49 OE2  GLU B   4     -19.220 -12.776  20.206  0.80 31.57 LIG-0.65  OA
ENDBRANCH 46 47
ENDBRANCH 45 46
ENDBRANCH 18 45
ENDBRANCH 16 18
ENDBRANCH 1 14
BRANCH 1 50
ATOM     50  N   ARG B   3     -24.459  -8.138  16.374  0.80 34.16 LIG-0.35  N 
ATOM     51  C   GLU B   2     -25.692  -8.566  16.634  0.80 36.27 LIG 0.24  C 
ATOM     52 O    GLU B   2     -26.233  -9.485  16.010  0.80 35.80 LIG-0.27  OA
ATOM     53 H    ARG B   3     -24.092  -7.464  16.762  0.80 34.16 LIG 0.16  HD
BRANCH 51 54
ATOM     54  CA  GLU B   2     -26.442  -7.819  17.734  0.80 37.72 LIG 0.18  C 
BRANCH 54 55
ATOM     55  N   GLU B   2     -27.858  -7.709  17.392  0.80 39.05 LIG-0.35  N 
ATOM     56  C   GLN B   1     -28.640  -6.816  17.994  0.80 40.84 LIG 0.24  C 
ATOM     57 O    GLN B   1     -28.221  -6.012  18.833  0.80 40.79 LIG-0.27  OA
ATOM     58 H    GLU B   2     -28.127  -8.258  16.786  0.80 39.05 LIG 0.16  HD
BRANCH 56 59
ATOM     59  CA  GLN B   1     -30.117  -6.821  17.601  0.80 42.15 LIG 0.18  C 
BRANCH 59 60
ATOM     60  CB  GLN B   1     -30.566  -5.442  17.106  0.80 42.68 LIG 0.04  C 
BRANCH 60 61
ATOM     61  CG  GLN B   1     -31.280  -4.621  18.188  0.80 43.94 LIG 0.10  C 
BRANCH 61 62
ATOM     62  CD  GLN B   1     -30.329  -3.998  19.191  0.80 46.27 LIG 0.21  C 
ATOM     63 OE1  GLN B   1     -29.346  -3.357  18.815  0.80 48.62 LIG-0.27  OA
ATOM     64  NE2 GLN B   1     -30.622  -4.175  20.479  0.80 47.40 LIG-0.37  N 
ATOM     65 22HE GLN B   1     -30.115  -3.835  21.086  0.80 47.40 LIG 0.16  HD
ATOM     66 21HE GLN B   1     -31.317  -4.628  20.704  0.80 47.40 LIG 0.16  HD
ENDBRANCH 61 62
ENDBRANCH 60 61
ENDBRANCH 59 60
BRANCH 59 67
ATOM     67  N   GLN B   1     -30.915  -7.223  18.756  0.80 42.89 LIG-0.35  N 
ATOM     68  C   ACE B   0     -31.394  -8.458  18.901  0.80 43.46 LIG 0.21  C 
ATOM     69  CH3 ACE B   0     -32.041  -8.727  20.231  0.80 43.70 LIG 0.12  C 
ATOM     70 O    ACE B   0     -31.068  -9.377  18.146  0.80 44.01 LIG-0.27  OA
ATOM     71 H    GLN B   1     -31.044  -6.594  19.327  0.80 42.89 LIG 0.16  HD
ENDBRANCH 59 67
ENDBRANCH 56 59
ENDBRANCH 54 55
BRANCH 54 72
ATOM     72  CB  GLU B   2     -26.229  -8.483  19.106  0.80 37.98 LIG 0.04  C 
BRANCH 72 73
ATOM     73  CG  GLU B   2     -25.836  -9.957  19.088  0.80 38.47 LIG 0.12  C 
BRANCH 73 74
ATOM     74  CD  GLU B   2     -24.802 -10.297  20.155  0.80 38.45 LIG 0.17  C 
ATOM     75 OE1  GLU B   2     -23.749 -10.867  19.804  0.80 41.05 LIG-0.65  OA
ATOM     76 OE2  GLU B   2     -25.034  -9.982  21.337  0.80 38.47 LIG-0.65  OA
ENDBRANCH 73 74
ENDBRANCH 72 73
ENDBRANCH 54 72
ENDBRANCH 51 54
ENDBRANCH 1 50
TORSDOF 29
ENDMDL
MODEL 14
USER: ADFR SOLUTION from run 83
USER: SCORE 20.041236 LL:  -5.665 LR: -17.589 RR:   0.000 FEB:  -8.938
USER: RMSD 2.653649
USER: SEED 82
USER: STATUS no improvement in best in 5 clusters for 5 generations
USER: GENES 31
USER: genes 0 Translation |==|  0.42171 0.43806 0.48488
USER: genes 1 Rotation |==|  0.46221 0.53196 0.48439 0.99730
USER: genes 2 Torsion [C]-CA--CB-[CG] |==|  0.84269
USER: genes 3 Torsion [CA]-CB--CG-[CD] |==|  0.71724
USER: genes 4 Torsion [CB]-CG--CD-[NE] |==|  0.34904
USER: genes 5 Torsion [CG]-CD--NE-[CZ] |==|  0.21749
USER: genes 6 Torsion [N]-CA--C-[N] |==|  0.39538
USER: genes 7 Torsion [C]-N--CA-[CB] |==|  0.49463
USER: genes 8 Torsion [N]-CA--C-[N] |==|  0.40603
USER: genes 9 Torsion [C]-N--CA-[CB] |==|  0.24959
USER: genes 10 Torsion [N]-CA--CB-[CG2] |==|  0.43037
USER: genes 11 Torsion [N]-CA--C-[N] |==|  0.31265
USER: genes 12 Torsion [N]-CA--C-[O] |==|  0.88547
USER: genes 13 Torsion [C]-N--CA-[C] |==|  0.67295
USER: genes 14 Torsion [N]-CA--C-[O] |==|  0.27194
USER: genes 15 Torsion [N]-CA--CB-[SG] |==|  0.79609
USER: genes 16 Torsion [CA]-CB--SG-[HG] |==|  0.15912
USER: genes 17 Torsion [N]-CA--CB-[CG] |==|  0.44196
USER: genes 18 Torsion [CA]-CB--CG-[CD] |==|  0.55842
USER: genes 19 Torsion [CB]-CG--CD-[OE2] |==|  0.86107
USER: genes 20 Torsion [CB]-CA--N-[C] |==|  0.43902
USER: genes 21 Torsion [N]-C--CA-[N] |==|  0.35598
USER: genes 22 Torsion [C]-CA--N-[C] |==|  0.68560
USER: genes 23 Torsion [N]-C--CA-[N] |==|  0.40546
USER: genes 24 Torsion [C]-CA--CB-[CG] |==|  0.94151
USER: genes 25 Torsion [CA]-CB--CG-[CD] |==|  0.72679
USER: genes 26 Torsion [CB]-CG--CD-[OE1] |==|  0.20765
USER: genes 27 Torsion [C]-CA--N-[C] |==|  0.82412
USER: genes 28 Torsion [C]-CA--CB-[CG] |==|  0.59458
USER: genes 29 Torsion [CA]-CB--CG-[CD] |==|  0.56427
USER: genes 30 Torsion [CB]-CG--CD-[OE1] |==|  0.26183
ROOT
ATOM      1  CA  ARG B   3     -23.562  -9.251  15.804  0.80 33.15 LIG 0.18  C 
ENDROOT
BRANCH 1 2
ATOM      2  CB  ARG B   3     -23.687  -9.489  14.289  0.80 33.78 LIG 0.04  C 
BRANCH 2 3
ATOM      3  CG  ARG B   3     -23.213  -8.360  13.371  0.80 35.93 LIG 0.02  C 
BRANCH 3 4
ATOM      4  CD  ARG B   3     -24.354  -7.542  12.808  0.80 39.27 LIG 0.14  C 
BRANCH 4 5
ATOM      5  NE  ARG B   3     -24.197  -6.111  13.076  0.80 40.38 LIG-0.23  N 
ATOM      6  CZ  ARG B   3     -23.387  -5.302  12.394  0.80 40.37 LIG 0.67  C 
ATOM      7  NH1 ARG B   3     -22.655  -5.780  11.400  0.80 40.12 LIG-0.23  N 
ATOM      8  NH2 ARG B   3     -23.316  -4.011  12.701  0.80 41.10 LIG-0.23  N 
ATOM      9 2HH1 ARG B   3     -22.133  -5.257  10.960  0.80 40.12 LIG 0.17  HD
ATOM     10 1HH1 ARG B   3     -22.703  -6.614  11.193  0.80 40.12 LIG 0.17  HD
ATOM     11 2HH2 ARG B   3     -22.792  -3.492  12.259  0.80 41.10 LIG 0.17  HD
ATOM     12 1HH2 ARG B   3     -23.794  -3.694  13.342  0.80 41.10 LIG 0.17  HD
ATOM     13 HE   ARG B   3     -24.660  -5.769  13.715  0.80 40.38 LIG 0.18  HD
ENDBRANCH 4 5
ENDBRANCH 3 4
ENDBRANCH 2 3
ENDBRANCH 1 2
BRANCH 1 14
ATOM     14  C   ARG B   3     -22.130  -8.929  16.196  0.80 30.98 LIG 0.24  C 
ATOM     15 O    ARG B   3     -21.723  -7.772  16.142  0.80 30.41 LIG-0.27  OA
ATOM     16  N   GLU B   4     -21.394  -9.958  16.607  0.80 28.71 LIG-0.35  N 
ATOM     17 H    GLU B   4     -21.711 -10.745  16.748  0.80 28.71 LIG 0.16  HD
BRANCH 16 18
ATOM     18  CA  GLU B   4     -19.961  -9.838  16.857  0.80 27.21 LIG 0.18  C 
BRANCH 18 19
ATOM     19  C   GLU B   4     -19.274  -9.436  15.563  0.80 25.80 LIG 0.24  C 
ATOM     20 O    GLU B   4     -19.702  -9.822  14.460  0.80 26.39 LIG-0.27  OA
ATOM     21  N   VAL B   5     -18.219  -8.646  15.701  0.80 23.72 LIG-0.35  N 
ATOM     22 H    VAL B   5     -17.961  -8.326  16.456  0.80 23.72 LIG 0.16  HD
BRANCH 21 23
ATOM     23  CA  VAL B   5     -17.394  -8.243  14.575  0.80 22.93 LIG 0.18  C 
BRANCH 23 24
ATOM     24  CB  VAL B   5     -17.893  -6.947  13.924  0.80 23.26 LIG 0.01  C 
ATOM     25  CG2 VAL B   5     -16.745  -6.233  13.211  0.80 23.62 LIG 0.01  C 
ATOM     26  CG1 VAL B   5     -18.507  -6.042  14.967  0.80 24.46 LIG 0.01  C 
ENDBRANCH 23 24
BRANCH 23 27
ATOM     27  C   VAL B   5     -15.977  -8.047  15.106  0.80 21.40 LIG 0.24  C 
ATOM     28  N   PRO B   6     -15.046  -8.916  14.681  0.80 20.87 LIG-0.34  N 
ATOM     29  CD  PRO B   6     -15.185 -10.174  13.936  0.80 21.07 LIG 0.13  C 
ATOM     30  CA  PRO B   6     -13.669  -8.719  15.136  0.80 20.34 LIG 0.18  C 
ATOM     31  CG  PRO B   6     -13.914 -10.910  14.270  0.80 22.12 LIG 0.02  C 
ATOM     32  CB  PRO B   6     -12.908  -9.859  14.458  0.80 19.87 LIG 0.04  C 
ATOM     33 O    VAL B   5     -15.728  -7.123  15.888  0.80 20.67 LIG-0.27  OA
BRANCH 30 34
ATOM     34  C   PRO B   6     -13.122  -7.374  14.701  0.80 20.23 LIG 0.24  C 
ATOM     35 O    PRO B   6     -13.366  -6.952  13.552  0.80 20.62 LIG-0.27  OA
ATOM     36  N   CYS B   7     -12.416  -6.703  15.613  0.80 18.87 LIG-0.34  N 
ATOM     37 H    CYS B   7     -12.168  -7.037  16.366  0.80 18.87 LIG 0.16  HD
BRANCH 36 38
ATOM     38  CA  CYS B   7     -11.996  -5.307  15.401  0.80 19.21 LIG 0.19  C 
BRANCH 38 39
ATOM     39  C   CYS B   7     -10.486  -5.177  15.383  0.80 19.13 LIG 0.20  C 
ATOM     40 O    CYS B   7      -9.859  -5.136  14.310  0.80 18.45 LIG-0.65  OA
ATOM     41 OXT  CYS B   7      -9.863  -5.062  16.435  0.80 19.35 LIG-0.65  OA
ENDBRANCH 38 39
BRANCH 38 42
ATOM     42  CB  CYS B   7     -12.624  -4.381  16.440  0.80 19.02 LIG 0.11  C 
BRANCH 42 43
ATOM     43 SG   CYS B   7     -14.386  -4.121  16.118  0.80 21.06 LIG-0.18  SA
ATOM     44 HG   CYS B   7     -14.951  -5.179  16.101  0.80 21.06 LIG 0.10  HD
ENDBRANCH 42 43
ENDBRANCH 38 42
ENDBRANCH 36 38
ENDBRANCH 30 34
ENDBRANCH 23 27
ENDBRANCH 21 23
ENDBRANCH 18 19
BRANCH 18 45
ATOM     45  CB  GLU B   4     -19.362 -11.148  17.364  0.80 27.21 LIG 0.04  C 
BRANCH 45 46
ATOM     46  CG  GLU B   4     -17.869 -11.263  17.175  0.80 28.14 LIG 0.12  C 
BRANCH 46 47
ATOM     47  CD  GLU B   4     -17.369 -12.693  17.199  0.80 29.53 LIG 0.17  C 
ATOM     48 OE1  GLU B   4     -16.618 -13.113  16.288  0.80 28.59 LIG-0.65  OA
ATOM     49 OE2  GLU B   4     -17.739 -13.405  18.151  0.80 31.57 LIG-0.65  OA
ENDBRANCH 46 47
ENDBRANCH 45 46
ENDBRANCH 18 45
ENDBRANCH 16 18
ENDBRANCH 1 14
BRANCH 1 50
ATOM     50  N   ARG B   3     -24.420  -8.158  16.239  0.80 34.16 LIG-0.35  N 
ATOM     51  C   GLU B   2     -24.812  -8.045  17.505  0.80 36.27 LIG 0.24  C 
ATOM     52 O    GLU B   2     -24.550  -8.887  18.370  0.80 35.80 LIG-0.27  OA
ATOM     53 H    ARG B   3     -24.643  -7.610  15.615  0.80 34.16 LIG 0.16  HD
BRANCH 51 54
ATOM     54  CA  GLU B   2     -25.661  -6.820  17.836  0.80 37.72 LIG 0.18  C 
BRANCH 54 55
ATOM     55  N   GLU B   2     -26.883  -7.227  18.527  0.80 39.05 LIG-0.35  N 
ATOM     56  C   GLN B   1     -28.075  -7.079  17.954  0.80 40.84 LIG 0.24  C 
ATOM     57 O    GLN B   1     -28.220  -6.636  16.810  0.80 40.79 LIG-0.27  OA
ATOM     58 H    GLU B   2     -26.760  -7.560  19.311  0.80 39.05 LIG 0.16  HD
BRANCH 56 59
ATOM     59  CA  GLN B   1     -29.291  -7.487  18.784  0.80 42.15 LIG 0.18  C 
BRANCH 59 60
ATOM     60  CB  GLN B   1     -29.685  -8.943  18.518  0.80 42.68 LIG 0.04  C 
BRANCH 60 61
ATOM     61  CG  GLN B   1     -29.151  -9.474  17.180  0.80 43.94 LIG 0.10  C 
BRANCH 61 62
ATOM     62  CD  GLN B   1     -30.180  -9.434  16.068  0.80 46.27 LIG 0.21  C 
ATOM     63 OE1  GLN B   1     -30.488  -8.369  15.530  0.80 48.62 LIG-0.27  OA
ATOM     64  NE2 GLN B   1     -30.714 -10.601  15.707  0.80 47.40 LIG-0.37  N 
ATOM     65 22HE GLN B   1     -31.298 -10.630  15.076  0.80 47.40 LIG 0.16  HD
ATOM     66 21HE GLN B   1     -30.474 -11.325  16.106  0.80 47.40 LIG 0.16  HD
ENDBRANCH 61 62
ENDBRANCH 60 61
ENDBRANCH 59 60
BRANCH 59 67
ATOM     67  N   GLN B   1     -30.406  -6.600  18.461  0.80 42.89 LIG-0.35  N 
ATOM     68  C   ACE B   0     -30.372  -5.289  18.703  0.80 43.46 LIG 0.21  C 
ATOM     69  CH3 ACE B   0     -31.537  -4.520  18.146  0.80 43.70 LIG 0.12  C 
ATOM     70 O    ACE B   0     -29.343  -4.721  19.076  0.80 44.01 LIG-0.27  OA
ATOM     71 H    GLN B   1     -31.078  -7.000  18.103  0.80 42.89 LIG 0.16  HD
ENDBRANCH 59 67
ENDBRANCH 56 59
ENDBRANCH 54 55
BRANCH 54 72
ATOM     72  CB  GLU B   2     -24.859  -5.785  18.643  0.80 37.98 LIG 0.04  C 
BRANCH 72 73
ATOM     73  CG  GLU B   2     -25.641  -4.986  19.681  0.80 38.47 LIG 0.12  C 
BRANCH 73 74
ATOM     74  CD  GLU B   2     -24.972  -3.659  20.020  0.80 38.45 LIG 0.17  C 
ATOM     75 OE1  GLU B   2     -25.335  -2.636  19.405  0.80 41.05 LIG-0.65  OA
ATOM     76 OE2  GLU B   2     -24.101  -3.636  20.908  0.80 38.47 LIG-0.65  OA
ENDBRANCH 73 74
ENDBRANCH 72 73
ENDBRANCH 54 72
ENDBRANCH 51 54
ENDBRANCH 1 50
TORSDOF 29
ENDMDL
MODEL 15
USER: ADFR SOLUTION from run 33
USER: SCORE 20.492510 LL:  -5.556 LR: -17.575 RR:   0.000 FEB:  -8.925
USER: RMSD 3.725376
USER: SEED 32
USER: STATUS no improvement in best in 5 clusters for 5 generations
USER: GENES 31
USER: genes 0 Translation |==|  0.42276 0.45444 0.45087
USER: genes 1 Rotation |==|  0.54835 0.52097 0.50819 0.99715
USER: genes 2 Torsion [C]-CA--CB-[CG] |==|  0.90011
USER: genes 3 Torsion [CA]-CB--CG-[CD] |==|  0.68511
USER: genes 4 Torsion [CB]-CG--CD-[NE] |==|  0.42891
USER: genes 5 Torsion [CG]-CD--NE-[CZ] |==|  0.25405
USER: genes 6 Torsion [N]-CA--C-[N] |==|  0.36353
USER: genes 7 Torsion [C]-N--CA-[CB] |==|  0.49444
USER: genes 8 Torsion [N]-CA--C-[N] |==|  0.41152
USER: genes 9 Torsion [C]-N--CA-[CB] |==|  0.26623
USER: genes 10 Torsion [N]-CA--CB-[CG2] |==|  0.94586
USER: genes 11 Torsion [N]-CA--C-[N] |==|  0.26382
USER: genes 12 Torsion [N]-CA--C-[O] |==|  0.85979
USER: genes 13 Torsion [C]-N--CA-[C] |==|  0.70909
USER: genes 14 Torsion [N]-CA--C-[O] |==|  0.10337
USER: genes 15 Torsion [N]-CA--CB-[SG] |==|  0.85154
USER: genes 16 Torsion [CA]-CB--SG-[HG] |==|  0.43597
USER: genes 17 Torsion [N]-CA--CB-[CG] |==|  0.43905
USER: genes 18 Torsion [CA]-CB--CG-[CD] |==|  0.49613
USER: genes 19 Torsion [CB]-CG--CD-[OE2] |==|  0.35876
USER: genes 20 Torsion [CB]-CA--N-[C] |==|  0.50586
USER: genes 21 Torsion [N]-C--CA-[N] |==|  0.38260
USER: genes 22 Torsion [C]-CA--N-[C] |==|  0.81594
USER: genes 23 Torsion [N]-C--CA-[N] |==|  0.39082
USER: genes 24 Torsion [C]-CA--CB-[CG] |==|  0.12794
USER: genes 25 Torsion [CA]-CB--CG-[CD] |==|  0.62278
USER: genes 26 Torsion [CB]-CG--CD-[OE1] |==|  0.46240
USER: genes 27 Torsion [C]-CA--N-[C] |==|  0.81331
USER: genes 28 Torsion [C]-CA--CB-[CG] |==|  0.57830
USER: genes 29 Torsion [CA]-CB--CG-[CD] |==|  0.54486
USER: genes 30 Torsion [CB]-CG--CD-[OE1] |==|  0.24299
ROOT
ATOM      1  CA  ARG B   3     -23.529  -8.956  15.192  0.80 33.15 LIG 0.18  C 
ENDROOT
BRANCH 1 2
ATOM      2  CB  ARG B   3     -23.583  -8.667  13.681  0.80 33.78 LIG 0.04  C 
BRANCH 2 3
ATOM      3  CG  ARG B   3     -22.745  -7.492  13.172  0.80 35.93 LIG 0.02  C 
BRANCH 3 4
ATOM      4  CD  ARG B   3     -23.589  -6.351  12.648  0.80 39.27 LIG 0.14  C 
BRANCH 4 5
ATOM      5  NE  ARG B   3     -22.896  -5.064  12.727  0.80 40.38 LIG-0.23  N 
ATOM      6  CZ  ARG B   3     -22.152  -4.549  11.749  0.80 40.37 LIG 0.67  C 
ATOM      7  NH1 ARG B   3     -22.000  -5.210  10.613  0.80 40.12 LIG-0.23  N 
ATOM      8  NH2 ARG B   3     -21.566  -3.366  11.906  0.80 41.10 LIG-0.23  N 
ATOM      9 2HH1 ARG B   3     -21.520  -4.876   9.982  0.80 40.12 LIG 0.17  HD
ATOM     10 1HH1 ARG B   3     -22.383  -5.973  10.504  0.80 40.12 LIG 0.17  HD
ATOM     11 2HH2 ARG B   3     -21.087  -3.037  11.273  0.80 41.10 LIG 0.17  HD
ATOM     12 1HH2 ARG B   3     -21.667  -2.930  12.640  0.80 41.10 LIG 0.17  HD
ATOM     13 HE   ARG B   3     -22.975  -4.610  13.453  0.80 40.38 LIG 0.18  HD
ENDBRANCH 4 5
ENDBRANCH 3 4
ENDBRANCH 2 3
ENDBRANCH 1 2
BRANCH 1 14
ATOM     14  C   ARG B   3     -22.142  -8.694  15.754  0.80 30.98 LIG 0.24  C 
ATOM     15 O    ARG B   3     -21.755  -7.541  15.924  0.80 30.41 LIG-0.27  OA
ATOM     16  N   GLU B   4     -21.424  -9.772  16.056  0.80 28.71 LIG-0.35  N 
ATOM     17 H    GLU B   4     -21.736 -10.573  16.040  0.80 28.71 LIG 0.16  HD
BRANCH 16 18
ATOM     18  CA  GLU B   4     -20.020  -9.685  16.446  0.80 27.21 LIG 0.18  C 
BRANCH 18 19
ATOM     19  C   GLU B   4     -19.232  -9.075  15.300  0.80 25.80 LIG 0.24  C 
ATOM     20 O    GLU B   4     -19.578  -9.251  14.117  0.80 26.39 LIG-0.27  OA
ATOM     21  N   VAL B   5     -18.185  -8.345  15.654  0.80 23.72 LIG-0.35  N 
ATOM     22 H    VAL B   5     -17.983  -8.170  16.471  0.80 23.72 LIG 0.16  HD
BRANCH 21 23
ATOM     23  CA  VAL B   5     -17.273  -7.766  14.682  0.80 22.93 LIG 0.18  C 
BRANCH 23 24
ATOM     24  CB  VAL B   5     -17.627  -6.312  14.348  0.80 23.26 LIG 0.01  C 
ATOM     25  CG2 VAL B   5     -19.076  -6.015  14.734  0.80 23.62 LIG 0.01  C 
ATOM     26  CG1 VAL B   5     -17.411  -6.046  12.877  0.80 24.46 LIG 0.01  C 
ENDBRANCH 23 24
BRANCH 23 27
ATOM     27  C   VAL B   5     -15.873  -7.838  15.284  0.80 21.40 LIG 0.24  C 
ATOM     28  N   PRO B   6     -15.121  -8.896  14.945  0.80 20.87 LIG-0.34  N 
ATOM     29  CD  PRO B   6     -15.480 -10.135  14.241  0.80 21.07 LIG 0.13  C 
ATOM     30  CA  PRO B   6     -13.756  -8.961  15.470  0.80 20.34 LIG 0.18  C 
ATOM     31  CG  PRO B   6     -14.405 -11.097  14.674  0.80 22.12 LIG 0.02  C 
ATOM     32  CB  PRO B   6     -13.214 -10.264  14.878  0.80 19.87 LIG 0.04  C 
ATOM     33 O    VAL B   5     -15.477  -6.946  16.043  0.80 20.67 LIG-0.27  OA
BRANCH 30 34
ATOM     34  C   PRO B   6     -12.925  -7.779  15.016  0.80 20.23 LIG 0.24  C 
ATOM     35 O    PRO B   6     -12.889  -7.479  13.805  0.80 20.62 LIG-0.27  OA
ATOM     36  N   CYS B   7     -12.289  -7.103  15.975  0.80 18.87 LIG-0.34  N 
ATOM     37 H    CYS B   7     -12.237  -7.369  16.792  0.80 18.87 LIG 0.16  HD
BRANCH 36 38
ATOM     38  CA  CYS B   7     -11.612  -5.823  15.710  0.80 19.21 LIG 0.19  C 
BRANCH 38 39
ATOM     39  C   CYS B   7     -10.106  -5.988  15.662  0.80 19.13 LIG 0.20  C 
ATOM     40 O    CYS B   7      -9.588  -7.002  15.163  0.80 18.45 LIG-0.65  OA
ATOM     41 OXT  CYS B   7      -9.373  -5.095  16.078  0.80 19.35 LIG-0.65  OA
ENDBRANCH 38 39
BRANCH 38 42
ATOM     42  CB  CYS B   7     -12.025  -4.762  16.727  0.80 19.02 LIG 0.11  C 
BRANCH 42 43
ATOM     43 SG   CYS B   7     -13.825  -4.592  16.816  0.80 21.06 LIG-0.18  SA
ATOM     44 HG   CYS B   7     -14.132  -4.125  17.877  0.80 21.06 LIG 0.10  HD
ENDBRANCH 42 43
ENDBRANCH 38 42
ENDBRANCH 36 38
ENDBRANCH 30 34
ENDBRANCH 23 27
ENDBRANCH 21 23
ENDBRANCH 18 19
BRANCH 18 45
ATOM     45  CB  GLU B   4     -19.440 -11.057  16.787  0.80 27.21 LIG 0.04  C 
BRANCH 45 46
ATOM     46  CG  GLU B   4     -17.937 -11.138  16.690  0.80 28.14 LIG 0.12  C 
BRANCH 46 47
ATOM     47  CD  GLU B   4     -17.383 -12.497  17.065  0.80 29.53 LIG 0.17  C 
ATOM     48 OE1  GLU B   4     -17.722 -13.041  18.141  0.80 28.59 LIG-0.65  OA
ATOM     49 OE2  GLU B   4     -16.594 -13.027  16.261  0.80 31.57 LIG-0.65  OA
ENDBRANCH 46 47
ENDBRANCH 45 46
ENDBRANCH 18 45
ENDBRANCH 16 18
ENDBRANCH 1 14
BRANCH 1 50
ATOM     50  N   ARG B   3     -24.489  -8.139  15.920  0.80 34.16 LIG-0.35  N 
ATOM     51  C   GLU B   2     -24.584  -8.195  17.245  0.80 36.27 LIG 0.24  C 
ATOM     52 O    GLU B   2     -23.936  -8.990  17.935  0.80 35.80 LIG-0.27  OA
ATOM     53 H    ARG B   3     -24.974  -7.631  15.424  0.80 34.16 LIG 0.16  HD
BRANCH 51 54
ATOM     54  CA  GLU B   2     -25.590  -7.243  17.886  0.80 37.72 LIG 0.18  C 
BRANCH 54 55
ATOM     55  N   GLU B   2     -26.333  -7.930  18.941  0.80 39.05 LIG-0.35  N 
ATOM     56  C   GLN B   1     -27.164  -8.929  18.653  0.80 40.84 LIG 0.24  C 
ATOM     57 O    GLN B   1     -27.328  -9.358  17.506  0.80 40.79 LIG-0.27  OA
ATOM     58 H    GLU B   2     -26.185  -7.637  19.736  0.80 39.05 LIG 0.16  HD
BRANCH 56 59
ATOM     59  CA  GLN B   1     -27.931  -9.543  19.823  0.80 42.15 LIG 0.18  C 
BRANCH 59 60
ATOM     60  CB  GLN B   1     -27.249 -10.818  20.329  0.80 42.68 LIG 0.04  C 
BRANCH 60 61
ATOM     61  CG  GLN B   1     -25.732 -10.660  20.499  0.80 43.94 LIG 0.10  C 
BRANCH 61 62
ATOM     62  CD  GLN B   1     -24.943 -11.838  19.959  0.80 46.27 LIG 0.21  C 
ATOM     63 OE1  GLN B   1     -23.725 -11.759  19.794  0.80 48.62 LIG-0.27  OA
ATOM     64  NE2 GLN B   1     -25.635 -12.944  19.689  0.80 47.40 LIG-0.37  N 
ATOM     65 22HE GLN B   1     -25.230 -13.641  19.387  0.80 47.40 LIG 0.16  HD
ATOM     66 21HE GLN B   1     -26.485 -12.962  19.817  0.80 47.40 LIG 0.16  HD
ENDBRANCH 61 62
ENDBRANCH 60 61
ENDBRANCH 59 60
BRANCH 59 67
ATOM     67  N   GLN B   1     -29.294  -9.841  19.394  0.80 42.89 LIG-0.35  N 
ATOM     68  C   ACE B   0     -30.173  -8.887  19.085  0.80 43.46 LIG 0.21  C 
ATOM     69  CH3 ACE B   0     -31.463  -9.390  18.502  0.80 43.70 LIG 0.12  C 
ATOM     70 O    ACE B   0     -29.845  -7.702  18.997  0.80 44.01 LIG-0.27  OA
ATOM     71 H    GLN B   1     -29.474 -10.681  19.360  0.80 42.89 LIG 0.16  HD
ENDBRANCH 59 67
ENDBRANCH 56 59
ENDBRANCH 54 55
BRANCH 54 72
ATOM     72  CB  GLU B   2     -24.903  -5.967  18.401  0.80 37.98 LIG 0.04  C 
BRANCH 72 73
ATOM     73  CG  GLU B   2     -25.569  -5.273  19.586  0.80 38.47 LIG 0.12  C 
BRANCH 73 74
ATOM     74  CD  GLU B   2     -25.073  -3.845  19.779  0.80 38.45 LIG 0.17  C 
ATOM     75 OE1  GLU B   2     -25.645  -2.927  19.156  0.80 41.05 LIG-0.65  OA
ATOM     76 OE2  GLU B   2     -24.128  -3.639  20.562  0.80 38.47 LIG-0.65  OA
ENDBRANCH 73 74
ENDBRANCH 72 73
ENDBRANCH 54 72
ENDBRANCH 51 54
ENDBRANCH 1 50
TORSDOF 29
ENDMDL
