MODEL 1
USER: ADFR SOLUTION from run 52
USER: SCORE 20.684540 LL:  -5.105 LR: -16.843 RR:   0.000 FEB: -10.877
USER: RMSD 2.089601
USER: SEED 51
USER: STATUS 1 or 2 clusters left
USER: GENES 22
USER: genes 0 Translation |==|  0.52454 0.62261 0.66074
USER: genes 1 Rotation |==|  0.53257 0.40199 0.41222 0.98128
USER: genes 2 Torsion [N]-C--CA-[N] |==|  0.00094
USER: genes 3 Torsion [C]-CA--CB-[CG] |==|  0.16839
USER: genes 4 Torsion [CA]-CB--CG-[CD2] |==|  0.67604
USER: genes 5 Torsion [C]-CA--N-[C] |==|  0.75483
USER: genes 6 Torsion [N]-C--CA-[N] |==|  0.87447
USER: genes 7 Torsion [C]-CA--N-[C] |==|  0.83460
USER: genes 8 Torsion [N]-C--CA-[N] |==|  0.89904
USER: genes 9 Torsion [C]-CA--CB-[CG] |==|  0.06940
USER: genes 10 Torsion [CA]-CB--CG-[CD1] |==|  0.22302
USER: genes 11 Torsion [C]-N--CA-[CB] |==|  0.21885
USER: genes 12 Torsion [N]-CA--C-[N] |==|  0.37222
USER: genes 13 Torsion [C]-N--CA-[C] |==|  0.74729
USER: genes 14 Torsion [N]-CA--C-[N] |==|  0.31686
USER: genes 15 Torsion [C]-N--CA-[C] |==|  0.79234
USER: genes 16 Torsion [N]-CA--C-[O] |==|  0.50959
USER: genes 17 Torsion [N]-CA--CB-[CG] |==|  0.45589
USER: genes 18 Torsion [CA]-CB--CG-[CD] |==|  0.69821
USER: genes 19 Torsion [CB]-CG--CD-[OE2] |==|  0.69124
USER: genes 20 Torsion [N]-CA--CB-[CG] |==|  0.65816
USER: genes 21 Torsion [CA]-CB--CG-[CD2] |==|  0.36659
ROOT
ATOM      1  C   LEU B   4      -2.449  37.999  71.463  1.00 29.18 LIG 0.24  C 
ATOM      2 O    LEU B   4      -1.515  38.751  71.171  1.00 28.54 LIG-0.27  OA
ATOM      3  N   PHE B   5      -2.619  36.804  70.900  1.00 29.99 LIG-0.35  N 
ATOM      4 H    PHE B   5      -3.321  36.318  71.001  1.00 29.99 LIG 0.16  HD
ENDROOT
BRANCH 1 5
ATOM      5  CA  LEU B   4      -3.494  38.452  72.503  1.00 28.82 LIG 0.18  C 
BRANCH 5 6
ATOM      6  CB  LEU B   4      -2.810  38.839  73.792  1.00 28.29 LIG 0.04  C 
BRANCH 6 7
ATOM      7  CG  LEU B   4      -1.809  40.002  73.658  1.00 28.88 LIG-0.02  C 
ATOM      8  CD2 LEU B   4      -0.420  39.488  73.998  1.00 30.37 LIG 0.01  C 
ATOM      9  CD1 LEU B   4      -2.156  41.237  74.527  1.00 31.50 LIG 0.01  C 
ENDBRANCH 6 7
ENDBRANCH 5 6
BRANCH 5 10
ATOM     10  N   LEU B   4      -4.548  37.469  72.733  1.00 28.20 LIG-0.35  N 
ATOM     11  C   TRP B   3      -5.640  37.458  71.995  1.00 29.51 LIG 0.24  C 
ATOM     12 O    TRP B   3      -5.804  38.230  71.057  1.00 30.32 LIG-0.27  OA
ATOM     13 H    LEU B   4      -4.391  36.917  73.374  1.00 28.20 LIG 0.16  HD
BRANCH 11 14
ATOM     14  CA  TRP B   3      -6.730  36.449  72.394  1.00 31.78 LIG 0.18  C 
BRANCH 14 15
ATOM     15  N   TRP B   3      -6.116  35.129  72.672  1.00 33.85 LIG-0.35  N 
ATOM     16  C   ALA B   2      -5.430  34.538  71.677  1.00 37.00 LIG 0.26  C 
ATOM     17 O    ALA B   2      -5.366  35.065  70.532  1.00 38.56 LIG-0.27  OA
ATOM     18 H    TRP B   3      -6.236  34.813  73.463  1.00 33.85 LIG 0.16  HD
BRANCH 16 19
ATOM     19  CA  ALA B   2      -4.722  33.231  71.910  1.00 38.11 LIG 0.40  C 
ATOM     20  CB  ALA B   2      -5.697  32.031  71.527  1.00 38.97 LIG 0.06  C 
ATOM     21  N   ALA B   2      -4.068  32.984  73.253  1.00 37.81 LIG 0.61  N 
ENDBRANCH 16 19
ENDBRANCH 14 15
BRANCH 14 22
ATOM     22  CB  TRP B   3      -7.517  37.006  73.599  1.00 31.58 LIG 0.07  C 
BRANCH 22 23
ATOM     23  CG  TRP B   3      -7.470  38.456  73.679  1.00 30.60 LIG-0.03  A 
ATOM     24  CD1 TRP B   3      -8.211  39.334  72.977  1.00 31.03 LIG 0.10  A 
ATOM     25  NE1 TRP B   3      -7.838  40.620  73.289  1.00 29.84 LIG-0.36  N 
ATOM     26 HE1  TRP B   3      -8.180  41.337  72.956  1.00 29.84 LIG 0.17  HD
ATOM     27  CE2 TRP B   3      -6.836  40.570  74.215  1.00 27.79 LIG 0.04  A 
ATOM     28  CD2 TRP B   3      -6.585  39.225  74.484  1.00 28.46 LIG-0.00  A 
ATOM     29  CZ2 TRP B   3      -6.146  41.599  74.838  1.00 27.89 LIG 0.03  A 
ATOM     30  CE3 TRP B   3      -5.591  38.898  75.389  1.00 31.78 LIG 0.01  A 
ATOM     31  CZ3 TRP B   3      -4.921  39.911  76.027  1.00 30.70 LIG 0.00  A 
ATOM     32  CH2 TRP B   3      -5.187  41.253  75.724  1.00 27.16 LIG 0.00  A 
ENDBRANCH 22 23
ENDBRANCH 14 22
ENDBRANCH 11 14
ENDBRANCH 5 10
ENDBRANCH 1 5
BRANCH 3 33
ATOM     33  CA  PHE B   5      -1.577  36.210  70.035  1.00 32.14 LIG 0.18  C 
BRANCH 33 34
ATOM     34  C   PHE B   5      -2.087  35.123  69.110  1.00 34.99 LIG 0.24  C 
ATOM     35 O    PHE B   5      -2.864  34.270  69.553  1.00 34.76 LIG-0.27  OA
ATOM     36  N   GLU B   6      -1.683  35.190  67.831  1.00 37.97 LIG-0.35  N 
ATOM     37 H    GLU B   6      -1.418  35.922  67.468  1.00 37.97 LIG 0.16  HD
BRANCH 36 38
ATOM     38  CA  GLU B   6      -1.644  34.032  66.903  1.00 41.44 LIG 0.18  C 
BRANCH 38 39
ATOM     39  C   GLU B   6      -0.231  33.416  67.038  1.00 42.63 LIG 0.24  C 
ATOM     40  N   ALA B   7      -0.156  32.190  67.556  1.00 44.72 LIG-0.35  N 
ATOM     41 H    ALA B   7      -0.826  31.667  67.688  1.00 44.72 LIG 0.16  HD
ATOM     42 O    GLU B   6       0.796  34.066  66.755  1.00 39.57 LIG-0.27  OA
BRANCH 40 43
ATOM     43  CA  ALA B   7       1.190  31.631  67.955  1.00 46.42 LIG 0.16  C 
ATOM     44  CB  ALA B   7       1.034  30.479  68.971  1.00 46.36 LIG 0.04  C 
BRANCH 43 45
ATOM     45  C   ALA B   7       2.020  31.217  66.753  1.00 46.87 LIG 0.22  C 
ATOM     46 O    ALA B   7       3.116  30.685  66.941  1.00 48.90 LIG-0.29  OA
ENDBRANCH 43 45
ENDBRANCH 40 43
ENDBRANCH 38 39
BRANCH 38 47
ATOM     47  CB  GLU B   6      -1.926  34.433  65.450  1.00 42.54 LIG 0.04  C 
BRANCH 47 48
ATOM     48  CG  GLU B   6      -1.503  33.324  64.428  1.00 48.04 LIG 0.12  C 
BRANCH 48 49
ATOM     49  CD  GLU B   6      -0.265  33.640  63.573  1.00 53.57 LIG 0.17  C 
ATOM     50 OE2  GLU B   6      -0.459  33.836  62.330  1.00 60.38 LIG-0.65  OA
ATOM     51 OE1  GLU B   6       0.878  33.733  64.096  1.00 57.14 LIG-0.65  OA
ENDBRANCH 48 49
ENDBRANCH 47 48
ENDBRANCH 38 47
ENDBRANCH 36 38
ENDBRANCH 33 34
BRANCH 33 52
ATOM     52  CB  PHE B   5      -0.431  35.595  70.860  1.00 32.62 LIG 0.07  C 
BRANCH 52 53
ATOM     53  CG  PHE B   5       0.929  36.144  70.544  1.00 30.35 LIG-0.06  A 
ATOM     54  CD1 PHE B   5       1.391  36.208  69.251  1.00 31.18 LIG 0.01  A 
ATOM     55  CE1 PHE B   5       2.664  36.700  68.979  1.00 30.23 LIG 0.00  A 
ATOM     56  CZ  PHE B   5       3.505  37.149  70.015  1.00 31.30 LIG 0.00  A 
ATOM     57  CE2 PHE B   5       3.059  37.041  71.333  1.00 30.12 LIG 0.00  A 
ATOM     58  CD2 PHE B   5       1.780  36.545  71.578  1.00 31.88 LIG 0.01  A 
ENDBRANCH 52 53
ENDBRANCH 33 52
ENDBRANCH 3 33
TORSDOF 20
ENDMDL
MODEL 2
USER: ADFR SOLUTION from run 181
USER: SCORE 20.120227 LL:  -5.214 LR: -16.323 RR:   0.000 FEB: -10.357
USER: RMSD 2.234573
USER: SEED 180
USER: STATUS 1 or 2 clusters left
USER: GENES 22
USER: genes 0 Translation |==|  0.52688 0.61825 0.65057
USER: genes 1 Rotation |==|  0.54556 0.42584 0.39024 0.97998
USER: genes 2 Torsion [N]-C--CA-[N] |==|  0.00887
USER: genes 3 Torsion [C]-CA--CB-[CG] |==|  0.17902
USER: genes 4 Torsion [CA]-CB--CG-[CD2] |==|  0.65503
USER: genes 5 Torsion [C]-CA--N-[C] |==|  0.76111
USER: genes 6 Torsion [N]-C--CA-[N] |==|  0.87224
USER: genes 7 Torsion [C]-CA--N-[C] |==|  0.82909
USER: genes 8 Torsion [N]-C--CA-[N] |==|  0.95554
USER: genes 9 Torsion [C]-CA--CB-[CG] |==|  0.08525
USER: genes 10 Torsion [CA]-CB--CG-[CD1] |==|  0.21308
USER: genes 11 Torsion [C]-N--CA-[CB] |==|  0.22511
USER: genes 12 Torsion [N]-CA--C-[N] |==|  0.30614
USER: genes 13 Torsion [C]-N--CA-[C] |==|  0.76788
USER: genes 14 Torsion [N]-CA--C-[N] |==|  0.19806
USER: genes 15 Torsion [C]-N--CA-[C] |==|  0.83341
USER: genes 16 Torsion [N]-CA--C-[O] |==|  0.24528
USER: genes 17 Torsion [N]-CA--CB-[CG] |==|  0.11207
USER: genes 18 Torsion [CA]-CB--CG-[CD] |==|  0.77298
USER: genes 19 Torsion [CB]-CG--CD-[OE2] |==|  0.50401
USER: genes 20 Torsion [N]-CA--CB-[CG] |==|  0.71068
USER: genes 21 Torsion [CA]-CB--CG-[CD2] |==|  0.28403
ROOT
ATOM      1  C   LEU B   4      -2.404  37.914  71.234  1.00 29.18 LIG 0.24  C 
ATOM      2 O    LEU B   4      -1.446  38.625  70.921  1.00 28.54 LIG-0.27  OA
ATOM      3  N   PHE B   5      -2.706  36.786  70.594  1.00 29.99 LIG-0.35  N 
ATOM      4 H    PHE B   5      -3.431  36.340  70.718  1.00 29.99 LIG 0.16  HD
ENDROOT
BRANCH 1 5
ATOM      5  CA  LEU B   4      -3.321  38.342  72.397  1.00 28.82 LIG 0.18  C 
BRANCH 5 6
ATOM      6  CB  LEU B   4      -2.497  38.637  73.628  1.00 28.29 LIG 0.04  C 
BRANCH 6 7
ATOM      7  CG  LEU B   4      -1.539  39.834  73.481  1.00 28.88 LIG-0.02  C 
ATOM      8  CD2 LEU B   4      -0.128  39.368  73.798  1.00 30.37 LIG 0.01  C 
ATOM      9  CD1 LEU B   4      -1.915  41.055  74.358  1.00 31.50 LIG 0.01  C 
ENDBRANCH 6 7
ENDBRANCH 5 6
BRANCH 5 10
ATOM     10  N   LEU B   4      -4.382  37.381  72.684  1.00 28.20 LIG-0.35  N 
ATOM     11  C   TRP B   3      -5.526  37.416  72.031  1.00 29.51 LIG 0.24  C 
ATOM     12 O    TRP B   3      -5.739  38.215  71.125  1.00 30.32 LIG-0.27  OA
ATOM     13 H    LEU B   4      -4.192  36.809  73.299  1.00 28.20 LIG 0.16  HD
BRANCH 11 14
ATOM     14  CA  TRP B   3      -6.610  36.425  72.488  1.00 31.78 LIG 0.18  C 
BRANCH 14 15
ATOM     15  N   TRP B   3      -6.017  35.080  72.670  1.00 33.85 LIG-0.35  N 
ATOM     16  C   ALA B   2      -5.472  34.487  71.591  1.00 37.00 LIG 0.26  C 
ATOM     17 O    ALA B   2      -5.522  35.036  70.457  1.00 38.56 LIG-0.27  OA
ATOM     18 H    TRP B   3      -6.056  34.750  73.464  1.00 33.85 LIG 0.16  HD
BRANCH 16 19
ATOM     19  CA  ALA B   2      -4.791  33.152  71.718  1.00 38.11 LIG 0.40  C 
ATOM     20  CB  ALA B   2      -5.644  32.052  70.942  1.00 38.97 LIG 0.06  C 
ATOM     21  N   ALA B   2      -4.403  32.657  73.095  1.00 37.81 LIG 0.61  N 
ENDBRANCH 16 19
ENDBRANCH 14 15
BRANCH 14 22
ATOM     22  CB  TRP B   3      -7.275  36.962  73.773  1.00 31.58 LIG 0.07  C 
BRANCH 22 23
ATOM     23  CG  TRP B   3      -7.292  38.414  73.832  1.00 30.60 LIG-0.03  A 
ATOM     24  CD1 TRP B   3      -8.113  39.246  73.164  1.00 31.03 LIG 0.10  A 
ATOM     25  NE1 TRP B   3      -7.785  40.553  73.438  1.00 29.84 LIG-0.36  N 
ATOM     26 HE1  TRP B   3      -8.178  41.247  73.117  1.00 29.84 LIG 0.17  HD
ATOM     27  CE2 TRP B   3      -6.729  40.563  74.305  1.00 27.79 LIG 0.04  A 
ATOM     28  CD2 TRP B   3      -6.400  39.236  74.576  1.00 28.46 LIG-0.00  A 
ATOM     29  CZ2 TRP B   3      -6.055  41.632  74.874  1.00 27.89 LIG 0.03  A 
ATOM     30  CE3 TRP B   3      -5.342  38.969  75.425  1.00 31.78 LIG 0.01  A 
ATOM     31  CZ3 TRP B   3      -4.685  40.022  76.012  1.00 30.70 LIG 0.00  A 
ATOM     32  CH2 TRP B   3      -5.031  41.345  75.707  1.00 27.16 LIG 0.00  A 
ENDBRANCH 22 23
ENDBRANCH 14 22
ENDBRANCH 11 14
ENDBRANCH 5 10
ENDBRANCH 1 5
BRANCH 3 33
ATOM     33  CA  PHE B   5      -1.788  36.204  69.593  1.00 32.14 LIG 0.18  C 
BRANCH 33 34
ATOM     34  C   PHE B   5      -2.461  35.279  68.599  1.00 34.99 LIG 0.24  C 
ATOM     35 O    PHE B   5      -2.921  34.201  68.994  1.00 34.76 LIG-0.27  OA
ATOM     36  N   GLU B   6      -2.552  35.724  67.336  1.00 37.97 LIG-0.35  N 
ATOM     37 H    GLU B   6      -2.524  36.560  67.137  1.00 37.97 LIG 0.16  HD
BRANCH 36 38
ATOM     38  CA  GLU B   6      -2.710  34.849  66.147  1.00 41.44 LIG 0.18  C 
BRANCH 38 39
ATOM     39  C   GLU B   6      -1.287  34.378  65.764  1.00 42.63 LIG 0.24  C 
ATOM     40  N   ALA B   7      -0.703  33.499  66.580  1.00 44.72 LIG-0.35  N 
ATOM     41 H    ALA B   7      -1.100  33.074  67.213  1.00 44.72 LIG 0.16  HD
ATOM     42 O    GLU B   6      -0.679  34.858  64.785  1.00 39.57 LIG-0.27  OA
BRANCH 40 43
ATOM     43  CA  ALA B   7       0.767  33.193  66.415  1.00 46.42 LIG 0.16  C 
ATOM     44  CB  ALA B   7       1.272  32.271  67.547  1.00 46.36 LIG 0.04  C 
BRANCH 43 45
ATOM     45  C   ALA B   7       1.087  32.630  65.042  1.00 46.87 LIG 0.22  C 
ATOM     46 O    ALA B   7       1.348  33.411  64.125  1.00 48.90 LIG-0.29  OA
ENDBRANCH 43 45
ENDBRANCH 40 43
ENDBRANCH 38 39
BRANCH 38 47
ATOM     47  CB  GLU B   6      -3.380  35.569  64.972  1.00 42.54 LIG 0.04  C 
BRANCH 47 48
ATOM     48  CG  GLU B   6      -2.875  37.043  64.804  1.00 48.04 LIG 0.12  C 
BRANCH 48 49
ATOM     49  CD  GLU B   6      -3.534  38.085  65.723  1.00 53.57 LIG 0.17  C 
ATOM     50 OE2  GLU B   6      -3.160  39.293  65.585  1.00 60.38 LIG-0.65  OA
ATOM     51 OE1  GLU B   6      -4.429  37.750  66.546  1.00 57.14 LIG-0.65  OA
ENDBRANCH 48 49
ENDBRANCH 47 48
ENDBRANCH 38 47
ENDBRANCH 36 38
ENDBRANCH 33 34
BRANCH 33 52
ATOM     52  CB  PHE B   5      -0.655  35.398  70.258  1.00 32.62 LIG 0.07  C 
BRANCH 52 53
ATOM     53  CG  PHE B   5       0.676  36.092  70.276  1.00 30.35 LIG-0.06  A 
ATOM     54  CD1 PHE B   5       1.496  36.094  69.172  1.00 31.18 LIG 0.01  A 
ATOM     55  CE1 PHE B   5       2.735  36.723  69.214  1.00 30.23 LIG 0.00  A 
ATOM     56  CZ  PHE B   5       3.178  37.378  70.380  1.00 31.30 LIG 0.00  A 
ATOM     57  CE2 PHE B   5       2.370  37.337  71.518  1.00 30.12 LIG 0.00  A 
ATOM     58  CD2 PHE B   5       1.133  36.700  71.449  1.00 31.88 LIG 0.01  A 
ENDBRANCH 52 53
ENDBRANCH 33 52
ENDBRANCH 3 33
TORSDOF 20
ENDMDL
MODEL 3
USER: ADFR SOLUTION from run 118
USER: SCORE 20.152318 LL:  -6.225 LR: -15.048 RR:   0.000 FEB:  -9.082
USER: RMSD 3.311729
USER: SEED 117
USER: STATUS no improvement in best in 5 clusters for 5 generations
USER: GENES 22
USER: genes 0 Translation |==|  0.53516 0.61633 0.64566
USER: genes 1 Rotation |==|  0.54714 0.40489 0.39909 0.97807
USER: genes 2 Torsion [N]-C--CA-[N] |==|  0.02151
USER: genes 3 Torsion [C]-CA--CB-[CG] |==|  0.19408
USER: genes 4 Torsion [CA]-CB--CG-[CD2] |==|  0.68084
USER: genes 5 Torsion [C]-CA--N-[C] |==|  0.73062
USER: genes 6 Torsion [N]-C--CA-[N] |==|  0.89770
USER: genes 7 Torsion [C]-CA--N-[C] |==|  0.82697
USER: genes 8 Torsion [N]-C--CA-[N] |==|  0.09447
USER: genes 9 Torsion [C]-CA--CB-[CG] |==|  0.08748
USER: genes 10 Torsion [CA]-CB--CG-[CD1] |==|  0.21595
USER: genes 11 Torsion [C]-N--CA-[CB] |==|  0.22072
USER: genes 12 Torsion [N]-CA--C-[N] |==|  0.47715
USER: genes 13 Torsion [C]-N--CA-[C] |==|  0.86092
USER: genes 14 Torsion [N]-CA--C-[N] |==|  0.88221
USER: genes 15 Torsion [C]-N--CA-[C] |==|  0.61436
USER: genes 16 Torsion [N]-CA--C-[O] |==|  0.06801
USER: genes 17 Torsion [N]-CA--CB-[CG] |==|  0.18430
USER: genes 18 Torsion [CA]-CB--CG-[CD] |==|  0.33500
USER: genes 19 Torsion [CB]-CG--CD-[OE2] |==|  0.53886
USER: genes 20 Torsion [N]-CA--CB-[CG] |==|  0.70041
USER: genes 21 Torsion [CA]-CB--CG-[CD2] |==|  0.28758
ROOT
ATOM      1  C   LEU B   4      -2.242  37.877  71.123  1.00 29.18 LIG 0.24  C 
ATOM      2 O    LEU B   4      -1.279  38.608  70.881  1.00 28.54 LIG-0.27  OA
ATOM      3  N   PHE B   5      -2.460  36.732  70.480  1.00 29.99 LIG-0.35  N 
ATOM      4 H    PHE B   5      -3.181  36.268  70.550  1.00 29.99 LIG 0.16  HD
ENDROOT
BRANCH 1 5
ATOM      5  CA  LEU B   4      -3.267  38.298  72.196  1.00 28.82 LIG 0.18  C 
BRANCH 5 6
ATOM      6  CB  LEU B   4      -2.554  38.741  73.451  1.00 28.29 LIG 0.04  C 
BRANCH 6 7
ATOM      7  CG  LEU B   4      -1.794  40.074  73.316  1.00 28.88 LIG-0.02  C 
ATOM      8  CD2 LEU B   4      -0.307  39.803  73.471  1.00 30.37 LIG 0.01  C 
ATOM      9  CD1 LEU B   4      -2.253  41.166  74.315  1.00 31.50 LIG 0.01  C 
ENDBRANCH 6 7
ENDBRANCH 5 6
BRANCH 5 10
ATOM     10  N   LEU B   4      -4.263  37.271  72.483  1.00 28.20 LIG-0.35  N 
ATOM     11  C   TRP B   3      -5.450  37.294  71.909  1.00 29.51 LIG 0.24  C 
ATOM     12 O    TRP B   3      -5.758  38.141  71.077  1.00 30.32 LIG-0.27  OA
ATOM     13 H    LEU B   4      -4.008  36.670  73.043  1.00 28.20 LIG 0.16  HD
BRANCH 11 14
ATOM     14  CA  TRP B   3      -6.456  36.225  72.365  1.00 31.78 LIG 0.18  C 
BRANCH 14 15
ATOM     15  N   TRP B   3      -5.750  34.949  72.628  1.00 33.85 LIG-0.35  N 
ATOM     16  C   ALA B   2      -5.121  34.361  71.594  1.00 37.00 LIG 0.26  C 
ATOM     17 O    ALA B   2      -5.184  34.851  70.433  1.00 38.56 LIG-0.27  OA
ATOM     18 H    TRP B   3      -5.784  34.654  73.435  1.00 33.85 LIG 0.16  HD
BRANCH 16 19
ATOM     19  CA  ALA B   2      -4.326  33.101  71.802  1.00 38.11 LIG 0.40  C 
ATOM     20  CB  ALA B   2      -4.087  32.392  70.396  1.00 38.97 LIG 0.06  C 
ATOM     21  N   ALA B   2      -4.801  32.099  72.834  1.00 37.81 LIG 0.61  N 
ENDBRANCH 16 19
ENDBRANCH 14 15
BRANCH 14 22
ATOM     22  CB  TRP B   3      -7.222  36.747  73.600  1.00 31.58 LIG 0.07  C 
BRANCH 22 23
ATOM     23  CG  TRP B   3      -7.391  38.190  73.587  1.00 30.60 LIG-0.03  A 
ATOM     24  CD1 TRP B   3      -8.281  38.898  72.866  1.00 31.03 LIG 0.10  A 
ATOM     25  NE1 TRP B   3      -8.096  40.244  73.080  1.00 29.84 LIG-0.36  N 
ATOM     26 HE1  TRP B   3      -8.553  40.877  72.720  1.00 29.84 LIG 0.17  HD
ATOM     27  CE2 TRP B   3      -7.066  40.406  73.962  1.00 27.79 LIG 0.04  A 
ATOM     28  CD2 TRP B   3      -6.606  39.135  74.303  1.00 28.46 LIG-0.00  A 
ATOM     29  CZ2 TRP B   3      -6.518  41.566  74.488  1.00 27.89 LIG 0.03  A 
ATOM     30  CE3 TRP B   3      -5.542  39.022  75.181  1.00 31.78 LIG 0.01  A 
ATOM     31  CZ3 TRP B   3      -5.012  40.164  75.725  1.00 30.70 LIG 0.00  A 
ATOM     32  CH2 TRP B   3      -5.487  41.427  75.351  1.00 27.16 LIG 0.00  A 
ENDBRANCH 22 23
ENDBRANCH 14 22
ENDBRANCH 11 14
ENDBRANCH 5 10
ENDBRANCH 1 5
BRANCH 3 33
ATOM     33  CA  PHE B   5      -1.445  36.157  69.572  1.00 32.14 LIG 0.18  C 
BRANCH 33 34
ATOM     34  C   PHE B   5      -2.001  35.171  68.565  1.00 34.99 LIG 0.24  C 
ATOM     35 O    PHE B   5      -3.188  34.837  68.641  1.00 34.76 LIG-0.27  OA
ATOM     36  N   GLU B   6      -1.156  34.751  67.611  1.00 37.97 LIG-0.35  N 
ATOM     37 H    GLU B   6      -0.462  35.202  67.377  1.00 37.97 LIG 0.16  HD
BRANCH 36 38
ATOM     38  CA  GLU B   6      -1.307  33.483  66.854  1.00 41.44 LIG 0.18  C 
BRANCH 38 39
ATOM     39  C   GLU B   6      -1.526  32.373  67.909  1.00 42.63 LIG 0.24  C 
ATOM     40  N   ALA B   7      -0.763  32.420  69.001  1.00 44.72 LIG-0.35  N 
ATOM     41 H    ALA B   7      -0.265  33.084  69.228  1.00 44.72 LIG 0.16  HD
ATOM     42 O    GLU B   6      -2.320  31.431  67.712  1.00 39.57 LIG-0.27  OA
BRANCH 40 43
ATOM     43  CA  ALA B   7      -0.738  31.240  69.944  1.00 46.42 LIG 0.16  C 
ATOM     44  CB  ALA B   7       0.447  30.301  69.627  1.00 46.36 LIG 0.04  C 
BRANCH 43 45
ATOM     45  C   ALA B   7      -0.746  31.667  71.401  1.00 46.87 LIG 0.22  C 
ATOM     46 O    ALA B   7      -1.216  32.768  71.696  1.00 48.90 LIG-0.29  OA
ENDBRANCH 43 45
ENDBRANCH 40 43
ENDBRANCH 38 39
BRANCH 38 47
ATOM     47  CB  GLU B   6      -0.087  33.170  65.981  1.00 42.54 LIG 0.04  C 
BRANCH 47 48
ATOM     48  CG  GLU B   6       1.197  32.869  66.828  1.00 48.04 LIG 0.12  C 
BRANCH 48 49
ATOM     49  CD  GLU B   6       1.829  31.484  66.615  1.00 53.57 LIG 0.17  C 
ATOM     50 OE2  GLU B   6       2.692  31.108  67.471  1.00 60.38 LIG-0.65  OA
ATOM     51 OE1  GLU B   6       1.473  30.750  65.654  1.00 57.14 LIG-0.65  OA
ENDBRANCH 48 49
ENDBRANCH 47 48
ENDBRANCH 38 47
ENDBRANCH 36 38
ENDBRANCH 33 34
BRANCH 33 52
ATOM     52  CB  PHE B   5      -0.333  35.426  70.349  1.00 32.62 LIG 0.07  C 
BRANCH 52 53
ATOM     53  CG  PHE B   5       0.988  36.138  70.367  1.00 30.35 LIG-0.06  A 
ATOM     54  CD1 PHE B   5       1.844  36.084  69.292  1.00 31.18 LIG 0.01  A 
ATOM     55  CE1 PHE B   5       3.073  36.733  69.335  1.00 30.23 LIG 0.00  A 
ATOM     56  CZ  PHE B   5       3.469  37.465  70.471  1.00 31.30 LIG 0.00  A 
ATOM     57  CE2 PHE B   5       2.625  37.483  71.582  1.00 30.12 LIG 0.00  A 
ATOM     58  CD2 PHE B   5       1.398  36.825  71.513  1.00 31.88 LIG 0.01  A 
ENDBRANCH 52 53
ENDBRANCH 33 52
ENDBRANCH 3 33
TORSDOF 20
ENDMDL
MODEL 4
USER: ADFR SOLUTION from run 117
USER: SCORE 19.092119 LL:  -5.544 LR: -14.988 RR:   0.000 FEB:  -9.022
USER: RMSD 2.060091
USER: SEED 116
USER: STATUS 1 or 2 clusters left
USER: GENES 22
USER: genes 0 Translation |==|  0.53445 0.60783 0.64401
USER: genes 1 Rotation |==|  0.55574 0.42620 0.38211 0.97702
USER: genes 2 Torsion [N]-C--CA-[N] |==|  0.01366
USER: genes 3 Torsion [C]-CA--CB-[CG] |==|  0.18751
USER: genes 4 Torsion [CA]-CB--CG-[CD2] |==|  0.61270
USER: genes 5 Torsion [C]-CA--N-[C] |==|  0.73641
USER: genes 6 Torsion [N]-C--CA-[N] |==|  0.90775
USER: genes 7 Torsion [C]-CA--N-[C] |==|  0.81976
USER: genes 8 Torsion [N]-C--CA-[N] |==|  0.16513
USER: genes 9 Torsion [C]-CA--CB-[CG] |==|  0.09215
USER: genes 10 Torsion [CA]-CB--CG-[CD1] |==|  0.22495
USER: genes 11 Torsion [C]-N--CA-[CB] |==|  0.22103
USER: genes 12 Torsion [N]-CA--C-[N] |==|  0.45585
USER: genes 13 Torsion [C]-N--CA-[C] |==|  0.55671
USER: genes 14 Torsion [N]-CA--C-[N] |==|  0.52987
USER: genes 15 Torsion [C]-N--CA-[C] |==|  0.80455
USER: genes 16 Torsion [N]-CA--C-[O] |==|  0.58424
USER: genes 17 Torsion [N]-CA--CB-[CG] |==|  0.58972
USER: genes 18 Torsion [CA]-CB--CG-[CD] |==|  0.02825
USER: genes 19 Torsion [CB]-CG--CD-[OE2] |==|  0.69161
USER: genes 20 Torsion [N]-CA--CB-[CG] |==|  0.72616
USER: genes 21 Torsion [CA]-CB--CG-[CD2] |==|  0.28749
ROOT
ATOM      1  C   LEU B   4      -2.256  37.711  71.086  1.00 29.18 LIG 0.24  C 
ATOM      2 O    LEU B   4      -1.277  38.409  70.812  1.00 28.54 LIG-0.27  OA
ATOM      3  N   PHE B   5      -2.585  36.622  70.394  1.00 29.99 LIG-0.35  N 
ATOM      4 H    PHE B   5      -3.322  36.191  70.494  1.00 29.99 LIG 0.16  HD
ENDROOT
BRANCH 1 5
ATOM      5  CA  LEU B   4      -3.170  38.111  72.263  1.00 28.82 LIG 0.18  C 
BRANCH 5 6
ATOM      6  CB  LEU B   4      -2.342  38.368  73.499  1.00 28.29 LIG 0.04  C 
BRANCH 6 7
ATOM      7  CG  LEU B   4      -1.433  39.608  73.410  1.00 28.88 LIG-0.02  C 
ATOM      8  CD2 LEU B   4      -0.093  39.274  74.044  1.00 30.37 LIG 0.01  C 
ATOM      9  CD1 LEU B   4      -2.035  40.880  74.059  1.00 31.50 LIG 0.01  C 
ENDBRANCH 6 7
ENDBRANCH 5 6
BRANCH 5 10
ATOM     10  N   LEU B   4      -4.234  37.147  72.525  1.00 28.20 LIG-0.35  N 
ATOM     11  C   TRP B   3      -5.436  37.305  72.008  1.00 29.51 LIG 0.24  C 
ATOM     12 O    TRP B   3      -5.707  38.229  71.249  1.00 30.32 LIG-0.27  OA
ATOM     13 H    LEU B   4      -4.007  36.490  73.031  1.00 28.20 LIG 0.16  HD
BRANCH 11 14
ATOM     14  CA  TRP B   3      -6.508  36.289  72.436  1.00 31.78 LIG 0.18  C 
BRANCH 14 15
ATOM     15  N   TRP B   3      -5.884  34.965  72.664  1.00 33.85 LIG-0.35  N 
ATOM     16  C   ALA B   2      -5.338  34.342  71.604  1.00 37.00 LIG 0.26  C 
ATOM     17 O    ALA B   2      -5.412  34.844  70.449  1.00 38.56 LIG-0.27  OA
ATOM     18 H    TRP B   3      -5.907  34.667  73.471  1.00 33.85 LIG 0.16  HD
BRANCH 16 19
ATOM     19  CA  ALA B   2      -4.626  33.028  71.776  1.00 38.11 LIG 0.40  C 
ATOM     20  CB  ALA B   2      -3.913  32.634  70.407  1.00 38.97 LIG 0.06  C 
ATOM     21  N   ALA B   2      -5.391  31.850  72.341  1.00 37.81 LIG 0.61  N 
ENDBRANCH 16 19
ENDBRANCH 14 15
BRANCH 14 22
ATOM     22  CB  TRP B   3      -7.242  36.825  73.684  1.00 31.58 LIG 0.07  C 
BRANCH 22 23
ATOM     23  CG  TRP B   3      -7.355  38.274  73.689  1.00 30.60 LIG-0.03  A 
ATOM     24  CD1 TRP B   3      -8.262  39.021  73.032  1.00 31.03 LIG 0.10  A 
ATOM     25  NE1 TRP B   3      -8.011  40.357  73.240  1.00 29.84 LIG-0.36  N 
ATOM     26 HE1  TRP B   3      -8.465  41.011  72.913  1.00 29.84 LIG 0.17  HD
ATOM     27  CE2 TRP B   3      -6.919  40.472  74.053  1.00 27.79 LIG 0.04  A 
ATOM     28  CD2 TRP B   3      -6.488  39.182  74.357  1.00 28.46 LIG-0.00  A 
ATOM     29  CZ2 TRP B   3      -6.294  41.607  74.548  1.00 27.89 LIG 0.03  A 
ATOM     30  CE3 TRP B   3      -5.375  39.021  75.162  1.00 31.78 LIG 0.01  A 
ATOM     31  CZ3 TRP B   3      -4.766  40.138  75.676  1.00 30.70 LIG 0.00  A 
ATOM     32  CH2 TRP B   3      -5.215  41.421  75.340  1.00 27.16 LIG 0.00  A 
ENDBRANCH 22 23
ENDBRANCH 14 22
ENDBRANCH 11 14
ENDBRANCH 5 10
ENDBRANCH 1 5
BRANCH 3 33
ATOM     33  CA  PHE B   5      -1.676  36.060  69.373  1.00 32.14 LIG 0.18  C 
BRANCH 33 34
ATOM     34  C   PHE B   5      -2.362  35.172  68.354  1.00 34.99 LIG 0.24  C 
ATOM     35 O    PHE B   5      -3.512  34.776  68.577  1.00 34.76 LIG-0.27  OA
ATOM     36  N   GLU B   6      -1.673  34.905  67.234  1.00 37.97 LIG-0.35  N 
ATOM     37 H    GLU B   6      -1.040  35.412  66.949  1.00 37.97 LIG 0.16  HD
BRANCH 36 38
ATOM     38  CA  GLU B   6      -1.911  33.728  66.362  1.00 41.44 LIG 0.18  C 
BRANCH 38 39
ATOM     39  C   GLU B   6      -0.618  33.533  65.535  1.00 42.63 LIG 0.24  C 
ATOM     40  N   ALA B   7      -0.675  32.667  64.522  1.00 44.72 LIG-0.35  N 
ATOM     41 H    ALA B   7      -1.397  32.320  64.210  1.00 44.72 LIG 0.16  HD
ATOM     42 O    GLU B   6       0.452  34.094  65.850  1.00 39.57 LIG-0.27  OA
BRANCH 40 43
ATOM     43  CA  ALA B   7       0.601  32.235  63.839  1.00 46.42 LIG 0.16  C 
ATOM     44  CB  ALA B   7       0.377  30.960  62.998  1.00 46.36 LIG 0.04  C 
BRANCH 43 45
ATOM     45  C   ALA B   7       1.221  33.352  63.018  1.00 46.87 LIG 0.22  C 
ATOM     46 O    ALA B   7       1.871  33.061  62.013  1.00 48.90 LIG-0.29  OA
ENDBRANCH 43 45
ENDBRANCH 40 43
ENDBRANCH 38 39
BRANCH 38 47
ATOM     47  CB  GLU B   6      -3.123  33.912  65.442  1.00 42.54 LIG 0.04  C 
BRANCH 47 48
ATOM     48  CG  GLU B   6      -3.866  32.563  65.150  1.00 48.04 LIG 0.12  C 
BRANCH 48 49
ATOM     49  CD  GLU B   6      -3.427  31.360  66.002  1.00 53.57 LIG 0.17  C 
ATOM     50 OE2  GLU B   6      -2.801  30.429  65.401  1.00 60.38 LIG-0.65  OA
ATOM     51 OE1  GLU B   6      -3.650  31.328  67.242  1.00 57.14 LIG-0.65  OA
ENDBRANCH 48 49
ENDBRANCH 47 48
ENDBRANCH 38 47
ENDBRANCH 36 38
ENDBRANCH 33 34
BRANCH 33 52
ATOM     52  CB  PHE B   5      -0.549  35.224  70.010  1.00 32.62 LIG 0.07  C 
BRANCH 52 53
ATOM     53  CG  PHE B   5       0.755  35.950  70.163  1.00 30.35 LIG-0.06  A 
ATOM     54  CD1 PHE B   5       1.614  36.109  69.101  1.00 31.18 LIG 0.01  A 
ATOM     55  CE1 PHE B   5       2.829  36.766  69.267  1.00 30.23 LIG 0.00  A 
ATOM     56  CZ  PHE B   5       3.206  37.289  70.519  1.00 31.30 LIG 0.00  A 
ATOM     57  CE2 PHE B   5       2.360  37.087  71.610  1.00 30.12 LIG 0.00  A 
ATOM     58  CD2 PHE B   5       1.149  36.426  71.417  1.00 31.88 LIG 0.01  A 
ENDBRANCH 52 53
ENDBRANCH 33 52
ENDBRANCH 3 33
TORSDOF 20
ENDMDL
MODEL 5
USER: ADFR SOLUTION from run 7
USER: SCORE 19.163708 LL:  -4.858 LR: -14.955 RR:   0.000 FEB:  -8.989
USER: RMSD 4.375091
USER: SEED 315576
USER: STATUS no improvement in best in 2 clusters for 5 generations
USER: GENES 22
USER: genes 0 Translation |==|  0.49501 0.58386 0.60830
USER: genes 1 Rotation |==|  0.52906 0.48973 0.35884 0.97867
USER: genes 2 Torsion [N]-C--CA-[N] |==|  0.98725
USER: genes 3 Torsion [C]-CA--CB-[CG] |==|  0.22379
USER: genes 4 Torsion [CA]-CB--CG-[CD2] |==|  0.59234
USER: genes 5 Torsion [C]-CA--N-[C] |==|  0.76584
USER: genes 6 Torsion [N]-C--CA-[N] |==|  0.87603
USER: genes 7 Torsion [C]-CA--N-[C] |==|  0.82868
USER: genes 8 Torsion [N]-C--CA-[N] |==|  0.89277
USER: genes 9 Torsion [C]-CA--CB-[CG] |==|  0.11733
USER: genes 10 Torsion [CA]-CB--CG-[CD1] |==|  0.18637
USER: genes 11 Torsion [C]-N--CA-[CB] |==|  0.81491
USER: genes 12 Torsion [N]-CA--C-[N] |==|  0.34526
USER: genes 13 Torsion [C]-N--CA-[C] |==|  0.72570
USER: genes 14 Torsion [N]-CA--C-[N] |==|  0.12797
USER: genes 15 Torsion [C]-N--CA-[C] |==|  0.81285
USER: genes 16 Torsion [N]-CA--C-[O] |==|  0.00679
USER: genes 17 Torsion [N]-CA--CB-[CG] |==|  0.54100
USER: genes 18 Torsion [CA]-CB--CG-[CD] |==|  0.69377
USER: genes 19 Torsion [CB]-CG--CD-[OE2] |==|  0.42016
USER: genes 20 Torsion [N]-CA--CB-[CG] |==|  0.90195
USER: genes 21 Torsion [CA]-CB--CG-[CD2] |==|  0.40378
ROOT
ATOM      1  C   LEU B   4      -3.025  37.243  70.283  1.00 29.18 LIG 0.24  C 
ATOM      2 O    LEU B   4      -2.114  37.858  69.722  1.00 28.54 LIG-0.27  OA
ATOM      3  N   PHE B   5      -3.608  36.171  69.751  1.00 29.99 LIG-0.35  N 
ATOM      4 H    PHE B   5      -4.317  35.800  70.066  1.00 29.99 LIG 0.16  HD
ENDROOT
BRANCH 1 5
ATOM      5  CA  LEU B   4      -3.547  37.735  71.648  1.00 28.82 LIG 0.18  C 
BRANCH 5 6
ATOM      6  CB  LEU B   4      -2.430  37.727  72.665  1.00 28.29 LIG 0.04  C 
BRANCH 6 7
ATOM      7  CG  LEU B   4      -1.491  38.945  72.589  1.00 28.88 LIG-0.02  C 
ATOM      8  CD2 LEU B   4      -0.089  38.501  72.972  1.00 30.37 LIG 0.01  C 
ATOM      9  CD1 LEU B   4      -1.938  40.142  73.465  1.00 31.50 LIG 0.01  C 
ENDBRANCH 6 7
ENDBRANCH 5 6
BRANCH 5 10
ATOM     10  N   LEU B   4      -4.709  36.992  72.127  1.00 28.20 LIG-0.35  N 
ATOM     11  C   TRP B   3      -5.927  37.310  71.737  1.00 29.51 LIG 0.24  C 
ATOM     12 O    TRP B   3      -6.142  38.201  70.922  1.00 30.32 LIG-0.27  OA
ATOM     13 H    LEU B   4      -4.526  36.350  72.670  1.00 28.20 LIG 0.16  HD
BRANCH 11 14
ATOM     14  CA  TRP B   3      -7.083  36.531  72.386  1.00 31.78 LIG 0.18  C 
BRANCH 14 15
ATOM     15  N   TRP B   3      -6.756  35.087  72.426  1.00 33.85 LIG-0.35  N 
ATOM     16  C   ALA B   2      -6.566  34.457  71.251  1.00 37.00 LIG 0.26  C 
ATOM     17 O    ALA B   2      -6.721  35.067  70.158  1.00 38.56 LIG-0.27  OA
ATOM     18 H    TRP B   3      -6.707  34.728  73.206  1.00 33.85 LIG 0.16  HD
BRANCH 16 19
ATOM     19  CA  ALA B   2      -6.163  33.008  71.219  1.00 38.11 LIG 0.40  C 
ATOM     20  CB  ALA B   2      -7.472  32.101  71.193  1.00 38.97 LIG 0.06  C 
ATOM     21  N   ALA B   2      -5.178  32.500  72.251  1.00 37.81 LIG 0.61  N 
ENDBRANCH 16 19
ENDBRANCH 14 15
BRANCH 14 22
ATOM     22  CB  TRP B   3      -7.363  37.118  73.786  1.00 31.58 LIG 0.07  C 
BRANCH 22 23
ATOM     23  CG  TRP B   3      -7.328  38.570  73.804  1.00 30.60 LIG-0.03  A 
ATOM     24  CD1 TRP B   3      -8.190  39.411  73.201  1.00 31.03 LIG 0.10  A 
ATOM     25  NE1 TRP B   3      -7.793  40.713  73.400  1.00 29.84 LIG-0.36  N 
ATOM     26 HE1  TRP B   3      -8.197  41.412  73.101  1.00 29.84 LIG 0.17  HD
ATOM     27  CE2 TRP B   3      -6.653  40.710  74.151  1.00 27.79 LIG 0.04  A 
ATOM     28  CD2 TRP B   3      -6.338  39.380  74.425  1.00 28.46 LIG-0.00  A 
ATOM     29  CZ2 TRP B   3      -5.889  41.771  74.615  1.00 27.89 LIG 0.03  A 
ATOM     30  CE3 TRP B   3      -5.205  39.100  75.167  1.00 31.78 LIG 0.01  A 
ATOM     31  CZ3 TRP B   3      -4.458  40.144  75.650  1.00 30.70 LIG 0.00  A 
ATOM     32  CH2 TRP B   3      -4.792  41.470  75.345  1.00 27.16 LIG 0.00  A 
ENDBRANCH 22 23
ENDBRANCH 14 22
ENDBRANCH 11 14
ENDBRANCH 5 10
ENDBRANCH 1 5
BRANCH 3 33
ATOM     33  CA  PHE B   5      -3.059  35.521  68.541  1.00 32.14 LIG 0.18  C 
BRANCH 33 34
ATOM     34  C   PHE B   5      -1.603  35.118  68.662  1.00 34.99 LIG 0.24  C 
ATOM     35 O    PHE B   5      -0.769  35.966  68.999  1.00 34.76 LIG-0.27  OA
ATOM     36  N   GLU B   6      -1.320  33.827  68.430  1.00 37.97 LIG-0.35  N 
ATOM     37 H    GLU B   6      -1.908  33.204  68.507  1.00 37.97 LIG 0.16  HD
BRANCH 36 38
ATOM     38  CA  GLU B   6       0.014  33.320  68.021  1.00 41.44 LIG 0.18  C 
BRANCH 38 39
ATOM     39  C   GLU B   6      -0.046  33.135  66.486  1.00 42.63 LIG 0.24  C 
ATOM     40  N   ALA B   7      -0.578  34.132  65.778  1.00 44.72 LIG-0.35  N 
ATOM     41 H    ALA B   7      -0.760  34.914  66.086  1.00 44.72 LIG 0.16  HD
ATOM     42 O    GLU B   6       0.310  32.070  65.941  1.00 39.57 LIG-0.27  OA
BRANCH 40 43
ATOM     43  CA  ALA B   7      -0.905  33.918  64.319  1.00 46.42 LIG 0.16  C 
ATOM     44  CB  ALA B   7      -1.803  35.053  63.779  1.00 46.36 LIG 0.04  C 
BRANCH 43 45
ATOM     45  C   ALA B   7       0.342  33.733  63.472  1.00 46.87 LIG 0.22  C 
ATOM     46 O    ALA B   7       1.443  33.726  64.027  1.00 48.90 LIG-0.29  OA
ENDBRANCH 43 45
ENDBRANCH 40 43
ENDBRANCH 38 39
BRANCH 38 47
ATOM     47  CB  GLU B   6       0.381  32.004  68.714  1.00 42.54 LIG 0.04  C 
BRANCH 47 48
ATOM     48  CG  GLU B   6       1.904  31.660  68.580  1.00 48.04 LIG 0.12  C 
BRANCH 48 49
ATOM     49  CD  GLU B   6       2.242  30.464  67.675  1.00 53.57 LIG 0.17  C 
ATOM     50 OE2  GLU B   6       3.375  30.483  67.096  1.00 60.38 LIG-0.65  OA
ATOM     51 OE1  GLU B   6       1.441  29.498  67.550  1.00 57.14 LIG-0.65  OA
ENDBRANCH 48 49
ENDBRANCH 47 48
ENDBRANCH 38 47
ENDBRANCH 36 38
ENDBRANCH 33 34
BRANCH 33 52
ATOM     52  CB  PHE B   5      -3.171  36.432  67.303  1.00 32.62 LIG 0.07  C 
BRANCH 52 53
ATOM     53  CG  PHE B   5      -4.404  37.287  67.267  1.00 30.35 LIG-0.06  A 
ATOM     54  CD1 PHE B   5      -5.616  36.812  67.711  1.00 31.18 LIG 0.01  A 
ATOM     55  CE1 PHE B   5      -6.753  37.611  67.650  1.00 30.23 LIG 0.00  A 
ATOM     56  CZ  PHE B   5      -6.691  38.923  67.141  1.00 31.30 LIG 0.00  A 
ATOM     57  CE2 PHE B   5      -5.474  39.392  66.645  1.00 30.12 LIG 0.00  A 
ATOM     58  CD2 PHE B   5      -4.350  38.571  66.718  1.00 31.88 LIG 0.01  A 
ENDBRANCH 52 53
ENDBRANCH 33 52
ENDBRANCH 3 33
TORSDOF 20
ENDMDL
MODEL 6
USER: ADFR SOLUTION from run 118
USER: SCORE 19.993041 LL:  -6.176 LR: -14.924 RR:   0.000 FEB:  -8.958
USER: RMSD 3.677624
USER: SEED 117
USER: STATUS no improvement in best in 5 clusters for 5 generations
USER: GENES 22
USER: genes 0 Translation |==|  0.56309 0.63378 0.66384
USER: genes 1 Rotation |==|  0.53696 0.40798 0.44042 0.98643
USER: genes 2 Torsion [N]-C--CA-[N] |==|  0.00556
USER: genes 3 Torsion [C]-CA--CB-[CG] |==|  0.18757
USER: genes 4 Torsion [CA]-CB--CG-[CD2] |==|  0.66353
USER: genes 5 Torsion [C]-CA--N-[C] |==|  0.72406
USER: genes 6 Torsion [N]-C--CA-[N] |==|  0.91121
USER: genes 7 Torsion [C]-CA--N-[C] |==|  0.82919
USER: genes 8 Torsion [N]-C--CA-[N] |==|  0.09586
USER: genes 9 Torsion [C]-CA--CB-[CG] |==|  0.09386
USER: genes 10 Torsion [CA]-CB--CG-[CD1] |==|  0.22620
USER: genes 11 Torsion [C]-N--CA-[CB] |==|  0.23289
USER: genes 12 Torsion [N]-CA--C-[N] |==|  0.49088
USER: genes 13 Torsion [C]-N--CA-[C] |==|  0.16108
USER: genes 14 Torsion [N]-CA--C-[N] |==|  0.10955
USER: genes 15 Torsion [C]-N--CA-[C] |==|  0.60321
USER: genes 16 Torsion [N]-CA--C-[O] |==|  0.90155
USER: genes 17 Torsion [N]-CA--CB-[CG] |==|  0.72955
USER: genes 18 Torsion [CA]-CB--CG-[CD] |==|  0.81317
USER: genes 19 Torsion [CB]-CG--CD-[OE2] |==|  0.52877
USER: genes 20 Torsion [N]-CA--CB-[CG] |==|  0.99995
USER: genes 21 Torsion [CA]-CB--CG-[CD2] |==|  0.21461
ROOT
ATOM      1  C   LEU B   4      -1.698  38.217  71.532  1.00 29.18 LIG 0.24  C 
ATOM      2 O    LEU B   4      -0.863  39.071  71.224  1.00 28.54 LIG-0.27  OA
ATOM      3  N   PHE B   5      -1.735  37.009  70.975  1.00 29.99 LIG-0.35  N 
ATOM      4 H    PHE B   5      -2.374  36.444  71.088  1.00 29.99 LIG 0.16  HD
ENDROOT
BRANCH 1 5
ATOM      5  CA  LEU B   4      -2.771  38.548  72.589  1.00 28.82 LIG 0.18  C 
BRANCH 5 6
ATOM      6  CB  LEU B   4      -2.117  39.055  73.853  1.00 28.29 LIG 0.04  C 
BRANCH 6 7
ATOM      7  CG  LEU B   4      -1.429  40.425  73.708  1.00 28.88 LIG-0.02  C 
ATOM      8  CD2 LEU B   4       0.041  40.269  74.059  1.00 30.37 LIG 0.01  C 
ATOM      9  CD1 LEU B   4      -2.072  41.548  74.559  1.00 31.50 LIG 0.01  C 
ENDBRANCH 6 7
ENDBRANCH 5 6
BRANCH 5 10
ATOM     10  N   LEU B   4      -3.675  37.436  72.866  1.00 28.20 LIG-0.35  N 
ATOM     11  C   TRP B   3      -4.869  37.376  72.312  1.00 29.51 LIG 0.24  C 
ATOM     12 O    TRP B   3      -5.260  38.214  71.506  1.00 30.32 LIG-0.27  OA
ATOM     13 H    LEU B   4      -3.362  36.845  73.408  1.00 28.20 LIG 0.16  HD
BRANCH 11 14
ATOM     14  CA  TRP B   3      -5.778  36.219  72.757  1.00 31.78 LIG 0.18  C 
BRANCH 14 15
ATOM     15  N   TRP B   3      -4.955  35.033  73.090  1.00 33.85 LIG-0.35  N 
ATOM     16  C   ALA B   2      -4.207  34.498  72.107  1.00 37.00 LIG 0.26  C 
ATOM     17 O    ALA B   2      -4.256  34.956  70.933  1.00 38.56 LIG-0.27  OA
ATOM     18 H    TRP B   3      -5.003  34.750  73.901  1.00 33.85 LIG 0.16  HD
BRANCH 16 19
ATOM     19  CA  ALA B   2      -3.294  33.336  72.390  1.00 38.11 LIG 0.40  C 
ATOM     20  CB  ALA B   2      -2.888  32.640  71.016  1.00 38.97 LIG 0.06  C 
ATOM     21  N   ALA B   2      -3.722  32.302  73.410  1.00 37.81 LIG 0.61  N 
ENDBRANCH 16 19
ENDBRANCH 14 15
BRANCH 14 22
ATOM     22  CB  TRP B   3      -6.651  36.688  73.941  1.00 31.58 LIG 0.07  C 
BRANCH 22 23
ATOM     23  CG  TRP B   3      -7.015  38.092  73.848  1.00 30.60 LIG-0.03  A 
ATOM     24  CD1 TRP B   3      -8.011  38.627  73.118  1.00 31.03 LIG 0.10  A 
ATOM     25  NE1 TRP B   3      -8.005  39.997  73.245  1.00 29.84 LIG-0.36  N 
ATOM     26 HE1  TRP B   3      -8.553  40.539  72.863  1.00 29.84 LIG 0.17  HD
ATOM     27  CE2 TRP B   3      -6.982  40.351  74.078  1.00 27.79 LIG 0.04  A 
ATOM     28  CD2 TRP B   3      -6.345  39.177  74.478  1.00 28.46 LIG-0.00  A 
ATOM     29  CZ2 TRP B   3      -6.583  41.605  74.514  1.00 27.89 LIG 0.03  A 
ATOM     30  CE3 TRP B   3      -5.253  39.264  75.322  1.00 31.78 LIG 0.01  A 
ATOM     31  CZ3 TRP B   3      -4.868  40.499  75.778  1.00 30.70 LIG 0.00  A 
ATOM     32  CH2 TRP B   3      -5.520  41.661  75.346  1.00 27.16 LIG 0.00  A 
ENDBRANCH 22 23
ENDBRANCH 14 22
ENDBRANCH 11 14
ENDBRANCH 5 10
ENDBRANCH 1 5
BRANCH 3 33
ATOM     33  CA  PHE B   5      -0.646  36.538  70.092  1.00 32.14 LIG 0.18  C 
BRANCH 33 34
ATOM     34  C   PHE B   5      -1.071  35.479  69.094  1.00 34.99 LIG 0.24  C 
ATOM     35 O    PHE B   5      -2.242  35.082  69.099  1.00 34.76 LIG-0.27  OA
ATOM     36  N   GLU B   6      -0.135  35.068  68.225  1.00 37.97 LIG-0.35  N 
ATOM     37 H    GLU B   6       0.549  35.548  68.021  1.00 37.97 LIG 0.16  HD
BRANCH 36 38
ATOM     38  CA  GLU B   6      -0.161  33.763  67.519  1.00 41.44 LIG 0.18  C 
BRANCH 38 39
ATOM     39  C   GLU B   6      -1.491  33.723  66.730  1.00 42.63 LIG 0.24  C 
ATOM     40  N   ALA B   7      -1.879  34.858  66.146  1.00 44.72 LIG-0.35  N 
ATOM     41 H    ALA B   7      -1.391  35.560  66.057  1.00 44.72 LIG 0.16  HD
ATOM     42 O    GLU B   6      -2.210  32.703  66.708  1.00 39.57 LIG-0.27  OA
BRANCH 40 43
ATOM     43  CA  ALA B   7      -3.277  34.965  65.584  1.00 46.42 LIG 0.16  C 
ATOM     44  CB  ALA B   7      -4.259  35.522  66.639  1.00 46.36 LIG 0.04  C 
BRANCH 43 45
ATOM     45  C   ALA B   7      -3.318  35.767  64.295  1.00 46.87 LIG 0.22  C 
ATOM     46 O    ALA B   7      -2.557  36.728  64.167  1.00 48.90 LIG-0.29  OA
ENDBRANCH 43 45
ENDBRANCH 40 43
ENDBRANCH 38 39
BRANCH 38 47
ATOM     47  CB  GLU B   6      -0.062  32.572  68.479  1.00 42.54 LIG 0.04  C 
BRANCH 47 48
ATOM     48  CG  GLU B   6       1.399  32.020  68.603  1.00 48.04 LIG 0.12  C 
BRANCH 48 49
ATOM     49  CD  GLU B   6       1.972  31.355  67.340  1.00 53.57 LIG 0.17  C 
ATOM     50 OE2  GLU B   6       3.068  30.722  67.471  1.00 60.38 LIG-0.65  OA
ATOM     51 OE1  GLU B   6       1.356  31.411  66.242  1.00 57.14 LIG-0.65  OA
ENDBRANCH 48 49
ENDBRANCH 47 48
ENDBRANCH 38 47
ENDBRANCH 36 38
ENDBRANCH 33 34
BRANCH 33 52
ATOM     52  CB  PHE B   5       0.527  35.948  70.899  1.00 32.62 LIG 0.07  C 
BRANCH 52 53
ATOM     53  CG  PHE B   5       0.334  35.969  72.387  1.00 30.35 LIG-0.06  A 
ATOM     54  CD1 PHE B   5       1.008  36.865  73.182  1.00 31.18 LIG 0.01  A 
ATOM     55  CE1 PHE B   5       0.833  36.856  74.562  1.00 30.23 LIG 0.00  A 
ATOM     56  CZ  PHE B   5      -0.041  35.938  75.177  1.00 31.30 LIG 0.00  A 
ATOM     57  CE2 PHE B   5      -0.690  34.995  74.379  1.00 30.12 LIG 0.00  A 
ATOM     58  CD2 PHE B   5      -0.498  35.026  72.999  1.00 31.88 LIG 0.01  A 
ENDBRANCH 52 53
ENDBRANCH 33 52
ENDBRANCH 3 33
TORSDOF 20
ENDMDL
