MODEL 1
USER: ADFR SOLUTION from run 142
USER: SCORE 23.968102 LL:  -6.740 LR: -18.445 RR:   0.000 FEB: -11.584
USER: RMSD 2.651427
USER: SEED 141
USER: STATUS searching
USER: GENES 25
USER: genes 0 Translation |==|  0.50468 0.33931 0.69405
USER: genes 1 Rotation |==|  0.56864 0.51952 0.57530 0.98912
USER: genes 2 Torsion [N]-CA--C-[N] |==|  0.01579
USER: genes 3 Torsion [C]-N--CA-[CB] |==|  0.22222
USER: genes 4 Torsion [N]-CA--CB-[CG] |==|  0.72338
USER: genes 5 Torsion [CA]-CB--CG-[CD1] |==|  0.28427
USER: genes 6 Torsion [N]-CA--C-[N] |==|  0.45123
USER: genes 7 Torsion [C]-N--CA-[C] |==|  0.63135
USER: genes 8 Torsion [N]-CA--CB-[CG] |==|  0.15893
USER: genes 9 Torsion [CA]-CB--CG-[CD] |==|  0.24428
USER: genes 10 Torsion [CB]-CG--CD-[OE2] |==|  0.28383
USER: genes 11 Torsion [N]-CA--C-[N] |==|  0.44207
USER: genes 12 Torsion [C]-N--CA-[CB] |==|  0.79002
USER: genes 13 Torsion [N]-CA--C-[O] |==|  0.52061
USER: genes 14 Torsion [C]-CA--CB-[CG] |==|  0.20182
USER: genes 15 Torsion [CA]-CB--CG-[CD1] |==|  0.26729
USER: genes 16 Torsion [C]-CA--N-[C] |==|  0.72450
USER: genes 17 Torsion [N]-C--CA-[N] |==|  0.90572
USER: genes 18 Torsion [C]-CA--CB-[CG] |==|  0.10088
USER: genes 19 Torsion [CA]-CB--CG-[CD1] |==|  0.21796
USER: genes 20 Torsion [C]-CA--N-[C] |==|  0.82852
USER: genes 21 Torsion [N]-C--CA-[N] |==|  0.87332
USER: genes 22 Torsion [C]-CA--N-[C] |==|  0.80281
USER: genes 23 Torsion [N]-C--CA-[N] |==|  0.23202
USER: genes 24 Torsion [C]-CA--N-[H3] |==|  0.89732
ROOT
ATOM      1  CA  LEU B   4       3.035 -38.315  -5.484  1.00 25.55 LIG 0.18  C 
ENDROOT
BRANCH 1 2
ATOM      2  C   LEU B   4       2.089 -37.895  -6.612  1.00 26.13 LIG 0.24  C 
ATOM      3 O    LEU B   4       1.137 -38.610  -6.876  1.00 25.31 LIG-0.27  OA
ATOM      4  N   PHE B   5       2.356 -36.745  -7.250  1.00 26.68 LIG-0.35  N 
ATOM      5 H    PHE B   5       3.074 -36.284  -7.136  1.00 26.68 LIG 0.16  HD
BRANCH 4 6
ATOM      6  CA  PHE B   5       1.410 -36.174  -8.220  1.00 28.54 LIG 0.18  C 
BRANCH 6 7
ATOM      7  CB  PHE B   5       0.257 -35.420  -7.522  1.00 28.61 LIG 0.07  C 
BRANCH 7 8
ATOM      8  CG  PHE B   5      -1.012 -36.185  -7.404  1.00 26.86 LIG-0.06  A 
ATOM      9  CD1 PHE B   5      -1.384 -36.770  -6.216  1.00 26.13 LIG 0.01  A 
ATOM     10  CE1 PHE B   5      -2.581 -37.476  -6.112  1.00 23.59 LIG 0.00  A 
ATOM     11  CZ  PHE B   5      -3.447 -37.584  -7.228  1.00 25.19 LIG 0.00  A 
ATOM     12  CE2 PHE B   5      -3.053 -37.035  -8.428  1.00 26.30 LIG 0.00  A 
ATOM     13  CD2 PHE B   5      -1.857 -36.320  -8.507  1.00 27.99 LIG 0.01  A 
ENDBRANCH 7 8
ENDBRANCH 6 7
BRANCH 6 14
ATOM     14  C   PHE B   5       2.074 -35.219  -9.215  1.00 31.71 LIG 0.24  C 
ATOM     15  N   GLU B   6       1.391 -34.941 -10.330  1.00 34.73 LIG-0.35  N 
ATOM     16 H    GLU B   6       0.807 -35.474 -10.668  1.00 34.73 LIG 0.16  HD
ATOM     17 O    PHE B   5       3.215 -34.805  -8.989  1.00 30.66 LIG-0.27  OA
BRANCH 15 18
ATOM     18  CA  GLU B   6       1.570 -33.679 -11.104  1.00 38.89 LIG 0.18  C 
BRANCH 18 19
ATOM     19  CB  GLU B   6       2.388 -33.881 -12.386  1.00 39.10 LIG 0.04  C 
BRANCH 19 20
ATOM     20  CG  GLU B   6       1.780 -34.942 -13.341  1.00 43.96 LIG 0.12  C 
BRANCH 20 21
ATOM     21  CD  GLU B   6       0.745 -34.397 -14.337  1.00 49.39 LIG 0.17  C 
ATOM     22 OE1  GLU B   6      -0.431 -34.191 -13.975  1.00 53.88 LIG-0.65  OA
ATOM     23 OE2  GLU B   6       1.102 -34.208 -15.531  1.00 56.34 LIG-0.65  OA
ENDBRANCH 20 21
ENDBRANCH 19 20
ENDBRANCH 18 19
BRANCH 18 24
ATOM     24  C   GLU B   6       0.161 -33.090 -11.428  1.00 41.03 LIG 0.24  C 
ATOM     25 O    GLU B   6      -0.881 -33.798 -11.372  1.00 40.13 LIG-0.27  OA
ATOM     26  N   ALA B   7       0.153 -31.783 -11.718  1.00 43.76 LIG-0.35  N 
ATOM     27 H    ALA B   7       0.877 -31.327 -11.808  1.00 43.76 LIG 0.16  HD
BRANCH 26 28
ATOM     28  CA  ALA B   7      -1.088 -30.956 -11.921  1.00 45.80 LIG 0.16  C 
ATOM     29  CB  ALA B   7      -1.725 -31.258 -13.322  1.00 46.43 LIG 0.04  C 
BRANCH 28 30
ATOM     30  C   ALA B   7      -2.144 -31.193 -10.852  1.00 46.67 LIG 0.22  C 
ATOM     31 O    ALA B   7      -3.270 -30.681 -10.972  1.00 48.32 LIG-0.29  OA
ENDBRANCH 28 30
ENDBRANCH 26 28
ENDBRANCH 18 24
ENDBRANCH 15 18
ENDBRANCH 6 14
ENDBRANCH 4 6
ENDBRANCH 1 2
BRANCH 1 32
ATOM     32  CB  LEU B   4       2.200 -38.680  -4.274  1.00 24.11 LIG 0.04  C 
BRANCH 32 33
ATOM     33  CG  LEU B   4       1.443 -40.021  -4.413  1.00 25.40 LIG-0.02  C 
ATOM     34  CD2 LEU B   4       0.058 -39.807  -3.846  1.00 26.98 LIG 0.01  C 
ATOM     35  CD1 LEU B   4       2.127 -41.271  -3.792  1.00 25.06 LIG 0.01  C 
ENDBRANCH 32 33
ENDBRANCH 1 32
BRANCH 1 36
ATOM     36  N   LEU B   4       4.043 -37.323  -5.169  1.00 24.30 LIG-0.35  N 
ATOM     37  C   TRP B   3       5.284 -37.420  -5.641  1.00 25.24 LIG 0.24  C 
ATOM     38 O    TRP B   3       5.637 -38.316  -6.389  1.00 25.23 LIG-0.27  OA
ATOM     39 H    LEU B   4       3.769 -36.685  -4.661  1.00 24.30 LIG 0.16  HD
BRANCH 37 40
ATOM     40  CA  TRP B   3       6.295 -36.356  -5.167  1.00 26.39 LIG 0.18  C 
BRANCH 40 41
ATOM     41  CB  TRP B   3       6.977 -36.832  -3.884  1.00 26.78 LIG 0.07  C 
BRANCH 41 42
ATOM     42  CG  TRP B   3       7.193 -38.242  -3.911  1.00 25.50 LIG-0.03  A 
ATOM     43  CD1 TRP B   3       8.178 -38.897  -4.572  1.00 28.00 LIG 0.10  A 
ATOM     44  NE1 TRP B   3       8.049 -40.240  -4.392  1.00 26.39 LIG-0.36  N 
ATOM     45 HE1  TRP B   3       8.569 -40.841  -4.723  1.00 26.39 LIG 0.17  HD
ATOM     46  CE2 TRP B   3       6.967 -40.480  -3.601  1.00 23.90 LIG 0.04  A 
ATOM     47  CZ2 TRP B   3       6.437 -41.693  -3.154  1.00 23.10 LIG 0.03  A 
ATOM     48  CD2 TRP B   3       6.408 -39.234  -3.274  1.00 23.76 LIG-0.00  A 
ATOM     49  CH2 TRP B   3       5.348 -41.647  -2.350  1.00 22.34 LIG 0.00  A 
ATOM     50  CZ3 TRP B   3       4.746 -40.424  -2.009  1.00 25.34 LIG 0.00  A 
ATOM     51  CE3 TRP B   3       5.277 -39.197  -2.483  1.00 25.10 LIG 0.01  A 
ENDBRANCH 41 42
ENDBRANCH 40 41
BRANCH 40 52
ATOM     52  N   TRP B   3       5.614 -35.070  -4.975  1.00 27.54 LIG-0.35  N 
ATOM     53  C   ALA B   2       5.036 -34.497  -6.037  1.00 31.13 LIG 0.24  C 
ATOM     54 O    ALA B   2       5.085 -35.019  -7.145  1.00 30.30 LIG-0.27  OA
ATOM     55 H    TRP B   3       5.626 -34.751  -4.176  1.00 27.54 LIG 0.16  HD
BRANCH 53 56
ATOM     56  CA  ALA B   2       4.296 -33.165  -5.834  1.00 33.66 LIG 0.17  C 
ATOM     57  CB  ALA B   2       5.280 -31.971  -5.738  1.00 33.40 LIG 0.04  C 
BRANCH 56 58
ATOM     58  N   ALA B   2       3.413 -33.136  -4.662  1.00 35.64 LIG-0.35  N 
ATOM     59 H    ALA B   2       3.688 -32.643  -4.013  1.00 35.64 LIG 0.16  HD
ATOM     60  C   ALA B   1       2.283 -33.839  -4.652  1.00 39.08 LIG 0.25  C 
ATOM     61 O    ALA B   1       2.115 -34.779  -5.398  1.00 40.54 LIG-0.27  OA
BRANCH 60 62
ATOM     62  CA  ALA B   1       1.186 -33.480  -3.618  1.00 41.05 LIG 0.27  C 
ATOM     63  CB  ALA B   1       0.312 -34.713  -3.292  1.00 41.95 LIG 0.05  C 
BRANCH 62 64
ATOM     64  N   ALA B   1       0.319 -32.360  -4.069  1.00 41.48 LIG-0.07  N 
ATOM     65 H3   ALA B   1       0.811 -31.763  -4.511  1.00 41.48 LIG 0.28  HD
ATOM     66 H2   ALA B   1      -0.055 -31.970  -3.362  1.00 41.48 LIG 0.28  HD
ATOM     67 H1   ALA B   1      -0.317 -32.673  -4.606  1.00 41.48 LIG 0.28  HD
ENDBRANCH 62 64
ENDBRANCH 60 62
ENDBRANCH 56 58
ENDBRANCH 53 56
ENDBRANCH 40 52
ENDBRANCH 37 40
ENDBRANCH 1 36
TORSDOF 23
ENDMDL
MODEL 2
USER: ADFR SOLUTION from run 59
USER: SCORE 22.416391 LL:  -6.040 LR: -17.879 RR:   0.000 FEB: -11.018
USER: RMSD 1.884750
USER: SEED 58
USER: STATUS 1 or 2 clusters left
USER: GENES 25
USER: genes 0 Translation |==|  0.51419 0.34415 0.70047
USER: genes 1 Rotation |==|  0.51959 0.52918 0.52707 0.99803
USER: genes 2 Torsion [N]-CA--C-[N] |==|  0.94769
USER: genes 3 Torsion [C]-N--CA-[CB] |==|  0.25180
USER: genes 4 Torsion [N]-CA--CB-[CG] |==|  0.71500
USER: genes 5 Torsion [CA]-CB--CG-[CD1] |==|  0.25411
USER: genes 6 Torsion [N]-CA--C-[N] |==|  0.47498
USER: genes 7 Torsion [C]-N--CA-[C] |==|  0.61130
USER: genes 8 Torsion [N]-CA--CB-[CG] |==|  0.18119
USER: genes 9 Torsion [CA]-CB--CG-[CD] |==|  0.23307
USER: genes 10 Torsion [CB]-CG--CD-[OE2] |==|  0.22185
USER: genes 11 Torsion [N]-CA--C-[N] |==|  0.42485
USER: genes 12 Torsion [C]-N--CA-[CB] |==|  0.81398
USER: genes 13 Torsion [N]-CA--C-[O] |==|  0.52870
USER: genes 14 Torsion [C]-CA--CB-[CG] |==|  0.20186
USER: genes 15 Torsion [CA]-CB--CG-[CD1] |==|  0.19286
USER: genes 16 Torsion [C]-CA--N-[C] |==|  0.75723
USER: genes 17 Torsion [N]-C--CA-[N] |==|  0.88406
USER: genes 18 Torsion [C]-CA--CB-[CG] |==|  0.10018
USER: genes 19 Torsion [CA]-CB--CG-[CD1] |==|  0.21757
USER: genes 20 Torsion [C]-CA--N-[C] |==|  0.83080
USER: genes 21 Torsion [N]-C--CA-[N] |==|  0.12320
USER: genes 22 Torsion [C]-CA--N-[C] |==|  0.16030
USER: genes 23 Torsion [N]-C--CA-[N] |==|  0.98661
USER: genes 24 Torsion [C]-CA--N-[H3] |==|  0.33466
ROOT
ATOM      1  CA  LEU B   4       3.221 -38.214  -5.339  1.00 25.55 LIG 0.18  C 
ENDROOT
BRANCH 1 2
ATOM      2  C   LEU B   4       2.305 -37.868  -6.518  1.00 26.13 LIG 0.24  C 
ATOM      3 O    LEU B   4       1.485 -38.692  -6.885  1.00 25.31 LIG-0.27  OA
ATOM      4  N   PHE B   5       2.451 -36.659  -7.082  1.00 26.68 LIG-0.35  N 
ATOM      5 H    PHE B   5       3.086 -36.110  -6.893  1.00 26.68 LIG 0.16  HD
BRANCH 4 6
ATOM      6  CA  PHE B   5       1.504 -36.173  -8.096  1.00 28.54 LIG 0.18  C 
BRANCH 6 7
ATOM      7  CB  PHE B   5       0.334 -35.389  -7.461  1.00 28.61 LIG 0.07  C 
BRANCH 7 8
ATOM      8  CG  PHE B   5      -0.944 -36.142  -7.362  1.00 26.86 LIG-0.06  A 
ATOM      9  CD1 PHE B   5      -1.256 -36.872  -6.238  1.00 26.13 LIG 0.01  A 
ATOM     10  CE1 PHE B   5      -2.462 -37.565  -6.149  1.00 23.59 LIG 0.00  A 
ATOM     11  CZ  PHE B   5      -3.398 -37.511  -7.211  1.00 25.19 LIG 0.00  A 
ATOM     12  CE2 PHE B   5      -3.065 -36.815  -8.353  1.00 26.30 LIG 0.00  A 
ATOM     13  CD2 PHE B   5      -1.859 -36.116  -8.416  1.00 27.99 LIG 0.01  A 
ENDBRANCH 7 8
ENDBRANCH 6 7
BRANCH 6 14
ATOM     14  C   PHE B   5       2.160 -35.280  -9.152  1.00 31.71 LIG 0.24  C 
ATOM     15  N   GLU B   6       1.413 -34.948 -10.209  1.00 34.73 LIG-0.35  N 
ATOM     16 H    GLU B   6       0.760 -35.430 -10.493  1.00 34.73 LIG 0.16  HD
ATOM     17 O    PHE B   5       3.346 -34.963  -9.025  1.00 30.66 LIG-0.27  OA
BRANCH 15 18
ATOM     18  CA  GLU B   6       1.632 -33.708 -11.008  1.00 38.89 LIG 0.18  C 
BRANCH 18 19
ATOM     19  CB  GLU B   6       2.475 -33.954 -12.265  1.00 39.10 LIG 0.04  C 
BRANCH 19 20
ATOM     20  CG  GLU B   6       1.777 -34.875 -13.301  1.00 43.96 LIG 0.12  C 
BRANCH 20 21
ATOM     21  CD  GLU B   6       0.796 -34.161 -14.243  1.00 49.39 LIG 0.17  C 
ATOM     22 OE1  GLU B   6      -0.435 -34.243 -14.052  1.00 53.88 LIG-0.65  OA
ATOM     23 OE2  GLU B   6       1.261 -33.532 -15.231  1.00 56.34 LIG-0.65  OA
ENDBRANCH 20 21
ENDBRANCH 19 20
ENDBRANCH 18 19
BRANCH 18 24
ATOM     24  C   GLU B   6       0.242 -33.102 -11.377  1.00 41.03 LIG 0.24  C 
ATOM     25 O    GLU B   6      -0.796 -33.815 -11.440  1.00 40.13 LIG-0.27  OA
ATOM     26  N   ALA B   7       0.242 -31.776 -11.570  1.00 43.76 LIG-0.35  N 
ATOM     27 H    ALA B   7       0.966 -31.313 -11.580  1.00 43.76 LIG 0.16  HD
BRANCH 26 28
ATOM     28  CA  ALA B   7      -0.990 -30.941 -11.790  1.00 45.80 LIG 0.16  C 
ATOM     29  CB  ALA B   7      -1.659 -31.302 -13.162  1.00 46.43 LIG 0.04  C 
BRANCH 28 30
ATOM     30  C   ALA B   7      -2.029 -31.108 -10.691  1.00 46.67 LIG 0.22  C 
ATOM     31 O    ALA B   7      -3.167 -30.631 -10.839  1.00 48.32 LIG-0.29  OA
ENDBRANCH 28 30
ENDBRANCH 26 28
ENDBRANCH 18 24
ENDBRANCH 15 18
ENDBRANCH 6 14
ENDBRANCH 4 6
ENDBRANCH 1 2
BRANCH 1 32
ATOM     32  CB  LEU B   4       2.398 -38.164  -4.068  1.00 24.11 LIG 0.04  C 
BRANCH 32 33
ATOM     33  CG  LEU B   4       1.411 -39.343  -3.911  1.00 25.40 LIG-0.02  C 
ATOM     34  CD2 LEU B   4       0.434 -38.958  -2.823  1.00 26.98 LIG 0.01  C 
ATOM     35  CD1 LEU B   4       2.038 -40.740  -3.646  1.00 25.06 LIG 0.01  C 
ENDBRANCH 32 33
ENDBRANCH 1 32
BRANCH 1 36
ATOM     36  N   LEU B   4       4.402 -37.380  -5.255  1.00 24.30 LIG-0.35  N 
ATOM     37  C   TRP B   3       5.518 -37.688  -5.911  1.00 25.24 LIG 0.24  C 
ATOM     38 O    TRP B   3       5.606 -38.659  -6.645  1.00 25.23 LIG-0.27  OA
ATOM     39 H    LEU B   4       4.314 -36.686  -4.754  1.00 24.30 LIG 0.16  HD
BRANCH 37 40
ATOM     40  CA  TRP B   3       6.740 -36.778  -5.675  1.00 26.39 LIG 0.18  C 
BRANCH 40 41
ATOM     41  CB  TRP B   3       7.440 -37.182  -4.377  1.00 26.78 LIG 0.07  C 
BRANCH 41 42
ATOM     42  CG  TRP B   3       7.395 -38.596  -4.190  1.00 25.50 LIG-0.03  A 
ATOM     43  CD1 TRP B   3       8.178 -39.519  -4.799  1.00 28.00 LIG 0.10  A 
ATOM     44  NE1 TRP B   3       7.827 -40.770  -4.396  1.00 26.39 LIG-0.36  N 
ATOM     45 HE1  TRP B   3       8.196 -41.502  -4.659  1.00 26.39 LIG 0.17  HD
ATOM     46  CE2 TRP B   3       6.798 -40.679  -3.509  1.00 23.90 LIG 0.04  A 
ATOM     47  CZ2 TRP B   3       6.102 -41.687  -2.838  1.00 23.10 LIG 0.03  A 
ATOM     48  CD2 TRP B   3       6.506 -39.314  -3.351  1.00 23.76 LIG-0.00  A 
ATOM     49  CH2 TRP B   3       5.119 -41.315  -1.983  1.00 22.34 LIG 0.00  A 
ATOM     50  CZ3 TRP B   3       4.783 -39.962  -1.806  1.00 25.34 LIG 0.00  A 
ATOM     51  CE3 TRP B   3       5.480 -38.944  -2.505  1.00 25.10 LIG 0.01  A 
ENDBRANCH 41 42
ENDBRANCH 40 41
BRANCH 40 52
ATOM     52  N   TRP B   3       6.318 -35.372  -5.649  1.00 27.54 LIG-0.35  N 
ATOM     53  C   ALA B   2       5.743 -34.865  -6.745  1.00 31.13 LIG 0.24  C 
ATOM     54 O    ALA B   2       5.585 -35.546  -7.752  1.00 30.30 LIG-0.27  OA
ATOM     55 H    TRP B   3       6.468 -34.946  -4.917  1.00 27.54 LIG 0.16  HD
BRANCH 53 56
ATOM     56  CA  ALA B   2       5.272 -33.402  -6.711  1.00 33.66 LIG 0.17  C 
ATOM     57  CB  ALA B   2       4.907 -32.885  -8.126  1.00 33.40 LIG 0.04  C 
BRANCH 56 58
ATOM     58  N   ALA B   2       6.232 -32.471  -6.107  1.00 35.64 LIG-0.35  N 
ATOM     59 H    ALA B   2       5.933 -32.027  -5.434  1.00 35.64 LIG 0.16  HD
ATOM     60  C   ALA B   1       7.463 -32.358  -6.601  1.00 39.08 LIG 0.25  C 
ATOM     61 O    ALA B   1       7.726 -32.705  -7.732  1.00 40.54 LIG-0.27  OA
BRANCH 60 62
ATOM     62  CA  ALA B   1       8.566 -31.710  -5.727  1.00 41.05 LIG 0.27  C 
ATOM     63  CB  ALA B   1       9.708 -32.714  -5.448  1.00 41.95 LIG 0.05  C 
BRANCH 62 64
ATOM     64  N   ALA B   1       8.039 -31.184  -4.440  1.00 41.48 LIG-0.07  N 
ATOM     65 H3   ALA B   1       8.451 -31.588  -3.763  1.00 41.48 LIG 0.28  HD
ATOM     66 H2   ALA B   1       7.164 -31.341  -4.390  1.00 41.48 LIG 0.28  HD
ATOM     67 H1   ALA B   1       8.185 -30.307  -4.395  1.00 41.48 LIG 0.28  HD
ENDBRANCH 62 64
ENDBRANCH 60 62
ENDBRANCH 56 58
ENDBRANCH 53 56
ENDBRANCH 40 52
ENDBRANCH 37 40
ENDBRANCH 1 36
TORSDOF 23
ENDMDL
MODEL 3
USER: ADFR SOLUTION from run 168
USER: SCORE 22.444104 LL:  -6.820 LR: -17.756 RR:   0.000 FEB: -10.895
USER: RMSD 3.285652
USER: SEED 167
USER: STATUS no improvement in best in 6 clusters for 5 generations
USER: GENES 25
USER: genes 0 Translation |==|  0.51305 0.34789 0.71180
USER: genes 1 Rotation |==|  0.48841 0.53235 0.55463 0.99582
USER: genes 2 Torsion [N]-CA--C-[N] |==|  0.88092
USER: genes 3 Torsion [C]-N--CA-[CB] |==|  0.17407
USER: genes 4 Torsion [N]-CA--CB-[CG] |==|  0.21489
USER: genes 5 Torsion [CA]-CB--CG-[CD1] |==|  0.78081
USER: genes 6 Torsion [N]-CA--C-[N] |==|  0.39702
USER: genes 7 Torsion [C]-N--CA-[C] |==|  0.47778
USER: genes 8 Torsion [N]-CA--CB-[CG] |==|  0.62664
USER: genes 9 Torsion [CA]-CB--CG-[CD] |==|  0.76381
USER: genes 10 Torsion [CB]-CG--CD-[OE2] |==|  0.30074
USER: genes 11 Torsion [N]-CA--C-[N] |==|  0.49393
USER: genes 12 Torsion [C]-N--CA-[CB] |==|  0.72787
USER: genes 13 Torsion [N]-CA--C-[O] |==|  0.32202
USER: genes 14 Torsion [C]-CA--CB-[CG] |==|  0.27511
USER: genes 15 Torsion [CA]-CB--CG-[CD1] |==|  0.64214
USER: genes 16 Torsion [C]-CA--N-[C] |==|  0.77654
USER: genes 17 Torsion [N]-C--CA-[N] |==|  0.90225
USER: genes 18 Torsion [C]-CA--CB-[CG] |==|  0.09087
USER: genes 19 Torsion [CA]-CB--CG-[CD1] |==|  0.23246
USER: genes 20 Torsion [C]-CA--N-[C] |==|  0.83242
USER: genes 21 Torsion [N]-C--CA-[N] |==|  0.90687
USER: genes 22 Torsion [C]-CA--N-[C] |==|  0.82548
USER: genes 23 Torsion [N]-C--CA-[N] |==|  0.73340
USER: genes 24 Torsion [C]-CA--N-[H3] |==|  0.92585
ROOT
ATOM      1  CA  LEU B   4       3.198 -38.135  -5.084  1.00 25.55 LIG 0.18  C 
ENDROOT
BRANCH 1 2
ATOM      2  C   LEU B   4       2.254 -38.041  -6.287  1.00 26.13 LIG 0.24  C 
ATOM      3 O    LEU B   4       1.881 -39.071  -6.822  1.00 25.31 LIG-0.27  OA
ATOM      4  N   PHE B   5       1.878 -36.815  -6.685  1.00 26.68 LIG-0.35  N 
ATOM      5 H    PHE B   5       2.209 -36.084  -6.376  1.00 26.68 LIG 0.16  HD
BRANCH 4 6
ATOM      6  CA  PHE B   5       0.841 -36.633  -7.711  1.00 28.54 LIG 0.18  C 
BRANCH 6 7
ATOM      7  CB  PHE B   5      -0.524 -37.194  -7.254  1.00 28.61 LIG 0.07  C 
BRANCH 7 8
ATOM      8  CG  PHE B   5      -1.265 -36.336  -6.293  1.00 26.86 LIG-0.06  A 
ATOM      9  CD1 PHE B   5      -0.936 -36.311  -4.957  1.00 26.13 LIG 0.01  A 
ATOM     10  CE1 PHE B   5      -1.630 -35.494  -4.067  1.00 23.59 LIG 0.00  A 
ATOM     11  CZ  PHE B   5      -2.675 -34.657  -4.528  1.00 25.19 LIG 0.00  A 
ATOM     12  CE2 PHE B   5      -3.031 -34.715  -5.858  1.00 26.30 LIG 0.00  A 
ATOM     13  CD2 PHE B   5      -2.315 -35.529  -6.736  1.00 27.99 LIG 0.01  A 
ENDBRANCH 7 8
ENDBRANCH 6 7
BRANCH 6 14
ATOM     14  C   PHE B   5       0.645 -35.169  -8.113  1.00 31.71 LIG 0.24  C 
ATOM     15  N   GLU B   6       0.386 -34.929  -9.402  1.00 34.73 LIG-0.35  N 
ATOM     16 H    GLU B   6       0.634 -35.453 -10.037  1.00 34.73 LIG 0.16  HD
ATOM     17 O    PHE B   5       0.798 -34.283  -7.269  1.00 30.66 LIG-0.27  OA
BRANCH 15 18
ATOM     18  CA  GLU B   6      -0.361 -33.728  -9.875  1.00 38.89 LIG 0.18  C 
BRANCH 18 19
ATOM     19  CB  GLU B   6       0.165 -32.424  -9.264  1.00 39.10 LIG 0.04  C 
BRANCH 19 20
ATOM     20  CG  GLU B   6      -0.962 -31.487  -8.754  1.00 43.96 LIG 0.12  C 
BRANCH 20 21
ATOM     21  CD  GLU B   6      -1.573 -30.569  -9.824  1.00 49.39 LIG 0.17  C 
ATOM     22 OE1  GLU B   6      -0.937 -29.582 -10.245  1.00 53.88 LIG-0.65  OA
ATOM     23 OE2  GLU B   6      -2.740 -30.813 -10.230  1.00 56.34 LIG-0.65  OA
ENDBRANCH 20 21
ENDBRANCH 19 20
ENDBRANCH 18 19
BRANCH 18 24
ATOM     24  C   GLU B   6      -0.293 -33.681 -11.434  1.00 41.03 LIG 0.24  C 
ATOM     25 O    GLU B   6       0.319 -34.563 -12.096  1.00 40.13 LIG-0.27  OA
ATOM     26  N   ALA B   7      -0.967 -32.669 -11.995  1.00 43.76 LIG-0.35  N 
ATOM     27 H    ALA B   7      -1.331 -32.044 -11.528  1.00 43.76 LIG 0.16  HD
BRANCH 26 28
ATOM     28  CA  ALA B   7      -1.175 -32.491 -13.474  1.00 45.80 LIG 0.16  C 
ATOM     29  CB  ALA B   7      -0.127 -31.480 -14.057  1.00 46.43 LIG 0.04  C 
BRANCH 28 30
ATOM     30  C   ALA B   7      -1.070 -33.794 -14.252  1.00 46.67 LIG 0.22  C 
ATOM     31 O    ALA B   7      -2.063 -34.236 -14.853  1.00 48.32 LIG-0.29  OA
ENDBRANCH 28 30
ENDBRANCH 26 28
ENDBRANCH 18 24
ENDBRANCH 15 18
ENDBRANCH 6 14
ENDBRANCH 4 6
ENDBRANCH 1 2
BRANCH 1 32
ATOM     32  CB  LEU B   4       2.369 -38.033  -3.820  1.00 24.11 LIG 0.04  C 
BRANCH 32 33
ATOM     33  CG  LEU B   4       2.055 -39.396  -3.162  1.00 25.40 LIG-0.02  C 
ATOM     34  CD2 LEU B   4       2.630 -40.464  -4.065  1.00 26.98 LIG 0.01  C 
ATOM     35  CD1 LEU B   4       0.564 -39.675  -2.824  1.00 25.06 LIG 0.01  C 
ENDBRANCH 32 33
ENDBRANCH 1 32
BRANCH 1 36
ATOM     36  N   LEU B   4       4.273 -37.164  -5.110  1.00 24.30 LIG-0.35  N 
ATOM     37  C   TRP B   3       5.365 -37.355  -5.846  1.00 25.24 LIG 0.24  C 
ATOM     38 O    TRP B   3       5.513 -38.329  -6.566  1.00 25.23 LIG-0.27  OA
ATOM     39 H    LEU B   4       4.140 -36.472  -4.616  1.00 24.30 LIG 0.16  HD
BRANCH 37 40
ATOM     40  CA  TRP B   3       6.482 -36.299  -5.725  1.00 26.39 LIG 0.18  C 
BRANCH 40 41
ATOM     41  CB  TRP B   3       7.419 -36.672  -4.575  1.00 26.78 LIG 0.07  C 
BRANCH 41 42
ATOM     42  CG  TRP B   3       7.524 -38.088  -4.439  1.00 25.50 LIG-0.03  A 
ATOM     43  CD1 TRP B   3       8.345 -38.910  -5.136  1.00 28.00 LIG 0.10  A 
ATOM     44  NE1 TRP B   3       8.146 -40.202  -4.756  1.00 26.39 LIG-0.36  N 
ATOM     45 HE1  TRP B   3       8.563 -40.885  -5.072  1.00 26.39 LIG 0.17  HD
ATOM     46  CE2 TRP B   3       7.182 -40.239  -3.795  1.00 23.90 LIG 0.04  A 
ATOM     47  CZ2 TRP B   3       6.639 -41.332  -3.115  1.00 23.10 LIG 0.03  A 
ATOM     48  CD2 TRP B   3       6.774 -38.915  -3.566  1.00 23.76 LIG-0.00  A 
ATOM     49  CH2 TRP B   3       5.691 -41.084  -2.179  1.00 22.34 LIG 0.00  A 
ATOM     50  CZ3 TRP B   3       5.241 -39.777  -1.928  1.00 25.34 LIG 0.00  A 
ATOM     51  CE3 TRP B   3       5.783 -38.674  -2.636  1.00 25.10 LIG 0.01  A 
ENDBRANCH 41 42
ENDBRANCH 40 41
BRANCH 40 52
ATOM     52  N   TRP B   3       5.893 -34.968  -5.535  1.00 27.54 LIG-0.35  N 
ATOM     53  C   ALA B   2       5.086 -34.492  -6.489  1.00 31.13 LIG 0.24  C 
ATOM     54 O    ALA B   2       4.855 -35.139  -7.505  1.00 30.30 LIG-0.27  OA
ATOM     55 H    TRP B   3       6.104 -34.562  -4.806  1.00 27.54 LIG 0.16  HD
BRANCH 53 56
ATOM     56  CA  ALA B   2       4.442 -33.112  -6.280  1.00 33.66 LIG 0.17  C 
ATOM     57  CB  ALA B   2       5.328 -31.975  -6.849  1.00 33.40 LIG 0.04  C 
BRANCH 56 58
ATOM     58  N   ALA B   2       4.123 -32.800  -4.882  1.00 35.64 LIG-0.35  N 
ATOM     59 H    ALA B   2       4.544 -32.125  -4.555  1.00 35.64 LIG 0.16  HD
ATOM     60  C   ALA B   1       3.239 -33.536  -4.211  1.00 39.08 LIG 0.25  C 
ATOM     61 O    ALA B   1       2.953 -34.660  -4.564  1.00 40.54 LIG-0.27  OA
BRANCH 60 62
ATOM     62  CA  ALA B   1       2.613 -32.962  -2.916  1.00 41.05 LIG 0.27  C 
ATOM     63  CB  ALA B   1       2.587 -31.417  -2.956  1.00 41.95 LIG 0.05  C 
BRANCH 62 64
ATOM     64  N   ALA B   1       3.319 -33.417  -1.689  1.00 41.48 LIG-0.07  N 
ATOM     65 H3   ALA B   1       3.707 -34.203  -1.844  1.00 41.48 LIG 0.28  HD
ATOM     66 H2   ALA B   1       2.733 -33.501  -1.024  1.00 41.48 LIG 0.28  HD
ATOM     67 H1   ALA B   1       3.939 -32.821  -1.464  1.00 41.48 LIG 0.28  HD
ENDBRANCH 62 64
ENDBRANCH 60 62
ENDBRANCH 56 58
ENDBRANCH 53 56
ENDBRANCH 40 52
ENDBRANCH 37 40
ENDBRANCH 1 36
TORSDOF 23
ENDMDL
MODEL 4
USER: ADFR SOLUTION from run 189
USER: SCORE 22.459835 LL:  -6.995 LR: -17.280 RR:   0.000 FEB: -10.419
USER: RMSD 2.911072
USER: SEED 188
USER: STATUS 1 or 2 clusters left
USER: GENES 25
USER: genes 0 Translation |==|  0.49798 0.34476 0.70353
USER: genes 1 Rotation |==|  0.49563 0.46971 0.56142 0.99527
USER: genes 2 Torsion [N]-CA--C-[N] |==|  0.03286
USER: genes 3 Torsion [C]-N--CA-[CB] |==|  0.24339
USER: genes 4 Torsion [N]-CA--CB-[CG] |==|  0.79643
USER: genes 5 Torsion [CA]-CB--CG-[CD1] |==|  0.23417
USER: genes 6 Torsion [N]-CA--C-[N] |==|  0.37896
USER: genes 7 Torsion [C]-N--CA-[C] |==|  0.82835
USER: genes 8 Torsion [N]-CA--CB-[CG] |==|  0.52075
USER: genes 9 Torsion [CA]-CB--CG-[CD] |==|  0.54898
USER: genes 10 Torsion [CB]-CG--CD-[OE2] |==|  0.46269
USER: genes 11 Torsion [N]-CA--C-[N] |==|  0.83828
USER: genes 12 Torsion [C]-N--CA-[CB] |==|  0.35045
USER: genes 13 Torsion [N]-CA--C-[O] |==|  0.75080
USER: genes 14 Torsion [C]-CA--CB-[CG] |==|  0.20705
USER: genes 15 Torsion [CA]-CB--CG-[CD1] |==|  0.15434
USER: genes 16 Torsion [C]-CA--N-[C] |==|  0.76667
USER: genes 17 Torsion [N]-C--CA-[N] |==|  0.92161
USER: genes 18 Torsion [C]-CA--CB-[CG] |==|  0.10586
USER: genes 19 Torsion [CA]-CB--CG-[CD1] |==|  0.23356
USER: genes 20 Torsion [C]-CA--N-[C] |==|  0.82971
USER: genes 21 Torsion [N]-C--CA-[N] |==|  0.88041
USER: genes 22 Torsion [C]-CA--N-[C] |==|  0.79830
USER: genes 23 Torsion [N]-C--CA-[N] |==|  0.30253
USER: genes 24 Torsion [C]-CA--N-[H3] |==|  0.17880
ROOT
ATOM      1  CA  LEU B   4       2.905 -38.201  -5.270  1.00 25.55 LIG 0.18  C 
ENDROOT
BRANCH 1 2
ATOM      2  C   LEU B   4       2.276 -38.056  -6.660  1.00 26.13 LIG 0.24  C 
ATOM      3 O    LEU B   4       1.268 -38.691  -6.917  1.00 25.31 LIG-0.27  OA
ATOM      4  N   PHE B   5       2.872 -37.220  -7.525  1.00 26.68 LIG-0.35  N 
ATOM      5 H    PHE B   5       3.632 -36.842  -7.387  1.00 26.68 LIG 0.16  HD
BRANCH 4 6
ATOM      6  CA  PHE B   5       2.244 -36.882  -8.811  1.00 28.54 LIG 0.18  C 
BRANCH 6 7
ATOM      7  CB  PHE B   5       1.289 -35.675  -8.685  1.00 28.61 LIG 0.07  C 
BRANCH 7 8
ATOM      8  CG  PHE B   5       0.006 -35.960  -7.990  1.00 26.86 LIG-0.06  A 
ATOM      9  CD1 PHE B   5      -0.084 -35.925  -6.617  1.00 26.13 LIG 0.01  A 
ATOM     10  CE1 PHE B   5      -1.293 -36.183  -5.975  1.00 23.59 LIG 0.00  A 
ATOM     11  CZ  PHE B   5      -2.459 -36.465  -6.729  1.00 25.19 LIG 0.00  A 
ATOM     12  CE2 PHE B   5      -2.357 -36.542  -8.101  1.00 26.30 LIG 0.00  A 
ATOM     13  CD2 PHE B   5      -1.140 -36.266  -8.726  1.00 27.99 LIG 0.01  A 
ENDBRANCH 7 8
ENDBRANCH 6 7
BRANCH 6 14
ATOM     14  C   PHE B   5       3.261 -36.574  -9.913  1.00 31.71 LIG 0.24  C 
ATOM     15  N   GLU B   6       3.025 -37.105 -11.116  1.00 34.73 LIG-0.35  N 
ATOM     16 H    GLU B   6       2.568 -37.825 -11.231  1.00 34.73 LIG 0.16  HD
ATOM     17 O    PHE B   5       4.272 -35.920  -9.639  1.00 30.66 LIG-0.27  OA
BRANCH 15 18
ATOM     18  CA  GLU B   6       3.527 -36.507 -12.386  1.00 38.89 LIG 0.18  C 
BRANCH 18 19
ATOM     19  CB  GLU B   6       3.225 -37.378 -13.612  1.00 39.10 LIG 0.04  C 
BRANCH 19 20
ATOM     20  CG  GLU B   6       3.899 -36.863 -14.912  1.00 43.96 LIG 0.12  C 
BRANCH 20 21
ATOM     21  CD  GLU B   6       3.306 -37.424 -16.213  1.00 49.39 LIG 0.17  C 
ATOM     22 OE1  GLU B   6       2.570 -38.431 -16.187  1.00 53.88 LIG-0.65  OA
ATOM     23 OE2  GLU B   6       3.615 -36.872 -17.302  1.00 56.34 LIG-0.65  OA
ENDBRANCH 20 21
ENDBRANCH 19 20
ENDBRANCH 18 19
BRANCH 18 24
ATOM     24  C   GLU B   6       2.906 -35.084 -12.546  1.00 41.03 LIG 0.24  C 
ATOM     25 O    GLU B   6       3.627 -34.060 -12.695  1.00 40.13 LIG-0.27  OA
ATOM     26  N   ALA B   7       1.567 -35.055 -12.559  1.00 43.76 LIG-0.35  N 
ATOM     27 H    ALA B   7       1.090 -35.753 -12.400  1.00 43.76 LIG 0.16  HD
BRANCH 26 28
ATOM     28  CA  ALA B   7       0.738 -33.833 -12.845  1.00 45.80 LIG 0.16  C 
ATOM     29  CB  ALA B   7      -0.282 -34.121 -14.001  1.00 46.43 LIG 0.04  C 
BRANCH 28 30
ATOM     30  C   ALA B   7      -0.037 -33.340 -11.633  1.00 46.67 LIG 0.22  C 
ATOM     31 O    ALA B   7      -1.181 -33.773 -11.413  1.00 48.32 LIG-0.29  OA
ENDBRANCH 28 30
ENDBRANCH 26 28
ENDBRANCH 18 24
ENDBRANCH 15 18
ENDBRANCH 6 14
ENDBRANCH 4 6
ENDBRANCH 1 2
BRANCH 1 32
ATOM     32  CB  LEU B   4       1.791 -38.195  -4.243  1.00 24.11 LIG 0.04  C 
BRANCH 32 33
ATOM     33  CG  LEU B   4       0.978 -39.509  -4.189  1.00 25.40 LIG-0.02  C 
ATOM     34  CD2 LEU B   4      -0.095 -39.321  -3.141  1.00 26.98 LIG 0.01  C 
ATOM     35  CD1 LEU B   4       1.787 -40.815  -3.951  1.00 25.06 LIG 0.01  C 
ENDBRANCH 32 33
ENDBRANCH 1 32
BRANCH 1 36
ATOM     36  N   LEU B   4       3.916 -37.204  -4.981  1.00 24.30 LIG-0.35  N 
ATOM     37  C   TRP B   3       5.176 -37.359  -5.380  1.00 25.24 LIG 0.24  C 
ATOM     38 O    TRP B   3       5.548 -38.317  -6.036  1.00 25.23 LIG-0.27  OA
ATOM     39 H    LEU B   4       3.630 -36.524  -4.540  1.00 24.30 LIG 0.16  HD
BRANCH 37 40
ATOM     40  CA  TRP B   3       6.184 -36.279  -4.937  1.00 26.39 LIG 0.18  C 
BRANCH 40 41
ATOM     41  CB  TRP B   3       6.894 -36.730  -3.660  1.00 26.78 LIG 0.07  C 
BRANCH 41 42
ATOM     42  CG  TRP B   3       7.162 -38.132  -3.692  1.00 25.50 LIG-0.03  A 
ATOM     43  CD1 TRP B   3       8.223 -38.740  -4.274  1.00 28.00 LIG 0.10  A 
ATOM     44  NE1 TRP B   3       8.127 -40.090  -4.128  1.00 26.39 LIG-0.36  N 
ATOM     45 HE1  TRP B   3       8.695 -40.666  -4.422  1.00 26.39 LIG 0.17  HD
ATOM     46  CE2 TRP B   3       6.989 -40.382  -3.440  1.00 23.90 LIG 0.04  A 
ATOM     47  CZ2 TRP B   3       6.465 -41.621  -3.062  1.00 23.10 LIG 0.03  A 
ATOM     48  CD2 TRP B   3       6.359 -39.163  -3.143  1.00 23.76 LIG-0.00  A 
ATOM     49  CH2 TRP B   3       5.308 -41.628  -2.356  1.00 22.34 LIG 0.00  A 
ATOM     50  CZ3 TRP B   3       4.636 -40.432  -2.050  1.00 25.34 LIG 0.00  A 
ATOM     51  CE3 TRP B   3       5.163 -39.179  -2.454  1.00 25.10 LIG 0.01  A 
ENDBRANCH 41 42
ENDBRANCH 40 41
BRANCH 40 52
ATOM     52  N   TRP B   3       5.494 -34.997  -4.750  1.00 27.54 LIG-0.35  N 
ATOM     53  C   ALA B   2       4.883 -34.448  -5.805  1.00 31.13 LIG 0.24  C 
ATOM     54 O    ALA B   2       4.912 -34.988  -6.906  1.00 30.30 LIG-0.27  OA
ATOM     55 H    TRP B   3       5.521 -34.666  -3.956  1.00 27.54 LIG 0.16  HD
BRANCH 53 56
ATOM     56  CA  ALA B   2       4.133 -33.122  -5.606  1.00 33.66 LIG 0.17  C 
ATOM     57  CB  ALA B   2       5.099 -31.910  -5.618  1.00 33.40 LIG 0.04  C 
BRANCH 56 58
ATOM     58  N   ALA B   2       3.325 -33.062  -4.382  1.00 35.64 LIG-0.35  N 
ATOM     59 H    ALA B   2       3.641 -32.557  -3.762  1.00 35.64 LIG 0.16  HD
ATOM     60  C   ALA B   1       2.193 -33.757  -4.287  1.00 39.08 LIG 0.25  C 
ATOM     61 O    ALA B   1       1.974 -34.712  -5.000  1.00 40.54 LIG-0.27  OA
BRANCH 60 62
ATOM     62  CA  ALA B   1       1.165 -33.370  -3.195  1.00 41.05 LIG 0.27  C 
ATOM     63  CB  ALA B   1       0.766 -34.602  -2.352  1.00 41.95 LIG 0.05  C 
BRANCH 62 64
ATOM     64  N   ALA B   1      -0.056 -32.735  -3.759  1.00 41.48 LIG-0.07  N 
ATOM     65 H3   ALA B   1      -0.487 -33.323  -4.270  1.00 41.48 LIG 0.28  HD
ATOM     66 H2   ALA B   1       0.176 -32.030  -4.250  1.00 41.48 LIG 0.28  HD
ATOM     67 H1   ALA B   1      -0.588 -32.474  -3.097  1.00 41.48 LIG 0.28  HD
ENDBRANCH 62 64
ENDBRANCH 60 62
ENDBRANCH 56 58
ENDBRANCH 53 56
ENDBRANCH 40 52
ENDBRANCH 37 40
ENDBRANCH 1 36
TORSDOF 23
ENDMDL
MODEL 5
USER: ADFR SOLUTION from run 140
USER: SCORE 23.051114 LL:  -7.887 LR: -16.824 RR:   0.000 FEB:  -9.963
USER: RMSD 3.258951
USER: SEED 139
USER: STATUS searching
USER: GENES 25
USER: genes 0 Translation |==|  0.49002 0.31866 0.72400
USER: genes 1 Rotation |==|  0.51241 0.48892 0.57992 0.99329
USER: genes 2 Torsion [N]-CA--C-[N] |==|  0.97722
USER: genes 3 Torsion [C]-N--CA-[CB] |==|  0.17179
USER: genes 4 Torsion [N]-CA--CB-[CG] |==|  0.07054
USER: genes 5 Torsion [CA]-CB--CG-[CD1] |==|  0.16461
USER: genes 6 Torsion [N]-CA--C-[N] |==|  0.59459
USER: genes 7 Torsion [C]-N--CA-[C] |==|  0.57854
USER: genes 8 Torsion [N]-CA--CB-[CG] |==|  0.14980
USER: genes 9 Torsion [CA]-CB--CG-[CD] |==|  0.23411
USER: genes 10 Torsion [CB]-CG--CD-[OE2] |==|  0.11643
USER: genes 11 Torsion [N]-CA--C-[N] |==|  0.52778
USER: genes 12 Torsion [C]-N--CA-[CB] |==|  0.36946
USER: genes 13 Torsion [N]-CA--C-[O] |==|  0.42820
USER: genes 14 Torsion [C]-CA--CB-[CG] |==|  0.19714
USER: genes 15 Torsion [CA]-CB--CG-[CD1] |==|  0.16662
USER: genes 16 Torsion [C]-CA--N-[C] |==|  0.79495
USER: genes 17 Torsion [N]-C--CA-[N] |==|  0.90544
USER: genes 18 Torsion [C]-CA--CB-[CG] |==|  0.09686
USER: genes 19 Torsion [CA]-CB--CG-[CD1] |==|  0.24087
USER: genes 20 Torsion [C]-CA--N-[C] |==|  0.84250
USER: genes 21 Torsion [N]-C--CA-[N] |==|  0.51984
USER: genes 22 Torsion [C]-CA--N-[C] |==|  0.58787
USER: genes 23 Torsion [N]-C--CA-[N] |==|  0.12428
USER: genes 24 Torsion [C]-CA--N-[H3] |==|  0.16525
ROOT
ATOM      1  CA  LEU B   4       2.749 -38.749  -4.810  1.00 25.55 LIG 0.18  C 
ENDROOT
BRANCH 1 2
ATOM      2  C   LEU B   4       1.994 -38.586  -6.133  1.00 26.13 LIG 0.24  C 
ATOM      3 O    LEU B   4       1.275 -39.494  -6.513  1.00 25.31 LIG-0.27  OA
ATOM      4  N   PHE B   5       2.161 -37.436  -6.804  1.00 26.68 LIG-0.35  N 
ATOM      5 H    PHE B   5       2.736 -36.832  -6.593  1.00 26.68 LIG 0.16  HD
BRANCH 4 6
ATOM      6  CA  PHE B   5       1.344 -37.119  -7.985  1.00 28.54 LIG 0.18  C 
BRANCH 6 7
ATOM      7  CB  PHE B   5      -0.158 -37.026  -7.637  1.00 28.61 LIG 0.07  C 
BRANCH 7 8
ATOM      8  CG  PHE B   5      -0.454 -36.678  -6.222  1.00 26.86 LIG-0.06  A 
ATOM      9  CD1 PHE B   5      -0.001 -35.503  -5.667  1.00 26.13 LIG 0.01  A 
ATOM     10  CE1 PHE B   5      -0.294 -35.181  -4.344  1.00 23.59 LIG 0.00  A 
ATOM     11  CZ  PHE B   5      -1.082 -36.051  -3.552  1.00 25.19 LIG 0.00  A 
ATOM     12  CE2 PHE B   5      -1.497 -37.247  -4.096  1.00 26.30 LIG 0.00  A 
ATOM     13  CD2 PHE B   5      -1.206 -37.545  -5.428  1.00 27.99 LIG 0.01  A 
ENDBRANCH 7 8
ENDBRANCH 6 7
BRANCH 6 14
ATOM     14  C   PHE B   5       1.758 -35.813  -8.668  1.00 31.71 LIG 0.24  C 
ATOM     15  N   GLU B   6       0.783 -35.089  -9.225  1.00 34.73 LIG-0.35  N 
ATOM     16 H    GLU B   6       0.046 -35.431  -9.507  1.00 34.73 LIG 0.16  HD
ATOM     17 O    PHE B   5       2.955 -35.518  -8.737  1.00 30.66 LIG-0.27  OA
BRANCH 15 18
ATOM     18  CA  GLU B   6       0.869 -33.613  -9.417  1.00 38.89 LIG 0.18  C 
BRANCH 18 19
ATOM     19  CB  GLU B   6       1.595 -33.224 -10.711  1.00 39.10 LIG 0.04  C 
BRANCH 19 20
ATOM     20  CG  GLU B   6       0.997 -33.897 -11.975  1.00 43.96 LIG 0.12  C 
BRANCH 20 21
ATOM     21  CD  GLU B   6      -0.210 -33.168 -12.585  1.00 49.39 LIG 0.17  C 
ATOM     22 OE1  GLU B   6      -1.178 -33.816 -13.031  1.00 53.88 LIG-0.65  OA
ATOM     23 OE2  GLU B   6      -0.177 -31.911 -12.663  1.00 56.34 LIG-0.65  OA
ENDBRANCH 20 21
ENDBRANCH 19 20
ENDBRANCH 18 19
BRANCH 18 24
ATOM     24  C   GLU B   6      -0.576 -33.022  -9.389  1.00 41.03 LIG 0.24  C 
ATOM     25 O    GLU B   6      -1.563 -33.705  -9.004  1.00 40.13 LIG-0.27  OA
ATOM     26  N   ALA B   7      -0.664 -31.738  -9.758  1.00 43.76 LIG-0.35  N 
ATOM     27 H    ALA B   7       0.008 -31.302 -10.073  1.00 43.76 LIG 0.16  HD
BRANCH 26 28
ATOM     28  CA  ALA B   7      -1.914 -30.904  -9.676  1.00 45.80 LIG 0.16  C 
ATOM     29  CB  ALA B   7      -1.602 -29.512  -9.025  1.00 46.43 LIG 0.04  C 
BRANCH 28 30
ATOM     30  C   ALA B   7      -2.563 -30.667 -11.031  1.00 46.67 LIG 0.22  C 
ATOM     31 O    ALA B   7      -3.783 -30.441 -11.100  1.00 48.32 LIG-0.29  OA
ENDBRANCH 28 30
ENDBRANCH 26 28
ENDBRANCH 18 24
ENDBRANCH 15 18
ENDBRANCH 6 14
ENDBRANCH 4 6
ENDBRANCH 1 2
BRANCH 1 32
ATOM     32  CB  LEU B   4       1.732 -38.883  -3.696  1.00 24.11 LIG 0.04  C 
BRANCH 32 33
ATOM     33  CG  LEU B   4       0.966 -40.226  -3.702  1.00 25.40 LIG-0.02  C 
ATOM     34  CD2 LEU B   4      -0.090 -40.136  -2.623  1.00 26.98 LIG 0.01  C 
ATOM     35  CD1 LEU B   4       1.823 -41.513  -3.554  1.00 25.06 LIG 0.01  C 
ENDBRANCH 32 33
ENDBRANCH 1 32
BRANCH 1 36
ATOM     36  N   LEU B   4       3.704 -37.691  -4.550  1.00 24.30 LIG-0.35  N 
ATOM     37  C   TRP B   3       4.857 -37.617  -5.211  1.00 25.24 LIG 0.24  C 
ATOM     38 O    TRP B   3       5.163 -38.404  -6.092  1.00 25.23 LIG-0.27  OA
ATOM     39 H    LEU B   4       3.460 -37.131  -3.944  1.00 24.30 LIG 0.16  HD
BRANCH 37 40
ATOM     40  CA  TRP B   3       5.834 -36.502  -4.788  1.00 26.39 LIG 0.18  C 
BRANCH 40 41
ATOM     41  CB  TRP B   3       6.749 -37.015  -3.676  1.00 26.78 LIG 0.07  C 
BRANCH 41 42
ATOM     42  CG  TRP B   3       7.054 -38.397  -3.860  1.00 25.50 LIG-0.03  A 
ATOM     43  CD1 TRP B   3       8.060 -38.912  -4.607  1.00 28.00 LIG 0.10  A 
ATOM     44  NE1 TRP B   3       8.022 -40.272  -4.571  1.00 26.39 LIG-0.36  N 
ATOM     45 HE1  TRP B   3       8.569 -40.798  -4.976  1.00 26.39 LIG 0.17  HD
ATOM     46  CE2 TRP B   3       6.977 -40.666  -3.792  1.00 23.90 LIG 0.04  A 
ATOM     47  CZ2 TRP B   3       6.537 -41.952  -3.469  1.00 23.10 LIG 0.03  A 
ATOM     48  CD2 TRP B   3       6.349 -39.502  -3.320  1.00 23.76 LIG-0.00  A 
ATOM     49  CH2 TRP B   3       5.467 -42.064  -2.645  1.00 22.34 LIG 0.00  A 
ATOM     50  CZ3 TRP B   3       4.798 -40.926  -2.162  1.00 25.34 LIG 0.00  A 
ATOM     51  CE3 TRP B   3       5.239 -39.624  -2.509  1.00 25.10 LIG 0.01  A 
ENDBRANCH 41 42
ENDBRANCH 40 41
BRANCH 40 52
ATOM     52  N   TRP B   3       5.083 -35.313  -4.367  1.00 27.54 LIG-0.35  N 
ATOM     53  C   ALA B   2       4.219 -34.772  -5.233  1.00 31.13 LIG 0.24  C 
ATOM     54 O    ALA B   2       4.067 -35.242  -6.355  1.00 30.30 LIG-0.27  OA
ATOM     55 H    TRP B   3       5.244 -35.026  -3.572  1.00 27.54 LIG 0.16  HD
BRANCH 53 56
ATOM     56  CA  ALA B   2       3.408 -33.545  -4.785  1.00 33.66 LIG 0.17  C 
ATOM     57  CB  ALA B   2       2.744 -33.772  -3.403  1.00 33.40 LIG 0.04  C 
BRANCH 56 58
ATOM     58  N   ALA B   2       2.373 -33.124  -5.736  1.00 35.64 LIG-0.35  N 
ATOM     59 H    ALA B   2       2.020 -33.761  -6.194  1.00 35.64 LIG 0.16  HD
ATOM     60  C   ALA B   1       2.041 -31.840  -5.846  1.00 39.08 LIG 0.25  C 
ATOM     61 O    ALA B   1       2.785 -30.959  -5.474  1.00 40.54 LIG-0.27  OA
BRANCH 60 62
ATOM     62  CA  ALA B   1       0.697 -31.468  -6.522  1.00 41.05 LIG 0.27  C 
ATOM     63  CB  ALA B   1       0.356 -29.979  -6.286  1.00 41.95 LIG 0.05  C 
BRANCH 62 64
ATOM     64  N   ALA B   1      -0.431 -32.318  -6.057  1.00 41.48 LIG-0.07  N 
ATOM     65 H3   ALA B   1      -0.527 -32.228  -5.177  1.00 41.48 LIG 0.28  HD
ATOM     66 H2   ALA B   1      -0.261 -33.170  -6.252  1.00 41.48 LIG 0.28  HD
ATOM     67 H1   ALA B   1      -1.181 -32.065  -6.464  1.00 41.48 LIG 0.28  HD
ENDBRANCH 62 64
ENDBRANCH 60 62
ENDBRANCH 56 58
ENDBRANCH 53 56
ENDBRANCH 40 52
ENDBRANCH 37 40
ENDBRANCH 1 36
TORSDOF 23
ENDMDL
MODEL 6
USER: ADFR SOLUTION from run 75
USER: SCORE 22.390319 LL:  -7.111 LR: -16.659 RR:   0.000 FEB:  -9.798
USER: RMSD 3.715243
USER: SEED 74
USER: STATUS no improvement in best in 2 clusters for 5 generations
USER: GENES 25
USER: genes 0 Translation |==|  0.50407 0.35121 0.67960
USER: genes 1 Rotation |==|  0.57347 0.53188 0.56734 0.98893
USER: genes 2 Torsion [N]-CA--C-[N] |==|  0.98995
USER: genes 3 Torsion [C]-N--CA-[CB] |==|  0.22465
USER: genes 4 Torsion [N]-CA--CB-[CG] |==|  0.72678
USER: genes 5 Torsion [CA]-CB--CG-[CD1] |==|  0.80320
USER: genes 6 Torsion [N]-CA--C-[N] |==|  0.40311
USER: genes 7 Torsion [C]-N--CA-[C] |==|  0.17202
USER: genes 8 Torsion [N]-CA--CB-[CG] |==|  0.69045
USER: genes 9 Torsion [CA]-CB--CG-[CD] |==|  0.43293
USER: genes 10 Torsion [CB]-CG--CD-[OE2] |==|  0.48477
USER: genes 11 Torsion [N]-CA--C-[N] |==|  0.08191
USER: genes 12 Torsion [C]-N--CA-[CB] |==|  0.35680
USER: genes 13 Torsion [N]-CA--C-[O] |==|  0.06001
USER: genes 14 Torsion [C]-CA--CB-[CG] |==|  0.19948
USER: genes 15 Torsion [CA]-CB--CG-[CD1] |==|  0.31841
USER: genes 16 Torsion [C]-CA--N-[C] |==|  0.70000
USER: genes 17 Torsion [N]-C--CA-[N] |==|  0.92229
USER: genes 18 Torsion [C]-CA--CB-[CG] |==|  0.10094
USER: genes 19 Torsion [CA]-CB--CG-[CD1] |==|  0.21854
USER: genes 20 Torsion [C]-CA--N-[C] |==|  0.83630
USER: genes 21 Torsion [N]-C--CA-[N] |==|  0.87480
USER: genes 22 Torsion [C]-CA--N-[C] |==|  0.78090
USER: genes 23 Torsion [N]-C--CA-[N] |==|  0.29641
USER: genes 24 Torsion [C]-CA--N-[H3] |==|  0.23447
ROOT
ATOM      1  CA  LEU B   4       3.023 -38.066  -5.809  1.00 25.55 LIG 0.18  C 
ENDROOT
BRANCH 1 2
ATOM      2  C   LEU B   4       2.026 -37.609  -6.879  1.00 26.13 LIG 0.24  C 
ATOM      3 O    LEU B   4       1.140 -38.374  -7.218  1.00 25.31 LIG-0.27  OA
ATOM      4  N   PHE B   5       2.180 -36.375  -7.383  1.00 26.68 LIG-0.35  N 
ATOM      5 H    PHE B   5       2.854 -35.866  -7.220  1.00 26.68 LIG 0.16  HD
BRANCH 4 6
ATOM      6  CA  PHE B   5       1.172 -35.788  -8.278  1.00 28.54 LIG 0.18  C 
BRANCH 6 7
ATOM      7  CB  PHE B   5      -0.025 -35.207  -7.494  1.00 28.61 LIG 0.07  C 
BRANCH 7 8
ATOM      8  CG  PHE B   5      -1.215 -36.094  -7.418  1.00 26.86 LIG-0.06  A 
ATOM      9  CD1 PHE B   5      -1.995 -36.337  -8.525  1.00 26.13 LIG 0.01  A 
ATOM     10  CE1 PHE B   5      -3.102 -37.179  -8.446  1.00 23.59 LIG 0.00  A 
ATOM     11  CZ  PHE B   5      -3.431 -37.818  -7.225  1.00 25.19 LIG 0.00  A 
ATOM     12  CE2 PHE B   5      -2.675 -37.540  -6.108  1.00 26.30 LIG 0.00  A 
ATOM     13  CD2 PHE B   5      -1.561 -36.704  -6.211  1.00 27.99 LIG 0.01  A 
ENDBRANCH 7 8
ENDBRANCH 6 7
BRANCH 6 14
ATOM     14  C   PHE B   5       1.737 -34.685  -9.176  1.00 31.71 LIG 0.24  C 
ATOM     15  N   GLU B   6       1.227 -34.591 -10.408  1.00 34.73 LIG-0.35  N 
ATOM     16 H    GLU B   6       0.877 -35.258 -10.824  1.00 34.73 LIG 0.16  HD
ATOM     17 O    PHE B   5       2.665 -33.984  -8.764  1.00 30.66 LIG-0.27  OA
BRANCH 15 18
ATOM     18  CA  GLU B   6       1.211 -33.323 -11.192  1.00 38.89 LIG 0.18  C 
BRANCH 18 19
ATOM     19  CB  GLU B   6       0.397 -32.215 -10.511  1.00 39.10 LIG 0.04  C 
BRANCH 19 20
ATOM     20  CG  GLU B   6      -0.908 -31.858 -11.271  1.00 43.96 LIG 0.12  C 
BRANCH 20 21
ATOM     21  CD  GLU B   6      -2.010 -31.229 -10.404  1.00 49.39 LIG 0.17  C 
ATOM     22 OE1  GLU B   6      -1.879 -31.171  -9.164  1.00 53.88 LIG-0.65  OA
ATOM     23 OE2  GLU B   6      -3.057 -30.816 -10.968  1.00 56.34 LIG-0.65  OA
ENDBRANCH 20 21
ENDBRANCH 19 20
ENDBRANCH 18 19
BRANCH 18 24
ATOM     24  C   GLU B   6       2.684 -32.866 -11.431  1.00 41.03 LIG 0.24  C 
ATOM     25 O    GLU B   6       2.994 -31.647 -11.511  1.00 40.13 LIG-0.27  OA
ATOM     26  N   ALA B   7       3.577 -33.863 -11.493  1.00 43.76 LIG-0.35  N 
ATOM     27 H    ALA B   7       3.343 -34.690 -11.494  1.00 43.76 LIG 0.16  HD
BRANCH 26 28
ATOM     28  CA  ALA B   7       5.068 -33.676 -11.569  1.00 45.80 LIG 0.16  C 
ATOM     29  CB  ALA B   7       5.784 -34.532 -10.468  1.00 46.43 LIG 0.04  C 
BRANCH 28 30
ATOM     30  C   ALA B   7       5.648 -34.054 -12.924  1.00 46.67 LIG 0.22  C 
ATOM     31 O    ALA B   7       4.914 -34.076 -13.926  1.00 48.32 LIG-0.29  OA
ENDBRANCH 28 30
ENDBRANCH 26 28
ENDBRANCH 18 24
ENDBRANCH 15 18
ENDBRANCH 6 14
ENDBRANCH 4 6
ENDBRANCH 1 2
BRANCH 1 32
ATOM     32  CB  LEU B   4       2.247 -38.423  -4.558  1.00 24.11 LIG 0.04  C 
BRANCH 32 33
ATOM     33  CG  LEU B   4       1.434 -39.732  -4.675  1.00 25.40 LIG-0.02  C 
ATOM     34  CD2 LEU B   4      -0.018 -39.370  -4.458  1.00 26.98 LIG 0.01  C 
ATOM     35  CD1 LEU B   4       1.873 -40.905  -3.755  1.00 25.06 LIG 0.01  C 
ENDBRANCH 32 33
ENDBRANCH 1 32
BRANCH 1 36
ATOM     36  N   LEU B   4       4.072 -37.102  -5.541  1.00 24.30 LIG-0.35  N 
ATOM     37  C   TRP B   3       5.325 -37.311  -5.938  1.00 25.24 LIG 0.24  C 
ATOM     38 O    TRP B   3       5.659 -38.296  -6.576  1.00 25.23 LIG-0.27  OA
ATOM     39 H    LEU B   4       3.813 -36.403  -5.113  1.00 24.30 LIG 0.16  HD
BRANCH 37 40
ATOM     40  CA  TRP B   3       6.374 -36.262  -5.519  1.00 26.39 LIG 0.18  C 
BRANCH 40 41
ATOM     41  CB  TRP B   3       7.073 -36.717  -4.238  1.00 26.78 LIG 0.07  C 
BRANCH 41 42
ATOM     42  CG  TRP B   3       7.253 -38.132  -4.228  1.00 25.50 LIG-0.03  A 
ATOM     43  CD1 TRP B   3       8.208 -38.831  -4.889  1.00 28.00 LIG 0.10  A 
ATOM     44  NE1 TRP B   3       8.049 -40.165  -4.667  1.00 26.39 LIG-0.36  N 
ATOM     45 HE1  TRP B   3       8.546 -40.788  -4.991  1.00 26.39 LIG 0.17  HD
ATOM     46  CE2 TRP B   3       6.976 -40.355  -3.850  1.00 23.90 LIG 0.04  A 
ATOM     47  CZ2 TRP B   3       6.426 -41.540  -3.358  1.00 23.10 LIG 0.03  A 
ATOM     48  CD2 TRP B   3       6.456 -39.086  -3.548  1.00 23.76 LIG-0.00  A 
ATOM     49  CH2 TRP B   3       5.353 -41.443  -2.535  1.00 22.34 LIG 0.00  A 
ATOM     50  CZ3 TRP B   3       4.790 -40.195  -2.218  1.00 25.34 LIG 0.00  A 
ATOM     51  CE3 TRP B   3       5.342 -38.997  -2.737  1.00 25.10 LIG 0.01  A 
ENDBRANCH 41 42
ENDBRANCH 40 41
BRANCH 40 52
ATOM     52  N   TRP B   3       5.731 -34.953  -5.350  1.00 27.54 LIG-0.35  N 
ATOM     53  C   ALA B   2       5.094 -34.422  -6.400  1.00 31.13 LIG 0.24  C 
ATOM     54 O    ALA B   2       5.059 -35.000  -7.480  1.00 30.30 LIG-0.27  OA
ATOM     55 H    TRP B   3       5.801 -34.594  -4.571  1.00 27.54 LIG 0.16  HD
BRANCH 53 56
ATOM     56  CA  ALA B   2       4.393 -33.066  -6.218  1.00 33.66 LIG 0.17  C 
ATOM     57  CB  ALA B   2       5.401 -31.890  -6.263  1.00 33.40 LIG 0.04  C 
BRANCH 56 58
ATOM     58  N   ALA B   2       3.601 -32.954  -4.987  1.00 35.64 LIG-0.35  N 
ATOM     59 H    ALA B   2       3.980 -32.519  -4.350  1.00 35.64 LIG 0.16  HD
ATOM     60  C   ALA B   1       2.391 -33.504  -4.912  1.00 39.08 LIG 0.25  C 
ATOM     61 O    ALA B   1       2.051 -34.393  -5.662  1.00 40.54 LIG-0.27  OA
BRANCH 60 62
ATOM     62  CA  ALA B   1       1.422 -33.034  -3.799  1.00 41.05 LIG 0.27  C 
ATOM     63  CB  ALA B   1       0.829 -34.242  -3.038  1.00 41.95 LIG 0.05  C 
BRANCH 62 64
ATOM     64  N   ALA B   1       0.319 -32.184  -4.322  1.00 41.48 LIG-0.07  N 
ATOM     65 H3   ALA B   1      -0.339 -32.703  -4.622  1.00 41.48 LIG 0.28  HD
ATOM     66 H2   ALA B   1       0.624 -31.678  -4.987  1.00 41.48 LIG 0.28  HD
ATOM     67 H1   ALA B   1       0.011 -31.663  -3.670  1.00 41.48 LIG 0.28  HD
ENDBRANCH 62 64
ENDBRANCH 60 62
ENDBRANCH 56 58
ENDBRANCH 53 56
ENDBRANCH 40 52
ENDBRANCH 37 40
ENDBRANCH 1 36
TORSDOF 23
ENDMDL
