MODEL 1
USER: ADFR SOLUTION from run 154
USER: SCORE 21.654466 LL:  -6.639 LR: -17.940 RR:   0.000 FEB: -11.377
USER: RMSD 2.914150
USER: SEED 153
USER: STATUS 1 or 2 clusters left
USER: GENES 24
USER: genes 0 Translation |==|  0.67886 0.47333 0.30241
USER: genes 1 Rotation |==|  0.44832 0.43183 0.42697 0.98718
USER: genes 2 Torsion [C]-CA--CB-[CG] |==|  0.15522
USER: genes 3 Torsion [CA]-CB--CG-[CD1] |==|  0.23964
USER: genes 4 Torsion [N]-CA--C-[N] |==|  0.95136
USER: genes 5 Torsion [C]-N--CA-[CB] |==|  0.25370
USER: genes 6 Torsion [N]-CA--CB-[CG] |==|  0.62739
USER: genes 7 Torsion [CA]-CB--CG-[CD2] |==|  0.38368
USER: genes 8 Torsion [N]-CA--C-[N] |==|  0.40826
USER: genes 9 Torsion [C]-N--CA-[C] |==|  0.70616
USER: genes 10 Torsion [N]-CA--CB-[CG] |==|  0.44114
USER: genes 11 Torsion [CA]-CB--CG-[CD] |==|  0.71730
USER: genes 12 Torsion [CB]-CG--CD-[OE2] |==|  0.15194
USER: genes 13 Torsion [N]-CA--C-[N] |==|  0.38314
USER: genes 14 Torsion [C]-N--CA-[CB] |==|  0.44536
USER: genes 15 Torsion [N]-CA--C-[O] |==|  0.45773
USER: genes 16 Torsion [CB]-CA--N-[C] |==|  0.41183
USER: genes 17 Torsion [N]-C--CA-[N] |==|  0.87778
USER: genes 18 Torsion [C]-CA--N-[C] |==|  0.82960
USER: genes 19 Torsion [N]-C--CA-[N] |==|  0.88923
USER: genes 20 Torsion [C]-CA--N-[C] |==|  0.69268
USER: genes 21 Torsion [N]-C--CA-[N] |==|  0.98680
USER: genes 22 Torsion [C]-CA--CB-[CG] |==|  0.06929
USER: genes 23 Torsion [CA]-CB--CG-[CD1] |==|  0.22761
ROOT
ATOM      1  CA  LEU B   4      38.645  -3.522   5.213  1.00 36.98 LIG 0.18  C 
ENDROOT
BRANCH 1 2
ATOM      2  CB  LEU B   4      38.937  -2.791   3.903  1.00 35.91 LIG 0.04  C 
BRANCH 2 3
ATOM      3  CG  LEU B   4      39.987  -1.669   3.975  1.00 35.93 LIG-0.02  C 
ATOM      4  CD2 LEU B   4      39.734  -0.564   2.956  1.00 33.66 LIG 0.01  C 
ATOM      5  CD1 LEU B   4      41.438  -2.238   3.789  1.00 37.78 LIG 0.01  C 
ENDBRANCH 2 3
ENDBRANCH 1 2
BRANCH 1 6
ATOM      6  C   LEU B   4      38.235  -2.478   6.240  1.00 38.06 LIG 0.24  C 
ATOM      7  N   PHE B   5      36.942  -2.454   6.570  1.00 38.73 LIG-0.35  N 
ATOM      8 H    PHE B   5      36.379  -3.057   6.325  1.00 38.73 LIG 0.16  HD
ATOM      9 O    LEU B   4      39.072  -1.670   6.658  1.00 36.58 LIG-0.27  OA
BRANCH 7 10
ATOM     10  CA  PHE B   5      36.355  -1.395   7.385  1.00 41.04 LIG 0.18  C 
BRANCH 10 11
ATOM     11  CB  PHE B   5      35.799  -0.233   6.543  1.00 39.67 LIG 0.07  C 
BRANCH 11 12
ATOM     12  CG  PHE B   5      36.182   1.104   7.053  1.00 38.07 LIG-0.06  A 
ATOM     13  CD2 PHE B   5      36.565   2.098   6.191  1.00 33.96 LIG 0.01  A 
ATOM     14  CE2 PHE B   5      36.957   3.379   6.670  1.00 35.53 LIG 0.00  A 
ATOM     15  CZ  PHE B   5      37.011   3.626   8.028  1.00 34.38 LIG 0.00  A 
ATOM     16  CE1 PHE B   5      36.630   2.600   8.904  1.00 35.56 LIG 0.00  A 
ATOM     17  CD1 PHE B   5      36.219   1.351   8.410  1.00 35.27 LIG 0.01  A 
ENDBRANCH 11 12
ENDBRANCH 10 11
BRANCH 10 18
ATOM     18  C   PHE B   5      35.243  -1.895   8.256  1.00 43.64 LIG 0.24  C 
ATOM     19 O    PHE B   5      34.544  -2.843   7.870  1.00 43.27 LIG-0.27  OA
ATOM     20  N   GLU B   6      35.118  -1.283   9.436  1.00 47.41 LIG-0.35  N 
ATOM     21 H    GLU B   6      35.755  -0.832   9.800  1.00 47.41 LIG 0.16  HD
BRANCH 20 22
ATOM     22  CA  GLU B   6      33.877  -1.312  10.243  1.00 51.55 LIG 0.18  C 
BRANCH 22 23
ATOM     23  CB  GLU B   6      34.156  -1.666  11.715  1.00 52.47 LIG 0.04  C 
BRANCH 23 24
ATOM     24  CG  GLU B   6      33.005  -1.200  12.678  1.00 56.11 LIG 0.12  C 
BRANCH 24 25
ATOM     25  CD  GLU B   6      33.305   0.097  13.472  1.00 59.86 LIG 0.17  C 
ATOM     26 OE2  GLU B   6      33.633   1.122  12.846  1.00 64.67 LIG-0.65  OA
ATOM     27 OE1  GLU B   6      33.183   0.132  14.712  1.00 64.70 LIG-0.65  OA
ENDBRANCH 24 25
ENDBRANCH 23 24
ENDBRANCH 22 23
BRANCH 22 28
ATOM     28  C   GLU B   6      33.191   0.079  10.132  1.00 53.54 LIG 0.24  C 
ATOM     29 O    GLU B   6      33.850   1.136  10.145  1.00 53.95 LIG-0.27  OA
ATOM     30  N   ALA B   7      31.868   0.083   9.980  1.00 56.31 LIG-0.35  N 
ATOM     31 H    ALA B   7      31.380  -0.625   9.979  1.00 56.31 LIG 0.16  HD
BRANCH 30 32
ATOM     32  CA  ALA B   7      31.114   1.352   9.794  1.00 57.55 LIG 0.16  C 
ATOM     33  CB  ALA B   7      29.732   1.098   9.169  1.00 58.11 LIG 0.04  C 
BRANCH 32 34
ATOM     34  C   ALA B   7      30.960   2.085  11.116  1.00 58.67 LIG 0.22  C 
ATOM     35 O    ALA B   7      30.621   3.265  11.130  1.00 60.59 LIG-0.29  OA
ENDBRANCH 32 34
ENDBRANCH 30 32
ENDBRANCH 22 28
ENDBRANCH 20 22
ENDBRANCH 10 18
ENDBRANCH 7 10
ENDBRANCH 1 6
BRANCH 1 36
ATOM     36  N   LEU B   4      37.681  -4.600   5.027  1.00 37.09 LIG-0.35  N 
ATOM     37 H    LEU B   4      37.101  -4.450   4.410  1.00 37.09 LIG 0.16  HD
ATOM     38  C   TRP B   3      37.707  -5.721   5.760  1.00 37.19 LIG 0.24  C 
ATOM     39 O    TRP B   3      38.518  -5.921   6.608  1.00 36.60 LIG-0.27  OA
BRANCH 38 40
ATOM     40  CA  TRP B   3      36.685  -6.803   5.438  1.00 38.87 LIG 0.18  C 
BRANCH 40 41
ATOM     41  N   TRP B   3      35.374  -6.179   5.235  1.00 40.30 LIG-0.35  N 
ATOM     42  C   ALA B   2      34.786  -5.494   6.231  1.00 43.05 LIG 0.24  C 
ATOM     43 O    ALA B   2      35.208  -5.500   7.390  1.00 42.86 LIG-0.27  OA
ATOM     44 H    TRP B   3      35.035  -6.291   4.452  1.00 40.30 LIG 0.16  HD
BRANCH 42 45
ATOM     45  CA  ALA B   2      33.507  -4.743   5.904  1.00 44.71 LIG 0.17  C 
ATOM     46  CB  ALA B   2      32.288  -5.704   5.893  1.00 44.36 LIG 0.04  C 
BRANCH 45 47
ATOM     47  N   ALA B   2      33.649  -4.131   4.583  1.00 46.59 LIG-0.35  N 
ATOM     48 H    ALA B   2      33.663  -4.694   3.933  1.00 46.59 LIG 0.16  HD
ATOM     49  C   PRO B   1      33.747  -2.827   4.427  1.00 48.49 LIG 0.25  C 
ATOM     50 O    PRO B   1      33.883  -2.074   5.378  1.00 48.43 LIG-0.27  OA
BRANCH 49 51
ATOM     51  CA  PRO B   1      33.679  -2.302   2.934  1.00 50.22 LIG 0.28  C 
ATOM     52  N   PRO B   1      33.623  -3.376   1.900  1.00 50.48 LIG-0.06  N 
ATOM     53 H3   PRO B   1      34.213  -3.215   1.295  1.00 50.48 LIG 0.28  HD
ATOM     54 H2   PRO B   1      33.834  -4.127   2.263  1.00 50.48 LIG 0.28  HD
ATOM     55  CD  PRO B   1      32.299  -3.503   1.263  1.00 50.94 LIG 0.23  C 
ATOM     56  CG  PRO B   1      31.468  -2.377   1.873  1.00 51.81 LIG 0.03  C 
ATOM     57  CB  PRO B   1      32.412  -1.465   2.664  1.00 50.52 LIG 0.04  C 
ENDBRANCH 49 51
ENDBRANCH 45 47
ENDBRANCH 42 45
ENDBRANCH 40 41
BRANCH 40 58
ATOM     58  CB  TRP B   3      37.165  -7.617   4.214  1.00 38.41 LIG 0.07  C 
BRANCH 58 59
ATOM     59  CG  TRP B   3      38.619  -7.539   4.102  1.00 37.10 LIG-0.03  A 
ATOM     60  CD1 TRP B   3      39.514  -8.279   4.780  1.00 36.42 LIG 0.10  A 
ATOM     61  NE1 TRP B   3      40.780  -7.907   4.444  1.00 36.34 LIG-0.36  N 
ATOM     62 HE1  TRP B   3      41.503  -8.250   4.759  1.00 36.34 LIG 0.17  HD
ATOM     63  CE2 TRP B   3      40.712  -6.895   3.524  1.00 35.80 LIG 0.04  A 
ATOM     64  CD2 TRP B   3      39.371  -6.624   3.304  1.00 33.30 LIG-0.00  A 
ATOM     65  CZ2 TRP B   3      41.738  -6.170   2.909  1.00 36.94 LIG 0.03  A 
ATOM     66  CE3 TRP B   3      39.027  -5.630   2.401  1.00 37.18 LIG 0.01  A 
ATOM     67  CZ3 TRP B   3      40.044  -4.925   1.759  1.00 37.29 LIG 0.00  A 
ATOM     68  CH2 TRP B   3      41.389  -5.205   2.028  1.00 32.87 LIG 0.00  A 
ENDBRANCH 58 59
ENDBRANCH 40 58
ENDBRANCH 38 40
ENDBRANCH 1 36
TORSDOF 22
ENDMDL
MODEL 2
USER: ADFR SOLUTION from run 115
USER: SCORE 22.309456 LL:  -7.867 LR: -17.893 RR:   0.000 FEB: -11.330
USER: RMSD 3.756903
USER: SEED 114
USER: STATUS no improvement in best in 3 clusters for 5 generations
USER: GENES 24
USER: genes 0 Translation |==|  0.66562 0.51182 0.30548
USER: genes 1 Rotation |==|  0.52126 0.49285 0.43367 0.99507
USER: genes 2 Torsion [C]-CA--CB-[CG] |==|  0.21648
USER: genes 3 Torsion [CA]-CB--CG-[CD1] |==|  0.14346
USER: genes 4 Torsion [N]-CA--C-[N] |==|  0.98889
USER: genes 5 Torsion [C]-N--CA-[CB] |==|  0.26037
USER: genes 6 Torsion [N]-CA--CB-[CG] |==|  0.76241
USER: genes 7 Torsion [CA]-CB--CG-[CD2] |==|  0.21007
USER: genes 8 Torsion [N]-CA--C-[N] |==|  0.31507
USER: genes 9 Torsion [C]-N--CA-[C] |==|  0.87158
USER: genes 10 Torsion [N]-CA--CB-[CG] |==|  0.79427
USER: genes 11 Torsion [CA]-CB--CG-[CD] |==|  0.20027
USER: genes 12 Torsion [CB]-CG--CD-[OE2] |==|  0.65116
USER: genes 13 Torsion [N]-CA--C-[N] |==|  0.87600
USER: genes 14 Torsion [C]-N--CA-[CB] |==|  0.29138
USER: genes 15 Torsion [N]-CA--C-[O] |==|  0.73233
USER: genes 16 Torsion [CB]-CA--N-[C] |==|  0.43747
USER: genes 17 Torsion [N]-C--CA-[N] |==|  0.90212
USER: genes 18 Torsion [C]-CA--N-[C] |==|  0.84049
USER: genes 19 Torsion [N]-C--CA-[N] |==|  0.83718
USER: genes 20 Torsion [C]-CA--N-[C] |==|  0.72314
USER: genes 21 Torsion [N]-C--CA-[N] |==|  0.42325
USER: genes 22 Torsion [C]-CA--CB-[CG] |==|  0.11568
USER: genes 23 Torsion [CA]-CB--CG-[CD1] |==|  0.22141
ROOT
ATOM      1  CA  LEU B   4      38.357  -2.771   5.282  1.00 36.98 LIG 0.18  C 
ENDROOT
BRANCH 1 2
ATOM      2  CB  LEU B   4      38.364  -1.651   4.242  1.00 35.91 LIG 0.04  C 
BRANCH 2 3
ATOM      3  CG  LEU B   4      39.666  -0.838   4.134  1.00 35.93 LIG-0.02  C 
ATOM      4  CD2 LEU B   4      39.628   0.178   2.998  1.00 33.66 LIG 0.01  C 
ATOM      5  CD1 LEU B   4      40.910  -1.780   3.961  1.00 37.78 LIG 0.01  C 
ENDBRANCH 2 3
ENDBRANCH 1 2
BRANCH 1 6
ATOM      6  C   LEU B   4      38.155  -2.131   6.646  1.00 38.06 LIG 0.24  C 
ATOM      7  N   PHE B   5      37.081  -2.532   7.331  1.00 38.73 LIG-0.35  N 
ATOM      8 H    PHE B   5      36.587  -3.194   7.092  1.00 38.73 LIG 0.16  HD
ATOM      9 O    LEU B   4      38.923  -1.240   7.024  1.00 36.58 LIG-0.27  OA
BRANCH 7 10
ATOM     10  CA  PHE B   5      36.638  -1.878   8.558  1.00 41.04 LIG 0.18  C 
BRANCH 10 11
ATOM     11  CB  PHE B   5      35.576  -0.793   8.307  1.00 39.67 LIG 0.07  C 
BRANCH 11 12
ATOM     12  CG  PHE B   5      36.149   0.530   7.966  1.00 38.07 LIG-0.06  A 
ATOM     13  CD2 PHE B   5      36.668   0.767   6.721  1.00 33.96 LIG 0.01  A 
ATOM     14  CE2 PHE B   5      37.242   2.025   6.388  1.00 35.53 LIG 0.00  A 
ATOM     15  CZ  PHE B   5      37.335   3.020   7.342  1.00 34.38 LIG 0.00  A 
ATOM     16  CE1 PHE B   5      36.813   2.765   8.618  1.00 35.56 LIG 0.00  A 
ATOM     17  CD1 PHE B   5      36.225   1.526   8.917  1.00 35.27 LIG 0.01  A 
ENDBRANCH 11 12
ENDBRANCH 10 11
BRANCH 10 18
ATOM     18  C   PHE B   5      36.069  -2.848   9.548  1.00 43.64 LIG 0.24  C 
ATOM     19 O    PHE B   5      35.032  -3.466   9.270  1.00 43.27 LIG-0.27  OA
ATOM     20  N   GLU B   6      36.774  -3.002  10.671  1.00 47.41 LIG-0.35  N 
ATOM     21 H    GLU B   6      37.605  -2.788  10.736  1.00 47.41 LIG 0.16  HD
BRANCH 20 22
ATOM     22  CA  GLU B   6      36.206  -3.555  11.922  1.00 51.55 LIG 0.18  C 
BRANCH 22 23
ATOM     23  CB  GLU B   6      37.152  -3.357  13.120  1.00 52.47 LIG 0.04  C 
BRANCH 23 24
ATOM     24  CG  GLU B   6      38.386  -4.328  13.082  1.00 56.11 LIG 0.12  C 
BRANCH 24 25
ATOM     25  CD  GLU B   6      39.445  -3.995  12.001  1.00 59.86 LIG 0.17  C 
ATOM     26 OE2  GLU B   6      39.777  -4.881  11.193  1.00 64.67 LIG-0.65  OA
ATOM     27 OE1  GLU B   6      39.930  -2.850  11.910  1.00 64.70 LIG-0.65  OA
ENDBRANCH 24 25
ENDBRANCH 23 24
ENDBRANCH 22 23
BRANCH 22 28
ATOM     28  C   GLU B   6      34.838  -2.864  12.182  1.00 53.54 LIG 0.24  C 
ATOM     29 O    GLU B   6      33.842  -3.508  12.565  1.00 53.95 LIG-0.27  OA
ATOM     30  N   ALA B   7      34.793  -1.543  12.015  1.00 56.31 LIG-0.35  N 
ATOM     31 H    ALA B   7      35.455  -1.069  11.739  1.00 56.31 LIG 0.16  HD
BRANCH 30 32
ATOM     32  CA  ALA B   7      33.555  -0.768  12.301  1.00 57.55 LIG 0.16  C 
ATOM     33  CB  ALA B   7      33.676   0.014  13.619  1.00 58.11 LIG 0.04  C 
BRANCH 32 34
ATOM     34  C   ALA B   7      33.239   0.182  11.159  1.00 58.67 LIG 0.22  C 
ATOM     35 O    ALA B   7      33.595   1.356  11.219  1.00 60.59 LIG-0.29  OA
ENDBRANCH 32 34
ENDBRANCH 30 32
ENDBRANCH 22 28
ENDBRANCH 20 22
ENDBRANCH 10 18
ENDBRANCH 7 10
ENDBRANCH 1 6
BRANCH 1 36
ATOM     36  N   LEU B   4      37.388  -3.810   4.951  1.00 37.09 LIG-0.35  N 
ATOM     37 H    LEU B   4      36.756  -3.547   4.431  1.00 37.09 LIG 0.16  HD
ATOM     38  C   TRP B   3      37.487  -5.060   5.422  1.00 37.19 LIG 0.24  C 
ATOM     39 O    TRP B   3      38.370  -5.414   6.137  1.00 36.60 LIG-0.27  OA
BRANCH 38 40
ATOM     40  CA  TRP B   3      36.448  -6.075   4.962  1.00 38.87 LIG 0.18  C 
BRANCH 40 41
ATOM     41  N   TRP B   3      35.155  -5.402   4.807  1.00 40.30 LIG-0.35  N 
ATOM     42  C   ALA B   2      34.599  -4.750   5.843  1.00 43.05 LIG 0.24  C 
ATOM     43 O    ALA B   2      35.033  -4.828   6.995  1.00 42.86 LIG-0.27  OA
ATOM     44 H    TRP B   3      34.806  -5.462   4.023  1.00 40.30 LIG 0.16  HD
BRANCH 42 45
ATOM     45  CA  ALA B   2      33.341  -3.945   5.569  1.00 44.71 LIG 0.17  C 
ATOM     46  CB  ALA B   2      32.196  -4.861   5.063  1.00 44.36 LIG 0.04  C 
BRANCH 45 47
ATOM     47  N   ALA B   2      33.642  -2.942   4.548  1.00 46.59 LIG-0.35  N 
ATOM     48 H    ALA B   2      33.638  -3.244   3.743  1.00 46.59 LIG 0.16  HD
ATOM     49  C   PRO B   1      33.895  -1.686   4.858  1.00 48.49 LIG 0.25  C 
ATOM     50 O    PRO B   1      34.047  -1.328   6.015  1.00 48.43 LIG-0.27  OA
BRANCH 49 51
ATOM     51  CA  PRO B   1      33.989  -0.678   3.639  1.00 50.22 LIG 0.28  C 
ATOM     52  N   PRO B   1      33.630   0.731   3.971  1.00 50.48 LIG-0.06  N 
ATOM     53 H3   PRO B   1      33.066   1.022   3.391  1.00 50.48 LIG 0.28  HD
ATOM     54 H2   PRO B   1      33.236   0.748   4.736  1.00 50.48 LIG 0.28  HD
ATOM     55  CD  PRO B   1      34.795   1.635   4.008  1.00 50.94 LIG 0.23  C 
ATOM     56  CG  PRO B   1      35.975   0.761   3.591  1.00 51.81 LIG 0.03  C 
ATOM     57  CB  PRO B   1      35.420  -0.571   3.076  1.00 50.52 LIG 0.04  C 
ENDBRANCH 49 51
ENDBRANCH 45 47
ENDBRANCH 42 45
ENDBRANCH 40 41
BRANCH 40 58
ATOM     58  CB  TRP B   3      36.936  -6.758   3.664  1.00 38.41 LIG 0.07  C 
BRANCH 58 59
ATOM     59  CG  TRP B   3      38.362  -7.060   3.764  1.00 37.10 LIG-0.03  A 
ATOM     60  CD1 TRP B   3      38.916  -8.100   4.410  1.00 36.42 LIG 0.10  A 
ATOM     61  NE1 TRP B   3      40.273  -8.039   4.320  1.00 36.34 LIG-0.36  N 
ATOM     62 HE1  TRP B   3      40.824  -8.604   4.662  1.00 36.34 LIG 0.17  HD
ATOM     63  CE2 TRP B   3      40.617  -6.928   3.597  1.00 35.80 LIG 0.04  A 
ATOM     64  CD2 TRP B   3      39.442  -6.278   3.253  1.00 33.30 LIG-0.00  A 
ATOM     65  CZ2 TRP B   3      41.880  -6.427   3.266  1.00 36.94 LIG 0.03  A 
ATOM     66  CE3 TRP B   3      39.515  -5.113   2.505  1.00 37.18 LIG 0.01  A 
ATOM     67  CZ3 TRP B   3      40.770  -4.625   2.144  1.00 37.29 LIG 0.00  A 
ATOM     68  CH2 TRP B   3      41.937  -5.291   2.535  1.00 32.87 LIG 0.00  A 
ENDBRANCH 58 59
ENDBRANCH 40 58
ENDBRANCH 38 40
ENDBRANCH 1 36
TORSDOF 22
ENDMDL
MODEL 3
USER: ADFR SOLUTION from run 185
USER: SCORE 21.824326 LL:  -7.432 LR: -17.388 RR:   0.000 FEB: -10.825
USER: RMSD 2.389694
USER: SEED 184
USER: STATUS 1 or 2 clusters left
USER: GENES 24
USER: genes 0 Translation |==|  0.65473 0.48067 0.30663
USER: genes 1 Rotation |==|  0.51024 0.53791 0.48394 0.99820
USER: genes 2 Torsion [C]-CA--CB-[CG] |==|  0.21255
USER: genes 3 Torsion [CA]-CB--CG-[CD1] |==|  0.07694
USER: genes 4 Torsion [N]-CA--C-[N] |==|  0.93890
USER: genes 5 Torsion [C]-N--CA-[CB] |==|  0.29323
USER: genes 6 Torsion [N]-CA--CB-[CG] |==|  0.77947
USER: genes 7 Torsion [CA]-CB--CG-[CD2] |==|  0.20919
USER: genes 8 Torsion [N]-CA--C-[N] |==|  0.35385
USER: genes 9 Torsion [C]-N--CA-[C] |==|  0.83223
USER: genes 10 Torsion [N]-CA--CB-[CG] |==|  0.49318
USER: genes 11 Torsion [CA]-CB--CG-[CD] |==|  0.60419
USER: genes 12 Torsion [CB]-CG--CD-[OE2] |==|  0.28681
USER: genes 13 Torsion [N]-CA--C-[N] |==|  0.89645
USER: genes 14 Torsion [C]-N--CA-[CB] |==|  0.24610
USER: genes 15 Torsion [N]-CA--C-[O] |==|  0.71862
USER: genes 16 Torsion [CB]-CA--N-[C] |==|  0.47662
USER: genes 17 Torsion [N]-C--CA-[N] |==|  0.87255
USER: genes 18 Torsion [C]-CA--N-[C] |==|  0.81639
USER: genes 19 Torsion [N]-C--CA-[N] |==|  0.89259
USER: genes 20 Torsion [C]-CA--N-[C] |==|  0.77627
USER: genes 21 Torsion [N]-C--CA-[N] |==|  0.94644
USER: genes 22 Torsion [C]-CA--CB-[CG] |==|  0.10334
USER: genes 23 Torsion [CA]-CB--CG-[CD1] |==|  0.22278
ROOT
ATOM      1  CA  LEU B   4      38.120  -3.379   5.308  1.00 36.98 LIG 0.18  C 
ENDROOT
BRANCH 1 2
ATOM      2  CB  LEU B   4      37.715  -2.325   4.278  1.00 35.91 LIG 0.04  C 
BRANCH 2 3
ATOM      3  CG  LEU B   4      38.769  -1.249   3.962  1.00 35.93 LIG-0.02  C 
ATOM      4  CD2 LEU B   4      38.640  -0.703   2.545  1.00 33.66 LIG 0.01  C 
ATOM      5  CD1 LEU B   4      40.223  -1.795   4.190  1.00 37.78 LIG 0.01  C 
ENDBRANCH 2 3
ENDBRANCH 1 2
BRANCH 1 6
ATOM      6  C   LEU B   4      38.027  -2.737   6.683  1.00 38.06 LIG 0.24  C 
ATOM      7  N   PHE B   5      36.956  -3.063   7.413  1.00 38.73 LIG-0.35  N 
ATOM      8 H    PHE B   5      36.405  -3.685   7.192  1.00 38.73 LIG 0.16  HD
ATOM      9 O    LEU B   4      38.876  -1.910   7.031  1.00 36.58 LIG-0.27  OA
BRANCH 7 10
ATOM     10  CA  PHE B   5      36.619  -2.389   8.662  1.00 41.04 LIG 0.18  C 
BRANCH 10 11
ATOM     11  CB  PHE B   5      35.426  -1.427   8.518  1.00 39.67 LIG 0.07  C 
BRANCH 11 12
ATOM     12  CG  PHE B   5      35.785  -0.125   7.912  1.00 38.07 LIG-0.06  A 
ATOM     13  CD2 PHE B   5      36.023  -0.022   6.567  1.00 33.96 LIG 0.01  A 
ATOM     14  CE2 PHE B   5      36.390   1.219   5.976  1.00 35.53 LIG 0.00  A 
ATOM     15  CZ  PHE B   5      36.569   2.339   6.765  1.00 34.38 LIG 0.00  A 
ATOM     16  CE1 PHE B   5      36.337   2.221   8.142  1.00 35.56 LIG 0.00  A 
ATOM     17  CD1 PHE B   5      35.947   0.994   8.702  1.00 35.27 LIG 0.01  A 
ENDBRANCH 11 12
ENDBRANCH 10 11
BRANCH 10 18
ATOM     18  C   PHE B   5      36.292  -3.354   9.761  1.00 43.64 LIG 0.24  C 
ATOM     19 O    PHE B   5      35.467  -4.256   9.556  1.00 43.27 LIG-0.27  OA
ATOM     20  N   GLU B   6      36.971  -3.182  10.897  1.00 47.41 LIG-0.35  N 
ATOM     21 H    GLU B   6      37.713  -2.748  10.939  1.00 47.41 LIG 0.16  HD
BRANCH 20 22
ATOM     22  CA  GLU B   6      36.524  -3.717  12.204  1.00 51.55 LIG 0.18  C 
BRANCH 22 23
ATOM     23  CB  GLU B   6      37.539  -3.422  13.323  1.00 52.47 LIG 0.04  C 
BRANCH 23 24
ATOM     24  CG  GLU B   6      37.053  -3.929  14.729  1.00 56.11 LIG 0.12  C 
BRANCH 24 25
ATOM     25  CD  GLU B   6      37.415  -3.002  15.917  1.00 59.86 LIG 0.17  C 
ATOM     26 OE2  GLU B   6      36.527  -2.279  16.406  1.00 64.67 LIG-0.65  OA
ATOM     27 OE1  GLU B   6      38.562  -3.004  16.406  1.00 64.70 LIG-0.65  OA
ENDBRANCH 24 25
ENDBRANCH 23 24
ENDBRANCH 22 23
BRANCH 22 28
ATOM     28  C   GLU B   6      35.140  -3.095  12.537  1.00 53.54 LIG 0.24  C 
ATOM     29 O    GLU B   6      34.259  -3.742  13.136  1.00 53.95 LIG-0.27  OA
ATOM     30  N   ALA B   7      34.956  -1.822  12.189  1.00 56.31 LIG-0.35  N 
ATOM     31 H    ALA B   7      35.536  -1.350  11.764  1.00 56.31 LIG 0.16  HD
BRANCH 30 32
ATOM     32  CA  ALA B   7      33.697  -1.103  12.520  1.00 57.55 LIG 0.16  C 
ATOM     33  CB  ALA B   7      33.777  -0.438  13.904  1.00 58.11 LIG 0.04  C 
BRANCH 32 34
ATOM     34  C   ALA B   7      33.378  -0.062  11.460  1.00 58.67 LIG 0.22  C 
ATOM     35 O    ALA B   7      33.623   1.123  11.669  1.00 60.59 LIG-0.29  OA
ENDBRANCH 32 34
ENDBRANCH 30 32
ENDBRANCH 22 28
ENDBRANCH 20 22
ENDBRANCH 10 18
ENDBRANCH 7 10
ENDBRANCH 1 6
BRANCH 1 36
ATOM     36  N   LEU B   4      37.346  -4.606   5.158  1.00 37.09 LIG-0.35  N 
ATOM     37 H    LEU B   4      36.695  -4.544   4.599  1.00 37.09 LIG 0.16  HD
ATOM     38  C   TRP B   3      37.635  -5.724   5.837  1.00 37.19 LIG 0.24  C 
ATOM     39 O    TRP B   3      38.542  -5.800   6.603  1.00 36.60 LIG-0.27  OA
BRANCH 38 40
ATOM     40  CA  TRP B   3      36.793  -6.962   5.556  1.00 38.87 LIG 0.18  C 
BRANCH 40 41
ATOM     41  N   TRP B   3      35.376  -6.583   5.537  1.00 40.30 LIG-0.35  N 
ATOM     42  C   ALA B   2      34.773  -6.155   6.659  1.00 43.05 LIG 0.24  C 
ATOM     43 O    ALA B   2      35.299  -6.223   7.772  1.00 42.86 LIG-0.27  OA
ATOM     44 H    TRP B   3      34.989  -6.660   4.773  1.00 40.30 LIG 0.16  HD
BRANCH 42 45
ATOM     45  CA  ALA B   2      33.353  -5.631   6.533  1.00 44.71 LIG 0.17  C 
ATOM     46  CB  ALA B   2      32.332  -6.800   6.505  1.00 44.36 LIG 0.04  C 
BRANCH 45 47
ATOM     47  N   ALA B   2      33.244  -4.868   5.290  1.00 46.59 LIG-0.35  N 
ATOM     48 H    ALA B   2      32.891  -5.303   4.638  1.00 46.59 LIG 0.16  HD
ATOM     49  C   PRO B   1      33.660  -3.621   5.200  1.00 48.49 LIG 0.25  C 
ATOM     50 O    PRO B   1      34.298  -3.090   6.096  1.00 48.43 LIG-0.27  OA
BRANCH 49 51
ATOM     51  CA  PRO B   1      33.282  -2.861   3.863  1.00 50.22 LIG 0.28  C 
ATOM     52  N   PRO B   1      32.918  -3.752   2.724  1.00 50.48 LIG-0.06  N 
ATOM     53 H3   PRO B   1      33.361  -3.513   2.026  1.00 50.48 LIG 0.28  HD
ATOM     54 H2   PRO B   1      33.157  -4.558   2.909  1.00 50.48 LIG 0.28  HD
ATOM     55  CD  PRO B   1      31.477  -3.737   2.410  1.00 50.94 LIG 0.23  C 
ATOM     56  CG  PRO B   1      30.885  -2.701   3.363  1.00 51.81 LIG 0.03  C 
ATOM     57  CB  PRO B   1      32.045  -1.956   4.032  1.00 50.52 LIG 0.04  C 
ENDBRANCH 49 51
ENDBRANCH 45 47
ENDBRANCH 42 45
ENDBRANCH 40 41
BRANCH 40 58
ATOM     58  CB  TRP B   3      37.263  -7.615   4.236  1.00 38.41 LIG 0.07  C 
BRANCH 58 59
ATOM     59  CG  TRP B   3      38.715  -7.513   4.118  1.00 37.10 LIG-0.03  A 
ATOM     60  CD1 TRP B   3      39.624  -8.302   4.715  1.00 36.42 LIG 0.10  A 
ATOM     61  NE1 TRP B   3      40.882  -7.888   4.403  1.00 36.34 LIG-0.36  N 
ATOM     62 HE1  TRP B   3      41.612  -8.251   4.678  1.00 36.34 LIG 0.17  HD
ATOM     63  CE2 TRP B   3      40.795  -6.796   3.581  1.00 35.80 LIG 0.04  A 
ATOM     64  CD2 TRP B   3      39.449  -6.520   3.400  1.00 33.30 LIG-0.00  A 
ATOM     65  CZ2 TRP B   3      41.807  -6.007   3.025  1.00 36.94 LIG 0.03  A 
ATOM     66  CE3 TRP B   3      39.086  -5.452   2.595  1.00 37.18 LIG 0.01  A 
ATOM     67  CZ3 TRP B   3      40.090  -4.680   2.012  1.00 37.29 LIG 0.00  A 
ATOM     68  CH2 TRP B   3      41.440  -4.969   2.240  1.00 32.87 LIG 0.00  A 
ENDBRANCH 58 59
ENDBRANCH 40 58
ENDBRANCH 38 40
ENDBRANCH 1 36
TORSDOF 22
ENDMDL
MODEL 4
USER: ADFR SOLUTION from run 100
USER: SCORE 21.844013 LL:  -7.747 LR: -17.233 RR:   0.000 FEB: -10.671
USER: RMSD 2.971506
USER: SEED 99
USER: STATUS no improvement in best in 3 clusters for 5 generations
USER: GENES 24
USER: genes 0 Translation |==|  0.65787 0.51157 0.30995
USER: genes 1 Rotation |==|  0.49350 0.45024 0.43486 0.99319
USER: genes 2 Torsion [C]-CA--CB-[CG] |==|  0.18687
USER: genes 3 Torsion [CA]-CB--CG-[CD1] |==|  0.24711
USER: genes 4 Torsion [N]-CA--C-[N] |==|  0.97302
USER: genes 5 Torsion [C]-N--CA-[CB] |==|  0.24390
USER: genes 6 Torsion [N]-CA--CB-[CG] |==|  0.74044
USER: genes 7 Torsion [CA]-CB--CG-[CD2] |==|  0.26206
USER: genes 8 Torsion [N]-CA--C-[N] |==|  0.36876
USER: genes 9 Torsion [C]-N--CA-[C] |==|  0.67582
USER: genes 10 Torsion [N]-CA--CB-[CG] |==|  0.23935
USER: genes 11 Torsion [CA]-CB--CG-[CD] |==|  0.30849
USER: genes 12 Torsion [CB]-CG--CD-[OE2] |==|  0.60129
USER: genes 13 Torsion [N]-CA--C-[N] |==|  0.45545
USER: genes 14 Torsion [C]-N--CA-[CB] |==|  0.48405
USER: genes 15 Torsion [N]-CA--C-[O] |==|  0.24002
USER: genes 16 Torsion [CB]-CA--N-[C] |==|  0.39423
USER: genes 17 Torsion [N]-C--CA-[N] |==|  0.91163
USER: genes 18 Torsion [C]-CA--N-[C] |==|  0.81467
USER: genes 19 Torsion [N]-C--CA-[N] |==|  0.86728
USER: genes 20 Torsion [C]-CA--N-[C] |==|  0.68333
USER: genes 21 Torsion [N]-C--CA-[N] |==|  0.47646
USER: genes 22 Torsion [C]-CA--CB-[CG] |==|  0.11618
USER: genes 23 Torsion [CA]-CB--CG-[CD1] |==|  0.21924
ROOT
ATOM      1  CA  LEU B   4      38.189  -2.776   5.383  1.00 36.98 LIG 0.18  C 
ENDROOT
BRANCH 1 2
ATOM      2  CB  LEU B   4      38.372  -1.803   4.218  1.00 35.91 LIG 0.04  C 
BRANCH 2 3
ATOM      3  CG  LEU B   4      39.555  -0.827   4.334  1.00 35.93 LIG-0.02  C 
ATOM      4  CD2 LEU B   4      39.269   0.519   3.678  1.00 33.66 LIG 0.01  C 
ATOM      5  CD1 LEU B   4      40.863  -1.445   3.727  1.00 37.78 LIG 0.01  C 
ENDBRANCH 2 3
ENDBRANCH 1 2
BRANCH 1 6
ATOM      6  C   LEU B   4      37.790  -1.962   6.603  1.00 38.06 LIG 0.24  C 
ATOM      7  N   PHE B   5      36.567  -2.193   7.090  1.00 38.73 LIG-0.35  N 
ATOM      8 H    PHE B   5      36.066  -2.838   6.824  1.00 38.73 LIG 0.16  HD
ATOM      9 O    LEU B   4      38.556  -1.095   7.038  1.00 36.58 LIG-0.27  OA
BRANCH 7 10
ATOM     10  CA  PHE B   5      35.962  -1.363   8.127  1.00 41.04 LIG 0.18  C 
BRANCH 10 11
ATOM     11  CB  PHE B   5      35.204  -0.151   7.556  1.00 39.67 LIG 0.07  C 
BRANCH 11 12
ATOM     12  CG  PHE B   5      36.025   1.079   7.479  1.00 38.07 LIG-0.06  A 
ATOM     13  CD2 PHE B   5      36.686   1.408   6.325  1.00 33.96 LIG 0.01  A 
ATOM     14  CE2 PHE B   5      37.496   2.575   6.246  1.00 35.53 LIG 0.00  A 
ATOM     15  CZ  PHE B   5      37.674   3.373   7.359  1.00 34.38 LIG 0.00  A 
ATOM     16  CE1 PHE B   5      37.005   3.022   8.540  1.00 35.56 LIG 0.00  A 
ATOM     17  CD1 PHE B   5      36.187   1.882   8.589  1.00 35.27 LIG 0.01  A 
ENDBRANCH 11 12
ENDBRANCH 10 11
BRANCH 10 18
ATOM     18  C   PHE B   5      35.005  -2.132   8.986  1.00 43.64 LIG 0.24  C 
ATOM     19 O    PHE B   5      34.185  -2.894   8.455  1.00 43.27 LIG-0.27  OA
ATOM     20  N   GLU B   6      35.148  -1.957  10.302  1.00 47.41 LIG-0.35  N 
ATOM     21 H    GLU B   6      35.870  -1.656  10.660  1.00 47.41 LIG 0.16  HD
BRANCH 20 22
ATOM     22  CA  GLU B   6      34.083  -2.262  11.285  1.00 51.55 LIG 0.18  C 
BRANCH 22 23
ATOM     23  CB  GLU B   6      34.536  -3.309  12.318  1.00 52.47 LIG 0.04  C 
BRANCH 23 24
ATOM     24  CG  GLU B   6      35.290  -2.668  13.538  1.00 56.11 LIG 0.12  C 
BRANCH 24 25
ATOM     25  CD  GLU B   6      34.523  -2.727  14.883  1.00 59.86 LIG 0.17  C 
ATOM     26 OE2  GLU B   6      34.616  -1.768  15.671  1.00 64.67 LIG-0.65  OA
ATOM     27 OE1  GLU B   6      33.790  -3.697  15.161  1.00 64.70 LIG-0.65  OA
ENDBRANCH 24 25
ENDBRANCH 23 24
ENDBRANCH 22 23
BRANCH 22 28
ATOM     28  C   GLU B   6      33.675  -0.936  11.987  1.00 53.54 LIG 0.24  C 
ATOM     29 O    GLU B   6      34.371   0.093  11.897  1.00 53.95 LIG-0.27  OA
ATOM     30  N   ALA B   7      32.523  -0.943  12.656  1.00 56.31 LIG-0.35  N 
ATOM     31 H    ALA B   7      32.024  -1.637  12.750  1.00 56.31 LIG 0.16  HD
BRANCH 30 32
ATOM     32  CA  ALA B   7      31.998   0.287  13.309  1.00 57.55 LIG 0.16  C 
ATOM     33  CB  ALA B   7      30.594   0.059  13.891  1.00 58.11 LIG 0.04  C 
BRANCH 32 34
ATOM     34  C   ALA B   7      32.944   0.761  14.400  1.00 58.67 LIG 0.22  C 
ATOM     35 O    ALA B   7      33.885   1.498  14.120  1.00 60.59 LIG-0.29  OA
ENDBRANCH 32 34
ENDBRANCH 30 32
ENDBRANCH 22 28
ENDBRANCH 20 22
ENDBRANCH 10 18
ENDBRANCH 7 10
ENDBRANCH 1 6
BRANCH 1 36
ATOM     36  N   LEU B   4      37.266  -3.855   5.046  1.00 37.09 LIG-0.35  N 
ATOM     37 H    LEU B   4      36.598  -3.607   4.564  1.00 37.09 LIG 0.16  HD
ATOM     38  C   TRP B   3      37.455  -5.115   5.456  1.00 37.19 LIG 0.24  C 
ATOM     39 O    TRP B   3      38.387  -5.448   6.117  1.00 36.60 LIG-0.27  OA
BRANCH 38 40
ATOM     40  CA  TRP B   3      36.457  -6.169   4.994  1.00 38.87 LIG 0.18  C 
BRANCH 40 41
ATOM     41  N   TRP B   3      35.138  -5.546   4.843  1.00 40.30 LIG-0.35  N 
ATOM     42  C   ALA B   2      34.477  -5.086   5.919  1.00 43.05 LIG 0.24  C 
ATOM     43 O    ALA B   2      34.838  -5.313   7.077  1.00 42.86 LIG-0.27  OA
ATOM     44 H    TRP B   3      34.844  -5.506   4.035  1.00 40.30 LIG 0.16  HD
BRANCH 42 45
ATOM     45  CA  ALA B   2      33.193  -4.313   5.674  1.00 44.71 LIG 0.17  C 
ATOM     46  CB  ALA B   2      32.055  -5.261   5.210  1.00 44.36 LIG 0.04  C 
BRANCH 45 47
ATOM     47  N   ALA B   2      33.440  -3.314   4.635  1.00 46.59 LIG-0.35  N 
ATOM     48 H    ALA B   2      33.613  -3.645   3.860  1.00 46.59 LIG 0.16  HD
ATOM     49  C   PRO B   1      33.397  -2.021   4.887  1.00 48.49 LIG 0.25  C 
ATOM     50 O    PRO B   1      33.305  -1.592   6.026  1.00 48.43 LIG-0.27  OA
BRANCH 49 51
ATOM     51  CA  PRO B   1      33.472  -1.067   3.625  1.00 50.22 LIG 0.28  C 
ATOM     52  N   PRO B   1      33.222   0.373   3.921  1.00 50.48 LIG-0.06  N 
ATOM     53 H3   PRO B   1      32.639   0.678   3.365  1.00 50.48 LIG 0.28  HD
ATOM     54 H2   PRO B   1      32.880   0.444   4.707  1.00 50.48 LIG 0.28  HD
ATOM     55  CD  PRO B   1      34.439   1.203   3.847  1.00 50.94 LIG 0.23  C 
ATOM     56  CG  PRO B   1      35.534   0.241   3.392  1.00 51.81 LIG 0.03  C 
ATOM     57  CB  PRO B   1      34.867  -1.072   2.968  1.00 50.52 LIG 0.04  C 
ENDBRANCH 49 51
ENDBRANCH 45 47
ENDBRANCH 42 45
ENDBRANCH 40 41
BRANCH 40 58
ATOM     58  CB  TRP B   3      36.968  -6.827   3.692  1.00 38.41 LIG 0.07  C 
BRANCH 58 59
ATOM     59  CG  TRP B   3      38.404  -7.077   3.790  1.00 37.10 LIG-0.03  A 
ATOM     60  CD1 TRP B   3      38.997  -8.091   4.444  1.00 36.42 LIG 0.10  A 
ATOM     61  NE1 TRP B   3      40.350  -7.983   4.349  1.00 36.34 LIG-0.36  N 
ATOM     62 HE1  TRP B   3      40.922  -8.525   4.693  1.00 36.34 LIG 0.17  HD
ATOM     63  CE2 TRP B   3      40.652  -6.867   3.615  1.00 35.80 LIG 0.04  A 
ATOM     64  CD2 TRP B   3      39.454  -6.262   3.268  1.00 33.30 LIG-0.00  A 
ATOM     65  CZ2 TRP B   3      41.896  -6.324   3.275  1.00 36.94 LIG 0.03  A 
ATOM     66  CE3 TRP B   3      39.484  -5.102   2.511  1.00 37.18 LIG 0.01  A 
ATOM     67  CZ3 TRP B   3      40.719  -4.573   2.141  1.00 37.29 LIG 0.00  A 
ATOM     68  CH2 TRP B   3      41.910  -5.193   2.534  1.00 32.87 LIG 0.00  A 
ENDBRANCH 58 59
ENDBRANCH 40 58
ENDBRANCH 38 40
ENDBRANCH 1 36
TORSDOF 22
ENDMDL
MODEL 5
USER: ADFR SOLUTION from run 116
USER: SCORE 20.246959 LL:  -6.259 LR: -16.984 RR:   0.000 FEB: -10.422
USER: RMSD 1.589332
USER: SEED 115
USER: STATUS 1 or 2 clusters left
USER: GENES 24
USER: genes 0 Translation |==|  0.65079 0.49736 0.31684
USER: genes 1 Rotation |==|  0.47371 0.46254 0.45893 0.99620
USER: genes 2 Torsion [C]-CA--CB-[CG] |==|  0.24470
USER: genes 3 Torsion [CA]-CB--CG-[CD1] |==|  0.42297
USER: genes 4 Torsion [N]-CA--C-[N] |==|  0.92174
USER: genes 5 Torsion [C]-N--CA-[CB] |==|  0.27280
USER: genes 6 Torsion [N]-CA--CB-[CG] |==|  0.73378
USER: genes 7 Torsion [CA]-CB--CG-[CD2] |==|  0.27925
USER: genes 8 Torsion [N]-CA--C-[N] |==|  0.35215
USER: genes 9 Torsion [C]-N--CA-[C] |==|  0.73669
USER: genes 10 Torsion [N]-CA--CB-[CG] |==|  0.47279
USER: genes 11 Torsion [CA]-CB--CG-[CD] |==|  0.71321
USER: genes 12 Torsion [CB]-CG--CD-[OE2] |==|  0.35048
USER: genes 13 Torsion [N]-CA--C-[N] |==|  0.37330
USER: genes 14 Torsion [C]-N--CA-[CB] |==|  0.85787
USER: genes 15 Torsion [N]-CA--C-[O] |==|  0.53812
USER: genes 16 Torsion [CB]-CA--N-[C] |==|  0.38928
USER: genes 17 Torsion [N]-C--CA-[N] |==|  0.89455
USER: genes 18 Torsion [C]-CA--N-[C] |==|  0.84392
USER: genes 19 Torsion [N]-C--CA-[N] |==|  0.05617
USER: genes 20 Torsion [C]-CA--N-[C] |==|  0.60042
USER: genes 21 Torsion [N]-C--CA-[N] |==|  0.02954
USER: genes 22 Torsion [C]-CA--CB-[CG] |==|  0.11641
USER: genes 23 Torsion [CA]-CB--CG-[CD1] |==|  0.21665
ROOT
ATOM      1  CA  LEU B   4      38.035  -3.053   5.538  1.00 36.98 LIG 0.18  C 
ENDROOT
BRANCH 1 2
ATOM      2  CB  LEU B   4      38.062  -2.169   4.292  1.00 35.91 LIG 0.04  C 
BRANCH 2 3
ATOM      3  CG  LEU B   4      39.392  -1.451   4.002  1.00 35.93 LIG-0.02  C 
ATOM      4  CD2 LEU B   4      39.531  -0.145   4.776  1.00 33.66 LIG 0.01  C 
ATOM      5  CD1 LEU B   4      39.567  -1.178   2.467  1.00 37.78 LIG 0.01  C 
ENDBRANCH 2 3
ENDBRANCH 1 2
BRANCH 1 6
ATOM      6  C   LEU B   4      37.635  -2.177   6.714  1.00 38.06 LIG 0.24  C 
ATOM      7  N   PHE B   5      36.343  -2.199   7.052  1.00 38.73 LIG-0.35  N 
ATOM      8 H    PHE B   5      35.776  -2.755   6.720  1.00 38.73 LIG 0.16  HD
ATOM      9 O    LEU B   4      38.477  -1.446   7.247  1.00 36.58 LIG-0.27  OA
BRANCH 7 10
ATOM     10  CA  PHE B   5      35.765  -1.275   8.022  1.00 41.04 LIG 0.18  C 
BRANCH 10 11
ATOM     11  CB  PHE B   5      35.062  -0.077   7.360  1.00 39.67 LIG 0.07  C 
BRANCH 11 12
ATOM     12  CG  PHE B   5      35.915   1.129   7.257  1.00 38.07 LIG-0.06  A 
ATOM     13  CD2 PHE B   5      36.532   1.450   6.076  1.00 33.96 LIG 0.01  A 
ATOM     14  CE2 PHE B   5      37.372   2.593   5.970  1.00 35.53 LIG 0.00  A 
ATOM     15  CZ  PHE B   5      37.628   3.373   7.081  1.00 34.38 LIG 0.00  A 
ATOM     16  CE1 PHE B   5      37.005   3.029   8.289  1.00 35.56 LIG 0.00  A 
ATOM     17  CD1 PHE B   5      36.155   1.913   8.365  1.00 35.27 LIG 0.01  A 
ENDBRANCH 11 12
ENDBRANCH 10 11
BRANCH 10 18
ATOM     18  C   PHE B   5      34.770  -1.942   8.923  1.00 43.64 LIG 0.24  C 
ATOM     19 O    PHE B   5      33.855  -2.616   8.430  1.00 43.27 LIG-0.27  OA
ATOM     20  N   GLU B   6      34.985  -1.783  10.231  1.00 47.41 LIG-0.35  N 
ATOM     21 H    GLU B   6      35.748  -1.557  10.558  1.00 47.41 LIG 0.16  HD
BRANCH 20 22
ATOM     22  CA  GLU B   6      33.936  -1.977  11.259  1.00 51.55 LIG 0.18  C 
BRANCH 22 23
ATOM     23  CB  GLU B   6      34.497  -2.622  12.539  1.00 52.47 LIG 0.04  C 
BRANCH 23 24
ATOM     24  CG  GLU B   6      33.466  -2.612  13.724  1.00 56.11 LIG 0.12  C 
BRANCH 24 25
ATOM     25  CD  GLU B   6      33.730  -1.538  14.809  1.00 59.86 LIG 0.17  C 
ATOM     26 OE2  GLU B   6      32.813  -0.754  15.113  1.00 64.67 LIG-0.65  OA
ATOM     27 OE1  GLU B   6      34.826  -1.481  15.401  1.00 64.70 LIG-0.65  OA
ENDBRANCH 24 25
ENDBRANCH 23 24
ENDBRANCH 22 23
BRANCH 22 28
ATOM     28  C   GLU B   6      33.301  -0.593  11.574  1.00 53.54 LIG 0.24  C 
ATOM     29 O    GLU B   6      33.998   0.428  11.722  1.00 53.95 LIG-0.27  OA
ATOM     30  N   ALA B   7      31.971  -0.546  11.635  1.00 56.31 LIG-0.35  N 
ATOM     31 H    ALA B   7      31.459  -1.232  11.551  1.00 56.31 LIG 0.16  HD
BRANCH 30 32
ATOM     32  CA  ALA B   7      31.251   0.737  11.861  1.00 57.55 LIG 0.16  C 
ATOM     33  CB  ALA B   7      31.809   1.486  13.081  1.00 58.11 LIG 0.04  C 
BRANCH 32 34
ATOM     34  C   ALA B   7      31.328   1.621  10.627  1.00 58.67 LIG 0.22  C 
ATOM     35 O    ALA B   7      31.018   2.806  10.700  1.00 60.59 LIG-0.29  OA
ENDBRANCH 32 34
ENDBRANCH 30 32
ENDBRANCH 22 28
ENDBRANCH 20 22
ENDBRANCH 10 18
ENDBRANCH 7 10
ENDBRANCH 1 6
BRANCH 1 36
ATOM     36  N   LEU B   4      37.195  -4.231   5.347  1.00 37.09 LIG-0.35  N 
ATOM     37 H    LEU B   4      36.469  -4.077   4.912  1.00 37.09 LIG 0.16  HD
ATOM     38  C   TRP B   3      37.538  -5.439   5.811  1.00 37.19 LIG 0.24  C 
ATOM     39 O    TRP B   3      38.549  -5.641   6.406  1.00 36.60 LIG-0.27  OA
BRANCH 38 40
ATOM     40  CA  TRP B   3      36.610  -6.607   5.501  1.00 38.87 LIG 0.18  C 
BRANCH 40 41
ATOM     41  N   TRP B   3      35.220  -6.148   5.576  1.00 40.30 LIG-0.35  N 
ATOM     42  C   ALA B   2      34.754  -5.571   6.697  1.00 43.05 LIG 0.24  C 
ATOM     43 O    ALA B   2      35.387  -5.556   7.756  1.00 42.86 LIG-0.27  OA
ATOM     44 H    TRP B   3      34.754  -6.280   4.865  1.00 40.30 LIG 0.16  HD
BRANCH 42 45
ATOM     45  CA  ALA B   2      33.357  -4.979   6.651  1.00 44.71 LIG 0.17  C 
ATOM     46  CB  ALA B   2      32.591  -5.261   7.971  1.00 44.36 LIG 0.04  C 
BRANCH 45 47
ATOM     47  N   ALA B   2      32.630  -5.583   5.534  1.00 46.59 LIG-0.35  N 
ATOM     48 H    ALA B   2      32.812  -6.413   5.402  1.00 46.59 LIG 0.16  HD
ATOM     49  C   PRO B   1      31.775  -4.895   4.806  1.00 48.49 LIG 0.25  C 
ATOM     50 O    PRO B   1      31.660  -3.684   4.922  1.00 48.43 LIG-0.27  OA
BRANCH 49 51
ATOM     51  CA  PRO B   1      30.910  -5.733   3.777  1.00 50.22 LIG 0.28  C 
ATOM     52  N   PRO B   1      31.005  -7.212   3.947  1.00 50.48 LIG-0.06  N 
ATOM     53 H3   PRO B   1      31.168  -7.573   3.184  1.00 50.48 LIG 0.28  HD
ATOM     54 H2   PRO B   1      31.672  -7.394   4.460  1.00 50.48 LIG 0.28  HD
ATOM     55  CD  PRO B   1      29.783  -7.813   4.515  1.00 50.94 LIG 0.23  C 
ATOM     56  CG  PRO B   1      28.804  -6.648   4.643  1.00 51.81 LIG 0.03  C 
ATOM     57  CB  PRO B   1      29.401  -5.443   3.906  1.00 50.52 LIG 0.04  C 
ENDBRANCH 49 51
ENDBRANCH 45 47
ENDBRANCH 42 45
ENDBRANCH 40 41
BRANCH 40 58
ATOM     58  CB  TRP B   3      36.978  -7.205   4.123  1.00 38.41 LIG 0.07  C 
BRANCH 58 59
ATOM     59  CG  TRP B   3      38.430  -7.281   3.984  1.00 37.10 LIG-0.03  A 
ATOM     60  CD1 TRP B   3      39.238  -8.205   4.531  1.00 36.42 LIG 0.10  A 
ATOM     61  NE1 TRP B   3      40.535  -7.939   4.214  1.00 36.34 LIG-0.36  N 
ATOM     62 HE1  TRP B   3      41.216  -8.404   4.460  1.00 36.34 LIG 0.17  HD
ATOM     63  CE2 TRP B   3      40.578  -6.810   3.441  1.00 35.80 LIG 0.04  A 
ATOM     64  CD2 TRP B   3      39.275  -6.358   3.296  1.00 33.30 LIG-0.00  A 
ATOM     65  CZ2 TRP B   3      41.675  -6.131   2.901  1.00 36.94 LIG 0.03  A 
ATOM     66  CE3 TRP B   3      39.042  -5.218   2.544  1.00 37.18 LIG 0.01  A 
ATOM     67  CZ3 TRP B   3      40.128  -4.553   1.977  1.00 37.29 LIG 0.00  A 
ATOM     68  CH2 TRP B   3      41.433  -5.021   2.168  1.00 32.87 LIG 0.00  A 
ENDBRANCH 58 59
ENDBRANCH 40 58
ENDBRANCH 38 40
ENDBRANCH 1 36
TORSDOF 22
ENDMDL
MODEL 6
USER: ADFR SOLUTION from run 58
USER: SCORE 20.818763 LL:  -8.008 LR: -16.349 RR:   0.000 FEB:  -9.787
USER: RMSD 3.606430
USER: SEED 57
USER: STATUS no improvement in best in 6 clusters for 5 generations
USER: GENES 24
USER: genes 0 Translation |==|  0.63758 0.51026 0.32695
USER: genes 1 Rotation |==|  0.51513 0.49684 0.47743 0.99925
USER: genes 2 Torsion [C]-CA--CB-[CG] |==|  0.28656
USER: genes 3 Torsion [CA]-CB--CG-[CD1] |==|  0.04079
USER: genes 4 Torsion [N]-CA--C-[N] |==|  0.74726
USER: genes 5 Torsion [C]-N--CA-[CB] |==|  0.27150
USER: genes 6 Torsion [N]-CA--CB-[CG] |==|  0.13413
USER: genes 7 Torsion [CA]-CB--CG-[CD2] |==|  0.22761
USER: genes 8 Torsion [N]-CA--C-[N] |==|  0.38501
USER: genes 9 Torsion [C]-N--CA-[C] |==|  0.54566
USER: genes 10 Torsion [N]-CA--CB-[CG] |==|  0.64232
USER: genes 11 Torsion [CA]-CB--CG-[CD] |==|  0.84983
USER: genes 12 Torsion [CB]-CG--CD-[OE2] |==|  0.20455
USER: genes 13 Torsion [N]-CA--C-[N] |==|  0.49177
USER: genes 14 Torsion [C]-N--CA-[CB] |==|  0.50442
USER: genes 15 Torsion [N]-CA--C-[O] |==|  0.28403
USER: genes 16 Torsion [CB]-CA--N-[C] |==|  0.40455
USER: genes 17 Torsion [N]-C--CA-[N] |==|  0.91263
USER: genes 18 Torsion [C]-CA--N-[C] |==|  0.83255
USER: genes 19 Torsion [N]-C--CA-[N] |==|  0.86243
USER: genes 20 Torsion [C]-CA--N-[C] |==|  0.71908
USER: genes 21 Torsion [N]-C--CA-[N] |==|  0.49490
USER: genes 22 Torsion [C]-CA--CB-[CG] |==|  0.14417
USER: genes 23 Torsion [CA]-CB--CG-[CD1] |==|  0.20854
ROOT
ATOM      1  CA  LEU B   4      37.747  -2.802   5.765  1.00 36.98 LIG 0.18  C 
ENDROOT
BRANCH 1 2
ATOM      2  CB  LEU B   4      37.548  -1.726   4.699  1.00 35.91 LIG 0.04  C 
BRANCH 2 3
ATOM      3  CG  LEU B   4      38.830  -1.100   4.122  1.00 35.93 LIG-0.02  C 
ATOM      4  CD2 LEU B   4      38.757  -0.905   2.612  1.00 33.66 LIG 0.01  C 
ATOM      5  CD1 LEU B   4      40.093  -1.957   4.486  1.00 37.78 LIG 0.01  C 
ENDBRANCH 2 3
ENDBRANCH 1 2
BRANCH 1 6
ATOM      6  C   LEU B   4      37.449  -2.171   7.116  1.00 38.06 LIG 0.24  C 
ATOM      7  N   PHE B   5      36.493  -1.238   7.131  1.00 38.73 LIG-0.35  N 
ATOM      8 H    PHE B   5      35.982  -1.073   6.459  1.00 38.73 LIG 0.16  HD
ATOM      9 O    LEU B   4      38.130  -2.480   8.100  1.00 36.58 LIG-0.27  OA
BRANCH 7 10
ATOM     10  CA  PHE B   5      36.224  -0.403   8.297  1.00 41.04 LIG 0.18  C 
BRANCH 10 11
ATOM     11  CB  PHE B   5      36.896   0.979   8.210  1.00 39.67 LIG 0.07  C 
BRANCH 11 12
ATOM     12  CG  PHE B   5      36.677   1.663   6.915  1.00 38.07 LIG-0.06  A 
ATOM     13  CD2 PHE B   5      35.518   2.355   6.678  1.00 33.96 LIG 0.01  A 
ATOM     14  CE2 PHE B   5      35.286   2.998   5.430  1.00 35.53 LIG 0.00  A 
ATOM     15  CZ  PHE B   5      36.209   2.888   4.409  1.00 34.38 LIG 0.00  A 
ATOM     16  CE1 PHE B   5      37.386   2.167   4.656  1.00 35.56 LIG 0.00  A 
ATOM     17  CD1 PHE B   5      37.609   1.564   5.904  1.00 35.27 LIG 0.01  A 
ENDBRANCH 11 12
ENDBRANCH 10 11
BRANCH 10 18
ATOM     18  C   PHE B   5      34.758  -0.180   8.514  1.00 43.64 LIG 0.24  C 
ATOM     19 O    PHE B   5      34.018   0.004   7.538  1.00 43.27 LIG-0.27  OA
ATOM     20  N   GLU B   6      34.350  -0.242   9.783  1.00 47.41 LIG-0.35  N 
ATOM     21 H    GLU B   6      34.803  -0.631  10.403  1.00 47.41 LIG 0.16  HD
BRANCH 20 22
ATOM     22  CA  GLU B   6      33.079   0.350  10.261  1.00 51.55 LIG 0.18  C 
BRANCH 22 23
ATOM     23  CB  GLU B   6      31.858  -0.476   9.818  1.00 52.47 LIG 0.04  C 
BRANCH 23 24
ATOM     24  CG  GLU B   6      30.758   0.399   9.118  1.00 56.11 LIG 0.12  C 
BRANCH 24 25
ATOM     25  CD  GLU B   6      30.277   1.622   9.939  1.00 59.86 LIG 0.17  C 
ATOM     26 OE2  GLU B   6      31.030   2.607  10.047  1.00 64.67 LIG-0.65  OA
ATOM     27 OE1  GLU B   6      29.140   1.643  10.453  1.00 64.70 LIG-0.65  OA
ENDBRANCH 24 25
ENDBRANCH 23 24
ENDBRANCH 22 23
BRANCH 22 28
ATOM     28  C   GLU B   6      33.142   0.452  11.811  1.00 53.54 LIG 0.24  C 
ATOM     29 O    GLU B   6      34.134   0.056  12.453  1.00 53.95 LIG-0.27  OA
ATOM     30  N   ALA B   7      32.101   1.022  12.416  1.00 56.31 LIG-0.35  N 
ATOM     31 H    ALA B   7      31.395   1.294  12.006  1.00 56.31 LIG 0.16  HD
BRANCH 30 32
ATOM     32  CA  ALA B   7      32.082   1.235  13.888  1.00 57.55 LIG 0.16  C 
ATOM     33  CB  ALA B   7      30.759   1.871  14.346  1.00 58.11 LIG 0.04  C 
BRANCH 32 34
ATOM     34  C   ALA B   7      32.312  -0.074  14.624  1.00 58.67 LIG 0.22  C 
ATOM     35 O    ALA B   7      33.413  -0.323  15.107  1.00 60.59 LIG-0.29  OA
ENDBRANCH 32 34
ENDBRANCH 30 32
ENDBRANCH 22 28
ENDBRANCH 20 22
ENDBRANCH 10 18
ENDBRANCH 7 10
ENDBRANCH 1 6
BRANCH 1 36
ATOM     36  N   LEU B   4      36.972  -4.003   5.473  1.00 37.09 LIG-0.35  N 
ATOM     37 H    LEU B   4      36.216  -3.848   5.094  1.00 37.09 LIG 0.16  HD
ATOM     38  C   TRP B   3      37.412  -5.231   5.774  1.00 37.19 LIG 0.24  C 
ATOM     39 O    TRP B   3      38.463  -5.433   6.294  1.00 36.60 LIG-0.27  OA
BRANCH 38 40
ATOM     40  CA  TRP B   3      36.542  -6.414   5.369  1.00 38.87 LIG 0.18  C 
BRANCH 40 41
ATOM     41  N   TRP B   3      35.133  -6.011   5.412  1.00 40.30 LIG-0.35  N 
ATOM     42  C   ALA B   2      34.583  -5.587   6.563  1.00 43.05 LIG 0.24  C 
ATOM     43 O    ALA B   2      35.152  -5.680   7.653  1.00 42.86 LIG-0.27  OA
ATOM     44 H    TRP B   3      34.715  -6.070   4.663  1.00 40.30 LIG 0.16  HD
BRANCH 42 45
ATOM     45  CA  ALA B   2      33.169  -5.037   6.501  1.00 44.71 LIG 0.17  C 
ATOM     46  CB  ALA B   2      32.145  -6.170   6.226  1.00 44.36 LIG 0.04  C 
BRANCH 45 47
ATOM     47  N   ALA B   2      33.098  -4.051   5.422  1.00 46.59 LIG-0.35  N 
ATOM     48 H    ALA B   2      33.033  -4.392   4.636  1.00 46.59 LIG 0.16  HD
ATOM     49  C   PRO B   1      33.133  -2.756   5.659  1.00 48.49 LIG 0.25  C 
ATOM     50 O    PRO B   1      33.384  -2.312   6.768  1.00 48.43 LIG-0.27  OA
BRANCH 49 51
ATOM     51  CA  PRO B   1      32.830  -1.817   4.419  1.00 50.22 LIG 0.28  C 
ATOM     52  N   PRO B   1      32.835  -0.358   4.730  1.00 50.48 LIG-0.06  N 
ATOM     53 H3   PRO B   1      32.121  -0.000   4.410  1.00 50.48 LIG 0.28  HD
ATOM     54 H2   PRO B   1      32.810  -0.252   5.583  1.00 50.48 LIG 0.28  HD
ATOM     55  CD  PRO B   1      34.013   0.348   4.190  1.00 50.94 LIG 0.23  C 
ATOM     56  CG  PRO B   1      34.777  -0.718   3.408  1.00 51.81 LIG 0.03  C 
ATOM     57  CB  PRO B   1      33.886  -1.960   3.304  1.00 50.52 LIG 0.04  C 
ENDBRANCH 49 51
ENDBRANCH 45 47
ENDBRANCH 42 45
ENDBRANCH 40 41
BRANCH 40 58
ATOM     58  CB  TRP B   3      36.984  -6.926   3.979  1.00 38.41 LIG 0.07  C 
BRANCH 58 59
ATOM     59  CG  TRP B   3      38.425  -7.168   3.970  1.00 37.10 LIG-0.03  A 
ATOM     60  CD1 TRP B   3      39.065  -8.202   4.541  1.00 36.42 LIG 0.10  A 
ATOM     61  NE1 TRP B   3      40.409  -8.079   4.360  1.00 36.34 LIG-0.36  N 
ATOM     62 HE1  TRP B   3      41.005  -8.630   4.644  1.00 36.34 LIG 0.17  HD
ATOM     63  CE2 TRP B   3      40.655  -6.932   3.654  1.00 35.80 LIG 0.04  A 
ATOM     64  CD2 TRP B   3      39.432  -6.324   3.412  1.00 33.30 LIG-0.00  A 
ATOM     65  CZ2 TRP B   3      41.869  -6.366   3.253  1.00 36.94 LIG 0.03  A 
ATOM     66  CE3 TRP B   3      39.405  -5.134   2.702  1.00 37.18 LIG 0.01  A 
ATOM     67  CZ3 TRP B   3      40.610  -4.581   2.272  1.00 37.29 LIG 0.00  A 
ATOM     68  CH2 TRP B   3      41.828  -5.207   2.559  1.00 32.87 LIG 0.00  A 
ENDBRANCH 58 59
ENDBRANCH 40 58
ENDBRANCH 38 40
ENDBRANCH 1 36
TORSDOF 22
ENDMDL
MODEL 7
USER: ADFR SOLUTION from run 168
USER: SCORE 20.407244 LL:  -7.200 LR: -16.338 RR:   0.000 FEB:  -9.776
USER: RMSD 2.923291
USER: SEED 167
USER: STATUS 1 or 2 clusters left
USER: GENES 24
USER: genes 0 Translation |==|  0.67307 0.50840 0.29254
USER: genes 1 Rotation |==|  0.48268 0.47749 0.43322 0.99471
USER: genes 2 Torsion [C]-CA--CB-[CG] |==|  0.22807
USER: genes 3 Torsion [CA]-CB--CG-[CD1] |==|  0.08963
USER: genes 4 Torsion [N]-CA--C-[N] |==|  0.93736
USER: genes 5 Torsion [C]-N--CA-[CB] |==|  0.22154
USER: genes 6 Torsion [N]-CA--CB-[CG] |==|  0.01876
USER: genes 7 Torsion [CA]-CB--CG-[CD2] |==|  0.19785
USER: genes 8 Torsion [N]-CA--C-[N] |==|  0.30500
USER: genes 9 Torsion [C]-N--CA-[C] |==|  0.81958
USER: genes 10 Torsion [N]-CA--CB-[CG] |==|  0.87513
USER: genes 11 Torsion [CA]-CB--CG-[CD] |==|  0.24998
USER: genes 12 Torsion [CB]-CG--CD-[OE2] |==|  0.32209
USER: genes 13 Torsion [N]-CA--C-[N] |==|  0.43351
USER: genes 14 Torsion [C]-N--CA-[CB] |==|  0.48620
USER: genes 15 Torsion [N]-CA--C-[O] |==|  0.98407
USER: genes 16 Torsion [CB]-CA--N-[C] |==|  0.43484
USER: genes 17 Torsion [N]-C--CA-[N] |==|  0.90273
USER: genes 18 Torsion [C]-CA--N-[C] |==|  0.83653
USER: genes 19 Torsion [N]-C--CA-[N] |==|  0.91550
USER: genes 20 Torsion [C]-CA--N-[C] |==|  0.60069
USER: genes 21 Torsion [N]-C--CA-[N] |==|  0.06744
USER: genes 22 Torsion [C]-CA--CB-[CG] |==|  0.09221
USER: genes 23 Torsion [CA]-CB--CG-[CD1] |==|  0.23001
ROOT
ATOM      1  CA  LEU B   4      38.519  -2.838   4.991  1.00 36.98 LIG 0.18  C 
ENDROOT
BRANCH 1 2
ATOM      2  CB  LEU B   4      38.578  -1.899   3.786  1.00 35.91 LIG 0.04  C 
BRANCH 2 3
ATOM      3  CG  LEU B   4      39.925  -1.195   3.545  1.00 35.93 LIG-0.02  C 
ATOM      4  CD2 LEU B   4      40.112  -0.775   2.091  1.00 33.66 LIG 0.01  C 
ATOM      5  CD1 LEU B   4      41.127  -2.099   3.994  1.00 37.78 LIG 0.01  C 
ENDBRANCH 2 3
ENDBRANCH 1 2
BRANCH 1 6
ATOM      6  C   LEU B   4      38.269  -1.986   6.226  1.00 38.06 LIG 0.24  C 
ATOM      7  N   PHE B   5      37.020  -1.988   6.698  1.00 38.73 LIG-0.35  N 
ATOM      8 H    PHE B   5      36.408  -2.520   6.415  1.00 38.73 LIG 0.16  HD
ATOM      9 O    LEU B   4      39.182  -1.290   6.683  1.00 36.58 LIG-0.27  OA
BRANCH 7 10
ATOM     10  CA  PHE B   5      36.573  -1.078   7.748  1.00 41.04 LIG 0.18  C 
BRANCH 10 11
ATOM     11  CB  PHE B   5      36.254   0.332   7.219  1.00 39.67 LIG 0.07  C 
BRANCH 11 12
ATOM     12  CG  PHE B   5      36.310   0.439   5.743  1.00 38.07 LIG-0.06  A 
ATOM     13  CD2 PHE B   5      35.347  -0.146   4.963  1.00 33.96 LIG 0.01  A 
ATOM     14  CE2 PHE B   5      35.402  -0.070   3.544  1.00 35.53 LIG 0.00  A 
ATOM     15  CZ  PHE B   5      36.467   0.552   2.922  1.00 34.38 LIG 0.00  A 
ATOM     16  CE1 PHE B   5      37.455   1.136   3.727  1.00 35.56 LIG 0.00  A 
ATOM     17  CD1 PHE B   5      37.367   1.075   5.127  1.00 35.27 LIG 0.01  A 
ENDBRANCH 11 12
ENDBRANCH 10 11
BRANCH 10 18
ATOM     18  C   PHE B   5      35.354  -1.581   8.458  1.00 43.64 LIG 0.24  C 
ATOM     19 O    PHE B   5      34.274  -1.637   7.853  1.00 43.27 LIG-0.27  OA
ATOM     20  N   GLU B   6      35.548  -1.982   9.717  1.00 47.41 LIG-0.35  N 
ATOM     21 H    GLU B   6      36.322  -2.194  10.028  1.00 47.41 LIG 0.16  HD
BRANCH 20 22
ATOM     22  CA  GLU B   6      34.457  -2.105  10.711  1.00 51.55 LIG 0.18  C 
BRANCH 22 23
ATOM     23  CB  GLU B   6      34.942  -2.756  12.019  1.00 52.47 LIG 0.04  C 
BRANCH 23 24
ATOM     24  CG  GLU B   6      35.841  -4.020  11.769  1.00 56.11 LIG 0.12  C 
BRANCH 24 25
ATOM     25  CD  GLU B   6      37.357  -3.727  11.648  1.00 59.86 LIG 0.17  C 
ATOM     26 OE2  GLU B   6      38.130  -4.199  12.502  1.00 64.67 LIG-0.65  OA
ATOM     27 OE1  GLU B   6      37.809  -3.066  10.692  1.00 64.70 LIG-0.65  OA
ENDBRANCH 24 25
ENDBRANCH 23 24
ENDBRANCH 22 23
BRANCH 22 28
ATOM     28  C   GLU B   6      33.884  -0.685  10.982  1.00 53.54 LIG 0.24  C 
ATOM     29 O    GLU B   6      34.548   0.343  10.751  1.00 53.95 LIG-0.27  OA
ATOM     30  N   ALA B   7      32.633  -0.622  11.436  1.00 56.31 LIG-0.35  N 
ATOM     31 H    ALA B   7      32.151  -1.310  11.619  1.00 56.31 LIG 0.16  HD
BRANCH 30 32
ATOM     32  CA  ALA B   7      31.958   0.684  11.665  1.00 57.55 LIG 0.16  C 
ATOM     33  CB  ALA B   7      30.487   0.492  12.070  1.00 58.11 LIG 0.04  C 
BRANCH 32 34
ATOM     34  C   ALA B   7      32.689   1.488  12.727  1.00 58.67 LIG 0.22  C 
ATOM     35 O    ALA B   7      33.630   0.989  13.337  1.00 60.59 LIG-0.29  OA
ENDBRANCH 32 34
ENDBRANCH 30 32
ENDBRANCH 22 28
ENDBRANCH 20 22
ENDBRANCH 10 18
ENDBRANCH 7 10
ENDBRANCH 1 6
BRANCH 1 36
ATOM     36  N   LEU B   4      37.554  -3.913   4.791  1.00 37.09 LIG-0.35  N 
ATOM     37 H    LEU B   4      36.938  -3.729   4.220  1.00 37.09 LIG 0.16  HD
ATOM     38  C   TRP B   3      37.632  -5.079   5.447  1.00 37.19 LIG 0.24  C 
ATOM     39 O    TRP B   3      38.492  -5.323   6.232  1.00 36.60 LIG-0.27  OA
BRANCH 38 40
ATOM     40  CA  TRP B   3      36.601  -6.149   5.114  1.00 38.87 LIG 0.18  C 
BRANCH 40 41
ATOM     41  N   TRP B   3      35.318  -5.504   4.818  1.00 40.30 LIG-0.35  N 
ATOM     42  C   ALA B   2      34.721  -4.725   5.735  1.00 43.05 LIG 0.24  C 
ATOM     43 O    ALA B   2      35.105  -4.651   6.905  1.00 42.86 LIG-0.27  OA
ATOM     44 H    TRP B   3      35.001  -5.667   4.034  1.00 40.30 LIG 0.16  HD
BRANCH 42 45
ATOM     45  CA  ALA B   2      33.479  -3.964   5.306  1.00 44.71 LIG 0.17  C 
ATOM     46  CB  ALA B   2      32.200  -4.808   5.552  1.00 44.36 LIG 0.04  C 
BRANCH 45 47
ATOM     47  N   ALA B   2      33.587  -3.660   3.880  1.00 46.59 LIG-0.35  N 
ATOM     48 H    ALA B   2      33.965  -4.276   3.414  1.00 46.59 LIG 0.16  HD
ATOM     49  C   PRO B   1      33.137  -2.530   3.372  1.00 48.49 LIG 0.25  C 
ATOM     50 O    PRO B   1      32.752  -1.615   4.083  1.00 48.43 LIG-0.27  OA
BRANCH 49 51
ATOM     51  CA  PRO B   1      33.130  -2.436   1.791  1.00 50.22 LIG 0.28  C 
ATOM     52  N   PRO B   1      33.077  -3.752   1.092  1.00 50.48 LIG-0.06  N 
ATOM     53 H3   PRO B   1      33.689  -3.775   0.488  1.00 50.48 LIG 0.28  HD
ATOM     54 H2   PRO B   1      33.255  -4.377   1.655  1.00 50.48 LIG 0.28  HD
ATOM     55  CD  PRO B   1      31.770  -4.026   0.464  1.00 50.94 LIG 0.23  C 
ATOM     56  CG  PRO B   1      30.952  -2.761   0.709  1.00 51.81 LIG 0.03  C 
ATOM     57  CB  PRO B   1      31.895  -1.683   1.254  1.00 50.52 LIG 0.04  C 
ENDBRANCH 49 51
ENDBRANCH 45 47
ENDBRANCH 42 45
ENDBRANCH 40 41
BRANCH 40 58
ATOM     58  CB  TRP B   3      37.123  -7.023   3.950  1.00 38.41 LIG 0.07  C 
BRANCH 58 59
ATOM     59  CG  TRP B   3      38.577  -7.143   4.030  1.00 37.10 LIG-0.03  A 
ATOM     60  CD1 TRP B   3      39.267  -8.006   4.795  1.00 36.42 LIG 0.10  A 
ATOM     61  NE1 TRP B   3      40.604  -7.806   4.637  1.00 36.34 LIG-0.36  N 
ATOM     62 HE1  TRP B   3      41.228  -8.248   5.032  1.00 36.34 LIG 0.17  HD
ATOM     63  CE2 TRP B   3      40.795  -6.783   3.747  1.00 35.80 LIG 0.04  A 
ATOM     64  CD2 TRP B   3      39.542  -6.329   3.364  1.00 33.30 LIG-0.00  A 
ATOM     65  CZ2 TRP B   3      41.980  -6.197   3.291  1.00 36.94 LIG 0.03  A 
ATOM     66  CE3 TRP B   3      39.456  -5.287   2.454  1.00 37.18 LIG 0.01  A 
ATOM     67  CZ3 TRP B   3      40.634  -4.719   1.971  1.00 37.29 LIG 0.00  A 
ATOM     68  CH2 TRP B   3      41.882  -5.182   2.402  1.00 32.87 LIG 0.00  A 
ENDBRANCH 58 59
ENDBRANCH 40 58
ENDBRANCH 38 40
ENDBRANCH 1 36
TORSDOF 22
ENDMDL
MODEL 8
USER: ADFR SOLUTION from run 37
USER: SCORE 21.595195 LL:  -6.992 LR: -16.239 RR:   0.000 FEB:  -9.677
USER: RMSD 4.229987
USER: SEED 36
USER: STATUS no improvement in best in 3 clusters for 5 generations
USER: GENES 24
USER: genes 0 Translation |==|  0.64336 0.45955 0.34389
USER: genes 1 Rotation |==|  0.53726 0.48360 0.49348 0.99830
USER: genes 2 Torsion [C]-CA--CB-[CG] |==|  0.20203
USER: genes 3 Torsion [CA]-CB--CG-[CD1] |==|  0.20367
USER: genes 4 Torsion [N]-CA--C-[N] |==|  0.95556
USER: genes 5 Torsion [C]-N--CA-[CB] |==|  0.83677
USER: genes 6 Torsion [N]-CA--CB-[CG] |==|  0.89043
USER: genes 7 Torsion [CA]-CB--CG-[CD2] |==|  0.39900
USER: genes 8 Torsion [N]-CA--C-[N] |==|  0.37892
USER: genes 9 Torsion [C]-N--CA-[C] |==|  0.73361
USER: genes 10 Torsion [N]-CA--CB-[CG] |==|  0.55498
USER: genes 11 Torsion [CA]-CB--CG-[CD] |==|  0.69408
USER: genes 12 Torsion [CB]-CG--CD-[OE2] |==|  0.49182
USER: genes 13 Torsion [N]-CA--C-[N] |==|  0.97427
USER: genes 14 Torsion [C]-N--CA-[CB] |==|  0.20849
USER: genes 15 Torsion [N]-CA--C-[O] |==|  0.47488
USER: genes 16 Torsion [CB]-CA--N-[C] |==|  0.43299
USER: genes 17 Torsion [N]-C--CA-[N] |==|  0.87379
USER: genes 18 Torsion [C]-CA--N-[C] |==|  0.82392
USER: genes 19 Torsion [N]-C--CA-[N] |==|  0.89683
USER: genes 20 Torsion [C]-CA--N-[C] |==|  0.76671
USER: genes 21 Torsion [N]-C--CA-[N] |==|  0.92756
USER: genes 22 Torsion [C]-CA--CB-[CG] |==|  0.11255
USER: genes 23 Torsion [CA]-CB--CG-[CD1] |==|  0.20094
ROOT
ATOM      1  CA  LEU B   4      37.873  -3.791   6.147  1.00 36.98 LIG 0.18  C 
ENDROOT
BRANCH 1 2
ATOM      2  CB  LEU B   4      37.664  -2.639   5.163  1.00 35.91 LIG 0.04  C 
BRANCH 2 3
ATOM      3  CG  LEU B   4      38.669  -1.479   5.259  1.00 35.93 LIG-0.02  C 
ATOM      4  CD2 LEU B   4      38.174  -0.217   4.562  1.00 33.66 LIG 0.01  C 
ATOM      5  CD1 LEU B   4      40.068  -1.890   4.678  1.00 37.78 LIG 0.01  C 
ENDBRANCH 2 3
ENDBRANCH 1 2
BRANCH 1 6
ATOM      6  C   LEU B   4      37.459  -3.299   7.524  1.00 38.06 LIG 0.24  C 
ATOM      7  N   PHE B   5      36.328  -3.812   8.016  1.00 38.73 LIG-0.35  N 
ATOM      8 H    PHE B   5      35.907  -4.467   7.651  1.00 38.73 LIG 0.16  HD
ATOM      9 O    LEU B   4      38.121  -2.419   8.085  1.00 36.58 LIG-0.27  OA
BRANCH 7 10
ATOM     10  CA  PHE B   5      35.693  -3.304   9.228  1.00 41.04 LIG 0.18  C 
BRANCH 10 11
ATOM     11  CB  PHE B   5      36.613  -3.378  10.460  1.00 39.67 LIG 0.07  C 
BRANCH 11 12
ATOM     12  CG  PHE B   5      37.426  -4.615  10.518  1.00 38.07 LIG-0.06  A 
ATOM     13  CD2 PHE B   5      38.709  -4.585  10.998  1.00 33.96 LIG 0.01  A 
ATOM     14  CE2 PHE B   5      39.508  -5.762  11.038  1.00 35.53 LIG 0.00  A 
ATOM     15  CZ  PHE B   5      39.018  -6.952  10.537  1.00 34.38 LIG 0.00  A 
ATOM     16  CE1 PHE B   5      37.710  -6.970  10.035  1.00 35.56 LIG 0.00  A 
ATOM     17  CD1 PHE B   5      36.927  -5.805  10.031  1.00 35.27 LIG 0.01  A 
ENDBRANCH 11 12
ENDBRANCH 10 11
BRANCH 10 18
ATOM     18  C   PHE B   5      35.245  -1.881   9.084  1.00 43.64 LIG 0.24  C 
ATOM     19 O    PHE B   5      35.978  -1.065   8.507  1.00 43.27 LIG-0.27  OA
ATOM     20  N   GLU B   6      34.032  -1.609   9.570  1.00 47.41 LIG-0.35  N 
ATOM     21 H    GLU B   6      33.437  -2.215   9.713  1.00 47.41 LIG 0.16  HD
BRANCH 20 22
ATOM     22  CA  GLU B   6      33.578  -0.242   9.915  1.00 51.55 LIG 0.18  C 
BRANCH 22 23
ATOM     23  CB  GLU B   6      32.102  -0.015   9.543  1.00 52.47 LIG 0.04  C 
BRANCH 23 24
ATOM     24  CG  GLU B   6      31.735   1.508   9.428  1.00 56.11 LIG 0.12  C 
BRANCH 24 25
ATOM     25  CD  GLU B   6      30.808   2.042  10.549  1.00 59.86 LIG 0.17  C 
ATOM     26 OE2  GLU B   6      30.515   3.251  10.560  1.00 64.67 LIG-0.65  OA
ATOM     27 OE1  GLU B   6      30.326   1.272  11.403  1.00 64.70 LIG-0.65  OA
ENDBRANCH 24 25
ENDBRANCH 23 24
ENDBRANCH 22 23
BRANCH 22 28
ATOM     28  C   GLU B   6      33.802  -0.025  11.438  1.00 53.54 LIG 0.24  C 
ATOM     29 O    GLU B   6      33.630   1.088  11.971  1.00 53.95 LIG-0.27  OA
ATOM     30  N   ALA B   7      34.147  -1.096  12.151  1.00 56.31 LIG-0.35  N 
ATOM     31 H    ALA B   7      34.287  -1.875  11.814  1.00 56.31 LIG 0.16  HD
BRANCH 30 32
ATOM     32  CA  ALA B   7      34.320  -1.020  13.627  1.00 57.55 LIG 0.16  C 
ATOM     33  CB  ALA B   7      32.965  -0.948  14.348  1.00 58.11 LIG 0.04  C 
BRANCH 32 34
ATOM     34  C   ALA B   7      35.118  -2.209  14.136  1.00 58.67 LIG 0.22  C 
ATOM     35 O    ALA B   7      35.505  -2.237  15.300  1.00 60.59 LIG-0.29  OA
ENDBRANCH 32 34
ENDBRANCH 30 32
ENDBRANCH 22 28
ENDBRANCH 20 22
ENDBRANCH 10 18
ENDBRANCH 7 10
ENDBRANCH 1 6
BRANCH 1 36
ATOM     36  N   LEU B   4      37.196  -5.006   5.708  1.00 37.09 LIG-0.35  N 
ATOM     37 H    LEU B   4      36.531  -4.865   5.180  1.00 37.09 LIG 0.16  HD
ATOM     38  C   TRP B   3      37.585  -6.226   6.099  1.00 37.19 LIG 0.24  C 
ATOM     39 O    TRP B   3      38.510  -6.408   6.826  1.00 36.60 LIG-0.27  OA
BRANCH 38 40
ATOM     40  CA  TRP B   3      36.838  -7.425   5.531  1.00 38.87 LIG 0.18  C 
BRANCH 40 41
ATOM     41  N   TRP B   3      35.396  -7.166   5.593  1.00 40.30 LIG-0.35  N 
ATOM     42  C   ALA B   2      34.785  -7.007   6.780  1.00 43.05 LIG 0.24  C 
ATOM     43 O    ALA B   2      35.340  -7.241   7.857  1.00 42.86 LIG-0.27  OA
ATOM     44 H    TRP B   3      35.000  -7.127   4.831  1.00 40.30 LIG 0.16  HD
BRANCH 42 45
ATOM     45  CA  ALA B   2      33.327  -6.585   6.765  1.00 44.71 LIG 0.17  C 
ATOM     46  CB  ALA B   2      32.398  -7.811   6.560  1.00 44.36 LIG 0.04  C 
BRANCH 45 47
ATOM     47  N   ALA B   2      33.125  -5.640   5.667  1.00 46.59 LIG-0.35  N 
ATOM     48 H    ALA B   2      32.831  -5.997   4.943  1.00 46.59 LIG 0.16  HD
ATOM     49  C   PRO B   1      33.379  -4.354   5.800  1.00 48.49 LIG 0.25  C 
ATOM     50 O    PRO B   1      33.942  -3.908   6.788  1.00 48.43 LIG-0.27  OA
BRANCH 49 51
ATOM     51  CA  PRO B   1      32.910  -3.429   4.603  1.00 50.22 LIG 0.28  C 
ATOM     52  N   PRO B   1      32.818  -4.119   3.284  1.00 50.48 LIG-0.06  N 
ATOM     53 H3   PRO B   1      33.231  -3.652   2.692  1.00 50.48 LIG 0.28  HD
ATOM     54 H2   PRO B   1      33.223  -4.877   3.334  1.00 50.48 LIG 0.28  HD
ATOM     55  CD  PRO B   1      31.429  -4.343   2.839  1.00 50.94 LIG 0.23  C 
ATOM     56  CG  PRO B   1      30.569  -3.677   3.910  1.00 51.81 LIG 0.03  C 
ATOM     57  CB  PRO B   1      31.493  -2.860   4.821  1.00 50.52 LIG 0.04  C 
ENDBRANCH 49 51
ENDBRANCH 45 47
ENDBRANCH 42 45
ENDBRANCH 40 41
BRANCH 40 58
ATOM     58  CB  TRP B   3      37.341  -7.712   4.097  1.00 38.41 LIG 0.07  C 
BRANCH 58 59
ATOM     59  CG  TRP B   3      38.791  -7.547   4.034  1.00 37.10 LIG-0.03  A 
ATOM     60  CD1 TRP B   3      39.713  -8.371   4.560  1.00 36.42 LIG 0.10  A 
ATOM     61  NE1 TRP B   3      40.962  -7.880   4.336  1.00 36.34 LIG-0.36  N 
ATOM     62 HE1  TRP B   3      41.698  -8.248   4.587  1.00 36.34 LIG 0.17  HD
ATOM     63  CE2 TRP B   3      40.855  -6.702   3.646  1.00 35.80 LIG 0.04  A 
ATOM     64  CD2 TRP B   3      39.505  -6.452   3.460  1.00 33.30 LIG-0.00  A 
ATOM     65  CZ2 TRP B   3      41.851  -5.818   3.217  1.00 36.94 LIG 0.03  A 
ATOM     66  CE3 TRP B   3      39.123  -5.308   2.777  1.00 37.18 LIG 0.01  A 
ATOM     67  CZ3 TRP B   3      40.111  -4.438   2.319  1.00 37.29 LIG 0.00  A 
ATOM     68  CH2 TRP B   3      41.465  -4.707   2.550  1.00 32.87 LIG 0.00  A 
ENDBRANCH 58 59
ENDBRANCH 40 58
ENDBRANCH 38 40
ENDBRANCH 1 36
TORSDOF 22
ENDMDL
MODEL 9
USER: ADFR SOLUTION from run 140
USER: SCORE 19.175488 LL:  -6.055 LR: -16.219 RR:   0.000 FEB:  -9.657
USER: RMSD 2.285102
USER: SEED 139
USER: STATUS no improvement in best in 2 clusters for 5 generations
USER: GENES 24
USER: genes 0 Translation |==|  0.61769 0.51735 0.33136
USER: genes 1 Rotation |==|  0.47326 0.54810 0.54583 0.99484
USER: genes 2 Torsion [C]-CA--CB-[CG] |==|  0.23979
USER: genes 3 Torsion [CA]-CB--CG-[CD1] |==|  0.15773
USER: genes 4 Torsion [N]-CA--C-[N] |==|  0.83578
USER: genes 5 Torsion [C]-N--CA-[CB] |==|  0.28557
USER: genes 6 Torsion [N]-CA--CB-[CG] |==|  0.78752
USER: genes 7 Torsion [CA]-CB--CG-[CD2] |==|  0.79336
USER: genes 8 Torsion [N]-CA--C-[N] |==|  0.38233
USER: genes 9 Torsion [C]-N--CA-[C] |==|  0.74071
USER: genes 10 Torsion [N]-CA--CB-[CG] |==|  0.53294
USER: genes 11 Torsion [CA]-CB--CG-[CD] |==|  0.65149
USER: genes 12 Torsion [CB]-CG--CD-[OE2] |==|  0.56535
USER: genes 13 Torsion [N]-CA--C-[N] |==|  0.36771
USER: genes 14 Torsion [C]-N--CA-[CB] |==|  0.82257
USER: genes 15 Torsion [N]-CA--C-[O] |==|  0.61258
USER: genes 16 Torsion [CB]-CA--N-[C] |==|  0.39256
USER: genes 17 Torsion [N]-C--CA-[N] |==|  0.90894
USER: genes 18 Torsion [C]-CA--N-[C] |==|  0.86111
USER: genes 19 Torsion [N]-C--CA-[N] |==|  0.07371
USER: genes 20 Torsion [C]-CA--N-[C] |==|  0.14852
USER: genes 21 Torsion [N]-C--CA-[N] |==|  0.18432
USER: genes 22 Torsion [C]-CA--CB-[CG] |==|  0.17290
USER: genes 23 Torsion [CA]-CB--CG-[CD1] |==|  0.21173
ROOT
ATOM      1  CA  LEU B   4      37.315  -2.664   5.865  1.00 36.98 LIG 0.18  C 
ENDROOT
BRANCH 1 2
ATOM      2  CB  LEU B   4      36.626  -1.890   4.740  1.00 35.91 LIG 0.04  C 
BRANCH 2 3
ATOM      3  CG  LEU B   4      37.458  -0.778   4.078  1.00 35.93 LIG-0.02  C 
ATOM      4  CD2 LEU B   4      36.693  -0.054   2.976  1.00 33.66 LIG 0.01  C 
ATOM      5  CD1 LEU B   4      38.805  -1.341   3.505  1.00 37.78 LIG 0.01  C 
ENDBRANCH 2 3
ENDBRANCH 1 2
BRANCH 1 6
ATOM      6  C   LEU B   4      37.092  -1.892   7.156  1.00 38.06 LIG 0.24  C 
ATOM      7  N   PHE B   5      35.830  -1.815   7.585  1.00 38.73 LIG-0.35  N 
ATOM      8 H    PHE B   5      35.184  -2.265   7.239  1.00 38.73 LIG 0.16  HD
ATOM      9 O    LEU B   4      38.044  -1.322   7.699  1.00 36.58 LIG-0.27  OA
BRANCH 7 10
ATOM     10  CA  PHE B   5      35.424  -0.953   8.690  1.00 41.04 LIG 0.18  C 
BRANCH 10 11
ATOM     11  CB  PHE B   5      34.720   0.331   8.218  1.00 39.67 LIG 0.07  C 
BRANCH 11 12
ATOM     12  CG  PHE B   5      35.649   1.352   7.681  1.00 38.07 LIG-0.06  A 
ATOM     13  CD2 PHE B   5      36.445   2.085   8.522  1.00 33.96 LIG 0.01  A 
ATOM     14  CE2 PHE B   5      37.325   3.083   8.020  1.00 35.53 LIG 0.00  A 
ATOM     15  CZ  PHE B   5      37.350   3.373   6.670  1.00 34.38 LIG 0.00  A 
ATOM     16  CE1 PHE B   5      36.522   2.629   5.818  1.00 35.56 LIG 0.00  A 
ATOM     17  CD1 PHE B   5      35.682   1.627   6.330  1.00 35.27 LIG 0.01  A 
ENDBRANCH 11 12
ENDBRANCH 10 11
BRANCH 10 18
ATOM     18  C   PHE B   5      34.503  -1.648   9.647  1.00 43.64 LIG 0.24  C 
ATOM     19 O    PHE B   5      33.618  -2.396   9.209  1.00 43.27 LIG-0.27  OA
ATOM     20  N   GLU B   6      34.748  -1.428  10.941  1.00 47.41 LIG-0.35  N 
ATOM     21 H    GLU B   6      35.505  -1.142  11.233  1.00 47.41 LIG 0.16  HD
BRANCH 20 22
ATOM     22  CA  GLU B   6      33.747  -1.650  12.009  1.00 51.55 LIG 0.18  C 
BRANCH 22 23
ATOM     23  CB  GLU B   6      34.393  -2.177  13.303  1.00 52.47 LIG 0.04  C 
BRANCH 23 24
ATOM     24  CG  GLU B   6      33.334  -2.698  14.340  1.00 56.11 LIG 0.12  C 
BRANCH 24 25
ATOM     25  CD  GLU B   6      33.431  -2.057  15.748  1.00 59.86 LIG 0.17  C 
ATOM     26 OE2  GLU B   6      32.972  -2.679  16.723  1.00 64.67 LIG-0.65  OA
ATOM     27 OE1  GLU B   6      33.994  -0.957  15.914  1.00 64.70 LIG-0.65  OA
ENDBRANCH 24 25
ENDBRANCH 23 24
ENDBRANCH 22 23
BRANCH 22 28
ATOM     28  C   GLU B   6      33.008  -0.307  12.271  1.00 53.54 LIG 0.24  C 
ATOM     29 O    GLU B   6      33.626   0.769  12.382  1.00 53.95 LIG-0.27  OA
ATOM     30  N   ALA B   7      31.678  -0.358  12.331  1.00 56.31 LIG-0.35  N 
ATOM     31 H    ALA B   7      31.220  -1.083  12.272  1.00 56.31 LIG 0.16  HD
BRANCH 30 32
ATOM     32  CA  ALA B   7      30.864   0.875  12.508  1.00 57.55 LIG 0.16  C 
ATOM     33  CB  ALA B   7      31.145   1.544  13.863  1.00 58.11 LIG 0.04  C 
BRANCH 32 34
ATOM     34  C   ALA B   7      31.123   1.857  11.378  1.00 58.67 LIG 0.22  C 
ATOM     35 O    ALA B   7      31.215   3.058  11.616  1.00 60.59 LIG-0.29  OA
ENDBRANCH 32 34
ENDBRANCH 30 32
ENDBRANCH 22 28
ENDBRANCH 20 22
ENDBRANCH 10 18
ENDBRANCH 7 10
ENDBRANCH 1 6
BRANCH 1 36
ATOM     36  N   LEU B   4      36.880  -4.055   5.908  1.00 37.09 LIG-0.35  N 
ATOM     37 H    LEU B   4      36.043  -4.166   5.747  1.00 37.09 LIG 0.16  HD
ATOM     38  C   TRP B   3      37.722  -5.062   6.176  1.00 37.19 LIG 0.24  C 
ATOM     39 O    TRP B   3      38.881  -4.896   6.393  1.00 36.60 LIG-0.27  OA
BRANCH 38 40
ATOM     40  CA  TRP B   3      37.167  -6.480   6.137  1.00 38.87 LIG 0.18  C 
BRANCH 40 41
ATOM     41  N   TRP B   3      35.768  -6.459   6.574  1.00 40.30 LIG-0.35  N 
ATOM     42  C   ALA B   2      35.420  -5.837   7.714  1.00 43.05 LIG 0.24  C 
ATOM     43 O    ALA B   2      36.247  -5.417   8.528  1.00 42.86 LIG-0.27  OA
ATOM     44 H    TRP B   3      35.218  -6.866   6.052  1.00 40.30 LIG 0.16  HD
BRANCH 42 45
ATOM     45  CA  ALA B   2      33.938  -5.719   8.022  1.00 44.71 LIG 0.17  C 
ATOM     46  CB  ALA B   2      33.684  -5.790   9.552  1.00 44.36 LIG 0.04  C 
BRANCH 45 47
ATOM     47  N   ALA B   2      33.235  -6.820   7.365  1.00 46.59 LIG-0.35  N 
ATOM     48 H    ALA B   2      32.581  -6.573   6.865  1.00 46.59 LIG 0.16  HD
ATOM     49  C   PRO B   1      33.590  -8.077   7.541  1.00 48.49 LIG 0.25  C 
ATOM     50 O    PRO B   1      34.418  -8.400   8.378  1.00 48.43 LIG-0.27  OA
BRANCH 49 51
ATOM     51  CA  PRO B   1      32.877  -9.135   6.602  1.00 50.22 LIG 0.28  C 
ATOM     52  N   PRO B   1      33.221  -9.011   5.155  1.00 50.48 LIG-0.06  N 
ATOM     53 H3   PRO B   1      32.496  -9.007   4.693  1.00 50.48 LIG 0.28  HD
ATOM     54 H2   PRO B   1      33.608  -8.254   5.022  1.00 50.48 LIG 0.28  HD
ATOM     55  CD  PRO B   1      34.098 -10.093   4.670  1.00 50.94 LIG 0.23  C 
ATOM     56  CG  PRO B   1      34.264 -11.022   5.870  1.00 51.81 LIG 0.03  C 
ATOM     57  CB  PRO B   1      33.268 -10.585   6.950  1.00 50.52 LIG 0.04  C 
ENDBRANCH 49 51
ENDBRANCH 45 47
ENDBRANCH 42 45
ENDBRANCH 40 41
BRANCH 40 58
ATOM     58  CB  TRP B   3      37.351  -7.066   4.718  1.00 38.41 LIG 0.07  C 
BRANCH 58 59
ATOM     59  CG  TRP B   3      38.773  -7.144   4.391  1.00 37.10 LIG-0.03  A 
ATOM     60  CD1 TRP B   3      39.649  -8.055   4.847  1.00 36.42 LIG 0.10  A 
ATOM     61  NE1 TRP B   3      40.892  -7.795   4.358  1.00 36.34 LIG-0.36  N 
ATOM     62 HE1  TRP B   3      41.602  -8.254   4.522  1.00 36.34 LIG 0.17  HD
ATOM     63  CE2 TRP B   3      40.829  -6.683   3.561  1.00 35.80 LIG 0.04  A 
ATOM     64  CD2 TRP B   3      39.517  -6.236   3.579  1.00 33.30 LIG-0.00  A 
ATOM     65  CZ2 TRP B   3      41.843  -6.015   2.868  1.00 36.94 LIG 0.03  A 
ATOM     66  CE3 TRP B   3      39.182  -5.112   2.840  1.00 37.18 LIG 0.01  A 
ATOM     67  CZ3 TRP B   3      40.182  -4.460   2.120  1.00 37.29 LIG 0.00  A 
ATOM     68  CH2 TRP B   3      41.503  -4.922   2.149  1.00 32.87 LIG 0.00  A 
ENDBRANCH 58 59
ENDBRANCH 40 58
ENDBRANCH 38 40
ENDBRANCH 1 36
TORSDOF 22
ENDMDL
MODEL 10
USER: ADFR SOLUTION from run 105
USER: SCORE 21.211105 LL:  -8.204 LR: -16.086 RR:   0.000 FEB:  -9.524
USER: RMSD 3.651789
USER: SEED 104
USER: STATUS no improvement in best in 5 clusters for 5 generations
USER: GENES 24
USER: genes 0 Translation |==|  0.66107 0.51259 0.30306
USER: genes 1 Rotation |==|  0.50876 0.47628 0.43930 0.99566
USER: genes 2 Torsion [C]-CA--CB-[CG] |==|  0.19272
USER: genes 3 Torsion [CA]-CB--CG-[CD1] |==|  0.26086
USER: genes 4 Torsion [N]-CA--C-[N] |==|  0.97036
USER: genes 5 Torsion [C]-N--CA-[CB] |==|  0.25441
USER: genes 6 Torsion [N]-CA--CB-[CG] |==|  0.74689
USER: genes 7 Torsion [CA]-CB--CG-[CD2] |==|  0.75257
USER: genes 8 Torsion [N]-CA--C-[N] |==|  0.47776
USER: genes 9 Torsion [C]-N--CA-[C] |==|  0.83420
USER: genes 10 Torsion [N]-CA--CB-[CG] |==|  0.26025
USER: genes 11 Torsion [CA]-CB--CG-[CD] |==|  0.81287
USER: genes 12 Torsion [CB]-CG--CD-[OE2] |==|  0.47511
USER: genes 13 Torsion [N]-CA--C-[N] |==|  0.41237
USER: genes 14 Torsion [C]-N--CA-[CB] |==|  0.46215
USER: genes 15 Torsion [N]-CA--C-[O] |==|  0.77740
USER: genes 16 Torsion [CB]-CA--N-[C] |==|  0.43151
USER: genes 17 Torsion [N]-C--CA-[N] |==|  0.89003
USER: genes 18 Torsion [C]-CA--N-[C] |==|  0.80507
USER: genes 19 Torsion [N]-C--CA-[N] |==|  0.87477
USER: genes 20 Torsion [C]-CA--N-[C] |==|  0.68435
USER: genes 21 Torsion [N]-C--CA-[N] |==|  0.49244
USER: genes 22 Torsion [C]-CA--CB-[CG] |==|  0.12333
USER: genes 23 Torsion [CA]-CB--CG-[CD1] |==|  0.21926
ROOT
ATOM      1  CA  LEU B   4      38.258  -2.756   5.228  1.00 36.98 LIG 0.18  C 
ENDROOT
BRANCH 1 2
ATOM      2  CB  LEU B   4      38.308  -1.699   4.126  1.00 35.91 LIG 0.04  C 
BRANCH 2 3
ATOM      3  CG  LEU B   4      39.505  -0.732   4.171  1.00 35.93 LIG-0.02  C 
ATOM      4  CD2 LEU B   4      39.125   0.688   3.770  1.00 33.66 LIG 0.01  C 
ATOM      5  CD1 LEU B   4      40.681  -1.243   3.265  1.00 37.78 LIG 0.01  C 
ENDBRANCH 2 3
ENDBRANCH 1 2
BRANCH 1 6
ATOM      6  C   LEU B   4      37.963  -2.042   6.537  1.00 38.06 LIG 0.24  C 
ATOM      7  N   PHE B   5      36.790  -2.324   7.109  1.00 38.73 LIG-0.35  N 
ATOM      8 H    PHE B   5      36.271  -2.954   6.839  1.00 38.73 LIG 0.16  HD
ATOM      9 O    LEU B   4      38.759  -1.200   6.968  1.00 36.58 LIG-0.27  OA
BRANCH 7 10
ATOM     10  CA  PHE B   5      36.273  -1.583   8.255  1.00 41.04 LIG 0.18  C 
BRANCH 10 11
ATOM     11  CB  PHE B   5      35.383  -0.395   7.846  1.00 39.67 LIG 0.07  C 
BRANCH 11 12
ATOM     12  CG  PHE B   5      36.127   0.875   7.685  1.00 38.07 LIG-0.06  A 
ATOM     13  CD2 PHE B   5      36.310   1.718   8.749  1.00 33.96 LIG 0.01  A 
ATOM     14  CE2 PHE B   5      37.004   2.951   8.602  1.00 35.53 LIG 0.00  A 
ATOM     15  CZ  PHE B   5      37.460   3.348   7.360  1.00 34.38 LIG 0.00  A 
ATOM     16  CE1 PHE B   5      37.257   2.485   6.274  1.00 35.56 LIG 0.00  A 
ATOM     17  CD1 PHE B   5      36.595   1.259   6.446  1.00 35.27 LIG 0.01  A 
ENDBRANCH 11 12
ENDBRANCH 10 11
BRANCH 10 18
ATOM     18  C   PHE B   5      35.474  -2.449   9.181  1.00 43.64 LIG 0.24  C 
ATOM     19 O    PHE B   5      35.231  -3.621   8.863  1.00 43.27 LIG-0.27  OA
ATOM     20  N   GLU B   6      35.112  -1.877  10.332  1.00 47.41 LIG-0.35  N 
ATOM     21 H    GLU B   6      35.505  -1.183  10.655  1.00 47.41 LIG 0.16  HD
BRANCH 20 22
ATOM     22  CA  GLU B   6      33.999  -2.373  11.175  1.00 51.55 LIG 0.18  C 
BRANCH 22 23
ATOM     23  CB  GLU B   6      33.843  -1.548  12.465  1.00 52.47 LIG 0.04  C 
BRANCH 23 24
ATOM     24  CG  GLU B   6      32.797  -0.385  12.317  1.00 56.11 LIG 0.12  C 
BRANCH 24 25
ATOM     25  CD  GLU B   6      33.215   0.748  11.347  1.00 59.86 LIG 0.17  C 
ATOM     26 OE2  GLU B   6      32.378   1.618  11.043  1.00 64.67 LIG-0.65  OA
ATOM     27 OE1  GLU B   6      34.380   0.819  10.906  1.00 64.70 LIG-0.65  OA
ENDBRANCH 24 25
ENDBRANCH 23 24
ENDBRANCH 22 23
BRANCH 22 28
ATOM     28  C   GLU B   6      32.694  -2.329  10.332  1.00 53.54 LIG 0.24  C 
ATOM     29 O    GLU B   6      32.528  -1.490   9.426  1.00 53.95 LIG-0.27  OA
ATOM     30  N   ALA B   7      31.778  -3.259  10.599  1.00 56.31 LIG-0.35  N 
ATOM     31 H    ALA B   7      31.853  -3.845  11.224  1.00 56.31 LIG 0.16  HD
BRANCH 30 32
ATOM     32  CA  ALA B   7      30.521  -3.357   9.810  1.00 57.55 LIG 0.16  C 
ATOM     33  CB  ALA B   7      29.795  -4.686  10.072  1.00 58.11 LIG 0.04  C 
BRANCH 32 34
ATOM     34  C   ALA B   7      29.599  -2.190  10.121  1.00 58.67 LIG 0.22  C 
ATOM     35 O    ALA B   7      28.908  -2.206  11.136  1.00 60.59 LIG-0.29  OA
ENDBRANCH 32 34
ENDBRANCH 30 32
ENDBRANCH 22 28
ENDBRANCH 20 22
ENDBRANCH 10 18
ENDBRANCH 7 10
ENDBRANCH 1 6
BRANCH 1 36
ATOM     36  N   LEU B   4      37.329  -3.833   4.902  1.00 37.09 LIG-0.35  N 
ATOM     37 H    LEU B   4      36.708  -3.605   4.353  1.00 37.09 LIG 0.16  HD
ATOM     38  C   TRP B   3      37.446  -5.062   5.419  1.00 37.19 LIG 0.24  C 
ATOM     39 O    TRP B   3      38.314  -5.367   6.174  1.00 36.60 LIG-0.27  OA
BRANCH 38 40
ATOM     40  CA  TRP B   3      36.451  -6.121   4.962  1.00 38.87 LIG 0.18  C 
BRANCH 40 41
ATOM     41  N   TRP B   3      35.123  -5.512   4.841  1.00 40.30 LIG-0.35  N 
ATOM     42  C   ALA B   2      34.446  -5.135   5.940  1.00 43.05 LIG 0.24  C 
ATOM     43 O    ALA B   2      34.802  -5.434   7.082  1.00 42.86 LIG-0.27  OA
ATOM     44 H    TRP B   3      34.835  -5.423   4.035  1.00 40.30 LIG 0.16  HD
BRANCH 42 45
ATOM     45  CA  ALA B   2      33.151  -4.369   5.735  1.00 44.71 LIG 0.17  C 
ATOM     46  CB  ALA B   2      32.015  -5.316   5.263  1.00 44.36 LIG 0.04  C 
BRANCH 45 47
ATOM     47  N   ALA B   2      33.372  -3.340   4.719  1.00 46.59 LIG-0.35  N 
ATOM     48 H    ALA B   2      33.531  -3.648   3.933  1.00 46.59 LIG 0.16  HD
ATOM     49  C   PRO B   1      33.327  -2.056   5.008  1.00 48.49 LIG 0.25  C 
ATOM     50 O    PRO B   1      33.256  -1.658   6.161  1.00 48.43 LIG-0.27  OA
BRANCH 49 51
ATOM     51  CA  PRO B   1      33.372  -1.066   3.772  1.00 50.22 LIG 0.28  C 
ATOM     52  N   PRO B   1      33.255   0.377   4.128  1.00 50.48 LIG-0.06  N 
ATOM     53 H3   PRO B   1      32.654   0.742   3.632  1.00 50.48 LIG 0.28  HD
ATOM     54 H2   PRO B   1      32.984   0.445   4.942  1.00 50.48 LIG 0.28  HD
ATOM     55  CD  PRO B   1      34.521   1.119   3.978  1.00 50.94 LIG 0.23  C 
ATOM     56  CG  PRO B   1      35.501   0.097   3.407  1.00 51.81 LIG 0.03  C 
ATOM     57  CB  PRO B   1      34.705  -1.149   3.002  1.00 50.52 LIG 0.04  C 
ENDBRANCH 49 51
ENDBRANCH 45 47
ENDBRANCH 42 45
ENDBRANCH 40 41
BRANCH 40 58
ATOM     58  CB  TRP B   3      36.947  -6.758   3.643  1.00 38.41 LIG 0.07  C 
BRANCH 58 59
ATOM     59  CG  TRP B   3      38.376  -7.049   3.736  1.00 37.10 LIG-0.03  A 
ATOM     60  CD1 TRP B   3      38.939  -8.096   4.363  1.00 36.42 LIG 0.10  A 
ATOM     61  NE1 TRP B   3      40.296  -8.021   4.272  1.00 36.34 LIG-0.36  N 
ATOM     62 HE1  TRP B   3      40.852  -8.588   4.603  1.00 36.34 LIG 0.17  HD
ATOM     63  CE2 TRP B   3      40.629  -6.894   3.570  1.00 35.80 LIG 0.04  A 
ATOM     64  CD2 TRP B   3      39.448  -6.249   3.238  1.00 33.30 LIG-0.00  A 
ATOM     65  CZ2 TRP B   3      41.887  -6.376   3.246  1.00 36.94 LIG 0.03  A 
ATOM     66  CE3 TRP B   3      39.510  -5.069   2.512  1.00 37.18 LIG 0.01  A 
ATOM     67  CZ3 TRP B   3      40.760  -4.564   2.159  1.00 37.29 LIG 0.00  A 
ATOM     68  CH2 TRP B   3      41.934  -5.226   2.536  1.00 32.87 LIG 0.00  A 
ENDBRANCH 58 59
ENDBRANCH 40 58
ENDBRANCH 38 40
ENDBRANCH 1 36
TORSDOF 22
ENDMDL
MODEL 11
USER: ADFR SOLUTION from run 187
USER: SCORE 20.536547 LL:  -7.786 LR: -16.070 RR:   0.000 FEB:  -9.507
USER: RMSD 3.074996
USER: SEED 186
USER: STATUS 1 or 2 clusters left
USER: GENES 24
USER: genes 0 Translation |==|  0.66766 0.51236 0.31111
USER: genes 1 Rotation |==|  0.48702 0.43251 0.41056 0.98711
USER: genes 2 Torsion [C]-CA--CB-[CG] |==|  0.20573
USER: genes 3 Torsion [CA]-CB--CG-[CD1] |==|  0.21287
USER: genes 4 Torsion [N]-CA--C-[N] |==|  0.97715
USER: genes 5 Torsion [C]-N--CA-[CB] |==|  0.26624
USER: genes 6 Torsion [N]-CA--CB-[CG] |==|  0.87186
USER: genes 7 Torsion [CA]-CB--CG-[CD2] |==|  0.26631
USER: genes 8 Torsion [N]-CA--C-[N] |==|  0.45625
USER: genes 9 Torsion [C]-N--CA-[C] |==|  0.61667
USER: genes 10 Torsion [N]-CA--CB-[CG] |==|  0.39901
USER: genes 11 Torsion [CA]-CB--CG-[CD] |==|  0.73339
USER: genes 12 Torsion [CB]-CG--CD-[OE2] |==|  0.20558
USER: genes 13 Torsion [N]-CA--C-[N] |==|  0.41603
USER: genes 14 Torsion [C]-N--CA-[CB] |==|  0.81602
USER: genes 15 Torsion [N]-CA--C-[O] |==|  0.48667
USER: genes 16 Torsion [CB]-CA--N-[C] |==|  0.38432
USER: genes 17 Torsion [N]-C--CA-[N] |==|  0.92392
USER: genes 18 Torsion [C]-CA--N-[C] |==|  0.83300
USER: genes 19 Torsion [N]-C--CA-[N] |==|  0.53708
USER: genes 20 Torsion [C]-CA--N-[C] |==|  0.50283
USER: genes 21 Torsion [N]-C--CA-[N] |==|  0.44699
USER: genes 22 Torsion [C]-CA--CB-[CG] |==|  0.09899
USER: genes 23 Torsion [CA]-CB--CG-[CD1] |==|  0.21938
ROOT
ATOM      1  CA  LEU B   4      38.402  -2.761   5.409  1.00 36.98 LIG 0.18  C 
ENDROOT
BRANCH 1 2
ATOM      2  CB  LEU B   4      38.762  -1.845   4.240  1.00 35.91 LIG 0.04  C 
BRANCH 2 3
ATOM      3  CG  LEU B   4      40.110  -1.111   4.348  1.00 35.93 LIG-0.02  C 
ATOM      4  CD2 LEU B   4      40.183   0.113   3.442  1.00 33.66 LIG 0.01  C 
ATOM      5  CD1 LEU B   4      41.308  -2.074   4.034  1.00 37.78 LIG 0.01  C 
ENDBRANCH 2 3
ENDBRANCH 1 2
BRANCH 1 6
ATOM      6  C   LEU B   4      38.004  -1.876   6.580  1.00 38.06 LIG 0.24  C 
ATOM      7  N   PHE B   5      36.743  -1.992   7.002  1.00 38.73 LIG-0.35  N 
ATOM      8 H    PHE B   5      36.205  -2.605   6.728  1.00 38.73 LIG 0.16  HD
ATOM      9 O    LEU B   4      38.813  -1.058   7.031  1.00 36.58 LIG-0.27  OA
BRANCH 7 10
ATOM     10  CA  PHE B   5      36.151  -1.082   7.978  1.00 41.04 LIG 0.18  C 
BRANCH 10 11
ATOM     11  CB  PHE B   5      35.356   0.062   7.322  1.00 39.67 LIG 0.07  C 
BRANCH 11 12
ATOM     12  CG  PHE B   5      36.069   0.709   6.197  1.00 38.07 LIG-0.06  A 
ATOM     13  CD2 PHE B   5      35.828   0.325   4.904  1.00 33.96 LIG 0.01  A 
ATOM     14  CE2 PHE B   5      36.522   0.924   3.816  1.00 35.53 LIG 0.00  A 
ATOM     15  CZ  PHE B   5      37.499   1.871   4.052  1.00 34.38 LIG 0.00  A 
ATOM     16  CE1 PHE B   5      37.749   2.248   5.378  1.00 35.56 LIG 0.00  A 
ATOM     17  CD1 PHE B   5      37.033   1.666   6.436  1.00 35.27 LIG 0.01  A 
ENDBRANCH 11 12
ENDBRANCH 10 11
BRANCH 10 18
ATOM     18  C   PHE B   5      35.231  -1.785   8.929  1.00 43.64 LIG 0.24  C 
ATOM     19 O    PHE B   5      34.855  -2.937   8.676  1.00 43.27 LIG-0.27  OA
ATOM     20  N   GLU B   6      34.915  -1.101  10.032  1.00 47.41 LIG-0.35  N 
ATOM     21 H    GLU B   6      35.382  -0.440  10.324  1.00 47.41 LIG 0.16  HD
BRANCH 20 22
ATOM     22  CA  GLU B   6      33.731  -1.405  10.868  1.00 51.55 LIG 0.18  C 
BRANCH 22 23
ATOM     23  CB  GLU B   6      34.102  -2.231  12.113  1.00 52.47 LIG 0.04  C 
BRANCH 23 24
ATOM     24  CG  GLU B   6      33.255  -1.836  13.375  1.00 56.11 LIG 0.12  C 
BRANCH 24 25
ATOM     25  CD  GLU B   6      33.936  -0.818  14.325  1.00 59.86 LIG 0.17  C 
ATOM     26 OE2  GLU B   6      34.008   0.374  13.975  1.00 64.67 LIG-0.65  OA
ATOM     27 OE1  GLU B   6      34.370  -1.172  15.439  1.00 64.70 LIG-0.65  OA
ENDBRANCH 24 25
ENDBRANCH 23 24
ENDBRANCH 22 23
BRANCH 22 28
ATOM     28  C   GLU B   6      33.066  -0.060  11.278  1.00 53.54 LIG 0.24  C 
ATOM     29 O    GLU B   6      33.728   0.990  11.387  1.00 53.95 LIG-0.27  OA
ATOM     30  N   ALA B   7      31.747  -0.077  11.466  1.00 56.31 LIG-0.35  N 
ATOM     31 H    ALA B   7      31.262  -0.785  11.412  1.00 56.31 LIG 0.16  HD
BRANCH 30 32
ATOM     32  CA  ALA B   7      30.996   1.164  11.792  1.00 57.55 LIG 0.16  C 
ATOM     33  CB  ALA B   7      31.388   1.711  13.175  1.00 58.11 LIG 0.04  C 
BRANCH 32 34
ATOM     34  C   ALA B   7      31.223   2.226  10.729  1.00 58.67 LIG 0.22  C 
ATOM     35 O    ALA B   7      30.613   3.290  10.782  1.00 60.59 LIG-0.29  OA
ENDBRANCH 32 34
ENDBRANCH 30 32
ENDBRANCH 22 28
ENDBRANCH 20 22
ENDBRANCH 10 18
ENDBRANCH 7 10
ENDBRANCH 1 6
BRANCH 1 36
ATOM     36  N   LEU B   4      37.400  -3.751   5.030  1.00 37.09 LIG-0.35  N 
ATOM     37 H    LEU B   4      36.768  -3.440   4.536  1.00 37.09 LIG 0.16  HD
ATOM     38  C   TRP B   3      37.470  -5.029   5.424  1.00 37.19 LIG 0.24  C 
ATOM     39 O    TRP B   3      38.352  -5.450   6.103  1.00 36.60 LIG-0.27  OA
BRANCH 38 40
ATOM     40  CA  TRP B   3      36.398  -5.987   4.919  1.00 38.87 LIG 0.18  C 
BRANCH 40 41
ATOM     41  N   TRP B   3      35.171  -5.231   4.645  1.00 40.30 LIG-0.35  N 
ATOM     42  C   ALA B   2      34.559  -4.549   5.628  1.00 43.05 LIG 0.24  C 
ATOM     43 O    ALA B   2      34.872  -4.658   6.816  1.00 42.86 LIG-0.27  OA
ATOM     44 H    TRP B   3      34.896  -5.267   3.831  1.00 40.30 LIG 0.16  HD
BRANCH 42 45
ATOM     45  CA  ALA B   2      33.388  -3.664   5.240  1.00 44.71 LIG 0.17  C 
ATOM     46  CB  ALA B   2      33.732  -2.802   3.997  1.00 44.36 LIG 0.04  C 
BRANCH 45 47
ATOM     47  N   ALA B   2      33.076  -2.783   6.365  1.00 46.59 LIG-0.35  N 
ATOM     48 H    ALA B   2      33.590  -2.884   7.047  1.00 46.59 LIG 0.16  HD
ATOM     49  C   PRO B   1      32.084  -1.916   6.317  1.00 48.49 LIG 0.25  C 
ATOM     50 O    PRO B   1      31.279  -1.911   5.399  1.00 48.43 LIG-0.27  OA
BRANCH 49 51
ATOM     51  CA  PRO B   1      32.005  -0.888   7.520  1.00 50.22 LIG 0.28  C 
ATOM     52  N   PRO B   1      31.191   0.330   7.242  1.00 50.48 LIG-0.06  N 
ATOM     53 H3   PRO B   1      31.643   1.028   7.463  1.00 50.48 LIG 0.28  HD
ATOM     54 H2   PRO B   1      31.045   0.384   6.395  1.00 50.48 LIG 0.28  HD
ATOM     55  CD  PRO B   1      29.900   0.344   7.956  1.00 50.94 LIG 0.23  C 
ATOM     56  CG  PRO B   1      29.922  -0.916   8.817  1.00 51.81 LIG 0.03  C 
ATOM     57  CB  PRO B   1      31.339  -1.498   8.770  1.00 50.52 LIG 0.04  C 
ENDBRANCH 49 51
ENDBRANCH 45 47
ENDBRANCH 42 45
ENDBRANCH 40 41
BRANCH 40 58
ATOM     58  CB  TRP B   3      36.929  -6.750   3.684  1.00 38.41 LIG 0.07  C 
BRANCH 58 59
ATOM     59  CG  TRP B   3      38.356  -7.020   3.841  1.00 37.10 LIG-0.03  A 
ATOM     60  CD1 TRP B   3      38.908  -7.996   4.582  1.00 36.42 LIG 0.10  A 
ATOM     61  NE1 TRP B   3      40.266  -7.922   4.518  1.00 36.34 LIG-0.36  N 
ATOM     62 HE1  TRP B   3      40.816  -8.450   4.916  1.00 36.34 LIG 0.17  HD
ATOM     63  CE2 TRP B   3      40.612  -6.869   3.714  1.00 35.80 LIG 0.04  A 
ATOM     64  CD2 TRP B   3      39.437  -6.267   3.291  1.00 33.30 LIG-0.00  A 
ATOM     65  CZ2 TRP B   3      41.876  -6.377   3.372  1.00 36.94 LIG 0.03  A 
ATOM     66  CE3 TRP B   3      39.513  -5.166   2.453  1.00 37.18 LIG 0.01  A 
ATOM     67  CZ3 TRP B   3      40.769  -4.690   2.081  1.00 37.29 LIG 0.00  A 
ATOM     68  CH2 TRP B   3      41.935  -5.304   2.552  1.00 32.87 LIG 0.00  A 
ENDBRANCH 58 59
ENDBRANCH 40 58
ENDBRANCH 38 40
ENDBRANCH 1 36
TORSDOF 22
ENDMDL
