MODEL 1
USER: ADFR SOLUTION from run 58
USER: SCORE 22.972196 LL:  -7.359 LR: -17.871 RR:   0.000 FEB: -10.115
USER: RMSD 1.084079
USER: SEED 57
USER: STATUS 1 or 2 clusters left
USER: GENES 28
USER: genes 0 Translation |==|  0.42890 0.61501 0.43458
USER: genes 1 Rotation |==|  0.48548 0.51222 0.50096 0.99964
USER: genes 2 Torsion [C]-N--CA-[CB] |==|  0.45351
USER: genes 3 Torsion [N]-CA--CB-[CG] |==|  0.46264
USER: genes 4 Torsion [CA]-CB--CG-[CD1] |==|  0.71111
USER: genes 5 Torsion [CE1]-CZ--OH-[HH] |==|  0.02648
USER: genes 6 Torsion [N]-CA--C-[N] |==|  0.80402
USER: genes 7 Torsion [C]-N--CA-[CB] |==|  0.51125
USER: genes 8 Torsion [N]-CA--C-[N] |==|  0.40270
USER: genes 9 Torsion [C]-N--CA-[CB] |==|  0.36315
USER: genes 10 Torsion [N]-CA--CB-[CG] |==|  0.84307
USER: genes 11 Torsion [CA]-CB--CG-[CD] |==|  0.57745
USER: genes 12 Torsion [CB]-CG--CD-[NE] |==|  0.43480
USER: genes 13 Torsion [CG]-CD--NE-[HE] |==|  0.84850
USER: genes 14 Torsion [N]-CA--C-[O] |==|  0.61483
USER: genes 15 Torsion [N]-CA--CB-[CG] |==|  0.79940
USER: genes 16 Torsion [CA]-CB--CG-[CD1] |==|  0.49261
USER: genes 17 Torsion [N]-C--CA-[N] |==|  0.94875
USER: genes 18 Torsion [C]-CA--N-[C] |==|  0.81616
USER: genes 19 Torsion [N]-C--CA-[N] |==|  0.86545
USER: genes 20 Torsion [C]-CA--N-[C] |==|  0.85438
USER: genes 21 Torsion [N]-C--CA-[N] |==|  0.42123
USER: genes 22 Torsion [C]-CA--N-[C] |==|  0.79835
USER: genes 23 Torsion [N]-C--CA-[N] |==|  0.32418
USER: genes 24 Torsion [C]-CA--CB-[CG1] |==|  0.45555
USER: genes 25 Torsion [CA]-CB--CG1-[CD1] |==|  0.53750
USER: genes 26 Torsion [C]-CA--CB-[CG] |==|  0.80873
USER: genes 27 Torsion [CA]-CB--CG-[CD1] |==|  0.74438
ROOT
ATOM      1  C   TRP B1542      -4.111  46.205   1.243  1.00 26.55 LIG 0.24  C 
ATOM      2 O    TRP B1542      -3.052  46.526   0.723  1.00 27.86 LIG-0.27  OA
ATOM      3  N   TYR B1543      -4.177  45.371   2.274  1.00 24.62 LIG-0.35  N 
ATOM      4 H    TYR B1543      -4.910  45.071   2.608  1.00 24.62 LIG 0.16  HD
ENDROOT
BRANCH 3 5
ATOM      5  CA  TYR B1543      -2.973  44.892   2.929  1.00 22.31 LIG 0.18  C 
BRANCH 5 6
ATOM      6  CB  TYR B1543      -3.355  44.313   4.294  1.00 23.67 LIG 0.07  C 
BRANCH 6 7
ATOM      7  CG  TYR B1543      -2.282  43.487   4.975  1.00 24.58 LIG-0.06  A 
ATOM      8  CD1 TYR B1543      -2.361  42.095   5.000  1.00 24.59 LIG 0.01  A 
ATOM      9  CE1 TYR B1543      -1.424  41.335   5.684  1.00 26.50 LIG 0.04  A 
ATOM     10  CZ  TYR B1543      -0.400  41.976   6.354  1.00 24.60 LIG 0.07  A 
ATOM     11  CE2 TYR B1543      -0.301  43.364   6.334  1.00 24.06 LIG 0.04  A 
ATOM     12  CD2 TYR B1543      -1.230  44.099   5.648  1.00 22.62 LIG 0.01  A 
BRANCH 10 13
ATOM     13 OH   TYR B1543       0.498  41.239   7.071  1.00 26.51 LIG-0.36  OA
ATOM     14 HH   TYR B1543       0.385  40.422   6.907  1.00 26.51 LIG 0.22  HD
ENDBRANCH 10 13
ENDBRANCH 6 7
ENDBRANCH 5 6
BRANCH 5 15
ATOM     15  C   TYR B1543      -2.067  43.912   2.201  1.00 22.90 LIG 0.24  C 
ATOM     16  N   LEU B1544      -2.524  42.679   2.035  1.00 22.60 LIG-0.35  N 
ATOM     17 H    LEU B1544      -3.302  42.409   2.281  1.00 22.60 LIG 0.16  HD
ATOM     18 O    TYR B1543      -0.962  44.266   1.805  1.00 21.43 LIG-0.27  OA
BRANCH 16 19
ATOM     19  CA  LEU B1544      -1.692  41.669   1.400  1.00 22.81 LIG 0.18  C 
BRANCH 19 20
ATOM     20  C   LEU B1544      -1.156  42.138   0.051  1.00 21.53 LIG 0.24  C 
ATOM     21 O    LEU B1544      -1.833  42.858  -0.691  1.00 22.00 LIG-0.27  OA
ATOM     22  N   ARG B1545       0.067  41.726  -0.270  1.00 20.14 LIG-0.35  N 
ATOM     23 H    ARG B1545       0.563  41.224   0.221  1.00 20.14 LIG 0.16  HD
BRANCH 22 24
ATOM     24  CA  ARG B1545       0.650  42.129  -1.539  1.00 18.95 LIG 0.16  C 
BRANCH 24 25
ATOM     25  CB  ARG B1545       2.066  42.679  -1.317  1.00 20.51 LIG 0.04  C 
BRANCH 25 26
ATOM     26  CG  ARG B1545       2.031  43.837  -0.320  1.00 20.78 LIG 0.02  C 
BRANCH 26 27
ATOM     27  CD  ARG B1545       3.159  44.844  -0.527  1.00 21.13 LIG 0.14  C 
BRANCH 27 28
ATOM     28  NE  ARG B1545       2.794  46.151   0.028  1.00 20.56 LIG-0.23  N 
ATOM     29 HE   ARG B1545       2.059  46.512  -0.236  1.00 20.56 LIG 0.18  HD
ATOM     30  CZ  ARG B1545       3.532  46.811   0.914  1.00 23.27 LIG 0.67  C 
ATOM     31  NH2 ARG B1545       3.146  48.017   1.352  1.00 19.37 LIG-0.23  N 
ATOM     32  NH1 ARG B1545       4.667  46.275   1.345  1.00 20.25 LIG-0.23  N 
ATOM     33 1HH2 ARG B1545       2.418  48.368   1.059  1.00 19.37 LIG 0.17  HD
ATOM     34 2HH2 ARG B1545       3.626  48.440   1.926  1.00 19.37 LIG 0.17  HD
ATOM     35 1HH1 ARG B1545       4.920  45.508   1.049  1.00 20.25 LIG 0.17  HD
ATOM     36 2HH1 ARG B1545       5.151  46.695   1.918  1.00 20.25 LIG 0.17  HD
ENDBRANCH 27 28
ENDBRANCH 26 27
ENDBRANCH 25 26
ENDBRANCH 24 25
BRANCH 24 37
ATOM     37  C   ARG B1545       0.630  41.010  -2.572  1.00 20.11 LIG 0.22  C 
ATOM     38 O    ARG B1545       1.656  40.877  -3.280  1.00 20.61 LIG-0.29  OA
ENDBRANCH 24 37
ENDBRANCH 22 24
ENDBRANCH 19 20
BRANCH 19 39
ATOM     39  CB  LEU B1544      -2.490  40.369   1.241  1.00 22.71 LIG 0.04  C 
BRANCH 39 40
ATOM     40  CG  LEU B1544      -2.740  39.605   2.551  1.00 23.46 LIG-0.02  C 
ATOM     41  CD1 LEU B1544      -3.599  38.375   2.242  1.00 24.99 LIG 0.01  C 
ATOM     42  CD2 LEU B1544      -1.429  39.189   3.207  1.00 22.67 LIG 0.01  C 
ENDBRANCH 39 40
ENDBRANCH 19 39
ENDBRANCH 16 19
ENDBRANCH 5 15
ENDBRANCH 3 5
BRANCH 1 43
ATOM     43  CA  TRP B1542      -5.431  46.736   0.696  1.00 29.62 LIG 0.18  C 
BRANCH 43 44
ATOM     44  N   TRP B1542      -6.582  45.932   1.102  1.00 31.24 LIG-0.35  N 
ATOM     45  C   ALA B1541      -6.719  44.688   0.672  1.00 34.20 LIG 0.24  C 
ATOM     46 O    ALA B1541      -5.879  44.147  -0.044  1.00 33.88 LIG-0.27  OA
ATOM     47 H    TRP B1542      -7.137  46.330   1.625  1.00 31.24 LIG 0.16  HD
BRANCH 45 48
ATOM     48  CA  ALA B1541      -7.980  43.933   1.118  1.00 35.59 LIG 0.17  C 
ATOM     49  CB  ALA B1541      -9.203  44.430   0.313  1.00 37.24 LIG 0.04  C 
BRANCH 48 50
ATOM     50  N   ALA B1541      -8.286  43.996   2.554  1.00 36.68 LIG-0.35  N 
ATOM     51  C   ALA B1540      -7.389  43.681   3.484  1.00 36.41 LIG 0.24  C 
ATOM     52 O    ALA B1540      -6.227  43.365   3.211  1.00 35.55 LIG-0.27  OA
ATOM     53 H    ALA B1541      -9.088  44.252   2.732  1.00 36.68 LIG 0.16  HD
BRANCH 51 54
ATOM     54  CA  ALA B1540      -7.869  43.767   4.938  1.00 37.40 LIG 0.17  C 
ATOM     55  CB  ALA B1540      -7.705  45.200   5.469  1.00 38.11 LIG 0.04  C 
BRANCH 54 56
ATOM     56  N   ALA B1540      -7.154  42.837   5.811  1.00 38.31 LIG-0.35  N 
ATOM     57 H    ALA B1540      -6.594  43.217   6.343  1.00 38.31 LIG 0.16  HD
ATOM     58  C   ILE B1539      -7.359  41.528   5.777  1.00 39.48 LIG 0.26  C 
ATOM     59 O    ILE B1539      -8.152  41.003   5.008  1.00 40.50 LIG-0.27  OA
BRANCH 58 60
ATOM     60  CA  ILE B1539      -6.523  40.684   6.741  1.00 40.24 LIG 0.40  C 
ATOM     61  N   ILE B1539      -7.373  39.971   7.749  1.00 42.50 LIG 0.61  N 
BRANCH 60 62
ATOM     62  CB  ILE B1539      -5.683  39.688   5.887  1.00 40.48 LIG 0.03  C 
ATOM     63  CG2 ILE B1539      -5.115  40.404   4.663  1.00 38.85 LIG 0.01  C 
BRANCH 62 64
ATOM     64  CG1 ILE B1539      -4.544  39.088   6.719  1.00 39.99 LIG 0.00  C 
ATOM     65  CD1 ILE B1539      -3.489  38.362   5.874  1.00 39.67 LIG 0.01  C 
ENDBRANCH 62 64
ENDBRANCH 60 62
ENDBRANCH 58 60
ENDBRANCH 54 56
ENDBRANCH 51 54
ENDBRANCH 48 50
ENDBRANCH 45 48
ENDBRANCH 43 44
BRANCH 43 66
ATOM     66  CB  TRP B1542      -5.618  48.176   1.192  1.00 29.93 LIG 0.07  C 
BRANCH 66 67
ATOM     67  CG  TRP B1542      -5.872  48.279   2.698  1.00 31.09 LIG-0.03  A 
ATOM     68  CD1 TRP B1542      -7.095  48.293   3.322  1.00 35.00 LIG 0.10  A 
ATOM     69  NE1 TRP B1542      -6.932  48.361   4.693  1.00 35.42 LIG-0.36  N 
ATOM     70 HE1  TRP B1542      -7.569  48.379   5.272  1.00 35.42 LIG 0.17  HD
ATOM     71  CE2 TRP B1542      -5.591  48.396   4.982  1.00 34.23 LIG 0.04  A 
ATOM     72  CD2 TRP B1542      -4.888  48.349   3.750  1.00 31.85 LIG-0.00  A 
ATOM     73  CZ2 TRP B1542      -4.936  48.462   6.222  1.00 32.49 LIG 0.03  A 
ATOM     74  CE3 TRP B1542      -3.487  48.374   3.773  1.00 30.05 LIG 0.01  A 
ATOM     75  CZ3 TRP B1542      -2.833  48.440   5.007  1.00 29.28 LIG 0.00  A 
ATOM     76  CH2 TRP B1542      -3.565  48.483   6.218  1.00 32.34 LIG 0.00  A 
ENDBRANCH 66 67
ENDBRANCH 43 66
ENDBRANCH 1 43
TORSDOF 26
ENDMDL
MODEL 2
USER: ADFR SOLUTION from run 137
USER: SCORE 22.468142 LL:  -7.233 LR: -17.310 RR:   0.000 FEB:  -9.554
USER: RMSD 2.503000
USER: SEED 136
USER: STATUS no improvement in best in 5 clusters for 5 generations
USER: GENES 28
USER: genes 0 Translation |==|  0.40308 0.51078 0.41580
USER: genes 1 Rotation |==|  0.23885 0.59698 0.35397 0.88868
USER: genes 2 Torsion [C]-N--CA-[CB] |==|  0.68032
USER: genes 3 Torsion [N]-CA--CB-[CG] |==|  0.48752
USER: genes 4 Torsion [CA]-CB--CG-[CD1] |==|  0.68133
USER: genes 5 Torsion [CE1]-CZ--OH-[HH] |==|  0.46121
USER: genes 6 Torsion [N]-CA--C-[N] |==|  0.78333
USER: genes 7 Torsion [C]-N--CA-[CB] |==|  0.49764
USER: genes 8 Torsion [N]-CA--C-[N] |==|  0.37137
USER: genes 9 Torsion [C]-N--CA-[CB] |==|  0.42353
USER: genes 10 Torsion [N]-CA--CB-[CG] |==|  0.90081
USER: genes 11 Torsion [CA]-CB--CG-[CD] |==|  0.55714
USER: genes 12 Torsion [CB]-CG--CD-[NE] |==|  0.34159
USER: genes 13 Torsion [CG]-CD--NE-[HE] |==|  0.88436
USER: genes 14 Torsion [N]-CA--C-[O] |==|  0.62661
USER: genes 15 Torsion [N]-CA--CB-[CG] |==|  0.91878
USER: genes 16 Torsion [CA]-CB--CG-[CD1] |==|  0.28431
USER: genes 17 Torsion [N]-C--CA-[N] |==|  0.86385
USER: genes 18 Torsion [C]-CA--N-[C] |==|  0.70771
USER: genes 19 Torsion [N]-C--CA-[N] |==|  0.87005
USER: genes 20 Torsion [C]-CA--N-[C] |==|  0.86452
USER: genes 21 Torsion [N]-C--CA-[N] |==|  0.48030
USER: genes 22 Torsion [C]-CA--N-[C] |==|  0.77757
USER: genes 23 Torsion [N]-C--CA-[N] |==|  0.39087
USER: genes 24 Torsion [C]-CA--CB-[CG1] |==|  0.51784
USER: genes 25 Torsion [CA]-CB--CG1-[CD1] |==|  0.67203
USER: genes 26 Torsion [C]-CA--CB-[CG] |==|  0.98817
USER: genes 27 Torsion [CA]-CB--CG-[CD1] |==|  0.70369
ROOT
ATOM      1  C   TRP B1542      -4.711  44.172   0.891  1.00 26.55 LIG 0.24  C 
ATOM      2 O    TRP B1542      -4.079  43.245   0.406  1.00 27.86 LIG-0.27  OA
ATOM      3  N   TYR B1543      -4.433  44.678   2.086  1.00 24.62 LIG-0.35  N 
ATOM      4 H    TYR B1543      -4.908  45.277   2.481  1.00 24.62 LIG 0.16  HD
ENDROOT
BRANCH 3 5
ATOM      5  CA  TYR B1543      -3.267  44.241   2.833  1.00 22.31 LIG 0.18  C 
BRANCH 5 6
ATOM      6  CB  TYR B1543      -3.738  43.535   4.108  1.00 23.67 LIG 0.07  C 
BRANCH 6 7
ATOM      7  CG  TYR B1543      -2.643  42.919   4.955  1.00 24.58 LIG-0.06  A 
ATOM      8  CD1 TYR B1543      -2.569  41.538   5.131  1.00 24.59 LIG 0.01  A 
ATOM      9  CE1 TYR B1543      -1.615  40.971   5.963  1.00 26.50 LIG 0.04  A 
ATOM     10  CZ  TYR B1543      -0.731  41.796   6.631  1.00 24.60 LIG 0.07  A 
ATOM     11  CE2 TYR B1543      -0.786  43.177   6.461  1.00 24.06 LIG 0.04  A 
ATOM     12  CD2 TYR B1543      -1.729  43.720   5.630  1.00 22.62 LIG 0.01  A 
BRANCH 10 13
ATOM     13 OH   TYR B1543       0.179  41.251   7.490  1.00 26.51 LIG-0.36  OA
ATOM     14 HH   TYR B1543       0.766  41.822   7.676  1.00 26.51 LIG 0.22  HD
ENDBRANCH 10 13
ENDBRANCH 6 7
ENDBRANCH 5 6
BRANCH 5 15
ATOM     15  C   TYR B1543      -2.217  43.385   2.142  1.00 22.90 LIG 0.24  C 
ATOM     16  N   LEU B1544      -2.498  42.099   1.984  1.00 22.60 LIG-0.35  N 
ATOM     17 H    LEU B1544      -3.238  41.728   2.214  1.00 22.60 LIG 0.16  HD
ATOM     18 O    TYR B1543      -1.161  43.881   1.768  1.00 21.43 LIG-0.27  OA
BRANCH 16 19
ATOM     19  CA  LEU B1544      -1.520  41.205   1.384  1.00 22.81 LIG 0.18  C 
BRANCH 19 20
ATOM     20  C   LEU B1544      -1.106  41.664  -0.010  1.00 21.53 LIG 0.24  C 
ATOM     21 O    LEU B1544      -1.949  42.013  -0.844  1.00 22.00 LIG-0.27  OA
ATOM     22  N   ARG B1545       0.198  41.662  -0.266  1.00 20.14 LIG-0.35  N 
ATOM     23 H    ARG B1545       0.810  41.424   0.290  1.00 20.14 LIG 0.16  HD
BRANCH 22 24
ATOM     24  CA  ARG B1545       0.674  42.086  -1.572  1.00 18.95 LIG 0.16  C 
BRANCH 24 25
ATOM     25  CB  ARG B1545       2.096  42.653  -1.457  1.00 20.51 LIG 0.04  C 
BRANCH 25 26
ATOM     26  CG  ARG B1545       2.256  43.408  -0.137  1.00 20.78 LIG 0.02  C 
BRANCH 26 27
ATOM     27  CD  ARG B1545       3.416  44.400  -0.147  1.00 21.13 LIG 0.14  C 
BRANCH 27 28
ATOM     28  NE  ARG B1545       2.944  45.752   0.168  1.00 20.56 LIG-0.23  N 
ATOM     29 HE   ARG B1545       2.205  46.015  -0.185  1.00 20.56 LIG 0.18  HD
ATOM     30  CZ  ARG B1545       3.590  46.593   0.968  1.00 23.27 LIG 0.67  C 
ATOM     31  NH2 ARG B1545       3.109  47.826   1.184  1.00 19.37 LIG-0.23  N 
ATOM     32  NH1 ARG B1545       4.729  46.212   1.532  1.00 20.25 LIG-0.23  N 
ATOM     33 1HH2 ARG B1545       2.380  48.075   0.804  1.00 19.37 LIG 0.17  HD
ATOM     34 2HH2 ARG B1545       3.531  48.367   1.702  1.00 19.37 LIG 0.17  HD
ATOM     35 1HH1 ARG B1545       5.043  45.426   1.378  1.00 20.25 LIG 0.17  HD
ATOM     36 2HH1 ARG B1545       5.154  46.750   2.050  1.00 20.25 LIG 0.17  HD
ENDBRANCH 27 28
ENDBRANCH 26 27
ENDBRANCH 25 26
ENDBRANCH 24 25
BRANCH 24 37
ATOM     37  C   ARG B1545       0.588  40.977  -2.612  1.00 20.11 LIG 0.22  C 
ATOM     38 O    ARG B1545       1.592  40.812  -3.346  1.00 20.61 LIG-0.29  OA
ENDBRANCH 24 37
ENDBRANCH 22 24
ENDBRANCH 19 20
BRANCH 19 39
ATOM     39  CB  LEU B1544      -2.085  39.779   1.338  1.00 22.71 LIG 0.04  C 
BRANCH 39 40
ATOM     40  CG  LEU B1544      -3.086  39.449   2.456  1.00 23.46 LIG-0.02  C 
ATOM     41  CD1 LEU B1544      -4.502  39.505   1.874  1.00 24.99 LIG 0.01  C 
ATOM     42  CD2 LEU B1544      -2.811  38.076   3.056  1.00 22.67 LIG 0.01  C 
ENDBRANCH 39 40
ENDBRANCH 19 39
ENDBRANCH 16 19
ENDBRANCH 5 15
ENDBRANCH 3 5
BRANCH 1 43
ATOM     43  CA  TRP B1542      -5.892  44.776   0.141  1.00 29.62 LIG 0.18  C 
BRANCH 43 44
ATOM     44  N   TRP B1542      -7.097  44.881   0.962  1.00 31.24 LIG-0.35  N 
ATOM     45  C   ALA B1541      -8.107  44.045   0.785  1.00 34.20 LIG 0.24  C 
ATOM     46 O    ALA B1541      -8.064  43.132  -0.037  1.00 33.88 LIG-0.27  OA
ATOM     47 H    TRP B1542      -7.085  45.513   1.545  1.00 31.24 LIG 0.16  HD
BRANCH 45 48
ATOM     48  CA  ALA B1541      -9.347  44.256   1.666  1.00 35.59 LIG 0.17  C 
ATOM     49  CB  ALA B1541     -10.180  45.442   1.127  1.00 37.24 LIG 0.04  C 
BRANCH 48 50
ATOM     50  N   ALA B1541      -9.085  44.458   3.098  1.00 36.68 LIG-0.35  N 
ATOM     51  C   ALA B1540      -8.281  43.656   3.791  1.00 36.41 LIG 0.24  C 
ATOM     52 O    ALA B1540      -7.662  42.722   3.273  1.00 35.55 LIG-0.27  OA
ATOM     53 H    ALA B1541      -9.494  45.133   3.439  1.00 36.68 LIG 0.16  HD
BRANCH 51 54
ATOM     54  CA  ALA B1540      -8.132  43.978   5.283  1.00 37.40 LIG 0.17  C 
ATOM     55  CB  ALA B1540      -7.457  45.346   5.468  1.00 38.11 LIG 0.04  C 
BRANCH 54 56
ATOM     56  N   ALA B1540      -7.368  42.955   5.995  1.00 38.31 LIG-0.35  N 
ATOM     57 H    ALA B1540      -6.545  43.166   6.132  1.00 38.31 LIG 0.16  HD
ATOM     58  C   ILE B1539      -7.907  41.810   6.389  1.00 39.48 LIG 0.26  C 
ATOM     59 O    ILE B1539      -9.077  41.522   6.177  1.00 40.50 LIG-0.27  OA
BRANCH 58 60
ATOM     60  CA  ILE B1539      -6.976  40.833   7.108  1.00 40.24 LIG 0.40  C 
ATOM     61  N   ILE B1539      -7.658  40.142   8.251  1.00 42.50 LIG 0.61  N 
BRANCH 60 62
ATOM     62  CB  ILE B1539      -6.450  39.817   6.050  1.00 40.48 LIG 0.03  C 
ATOM     63  CG2 ILE B1539      -5.591  40.543   5.017  1.00 38.85 LIG 0.01  C 
BRANCH 62 64
ATOM     64  CG1 ILE B1539      -5.634  38.708   6.724  1.00 39.99 LIG 0.00  C 
ATOM     65  CD1 ILE B1539      -4.171  38.663   6.265  1.00 39.67 LIG 0.01  C 
ENDBRANCH 62 64
ENDBRANCH 60 62
ENDBRANCH 58 60
ENDBRANCH 54 56
ENDBRANCH 51 54
ENDBRANCH 48 50
ENDBRANCH 45 48
ENDBRANCH 43 44
BRANCH 43 66
ATOM     66  CB  TRP B1542      -5.492  46.173  -0.353  1.00 29.93 LIG 0.07  C 
BRANCH 66 67
ATOM     67  CG  TRP B1542      -4.103  46.615   0.113  1.00 31.09 LIG-0.03  A 
ATOM     68  CD1 TRP B1542      -3.823  47.554   1.075  1.00 35.00 LIG 0.10  A 
ATOM     69  NE1 TRP B1542      -2.457  47.665   1.254  1.00 35.42 LIG-0.36  N 
ATOM     70 HE1  TRP B1542      -2.067  48.193   1.809  1.00 35.42 LIG 0.17  HD
ATOM     71  CE2 TRP B1542      -1.824  46.794   0.403  1.00 34.23 LIG 0.04  A 
ATOM     72  CD2 TRP B1542      -2.827  46.115  -0.336  1.00 31.85 LIG-0.00  A 
ATOM     73  CZ2 TRP B1542      -0.454  46.544   0.222  1.00 32.49 LIG 0.03  A 
ATOM     74  CE3 TRP B1542      -2.435  45.161  -1.286  1.00 30.05 LIG 0.01  A 
ATOM     75  CZ3 TRP B1542      -1.071  44.911  -1.468  1.00 29.28 LIG 0.00  A 
ATOM     76  CH2 TRP B1542      -0.096  45.605  -0.711  1.00 32.34 LIG 0.00  A 
ENDBRANCH 66 67
ENDBRANCH 43 66
ENDBRANCH 1 43
TORSDOF 26
ENDMDL
MODEL 3
USER: ADFR SOLUTION from run 137
USER: SCORE 22.255834 LL:  -7.294 LR: -16.870 RR:   0.000 FEB:  -9.114
USER: RMSD 4.287785
USER: SEED 136
USER: STATUS no improvement in best in 5 clusters for 5 generations
USER: GENES 28
USER: genes 0 Translation |==|  0.40728 0.51799 0.42015
USER: genes 1 Rotation |==|  0.21535 0.62767 0.31550 0.84443
USER: genes 2 Torsion [C]-N--CA-[CB] |==|  0.72192
USER: genes 3 Torsion [N]-CA--CB-[CG] |==|  0.49690
USER: genes 4 Torsion [CA]-CB--CG-[CD1] |==|  0.67576
USER: genes 5 Torsion [CE1]-CZ--OH-[HH] |==|  0.37849
USER: genes 6 Torsion [N]-CA--C-[N] |==|  0.76272
USER: genes 7 Torsion [C]-N--CA-[CB] |==|  0.51829
USER: genes 8 Torsion [N]-CA--C-[N] |==|  0.35803
USER: genes 9 Torsion [C]-N--CA-[CB] |==|  0.44664
USER: genes 10 Torsion [N]-CA--CB-[CG] |==|  0.87822
USER: genes 11 Torsion [CA]-CB--CG-[CD] |==|  0.59610
USER: genes 12 Torsion [CB]-CG--CD-[NE] |==|  0.33920
USER: genes 13 Torsion [CG]-CD--NE-[HE] |==|  0.85787
USER: genes 14 Torsion [N]-CA--C-[O] |==|  0.63217
USER: genes 15 Torsion [N]-CA--CB-[CG] |==|  0.88721
USER: genes 16 Torsion [CA]-CB--CG-[CD1] |==|  0.38989
USER: genes 17 Torsion [N]-C--CA-[N] |==|  0.88652
USER: genes 18 Torsion [C]-CA--N-[C] |==|  0.64656
USER: genes 19 Torsion [N]-C--CA-[N] |==|  0.91528
USER: genes 20 Torsion [C]-CA--N-[C] |==|  0.83887
USER: genes 21 Torsion [N]-C--CA-[N] |==|  0.87433
USER: genes 22 Torsion [C]-CA--N-[C] |==|  0.81188
USER: genes 23 Torsion [N]-C--CA-[N] |==|  0.38111
USER: genes 24 Torsion [C]-CA--CB-[CG1] |==|  0.42546
USER: genes 25 Torsion [CA]-CB--CG1-[CD1] |==|  0.57546
USER: genes 26 Torsion [C]-CA--CB-[CG] |==|  0.92935
USER: genes 27 Torsion [CA]-CB--CG-[CD1] |==|  0.76402
ROOT
ATOM      1  C   TRP B1542      -4.614  44.313   0.973  1.00 26.55 LIG 0.24  C 
ATOM      2 O    TRP B1542      -4.238  43.206   0.612  1.00 27.86 LIG-0.27  OA
ATOM      3  N   TYR B1543      -4.125  44.918   2.048  1.00 24.62 LIG-0.35  N 
ATOM      4 H    TYR B1543      -4.425  45.659   2.366  1.00 24.62 LIG 0.16  HD
ENDROOT
BRANCH 3 5
ATOM      5  CA  TYR B1543      -3.012  44.350   2.788  1.00 22.31 LIG 0.18  C 
BRANCH 5 6
ATOM      6  CB  TYR B1543      -3.560  43.630   4.023  1.00 23.67 LIG 0.07  C 
BRANCH 6 7
ATOM      7  CG  TYR B1543      -2.524  42.953   4.898  1.00 24.58 LIG-0.06  A 
ATOM      8  CD1 TYR B1543      -2.532  41.570   5.072  1.00 24.59 LIG 0.01  A 
ATOM      9  CE1 TYR B1543      -1.634  40.950   5.928  1.00 26.50 LIG 0.04  A 
ATOM     10  CZ  TYR B1543      -0.723  41.724   6.620  1.00 24.60 LIG 0.07  A 
ATOM     11  CE2 TYR B1543      -0.696  43.106   6.452  1.00 24.06 LIG 0.04  A 
ATOM     12  CD2 TYR B1543      -1.584  43.701   5.598  1.00 22.62 LIG 0.01  A 
BRANCH 10 13
ATOM     13 OH   TYR B1543       0.133  41.128   7.502  1.00 26.51 LIG-0.36  OA
ATOM     14 HH   TYR B1543       0.904  41.445   7.401  1.00 26.51 LIG 0.22  HD
ENDBRANCH 10 13
ENDBRANCH 6 7
ENDBRANCH 5 6
BRANCH 5 15
ATOM     15  C   TYR B1543      -2.027  43.440   2.071  1.00 22.90 LIG 0.24  C 
ATOM     16  N   LEU B1544      -2.347  42.157   1.984  1.00 22.60 LIG-0.35  N 
ATOM     17 H    LEU B1544      -3.080  41.814   2.274  1.00 22.60 LIG 0.16  HD
ATOM     18 O    TYR B1543      -0.985  43.894   1.612  1.00 21.43 LIG-0.27  OA
BRANCH 16 19
ATOM     19  CA  LEU B1544      -1.429  41.214   1.363  1.00 22.81 LIG 0.18  C 
BRANCH 19 20
ATOM     20  C   LEU B1544      -0.949  41.699  -0.001  1.00 21.53 LIG 0.24  C 
ATOM     21 O    LEU B1544      -1.752  42.066  -0.867  1.00 22.00 LIG-0.27  OA
ATOM     22  N   ARG B1545       0.365  41.697  -0.196  1.00 20.14 LIG-0.35  N 
ATOM     23 H    ARG B1545       0.949  41.446   0.383  1.00 20.14 LIG 0.16  HD
BRANCH 22 24
ATOM     24  CA  ARG B1545       0.902  42.144  -1.471  1.00 18.95 LIG 0.16  C 
BRANCH 24 25
ATOM     25  CB  ARG B1545       2.385  42.509  -1.319  1.00 20.51 LIG 0.04  C 
BRANCH 25 26
ATOM     26  CG  ARG B1545       2.599  43.322  -0.041  1.00 20.78 LIG 0.02  C 
BRANCH 26 27
ATOM     27  CD  ARG B1545       3.688  44.383  -0.178  1.00 21.13 LIG 0.14  C 
BRANCH 27 28
ATOM     28  NE  ARG B1545       3.150  45.716   0.111  1.00 20.56 LIG-0.23  N 
ATOM     29 HE   ARG B1545       2.435  45.962  -0.300  1.00 20.56 LIG 0.18  HD
ATOM     30  CZ  ARG B1545       3.702  46.566   0.969  1.00 23.27 LIG 0.67  C 
ATOM     31  NH2 ARG B1545       3.168  47.781   1.156  1.00 19.37 LIG-0.23  N 
ATOM     32  NH1 ARG B1545       4.801  46.212   1.622  1.00 20.25 LIG-0.23  N 
ATOM     33 1HH2 ARG B1545       2.465  48.013   0.720  1.00 19.37 LIG 0.17  HD
ATOM     34 2HH2 ARG B1545       3.528  48.328   1.713  1.00 19.37 LIG 0.17  HD
ATOM     35 1HH1 ARG B1545       5.151  45.438   1.487  1.00 20.25 LIG 0.17  HD
ATOM     36 2HH1 ARG B1545       5.165  46.756   2.179  1.00 20.25 LIG 0.17  HD
ENDBRANCH 27 28
ENDBRANCH 26 27
ENDBRANCH 25 26
ENDBRANCH 24 25
BRANCH 24 37
ATOM     37  C   ARG B1545       0.679  41.130  -2.585  1.00 20.11 LIG 0.22  C 
ATOM     38 O    ARG B1545       1.668  40.856  -3.307  1.00 20.61 LIG-0.29  OA
ENDBRANCH 24 37
ENDBRANCH 22 24
ENDBRANCH 19 20
BRANCH 19 39
ATOM     39  CB  LEU B1544      -2.103  39.841   1.244  1.00 22.71 LIG 0.04  C 
BRANCH 39 40
ATOM     40  CG  LEU B1544      -2.941  39.429   2.464  1.00 23.46 LIG-0.02  C 
ATOM     41  CD1 LEU B1544      -4.212  38.733   1.968  1.00 24.99 LIG 0.01  C 
ATOM     42  CD2 LEU B1544      -2.155  38.507   3.388  1.00 22.67 LIG 0.01  C 
ENDBRANCH 39 40
ENDBRANCH 19 39
ENDBRANCH 16 19
ENDBRANCH 5 15
ENDBRANCH 3 5
BRANCH 1 43
ATOM     43  CA  TRP B1542      -5.707  45.044   0.203  1.00 29.62 LIG 0.18  C 
BRANCH 43 44
ATOM     44  N   TRP B1542      -6.681  45.697   1.076  1.00 31.24 LIG-0.35  N 
ATOM     45  C   ALA B1541      -7.976  45.473   0.926  1.00 34.20 LIG 0.24  C 
ATOM     46 O    ALA B1541      -8.411  44.688   0.086  1.00 33.88 LIG-0.27  OA
ATOM     47 H    TRP B1542      -6.343  46.219   1.670  1.00 31.24 LIG 0.16  HD
BRANCH 45 48
ATOM     48  CA  ALA B1541      -8.927  46.233   1.863  1.00 35.59 LIG 0.17  C 
ATOM     49  CB  ALA B1541      -9.405  47.537   1.182  1.00 37.24 LIG 0.04  C 
BRANCH 48 50
ATOM     50  N   ALA B1541      -8.392  46.549   3.195  1.00 36.68 LIG-0.35  N 
ATOM     51  C   ALA B1540      -7.956  45.606   4.025  1.00 36.41 LIG 0.24  C 
ATOM     52 O    ALA B1540      -7.922  44.410   3.718  1.00 35.55 LIG-0.27  OA
ATOM     53 H    ALA B1541      -8.388  47.388   3.382  1.00 36.68 LIG 0.16  HD
BRANCH 51 54
ATOM     54  CA  ALA B1540      -7.456  46.091   5.391  1.00 37.40 LIG 0.17  C 
ATOM     55  CB  ALA B1540      -8.645  46.422   6.306  1.00 38.11 LIG 0.04  C 
BRANCH 54 56
ATOM     56  N   ALA B1540      -6.585  47.259   5.278  1.00 38.31 LIG-0.35  N 
ATOM     57 H    ALA B1540      -6.923  47.980   5.604  1.00 38.31 LIG 0.16  HD
ATOM     58  C   ILE B1539      -5.384  47.200   4.721  1.00 39.48 LIG 0.26  C 
ATOM     59 O    ILE B1539      -4.922  46.169   4.253  1.00 40.50 LIG-0.27  OA
BRANCH 58 60
ATOM     60  CA  ILE B1539      -4.597  48.511   4.661  1.00 40.24 LIG 0.40  C 
ATOM     61  N   ILE B1539      -3.155  48.320   5.022  1.00 42.50 LIG 0.61  N 
BRANCH 60 62
ATOM     62  CB  ILE B1539      -4.760  49.093   3.225  1.00 40.48 LIG 0.03  C 
ATOM     63  CG2 ILE B1539      -6.127  48.708   2.661  1.00 38.85 LIG 0.01  C 
BRANCH 62 64
ATOM     64  CG1 ILE B1539      -4.611  50.619   3.240  1.00 39.99 LIG 0.00  C 
ATOM     65  CD1 ILE B1539      -5.370  51.317   2.104  1.00 39.67 LIG 0.01  C 
ENDBRANCH 62 64
ENDBRANCH 60 62
ENDBRANCH 58 60
ENDBRANCH 54 56
ENDBRANCH 51 54
ENDBRANCH 48 50
ENDBRANCH 45 48
ENDBRANCH 43 44
BRANCH 43 66
ATOM     66  CB  TRP B1542      -5.047  46.097  -0.698  1.00 29.93 LIG 0.07  C 
BRANCH 66 67
ATOM     67  CG  TRP B1542      -3.685  46.574  -0.189  1.00 31.09 LIG-0.03  A 
ATOM     68  CD1 TRP B1542      -3.457  47.567   0.730  1.00 35.00 LIG 0.10  A 
ATOM     69  NE1 TRP B1542      -2.102  47.697   0.970  1.00 35.42 LIG-0.36  N 
ATOM     70 HE1  TRP B1542      -1.742  48.258   1.513  1.00 35.42 LIG 0.17  HD
ATOM     71  CE2 TRP B1542      -1.424  46.784   0.201  1.00 34.23 LIG 0.04  A 
ATOM     72  CD2 TRP B1542      -2.386  46.058  -0.547  1.00 31.85 LIG-0.00  A 
ATOM     73  CZ2 TRP B1542      -0.046  46.534   0.102  1.00 32.49 LIG 0.03  A 
ATOM     74  CE3 TRP B1542      -1.944  45.055  -1.422  1.00 30.05 LIG 0.01  A 
ATOM     75  CZ3 TRP B1542      -0.571  44.805  -1.522  1.00 29.28 LIG 0.00  A 
ATOM     76  CH2 TRP B1542       0.362  45.547  -0.758  1.00 32.34 LIG 0.00  A 
ENDBRANCH 66 67
ENDBRANCH 43 66
ENDBRANCH 1 43
TORSDOF 26
ENDMDL
MODEL 4
USER: ADFR SOLUTION from run 5
USER: SCORE 21.255512 LL:  -7.743 LR: -16.555 RR:   0.000 FEB:  -8.799
USER: RMSD 2.338390
USER: SEED 83321
USER: STATUS no improvement in best in 3 clusters for 5 generations
USER: GENES 28
USER: genes 0 Translation |==|  0.43116 0.64558 0.43603
USER: genes 1 Rotation |==|  0.56438 0.46453 0.54125 0.99284
USER: genes 2 Torsion [C]-N--CA-[CB] |==|  0.38544
USER: genes 3 Torsion [N]-CA--CB-[CG] |==|  0.46558
USER: genes 4 Torsion [CA]-CB--CG-[CD1] |==|  0.70940
USER: genes 5 Torsion [CE1]-CZ--OH-[HH] |==|  0.15355
USER: genes 6 Torsion [N]-CA--C-[N] |==|  0.79874
USER: genes 7 Torsion [C]-N--CA-[CB] |==|  0.51368
USER: genes 8 Torsion [N]-CA--C-[N] |==|  0.40556
USER: genes 9 Torsion [C]-N--CA-[CB] |==|  0.37255
USER: genes 10 Torsion [N]-CA--CB-[CG] |==|  0.86260
USER: genes 11 Torsion [CA]-CB--CG-[CD] |==|  0.59862
USER: genes 12 Torsion [CB]-CG--CD-[NE] |==|  0.39610
USER: genes 13 Torsion [CG]-CD--NE-[HE] |==|  0.85114
USER: genes 14 Torsion [N]-CA--C-[O] |==|  0.41663
USER: genes 15 Torsion [N]-CA--CB-[CG] |==|  0.79851
USER: genes 16 Torsion [CA]-CB--CG-[CD1] |==|  0.48551
USER: genes 17 Torsion [N]-C--CA-[N] |==|  0.97779
USER: genes 18 Torsion [C]-CA--N-[C] |==|  0.64745
USER: genes 19 Torsion [N]-C--CA-[N] |==|  0.84740
USER: genes 20 Torsion [C]-CA--N-[C] |==|  0.86111
USER: genes 21 Torsion [N]-C--CA-[N] |==|  0.89880
USER: genes 22 Torsion [C]-CA--N-[C] |==|  0.73937
USER: genes 23 Torsion [N]-C--CA-[N] |==|  0.37788
USER: genes 24 Torsion [C]-CA--CB-[CG1] |==|  0.37115
USER: genes 25 Torsion [CA]-CB--CG1-[CD1] |==|  0.58819
USER: genes 26 Torsion [C]-CA--CB-[CG] |==|  0.84453
USER: genes 27 Torsion [CA]-CB--CG-[CD1] |==|  0.74497
ROOT
ATOM      1  C   TRP B1542      -4.059  46.801   1.271  1.00 26.55 LIG 0.24  C 
ATOM      2 O    TRP B1542      -3.009  47.405   1.099  1.00 27.86 LIG-0.27  OA
ATOM      3  N   TYR B1543      -4.128  45.674   1.969  1.00 24.62 LIG-0.35  N 
ATOM      4 H    TYR B1543      -4.837  45.191   2.040  1.00 24.62 LIG 0.16  HD
ENDROOT
BRANCH 3 5
ATOM      5  CA  TYR B1543      -2.974  45.164   2.686  1.00 22.31 LIG 0.18  C 
BRANCH 5 6
ATOM      6  CB  TYR B1543      -3.435  44.639   4.048  1.00 23.67 LIG 0.07  C 
BRANCH 6 7
ATOM      7  CG  TYR B1543      -2.417  43.808   4.806  1.00 24.58 LIG-0.06  A 
ATOM      8  CD1 TYR B1543      -2.543  42.421   4.880  1.00 24.59 LIG 0.01  A 
ATOM      9  CE1 TYR B1543      -1.659  41.661   5.632  1.00 26.50 LIG 0.04  A 
ATOM     10  CZ  TYR B1543      -0.644  42.297   6.320  1.00 24.60 LIG 0.07  A 
ATOM     11  CE2 TYR B1543      -0.499  43.680   6.250  1.00 24.06 LIG 0.04  A 
ATOM     12  CD2 TYR B1543      -1.376  44.414   5.498  1.00 22.62 LIG 0.01  A 
BRANCH 10 13
ATOM     13 OH   TYR B1543       0.201  41.562   7.101  1.00 26.51 LIG-0.36  OA
ATOM     14 HH   TYR B1543       0.549  40.951   6.640  1.00 26.51 LIG 0.22  HD
ENDBRANCH 10 13
ENDBRANCH 6 7
ENDBRANCH 5 6
BRANCH 5 15
ATOM     15  C   TYR B1543      -2.082  44.127   2.021  1.00 22.90 LIG 0.24  C 
ATOM     16  N   LEU B1544      -2.570  42.900   1.904  1.00 22.60 LIG-0.35  N 
ATOM     17 H    LEU B1544      -3.360  42.663   2.146  1.00 22.60 LIG 0.16  HD
ATOM     18 O    TYR B1543      -0.961  44.432   1.631  1.00 21.43 LIG-0.27  OA
BRANCH 16 19
ATOM     19  CA  LEU B1544      -1.756  41.840   1.331  1.00 22.81 LIG 0.18  C 
BRANCH 19 20
ATOM     20  C   LEU B1544      -1.164  42.239  -0.017  1.00 21.53 LIG 0.24  C 
ATOM     21 O    LEU B1544      -1.787  42.968  -0.797  1.00 22.00 LIG-0.27  OA
ATOM     22  N   ARG B1545       0.043  41.758  -0.294  1.00 20.14 LIG-0.35  N 
ATOM     23 H    ARG B1545       0.502  41.248   0.224  1.00 20.14 LIG 0.16  HD
BRANCH 22 24
ATOM     24  CA  ARG B1545       0.676  42.091  -1.559  1.00 18.95 LIG 0.16  C 
BRANCH 24 25
ATOM     25  CB  ARG B1545       2.138  42.496  -1.327  1.00 20.51 LIG 0.04  C 
BRANCH 25 26
ATOM     26  CG  ARG B1545       2.225  43.537  -0.210  1.00 20.78 LIG 0.02  C 
BRANCH 26 27
ATOM     27  CD  ARG B1545       3.316  44.579  -0.442  1.00 21.13 LIG 0.14  C 
BRANCH 27 28
ATOM     28  NE  ARG B1545       2.873  45.902   0.011  1.00 20.56 LIG-0.23  N 
ATOM     29 HE   ARG B1545       2.128  46.205  -0.294  1.00 20.56 LIG 0.18  HD
ATOM     30  CZ  ARG B1545       3.554  46.658   0.865  1.00 23.27 LIG 0.67  C 
ATOM     31  NH2 ARG B1545       3.098  47.870   1.207  1.00 19.37 LIG-0.23  N 
ATOM     32  NH1 ARG B1545       4.703  46.212   1.357  1.00 20.25 LIG-0.23  N 
ATOM     33 1HH2 ARG B1545       2.362  48.162   0.874  1.00 19.37 LIG 0.17  HD
ATOM     34 2HH2 ARG B1545       3.543  48.356   1.760  1.00 19.37 LIG 0.17  HD
ATOM     35 1HH1 ARG B1545       5.001  45.440   1.122  1.00 20.25 LIG 0.17  HD
ATOM     36 2HH1 ARG B1545       5.151  46.695   1.910  1.00 20.25 LIG 0.17  HD
ENDBRANCH 27 28
ENDBRANCH 26 27
ENDBRANCH 25 26
ENDBRANCH 24 25
BRANCH 24 37
ATOM     37  C   ARG B1545       0.553  40.973  -2.586  1.00 20.11 LIG 0.22  C 
ATOM     38 O    ARG B1545       0.515  41.315  -3.792  1.00 20.61 LIG-0.29  OA
ENDBRANCH 24 37
ENDBRANCH 22 24
ENDBRANCH 19 20
BRANCH 19 39
ATOM     39  CB  LEU B1544      -2.593  40.562   1.197  1.00 22.71 LIG 0.04  C 
BRANCH 39 40
ATOM     40  CG  LEU B1544      -2.900  39.853   2.526  1.00 23.46 LIG-0.02  C 
ATOM     41  CD1 LEU B1544      -3.844  38.679   2.245  1.00 24.99 LIG 0.01  C 
ATOM     42  CD2 LEU B1544      -1.624  39.362   3.198  1.00 22.67 LIG 0.01  C 
ENDBRANCH 39 40
ENDBRANCH 19 39
ENDBRANCH 16 19
ENDBRANCH 5 15
ENDBRANCH 3 5
BRANCH 1 43
ATOM     43  CA  TRP B1542      -5.352  47.311   0.647  1.00 29.62 LIG 0.18  C 
BRANCH 43 44
ATOM     44  N   TRP B1542      -6.457  46.361   0.767  1.00 31.24 LIG-0.35  N 
ATOM     45  C   ALA B1541      -7.141  45.986  -0.302  1.00 34.20 LIG 0.24  C 
ATOM     46 O    ALA B1541      -6.859  46.381  -1.431  1.00 33.88 LIG-0.27  OA
ATOM     47 H    TRP B1542      -6.611  46.083   1.566  1.00 31.24 LIG 0.16  HD
BRANCH 45 48
ATOM     48  CA  ALA B1541      -8.310  45.016  -0.074  1.00 35.59 LIG 0.17  C 
ATOM     49  CB  ALA B1541      -9.454  45.737   0.676  1.00 37.24 LIG 0.04  C 
BRANCH 48 50
ATOM     50  N   ALA B1541      -7.976  43.770   0.631  1.00 36.68 LIG-0.35  N 
ATOM     51  C   ALA B1540      -6.955  43.001   0.265  1.00 36.41 LIG 0.24  C 
ATOM     52 O    ALA B1540      -6.188  43.302  -0.655  1.00 35.55 LIG-0.27  OA
ATOM     53 H    ALA B1541      -8.496  43.591   1.292  1.00 36.68 LIG 0.16  HD
BRANCH 51 54
ATOM     54  CA  ALA B1540      -6.753  41.717   1.080  1.00 37.40 LIG 0.17  C 
ATOM     55  CB  ALA B1540      -7.624  40.585   0.514  1.00 38.11 LIG 0.04  C 
BRANCH 54 56
ATOM     56  N   ALA B1540      -7.060  41.909   2.496  1.00 38.31 LIG-0.35  N 
ATOM     57 H    ALA B1540      -7.891  41.802   2.692  1.00 38.31 LIG 0.16  HD
ATOM     58  C   ILE B1539      -6.131  42.218   3.390  1.00 39.48 LIG 0.26  C 
ATOM     59 O    ILE B1539      -4.955  42.376   3.094  1.00 40.50 LIG-0.27  OA
BRANCH 58 60
ATOM     60  CA  ILE B1539      -6.610  42.402   4.832  1.00 40.24 LIG 0.40  C 
ATOM     61  N   ILE B1539      -5.699  41.734   5.817  1.00 42.50 LIG 0.61  N 
BRANCH 60 62
ATOM     62  CB  ILE B1539      -6.725  43.932   5.098  1.00 40.48 LIG 0.03  C 
ATOM     63  CG2 ILE B1539      -6.618  44.698   3.781  1.00 38.85 LIG 0.01  C 
BRANCH 62 64
ATOM     64  CG1 ILE B1539      -8.052  44.263   5.790  1.00 39.99 LIG 0.00  C 
ATOM     65  CD1 ILE B1539      -8.606  45.645   5.419  1.00 39.67 LIG 0.01  C 
ENDBRANCH 62 64
ENDBRANCH 60 62
ENDBRANCH 58 60
ENDBRANCH 54 56
ENDBRANCH 51 54
ENDBRANCH 48 50
ENDBRANCH 45 48
ENDBRANCH 43 44
BRANCH 43 66
ATOM     66  CB  TRP B1542      -5.738  48.628   1.334  1.00 29.93 LIG 0.07  C 
BRANCH 66 67
ATOM     67  CG  TRP B1542      -5.871  48.511   2.854  1.00 31.09 LIG-0.03  A 
ATOM     68  CD1 TRP B1542      -7.016  48.228   3.557  1.00 35.00 LIG 0.10  A 
ATOM     69  NE1 TRP B1542      -6.746  48.170   4.911  1.00 35.42 LIG-0.36  N 
ATOM     70 HE1  TRP B1542      -7.321  48.004   5.529  1.00 35.42 LIG 0.17  HD
ATOM     71  CE2 TRP B1542      -5.411  48.417   5.111  1.00 34.23 LIG 0.04  A 
ATOM     72  CD2 TRP B1542      -4.824  48.640   3.838  1.00 31.85 LIG-0.00  A 
ATOM     73  CZ2 TRP B1542      -4.669  48.463   6.302  1.00 32.49 LIG 0.03  A 
ATOM     74  CE3 TRP B1542      -3.451  48.921   3.769  1.00 30.05 LIG 0.01  A 
ATOM     75  CZ3 TRP B1542      -2.711  48.966   4.954  1.00 29.28 LIG 0.00  A 
ATOM     76  CH2 TRP B1542      -3.329  48.735   6.207  1.00 32.34 LIG 0.00  A 
ENDBRANCH 66 67
ENDBRANCH 43 66
ENDBRANCH 1 43
TORSDOF 26
ENDMDL
MODEL 5
USER: ADFR SOLUTION from run 58
USER: SCORE 21.400411 LL:  -7.389 LR: -16.509 RR:   0.000 FEB:  -8.753
USER: RMSD 2.780894
USER: SEED 57
USER: STATUS 1 or 2 clusters left
USER: GENES 28
USER: genes 0 Translation |==|  0.42891 0.61501 0.43459
USER: genes 1 Rotation |==|  0.48139 0.51797 0.49867 0.99933
USER: genes 2 Torsion [C]-N--CA-[CB] |==|  0.45460
USER: genes 3 Torsion [N]-CA--CB-[CG] |==|  0.45879
USER: genes 4 Torsion [CA]-CB--CG-[CD1] |==|  0.71091
USER: genes 5 Torsion [CE1]-CZ--OH-[HH] |==|  0.02647
USER: genes 6 Torsion [N]-CA--C-[N] |==|  0.80593
USER: genes 7 Torsion [C]-N--CA-[CB] |==|  0.51375
USER: genes 8 Torsion [N]-CA--C-[N] |==|  0.40069
USER: genes 9 Torsion [C]-N--CA-[CB] |==|  0.36299
USER: genes 10 Torsion [N]-CA--CB-[CG] |==|  0.84350
USER: genes 11 Torsion [CA]-CB--CG-[CD] |==|  0.57791
USER: genes 12 Torsion [CB]-CG--CD-[NE] |==|  0.43437
USER: genes 13 Torsion [CG]-CD--NE-[HE] |==|  0.84913
USER: genes 14 Torsion [N]-CA--C-[O] |==|  0.61487
USER: genes 15 Torsion [N]-CA--CB-[CG] |==|  0.79951
USER: genes 16 Torsion [CA]-CB--CG-[CD1] |==|  0.49244
USER: genes 17 Torsion [N]-C--CA-[N] |==|  0.97132
USER: genes 18 Torsion [C]-CA--N-[C] |==|  0.78397
USER: genes 19 Torsion [N]-C--CA-[N] |==|  0.83758
USER: genes 20 Torsion [C]-CA--N-[C] |==|  0.86791
USER: genes 21 Torsion [N]-C--CA-[N] |==|  0.93788
USER: genes 22 Torsion [C]-CA--N-[C] |==|  0.82491
USER: genes 23 Torsion [N]-C--CA-[N] |==|  0.41625
USER: genes 24 Torsion [C]-CA--CB-[CG1] |==|  0.81787
USER: genes 25 Torsion [CA]-CB--CG1-[CD1] |==|  0.50062
USER: genes 26 Torsion [C]-CA--CB-[CG] |==|  0.79225
USER: genes 27 Torsion [CA]-CB--CG-[CD1] |==|  0.71309
ROOT
ATOM      1  C   TRP B1542      -4.111  46.205   1.244  1.00 26.55 LIG 0.24  C 
ATOM      2 O    TRP B1542      -3.061  46.507   0.694  1.00 27.86 LIG-0.27  OA
ATOM      3  N   TYR B1543      -4.161  45.388   2.289  1.00 24.62 LIG-0.35  N 
ATOM      4 H    TYR B1543      -4.889  45.101   2.645  1.00 24.62 LIG 0.16  HD
ENDROOT
BRANCH 3 5
ATOM      5  CA  TYR B1543      -2.947  44.909   2.925  1.00 22.31 LIG 0.18  C 
BRANCH 5 6
ATOM      6  CB  TYR B1543      -3.304  44.347   4.303  1.00 23.67 LIG 0.07  C 
BRANCH 6 7
ATOM      7  CG  TYR B1543      -2.235  43.494   4.958  1.00 24.58 LIG-0.06  A 
ATOM      8  CD1 TYR B1543      -2.354  42.106   4.993  1.00 24.59 LIG 0.01  A 
ATOM      9  CE1 TYR B1543      -1.418  41.323   5.654  1.00 26.50 LIG 0.04  A 
ATOM     10  CZ  TYR B1543      -0.357  41.938   6.289  1.00 24.60 LIG 0.07  A 
ATOM     11  CE2 TYR B1543      -0.219  43.323   6.256  1.00 24.06 LIG 0.04  A 
ATOM     12  CD2 TYR B1543      -1.147  44.080   5.594  1.00 22.62 LIG 0.01  A 
BRANCH 10 13
ATOM     13 OH   TYR B1543       0.542  41.179   6.983  1.00 26.51 LIG-0.36  OA
ATOM     14 HH   TYR B1543       0.400  40.366   6.828  1.00 26.51 LIG 0.22  HD
ENDBRANCH 10 13
ENDBRANCH 6 7
ENDBRANCH 5 6
BRANCH 5 15
ATOM     15  C   TYR B1543      -2.062  43.915   2.189  1.00 22.90 LIG 0.24  C 
ATOM     16  N   LEU B1544      -2.536  42.687   2.034  1.00 22.60 LIG-0.35  N 
ATOM     17 H    LEU B1544      -3.314  42.427   2.290  1.00 22.60 LIG 0.16  HD
ATOM     18 O    TYR B1543      -0.958  44.254   1.777  1.00 21.43 LIG-0.27  OA
BRANCH 16 19
ATOM     19  CA  LEU B1544      -1.725  41.665   1.392  1.00 22.81 LIG 0.18  C 
BRANCH 19 20
ATOM     20  C   LEU B1544      -1.181  42.131   0.045  1.00 21.53 LIG 0.24  C 
ATOM     21 O    LEU B1544      -1.852  42.856  -0.698  1.00 22.00 LIG-0.27  OA
ATOM     22  N   ARG B1545       0.038  41.709  -0.274  1.00 20.14 LIG-0.35  N 
ATOM     23 H    ARG B1545       0.529  41.203   0.218  1.00 20.14 LIG 0.16  HD
BRANCH 22 24
ATOM     24  CA  ARG B1545       0.627  42.108  -1.541  1.00 18.95 LIG 0.16  C 
BRANCH 24 25
ATOM     25  CB  ARG B1545       2.046  42.648  -1.316  1.00 20.51 LIG 0.04  C 
BRANCH 25 26
ATOM     26  CG  ARG B1545       2.018  43.804  -0.316  1.00 20.78 LIG 0.02  C 
BRANCH 26 27
ATOM     27  CD  ARG B1545       3.151  44.806  -0.521  1.00 21.13 LIG 0.14  C 
BRANCH 27 28
ATOM     28  NE  ARG B1545       2.790  46.114   0.034  1.00 20.56 LIG-0.23  N 
ATOM     29 HE   ARG B1545       2.056  46.477  -0.228  1.00 20.56 LIG 0.18  HD
ATOM     30  CZ  ARG B1545       3.532  46.772   0.918  1.00 23.27 LIG 0.67  C 
ATOM     31  NH2 ARG B1545       3.151  47.980   1.356  1.00 19.37 LIG-0.23  N 
ATOM     32  NH1 ARG B1545       4.667  46.234   1.346  1.00 20.25 LIG-0.23  N 
ATOM     33 1HH2 ARG B1545       2.423  48.332   1.065  1.00 19.37 LIG 0.17  HD
ATOM     34 2HH2 ARG B1545       3.634  48.401   1.929  1.00 19.37 LIG 0.17  HD
ATOM     35 1HH1 ARG B1545       4.917  45.466   1.050  1.00 20.25 LIG 0.17  HD
ATOM     36 2HH1 ARG B1545       5.153  46.652   1.918  1.00 20.25 LIG 0.17  HD
ENDBRANCH 27 28
ENDBRANCH 26 27
ENDBRANCH 25 26
ENDBRANCH 24 25
BRANCH 24 37
ATOM     37  C   ARG B1545       0.602  40.989  -2.574  1.00 20.11 LIG 0.22  C 
ATOM     38 O    ARG B1545       1.629  40.848  -3.279  1.00 20.61 LIG-0.29  OA
ENDBRANCH 24 37
ENDBRANCH 22 24
ENDBRANCH 19 20
BRANCH 19 39
ATOM     39  CB  LEU B1544      -2.548  40.381   1.229  1.00 22.71 LIG 0.04  C 
BRANCH 39 40
ATOM     40  CG  LEU B1544      -2.811  39.616   2.536  1.00 23.46 LIG-0.02  C 
ATOM     41  CD1 LEU B1544      -3.694  38.405   2.222  1.00 24.99 LIG 0.01  C 
ATOM     42  CD2 LEU B1544      -1.507  39.171   3.187  1.00 22.67 LIG 0.01  C 
ENDBRANCH 39 40
ENDBRANCH 19 39
ENDBRANCH 16 19
ENDBRANCH 5 15
ENDBRANCH 3 5
BRANCH 1 43
ATOM     43  CA  TRP B1542      -5.438  46.739   0.718  1.00 29.62 LIG 0.18  C 
BRANCH 43 44
ATOM     44  N   TRP B1542      -6.597  46.074   1.310  1.00 31.24 LIG-0.35  N 
ATOM     45  C   ALA B1541      -6.965  44.872   0.899  1.00 34.20 LIG 0.24  C 
ATOM     46 O    ALA B1541      -6.338  44.253   0.042  1.00 33.88 LIG-0.27  OA
ATOM     47 H    TRP B1542      -6.997  46.522   1.925  1.00 31.24 LIG 0.16  HD
BRANCH 45 48
ATOM     48  CA  ALA B1541      -8.217  44.267   1.551  1.00 35.59 LIG 0.17  C 
ATOM     49  CB  ALA B1541      -9.463  45.101   1.170  1.00 37.24 LIG 0.04  C 
BRANCH 48 50
ATOM     50  N   ALA B1541      -8.165  44.113   3.011  1.00 36.68 LIG-0.35  N 
ATOM     51  C   ALA B1540      -7.119  43.571   3.628  1.00 36.41 LIG 0.24  C 
ATOM     52 O    ALA B1540      -6.103  43.208   3.027  1.00 35.55 LIG-0.27  OA
ATOM     53 H    ALA B1541      -8.863  44.402   3.421  1.00 36.68 LIG 0.16  HD
BRANCH 51 54
ATOM     54  CA  ALA B1540      -7.226  43.450   5.154  1.00 37.40 LIG 0.17  C 
ATOM     55  CB  ALA B1540      -7.617  42.017   5.548  1.00 38.11 LIG 0.04  C 
BRANCH 54 56
ATOM     56  N   ALA B1540      -8.191  44.393   5.716  1.00 38.31 LIG-0.35  N 
ATOM     57 H    ALA B1540      -8.861  44.018   6.104  1.00 38.31 LIG 0.16  HD
ATOM     58  C   ILE B1539      -8.037  45.706   5.629  1.00 39.48 LIG 0.26  C 
ATOM     59 O    ILE B1539      -7.083  46.224   5.065  1.00 40.50 LIG-0.27  OA
BRANCH 58 60
ATOM     60  CA  ILE B1539      -9.140  46.563   6.252  1.00 40.24 LIG 0.40  C 
ATOM     61  N   ILE B1539      -8.618  47.874   6.759  1.00 42.50 LIG 0.61  N 
BRANCH 60 62
ATOM     62  CB  ILE B1539     -10.248  46.761   5.175  1.00 40.48 LIG 0.03  C 
ATOM     63  CG2 ILE B1539     -11.457  47.457   5.796  1.00 38.85 LIG 0.01  C 
BRANCH 62 64
ATOM     64  CG1 ILE B1539      -9.716  47.585   3.997  1.00 39.99 LIG 0.00  C 
ATOM     65  CD1 ILE B1539     -10.760  47.822   2.898  1.00 39.67 LIG 0.01  C 
ENDBRANCH 62 64
ENDBRANCH 60 62
ENDBRANCH 58 60
ENDBRANCH 54 56
ENDBRANCH 51 54
ENDBRANCH 48 50
ENDBRANCH 45 48
ENDBRANCH 43 44
BRANCH 43 66
ATOM     66  CB  TRP B1542      -5.509  48.243   1.017  1.00 29.93 LIG 0.07  C 
BRANCH 66 67
ATOM     67  CG  TRP B1542      -5.785  48.565   2.487  1.00 31.09 LIG-0.03  A 
ATOM     68  CD1 TRP B1542      -6.981  48.973   3.025  1.00 35.00 LIG 0.10  A 
ATOM     69  NE1 TRP B1542      -6.862  49.135   4.392  1.00 35.42 LIG-0.36  N 
ATOM     70 HE1  TRP B1542      -7.491  49.383   4.923  1.00 35.42 LIG 0.17  HD
ATOM     71  CE2 TRP B1542      -5.576  48.833   4.766  1.00 34.23 LIG 0.04  A 
ATOM     72  CD2 TRP B1542      -4.864  48.472   3.593  1.00 31.85 LIG-0.00  A 
ATOM     73  CZ2 TRP B1542      -4.978  48.846   6.037  1.00 32.49 LIG 0.03  A 
ATOM     74  CE3 TRP B1542      -3.512  48.118   3.707  1.00 30.05 LIG 0.01  A 
ATOM     75  CZ3 TRP B1542      -2.916  48.130   4.972  1.00 29.28 LIG 0.00  A 
ATOM     76  CH2 TRP B1542      -3.657  48.493   6.123  1.00 32.34 LIG 0.00  A 
ENDBRANCH 66 67
ENDBRANCH 43 66
ENDBRANCH 1 43
TORSDOF 26
ENDMDL
MODEL 6
USER: ADFR SOLUTION from run 63
USER: SCORE 22.427172 LL:  -8.234 LR: -16.453 RR:   0.000 FEB:  -8.697
USER: RMSD 2.942171
USER: SEED 62
USER: STATUS no improvement in best in 2 clusters for 5 generations
USER: GENES 28
USER: genes 0 Translation |==|  0.38006 0.56533 0.40013
USER: genes 1 Rotation |==|  0.43968 0.57111 0.64743 0.96858
USER: genes 2 Torsion [C]-N--CA-[CB] |==|  0.37676
USER: genes 3 Torsion [N]-CA--CB-[CG] |==|  0.29217
USER: genes 4 Torsion [CA]-CB--CG-[CD1] |==|  0.84719
USER: genes 5 Torsion [CE1]-CZ--OH-[HH] |==|  0.41621
USER: genes 6 Torsion [N]-CA--C-[N] |==|  0.95927
USER: genes 7 Torsion [C]-N--CA-[CB] |==|  0.50557
USER: genes 8 Torsion [N]-CA--C-[N] |==|  0.46055
USER: genes 9 Torsion [C]-N--CA-[CB] |==|  0.37020
USER: genes 10 Torsion [N]-CA--CB-[CG] |==|  0.70735
USER: genes 11 Torsion [CA]-CB--CG-[CD] |==|  0.20211
USER: genes 12 Torsion [CB]-CG--CD-[NE] |==|  0.48238
USER: genes 13 Torsion [CG]-CD--NE-[HE] |==|  0.81078
USER: genes 14 Torsion [N]-CA--C-[O] |==|  0.21381
USER: genes 15 Torsion [N]-CA--CB-[CG] |==|  0.82353
USER: genes 16 Torsion [CA]-CB--CG-[CD1] |==|  0.47170
USER: genes 17 Torsion [N]-C--CA-[N] |==|  0.90743
USER: genes 18 Torsion [C]-CA--N-[C] |==|  0.84112
USER: genes 19 Torsion [N]-C--CA-[N] |==|  0.85510
USER: genes 20 Torsion [C]-CA--N-[C] |==|  0.84256
USER: genes 21 Torsion [N]-C--CA-[N] |==|  0.34691
USER: genes 22 Torsion [C]-CA--N-[C] |==|  0.81321
USER: genes 23 Torsion [N]-C--CA-[N] |==|  0.68326
USER: genes 24 Torsion [C]-CA--CB-[CG1] |==|  0.61317
USER: genes 25 Torsion [CA]-CB--CG1-[CD1] |==|  0.59181
USER: genes 26 Torsion [C]-CA--CB-[CG] |==|  0.86292
USER: genes 27 Torsion [CA]-CB--CG-[CD1] |==|  0.74943
ROOT
ATOM      1  C   TRP B1542      -5.247  45.236   0.597  1.00 26.55 LIG 0.24  C 
ATOM      2 O    TRP B1542      -4.685  45.934  -0.235  1.00 27.86 LIG-0.27  OA
ATOM      3  N   TYR B1543      -4.625  44.766   1.672  1.00 24.62 LIG-0.35  N 
ATOM      4 H    TYR B1543      -4.975  44.213   2.231  1.00 24.62 LIG 0.16  HD
ENDROOT
BRANCH 3 5
ATOM      5  CA  TYR B1543      -3.267  45.168   1.988  1.00 22.31 LIG 0.18  C 
BRANCH 5 6
ATOM      6  CB  TYR B1543      -3.183  45.480   3.485  1.00 23.67 LIG 0.07  C 
BRANCH 6 7
ATOM      7  CG  TYR B1543      -2.484  44.434   4.331  1.00 24.58 LIG-0.06  A 
ATOM      8  CD1 TYR B1543      -2.903  43.104   4.311  1.00 24.59 LIG 0.01  A 
ATOM      9  CE1 TYR B1543      -2.318  42.155   5.136  1.00 26.50 LIG 0.04  A 
ATOM     10  CZ  TYR B1543      -1.307  42.543   5.994  1.00 24.60 LIG 0.07  A 
ATOM     11  CE2 TYR B1543      -0.871  43.865   6.021  1.00 24.06 LIG 0.04  A 
ATOM     12  CD2 TYR B1543      -1.454  44.787   5.195  1.00 22.62 LIG 0.01  A 
BRANCH 10 13
ATOM     13 OH   TYR B1543      -0.759  41.627   6.844  1.00 26.51 LIG-0.36  OA
ATOM     14 HH   TYR B1543       0.045  41.826   6.990  1.00 26.51 LIG 0.22  HD
ENDBRANCH 10 13
ENDBRANCH 6 7
ENDBRANCH 5 6
BRANCH 5 15
ATOM     15  C   TYR B1543      -2.110  44.262   1.597  1.00 22.90 LIG 0.24  C 
ATOM     16  N   LEU B1544      -2.411  43.017   1.254  1.00 22.60 LIG-0.35  N 
ATOM     17 H    LEU B1544      -3.209  42.701   1.208  1.00 22.60 LIG 0.16  HD
ATOM     18 O    TYR B1543      -0.959  44.682   1.616  1.00 21.43 LIG-0.27  OA
BRANCH 16 19
ATOM     19  CA  LEU B1544      -1.355  42.074   0.922  1.00 22.81 LIG 0.18  C 
BRANCH 19 20
ATOM     20  C   LEU B1544      -0.443  42.603  -0.181  1.00 21.53 LIG 0.24  C 
ATOM     21 O    LEU B1544      -0.772  43.574  -0.870  1.00 22.00 LIG-0.27  OA
ATOM     22  N   ARG B1545       0.707  41.959  -0.351  1.00 20.14 LIG-0.35  N 
ATOM     23 H    ARG B1545       0.965  41.280   0.110  1.00 20.14 LIG 0.16  HD
BRANCH 22 24
ATOM     24  CA  ARG B1545       1.631  42.400  -1.382  1.00 18.95 LIG 0.16  C 
BRANCH 24 25
ATOM     25  CB  ARG B1545       3.055  42.483  -0.815  1.00 20.51 LIG 0.04  C 
BRANCH 25 26
ATOM     26  CG  ARG B1545       3.450  43.943  -0.594  1.00 20.78 LIG 0.02  C 
BRANCH 26 27
ATOM     27  CD  ARG B1545       2.741  44.585   0.596  1.00 21.13 LIG 0.14  C 
BRANCH 27 28
ATOM     28  NE  ARG B1545       3.269  45.930   0.848  1.00 20.56 LIG-0.23  N 
ATOM     29 HE   ARG B1545       4.077  46.001   1.135  1.00 20.56 LIG 0.18  HD
ATOM     30  CZ  ARG B1545       2.573  47.046   0.660  1.00 23.27 LIG 0.67  C 
ATOM     31  NH2 ARG B1545       3.115  48.238   0.943  1.00 19.37 LIG-0.23  N 
ATOM     32  NH1 ARG B1545       1.326  46.968   0.212  1.00 20.25 LIG-0.23  N 
ATOM     33 1HH2 ARG B1545       3.917  48.283   1.248  1.00 19.37 LIG 0.17  HD
ATOM     34 2HH2 ARG B1545       2.661  48.957   0.819  1.00 19.37 LIG 0.17  HD
ATOM     35 1HH1 ARG B1545       0.975  46.200   0.047  1.00 20.25 LIG 0.17  HD
ATOM     36 2HH1 ARG B1545       0.868  47.685   0.087  1.00 20.25 LIG 0.17  HD
ENDBRANCH 27 28
ENDBRANCH 26 27
ENDBRANCH 25 26
ENDBRANCH 24 25
BRANCH 24 37
ATOM     37  C   ARG B1545       1.568  41.532  -2.632  1.00 20.11 LIG 0.22  C 
ATOM     38 O    ARG B1545       0.595  41.719  -3.401  1.00 20.61 LIG-0.29  OA
ENDBRANCH 24 37
ENDBRANCH 22 24
ENDBRANCH 19 20
BRANCH 19 39
ATOM     39  CB  LEU B1544      -1.972  40.730   0.517  1.00 22.71 LIG 0.04  C 
BRANCH 39 40
ATOM     40  CG  LEU B1544      -2.762  40.024   1.629  1.00 23.46 LIG-0.02  C 
ATOM     41  CD1 LEU B1544      -3.522  38.844   1.014  1.00 24.99 LIG 0.01  C 
ATOM     42  CD2 LEU B1544      -1.839  39.542   2.741  1.00 22.67 LIG 0.01  C 
ENDBRANCH 39 40
ENDBRANCH 19 39
ENDBRANCH 16 19
ENDBRANCH 5 15
ENDBRANCH 3 5
BRANCH 1 43
ATOM     43  CA  TRP B1542      -6.707  44.841   0.413  1.00 29.62 LIG 0.18  C 
BRANCH 43 44
ATOM     44  N   TRP B1542      -7.004  43.501   0.915  1.00 31.24 LIG-0.35  N 
ATOM     45  C   ALA B1541      -6.345  42.450   0.458  1.00 34.20 LIG 0.24  C 
ATOM     46 O    ALA B1541      -5.439  42.554  -0.367  1.00 33.88 LIG-0.27  OA
ATOM     47 H    TRP B1542      -7.624  43.466   1.512  1.00 31.24 LIG 0.16  HD
BRANCH 45 48
ATOM     48  CA  ALA B1541      -6.751  41.077   1.015  1.00 35.59 LIG 0.17  C 
ATOM     49  CB  ALA B1541      -8.127  40.664   0.442  1.00 37.24 LIG 0.04  C 
BRANCH 48 50
ATOM     50  N   ALA B1541      -6.783  40.967   2.480  1.00 36.68 LIG-0.35  N 
ATOM     51  C   ALA B1540      -5.721  41.238   3.234  1.00 36.41 LIG 0.24  C 
ATOM     52 O    ALA B1540      -4.656  41.648   2.764  1.00 35.55 LIG-0.27  OA
ATOM     53 H    ALA B1541      -7.541  40.715   2.797  1.00 36.68 LIG 0.16  HD
BRANCH 51 54
ATOM     54  CA  ALA B1540      -5.902  41.047   4.745  1.00 37.40 LIG 0.17  C 
ATOM     55  CB  ALA B1540      -5.840  42.403   5.464  1.00 38.11 LIG 0.04  C 
BRANCH 54 56
ATOM     56  N   ALA B1540      -4.899  40.147   5.311  1.00 38.31 LIG-0.35  N 
ATOM     57 H    ALA B1540      -4.346  40.531   5.846  1.00 38.31 LIG 0.16  HD
ATOM     58  C   ILE B1539      -4.857  38.854   5.019  1.00 39.48 LIG 0.26  C 
ATOM     59 O    ILE B1539      -5.646  38.324   4.248  1.00 40.50 LIG-0.27  OA
BRANCH 58 60
ATOM     60  CA  ILE B1539      -3.739  38.045   5.678  1.00 40.24 LIG 0.40  C 
ATOM     61  N   ILE B1539      -2.752  37.527   4.676  1.00 42.50 LIG 0.61  N 
BRANCH 60 62
ATOM     62  CB  ILE B1539      -3.058  38.959   6.740  1.00 40.48 LIG 0.03  C 
ATOM     63  CG2 ILE B1539      -3.602  38.635   8.130  1.00 38.85 LIG 0.01  C 
BRANCH 62 64
ATOM     64  CG1 ILE B1539      -1.536  38.775   6.716  1.00 39.99 LIG 0.00  C 
ATOM     65  CD1 ILE B1539      -0.881  38.935   8.094  1.00 39.67 LIG 0.01  C 
ENDBRANCH 62 64
ENDBRANCH 60 62
ENDBRANCH 58 60
ENDBRANCH 54 56
ENDBRANCH 51 54
ENDBRANCH 48 50
ENDBRANCH 45 48
ENDBRANCH 43 44
BRANCH 43 66
ATOM     66  CB  TRP B1542      -7.584  45.864   1.149  1.00 29.93 LIG 0.07  C 
BRANCH 66 67
ATOM     67  CG  TRP B1542      -7.138  46.133   2.588  1.00 31.09 LIG-0.03  A 
ATOM     68  CD1 TRP B1542      -7.554  45.466   3.713  1.00 35.00 LIG 0.10  A 
ATOM     69  NE1 TRP B1542      -6.911  45.961   4.831  1.00 35.42 LIG-0.36  N 
ATOM     70 HE1  TRP B1542      -7.024  45.683   5.637  1.00 35.42 LIG 0.17  HD
ATOM     71  CE2 TRP B1542      -6.061  46.968   4.447  1.00 34.23 LIG 0.04  A 
ATOM     72  CD2 TRP B1542      -6.177  47.110   3.040  1.00 31.85 LIG-0.00  A 
ATOM     73  CZ2 TRP B1542      -5.199  47.765   5.217  1.00 32.49 LIG 0.03  A 
ATOM     74  CE3 TRP B1542      -5.404  48.086   2.395  1.00 30.05 LIG 0.01  A 
ATOM     75  CZ3 TRP B1542      -4.544  48.880   3.160  1.00 29.28 LIG 0.00  A 
ATOM     76  CH2 TRP B1542      -4.452  48.710   4.563  1.00 32.34 LIG 0.00  A 
ENDBRANCH 66 67
ENDBRANCH 43 66
ENDBRANCH 1 43
TORSDOF 26
ENDMDL
