MODEL 1
USER: ADFR SOLUTION from run 39
USER: SCORE 21.388696 LL:  -5.562 LR: -19.032 RR:   0.000 FEB: -10.083
USER: RMSD 3.011940
USER: SEED 38
USER: STATUS no improvement in best in 4 clusters for 5 generations
USER: GENES 32
USER: genes 0 Translation |==|  0.43297 0.37538 0.49354
USER: genes 1 Rotation |==|  0.50013 0.54874 0.45734 0.99579
USER: genes 2 Torsion [N]-CA--C-[N] |==|  0.87393
USER: genes 3 Torsion [C]-N--CA-[CB] |==|  0.37683
USER: genes 4 Torsion [N]-CA--CB-[CG] |==|  0.65608
USER: genes 5 Torsion [CA]-CB--CG-[CD] |==|  0.49129
USER: genes 6 Torsion [CB]-CG--CD-[OE1] |==|  0.93214
USER: genes 7 Torsion [N]-CA--C-[N] |==|  0.86231
USER: genes 8 Torsion [C]-N--CA-[CB] |==|  0.38475
USER: genes 9 Torsion [N]-CA--C-[N] |==|  0.13167
USER: genes 10 Torsion [C]-N--CA-[CB] |==|  0.45671
USER: genes 11 Torsion [N]-CA--C-[O] |==|  0.00490
USER: genes 12 Torsion [N]-CA--CB-[CG2] |==|  0.64183
USER: genes 13 Torsion [CA]-CB--OG1-[HG1] |==|  0.24308
USER: genes 14 Torsion [C]-CA--CB-[CG] |==|  0.52089
USER: genes 15 Torsion [CA]-CB--CG-[CD] |==|  0.75516
USER: genes 16 Torsion [CB]-CG--CD-[CE] |==|  0.74608
USER: genes 17 Torsion [CG]-CD--CE-[NZ] |==|  0.68805
USER: genes 18 Torsion [CD]-CE--NZ-[HZ2] |==|  0.53454
USER: genes 19 Torsion [C]-CA--N-[C] |==|  0.85543
USER: genes 20 Torsion [N]-C--CA-[N] |==|  0.45145
USER: genes 21 Torsion [C]-CA--CB-[CG2] |==|  0.64934
USER: genes 22 Torsion [CA]-CB--OG1-[HG1] |==|  0.23451
USER: genes 23 Torsion [C]-CA--N-[C] |==|  0.61326
USER: genes 24 Torsion [N]-C--CA-[N] |==|  0.41764
USER: genes 25 Torsion [C]-CA--CB-[CG] |==|  0.41970
USER: genes 26 Torsion [CA]-CB--CG-[CD] |==|  0.56304
USER: genes 27 Torsion [CB]-CG--CD-[NE] |==|  0.78270
USER: genes 28 Torsion [CG]-CD--NE-[HE] |==|  0.89289
USER: genes 29 Torsion [C]-CA--N-[C] |==|  0.82027
USER: genes 30 Torsion [N]-C--CA-[N] |==|  0.39723
USER: genes 31 Torsion [C]-CA--N-[H2] |==|  0.82575
ROOT
ATOM      1  CA  LYS B   4     -13.329   7.365  13.534  1.00 37.28 LIG 0.18  C 
ENDROOT
BRANCH 1 2
ATOM      2  C   LYS B   4     -13.971   8.033  14.729  1.00 39.57 LIG 0.24  C 
ATOM      3 O    LYS B   4     -15.095   8.535  14.657  1.00 42.15 LIG-0.27  OA
ATOM      4  N   GLN B   5     -13.255   8.030  15.840  1.00 37.54 LIG-0.35  N 
ATOM      5 H    GLN B   5     -12.459   7.710  15.912  1.00 37.54 LIG 0.16  HD
BRANCH 4 6
ATOM      6  CA  GLN B   5     -13.806   8.595  17.053  1.00 44.43 LIG 0.18  C 
BRANCH 6 7
ATOM      7  CB  GLN B   5     -13.534   7.693  18.243  1.00 42.91 LIG 0.04  C 
BRANCH 7 8
ATOM      8  CG  GLN B   5     -14.792   7.310  18.943  1.00 46.61 LIG 0.10  C 
BRANCH 8 9
ATOM      9  CD  GLN B   5     -14.532   6.366  20.063  1.00 50.89 LIG 0.21  C 
ATOM     10  NE2 GLN B   5     -15.446   6.344  21.035  1.00 54.67 LIG-0.37  N 
ATOM     11 21HE GLN B   5     -16.132   6.861  20.992  1.00 54.67 LIG 0.16  HD
ATOM     12 22HE GLN B   5     -15.350   5.813  21.704  1.00 54.67 LIG 0.16  HD
ATOM     13 OE1  GLN B   5     -13.522   5.645  20.069  1.00 48.99 LIG-0.27  OA
ENDBRANCH 8 9
ENDBRANCH 7 8
ENDBRANCH 6 7
BRANCH 6 14
ATOM     14  C   GLN B   5     -13.279  10.005  17.300  1.00 45.34 LIG 0.24  C 
ATOM     15 O    GLN B   5     -14.055  10.929  17.526  1.00 47.84 LIG-0.27  OA
ATOM     16  N   THR B   6     -11.965  10.180  17.226  1.00 44.99 LIG-0.34  N 
ATOM     17 H    THR B   6     -11.400   9.565  17.021  1.00 44.99 LIG 0.16  HD
BRANCH 16 18
ATOM     18  CA  THR B   6     -11.386  11.486  17.503  1.00 47.63 LIG 0.20  C 
BRANCH 18 19
ATOM     19  C   THR B   6     -11.157  12.298  16.226  1.00 49.11 LIG 0.24  C 
ATOM     20 O    THR B   6     -10.093  12.884  16.042  1.00 51.64 LIG-0.27  OA
ATOM     21  N   ALA B   7     -12.164  12.350  15.362  1.00 46.55 LIG-0.35  N 
ATOM     22 H    ALA B   7     -12.904  11.922  15.461  1.00 46.55 LIG 0.16  HD
BRANCH 21 23
ATOM     23  CA  ALA B   7     -12.093  13.157  14.150  1.00 49.58 LIG 0.16  C 
ATOM     24  CB  ALA B   7     -13.200  12.746  13.155  1.00 45.32 LIG 0.04  C 
BRANCH 23 25
ATOM     25  C   ALA B   7     -12.190  14.647  14.496  1.00 53.19 LIG 0.22  C 
ATOM     26 O    ALA B   7     -12.278  15.016  15.683  1.00 57.48 LIG-0.29  OA
ENDBRANCH 23 25
ENDBRANCH 21 23
ENDBRANCH 18 19
BRANCH 18 27
ATOM     27  CB  THR B   6     -10.090  11.384  18.344  1.00 48.13 LIG 0.15  C 
ATOM     28  CG2 THR B   6     -10.171  12.310  19.545  1.00 44.70 LIG 0.04  C 
BRANCH 27 29
ATOM     29 OG1  THR B   6      -9.886  10.030  18.780  1.00 42.78 LIG-0.39  OA
ATOM     30 HG1  THR B   6      -9.460   9.607  18.193  1.00 42.78 LIG 0.21  HD
ENDBRANCH 27 29
ENDBRANCH 18 27
ENDBRANCH 16 18
ENDBRANCH 6 14
ENDBRANCH 4 6
ENDBRANCH 1 2
BRANCH 1 31
ATOM     31  CB  LYS B   4     -13.425   5.848  13.717  1.00 35.55 LIG 0.04  C 
BRANCH 31 32
ATOM     32  CG  LYS B   4     -12.682   5.067  12.708  1.00 39.70 LIG 0.00  C 
BRANCH 32 33
ATOM     33  CD  LYS B   4     -13.559   4.806  11.509  1.00 40.13 LIG 0.03  C 
BRANCH 33 34
ATOM     34  CE  LYS B   4     -14.291   3.501  11.670  1.00 42.33 LIG 0.23  C 
BRANCH 34 35
ATOM     35  NZ  LYS B   4     -13.827   2.492  10.698  1.00 43.53 LIG-0.08  N 
ATOM     36 HZ3  LYS B   4     -13.796   2.854   9.886  1.00 43.53 LIG 0.27  HD
ATOM     37 HZ1  LYS B   4     -13.015   2.209  10.928  1.00 43.53 LIG 0.27  HD
ATOM     38 HZ2  LYS B   4     -14.390   1.802  10.693  1.00 43.53 LIG 0.27  HD
ENDBRANCH 34 35
ENDBRANCH 33 34
ENDBRANCH 32 33
ENDBRANCH 31 32
ENDBRANCH 1 31
BRANCH 1 39
ATOM     39  N   LYS B   4     -11.942   7.791  13.418  1.00 32.65 LIG-0.35  N 
ATOM     40  C   THR B   3     -11.603   9.075  13.410  1.00 34.58 LIG 0.24  C 
ATOM     41 O    THR B   3     -12.431   9.972  13.390  1.00 36.58 LIG-0.27  OA
ATOM     42 H    LYS B   4     -11.377   7.145  13.357  1.00 32.65 LIG 0.16  HD
BRANCH 40 43
ATOM     43  CA  THR B   3     -10.117   9.396  13.398  1.00 32.52 LIG 0.20  C 
BRANCH 43 44
ATOM     44  CB  THR B   3      -9.540   9.135  14.776  1.00 35.15 LIG 0.15  C 
ATOM     45  CG2 THR B   3      -8.815  10.363  15.282  1.00 35.84 LIG 0.04  C 
BRANCH 44 46
ATOM     46 OG1  THR B   3     -10.610   8.800  15.667  1.00 37.78 LIG-0.39  OA
ATOM     47 HG1  THR B   3     -10.783   7.981  15.602  1.00 37.78 LIG 0.21  HD
ENDBRANCH 44 46
ENDBRANCH 43 44
BRANCH 43 48
ATOM     48  N   THR B   3      -9.924  10.778  12.978  1.00 36.19 LIG-0.34  N 
ATOM     49  C   ARG B   2      -8.945  11.121  12.155  1.00 33.52 LIG 0.24  C 
ATOM     50 O    ARG B   2      -8.063  10.357  11.817  1.00 34.90 LIG-0.27  OA
ATOM     51 H    THR B   3     -10.493  11.332  13.307  1.00 36.19 LIG 0.16  HD
BRANCH 49 52
ATOM     52  CA  ARG B   2      -8.976  12.534  11.608  1.00 37.04 LIG 0.18  C 
BRANCH 52 53
ATOM     53  CB  ARG B   2      -9.801  12.512  10.335  1.00 37.98 LIG 0.04  C 
BRANCH 53 54
ATOM     54  CG  ARG B   2     -10.512  13.807  10.023  1.00 44.54 LIG 0.02  C 
BRANCH 54 55
ATOM     55  CD  ARG B   2     -11.663  13.466   9.125  1.00 45.57 LIG 0.14  C 
BRANCH 55 56
ATOM     56  NE  ARG B   2     -11.169  13.260   7.774  1.00 45.97 LIG-0.23  N 
ATOM     57  CZ  ARG B   2     -11.618  12.327   6.945  1.00 44.90 LIG 0.67  C 
ATOM     58  NH1 ARG B   2     -12.574  11.482   7.325  1.00 46.97 LIG-0.23  N 
ATOM     59  NH2 ARG B   2     -11.087  12.232   5.742  1.00 41.82 LIG-0.23  N 
ATOM     60 2HH1 ARG B   2     -12.858  10.880   6.779  1.00 46.97 LIG 0.17  HD
ATOM     61 1HH1 ARG B   2     -12.907  11.537   8.116  1.00 46.97 LIG 0.17  HD
ATOM     62 2HH2 ARG B   2     -11.368  11.632   5.195  1.00 41.82 LIG 0.17  HD
ATOM     63 1HH2 ARG B   2     -10.459  12.770   5.505  1.00 41.82 LIG 0.17  HD
ATOM     64 HE   ARG B   2     -10.543  13.778   7.493  1.00 45.97 LIG 0.18  HD
ENDBRANCH 55 56
ENDBRANCH 54 55
ENDBRANCH 53 54
ENDBRANCH 52 53
BRANCH 52 65
ATOM     65  N   ARG B   2      -7.621  12.991  11.346  1.00 35.35 LIG-0.35  N 
ATOM     66 H    ARG B   2      -7.446  13.142  10.517  1.00 35.35 LIG 0.16  HD
ATOM     67  C   ALA B   1      -6.753  13.150  12.333  1.00 38.28 LIG 0.25  C 
ATOM     68 O    ALA B   1      -7.065  12.998  13.513  1.00 39.08 LIG-0.27  OA
BRANCH 67 69
ATOM     69  CA  ALA B   1      -5.338  13.563  11.951  1.00 38.95 LIG 0.27  C 
ATOM     70  CB  ALA B   1      -4.432  12.349  11.817  1.00 37.91 LIG 0.05  C 
BRANCH 69 71
ATOM     71  N   ALA B   1      -4.800  14.491  12.944  1.00 44.33 LIG-0.07  N 
ATOM     72 H1   ALA B   1      -3.960  14.696  12.734  1.00 44.33 LIG 0.28  HD
ATOM     73 H2   ALA B   1      -5.292  15.233  12.955  1.00 44.33 LIG 0.28  HD
ATOM     74 H3   ALA B   1      -4.820  14.110  13.748  1.00 44.33 LIG 0.28  HD
ENDBRANCH 69 71
ENDBRANCH 67 69
ENDBRANCH 52 65
ENDBRANCH 49 52
ENDBRANCH 43 48
ENDBRANCH 40 43
ENDBRANCH 1 39
TORSDOF 30
ENDMDL
MODEL 2
USER: ADFR SOLUTION from run 27
USER: SCORE 22.344824 LL:  -5.235 LR: -18.067 RR:   0.000 FEB:  -9.118
USER: RMSD 1.796602
USER: SEED 26
USER: STATUS no improvement in best in 3 clusters for 5 generations
USER: GENES 32
USER: genes 0 Translation |==|  0.43523 0.36409 0.49045
USER: genes 1 Rotation |==|  0.49470 0.52951 0.47189 0.99831
USER: genes 2 Torsion [N]-CA--C-[N] |==|  0.90177
USER: genes 3 Torsion [C]-N--CA-[CB] |==|  0.49618
USER: genes 4 Torsion [N]-CA--CB-[CG] |==|  0.25194
USER: genes 5 Torsion [CA]-CB--CG-[CD] |==|  0.54045
USER: genes 6 Torsion [CB]-CG--CD-[OE1] |==|  0.71679
USER: genes 7 Torsion [N]-CA--C-[N] |==|  0.38867
USER: genes 8 Torsion [C]-N--CA-[CB] |==|  0.84982
USER: genes 9 Torsion [N]-CA--C-[N] |==|  0.90146
USER: genes 10 Torsion [C]-N--CA-[CB] |==|  0.43178
USER: genes 11 Torsion [N]-CA--C-[O] |==|  0.96363
USER: genes 12 Torsion [N]-CA--CB-[CG2] |==|  0.54536
USER: genes 13 Torsion [CA]-CB--OG1-[HG1] |==|  0.49030
USER: genes 14 Torsion [C]-CA--CB-[CG] |==|  0.42524
USER: genes 15 Torsion [CA]-CB--CG-[CD] |==|  0.72764
USER: genes 16 Torsion [CB]-CG--CD-[CE] |==|  0.68516
USER: genes 17 Torsion [CG]-CD--CE-[NZ] |==|  0.80742
USER: genes 18 Torsion [CD]-CE--NZ-[HZ2] |==|  0.72671
USER: genes 19 Torsion [C]-CA--N-[C] |==|  0.85548
USER: genes 20 Torsion [N]-C--CA-[N] |==|  0.45125
USER: genes 21 Torsion [C]-CA--CB-[CG2] |==|  0.66009
USER: genes 22 Torsion [CA]-CB--OG1-[HG1] |==|  0.30100
USER: genes 23 Torsion [C]-CA--N-[C] |==|  0.62807
USER: genes 24 Torsion [N]-C--CA-[N] |==|  0.41739
USER: genes 25 Torsion [C]-CA--CB-[CG] |==|  0.45017
USER: genes 26 Torsion [CA]-CB--CG-[CD] |==|  0.55681
USER: genes 27 Torsion [CB]-CG--CD-[NE] |==|  0.76512
USER: genes 28 Torsion [CG]-CD--NE-[HE] |==|  0.88574
USER: genes 29 Torsion [C]-CA--N-[C] |==|  0.81601
USER: genes 30 Torsion [N]-C--CA-[N] |==|  0.40304
USER: genes 31 Torsion [C]-CA--N-[H2] |==|  0.82178
ROOT
ATOM      1  CA  LYS B   4     -13.281   7.128  13.458  1.00 37.28 LIG 0.18  C 
ENDROOT
BRANCH 1 2
ATOM      2  C   LYS B   4     -14.051   7.779  14.585  1.00 39.57 LIG 0.24  C 
ATOM      3 O    LYS B   4     -15.251   8.044  14.474  1.00 42.15 LIG-0.27  OA
ATOM      4  N   GLN B   5     -13.358   8.029  15.681  1.00 37.54 LIG-0.35  N 
ATOM      5 H    GLN B   5     -12.516   7.879  15.777  1.00 37.54 LIG 0.16  HD
BRANCH 4 6
ATOM      6  CA  GLN B   5     -14.019   8.600  16.836  1.00 44.43 LIG 0.18  C 
BRANCH 6 7
ATOM      7  CB  GLN B   5     -13.045   8.772  17.987  1.00 42.91 LIG 0.04  C 
BRANCH 7 8
ATOM      8  CG  GLN B   5     -12.395  10.113  17.964  1.00 46.61 LIG 0.10  C 
BRANCH 8 9
ATOM      9  CD  GLN B   5     -11.209  10.163  18.858  1.00 50.89 LIG 0.21  C 
ATOM     10  NE2 GLN B   5     -10.092   9.607  18.384  1.00 54.67 LIG-0.37  N 
ATOM     11 21HE GLN B   5     -10.091   9.243  17.605  1.00 54.67 LIG 0.16  HD
ATOM     12 22HE GLN B   5      -9.374   9.613  18.856  1.00 54.67 LIG 0.16  HD
ATOM     13 OE1  GLN B   5     -11.272  10.704  19.974  1.00 48.99 LIG-0.27  OA
ENDBRANCH 8 9
ENDBRANCH 7 8
ENDBRANCH 6 7
BRANCH 6 14
ATOM     14  C   GLN B   5     -14.702   9.919  16.491  1.00 45.34 LIG 0.24  C 
ATOM     15 O    GLN B   5     -14.146  10.739  15.768  1.00 47.84 LIG-0.27  OA
ATOM     16  N   THR B   6     -15.895  10.140  17.032  1.00 44.99 LIG-0.34  N 
ATOM     17 H    THR B   6     -16.289   9.609  17.582  1.00 44.99 LIG 0.16  HD
BRANCH 16 18
ATOM     18  CA  THR B   6     -16.631  11.352  16.706  1.00 47.63 LIG 0.20  C 
BRANCH 18 19
ATOM     19  C   THR B   6     -17.184  11.326  15.280  1.00 49.11 LIG 0.24  C 
ATOM     20 O    THR B   6     -18.282  11.817  15.028  1.00 51.64 LIG-0.27  OA
ATOM     21  N   ALA B   7     -16.436  10.730  14.360  1.00 46.55 LIG-0.35  N 
ATOM     22 H    ALA B   7     -15.653  10.408  14.513  1.00 46.55 LIG 0.16  HD
BRANCH 21 23
ATOM     23  CA  ALA B   7     -16.894  10.572  12.984  1.00 49.58 LIG 0.16  C 
ATOM     24  CB  ALA B   7     -15.694  10.437  12.022  1.00 45.32 LIG 0.04  C 
BRANCH 23 25
ATOM     25  C   ALA B   7     -17.830   9.363  12.871  1.00 53.19 LIG 0.22  C 
ATOM     26 O    ALA B   7     -17.911   8.537  13.800  1.00 57.48 LIG-0.29  OA
ENDBRANCH 23 25
ENDBRANCH 21 23
ENDBRANCH 18 19
BRANCH 18 27
ATOM     27  CB  THR B   6     -15.794  12.630  16.961  1.00 48.13 LIG 0.15  C 
ATOM     28  CG2 THR B   6     -16.698  13.849  17.001  1.00 44.70 LIG 0.04  C 
BRANCH 27 29
ATOM     29 OG1  THR B   6     -15.072  12.513  18.199  1.00 42.78 LIG-0.39  OA
ATOM     30 HG1  THR B   6     -14.585  13.188  18.305  1.00 42.78 LIG 0.21  HD
ENDBRANCH 27 29
ENDBRANCH 18 27
ENDBRANCH 16 18
ENDBRANCH 6 14
ENDBRANCH 4 6
ENDBRANCH 1 2
BRANCH 1 31
ATOM     31  CB  LYS B   4     -13.301   5.612  13.670  1.00 35.55 LIG 0.04  C 
BRANCH 31 32
ATOM     32  CG  LYS B   4     -13.171   4.823  12.428  1.00 39.70 LIG 0.00  C 
BRANCH 32 33
ATOM     33  CD  LYS B   4     -14.532   4.377  11.956  1.00 40.13 LIG 0.03  C 
BRANCH 33 34
ATOM     34  CE  LYS B   4     -14.656   2.881  12.055  1.00 42.33 LIG 0.23  C 
BRANCH 34 35
ATOM     35  NZ  LYS B   4     -13.796   2.196  11.070  1.00 43.53 LIG-0.08  N 
ATOM     36 HZ3  LYS B   4     -13.143   2.743  10.815  1.00 43.53 LIG 0.27  HD
ATOM     37 HZ1  LYS B   4     -13.445   1.465  11.439  1.00 43.53 LIG 0.27  HD
ATOM     38 HZ2  LYS B   4     -14.282   1.964  10.361  1.00 43.53 LIG 0.27  HD
ENDBRANCH 34 35
ENDBRANCH 33 34
ENDBRANCH 32 33
ENDBRANCH 31 32
ENDBRANCH 1 31
BRANCH 1 39
ATOM     39  N   LYS B   4     -11.917   7.635  13.435  1.00 32.65 LIG-0.35  N 
ATOM     40  C   THR B   3     -11.656   8.937  13.421  1.00 34.58 LIG 0.24  C 
ATOM     41 O    THR B   3     -12.532   9.781  13.317  1.00 36.58 LIG-0.27  OA
ATOM     42 H    LYS B   4     -11.312   7.024  13.432  1.00 32.65 LIG 0.16  HD
BRANCH 40 43
ATOM     43  CA  THR B   3     -10.195   9.349  13.511  1.00 32.52 LIG 0.20  C 
BRANCH 43 44
ATOM     44  CB  THR B   3      -9.711   9.153  14.936  1.00 35.15 LIG 0.15  C 
ATOM     45  CG2 THR B   3      -9.187  10.458  15.495  1.00 35.84 LIG 0.04  C 
BRANCH 44 46
ATOM     46 OG1  THR B   3     -10.804   8.684  15.733  1.00 37.78 LIG-0.39  OA
ATOM     47 HG1  THR B   3     -10.683   7.876  15.928  1.00 37.78 LIG 0.21  HD
ENDBRANCH 44 46
ENDBRANCH 43 44
BRANCH 43 48
ATOM     48  N   THR B   3     -10.054  10.731  13.072  1.00 36.19 LIG-0.34  N 
ATOM     49  C   ARG B   2      -9.097  11.096  12.232  1.00 33.52 LIG 0.24  C 
ATOM     50 O    ARG B   2      -8.194  10.357  11.892  1.00 34.90 LIG-0.27  OA
ATOM     51 H    THR B   3     -10.637  11.270  13.402  1.00 36.19 LIG 0.16  HD
BRANCH 49 52
ATOM     52  CA  ARG B   2      -9.182  12.499  11.668  1.00 37.04 LIG 0.18  C 
BRANCH 52 53
ATOM     53  CB  ARG B   2     -10.020  12.433  10.405  1.00 37.98 LIG 0.04  C 
BRANCH 53 54
ATOM     54  CG  ARG B   2     -10.567  13.763   9.942  1.00 44.54 LIG 0.02  C 
BRANCH 54 55
ATOM     55  CD  ARG B   2     -11.729  13.465   9.043  1.00 45.57 LIG 0.14  C 
BRANCH 55 56
ATOM     56  NE  ARG B   2     -11.240  13.213   7.698  1.00 45.97 LIG-0.23  N 
ATOM     57  CZ  ARG B   2     -11.698  12.259   6.900  1.00 44.90 LIG 0.67  C 
ATOM     58  NH1 ARG B   2     -12.660  11.434   7.308  1.00 46.97 LIG-0.23  N 
ATOM     59  NH2 ARG B   2     -11.171  12.122   5.699  1.00 41.82 LIG-0.23  N 
ATOM     60 2HH1 ARG B   2     -12.951  10.818   6.782  1.00 46.97 LIG 0.17  HD
ATOM     61 1HH1 ARG B   2     -12.992  11.516   8.098  1.00 46.97 LIG 0.17  HD
ATOM     62 2HH2 ARG B   2     -11.458  11.508   5.171  1.00 41.82 LIG 0.17  HD
ATOM     63 1HH2 ARG B   2     -10.539  12.647   5.445  1.00 41.82 LIG 0.17  HD
ATOM     64 HE   ARG B   2     -10.610  13.717   7.400  1.00 45.97 LIG 0.18  HD
ENDBRANCH 55 56
ENDBRANCH 54 55
ENDBRANCH 53 54
ENDBRANCH 52 53
BRANCH 52 65
ATOM     65  N   ARG B   2      -7.846  12.999  11.385  1.00 35.35 LIG-0.35  N 
ATOM     66 H    ARG B   2      -7.678  13.125  10.551  1.00 35.35 LIG 0.16  HD
ATOM     67  C   ALA B   1      -6.984  13.228  12.362  1.00 38.28 LIG 0.25  C 
ATOM     68 O    ALA B   1      -7.287  13.108  13.548  1.00 39.08 LIG-0.27  OA
BRANCH 67 69
ATOM     69  CA  ALA B   1      -5.586  13.681  11.961  1.00 38.95 LIG 0.27  C 
ATOM     70  CB  ALA B   1      -4.647  12.493  11.820  1.00 37.91 LIG 0.05  C 
BRANCH 69 71
ATOM     71  N   ALA B   1      -5.063  14.628  12.944  1.00 44.33 LIG-0.07  N 
ATOM     72 H1   ALA B   1      -4.224  14.841  12.734  1.00 44.33 LIG 0.28  HD
ATOM     73 H2   ALA B   1      -5.564  15.363  12.944  1.00 44.33 LIG 0.28  HD
ATOM     74 H3   ALA B   1      -5.081  14.257  13.753  1.00 44.33 LIG 0.28  HD
ENDBRANCH 69 71
ENDBRANCH 67 69
ENDBRANCH 52 65
ENDBRANCH 49 52
ENDBRANCH 43 48
ENDBRANCH 40 43
ENDBRANCH 1 39
TORSDOF 30
ENDMDL
MODEL 3
USER: ADFR SOLUTION from run 110
USER: SCORE 20.816490 LL:  -5.809 LR: -17.985 RR:   0.000 FEB:  -9.036
USER: RMSD 1.414503
USER: SEED 109
USER: STATUS 1 or 2 clusters left
USER: GENES 32
USER: genes 0 Translation |==|  0.43611 0.35638 0.48563
USER: genes 1 Rotation |==|  0.49242 0.50842 0.48069 0.99950
USER: genes 2 Torsion [N]-CA--C-[N] |==|  0.89056
USER: genes 3 Torsion [C]-N--CA-[CB] |==|  0.44444
USER: genes 4 Torsion [N]-CA--CB-[CG] |==|  0.65599
USER: genes 5 Torsion [CA]-CB--CG-[CD] |==|  0.47358
USER: genes 6 Torsion [CB]-CG--CD-[OE1] |==|  0.24323
USER: genes 7 Torsion [N]-CA--C-[N] |==|  0.98435
USER: genes 8 Torsion [C]-N--CA-[CB] |==|  0.30178
USER: genes 9 Torsion [N]-CA--C-[N] |==|  0.97467
USER: genes 10 Torsion [C]-N--CA-[CB] |==|  0.17920
USER: genes 11 Torsion [N]-CA--C-[O] |==|  0.93562
USER: genes 12 Torsion [N]-CA--CB-[CG2] |==|  0.89763
USER: genes 13 Torsion [CA]-CB--OG1-[HG1] |==|  0.48742
USER: genes 14 Torsion [C]-CA--CB-[CG] |==|  0.41903
USER: genes 15 Torsion [CA]-CB--CG-[CD] |==|  0.82625
USER: genes 16 Torsion [CB]-CG--CD-[CE] |==|  0.65346
USER: genes 17 Torsion [CG]-CD--CE-[NZ] |==|  0.92122
USER: genes 18 Torsion [CD]-CE--NZ-[HZ2] |==|  0.55818
USER: genes 19 Torsion [C]-CA--N-[C] |==|  0.84889
USER: genes 20 Torsion [N]-C--CA-[N] |==|  0.46009
USER: genes 21 Torsion [C]-CA--CB-[CG2] |==|  0.64251
USER: genes 22 Torsion [CA]-CB--OG1-[HG1] |==|  0.37319
USER: genes 23 Torsion [C]-CA--N-[C] |==|  0.64285
USER: genes 24 Torsion [N]-C--CA-[N] |==|  0.42088
USER: genes 25 Torsion [C]-CA--CB-[CG] |==|  0.47471
USER: genes 26 Torsion [CA]-CB--CG-[CD] |==|  0.54873
USER: genes 27 Torsion [CB]-CG--CD-[NE] |==|  0.74655
USER: genes 28 Torsion [CG]-CD--NE-[HE] |==|  0.87304
USER: genes 29 Torsion [C]-CA--N-[C] |==|  0.81460
USER: genes 30 Torsion [N]-C--CA-[N] |==|  0.40245
USER: genes 31 Torsion [C]-CA--N-[H2] |==|  0.82379
ROOT
ATOM      1  CA  LYS B   4     -13.263   6.966  13.338  1.00 37.28 LIG 0.18  C 
ENDROOT
BRANCH 1 2
ATOM      2  C   LYS B   4     -14.148   7.599  14.389  1.00 39.57 LIG 0.24  C 
ATOM      3 O    LYS B   4     -15.323   7.886  14.151  1.00 42.15 LIG-0.27  OA
ATOM      4  N   GLN B   5     -13.580   7.811  15.563  1.00 37.54 LIG-0.35  N 
ATOM      5 H    GLN B   5     -12.756   7.645  15.749  1.00 37.54 LIG 0.16  HD
BRANCH 4 6
ATOM      6  CA  GLN B   5     -14.360   8.361  16.651  1.00 44.43 LIG 0.18  C 
BRANCH 6 7
ATOM      7  CB  GLN B   5     -13.702   8.074  17.989  1.00 42.91 LIG 0.04  C 
BRANCH 7 8
ATOM      8  CG  GLN B   5     -14.624   7.354  18.912  1.00 46.61 LIG 0.10  C 
BRANCH 8 9
ATOM      9  CD  GLN B   5     -13.916   6.874  20.129  1.00 50.89 LIG 0.21  C 
ATOM     10  NE2 GLN B   5     -13.421   5.636  20.069  1.00 54.67 LIG-0.37  N 
ATOM     11 21HE GLN B   5     -13.526   5.165  19.358  1.00 54.67 LIG 0.16  HD
ATOM     12 22HE GLN B   5     -12.997   5.309  20.742  1.00 54.67 LIG 0.16  HD
ATOM     13 OE1  GLN B   5     -13.797   7.601  21.127  1.00 48.99 LIG-0.27  OA
ENDBRANCH 8 9
ENDBRANCH 7 8
ENDBRANCH 6 7
BRANCH 6 14
ATOM     14  C   GLN B   5     -14.599   9.856  16.464  1.00 45.34 LIG 0.24  C 
ATOM     15 O    GLN B   5     -15.351  10.465  17.219  1.00 47.84 LIG-0.27  OA
ATOM     16  N   THR B   6     -13.987  10.441  15.442  1.00 44.99 LIG-0.34  N 
ATOM     17 H    THR B   6     -13.495  10.034  14.867  1.00 44.99 LIG 0.16  HD
BRANCH 16 18
ATOM     18  CA  THR B   6     -14.125  11.876  15.233  1.00 47.63 LIG 0.20  C 
BRANCH 18 19
ATOM     19  C   THR B   6     -14.628  12.208  13.827  1.00 49.11 LIG 0.24  C 
ATOM     20 O    THR B   6     -14.981  13.351  13.545  1.00 51.64 LIG-0.27  OA
ATOM     21  N   ALA B   7     -14.685  11.204  12.960  1.00 46.55 LIG-0.35  N 
ATOM     22 H    ALA B   7     -14.414  10.406  13.132  1.00 46.55 LIG 0.16  HD
BRANCH 21 23
ATOM     23  CA  ALA B   7     -15.222  11.382  11.616  1.00 49.58 LIG 0.16  C 
ATOM     24  CB  ALA B   7     -14.344  12.357  10.802  1.00 45.32 LIG 0.04  C 
BRANCH 23 25
ATOM     25  C   ALA B   7     -15.344  10.027  10.909  1.00 53.19 LIG 0.22  C 
ATOM     26 O    ALA B   7     -14.643   9.062  11.266  1.00 57.48 LIG-0.29  OA
ENDBRANCH 23 25
ENDBRANCH 21 23
ENDBRANCH 18 19
BRANCH 18 27
ATOM     27  CB  THR B   6     -12.819  12.641  15.559  1.00 48.13 LIG 0.15  C 
ATOM     28  CG2 THR B   6     -12.126  12.010  16.754  1.00 44.70 LIG 0.04  C 
BRANCH 27 29
ATOM     29 OG1  THR B   6     -11.941  12.635  14.421  1.00 42.78 LIG-0.39  OA
ATOM     30 HG1  THR B   6     -11.264  13.104  14.586  1.00 42.78 LIG 0.21  HD
ENDBRANCH 27 29
ENDBRANCH 18 27
ENDBRANCH 16 18
ENDBRANCH 6 14
ENDBRANCH 4 6
ENDBRANCH 1 2
BRANCH 1 31
ATOM     31  CB  LYS B   4     -13.245   5.453  13.569  1.00 35.55 LIG 0.04  C 
BRANCH 31 32
ATOM     32  CG  LYS B   4     -13.035   4.655  12.343  1.00 39.70 LIG 0.00  C 
BRANCH 32 33
ATOM     33  CD  LYS B   4     -14.172   4.882  11.379  1.00 40.13 LIG 0.03  C 
BRANCH 33 34
ATOM     34  CE  LYS B   4     -14.804   3.571  10.997  1.00 42.33 LIG 0.23  C 
BRANCH 34 35
ATOM     35  NZ  LYS B   4     -13.837   2.458  11.069  1.00 43.53 LIG-0.08  N 
ATOM     36 HZ3  LYS B   4     -13.046   2.732  10.769  1.00 43.53 LIG 0.27  HD
ATOM     37 HZ1  LYS B   4     -13.757   2.187  11.914  1.00 43.53 LIG 0.27  HD
ATOM     38 HZ2  LYS B   4     -14.126   1.781  10.568  1.00 43.53 LIG 0.27  HD
ENDBRANCH 34 35
ENDBRANCH 33 34
ENDBRANCH 32 33
ENDBRANCH 31 32
ENDBRANCH 1 31
BRANCH 1 39
ATOM     39  N   LYS B   4     -11.921   7.524  13.423  1.00 32.65 LIG-0.35  N 
ATOM     40  C   THR B   3     -11.703   8.833  13.367  1.00 34.58 LIG 0.24  C 
ATOM     41 O    THR B   3     -12.593   9.636  13.134  1.00 36.58 LIG-0.27  OA
ATOM     42 H    LYS B   4     -11.298   6.937  13.510  1.00 32.65 LIG 0.16  HD
BRANCH 40 43
ATOM     43  CA  THR B   3     -10.273   9.304  13.577  1.00 32.52 LIG 0.20  C 
BRANCH 43 44
ATOM     44  CB  THR B   3      -9.900   9.121  15.037  1.00 35.15 LIG 0.15  C 
ATOM     45  CG2 THR B   3      -9.332  10.408  15.596  1.00 35.84 LIG 0.04  C 
BRANCH 44 46
ATOM     46 OG1  THR B   3     -11.072   8.747  15.768  1.00 37.78 LIG-0.39  OA
ATOM     47 HG1  THR B   3     -10.891   8.107  16.280  1.00 37.78 LIG 0.21  HD
ENDBRANCH 44 46
ENDBRANCH 43 44
BRANCH 43 48
ATOM     48  N   THR B   3     -10.154  10.692  13.152  1.00 36.19 LIG-0.34  N 
ATOM     49  C   ARG B   2      -9.206  11.079  12.311  1.00 33.52 LIG 0.24  C 
ATOM     50 O    ARG B   2      -8.296  10.357  11.958  1.00 34.90 LIG-0.27  OA
ATOM     51 H    THR B   3     -10.742  11.220  13.491  1.00 36.19 LIG 0.16  HD
BRANCH 49 52
ATOM     52  CA  ARG B   2      -9.315  12.488  11.763  1.00 37.04 LIG 0.18  C 
BRANCH 52 53
ATOM     53  CB  ARG B   2     -10.185  12.429  10.522  1.00 37.98 LIG 0.04  C 
BRANCH 53 54
ATOM     54  CG  ARG B   2     -10.579  13.776   9.964  1.00 44.54 LIG 0.02  C 
BRANCH 54 55
ATOM     55  CD  ARG B   2     -11.746  13.544   9.052  1.00 45.57 LIG 0.14  C 
BRANCH 55 56
ATOM     56  NE  ARG B   2     -11.258  13.315   7.702  1.00 45.97 LIG-0.23  N 
ATOM     57  CZ  ARG B   2     -11.685  12.345   6.905  1.00 44.90 LIG 0.67  C 
ATOM     58  NH1 ARG B   2     -12.610  11.481   7.319  1.00 46.97 LIG-0.23  N 
ATOM     59  NH2 ARG B   2     -11.163  12.232   5.700  1.00 41.82 LIG-0.23  N 
ATOM     60 2HH1 ARG B   2     -12.880  10.855   6.794  1.00 46.97 LIG 0.17  HD
ATOM     61 1HH1 ARG B   2     -12.937  11.548   8.112  1.00 46.97 LIG 0.17  HD
ATOM     62 2HH2 ARG B   2     -11.430  11.608   5.173  1.00 41.82 LIG 0.17  HD
ATOM     63 1HH2 ARG B   2     -10.555  12.782   5.442  1.00 41.82 LIG 0.17  HD
ATOM     64 HE   ARG B   2     -10.651  13.844   7.401  1.00 45.97 LIG 0.18  HD
ENDBRANCH 55 56
ENDBRANCH 54 55
ENDBRANCH 53 54
ENDBRANCH 52 53
BRANCH 52 65
ATOM     65  N   ARG B   2      -7.989  12.998  11.449  1.00 35.35 LIG-0.35  N 
ATOM     66 H    ARG B   2      -7.842  13.127  10.612  1.00 35.35 LIG 0.16  HD
ATOM     67  C   ALA B   1      -7.106  13.233  12.407  1.00 38.28 LIG 0.25  C 
ATOM     68 O    ALA B   1      -7.382  13.108  13.600  1.00 39.08 LIG-0.27  OA
BRANCH 67 69
ATOM     69  CA  ALA B   1      -5.722  13.696  11.975  1.00 38.95 LIG 0.27  C 
ATOM     70  CB  ALA B   1      -4.775  12.517  11.815  1.00 37.91 LIG 0.05  C 
BRANCH 69 71
ATOM     71  N   ALA B   1      -5.185  14.650  12.944  1.00 44.33 LIG-0.07  N 
ATOM     72 H1   ALA B   1      -4.357  14.878  12.710  1.00 44.33 LIG 0.28  HD
ATOM     73 H2   ALA B   1      -5.698  15.377  12.961  1.00 44.33 LIG 0.28  HD
ATOM     74 H3   ALA B   1      -5.172  14.277  13.752  1.00 44.33 LIG 0.28  HD
ENDBRANCH 69 71
ENDBRANCH 67 69
ENDBRANCH 52 65
ENDBRANCH 49 52
ENDBRANCH 43 48
ENDBRANCH 40 43
ENDBRANCH 1 39
TORSDOF 30
ENDMDL
MODEL 4
USER: ADFR SOLUTION from run 27
USER: SCORE 21.673296 LL:  -5.397 LR: -17.984 RR:   0.000 FEB:  -9.035
USER: RMSD 3.088234
USER: SEED 26
USER: STATUS no improvement in best in 3 clusters for 5 generations
USER: GENES 32
USER: genes 0 Translation |==|  0.43523 0.36409 0.49045
USER: genes 1 Rotation |==|  0.49470 0.52951 0.47189 0.99831
USER: genes 2 Torsion [N]-CA--C-[N] |==|  0.90177
USER: genes 3 Torsion [C]-N--CA-[CB] |==|  0.49618
USER: genes 4 Torsion [N]-CA--CB-[CG] |==|  0.25194
USER: genes 5 Torsion [CA]-CB--CG-[CD] |==|  0.54045
USER: genes 6 Torsion [CB]-CG--CD-[OE1] |==|  0.71679
USER: genes 7 Torsion [N]-CA--C-[N] |==|  0.91085
USER: genes 8 Torsion [C]-N--CA-[CB] |==|  0.86605
USER: genes 9 Torsion [N]-CA--C-[N] |==|  0.90743
USER: genes 10 Torsion [C]-N--CA-[CB] |==|  0.43699
USER: genes 11 Torsion [N]-CA--C-[O] |==|  0.96363
USER: genes 12 Torsion [N]-CA--CB-[CG2] |==|  0.54536
USER: genes 13 Torsion [CA]-CB--OG1-[HG1] |==|  0.49030
USER: genes 14 Torsion [C]-CA--CB-[CG] |==|  0.42524
USER: genes 15 Torsion [CA]-CB--CG-[CD] |==|  0.72764
USER: genes 16 Torsion [CB]-CG--CD-[CE] |==|  0.68516
USER: genes 17 Torsion [CG]-CD--CE-[NZ] |==|  0.80742
USER: genes 18 Torsion [CD]-CE--NZ-[HZ2] |==|  0.72671
USER: genes 19 Torsion [C]-CA--N-[C] |==|  0.85548
USER: genes 20 Torsion [N]-C--CA-[N] |==|  0.45125
USER: genes 21 Torsion [C]-CA--CB-[CG2] |==|  0.66009
USER: genes 22 Torsion [CA]-CB--OG1-[HG1] |==|  0.30100
USER: genes 23 Torsion [C]-CA--N-[C] |==|  0.62807
USER: genes 24 Torsion [N]-C--CA-[N] |==|  0.41739
USER: genes 25 Torsion [C]-CA--CB-[CG] |==|  0.45017
USER: genes 26 Torsion [CA]-CB--CG-[CD] |==|  0.55681
USER: genes 27 Torsion [CB]-CG--CD-[NE] |==|  0.76512
USER: genes 28 Torsion [CG]-CD--NE-[HE] |==|  0.88574
USER: genes 29 Torsion [C]-CA--N-[C] |==|  0.81601
USER: genes 30 Torsion [N]-C--CA-[N] |==|  0.40304
USER: genes 31 Torsion [C]-CA--N-[H2] |==|  0.82178
ROOT
ATOM      1  CA  LYS B   4     -13.281   7.128  13.458  1.00 37.28 LIG 0.18  C 
ENDROOT
BRANCH 1 2
ATOM      2  C   LYS B   4     -14.051   7.779  14.585  1.00 39.57 LIG 0.24  C 
ATOM      3 O    LYS B   4     -15.251   8.044  14.474  1.00 42.15 LIG-0.27  OA
ATOM      4  N   GLN B   5     -13.358   8.029  15.681  1.00 37.54 LIG-0.35  N 
ATOM      5 H    GLN B   5     -12.516   7.879  15.777  1.00 37.54 LIG 0.16  HD
BRANCH 4 6
ATOM      6  CA  GLN B   5     -14.019   8.600  16.836  1.00 44.43 LIG 0.18  C 
BRANCH 6 7
ATOM      7  CB  GLN B   5     -13.045   8.772  17.987  1.00 42.91 LIG 0.04  C 
BRANCH 7 8
ATOM      8  CG  GLN B   5     -12.395  10.113  17.964  1.00 46.61 LIG 0.10  C 
BRANCH 8 9
ATOM      9  CD  GLN B   5     -11.209  10.163  18.858  1.00 50.89 LIG 0.21  C 
ATOM     10  NE2 GLN B   5     -10.092   9.607  18.383  1.00 54.67 LIG-0.37  N 
ATOM     11 21HE GLN B   5     -10.091   9.243  17.605  1.00 54.67 LIG 0.16  HD
ATOM     12 22HE GLN B   5      -9.374   9.613  18.856  1.00 54.67 LIG 0.16  HD
ATOM     13 OE1  GLN B   5     -11.272  10.704  19.974  1.00 48.99 LIG-0.27  OA
ENDBRANCH 8 9
ENDBRANCH 7 8
ENDBRANCH 6 7
BRANCH 6 14
ATOM     14  C   GLN B   5     -14.702   9.919  16.491  1.00 45.34 LIG 0.24  C 
ATOM     15 O    GLN B   5     -15.749  10.242  17.045  1.00 47.84 LIG-0.27  OA
ATOM     16  N   THR B   6     -14.132  10.667  15.555  1.00 44.99 LIG-0.34  N 
ATOM     17 H    THR B   6     -13.428  10.447  15.113  1.00 44.99 LIG 0.16  HD
BRANCH 16 18
ATOM     18  CA  THR B   6     -14.697  11.964  15.211  1.00 47.63 LIG 0.20  C 
BRANCH 18 19
ATOM     19  C   THR B   6     -14.343  13.039  16.241  1.00 49.11 LIG 0.24  C 
ATOM     20 O    THR B   6     -14.150  14.200  15.889  1.00 51.64 LIG-0.27  OA
ATOM     21  N   ALA B   7     -14.233  12.644  17.504  1.00 46.55 LIG-0.35  N 
ATOM     22 H    ALA B   7     -14.394  11.842  17.771  1.00 46.55 LIG 0.16  HD
BRANCH 21 23
ATOM     23  CA  ALA B   7     -13.822  13.561  18.561  1.00 49.58 LIG 0.16  C 
ATOM     24  CB  ALA B   7     -14.304  13.056  19.938  1.00 45.32 LIG 0.04  C 
BRANCH 23 25
ATOM     25  C   ALA B   7     -12.300  13.744  18.543  1.00 53.19 LIG 0.22  C 
ATOM     26 O    ALA B   7     -11.579  12.979  17.876  1.00 57.48 LIG-0.29  OA
ENDBRANCH 23 25
ENDBRANCH 21 23
ENDBRANCH 18 19
BRANCH 18 27
ATOM     27  CB  THR B   6     -16.226  11.891  14.978  1.00 48.13 LIG 0.15  C 
ATOM     28  CG2 THR B   6     -16.704  13.133  14.246  1.00 44.70 LIG 0.04  C 
BRANCH 27 29
ATOM     29 OG1  THR B   6     -16.558  10.715  14.220  1.00 42.78 LIG-0.39  OA
ATOM     30 HG1  THR B   6     -17.392  10.659  14.140  1.00 42.78 LIG 0.21  HD
ENDBRANCH 27 29
ENDBRANCH 18 27
ENDBRANCH 16 18
ENDBRANCH 6 14
ENDBRANCH 4 6
ENDBRANCH 1 2
BRANCH 1 31
ATOM     31  CB  LYS B   4     -13.301   5.612  13.670  1.00 35.55 LIG 0.04  C 
BRANCH 31 32
ATOM     32  CG  LYS B   4     -13.171   4.823  12.428  1.00 39.70 LIG 0.00  C 
BRANCH 32 33
ATOM     33  CD  LYS B   4     -14.532   4.377  11.956  1.00 40.13 LIG 0.03  C 
BRANCH 33 34
ATOM     34  CE  LYS B   4     -14.656   2.881  12.055  1.00 42.33 LIG 0.23  C 
BRANCH 34 35
ATOM     35  NZ  LYS B   4     -13.796   2.196  11.070  1.00 43.53 LIG-0.08  N 
ATOM     36 HZ3  LYS B   4     -13.143   2.743  10.815  1.00 43.53 LIG 0.27  HD
ATOM     37 HZ1  LYS B   4     -13.445   1.465  11.439  1.00 43.53 LIG 0.27  HD
ATOM     38 HZ2  LYS B   4     -14.282   1.964  10.361  1.00 43.53 LIG 0.27  HD
ENDBRANCH 34 35
ENDBRANCH 33 34
ENDBRANCH 32 33
ENDBRANCH 31 32
ENDBRANCH 1 31
BRANCH 1 39
ATOM     39  N   LYS B   4     -11.917   7.635  13.435  1.00 32.65 LIG-0.35  N 
ATOM     40  C   THR B   3     -11.656   8.937  13.421  1.00 34.58 LIG 0.24  C 
ATOM     41 O    THR B   3     -12.532   9.781  13.317  1.00 36.58 LIG-0.27  OA
ATOM     42 H    LYS B   4     -11.312   7.024  13.432  1.00 32.65 LIG 0.16  HD
BRANCH 40 43
ATOM     43  CA  THR B   3     -10.195   9.349  13.511  1.00 32.52 LIG 0.20  C 
BRANCH 43 44
ATOM     44  CB  THR B   3      -9.711   9.153  14.936  1.00 35.15 LIG 0.15  C 
ATOM     45  CG2 THR B   3      -9.187  10.458  15.495  1.00 35.84 LIG 0.04  C 
BRANCH 44 46
ATOM     46 OG1  THR B   3     -10.804   8.684  15.733  1.00 37.78 LIG-0.39  OA
ATOM     47 HG1  THR B   3     -10.683   7.876  15.928  1.00 37.78 LIG 0.21  HD
ENDBRANCH 44 46
ENDBRANCH 43 44
BRANCH 43 48
ATOM     48  N   THR B   3     -10.054  10.731  13.072  1.00 36.19 LIG-0.34  N 
ATOM     49  C   ARG B   2      -9.097  11.096  12.232  1.00 33.52 LIG 0.24  C 
ATOM     50 O    ARG B   2      -8.194  10.357  11.892  1.00 34.90 LIG-0.27  OA
ATOM     51 H    THR B   3     -10.637  11.270  13.402  1.00 36.19 LIG 0.16  HD
BRANCH 49 52
ATOM     52  CA  ARG B   2      -9.182  12.499  11.668  1.00 37.04 LIG 0.18  C 
BRANCH 52 53
ATOM     53  CB  ARG B   2     -10.020  12.433  10.405  1.00 37.98 LIG 0.04  C 
BRANCH 53 54
ATOM     54  CG  ARG B   2     -10.567  13.763   9.942  1.00 44.54 LIG 0.02  C 
BRANCH 54 55
ATOM     55  CD  ARG B   2     -11.729  13.465   9.043  1.00 45.57 LIG 0.14  C 
BRANCH 55 56
ATOM     56  NE  ARG B   2     -11.240  13.213   7.698  1.00 45.97 LIG-0.23  N 
ATOM     57  CZ  ARG B   2     -11.698  12.259   6.900  1.00 44.90 LIG 0.67  C 
ATOM     58  NH1 ARG B   2     -12.661  11.434   7.308  1.00 46.97 LIG-0.23  N 
ATOM     59  NH2 ARG B   2     -11.171  12.122   5.699  1.00 41.82 LIG-0.23  N 
ATOM     60 2HH1 ARG B   2     -12.951  10.818   6.782  1.00 46.97 LIG 0.17  HD
ATOM     61 1HH1 ARG B   2     -12.992  11.516   8.098  1.00 46.97 LIG 0.17  HD
ATOM     62 2HH2 ARG B   2     -11.458  11.508   5.171  1.00 41.82 LIG 0.17  HD
ATOM     63 1HH2 ARG B   2     -10.539  12.647   5.445  1.00 41.82 LIG 0.17  HD
ATOM     64 HE   ARG B   2     -10.610  13.717   7.400  1.00 45.97 LIG 0.18  HD
ENDBRANCH 55 56
ENDBRANCH 54 55
ENDBRANCH 53 54
ENDBRANCH 52 53
BRANCH 52 65
ATOM     65  N   ARG B   2      -7.846  12.999  11.385  1.00 35.35 LIG-0.35  N 
ATOM     66 H    ARG B   2      -7.678  13.125  10.551  1.00 35.35 LIG 0.16  HD
ATOM     67  C   ALA B   1      -6.984  13.228  12.362  1.00 38.28 LIG 0.25  C 
ATOM     68 O    ALA B   1      -7.287  13.108  13.548  1.00 39.08 LIG-0.27  OA
BRANCH 67 69
ATOM     69  CA  ALA B   1      -5.586  13.681  11.961  1.00 38.95 LIG 0.27  C 
ATOM     70  CB  ALA B   1      -4.647  12.493  11.820  1.00 37.91 LIG 0.05  C 
BRANCH 69 71
ATOM     71  N   ALA B   1      -5.063  14.628  12.944  1.00 44.33 LIG-0.07  N 
ATOM     72 H1   ALA B   1      -4.224  14.841  12.734  1.00 44.33 LIG 0.28  HD
ATOM     73 H2   ALA B   1      -5.564  15.363  12.944  1.00 44.33 LIG 0.28  HD
ATOM     74 H3   ALA B   1      -5.081  14.257  13.753  1.00 44.33 LIG 0.28  HD
ENDBRANCH 69 71
ENDBRANCH 67 69
ENDBRANCH 52 65
ENDBRANCH 49 52
ENDBRANCH 43 48
ENDBRANCH 40 43
ENDBRANCH 1 39
TORSDOF 30
ENDMDL
MODEL 5
USER: ADFR SOLUTION from run 114
USER: SCORE 19.842769 LL:  -5.197 LR: -17.820 RR:   0.000 FEB:  -8.871
USER: RMSD 2.868548
USER: SEED 113
USER: STATUS 1 or 2 clusters left
USER: GENES 32
USER: genes 0 Translation |==|  0.42607 0.37085 0.48947
USER: genes 1 Rotation |==|  0.51417 0.54386 0.46557 0.99668
USER: genes 2 Torsion [N]-CA--C-[N] |==|  0.87428
USER: genes 3 Torsion [C]-N--CA-[CB] |==|  0.37671
USER: genes 4 Torsion [N]-CA--CB-[CG] |==|  0.63895
USER: genes 5 Torsion [CA]-CB--CG-[CD] |==|  0.52360
USER: genes 6 Torsion [CB]-CG--CD-[OE1] |==|  0.97441
USER: genes 7 Torsion [N]-CA--C-[N] |==|  0.14122
USER: genes 8 Torsion [C]-N--CA-[CB] |==|  0.45087
USER: genes 9 Torsion [N]-CA--C-[N] |==|  0.89779
USER: genes 10 Torsion [C]-N--CA-[CB] |==|  0.85211
USER: genes 11 Torsion [N]-CA--C-[O] |==|  0.97606
USER: genes 12 Torsion [N]-CA--CB-[CG2] |==|  0.71408
USER: genes 13 Torsion [CA]-CB--OG1-[HG1] |==|  0.74551
USER: genes 14 Torsion [C]-CA--CB-[CG] |==|  0.49113
USER: genes 15 Torsion [CA]-CB--CG-[CD] |==|  0.77576
USER: genes 16 Torsion [CB]-CG--CD-[CE] |==|  0.74125
USER: genes 17 Torsion [CG]-CD--CE-[NZ] |==|  0.77980
USER: genes 18 Torsion [CD]-CE--NZ-[HZ2] |==|  0.18232
USER: genes 19 Torsion [C]-CA--N-[C] |==|  0.85000
USER: genes 20 Torsion [N]-C--CA-[N] |==|  0.44493
USER: genes 21 Torsion [C]-CA--CB-[CG2] |==|  0.64776
USER: genes 22 Torsion [CA]-CB--OG1-[HG1] |==|  0.32785
USER: genes 23 Torsion [C]-CA--N-[C] |==|  0.61970
USER: genes 24 Torsion [N]-C--CA-[N] |==|  0.42024
USER: genes 25 Torsion [C]-CA--CB-[CG] |==|  0.44737
USER: genes 26 Torsion [CA]-CB--CG-[CD] |==|  0.55650
USER: genes 27 Torsion [CB]-CG--CD-[NE] |==|  0.76538
USER: genes 28 Torsion [CG]-CD--NE-[HE] |==|  0.87859
USER: genes 29 Torsion [C]-CA--N-[C] |==|  0.80345
USER: genes 30 Torsion [N]-C--CA-[N] |==|  0.41539
USER: genes 31 Torsion [C]-CA--N-[H2] |==|  0.82097
ROOT
ATOM      1  CA  LYS B   4     -13.474   7.270  13.433  1.00 37.28 LIG 0.18  C 
ENDROOT
BRANCH 1 2
ATOM      2  C   LYS B   4     -14.163   7.850  14.648  1.00 39.57 LIG 0.24  C 
ATOM      3 O    LYS B   4     -15.299   8.323  14.577  1.00 42.15 LIG-0.27  OA
ATOM      4  N   GLN B   5     -13.472   7.805  15.774  1.00 37.54 LIG-0.35  N 
ATOM      5 H    GLN B   5     -12.669   7.505  15.847  1.00 37.54 LIG 0.16  HD
BRANCH 4 6
ATOM      6  CA  GLN B   5     -14.067   8.285  17.003  1.00 44.43 LIG 0.18  C 
BRANCH 6 7
ATOM      7  CB  GLN B   5     -13.796   7.324  18.147  1.00 42.91 LIG 0.04  C 
BRANCH 7 8
ATOM      8  CG  GLN B   5     -15.044   6.983  18.886  1.00 46.61 LIG 0.10  C 
BRANCH 8 9
ATOM      9  CD  GLN B   5     -14.755   6.209  20.123  1.00 50.89 LIG 0.21  C 
ATOM     10  NE2 GLN B   5     -15.787   6.012  20.946  1.00 54.67 LIG-0.37  N 
ATOM     11 21HE GLN B   5     -16.560   6.331  20.749  1.00 54.67 LIG 0.16  HD
ATOM     12 22HE GLN B   5     -15.678   5.566  21.673  1.00 54.67 LIG 0.16  HD
ATOM     13 OE1  GLN B   5     -13.615   5.773  20.352  1.00 48.99 LIG-0.27  OA
ENDBRANCH 8 9
ENDBRANCH 7 8
ENDBRANCH 6 7
BRANCH 6 14
ATOM     14  C   GLN B   5     -13.588   9.693  17.341  1.00 45.34 LIG 0.24  C 
ATOM     15 O    GLN B   5     -13.170   9.955  18.465  1.00 47.84 LIG-0.27  OA
ATOM     16  N   THR B   6     -13.676  10.607  16.382  1.00 44.99 LIG-0.34  N 
ATOM     17 H    THR B   6     -14.010  10.468  15.602  1.00 44.99 LIG 0.16  HD
BRANCH 16 18
ATOM     18  CA  THR B   6     -13.189  11.959  16.615  1.00 47.63 LIG 0.20  C 
BRANCH 18 19
ATOM     19  C   THR B   6     -14.087  12.738  17.577  1.00 49.11 LIG 0.24  C 
ATOM     20 O    THR B   6     -13.598  13.504  18.405  1.00 51.64 LIG-0.27  OA
ATOM     21  N   ALA B   7     -15.394  12.521  17.484  1.00 46.55 LIG-0.35  N 
ATOM     22 H    ALA B   7     -15.754  12.012  16.891  1.00 46.55 LIG 0.16  HD
BRANCH 21 23
ATOM     23  CA  ALA B   7     -16.342  13.145  18.400  1.00 49.58 LIG 0.16  C 
ATOM     24  CB  ALA B   7     -15.945  12.869  19.866  1.00 45.32 LIG 0.04  C 
BRANCH 23 25
ATOM     25  C   ALA B   7     -16.432  14.651  18.127  1.00 53.19 LIG 0.22  C 
ATOM     26 O    ALA B   7     -15.638  15.200  17.339  1.00 57.48 LIG-0.29  OA
ENDBRANCH 23 25
ENDBRANCH 21 23
ENDBRANCH 18 19
BRANCH 18 27
ATOM     27  CB  THR B   6     -12.970  12.736  15.294  1.00 48.13 LIG 0.15  C 
ATOM     28  CG2 THR B   6     -11.490  12.791  14.957  1.00 44.70 LIG 0.04  C 
BRANCH 27 29
ATOM     29 OG1  THR B   6     -13.696  12.110  14.223  1.00 42.78 LIG-0.39  OA
ATOM     30 HG1  THR B   6     -13.201  11.552  13.837  1.00 42.78 LIG 0.21  HD
ENDBRANCH 27 29
ENDBRANCH 18 27
ENDBRANCH 16 18
ENDBRANCH 6 14
ENDBRANCH 4 6
ENDBRANCH 1 2
BRANCH 1 31
ATOM     31  CB  LYS B   4     -13.532   5.743  13.528  1.00 35.55 LIG 0.04  C 
BRANCH 31 32
ATOM     32  CG  LYS B   4     -12.957   5.041  12.362  1.00 39.70 LIG 0.00  C 
BRANCH 32 33
ATOM     33  CD  LYS B   4     -13.958   5.006  11.235  1.00 40.13 LIG 0.03  C 
BRANCH 33 34
ATOM     34  CE  LYS B   4     -14.760   3.733  11.287  1.00 42.33 LIG 0.23  C 
BRANCH 34 35
ATOM     35  NZ  LYS B   4     -14.010   2.593  10.723  1.00 43.53 LIG-0.08  N 
ATOM     36 HZ3  LYS B   4     -14.537   1.877  10.693  1.00 43.53 LIG 0.27  HD
ATOM     37 HZ1  LYS B   4     -13.736   2.795   9.900  1.00 43.53 LIG 0.27  HD
ATOM     38 HZ2  LYS B   4     -13.303   2.419  11.235  1.00 43.53 LIG 0.27  HD
ENDBRANCH 34 35
ENDBRANCH 33 34
ENDBRANCH 32 33
ENDBRANCH 31 32
ENDBRANCH 1 31
BRANCH 1 39
ATOM     39  N   LYS B   4     -12.097   7.738  13.377  1.00 32.65 LIG-0.35  N 
ATOM     40  C   THR B   3     -11.796   9.032  13.412  1.00 34.58 LIG 0.24  C 
ATOM     41 O    THR B   3     -12.650   9.904  13.384  1.00 36.58 LIG-0.27  OA
ATOM     42 H    LYS B   4     -11.511   7.111  13.320  1.00 32.65 LIG 0.16  HD
BRANCH 40 43
ATOM     43  CA  THR B   3     -10.321   9.397  13.460  1.00 32.52 LIG 0.20  C 
BRANCH 43 44
ATOM     44  CB  THR B   3      -9.799   9.172  14.867  1.00 35.15 LIG 0.15  C 
ATOM     45  CG2 THR B   3      -9.120  10.424  15.379  1.00 35.84 LIG 0.04  C 
BRANCH 44 46
ATOM     46 OG1  THR B   3     -10.899   8.832  15.717  1.00 37.78 LIG-0.39  OA
ATOM     47 HG1  THR B   3     -10.785   8.060  16.028  1.00 37.78 LIG 0.21  HD
ENDBRANCH 44 46
ENDBRANCH 43 44
BRANCH 43 48
ATOM     48  N   THR B   3     -10.150  10.777  13.027  1.00 36.19 LIG-0.34  N 
ATOM     49  C   ARG B   2      -9.171  11.128  12.206  1.00 33.52 LIG 0.24  C 
ATOM     50 O    ARG B   2      -8.275  10.376  11.881  1.00 34.90 LIG-0.27  OA
ATOM     51 H    THR B   3     -10.730  11.325  13.348  1.00 36.19 LIG 0.16  HD
BRANCH 49 52
ATOM     52  CA  ARG B   2      -9.224  12.535  11.645  1.00 37.04 LIG 0.18  C 
BRANCH 52 53
ATOM     53  CB  ARG B   2     -10.060  12.490  10.380  1.00 37.98 LIG 0.04  C 
BRANCH 53 54
ATOM     54  CG  ARG B   2     -10.596  13.829   9.932  1.00 44.54 LIG 0.02  C 
BRANCH 54 55
ATOM     55  CD  ARG B   2     -11.758  13.551   9.026  1.00 45.57 LIG 0.14  C 
BRANCH 55 56
ATOM     56  NE  ARG B   2     -11.266  13.310   7.680  1.00 45.97 LIG-0.23  N 
ATOM     57  CZ  ARG B   2     -11.696  12.338   6.887  1.00 44.90 LIG 0.67  C 
ATOM     58  NH1 ARG B   2     -12.628  11.483   7.303  1.00 46.97 LIG-0.23  N 
ATOM     59  NH2 ARG B   2     -11.169  12.214   5.685  1.00 41.82 LIG-0.23  N 
ATOM     60 2HH1 ARG B   2     -12.900  10.856   6.780  1.00 46.97 LIG 0.17  HD
ATOM     61 1HH1 ARG B   2     -12.959  11.558   8.094  1.00 46.97 LIG 0.17  HD
ATOM     62 2HH2 ARG B   2     -11.438  11.588   5.161  1.00 41.82 LIG 0.17  HD
ATOM     63 1HH2 ARG B   2     -10.556  12.759   5.426  1.00 41.82 LIG 0.17  HD
ATOM     64 HE   ARG B   2     -10.654  13.833   7.378  1.00 45.97 LIG 0.18  HD
ENDBRANCH 55 56
ENDBRANCH 54 55
ENDBRANCH 53 54
ENDBRANCH 52 53
BRANCH 52 65
ATOM     65  N   ARG B   2      -7.876  13.004  11.365  1.00 35.35 LIG-0.35  N 
ATOM     66 H    ARG B   2      -7.684  13.071  10.530  1.00 35.35 LIG 0.16  HD
ATOM     67  C   ALA B   1      -7.040  13.297  12.349  1.00 38.28 LIG 0.25  C 
ATOM     68 O    ALA B   1      -7.377  13.263  13.531  1.00 39.08 LIG-0.27  OA
BRANCH 67 69
ATOM     69  CA  ALA B   1      -5.628  13.712  11.956  1.00 38.95 LIG 0.27  C 
ATOM     70  CB  ALA B   1      -4.721  12.499  11.819  1.00 37.91 LIG 0.05  C 
BRANCH 69 71
ATOM     71  N   ALA B   1      -5.085  14.643  12.943  1.00 44.33 LIG-0.07  N 
ATOM     72 H1   ALA B   1      -4.238  14.830  12.741  1.00 44.33 LIG 0.28  HD
ATOM     73 H2   ALA B   1      -5.563  15.394  12.938  1.00 44.33 LIG 0.28  HD
ATOM     74 H3   ALA B   1      -5.122  14.274  13.752  1.00 44.33 LIG 0.28  HD
ENDBRANCH 69 71
ENDBRANCH 67 69
ENDBRANCH 52 65
ENDBRANCH 49 52
ENDBRANCH 43 48
ENDBRANCH 40 43
ENDBRANCH 1 39
TORSDOF 30
ENDMDL
MODEL 6
USER: ADFR SOLUTION from run 61
USER: SCORE 21.514634 LL:  -5.553 LR: -17.785 RR:   0.000 FEB:  -8.836
USER: RMSD 2.542731
USER: SEED 60
USER: STATUS 1 or 2 clusters left
USER: GENES 32
USER: genes 0 Translation |==|  0.43582 0.36879 0.48546
USER: genes 1 Rotation |==|  0.51931 0.52302 0.47723 0.99858
USER: genes 2 Torsion [N]-CA--C-[N] |==|  0.90259
USER: genes 3 Torsion [C]-N--CA-[CB] |==|  0.49792
USER: genes 4 Torsion [N]-CA--CB-[CG] |==|  0.54700
USER: genes 5 Torsion [CA]-CB--CG-[CD] |==|  0.18376
USER: genes 6 Torsion [CB]-CG--CD-[OE1] |==|  0.16119
USER: genes 7 Torsion [N]-CA--C-[N] |==|  0.78685
USER: genes 8 Torsion [C]-N--CA-[CB] |==|  0.21388
USER: genes 9 Torsion [N]-CA--C-[N] |==|  0.01033
USER: genes 10 Torsion [C]-N--CA-[CB] |==|  0.42995
USER: genes 11 Torsion [N]-CA--C-[O] |==|  0.94556
USER: genes 12 Torsion [N]-CA--CB-[CG2] |==|  0.70177
USER: genes 13 Torsion [CA]-CB--OG1-[HG1] |==|  0.84546
USER: genes 14 Torsion [C]-CA--CB-[CG] |==|  0.45042
USER: genes 15 Torsion [CA]-CB--CG-[CD] |==|  0.77624
USER: genes 16 Torsion [CB]-CG--CD-[CE] |==|  0.55180
USER: genes 17 Torsion [CG]-CD--CE-[NZ] |==|  0.13764
USER: genes 18 Torsion [CD]-CE--NZ-[HZ2] |==|  0.71077
USER: genes 19 Torsion [C]-CA--N-[C] |==|  0.83755
USER: genes 20 Torsion [N]-C--CA-[N] |==|  0.44716
USER: genes 21 Torsion [C]-CA--CB-[CG2] |==|  0.89039
USER: genes 22 Torsion [CA]-CB--OG1-[HG1] |==|  0.70067
USER: genes 23 Torsion [C]-CA--N-[C] |==|  0.64623
USER: genes 24 Torsion [N]-C--CA-[N] |==|  0.40999
USER: genes 25 Torsion [C]-CA--CB-[CG] |==|  0.45709
USER: genes 26 Torsion [CA]-CB--CG-[CD] |==|  0.55914
USER: genes 27 Torsion [CB]-CG--CD-[NE] |==|  0.76569
USER: genes 28 Torsion [CG]-CD--NE-[HE] |==|  0.88596
USER: genes 29 Torsion [C]-CA--N-[C] |==|  0.83037
USER: genes 30 Torsion [N]-C--CA-[N] |==|  0.39139
USER: genes 31 Torsion [C]-CA--N-[H2] |==|  0.82389
ROOT
ATOM      1  CA  LYS B   4     -13.269   7.227  13.334  1.00 37.28 LIG 0.18  C 
ENDROOT
BRANCH 1 2
ATOM      2  C   LYS B   4     -14.084   7.753  14.494  1.00 39.57 LIG 0.24  C 
ATOM      3 O    LYS B   4     -15.285   8.005  14.373  1.00 42.15 LIG-0.27  OA
ATOM      4  N   GLN B   5     -13.427   7.910  15.630  1.00 37.54 LIG-0.35  N 
ATOM      5 H    GLN B   5     -12.586   7.767  15.736  1.00 37.54 LIG 0.16  HD
BRANCH 4 6
ATOM      6  CA  GLN B   5     -14.132   8.355  16.813  1.00 44.43 LIG 0.18  C 
BRANCH 6 7
ATOM      7  CB  GLN B   5     -13.192   8.450  18.001  1.00 42.91 LIG 0.04  C 
BRANCH 7 8
ATOM      8  CG  GLN B   5     -13.937   8.506  19.290  1.00 46.61 LIG 0.10  C 
BRANCH 8 9
ATOM      9  CD  GLN B   5     -14.662   7.236  19.560  1.00 50.89 LIG 0.21  C 
ATOM     10  NE2 GLN B   5     -15.984   7.337  19.716  1.00 54.67 LIG-0.37  N 
ATOM     11 21HE GLN B   5     -16.365   8.106  19.663  1.00 54.67 LIG 0.16  HD
ATOM     12 22HE GLN B   5     -16.454   6.634  19.868  1.00 54.67 LIG 0.16  HD
ATOM     13 OE1  GLN B   5     -14.055   6.155  19.625  1.00 48.99 LIG-0.27  OA
ENDBRANCH 8 9
ENDBRANCH 7 8
ENDBRANCH 6 7
BRANCH 6 14
ATOM     14  C   GLN B   5     -14.846   9.682  16.570  1.00 45.34 LIG 0.24  C 
ATOM     15 O    GLN B   5     -16.055   9.709  16.362  1.00 47.84 LIG-0.27  OA
ATOM     16  N   THR B   6     -14.097  10.778  16.564  1.00 44.99 LIG-0.34  N 
ATOM     17 H    THR B   6     -13.242  10.787  16.656  1.00 44.99 LIG 0.16  HD
BRANCH 16 18
ATOM     18  CA  THR B   6     -14.716  12.084  16.392  1.00 47.63 LIG 0.20  C 
BRANCH 18 19
ATOM     19  C   THR B   6     -13.730  13.123  15.855  1.00 49.11 LIG 0.24  C 
ATOM     20 O    THR B   6     -14.080  14.290  15.695  1.00 51.64 LIG-0.27  OA
ATOM     21  N   ALA B   7     -12.511  12.692  15.555  1.00 46.55 LIG-0.35  N 
ATOM     22 H    ALA B   7     -12.241  11.886  15.689  1.00 46.55 LIG 0.16  HD
BRANCH 21 23
ATOM     23  CA  ALA B   7     -11.511  13.572  14.962  1.00 49.58 LIG 0.16  C 
ATOM     24  CB  ALA B   7     -10.085  13.073  15.284  1.00 45.32 LIG 0.04  C 
BRANCH 23 25
ATOM     25  C   ALA B   7     -11.728  13.679  13.448  1.00 53.19 LIG 0.22  C 
ATOM     26 O    ALA B   7     -12.393  12.817  12.842  1.00 57.48 LIG-0.29  OA
ENDBRANCH 23 25
ENDBRANCH 21 23
ENDBRANCH 18 19
BRANCH 18 27
ATOM     27  CB  THR B   6     -15.405  12.578  17.687  1.00 48.13 LIG 0.15  C 
ATOM     28  CG2 THR B   6     -16.915  12.503  17.539  1.00 44.70 LIG 0.04  C 
BRANCH 27 29
ATOM     29 OG1  THR B   6     -14.981  11.787  18.810  1.00 42.78 LIG-0.39  OA
ATOM     30 HG1  THR B   6     -15.132  10.976  18.654  1.00 42.78 LIG 0.21  HD
ENDBRANCH 27 29
ENDBRANCH 18 27
ENDBRANCH 16 18
ENDBRANCH 6 14
ENDBRANCH 4 6
ENDBRANCH 1 2
BRANCH 1 31
ATOM     31  CB  LYS B   4     -13.268   5.697  13.397  1.00 35.55 LIG 0.04  C 
BRANCH 31 32
ATOM     32  CG  LYS B   4     -12.879   5.038  12.134  1.00 39.70 LIG 0.00  C 
BRANCH 32 33
ATOM     33  CD  LYS B   4     -14.054   4.998  11.189  1.00 40.13 LIG 0.03  C 
BRANCH 33 34
ATOM     34  CE  LYS B   4     -13.831   3.963  10.120  1.00 42.33 LIG 0.23  C 
BRANCH 34 35
ATOM     35  NZ  LYS B   4     -13.421   2.666  10.694  1.00 43.53 LIG-0.08  N 
ATOM     36 HZ3  LYS B   4     -13.598   2.658  11.566  1.00 43.53 LIG 0.27  HD
ATOM     37 HZ1  LYS B   4     -13.869   2.009  10.294  1.00 43.53 LIG 0.27  HD
ATOM     38 HZ2  LYS B   4     -12.548   2.548  10.568  1.00 43.53 LIG 0.27  HD
ENDBRANCH 34 35
ENDBRANCH 33 34
ENDBRANCH 32 33
ENDBRANCH 31 32
ENDBRANCH 1 31
BRANCH 1 39
ATOM     39  N   LYS B   4     -11.914   7.753  13.405  1.00 32.65 LIG-0.35  N 
ATOM     40  C   THR B   3     -11.670   9.059  13.399  1.00 34.58 LIG 0.24  C 
ATOM     41 O    THR B   3     -12.548   9.889  13.227  1.00 36.58 LIG-0.27  OA
ATOM     42 H    LYS B   4     -11.301   7.151  13.450  1.00 32.65 LIG 0.16  HD
BRANCH 40 43
ATOM     43  CA  THR B   3     -10.225   9.492  13.590  1.00 32.52 LIG 0.20  C 
BRANCH 43 44
ATOM     44  CB  THR B   3      -9.852   9.346  15.054  1.00 35.15 LIG 0.15  C 
ATOM     45  CG2 THR B   3     -11.006   9.775  15.933  1.00 35.84 LIG 0.04  C 
BRANCH 44 46
ATOM     46 OG1  THR B   3      -9.526   7.976  15.311  1.00 37.78 LIG-0.39  OA
ATOM     47 HG1  THR B   3     -10.139   7.622  15.763  1.00 37.78 LIG 0.21  HD
ENDBRANCH 44 46
ENDBRANCH 43 44
BRANCH 43 48
ATOM     48  N   THR B   3     -10.064  10.861  13.119  1.00 36.19 LIG-0.34  N 
ATOM     49  C   ARG B   2      -9.124  11.185  12.244  1.00 33.52 LIG 0.24  C 
ATOM     50 O    ARG B   2      -8.249  10.418  11.894  1.00 34.90 LIG-0.27  OA
ATOM     51 H    THR B   3     -10.624  11.421  13.454  1.00 36.19 LIG 0.16  HD
BRANCH 49 52
ATOM     52  CA  ARG B   2      -9.192  12.579  11.654  1.00 37.04 LIG 0.18  C 
BRANCH 52 53
ATOM     53  CB  ARG B   2     -10.013  12.496  10.382  1.00 37.98 LIG 0.04  C 
BRANCH 53 54
ATOM     54  CG  ARG B   2     -10.495  13.827   9.855  1.00 44.54 LIG 0.02  C 
BRANCH 54 55
ATOM     55  CD  ARG B   2     -11.669  13.543   8.966  1.00 45.57 LIG 0.14  C 
BRANCH 55 56
ATOM     56  NE  ARG B   2     -11.189  13.202   7.638  1.00 45.97 LIG-0.23  N 
ATOM     57  CZ  ARG B   2     -11.694  12.234   6.884  1.00 44.90 LIG 0.67  C 
ATOM     58  NH1 ARG B   2     -12.698  11.480   7.327  1.00 46.97 LIG-0.23  N 
ATOM     59  NH2 ARG B   2     -11.171  12.012   5.695  1.00 41.82 LIG-0.23  N 
ATOM     60 2HH1 ARG B   2     -13.018  10.855   6.830  1.00 46.97 LIG 0.17  HD
ATOM     61 1HH1 ARG B   2     -13.027  11.618   8.110  1.00 46.97 LIG 0.17  HD
ATOM     62 2HH2 ARG B   2     -11.488  11.388   5.196  1.00 41.82 LIG 0.17  HD
ATOM     63 1HH2 ARG B   2     -10.513  12.491   5.418  1.00 41.82 LIG 0.17  HD
ATOM     64 HE   ARG B   2     -10.534  13.657   7.319  1.00 45.97 LIG 0.18  HD
ENDBRANCH 55 56
ENDBRANCH 54 55
ENDBRANCH 53 54
ENDBRANCH 52 53
BRANCH 52 65
ATOM     65  N   ARG B   2      -7.849  13.065  11.381  1.00 35.35 LIG-0.35  N 
ATOM     66 H    ARG B   2      -7.692  13.242  10.554  1.00 35.35 LIG 0.16  HD
ATOM     67  C   ALA B   1      -6.966  13.210  12.356  1.00 38.28 LIG 0.25  C 
ATOM     68 O    ALA B   1      -7.253  13.020  13.536  1.00 39.08 LIG-0.27  OA
BRANCH 67 69
ATOM     69  CA  ALA B   1      -5.564  13.656  11.961  1.00 38.95 LIG 0.27  C 
ATOM     70  CB  ALA B   1      -4.630  12.464  11.825  1.00 37.91 LIG 0.05  C 
BRANCH 69 71
ATOM     71  N   ALA B   1      -5.041  14.602  12.944  1.00 44.33 LIG-0.07  N 
ATOM     72 H1   ALA B   1      -4.205  14.820  12.732  1.00 44.33 LIG 0.28  HD
ATOM     73 H2   ALA B   1      -5.546  15.336  12.948  1.00 44.33 LIG 0.28  HD
ATOM     74 H3   ALA B   1      -5.054  14.229  13.752  1.00 44.33 LIG 0.28  HD
ENDBRANCH 69 71
ENDBRANCH 67 69
ENDBRANCH 52 65
ENDBRANCH 49 52
ENDBRANCH 43 48
ENDBRANCH 40 43
ENDBRANCH 1 39
TORSDOF 30
ENDMDL
MODEL 7
USER: ADFR SOLUTION from run 149
USER: SCORE 19.789807 LL:  -5.273 LR: -17.300 RR:   0.000 FEB:  -8.351
USER: RMSD 3.137439
USER: SEED 148
USER: STATUS no improvement in best in 3 clusters for 5 generations
USER: GENES 32
USER: genes 0 Translation |==|  0.43694 0.35290 0.48057
USER: genes 1 Rotation |==|  0.50712 0.50535 0.48789 0.99977
USER: genes 2 Torsion [N]-CA--C-[N] |==|  0.88338
USER: genes 3 Torsion [C]-N--CA-[CB] |==|  0.46111
USER: genes 4 Torsion [N]-CA--CB-[CG] |==|  0.58056
USER: genes 5 Torsion [CA]-CB--CG-[CD] |==|  0.07680
USER: genes 6 Torsion [CB]-CG--CD-[OE1] |==|  0.16611
USER: genes 7 Torsion [N]-CA--C-[N] |==|  0.28334
USER: genes 8 Torsion [C]-N--CA-[CB] |==|  0.40088
USER: genes 9 Torsion [N]-CA--C-[N] |==|  0.94822
USER: genes 10 Torsion [C]-N--CA-[CB] |==|  0.35560
USER: genes 11 Torsion [N]-CA--C-[O] |==|  0.80989
USER: genes 12 Torsion [N]-CA--CB-[CG2] |==|  0.88074
USER: genes 13 Torsion [CA]-CB--OG1-[HG1] |==|  0.90092
USER: genes 14 Torsion [C]-CA--CB-[CG] |==|  0.32836
USER: genes 15 Torsion [CA]-CB--CG-[CD] |==|  0.68552
USER: genes 16 Torsion [CB]-CG--CD-[CE] |==|  0.65421
USER: genes 17 Torsion [CG]-CD--CE-[NZ] |==|  0.89603
USER: genes 18 Torsion [CD]-CE--NZ-[HZ2] |==|  0.54791
USER: genes 19 Torsion [C]-CA--N-[C] |==|  0.85299
USER: genes 20 Torsion [N]-C--CA-[N] |==|  0.44314
USER: genes 21 Torsion [C]-CA--CB-[CG2] |==|  0.64269
USER: genes 22 Torsion [CA]-CB--OG1-[HG1] |==|  0.27488
USER: genes 23 Torsion [C]-CA--N-[C] |==|  0.63873
USER: genes 24 Torsion [N]-C--CA-[N] |==|  0.43332
USER: genes 25 Torsion [C]-CA--CB-[CG] |==|  0.49402
USER: genes 26 Torsion [CA]-CB--CG-[CD] |==|  0.54640
USER: genes 27 Torsion [CB]-CG--CD-[NE] |==|  0.73685
USER: genes 28 Torsion [CG]-CD--NE-[HE] |==|  0.87891
USER: genes 29 Torsion [C]-CA--N-[C] |==|  0.80824
USER: genes 30 Torsion [N]-C--CA-[N] |==|  0.41036
USER: genes 31 Torsion [C]-CA--N-[H2] |==|  0.82089
ROOT
ATOM      1  CA  LYS B   4     -13.245   6.893  13.213  1.00 37.28 LIG 0.18  C 
ENDROOT
BRANCH 1 2
ATOM      2  C   LYS B   4     -14.162   7.438  14.285  1.00 39.57 LIG 0.24  C 
ATOM      3 O    LYS B   4     -15.328   7.750  14.036  1.00 42.15 LIG-0.27  OA
ATOM      4  N   GLN B   5     -13.631   7.546  15.491  1.00 37.54 LIG-0.35  N 
ATOM      5 H    GLN B   5     -12.814   7.360  15.688  1.00 37.54 LIG 0.16  HD
BRANCH 4 6
ATOM      6  CA  GLN B   5     -14.444   8.005  16.597  1.00 44.43 LIG 0.18  C 
BRANCH 6 7
ATOM      7  CB  GLN B   5     -13.759   7.731  17.923  1.00 42.91 LIG 0.04  C 
BRANCH 7 8
ATOM      8  CG  GLN B   5     -14.745   7.526  19.021  1.00 46.61 LIG 0.10  C 
BRANCH 8 9
ATOM      9  CD  GLN B   5     -16.034   6.991  18.507  1.00 50.89 LIG 0.21  C 
ATOM     10  NE2 GLN B   5     -17.111   7.748  18.725  1.00 54.67 LIG-0.37  N 
ATOM     11 21HE GLN B   5     -17.035   8.494  19.146  1.00 54.67 LIG 0.16  HD
ATOM     12 22HE GLN B   5     -17.882   7.491  18.445  1.00 54.67 LIG 0.16  HD
ATOM     13 OE1  GLN B   5     -16.081   5.906  17.906  1.00 48.99 LIG-0.27  OA
ENDBRANCH 8 9
ENDBRANCH 7 8
ENDBRANCH 6 7
BRANCH 6 14
ATOM     14  C   GLN B   5     -14.796   9.482  16.453  1.00 45.34 LIG 0.24  C 
ATOM     15 O    GLN B   5     -13.982  10.349  16.756  1.00 47.84 LIG-0.27  OA
ATOM     16  N   THR B   6     -16.019   9.771  16.022  1.00 44.99 LIG-0.34  N 
ATOM     17 H    THR B   6     -16.628   9.189  15.850  1.00 44.99 LIG 0.16  HD
BRANCH 16 18
ATOM     18  CA  THR B   6     -16.409  11.158  15.810  1.00 47.63 LIG 0.20  C 
BRANCH 18 19
ATOM     19  C   THR B   6     -17.007  11.788  17.069  1.00 49.11 LIG 0.24  C 
ATOM     20 O    THR B   6     -17.052  13.009  17.194  1.00 51.64 LIG-0.27  OA
ATOM     21  N   ALA B   7     -17.440  10.954  18.007  1.00 46.55 LIG-0.35  N 
ATOM     22 H    ALA B   7     -17.444  10.098  17.923  1.00 46.55 LIG 0.16  HD
BRANCH 21 23
ATOM     23  CA  ALA B   7     -17.957  11.437  19.283  1.00 49.58 LIG 0.16  C 
ATOM     24  CB  ALA B   7     -19.344  10.826  19.576  1.00 45.32 LIG 0.04  C 
BRANCH 23 25
ATOM     25  C   ALA B   7     -16.966  11.122  20.410  1.00 53.19 LIG 0.22  C 
ATOM     26 O    ALA B   7     -16.765   9.945  20.765  1.00 57.48 LIG-0.29  OA
ENDBRANCH 23 25
ENDBRANCH 21 23
ENDBRANCH 18 19
BRANCH 18 27
ATOM     27  CB  THR B   6     -17.355  11.318  14.595  1.00 48.13 LIG 0.15  C 
ATOM     28  CG2 THR B   6     -16.866  10.470  13.435  1.00 44.70 LIG 0.04  C 
BRANCH 27 29
ATOM     29 OG1  THR B   6     -18.694  10.936  14.954  1.00 42.78 LIG-0.39  OA
ATOM     30 HG1  THR B   6     -18.667  10.293  15.494  1.00 42.78 LIG 0.21  HD
ENDBRANCH 27 29
ENDBRANCH 18 27
ENDBRANCH 16 18
ENDBRANCH 6 14
ENDBRANCH 4 6
ENDBRANCH 1 2
BRANCH 1 31
ATOM     31  CB  LYS B   4     -13.187   5.370  13.355  1.00 35.55 LIG 0.04  C 
BRANCH 31 32
ATOM     32  CG  LYS B   4     -13.690   4.631  12.178  1.00 39.70 LIG 0.00  C 
BRANCH 32 33
ATOM     33  CD  LYS B   4     -14.955   3.892  12.535  1.00 40.13 LIG 0.03  C 
BRANCH 33 34
ATOM     34  CE  LYS B   4     -14.809   2.426  12.225  1.00 42.33 LIG 0.23  C 
BRANCH 34 35
ATOM     35  NZ  LYS B   4     -14.037   2.205  10.986  1.00 43.53 LIG-0.08  N 
ATOM     36 HZ3  LYS B   4     -14.300   2.786  10.365  1.00 43.53 LIG 0.27  HD
ATOM     37 HZ1  LYS B   4     -13.170   2.320  11.151  1.00 43.53 LIG 0.27  HD
ATOM     38 HZ2  LYS B   4     -14.175   1.376  10.694  1.00 43.53 LIG 0.27  HD
ENDBRANCH 34 35
ENDBRANCH 33 34
ENDBRANCH 32 33
ENDBRANCH 31 32
ENDBRANCH 1 31
BRANCH 1 39
ATOM     39  N   LYS B   4     -11.921   7.481  13.350  1.00 32.65 LIG-0.35  N 
ATOM     40  C   THR B   3     -11.742   8.796  13.403  1.00 34.58 LIG 0.24  C 
ATOM     41 O    THR B   3     -12.655   9.590  13.232  1.00 36.58 LIG-0.27  OA
ATOM     42 H    LYS B   4     -11.281   6.908  13.392  1.00 32.65 LIG 0.16  HD
BRANCH 40 43
ATOM     43  CA  THR B   3     -10.328   9.291  13.659  1.00 32.52 LIG 0.20  C 
BRANCH 43 44
ATOM     44  CB  THR B   3     -10.008   9.139  15.134  1.00 35.15 LIG 0.15  C 
ATOM     45  CG2 THR B   3      -9.481  10.443  15.693  1.00 35.84 LIG 0.04  C 
BRANCH 44 46
ATOM     46 OG1  THR B   3     -11.202   8.759  15.827  1.00 37.78 LIG-0.39  OA
ATOM     47 HG1  THR B   3     -11.201   7.929  15.954  1.00 37.78 LIG 0.21  HD
ENDBRANCH 44 46
ENDBRANCH 43 44
BRANCH 43 48
ATOM     48  N   THR B   3     -10.211  10.673  13.215  1.00 36.19 LIG-0.34  N 
ATOM     49  C   ARG B   2      -9.221  11.066  12.426  1.00 33.52 LIG 0.24  C 
ATOM     50 O    ARG B   2      -8.276  10.357  12.145  1.00 34.90 LIG-0.27  OA
ATOM     51 H    THR B   3     -10.830  11.194  13.506  1.00 36.19 LIG 0.16  HD
BRANCH 49 52
ATOM     52  CA  ARG B   2      -9.324  12.461  11.844  1.00 37.04 LIG 0.18  C 
BRANCH 52 53
ATOM     53  CB  ARG B   2     -10.207  12.378  10.614  1.00 37.98 LIG 0.04  C 
BRANCH 53 54
ATOM     54  CG  ARG B   2     -10.461  13.701   9.931  1.00 44.54 LIG 0.02  C 
BRANCH 54 55
ATOM     55  CD  ARG B   2     -11.642  13.504   9.028  1.00 45.57 LIG 0.14  C 
BRANCH 55 56
ATOM     56  NE  ARG B   2     -11.171  13.185   7.690  1.00 45.97 LIG-0.23  N 
ATOM     57  CZ  ARG B   2     -11.686  12.237   6.920  1.00 44.90 LIG 0.67  C 
ATOM     58  NH1 ARG B   2     -12.693  11.481   7.353  1.00 46.97 LIG-0.23  N 
ATOM     59  NH2 ARG B   2     -11.171  12.034   5.724  1.00 41.82 LIG-0.23  N 
ATOM     60 2HH1 ARG B   2     -13.021  10.868   6.846  1.00 46.97 LIG 0.17  HD
ATOM     61 1HH1 ARG B   2     -13.017  11.605   8.141  1.00 46.97 LIG 0.17  HD
ATOM     62 2HH2 ARG B   2     -11.495  11.423   5.215  1.00 41.82 LIG 0.17  HD
ATOM     63 1HH2 ARG B   2     -10.511  12.514   5.454  1.00 41.82 LIG 0.17  HD
ATOM     64 HE   ARG B   2     -10.514  13.643   7.377  1.00 45.97 LIG 0.18  HD
ENDBRANCH 55 56
ENDBRANCH 54 55
ENDBRANCH 53 54
ENDBRANCH 52 53
BRANCH 52 65
ATOM     65  N   ARG B   2      -7.998  12.952  11.506  1.00 35.35 LIG-0.35  N 
ATOM     66 H    ARG B   2      -7.847  13.030  10.663  1.00 35.35 LIG 0.16  HD
ATOM     67  C   ALA B   1      -7.119  13.247  12.451  1.00 38.28 LIG 0.25  C 
ATOM     68 O    ALA B   1      -7.399  13.195  13.647  1.00 39.08 LIG-0.27  OA
BRANCH 67 69
ATOM     69  CA  ALA B   1      -5.733  13.685  11.996  1.00 38.95 LIG 0.27  C 
ATOM     70  CB  ALA B   1      -4.804  12.490  11.845  1.00 37.91 LIG 0.05  C 
BRANCH 69 71
ATOM     71  N   ALA B   1      -5.174  14.646  12.944  1.00 44.33 LIG-0.07  N 
ATOM     72 H1   ALA B   1      -4.340  14.848  12.706  1.00 44.33 LIG 0.28  HD
ATOM     73 H2   ALA B   1      -5.668  15.386  12.944  1.00 44.33 LIG 0.28  HD
ATOM     74 H3   ALA B   1      -5.171  14.292  13.760  1.00 44.33 LIG 0.28  HD
ENDBRANCH 69 71
ENDBRANCH 67 69
ENDBRANCH 52 65
ENDBRANCH 49 52
ENDBRANCH 43 48
ENDBRANCH 40 43
ENDBRANCH 1 39
TORSDOF 30
ENDMDL
