MODEL 1
USER: ADFR SOLUTION from run 73
USER: SCORE 20.777348 LL:  -5.073 LR: -17.047 RR:   0.000 FEB:  -8.993
USER: RMSD 4.888780
USER: SEED 72
USER: STATUS no improvement in best in 3 clusters for 5 generations
USER: GENES 29
USER: genes 0 Translation |==|  0.61523 0.48078 0.44665
USER: genes 1 Rotation |==|  0.49311 0.53284 0.48319 0.99859
USER: genes 2 Torsion [N]-CA--C-[N] |==|  0.41235
USER: genes 3 Torsion [C]-N--CA-[C] |==|  0.63485
USER: genes 4 Torsion [N]-CA--CB-[CG] |==|  0.44840
USER: genes 5 Torsion [CA]-CB--CG-[CD] |==|  0.55196
USER: genes 6 Torsion [CB]-CG--CD-[NE] |==|  0.46833
USER: genes 7 Torsion [CG]-CD--NE-[HE] |==|  0.05443
USER: genes 8 Torsion [N]-CA--C-[N] |==|  0.29690
USER: genes 9 Torsion [C]-N--CA-[CB] |==|  0.49104
USER: genes 10 Torsion [N]-CA--C-[N] |==|  0.36692
USER: genes 11 Torsion [C]-N--CA-[CB] |==|  0.27975
USER: genes 12 Torsion [N]-CA--C-[OXT] |==|  0.56001
USER: genes 13 Torsion [N]-CA--CB-[CG2] |==|  0.43310
USER: genes 14 Torsion [CA]-CB--OG1-[HG1] |==|  0.72656
USER: genes 15 Torsion [C]-CA--CB-[CG] |==|  0.45695
USER: genes 16 Torsion [CA]-CB--CG-[CD2] |==|  0.29385
USER: genes 17 Torsion [C]-CA--N-[C] |==|  0.76561
USER: genes 18 Torsion [N]-C--CA-[N] |==|  0.46754
USER: genes 19 Torsion [C]-CA--N-[C] |==|  0.55558
USER: genes 20 Torsion [N]-C--CA-[CB] |==|  0.64464
USER: genes 21 Torsion [N]-C--CA-[N] |==|  0.35020
USER: genes 22 Torsion [C]-CA--N-[H1] |==|  0.63336
USER: genes 23 Torsion [C]-CA--CB-[CG] |==|  0.77181
USER: genes 24 Torsion [CA]-CB--CG-[CD] |==|  0.28083
USER: genes 25 Torsion [CB]-CG--CD-[CE] |==|  0.61363
USER: genes 26 Torsion [CG]-CD--CE-[NZ] |==|  0.12202
USER: genes 27 Torsion [CD]-CE--NZ-[HZ1] |==|  0.42118
USER: genes 28 Torsion [C]-CA--CB-[CG1] |==|  0.86633
ROOT
ATOM      1  CA  LEU B   4      19.165  24.936  15.602  1.00 33.70 LIG 0.18  C 
ENDROOT
BRANCH 1 2
ATOM      2  C   LEU B   4      18.600  23.746  16.371  1.00 36.59 LIG 0.24  C 
ATOM      3 O    LEU B   4      18.216  23.869  17.535  1.00 35.62 LIG-0.27  OA
ATOM      4  N   ARG B   5      18.550  22.596  15.709  1.00 30.50 LIG-0.35  N 
ATOM      5 H    ARG B   5      18.754  22.516  14.878  1.00 30.50 LIG 0.16  HD
BRANCH 4 6
ATOM      6  CA  ARG B   5      18.139  21.348  16.343  1.00 32.70 LIG 0.18  C 
BRANCH 6 7
ATOM      7  CB  ARG B   5      16.731  20.938  15.896  1.00 28.13 LIG 0.04  C 
BRANCH 7 8
ATOM      8  CG  ARG B   5      16.416  19.467  16.146  1.00 29.30 LIG 0.02  C 
BRANCH 8 9
ATOM      9  CD  ARG B   5      15.245  18.967  15.318  1.00 34.57 LIG 0.14  C 
BRANCH 9 10
ATOM     10  NE  ARG B   5      15.106  17.520  15.349  1.00 41.05 LIG-0.23  N 
ATOM     11 HE   ARG B   5      15.487  17.096  15.993  1.00 41.05 LIG 0.18  HD
ATOM     12  CZ  ARG B   5      14.431  16.806  14.452  1.00 43.39 LIG 0.67  C 
ATOM     13  NH2 ARG B   5      14.373  15.485  14.567  1.00 33.00 LIG-0.23  N 
ATOM     14  NH1 ARG B   5      13.818  17.405  13.442  1.00 41.15 LIG-0.23  N 
ATOM     15 1HH2 ARG B   5      14.771  15.092  15.221  1.00 33.00 LIG 0.17  HD
ATOM     16 2HH2 ARG B   5      13.937  15.021  13.988  1.00 33.00 LIG 0.17  HD
ATOM     17 2HH1 ARG B   5      13.383  16.939  12.865  1.00 41.15 LIG 0.17  HD
ATOM     18 1HH1 ARG B   5      13.854  18.261  13.363  1.00 41.15 LIG 0.17  HD
ENDBRANCH 9 10
ENDBRANCH 8 9
ENDBRANCH 7 8
ENDBRANCH 6 7
BRANCH 6 19
ATOM     19  C   ARG B   5      19.132  20.238  16.026  1.00 32.44 LIG 0.24  C 
ATOM     20 O    ARG B   5      19.172  19.754  14.895  1.00 30.81 LIG-0.27  OA
ATOM     21  N   THR B   6      19.943  19.844  17.007  1.00 35.68 LIG-0.34  N 
ATOM     22 H    THR B   6      20.000  20.223  17.777  1.00 35.68 LIG 0.16  HD
BRANCH 21 23
ATOM     23  CA  THR B   6      20.821  18.688  16.817  1.00 34.81 LIG 0.20  C 
BRANCH 23 24
ATOM     24  C   THR B   6      19.994  17.441  16.576  1.00 33.55 LIG 0.24  C 
ATOM     25 O    THR B   6      19.043  17.170  17.309  1.00 36.63 LIG-0.27  OA
ATOM     26  N   ALA B   7      20.360  16.684  15.549  1.00 35.45 LIG-0.34  N 
ATOM     27 H    ALA B   7      21.038  16.847  15.045  1.00 35.45 LIG 0.16  HD
BRANCH 26 28
ATOM     28  CA  ALA B   7      19.615  15.486  15.193  1.00 34.62 LIG 0.18  C 
ATOM     29  CB  ALA B   7      18.695  15.767  14.011  1.00 31.37 LIG 0.04  C 
BRANCH 28 30
ATOM     30  C   ALA B   7      20.546  14.317  14.884  1.00 35.30 LIG 0.20  C 
ATOM     31 OXT  ALA B   7      20.143  13.375  14.200  1.00 33.15 LIG-0.65  OA
ATOM     32 O    ALA B   7      21.703  14.281  15.317  1.00 30.65 LIG-0.65  OA
ENDBRANCH 28 30
ENDBRANCH 26 28
ENDBRANCH 23 24
BRANCH 23 33
ATOM     33  CB  THR B   6      21.753  18.405  18.012  1.00 40.55 LIG 0.15  C 
ATOM     34  CG2 THR B   6      22.158  16.952  18.006  1.00 29.01 LIG 0.04  C 
BRANCH 33 35
ATOM     35 OG1  THR B   6      22.911  19.258  17.973  1.00 38.86 LIG-0.39  OA
ATOM     36 HG1  THR B   6      23.558  18.838  17.639  1.00 38.86 LIG 0.21  HD
ENDBRANCH 33 35
ENDBRANCH 23 33
ENDBRANCH 21 23
ENDBRANCH 6 19
ENDBRANCH 4 6
ENDBRANCH 1 2
BRANCH 1 37
ATOM     37  CB  LEU B   4      20.683  25.001  15.808  1.00 31.55 LIG 0.04  C 
BRANCH 37 38
ATOM     38  CG  LEU B   4      21.578  25.856  14.901  1.00 40.70 LIG-0.02  C 
ATOM     39  CD2 LEU B   4      22.033  27.106  15.651  1.00 33.83 LIG 0.01  C 
ATOM     40  CD1 LEU B   4      20.925  26.219  13.561  1.00 30.33 LIG 0.01  C 
ENDBRANCH 37 38
ENDBRANCH 1 37
BRANCH 1 41
ATOM     41  N   LEU B   4      18.551  26.192  16.026  1.00 32.96 LIG-0.35  N 
ATOM     42  C   VAL B   3      17.397  26.623  15.527  1.00 32.71 LIG 0.24  C 
ATOM     43 O    VAL B   3      16.727  25.975  14.721  1.00 29.46 LIG-0.27  OA
ATOM     44 H    LEU B   4      19.001  26.620  16.620  1.00 32.96 LIG 0.16  HD
BRANCH 42 45
ATOM     45  CA  VAL B   3      16.928  27.998  15.995  1.00 32.18 LIG 0.18  C 
BRANCH 45 46
ATOM     46  N   VAL B   3      15.819  28.408  15.146  1.00 27.49 LIG-0.35  N 
ATOM     47 H    VAL B   3      15.433  27.761  14.731  1.00 27.49 LIG 0.16  HD
ATOM     48  C   PRO B   2      15.454  29.679  15.036  1.00 36.99 LIG 0.24  C 
ATOM     49 O    PRO B   2      15.863  30.571  15.782  1.00 37.97 LIG-0.27  OA
BRANCH 48 50
ATOM     50  CA  PRO B   2      14.483  30.000  13.910  1.00 42.38 LIG 0.18  C 
ATOM     51  CB  PRO B   2      15.043  31.152  13.077  1.00 38.27 LIG 0.04  C 
ATOM     52  CG  PRO B   2      14.480  32.377  13.716  1.00 37.96 LIG 0.02  C 
ATOM     53  CD  PRO B   2      13.097  31.992  14.180  1.00 39.69 LIG 0.13  C 
ATOM     54  N   PRO B   2      13.207  30.536  14.394  1.00 45.78 LIG-0.34  N 
ATOM     55  C   LYS B   1      12.283  29.773  14.998  1.00 52.29 LIG 0.25  C 
ATOM     56 O    LYS B   1      12.472  28.590  15.289  1.00 54.18 LIG-0.27  OA
BRANCH 55 57
ATOM     57  CA  LYS B   1      10.955  30.442  15.322  1.00 57.44 LIG 0.28  C 
BRANCH 57 58
ATOM     58  N   LYS B   1       9.838  29.681  14.767  1.00 70.48 LIG-0.07  N 
ATOM     59 H1   LYS B   1       9.288  30.232  14.336  1.00 70.48 LIG 0.28  HD
ATOM     60 H2   LYS B   1      10.147  29.068  14.200  1.00 70.48 LIG 0.28  HD
ATOM     61 H3   LYS B   1       9.396  29.279  15.426  1.00 70.48 LIG 0.28  HD
ENDBRANCH 57 58
BRANCH 57 62
ATOM     62  CB  LYS B   1      10.789  30.617  16.831  1.00 56.26 LIG 0.04  C 
BRANCH 62 63
ATOM     63  CG  LYS B   1      10.289  29.367  17.529  1.00 62.75 LIG 0.00  C 
BRANCH 63 64
ATOM     64  CD  LYS B   1      11.422  28.629  18.212  1.00 59.03 LIG 0.03  C 
BRANCH 64 65
ATOM     65  CE  LYS B   1      11.287  27.127  18.024  1.00 61.45 LIG 0.23  C 
BRANCH 65 66
ATOM     66  NZ  LYS B   1      10.924  26.778  16.618  1.00 70.72 LIG-0.08  N 
ATOM     67 HZ1  LYS B   1      11.238  25.970  16.422  1.00 70.72 LIG 0.27  HD
ATOM     68 HZ2  LYS B   1      10.037  26.780  16.530  1.00 70.72 LIG 0.27  HD
ATOM     69 HZ3  LYS B   1      11.278  27.377  16.063  1.00 70.72 LIG 0.27  HD
ENDBRANCH 65 66
ENDBRANCH 64 65
ENDBRANCH 63 64
ENDBRANCH 62 63
ENDBRANCH 57 62
ENDBRANCH 55 57
ENDBRANCH 48 50
ENDBRANCH 45 46
BRANCH 45 70
ATOM     70  CB  VAL B   3      16.511  27.937  17.476  1.00 30.17 LIG 0.01  C 
ATOM     71  CG1 VAL B   3      15.591  26.752  17.733  1.00 32.03 LIG 0.01  C 
ATOM     72  CG2 VAL B   3      17.743  27.866  18.359  1.00 31.22 LIG 0.01  C 
ENDBRANCH 45 70
ENDBRANCH 42 45
ENDBRANCH 1 41
TORSDOF 27
ENDMDL
MODEL 2
USER: ADFR SOLUTION from run 175
USER: SCORE 21.131543 LL:  -5.715 LR: -17.040 RR:   0.000 FEB:  -8.986
USER: RMSD 3.690422
USER: SEED 174
USER: STATUS no improvement in best in 4 clusters for 5 generations
USER: GENES 29
USER: genes 0 Translation |==|  0.59401 0.48107 0.45255
USER: genes 1 Rotation |==|  0.50307 0.52525 0.49015 0.99926
USER: genes 2 Torsion [N]-CA--C-[N] |==|  0.44804
USER: genes 3 Torsion [C]-N--CA-[C] |==|  0.59552
USER: genes 4 Torsion [N]-CA--CB-[CG] |==|  0.43586
USER: genes 5 Torsion [CA]-CB--CG-[CD] |==|  0.52038
USER: genes 6 Torsion [CB]-CG--CD-[NE] |==|  0.48760
USER: genes 7 Torsion [CG]-CD--NE-[HE] |==|  0.12004
USER: genes 8 Torsion [N]-CA--C-[N] |==|  0.30488
USER: genes 9 Torsion [C]-N--CA-[CB] |==|  0.48376
USER: genes 10 Torsion [N]-CA--C-[N] |==|  0.36669
USER: genes 11 Torsion [C]-N--CA-[CB] |==|  0.30154
USER: genes 12 Torsion [N]-CA--C-[OXT] |==|  0.55994
USER: genes 13 Torsion [N]-CA--CB-[CG2] |==|  0.43173
USER: genes 14 Torsion [CA]-CB--OG1-[HG1] |==|  0.72488
USER: genes 15 Torsion [C]-CA--CB-[CG] |==|  0.43786
USER: genes 16 Torsion [CA]-CB--CG-[CD2] |==|  0.31206
USER: genes 17 Torsion [C]-CA--N-[C] |==|  0.66362
USER: genes 18 Torsion [N]-C--CA-[N] |==|  0.28044
USER: genes 19 Torsion [C]-CA--N-[C] |==|  0.76725
USER: genes 20 Torsion [N]-C--CA-[CB] |==|  0.31544
USER: genes 21 Torsion [N]-C--CA-[N] |==|  0.39758
USER: genes 22 Torsion [C]-CA--N-[H1] |==|  0.40683
USER: genes 23 Torsion [C]-CA--CB-[CG] |==|  0.98551
USER: genes 24 Torsion [CA]-CB--CG-[CD] |==|  0.61094
USER: genes 25 Torsion [CB]-CG--CD-[CE] |==|  0.90457
USER: genes 26 Torsion [CG]-CD--CE-[NZ] |==|  0.30319
USER: genes 27 Torsion [CD]-CE--NZ-[HZ1] |==|  0.70469
USER: genes 28 Torsion [C]-CA--CB-[CG1] |==|  0.15865
ROOT
ATOM      1  CA  LEU B   4      18.751  24.946  15.695  1.00 33.70 LIG 0.18  C 
ENDROOT
BRANCH 1 2
ATOM      2  C   LEU B   4      18.194  23.712  16.397  1.00 36.59 LIG 0.24  C 
ATOM      3 O    LEU B   4      17.562  23.812  17.450  1.00 35.62 LIG-0.27  OA
ATOM      4  N   ARG B   5      18.432  22.547  15.804  1.00 30.50 LIG-0.35  N 
ATOM      5 H    ARG B   5      18.815  22.473  15.038  1.00 30.50 LIG 0.16  HD
BRANCH 4 6
ATOM      6  CA  ARG B   5      18.060  21.272  16.409  1.00 32.70 LIG 0.18  C 
BRANCH 6 7
ATOM      7  CB  ARG B   5      16.663  20.833  15.957  1.00 28.13 LIG 0.04  C 
BRANCH 7 8
ATOM      8  CG  ARG B   5      16.430  19.330  16.071  1.00 29.30 LIG 0.02  C 
BRANCH 8 9
ATOM      9  CD  ARG B   5      15.113  18.891  15.456  1.00 34.57 LIG 0.14  C 
BRANCH 9 10
ATOM     10  NE  ARG B   5      14.935  17.448  15.470  1.00 41.05 LIG-0.23  N 
ATOM     11 HE   ARG B   5      15.150  17.026  16.187  1.00 41.05 LIG 0.18  HD
ATOM     12  CZ  ARG B   5      14.462  16.734  14.451  1.00 43.39 LIG 0.67  C 
ATOM     13  NH2 ARG B   5      14.346  15.417  14.564  1.00 33.00 LIG-0.23  N 
ATOM     14  NH1 ARG B   5      14.106  17.331  13.322  1.00 41.15 LIG-0.23  N 
ATOM     15 1HH2 ARG B   5      14.577  15.026  15.294  1.00 33.00 LIG 0.17  HD
ATOM     16 2HH2 ARG B   5      14.041  14.954  13.906  1.00 33.00 LIG 0.17  HD
ATOM     17 2HH1 ARG B   5      13.801  16.865  12.667  1.00 41.15 LIG 0.17  HD
ATOM     18 1HH1 ARG B   5      14.181  18.185  13.245  1.00 41.15 LIG 0.17  HD
ENDBRANCH 9 10
ENDBRANCH 8 9
ENDBRANCH 7 8
ENDBRANCH 6 7
BRANCH 6 19
ATOM     19  C   ARG B   5      19.083  20.200  16.061  1.00 32.44 LIG 0.24  C 
ATOM     20 O    ARG B   5      19.168  19.783  14.906  1.00 30.81 LIG-0.27  OA
ATOM     21  N   THR B   6      19.870  19.764  17.044  1.00 35.68 LIG-0.34  N 
ATOM     22 H    THR B   6      19.897  20.098  17.836  1.00 35.68 LIG 0.16  HD
BRANCH 21 23
ATOM     23  CA  THR B   6      20.776  18.636  16.817  1.00 34.81 LIG 0.20  C 
BRANCH 23 24
ATOM     24  C   THR B   6      19.979  17.377  16.542  1.00 33.55 LIG 0.24  C 
ATOM     25 O    THR B   6      19.039  17.060  17.271  1.00 36.63 LIG-0.27  OA
ATOM     26  N   ALA B   7      20.358  16.661  15.491  1.00 35.45 LIG-0.34  N 
ATOM     27 H    ALA B   7      21.028  16.856  14.989  1.00 35.45 LIG 0.16  HD
BRANCH 26 28
ATOM     28  CA  ALA B   7      19.640  15.456  15.102  1.00 34.62 LIG 0.18  C 
ATOM     29  CB  ALA B   7      18.857  15.698  13.817  1.00 31.37 LIG 0.04  C 
BRANCH 28 30
ATOM     30  C   ALA B   7      20.585  14.268  14.940  1.00 35.30 LIG 0.20  C 
ATOM     31 OXT  ALA B   7      20.246  13.304  14.252  1.00 33.15 LIG-0.65  OA
ATOM     32 O    ALA B   7      21.688  14.239  15.495  1.00 30.65 LIG-0.65  OA
ENDBRANCH 28 30
ENDBRANCH 26 28
ENDBRANCH 23 24
BRANCH 23 33
ATOM     33  CB  THR B   6      21.719  18.341  18.000  1.00 40.55 LIG 0.15  C 
ATOM     34  CG2 THR B   6      22.150  16.895  17.956  1.00 29.01 LIG 0.04  C 
BRANCH 33 35
ATOM     35 OG1  THR B   6      22.862  19.215  17.976  1.00 38.86 LIG-0.39  OA
ATOM     36 HG1  THR B   6      23.516  18.812  17.635  1.00 38.86 LIG 0.21  HD
ENDBRANCH 33 35
ENDBRANCH 23 33
ENDBRANCH 21 23
ENDBRANCH 6 19
ENDBRANCH 4 6
ENDBRANCH 1 2
BRANCH 1 37
ATOM     37  CB  LEU B   4      20.260  25.040  15.952  1.00 31.55 LIG 0.04  C 
BRANCH 37 38
ATOM     38  CG  LEU B   4      21.184  25.829  15.015  1.00 40.70 LIG-0.02  C 
ATOM     39  CD2 LEU B   4      21.732  27.056  15.741  1.00 33.83 LIG 0.01  C 
ATOM     40  CD1 LEU B   4      20.522  26.219  13.687  1.00 30.33 LIG 0.01  C 
ENDBRANCH 37 38
ENDBRANCH 1 37
BRANCH 1 41
ATOM     41  N   LEU B   4      18.092  26.167  16.149  1.00 32.96 LIG-0.35  N 
ATOM     42  C   VAL B   3      17.444  26.977  15.318  1.00 32.71 LIG 0.24  C 
ATOM     43 O    VAL B   3      17.296  26.733  14.118  1.00 29.46 LIG-0.27  OA
ATOM     44 H    LEU B   4      18.162  26.310  16.994  1.00 32.96 LIG 0.16  HD
BRANCH 42 45
ATOM     45  CA  VAL B   3      16.888  28.264  15.921  1.00 32.18 LIG 0.18  C 
BRANCH 45 46
ATOM     46  N   VAL B   3      17.794  29.350  15.576  1.00 27.49 LIG-0.35  N 
ATOM     47 H    VAL B   3      17.560  29.799  14.881  1.00 27.49 LIG 0.16  HD
ATOM     48  C   PRO B   2      18.883  29.605  16.289  1.00 36.99 LIG 0.24  C 
ATOM     49 O    PRO B   2      19.107  29.105  17.394  1.00 37.97 LIG-0.27  OA
BRANCH 48 50
ATOM     50  CA  PRO B   2      19.882  30.566  15.663  1.00 42.38 LIG 0.18  C 
ATOM     51  CB  PRO B   2      19.938  31.846  16.495  1.00 38.27 LIG 0.04  C 
ATOM     52  CG  PRO B   2      18.913  32.735  15.873  1.00 37.96 LIG 0.02  C 
ATOM     53  CD  PRO B   2      18.967  32.440  14.394  1.00 39.69 LIG 0.13  C 
ATOM     54  N   PRO B   2      19.458  31.050  14.346  1.00 45.78 LIG-0.34  N 
ATOM     55  C   LYS B   1      19.483  30.279  13.248  1.00 52.29 LIG 0.25  C 
ATOM     56 O    LYS B   1      19.763  29.078  13.274  1.00 54.18 LIG-0.27  OA
BRANCH 55 57
ATOM     57  CA  LYS B   1      19.143  30.960  11.930  1.00 57.44 LIG 0.28  C 
BRANCH 57 58
ATOM     58  N   LYS B   1      19.963  30.431  10.842  1.00 70.48 LIG-0.07  N 
ATOM     59 H1   LYS B   1      19.491  30.432  10.087  1.00 70.48 LIG 0.28  HD
ATOM     60 H2   LYS B   1      20.686  30.940  10.739  1.00 70.48 LIG 0.28  HD
ATOM     61 H3   LYS B   1      20.211  29.599  11.034  1.00 70.48 LIG 0.28  HD
ENDBRANCH 57 58
BRANCH 57 62
ATOM     62  CB  LYS B   1      17.657  30.806  11.607  1.00 56.26 LIG 0.04  C 
BRANCH 62 63
ATOM     63  CG  LYS B   1      16.918  29.921  12.592  1.00 62.75 LIG 0.00  C 
BRANCH 63 64
ATOM     64  CD  LYS B   1      15.917  29.030  11.884  1.00 59.03 LIG 0.03  C 
BRANCH 64 65
ATOM     65  CE  LYS B   1      15.308  29.738  10.686  1.00 61.45 LIG 0.23  C 
BRANCH 65 66
ATOM     66  NZ  LYS B   1      15.793  29.157   9.398  1.00 70.72 LIG-0.08  N 
ATOM     67 HZ1  LYS B   1      16.371  29.717   9.019  1.00 70.72 LIG 0.27  HD
ATOM     68 HZ2  LYS B   1      16.195  28.379   9.556  1.00 70.72 LIG 0.27  HD
ATOM     69 HZ3  LYS B   1      15.103  29.029   8.851  1.00 70.72 LIG 0.27  HD
ENDBRANCH 65 66
ENDBRANCH 64 65
ENDBRANCH 63 64
ENDBRANCH 62 63
ENDBRANCH 57 62
ENDBRANCH 55 57
ENDBRANCH 48 50
ENDBRANCH 45 46
BRANCH 45 70
ATOM     70  CB  VAL B   3      15.467  28.524  15.388  1.00 30.17 LIG 0.01  C 
ATOM     71  CG1 VAL B   3      14.550  27.347  15.689  1.00 32.03 LIG 0.01  C 
ATOM     72  CG2 VAL B   3      14.915  29.805  15.985  1.00 31.22 LIG 0.01  C 
ENDBRANCH 45 70
ENDBRANCH 42 45
ENDBRANCH 1 41
TORSDOF 27
ENDMDL
MODEL 3
USER: ADFR SOLUTION from run 93
USER: SCORE 19.070876 LL:  -4.687 LR: -16.686 RR:   0.000 FEB:  -8.631
USER: RMSD 4.679969
USER: SEED 92
USER: STATUS no improvement in best in 5 clusters for 5 generations
USER: GENES 29
USER: genes 0 Translation |==|  0.57069 0.48400 0.45825
USER: genes 1 Rotation |==|  0.48347 0.47141 0.53207 0.99788
USER: genes 2 Torsion [N]-CA--C-[N] |==|  0.43233
USER: genes 3 Torsion [C]-N--CA-[C] |==|  0.56111
USER: genes 4 Torsion [N]-CA--CB-[CG] |==|  0.42152
USER: genes 5 Torsion [CA]-CB--CG-[CD] |==|  0.57361
USER: genes 6 Torsion [CB]-CG--CD-[NE] |==|  0.49598
USER: genes 7 Torsion [CG]-CD--NE-[HE] |==|  0.98998
USER: genes 8 Torsion [N]-CA--C-[N] |==|  0.33366
USER: genes 9 Torsion [C]-N--CA-[CB] |==|  0.45759
USER: genes 10 Torsion [N]-CA--C-[N] |==|  0.36280
USER: genes 11 Torsion [C]-N--CA-[CB] |==|  0.30819
USER: genes 12 Torsion [N]-CA--C-[OXT] |==|  0.54786
USER: genes 13 Torsion [N]-CA--CB-[CG2] |==|  0.41457
USER: genes 14 Torsion [CA]-CB--OG1-[HG1] |==|  0.64360
USER: genes 15 Torsion [C]-CA--CB-[CG] |==|  0.41747
USER: genes 16 Torsion [CA]-CB--CG-[CD2] |==|  0.24851
USER: genes 17 Torsion [C]-CA--N-[C] |==|  0.62715
USER: genes 18 Torsion [N]-C--CA-[N] |==|  0.55745
USER: genes 19 Torsion [C]-CA--N-[C] |==|  0.67583
USER: genes 20 Torsion [N]-C--CA-[CB] |==|  0.67564
USER: genes 21 Torsion [N]-C--CA-[N] |==|  0.16498
USER: genes 22 Torsion [C]-CA--N-[H1] |==|  0.69081
USER: genes 23 Torsion [C]-CA--CB-[CG] |==|  0.77921
USER: genes 24 Torsion [CA]-CB--CG-[CD] |==|  0.48122
USER: genes 25 Torsion [CB]-CG--CD-[CE] |==|  0.86641
USER: genes 26 Torsion [CG]-CD--CE-[NZ] |==|  0.73328
USER: genes 27 Torsion [CD]-CE--NZ-[HZ1] |==|  0.50850
USER: genes 28 Torsion [C]-CA--CB-[CG1] |==|  0.28108
ROOT
ATOM      1  CA  LEU B   4      18.296  25.040  15.784  1.00 33.70 LIG 0.18  C 
ENDROOT
BRANCH 1 2
ATOM      2  C   LEU B   4      17.805  23.768  16.467  1.00 36.59 LIG 0.24  C 
ATOM      3 O    LEU B   4      17.028  23.820  17.422  1.00 35.62 LIG-0.27  OA
ATOM      4  N   ARG B   5      18.262  22.625  15.967  1.00 30.50 LIG-0.35  N 
ATOM      5 H    ARG B   5      18.751  22.577  15.262  1.00 30.50 LIG 0.16  HD
BRANCH 4 6
ATOM      6  CA  ARG B   5      17.970  21.333  16.580  1.00 32.70 LIG 0.18  C 
BRANCH 6 7
ATOM      7  CB  ARG B   5      16.566  20.848  16.202  1.00 28.13 LIG 0.04  C 
BRANCH 7 8
ATOM      8  CG  ARG B   5      16.429  19.329  16.193  1.00 29.30 LIG 0.02  C 
BRANCH 8 9
ATOM      9  CD  ARG B   5      15.339  18.842  15.254  1.00 34.57 LIG 0.14  C 
BRANCH 9 10
ATOM     10  NE  ARG B   5      15.227  17.393  15.218  1.00 41.05 LIG-0.23  N 
ATOM     11 HE   ARG B   5      15.796  16.937  15.674  1.00 41.05 LIG 0.18  HD
ATOM     12  CZ  ARG B   5      14.308  16.722  14.528  1.00 43.39 LIG 0.67  C 
ATOM     13  NH2 ARG B   5      14.300  15.395  14.555  1.00 33.00 LIG-0.23  N 
ATOM     14  NH1 ARG B   5      13.401  17.371  13.812  1.00 41.15 LIG-0.23  N 
ATOM     15 1HH2 ARG B   5      14.887  14.971  15.018  1.00 33.00 LIG 0.17  HD
ATOM     16 2HH2 ARG B   5      13.706  14.959  14.110  1.00 33.00 LIG 0.17  HD
ATOM     17 2HH1 ARG B   5      12.809  16.932  13.368  1.00 41.15 LIG 0.17  HD
ATOM     18 1HH1 ARG B   5      13.405  18.231  13.791  1.00 41.15 LIG 0.17  HD
ENDBRANCH 9 10
ENDBRANCH 8 9
ENDBRANCH 7 8
ENDBRANCH 6 7
BRANCH 6 19
ATOM     19  C   ARG B   5      19.009  20.301  16.164  1.00 32.44 LIG 0.24  C 
ATOM     20 O    ARG B   5      19.171  20.037  14.972  1.00 30.81 LIG-0.27  OA
ATOM     21  N   THR B   6      19.724  19.729  17.132  1.00 35.68 LIG-0.34  N 
ATOM     22 H    THR B   6      19.698  19.957  17.961  1.00 35.68 LIG 0.16  HD
BRANCH 21 23
ATOM     23  CA  THR B   6      20.637  18.628  16.820  1.00 34.81 LIG 0.20  C 
BRANCH 23 24
ATOM     24  C   THR B   6      19.851  17.360  16.553  1.00 33.55 LIG 0.24  C 
ATOM     25 O    THR B   6      18.978  16.989  17.337  1.00 36.63 LIG-0.27  OA
ATOM     26  N   ALA B   7      20.164  16.698  15.446  1.00 35.45 LIG-0.34  N 
ATOM     27 H    ALA B   7      20.789  16.932  14.903  1.00 35.45 LIG 0.16  HD
BRANCH 26 28
ATOM     28  CA  ALA B   7      19.446  15.492  15.062  1.00 34.62 LIG 0.18  C 
ATOM     29  CB  ALA B   7      18.606  15.750  13.817  1.00 31.37 LIG 0.04  C 
BRANCH 28 30
ATOM     30  C   ALA B   7      20.399  14.322  14.834  1.00 35.30 LIG 0.20  C 
ATOM     31 OXT  ALA B   7      20.017  13.332  14.208  1.00 33.15 LIG-0.65  OA
ATOM     32 O    ALA B   7      21.553  14.332  15.275  1.00 30.65 LIG-0.65  OA
ENDBRANCH 28 30
ENDBRANCH 26 28
ENDBRANCH 23 24
BRANCH 23 33
ATOM     33  CB  THR B   6      21.652  18.319  17.938  1.00 40.55 LIG 0.15  C 
ATOM     34  CG2 THR B   6      21.994  16.849  17.922  1.00 29.01 LIG 0.04  C 
BRANCH 33 35
ATOM     35 OG1  THR B   6      22.838  19.120  17.791  1.00 38.86 LIG-0.39  OA
ATOM     36 HG1  THR B   6      23.516  18.624  17.809  1.00 38.86 LIG 0.21  HD
ENDBRANCH 33 35
ENDBRANCH 23 33
ENDBRANCH 21 23
ENDBRANCH 6 19
ENDBRANCH 4 6
ENDBRANCH 1 2
BRANCH 1 37
ATOM     37  CB  LEU B   4      19.677  25.412  16.337  1.00 31.55 LIG 0.04  C 
BRANCH 37 38
ATOM     38  CG  LEU B   4      20.708  26.158  15.479  1.00 40.70 LIG-0.02  C 
ATOM     39  CD2 LEU B   4      20.525  27.665  15.641  1.00 33.83 LIG 0.01  C 
ATOM     40  CD1 LEU B   4      20.684  25.751  14.000  1.00 30.33 LIG 0.01  C 
ENDBRANCH 37 38
ENDBRANCH 1 37
BRANCH 1 41
ATOM     41  N   LEU B   4      17.366  26.150  15.979  1.00 32.96 LIG-0.35  N 
ATOM     42  C   VAL B   3      16.992  26.947  14.985  1.00 32.71 LIG 0.24  C 
ATOM     43 O    VAL B   3      17.348  26.779  13.816  1.00 29.46 LIG-0.27  OA
ATOM     44 H    LEU B   4      17.088  26.236  16.788  1.00 32.96 LIG 0.16  HD
BRANCH 42 45
ATOM     45  CA  VAL B   3      16.092  28.121  15.359  1.00 32.18 LIG 0.18  C 
BRANCH 45 46
ATOM     46  N   VAL B   3      15.404  28.562  14.154  1.00 27.49 LIG-0.35  N 
ATOM     47 H    VAL B   3      14.879  27.974  13.811  1.00 27.49 LIG 0.16  HD
ATOM     48  C   PRO B   2      15.590  29.773  13.646  1.00 36.99 LIG 0.24  C 
ATOM     49 O    PRO B   2      16.172  30.681  14.244  1.00 37.97 LIG-0.27  OA
BRANCH 48 50
ATOM     50  CA  PRO B   2      15.043  30.002  12.245  1.00 42.38 LIG 0.18  C 
ATOM     51  CB  PRO B   2      16.201  30.308  11.297  1.00 38.27 LIG 0.04  C 
ATOM     52  CG  PRO B   2      16.324  31.794  11.333  1.00 37.96 LIG 0.02  C 
ATOM     53  CD  PRO B   2      14.914  32.314  11.472  1.00 39.69 LIG 0.13  C 
ATOM     54  N   PRO B   2      14.213  31.206  12.148  1.00 45.78 LIG-0.34  N 
ATOM     55  C   LYS B   1      12.975  31.277  12.663  1.00 52.29 LIG 0.25  C 
ATOM     56 O    LYS B   1      12.478  30.380  13.347  1.00 54.18 LIG-0.27  OA
BRANCH 55 57
ATOM     57  CA  LYS B   1      12.186  32.543  12.364  1.00 57.44 LIG 0.28  C 
BRANCH 57 58
ATOM     58  N   LYS B   1      12.017  32.726  10.924  1.00 70.48 LIG-0.07  N 
ATOM     59 H1   LYS B   1      12.493  33.429  10.657  1.00 70.48 LIG 0.28  HD
ATOM     60 H2   LYS B   1      12.300  31.998  10.496  1.00 70.48 LIG 0.28  HD
ATOM     61 H3   LYS B   1      11.158  32.863  10.740  1.00 70.48 LIG 0.28  HD
ENDBRANCH 57 58
BRANCH 57 62
ATOM     62  CB  LYS B   1      10.827  32.513  13.064  1.00 56.26 LIG 0.04  C 
BRANCH 62 63
ATOM     63  CG  LYS B   1       9.797  31.670  12.338  1.00 62.75 LIG 0.00  C 
BRANCH 63 64
ATOM     64  CD  LYS B   1       8.525  31.537  13.151  1.00 59.03 LIG 0.03  C 
BRANCH 64 65
ATOM     65  CE  LYS B   1       8.834  31.156  14.589  1.00 61.45 LIG 0.23  C 
BRANCH 65 66
ATOM     66  NZ  LYS B   1       8.726  29.681  14.802  1.00 70.72 LIG-0.08  N 
ATOM     67 HZ1  LYS B   1       8.868  29.494  15.660  1.00 70.72 LIG 0.27  HD
ATOM     68 HZ2  LYS B   1       7.911  29.406  14.570  1.00 70.72 LIG 0.27  HD
ATOM     69 HZ3  LYS B   1       9.333  29.264  14.303  1.00 70.72 LIG 0.27  HD
ENDBRANCH 65 66
ENDBRANCH 64 65
ENDBRANCH 63 64
ENDBRANCH 62 63
ENDBRANCH 57 62
ENDBRANCH 55 57
ENDBRANCH 48 50
ENDBRANCH 45 46
BRANCH 45 70
ATOM     70  CB  VAL B   3      15.096  27.693  16.452  1.00 30.17 LIG 0.01  C 
ATOM     71  CG1 VAL B   3      15.549  28.183  17.821  1.00 32.03 LIG 0.01  C 
ATOM     72  CG2 VAL B   3      13.710  28.214  16.124  1.00 31.22 LIG 0.01  C 
ENDBRANCH 45 70
ENDBRANCH 42 45
ENDBRANCH 1 41
TORSDOF 27
ENDMDL
MODEL 4
USER: ADFR SOLUTION from run 37
USER: SCORE 20.444088 LL:  -5.646 LR: -16.372 RR:   0.000 FEB:  -8.318
USER: RMSD 3.872068
USER: SEED 36
USER: STATUS no improvement in best in 1 clusters for 5 generations
USER: GENES 29
USER: genes 0 Translation |==|  0.56105 0.48909 0.45209
USER: genes 1 Rotation |==|  0.49597 0.53955 0.50624 0.99838
USER: genes 2 Torsion [N]-CA--C-[N] |==|  0.46110
USER: genes 3 Torsion [C]-N--CA-[C] |==|  0.57778
USER: genes 4 Torsion [N]-CA--CB-[CG] |==|  0.38867
USER: genes 5 Torsion [CA]-CB--CG-[CD] |==|  0.55061
USER: genes 6 Torsion [CB]-CG--CD-[NE] |==|  0.55353
USER: genes 7 Torsion [CG]-CD--NE-[HE] |==|  0.09511
USER: genes 8 Torsion [N]-CA--C-[N] |==|  0.36417
USER: genes 9 Torsion [C]-N--CA-[CB] |==|  0.47546
USER: genes 10 Torsion [N]-CA--C-[N] |==|  0.39524
USER: genes 11 Torsion [C]-N--CA-[CB] |==|  0.31480
USER: genes 12 Torsion [N]-CA--C-[OXT] |==|  0.48859
USER: genes 13 Torsion [N]-CA--CB-[CG2] |==|  0.76170
USER: genes 14 Torsion [CA]-CB--OG1-[HG1] |==|  0.10161
USER: genes 15 Torsion [C]-CA--CB-[CG] |==|  0.42876
USER: genes 16 Torsion [CA]-CB--CG-[CD2] |==|  0.14092
USER: genes 17 Torsion [C]-CA--N-[C] |==|  0.68109
USER: genes 18 Torsion [N]-C--CA-[N] |==|  0.32478
USER: genes 19 Torsion [C]-CA--N-[C] |==|  0.76965
USER: genes 20 Torsion [N]-C--CA-[CB] |==|  0.33037
USER: genes 21 Torsion [N]-C--CA-[N] |==|  0.38564
USER: genes 22 Torsion [C]-CA--N-[H1] |==|  0.83300
USER: genes 23 Torsion [C]-CA--CB-[CG] |==|  0.14289
USER: genes 24 Torsion [CA]-CB--CG-[CD] |==|  0.44396
USER: genes 25 Torsion [CB]-CG--CD-[CE] |==|  0.41589
USER: genes 26 Torsion [CG]-CD--CE-[NZ] |==|  0.69108
USER: genes 27 Torsion [CD]-CE--NZ-[HZ1] |==|  0.43512
USER: genes 28 Torsion [C]-CA--CB-[CG1] |==|  0.10240
ROOT
ATOM      1  CA  LEU B   4      18.108  25.204  15.687  1.00 33.70 LIG 0.18  C 
ENDROOT
BRANCH 1 2
ATOM      2  C   LEU B   4      17.675  23.955  16.448  1.00 36.59 LIG 0.24  C 
ATOM      3 O    LEU B   4      17.023  24.041  17.490  1.00 35.62 LIG-0.27  OA
ATOM      4  N   ARG B   5      18.042  22.794  15.917  1.00 30.50 LIG-0.35  N 
ATOM      5 H    ARG B   5      18.439  22.722  15.158  1.00 30.50 LIG 0.16  HD
BRANCH 4 6
ATOM      6  CA  ARG B   5      17.798  21.519  16.584  1.00 32.70 LIG 0.18  C 
BRANCH 6 7
ATOM      7  CB  ARG B   5      16.394  20.990  16.268  1.00 28.13 LIG 0.04  C 
BRANCH 7 8
ATOM      8  CG  ARG B   5      16.349  19.483  16.035  1.00 29.30 LIG 0.02  C 
BRANCH 8 9
ATOM      9  CD  ARG B   5      15.093  19.037  15.308  1.00 34.57 LIG 0.14  C 
BRANCH 9 10
ATOM     10  NE  ARG B   5      14.818  17.619  15.469  1.00 41.05 LIG-0.23  N 
ATOM     11 HE   ARG B   5      15.024  17.255  16.220  1.00 41.05 LIG 0.18  HD
ATOM     12  CZ  ARG B   5      14.269  16.844  14.537  1.00 43.39 LIG 0.67  C 
ATOM     13  NH2 ARG B   5      14.068  15.556  14.783  1.00 33.00 LIG-0.23  N 
ATOM     14  NH1 ARG B   5      13.923  17.351  13.363  1.00 41.15 LIG-0.23  N 
ATOM     15 1HH2 ARG B   5      14.292  15.223  15.544  1.00 33.00 LIG 0.17  HD
ATOM     16 2HH2 ARG B   5      13.713  15.053  14.182  1.00 33.00 LIG 0.17  HD
ATOM     17 2HH1 ARG B   5      13.568  16.846  12.764  1.00 41.15 LIG 0.17  HD
ATOM     18 1HH1 ARG B   5      14.053  18.186  13.199  1.00 41.15 LIG 0.17  HD
ENDBRANCH 9 10
ENDBRANCH 8 9
ENDBRANCH 7 8
ENDBRANCH 6 7
BRANCH 6 19
ATOM     19  C   ARG B   5      18.847  20.495  16.173  1.00 32.44 LIG 0.24  C 
ATOM     20 O    ARG B   5      19.120  20.339  14.982  1.00 30.81 LIG-0.27  OA
ATOM     21  N   THR B   6      19.447  19.810  17.146  1.00 35.68 LIG-0.34  N 
ATOM     22 H    THR B   6      19.344  19.960  17.986  1.00 35.68 LIG 0.16  HD
BRANCH 21 23
ATOM     23  CA  THR B   6      20.359  18.712  16.819  1.00 34.81 LIG 0.20  C 
BRANCH 23 24
ATOM     24  C   THR B   6      19.587  17.561  16.207  1.00 33.55 LIG 0.24  C 
ATOM     25 O    THR B   6      18.466  17.269  16.622  1.00 36.63 LIG-0.27  OA
ATOM     26  N   ALA B   7      20.191  16.907  15.222  1.00 35.45 LIG-0.34  N 
ATOM     27 H    ALA B   7      20.984  17.084  14.939  1.00 35.45 LIG 0.16  HD
BRANCH 26 28
ATOM     28  CA  ALA B   7      19.530  15.812  14.528  1.00 34.62 LIG 0.18  C 
ATOM     29  CB  ALA B   7      19.249  16.196  13.080  1.00 31.37 LIG 0.04  C 
BRANCH 28 30
ATOM     30  C   ALA B   7      20.352  14.529  14.594  1.00 35.30 LIG 0.20  C 
ATOM     31 OXT  ALA B   7      19.900  13.485  14.121  1.00 33.15 LIG-0.65  OA
ATOM     32 O    ALA B   7      21.467  14.502  15.127  1.00 30.65 LIG-0.65  OA
ENDBRANCH 28 30
ENDBRANCH 26 28
ENDBRANCH 23 24
BRANCH 23 33
ATOM     33  CB  THR B   6      21.136  18.161  18.030  1.00 40.55 LIG 0.15  C 
ATOM     34  CG2 THR B   6      22.383  18.982  18.250  1.00 29.01 LIG 0.04  C 
BRANCH 33 35
ATOM     35 OG1  THR B   6      20.313  18.158  19.210  1.00 38.86 LIG-0.39  OA
ATOM     36 HG1  THR B   6      19.522  17.964  19.000  1.00 38.86 LIG 0.21  HD
ENDBRANCH 33 35
ENDBRANCH 23 33
ENDBRANCH 21 23
ENDBRANCH 6 19
ENDBRANCH 4 6
ENDBRANCH 1 2
BRANCH 1 37
ATOM     37  CB  LEU B   4      19.619  25.403  15.854  1.00 31.55 LIG 0.04  C 
BRANCH 37 38
ATOM     38  CG  LEU B   4      20.447  26.164  14.810  1.00 40.70 LIG-0.02  C 
ATOM     39  CD2 LEU B   4      19.791  27.510  14.508  1.00 33.83 LIG 0.01  C 
ATOM     40  CD1 LEU B   4      20.694  25.365  13.523  1.00 30.33 LIG 0.01  C 
ENDBRANCH 37 38
ENDBRANCH 1 37
BRANCH 1 41
ATOM     41  N   LEU B   4      17.396  26.391  16.152  1.00 32.96 LIG-0.35  N 
ATOM     42  C   VAL B   3      16.554  27.065  15.376  1.00 32.71 LIG 0.24  C 
ATOM     43 O    VAL B   3      16.262  26.710  14.231  1.00 29.46 LIG-0.27  OA
ATOM     44 H    LEU B   4      17.570  26.610  16.965  1.00 32.96 LIG 0.16  HD
BRANCH 42 45
ATOM     45  CA  VAL B   3      15.957  28.339  15.967  1.00 32.18 LIG 0.18  C 
BRANCH 45 46
ATOM     46  N   VAL B   3      16.403  29.463  15.156  1.00 27.49 LIG-0.35  N 
ATOM     47 H    VAL B   3      15.838  29.715  14.559  1.00 27.49 LIG 0.16  HD
ATOM     48  C   PRO B   2      17.588  30.032  15.340  1.00 36.99 LIG 0.24  C 
ATOM     49 O    PRO B   2      18.303  29.813  16.319  1.00 37.97 LIG-0.27  OA
BRANCH 48 50
ATOM     50  CA  PRO B   2      18.044  30.992  14.252  1.00 42.38 LIG 0.18  C 
ATOM     51  CB  PRO B   2      18.231  32.383  14.855  1.00 38.27 LIG 0.04  C 
ATOM     52  CG  PRO B   2      16.905  33.043  14.678  1.00 37.96 LIG 0.02  C 
ATOM     53  CD  PRO B   2      16.371  32.532  13.363  1.00 39.69 LIG 0.13  C 
ATOM     54  N   PRO B   2      17.022  31.216  13.225  1.00 45.78 LIG-0.34  N 
ATOM     55  C   LYS B   1      16.706  30.292  12.303  1.00 52.29 LIG 0.25  C 
ATOM     56 O    LYS B   1      17.170  29.150  12.309  1.00 54.18 LIG-0.27  OA
BRANCH 55 57
ATOM     57  CA  LYS B   1      15.726  30.719  11.221  1.00 57.44 LIG 0.28  C 
BRANCH 57 58
ATOM     58  N   LYS B   1      16.135  30.208   9.914  1.00 70.48 LIG-0.07  N 
ATOM     59 H1   LYS B   1      16.940  30.526   9.709  1.00 70.48 LIG 0.28  HD
ATOM     60 H2   LYS B   1      16.165  29.319   9.938  1.00 70.48 LIG 0.28  HD
ATOM     61 H3   LYS B   1      15.548  30.467   9.297  1.00 70.48 LIG 0.28  HD
ENDBRANCH 57 58
BRANCH 57 62
ATOM     62  CB  LYS B   1      14.309  30.256  11.559  1.00 56.26 LIG 0.04  C 
BRANCH 62 63
ATOM     63  CG  LYS B   1      13.866  30.648  12.955  1.00 62.75 LIG 0.00  C 
BRANCH 63 64
ATOM     64  CD  LYS B   1      12.357  30.624  13.079  1.00 59.03 LIG 0.03  C 
BRANCH 64 65
ATOM     65  CE  LYS B   1      11.931  30.277  14.496  1.00 61.45 LIG 0.23  C 
BRANCH 65 66
ATOM     66  NZ  LYS B   1      11.290  28.929  14.564  1.00 70.72 LIG-0.08  N 
ATOM     67 HZ1  LYS B   1      11.359  28.609  15.391  1.00 70.72 LIG 0.27  HD
ATOM     68 HZ2  LYS B   1      10.430  28.998  14.344  1.00 70.72 LIG 0.27  HD
ATOM     69 HZ3  LYS B   1      11.698  28.377  13.998  1.00 70.72 LIG 0.27  HD
ENDBRANCH 65 66
ENDBRANCH 64 65
ENDBRANCH 63 64
ENDBRANCH 62 63
ENDBRANCH 57 62
ENDBRANCH 55 57
ENDBRANCH 48 50
ENDBRANCH 45 46
BRANCH 45 70
ATOM     70  CB  VAL B   3      14.421  28.238  15.995  1.00 30.17 LIG 0.01  C 
ATOM     71  CG1 VAL B   3      13.976  26.819  16.323  1.00 32.03 LIG 0.01  C 
ATOM     72  CG2 VAL B   3      13.855  29.227  16.996  1.00 31.22 LIG 0.01  C 
ENDBRANCH 45 70
ENDBRANCH 42 45
ENDBRANCH 1 41
TORSDOF 27
ENDMDL
MODEL 5
USER: ADFR SOLUTION from run 165
USER: SCORE 19.677416 LL:  -4.853 LR: -16.345 RR:   0.000 FEB:  -8.291
USER: RMSD 3.496271
USER: SEED 164
USER: STATUS no improvement in best in 2 clusters for 5 generations
USER: GENES 29
USER: genes 0 Translation |==|  0.53455 0.48659 0.46096
USER: genes 1 Rotation |==|  0.49174 0.49301 0.54296 0.99803
USER: genes 2 Torsion [N]-CA--C-[N] |==|  0.43506
USER: genes 3 Torsion [C]-N--CA-[C] |==|  0.57229
USER: genes 4 Torsion [N]-CA--CB-[CG] |==|  0.42026
USER: genes 5 Torsion [CA]-CB--CG-[CD] |==|  0.46975
USER: genes 6 Torsion [CB]-CG--CD-[NE] |==|  0.46901
USER: genes 7 Torsion [CG]-CD--NE-[HE] |==|  0.16997
USER: genes 8 Torsion [N]-CA--C-[N] |==|  0.33543
USER: genes 9 Torsion [C]-N--CA-[CB] |==|  0.47325
USER: genes 10 Torsion [N]-CA--C-[N] |==|  0.40059
USER: genes 11 Torsion [C]-N--CA-[CB] |==|  0.30132
USER: genes 12 Torsion [N]-CA--C-[OXT] |==|  0.50419
USER: genes 13 Torsion [N]-CA--CB-[CG2] |==|  0.41506
USER: genes 14 Torsion [CA]-CB--OG1-[HG1] |==|  0.72178
USER: genes 15 Torsion [C]-CA--CB-[CG] |==|  0.38106
USER: genes 16 Torsion [CA]-CB--CG-[CD2] |==|  0.53050
USER: genes 17 Torsion [C]-CA--N-[C] |==|  0.61761
USER: genes 18 Torsion [N]-C--CA-[N] |==|  0.45556
USER: genes 19 Torsion [C]-CA--N-[C] |==|  0.72225
USER: genes 20 Torsion [N]-C--CA-[CB] |==|  0.08039
USER: genes 21 Torsion [N]-C--CA-[N] |==|  0.16539
USER: genes 22 Torsion [C]-CA--N-[H1] |==|  0.21164
USER: genes 23 Torsion [C]-CA--CB-[CG] |==|  0.23006
USER: genes 24 Torsion [CA]-CB--CG-[CD] |==|  0.30648
USER: genes 25 Torsion [CB]-CG--CD-[CE] |==|  0.58816
USER: genes 26 Torsion [CG]-CD--CE-[NZ] |==|  0.24575
USER: genes 27 Torsion [CD]-CE--NZ-[HZ1] |==|  0.46631
USER: genes 28 Torsion [C]-CA--CB-[CG1] |==|  0.23186
ROOT
ATOM      1  CA  LEU B   4      17.592  25.123  15.827  1.00 33.70 LIG 0.18  C 
ENDROOT
BRANCH 1 2
ATOM      2  C   LEU B   4      17.216  23.816  16.516  1.00 36.59 LIG 0.24  C 
ATOM      3 O    LEU B   4      16.512  23.811  17.528  1.00 35.62 LIG-0.27  OA
ATOM      4  N   ARG B   5      17.690  22.707  15.959  1.00 30.50 LIG-0.35  N 
ATOM      5 H    ARG B   5      18.126  22.696  15.218  1.00 30.50 LIG 0.16  HD
BRANCH 4 6
ATOM      6  CA  ARG B   5      17.509  21.391  16.563  1.00 32.70 LIG 0.18  C 
BRANCH 6 7
ATOM      7  CB  ARG B   5      16.143  20.799  16.198  1.00 28.13 LIG 0.04  C 
BRANCH 7 8
ATOM      8  CG  ARG B   5      16.130  19.274  16.166  1.00 29.30 LIG 0.02  C 
BRANCH 8 9
ATOM      9  CD  ARG B   5      14.727  18.700  16.065  1.00 34.57 LIG 0.14  C 
BRANCH 9 10
ATOM     10  NE  ARG B   5      14.717  17.275  15.776  1.00 41.05 LIG-0.23  N 
ATOM     11 HE   ARG B   5      15.088  16.750  16.346  1.00 41.05 LIG 0.18  HD
ATOM     12  CZ  ARG B   5      14.174  16.728  14.691  1.00 43.39 LIG 0.67  C 
ATOM     13  NH2 ARG B   5      14.227  15.413  14.518  1.00 33.00 LIG-0.23  N 
ATOM     14  NH1 ARG B   5      13.582  17.488  13.782  1.00 41.15 LIG-0.23  N 
ATOM     15 1HH2 ARG B   5      14.612  14.917  15.106  1.00 33.00 LIG 0.17  HD
ATOM     16 2HH2 ARG B   5      13.877  15.057  13.817  1.00 33.00 LIG 0.17  HD
ATOM     17 2HH1 ARG B   5      13.232  17.128  13.083  1.00 41.15 LIG 0.17  HD
ATOM     18 1HH1 ARG B   5      13.546  18.340  13.890  1.00 41.15 LIG 0.17  HD
ENDBRANCH 9 10
ENDBRANCH 8 9
ENDBRANCH 7 8
ENDBRANCH 6 7
BRANCH 6 19
ATOM     19  C   ARG B   5      18.622  20.448  16.126  1.00 32.44 LIG 0.24  C 
ATOM     20 O    ARG B   5      18.796  20.217  14.929  1.00 30.81 LIG-0.27  OA
ATOM     21  N   THR B   6      19.384  19.916  17.081  1.00 35.68 LIG-0.34  N 
ATOM     22 H    THR B   6      19.345  20.128  17.913  1.00 35.68 LIG 0.16  HD
BRANCH 21 23
ATOM     23  CA  THR B   6      20.376  18.893  16.747  1.00 34.81 LIG 0.20  C 
BRANCH 23 24
ATOM     24  C   THR B   6      19.682  17.613  16.328  1.00 33.55 LIG 0.24  C 
ATOM     25 O    THR B   6      18.632  17.266  16.867  1.00 36.63 LIG-0.27  OA
ATOM     26  N   ALA B   7      20.272  16.914  15.366  1.00 35.45 LIG-0.34  N 
ATOM     27 H    ALA B   7      21.019  17.131  14.999  1.00 35.45 LIG 0.16  HD
BRANCH 26 28
ATOM     28  CA  ALA B   7      19.676  15.691  14.850  1.00 34.62 LIG 0.18  C 
ATOM     29  CB  ALA B   7      19.138  15.917  13.442  1.00 31.37 LIG 0.04  C 
BRANCH 28 30
ATOM     30  C   ALA B   7      20.669  14.533  14.866  1.00 35.30 LIG 0.20  C 
ATOM     31 OXT  ALA B   7      20.332  13.428  14.435  1.00 33.15 LIG-0.65  OA
ATOM     32 O    ALA B   7      21.812  14.667  15.317  1.00 30.65 LIG-0.65  OA
ENDBRANCH 28 30
ENDBRANCH 26 28
ENDBRANCH 23 24
BRANCH 23 33
ATOM     33  CB  THR B   6      21.333  18.547  17.904  1.00 40.55 LIG 0.15  C 
ATOM     34  CG2 THR B   6      21.762  17.104  17.793  1.00 29.01 LIG 0.04  C 
BRANCH 33 35
ATOM     35 OG1  THR B   6      22.477  19.420  17.904  1.00 38.86 LIG-0.39  OA
ATOM     36 HG1  THR B   6      23.131  19.026  17.552  1.00 38.86 LIG 0.21  HD
ENDBRANCH 33 35
ENDBRANCH 23 33
ENDBRANCH 21 23
ENDBRANCH 6 19
ENDBRANCH 4 6
ENDBRANCH 1 2
BRANCH 1 37
ATOM     37  CB  LEU B   4      19.000  25.543  16.264  1.00 31.55 LIG 0.04  C 
BRANCH 37 38
ATOM     38  CG  LEU B   4      20.023  26.084  15.257  1.00 40.70 LIG-0.02  C 
ATOM     39  CD2 LEU B   4      21.402  26.161  15.909  1.00 33.83 LIG 0.01  C 
ATOM     40  CD1 LEU B   4      19.624  27.433  14.643  1.00 30.33 LIG 0.01  C 
ENDBRANCH 37 38
ENDBRANCH 1 37
BRANCH 1 41
ATOM     41  N   LEU B   4      16.638  26.187  16.134  1.00 32.96 LIG-0.35  N 
ATOM     42  C   VAL B   3      16.195  27.033  15.210  1.00 32.71 LIG 0.24  C 
ATOM     43 O    VAL B   3      16.501  26.950  14.018  1.00 29.46 LIG-0.27  OA
ATOM     44 H    LEU B   4      16.395  26.213  16.958  1.00 32.96 LIG 0.16  HD
BRANCH 42 45
ATOM     45  CA  VAL B   3      15.277  28.150  15.698  1.00 32.18 LIG 0.18  C 
BRANCH 45 46
ATOM     46  N   VAL B   3      15.211  29.165  14.656  1.00 27.49 LIG-0.35  N 
ATOM     47 H    VAL B   3      14.674  28.977  14.012  1.00 27.49 LIG 0.16  HD
ATOM     48  C   PRO B   2      15.931  30.278  14.718  1.00 36.99 LIG 0.24  C 
ATOM     49 O    PRO B   2      16.533  30.644  15.729  1.00 37.97 LIG-0.27  OA
BRANCH 48 50
ATOM     50  CA  PRO B   2      15.988  31.108  13.445  1.00 42.38 LIG 0.18  C 
ATOM     51  CB  PRO B   2      14.704  30.894  12.646  1.00 38.27 LIG 0.04  C 
ATOM     52  CG  PRO B   2      15.018  29.750  11.742  1.00 37.96 LIG 0.02  C 
ATOM     53  CD  PRO B   2      16.470  29.917  11.369  1.00 39.69 LIG 0.13  C 
ATOM     54  N   PRO B   2      17.029  30.655  12.517  1.00 45.78 LIG-0.34  N 
ATOM     55  C   LYS B   1      18.337  30.866  12.736  1.00 52.29 LIG 0.25  C 
ATOM     56 O    LYS B   1      18.774  31.360  13.777  1.00 54.18 LIG-0.27  OA
BRANCH 55 57
ATOM     57  CA  LYS B   1      19.287  30.460  11.619  1.00 57.44 LIG 0.28  C 
BRANCH 57 58
ATOM     58  N   LYS B   1      18.982  31.181  10.385  1.00 70.48 LIG-0.07  N 
ATOM     59 H1   LYS B   1      19.282  32.016  10.447  1.00 70.48 LIG 0.28  HD
ATOM     60 H2   LYS B   1      19.376  30.775   9.698  1.00 70.48 LIG 0.28  HD
ATOM     61 H3   LYS B   1      18.102  31.192  10.257  1.00 70.48 LIG 0.28  HD
ENDBRANCH 57 58
BRANCH 57 62
ATOM     62  CB  LYS B   1      20.740  30.693  12.032  1.00 56.26 LIG 0.04  C 
BRANCH 62 63
ATOM     63  CG  LYS B   1      21.316  29.565  12.864  1.00 62.75 LIG 0.00  C 
BRANCH 63 64
ATOM     64  CD  LYS B   1      22.363  28.791  12.089  1.00 59.03 LIG 0.03  C 
BRANCH 64 65
ATOM     65  CE  LYS B   1      22.379  27.329  12.503  1.00 61.45 LIG 0.23  C 
BRANCH 65 66
ATOM     66  NZ  LYS B   1      21.418  26.518  11.697  1.00 70.72 LIG-0.08  N 
ATOM     67 HZ1  LYS B   1      21.572  25.652  11.834  1.00 70.72 LIG 0.27  HD
ATOM     68 HZ2  LYS B   1      20.585  26.713  11.942  1.00 70.72 LIG 0.27  HD
ATOM     69 HZ3  LYS B   1      21.524  26.704  10.833  1.00 70.72 LIG 0.27  HD
ENDBRANCH 65 66
ENDBRANCH 64 65
ENDBRANCH 63 64
ENDBRANCH 62 63
ENDBRANCH 57 62
ENDBRANCH 55 57
ENDBRANCH 48 50
ENDBRANCH 45 46
BRANCH 45 70
ATOM     70  CB  VAL B   3      13.882  27.582  16.021  1.00 30.17 LIG 0.01  C 
ATOM     71  CG1 VAL B   3      13.849  26.989  17.423  1.00 32.03 LIG 0.01  C 
ATOM     72  CG2 VAL B   3      12.833  28.667  15.869  1.00 31.22 LIG 0.01  C 
ENDBRANCH 45 70
ENDBRANCH 42 45
ENDBRANCH 1 41
TORSDOF 27
ENDMDL
MODEL 6
USER: ADFR SOLUTION from run 105
USER: SCORE 19.189234 LL:  -4.511 LR: -15.724 RR:   0.000 FEB:  -7.670
USER: RMSD 3.453180
USER: SEED 104
USER: STATUS no improvement in best in 4 clusters for 5 generations
USER: GENES 29
USER: genes 0 Translation |==|  0.56682 0.48840 0.45320
USER: genes 1 Rotation |==|  0.49406 0.50426 0.50724 0.99989
USER: genes 2 Torsion [N]-CA--C-[N] |==|  0.45218
USER: genes 3 Torsion [C]-N--CA-[C] |==|  0.56845
USER: genes 4 Torsion [N]-CA--CB-[CG] |==|  0.42744
USER: genes 5 Torsion [CA]-CB--CG-[CD] |==|  0.56051
USER: genes 6 Torsion [CB]-CG--CD-[NE] |==|  0.50675
USER: genes 7 Torsion [CG]-CD--NE-[HE] |==|  0.08634
USER: genes 8 Torsion [N]-CA--C-[N] |==|  0.34204
USER: genes 9 Torsion [C]-N--CA-[CB] |==|  0.50669
USER: genes 10 Torsion [N]-CA--C-[N] |==|  0.43482
USER: genes 11 Torsion [C]-N--CA-[CB] |==|  0.27731
USER: genes 12 Torsion [N]-CA--C-[OXT] |==|  0.47976
USER: genes 13 Torsion [N]-CA--CB-[CG2] |==|  0.68467
USER: genes 14 Torsion [CA]-CB--OG1-[HG1] |==|  0.49617
USER: genes 15 Torsion [C]-CA--CB-[CG] |==|  0.30777
USER: genes 16 Torsion [CA]-CB--CG-[CD2] |==|  0.49548
USER: genes 17 Torsion [C]-CA--N-[C] |==|  0.62358
USER: genes 18 Torsion [N]-C--CA-[N] |==|  0.35560
USER: genes 19 Torsion [C]-CA--N-[C] |==|  0.83270
USER: genes 20 Torsion [N]-C--CA-[CB] |==|  0.01351
USER: genes 21 Torsion [N]-C--CA-[N] |==|  0.83036
USER: genes 22 Torsion [C]-CA--N-[H1] |==|  0.85475
USER: genes 23 Torsion [C]-CA--CB-[CG] |==|  0.64417
USER: genes 24 Torsion [CA]-CB--CG-[CD] |==|  0.39225
USER: genes 25 Torsion [CB]-CG--CD-[CE] |==|  0.59914
USER: genes 26 Torsion [CG]-CD--CE-[NZ] |==|  0.23588
USER: genes 27 Torsion [CD]-CE--NZ-[HZ1] |==|  0.47186
USER: genes 28 Torsion [C]-CA--CB-[CG1] |==|  0.19456
ROOT
ATOM      1  CA  LEU B   4      18.221  25.182  15.705  1.00 33.70 LIG 0.18  C 
ENDROOT
BRANCH 1 2
ATOM      2  C   LEU B   4      17.692  23.934  16.404  1.00 36.59 LIG 0.24  C 
ATOM      3 O    LEU B   4      16.945  24.023  17.380  1.00 35.62 LIG-0.27  OA
ATOM      4  N   ARG B   5      18.083  22.771  15.895  1.00 30.50 LIG-0.35  N 
ATOM      5 H    ARG B   5      18.550  22.700  15.177  1.00 30.50 LIG 0.16  HD
BRANCH 4 6
ATOM      6  CA  ARG B   5      17.750  21.494  16.519  1.00 32.70 LIG 0.18  C 
BRANCH 6 7
ATOM      7  CB  ARG B   5      16.339  21.040  16.129  1.00 28.13 LIG 0.04  C 
BRANCH 7 8
ATOM      8  CG  ARG B   5      16.149  19.528  16.186  1.00 29.30 LIG 0.02  C 
BRANCH 8 9
ATOM      9  CD  ARG B   5      14.990  19.049  15.330  1.00 34.57 LIG 0.14  C 
BRANCH 9 10
ATOM     10  NE  ARG B   5      14.770  17.615  15.425  1.00 41.05 LIG-0.23  N 
ATOM     11 HE   ARG B   5      14.961  17.230  16.170  1.00 41.05 LIG 0.18  HD
ATOM     12  CZ  ARG B   5      14.293  16.856  14.442  1.00 43.39 LIG 0.67  C 
ATOM     13  NH2 ARG B   5      14.138  15.551  14.630  1.00 33.00 LIG-0.23  N 
ATOM     14  NH1 ARG B   5      13.972  17.394  13.274  1.00 41.15 LIG-0.23  N 
ATOM     15 1HH2 ARG B   5      14.345  15.198  15.386  1.00 33.00 LIG 0.17  HD
ATOM     16 2HH2 ARG B   5      13.829  15.058  13.996  1.00 33.00 LIG 0.17  HD
ATOM     17 2HH1 ARG B   5      13.664  16.899  12.643  1.00 41.15 LIG 0.17  HD
ATOM     18 1HH1 ARG B   5      14.073  18.239  13.148  1.00 41.15 LIG 0.17  HD
ENDBRANCH 9 10
ENDBRANCH 8 9
ENDBRANCH 7 8
ENDBRANCH 6 7
BRANCH 6 19
ATOM     19  C   ARG B   5      18.768  20.432  16.129  1.00 32.44 LIG 0.24  C 
ATOM     20 O    ARG B   5      18.978  20.189  14.940  1.00 30.81 LIG-0.27  OA
ATOM     21  N   THR B   6      19.412  19.810  17.116  1.00 35.68 LIG-0.34  N 
ATOM     22 H    THR B   6      19.353  20.020  17.948  1.00 35.68 LIG 0.16  HD
BRANCH 21 23
ATOM     23  CA  THR B   6      20.296  18.680  16.822  1.00 34.81 LIG 0.20  C 
BRANCH 23 24
ATOM     24  C   THR B   6      19.532  17.602  16.079  1.00 33.55 LIG 0.24  C 
ATOM     25 O    THR B   6      18.308  17.524  16.176  1.00 36.63 LIG-0.27  OA
ATOM     26  N   ALA B   7      20.258  16.772  15.340  1.00 35.45 LIG-0.34  N 
ATOM     27 H    ALA B   7      21.116  16.799  15.284  1.00 35.45 LIG 0.16  HD
BRANCH 26 28
ATOM     28  CA  ALA B   7      19.631  15.725  14.547  1.00 34.62 LIG 0.18  C 
ATOM     29  CB  ALA B   7      19.525  16.158  13.090  1.00 31.37 LIG 0.04  C 
BRANCH 28 30
ATOM     30  C   ALA B   7      20.389  14.406  14.663  1.00 35.30 LIG 0.20  C 
ATOM     31 OXT  ALA B   7      19.918  13.382  14.163  1.00 33.15 LIG-0.65  OA
ATOM     32 O    ALA B   7      21.467  14.329  15.262  1.00 30.65 LIG-0.65  OA
ENDBRANCH 28 30
ENDBRANCH 26 28
ENDBRANCH 23 24
BRANCH 23 33
ATOM     33  CB  THR B   6      20.920  18.031  18.072  1.00 40.55 LIG 0.15  C 
ATOM     34  CG2 THR B   6      22.412  18.259  18.071  1.00 29.01 LIG 0.04  C 
BRANCH 33 35
ATOM     35 OG1  THR B   6      20.325  18.553  19.274  1.00 38.86 LIG-0.39  OA
ATOM     36 HG1  THR B   6      20.664  18.174  19.943  1.00 38.86 LIG 0.21  HD
ENDBRANCH 33 35
ENDBRANCH 23 33
ENDBRANCH 21 23
ENDBRANCH 6 19
ENDBRANCH 4 6
ENDBRANCH 1 2
BRANCH 1 37
ATOM     37  CB  LEU B   4      19.692  25.391  16.082  1.00 31.55 LIG 0.04  C 
BRANCH 37 38
ATOM     38  CG  LEU B   4      20.817  25.200  15.055  1.00 40.70 LIG-0.02  C 
ATOM     39  CD2 LEU B   4      22.166  25.513  15.699  1.00 33.83 LIG 0.01  C 
ATOM     40  CD1 LEU B   4      20.615  26.009  13.767  1.00 30.33 LIG 0.01  C 
ENDBRANCH 37 38
ENDBRANCH 1 37
BRANCH 1 41
ATOM     41  N   LEU B   4      17.444  26.367  16.058  1.00 32.96 LIG-0.35  N 
ATOM     42  C   VAL B   3      17.051  27.256  15.151  1.00 32.71 LIG 0.24  C 
ATOM     43 O    VAL B   3      17.256  27.122  13.942  1.00 29.46 LIG-0.27  OA
ATOM     44 H    LEU B   4      17.267  26.434  16.896  1.00 32.96 LIG 0.16  HD
BRANCH 42 45
ATOM     45  CA  VAL B   3      16.330  28.492  15.681  1.00 32.18 LIG 0.18  C 
BRANCH 45 46
ATOM     46  N   VAL B   3      16.992  29.668  15.135  1.00 27.49 LIG-0.35  N 
ATOM     47 H    VAL B   3      16.484  30.169  14.655  1.00 27.49 LIG 0.16  HD
ATOM     48  C   PRO B   2      18.272  29.923  15.371  1.00 36.99 LIG 0.24  C 
ATOM     49 O    PRO B   2      18.939  29.329  16.221  1.00 37.97 LIG-0.27  OA
BRANCH 48 50
ATOM     50  CA  PRO B   2      18.905  31.011  14.518  1.00 42.38 LIG 0.18  C 
ATOM     51  CB  PRO B   2      17.832  31.649  13.638  1.00 38.27 LIG 0.04  C 
ATOM     52  CG  PRO B   2      17.861  30.848  12.380  1.00 37.96 LIG 0.02  C 
ATOM     53  CD  PRO B   2      19.309  30.479  12.170  1.00 39.69 LIG 0.13  C 
ATOM     54  N   PRO B   2      19.860  30.482  13.538  1.00 45.78 LIG-0.34  N 
ATOM     55  C   LYS B   1      21.072  30.021  13.883  1.00 52.29 LIG 0.25  C 
ATOM     56 O    LYS B   1      21.440  29.905  15.054  1.00 54.18 LIG-0.27  OA
BRANCH 55 57
ATOM     57  CA  LYS B   1      22.001  29.632  12.743  1.00 57.44 LIG 0.28  C 
BRANCH 57 58
ATOM     58  N   LYS B   1      21.424  28.555  11.942  1.00 70.48 LIG-0.07  N 
ATOM     59 H1   LYS B   1      21.187  27.883  12.475  1.00 70.48 LIG 0.28  HD
ATOM     60 H2   LYS B   1      20.708  28.857  11.509  1.00 70.48 LIG 0.28  HD
ATOM     61 H3   LYS B   1      22.027  28.267  11.354  1.00 70.48 LIG 0.28  HD
ENDBRANCH 57 58
BRANCH 57 62
ATOM     62  CB  LYS B   1      22.319  30.842  11.866  1.00 56.26 LIG 0.04  C 
BRANCH 62 63
ATOM     63  CG  LYS B   1      22.071  30.596  10.391  1.00 62.75 LIG 0.00  C 
BRANCH 63 64
ATOM     64  CD  LYS B   1      21.476  31.819   9.723  1.00 59.03 LIG 0.03  C 
BRANCH 64 65
ATOM     65  CE  LYS B   1      20.474  31.423   8.651  1.00 61.45 LIG 0.23  C 
BRANCH 65 66
ATOM     66  NZ  LYS B   1      19.117  31.181   9.229  1.00 70.72 LIG-0.08  N 
ATOM     67 HZ1  LYS B   1      18.525  31.096   8.570  1.00 70.72 LIG 0.27  HD
ATOM     68 HZ2  LYS B   1      19.130  30.434   9.714  1.00 70.72 LIG 0.27  HD
ATOM     69 HZ3  LYS B   1      18.888  31.868   9.747  1.00 70.72 LIG 0.27  HD
ENDBRANCH 65 66
ENDBRANCH 64 65
ENDBRANCH 63 64
ENDBRANCH 62 63
ENDBRANCH 57 62
ENDBRANCH 55 57
ENDBRANCH 48 50
ENDBRANCH 45 46
BRANCH 45 70
ATOM     70  CB  VAL B   3      14.843  28.445  15.283  1.00 30.17 LIG 0.01  C 
ATOM     71  CG1 VAL B   3      14.109  27.354  16.050  1.00 32.03 LIG 0.01  C 
ATOM     72  CG2 VAL B   3      14.200  29.798  15.520  1.00 31.22 LIG 0.01  C 
ENDBRANCH 45 70
ENDBRANCH 42 45
ENDBRANCH 1 41
TORSDOF 27
ENDMDL
MODEL 7
USER: ADFR SOLUTION from run 69
USER: SCORE 18.727579 LL:  -4.833 LR: -15.620 RR:   0.000 FEB:  -7.566
USER: RMSD 4.576516
USER: SEED 68
USER: STATUS no improvement in best in 5 clusters for 5 generations
USER: GENES 29
USER: genes 0 Translation |==|  0.55908 0.42256 0.47676
USER: genes 1 Rotation |==|  0.56328 0.50531 0.47758 0.99544
USER: genes 2 Torsion [N]-CA--C-[N] |==|  0.45724
USER: genes 3 Torsion [C]-N--CA-[C] |==|  0.57799
USER: genes 4 Torsion [N]-CA--CB-[CG] |==|  0.45780
USER: genes 5 Torsion [CA]-CB--CG-[CD] |==|  0.35093
USER: genes 6 Torsion [CB]-CG--CD-[NE] |==|  0.41186
USER: genes 7 Torsion [CG]-CD--NE-[HE] |==|  0.09275
USER: genes 8 Torsion [N]-CA--C-[N] |==|  0.37617
USER: genes 9 Torsion [C]-N--CA-[CB] |==|  0.29204
USER: genes 10 Torsion [N]-CA--C-[N] |==|  0.44244
USER: genes 11 Torsion [C]-N--CA-[CB] |==|  0.15868
USER: genes 12 Torsion [N]-CA--C-[OXT] |==|  0.53063
USER: genes 13 Torsion [N]-CA--CB-[CG2] |==|  0.59193
USER: genes 14 Torsion [CA]-CB--OG1-[HG1] |==|  0.62291
USER: genes 15 Torsion [C]-CA--CB-[CG] |==|  0.50299
USER: genes 16 Torsion [CA]-CB--CG-[CD2] |==|  0.24693
USER: genes 17 Torsion [C]-CA--N-[C] |==|  0.65041
USER: genes 18 Torsion [N]-C--CA-[N] |==|  0.41388
USER: genes 19 Torsion [C]-CA--N-[C] |==|  0.81864
USER: genes 20 Torsion [N]-C--CA-[CB] |==|  0.37295
USER: genes 21 Torsion [N]-C--CA-[N] |==|  0.40478
USER: genes 22 Torsion [C]-CA--N-[H1] |==|  0.66642
USER: genes 23 Torsion [C]-CA--CB-[CG] |==|  0.64161
USER: genes 24 Torsion [CA]-CB--CG-[CD] |==|  0.46844
USER: genes 25 Torsion [CB]-CG--CD-[CE] |==|  0.88145
USER: genes 26 Torsion [CG]-CD--CE-[NZ] |==|  0.69712
USER: genes 27 Torsion [CD]-CE--NZ-[HZ1] |==|  0.14710
USER: genes 28 Torsion [C]-CA--CB-[CG1] |==|  0.14815
ROOT
ATOM      1  CA  LEU B   4      18.070  23.059  16.076  1.00 33.70 LIG 0.18  C 
ENDROOT
BRANCH 1 2
ATOM      2  C   LEU B   4      17.388  21.739  16.422  1.00 36.59 LIG 0.24  C 
ATOM      3 O    LEU B   4      16.621  21.654  17.383  1.00 35.62 LIG-0.27  OA
ATOM      4  N   ARG B   5      17.670  20.712  15.629  1.00 30.50 LIG-0.35  N 
ATOM      5 H    ARG B   5      18.151  20.778  14.919  1.00 30.50 LIG 0.16  HD
BRANCH 4 6
ATOM      6  CA  ARG B   5      17.183  19.362  15.895  1.00 32.70 LIG 0.18  C 
BRANCH 6 7
ATOM      7  CB  ARG B   5      15.778  19.159  15.317  1.00 28.13 LIG 0.04  C 
BRANCH 7 8
ATOM      8  CG  ARG B   5      15.361  17.694  15.233  1.00 29.30 LIG 0.02  C 
BRANCH 8 9
ATOM      9  CD  ARG B   5      14.033  17.420  15.918  1.00 34.57 LIG 0.14  C 
BRANCH 9 10
ATOM     10  NE  ARG B   5      13.280  16.349  15.285  1.00 41.05 LIG-0.23  N 
ATOM     11 HE   ARG B   5      13.723  15.703  14.934  1.00 41.05 LIG 0.18  HD
ATOM     12  CZ  ARG B   5      11.952  16.300  15.212  1.00 43.39 LIG 0.67  C 
ATOM     13  NH2 ARG B   5      11.361  15.279  14.603  1.00 33.00 LIG-0.23  N 
ATOM     14  NH1 ARG B   5      11.215  17.266  15.741  1.00 41.15 LIG-0.23  N 
ATOM     15 1HH2 ARG B   5      11.837  14.652  14.257  1.00 33.00 LIG 0.17  HD
ATOM     16 2HH2 ARG B   5      10.503  15.246  14.554  1.00 33.00 LIG 0.17  HD
ATOM     17 2HH1 ARG B   5      10.357  17.228  15.691  1.00 41.15 LIG 0.17  HD
ATOM     18 1HH1 ARG B   5      11.594  17.929  16.136  1.00 41.15 LIG 0.17  HD
ENDBRANCH 9 10
ENDBRANCH 8 9
ENDBRANCH 7 8
ENDBRANCH 6 7
BRANCH 6 19
ATOM     19  C   ARG B   5      18.140  18.329  15.318  1.00 32.44 LIG 0.24  C 
ATOM     20 O    ARG B   5      18.608  18.485  14.190  1.00 30.81 LIG-0.27  OA
ATOM     21  N   THR B   6      18.448  17.284  16.087  1.00 35.68 LIG-0.34  N 
ATOM     22 H    THR B   6      18.210  17.194  16.908  1.00 35.68 LIG 0.16  HD
BRANCH 21 23
ATOM     23  CA  THR B   6      19.245  16.181  15.546  1.00 34.81 LIG 0.20  C 
BRANCH 23 24
ATOM     24  C   THR B   6      18.620  14.854  15.924  1.00 33.55 LIG 0.24  C 
ATOM     25 O    THR B   6      17.844  14.777  16.876  1.00 36.63 LIG-0.27  OA
ATOM     26  N   ALA B   7      18.962  13.811  15.178  1.00 35.45 LIG-0.34  N 
ATOM     27 H    ALA B   7      19.523  13.845  14.527  1.00 35.45 LIG 0.16  HD
BRANCH 26 28
ATOM     28  CA  ALA B   7      18.391  12.494  15.418  1.00 34.62 LIG 0.18  C 
ATOM     29  CB  ALA B   7      16.871  12.552  15.332  1.00 31.37 LIG 0.04  C 
BRANCH 28 30
ATOM     30  C   ALA B   7      18.945  11.458  14.444  1.00 35.30 LIG 0.20  C 
ATOM     31 OXT  ALA B   7      18.424  10.343  14.371  1.00 33.15 LIG-0.65  OA
ATOM     32 O    ALA B   7      19.921  11.701  13.726  1.00 30.65 LIG-0.65  OA
ENDBRANCH 28 30
ENDBRANCH 26 28
ENDBRANCH 23 24
BRANCH 23 33
ATOM     33  CB  THR B   6      20.706  16.165  16.037  1.00 40.55 LIG 0.15  C 
ATOM     34  CG2 THR B   6      21.601  15.629  14.948  1.00 29.01 LIG 0.04  C 
BRANCH 33 35
ATOM     35 OG1  THR B   6      21.127  17.480  16.442  1.00 38.86 LIG-0.39  OA
ATOM     36 HG1  THR B   6      21.895  17.635  16.139  1.00 38.86 LIG 0.21  HD
ENDBRANCH 33 35
ENDBRANCH 23 33
ENDBRANCH 21 23
ENDBRANCH 6 19
ENDBRANCH 4 6
ENDBRANCH 1 2
BRANCH 1 37
ATOM     37  CB  LEU B   4      19.552  22.981  16.461  1.00 31.55 LIG 0.04  C 
BRANCH 37 38
ATOM     38  CG  LEU B   4      20.497  24.173  16.254  1.00 40.70 LIG-0.02  C 
ATOM     39  CD2 LEU B   4      20.478  25.069  17.490  1.00 33.83 LIG 0.01  C 
ATOM     40  CD1 LEU B   4      20.200  24.976  14.980  1.00 30.33 LIG 0.01  C 
ENDBRANCH 37 38
ENDBRANCH 1 37
BRANCH 1 41
ATOM     41  N   LEU B   4      17.438  24.186  16.756  1.00 32.96 LIG-0.35  N 
ATOM     42  C   VAL B   3      16.994  25.254  16.101  1.00 32.71 LIG 0.24  C 
ATOM     43 O    VAL B   3      17.023  25.351  14.872  1.00 29.46 LIG-0.27  OA
ATOM     44 H    LEU B   4      17.381  24.094  17.609  1.00 32.96 LIG 0.16  HD
BRANCH 42 45
ATOM     45  CA  VAL B   3      16.444  26.393  16.954  1.00 32.18 LIG 0.18  C 
BRANCH 45 46
ATOM     46  N   VAL B   3      16.702  27.643  16.255  1.00 27.49 LIG-0.35  N 
ATOM     47 H    VAL B   3      15.994  28.058  15.998  1.00 27.49 LIG 0.16  HD
ATOM     48  C   PRO B   2      17.935  28.085  16.044  1.00 36.99 LIG 0.24  C 
ATOM     49 O    PRO B   2      18.932  27.608  16.590  1.00 37.97 LIG-0.27  OA
BRANCH 48 50
ATOM     50  CA  PRO B   2      18.073  29.239  15.063  1.00 42.38 LIG 0.18  C 
ATOM     51  CB  PRO B   2      19.007  30.293  15.654  1.00 38.27 LIG 0.04  C 
ATOM     52  CG  PRO B   2      18.099  31.220  16.391  1.00 37.96 LIG 0.02  C 
ATOM     53  CD  PRO B   2      16.832  31.279  15.573  1.00 39.69 LIG 0.13  C 
ATOM     54  N   PRO B   2      16.822  29.979  14.875  1.00 45.78 LIG-0.34  N 
ATOM     55  C   LYS B   1      15.786  29.486  14.179  1.00 52.29 LIG 0.25  C 
ATOM     56 O    LYS B   1      15.760  28.337  13.732  1.00 54.18 LIG-0.27  OA
BRANCH 55 57
ATOM     57  CA  LYS B   1      14.609  30.424  13.955  1.00 57.44 LIG 0.28  C 
BRANCH 57 58
ATOM     58  N   LYS B   1      13.989  30.184  12.653  1.00 70.48 LIG-0.07  N 
ATOM     59 H1   LYS B   1      14.028  30.925  12.164  1.00 70.48 LIG 0.28  HD
ATOM     60 H2   LYS B   1      14.422  29.528  12.234  1.00 70.48 LIG 0.28  HD
ATOM     61 H3   LYS B   1      13.138  29.950  12.769  1.00 70.48 LIG 0.28  HD
ENDBRANCH 57 58
BRANCH 57 62
ATOM     62  CB  LYS B   1      13.579  30.280  15.075  1.00 56.26 LIG 0.04  C 
BRANCH 62 63
ATOM     63  CG  LYS B   1      12.167  30.062  14.568  1.00 62.75 LIG 0.00  C 
BRANCH 63 64
ATOM     64  CD  LYS B   1      11.238  29.652  15.692  1.00 59.03 LIG 0.03  C 
BRANCH 64 65
ATOM     65  CE  LYS B   1      11.900  28.631  16.602  1.00 61.45 LIG 0.23  C 
BRANCH 65 66
ATOM     66  NZ  LYS B   1      11.293  27.275  16.442  1.00 70.72 LIG-0.08  N 
ATOM     67 HZ1  LYS B   1      11.298  27.048  15.582  1.00 70.72 LIG 0.27  HD
ATOM     68 HZ2  LYS B   1      11.765  26.681  16.908  1.00 70.72 LIG 0.27  HD
ATOM     69 HZ3  LYS B   1      10.455  27.288  16.741  1.00 70.72 LIG 0.27  HD
ENDBRANCH 65 66
ENDBRANCH 64 65
ENDBRANCH 63 64
ENDBRANCH 62 63
ENDBRANCH 57 62
ENDBRANCH 55 57
ENDBRANCH 48 50
ENDBRANCH 45 46
BRANCH 45 70
ATOM     70  CB  VAL B   3      14.939  26.186  17.203  1.00 30.17 LIG 0.01  C 
ATOM     71  CG1 VAL B   3      14.668  24.803  17.780  1.00 32.03 LIG 0.01  C 
ATOM     72  CG2 VAL B   3      14.412  27.269  18.126  1.00 31.22 LIG 0.01  C 
ENDBRANCH 45 70
ENDBRANCH 42 45
ENDBRANCH 1 41
TORSDOF 27
ENDMDL
MODEL 8
USER: ADFR SOLUTION from run 63
USER: SCORE 19.848016 LL:  -5.936 LR: -15.552 RR:   0.000 FEB:  -7.498
USER: RMSD 3.880907
USER: SEED 62
USER: STATUS no improvement in best in 3 clusters for 5 generations
USER: GENES 29
USER: genes 0 Translation |==|  0.57553 0.47996 0.45238
USER: genes 1 Rotation |==|  0.49975 0.54750 0.50286 0.99773
USER: genes 2 Torsion [N]-CA--C-[N] |==|  0.44061
USER: genes 3 Torsion [C]-N--CA-[C] |==|  0.61188
USER: genes 4 Torsion [N]-CA--CB-[CG] |==|  0.63375
USER: genes 5 Torsion [CA]-CB--CG-[CD] |==|  0.28348
USER: genes 6 Torsion [CB]-CG--CD-[NE] |==|  0.82800
USER: genes 7 Torsion [CG]-CD--NE-[HE] |==|  0.98939
USER: genes 8 Torsion [N]-CA--C-[N] |==|  0.32987
USER: genes 9 Torsion [C]-N--CA-[CB] |==|  0.46228
USER: genes 10 Torsion [N]-CA--C-[N] |==|  0.35621
USER: genes 11 Torsion [C]-N--CA-[CB] |==|  0.31131
USER: genes 12 Torsion [N]-CA--C-[OXT] |==|  0.55027
USER: genes 13 Torsion [N]-CA--CB-[CG2] |==|  0.42629
USER: genes 14 Torsion [CA]-CB--OG1-[HG1] |==|  0.69008
USER: genes 15 Torsion [C]-CA--CB-[CG] |==|  0.41040
USER: genes 16 Torsion [CA]-CB--CG-[CD2] |==|  0.43422
USER: genes 17 Torsion [C]-CA--N-[C] |==|  0.66046
USER: genes 18 Torsion [N]-C--CA-[N] |==|  0.34519
USER: genes 19 Torsion [C]-CA--N-[C] |==|  0.79042
USER: genes 20 Torsion [N]-C--CA-[CB] |==|  0.31871
USER: genes 21 Torsion [N]-C--CA-[N] |==|  0.38731
USER: genes 22 Torsion [C]-CA--N-[H1] |==|  0.82351
USER: genes 23 Torsion [C]-CA--CB-[CG] |==|  0.23695
USER: genes 24 Torsion [CA]-CB--CG-[CD] |==|  0.63470
USER: genes 25 Torsion [CB]-CG--CD-[CE] |==|  0.71709
USER: genes 26 Torsion [CG]-CD--CE-[NZ] |==|  0.41173
USER: genes 27 Torsion [CD]-CE--NZ-[HZ1] |==|  0.51820
USER: genes 28 Torsion [C]-CA--CB-[CG1] |==|  0.10557
ROOT
ATOM      1  CA  LEU B   4      18.391  24.910  15.692  1.00 33.70 LIG 0.18  C 
ENDROOT
BRANCH 1 2
ATOM      2  C   LEU B   4      17.964  23.657  16.449  1.00 36.59 LIG 0.24  C 
ATOM      3 O    LEU B   4      17.467  23.734  17.575  1.00 35.62 LIG-0.27  OA
ATOM      4  N   ARG B   5      18.158  22.502  15.822  1.00 30.50 LIG-0.35  N 
ATOM      5 H    ARG B   5      18.443  22.443  15.012  1.00 30.50 LIG 0.16  HD
BRANCH 4 6
ATOM      6  CA  ARG B   5      17.903  21.214  16.459  1.00 32.70 LIG 0.18  C 
BRANCH 6 7
ATOM      7  CB  ARG B   5      16.526  20.667  16.066  1.00 28.13 LIG 0.04  C 
BRANCH 7 8
ATOM      8  CG  ARG B   5      15.701  20.184  17.254  1.00 29.30 LIG 0.02  C 
BRANCH 8 9
ATOM      9  CD  ARG B   5      14.628  21.176  17.667  1.00 34.57 LIG 0.14  C 
BRANCH 9 10
ATOM     10  NE  ARG B   5      15.173  22.452  18.101  1.00 41.05 LIG-0.23  N 
ATOM     11 HE   ARG B   5      16.029  22.529  18.139  1.00 41.05 LIG 0.18  HD
ATOM     12  CZ  ARG B   5      14.442  23.510  18.443  1.00 43.39 LIG 0.67  C 
ATOM     13  NH2 ARG B   5      15.040  24.628  18.835  1.00 33.00 LIG-0.23  N 
ATOM     14  NH1 ARG B   5      13.119  23.453  18.397  1.00 41.15 LIG-0.23  N 
ATOM     15 1HH2 ARG B   5      15.899  24.668  18.867  1.00 33.00 LIG 0.17  HD
ATOM     16 2HH2 ARG B   5      14.570  25.313  19.057  1.00 33.00 LIG 0.17  HD
ATOM     17 2HH1 ARG B   5      12.652  24.140  18.620  1.00 41.15 LIG 0.17  HD
ATOM     18 1HH1 ARG B   5      12.728  22.730  18.145  1.00 41.15 LIG 0.17  HD
ENDBRANCH 9 10
ENDBRANCH 8 9
ENDBRANCH 7 8
ENDBRANCH 6 7
BRANCH 6 19
ATOM     19  C   ARG B   5      18.989  20.214  16.088  1.00 32.44 LIG 0.24  C 
ATOM     20 O    ARG B   5      19.168  19.910  14.909  1.00 30.81 LIG-0.27  OA
ATOM     21  N   THR B   6      19.724  19.713  17.081  1.00 35.68 LIG-0.34  N 
ATOM     22 H    THR B   6      19.683  19.973  17.900  1.00 35.68 LIG 0.16  HD
BRANCH 21 23
ATOM     23  CA  THR B   6      20.686  18.642  16.817  1.00 34.81 LIG 0.20  C 
BRANCH 23 24
ATOM     24  C   THR B   6      19.956  17.340  16.557  1.00 33.55 LIG 0.24  C 
ATOM     25 O    THR B   6      19.108  16.930  17.350  1.00 36.63 LIG-0.27  OA
ATOM     26  N   ALA B   7      20.289  16.692  15.448  1.00 35.45 LIG-0.34  N 
ATOM     27 H    ALA B   7      20.898  16.953  14.899  1.00 35.45 LIG 0.16  HD
BRANCH 26 28
ATOM     28  CA  ALA B   7      19.624  15.454  15.070  1.00 34.62 LIG 0.18  C 
ATOM     29  CB  ALA B   7      18.783  15.665  13.817  1.00 31.37 LIG 0.04  C 
BRANCH 28 30
ATOM     30  C   ALA B   7      20.625  14.321  14.861  1.00 35.30 LIG 0.20  C 
ATOM     31 OXT  ALA B   7      20.293  13.317  14.229  1.00 33.15 LIG-0.65  OA
ATOM     32 O    ALA B   7      21.770  14.376  15.325  1.00 30.65 LIG-0.65  OA
ENDBRANCH 28 30
ENDBRANCH 26 28
ENDBRANCH 23 24
BRANCH 23 33
ATOM     33  CB  THR B   6      21.682  18.396  17.967  1.00 40.55 LIG 0.15  C 
ATOM     34  CG2 THR B   6      22.159  16.965  17.928  1.00 29.01 LIG 0.04  C 
BRANCH 33 35
ATOM     35 OG1  THR B   6      22.793  19.307  17.888  1.00 38.86 LIG-0.39  OA
ATOM     36 HG1  THR B   6      23.491  18.882  17.692  1.00 38.86 LIG 0.21  HD
ENDBRANCH 33 35
ENDBRANCH 23 33
ENDBRANCH 21 23
ENDBRANCH 6 19
ENDBRANCH 4 6
ENDBRANCH 1 2
BRANCH 1 37
ATOM     37  CB  LEU B   4      19.909  25.084  15.813  1.00 31.55 LIG 0.04  C 
BRANCH 37 38
ATOM     38  CG  LEU B   4      20.735  25.715  14.684  1.00 40.70 LIG-0.02  C 
ATOM     39  CD2 LEU B   4      22.030  26.294  15.250  1.00 33.83 LIG 0.01  C 
ATOM     40  CD1 LEU B   4      19.964  26.765  13.873  1.00 30.33 LIG 0.01  C 
ENDBRANCH 37 38
ENDBRANCH 1 37
BRANCH 1 41
ATOM     41  N   LEU B   4      17.711  26.101  16.195  1.00 32.96 LIG-0.35  N 
ATOM     42  C   VAL B   3      16.969  26.879  15.415  1.00 32.71 LIG 0.24  C 
ATOM     43 O    VAL B   3      16.745  26.627  14.229  1.00 29.46 LIG-0.27  OA
ATOM     44 H    LEU B   4      17.836  26.248  17.033  1.00 32.96 LIG 0.16  HD
BRANCH 42 45
ATOM     45  CA  VAL B   3      16.400  28.140  16.059  1.00 32.18 LIG 0.18  C 
BRANCH 45 46
ATOM     46  N   VAL B   3      16.826  29.283  15.263  1.00 27.49 LIG-0.35  N 
ATOM     47 H    VAL B   3      16.210  29.617  14.766  1.00 27.49 LIG 0.16  HD
ATOM     48  C   PRO B   2      18.067  29.750  15.318  1.00 36.99 LIG 0.24  C 
ATOM     49 O    PRO B   2      18.885  29.410  16.176  1.00 37.97 LIG-0.27  OA
BRANCH 48 50
ATOM     50  CA  PRO B   2      18.454  30.748  14.238  1.00 42.38 LIG 0.18  C 
ATOM     51  CB  PRO B   2      18.731  32.104  14.882  1.00 38.27 LIG 0.04  C 
ATOM     52  CG  PRO B   2      17.413  32.803  14.852  1.00 37.96 LIG 0.02  C 
ATOM     53  CD  PRO B   2      16.753  32.366  13.568  1.00 39.69 LIG 0.13  C 
ATOM     54  N   PRO B   2      17.353  31.043  13.315  1.00 45.78 LIG-0.34  N 
ATOM     55  C   LYS B   1      16.934  30.170  12.385  1.00 52.29 LIG 0.25  C 
ATOM     56 O    LYS B   1      17.364  29.019  12.299  1.00 54.18 LIG-0.27  OA
BRANCH 55 57
ATOM     57  CA  LYS B   1      15.875  30.670  11.412  1.00 57.44 LIG 0.28  C 
BRANCH 57 58
ATOM     58  N   LYS B   1      16.148  30.198  10.056  1.00 70.48 LIG-0.07  N 
ATOM     59 H1   LYS B   1      16.918  30.540   9.772  1.00 70.48 LIG 0.28  HD
ATOM     60 H2   LYS B   1      16.199  29.310  10.054  1.00 70.48 LIG 0.28  HD
ATOM     61 H3   LYS B   1      15.492  30.458   9.514  1.00 70.48 LIG 0.28  HD
ENDBRANCH 57 58
BRANCH 57 62
ATOM     62  CB  LYS B   1      14.480  30.238  11.861  1.00 56.26 LIG 0.04  C 
BRANCH 62 63
ATOM     63  CG  LYS B   1      13.851  31.185  12.864  1.00 62.75 LIG 0.00  C 
BRANCH 63 64
ATOM     64  CD  LYS B   1      13.287  30.432  14.051  1.00 59.03 LIG 0.03  C 
BRANCH 64 65
ATOM     65  CE  LYS B   1      11.777  30.296  13.943  1.00 61.45 LIG 0.23  C 
BRANCH 65 66
ATOM     66  NZ  LYS B   1      11.293  29.028  14.567  1.00 70.72 LIG-0.08  N 
ATOM     67 HZ1  LYS B   1      10.424  28.931  14.406  1.00 70.72 LIG 0.27  HD
ATOM     68 HZ2  LYS B   1      11.737  28.338  14.221  1.00 70.72 LIG 0.27  HD
ATOM     69 HZ3  LYS B   1      11.430  29.058  15.446  1.00 70.72 LIG 0.27  HD
ENDBRANCH 65 66
ENDBRANCH 64 65
ENDBRANCH 63 64
ENDBRANCH 62 63
ENDBRANCH 57 62
ENDBRANCH 55 57
ENDBRANCH 48 50
ENDBRANCH 45 46
BRANCH 45 70
ATOM     70  CB  VAL B   3      14.865  28.047  16.135  1.00 30.17 LIG 0.01  C 
ATOM     71  CG1 VAL B   3      14.423  26.629  16.468  1.00 32.03 LIG 0.01  C 
ATOM     72  CG2 VAL B   3      14.336  29.032  17.160  1.00 31.22 LIG 0.01  C 
ENDBRANCH 45 70
ENDBRANCH 42 45
ENDBRANCH 1 41
TORSDOF 27
ENDMDL
MODEL 9
USER: ADFR SOLUTION from run 169
USER: SCORE 20.246775 LL:  -6.395 LR: -15.466 RR:   0.000 FEB:  -7.412
USER: RMSD 3.845245
USER: SEED 168
USER: STATUS no improvement in best in 4 clusters for 5 generations
USER: GENES 29
USER: genes 0 Translation |==|  0.59811 0.47928 0.45251
USER: genes 1 Rotation |==|  0.50902 0.52769 0.48371 0.99889
USER: genes 2 Torsion [N]-CA--C-[N] |==|  0.44710
USER: genes 3 Torsion [C]-N--CA-[C] |==|  0.60559
USER: genes 4 Torsion [N]-CA--CB-[CG] |==|  0.58972
USER: genes 5 Torsion [CA]-CB--CG-[CD] |==|  0.23940
USER: genes 6 Torsion [CB]-CG--CD-[NE] |==|  0.82073
USER: genes 7 Torsion [CG]-CD--NE-[HE] |==|  0.19967
USER: genes 8 Torsion [N]-CA--C-[N] |==|  0.29519
USER: genes 9 Torsion [C]-N--CA-[CB] |==|  0.48893
USER: genes 10 Torsion [N]-CA--C-[N] |==|  0.36291
USER: genes 11 Torsion [C]-N--CA-[CB] |==|  0.29218
USER: genes 12 Torsion [N]-CA--C-[OXT] |==|  0.55136
USER: genes 13 Torsion [N]-CA--CB-[CG2] |==|  0.42543
USER: genes 14 Torsion [CA]-CB--OG1-[HG1] |==|  0.73296
USER: genes 15 Torsion [C]-CA--CB-[CG] |==|  0.44213
USER: genes 16 Torsion [CA]-CB--CG-[CD2] |==|  0.26214
USER: genes 17 Torsion [C]-CA--N-[C] |==|  0.67294
USER: genes 18 Torsion [N]-C--CA-[N] |==|  0.27215
USER: genes 19 Torsion [C]-CA--N-[C] |==|  0.77664
USER: genes 20 Torsion [N]-C--CA-[CB] |==|  0.31156
USER: genes 21 Torsion [N]-C--CA-[N] |==|  0.40081
USER: genes 22 Torsion [C]-CA--N-[H1] |==|  0.38952
USER: genes 23 Torsion [C]-CA--CB-[CG] |==|  0.91704
USER: genes 24 Torsion [CA]-CB--CG-[CD] |==|  0.53509
USER: genes 25 Torsion [CB]-CG--CD-[CE] |==|  0.05829
USER: genes 26 Torsion [CG]-CD--CE-[NZ] |==|  0.24879
USER: genes 27 Torsion [CD]-CE--NZ-[HZ1] |==|  0.34706
USER: genes 28 Torsion [C]-CA--CB-[CG1] |==|  0.14662
ROOT
ATOM      1  CA  LEU B   4      18.831  24.888  15.694  1.00 33.70 LIG 0.18  C 
ENDROOT
BRANCH 1 2
ATOM      2  C   LEU B   4      18.247  23.653  16.374  1.00 36.59 LIG 0.24  C 
ATOM      3 O    LEU B   4      17.633  23.746  17.438  1.00 35.62 LIG-0.27  OA
ATOM      4  N   ARG B   5      18.443  22.498  15.749  1.00 30.50 LIG-0.35  N 
ATOM      5 H    ARG B   5      18.812  22.432  14.976  1.00 30.50 LIG 0.16  HD
BRANCH 4 6
ATOM      6  CA  ARG B   5      18.041  21.220  16.328  1.00 32.70 LIG 0.18  C 
BRANCH 6 7
ATOM      7  CB  ARG B   5      16.662  20.790  15.815  1.00 28.13 LIG 0.04  C 
BRANCH 7 8
ATOM      8  CG  ARG B   5      15.852  19.997  16.836  1.00 29.30 LIG 0.02  C 
BRANCH 8 9
ATOM      9  CD  ARG B   5      15.059  20.888  17.777  1.00 34.57 LIG 0.14  C 
BRANCH 9 10
ATOM     10  NE  ARG B   5      15.905  21.714  18.624  1.00 41.05 LIG-0.23  N 
ATOM     11 HE   ARG B   5      16.321  22.369  18.254  1.00 41.05 LIG 0.18  HD
ATOM     12  CZ  ARG B   5      16.079  21.527  19.929  1.00 43.39 LIG 0.67  C 
ATOM     13  NH2 ARG B   5      16.883  22.335  20.610  1.00 33.00 LIG-0.23  N 
ATOM     14  NH1 ARG B   5      15.458  20.538  20.554  1.00 41.15 LIG-0.23  N 
ATOM     15 1HH2 ARG B   5      17.289  22.977  20.208  1.00 33.00 LIG 0.17  HD
ATOM     16 2HH2 ARG B   5      16.997  22.216  21.455  1.00 33.00 LIG 0.17  HD
ATOM     17 2HH1 ARG B   5      15.574  20.422  21.399  1.00 41.15 LIG 0.17  HD
ATOM     18 1HH1 ARG B   5      14.937  20.012  20.116  1.00 41.15 LIG 0.17  HD
ENDBRANCH 9 10
ENDBRANCH 8 9
ENDBRANCH 7 8
ENDBRANCH 6 7
BRANCH 6 19
ATOM     19  C   ARG B   5      19.074  20.146  16.013  1.00 32.44 LIG 0.24  C 
ATOM     20 O    ARG B   5      19.160  19.692  14.873  1.00 30.81 LIG-0.27  OA
ATOM     21  N   THR B   6      19.866  19.750  17.009  1.00 35.68 LIG-0.34  N 
ATOM     22 H    THR B   6      19.891  20.111  17.789  1.00 35.68 LIG 0.16  HD
BRANCH 21 23
ATOM     23  CA  THR B   6      20.782  18.623  16.817  1.00 34.81 LIG 0.20  C 
BRANCH 23 24
ATOM     24  C   THR B   6      19.997  17.357  16.540  1.00 33.55 LIG 0.24  C 
ATOM     25 O    THR B   6      19.058  17.032  17.266  1.00 36.63 LIG-0.27  OA
ATOM     26  N   ALA B   7      20.386  16.644  15.490  1.00 35.45 LIG-0.34  N 
ATOM     27 H    ALA B   7      21.057  16.845  14.991  1.00 35.45 LIG 0.16  HD
BRANCH 26 28
ATOM     28  CA  ALA B   7      19.681  15.432  15.099  1.00 34.62 LIG 0.18  C 
ATOM     29  CB  ALA B   7      18.834  15.690  13.859  1.00 31.37 LIG 0.04  C 
BRANCH 28 30
ATOM     30  C   ALA B   7      20.645  14.274  14.861  1.00 35.30 LIG 0.20  C 
ATOM     31 OXT  ALA B   7      20.279  13.295  14.209  1.00 33.15 LIG-0.65  OA
ATOM     32 O    ALA B   7      21.793  14.284  15.319  1.00 30.65 LIG-0.65  OA
ENDBRANCH 28 30
ENDBRANCH 26 28
ENDBRANCH 23 24
BRANCH 23 33
ATOM     33  CB  THR B   6      21.699  18.348  18.025  1.00 40.55 LIG 0.15  C 
ATOM     34  CG2 THR B   6      22.093  16.892  18.041  1.00 29.01 LIG 0.04  C 
BRANCH 33 35
ATOM     35 OG1  THR B   6      22.864  19.191  17.988  1.00 38.86 LIG-0.39  OA
ATOM     36 HG1  THR B   6      23.503  18.773  17.636  1.00 38.86 LIG 0.21  HD
ENDBRANCH 33 35
ENDBRANCH 23 33
ENDBRANCH 21 23
ENDBRANCH 6 19
ENDBRANCH 4 6
ENDBRANCH 1 2
BRANCH 1 37
ATOM     37  CB  LEU B   4      20.344  24.936  15.938  1.00 31.55 LIG 0.04  C 
BRANCH 37 38
ATOM     38  CG  LEU B   4      21.276  25.749  15.031  1.00 40.70 LIG-0.02  C 
ATOM     39  CD2 LEU B   4      21.505  27.135  15.632  1.00 33.83 LIG 0.01  C 
ATOM     40  CD1 LEU B   4      20.788  25.847  13.580  1.00 30.33 LIG 0.01  C 
ENDBRANCH 37 38
ENDBRANCH 1 37
BRANCH 1 41
ATOM     41  N   LEU B   4      18.209  26.116  16.182  1.00 32.96 LIG-0.35  N 
ATOM     42  C   VAL B   3      17.520  26.929  15.388  1.00 32.71 LIG 0.24  C 
ATOM     43 O    VAL B   3      17.300  26.682  14.200  1.00 29.46 LIG-0.27  OA
ATOM     44 H    LEU B   4      18.329  26.261  17.021  1.00 32.96 LIG 0.16  HD
BRANCH 42 45
ATOM     45  CA  VAL B   3      17.011  28.222  16.018  1.00 32.18 LIG 0.18  C 
BRANCH 45 46
ATOM     46  N   VAL B   3      17.943  29.286  15.676  1.00 27.49 LIG-0.35  N 
ATOM     47 H    VAL B   3      17.690  29.781  15.020  1.00 27.49 LIG 0.16  HD
ATOM     48  C   PRO B   2      19.082  29.457  16.336  1.00 36.99 LIG 0.24  C 
ATOM     49 O    PRO B   2      19.345  28.890  17.398  1.00 37.97 LIG-0.27  OA
BRANCH 48 50
ATOM     50  CA  PRO B   2      20.085  30.409  15.702  1.00 42.38 LIG 0.18  C 
ATOM     51  CB  PRO B   2      20.218  31.654  16.576  1.00 38.27 LIG 0.04  C 
ATOM     52  CG  PRO B   2      19.199  32.598  16.030  1.00 37.96 LIG 0.02  C 
ATOM     53  CD  PRO B   2      19.180  32.357  14.541  1.00 39.69 LIG 0.13  C 
ATOM     54  N   PRO B   2      19.622  30.954  14.422  1.00 45.78 LIG-0.34  N 
ATOM     55  C   LYS B   1      19.575  30.224  13.297  1.00 52.29 LIG 0.25  C 
ATOM     56 O    LYS B   1      19.815  29.015  13.269  1.00 54.18 LIG-0.27  OA
BRANCH 55 57
ATOM     57  CA  LYS B   1      19.203  30.963  12.021  1.00 57.44 LIG 0.28  C 
BRANCH 57 58
ATOM     58  N   LYS B   1      19.937  30.431  10.875  1.00 70.48 LIG-0.07  N 
ATOM     59 H1   LYS B   1      19.399  30.396  10.167  1.00 70.48 LIG 0.28  HD
ATOM     60 H2   LYS B   1      20.630  30.960  10.694  1.00 70.48 LIG 0.28  HD
ATOM     61 H3   LYS B   1      20.230  29.613  11.064  1.00 70.48 LIG 0.28  HD
ENDBRANCH 57 58
BRANCH 57 62
ATOM     62  CB  LYS B   1      17.697  30.894  11.773  1.00 56.26 LIG 0.04  C 
BRANCH 62 63
ATOM     63  CG  LYS B   1      17.055  29.634  12.320  1.00 62.75 LIG 0.00  C 
BRANCH 63 64
ATOM     64  CD  LYS B   1      15.646  29.460  11.791  1.00 59.03 LIG 0.03  C 
BRANCH 64 65
ATOM     65  CE  LYS B   1      15.442  30.256  10.513  1.00 61.45 LIG 0.23  C 
BRANCH 65 66
ATOM     66  NZ  LYS B   1      15.793  29.454   9.303  1.00 70.72 LIG-0.08  N 
ATOM     67 HZ1  LYS B   1      15.101  29.440   8.745  1.00 70.72 LIG 0.27  HD
ATOM     68 HZ2  LYS B   1      16.495  29.821   8.896  1.00 70.72 LIG 0.27  HD
ATOM     69 HZ3  LYS B   1      15.994  28.621   9.547  1.00 70.72 LIG 0.27  HD
ENDBRANCH 65 66
ENDBRANCH 64 65
ENDBRANCH 63 64
ENDBRANCH 62 63
ENDBRANCH 57 62
ENDBRANCH 55 57
ENDBRANCH 48 50
ENDBRANCH 45 46
BRANCH 45 70
ATOM     70  CB  VAL B   3      15.590  28.531  15.510  1.00 30.17 LIG 0.01  C 
ATOM     71  CG1 VAL B   3      14.669  27.336  15.711  1.00 32.03 LIG 0.01  C 
ATOM     72  CG2 VAL B   3      15.044  29.758  16.215  1.00 31.22 LIG 0.01  C 
ENDBRANCH 45 70
ENDBRANCH 42 45
ENDBRANCH 1 41
TORSDOF 27
ENDMDL
MODEL 10
USER: ADFR SOLUTION from run 146
USER: SCORE 19.531336 LL:  -5.223 LR: -15.169 RR:   0.000 FEB:  -7.115
USER: RMSD 4.756627
USER: SEED 145
USER: STATUS no improvement in best in 3 clusters for 5 generations
USER: GENES 29
USER: genes 0 Translation |==|  0.54554 0.41840 0.50505
USER: genes 1 Rotation |==|  0.53595 0.44016 0.41510 0.98777
USER: genes 2 Torsion [N]-CA--C-[N] |==|  0.34347
USER: genes 3 Torsion [C]-N--CA-[C] |==|  0.71153
USER: genes 4 Torsion [N]-CA--CB-[CG] |==|  0.37769
USER: genes 5 Torsion [CA]-CB--CG-[CD] |==|  0.31467
USER: genes 6 Torsion [CB]-CG--CD-[NE] |==|  0.54969
USER: genes 7 Torsion [CG]-CD--NE-[HE] |==|  0.00054
USER: genes 8 Torsion [N]-CA--C-[N] |==|  0.47713
USER: genes 9 Torsion [C]-N--CA-[CB] |==|  0.55922
USER: genes 10 Torsion [N]-CA--C-[N] |==|  0.35572
USER: genes 11 Torsion [C]-N--CA-[CB] |==|  0.18630
USER: genes 12 Torsion [N]-CA--C-[OXT] |==|  0.65641
USER: genes 13 Torsion [N]-CA--CB-[CG2] |==|  0.84822
USER: genes 14 Torsion [CA]-CB--OG1-[HG1] |==|  0.33093
USER: genes 15 Torsion [C]-CA--CB-[CG] |==|  0.51051
USER: genes 16 Torsion [CA]-CB--CG-[CD2] |==|  0.26315
USER: genes 17 Torsion [C]-CA--N-[C] |==|  0.69433
USER: genes 18 Torsion [N]-C--CA-[N] |==|  0.39522
USER: genes 19 Torsion [C]-CA--N-[C] |==|  0.76453
USER: genes 20 Torsion [N]-C--CA-[CB] |==|  0.40065
USER: genes 21 Torsion [N]-C--CA-[N] |==|  0.31003
USER: genes 22 Torsion [C]-CA--N-[H1] |==|  0.84111
USER: genes 23 Torsion [C]-CA--CB-[CG] |==|  0.27765
USER: genes 24 Torsion [CA]-CB--CG-[CD] |==|  0.62820
USER: genes 25 Torsion [CB]-CG--CD-[CE] |==|  0.71521
USER: genes 26 Torsion [CG]-CD--CE-[NZ] |==|  0.39613
USER: genes 27 Torsion [CD]-CE--NZ-[HZ1] |==|  0.45863
USER: genes 28 Torsion [C]-CA--CB-[CG1] |==|  0.46985
ROOT
ATOM      1  CA  LEU B   4      17.806  22.924  16.521  1.00 33.70 LIG 0.18  C 
ENDROOT
BRANCH 1 2
ATOM      2  C   LEU B   4      16.717  21.897  16.809  1.00 36.59 LIG 0.24  C 
ATOM      3 O    LEU B   4      16.268  21.750  17.948  1.00 35.62 LIG-0.27  OA
ATOM      4  N   ARG B   5      16.295  21.188  15.768  1.00 30.50 LIG-0.35  N 
ATOM      5 H    ARG B   5      16.555  21.328  14.961  1.00 30.50 LIG 0.16  HD
BRANCH 4 6
ATOM      6  CA  ARG B   5      15.338  20.094  15.904  1.00 32.70 LIG 0.18  C 
BRANCH 6 7
ATOM      7  CB  ARG B   5      14.235  20.190  14.845  1.00 28.13 LIG 0.04  C 
BRANCH 7 8
ATOM      8  CG  ARG B   5      13.904  18.854  14.188  1.00 29.30 LIG 0.02  C 
BRANCH 8 9
ATOM      9  CD  ARG B   5      12.507  18.363  14.525  1.00 34.57 LIG 0.14  C 
BRANCH 9 10
ATOM     10  NE  ARG B   5      12.327  16.944  14.265  1.00 41.05 LIG-0.23  N 
ATOM     11 HE   ARG B   5      12.998  16.506  13.955  1.00 41.05 LIG 0.18  HD
ATOM     12  CZ  ARG B   5      11.195  16.275  14.472  1.00 43.39 LIG 0.67  C 
ATOM     13  NH2 ARG B   5      11.133  14.979  14.192  1.00 33.00 LIG-0.23  N 
ATOM     14  NH1 ARG B   5      10.129  16.895  14.955  1.00 41.15 LIG-0.23  N 
ATOM     15 1HH2 ARG B   5      11.823  14.573  13.877  1.00 33.00 LIG 0.17  HD
ATOM     16 2HH2 ARG B   5      10.403  14.544  14.325  1.00 33.00 LIG 0.17  HD
ATOM     17 2HH1 ARG B   5       9.400  16.457  15.087  1.00 41.15 LIG 0.17  HD
ATOM     18 1HH1 ARG B   5      10.165  17.735  15.136  1.00 41.15 LIG 0.17  HD
ENDBRANCH 9 10
ENDBRANCH 8 9
ENDBRANCH 7 8
ENDBRANCH 6 7
BRANCH 6 19
ATOM     19  C   ARG B   5      16.049  18.752  15.799  1.00 32.44 LIG 0.24  C 
ATOM     20 O    ARG B   5      17.239  18.709  15.487  1.00 30.81 LIG-0.27  OA
ATOM     21  N   THR B   6      15.336  17.659  16.072  1.00 35.68 LIG-0.34  N 
ATOM     22 H    THR B   6      14.533  17.663  16.378  1.00 35.68 LIG 0.16  HD
BRANCH 21 23
ATOM     23  CA  THR B   6      15.911  16.331  15.852  1.00 34.81 LIG 0.20  C 
BRANCH 23 24
ATOM     24  C   THR B   6      16.759  16.333  14.597  1.00 33.55 LIG 0.24  C 
ATOM     25 O    THR B   6      16.300  16.748  13.533  1.00 36.63 LIG-0.27  OA
ATOM     26  N   ALA B   7      17.995  15.866  14.723  1.00 35.45 LIG-0.34  N 
ATOM     27 H    ALA B   7      18.320  15.548  15.453  1.00 35.45 LIG 0.16  HD
BRANCH 26 28
ATOM     28  CA  ALA B   7      18.917  15.860  13.596  1.00 34.62 LIG 0.18  C 
ATOM     29  CB  ALA B   7      19.279  17.286  13.201  1.00 31.37 LIG 0.04  C 
BRANCH 28 30
ATOM     30  C   ALA B   7      20.174  15.052  13.906  1.00 35.30 LIG 0.20  C 
ATOM     31 OXT  ALA B   7      21.283  15.580  13.806  1.00 33.15 LIG-0.65  OA
ATOM     32 O    ALA B   7      20.113  13.865  14.244  1.00 30.65 LIG-0.65  OA
ENDBRANCH 28 30
ENDBRANCH 26 28
ENDBRANCH 23 24
BRANCH 23 33
ATOM     33  CB  THR B   6      14.863  15.211  15.705  1.00 40.55 LIG 0.15  C 
ATOM     34  CG2 THR B   6      13.943  15.216  16.901  1.00 29.01 LIG 0.04  C 
BRANCH 33 35
ATOM     35 OG1  THR B   6      14.114  15.365  14.485  1.00 38.86 LIG-0.39  OA
ATOM     36 HG1  THR B   6      14.228  14.690  13.999  1.00 38.86 LIG 0.21  HD
ENDBRANCH 33 35
ENDBRANCH 23 33
ENDBRANCH 21 23
ENDBRANCH 6 19
ENDBRANCH 4 6
ENDBRANCH 1 2
BRANCH 1 37
ATOM     37  CB  LEU B   4      19.094  22.518  17.247  1.00 31.55 LIG 0.04  C 
BRANCH 37 38
ATOM     38  CG  LEU B   4      20.345  23.406  17.217  1.00 40.70 LIG-0.02  C 
ATOM     39  CD2 LEU B   4      20.374  24.303  18.452  1.00 33.83 LIG 0.01  C 
ATOM     40  CD1 LEU B   4      20.481  24.229  15.929  1.00 30.33 LIG 0.01  C 
ENDBRANCH 37 38
ENDBRANCH 1 37
BRANCH 1 41
ATOM     41  N   LEU B   4      17.403  24.266  16.935  1.00 32.96 LIG-0.35  N 
ATOM     42  C   VAL B   3      17.132  25.229  16.061  1.00 32.71 LIG 0.24  C 
ATOM     43 O    VAL B   3      17.137  25.052  14.840  1.00 29.46 LIG-0.27  OA
ATOM     44 H    LEU B   4      17.360  24.372  17.788  1.00 32.96 LIG 0.16  HD
BRANCH 42 45
ATOM     45  CA  VAL B   3      16.818  26.605  16.642  1.00 32.18 LIG 0.18  C 
BRANCH 45 46
ATOM     46  N   VAL B   3      17.410  27.607  15.768  1.00 27.49 LIG-0.35  N 
ATOM     47 H    VAL B   3      16.870  27.928  15.181  1.00 27.49 LIG 0.16  HD
ATOM     48  C   PRO B   2      18.678  27.978  15.886  1.00 36.99 LIG 0.24  C 
ATOM     49 O    PRO B   2      19.388  27.679  16.849  1.00 37.97 LIG-0.27  OA
BRANCH 48 50
ATOM     50  CA  PRO B   2      19.241  28.807  14.742  1.00 42.38 LIG 0.18  C 
ATOM     51  CB  PRO B   2      20.219  29.839  15.303  1.00 38.27 LIG 0.04  C 
ATOM     52  CG  PRO B   2      19.375  31.041  15.567  1.00 37.96 LIG 0.02  C 
ATOM     53  CD  PRO B   2      18.344  31.061  14.465  1.00 39.69 LIG 0.13  C 
ATOM     54  N   PRO B   2      18.226  29.639  14.089  1.00 45.78 LIG-0.34  N 
ATOM     55  C   LYS B   1      17.283  29.131  13.281  1.00 52.29 LIG 0.25  C 
ATOM     56 O    LYS B   1      17.127  27.921  13.105  1.00 54.18 LIG-0.27  OA
BRANCH 55 57
ATOM     57  CA  LYS B   1      16.386  30.133  12.569  1.00 57.44 LIG 0.28  C 
BRANCH 57 58
ATOM     58  N   LYS B   1      16.644  30.137  11.130  1.00 70.48 LIG-0.07  N 
ATOM     59 H1   LYS B   1      17.503  30.318  10.983  1.00 70.48 LIG 0.28  HD
ATOM     60 H2   LYS B   1      16.448  29.337  10.791  1.00 70.48 LIG 0.28  HD
ATOM     61 H3   LYS B   1      16.140  30.757  10.740  1.00 70.48 LIG 0.28  HD
ENDBRANCH 57 58
BRANCH 57 62
ATOM     62  CB  LYS B   1      14.913  29.837  12.849  1.00 56.26 LIG 0.04  C 
BRANCH 62 63
ATOM     63  CG  LYS B   1      14.314  30.727  13.920  1.00 62.75 LIG 0.00  C 
BRANCH 63 64
ATOM     64  CD  LYS B   1      13.508  29.920  14.917  1.00 59.03 LIG 0.03  C 
BRANCH 64 65
ATOM     65  CE  LYS B   1      12.018  30.059  14.655  1.00 61.45 LIG 0.23  C 
BRANCH 65 66
ATOM     66  NZ  LYS B   1      11.295  28.774  14.895  1.00 70.72 LIG-0.08  N 
ATOM     67 HZ1  LYS B   1      10.421  28.931  14.947  1.00 70.72 LIG 0.27  HD
ATOM     68 HZ2  LYS B   1      11.456  28.212  14.224  1.00 70.72 LIG 0.27  HD
ATOM     69 HZ3  LYS B   1      11.576  28.414  15.659  1.00 70.72 LIG 0.27  HD
ENDBRANCH 65 66
ENDBRANCH 64 65
ENDBRANCH 63 64
ENDBRANCH 62 63
ENDBRANCH 57 62
ENDBRANCH 55 57
ENDBRANCH 48 50
ENDBRANCH 45 46
BRANCH 45 70
ATOM     70  CB  VAL B   3      15.295  26.790  16.764  1.00 30.17 LIG 0.01  C 
ATOM     71  CG1 VAL B   3      14.962  28.032  17.580  1.00 32.03 LIG 0.01  C 
ATOM     72  CG2 VAL B   3      14.670  26.868  15.384  1.00 31.22 LIG 0.01  C 
ENDBRANCH 45 70
ENDBRANCH 42 45
ENDBRANCH 1 41
TORSDOF 27
ENDMDL
