MODEL 1
USER: ADFR SOLUTION from run 118
USER: SCORE 21.758743 LL:  -4.454 LR: -18.549 RR:   0.000 FEB:  -9.898
USER: RMSD 3.379668
USER: SEED 117
USER: STATUS no improvement in best in 6 clusters for 5 generations
USER: GENES 31
USER: genes 0 Translation |==|  0.58692 0.43564 0.46743
USER: genes 1 Rotation |==|  0.52284 0.47455 0.49555 0.99881
USER: genes 2 Torsion [N]-CA--C-[N] |==|  0.41914
USER: genes 3 Torsion [C]-N--CA-[C] |==|  0.68525
USER: genes 4 Torsion [N]-CA--C-[N] |==|  0.88926
USER: genes 5 Torsion [C]-N--CA-[C] |==|  0.84646
USER: genes 6 Torsion [N]-CA--C-[N] |==|  0.33925
USER: genes 7 Torsion [C]-N--CA-[CB] |==|  0.82407
USER: genes 8 Torsion [N]-CA--CB-[CG] |==|  0.85062
USER: genes 9 Torsion [CA]-CB--CG-[OD1] |==|  0.29309
USER: genes 10 Torsion [N]-CA--C-[N] |==|  0.37163
USER: genes 11 Torsion [N]-CA--CB-[CG] |==|  0.47785
USER: genes 12 Torsion [CA]-CB--CG-[CD] |==|  0.43639
USER: genes 13 Torsion [CB]-CG--CD-[CE] |==|  0.44518
USER: genes 14 Torsion [CG]-CD--CE-[NZ] |==|  0.34644
USER: genes 15 Torsion [CD]-CE--NZ-[HZ3] |==|  0.18636
USER: genes 16 Torsion [N]-CA--CB-[CG1] |==|  0.36259
USER: genes 17 Torsion [CA]-CB--CG1-[CD1] |==|  0.58501
USER: genes 18 Torsion [CB]-CA--N-[C] |==|  0.51146
USER: genes 19 Torsion [N]-C--CA-[N] |==|  0.93268
USER: genes 20 Torsion [C]-CA--N-[C] |==|  0.76913
USER: genes 21 Torsion [N]-C--CA-[N] |==|  0.38532
USER: genes 22 Torsion [C]-CA--N-[C] |==|  0.83020
USER: genes 23 Torsion [N]-C--CA-[N] |==|  0.52778
USER: genes 24 Torsion [C]-CA--N-[C] |==|  0.75602
USER: genes 25 Torsion [C]-CA--CB-[CG] |==|  0.68732
USER: genes 26 Torsion [CA]-CB--CG-[OD1] |==|  0.28842
USER: genes 27 Torsion [C]-CA--CB-[OG] |==|  0.11130
USER: genes 28 Torsion [CA]-CB--OG-[HG] |==|  0.36581
USER: genes 29 Torsion [C]-CA--CB-[CG] |==|  0.24587
USER: genes 30 Torsion [CA]-CB--CG-[OD1] |==|  0.13738
ROOT
ATOM      1  CA  ALA Z  41     -14.894  11.292  -6.082  1.00 21.22 LIG 0.17  C 
ATOM      2  CB  ALA Z  41     -14.612  11.835  -4.683  1.00 23.94 LIG 0.04  C 
ENDROOT
BRANCH 1 3
ATOM      3  C   ALA Z  41     -15.669   9.978  -5.994  1.00 23.72 LIG 0.24  C 
ATOM      4 O    ALA Z  41     -16.899   9.968  -6.055  1.00 25.98 LIG-0.27  OA
ATOM      5  N   ILE Z  42     -14.949   8.871  -5.847  1.00 25.83 LIG-0.35  N 
ATOM      6 H    ILE Z  42     -14.090   8.852  -5.807  1.00 25.83 LIG 0.16  HD
BRANCH 5 7
ATOM      7  CA  ILE Z  42     -15.596   7.569  -5.739  1.00 30.93 LIG 0.18  C 
BRANCH 7 8
ATOM      8  C   ILE Z  42     -15.409   6.940  -4.357  1.00 34.23 LIG 0.24  C 
ATOM      9 O    ILE Z  42     -16.337   6.343  -3.811  1.00 38.88 LIG-0.27  OA
ATOM     10  N   LYS Z  43     -14.215   7.082  -3.788  1.00 34.26 LIG-0.35  N 
ATOM     11 H    LYS Z  43     -13.574   7.554  -4.112  1.00 34.26 LIG 0.16  HD
BRANCH 10 12
ATOM     12  CA  LYS Z  43     -13.908   6.414  -2.524  1.00 43.39 LIG 0.18  C 
BRANCH 12 13
ATOM     13  C   LYS Z  43     -14.891   6.730  -1.395  1.00 55.57 LIG 0.24  C 
ATOM     14  N   ASN Z  44     -15.516   5.696  -0.840  1.00 60.92 LIG-0.34  N 
ATOM     15 H    ASN Z  44     -15.376   4.878  -1.066  1.00 60.92 LIG 0.16  HD
ATOM     16 O    LYS Z  43     -15.070   7.897  -1.041  1.00 61.19 LIG-0.27  OA
BRANCH 14 17
ATOM     17  CA  ASN Z  44     -16.514   5.858   0.222  1.00 70.44 LIG 0.19  C 
BRANCH 17 18
ATOM     18  CB  ASN Z  44     -15.893   6.471   1.486  1.00 74.13 LIG 0.14  C 
BRANCH 18 19
ATOM     19  CG  ASN Z  44     -14.679   5.701   1.976  1.00 76.38 LIG 0.22  C 
ATOM     20  ND2 ASN Z  44     -14.917   4.540   2.579  1.00 76.67 LIG-0.37  N 
ATOM     21 21HD ASN Z  44     -14.262   4.067   2.875  1.00 76.67 LIG 0.16  HD
ATOM     22 22HD ASN Z  44     -15.724   4.261   2.673  1.00 76.67 LIG 0.16  HD
ATOM     23 OD1  ASN Z  44     -13.541   6.146   1.815  1.00 76.30 LIG-0.27  OA
ENDBRANCH 18 19
ENDBRANCH 17 18
BRANCH 17 24
ATOM     24  C   ASN Z  44     -17.727   6.680  -0.221  1.00 74.17 LIG 0.28  C 
ATOM     25 O    ASN Z  44     -17.583   7.738  -0.836  1.00 72.97 LIG-0.27  OA
ATOM     26  N   NH2 Z  45     -18.919   6.186   0.099  1.00 76.38 LIG-0.11  N 
ENDBRANCH 17 24
ENDBRANCH 14 17
ENDBRANCH 12 13
BRANCH 12 27
ATOM     27  CB  LYS Z  43     -12.466   6.695  -2.090  1.00 40.99 LIG 0.04  C 
BRANCH 27 28
ATOM     28  CG  LYS Z  43     -12.146   6.186  -0.688  1.00 39.01 LIG 0.00  C 
BRANCH 28 29
ATOM     29  CD  LYS Z  43     -10.653   5.960  -0.486  1.00 38.38 LIG 0.03  C 
BRANCH 29 30
ATOM     30  CE  LYS Z  43     -10.303   5.931   0.999  1.00 38.40 LIG 0.23  C 
BRANCH 30 31
ATOM     31  NZ  LYS Z  43      -9.588   4.682   1.406  1.00 35.26 LIG-0.08  N 
ATOM     32 HZ3  LYS Z  43      -8.783   4.664   1.026  1.00 35.26 LIG 0.27  HD
ATOM     33 HZ2  LYS Z  43     -10.056   3.972   1.143  1.00 35.26 LIG 0.27  HD
ATOM     34 HZ1  LYS Z  43      -9.498   4.667   2.291  1.00 35.26 LIG 0.27  HD
ENDBRANCH 30 31
ENDBRANCH 29 30
ENDBRANCH 28 29
ENDBRANCH 27 28
ENDBRANCH 12 27
ENDBRANCH 10 12
ENDBRANCH 7 8
BRANCH 7 35
ATOM     35  CB  ILE Z  42     -15.098   6.585  -6.814  1.00 30.84 LIG 0.01  C 
ATOM     36  CG2 ILE Z  42     -13.887   7.160  -7.542  1.00 35.03 LIG 0.01  C 
BRANCH 35 37
ATOM     37  CG1 ILE Z  42     -14.705   5.253  -6.180  1.00 30.67 LIG 0.00  C 
ATOM     38  CD1 ILE Z  42     -13.590   4.538  -6.918  1.00 26.38 LIG 0.01  C 
ENDBRANCH 35 37
ENDBRANCH 7 35
ENDBRANCH 5 7
ENDBRANCH 1 3
BRANCH 1 39
ATOM     39  N   ALA Z  41     -15.614  12.278  -6.884  1.00 17.22 LIG-0.35  N 
ATOM     40  C   ASN Z  40     -16.041  11.998  -8.114  1.00 21.77 LIG 0.24  C 
ATOM     41 O    ASN Z  40     -15.863  10.904  -8.653  1.00 19.61 LIG-0.27  OA
ATOM     42 H    ALA Z  41     -15.732  13.036  -6.495  1.00 17.22 LIG 0.16  HD
BRANCH 40 43
ATOM     43  CA  ASN Z  40     -16.781  13.107  -8.853  1.00 23.64 LIG 0.18  C 
BRANCH 43 44
ATOM     44  N   ASN Z  40     -17.406  14.092  -7.974  1.00 28.07 LIG-0.34  N 
ATOM     45 H    ASN Z  40     -16.944  14.806  -7.845  1.00 28.07 LIG 0.16  HD
ATOM     46  C   SER Z  39     -18.598  13.860  -7.438  1.00 29.35 LIG 0.24  C 
ATOM     47 O    SER Z  39     -19.196  12.791  -7.574  1.00 27.34 LIG-0.27  OA
BRANCH 46 48
ATOM     48  CA  SER Z  39     -19.210  14.987  -6.620  1.00 36.10 LIG 0.20  C 
BRANCH 48 49
ATOM     49  N   SER Z  39     -20.630  15.055  -6.942  1.00 45.98 LIG-0.34  N 
ATOM     50  C   ASN Z  38     -21.054  15.309  -8.176  1.00 57.47 LIG 0.24  C 
ATOM     51 O    ASN Z  38     -20.314  15.746  -9.060  1.00 60.64 LIG-0.27  OA
ATOM     52 H    SER Z  39     -21.153  14.919  -6.273  1.00 45.98 LIG 0.16  HD
BRANCH 50 53
ATOM     53  CA  ASN Z  38     -22.540  15.029  -8.448  1.00 65.29 LIG 0.18  C 
BRANCH 53 54
ATOM     54  N   ASN Z  38     -22.979  15.084  -9.846  1.00 70.64 LIG-0.35  N 
ATOM     55 H    ASN Z  38     -22.951  14.323 -10.246  1.00 70.64 LIG 0.16  HD
ATOM     56  C   ACE Z  37     -23.383  16.204 -10.440  1.00 74.22 LIG 0.21  C 
ATOM     57  CH3 ACE Z  37     -23.837  16.066 -11.891  1.00 75.88 LIG 0.12  C 
ATOM     58 O    ACE Z  37     -23.393  17.298  -9.878  1.00 75.32 LIG-0.27  OA
ENDBRANCH 53 54
BRANCH 53 59
ATOM     59  CB  ASN Z  38     -22.915  13.673  -7.834  1.00 65.91 LIG 0.12  C 
BRANCH 59 60
ATOM     60  CG  ASN Z  38     -23.251  12.621  -8.880  1.00 66.48 LIG 0.15  C 
ATOM     61 OD1  ASN Z  38     -22.318  11.705  -9.108  1.00 67.09 LIG-0.18  OA
ATOM     62  ND2 ASN Z  38     -24.329  12.634  -9.477  1.00 65.12 LIG-0.38  N 
ATOM     63 22HD ASN Z  38     -24.910  13.244  -9.303  1.00 65.12 LIG 0.16  HD
ATOM     64 21HD ASN Z  38     -24.500  12.033 -10.068  1.00 65.12 LIG 0.16  HD
ENDBRANCH 59 60
ENDBRANCH 53 59
ENDBRANCH 50 53
ENDBRANCH 48 49
BRANCH 48 65
ATOM     65  CB  SER Z  39     -18.986  14.726  -5.134  1.00 33.12 LIG 0.20  C 
BRANCH 65 66
ATOM     66 OG   SER Z  39     -17.683  14.205  -4.906  1.00 30.52 LIG-0.40  OA
ATOM     67 HG   SER Z  39     -17.317  14.628  -4.280  1.00 30.52 LIG 0.21  HD
ENDBRANCH 65 66
ENDBRANCH 48 65
ENDBRANCH 46 48
ENDBRANCH 43 44
BRANCH 43 68
ATOM     68  CB  ASN Z  40     -15.836  13.779  -9.852  1.00 19.94 LIG 0.14  C 
BRANCH 68 69
ATOM     69  CG  ASN Z  40     -15.843  13.093 -11.204  1.00 19.97 LIG 0.22  C 
ATOM     70 OD1  ASN Z  40     -16.906  12.835 -11.775  1.00 23.42 LIG-0.27  OA
ATOM     71  ND2 ASN Z  40     -14.658  12.783 -11.721  1.00 19.32 LIG-0.37  N 
ATOM     72 21HD ASN Z  40     -14.612  12.386 -12.483  1.00 19.32 LIG 0.16  HD
ATOM     73 22HD ASN Z  40     -13.938  12.979 -11.293  1.00 19.32 LIG 0.16  HD
ENDBRANCH 68 69
ENDBRANCH 43 68
ENDBRANCH 40 43
ENDBRANCH 1 39
TORSDOF 29
ENDMDL
MODEL 2
USER: ADFR SOLUTION from run 65
USER: SCORE 19.742371 LL:  -4.027 LR: -17.858 RR:   0.000 FEB:  -9.207
USER: RMSD 4.750513
USER: SEED 64
USER: STATUS no improvement in best in 12 clusters for 5 generations
USER: GENES 31
USER: genes 0 Translation |==|  0.60794 0.43905 0.46396
USER: genes 1 Rotation |==|  0.53204 0.49415 0.46085 0.99740
USER: genes 2 Torsion [N]-CA--C-[N] |==|  0.43171
USER: genes 3 Torsion [C]-N--CA-[C] |==|  0.68588
USER: genes 4 Torsion [N]-CA--C-[N] |==|  0.89485
USER: genes 5 Torsion [C]-N--CA-[C] |==|  0.86304
USER: genes 6 Torsion [N]-CA--C-[N] |==|  0.34176
USER: genes 7 Torsion [C]-N--CA-[CB] |==|  0.84944
USER: genes 8 Torsion [N]-CA--CB-[CG] |==|  0.69353
USER: genes 9 Torsion [CA]-CB--CG-[OD1] |==|  0.64109
USER: genes 10 Torsion [N]-CA--C-[N] |==|  0.42148
USER: genes 11 Torsion [N]-CA--CB-[CG] |==|  0.52222
USER: genes 12 Torsion [CA]-CB--CG-[CD] |==|  0.48425
USER: genes 13 Torsion [CB]-CG--CD-[CE] |==|  0.41020
USER: genes 14 Torsion [CG]-CD--CE-[NZ] |==|  0.35647
USER: genes 15 Torsion [CD]-CE--NZ-[HZ3] |==|  0.18015
USER: genes 16 Torsion [N]-CA--CB-[CG1] |==|  0.37307
USER: genes 17 Torsion [CA]-CB--CG1-[CD1] |==|  0.72192
USER: genes 18 Torsion [CB]-CA--N-[C] |==|  0.51667
USER: genes 19 Torsion [N]-C--CA-[N] |==|  0.96480
USER: genes 20 Torsion [C]-CA--N-[C] |==|  0.61242
USER: genes 21 Torsion [N]-C--CA-[N] |==|  0.25918
USER: genes 22 Torsion [C]-CA--N-[C] |==|  0.66882
USER: genes 23 Torsion [N]-C--CA-[N] |==|  0.28489
USER: genes 24 Torsion [C]-CA--N-[C] |==|  0.74117
USER: genes 25 Torsion [C]-CA--CB-[CG] |==|  0.43786
USER: genes 26 Torsion [CA]-CB--CG-[OD1] |==|  0.63395
USER: genes 27 Torsion [C]-CA--CB-[OG] |==|  0.51188
USER: genes 28 Torsion [CA]-CB--OG-[HG] |==|  0.55449
USER: genes 29 Torsion [C]-CA--CB-[CG] |==|  0.20039
USER: genes 30 Torsion [CA]-CB--CG-[OD1] |==|  0.12177
ROOT
ATOM      1  CA  ALA Z  41     -14.390  11.371  -6.160  1.00 21.22 LIG 0.17  C 
ATOM      2  CB  ALA Z  41     -13.925  11.802  -4.770  1.00 23.94 LIG 0.04  C 
ENDROOT
BRANCH 1 3
ATOM      3  C   ALA Z  41     -15.325  10.167  -6.056  1.00 23.72 LIG 0.24  C 
ATOM      4 O    ALA Z  41     -16.547  10.314  -6.094  1.00 25.98 LIG-0.27  OA
ATOM      5  N   ILE Z  42     -14.749   8.977  -5.922  1.00 25.83 LIG-0.35  N 
ATOM      6 H    ILE Z  42     -13.899   8.848  -5.898  1.00 25.83 LIG 0.16  HD
BRANCH 5 7
ATOM      7  CA  ILE Z  42     -15.556   7.768  -5.802  1.00 30.93 LIG 0.18  C 
BRANCH 7 8
ATOM      8  C   ILE Z  42     -15.430   7.122  -4.421  1.00 34.23 LIG 0.24  C 
ATOM      9 O    ILE Z  42     -16.410   6.615  -3.875  1.00 38.88 LIG-0.27  OA
ATOM     10  N   LYS Z  43     -14.227   7.146  -3.852  1.00 34.26 LIG-0.35  N 
ATOM     11 H    LYS Z  43     -13.544   7.556  -4.176  1.00 34.26 LIG 0.16  HD
BRANCH 10 12
ATOM     12  CA  LYS Z  43     -13.985   6.450  -2.590  1.00 43.39 LIG 0.18  C 
BRANCH 12 13
ATOM     13  C   LYS Z  43     -15.018   6.748  -1.503  1.00 55.57 LIG 0.24  C 
ATOM     14  N   ASN Z  44     -15.663   5.704  -0.987  1.00 60.92 LIG-0.34  N 
ATOM     15 H    ASN Z  44     -15.508   4.890  -1.216  1.00 60.92 LIG 0.16  HD
ATOM     16 O    LYS Z  43     -15.220   7.910  -1.143  1.00 61.19 LIG-0.27  OA
BRANCH 14 17
ATOM     17  CA  ASN Z  44     -16.708   5.849   0.031  1.00 70.44 LIG 0.19  C 
BRANCH 17 18
ATOM     18  CB  ASN Z  44     -16.206   6.653   1.239  1.00 74.13 LIG 0.14  C 
BRANCH 18 19
ATOM     19  CG  ASN Z  44     -16.046   5.800   2.486  1.00 76.38 LIG 0.22  C 
ATOM     20  ND2 ASN Z  44     -15.347   4.677   2.351  1.00 76.67 LIG-0.37  N 
ATOM     21 21HD ASN Z  44     -15.228   4.160   3.027  1.00 76.67 LIG 0.16  HD
ATOM     22 22HD ASN Z  44     -15.012   4.468   1.587  1.00 76.67 LIG 0.16  HD
ATOM     23 OD1  ASN Z  44     -16.546   6.147   3.557  1.00 76.30 LIG-0.27  OA
ENDBRANCH 18 19
ENDBRANCH 17 18
BRANCH 17 24
ATOM     24  C   ASN Z  44     -17.993   6.474  -0.520  1.00 74.17 LIG 0.28  C 
ATOM     25 O    ASN Z  44     -17.959   7.251  -1.476  1.00 72.97 LIG-0.27  OA
ATOM     26  N   NH2 Z  45     -19.121   6.131   0.093  1.00 76.38 LIG-0.11  N 
ENDBRANCH 17 24
ENDBRANCH 14 17
ENDBRANCH 12 13
BRANCH 12 27
ATOM     27  CB  LYS Z  43     -12.563   6.711  -2.081  1.00 40.99 LIG 0.04  C 
BRANCH 27 28
ATOM     28  CG  LYS Z  43     -12.187   5.860  -0.873  1.00 39.01 LIG 0.00  C 
BRANCH 28 29
ATOM     29  CD  LYS Z  43     -10.727   6.040  -0.476  1.00 38.38 LIG 0.03  C 
BRANCH 29 30
ATOM     30  CE  LYS Z  43     -10.551   5.893   1.033  1.00 38.40 LIG 0.23  C 
BRANCH 30 31
ATOM     31  NZ  LYS Z  43      -9.482   4.916   1.403  1.00 35.26 LIG-0.08  N 
ATOM     32 HZ3  LYS Z  43      -8.692   5.221   1.126  1.00 35.26 LIG 0.27  HD
ATOM     33 HZ2  LYS Z  43      -9.648   4.131   1.016  1.00 35.26 LIG 0.27  HD
ATOM     34 HZ1  LYS Z  43      -9.466   4.813   2.287  1.00 35.26 LIG 0.27  HD
ENDBRANCH 30 31
ENDBRANCH 29 30
ENDBRANCH 28 29
ENDBRANCH 27 28
ENDBRANCH 12 27
ENDBRANCH 10 12
ENDBRANCH 7 8
BRANCH 7 35
ATOM     35  CB  ILE Z  42     -15.204   6.728  -6.881  1.00 30.84 LIG 0.01  C 
ATOM     36  CG2 ILE Z  42     -13.891   7.095  -7.566  1.00 35.03 LIG 0.01  C 
BRANCH 35 37
ATOM     37  CG1 ILE Z  42     -15.066   5.339  -6.263  1.00 30.67 LIG 0.00  C 
ATOM     38  CD1 ILE Z  42     -13.627   4.924  -6.022  1.00 26.38 LIG 0.01  C 
ENDBRANCH 35 37
ENDBRANCH 7 35
ENDBRANCH 5 7
ENDBRANCH 1 3
BRANCH 1 39
ATOM     39  N   ALA Z  41     -15.033  12.482  -6.858  1.00 17.22 LIG-0.35  N 
ATOM     40  C   ASN Z  40     -15.623  12.314  -8.039  1.00 21.77 LIG 0.24  C 
ATOM     41 O    ASN Z  40     -15.670  11.227  -8.618  1.00 19.61 LIG-0.27  OA
ATOM     42 H    ALA Z  41     -14.993  13.234  -6.443  1.00 17.22 LIG 0.16  HD
BRANCH 40 43
ATOM     43  CA  ASN Z  40     -16.261  13.547  -8.669  1.00 23.64 LIG 0.18  C 
BRANCH 43 44
ATOM     44  N   ASN Z  40     -16.391  14.680  -7.758  1.00 28.07 LIG-0.34  N 
ATOM     45 H    ASN Z  40     -15.716  14.806  -7.239  1.00 28.07 LIG 0.16  HD
ATOM     46  C   SER Z  39     -17.485  15.432  -7.765  1.00 29.35 LIG 0.24  C 
ATOM     47 O    SER Z  39     -18.469  15.176  -8.462  1.00 27.34 LIG-0.27  OA
BRANCH 46 48
ATOM     48  CA  SER Z  39     -17.484  16.649  -6.853  1.00 36.10 LIG 0.20  C 
BRANCH 48 49
ATOM     49  N   SER Z  39     -17.025  17.793  -7.630  1.00 45.98 LIG-0.34  N 
ATOM     50  C   ASN Z  38     -15.929  18.468  -7.295  1.00 57.47 LIG 0.24  C 
ATOM     51 O    ASN Z  38     -15.379  18.349  -6.198  1.00 60.64 LIG-0.27  OA
ATOM     52 H    SER Z  39     -17.519  17.985  -8.307  1.00 45.98 LIG 0.16  HD
BRANCH 50 53
ATOM     53  CA  ASN Z  38     -15.376  19.425  -8.362  1.00 65.29 LIG 0.18  C 
BRANCH 53 54
ATOM     54  N   ASN Z  38     -15.650  20.853  -8.178  1.00 70.64 LIG-0.35  N 
ATOM     55 H    ASN Z  38     -15.070  21.254  -7.685  1.00 70.64 LIG 0.16  HD
ATOM     56  C   ACE Z  37     -16.696  21.471  -8.720  1.00 74.22 LIG 0.21  C 
ATOM     57  CH3 ACE Z  37     -16.804  22.970  -8.448  1.00 75.88 LIG 0.12  C 
ATOM     58 O    ACE Z  37     -17.544  20.892  -9.397  1.00 75.32 LIG-0.27  OA
ENDBRANCH 53 54
BRANCH 53 59
ATOM     59  CB  ASN Z  38     -13.865  19.196  -8.506  1.00 65.91 LIG 0.12  C 
BRANCH 59 60
ATOM     60  CG  ASN Z  38     -13.320  19.661  -9.848  1.00 66.48 LIG 0.15  C 
ATOM     61 OD1  ASN Z  38     -12.537  18.803 -10.491  1.00 67.09 LIG-0.18  OA
ATOM     62  ND2 ASN Z  38     -13.595  20.775 -10.298  1.00 65.12 LIG-0.38  N 
ATOM     63 22HD ASN Z  38     -14.107  21.305  -9.854  1.00 65.12 LIG 0.16  HD
ATOM     64 21HD ASN Z  38     -13.276  21.022 -11.058  1.00 65.12 LIG 0.16  HD
ENDBRANCH 59 60
ENDBRANCH 53 59
ENDBRANCH 50 53
ENDBRANCH 48 49
BRANCH 48 65
ATOM     65  CB  SER Z  39     -18.887  16.878  -6.298  1.00 33.12 LIG 0.20  C 
BRANCH 65 66
ATOM     66 OG   SER Z  39     -18.931  18.068  -5.521  1.00 30.52 LIG-0.40  OA
ATOM     67 HG   SER Z  39     -19.600  18.047  -5.014  1.00 30.52 LIG 0.21  HD
ENDBRANCH 65 66
ENDBRANCH 48 65
ENDBRANCH 46 48
ENDBRANCH 43 44
BRANCH 43 68
ATOM     68  CB  ASN Z  40     -15.488  13.938  -9.930  1.00 19.94 LIG 0.14  C 
BRANCH 68 69
ATOM     69  CG  ASN Z  40     -15.722  12.972 -11.075  1.00 19.97 LIG 0.22  C 
ATOM     70 OD1  ASN Z  40     -16.857  12.562 -11.332  1.00 23.42 LIG-0.27  OA
ATOM     71  ND2 ASN Z  40     -14.650  12.592 -11.763  1.00 19.32 LIG-0.37  N 
ATOM     72 21HD ASN Z  40     -14.732  12.039 -12.416  1.00 19.32 LIG 0.16  HD
ATOM     73 22HD ASN Z  40     -13.874  12.900 -11.554  1.00 19.32 LIG 0.16  HD
ENDBRANCH 68 69
ENDBRANCH 43 68
ENDBRANCH 40 43
ENDBRANCH 1 39
TORSDOF 29
ENDMDL
MODEL 3
USER: ADFR SOLUTION from run 163
USER: SCORE 21.161192 LL:  -4.675 LR: -17.747 RR:   0.000 FEB:  -9.096
USER: RMSD 2.199471
USER: SEED 162
USER: STATUS searching
USER: GENES 31
USER: genes 0 Translation |==|  0.59289 0.44508 0.46408
USER: genes 1 Rotation |==|  0.53675 0.46538 0.52568 0.99678
USER: genes 2 Torsion [N]-CA--C-[N] |==|  0.37292
USER: genes 3 Torsion [C]-N--CA-[C] |==|  0.81405
USER: genes 4 Torsion [N]-CA--C-[N] |==|  0.86697
USER: genes 5 Torsion [C]-N--CA-[C] |==|  0.82569
USER: genes 6 Torsion [N]-CA--C-[N] |==|  0.85645
USER: genes 7 Torsion [C]-N--CA-[CB] |==|  0.83417
USER: genes 8 Torsion [N]-CA--CB-[CG] |==|  0.83524
USER: genes 9 Torsion [CA]-CB--CG-[OD1] |==|  0.22211
USER: genes 10 Torsion [N]-CA--C-[N] |==|  0.41401
USER: genes 11 Torsion [N]-CA--CB-[CG] |==|  0.81769
USER: genes 12 Torsion [CA]-CB--CG-[CD] |==|  0.43992
USER: genes 13 Torsion [CB]-CG--CD-[CE] |==|  0.27078
USER: genes 14 Torsion [CG]-CD--CE-[NZ] |==|  0.43723
USER: genes 15 Torsion [CD]-CE--NZ-[HZ3] |==|  0.24570
USER: genes 16 Torsion [N]-CA--CB-[CG1] |==|  0.72194
USER: genes 17 Torsion [CA]-CB--CG1-[CD1] |==|  0.60909
USER: genes 18 Torsion [CB]-CA--N-[C] |==|  0.53257
USER: genes 19 Torsion [N]-C--CA-[N] |==|  0.93282
USER: genes 20 Torsion [C]-CA--N-[C] |==|  0.76497
USER: genes 21 Torsion [N]-C--CA-[N] |==|  0.37754
USER: genes 22 Torsion [C]-CA--N-[C] |==|  0.83290
USER: genes 23 Torsion [N]-C--CA-[N] |==|  0.52777
USER: genes 24 Torsion [C]-CA--N-[C] |==|  0.75193
USER: genes 25 Torsion [C]-CA--CB-[CG] |==|  0.68528
USER: genes 26 Torsion [CA]-CB--CG-[OD1] |==|  0.29068
USER: genes 27 Torsion [C]-CA--CB-[OG] |==|  0.66820
USER: genes 28 Torsion [CA]-CB--OG-[HG] |==|  0.78612
USER: genes 29 Torsion [C]-CA--CB-[CG] |==|  0.23504
USER: genes 30 Torsion [CA]-CB--CG-[OD1] |==|  0.15036
ROOT
ATOM      1  CA  ALA Z  41     -14.751  11.511  -6.157  1.00 21.22 LIG 0.17  C 
ATOM      2  CB  ALA Z  41     -14.593  12.012  -4.723  1.00 23.94 LIG 0.04  C 
ENDROOT
BRANCH 1 3
ATOM      3  C   ALA Z  41     -15.363  10.111  -6.166  1.00 23.72 LIG 0.24  C 
ATOM      4 O    ALA Z  41     -16.569   9.950  -5.978  1.00 25.98 LIG-0.27  OA
ATOM      5  N   ILE Z  42     -14.529   9.099  -6.382  1.00 25.83 LIG-0.35  N 
ATOM      6 H    ILE Z  42     -13.684   9.187  -6.521  1.00 25.83 LIG 0.16  HD
BRANCH 5 7
ATOM      7  CA  ILE Z  42     -15.013   7.724  -6.396  1.00 30.93 LIG 0.18  C 
BRANCH 7 8
ATOM      8  C   ILE Z  42     -15.500   7.266  -5.020  1.00 34.23 LIG 0.24  C 
ATOM      9 O    ILE Z  42     -16.590   6.705  -4.896  1.00 38.88 LIG-0.27  OA
ATOM     10  N   LYS Z  43     -14.700   7.512  -3.986  1.00 34.26 LIG-0.35  N 
ATOM     11 H    LYS Z  43     -13.970   7.965  -4.032  1.00 34.26 LIG 0.16  HD
BRANCH 10 12
ATOM     12  CA  LYS Z  43     -15.027   7.006  -2.654  1.00 43.39 LIG 0.18  C 
BRANCH 12 13
ATOM     13  C   LYS Z  43     -16.329   7.561  -2.076  1.00 55.57 LIG 0.24  C 
ATOM     14  N   ASN Z  44     -16.467   8.885  -2.076  1.00 60.92 LIG-0.34  N 
ATOM     15 H    ASN Z  44     -15.882   9.423  -2.402  1.00 60.92 LIG 0.16  HD
ATOM     16 O    LYS Z  43     -17.189   6.793  -1.639  1.00 61.19 LIG-0.27  OA
BRANCH 14 17
ATOM     17  CA  ASN Z  44     -17.645   9.553  -1.513  1.00 70.44 LIG 0.19  C 
BRANCH 17 18
ATOM     18  CB  ASN Z  44     -18.933   9.108  -2.222  1.00 74.13 LIG 0.14  C 
BRANCH 18 19
ATOM     19  CG  ASN Z  44     -18.915   9.403  -3.711  1.00 76.38 LIG 0.22  C 
ATOM     20  ND2 ASN Z  44     -19.573  10.488  -4.109  1.00 76.67 LIG-0.37  N 
ATOM     21 21HD ASN Z  44     -19.594  10.698  -4.943  1.00 76.67 LIG 0.16  HD
ATOM     22 22HD ASN Z  44     -19.979  10.981  -3.533  1.00 76.67 LIG 0.16  HD
ATOM     23 OD1  ASN Z  44     -18.318   8.664  -4.495  1.00 76.30 LIG-0.27  OA
ENDBRANCH 18 19
ENDBRANCH 17 18
BRANCH 17 24
ATOM     24  C   ASN Z  44     -17.779   9.351  -0.002  1.00 74.17 LIG 0.28  C 
ATOM     25 O    ASN Z  44     -17.375   8.319   0.537  1.00 72.97 LIG-0.27  OA
ATOM     26  N   NH2 Z  45     -18.351  10.343   0.674  1.00 76.38 LIG-0.11  N 
ENDBRANCH 17 24
ENDBRANCH 14 17
ENDBRANCH 12 13
BRANCH 12 27
ATOM     27  CB  LYS Z  43     -13.861   7.219  -1.682  1.00 40.99 LIG 0.04  C 
BRANCH 27 28
ATOM     28  CG  LYS Z  43     -12.619   6.409  -2.039  1.00 39.01 LIG 0.00  C 
BRANCH 28 29
ATOM     29  CD  LYS Z  43     -11.355   6.998  -1.427  1.00 38.38 LIG 0.03  C 
BRANCH 29 30
ATOM     30  CE  LYS Z  43     -10.990   6.278  -0.132  1.00 38.40 LIG 0.23  C 
BRANCH 30 31
ATOM     31  NZ  LYS Z  43      -9.544   6.413   0.224  1.00 35.26 LIG-0.08  N 
ATOM     32 HZ3  LYS Z  43      -9.426   7.149   0.711  1.00 35.26 LIG 0.27  HD
ATOM     33 HZ2  LYS Z  43      -9.059   6.469  -0.520  1.00 35.26 LIG 0.27  HD
ATOM     34 HZ1  LYS Z  43      -9.286   5.702   0.692  1.00 35.26 LIG 0.27  HD
ENDBRANCH 30 31
ENDBRANCH 29 30
ENDBRANCH 28 29
ENDBRANCH 27 28
ENDBRANCH 12 27
ENDBRANCH 10 12
ENDBRANCH 7 8
BRANCH 7 35
ATOM     35  CB  ILE Z  42     -13.945   6.740  -6.908  1.00 30.84 LIG 0.01  C 
ATOM     36  CG2 ILE Z  42     -13.960   5.459  -6.081  1.00 35.03 LIG 0.01  C 
BRANCH 35 37
ATOM     37  CG1 ILE Z  42     -14.200   6.386  -8.371  1.00 30.67 LIG 0.00  C 
ATOM     38  CD1 ILE Z  42     -13.939   4.927  -8.694  1.00 26.38 LIG 0.01  C 
ENDBRANCH 35 37
ENDBRANCH 7 35
ENDBRANCH 5 7
ENDBRANCH 1 3
BRANCH 1 39
ATOM     39  N   ALA Z  41     -15.553  12.444  -6.945  1.00 17.22 LIG-0.35  N 
ATOM     40  C   ASN Z  40     -16.018  12.118  -8.149  1.00 21.77 LIG 0.24  C 
ATOM     41 O    ASN Z  40     -15.811  11.023  -8.675  1.00 19.61 LIG-0.27  OA
ATOM     42 H    ALA Z  41     -15.691  13.203  -6.565  1.00 17.22 LIG 0.16  HD
BRANCH 40 43
ATOM     43  CA  ASN Z  40     -16.845  13.174  -8.874  1.00 23.64 LIG 0.18  C 
BRANCH 43 44
ATOM     44  N   ASN Z  40     -17.477  14.146  -7.987  1.00 28.07 LIG-0.34  N 
ATOM     45 H    ASN Z  40     -17.036  14.877  -7.877  1.00 28.07 LIG 0.16  HD
ATOM     46  C   SER Z  39     -18.646  13.880  -7.416  1.00 29.35 LIG 0.24  C 
ATOM     47 O    SER Z  39     -19.213  12.791  -7.527  1.00 27.34 LIG-0.27  OA
BRANCH 46 48
ATOM     48  CA  SER Z  39     -19.274  14.994  -6.592  1.00 36.10 LIG 0.20  C 
BRANCH 48 49
ATOM     49  N   SER Z  39     -20.691  15.057  -6.925  1.00 45.98 LIG-0.34  N 
ATOM     50  C   ASN Z  38     -21.106  15.302  -8.164  1.00 57.47 LIG 0.24  C 
ATOM     51 O    ASN Z  38     -20.360  15.737  -9.044  1.00 60.64 LIG-0.27  OA
ATOM     52 H    SER Z  39     -21.219  14.923  -6.259  1.00 45.98 LIG 0.16  HD
BRANCH 50 53
ATOM     53  CA  ASN Z  38     -22.588  15.017  -8.446  1.00 65.29 LIG 0.18  C 
BRANCH 53 54
ATOM     54  N   ASN Z  38     -23.017  15.062  -9.847  1.00 70.64 LIG-0.35  N 
ATOM     55 H    ASN Z  38     -22.964  14.303 -10.249  1.00 70.64 LIG 0.16  HD
ATOM     56  C   ACE Z  37     -23.446  16.172 -10.442  1.00 74.22 LIG 0.21  C 
ATOM     57  CH3 ACE Z  37     -23.884  16.025 -11.898  1.00 75.88 LIG 0.12  C 
ATOM     58 O    ACE Z  37     -23.491  17.265  -9.879  1.00 75.32 LIG-0.27  OA
ENDBRANCH 53 54
BRANCH 53 59
ATOM     59  CB  ASN Z  38     -22.965  13.663  -7.827  1.00 65.91 LIG 0.12  C 
BRANCH 59 60
ATOM     60  CG  ASN Z  38     -23.306  12.610  -8.870  1.00 66.48 LIG 0.15  C 
ATOM     61 OD1  ASN Z  38     -22.383  11.681  -9.087  1.00 67.09 LIG-0.18  OA
ATOM     62  ND2 ASN Z  38     -24.380  12.632  -9.474  1.00 65.12 LIG-0.38  N 
ATOM     63 22HD ASN Z  38     -24.955  13.249  -9.307  1.00 65.12 LIG 0.16  HD
ATOM     64 21HD ASN Z  38     -24.555  12.029 -10.062  1.00 65.12 LIG 0.16  HD
ENDBRANCH 59 60
ENDBRANCH 53 59
ENDBRANCH 50 53
ENDBRANCH 48 49
BRANCH 48 65
ATOM     65  CB  SER Z  39     -19.061  14.718  -5.107  1.00 33.12 LIG 0.20  C 
BRANCH 65 66
ATOM     66 OG   SER Z  39     -20.308  14.591  -4.436  1.00 30.52 LIG-0.40  OA
ATOM     67 HG   SER Z  39     -20.641  15.353  -4.316  1.00 30.52 LIG 0.21  HD
ENDBRANCH 65 66
ENDBRANCH 48 65
ENDBRANCH 46 48
ENDBRANCH 43 44
BRANCH 43 68
ATOM     68  CB  ASN Z  40     -15.980  13.869  -9.928  1.00 19.94 LIG 0.14  C 
BRANCH 68 69
ATOM     69  CG  ASN Z  40     -15.937  13.105 -11.237  1.00 19.97 LIG 0.22  C 
ATOM     70 OD1  ASN Z  40     -16.979  12.789 -11.816  1.00 23.42 LIG-0.27  OA
ATOM     71  ND2 ASN Z  40     -14.733  12.793 -11.705  1.00 19.32 LIG-0.37  N 
ATOM     72 21HD ASN Z  40     -14.659  12.353 -12.441  1.00 19.32 LIG 0.16  HD
ATOM     73 22HD ASN Z  40     -14.029  13.031 -11.273  1.00 19.32 LIG 0.16  HD
ENDBRANCH 68 69
ENDBRANCH 43 68
ENDBRANCH 40 43
ENDBRANCH 1 39
TORSDOF 29
ENDMDL
MODEL 4
USER: ADFR SOLUTION from run 63
USER: SCORE 19.926408 LL:  -4.587 LR: -17.386 RR:   0.000 FEB:  -8.736
USER: RMSD 4.574442
USER: SEED 62
USER: STATUS no improvement in best in 15 clusters for 5 generations
USER: GENES 31
USER: genes 0 Translation |==|  0.61524 0.45372 0.45770
USER: genes 1 Rotation |==|  0.55781 0.47750 0.49867 0.99613
USER: genes 2 Torsion [N]-CA--C-[N] |==|  0.41439
USER: genes 3 Torsion [C]-N--CA-[C] |==|  0.80436
USER: genes 4 Torsion [N]-CA--C-[N] |==|  0.86907
USER: genes 5 Torsion [C]-N--CA-[C] |==|  0.83988
USER: genes 6 Torsion [N]-CA--C-[N] |==|  0.87138
USER: genes 7 Torsion [C]-N--CA-[CB] |==|  0.83163
USER: genes 8 Torsion [N]-CA--CB-[CG] |==|  0.82409
USER: genes 9 Torsion [CA]-CB--CG-[OD1] |==|  0.44124
USER: genes 10 Torsion [N]-CA--C-[N] |==|  0.34454
USER: genes 11 Torsion [N]-CA--CB-[CG] |==|  0.75905
USER: genes 12 Torsion [CA]-CB--CG-[CD] |==|  0.39014
USER: genes 13 Torsion [CB]-CG--CD-[CE] |==|  0.37716
USER: genes 14 Torsion [CG]-CD--CE-[NZ] |==|  0.44940
USER: genes 15 Torsion [CD]-CE--NZ-[HZ3] |==|  0.18191
USER: genes 16 Torsion [N]-CA--CB-[CG1] |==|  0.70361
USER: genes 17 Torsion [CA]-CB--CG1-[CD1] |==|  0.65268
USER: genes 18 Torsion [CB]-CA--N-[C] |==|  0.51303
USER: genes 19 Torsion [N]-C--CA-[N] |==|  0.01827
USER: genes 20 Torsion [C]-CA--N-[C] |==|  0.60002
USER: genes 21 Torsion [N]-C--CA-[N] |==|  0.19476
USER: genes 22 Torsion [C]-CA--N-[C] |==|  0.79426
USER: genes 23 Torsion [N]-C--CA-[N] |==|  0.15329
USER: genes 24 Torsion [C]-CA--N-[C] |==|  0.65961
USER: genes 25 Torsion [C]-CA--CB-[CG] |==|  0.40294
USER: genes 26 Torsion [CA]-CB--CG-[OD1] |==|  0.07587
USER: genes 27 Torsion [C]-CA--CB-[OG] |==|  0.81236
USER: genes 28 Torsion [CA]-CB--OG-[HG] |==|  0.17985
USER: genes 29 Torsion [C]-CA--CB-[CG] |==|  0.17244
USER: genes 30 Torsion [CA]-CB--CG-[OD1] |==|  0.14103
ROOT
ATOM      1  CA  ALA Z  41     -14.214  11.712  -6.301  1.00 21.22 LIG 0.17  C 
ATOM      2  CB  ALA Z  41     -13.928  12.062  -4.842  1.00 23.94 LIG 0.04  C 
ENDROOT
BRANCH 1 3
ATOM      3  C   ALA Z  41     -14.963  10.383  -6.390  1.00 23.72 LIG 0.24  C 
ATOM      4 O    ALA Z  41     -16.194  10.354  -6.411  1.00 25.98 LIG-0.27  OA
ATOM      5  N   ILE Z  42     -14.218   9.284  -6.440  1.00 25.83 LIG-0.35  N 
ATOM      6 H    ILE Z  42     -13.359   9.278  -6.432  1.00 25.83 LIG 0.16  HD
BRANCH 5 7
ATOM      7  CA  ILE Z  42     -14.839   7.966  -6.513  1.00 30.93 LIG 0.18  C 
BRANCH 7 8
ATOM      8  C   ILE Z  42     -15.527   7.575  -5.204  1.00 34.23 LIG 0.24  C 
ATOM      9 O    ILE Z  42     -16.671   7.119  -5.210  1.00 38.88 LIG-0.27  OA
ATOM     10  N   LYS Z  43     -14.837   7.762  -4.082  1.00 34.26 LIG-0.35  N 
ATOM     11 H    LYS Z  43     -14.068   8.145  -4.041  1.00 34.26 LIG 0.16  HD
BRANCH 10 12
ATOM     12  CA  LYS Z  43     -15.366   7.308  -2.797  1.00 43.39 LIG 0.18  C 
BRANCH 12 13
ATOM     13  C   LYS Z  43     -16.731   7.897  -2.439  1.00 55.57 LIG 0.24  C 
ATOM     14  N   ASN Z  44     -16.881   9.208  -2.611  1.00 60.92 LIG-0.34  N 
ATOM     15 H    ASN Z  44     -16.266   9.718  -2.930  1.00 60.92 LIG 0.16  HD
ATOM     16 O    LYS Z  43     -17.629   7.165  -2.015  1.00 61.19 LIG-0.27  OA
BRANCH 14 17
ATOM     17  CA  ASN Z  44     -18.121   9.910  -2.268  1.00 70.44 LIG 0.19  C 
BRANCH 17 18
ATOM     18  CB  ASN Z  44     -19.311   9.372  -3.076  1.00 74.13 LIG 0.14  C 
BRANCH 18 19
ATOM     19  CG  ASN Z  44     -19.157   9.600  -4.570  1.00 76.38 LIG 0.22  C 
ATOM     20  ND2 ASN Z  44     -18.314  10.560  -4.940  1.00 76.67 LIG-0.37  N 
ATOM     21 21HD ASN Z  44     -18.193  10.727  -5.774  1.00 76.67 LIG 0.16  HD
ATOM     22 22HD ASN Z  44     -17.891  11.013  -4.345  1.00 76.67 LIG 0.16  HD
ATOM     23 OD1  ASN Z  44     -19.788   8.921  -5.381  1.00 76.30 LIG-0.27  OA
ENDBRANCH 18 19
ENDBRANCH 17 18
BRANCH 17 24
ATOM     24  C   ASN Z  44     -18.437   9.864  -0.771  1.00 74.17 LIG 0.28  C 
ATOM     25 O    ASN Z  44     -18.531   8.787  -0.177  1.00 72.97 LIG-0.27  OA
ATOM     26  N   NH2 Z  45     -18.603  11.037  -0.169  1.00 76.38 LIG-0.11  N 
ENDBRANCH 17 24
ENDBRANCH 14 17
ENDBRANCH 12 13
BRANCH 12 27
ATOM     27  CB  LYS Z  43     -14.354   7.545  -1.670  1.00 40.99 LIG 0.04  C 
BRANCH 27 28
ATOM     28  CG  LYS Z  43     -13.358   6.403  -1.501  1.00 39.01 LIG 0.00  C 
BRANCH 28 29
ATOM     29  CD  LYS Z  43     -11.952   6.908  -1.200  1.00 38.38 LIG 0.03  C 
BRANCH 29 30
ATOM     30  CE  LYS Z  43     -11.311   6.096  -0.078  1.00 38.40 LIG 0.23  C 
BRANCH 30 31
ATOM     31  NZ  LYS Z  43      -9.824   6.240  -0.030  1.00 35.26 LIG-0.08  N 
ATOM     32 HZ3  LYS Z  43      -9.614   7.080   0.179  1.00 35.26 LIG 0.27  HD
ATOM     33 HZ2  LYS Z  43      -9.479   6.038  -0.825  1.00 35.26 LIG 0.27  HD
ATOM     34 HZ1  LYS Z  43      -9.492   5.690   0.586  1.00 35.26 LIG 0.27  HD
ENDBRANCH 30 31
ENDBRANCH 29 30
ENDBRANCH 28 29
ENDBRANCH 27 28
ENDBRANCH 12 27
ENDBRANCH 10 12
ENDBRANCH 7 8
BRANCH 7 35
ATOM     35  CB  ILE Z  42     -13.827   6.871  -6.899  1.00 30.84 LIG 0.01  C 
ATOM     36  CG2 ILE Z  42     -13.964   5.668  -5.972  1.00 35.03 LIG 0.01  C 
BRANCH 35 37
ATOM     37  CG1 ILE Z  42     -14.055   6.414  -8.338  1.00 30.67 LIG 0.00  C 
ATOM     38  CD1 ILE Z  42     -14.264   4.918  -8.471  1.00 26.38 LIG 0.01  C 
ENDBRANCH 35 37
ENDBRANCH 7 35
ENDBRANCH 5 7
ENDBRANCH 1 3
BRANCH 1 39
ATOM     39  N   ALA Z  41     -14.962  12.785  -6.952  1.00 17.22 LIG-0.35  N 
ATOM     40  C   ASN Z  40     -15.406  12.666  -8.202  1.00 21.77 LIG 0.24  C 
ATOM     41 O    ASN Z  40     -15.223  11.657  -8.886  1.00 19.61 LIG-0.27  OA
ATOM     42 H    ALA Z  41     -15.083  13.482  -6.463  1.00 17.22 LIG 0.16  HD
BRANCH 40 43
ATOM     43  CA  ASN Z  40     -16.174  13.852  -8.773  1.00 23.64 LIG 0.18  C 
BRANCH 43 44
ATOM     44  N   ASN Z  40     -16.185  15.026  -7.906  1.00 28.07 LIG-0.34  N 
ATOM     45 H    ASN Z  40     -15.458  15.158  -7.466  1.00 28.07 LIG 0.16  HD
ATOM     46  C   SER Z  39     -17.259  15.804  -7.835  1.00 29.35 LIG 0.24  C 
ATOM     47 O    SER Z  39     -18.315  15.542  -8.413  1.00 27.34 LIG-0.27  OA
BRANCH 46 48
ATOM     48  CA  SER Z  39     -17.139  17.059  -6.984  1.00 36.10 LIG 0.20  C 
BRANCH 48 49
ATOM     49  N   SER Z  39     -16.245  17.983  -7.669  1.00 45.98 LIG-0.34  N 
ATOM     50  C   ASN Z  38     -14.931  17.785  -7.705  1.00 57.47 LIG 0.24  C 
ATOM     51 O    ASN Z  38     -14.357  16.977  -6.972  1.00 60.64 LIG-0.27  OA
ATOM     52 H    SER Z  39     -16.640  18.652  -8.038  1.00 45.98 LIG 0.16  HD
BRANCH 50 53
ATOM     53  CA  ASN Z  38     -14.150  18.631  -8.721  1.00 65.29 LIG 0.18  C 
BRANCH 53 54
ATOM     54  N   ASN Z  38     -14.313  20.086  -8.636  1.00 70.64 LIG-0.35  N 
ATOM     55 H    ASN Z  38     -14.104  20.412  -7.868  1.00 70.64 LIG 0.16  HD
ATOM     56  C   ACE Z  37     -14.742  20.831  -9.651  1.00 74.22 LIG 0.21  C 
ATOM     57  CH3 ACE Z  37     -14.818  22.334  -9.393  1.00 75.88 LIG 0.12  C 
ATOM     58 O    ACE Z  37     -15.071  20.363 -10.740  1.00 75.32 LIG-0.27  OA
ENDBRANCH 53 54
BRANCH 53 59
ATOM     59  CB  ASN Z  38     -12.660  18.266  -8.639  1.00 65.91 LIG 0.12  C 
BRANCH 59 60
ATOM     60  CG  ASN Z  38     -11.962  18.321  -9.988  1.00 66.48 LIG 0.15  C 
ATOM     61 OD1  ASN Z  38     -12.478  19.158 -10.880  1.00 67.09 LIG-0.18  OA
ATOM     62  ND2 ASN Z  38     -10.977  17.621 -10.228  1.00 65.12 LIG-0.38  N 
ATOM     63 22HD ASN Z  38     -10.669  17.090  -9.625  1.00 65.12 LIG 0.16  HD
ATOM     64 21HD ASN Z  38     -10.596  17.664 -10.998  1.00 65.12 LIG 0.16  HD
ENDBRANCH 59 60
ENDBRANCH 53 59
ENDBRANCH 50 53
ENDBRANCH 48 49
BRANCH 48 65
ATOM     65  CB  SER Z  39     -18.520  17.672  -6.772  1.00 33.12 LIG 0.20  C 
BRANCH 65 66
ATOM     66 OG   SER Z  39     -19.039  18.177  -7.996  1.00 30.52 LIG-0.40  OA
ATOM     67 HG   SER Z  39     -19.163  17.542  -8.531  1.00 30.52 LIG 0.21  HD
ENDBRANCH 65 66
ENDBRANCH 48 65
ENDBRANCH 46 48
ENDBRANCH 43 44
BRANCH 43 68
ATOM     68  CB  ASN Z  40     -15.631  14.196 -10.161  1.00 19.94 LIG 0.14  C 
BRANCH 68 69
ATOM     69  CG  ASN Z  40     -15.808  13.059 -11.150  1.00 19.97 LIG 0.22  C 
ATOM     70 OD1  ASN Z  40     -16.906  12.517 -11.296  1.00 23.42 LIG-0.27  OA
ATOM     71  ND2 ASN Z  40     -14.727  12.683 -11.826  1.00 19.32 LIG-0.37  N 
ATOM     72 21HD ASN Z  40     -14.778  12.038 -12.392  1.00 19.32 LIG 0.16  HD
ATOM     73 22HD ASN Z  40     -13.978  13.086 -11.697  1.00 19.32 LIG 0.16  HD
ENDBRANCH 68 69
ENDBRANCH 43 68
ENDBRANCH 40 43
ENDBRANCH 1 39
TORSDOF 29
ENDMDL
MODEL 5
USER: ADFR SOLUTION from run 170
USER: SCORE 20.006023 LL:  -4.006 LR: -17.371 RR:   0.000 FEB:  -8.720
USER: RMSD 3.030690
USER: SEED 169
USER: STATUS searching
USER: GENES 31
USER: genes 0 Translation |==|  0.57047 0.45529 0.46914
USER: genes 1 Rotation |==|  0.53500 0.41979 0.55334 0.98938
USER: genes 2 Torsion [N]-CA--C-[N] |==|  0.35429
USER: genes 3 Torsion [C]-N--CA-[C] |==|  0.80963
USER: genes 4 Torsion [N]-CA--C-[N] |==|  0.89244
USER: genes 5 Torsion [C]-N--CA-[C] |==|  0.81666
USER: genes 6 Torsion [N]-CA--C-[N] |==|  0.46064
USER: genes 7 Torsion [C]-N--CA-[CB] |==|  0.53457
USER: genes 8 Torsion [N]-CA--CB-[CG] |==|  0.62261
USER: genes 9 Torsion [CA]-CB--CG-[OD1] |==|  0.85328
USER: genes 10 Torsion [N]-CA--C-[N] |==|  0.43333
USER: genes 11 Torsion [N]-CA--CB-[CG] |==|  0.79002
USER: genes 12 Torsion [CA]-CB--CG-[CD] |==|  0.60029
USER: genes 13 Torsion [CB]-CG--CD-[CE] |==|  0.47341
USER: genes 14 Torsion [CG]-CD--CE-[NZ] |==|  0.23495
USER: genes 15 Torsion [CD]-CE--NZ-[HZ3] |==|  0.45309
USER: genes 16 Torsion [N]-CA--CB-[CG1] |==|  0.67694
USER: genes 17 Torsion [CA]-CB--CG1-[CD1] |==|  0.62916
USER: genes 18 Torsion [CB]-CA--N-[C] |==|  0.53527
USER: genes 19 Torsion [N]-C--CA-[N] |==|  0.94237
USER: genes 20 Torsion [C]-CA--N-[C] |==|  0.77793
USER: genes 21 Torsion [N]-C--CA-[N] |==|  0.42723
USER: genes 22 Torsion [C]-CA--N-[C] |==|  0.78490
USER: genes 23 Torsion [N]-C--CA-[N] |==|  0.44249
USER: genes 24 Torsion [C]-CA--N-[C] |==|  0.85464
USER: genes 25 Torsion [C]-CA--CB-[CG] |==|  0.42703
USER: genes 26 Torsion [CA]-CB--CG-[OD1] |==|  0.69948
USER: genes 27 Torsion [C]-CA--CB-[OG] |==|  0.44850
USER: genes 28 Torsion [CA]-CB--OG-[HG] |==|  0.02892
USER: genes 29 Torsion [C]-CA--CB-[CG] |==|  0.25141
USER: genes 30 Torsion [CA]-CB--CG-[OD1] |==|  0.15795
ROOT
ATOM      1  CA  ALA Z  41     -15.289  11.748  -6.043  1.00 21.22 LIG 0.17  C 
ATOM      2  CB  ALA Z  41     -15.457  12.253  -4.612  1.00 23.94 LIG 0.04  C 
ENDROOT
BRANCH 1 3
ATOM      3  C   ALA Z  41     -15.750  10.296  -6.152  1.00 23.72 LIG 0.24  C 
ATOM      4 O    ALA Z  41     -16.944  10.006  -6.071  1.00 25.98 LIG-0.27  OA
ATOM      5  N   ILE Z  42     -14.800   9.383  -6.330  1.00 25.83 LIG-0.35  N 
ATOM      6 H    ILE Z  42     -13.962   9.561  -6.395  1.00 25.83 LIG 0.16  HD
BRANCH 5 7
ATOM      7  CA  ILE Z  42     -15.137   7.967  -6.432  1.00 30.93 LIG 0.18  C 
BRANCH 7 8
ATOM      8  C   ILE Z  42     -15.646   7.396  -5.107  1.00 34.23 LIG 0.24  C 
ATOM      9 O    ILE Z  42     -16.575   6.587  -5.091  1.00 38.88 LIG-0.27  OA
ATOM     10  N   LYS Z  43     -15.047   7.821  -3.998  1.00 34.26 LIG-0.35  N 
ATOM     11 H    LYS Z  43     -14.448   8.438  -3.974  1.00 34.26 LIG 0.16  HD
BRANCH 10 12
ATOM     12  CA  LYS Z  43     -15.385   7.241  -2.700  1.00 43.39 LIG 0.18  C 
BRANCH 12 13
ATOM     13  C   LYS Z  43     -16.816   7.527  -2.240  1.00 55.57 LIG 0.24  C 
ATOM     14  N   ASN Z  44     -17.275   6.799  -1.226  1.00 60.92 LIG-0.34  N 
ATOM     15 H    ASN Z  44     -16.805   6.209  -0.814  1.00 60.92 LIG 0.16  HD
ATOM     16 O    LYS Z  43     -17.484   8.398  -2.803  1.00 61.19 LIG-0.27  OA
BRANCH 14 17
ATOM     17  CA  ASN Z  44     -18.642   6.939  -0.713  1.00 70.44 LIG 0.19  C 
BRANCH 17 18
ATOM     18  CB  ASN Z  44     -18.811   6.217   0.632  1.00 74.13 LIG 0.14  C 
BRANCH 18 19
ATOM     19  CG  ASN Z  44     -20.098   5.415   0.710  1.00 76.38 LIG 0.22  C 
ATOM     20  ND2 ASN Z  44     -19.980   4.136   1.057  1.00 76.67 LIG-0.37  N 
ATOM     21 21HD ASN Z  44     -20.680   3.640   1.115  1.00 76.67 LIG 0.16  HD
ATOM     22 22HD ASN Z  44     -19.204   3.806   1.225  1.00 76.67 LIG 0.16  HD
ATOM     23 OD1  ASN Z  44     -21.185   5.937   0.460  1.00 76.30 LIG-0.27  OA
ENDBRANCH 18 19
ENDBRANCH 17 18
BRANCH 17 24
ATOM     24  C   ASN Z  44     -19.084   8.399  -0.586  1.00 74.17 LIG 0.28  C 
ATOM     25 O    ASN Z  44     -18.255   9.303  -0.463  1.00 72.97 LIG-0.27  OA
ATOM     26  N   NH2 Z  45     -20.395   8.619  -0.615  1.00 76.38 LIG-0.11  N 
ENDBRANCH 17 24
ENDBRANCH 14 17
ENDBRANCH 12 13
BRANCH 12 27
ATOM     27  CB  LYS Z  43     -14.372   7.660  -1.629  1.00 40.99 LIG 0.04  C 
BRANCH 27 28
ATOM     28  CG  LYS Z  43     -13.041   6.922  -1.733  1.00 39.01 LIG 0.00  C 
BRANCH 28 29
ATOM     29  CD  LYS Z  43     -12.439   6.630  -0.364  1.00 38.38 LIG 0.03  C 
BRANCH 29 30
ATOM     30  CE  LYS Z  43     -11.241   5.693  -0.486  1.00 38.40 LIG 0.23  C 
BRANCH 30 31
ATOM     31  NZ  LYS Z  43      -9.967   6.413  -0.797  1.00 35.26 LIG-0.08  N 
ATOM     32 HZ3  LYS Z  43      -9.275   5.882  -0.619  1.00 35.26 LIG 0.27  HD
ATOM     33 HZ2  LYS Z  43      -9.912   7.148  -0.298  1.00 35.26 LIG 0.27  HD
ATOM     34 HZ1  LYS Z  43      -9.955   6.638  -1.658  1.00 35.26 LIG 0.27  HD
ENDBRANCH 30 31
ENDBRANCH 29 30
ENDBRANCH 28 29
ENDBRANCH 27 28
ENDBRANCH 12 27
ENDBRANCH 10 12
ENDBRANCH 7 8
BRANCH 7 35
ATOM     35  CB  ILE Z  42     -13.946   7.124  -6.923  1.00 30.84 LIG 0.01  C 
ATOM     36  CG2 ILE Z  42     -13.623   6.023  -5.918  1.00 35.03 LIG 0.01  C 
BRANCH 35 37
ATOM     37  CG1 ILE Z  42     -14.262   6.484  -8.272  1.00 30.67 LIG 0.00  C 
ATOM     38  CD1 ILE Z  42     -13.900   5.013  -8.343  1.00 26.38 LIG 0.01  C 
ENDBRANCH 35 37
ENDBRANCH 7 35
ENDBRANCH 5 7
ENDBRANCH 1 3
BRANCH 1 39
ATOM     39  N   ALA Z  41     -16.013  12.604  -6.981  1.00 17.22 LIG-0.35  N 
ATOM     40  C   ASN Z  40     -16.223  12.234  -8.242  1.00 21.77 LIG 0.24  C 
ATOM     41 O    ASN Z  40     -15.830  11.159  -8.701  1.00 19.61 LIG-0.27  OA
ATOM     42 H    ALA Z  41     -16.282  13.350  -6.648  1.00 17.22 LIG 0.16  HD
BRANCH 40 43
ATOM     43  CA  ASN Z  40     -16.992  13.209  -9.125  1.00 23.64 LIG 0.18  C 
BRANCH 43 44
ATOM     44  N   ASN Z  40     -17.795  14.177  -8.383  1.00 28.07 LIG-0.34  N 
ATOM     45 H    ASN Z  40     -17.439  14.956  -8.301  1.00 28.07 LIG 0.16  HD
ATOM     46  C   SER Z  39     -18.979  13.836  -7.889  1.00 29.35 LIG 0.24  C 
ATOM     47 O    SER Z  39     -19.424  12.688  -7.951  1.00 27.34 LIG-0.27  OA
BRANCH 46 48
ATOM     48  CA  SER Z  39     -19.785  14.939  -7.221  1.00 36.10 LIG 0.20  C 
BRANCH 48 49
ATOM     49  N   SER Z  39     -21.195  14.588  -7.317  1.00 45.98 LIG-0.34  N 
ATOM     50  C   ASN Z  38     -21.878  14.747  -8.447  1.00 57.47 LIG 0.24  C 
ATOM     51 O    ASN Z  38     -21.460  15.420  -9.391  1.00 60.64 LIG-0.27  OA
ATOM     52 H    SER Z  39     -21.534  14.275  -6.591  1.00 45.98 LIG 0.16  HD
BRANCH 50 53
ATOM     53  CA  ASN Z  38     -23.241  14.042  -8.515  1.00 65.29 LIG 0.18  C 
BRANCH 53 54
ATOM     54  N   ASN Z  38     -24.203  14.551  -9.497  1.00 70.64 LIG-0.35  N 
ATOM     55 H    ASN Z  38     -24.521  13.942 -10.015  1.00 70.64 LIG 0.16  HD
ATOM     56  C   ACE Z  37     -24.549  15.832  -9.582  1.00 74.22 LIG 0.21  C 
ATOM     57  CH3 ACE Z  37     -25.590  16.176 -10.645  1.00 75.88 LIG 0.12  C 
ATOM     58 O    ACE Z  37     -24.070  16.709  -8.864  1.00 75.32 LIG-0.27  OA
ENDBRANCH 53 54
BRANCH 53 59
ATOM     59  CB  ASN Z  38     -23.018  12.538  -8.731  1.00 65.91 LIG 0.12  C 
BRANCH 59 60
ATOM     60  CG  ASN Z  38     -24.160  11.687  -8.198  1.00 66.48 LIG 0.15  C 
ATOM     61 OD1  ASN Z  38     -23.904  10.985  -7.101  1.00 67.09 LIG-0.18  OA
ATOM     62  ND2 ASN Z  38     -25.254  11.657  -8.765  1.00 65.12 LIG-0.38  N 
ATOM     63 22HD ASN Z  38     -25.384  12.126  -9.474  1.00 65.12 LIG 0.16  HD
ATOM     64 21HD ASN Z  38     -25.887  11.168  -8.451  1.00 65.12 LIG 0.16  HD
ENDBRANCH 59 60
ENDBRANCH 53 59
ENDBRANCH 50 53
ENDBRANCH 48 49
BRANCH 48 65
ATOM     65  CB  SER Z  39     -19.345  15.091  -5.768  1.00 33.12 LIG 0.20  C 
BRANCH 65 66
ATOM     66 OG   SER Z  39     -19.750  16.351  -5.250  1.00 30.52 LIG-0.40  OA
ATOM     67 HG   SER Z  39     -20.277  16.721  -5.789  1.00 30.52 LIG 0.21  HD
ENDBRANCH 65 66
ENDBRANCH 48 65
ENDBRANCH 46 48
ENDBRANCH 43 44
BRANCH 43 68
ATOM     68  CB  ASN Z  40     -16.023  13.912 -10.079  1.00 19.94 LIG 0.14  C 
BRANCH 68 69
ATOM     69  CG  ASN Z  40     -15.865  13.171 -11.392  1.00 19.97 LIG 0.22  C 
ATOM     70 OD1  ASN Z  40     -16.845  12.922 -12.098  1.00 23.42 LIG-0.27  OA
ATOM     71  ND2 ASN Z  40     -14.631  12.803 -11.724  1.00 19.32 LIG-0.37  N 
ATOM     72 21HD ASN Z  40     -14.493  12.372 -12.456  1.00 19.32 LIG 0.16  HD
ATOM     73 22HD ASN Z  40     -13.972  12.995 -11.206  1.00 19.32 LIG 0.16  HD
ENDBRANCH 68 69
ENDBRANCH 43 68
ENDBRANCH 40 43
ENDBRANCH 1 39
TORSDOF 29
ENDMDL
MODEL 6
USER: ADFR SOLUTION from run 1
USER: SCORE 20.120176 LL:  -4.491 LR: -17.289 RR:   0.000 FEB:  -8.638
USER: RMSD 2.959996
USER: SEED 55583
USER: STATUS searching
USER: GENES 31
USER: genes 0 Translation |==|  0.55807 0.45931 0.48590
USER: genes 1 Rotation |==|  0.52345 0.39450 0.56414 0.98395
USER: genes 2 Torsion [N]-CA--C-[N] |==|  0.32977
USER: genes 3 Torsion [C]-N--CA-[C] |==|  0.80579
USER: genes 4 Torsion [N]-CA--C-[N] |==|  0.88927
USER: genes 5 Torsion [C]-N--CA-[C] |==|  0.78742
USER: genes 6 Torsion [N]-CA--C-[N] |==|  0.36164
USER: genes 7 Torsion [C]-N--CA-[CB] |==|  0.75781
USER: genes 8 Torsion [N]-CA--CB-[CG] |==|  0.78639
USER: genes 9 Torsion [CA]-CB--CG-[OD1] |==|  0.45949
USER: genes 10 Torsion [N]-CA--C-[N] |==|  0.20694
USER: genes 11 Torsion [N]-CA--CB-[CG] |==|  0.78243
USER: genes 12 Torsion [CA]-CB--CG-[CD] |==|  0.56538
USER: genes 13 Torsion [CB]-CG--CD-[CE] |==|  0.57571
USER: genes 14 Torsion [CG]-CD--CE-[NZ] |==|  0.42854
USER: genes 15 Torsion [CD]-CE--NZ-[HZ3] |==|  0.24428
USER: genes 16 Torsion [N]-CA--CB-[CG1] |==|  0.69335
USER: genes 17 Torsion [CA]-CB--CG1-[CD1] |==|  0.62281
USER: genes 18 Torsion [CB]-CA--N-[C] |==|  0.51111
USER: genes 19 Torsion [N]-C--CA-[N] |==|  0.97811
USER: genes 20 Torsion [C]-CA--N-[C] |==|  0.77009
USER: genes 21 Torsion [N]-C--CA-[N] |==|  0.31854
USER: genes 22 Torsion [C]-CA--N-[C] |==|  0.70675
USER: genes 23 Torsion [N]-C--CA-[N] |==|  0.19010
USER: genes 24 Torsion [C]-CA--N-[C] |==|  0.59527
USER: genes 25 Torsion [C]-CA--CB-[CG] |==|  0.35401
USER: genes 26 Torsion [CA]-CB--CG-[OD1] |==|  0.58321
USER: genes 27 Torsion [C]-CA--CB-[OG] |==|  0.67587
USER: genes 28 Torsion [CA]-CB--OG-[HG] |==|  0.74237
USER: genes 29 Torsion [C]-CA--CB-[CG] |==|  0.27490
USER: genes 30 Torsion [CA]-CB--CG-[OD1] |==|  0.12834
ROOT
ATOM      1  CA  ALA Z  41     -15.586  11.842  -5.666  1.00 21.22 LIG 0.17  C 
ATOM      2  CB  ALA Z  41     -15.926  12.395  -4.284  1.00 23.94 LIG 0.04  C 
ENDROOT
BRANCH 1 3
ATOM      3  C   ALA Z  41     -15.992  10.372  -5.764  1.00 23.72 LIG 0.24  C 
ATOM      4 O    ALA Z  41     -17.169  10.034  -5.641  1.00 25.98 LIG-0.27  OA
ATOM      5  N   ILE Z  42     -15.014   9.499  -5.981  1.00 25.83 LIG-0.35  N 
ATOM      6 H    ILE Z  42     -14.185   9.711  -6.076  1.00 25.83 LIG 0.16  HD
BRANCH 5 7
ATOM      7  CA  ILE Z  42     -15.296   8.071  -6.077  1.00 30.93 LIG 0.18  C 
BRANCH 7 8
ATOM      8  C   ILE Z  42     -15.700   7.468  -4.730  1.00 34.23 LIG 0.24  C 
ATOM      9 O    ILE Z  42     -16.605   6.636  -4.664  1.00 38.88 LIG-0.27  OA
ATOM     10  N   LYS Z  43     -15.037   7.893  -3.658  1.00 34.26 LIG-0.35  N 
ATOM     11 H    LYS Z  43     -14.453   8.524  -3.665  1.00 34.26 LIG 0.16  HD
BRANCH 10 12
ATOM     12  CA  LYS Z  43     -15.272   7.287  -2.349  1.00 43.39 LIG 0.18  C 
BRANCH 12 13
ATOM     13  C   LYS Z  43     -16.570   7.735  -1.676  1.00 55.57 LIG 0.24  C 
ATOM     14  N   ASN Z  44     -17.364   6.775  -1.208  1.00 60.92 LIG-0.34  N 
ATOM     15 H    ASN Z  44     -17.169   5.938  -1.246  1.00 60.92 LIG 0.16  HD
ATOM     16 O    LYS Z  43     -16.838   8.935  -1.586  1.00 61.19 LIG-0.27  OA
BRANCH 14 17
ATOM     17  CA  ASN Z  44     -18.657   7.060  -0.579  1.00 70.44 LIG 0.19  C 
BRANCH 17 18
ATOM     18  CB  ASN Z  44     -18.501   7.329   0.925  1.00 74.13 LIG 0.14  C 
BRANCH 18 19
ATOM     19  CG  ASN Z  44     -18.297   6.058   1.731  1.00 76.38 LIG 0.22  C 
ATOM     20  ND2 ASN Z  44     -18.576   4.913   1.114  1.00 76.67 LIG-0.37  N 
ATOM     21 21HD ASN Z  44     -18.477   4.166   1.528  1.00 76.67 LIG 0.16  HD
ATOM     22 22HD ASN Z  44     -18.856   4.920   0.301  1.00 76.67 LIG 0.16  HD
ATOM     23 OD1  ASN Z  44     -17.893   6.104   2.894  1.00 76.30 LIG-0.27  OA
ENDBRANCH 18 19
ENDBRANCH 17 18
BRANCH 17 24
ATOM     24  C   ASN Z  44     -19.402   8.218  -1.246  1.00 74.17 LIG 0.28  C 
ATOM     25 O    ASN Z  44     -19.471   9.323  -0.703  1.00 72.97 LIG-0.27  OA
ATOM     26  N   NH2 Z  45     -19.959   7.957  -2.425  1.00 76.38 LIG-0.11  N 
ENDBRANCH 17 24
ENDBRANCH 14 17
ENDBRANCH 12 13
BRANCH 12 27
ATOM     27  CB  LYS Z  43     -14.071   7.500  -1.420  1.00 40.99 LIG 0.04  C 
BRANCH 27 28
ATOM     28  CG  LYS Z  43     -12.911   6.552  -1.703  1.00 39.01 LIG 0.00  C 
BRANCH 28 29
ATOM     29  CD  LYS Z  43     -12.011   6.367  -0.487  1.00 38.38 LIG 0.03  C 
BRANCH 29 30
ATOM     30  CE  LYS Z  43     -10.588   6.018  -0.912  1.00 38.40 LIG 0.23  C 
BRANCH 30 31
ATOM     31  NZ  LYS Z  43      -9.563   6.413   0.102  1.00 35.26 LIG-0.08  N 
ATOM     32 HZ3  LYS Z  43      -9.455   5.752   0.689  1.00 35.26 LIG 0.27  HD
ATOM     33 HZ2  LYS Z  43      -9.833   7.146   0.529  1.00 35.26 LIG 0.27  HD
ATOM     34 HZ1  LYS Z  43      -8.789   6.576  -0.305  1.00 35.26 LIG 0.27  HD
ENDBRANCH 30 31
ENDBRANCH 29 30
ENDBRANCH 28 29
ENDBRANCH 27 28
ENDBRANCH 12 27
ENDBRANCH 10 12
ENDBRANCH 7 8
BRANCH 7 35
ATOM     35  CB  ILE Z  42     -14.102   7.283  -6.647  1.00 30.84 LIG 0.01  C 
ATOM     36  CG2 ILE Z  42     -13.767   6.099  -5.747  1.00 35.03 LIG 0.01  C 
BRANCH 35 37
ATOM     37  CG1 ILE Z  42     -14.423   6.763  -8.046  1.00 30.67 LIG 0.00  C 
ATOM     38  CD1 ILE Z  42     -14.001   5.323  -8.268  1.00 26.38 LIG 0.01  C 
ENDBRANCH 35 37
ENDBRANCH 7 35
ENDBRANCH 5 7
ENDBRANCH 1 3
BRANCH 1 39
ATOM     39  N   ALA Z  41     -16.225  12.638  -6.712  1.00 17.22 LIG-0.35  N 
ATOM     40  C   ASN Z  40     -16.137  12.299  -7.997  1.00 21.77 LIG 0.24  C 
ATOM     41 O    ASN Z  40     -15.522  11.305  -8.388  1.00 19.61 LIG-0.27  OA
ATOM     42 H    ALA Z  41     -16.652  13.326  -6.425  1.00 17.22 LIG 0.16  HD
BRANCH 40 43
ATOM     43  CA  ASN Z  40     -16.846  13.205  -8.996  1.00 23.64 LIG 0.18  C 
BRANCH 43 44
ATOM     44  N   ASN Z  40     -17.683  14.230  -8.378  1.00 28.07 LIG-0.34  N 
ATOM     45 H    ASN Z  40     -17.312  15.003  -8.303  1.00 28.07 LIG 0.16  HD
ATOM     46  C   SER Z  39     -18.917  13.946  -7.979  1.00 29.35 LIG 0.24  C 
ATOM     47 O    SER Z  39     -19.390  12.809  -8.025  1.00 27.34 LIG-0.27  OA
BRANCH 46 48
ATOM     48  CA  SER Z  39     -19.746  15.103  -7.442  1.00 36.10 LIG 0.20  C 
BRANCH 48 49
ATOM     49  N   SER Z  39     -20.863  15.317  -8.353  1.00 45.98 LIG-0.34  N 
ATOM     50  C   ASN Z  38     -20.892  16.349  -9.191  1.00 57.47 LIG 0.24  C 
ATOM     51 O    ASN Z  38     -20.130  17.313  -9.090  1.00 60.64 LIG-0.27  OA
ATOM     52 H    SER Z  39     -21.486  14.727  -8.296  1.00 45.98 LIG 0.16  HD
BRANCH 50 53
ATOM     53  CA  ASN Z  38     -21.943  16.278 -10.309  1.00 65.29 LIG 0.18  C 
BRANCH 53 54
ATOM     54  N   ASN Z  38     -23.348  16.385  -9.906  1.00 70.64 LIG-0.35  N 
ATOM     55 H    ASN Z  38     -23.475  16.909  -9.235  1.00 70.64 LIG 0.16  HD
ATOM     56  C   ACE Z  37     -24.333  15.734 -10.518  1.00 74.22 LIG 0.21  C 
ATOM     57  CH3 ACE Z  37     -25.740  15.992  -9.982  1.00 75.88 LIG 0.12  C 
ATOM     58 O    ACE Z  37     -24.149  14.961 -11.456  1.00 75.32 LIG-0.27  OA
ENDBRANCH 53 54
BRANCH 53 59
ATOM     59  CB  ASN Z  38     -21.620  17.342 -11.368  1.00 65.91 LIG 0.12  C 
BRANCH 59 60
ATOM     60  CG  ASN Z  38     -21.543  16.772 -12.776  1.00 66.48 LIG 0.15  C 
ATOM     61 OD1  ASN Z  38     -20.719  17.390 -13.613  1.00 67.09 LIG-0.18  OA
ATOM     62  ND2 ASN Z  38     -22.217  15.795 -13.108  1.00 65.12 LIG-0.38  N 
ATOM     63 22HD ASN Z  38     -22.740  15.420 -12.538  1.00 65.12 LIG 0.16  HD
ATOM     64 21HD ASN Z  38     -22.162  15.488 -13.910  1.00 65.12 LIG 0.16  HD
ENDBRANCH 59 60
ENDBRANCH 53 59
ENDBRANCH 50 53
ENDBRANCH 48 49
BRANCH 48 65
ATOM     65  CB  SER Z  39     -20.229  14.780  -6.032  1.00 33.12 LIG 0.20  C 
BRANCH 65 66
ATOM     66 OG   SER Z  39     -21.648  14.707  -5.991  1.00 30.52 LIG-0.40  OA
ATOM     67 HG   SER Z  39     -21.962  15.458  -5.782  1.00 30.52 LIG 0.21  HD
ENDBRANCH 65 66
ENDBRANCH 48 65
ENDBRANCH 46 48
ENDBRANCH 43 44
BRANCH 43 68
ATOM     68  CB  ASN Z  40     -15.820  13.828  -9.944  1.00 19.94 LIG 0.14  C 
BRANCH 68 69
ATOM     69  CG  ASN Z  40     -15.741  13.099 -11.271  1.00 19.97 LIG 0.22  C 
ATOM     70 OD1  ASN Z  40     -16.768  12.787 -11.880  1.00 23.42 LIG-0.27  OA
ATOM     71  ND2 ASN Z  40     -14.525  12.812 -11.722  1.00 19.32 LIG-0.37  N 
ATOM     72 21HD ASN Z  40     -14.431  12.392 -12.467  1.00 19.32 LIG 0.16  HD
ATOM     73 22HD ASN Z  40     -13.832  13.046 -11.269  1.00 19.32 LIG 0.16  HD
ENDBRANCH 68 69
ENDBRANCH 43 68
ENDBRANCH 40 43
ENDBRANCH 1 39
TORSDOF 29
ENDMDL
MODEL 7
USER: ADFR SOLUTION from run 122
USER: SCORE 20.702635 LL:  -4.611 LR: -17.295 RR:   0.000 FEB:  -8.644
USER: RMSD 3.318144
USER: SEED 121
USER: STATUS no improvement in best in 4 clusters for 5 generations
USER: GENES 31
USER: genes 0 Translation |==|  0.60461 0.44929 0.45790
USER: genes 1 Rotation |==|  0.51516 0.48622 0.51167 0.99944
USER: genes 2 Torsion [N]-CA--C-[N] |==|  0.40148
USER: genes 3 Torsion [C]-N--CA-[C] |==|  0.74787
USER: genes 4 Torsion [N]-CA--C-[N] |==|  0.86839
USER: genes 5 Torsion [C]-N--CA-[C] |==|  0.72019
USER: genes 6 Torsion [N]-CA--C-[N] |==|  0.85913
USER: genes 7 Torsion [C]-N--CA-[CB] |==|  0.16498
USER: genes 8 Torsion [N]-CA--CB-[CG] |==|  0.21058
USER: genes 9 Torsion [CA]-CB--CG-[OD1] |==|  0.36804
USER: genes 10 Torsion [N]-CA--C-[N] |==|  0.07226
USER: genes 11 Torsion [N]-CA--CB-[CG] |==|  0.43976
USER: genes 12 Torsion [CA]-CB--CG-[CD] |==|  0.50595
USER: genes 13 Torsion [CB]-CG--CD-[CE] |==|  0.49394
USER: genes 14 Torsion [CG]-CD--CE-[NZ] |==|  0.42159
USER: genes 15 Torsion [CD]-CE--NZ-[HZ3] |==|  0.16414
USER: genes 16 Torsion [N]-CA--CB-[CG1] |==|  0.77527
USER: genes 17 Torsion [CA]-CB--CG1-[CD1] |==|  0.46375
USER: genes 18 Torsion [CB]-CA--N-[C] |==|  0.53726
USER: genes 19 Torsion [N]-C--CA-[N] |==|  0.90208
USER: genes 20 Torsion [C]-CA--N-[C] |==|  0.81026
USER: genes 21 Torsion [N]-C--CA-[N] |==|  0.34444
USER: genes 22 Torsion [C]-CA--N-[C] |==|  0.82198
USER: genes 23 Torsion [N]-C--CA-[N] |==|  0.46951
USER: genes 24 Torsion [C]-CA--N-[C] |==|  0.76334
USER: genes 25 Torsion [C]-CA--CB-[CG] |==|  0.48191
USER: genes 26 Torsion [CA]-CB--CG-[OD1] |==|  0.72167
USER: genes 27 Torsion [C]-CA--CB-[OG] |==|  0.81055
USER: genes 28 Torsion [CA]-CB--OG-[HG] |==|  0.06185
USER: genes 29 Torsion [C]-CA--CB-[CG] |==|  0.23980
USER: genes 30 Torsion [CA]-CB--CG-[OD1] |==|  0.15538
ROOT
ATOM      1  CA  ALA Z  41     -14.469  11.609  -6.296  1.00 21.22 LIG 0.17  C 
ATOM      2  CB  ALA Z  41     -14.164  12.218  -4.930  1.00 23.94 LIG 0.04  C 
ENDROOT
BRANCH 1 3
ATOM      3  C   ALA Z  41     -15.152  10.252  -6.131  1.00 23.72 LIG 0.24  C 
ATOM      4 O    ALA Z  41     -16.376  10.173  -6.020  1.00 25.98 LIG-0.27  OA
ATOM      5  N   ILE Z  42     -14.359   9.186  -6.112  1.00 25.83 LIG-0.35  N 
ATOM      6 H    ILE Z  42     -13.504   9.215  -6.193  1.00 25.83 LIG 0.16  HD
BRANCH 5 7
ATOM      7  CA  ILE Z  42     -14.914   7.847  -5.946  1.00 30.93 LIG 0.18  C 
BRANCH 7 8
ATOM      8  C   ILE Z  42     -14.988   7.429  -4.476  1.00 34.23 LIG 0.24  C 
ATOM      9 O    ILE Z  42     -16.019   6.937  -4.017  1.00 38.88 LIG-0.27  OA
ATOM     10  N   LYS Z  43     -13.900   7.632  -3.737  1.00 34.26 LIG-0.35  N 
ATOM     11 H    LYS Z  43     -13.194   8.039  -4.011  1.00 34.26 LIG 0.16  HD
BRANCH 10 12
ATOM     12  CA  LYS Z  43     -13.838   7.155  -2.356  1.00 43.39 LIG 0.18  C 
BRANCH 12 13
ATOM     13  C   LYS Z  43     -14.090   8.239  -1.308  1.00 55.57 LIG 0.24  C 
ATOM     14  N   ASN Z  44     -13.378   9.358  -1.421  1.00 60.92 LIG-0.34  N 
ATOM     15 H    ASN Z  44     -12.817   9.501  -2.057  1.00 60.92 LIG 0.16  HD
ATOM     16 O    LYS Z  43     -14.919   8.055  -0.414  1.00 61.19 LIG-0.27  OA
BRANCH 14 17
ATOM     17  CA  ASN Z  44     -13.487  10.461  -0.461  1.00 70.44 LIG 0.19  C 
BRANCH 17 18
ATOM     18  CB  ASN Z  44     -13.128  10.004   0.960  1.00 74.13 LIG 0.14  C 
BRANCH 18 19
ATOM     19  CG  ASN Z  44     -11.633   9.835   1.163  1.00 76.38 LIG 0.22  C 
ATOM     20  ND2 ASN Z  44     -10.981   9.153   0.226  1.00 76.67 LIG-0.37  N 
ATOM     21 21HD ASN Z  44     -10.132   9.029   0.295  1.00 76.67 LIG 0.16  HD
ATOM     22 22HD ASN Z  44     -11.407   8.835  -0.450  1.00 76.67 LIG 0.16  HD
ATOM     23 OD1  ASN Z  44     -11.071  10.311   2.150  1.00 76.30 LIG-0.27  OA
ENDBRANCH 18 19
ENDBRANCH 17 18
BRANCH 17 24
ATOM     24  C   ASN Z  44     -12.643  11.677  -0.852  1.00 74.17 LIG 0.28  C 
ATOM     25 O    ASN Z  44     -12.236  12.466   0.003  1.00 72.97 LIG-0.27  OA
ATOM     26  N   NH2 Z  45     -12.388  11.821  -2.149  1.00 76.38 LIG-0.11  N 
ENDBRANCH 17 24
ENDBRANCH 14 17
ENDBRANCH 12 13
BRANCH 12 27
ATOM     27  CB  LYS Z  43     -12.517   6.426  -2.085  1.00 40.99 LIG 0.04  C 
BRANCH 27 28
ATOM     28  CG  LYS Z  43     -12.151   6.369  -0.605  1.00 39.01 LIG 0.00  C 
BRANCH 28 29
ATOM     29  CD  LYS Z  43     -10.809   5.685  -0.373  1.00 38.38 LIG 0.03  C 
BRANCH 29 30
ATOM     30  CE  LYS Z  43     -10.446   5.691   1.109  1.00 38.40 LIG 0.23  C 
BRANCH 30 31
ATOM     31  NZ  LYS Z  43      -9.578   4.538   1.502  1.00 35.26 LIG-0.08  N 
ATOM     32 HZ3  LYS Z  43      -8.825   4.558   1.027  1.00 35.26 LIG 0.27  HD
ATOM     33 HZ2  LYS Z  43     -10.008   3.774   1.343  1.00 35.26 LIG 0.27  HD
ATOM     34 HZ1  LYS Z  43      -9.384   4.594   2.368  1.00 35.26 LIG 0.27  HD
ENDBRANCH 30 31
ENDBRANCH 29 30
ENDBRANCH 28 29
ENDBRANCH 27 28
ENDBRANCH 12 27
ENDBRANCH 10 12
ENDBRANCH 7 8
BRANCH 7 35
ATOM     35  CB  ILE Z  42     -14.118   6.790  -6.733  1.00 30.84 LIG 0.01  C 
ATOM     36  CG2 ILE Z  42     -14.358   5.401  -6.152  1.00 35.03 LIG 0.01  C 
BRANCH 35 37
ATOM     37  CG1 ILE Z  42     -14.536   6.790  -8.201  1.00 30.67 LIG 0.00  C 
ATOM     38  CD1 ILE Z  42     -13.593   6.010  -9.098  1.00 26.38 LIG 0.01  C 
ENDBRANCH 35 37
ENDBRANCH 7 35
ENDBRANCH 5 7
ENDBRANCH 1 3
BRANCH 1 39
ATOM     39  N   ALA Z  41     -15.286  12.519  -7.097  1.00 17.22 LIG-0.35  N 
ATOM     40  C   ASN Z  40     -15.896  12.111  -8.208  1.00 21.77 LIG 0.24  C 
ATOM     41 O    ASN Z  40     -15.819  10.957  -8.632  1.00 19.61 LIG-0.27  OA
ATOM     42 H    ALA Z  41     -15.333  13.320  -6.789  1.00 17.22 LIG 0.16  HD
BRANCH 40 43
ATOM     43  CA  ASN Z  40     -16.722  13.151  -8.957  1.00 23.64 LIG 0.18  C 
BRANCH 43 44
ATOM     44  N   ASN Z  40     -17.402  14.108  -8.090  1.00 28.07 LIG-0.34  N 
ATOM     45 H    ASN Z  40     -17.105  14.914  -8.136  1.00 28.07 LIG 0.16  HD
ATOM     46  C   SER Z  39     -18.401  13.719  -7.305  1.00 29.35 LIG 0.24  C 
ATOM     47 O    SER Z  39     -18.748  12.541  -7.199  1.00 27.34 LIG-0.27  OA
BRANCH 46 48
ATOM     48  CA  SER Z  39     -19.113  14.806  -6.515  1.00 36.10 LIG 0.20  C 
BRANCH 48 49
ATOM     49  N   SER Z  39     -20.532  14.740  -6.839  1.00 45.98 LIG-0.34  N 
ATOM     50  C   ASN Z  38     -20.979  14.983  -8.067  1.00 57.47 LIG 0.24  C 
ATOM     51 O    ASN Z  38     -20.286  15.516  -8.937  1.00 60.64 LIG-0.27  OA
ATOM     52 H    SER Z  39     -21.039  14.535  -6.175  1.00 45.98 LIG 0.16  HD
BRANCH 50 53
ATOM     53  CA  ASN Z  38     -22.429  14.564  -8.351  1.00 65.29 LIG 0.18  C 
BRANCH 53 54
ATOM     54  N   ASN Z  38     -23.023  15.039  -9.604  1.00 70.64 LIG-0.35  N 
ATOM     55 H    ASN Z  38     -22.961  14.475 -10.251  1.00 70.64 LIG 0.16  HD
ATOM     56  C   ACE Z  37     -23.604  16.229  -9.730  1.00 74.22 LIG 0.21  C 
ATOM     57  CH3 ACE Z  37     -24.199  16.543 -11.101  1.00 75.88 LIG 0.12  C 
ATOM     58 O    ACE Z  37     -23.666  17.049  -8.815  1.00 75.32 LIG-0.27  OA
ENDBRANCH 53 54
BRANCH 53 59
ATOM     59  CB  ASN Z  38     -22.534  13.034  -8.269  1.00 65.91 LIG 0.12  C 
BRANCH 59 60
ATOM     60  CG  ASN Z  38     -23.965  12.532  -8.380  1.00 66.48 LIG 0.15  C 
ATOM     61 OD1  ASN Z  38     -24.562  12.210  -7.239  1.00 67.09 LIG-0.18  OA
ATOM     62  ND2 ASN Z  38     -24.524  12.430  -9.474  1.00 65.12 LIG-0.38  N 
ATOM     63 22HD ASN Z  38     -24.106  12.648 -10.193  1.00 65.12 LIG 0.16  HD
ATOM     64 21HD ASN Z  38     -25.333  12.141  -9.518  1.00 65.12 LIG 0.16  HD
ENDBRANCH 59 60
ENDBRANCH 53 59
ENDBRANCH 50 53
ENDBRANCH 48 49
BRANCH 48 65
ATOM     65  CB  SER Z  39     -18.870  14.601  -5.023  1.00 33.12 LIG 0.20  C 
BRANCH 65 66
ATOM     66 OG   SER Z  39     -19.526  13.425  -4.564  1.00 30.52 LIG-0.40  OA
ATOM     67 HG   SER Z  39     -19.661  12.908  -5.212  1.00 30.52 LIG 0.21  HD
ENDBRANCH 65 66
ENDBRANCH 48 65
ENDBRANCH 46 48
ENDBRANCH 43 44
BRANCH 43 68
ATOM     68  CB  ASN Z  40     -15.840  13.866  -9.983  1.00 19.94 LIG 0.14  C 
BRANCH 68 69
ATOM     69  CG  ASN Z  40     -15.774  13.126 -11.305  1.00 19.97 LIG 0.22  C 
ATOM     70 OD1  ASN Z  40     -16.804  12.848 -11.924  1.00 23.42 LIG-0.27  OA
ATOM     71  ND2 ASN Z  40     -14.564  12.790 -11.740  1.00 19.32 LIG-0.37  N 
ATOM     72 21HD ASN Z  40     -14.477  12.362 -12.481  1.00 19.32 LIG 0.16  HD
ATOM     73 22HD ASN Z  40     -13.868  13.002 -11.281  1.00 19.32 LIG 0.16  HD
ENDBRANCH 68 69
ENDBRANCH 43 68
ENDBRANCH 40 43
ENDBRANCH 1 39
TORSDOF 29
ENDMDL
