MODEL 1
USER: ADFR SOLUTION from run 89
USER: SCORE 22.151776 LL:  -6.329 LR: -18.439 RR:   0.000 FEB: -10.982
USER: RMSD 2.526704
USER: SEED 88
USER: STATUS no improvement in best in 3 clusters for 5 generations
USER: GENES 27
USER: genes 0 Translation |==|  0.42824 0.52275 0.49982
USER: genes 1 Rotation |==|  0.53086 0.54149 0.48279 0.99702
USER: genes 2 Torsion [N]-CA--C-[N] |==|  0.31287
USER: genes 3 Torsion [C]-N--CA-[C] |==|  0.73531
USER: genes 4 Torsion [N]-CA--CB-[CG] |==|  0.94103
USER: genes 5 Torsion [CA]-CB--CG-[CD1] |==|  0.26964
USER: genes 6 Torsion [N]-CA--C-[N] |==|  0.19446
USER: genes 7 Torsion [C]-N--CA-[CB] |==|  0.41859
USER: genes 8 Torsion [N]-CA--CB-[CG] |==|  0.08374
USER: genes 9 Torsion [CA]-CB--CG-[CD1] |==|  0.15713
USER: genes 10 Torsion [N]-CA--C-[N] |==|  0.62992
USER: genes 11 Torsion [C]-N--CA-[C] |==|  0.48922
USER: genes 12 Torsion [N]-CA--C-[O] |==|  0.20775
USER: genes 13 Torsion [N]-CA--CB-[OG] |==|  0.66756
USER: genes 14 Torsion [CA]-CB--OG-[HG] |==|  0.47107
USER: genes 15 Torsion [N]-C--CA-[N] |==|  0.40723
USER: genes 16 Torsion [C]-CA--N-[C] |==|  0.81934
USER: genes 17 Torsion [N]-C--CA-[N] |==|  0.19810
USER: genes 18 Torsion [C]-CA--N-[C] |==|  0.59147
USER: genes 19 Torsion [N]-C--CA-[N] |==|  0.14260
USER: genes 20 Torsion [C]-CA--CB-[CG] |==|  0.28972
USER: genes 21 Torsion [CA]-CB--CG-[CD] |==|  0.14393
USER: genes 22 Torsion [CB]-CG--CD-[OE1] |==|  0.46683
USER: genes 23 Torsion [C]-CA--CB-[CG] |==|  0.29886
USER: genes 24 Torsion [CA]-CB--CG-[CD2] |==|  0.60905
USER: genes 25 Torsion [C]-CA--CB-[CG] |==|  0.54983
USER: genes 26 Torsion [CA]-CB--CG-[CD2] |==|  0.67591
ROOT
ATOM      1  C   LEU D   6      15.863  12.328  42.668  1.00 70.97 LIG 0.24  C 
ATOM      2 O    LEU D   6      15.780  13.487  43.046  1.00 69.80 LIG-0.27  OA
ATOM      3  N   PRO D   7      16.907  11.547  42.993  1.00 67.36 LIG-0.34  N 
ATOM      4  CA  PRO D   7      17.977  12.094  43.823  1.00 66.95 LIG 0.18  C 
ATOM      5  CB  PRO D   7      18.436  10.878  44.645  1.00 69.23 LIG 0.04  C 
ATOM      6  CG  PRO D   7      17.957   9.649  43.864  1.00 73.99 LIG 0.02  C 
ATOM      7  CD  PRO D   7      17.162  10.127  42.676  1.00 69.55 LIG 0.13  C 
ENDROOT
BRANCH 4 8
ATOM      8  C   PRO D   7      19.111  12.680  42.987  1.00 67.39 LIG 0.24  C 
ATOM      9  N   LEU D   8      19.261  13.998  43.061  1.00 63.51 LIG-0.35  N 
ATOM     10 H    LEU D   8      18.735  14.512  43.506  1.00 63.51 LIG 0.16  HD
ATOM     11 O    PRO D   7      19.835  11.961  42.296  1.00 65.73 LIG-0.27  OA
BRANCH 9 12
ATOM     12  CA  LEU D   8      20.338  14.696  42.387  1.00 63.43 LIG 0.18  C 
BRANCH 12 13
ATOM     13  CB  LEU D   8      19.858  16.011  41.783  1.00 63.06 LIG 0.04  C 
BRANCH 13 14
ATOM     14  CG  LEU D   8      18.363  16.034  41.571  1.00 67.32 LIG-0.02  C 
ATOM     15  CD1 LEU D   8      17.678  16.720  42.698  1.00 66.57 LIG 0.01  C 
ATOM     16  CD2 LEU D   8      18.008  16.629  40.236  1.00 70.19 LIG 0.01  C 
ENDBRANCH 13 14
ENDBRANCH 12 13
BRANCH 12 17
ATOM     17  C   LEU D   8      21.496  14.903  43.338  1.00 69.22 LIG 0.24  C 
ATOM     18  N   PHE D   9      22.191  13.817  43.699  1.00 66.75 LIG-0.35  N 
ATOM     19 H    PHE D   9      22.008  13.024  43.421  1.00 66.75 LIG 0.16  HD
ATOM     20 O    LEU D   8      21.724  16.028  43.782  1.00 69.38 LIG-0.27  OA
BRANCH 18 21
ATOM     21  CA  PHE D   9      23.331  13.877  44.603  1.00 67.50 LIG 0.18  C 
BRANCH 21 22
ATOM     22  CB  PHE D   9      23.475  12.569  45.393  1.00 70.09 LIG 0.07  C 
BRANCH 22 23
ATOM     23  CG  PHE D   9      23.007  11.292  44.728  1.00 72.62 LIG-0.06  A 
ATOM     24  CD2 PHE D   9      21.986  10.535  45.288  1.00 75.26 LIG 0.01  A 
ATOM     25  CE2 PHE D   9      21.526   9.379  44.658  1.00 78.46 LIG 0.00  A 
ATOM     26  CZ  PHE D   9      22.082   8.976  43.461  1.00 76.95 LIG 0.00  A 
ATOM     27  CE1 PHE D   9      23.082   9.723  42.879  1.00 77.74 LIG 0.00  A 
ATOM     28  CD1 PHE D   9      23.519  10.897  43.493  1.00 76.53 LIG 0.01  A 
ENDBRANCH 22 23
ENDBRANCH 21 22
BRANCH 21 29
ATOM     29  C   PHE D   9      24.630  14.196  43.859  1.00 72.50 LIG 0.24  C 
ATOM     30 O    PHE D   9      24.666  15.122  43.046  1.00 71.57 LIG-0.27  OA
ATOM     31  N   SER D  10      25.705  13.438  44.147  1.00 70.70 LIG-0.34  N 
ATOM     32 H    SER D  10      25.697  12.804  44.728  1.00 70.70 LIG 0.16  HD
BRANCH 31 33
ATOM     33  CA  SER D  10      27.003  13.629  43.489  1.00110.54 LIG 0.19  C 
BRANCH 33 34
ATOM     34  C   SER D  10      28.065  12.697  44.077  1.00112.68 LIG 0.22  C 
ATOM     35 O    SER D  10      28.055  11.499  43.796  1.00 61.17 LIG-0.29  OA
ENDBRANCH 33 34
BRANCH 33 36
ATOM     36  CB  SER D  10      27.452  15.085  43.581  1.00114.99 LIG 0.20  C 
BRANCH 36 37
ATOM     37 OG   SER D  10      27.618  15.669  42.298  1.00125.63 LIG-0.40  OA
ATOM     38 HG   SER D  10      27.724  16.498  42.379  1.00125.63 LIG 0.21  HD
ENDBRANCH 36 37
ENDBRANCH 33 36
ENDBRANCH 31 33
ENDBRANCH 21 29
ENDBRANCH 18 21
ENDBRANCH 12 17
ENDBRANCH 9 12
ENDBRANCH 4 8
BRANCH 1 39
ATOM     39  CA  LEU D   6      14.798  11.756  41.774  1.00 70.47 LIG 0.18  C 
BRANCH 39 40
ATOM     40  N   LEU D   6      13.439  12.214  42.013  1.00 72.03 LIG-0.35  N 
ATOM     41  C   PHE D   5      12.816  11.930  43.156  1.00 78.51 LIG 0.24  C 
ATOM     42 O    PHE D   5      13.350  11.309  44.083  1.00 77.96 LIG-0.27  OA
ATOM     43 H    LEU D   6      13.092  12.666  41.370  1.00 72.03 LIG 0.16  HD
BRANCH 41 44
ATOM     44  CA  PHE D   5      11.354  12.306  43.229  1.00 78.26 LIG 0.18  C 
BRANCH 44 45
ATOM     45  N   PHE D   5      10.577  11.409  42.370  1.00 79.00 LIG-0.34  N 
ATOM     46 H    PHE D   5      10.886  10.608  42.318  1.00 79.00 LIG 0.16  HD
ATOM     47  C   GLU D   4       9.483  11.832  41.733  1.00 84.09 LIG 0.26  C 
ATOM     48 O    GLU D   4       9.005  12.954  41.894  1.00 84.89 LIG-0.27  OA
BRANCH 47 49
ATOM     49  CA  GLU D   4       8.805  10.866  40.779  1.00 80.59 LIG 0.40  C 
ATOM     50  N   GLU D   4       8.564   9.588  41.442  1.00 81.26 LIG 0.61  N 
BRANCH 49 51
ATOM     51  CB  GLU D   4       7.472  11.473  40.287  1.00 81.69 LIG 0.06  C 
BRANCH 51 52
ATOM     52  CG  GLU D   4       7.518  12.010  38.865  1.00 88.66 LIG 0.12  C 
BRANCH 52 53
ATOM     53  CD  GLU D   4       8.047  11.055  37.811  1.00 99.07 LIG 0.17  C 
ATOM     54 OE1  GLU D   4       7.902  11.347  36.601  1.00 74.80 LIG-0.65  OA
ATOM     55 OE2  GLU D   4       8.676  10.044  38.200  1.00 93.08 LIG-0.65  OA
ENDBRANCH 52 53
ENDBRANCH 51 52
ENDBRANCH 49 51
ENDBRANCH 47 49
ENDBRANCH 44 45
BRANCH 44 56
ATOM     56  CB  PHE D   5      10.803  12.418  44.653  1.00 80.27 LIG 0.07  C 
BRANCH 56 57
ATOM     57  CG  PHE D   5      10.548  13.851  45.064  1.00 81.89 LIG-0.06  A 
ATOM     58  CD2 PHE D   5      10.837  14.286  46.356  1.00 84.17 LIG 0.01  A 
ATOM     59  CE2 PHE D   5      10.592  15.608  46.740  1.00 86.81 LIG 0.00  A 
ATOM     60  CZ  PHE D   5      10.073  16.504  45.830  1.00 84.76 LIG 0.00  A 
ATOM     61  CE1 PHE D   5       9.770  16.088  44.550  1.00 85.59 LIG 0.00  A 
ATOM     62  CD1 PHE D   5      10.003  14.761  44.169  1.00 84.61 LIG 0.01  A 
ENDBRANCH 56 57
ENDBRANCH 44 56
ENDBRANCH 41 44
ENDBRANCH 39 40
BRANCH 39 63
ATOM     63  CB  LEU D   6      15.173  11.921  40.305  1.00 70.57 LIG 0.04  C 
BRANCH 63 64
ATOM     64  CG  LEU D   6      14.016  11.778  39.340  1.00 75.48 LIG-0.02  C 
ATOM     65  CD2 LEU D   6      14.212  10.627  38.453  1.00 78.97 LIG 0.01  C 
ATOM     66  CD1 LEU D   6      13.837  13.007  38.550  1.00 75.94 LIG 0.01  C 
ENDBRANCH 63 64
ENDBRANCH 39 63
ENDBRANCH 1 39
TORSDOF 25
ENDMDL
MODEL 2
USER: ADFR SOLUTION from run 118
USER: SCORE 22.750039 LL:  -5.639 LR: -18.055 RR:   0.000 FEB: -10.598
USER: RMSD 4.059114
USER: SEED 117
USER: STATUS searching
USER: GENES 27
USER: genes 0 Translation |==|  0.42919 0.52210 0.50811
USER: genes 1 Rotation |==|  0.55640 0.55812 0.50228 0.99339
USER: genes 2 Torsion [N]-CA--C-[N] |==|  0.29318
USER: genes 3 Torsion [C]-N--CA-[C] |==|  0.76802
USER: genes 4 Torsion [N]-CA--CB-[CG] |==|  0.66454
USER: genes 5 Torsion [CA]-CB--CG-[CD1] |==|  0.87068
USER: genes 6 Torsion [N]-CA--C-[N] |==|  0.49980
USER: genes 7 Torsion [C]-N--CA-[CB] |==|  0.86667
USER: genes 8 Torsion [N]-CA--CB-[CG] |==|  0.84107
USER: genes 9 Torsion [CA]-CB--CG-[CD1] |==|  0.42937
USER: genes 10 Torsion [N]-CA--C-[N] |==|  0.37753
USER: genes 11 Torsion [C]-N--CA-[C] |==|  0.71278
USER: genes 12 Torsion [N]-CA--C-[O] |==|  0.48896
USER: genes 13 Torsion [N]-CA--CB-[OG] |==|  0.12855
USER: genes 14 Torsion [CA]-CB--OG-[HG] |==|  0.95593
USER: genes 15 Torsion [N]-C--CA-[N] |==|  0.43244
USER: genes 16 Torsion [C]-CA--N-[C] |==|  0.82027
USER: genes 17 Torsion [N]-C--CA-[N] |==|  0.20601
USER: genes 18 Torsion [C]-CA--N-[C] |==|  0.59078
USER: genes 19 Torsion [N]-C--CA-[N] |==|  0.16951
USER: genes 20 Torsion [C]-CA--CB-[CG] |==|  0.28737
USER: genes 21 Torsion [CA]-CB--CG-[CD] |==|  0.12084
USER: genes 22 Torsion [CB]-CG--CD-[OE1] |==|  0.54989
USER: genes 23 Torsion [C]-CA--CB-[CG] |==|  0.30637
USER: genes 24 Torsion [CA]-CB--CG-[CD2] |==|  0.10470
USER: genes 25 Torsion [C]-CA--CB-[CG] |==|  0.52190
USER: genes 26 Torsion [CA]-CB--CG-[CD2] |==|  0.69057
ROOT
ATOM      1  C   LEU D   6      15.891  12.317  42.829  1.00 70.97 LIG 0.24  C 
ATOM      2 O    LEU D   6      15.752  13.418  43.340  1.00 69.80 LIG-0.27  OA
ATOM      3  N   PRO D   7      17.004  11.586  43.007  1.00 67.36 LIG-0.34  N 
ATOM      4  CA  PRO D   7      18.084  12.118  43.833  1.00 66.95 LIG 0.18  C 
ATOM      5  CB  PRO D   7      18.677  10.859  44.486  1.00 69.23 LIG 0.04  C 
ATOM      6  CG  PRO D   7      18.237   9.689  43.599  1.00 73.99 LIG 0.02  C 
ATOM      7  CD  PRO D   7      17.337  10.232  42.518  1.00 69.55 LIG 0.13  C 
ENDROOT
BRANCH 4 8
ATOM      8  C   PRO D   7      19.120  12.876  43.008  1.00 67.39 LIG 0.24  C 
ATOM      9  N   LEU D   8      19.085  14.200  43.112  1.00 63.51 LIG-0.35  N 
ATOM     10 H    LEU D   8      18.495  14.626  43.571  1.00 63.51 LIG 0.16  HD
ATOM     11 O    PRO D   7      19.933  12.282  42.298  1.00 65.73 LIG-0.27  OA
BRANCH 9 12
ATOM     12  CA  LEU D   8      20.050  15.057  42.452  1.00 63.43 LIG 0.18  C 
BRANCH 12 13
ATOM     13  CB  LEU D   8      19.456  16.426  42.136  1.00 63.06 LIG 0.04  C 
BRANCH 13 14
ATOM     14  CG  LEU D   8      19.485  16.736  40.658  1.00 67.32 LIG-0.02  C 
ATOM     15  CD1 LEU D   8      20.814  16.419  40.074  1.00 66.57 LIG 0.01  C 
ATOM     16  CD2 LEU D   8      18.360  16.050  39.932  1.00 70.19 LIG 0.01  C 
ENDBRANCH 13 14
ENDBRANCH 12 13
BRANCH 12 17
ATOM     17  C   LEU D   8      21.304  15.168  43.291  1.00 69.22 LIG 0.24  C 
ATOM     18  N   PHE D   9      22.295  15.929  42.810  1.00 66.75 LIG-0.35  N 
ATOM     19 H    PHE D   9      22.249  16.346  42.058  1.00 66.75 LIG 0.16  HD
ATOM     20 O    LEU D   8      21.393  14.527  44.338  1.00 69.38 LIG-0.27  OA
BRANCH 18 21
ATOM     21  CA  PHE D   9      23.552  16.126  43.518  1.00 67.50 LIG 0.18  C 
BRANCH 21 22
ATOM     22  CB  PHE D   9      23.303  16.483  44.990  1.00 70.09 LIG 0.07  C 
BRANCH 22 23
ATOM     23  CG  PHE D   9      22.453  17.701  45.282  1.00 72.62 LIG-0.06  A 
ATOM     24  CD2 PHE D   9      22.279  18.691  44.322  1.00 75.26 LIG 0.01  A 
ATOM     25  CE2 PHE D   9      21.466  19.795  44.575  1.00 78.46 LIG 0.00  A 
ATOM     26  CZ  PHE D   9      20.818  19.914  45.787  1.00 76.95 LIG 0.00  A 
ATOM     27  CE1 PHE D   9      20.962  18.935  46.745  1.00 77.74 LIG 0.00  A 
ATOM     28  CD1 PHE D   9      21.750  17.814  46.479  1.00 76.53 LIG 0.01  A 
ENDBRANCH 22 23
ENDBRANCH 21 22
BRANCH 21 29
ATOM     29  C   PHE D   9      24.460  14.899  43.413  1.00 72.50 LIG 0.24  C 
ATOM     30 O    PHE D   9      23.990  13.768  43.551  1.00 71.57 LIG-0.27  OA
ATOM     31  N   SER D  10      25.763  15.120  43.153  1.00 70.70 LIG-0.34  N 
ATOM     32 H    SER D  10      26.097  15.903  43.033  1.00 70.70 LIG 0.16  HD
BRANCH 31 33
ATOM     33  CA  SER D  10      26.741  14.032  43.048  1.00110.54 LIG 0.19  C 
BRANCH 33 34
ATOM     34  C   SER D  10      27.605  13.939  44.307  1.00112.68 LIG 0.22  C 
ATOM     35 O    SER D  10      28.431  13.034  44.421  1.00 61.17 LIG-0.29  OA
ENDBRANCH 33 34
BRANCH 33 36
ATOM     36  CB  SER D  10      27.613  14.200  41.806  1.00114.99 LIG 0.20  C 
BRANCH 36 37
ATOM     37 OG   SER D  10      28.087  15.530  41.668  1.00125.63 LIG-0.40  OA
ATOM     38 HG   SER D  10      27.639  16.040  42.163  1.00125.63 LIG 0.21  HD
ENDBRANCH 36 37
ENDBRANCH 33 36
ENDBRANCH 31 33
ENDBRANCH 21 29
ENDBRANCH 18 21
ENDBRANCH 12 17
ENDBRANCH 9 12
ENDBRANCH 4 8
BRANCH 1 39
ATOM     39  CA  LEU D   6      14.814  11.766  41.936  1.00 70.47 LIG 0.18  C 
BRANCH 39 40
ATOM     40  N   LEU D   6      13.465  12.253  42.175  1.00 72.03 LIG-0.35  N 
ATOM     41  C   PHE D   5      12.839  11.990  43.321  1.00 78.51 LIG 0.24  C 
ATOM     42 O    PHE D   5      13.361  11.364  44.251  1.00 77.96 LIG-0.27  OA
ATOM     43 H    LEU D   6      13.126  12.708  41.529  1.00 72.03 LIG 0.16  HD
BRANCH 41 44
ATOM     44  CA  PHE D   5      11.384  12.397  43.394  1.00 78.26 LIG 0.18  C 
BRANCH 44 45
ATOM     45  N   PHE D   5      10.579  11.468  42.596  1.00 79.00 LIG-0.34  N 
ATOM     46 H    PHE D   5      10.875  10.660  42.581  1.00 79.00 LIG 0.16  HD
ATOM     47  C   GLU D   4       9.480  11.875  41.957  1.00 84.09 LIG 0.26  C 
ATOM     48 O    GLU D   4       9.023  13.011  42.066  1.00 84.89 LIG-0.27  OA
BRANCH 47 49
ATOM     49  CA  GLU D   4       8.771  10.871  41.066  1.00 80.59 LIG 0.40  C 
ATOM     50  N   GLU D   4       8.319   9.728  41.854  1.00 81.26 LIG 0.61  N 
BRANCH 49 51
ATOM     51  CB  GLU D   4       7.570  11.552  40.373  1.00 81.69 LIG 0.06  C 
BRANCH 51 52
ATOM     52  CG  GLU D   4       7.808  11.902  38.913  1.00 88.66 LIG 0.12  C 
BRANCH 52 53
ATOM     53  CD  GLU D   4       8.497  10.838  38.078  1.00 99.07 LIG 0.17  C 
ATOM     54 OE1  GLU D   4       9.025  11.169  36.990  1.00 74.80 LIG-0.65  OA
ATOM     55 OE2  GLU D   4       8.572   9.681  38.551  1.00 93.08 LIG-0.65  OA
ENDBRANCH 52 53
ENDBRANCH 51 52
ENDBRANCH 49 51
ENDBRANCH 47 49
ENDBRANCH 44 45
BRANCH 44 56
ATOM     56  CB  PHE D   5      10.857  12.597  44.817  1.00 80.27 LIG 0.07  C 
BRANCH 56 57
ATOM     57  CG  PHE D   5      10.572  14.048  45.130  1.00 81.89 LIG-0.06  A 
ATOM     58  CD2 PHE D   5      10.032  14.895  44.164  1.00 84.17 LIG 0.01  A 
ATOM     59  CE2 PHE D   5       9.778  16.240  44.451  1.00 86.81 LIG 0.00  A 
ATOM     60  CZ  PHE D   5      10.048  16.740  45.706  1.00 84.76 LIG 0.00  A 
ATOM     61  CE1 PHE D   5      10.594  15.919  46.671  1.00 85.59 LIG 0.00  A 
ATOM     62  CD1 PHE D   5      10.860  14.576  46.382  1.00 84.61 LIG 0.01  A 
ENDBRANCH 56 57
ENDBRANCH 44 56
ENDBRANCH 41 44
ENDBRANCH 39 40
BRANCH 39 63
ATOM     63  CB  LEU D   6      15.193  11.921  40.467  1.00 70.57 LIG 0.04  C 
BRANCH 63 64
ATOM     64  CG  LEU D   6      14.091  11.567  39.492  1.00 75.48 LIG-0.02  C 
ATOM     65  CD2 LEU D   6      14.419  10.346  38.750  1.00 78.97 LIG 0.01  C 
ATOM     66  CD1 LEU D   6      13.837  12.679  38.562  1.00 75.94 LIG 0.01  C 
ENDBRANCH 63 64
ENDBRANCH 39 63
ENDBRANCH 1 39
TORSDOF 25
ENDMDL
MODEL 3
USER: ADFR SOLUTION from run 187
USER: SCORE 22.457010 LL:  -6.395 LR: -17.806 RR:   0.000 FEB: -10.348
USER: RMSD 2.962510
USER: SEED 186
USER: STATUS searching
USER: GENES 27
USER: genes 0 Translation |==|  0.42508 0.50228 0.52238
USER: genes 1 Rotation |==|  0.56903 0.56069 0.48745 0.99132
USER: genes 2 Torsion [N]-CA--C-[N] |==|  0.27123
USER: genes 3 Torsion [C]-N--CA-[C] |==|  0.75087
USER: genes 4 Torsion [N]-CA--CB-[CG] |==|  0.60509
USER: genes 5 Torsion [CA]-CB--CG-[CD1] |==|  0.39439
USER: genes 6 Torsion [N]-CA--C-[N] |==|  0.23618
USER: genes 7 Torsion [C]-N--CA-[CB] |==|  0.25931
USER: genes 8 Torsion [N]-CA--CB-[CG] |==|  0.89771
USER: genes 9 Torsion [CA]-CB--CG-[CD1] |==|  0.78199
USER: genes 10 Torsion [N]-CA--C-[N] |==|  0.41874
USER: genes 11 Torsion [C]-N--CA-[C] |==|  0.62077
USER: genes 12 Torsion [N]-CA--C-[O] |==|  0.47265
USER: genes 13 Torsion [N]-CA--CB-[OG] |==|  0.08359
USER: genes 14 Torsion [CA]-CB--OG-[HG] |==|  0.36322
USER: genes 15 Torsion [N]-C--CA-[N] |==|  0.46108
USER: genes 16 Torsion [C]-CA--N-[C] |==|  0.82222
USER: genes 17 Torsion [N]-C--CA-[N] |==|  0.17174
USER: genes 18 Torsion [C]-CA--N-[C] |==|  0.15000
USER: genes 19 Torsion [N]-C--CA-[N] |==|  0.60153
USER: genes 20 Torsion [C]-CA--CB-[CG] |==|  0.27298
USER: genes 21 Torsion [CA]-CB--CG-[CD] |==|  0.07610
USER: genes 22 Torsion [CB]-CG--CD-[OE1] |==|  0.20937
USER: genes 23 Torsion [C]-CA--CB-[CG] |==|  0.32395
USER: genes 24 Torsion [CA]-CB--CG-[CD2] |==|  0.13038
USER: genes 25 Torsion [C]-CA--CB-[CG] |==|  0.53376
USER: genes 26 Torsion [CA]-CB--CG-[CD2] |==|  0.64546
ROOT
ATOM      1  C   LEU D   6      15.771  11.960  43.107  1.00 70.97 LIG 0.24  C 
ATOM      2 O    LEU D   6      15.711  13.044  43.668  1.00 69.80 LIG-0.27  OA
ATOM      3  N   PRO D   7      16.838  11.154  43.232  1.00 67.36 LIG-0.34  N 
ATOM      4  CA  PRO D   7      17.964  11.580  44.059  1.00 66.95 LIG 0.18  C 
ATOM      5  CB  PRO D   7      18.486  10.258  44.645  1.00 69.23 LIG 0.04  C 
ATOM      6  CG  PRO D   7      17.957   9.159  43.717  1.00 73.99 LIG 0.02  C 
ATOM      7  CD  PRO D   7      17.076   9.805  42.678  1.00 69.55 LIG 0.13  C 
ENDROOT
BRANCH 4 8
ATOM      8  C   PRO D   7      19.032  12.307  43.248  1.00 67.39 LIG 0.24  C 
ATOM      9  N   LEU D   8      18.979  13.634  43.281  1.00 63.51 LIG-0.35  N 
ATOM     10 H    LEU D   8      18.363  14.076  43.688  1.00 63.51 LIG 0.16  HD
ATOM     11 O    PRO D   7      19.885  11.687  42.610  1.00 65.73 LIG-0.27  OA
BRANCH 9 12
ATOM     12  CA  LEU D   8      19.967  14.468  42.626  1.00 63.43 LIG 0.18  C 
BRANCH 12 13
ATOM     13  CB  LEU D   8      19.343  15.746  42.077  1.00 63.06 LIG 0.04  C 
BRANCH 13 14
ATOM     14  CG  LEU D   8      19.935  16.150  40.748  1.00 67.32 LIG-0.02  C 
ATOM     15  CD1 LEU D   8      18.890  16.699  39.846  1.00 66.57 LIG 0.01  C 
ATOM     16  CD2 LEU D   8      21.093  17.094  40.928  1.00 70.19 LIG 0.01  C 
ENDBRANCH 13 14
ENDBRANCH 12 13
BRANCH 12 17
ATOM     17  C   LEU D   8      21.109  14.761  43.574  1.00 69.22 LIG 0.24  C 
ATOM     18  N   PHE D   9      22.089  13.852  43.649  1.00 66.75 LIG-0.35  N 
ATOM     19 H    PHE D   9      22.094  13.123  43.192  1.00 66.75 LIG 0.16  HD
ATOM     20 O    LEU D   8      21.075  15.776  44.270  1.00 69.38 LIG-0.27  OA
BRANCH 18 21
ATOM     21  CA  PHE D   9      23.248  14.013  44.516  1.00 67.50 LIG 0.18  C 
BRANCH 21 22
ATOM     22  CB  PHE D   9      23.017  13.334  45.873  1.00 70.09 LIG 0.07  C 
BRANCH 22 23
ATOM     23  CG  PHE D   9      21.624  13.397  46.461  1.00 72.62 LIG-0.06  A 
ATOM     24  CD2 PHE D   9      20.805  12.274  46.465  1.00 75.26 LIG 0.01  A 
ATOM     25  CE2 PHE D   9      19.536  12.319  47.041  1.00 78.46 LIG 0.00  A 
ATOM     26  CZ  PHE D   9      19.079  13.485  47.620  1.00 76.95 LIG 0.00  A 
ATOM     27  CE1 PHE D   9      19.883  14.604  47.643  1.00 77.74 LIG 0.00  A 
ATOM     28  CD1 PHE D   9      21.165  14.549  47.096  1.00 76.53 LIG 0.01  A 
ENDBRANCH 22 23
ENDBRANCH 21 22
BRANCH 21 29
ATOM     29  C   PHE D   9      24.524  13.479  43.863  1.00 72.50 LIG 0.24  C 
ATOM     30 O    PHE D   9      24.462  12.563  43.040  1.00 71.57 LIG-0.27  OA
ATOM     31  N   SER D  10      25.685  14.063  44.217  1.00 70.70 LIG-0.34  N 
ATOM     32 H    SER D  10      25.738  14.717  44.773  1.00 70.70 LIG 0.16  HD
BRANCH 31 33
ATOM     33  CA  SER D  10      26.981  13.631  43.679  1.00110.54 LIG 0.19  C 
BRANCH 33 34
ATOM     34  C   SER D  10      28.041  13.557  44.779  1.00112.68 LIG 0.22  C 
ATOM     35 O    SER D  10      29.134  13.041  44.546  1.00 61.17 LIG-0.29  OA
ENDBRANCH 33 34
BRANCH 33 36
ATOM     36  CB  SER D  10      27.437  14.553  42.551  1.00114.99 LIG 0.20  C 
BRANCH 36 37
ATOM     37 OG   SER D  10      26.959  15.878  42.723  1.00125.63 LIG-0.40  OA
ATOM     38 HG   SER D  10      27.595  16.419  42.632  1.00125.63 LIG 0.21  HD
ENDBRANCH 36 37
ENDBRANCH 33 36
ENDBRANCH 31 33
ENDBRANCH 21 29
ENDBRANCH 18 21
ENDBRANCH 12 17
ENDBRANCH 9 12
ENDBRANCH 4 8
BRANCH 1 39
ATOM     39  CA  LEU D   6      14.647  11.518  42.213  1.00 70.47 LIG 0.18  C 
BRANCH 39 40
ATOM     40  N   LEU D   6      13.393  12.244  42.343  1.00 72.03 LIG-0.35  N 
ATOM     41  C   PHE D   5      12.700  12.206  43.480  1.00 78.51 LIG 0.24  C 
ATOM     42 O    PHE D   5      13.083  11.600  44.488  1.00 77.96 LIG-0.27  OA
ATOM     43 H    LEU D   6      13.154  12.681  41.642  1.00 72.03 LIG 0.16  HD
BRANCH 41 44
ATOM     44  CA  PHE D   5      11.334  12.853  43.449  1.00 78.26 LIG 0.18  C 
BRANCH 44 45
ATOM     45  N   PHE D   5      10.489  12.158  42.475  1.00 79.00 LIG-0.34  N 
ATOM     46 H    PHE D   5      10.133  12.669  41.881  1.00 79.00 LIG 0.16  HD
ATOM     47  C   GLU D   4      10.306  10.837  42.532  1.00 84.09 LIG 0.26  C 
ATOM     48 O    GLU D   4      10.897  10.112  43.331  1.00 84.89 LIG-0.27  OA
BRANCH 47 49
ATOM     49  CA  GLU D   4       9.328  10.218  41.550  1.00 80.59 LIG 0.40  C 
ATOM     50  N   GLU D   4       8.598   9.125  42.185  1.00 81.26 LIG 0.61  N 
BRANCH 49 51
ATOM     51  CB  GLU D   4       8.343  11.299  41.049  1.00 81.69 LIG 0.06  C 
BRANCH 51 52
ATOM     52  CG  GLU D   4       8.705  11.895  39.699  1.00 88.66 LIG 0.12  C 
BRANCH 52 53
ATOM     53  CD  GLU D   4       9.500  10.999  38.767  1.00 99.07 LIG 0.17  C 
ATOM     54 OE1  GLU D   4       8.911  10.064  38.176  1.00 74.80 LIG-0.65  OA
ATOM     55 OE2  GLU D   4      10.704  11.280  38.571  1.00 93.08 LIG-0.65  OA
ENDBRANCH 52 53
ENDBRANCH 51 52
ENDBRANCH 49 51
ENDBRANCH 47 49
ENDBRANCH 44 45
BRANCH 44 56
ATOM     56  CB  PHE D   5      10.680  13.010  44.824  1.00 80.27 LIG 0.07  C 
BRANCH 56 57
ATOM     57  CG  PHE D   5      10.463  14.458  45.200  1.00 81.89 LIG-0.06  A 
ATOM     58  CD2 PHE D   5       9.900  15.355  44.294  1.00 84.17 LIG 0.01  A 
ATOM     59  CE2 PHE D   5       9.708  16.697  44.638  1.00 86.81 LIG 0.00  A 
ATOM     60  CZ  PHE D   5      10.064  17.144  45.892  1.00 84.76 LIG 0.00  A 
ATOM     61  CE1 PHE D   5      10.634  16.273  46.798  1.00 85.59 LIG 0.00  A 
ATOM     62  CD1 PHE D   5      10.838  14.933  46.450  1.00 84.61 LIG 0.01  A 
ENDBRANCH 56 57
ENDBRANCH 44 56
ENDBRANCH 41 44
ENDBRANCH 39 40
BRANCH 39 63
ATOM     63  CB  LEU D   6      15.096  11.473  40.756  1.00 70.57 LIG 0.04  C 
BRANCH 63 64
ATOM     64  CG  LEU D   6      13.971  11.322  39.755  1.00 75.48 LIG-0.02  C 
ATOM     65  CD2 LEU D   6      14.225  10.203  38.843  1.00 78.97 LIG 0.01  C 
ATOM     66  CD1 LEU D   6      13.776  12.568  38.994  1.00 75.94 LIG 0.01  C 
ENDBRANCH 63 64
ENDBRANCH 39 63
ENDBRANCH 1 39
TORSDOF 25
ENDMDL
MODEL 4
USER: ADFR SOLUTION from run 71
USER: SCORE 21.676166 LL:  -5.982 LR: -17.248 RR:   0.000 FEB:  -9.790
USER: RMSD 3.647520
USER: SEED 70
USER: STATUS 1 or 2 clusters left
USER: GENES 27
USER: genes 0 Translation |==|  0.42682 0.51485 0.50986
USER: genes 1 Rotation |==|  0.55127 0.54612 0.48859 0.99509
USER: genes 2 Torsion [N]-CA--C-[N] |==|  0.30486
USER: genes 3 Torsion [C]-N--CA-[C] |==|  0.73159
USER: genes 4 Torsion [N]-CA--CB-[CG] |==|  0.61906
USER: genes 5 Torsion [CA]-CB--CG-[CD1] |==|  0.37057
USER: genes 6 Torsion [N]-CA--C-[N] |==|  0.26529
USER: genes 7 Torsion [C]-N--CA-[CB] |==|  0.51699
USER: genes 8 Torsion [N]-CA--CB-[CG] |==|  0.35994
USER: genes 9 Torsion [CA]-CB--CG-[CD1] |==|  0.74447
USER: genes 10 Torsion [N]-CA--C-[N] |==|  0.34445
USER: genes 11 Torsion [C]-N--CA-[C] |==|  0.15422
USER: genes 12 Torsion [N]-CA--C-[O] |==|  0.12143
USER: genes 13 Torsion [N]-CA--CB-[OG] |==|  0.17147
USER: genes 14 Torsion [CA]-CB--OG-[HG] |==|  0.59119
USER: genes 15 Torsion [N]-C--CA-[N] |==|  0.42617
USER: genes 16 Torsion [C]-CA--N-[C] |==|  0.82104
USER: genes 17 Torsion [N]-C--CA-[N] |==|  0.19554
USER: genes 18 Torsion [C]-CA--N-[C] |==|  0.56714
USER: genes 19 Torsion [N]-C--CA-[N] |==|  0.18232
USER: genes 20 Torsion [C]-CA--CB-[CG] |==|  0.35167
USER: genes 21 Torsion [CA]-CB--CG-[CD] |==|  0.04806
USER: genes 22 Torsion [CB]-CG--CD-[OE1] |==|  0.11255
USER: genes 23 Torsion [C]-CA--CB-[CG] |==|  0.30326
USER: genes 24 Torsion [CA]-CB--CG-[CD2] |==|  0.11325
USER: genes 25 Torsion [C]-CA--CB-[CG] |==|  0.51762
USER: genes 26 Torsion [CA]-CB--CG-[CD2] |==|  0.66136
ROOT
ATOM      1  C   LEU D   6      15.822  12.186  42.863  1.00 70.97 LIG 0.24  C 
ATOM      2 O    LEU D   6      15.725  13.308  43.339  1.00 69.80 LIG-0.27  OA
ATOM      3  N   PRO D   7      16.883  11.399  43.108  1.00 67.36 LIG-0.34  N 
ATOM      4  CA  PRO D   7      17.957  11.893  43.965  1.00 66.95 LIG 0.18  C 
ATOM      5  CB  PRO D   7      18.448  10.621  44.675  1.00 69.23 LIG 0.04  C 
ATOM      6  CG  PRO D   7      17.978   9.453  43.801  1.00 73.99 LIG 0.02  C 
ATOM      7  CD  PRO D   7      17.157  10.016  42.668  1.00 69.55 LIG 0.13  C 
ENDROOT
BRANCH 4 8
ATOM      8  C   PRO D   7      19.068  12.567  43.166  1.00 67.39 LIG 0.24  C 
ATOM      9  N   LEU D   8      19.159  13.886  43.302  1.00 63.51 LIG-0.35  N 
ATOM     10 H    LEU D   8      18.608  14.355  43.767  1.00 63.51 LIG 0.16  HD
ATOM     11 O    PRO D   7      19.826  11.914  42.446  1.00 65.73 LIG-0.27  OA
BRANCH 9 12
ATOM     12  CA  LEU D   8      20.207  14.661  42.670  1.00 63.43 LIG 0.18  C 
BRANCH 12 13
ATOM     13  CB  LEU D   8      19.667  15.966  42.095  1.00 63.06 LIG 0.04  C 
BRANCH 13 14
ATOM     14  CG  LEU D   8      20.226  16.266  40.725  1.00 67.32 LIG-0.02  C 
ATOM     15  CD1 LEU D   8      19.147  16.673  39.788  1.00 66.57 LIG 0.01  C 
ATOM     16  CD2 LEU D   8      21.337  17.278  40.796  1.00 70.19 LIG 0.01  C 
ENDBRANCH 13 14
ENDBRANCH 12 13
BRANCH 12 17
ATOM     17  C   LEU D   8      21.336  14.902  43.648  1.00 69.22 LIG 0.24  C 
ATOM     18  N   PHE D   9      22.373  14.056  43.604  1.00 66.75 LIG-0.35  N 
ATOM     19 H    PHE D   9      22.421  13.394  43.056  1.00 66.75 LIG 0.16  HD
ATOM     20 O    LEU D   8      21.244  15.814  44.470  1.00 69.38 LIG-0.27  OA
BRANCH 18 21
ATOM     21  CA  PHE D   9      23.526  14.177  44.485  1.00 67.50 LIG 0.18  C 
BRANCH 21 22
ATOM     22  CB  PHE D   9      24.616  13.166  44.105  1.00 70.09 LIG 0.07  C 
BRANCH 22 23
ATOM     23  CG  PHE D   9      26.025  13.689  43.923  1.00 72.62 LIG-0.06  A 
ATOM     24  CD2 PHE D   9      26.924  13.687  44.983  1.00 75.26 LIG 0.01  A 
ATOM     25  CE2 PHE D   9      28.234  14.133  44.808  1.00 78.46 LIG 0.00  A 
ATOM     26  CZ  PHE D   9      28.654  14.579  43.571  1.00 76.95 LIG 0.00  A 
ATOM     27  CE1 PHE D   9      27.784  14.570  42.503  1.00 77.74 LIG 0.00  A 
ATOM     28  CD1 PHE D   9      26.483  14.094  42.671  1.00 76.53 LIG 0.01  A 
ENDBRANCH 22 23
ENDBRANCH 21 22
BRANCH 21 29
ATOM     29  C   PHE D   9      24.093  15.598  44.485  1.00 72.50 LIG 0.24  C 
ATOM     30 O    PHE D   9      24.423  16.133  43.424  1.00 71.57 LIG-0.27  OA
ATOM     31  N   SER D  10      24.192  16.220  45.675  1.00 70.70 LIG-0.34  N 
ATOM     32 H    SER D  10      23.945  15.865  46.418  1.00 70.70 LIG 0.16  HD
BRANCH 31 33
ATOM     33  CA  SER D  10      24.738  17.575  45.814  1.00110.54 LIG 0.19  C 
BRANCH 33 34
ATOM     34  C   SER D  10      23.989  18.569  44.924  1.00112.68 LIG 0.22  C 
ATOM     35 O    SER D  10      22.760  18.534  44.863  1.00 61.17 LIG-0.29  OA
ENDBRANCH 33 34
BRANCH 33 36
ATOM     36  CB  SER D  10      26.233  17.595  45.505  1.00114.99 LIG 0.20  C 
BRANCH 36 37
ATOM     37 OG   SER D  10      26.503  17.197  44.170  1.00125.63 LIG-0.40  OA
ATOM     38 HG   SER D  10      27.240  16.794  44.142  1.00125.63 LIG 0.21  HD
ENDBRANCH 36 37
ENDBRANCH 33 36
ENDBRANCH 31 33
ENDBRANCH 21 29
ENDBRANCH 18 21
ENDBRANCH 12 17
ENDBRANCH 9 12
ENDBRANCH 4 8
BRANCH 1 39
ATOM     39  CA  LEU D   6      14.753  11.672  41.940  1.00 70.47 LIG 0.18  C 
BRANCH 39 40
ATOM     40  N   LEU D   6      13.414  12.204  42.141  1.00 72.03 LIG-0.35  N 
ATOM     41  C   PHE D   5      12.750  11.966  43.270  1.00 78.51 LIG 0.24  C 
ATOM     42 O    PHE D   5      13.227  11.327  44.216  1.00 77.96 LIG-0.27  OA
ATOM     43 H    LEU D   6      13.107  12.667  41.485  1.00 72.03 LIG 0.16  HD
BRANCH 41 44
ATOM     44  CA  PHE D   5      11.308  12.420  43.304  1.00 78.26 LIG 0.18  C 
BRANCH 44 45
ATOM     45  N   PHE D   5      10.510  11.570  42.417  1.00 79.00 LIG-0.34  N 
ATOM     46 H    PHE D   5      10.843  10.789  42.276  1.00 79.00 LIG 0.16  HD
ATOM     47  C   GLU D   4       9.363  12.002  41.887  1.00 84.09 LIG 0.26  C 
ATOM     48 O    GLU D   4       8.858  13.086  42.175  1.00 84.89 LIG-0.27  OA
BRANCH 47 49
ATOM     49  CA  GLU D   4       8.660  11.095  40.894  1.00 80.59 LIG 0.40  C 
ATOM     50  N   GLU D   4       8.204   9.877  41.558  1.00 81.26 LIG 0.61  N 
BRANCH 49 51
ATOM     51  CB  GLU D   4       7.462  11.843  40.268  1.00 81.69 LIG 0.06  C 
BRANCH 51 52
ATOM     52  CG  GLU D   4       7.460  11.856  38.748  1.00 88.66 LIG 0.12  C 
BRANCH 52 53
ATOM     53  CD  GLU D   4       8.352  10.830  38.073  1.00 99.07 LIG 0.17  C 
ATOM     54 OE1  GLU D   4       8.409   9.671  38.546  1.00 74.80 LIG-0.65  OA
ATOM     55 OE2  GLU D   4       8.939  11.169  37.020  1.00 93.08 LIG-0.65  OA
ENDBRANCH 52 53
ENDBRANCH 51 52
ENDBRANCH 49 51
ENDBRANCH 47 49
ENDBRANCH 44 45
BRANCH 44 56
ATOM     56  CB  PHE D   5      10.723  12.555  44.712  1.00 80.27 LIG 0.07  C 
BRANCH 56 57
ATOM     57  CG  PHE D   5      10.498  13.996  45.109  1.00 81.89 LIG-0.06  A 
ATOM     58  CD2 PHE D   5       9.989  14.918  44.196  1.00 84.17 LIG 0.01  A 
ATOM     59  CE2 PHE D   5       9.790  16.254  44.561  1.00 86.81 LIG 0.00  A 
ATOM     60  CZ  PHE D   5      10.084  16.670  45.841  1.00 84.76 LIG 0.00  A 
ATOM     61  CE1 PHE D   5      10.599  15.773  46.755  1.00 85.59 LIG 0.00  A 
ATOM     62  CD1 PHE D   5      10.811  14.439  46.388  1.00 84.61 LIG 0.01  A 
ENDBRANCH 56 57
ENDBRANCH 44 56
ENDBRANCH 41 44
ENDBRANCH 39 40
BRANCH 39 63
ATOM     63  CB  LEU D   6      15.178  11.815  40.482  1.00 70.57 LIG 0.04  C 
BRANCH 63 64
ATOM     64  CG  LEU D   6      14.103  11.463  39.476  1.00 75.48 LIG-0.02  C 
ATOM     65  CD2 LEU D   6      14.551  10.389  38.584  1.00 78.97 LIG 0.01  C 
ATOM     66  CD1 LEU D   6      13.709  12.647  38.694  1.00 75.94 LIG 0.01  C 
ENDBRANCH 63 64
ENDBRANCH 39 63
ENDBRANCH 1 39
TORSDOF 25
ENDMDL
MODEL 5
USER: ADFR SOLUTION from run 60
USER: SCORE 22.763655 LL:  -6.700 LR: -17.117 RR:   0.000 FEB:  -9.659
USER: RMSD 4.422391
USER: SEED 59
USER: STATUS 1 or 2 clusters left
USER: GENES 27
USER: genes 0 Translation |==|  0.41261 0.49839 0.48499
USER: genes 1 Rotation |==|  0.52380 0.50110 0.49465 0.99940
USER: genes 2 Torsion [N]-CA--C-[N] |==|  0.36910
USER: genes 3 Torsion [C]-N--CA-[C] |==|  0.71898
USER: genes 4 Torsion [N]-CA--CB-[CG] |==|  0.70492
USER: genes 5 Torsion [CA]-CB--CG-[CD1] |==|  0.33277
USER: genes 6 Torsion [N]-CA--C-[N] |==|  0.40365
USER: genes 7 Torsion [C]-N--CA-[CB] |==|  0.18128
USER: genes 8 Torsion [N]-CA--CB-[CG] |==|  0.07646
USER: genes 9 Torsion [CA]-CB--CG-[CD1] |==|  0.64663
USER: genes 10 Torsion [N]-CA--C-[N] |==|  0.63333
USER: genes 11 Torsion [C]-N--CA-[C] |==|  0.47635
USER: genes 12 Torsion [N]-CA--C-[O] |==|  0.65279
USER: genes 13 Torsion [N]-CA--CB-[OG] |==|  0.72345
USER: genes 14 Torsion [CA]-CB--OG-[HG] |==|  0.45441
USER: genes 15 Torsion [N]-C--CA-[N] |==|  0.37899
USER: genes 16 Torsion [C]-CA--N-[C] |==|  0.64600
USER: genes 17 Torsion [N]-C--CA-[N] |==|  0.87926
USER: genes 18 Torsion [C]-CA--N-[C] |==|  0.79226
USER: genes 19 Torsion [N]-C--CA-[N] |==|  0.72335
USER: genes 20 Torsion [C]-CA--CB-[CG] |==|  0.52247
USER: genes 21 Torsion [CA]-CB--CG-[CD] |==|  0.94749
USER: genes 22 Torsion [CB]-CG--CD-[OE1] |==|  0.30459
USER: genes 23 Torsion [C]-CA--CB-[CG] |==|  0.11694
USER: genes 24 Torsion [CA]-CB--CG-[CD2] |==|  0.12281
USER: genes 25 Torsion [C]-CA--CB-[CG] |==|  0.58343
USER: genes 26 Torsion [CA]-CB--CG-[CD2] |==|  0.63466
ROOT
ATOM      1  C   LEU D   6      15.406  11.890  42.378  1.00 70.97 LIG 0.24  C 
ATOM      2 O    LEU D   6      15.219  13.054  42.699  1.00 69.80 LIG-0.27  OA
ATOM      3  N   PRO D   7      16.411  11.163  42.895  1.00 67.36 LIG-0.34  N 
ATOM      4  CA  PRO D   7      17.310  11.776  43.869  1.00 66.95 LIG 0.18  C 
ATOM      5  CB  PRO D   7      17.673  10.603  44.794  1.00 69.23 LIG 0.04  C 
ATOM      6  CG  PRO D   7      17.375   9.334  43.988  1.00 73.99 LIG 0.02  C 
ATOM      7  CD  PRO D   7      16.767   9.747  42.671  1.00 69.55 LIG 0.13  C 
ENDROOT
BRANCH 4 8
ATOM      8  C   PRO D   7      18.543  12.387  43.209  1.00 67.39 LIG 0.24  C 
ATOM      9  N   LEU D   8      18.858  13.616  43.601  1.00 63.51 LIG-0.35  N 
ATOM     10 H    LEU D   8      18.386  14.075  44.154  1.00 63.51 LIG 0.16  HD
ATOM     11 O    PRO D   7      19.195  11.763  42.368  1.00 65.73 LIG-0.27  OA
BRANCH 9 12
ATOM     12  CA  LEU D   8      20.043  14.303  43.125  1.00 63.43 LIG 0.18  C 
BRANCH 12 13
ATOM     13  CB  LEU D   8      19.729  15.739  42.717  1.00 63.06 LIG 0.04  C 
BRANCH 13 14
ATOM     14  CG  LEU D   8      19.722  15.921  41.218  1.00 67.32 LIG-0.02  C 
ATOM     15  CD1 LEU D   8      18.393  16.389  40.746  1.00 66.57 LIG 0.01  C 
ATOM     16  CD2 LEU D   8      20.840  16.823  40.771  1.00 70.19 LIG 0.01  C 
ENDBRANCH 13 14
ENDBRANCH 12 13
BRANCH 12 17
ATOM     17  C   LEU D   8      21.134  14.241  44.171  1.00 69.22 LIG 0.24  C 
ATOM     18  N   PHE D   9      22.395  14.146  43.732  1.00 66.75 LIG-0.35  N 
ATOM     19 H    PHE D   9      22.605  14.117  42.898  1.00 66.75 LIG 0.16  HD
ATOM     20 O    LEU D   8      20.831  14.226  45.364  1.00 69.38 LIG-0.27  OA
BRANCH 18 21
ATOM     21  CA  PHE D   9      23.539  14.084  44.631  1.00 67.50 LIG 0.18  C 
BRANCH 21 22
ATOM     22  CB  PHE D   9      23.512  12.797  45.466  1.00 70.09 LIG 0.07  C 
BRANCH 22 23
ATOM     23  CG  PHE D   9      22.820  11.589  44.871  1.00 72.62 LIG-0.06  A 
ATOM     24  CD2 PHE D   9      23.224  11.074  43.645  1.00 75.26 LIG 0.01  A 
ATOM     25  CE2 PHE D   9      22.613   9.938  43.113  1.00 78.46 LIG 0.00  A 
ATOM     26  CZ  PHE D   9      21.600   9.309  43.805  1.00 76.95 LIG 0.00  A 
ATOM     27  CE1 PHE D   9      21.198   9.792  45.031  1.00 77.74 LIG 0.00  A 
ATOM     28  CD1 PHE D   9      21.831  10.909  45.578  1.00 76.53 LIG 0.01  A 
ENDBRANCH 22 23
ENDBRANCH 21 22
BRANCH 21 29
ATOM     29  C   PHE D   9      24.863  14.201  43.874  1.00 72.50 LIG 0.24  C 
ATOM     30 O    PHE D   9      25.025  15.100  43.046  1.00 71.57 LIG-0.27  OA
ATOM     31  N   SER D  10      25.821  13.302  44.169  1.00 70.70 LIG-0.34  N 
ATOM     32 H    SER D  10      25.727  12.685  44.760  1.00 70.70 LIG 0.16  HD
BRANCH 31 33
ATOM     33  CA  SER D  10      27.127  13.293  43.501  1.00110.54 LIG 0.19  C 
BRANCH 33 34
ATOM     34  C   SER D  10      28.087  12.309  44.171  1.00112.68 LIG 0.22  C 
ATOM     35 O    SER D  10      29.185  12.695  44.571  1.00 61.17 LIG-0.29  OA
ENDBRANCH 33 34
BRANCH 33 36
ATOM     36  CB  SER D  10      27.730  14.695  43.464  1.00114.99 LIG 0.20  C 
BRANCH 36 37
ATOM     37 OG   SER D  10      27.533  15.324  42.208  1.00125.63 LIG-0.40  OA
ATOM     38 HG   SER D  10      27.666  16.150  42.283  1.00125.63 LIG 0.21  HD
ENDBRANCH 36 37
ENDBRANCH 33 36
ENDBRANCH 31 33
ENDBRANCH 21 29
ENDBRANCH 18 21
ENDBRANCH 12 17
ENDBRANCH 9 12
ENDBRANCH 4 8
BRANCH 1 39
ATOM     39  CA  LEU D   6      14.524  11.249  41.344  1.00 70.47 LIG 0.18  C 
BRANCH 39 40
ATOM     40  N   LEU D   6      13.094  11.475  41.484  1.00 72.03 LIG-0.35  N 
ATOM     41  C   PHE D   5      12.241  10.452  41.499  1.00 78.51 LIG 0.24  C 
ATOM     42 O    PHE D   5      12.600   9.270  41.436  1.00 77.96 LIG-0.27  OA
ATOM     43 H    LEU D   6      12.864  12.301  41.553  1.00 72.03 LIG 0.16  HD
BRANCH 41 44
ATOM     44  CA  PHE D   5      10.772  10.808  41.478  1.00 78.26 LIG 0.18  C 
BRANCH 44 45
ATOM     45  N   PHE D   5      10.528  11.919  42.401  1.00 79.00 LIG-0.34  N 
ATOM     46 H    PHE D   5      10.396  12.679  42.020  1.00 79.00 LIG 0.16  HD
ATOM     47  C   GLU D   4      10.517  11.733  43.723  1.00 84.09 LIG 0.26  C 
ATOM     48 O    GLU D   4      10.615  10.624  44.245  1.00 84.89 LIG-0.27  OA
BRANCH 47 49
ATOM     49  CA  GLU D   4      10.365  12.959  44.606  1.00 80.59 LIG 0.40  C 
ATOM     50  N   GLU D   4      11.667  13.377  45.117  1.00 81.26 LIG 0.61  N 
BRANCH 49 51
ATOM     51  CB  GLU D   4       9.715  14.103  43.796  1.00 81.69 LIG 0.06  C 
BRANCH 51 52
ATOM     52  CG  GLU D   4       9.689  15.441  44.517  1.00 88.66 LIG 0.12  C 
BRANCH 52 53
ATOM     53  CD  GLU D   4       9.869  15.389  46.023  1.00 99.07 LIG 0.17  C 
ATOM     54 OE1  GLU D   4      10.936  15.820  46.521  1.00 74.80 LIG-0.65  OA
ATOM     55 OE2  GLU D   4       8.907  14.982  46.713  1.00 93.08 LIG-0.65  OA
ENDBRANCH 52 53
ENDBRANCH 51 52
ENDBRANCH 49 51
ENDBRANCH 47 49
ENDBRANCH 44 45
BRANCH 44 56
ATOM     56  CB  PHE D   5      10.201  11.041  40.076  1.00 80.27 LIG 0.07  C 
BRANCH 56 57
ATOM     57  CG  PHE D   5      10.696  10.024  39.073  1.00 81.89 LIG-0.06  A 
ATOM     58  CD2 PHE D   5      10.746   8.669  39.395  1.00 84.17 LIG 0.01  A 
ATOM     59  CE2 PHE D   5      11.214   7.730  38.471  1.00 86.81 LIG 0.00  A 
ATOM     60  CZ  PHE D   5      11.619   8.137  37.218  1.00 84.76 LIG 0.00  A 
ATOM     61  CE1 PHE D   5      11.587   9.477  36.887  1.00 85.59 LIG 0.00  A 
ATOM     62  CD1 PHE D   5      11.131  10.420  37.815  1.00 84.61 LIG 0.01  A 
ENDBRANCH 56 57
ENDBRANCH 44 56
ENDBRANCH 41 44
ENDBRANCH 39 40
BRANCH 39 63
ATOM     63  CB  LEU D   6      14.991  11.603  39.936  1.00 70.57 LIG 0.04  C 
BRANCH 63 64
ATOM     64  CG  LEU D   6      13.887  11.655  38.901  1.00 75.48 LIG-0.02  C 
ATOM     65  CD2 LEU D   6      14.255  10.895  37.702  1.00 78.97 LIG 0.01  C 
ATOM     66  CD1 LEU D   6      13.567  13.047  38.546  1.00 75.94 LIG 0.01  C 
ENDBRANCH 63 64
ENDBRANCH 39 63
ENDBRANCH 1 39
TORSDOF 25
ENDMDL
MODEL 6
USER: ADFR SOLUTION from run 87
USER: SCORE 21.229503 LL:  -5.911 LR: -17.100 RR:   0.000 FEB:  -9.643
USER: RMSD 4.568317
USER: SEED 86
USER: STATUS searching
USER: GENES 27
USER: genes 0 Translation |==|  0.42564 0.51773 0.50961
USER: genes 1 Rotation |==|  0.55290 0.53119 0.47761 0.99571
USER: genes 2 Torsion [N]-CA--C-[N] |==|  0.37967
USER: genes 3 Torsion [C]-N--CA-[C] |==|  0.69462
USER: genes 4 Torsion [N]-CA--CB-[CG] |==|  0.83874
USER: genes 5 Torsion [CA]-CB--CG-[CD1] |==|  0.29349
USER: genes 6 Torsion [N]-CA--C-[N] |==|  0.39555
USER: genes 7 Torsion [C]-N--CA-[CB] |==|  0.25533
USER: genes 8 Torsion [N]-CA--CB-[CG] |==|  0.97424
USER: genes 9 Torsion [CA]-CB--CG-[CD1] |==|  0.72638
USER: genes 10 Torsion [N]-CA--C-[N] |==|  0.49429
USER: genes 11 Torsion [C]-N--CA-[C] |==|  0.87441
USER: genes 12 Torsion [N]-CA--C-[O] |==|  0.26257
USER: genes 13 Torsion [N]-CA--CB-[OG] |==|  0.16217
USER: genes 14 Torsion [CA]-CB--OG-[HG] |==|  0.70754
USER: genes 15 Torsion [N]-C--CA-[N] |==|  0.38261
USER: genes 16 Torsion [C]-CA--N-[C] |==|  0.84202
USER: genes 17 Torsion [N]-C--CA-[N] |==|  0.80811
USER: genes 18 Torsion [C]-CA--N-[C] |==|  0.68056
USER: genes 19 Torsion [N]-C--CA-[N] |==|  0.26827
USER: genes 20 Torsion [C]-CA--CB-[CG] |==|  0.48765
USER: genes 21 Torsion [CA]-CB--CG-[CD] |==|  0.62745
USER: genes 22 Torsion [CB]-CG--CD-[OE1] |==|  0.47278
USER: genes 23 Torsion [C]-CA--CB-[CG] |==|  0.54261
USER: genes 24 Torsion [CA]-CB--CG-[CD2] |==|  0.36187
USER: genes 25 Torsion [C]-CA--CB-[CG] |==|  0.51176
USER: genes 26 Torsion [CA]-CB--CG-[CD2] |==|  0.72662
ROOT
ATOM      1  C   LEU D   6      15.787  12.238  42.858  1.00 70.97 LIG 0.24  C 
ATOM      2 O    LEU D   6      15.721  13.363  43.330  1.00 69.80 LIG-0.27  OA
ATOM      3  N   PRO D   7      16.792  11.399  43.159  1.00 67.36 LIG-0.34  N 
ATOM      4  CA  PRO D   7      17.841  11.839  44.075  1.00 66.95 LIG 0.18  C 
ATOM      5  CB  PRO D   7      18.228  10.544  44.808  1.00 69.23 LIG 0.04  C 
ATOM      6  CG  PRO D   7      17.749   9.401  43.907  1.00 73.99 LIG 0.02  C 
ATOM      7  CD  PRO D   7      17.021  10.003  42.732  1.00 69.55 LIG 0.13  C 
ENDROOT
BRANCH 4 8
ATOM      8  C   PRO D   7      19.027  12.456  43.340  1.00 67.39 LIG 0.24  C 
ATOM      9  N   LEU D   8      19.521  13.568  43.872  1.00 63.51 LIG-0.35  N 
ATOM     10 H    LEU D   8      19.181  13.959  44.559  1.00 63.51 LIG 0.16  HD
ATOM     11 O    PRO D   7      19.486  11.941  42.318  1.00 65.73 LIG-0.27  OA
BRANCH 9 12
ATOM     12  CA  LEU D   8      20.693  14.232  43.336  1.00 63.43 LIG 0.18  C 
BRANCH 12 13
ATOM     13  CB  LEU D   8      20.409  15.696  43.019  1.00 63.06 LIG 0.04  C 
BRANCH 13 14
ATOM     14  CG  LEU D   8      19.275  15.861  42.036  1.00 67.32 LIG-0.02  C 
ATOM     15  CD1 LEU D   8      18.045  16.341  42.719  1.00 66.57 LIG 0.01  C 
ATOM     16  CD2 LEU D   8      19.672  16.742  40.883  1.00 70.19 LIG 0.01  C 
ENDBRANCH 13 14
ENDBRANCH 12 13
BRANCH 12 17
ATOM     17  C   LEU D   8      21.858  14.078  44.289  1.00 69.22 LIG 0.24  C 
ATOM     18  N   PHE D   9      23.069  13.896  43.748  1.00 66.75 LIG-0.35  N 
ATOM     19 H    PHE D   9      23.208  13.861  42.900  1.00 66.75 LIG 0.16  HD
ATOM     20 O    LEU D   8      21.653  14.072  45.503  1.00 69.38 LIG-0.27  OA
BRANCH 18 21
ATOM     21  CA  PHE D   9      24.274  13.741  44.551  1.00 67.50 LIG 0.18  C 
BRANCH 21 22
ATOM     22  CB  PHE D   9      24.554  12.260  44.840  1.00 70.09 LIG 0.07  C 
BRANCH 22 23
ATOM     23  CG  PHE D   9      23.483  11.257  44.467  1.00 72.62 LIG-0.06  A 
ATOM     24  CD2 PHE D   9      23.424  10.728  43.183  1.00 75.26 LIG 0.01  A 
ATOM     25  CE2 PHE D   9      22.462   9.776  42.848  1.00 78.46 LIG 0.00  A 
ATOM     26  CZ  PHE D   9      21.557   9.344  43.795  1.00 76.95 LIG 0.00  A 
ATOM     27  CE1 PHE D   9      21.611   9.841  45.078  1.00 77.74 LIG 0.00  A 
ATOM     28  CD1 PHE D   9      22.594  10.769  45.422  1.00 76.53 LIG 0.01  A 
ENDBRANCH 22 23
ENDBRANCH 21 22
BRANCH 21 29
ATOM     29  C   PHE D   9      25.488  14.392  43.885  1.00 72.50 LIG 0.24  C 
ATOM     30 O    PHE D   9      25.371  14.940  42.787  1.00 71.57 LIG-0.27  OA
ATOM     31  N   SER D  10      26.654  14.349  44.557  1.00 70.70 LIG-0.34  N 
ATOM     32 H    SER D  10      26.742  13.989  45.333  1.00 70.70 LIG 0.16  HD
BRANCH 31 33
ATOM     33  CA  SER D  10      27.895  14.919  44.020  1.00110.54 LIG 0.19  C 
BRANCH 33 34
ATOM     34  C   SER D  10      28.092  14.534  42.553  1.00112.68 LIG 0.22  C 
ATOM     35 O    SER D  10      27.714  15.294  41.661  1.00 61.17 LIG-0.29  OA
ENDBRANCH 33 34
BRANCH 33 36
ATOM     36  CB  SER D  10      29.098  14.492  44.857  1.00114.99 LIG 0.20  C 
BRANCH 36 37
ATOM     37 OG   SER D  10      29.231  13.080  44.911  1.00125.63 LIG-0.40  OA
ATOM     38 HG   SER D  10      28.986  12.804  45.666  1.00125.63 LIG 0.21  HD
ENDBRANCH 36 37
ENDBRANCH 33 36
ENDBRANCH 31 33
ENDBRANCH 21 29
ENDBRANCH 18 21
ENDBRANCH 12 17
ENDBRANCH 9 12
ENDBRANCH 4 8
BRANCH 1 39
ATOM     39  CA  LEU D   6      14.746  11.778  41.876  1.00 70.47 LIG 0.18  C 
BRANCH 39 40
ATOM     40  N   LEU D   6      13.365  12.089  42.205  1.00 72.03 LIG-0.35  N 
ATOM     41  C   PHE D   5      12.831  11.684  43.356  1.00 78.51 LIG 0.24  C 
ATOM     42 O    PHE D   5      13.467  11.065  44.218  1.00 77.96 LIG-0.27  OA
ATOM     43 H    LEU D   6      12.944  12.542  41.607  1.00 72.03 LIG 0.16  HD
BRANCH 41 44
ATOM     44  CA  PHE D   5      11.345  11.914  43.520  1.00 78.26 LIG 0.18  C 
BRANCH 44 45
ATOM     45  N   PHE D   5      11.087  13.351  43.641  1.00 79.00 LIG-0.34  N 
ATOM     46 H    PHE D   5      11.277  13.810  42.938  1.00 79.00 LIG 0.16  HD
ATOM     47  C   GLU D   4      10.594  13.875  44.766  1.00 84.09 LIG 0.26  C 
ATOM     48 O    GLU D   4      10.242  13.192  45.726  1.00 84.89 LIG-0.27  OA
BRANCH 47 49
ATOM     49  CA  GLU D   4      10.462  15.386  44.841  1.00 80.59 LIG 0.40  C 
ATOM     50  N   GLU D   4       9.102  15.790  44.500  1.00 81.26 LIG 0.61  N 
BRANCH 49 51
ATOM     51  CB  GLU D   4      10.823  15.867  46.264  1.00 81.69 LIG 0.06  C 
BRANCH 51 52
ATOM     52  CG  GLU D   4      10.829  17.379  46.428  1.00 88.66 LIG 0.12  C 
BRANCH 52 53
ATOM     53  CD  GLU D   4      12.020  17.963  47.164  1.00 99.07 LIG 0.17  C 
ATOM     54 OE1  GLU D   4      12.178  19.207  47.171  1.00 74.80 LIG-0.65  OA
ATOM     55 OE2  GLU D   4      12.759  17.176  47.800  1.00 93.08 LIG-0.65  OA
ENDBRANCH 52 53
ENDBRANCH 51 52
ENDBRANCH 49 51
ENDBRANCH 47 49
ENDBRANCH 44 45
BRANCH 44 56
ATOM     56  CB  PHE D   5      10.481  11.225  42.461  1.00 80.27 LIG 0.07  C 
BRANCH 56 57
ATOM     57  CG  PHE D   5       9.069  11.764  42.427  1.00 81.89 LIG-0.06  A 
ATOM     58  CD2 PHE D   5       8.481  12.153  41.224  1.00 84.17 LIG 0.01  A 
ATOM     59  CE2 PHE D   5       7.178  12.661  41.194  1.00 86.81 LIG 0.00  A 
ATOM     60  CZ  PHE D   5       6.453  12.767  42.361  1.00 84.76 LIG 0.00  A 
ATOM     61  CE1 PHE D   5       7.023  12.396  43.562  1.00 85.59 LIG 0.00  A 
ATOM     62  CD1 PHE D   5       8.331  11.900  43.595  1.00 84.61 LIG 0.01  A 
ENDBRANCH 56 57
ENDBRANCH 44 56
ENDBRANCH 41 44
ENDBRANCH 39 40
BRANCH 39 63
ATOM     63  CB  LEU D   6      15.084  12.246  40.465  1.00 70.57 LIG 0.04  C 
BRANCH 63 64
ATOM     64  CG  LEU D   6      14.037  11.914  39.424  1.00 75.48 LIG-0.02  C 
ATOM     65  CD2 LEU D   6      14.403  10.706  38.677  1.00 78.97 LIG 0.01  C 
ATOM     66  CD1 LEU D   6      13.838  13.044  38.501  1.00 75.94 LIG 0.01  C 
ENDBRANCH 63 64
ENDBRANCH 39 63
ENDBRANCH 1 39
TORSDOF 25
ENDMDL
MODEL 7
USER: ADFR SOLUTION from run 137
USER: SCORE 23.047479 LL:  -6.953 LR: -17.081 RR:   0.000 FEB:  -9.624
USER: RMSD 4.098483
USER: SEED 136
USER: STATUS searching
USER: GENES 27
USER: genes 0 Translation |==|  0.42669 0.51455 0.51217
USER: genes 1 Rotation |==|  0.55464 0.54878 0.48189 0.99427
USER: genes 2 Torsion [N]-CA--C-[N] |==|  0.25944
USER: genes 3 Torsion [C]-N--CA-[C] |==|  0.79327
USER: genes 4 Torsion [N]-CA--CB-[CG] |==|  0.59237
USER: genes 5 Torsion [CA]-CB--CG-[CD1] |==|  0.35049
USER: genes 6 Torsion [N]-CA--C-[N] |==|  0.47542
USER: genes 7 Torsion [C]-N--CA-[CB] |==|  0.84994
USER: genes 8 Torsion [N]-CA--CB-[CG] |==|  0.86694
USER: genes 9 Torsion [CA]-CB--CG-[CD1] |==|  0.22006
USER: genes 10 Torsion [N]-CA--C-[N] |==|  0.95465
USER: genes 11 Torsion [C]-N--CA-[C] |==|  0.56133
USER: genes 12 Torsion [N]-CA--C-[O] |==|  0.46086
USER: genes 13 Torsion [N]-CA--CB-[OG] |==|  0.04324
USER: genes 14 Torsion [CA]-CB--OG-[HG] |==|  0.04417
USER: genes 15 Torsion [N]-C--CA-[N] |==|  0.41961
USER: genes 16 Torsion [C]-CA--N-[C] |==|  0.82778
USER: genes 17 Torsion [N]-C--CA-[N] |==|  0.21411
USER: genes 18 Torsion [C]-CA--N-[C] |==|  0.60027
USER: genes 19 Torsion [N]-C--CA-[N] |==|  0.56374
USER: genes 20 Torsion [C]-CA--CB-[CG] |==|  0.81680
USER: genes 21 Torsion [CA]-CB--CG-[CD] |==|  0.76044
USER: genes 22 Torsion [CB]-CG--CD-[OE1] |==|  0.05882
USER: genes 23 Torsion [C]-CA--CB-[CG] |==|  0.31194
USER: genes 24 Torsion [CA]-CB--CG-[CD2] |==|  0.10256
USER: genes 25 Torsion [C]-CA--CB-[CG] |==|  0.51568
USER: genes 26 Torsion [CA]-CB--CG-[CD2] |==|  0.70599
ROOT
ATOM      1  C   LEU D   6      15.818  12.181  42.908  1.00 70.97 LIG 0.24  C 
ATOM      2 O    LEU D   6      15.758  13.299  43.398  1.00 69.80 LIG-0.27  OA
ATOM      3  N   PRO D   7      16.860  11.363  43.129  1.00 67.36 LIG-0.34  N 
ATOM      4  CA  PRO D   7      17.959  11.818  43.978  1.00 66.95 LIG 0.18  C 
ATOM      5  CB  PRO D   7      18.425  10.525  44.667  1.00 69.23 LIG 0.04  C 
ATOM      6  CG  PRO D   7      17.912   9.381  43.786  1.00 73.99 LIG 0.02  C 
ATOM      7  CD  PRO D   7      17.092   9.978  42.671  1.00 69.55 LIG 0.13  C 
ENDROOT
BRANCH 4 8
ATOM      8  C   PRO D   7      19.077  12.472  43.172  1.00 67.39 LIG 0.24  C 
ATOM      9  N   LEU D   8      19.003  13.792  43.047  1.00 63.51 LIG-0.35  N 
ATOM     10 H    LEU D   8      18.351  14.263  43.353  1.00 63.51 LIG 0.16  HD
ATOM     11 O    PRO D   7      19.985  11.802  42.676  1.00 65.73 LIG-0.27  OA
BRANCH 9 12
ATOM     12  CA  LEU D   8      20.028  14.568  42.378  1.00 63.43 LIG 0.18  C 
BRANCH 12 13
ATOM     13  CB  LEU D   8      19.507  15.939  41.962  1.00 63.06 LIG 0.04  C 
BRANCH 13 14
ATOM     14  CG  LEU D   8      20.133  16.426  40.677  1.00 67.32 LIG-0.02  C 
ATOM     15  CD1 LEU D   8      19.090  16.796  39.685  1.00 66.57 LIG 0.01  C 
ATOM     16  CD2 LEU D   8      21.107  17.544  40.930  1.00 70.19 LIG 0.01  C 
ENDBRANCH 13 14
ENDBRANCH 12 13
BRANCH 12 17
ATOM     17  C   LEU D   8      21.255  14.674  43.256  1.00 69.22 LIG 0.24  C 
ATOM     18  N   PHE D   9      22.355  15.204  42.706  1.00 66.75 LIG-0.35  N 
ATOM     19 H    PHE D   9      22.392  15.478  41.891  1.00 66.75 LIG 0.16  HD
ATOM     20 O    LEU D   8      21.221  14.232  44.404  1.00 69.38 LIG-0.27  OA
BRANCH 18 21
ATOM     21  CA  PHE D   9      23.601  15.370  43.441  1.00 67.50 LIG 0.18  C 
BRANCH 21 22
ATOM     22  CB  PHE D   9      23.372  16.153  44.741  1.00 70.09 LIG 0.07  C 
BRANCH 22 23
ATOM     23  CG  PHE D   9      22.564  17.431  44.657  1.00 72.62 LIG-0.06  A 
ATOM     24  CD2 PHE D   9      23.197  18.663  44.546  1.00 75.26 LIG 0.01  A 
ATOM     25  CE2 PHE D   9      22.455  19.838  44.430  1.00 78.46 LIG 0.00  A 
ATOM     26  CZ  PHE D   9      21.076  19.788  44.419  1.00 76.95 LIG 0.00  A 
ATOM     27  CE1 PHE D   9      20.430  18.574  44.508  1.00 77.74 LIG 0.00  A 
ATOM     28  CD1 PHE D   9      21.173  17.396  44.591  1.00 76.53 LIG 0.01  A 
ENDBRANCH 22 23
ENDBRANCH 21 22
BRANCH 21 29
ATOM     29  C   PHE D   9      24.267  14.025  43.740  1.00 72.50 LIG 0.24  C 
ATOM     30 O    PHE D   9      25.448  13.985  44.093  1.00 71.57 LIG-0.27  OA
ATOM     31  N   SER D  10      23.506  12.921  43.615  1.00 70.70 LIG-0.34  N 
ATOM     32 H    SER D  10      22.676  12.939  43.391  1.00 70.70 LIG 0.16  HD
BRANCH 31 33
ATOM     33  CA  SER D  10      24.030  11.571  43.853  1.00110.54 LIG 0.19  C 
BRANCH 33 34
ATOM     34  C   SER D  10      23.181  10.514  43.145  1.00112.68 LIG 0.22  C 
ATOM     35 O    SER D  10      23.609   9.368  43.015  1.00 61.17 LIG-0.29  OA
ENDBRANCH 33 34
BRANCH 33 36
ATOM     36  CB  SER D  10      24.122  11.278  45.348  1.00114.99 LIG 0.20  C 
BRANCH 36 37
ATOM     37 OG   SER D  10      23.369  12.203  46.116  1.00125.63 LIG-0.40  OA
ATOM     38 HG   SER D  10      22.835  12.614  45.615  1.00125.63 LIG 0.21  HD
ENDBRANCH 36 37
ENDBRANCH 33 36
ENDBRANCH 31 33
ENDBRANCH 21 29
ENDBRANCH 18 21
ENDBRANCH 12 17
ENDBRANCH 9 12
ENDBRANCH 4 8
BRANCH 1 39
ATOM     39  CA  LEU D   6      14.723  11.706  41.994  1.00 70.47 LIG 0.18  C 
BRANCH 39 40
ATOM     40  N   LEU D   6      13.392  12.231  42.252  1.00 72.03 LIG-0.35  N 
ATOM     41  C   PHE D   5      12.777  11.987  43.408  1.00 78.51 LIG 0.24  C 
ATOM     42 O    PHE D   5      13.297  11.348  44.331  1.00 77.96 LIG-0.27  OA
ATOM     43 H    LEU D   6      13.055  12.694  41.611  1.00 72.03 LIG 0.16  HD
BRANCH 41 44
ATOM     44  CA  PHE D   5      11.336  12.433  43.503  1.00 78.26 LIG 0.18  C 
BRANCH 44 45
ATOM     45  N   PHE D   5      10.485  11.487  42.778  1.00 79.00 LIG-0.34  N 
ATOM     46 H    PHE D   5      10.735  10.665  42.834  1.00 79.00 LIG 0.16  HD
ATOM     47  C   GLU D   4       9.413  11.898  42.095  1.00 84.09 LIG 0.26  C 
ATOM     48 O    GLU D   4       9.019  13.063  42.104  1.00 84.89 LIG-0.27  OA
BRANCH 47 49
ATOM     49  CA  GLU D   4       8.654  10.863  41.285  1.00 80.59 LIG 0.40  C 
ATOM     50  N   GLU D   4       7.899  11.512  40.218  1.00 81.26 LIG 0.61  N 
BRANCH 49 51
ATOM     51  CB  GLU D   4       9.648   9.839  40.692  1.00 81.69 LIG 0.06  C 
BRANCH 51 52
ATOM     52  CG  GLU D   4      10.602  10.421  39.661  1.00 88.66 LIG 0.12  C 
BRANCH 52 53
ATOM     53  CD  GLU D   4      10.091  10.464  38.232  1.00 99.07 LIG 0.17  C 
ATOM     54 OE1  GLU D   4       8.856  10.421  38.028  1.00 74.80 LIG-0.65  OA
ATOM     55 OE2  GLU D   4      10.931  10.615  37.316  1.00 93.08 LIG-0.65  OA
ENDBRANCH 52 53
ENDBRANCH 51 52
ENDBRANCH 49 51
ENDBRANCH 47 49
ENDBRANCH 44 45
BRANCH 44 56
ATOM     56  CB  PHE D   5      10.857  12.717  44.930  1.00 80.27 LIG 0.07  C 
BRANCH 56 57
ATOM     57  CG  PHE D   5      10.570  14.183  45.162  1.00 81.89 LIG-0.06  A 
ATOM     58  CD2 PHE D   5      10.003  14.969  44.160  1.00 84.17 LIG 0.01  A 
ATOM     59  CE2 PHE D   5       9.747  16.327  44.372  1.00 86.81 LIG 0.00  A 
ATOM     60  CZ  PHE D   5      10.042  16.902  45.589  1.00 84.76 LIG 0.00  A 
ATOM     61  CE1 PHE D   5      10.615  16.143  46.589  1.00 85.59 LIG 0.00  A 
ATOM     62  CD1 PHE D   5      10.883  14.786  46.374  1.00 84.61 LIG 0.01  A 
ENDBRANCH 56 57
ENDBRANCH 44 56
ENDBRANCH 41 44
ENDBRANCH 39 40
BRANCH 39 63
ATOM     63  CB  LEU D   6      15.109  11.909  40.532  1.00 70.57 LIG 0.04  C 
BRANCH 63 64
ATOM     64  CG  LEU D   6      14.013  11.583  39.540  1.00 75.48 LIG-0.02  C 
ATOM     65  CD2 LEU D   6      14.285  10.317  38.854  1.00 78.97 LIG 0.01  C 
ATOM     66  CD1 LEU D   6      13.852  12.671  38.562  1.00 75.94 LIG 0.01  C 
ENDBRANCH 63 64
ENDBRANCH 39 63
ENDBRANCH 1 39
TORSDOF 25
ENDMDL
MODEL 8
USER: ADFR SOLUTION from run 30
USER: SCORE 22.529512 LL:  -6.467 LR: -17.037 RR:   0.000 FEB:  -9.579
USER: RMSD 5.421622
USER: SEED 29
USER: STATUS searching
USER: GENES 27
USER: genes 0 Translation |==|  0.44000 0.52185 0.50068
USER: genes 1 Rotation |==|  0.53233 0.54260 0.48962 0.99702
USER: genes 2 Torsion [N]-CA--C-[N] |==|  0.30683
USER: genes 3 Torsion [C]-N--CA-[C] |==|  0.74286
USER: genes 4 Torsion [N]-CA--CB-[CG] |==|  0.93669
USER: genes 5 Torsion [CA]-CB--CG-[CD1] |==|  0.27532
USER: genes 6 Torsion [N]-CA--C-[N] |==|  0.54039
USER: genes 7 Torsion [C]-N--CA-[CB] |==|  0.84978
USER: genes 8 Torsion [N]-CA--CB-[CG] |==|  0.83139
USER: genes 9 Torsion [CA]-CB--CG-[CD1] |==|  0.03315
USER: genes 10 Torsion [N]-CA--C-[N] |==|  0.37624
USER: genes 11 Torsion [C]-N--CA-[C] |==|  0.63696
USER: genes 12 Torsion [N]-CA--C-[O] |==|  0.54499
USER: genes 13 Torsion [N]-CA--CB-[OG] |==|  0.09410
USER: genes 14 Torsion [CA]-CB--OG-[HG] |==|  0.08274
USER: genes 15 Torsion [N]-C--CA-[N] |==|  0.35835
USER: genes 16 Torsion [C]-CA--N-[C] |==|  0.78464
USER: genes 17 Torsion [N]-C--CA-[N] |==|  0.89444
USER: genes 18 Torsion [C]-CA--N-[C] |==|  0.65400
USER: genes 19 Torsion [N]-C--CA-[N] |==|  0.28924
USER: genes 20 Torsion [C]-CA--CB-[CG] |==|  0.59200
USER: genes 21 Torsion [CA]-CB--CG-[CD] |==|  0.83676
USER: genes 22 Torsion [CB]-CG--CD-[OE1] |==|  0.16386
USER: genes 23 Torsion [C]-CA--CB-[CG] |==|  0.74670
USER: genes 24 Torsion [CA]-CB--CG-[CD2] |==|  0.25334
USER: genes 25 Torsion [C]-CA--CB-[CG] |==|  0.53004
USER: genes 26 Torsion [CA]-CB--CG-[CD2] |==|  0.74096
ROOT
ATOM      1  C   LEU D   6      16.207  12.312  42.684  1.00 70.97 LIG 0.24  C 
ATOM      2 O    LEU D   6      16.094  13.465  43.072  1.00 69.80 LIG-0.27  OA
ATOM      3  N   PRO D   7      17.272  11.557  43.001  1.00 67.36 LIG-0.34  N 
ATOM      4  CA  PRO D   7      18.330  12.125  43.833  1.00 66.95 LIG 0.18  C 
ATOM      5  CB  PRO D   7      18.823  10.916  44.644  1.00 69.23 LIG 0.04  C 
ATOM      6  CG  PRO D   7      18.376   9.680  43.854  1.00 73.99 LIG 0.02  C 
ATOM      7  CD  PRO D   7      17.565  10.147  42.672  1.00 69.55 LIG 0.13  C 
ENDROOT
BRANCH 4 8
ATOM      8  C   PRO D   7      19.445  12.749  42.999  1.00 67.39 LIG 0.24  C 
ATOM      9  N   LEU D   8      19.531  14.073  43.048  1.00 63.51 LIG-0.35  N 
ATOM     10 H    LEU D   8      18.975  14.571  43.477  1.00 63.51 LIG 0.16  HD
ATOM     11 O    PRO D   7      20.211  12.052  42.331  1.00 65.73 LIG-0.27  OA
BRANCH 9 12
ATOM     12  CA  LEU D   8      20.583  14.809  42.374  1.00 63.43 LIG 0.18  C 
BRANCH 12 13
ATOM     13  CB  LEU D   8      20.063  16.120  41.794  1.00 63.06 LIG 0.04  C 
BRANCH 13 14
ATOM     14  CG  LEU D   8      18.571  16.094  41.564  1.00 67.32 LIG-0.02  C 
ATOM     15  CD1 LEU D   8      17.850  16.771  42.675  1.00 66.57 LIG 0.01  C 
ATOM     16  CD2 LEU D   8      18.214  16.663  40.218  1.00 70.19 LIG 0.01  C 
ENDBRANCH 13 14
ENDBRANCH 12 13
BRANCH 12 17
ATOM     17  C   LEU D   8      21.745  15.031  43.315  1.00 69.22 LIG 0.24  C 
ATOM     18  N   PHE D   9      22.659  15.940  42.952  1.00 66.75 LIG-0.35  N 
ATOM     19 H    PHE D   9      22.615  16.390  42.220  1.00 66.75 LIG 0.16  HD
ATOM     20 O    LEU D   8      21.841  14.349  44.335  1.00 69.38 LIG-0.27  OA
BRANCH 18 21
ATOM     21  CA  PHE D   9      23.823  16.255  43.768  1.00 67.50 LIG 0.18  C 
BRANCH 21 22
ATOM     22  CB  PHE D   9      23.407  16.640  45.194  1.00 70.09 LIG 0.07  C 
BRANCH 22 23
ATOM     23  CG  PHE D   9      22.510  17.847  45.362  1.00 72.62 LIG-0.06  A 
ATOM     24  CD2 PHE D   9      22.370  18.459  46.602  1.00 75.26 LIG 0.01  A 
ATOM     25  CE2 PHE D   9      21.574  19.595  46.751  1.00 78.46 LIG 0.00  A 
ATOM     26  CZ  PHE D   9      20.919  20.128  45.660  1.00 76.95 LIG 0.00  A 
ATOM     27  CE1 PHE D   9      21.060  19.549  44.419  1.00 77.74 LIG 0.00  A 
ATOM     28  CD1 PHE D   9      21.882  18.432  44.264  1.00 76.53 LIG 0.01  A 
ENDBRANCH 22 23
ENDBRANCH 21 22
BRANCH 21 29
ATOM     29  C   PHE D   9      24.825  15.099  43.799  1.00 72.50 LIG 0.24  C 
ATOM     30 O    PHE D   9      24.429  13.941  43.945  1.00 71.57 LIG-0.27  OA
ATOM     31  N   SER D  10      26.127  15.410  43.644  1.00 70.70 LIG-0.34  N 
ATOM     32 H    SER D  10      26.412  16.211  43.520  1.00 70.70 LIG 0.16  HD
BRANCH 31 33
ATOM     33  CA  SER D  10      27.188  14.397  43.675  1.00110.54 LIG 0.19  C 
BRANCH 33 34
ATOM     34  C   SER D  10      28.321  14.809  44.617  1.00112.68 LIG 0.22  C 
ATOM     35 O    SER D  10      29.413  14.246  44.548  1.00 61.17 LIG-0.29  OA
ENDBRANCH 33 34
BRANCH 33 36
ATOM     36  CB  SER D  10      27.723  14.126  42.272  1.00114.99 LIG 0.20  C 
BRANCH 36 37
ATOM     37 OG   SER D  10      27.711  15.294  41.466  1.00125.63 LIG-0.40  OA
ATOM     38 HG   SER D  10      27.810  15.972  41.952  1.00125.63 LIG 0.21  HD
ENDBRANCH 36 37
ENDBRANCH 33 36
ENDBRANCH 31 33
ENDBRANCH 21 29
ENDBRANCH 18 21
ENDBRANCH 12 17
ENDBRANCH 9 12
ENDBRANCH 4 8
BRANCH 1 39
ATOM     39  CA  LEU D   6      15.156  11.719  41.789  1.00 70.47 LIG 0.18  C 
BRANCH 39 40
ATOM     40  N   LEU D   6      13.782  11.807  42.258  1.00 72.03 LIG-0.35  N 
ATOM     41  C   PHE D   5      13.330  10.981  43.200  1.00 78.51 LIG 0.24  C 
ATOM     42 O    PHE D   5      14.038  10.131  43.753  1.00 77.96 LIG-0.27  OA
ATOM     43 H    LEU D   6      13.311  12.420  41.881  1.00 72.03 LIG 0.16  HD
BRANCH 41 44
ATOM     44  CA  PHE D   5      11.847  11.048  43.488  1.00 78.26 LIG 0.18  C 
BRANCH 44 45
ATOM     45  N   PHE D   5      11.400  12.441  43.416  1.00 79.00 LIG-0.34  N 
ATOM     46 H    PHE D   5      11.579  12.836  42.672  1.00 79.00 LIG 0.16  HD
ATOM     47  C   GLU D   4      10.768  13.022  44.439  1.00 84.09 LIG 0.26  C 
ATOM     48 O    GLU D   4      10.440  12.414  45.456  1.00 84.89 LIG-0.27  OA
BRANCH 47 49
ATOM     49  CA  GLU D   4      10.439  14.499  44.317  1.00 80.59 LIG 0.40  C 
ATOM     50  N   GLU D   4       9.020  14.678  44.030  1.00 81.26 LIG 0.61  N 
BRANCH 49 51
ATOM     51  CB  GLU D   4      10.816  15.223  45.629  1.00 81.69 LIG 0.06  C 
BRANCH 51 52
ATOM     52  CG  GLU D   4       9.907  16.388  45.981  1.00 88.66 LIG 0.12  C 
BRANCH 52 53
ATOM     53  CD  GLU D   4       9.823  17.502  44.953  1.00 99.07 LIG 0.17  C 
ATOM     54 OE1  GLU D   4       9.429  17.229  43.795  1.00 74.80 LIG-0.65  OA
ATOM     55 OE2  GLU D   4      10.084  18.667  45.330  1.00 93.08 LIG-0.65  OA
ENDBRANCH 52 53
ENDBRANCH 51 52
ENDBRANCH 49 51
ENDBRANCH 47 49
ENDBRANCH 44 45
BRANCH 44 56
ATOM     56  CB  PHE D   5      10.999  10.089  42.650  1.00 80.27 LIG 0.07  C 
BRANCH 56 57
ATOM     57  CG  PHE D   5      10.508  10.721  41.367  1.00 81.89 LIG-0.06  A 
ATOM     58  CD2 PHE D   5      11.249  10.621  40.191  1.00 84.17 LIG 0.01  A 
ATOM     59  CE2 PHE D   5      10.800  11.214  39.007  1.00 86.81 LIG 0.00  A 
ATOM     60  CZ  PHE D   5       9.603  11.897  38.990  1.00 84.76 LIG 0.00  A 
ATOM     61  CE1 PHE D   5       8.861  12.016  40.148  1.00 85.59 LIG 0.00  A 
ATOM     62  CD1 PHE D   5       9.316  11.434  41.336  1.00 84.61 LIG 0.01  A 
ENDBRANCH 56 57
ENDBRANCH 44 56
ENDBRANCH 41 44
ENDBRANCH 39 40
BRANCH 39 63
ATOM     63  CB  LEU D   6      15.278  12.264  40.370  1.00 70.57 LIG 0.04  C 
BRANCH 63 64
ATOM     64  CG  LEU D   6      14.115  11.926  39.463  1.00 75.48 LIG-0.02  C 
ATOM     65  CD2 LEU D   6      14.379  10.700  38.703  1.00 78.97 LIG 0.01  C 
ATOM     66  CD1 LEU D   6      13.823  13.042  38.547  1.00 75.94 LIG 0.01  C 
ENDBRANCH 63 64
ENDBRANCH 39 63
ENDBRANCH 1 39
TORSDOF 25
ENDMDL
MODEL 9
USER: ADFR SOLUTION from run 194
USER: SCORE 22.426865 LL:  -7.248 LR: -16.838 RR:   0.000 FEB:  -9.380
USER: RMSD 4.687611
USER: SEED 193
USER: STATUS searching
USER: GENES 27
USER: genes 0 Translation |==|  0.43405 0.51477 0.50381
USER: genes 1 Rotation |==|  0.57144 0.55336 0.51247 0.99183
USER: genes 2 Torsion [N]-CA--C-[N] |==|  0.29507
USER: genes 3 Torsion [C]-N--CA-[C] |==|  0.76236
USER: genes 4 Torsion [N]-CA--CB-[CG] |==|  0.66844
USER: genes 5 Torsion [CA]-CB--CG-[CD1] |==|  0.85988
USER: genes 6 Torsion [N]-CA--C-[N] |==|  0.19824
USER: genes 7 Torsion [C]-N--CA-[CB] |==|  0.26565
USER: genes 8 Torsion [N]-CA--CB-[CG] |==|  0.91328
USER: genes 9 Torsion [CA]-CB--CG-[CD1] |==|  0.78728
USER: genes 10 Torsion [N]-CA--C-[N] |==|  0.37908
USER: genes 11 Torsion [C]-N--CA-[C] |==|  0.74001
USER: genes 12 Torsion [N]-CA--C-[O] |==|  0.35623
USER: genes 13 Torsion [N]-CA--CB-[OG] |==|  0.98712
USER: genes 14 Torsion [CA]-CB--OG-[HG] |==|  0.49091
USER: genes 15 Torsion [N]-C--CA-[N] |==|  0.38172
USER: genes 16 Torsion [C]-CA--N-[C] |==|  0.81300
USER: genes 17 Torsion [N]-C--CA-[N] |==|  0.87595
USER: genes 18 Torsion [C]-CA--N-[C] |==|  0.69708
USER: genes 19 Torsion [N]-C--CA-[N] |==|  0.24205
USER: genes 20 Torsion [C]-CA--CB-[CG] |==|  0.59062
USER: genes 21 Torsion [CA]-CB--CG-[CD] |==|  0.83666
USER: genes 22 Torsion [CB]-CG--CD-[OE1] |==|  0.62746
USER: genes 23 Torsion [C]-CA--CB-[CG] |==|  0.75490
USER: genes 24 Torsion [CA]-CB--CG-[CD2] |==|  0.25072
USER: genes 25 Torsion [C]-CA--CB-[CG] |==|  0.50739
USER: genes 26 Torsion [CA]-CB--CG-[CD2] |==|  0.75666
ROOT
ATOM      1  C   LEU D   6      16.033  12.185  42.745  1.00 70.97 LIG 0.24  C 
ATOM      2 O    LEU D   6      15.848  13.246  43.323  1.00 69.80 LIG-0.27  OA
ATOM      3  N   PRO D   7      17.165  11.478  42.902  1.00 67.36 LIG-0.34  N 
ATOM      4  CA  PRO D   7      18.210  11.988  43.786  1.00 66.95 LIG 0.18  C 
ATOM      5  CB  PRO D   7      18.828  10.707  44.369  1.00 69.23 LIG 0.04  C 
ATOM      6  CG  PRO D   7      18.444   9.585  43.398  1.00 73.99 LIG 0.02  C 
ATOM      7  CD  PRO D   7      17.551  10.170  42.334  1.00 69.55 LIG 0.13  C 
ENDROOT
BRANCH 4 8
ATOM      8  C   PRO D   7      19.239  12.829  43.036  1.00 67.39 LIG 0.24  C 
ATOM      9  N   LEU D   8      19.168  14.141  43.234  1.00 63.51 LIG-0.35  N 
ATOM     10 H    LEU D   8      18.560  14.517  43.713  1.00 63.51 LIG 0.16  HD
ATOM     11 O    PRO D   7      20.077  12.308  42.298  1.00 65.73 LIG-0.27  OA
BRANCH 9 12
ATOM     12  CA  LEU D   8      20.121  15.067  42.655  1.00 63.43 LIG 0.18  C 
BRANCH 12 13
ATOM     13  CB  LEU D   8      19.484  16.425  42.383  1.00 63.06 LIG 0.04  C 
BRANCH 13 14
ATOM     14  CG  LEU D   8      19.523  16.795  40.919  1.00 67.32 LIG-0.02  C 
ATOM     15  CD1 LEU D   8      20.895  16.637  40.369  1.00 66.57 LIG 0.01  C 
ATOM     16  CD2 LEU D   8      18.496  16.028  40.132  1.00 70.19 LIG 0.01  C 
ENDBRANCH 13 14
ENDBRANCH 12 13
BRANCH 12 17
ATOM     17  C   LEU D   8      21.337  15.184  43.547  1.00 69.22 LIG 0.24  C 
ATOM     18  N   PHE D   9      22.163  14.132  43.594  1.00 66.75 LIG-0.35  N 
ATOM     19 H    PHE D   9      22.031  13.406  43.150  1.00 66.75 LIG 0.16  HD
ATOM     20 O    LEU D   8      21.498  16.199  44.225  1.00 69.38 LIG-0.27  OA
BRANCH 18 21
ATOM     21  CA  PHE D   9      23.372  14.115  44.406  1.00 67.50 LIG 0.18  C 
BRANCH 21 22
ATOM     22  CB  PHE D   9      23.113  13.445  45.762  1.00 70.09 LIG 0.07  C 
BRANCH 22 23
ATOM     23  CG  PHE D   9      21.728  13.576  46.357  1.00 72.62 LIG-0.06  A 
ATOM     24  CD2 PHE D   9      20.867  12.485  46.398  1.00 75.26 LIG 0.01  A 
ATOM     25  CE2 PHE D   9      19.605  12.594  46.979  1.00 78.46 LIG 0.00  A 
ATOM     26  CZ  PHE D   9      19.196  13.792  47.528  1.00 76.95 LIG 0.00  A 
ATOM     27  CE1 PHE D   9      20.041  14.880  47.515  1.00 77.74 LIG 0.00  A 
ATOM     28  CD1 PHE D   9      21.317  14.762  46.963  1.00 76.53 LIG 0.01  A 
ENDBRANCH 22 23
ENDBRANCH 21 22
BRANCH 21 29
ATOM     29  C   PHE D   9      24.532  13.427  43.684  1.00 72.50 LIG 0.24  C 
ATOM     30 O    PHE D   9      24.339  12.382  43.058  1.00 71.57 LIG-0.27  OA
ATOM     31  N   SER D  10      25.739  14.020  43.756  1.00 70.70 LIG-0.34  N 
ATOM     32 H    SER D  10      25.880  14.759  44.171  1.00 70.70 LIG 0.16  HD
BRANCH 31 33
ATOM     33  CA  SER D  10      26.935  13.452  43.125  1.00110.54 LIG 0.19  C 
BRANCH 33 34
ATOM     34  C   SER D  10      27.721  12.582  44.108  1.00112.68 LIG 0.22  C 
ATOM     35 O    SER D  10      28.039  11.435  43.796  1.00 61.17 LIG-0.29  OA
ENDBRANCH 33 34
BRANCH 33 36
ATOM     36  CB  SER D  10      27.822  14.552  42.549  1.00114.99 LIG 0.20  C 
BRANCH 36 37
ATOM     37 OG   SER D  10      27.224  15.833  42.671  1.00125.63 LIG-0.40  OA
ATOM     38 HG   SER D  10      27.755  16.419  42.386  1.00125.63 LIG 0.21  HD
ENDBRANCH 36 37
ENDBRANCH 33 36
ENDBRANCH 31 33
ENDBRANCH 21 29
ENDBRANCH 18 21
ENDBRANCH 12 17
ENDBRANCH 9 12
ENDBRANCH 4 8
BRANCH 1 39
ATOM     39  CA  LEU D   6      14.994  11.661  41.794  1.00 70.47 LIG 0.18  C 
BRANCH 39 40
ATOM     40  N   LEU D   6      13.612  11.735  42.241  1.00 72.03 LIG-0.35  N 
ATOM     41  C   PHE D   5      13.187  10.992  43.262  1.00 78.51 LIG 0.24  C 
ATOM     42 O    PHE D   5      13.926  10.238  43.907  1.00 77.96 LIG-0.27  OA
ATOM     43 H    LEU D   6      13.118  12.282  41.800  1.00 72.03 LIG 0.16  HD
BRANCH 41 44
ATOM     44  CA  PHE D   5      11.700  11.020  43.532  1.00 78.26 LIG 0.18  C 
BRANCH 44 45
ATOM     45  N   PHE D   5      11.219  12.402  43.466  1.00 79.00 LIG-0.34  N 
ATOM     46 H    PHE D   5      11.206  12.739  42.674  1.00 79.00 LIG 0.16  HD
ATOM     47  C   GLU D   4      10.840  13.059  44.565  1.00 84.09 LIG 0.26  C 
ATOM     48 O    GLU D   4      10.778  12.530  45.674  1.00 84.89 LIG-0.27  OA
BRANCH 47 49
ATOM     49  CA  GLU D   4      10.461  14.521  44.416  1.00 80.59 LIG 0.40  C 
ATOM     50  N   GLU D   4       9.050  14.644  44.067  1.00 81.26 LIG 0.61  N 
BRANCH 49 51
ATOM     51  CB  GLU D   4      10.753  15.268  45.737  1.00 81.69 LIG 0.06  C 
BRANCH 51 52
ATOM     52  CG  GLU D   4       9.792  16.408  46.034  1.00 88.66 LIG 0.12  C 
BRANCH 52 53
ATOM     53  CD  GLU D   4       9.725  17.510  44.992  1.00 99.07 LIG 0.17  C 
ATOM     54 OE1  GLU D   4       9.753  18.704  45.369  1.00 74.80 LIG-0.65  OA
ATOM     55 OE2  GLU D   4       9.717  17.173  43.786  1.00 93.08 LIG-0.65  OA
ENDBRANCH 52 53
ENDBRANCH 51 52
ENDBRANCH 49 51
ENDBRANCH 47 49
ENDBRANCH 44 45
BRANCH 44 56
ATOM     56  CB  PHE D   5      10.885  10.048  42.674  1.00 80.27 LIG 0.07  C 
BRANCH 56 57
ATOM     57  CG  PHE D   5      10.456  10.658  41.359  1.00 81.89 LIG-0.06  A 
ATOM     58  CD2 PHE D   5      11.258  10.549  40.224  1.00 84.17 LIG 0.01  A 
ATOM     59  CE2 PHE D   5      10.866  11.122  39.010  1.00 86.81 LIG 0.00  A 
ATOM     60  CZ  PHE D   5       9.665  11.792  38.921  1.00 84.76 LIG 0.00  A 
ATOM     61  CE1 PHE D   5       8.863  11.919  40.037  1.00 85.59 LIG 0.00  A 
ATOM     62  CD1 PHE D   5       9.261  11.357  41.255  1.00 84.61 LIG 0.01  A 
ENDBRANCH 56 57
ENDBRANCH 44 56
ENDBRANCH 41 44
ENDBRANCH 39 40
BRANCH 39 63
ATOM     63  CB  LEU D   6      15.149  12.294  40.415  1.00 70.57 LIG 0.04  C 
BRANCH 63 64
ATOM     64  CG  LEU D   6      14.103  11.871  39.407  1.00 75.48 LIG-0.02  C 
ATOM     65  CD2 LEU D   6      14.510  10.649  38.707  1.00 78.97 LIG 0.01  C 
ATOM     66  CD1 LEU D   6      13.841  12.951  38.440  1.00 75.94 LIG 0.01  C 
ENDBRANCH 63 64
ENDBRANCH 39 63
ENDBRANCH 1 39
TORSDOF 25
ENDMDL
MODEL 10
USER: ADFR SOLUTION from run 5
USER: SCORE 21.998271 LL:  -6.720 LR: -16.821 RR:   0.000 FEB:  -9.363
USER: RMSD 3.759885
USER: SEED 394635
USER: STATUS searching
USER: GENES 27
USER: genes 0 Translation |==|  0.41135 0.49752 0.48250
USER: genes 1 Rotation |==|  0.51333 0.50193 0.49040 0.99973
USER: genes 2 Torsion [N]-CA--C-[N] |==|  0.40150
USER: genes 3 Torsion [C]-N--CA-[C] |==|  0.68685
USER: genes 4 Torsion [N]-CA--CB-[CG] |==|  0.93403
USER: genes 5 Torsion [CA]-CB--CG-[CD1] |==|  0.32633
USER: genes 6 Torsion [N]-CA--C-[N] |==|  0.42339
USER: genes 7 Torsion [C]-N--CA-[CB] |==|  0.22778
USER: genes 8 Torsion [N]-CA--CB-[CG] |==|  0.00330
USER: genes 9 Torsion [CA]-CB--CG-[CD1] |==|  0.21574
USER: genes 10 Torsion [N]-CA--C-[N] |==|  0.56773
USER: genes 11 Torsion [C]-N--CA-[C] |==|  0.81175
USER: genes 12 Torsion [N]-CA--C-[O] |==|  0.27695
USER: genes 13 Torsion [N]-CA--CB-[OG] |==|  0.25003
USER: genes 14 Torsion [CA]-CB--OG-[HG] |==|  0.37435
USER: genes 15 Torsion [N]-C--CA-[N] |==|  0.39291
USER: genes 16 Torsion [C]-CA--N-[C] |==|  0.59550
USER: genes 17 Torsion [N]-C--CA-[N] |==|  0.86117
USER: genes 18 Torsion [C]-CA--N-[C] |==|  0.83345
USER: genes 19 Torsion [N]-C--CA-[N] |==|  0.57136
USER: genes 20 Torsion [C]-CA--CB-[CG] |==|  0.30325
USER: genes 21 Torsion [CA]-CB--CG-[CD] |==|  0.99253
USER: genes 22 Torsion [CB]-CG--CD-[OE1] |==|  0.19061
USER: genes 23 Torsion [C]-CA--CB-[CG] |==|  0.41326
USER: genes 24 Torsion [CA]-CB--CG-[CD2] |==|  0.13554
USER: genes 25 Torsion [C]-CA--CB-[CG] |==|  0.60126
USER: genes 26 Torsion [CA]-CB--CG-[CD2] |==|  0.62766
ROOT
ATOM      1  C   LEU D   6      15.369  11.874  42.330  1.00 70.97 LIG 0.24  C 
ATOM      2 O    LEU D   6      15.203  13.054  42.602  1.00 69.80 LIG-0.27  OA
ATOM      3  N   PRO D   7      16.364  11.153  42.872  1.00 67.36 LIG-0.34  N 
ATOM      4  CA  PRO D   7      17.278  11.791  43.816  1.00 66.95 LIG 0.18  C 
ATOM      5  CB  PRO D   7      17.627  10.652  44.788  1.00 69.23 LIG 0.04  C 
ATOM      6  CG  PRO D   7      17.303   9.356  44.037  1.00 73.99 LIG 0.02  C 
ATOM      7  CD  PRO D   7      16.696   9.723  42.706  1.00 69.55 LIG 0.13  C 
ENDROOT
BRANCH 4 8
ATOM      8  C   PRO D   7      18.518  12.353  43.125  1.00 67.39 LIG 0.24  C 
ATOM      9  N   LEU D   8      18.997  13.484  43.630  1.00 63.51 LIG-0.35  N 
ATOM     10 H    LEU D   8      18.621  13.915  44.273  1.00 63.51 LIG 0.16  HD
ATOM     11 O    PRO D   7      19.031  11.778  42.163  1.00 65.73 LIG-0.27  OA
BRANCH 9 12
ATOM     12  CA  LEU D   8      20.211  14.103  43.135  1.00 63.43 LIG 0.18  C 
BRANCH 12 13
ATOM     13  CB  LEU D   8      19.957  15.530  42.662  1.00 63.06 LIG 0.04  C 
BRANCH 13 14
ATOM     14  CG  LEU D   8      18.514  15.760  42.281  1.00 67.32 LIG-0.02  C 
ATOM     15  CD1 LEU D   8      17.891  16.788  43.155  1.00 66.57 LIG 0.01  C 
ATOM     16  CD2 LEU D   8      18.379  16.092  40.819  1.00 70.19 LIG 0.01  C 
ENDBRANCH 13 14
ENDBRANCH 12 13
BRANCH 12 17
ATOM     17  C   LEU D   8      21.291  14.044  44.193  1.00 69.22 LIG 0.24  C 
ATOM     18  N   PHE D   9      22.560  14.028  43.768  1.00 66.75 LIG-0.35  N 
ATOM     19 H    PHE D   9      22.782  14.046  42.937  1.00 66.75 LIG 0.16  HD
ATOM     20 O    LEU D   8      20.975  13.961  45.380  1.00 69.38 LIG-0.27  OA
BRANCH 18 21
ATOM     21  CA  PHE D   9      23.695  13.979  44.679  1.00 67.50 LIG 0.18  C 
BRANCH 21 22
ATOM     22  CB  PHE D   9      23.967  12.541  45.140  1.00 70.09 LIG 0.07  C 
BRANCH 22 23
ATOM     23  CG  PHE D   9      23.082  11.447  44.585  1.00 72.62 LIG-0.06  A 
ATOM     24  CD2 PHE D   9      21.997  10.974  45.315  1.00 75.26 LIG 0.01  A 
ATOM     25  CE2 PHE D   9      21.157   9.992  44.790  1.00 78.46 LIG 0.00  A 
ATOM     26  CZ  PHE D   9      21.393   9.482  43.530  1.00 76.95 LIG 0.00  A 
ATOM     27  CE1 PHE D   9      22.451   9.951  42.782  1.00 77.74 LIG 0.00  A 
ATOM     28  CD1 PHE D   9      23.271  10.956  43.295  1.00 76.53 LIG 0.01  A 
ENDBRANCH 22 23
ENDBRANCH 21 22
BRANCH 21 29
ATOM     29  C   PHE D   9      24.953  14.586  44.054  1.00 72.50 LIG 0.24  C 
ATOM     30 O    PHE D   9      24.854  15.427  43.158  1.00 71.57 LIG-0.27  OA
ATOM     31  N   SER D  10      26.140  14.173  44.538  1.00 70.70 LIG-0.34  N 
ATOM     32 H    SER D  10      26.220  13.604  45.177  1.00 70.70 LIG 0.16  HD
BRANCH 31 33
ATOM     33  CA  SER D  10      27.419  14.662  44.011  1.00110.54 LIG 0.19  C 
BRANCH 33 34
ATOM     34  C   SER D  10      27.653  14.173  42.581  1.00112.68 LIG 0.22  C 
ATOM     35 O    SER D  10      27.424  14.919  41.630  1.00 61.17 LIG-0.29  OA
ENDBRANCH 33 34
BRANCH 33 36
ATOM     36  CB  SER D  10      28.575  14.251  44.919  1.00114.99 LIG 0.20  C 
BRANCH 36 37
ATOM     37 OG   SER D  10      29.120  12.995  44.547  1.00125.63 LIG-0.40  OA
ATOM     38 HG   SER D  10      29.958  13.042  44.546  1.00125.63 LIG 0.21  HD
ENDBRANCH 36 37
ENDBRANCH 33 36
ENDBRANCH 31 33
ENDBRANCH 21 29
ENDBRANCH 18 21
ENDBRANCH 12 17
ENDBRANCH 9 12
ENDBRANCH 4 8
BRANCH 1 39
ATOM     39  CA  LEU D   6      14.471  11.206  41.327  1.00 70.47 LIG 0.18  C 
BRANCH 39 40
ATOM     40  N   LEU D   6      13.060  11.550  41.392  1.00 72.03 LIG-0.35  N 
ATOM     41  C   PHE D   5      12.125  10.643  41.111  1.00 78.51 LIG 0.24  C 
ATOM     42 O    PHE D   5      12.384   9.469  40.821  1.00 77.96 LIG-0.27  OA
ATOM     43 H    LEU D   6      12.896  12.362  41.621  1.00 72.03 LIG 0.16  HD
BRANCH 41 44
ATOM     44  CA  PHE D   5      10.702  11.152  41.045  1.00 78.26 LIG 0.18  C 
BRANCH 44 45
ATOM     45  N   PHE D   5      10.411  11.938  42.246  1.00 79.00 LIG-0.34  N 
ATOM     46 H    PHE D   5      10.191  12.756  42.094  1.00 79.00 LIG 0.16  HD
ATOM     47  C   GLU D   4      10.489  11.399  43.465  1.00 84.09 LIG 0.26  C 
ATOM     48 O    GLU D   4      10.714  10.205  43.657  1.00 84.89 LIG-0.27  OA
BRANCH 47 49
ATOM     49  CA  GLU D   4      10.277  12.315  44.657  1.00 80.59 LIG 0.40  C 
ATOM     50  N   GLU D   4      10.960  11.783  45.831  1.00 81.26 LIG 0.61  N 
BRANCH 49 51
ATOM     51  CB  GLU D   4      10.807  13.728  44.323  1.00 81.69 LIG 0.06  C 
BRANCH 51 52
ATOM     52  CG  GLU D   4       9.721  14.774  44.137  1.00 88.66 LIG 0.12  C 
BRANCH 52 53
ATOM     53  CD  GLU D   4       8.291  14.275  44.241  1.00 99.07 LIG 0.17  C 
ATOM     54 OE1  GLU D   4       7.862  13.891  45.354  1.00 74.80 LIG-0.65  OA
ATOM     55 OE2  GLU D   4       7.575  14.337  43.215  1.00 93.08 LIG-0.65  OA
ENDBRANCH 52 53
ENDBRANCH 51 52
ENDBRANCH 49 51
ENDBRANCH 47 49
ENDBRANCH 44 45
BRANCH 44 56
ATOM     56  CB  PHE D   5      10.352  11.875  39.742  1.00 80.27 LIG 0.07  C 
BRANCH 56 57
ATOM     57  CG  PHE D   5       8.899  11.706  39.359  1.00 81.89 LIG-0.06  A 
ATOM     58  CD2 PHE D   5       7.885  11.927  40.289  1.00 84.17 LIG 0.01  A 
ATOM     59  CE2 PHE D   5       6.541  11.761  39.939  1.00 86.81 LIG 0.00  A 
ATOM     60  CZ  PHE D   5       6.205  11.388  38.655  1.00 84.76 LIG 0.00  A 
ATOM     61  CE1 PHE D   5       7.197  11.154  37.724  1.00 85.59 LIG 0.00  A 
ATOM     62  CD1 PHE D   5       8.542  11.307  38.078  1.00 84.61 LIG 0.01  A 
ENDBRANCH 56 57
ENDBRANCH 44 56
ENDBRANCH 41 44
ENDBRANCH 39 40
BRANCH 39 63
ATOM     63  CB  LEU D   6      15.006  11.389  39.910  1.00 70.57 LIG 0.04  C 
BRANCH 63 64
ATOM     64  CG  LEU D   6      13.939  11.577  38.853  1.00 75.48 LIG-0.02  C 
ATOM     65  CD2 LEU D   6      14.207  10.741  37.680  1.00 78.97 LIG 0.01  C 
ATOM     66  CD1 LEU D   6      13.835  12.992  38.460  1.00 75.94 LIG 0.01  C 
ENDBRANCH 63 64
ENDBRANCH 39 63
ENDBRANCH 1 39
TORSDOF 25
ENDMDL
MODEL 11
USER: ADFR SOLUTION from run 48
USER: SCORE 21.942739 LL:  -6.149 LR: -16.813 RR:   0.000 FEB:  -9.355
USER: RMSD 3.964239
USER: SEED 47
USER: STATUS searching
USER: GENES 27
USER: genes 0 Translation |==|  0.42716 0.52117 0.50731
USER: genes 1 Rotation |==|  0.56321 0.57078 0.49912 0.99091
USER: genes 2 Torsion [N]-CA--C-[N] |==|  0.24806
USER: genes 3 Torsion [C]-N--CA-[C] |==|  0.76371
USER: genes 4 Torsion [N]-CA--CB-[CG] |==|  0.67533
USER: genes 5 Torsion [CA]-CB--CG-[CD1] |==|  0.46673
USER: genes 6 Torsion [N]-CA--C-[N] |==|  0.18724
USER: genes 7 Torsion [C]-N--CA-[CB] |==|  0.77595
USER: genes 8 Torsion [N]-CA--CB-[CG] |==|  0.64663
USER: genes 9 Torsion [CA]-CB--CG-[CD1] |==|  0.58974
USER: genes 10 Torsion [N]-CA--C-[N] |==|  0.20687
USER: genes 11 Torsion [C]-N--CA-[C] |==|  0.75262
USER: genes 12 Torsion [N]-CA--C-[O] |==|  0.86653
USER: genes 13 Torsion [N]-CA--CB-[OG] |==|  0.01590
USER: genes 14 Torsion [CA]-CB--OG-[HG] |==|  0.69218
USER: genes 15 Torsion [N]-C--CA-[N] |==|  0.43537
USER: genes 16 Torsion [C]-CA--N-[C] |==|  0.81796
USER: genes 17 Torsion [N]-C--CA-[N] |==|  0.22706
USER: genes 18 Torsion [C]-CA--N-[C] |==|  0.63280
USER: genes 19 Torsion [N]-C--CA-[N] |==|  0.54137
USER: genes 20 Torsion [C]-CA--CB-[CG] |==|  0.82644
USER: genes 21 Torsion [CA]-CB--CG-[CD] |==|  0.78804
USER: genes 22 Torsion [CB]-CG--CD-[OE1] |==|  0.99337
USER: genes 23 Torsion [C]-CA--CB-[CG] |==|  0.31551
USER: genes 24 Torsion [CA]-CB--CG-[CD2] |==|  0.09402
USER: genes 25 Torsion [C]-CA--CB-[CG] |==|  0.51484
USER: genes 26 Torsion [CA]-CB--CG-[CD2] |==|  0.66755
ROOT
ATOM      1  C   LEU D   6      15.831  12.300  42.814  1.00 70.97 LIG 0.24  C 
ATOM      2 O    LEU D   6      15.731  13.389  43.359  1.00 69.80 LIG-0.27  OA
ATOM      3  N   PRO D   7      16.945  11.555  42.913  1.00 67.36 LIG-0.34  N 
ATOM      4  CA  PRO D   7      18.073  12.055  43.695  1.00 66.95 LIG 0.18  C 
ATOM      5  CB  PRO D   7      18.685  10.773  44.283  1.00 69.23 LIG 0.04  C 
ATOM      6  CG  PRO D   7      18.187   9.632  43.390  1.00 73.99 LIG 0.02  C 
ATOM      7  CD  PRO D   7      17.237  10.211  42.372  1.00 69.55 LIG 0.13  C 
ENDROOT
BRANCH 4 8
ATOM      8  C   PRO D   7      19.072  12.825  42.836  1.00 67.39 LIG 0.24  C 
ATOM      9  N   LEU D   8      18.844  14.128  42.713  1.00 63.51 LIG-0.35  N 
ATOM     10 H    LEU D   8      18.158  14.524  43.048  1.00 63.51 LIG 0.16  HD
ATOM     11 O    PRO D   7      20.026  12.258  42.300  1.00 65.73 LIG-0.27  OA
BRANCH 9 12
ATOM     12  CA  LEU D   8      19.743  15.009  41.995  1.00 63.43 LIG 0.18  C 
BRANCH 12 13
ATOM     13  CB  LEU D   8      18.995  16.186  41.377  1.00 63.06 LIG 0.04  C 
BRANCH 13 14
ATOM     14  CG  LEU D   8      19.075  16.188  39.869  1.00 67.32 LIG-0.02  C 
ATOM     15  CD1 LEU D   8      18.113  17.161  39.288  1.00 66.57 LIG 0.01  C 
ATOM     16  CD2 LEU D   8      20.483  16.419  39.395  1.00 70.19 LIG 0.01  C 
ENDBRANCH 13 14
ENDBRANCH 12 13
BRANCH 12 17
ATOM     17  C   LEU D   8      20.858  15.468  42.908  1.00 69.22 LIG 0.24  C 
ATOM     18  N   PHE D   9      21.735  14.541  43.315  1.00 66.75 LIG-0.35  N 
ATOM     19 H    PHE D   9      21.689  13.714  43.085  1.00 66.75 LIG 0.16  HD
ATOM     20 O    LEU D   8      20.893  16.641  43.283  1.00 69.38 LIG-0.27  OA
BRANCH 18 21
ATOM     21  CA  PHE D   9      22.858  14.850  44.189  1.00 67.50 LIG 0.18  C 
BRANCH 21 22
ATOM     22  CB  PHE D   9      24.022  15.457  43.395  1.00 70.09 LIG 0.07  C 
BRANCH 22 23
ATOM     23  CG  PHE D   9      25.385  14.818  43.550  1.00 72.62 LIG-0.06  A 
ATOM     24  CD2 PHE D   9      25.511  13.440  43.682  1.00 75.26 LIG 0.01  A 
ATOM     25  CE2 PHE D   9      26.768  12.844  43.786  1.00 78.46 LIG 0.00  A 
ATOM     26  CZ  PHE D   9      27.907  13.623  43.754  1.00 76.95 LIG 0.00  A 
ATOM     27  CE1 PHE D   9      27.805  14.988  43.604  1.00 77.74 LIG 0.00  A 
ATOM     28  CD1 PHE D   9      26.549  15.580  43.467  1.00 76.53 LIG 0.01  A 
ENDBRANCH 22 23
ENDBRANCH 21 22
BRANCH 21 29
ATOM     29  C   PHE D   9      22.449  15.782  45.332  1.00 72.50 LIG 0.24  C 
ATOM     30 O    PHE D   9      22.768  16.972  45.304  1.00 71.57 LIG-0.27  OA
ATOM     31  N   SER D  10      21.725  15.245  46.333  1.00 70.70 LIG-0.34  N 
ATOM     32 H    SER D  10      21.479  14.422  46.352  1.00 70.70 LIG 0.16  HD
BRANCH 31 33
ATOM     33  CA  SER D  10      21.288  16.026  47.496  1.00110.54 LIG 0.19  C 
BRANCH 33 34
ATOM     34  C   SER D  10      22.336  15.996  48.610  1.00112.68 LIG 0.22  C 
ATOM     35 O    SER D  10      22.831  14.925  48.959  1.00 61.17 LIG-0.29  OA
ENDBRANCH 33 34
BRANCH 33 36
ATOM     36  CB  SER D  10      19.939  15.531  48.009  1.00114.99 LIG 0.20  C 
BRANCH 36 37
ATOM     37 OG   SER D  10      19.507  14.365  47.324  1.00125.63 LIG-0.40  OA
ATOM     38 HG   SER D  10      18.843  14.551  46.845  1.00125.63 LIG 0.21  HD
ENDBRANCH 36 37
ENDBRANCH 33 36
ENDBRANCH 31 33
ENDBRANCH 21 29
ENDBRANCH 18 21
ENDBRANCH 12 17
ENDBRANCH 9 12
ENDBRANCH 4 8
BRANCH 1 39
ATOM     39  CA  LEU D   6      14.704  11.783  41.965  1.00 70.47 LIG 0.18  C 
BRANCH 39 40
ATOM     40  N   LEU D   6      13.377  12.294  42.271  1.00 72.03 LIG-0.35  N 
ATOM     41  C   PHE D   5      12.792  12.015  43.435  1.00 78.51 LIG 0.24  C 
ATOM     42 O    PHE D   5      13.338  11.353  44.326  1.00 77.96 LIG-0.27  OA
ATOM     43 H    LEU D   6      13.023  12.774  41.652  1.00 72.03 LIG 0.16  HD
BRANCH 41 44
ATOM     44  CA  PHE D   5      11.352  12.453  43.579  1.00 78.26 LIG 0.18  C 
BRANCH 44 45
ATOM     45  N   PHE D   5      10.478  11.464  42.943  1.00 79.00 LIG-0.34  N 
ATOM     46 H    PHE D   5      10.647  10.647  43.157  1.00 79.00 LIG 0.16  HD
ATOM     47  C   GLU D   4       9.506  11.833  42.105  1.00 84.09 LIG 0.26  C 
ATOM     48 O    GLU D   4       9.221  13.009  41.886  1.00 84.89 LIG-0.27  OA
BRANCH 47 49
ATOM     49  CA  GLU D   4       8.722  10.735  41.410  1.00 80.59 LIG 0.40  C 
ATOM     50  N   GLU D   4       7.962  11.288  40.293  1.00 81.26 LIG 0.61  N 
BRANCH 49 51
ATOM     51  CB  GLU D   4       9.693   9.643  40.908  1.00 81.69 LIG 0.06  C 
BRANCH 51 52
ATOM     52  CG  GLU D   4      10.696  10.128  39.874  1.00 88.66 LIG 0.12  C 
BRANCH 52 53
ATOM     53  CD  GLU D   4      10.159  10.326  38.468  1.00 99.07 LIG 0.17  C 
ATOM     54 OE1  GLU D   4       8.961  10.043  38.230  1.00 74.80 LIG-0.65  OA
ATOM     55 OE2  GLU D   4      10.923  10.837  37.617  1.00 93.08 LIG-0.65  OA
ENDBRANCH 52 53
ENDBRANCH 51 52
ENDBRANCH 49 51
ENDBRANCH 47 49
ENDBRANCH 44 45
BRANCH 44 56
ATOM     56  CB  PHE D   5      10.940  12.803  45.011  1.00 80.27 LIG 0.07  C 
BRANCH 56 57
ATOM     57  CG  PHE D   5      10.618  14.270  45.178  1.00 81.89 LIG-0.06  A 
ATOM     58  CD2 PHE D   5      10.031  14.996  44.143  1.00 84.17 LIG 0.01  A 
ATOM     59  CE2 PHE D   5       9.743  16.356  44.294  1.00 86.81 LIG 0.00  A 
ATOM     60  CZ  PHE D   5      10.025  16.992  45.483  1.00 84.76 LIG 0.00  A 
ATOM     61  CE1 PHE D   5      10.617  16.292  46.515  1.00 85.59 LIG 0.00  A 
ATOM     62  CD1 PHE D   5      10.918  14.934  46.361  1.00 84.61 LIG 0.01  A 
ENDBRANCH 56 57
ENDBRANCH 44 56
ENDBRANCH 41 44
ENDBRANCH 39 40
BRANCH 39 63
ATOM     63  CB  LEU D   6      15.018  11.950  40.482  1.00 70.57 LIG 0.04  C 
BRANCH 63 64
ATOM     64  CG  LEU D   6      13.884  11.573  39.552  1.00 75.48 LIG-0.02  C 
ATOM     65  CD2 LEU D   6      14.281  10.484  38.655  1.00 78.97 LIG 0.01  C 
ATOM     66  CD1 LEU D   6      13.435  12.739  38.774  1.00 75.94 LIG 0.01  C 
ENDBRANCH 63 64
ENDBRANCH 39 63
ENDBRANCH 1 39
TORSDOF 25
ENDMDL
MODEL 12
USER: ADFR SOLUTION from run 34
USER: SCORE 21.283726 LL:  -6.876 LR: -16.730 RR:   0.000 FEB:  -9.272
USER: RMSD 3.671234
USER: SEED 33
USER: STATUS searching
USER: GENES 27
USER: genes 0 Translation |==|  0.43515 0.52111 0.51466
USER: genes 1 Rotation |==|  0.55389 0.55426 0.47842 0.99365
USER: genes 2 Torsion [N]-CA--C-[N] |==|  0.32468
USER: genes 3 Torsion [C]-N--CA-[C] |==|  0.71174
USER: genes 4 Torsion [N]-CA--CB-[CG] |==|  0.92402
USER: genes 5 Torsion [CA]-CB--CG-[CD1] |==|  0.31500
USER: genes 6 Torsion [N]-CA--C-[N] |==|  0.23957
USER: genes 7 Torsion [C]-N--CA-[CB] |==|  0.41737
USER: genes 8 Torsion [N]-CA--CB-[CG] |==|  0.99951
USER: genes 9 Torsion [CA]-CB--CG-[CD1] |==|  0.69284
USER: genes 10 Torsion [N]-CA--C-[N] |==|  0.56906
USER: genes 11 Torsion [C]-N--CA-[C] |==|  0.81765
USER: genes 12 Torsion [N]-CA--C-[O] |==|  0.33332
USER: genes 13 Torsion [N]-CA--CB-[OG] |==|  0.18629
USER: genes 14 Torsion [CA]-CB--OG-[HG] |==|  0.75803
USER: genes 15 Torsion [N]-C--CA-[N] |==|  0.38646
USER: genes 16 Torsion [C]-CA--N-[C] |==|  0.84059
USER: genes 17 Torsion [N]-C--CA-[N] |==|  0.49342
USER: genes 18 Torsion [C]-CA--N-[C] |==|  0.76148
USER: genes 19 Torsion [N]-C--CA-[N] |==|  0.76839
USER: genes 20 Torsion [C]-CA--CB-[CG] |==|  0.21595
USER: genes 21 Torsion [CA]-CB--CG-[CD] |==|  0.02407
USER: genes 22 Torsion [CB]-CG--CD-[OE1] |==|  0.17051
USER: genes 23 Torsion [C]-CA--CB-[CG] |==|  0.62013
USER: genes 24 Torsion [CA]-CB--CG-[CD2] |==|  0.75747
USER: genes 25 Torsion [C]-CA--CB-[CG] |==|  0.48775
USER: genes 26 Torsion [CA]-CB--CG-[CD2] |==|  0.74084
ROOT
ATOM      1  C   LEU D   6      16.065  12.299  42.957  1.00 70.97 LIG 0.24  C 
ATOM      2 O    LEU D   6      16.029  13.419  43.444  1.00 69.80 LIG-0.27  OA
ATOM      3  N   PRO D   7      17.104  11.470  43.156  1.00 67.36 LIG-0.34  N 
ATOM      4  CA  PRO D   7      18.227  11.915  43.977  1.00 66.95 LIG 0.18  C 
ATOM      5  CB  PRO D   7      18.695  10.620  44.659  1.00 69.23 LIG 0.04  C 
ATOM      6  CG  PRO D   7      18.149   9.478  43.794  1.00 73.99 LIG 0.02  C 
ATOM      7  CD  PRO D   7      17.309  10.081  42.697  1.00 69.55 LIG 0.13  C 
ENDROOT
BRANCH 4 8
ATOM      8  C   PRO D   7      19.333  12.554  43.142  1.00 67.39 LIG 0.24  C 
ATOM      9  N   LEU D   8      19.578  13.836  43.392  1.00 63.51 LIG-0.35  N 
ATOM     10 H    LEU D   8      19.123  14.307  43.949  1.00 63.51 LIG 0.16  HD
ATOM     11 O    PRO D   7      19.952  11.906  42.296  1.00 65.73 LIG-0.27  OA
BRANCH 9 12
ATOM     12  CA  LEU D   8      20.647  14.564  42.738  1.00 63.43 LIG 0.18  C 
BRANCH 12 13
ATOM     13  CB  LEU D   8      20.157  15.898  42.186  1.00 63.06 LIG 0.04  C 
BRANCH 13 14
ATOM     14  CG  LEU D   8      18.686  15.874  41.847  1.00 67.32 LIG-0.02  C 
ATOM     15  CD1 LEU D   8      17.919  16.777  42.745  1.00 66.57 LIG 0.01  C 
ATOM     16  CD2 LEU D   8      18.453  16.178  40.392  1.00 70.19 LIG 0.01  C 
ENDBRANCH 13 14
ENDBRANCH 12 13
BRANCH 12 17
ATOM     17  C   LEU D   8      21.810  14.741  43.688  1.00 69.22 LIG 0.24  C 
ATOM     18  N   PHE D   9      22.706  13.748  43.747  1.00 66.75 LIG-0.35  N 
ATOM     19 H    PHE D   9      22.647  13.028  43.280  1.00 66.75 LIG 0.16  HD
ATOM     20 O    LEU D   8      21.867  15.744  44.400  1.00 69.38 LIG-0.27  OA
BRANCH 18 21
ATOM     21  CA  PHE D   9      23.875  13.793  44.615  1.00 67.50 LIG 0.18  C 
BRANCH 21 22
ATOM     22  CB  PHE D   9      24.290  12.381  45.051  1.00 70.09 LIG 0.07  C 
BRANCH 22 23
ATOM     23  CG  PHE D   9      23.463  11.219  44.545  1.00 72.62 LIG-0.06  A 
ATOM     24  CD2 PHE D   9      23.565  10.799  43.224  1.00 75.26 LIG 0.01  A 
ATOM     25  CE2 PHE D   9      22.834   9.704  42.765  1.00 78.46 LIG 0.00  A 
ATOM     26  CZ  PHE D   9      21.999   9.020  43.624  1.00 76.95 LIG 0.00  A 
ATOM     27  CE1 PHE D   9      21.898   9.408  44.942  1.00 77.74 LIG 0.00  A 
ATOM     28  CD1 PHE D   9      22.656  10.483  45.409  1.00 76.53 LIG 0.01  A 
ENDBRANCH 22 23
ENDBRANCH 21 22
BRANCH 21 29
ATOM     29  C   PHE D   9      25.050  14.511  43.948  1.00 72.50 LIG 0.24  C 
ATOM     30 O    PHE D   9      24.843  15.352  43.070  1.00 71.57 LIG-0.27  OA
ATOM     31  N   SER D  10      26.287  14.194  44.376  1.00 70.70 LIG-0.34  N 
ATOM     32 H    SER D  10      26.441  13.625  45.002  1.00 70.70 LIG 0.16  HD
BRANCH 31 33
ATOM     33  CA  SER D  10      27.497  14.796  43.804  1.00110.54 LIG 0.19  C 
BRANCH 33 34
ATOM     34  C   SER D  10      27.682  14.387  42.342  1.00112.68 LIG 0.22  C 
ATOM     35 O    SER D  10      27.712  15.248  41.462  1.00 61.17 LIG-0.29  OA
ENDBRANCH 33 34
BRANCH 33 36
ATOM     36  CB  SER D  10      28.729  14.429  44.628  1.00114.99 LIG 0.20  C 
BRANCH 36 37
ATOM     37 OG   SER D  10      29.028  13.044  44.546  1.00125.63 LIG-0.40  OA
ATOM     38 HG   SER D  10      28.595  12.629  45.134  1.00125.63 LIG 0.21  HD
ENDBRANCH 36 37
ENDBRANCH 33 36
ENDBRANCH 31 33
ENDBRANCH 21 29
ENDBRANCH 18 21
ENDBRANCH 12 17
ENDBRANCH 9 12
ENDBRANCH 4 8
BRANCH 1 39
ATOM     39  CA  LEU D   6      14.945  11.834  42.070  1.00 70.47 LIG 0.18  C 
BRANCH 39 40
ATOM     40  N   LEU D   6      13.596  12.152  42.511  1.00 72.03 LIG-0.35  N 
ATOM     41  C   PHE D   5      13.156  11.749  43.702  1.00 78.51 LIG 0.24  C 
ATOM     42 O    PHE D   5      13.858  11.127  44.508  1.00 77.96 LIG-0.27  OA
ATOM     43 H    LEU D   6      13.130  12.608  41.949  1.00 72.03 LIG 0.16  HD
BRANCH 41 44
ATOM     44  CA  PHE D   5      11.691  11.987  43.986  1.00 78.26 LIG 0.18  C 
BRANCH 44 45
ATOM     45  N   PHE D   5      11.356  11.440  45.304  1.00 79.00 LIG-0.34  N 
ATOM     46 H    PHE D   5      11.396  12.009  45.948  1.00 79.00 LIG 0.16  HD
ATOM     47  C   GLU D   4      11.020  10.157  45.458  1.00 84.09 LIG 0.26  C 
ATOM     48 O    GLU D   4      10.879   9.382  44.513  1.00 84.89 LIG-0.27  OA
BRANCH 47 49
ATOM     49  CA  GLU D   4      10.797   9.652  46.872  1.00 80.59 LIG 0.40  C 
ATOM     50  N   GLU D   4      12.071   9.294  47.487  1.00 81.26 LIG 0.61  N 
BRANCH 49 51
ATOM     51  CB  GLU D   4      10.088  10.743  47.705  1.00 81.69 LIG 0.06  C 
BRANCH 51 52
ATOM     52  CG  GLU D   4       8.596  10.861  47.438  1.00 88.66 LIG 0.12  C 
BRANCH 52 53
ATOM     53  CD  GLU D   4       7.989   9.777  46.566  1.00 99.07 LIG 0.17  C 
ATOM     54 OE1  GLU D   4       8.035   8.587  46.956  1.00 74.80 LIG-0.65  OA
ATOM     55 OE2  GLU D   4       7.399  10.132  45.520  1.00 93.08 LIG-0.65  OA
ENDBRANCH 52 53
ENDBRANCH 51 52
ENDBRANCH 49 51
ENDBRANCH 47 49
ENDBRANCH 44 45
BRANCH 44 56
ATOM     56  CB  PHE D   5      11.239  13.437  43.794  1.00 80.27 LIG 0.07  C 
BRANCH 56 57
ATOM     57  CG  PHE D   5      10.330  13.912  44.904  1.00 81.89 LIG-0.06  A 
ATOM     58  CD2 PHE D   5       8.952  13.708  44.837  1.00 84.17 LIG 0.01  A 
ATOM     59  CE2 PHE D   5       8.110  14.156  45.859  1.00 86.81 LIG 0.00  A 
ATOM     60  CZ  PHE D   5       8.641  14.795  46.959  1.00 84.76 LIG 0.00  A 
ATOM     61  CE1 PHE D   5      10.001  15.015  47.037  1.00 85.59 LIG 0.00  A 
ATOM     62  CD1 PHE D   5      10.844  14.579  46.009  1.00 84.61 LIG 0.01  A 
ENDBRANCH 56 57
ENDBRANCH 44 56
ENDBRANCH 41 44
ENDBRANCH 39 40
BRANCH 39 63
ATOM     63  CB  LEU D   6      15.164  12.289  40.631  1.00 70.57 LIG 0.04  C 
BRANCH 63 64
ATOM     64  CG  LEU D   6      14.137  11.777  39.644  1.00 75.48 LIG-0.02  C 
ATOM     65  CD2 LEU D   6      14.590  10.534  39.012  1.00 78.97 LIG 0.01  C 
ATOM     66  CD1 LEU D   6      13.840  12.793  38.621  1.00 75.94 LIG 0.01  C 
ENDBRANCH 63 64
ENDBRANCH 39 63
ENDBRANCH 1 39
TORSDOF 25
ENDMDL
MODEL 13
USER: ADFR SOLUTION from run 50
USER: SCORE 20.759687 LL:  -6.270 LR: -16.574 RR:   0.000 FEB:  -9.117
USER: RMSD 1.759902
USER: SEED 49
USER: STATUS no improvement in best in 3 clusters for 5 generations
USER: GENES 27
USER: genes 0 Translation |==|  0.42619 0.51304 0.48711
USER: genes 1 Rotation |==|  0.52312 0.50896 0.50209 0.99938
USER: genes 2 Torsion [N]-CA--C-[N] |==|  0.35670
USER: genes 3 Torsion [C]-N--CA-[C] |==|  0.72003
USER: genes 4 Torsion [N]-CA--CB-[CG] |==|  0.62814
USER: genes 5 Torsion [CA]-CB--CG-[CD1] |==|  0.31756
USER: genes 6 Torsion [N]-CA--C-[N] |==|  0.32394
USER: genes 7 Torsion [C]-N--CA-[CB] |==|  0.30900
USER: genes 8 Torsion [N]-CA--CB-[CG] |==|  0.02721
USER: genes 9 Torsion [CA]-CB--CG-[CD1] |==|  0.69987
USER: genes 10 Torsion [N]-CA--C-[N] |==|  0.57738
USER: genes 11 Torsion [C]-N--CA-[C] |==|  0.80906
USER: genes 12 Torsion [N]-CA--C-[O] |==|  0.32350
USER: genes 13 Torsion [N]-CA--CB-[OG] |==|  0.22592
USER: genes 14 Torsion [CA]-CB--OG-[HG] |==|  0.90593
USER: genes 15 Torsion [N]-C--CA-[N] |==|  0.36303
USER: genes 16 Torsion [C]-CA--N-[C] |==|  0.71113
USER: genes 17 Torsion [N]-C--CA-[N] |==|  0.34385
USER: genes 18 Torsion [C]-CA--N-[C] |==|  0.80343
USER: genes 19 Torsion [N]-C--CA-[N] |==|  0.26070
USER: genes 20 Torsion [C]-CA--CB-[CG] |==|  0.39960
USER: genes 21 Torsion [CA]-CB--CG-[CD] |==|  0.30334
USER: genes 22 Torsion [CB]-CG--CD-[OE1] |==|  0.19091
USER: genes 23 Torsion [C]-CA--CB-[CG] |==|  0.26303
USER: genes 24 Torsion [CA]-CB--CG-[CD2] |==|  0.19872
USER: genes 25 Torsion [C]-CA--CB-[CG] |==|  0.57086
USER: genes 26 Torsion [CA]-CB--CG-[CD2] |==|  0.72233
ROOT
ATOM      1  C   LEU D   6      15.803  12.154  42.420  1.00 70.97 LIG 0.24  C 
ATOM      2 O    LEU D   6      15.590  13.312  42.744  1.00 69.80 LIG-0.27  OA
ATOM      3  N   PRO D   7      16.845  11.460  42.907  1.00 67.36 LIG-0.34  N 
ATOM      4  CA  PRO D   7      17.754  12.103  43.853  1.00 66.95 LIG 0.18  C 
ATOM      5  CB  PRO D   7      18.181  10.945  44.769  1.00 69.23 LIG 0.04  C 
ATOM      6  CG  PRO D   7      17.898   9.665  43.974  1.00 73.99 LIG 0.02  C 
ATOM      7  CD  PRO D   7      17.239  10.055  42.676  1.00 69.55 LIG 0.13  C 
ENDROOT
BRANCH 4 8
ATOM      8  C   PRO D   7      18.946  12.750  43.155  1.00 67.39 LIG 0.24  C 
ATOM      9  N   LEU D   8      19.179  14.021  43.467  1.00 63.51 LIG-0.35  N 
ATOM     10 H    LEU D   8      18.674  14.482  43.989  1.00 63.51 LIG 0.16  HD
ATOM     11 O    PRO D   7      19.641  12.119  42.356  1.00 65.73 LIG-0.27  OA
BRANCH 9 12
ATOM     12  CA  LEU D   8      20.317  14.752  42.948  1.00 63.43 LIG 0.18  C 
BRANCH 12 13
ATOM     13  CB  LEU D   8      19.913  16.138  42.457  1.00 63.06 LIG 0.04  C 
BRANCH 13 14
ATOM     14  CG  LEU D   8      20.502  16.463  41.106  1.00 67.32 LIG-0.02  C 
ATOM     15  CD1 LEU D   8      19.436  16.593  40.079  1.00 66.57 LIG 0.01  C 
ATOM     16  CD2 LEU D   8      21.387  17.678  41.171  1.00 70.19 LIG 0.01  C 
ENDBRANCH 13 14
ENDBRANCH 12 13
BRANCH 12 17
ATOM     17  C   LEU D   8      21.409  14.821  43.993  1.00 69.22 LIG 0.24  C 
ATOM     18  N   PHE D   9      22.569  14.218  43.703  1.00 66.75 LIG-0.35  N 
ATOM     19 H    PHE D   9      22.715  13.800  42.966  1.00 66.75 LIG 0.16  HD
ATOM     20 O    LEU D   8      21.184  15.370  45.072  1.00 69.38 LIG-0.27  OA
BRANCH 18 21
ATOM     21  CA  PHE D   9      23.703  14.214  44.617  1.00 67.50 LIG 0.18  C 
BRANCH 21 22
ATOM     22  CB  PHE D   9      23.957  12.806  45.171  1.00 70.09 LIG 0.07  C 
BRANCH 22 23
ATOM     23  CG  PHE D   9      23.195  11.658  44.546  1.00 72.62 LIG-0.06  A 
ATOM     24  CD2 PHE D   9      23.571  11.148  43.309  1.00 75.26 LIG 0.01  A 
ATOM     25  CE2 PHE D   9      22.895  10.065  42.747  1.00 78.46 LIG 0.00  A 
ATOM     26  CZ  PHE D   9      21.841   9.483  43.421  1.00 76.95 LIG 0.00  A 
ATOM     27  CE1 PHE D   9      21.465   9.961  44.657  1.00 77.74 LIG 0.00  A 
ATOM     28  CD1 PHE D   9      22.163  11.023  45.233  1.00 76.53 LIG 0.01  A 
ENDBRANCH 22 23
ENDBRANCH 21 22
BRANCH 21 29
ATOM     29  C   PHE D   9      24.969  14.762  43.954  1.00 72.50 LIG 0.24  C 
ATOM     30 O    PHE D   9      24.882  15.592  43.046  1.00 71.57 LIG-0.27  OA
ATOM     31  N   SER D  10      26.150  14.310  44.417  1.00 70.70 LIG-0.34  N 
ATOM     32 H    SER D  10      26.223  13.748  45.064  1.00 70.70 LIG 0.16  HD
BRANCH 31 33
ATOM     33  CA  SER D  10      27.434  14.741  43.854  1.00110.54 LIG 0.19  C 
BRANCH 33 34
ATOM     34  C   SER D  10      27.627  14.201  42.436  1.00112.68 LIG 0.22  C 
ATOM     35 O    SER D  10      27.710  14.981  41.487  1.00 61.17 LIG-0.29  OA
ENDBRANCH 33 34
BRANCH 33 36
ATOM     36  CB  SER D  10      28.593  14.320  44.754  1.00114.99 LIG 0.20  C 
BRANCH 36 37
ATOM     37 OG   SER D  10      28.960  12.966  44.546  1.00125.63 LIG-0.40  OA
ATOM     38 HG   SER D  10      28.276  12.515  44.359  1.00125.63 LIG 0.21  HD
ENDBRANCH 36 37
ENDBRANCH 33 36
ENDBRANCH 31 33
ENDBRANCH 21 29
ENDBRANCH 18 21
ENDBRANCH 12 17
ENDBRANCH 9 12
ENDBRANCH 4 8
BRANCH 1 39
ATOM     39  CA  LEU D   6      14.910  11.483  41.413  1.00 70.47 LIG 0.18  C 
BRANCH 39 40
ATOM     40  N   LEU D   6      13.481  11.555  41.667  1.00 72.03 LIG-0.35  N 
ATOM     41  C   PHE D   5      12.818  10.499  42.136  1.00 78.51 LIG 0.24  C 
ATOM     42 O    PHE D   5      13.365   9.426  42.417  1.00 77.96 LIG-0.27  OA
ATOM     43 H    LEU D   6      13.120  12.316  41.492  1.00 72.03 LIG 0.16  HD
BRANCH 41 44
ATOM     44  CA  PHE D   5      11.314  10.632  42.202  1.00 78.26 LIG 0.18  C 
BRANCH 44 45
ATOM     45  N   PHE D   5      10.696   9.541  41.443  1.00 79.00 LIG-0.34  N 
ATOM     46 H    PHE D   5      10.301   8.948  41.925  1.00 79.00 LIG 0.16  HD
ATOM     47  C   GLU D   4      10.759   9.501  40.110  1.00 84.09 LIG 0.26  C 
ATOM     48 O    GLU D   4      11.247  10.405  39.434  1.00 84.89 LIG-0.27  OA
BRANCH 47 49
ATOM     49  CA  GLU D   4      10.187   8.279  39.414  1.00 80.59 LIG 0.40  C 
ATOM     50  N   GLU D   4       8.801   8.522  39.025  1.00 81.26 LIG 0.61  N 
BRANCH 49 51
ATOM     51  CB  GLU D   4      11.041   7.944  38.171  1.00 81.69 LIG 0.06  C 
BRANCH 51 52
ATOM     52  CG  GLU D   4      11.194   6.456  37.902  1.00 88.66 LIG 0.12  C 
BRANCH 52 53
ATOM     53  CD  GLU D   4      10.454   5.919  36.690  1.00 99.07 LIG 0.17  C 
ATOM     54 OE1  GLU D   4      10.837   6.259  35.546  1.00 74.80 LIG-0.65  OA
ATOM     55 OE2  GLU D   4       9.531   5.096  36.886  1.00 93.08 LIG-0.65  OA
ENDBRANCH 52 53
ENDBRANCH 51 52
ENDBRANCH 49 51
ENDBRANCH 47 49
ENDBRANCH 44 45
BRANCH 44 56
ATOM     56  CB  PHE D   5      10.756  10.782  43.620  1.00 80.27 LIG 0.07  C 
BRANCH 56 57
ATOM     57  CG  PHE D   5      10.556  12.228  44.013  1.00 81.89 LIG-0.06  A 
ATOM     58  CD2 PHE D   5       9.534  12.988  43.448  1.00 84.17 LIG 0.01  A 
ATOM     59  CE2 PHE D   5       9.356  14.329  43.803  1.00 86.81 LIG 0.00  A 
ATOM     60  CZ  PHE D   5      10.188  14.910  44.736  1.00 84.76 LIG 0.00  A 
ATOM     61  CE1 PHE D   5      11.212  14.176  45.298  1.00 85.59 LIG 0.00  A 
ATOM     62  CD1 PHE D   5      11.399  12.838  44.933  1.00 84.61 LIG 0.01  A 
ENDBRANCH 56 57
ENDBRANCH 44 56
ENDBRANCH 41 44
ENDBRANCH 39 40
BRANCH 39 63
ATOM     63  CB  LEU D   6      15.232  11.956  40.000  1.00 70.57 LIG 0.04  C 
BRANCH 63 64
ATOM     64  CG  LEU D   6      14.081  11.850  39.023  1.00 75.48 LIG-0.02  C 
ATOM     65  CD2 LEU D   6      14.212  10.654  38.184  1.00 78.97 LIG 0.01  C 
ATOM     66  CD1 LEU D   6      13.993  13.056  38.183  1.00 75.94 LIG 0.01  C 
ENDBRANCH 63 64
ENDBRANCH 39 63
ENDBRANCH 1 39
TORSDOF 25
ENDMDL
