MODEL 1
USER: ADFR SOLUTION from run 20
USER: SCORE 14.169033 LL:  -3.780 LR: -10.584 RR:   0.000 FEB:  -7.004
USER: RMSD 2.916723
USER: SEED 19
USER: STATUS no improvement in best in 4 clusters for 5 generations
USER: GENES 14
USER: genes 0 Translation |==|  0.52479 0.51215 0.42694
USER: genes 1 Rotation |==|  0.40559 0.56699 0.60929 0.97398
USER: genes 2 Torsion [N]-CA--C-[O] |==|  0.22077
USER: genes 3 Torsion [C]-N--CA-[CB] |==|  0.84465
USER: genes 4 Torsion [N]-CA--CB-[CG] |==|  0.86891
USER: genes 5 Torsion [CA]-CB--CG-[CD2] |==|  0.23965
USER: genes 6 Torsion [N]-CA--C-[OXT] |==|  0.42470
USER: genes 7 Torsion [N]-C--CA-[N] |==|  0.27222
USER: genes 8 Torsion [C]-CA--CB-[CG2] |==|  0.77526
USER: genes 9 Torsion [CA]-CB--CG1-[CD1] |==|  0.43824
USER: genes 10 Torsion [C]-CA--N-[C] |==|  0.75401
USER: genes 11 Torsion [N]-C--CA-[N] |==|  0.92517
USER: genes 12 Torsion [C]-CA--CB-[CG] |==|  0.83273
USER: genes 13 Torsion [CA]-CB--CG-[OD1] |==|  0.89463
ROOT
ATOM      1  C   ILE C 175     -71.624  -9.409  22.086  1.00 65.51 LIG 0.24  C 
ATOM      2 O    ILE C 175     -72.782  -9.552  22.491  1.00 66.37 LIG-0.27  OA
ATOM      3  N   PRO C 176     -71.308  -8.625  21.031  1.00 64.39 LIG-0.34  N 
ATOM      4  CA  PRO C 176     -72.296  -7.790  20.339  1.00 64.23 LIG 0.18  C 
ATOM      5  CB  PRO C 176     -71.441  -6.658  19.734  1.00 63.87 LIG 0.04  C 
ATOM      6  CG  PRO C 176     -69.993  -7.008  20.035  1.00 63.56 LIG 0.02  C 
ATOM      7  CD  PRO C 176     -69.962  -8.435  20.467  1.00 63.45 LIG 0.13  C 
ENDROOT
BRANCH 4 8
ATOM      8  C   PRO C 176     -73.096  -8.510  19.242  1.00 63.07 LIG 0.24  C 
ATOM      9  N   PHE C 177     -72.708  -8.316  17.983  1.00 62.32 LIG-0.34  N 
ATOM     10 H    PHE C 177     -72.083  -7.770  17.755  1.00 62.32 LIG 0.16  HD
ATOM     11 O    PRO C 176     -74.047  -9.237  19.548  1.00 62.88 LIG-0.27  OA
BRANCH 9 12
ATOM     12  CA  PHE C 177     -73.323  -9.026  16.856  1.00 61.42 LIG 0.19  C 
BRANCH 12 13
ATOM     13  CB  PHE C 177     -73.251 -10.555  17.037  1.00 59.64 LIG 0.07  C 
BRANCH 13 14
ATOM     14  CG  PHE C 177     -71.895 -11.066  17.450  1.00 58.09 LIG-0.06  A 
ATOM     15  CD1 PHE C 177     -70.970 -11.485  16.495  1.00 57.17 LIG 0.01  A 
ATOM     16  CE1 PHE C 177     -69.711 -11.954  16.875  1.00 55.93 LIG 0.00  A 
ATOM     17  CZ  PHE C 177     -69.366 -12.000  18.223  1.00 55.64 LIG 0.00  A 
ATOM     18  CE2 PHE C 177     -70.280 -11.576  19.187  1.00 56.04 LIG 0.00  A 
ATOM     19  CD2 PHE C 177     -71.536 -11.110  18.795  1.00 56.91 LIG 0.01  A 
ENDBRANCH 13 14
ENDBRANCH 12 13
BRANCH 12 20
ATOM     20  C   PHE C 177     -74.759  -8.570  16.603  1.00 62.04 LIG 0.20  C 
ATOM     21 O    PHE C 177     -75.455  -8.110  17.509  1.00 62.52 LIG-0.65  OA
ATOM     22 OXT  PHE C 177     -75.260  -8.647  15.480  1.00 62.11 LIG-0.65  OA
ENDBRANCH 12 20
ENDBRANCH 9 12
ENDBRANCH 4 8
BRANCH 1 23
ATOM     23  CA  ILE C 175     -70.471 -10.137  22.786  1.00 65.77 LIG 0.18  C 
BRANCH 23 24
ATOM     24  CB  ILE C 175     -70.871 -11.594  23.140  1.00 65.27 LIG 0.01  C 
ATOM     25  CG2 ILE C 175     -71.698 -11.631  24.422  1.00 63.89 LIG 0.01  C 
BRANCH 24 26
ATOM     26  CG1 ILE C 175     -71.643 -12.233  21.977  1.00 65.41 LIG 0.00  C 
ATOM     27  CD1 ILE C 175     -71.624 -13.752  21.966  1.00 65.60 LIG 0.01  C 
ENDBRANCH 24 26
ENDBRANCH 23 24
BRANCH 23 28
ATOM     28  N   ILE C 175     -70.052  -9.396  23.978  1.00 67.68 LIG-0.34  N 
ATOM     29 H    ILE C 175     -70.456  -9.637  24.698  1.00 67.68 LIG 0.16  HD
ATOM     30  C   ASP C 174     -69.128  -8.437  23.942  1.00 68.58 LIG 0.26  C 
ATOM     31 O    ASP C 174     -68.575  -8.061  22.902  1.00 68.06 LIG-0.27  OA
BRANCH 30 32
ATOM     32  CA  ASP C 174     -68.770  -7.810  25.285  1.00 70.51 LIG 0.41  C 
ATOM     33  N   ASP C 174     -69.917  -7.906  26.238  1.00 70.88 LIG 0.61  N 
BRANCH 32 34
ATOM     34  CB  ASP C 174     -67.520  -8.481  25.870  1.00 71.81 LIG 0.16  C 
BRANCH 34 35
ATOM     35  CG  ASP C 174     -67.707  -9.972  26.106  1.00 74.09 LIG 0.17  C 
ATOM     36 OD1  ASP C 174     -68.813 -10.385  26.522  1.00 74.88 LIG-0.65  OA
ATOM     37 OD2  ASP C 174     -66.746 -10.735  25.870  1.00 75.75 LIG-0.65  OA
ENDBRANCH 34 35
ENDBRANCH 32 34
ENDBRANCH 30 32
ENDBRANCH 23 28
ENDBRANCH 1 23
TORSDOF 12
ENDMDL
MODEL 2
USER: ADFR SOLUTION from run 47
USER: SCORE 14.171129 LL:  -3.893 LR: -10.395 RR:   0.000 FEB:  -6.816
USER: RMSD 2.294495
USER: SEED 46
USER: STATUS no improvement in best in 2 clusters for 5 generations
USER: GENES 14
USER: genes 0 Translation |==|  0.52652 0.50667 0.44630
USER: genes 1 Rotation |==|  0.50227 0.54501 0.46177 0.99649
USER: genes 2 Torsion [N]-CA--C-[O] |==|  0.50397
USER: genes 3 Torsion [C]-N--CA-[CB] |==|  0.32390
USER: genes 4 Torsion [N]-CA--CB-[CG] |==|  0.04223
USER: genes 5 Torsion [CA]-CB--CG-[CD2] |==|  0.79227
USER: genes 6 Torsion [N]-CA--C-[OXT] |==|  0.44033
USER: genes 7 Torsion [N]-C--CA-[N] |==|  0.39432
USER: genes 8 Torsion [C]-CA--CB-[CG2] |==|  0.21218
USER: genes 9 Torsion [CA]-CB--CG1-[CD1] |==|  0.77043
USER: genes 10 Torsion [C]-CA--N-[C] |==|  0.72730
USER: genes 11 Torsion [N]-C--CA-[N] |==|  0.77777
USER: genes 12 Torsion [C]-CA--CB-[CG] |==|  0.22083
USER: genes 13 Torsion [CA]-CB--CG-[OD1] |==|  0.23710
ROOT
ATOM      1  C   ILE C 175     -71.598  -9.500  22.492  1.00 65.51 LIG 0.24  C 
ATOM      2 O    ILE C 175     -72.695  -9.027  22.808  1.00 66.37 LIG-0.27  OA
ATOM      3  N   PRO C 176     -70.683  -8.813  21.772  1.00 64.39 LIG-0.34  N 
ATOM      4  CA  PRO C 176     -70.865  -7.407  21.392  1.00 64.23 LIG 0.18  C 
ATOM      5  CB  PRO C 176     -69.421  -6.897  21.221  1.00 63.87 LIG 0.04  C 
ATOM      6  CG  PRO C 176     -68.515  -8.103  21.406  1.00 63.56 LIG 0.02  C 
ATOM      7  CD  PRO C 176     -69.375  -9.319  21.328  1.00 63.45 LIG 0.13  C 
ENDROOT
BRANCH 4 8
ATOM      8  C   PRO C 176     -71.674  -7.188  20.103  1.00 63.07 LIG 0.24  C 
ATOM      9  N   PHE C 177     -72.151  -8.273  19.495  1.00 62.32 LIG-0.34  N 
ATOM     10 H    PHE C 177     -71.980  -9.076  19.750  1.00 62.32 LIG 0.16  HD
ATOM     11 O    PRO C 176     -71.862  -6.042  19.680  1.00 62.88 LIG-0.27  OA
BRANCH 9 12
ATOM     12  CA  PHE C 177     -73.022  -8.190  18.318  1.00 61.42 LIG 0.19  C 
BRANCH 12 13
ATOM     13  CB  PHE C 177     -72.365  -8.822  17.074  1.00 59.64 LIG 0.07  C 
BRANCH 13 14
ATOM     14  CG  PHE C 177     -71.173  -9.691  17.380  1.00 58.09 LIG-0.06  A 
ATOM     15  CD1 PHE C 177     -71.264 -11.080  17.300  1.00 57.17 LIG 0.01  A 
ATOM     16  CE1 PHE C 177     -70.159 -11.887  17.579  1.00 55.93 LIG 0.00  A 
ATOM     17  CZ  PHE C 177     -68.946 -11.303  17.934  1.00 55.64 LIG 0.00  A 
ATOM     18  CE2 PHE C 177     -68.842  -9.915  18.011  1.00 56.04 LIG 0.00  A 
ATOM     19  CD2 PHE C 177     -69.952  -9.118  17.731  1.00 56.91 LIG 0.01  A 
ENDBRANCH 13 14
ENDBRANCH 12 13
BRANCH 12 20
ATOM     20  C   PHE C 177     -74.401  -8.797  18.579  1.00 62.04 LIG 0.20  C 
ATOM     21 O    PHE C 177     -74.582  -9.609  19.486  1.00 62.52 LIG-0.65  OA
ATOM     22 OXT  PHE C 177     -75.371  -8.485  17.887  1.00 62.11 LIG-0.65  OA
ENDBRANCH 12 20
ENDBRANCH 9 12
ENDBRANCH 4 8
BRANCH 1 23
ATOM     23  CA  ILE C 175     -71.225 -10.924  22.920  1.00 65.77 LIG 0.18  C 
BRANCH 23 24
ATOM     24  CB  ILE C 175     -71.760 -11.965  21.902  1.00 65.27 LIG 0.01  C 
ATOM     25  CG2 ILE C 175     -70.894 -11.985  20.645  1.00 63.89 LIG 0.01  C 
BRANCH 24 26
ATOM     26  CG1 ILE C 175     -71.817 -13.358  22.544  1.00 65.41 LIG 0.00  C 
ATOM     27  CD1 ILE C 175     -70.497 -14.110  22.539  1.00 65.60 LIG 0.01  C 
ENDBRANCH 24 26
ENDBRANCH 23 24
BRANCH 23 28
ATOM     28  N   ILE C 175     -71.723 -11.196  24.270  1.00 67.68 LIG-0.34  N 
ATOM     29 H    ILE C 175     -72.552 -11.423  24.297  1.00 67.68 LIG 0.16  HD
ATOM     30  C   ASP C 174     -70.956 -11.098  25.355  1.00 68.58 LIG 0.26  C 
ATOM     31 O    ASP C 174     -69.776 -10.733  25.324  1.00 68.06 LIG-0.27  OA
BRANCH 30 32
ATOM     32  CA  ASP C 174     -71.622 -11.475  26.674  1.00 70.51 LIG 0.41  C 
ATOM     33  N   ASP C 174     -72.463 -10.350  27.184  1.00 70.88 LIG 0.61  N 
BRANCH 32 34
ATOM     34  CB  ASP C 174     -72.462 -12.748  26.503  1.00 71.81 LIG 0.16  C 
BRANCH 34 35
ATOM     35  CG  ASP C 174     -71.621 -14.015  26.525  1.00 74.09 LIG 0.17  C 
ATOM     36 OD1  ASP C 174     -71.337 -14.535  27.627  1.00 74.88 LIG-0.65  OA
ATOM     37 OD2  ASP C 174     -71.246 -14.497  25.434  1.00 75.75 LIG-0.65  OA
ENDBRANCH 34 35
ENDBRANCH 32 34
ENDBRANCH 30 32
ENDBRANCH 23 28
ENDBRANCH 1 23
TORSDOF 12
ENDMDL
MODEL 3
USER: ADFR SOLUTION from run 178
USER: SCORE 14.139441 LL:  -4.130 LR: -10.296 RR:   0.000 FEB:  -6.716
USER: RMSD 2.124860
USER: SEED 177
USER: STATUS no improvement in best in 2 clusters for 5 generations
USER: GENES 14
USER: genes 0 Translation |==|  0.56506 0.55680 0.44210
USER: genes 1 Rotation |==|  0.46616 0.51965 0.50971 0.99837
USER: genes 2 Torsion [N]-CA--C-[O] |==|  0.61413
USER: genes 3 Torsion [C]-N--CA-[CB] |==|  0.21193
USER: genes 4 Torsion [N]-CA--CB-[CG] |==|  0.10587
USER: genes 5 Torsion [CA]-CB--CG-[CD2] |==|  0.75201
USER: genes 6 Torsion [N]-CA--C-[OXT] |==|  0.41187
USER: genes 7 Torsion [N]-C--CA-[N] |==|  0.29664
USER: genes 8 Torsion [C]-CA--CB-[CG2] |==|  0.18952
USER: genes 9 Torsion [CA]-CB--CG1-[CD1] |==|  0.59518
USER: genes 10 Torsion [C]-CA--N-[C] |==|  0.79408
USER: genes 11 Torsion [N]-C--CA-[N] |==|  0.04126
USER: genes 12 Torsion [C]-CA--CB-[CG] |==|  0.78963
USER: genes 13 Torsion [CA]-CB--CG-[OD1] |==|  0.23358
ROOT
ATOM      1  C   ILE C 175     -71.020  -8.673  22.404  1.00 65.51 LIG 0.24  C 
ATOM      2 O    ILE C 175     -72.215  -8.403  22.564  1.00 66.37 LIG-0.27  OA
ATOM      3  N   PRO C 176     -70.187  -7.905  21.666  1.00 64.39 LIG-0.34  N 
ATOM      4  CA  PRO C 176     -70.600  -6.626  21.077  1.00 64.23 LIG 0.18  C 
ATOM      5  CB  PRO C 176     -69.275  -5.851  20.947  1.00 63.87 LIG 0.04  C 
ATOM      6  CG  PRO C 176     -68.174  -6.811  21.371  1.00 63.56 LIG 0.02  C 
ATOM      7  CD  PRO C 176     -68.766  -8.179  21.400  1.00 63.45 LIG 0.13  C 
ENDROOT
BRANCH 4 8
ATOM      8  C   PRO C 176     -71.298  -6.740  19.711  1.00 63.07 LIG 0.24  C 
ATOM      9  N   PHE C 177     -72.179  -7.728  19.562  1.00 62.32 LIG-0.34  N 
ATOM     10 H    PHE C 177     -72.329  -8.328  20.161  1.00 62.32 LIG 0.16  HD
ATOM     11 O    PRO C 176     -71.036  -5.931  18.815  1.00 62.88 LIG-0.27  OA
BRANCH 9 12
ATOM     12  CA  PHE C 177     -72.985  -7.880  18.346  1.00 61.42 LIG 0.19  C 
BRANCH 12 13
ATOM     13  CB  PHE C 177     -72.159  -8.465  17.183  1.00 59.64 LIG 0.07  C 
BRANCH 13 14
ATOM     14  CG  PHE C 177     -71.174  -9.527  17.598  1.00 58.09 LIG-0.06  A 
ATOM     15  CD1 PHE C 177     -71.533 -10.874  17.594  1.00 57.17 LIG 0.01  A 
ATOM     16  CE1 PHE C 177     -70.620 -11.859  17.974  1.00 55.93 LIG 0.00  A 
ATOM     17  CZ  PHE C 177     -69.331 -11.500  18.356  1.00 55.64 LIG 0.00  A 
ATOM     18  CE2 PHE C 177     -68.958 -10.156  18.358  1.00 56.04 LIG 0.00  A 
ATOM     19  CD2 PHE C 177     -69.879  -9.180  17.977  1.00 56.91 LIG 0.01  A 
ENDBRANCH 13 14
ENDBRANCH 12 13
BRANCH 12 20
ATOM     20  C   PHE C 177     -74.248  -8.704  18.592  1.00 62.04 LIG 0.20  C 
ATOM     21 O    PHE C 177     -74.272  -9.606  19.431  1.00 62.52 LIG-0.65  OA
ATOM     22 OXT  PHE C 177     -75.281  -8.485  17.957  1.00 62.11 LIG-0.65  OA
ENDBRANCH 12 20
ENDBRANCH 9 12
ENDBRANCH 4 8
BRANCH 1 23
ATOM     23  CA  ILE C 175     -70.422  -9.924  23.057  1.00 65.77 LIG 0.18  C 
BRANCH 23 24
ATOM     24  CB  ILE C 175     -71.284 -11.176  22.746  1.00 65.27 LIG 0.01  C 
ATOM     25  CG2 ILE C 175     -71.197 -11.537  21.266  1.00 63.89 LIG 0.01  C 
BRANCH 24 26
ATOM     26  CG1 ILE C 175     -70.843 -12.358  23.620  1.00 65.41 LIG 0.00  C 
ATOM     27  CD1 ILE C 175     -70.951 -13.715  22.946  1.00 65.60 LIG 0.01  C 
ENDBRANCH 24 26
ENDBRANCH 23 24
BRANCH 23 28
ATOM     28  N   ILE C 175     -70.277  -9.723  24.501  1.00 67.68 LIG-0.34  N 
ATOM     29 H    ILE C 175     -70.857 -10.150  24.972  1.00 67.68 LIG 0.16  HD
ATOM     30  C   ASP C 174     -69.331  -8.949  25.030  1.00 68.58 LIG 0.26  C 
ATOM     31 O    ASP C 174     -68.523  -8.303  24.354  1.00 68.06 LIG-0.27  OA
BRANCH 30 32
ATOM     32  CA  ASP C 174     -69.289  -8.900  26.553  1.00 70.51 LIG 0.41  C 
ATOM     33  N   ASP C 174     -70.095 -10.011  27.143  1.00 70.88 LIG 0.61  N 
BRANCH 32 34
ATOM     34  CB  ASP C 174     -67.837  -8.960  27.048  1.00 71.81 LIG 0.16  C 
BRANCH 34 35
ATOM     35  CG  ASP C 174     -67.241 -10.356  26.956  1.00 74.09 LIG 0.17  C 
ATOM     36 OD1  ASP C 174     -66.748 -10.735  25.870  1.00 74.88 LIG-0.65  OA
ATOM     37 OD2  ASP C 174     -67.261 -11.078  27.977  1.00 75.75 LIG-0.65  OA
ENDBRANCH 34 35
ENDBRANCH 32 34
ENDBRANCH 30 32
ENDBRANCH 23 28
ENDBRANCH 1 23
TORSDOF 12
ENDMDL
MODEL 4
USER: ADFR SOLUTION from run 4
USER: SCORE 13.251393 LL:  -3.049 LR: -10.261 RR:   0.000 FEB:  -6.682
USER: RMSD 4.025485
USER: SEED 61615
USER: STATUS no improvement in best in 5 clusters for 5 generations
USER: GENES 14
USER: genes 0 Translation |==|  0.59292 0.53279 0.38551
USER: genes 1 Rotation |==|  0.33487 0.65740 0.39042 0.93122
USER: genes 2 Torsion [N]-CA--C-[O] |==|  0.85340
USER: genes 3 Torsion [C]-N--CA-[CB] |==|  0.84900
USER: genes 4 Torsion [N]-CA--CB-[CG] |==|  0.76935
USER: genes 5 Torsion [CA]-CB--CG-[CD2] |==|  0.25471
USER: genes 6 Torsion [N]-CA--C-[OXT] |==|  0.42303
USER: genes 7 Torsion [N]-C--CA-[N] |==|  0.39936
USER: genes 8 Torsion [C]-CA--CB-[CG2] |==|  0.90468
USER: genes 9 Torsion [CA]-CB--CG1-[CD1] |==|  0.36920
USER: genes 10 Torsion [C]-CA--N-[C] |==|  0.84758
USER: genes 11 Torsion [N]-C--CA-[N] |==|  0.90909
USER: genes 12 Torsion [C]-CA--CB-[CG] |==|  0.82618
USER: genes 13 Torsion [CA]-CB--CG-[OD1] |==|  0.41270
ROOT
ATOM      1  C   ILE C 175     -70.602  -9.069  21.216  1.00 65.51 LIG 0.24  C 
ATOM      2 O    ILE C 175     -71.323  -8.120  21.541  1.00 66.37 LIG-0.27  OA
ATOM      3  N   PRO C 176     -70.203  -9.284  19.942  1.00 64.39 LIG-0.34  N 
ATOM      4  CA  PRO C 176     -70.499  -8.350  18.849  1.00 64.23 LIG 0.18  C 
ATOM      5  CB  PRO C 176     -69.364  -8.614  17.841  1.00 63.87 LIG 0.04  C 
ATOM      6  CG  PRO C 176     -68.562  -9.781  18.394  1.00 63.56 LIG 0.02  C 
ATOM      7  CD  PRO C 176     -69.378 -10.408  19.472  1.00 63.45 LIG 0.13  C 
ENDROOT
BRANCH 4 8
ATOM      8  C   PRO C 176     -71.872  -8.549  18.186  1.00 63.07 LIG 0.24  C 
ATOM      9  N   PHE C 177     -72.658  -7.478  18.090  1.00 62.32 LIG-0.34  N 
ATOM     10 H    PHE C 177     -72.463  -6.711  18.428  1.00 62.32 LIG 0.16  HD
ATOM     11 O    PRO C 176     -72.198  -9.663  17.764  1.00 62.88 LIG-0.27  OA
BRANCH 9 12
ATOM     12  CA  PHE C 177     -73.945  -7.514  17.387  1.00 61.42 LIG 0.19  C 
BRANCH 12 13
ATOM     13  CB  PHE C 177     -73.794  -8.031  15.943  1.00 59.64 LIG 0.07  C 
BRANCH 13 14
ATOM     14  CG  PHE C 177     -73.367  -6.980  14.952  1.00 58.09 LIG-0.06  A 
ATOM     15  CD1 PHE C 177     -74.311  -6.181  14.307  1.00 57.17 LIG 0.01  A 
ATOM     16  CE1 PHE C 177     -73.917  -5.204  13.392  1.00 55.93 LIG 0.00  A 
ATOM     17  CZ  PHE C 177     -72.565  -5.013  13.120  1.00 55.64 LIG 0.00  A 
ATOM     18  CE2 PHE C 177     -71.611  -5.800  13.764  1.00 56.04 LIG 0.00  A 
ATOM     19  CD2 PHE C 177     -72.016  -6.775  14.676  1.00 56.91 LIG 0.01  A 
ENDBRANCH 13 14
ENDBRANCH 12 13
BRANCH 12 20
ATOM     20  C   PHE C 177     -74.996  -8.319  18.151  1.00 62.04 LIG 0.20  C 
ATOM     21 O    PHE C 177     -74.675  -9.235  18.910  1.00 62.52 LIG-0.65  OA
ATOM     22 OXT  PHE C 177     -76.196  -8.069  18.031  1.00 62.11 LIG-0.65  OA
ENDBRANCH 12 20
ENDBRANCH 9 12
ENDBRANCH 4 8
BRANCH 1 23
ATOM     23  CA  ILE C 175     -70.121 -10.065  22.276  1.00 65.77 LIG 0.18  C 
BRANCH 23 24
ATOM     24  CB  ILE C 175     -71.154 -11.207  22.471  1.00 65.27 LIG 0.01  C 
ATOM     25  CG2 ILE C 175     -72.576 -10.684  22.294  1.00 63.89 LIG 0.01  C 
BRANCH 24 26
ATOM     26  CG1 ILE C 175     -70.871 -12.355  21.492  1.00 65.41 LIG 0.00  C 
ATOM     27  CD1 ILE C 175     -70.879 -13.737  22.122  1.00 65.60 LIG 0.01  C 
ENDBRANCH 24 26
ENDBRANCH 23 24
BRANCH 23 28
ATOM     28  N   ILE C 175     -69.849  -9.373  23.538  1.00 67.68 LIG-0.34  N 
ATOM     29 H    ILE C 175     -70.272  -9.698  24.212  1.00 67.68 LIG 0.16  HD
ATOM     30  C   ASP C 174     -69.020  -8.334  23.625  1.00 68.58 LIG 0.26  C 
ATOM     31 O    ASP C 174     -68.442  -7.839  22.652  1.00 68.06 LIG-0.27  OA
BRANCH 30 32
ATOM     32  CA  ASP C 174     -68.808  -7.771  25.027  1.00 70.51 LIG 0.41  C 
ATOM     33  N   ASP C 174     -70.048  -7.911  25.849  1.00 70.88 LIG 0.61  N 
BRANCH 32 34
ATOM     34  CB  ASP C 174     -67.623  -8.469  25.708  1.00 71.81 LIG 0.16  C 
BRANCH 34 35
ATOM     35  CG  ASP C 174     -67.851  -9.960  25.904  1.00 74.09 LIG 0.17  C 
ATOM     36 OD1  ASP C 174     -66.868 -10.733  25.870  1.00 74.88 LIG-0.65  OA
ATOM     37 OD2  ASP C 174     -69.019 -10.360  26.098  1.00 75.75 LIG-0.65  OA
ENDBRANCH 34 35
ENDBRANCH 32 34
ENDBRANCH 30 32
ENDBRANCH 23 28
ENDBRANCH 1 23
TORSDOF 12
ENDMDL
MODEL 5
USER: ADFR SOLUTION from run 4
USER: SCORE 13.416926 LL:  -3.331 LR: -10.087 RR:   0.000 FEB:  -6.507
USER: RMSD 3.787518
USER: SEED 61615
USER: STATUS no improvement in best in 5 clusters for 5 generations
USER: GENES 14
USER: genes 0 Translation |==|  0.56870 0.50944 0.48871
USER: genes 1 Rotation |==|  0.31009 0.63161 0.11913 0.72706
USER: genes 2 Torsion [N]-CA--C-[O] |==|  0.70546
USER: genes 3 Torsion [C]-N--CA-[CB] |==|  0.78256
USER: genes 4 Torsion [N]-CA--CB-[CG] |==|  0.02844
USER: genes 5 Torsion [CA]-CB--CG-[CD2] |==|  0.76705
USER: genes 6 Torsion [N]-CA--C-[OXT] |==|  0.57634
USER: genes 7 Torsion [N]-C--CA-[N] |==|  0.38461
USER: genes 8 Torsion [C]-CA--CB-[CG2] |==|  0.77782
USER: genes 9 Torsion [CA]-CB--CG1-[CD1] |==|  0.70001
USER: genes 10 Torsion [C]-CA--N-[C] |==|  0.81962
USER: genes 11 Torsion [N]-C--CA-[N] |==|  0.22224
USER: genes 12 Torsion [C]-CA--CB-[CG] |==|  0.80924
USER: genes 13 Torsion [CA]-CB--CG-[OD1] |==|  0.34065
ROOT
ATOM      1  C   ILE C 175     -70.966  -9.454  23.383  1.00 65.51 LIG 0.24  C 
ATOM      2 O    ILE C 175     -70.377  -8.529  22.815  1.00 66.37 LIG-0.27  OA
ATOM      3  N   PRO C 176     -71.294 -10.608  22.759  1.00 64.39 LIG-0.34  N 
ATOM      4  CA  PRO C 176     -70.886 -10.909  21.382  1.00 64.23 LIG 0.18  C 
ATOM      5  CB  PRO C 176     -70.871 -12.449  21.346  1.00 63.87 LIG 0.04  C 
ATOM      6  CG  PRO C 176     -71.395 -12.915  22.695  1.00 63.56 LIG 0.02  C 
ATOM      7  CD  PRO C 176     -72.025 -11.737  23.356  1.00 63.45 LIG 0.13  C 
ENDROOT
BRANCH 4 8
ATOM      8  C   PRO C 176     -71.820 -10.350  20.296  1.00 63.07 LIG 0.24  C 
ATOM      9  N   PHE C 177     -71.763  -9.040  20.064  1.00 62.32 LIG-0.34  N 
ATOM     10 H    PHE C 177     -71.283  -8.494  20.525  1.00 62.32 LIG 0.16  HD
ATOM     11 O    PRO C 176     -72.572 -11.110  19.677  1.00 62.88 LIG-0.27  OA
BRANCH 9 12
ATOM     12  CA  PHE C 177     -72.526  -8.402  18.986  1.00 61.42 LIG 0.19  C 
BRANCH 12 13
ATOM     13  CB  PHE C 177     -71.860  -8.614  17.612  1.00 59.64 LIG 0.07  C 
BRANCH 13 14
ATOM     14  CG  PHE C 177     -70.731  -9.611  17.620  1.00 58.09 LIG-0.06  A 
ATOM     15  CD1 PHE C 177     -70.946 -10.935  17.242  1.00 57.17 LIG 0.01  A 
ATOM     16  CE1 PHE C 177     -69.900 -11.860  17.245  1.00 55.93 LIG 0.00  A 
ATOM     17  CZ  PHE C 177     -68.621 -11.459  17.622  1.00 55.64 LIG 0.00  A 
ATOM     18  CE2 PHE C 177     -68.392 -10.135  17.995  1.00 56.04 LIG 0.00  A 
ATOM     19  CD2 PHE C 177     -69.445  -9.220  17.990  1.00 56.91 LIG 0.01  A 
ENDBRANCH 13 14
ENDBRANCH 12 13
BRANCH 12 20
ATOM     20  C   PHE C 177     -73.985  -8.859  18.965  1.00 62.04 LIG 0.20  C 
ATOM     21 O    PHE C 177     -74.553  -9.235  19.991  1.00 62.52 LIG-0.65  OA
ATOM     22 OXT  PHE C 177     -74.633  -8.860  17.918  1.00 62.11 LIG-0.65  OA
ENDBRANCH 12 20
ENDBRANCH 9 12
ENDBRANCH 4 8
BRANCH 1 23
ATOM     23  CA  ILE C 175     -71.355  -9.323  24.859  1.00 65.77 LIG 0.18  C 
BRANCH 23 24
ATOM     24  CB  ILE C 175     -72.680  -8.530  25.013  1.00 65.27 LIG 0.01  C 
ATOM     25  CG2 ILE C 175     -72.426  -7.029  24.906  1.00 63.89 LIG 0.01  C 
BRANCH 24 26
ATOM     26  CG1 ILE C 175     -73.699  -8.985  23.960  1.00 65.41 LIG 0.00  C 
ATOM     27  CD1 ILE C 175     -73.951  -7.978  22.850  1.00 65.60 LIG 0.01  C 
ENDBRANCH 24 26
ENDBRANCH 23 24
BRANCH 23 28
ATOM     28  N   ILE C 175     -70.270  -8.698  25.618  1.00 67.68 LIG-0.34  N 
ATOM     29 H    ILE C 175     -70.472  -7.930  25.946  1.00 67.68 LIG 0.16  HD
ATOM     30  C   ASP C 174     -69.080  -9.275  25.781  1.00 68.58 LIG 0.26  C 
ATOM     31 O    ASP C 174     -68.773 -10.360  25.277  1.00 68.06 LIG-0.27  OA
BRANCH 30 32
ATOM     32  CA  ASP C 174     -68.086  -8.510  26.649  1.00 70.51 LIG 0.41  C 
ATOM     33  N   ASP C 174     -68.373  -8.723  28.100  1.00 70.88 LIG 0.61  N 
BRANCH 32 34
ATOM     34  CB  ASP C 174     -66.649  -8.932  26.311  1.00 71.81 LIG 0.16  C 
BRANCH 34 35
ATOM     35  CG  ASP C 174     -66.341 -10.360  26.734  1.00 74.09 LIG 0.17  C 
ATOM     36 OD1  ASP C 174     -65.952 -11.177  25.870  1.00 74.88 LIG-0.65  OA
ATOM     37 OD2  ASP C 174     -66.483 -10.666  27.938  1.00 75.75 LIG-0.65  OA
ENDBRANCH 34 35
ENDBRANCH 32 34
ENDBRANCH 30 32
ENDBRANCH 23 28
ENDBRANCH 1 23
TORSDOF 12
ENDMDL
MODEL 6
USER: ADFR SOLUTION from run 20
USER: SCORE 13.661283 LL:  -3.647 LR: -10.054 RR:   0.000 FEB:  -6.474
USER: RMSD 3.492824
USER: SEED 19
USER: STATUS no improvement in best in 4 clusters for 5 generations
USER: GENES 14
USER: genes 0 Translation |==|  0.53475 0.38738 0.39113
USER: genes 1 Rotation |==|  0.62065 0.23752 0.83580 0.73192
USER: genes 2 Torsion [N]-CA--C-[O] |==|  0.88545
USER: genes 3 Torsion [C]-N--CA-[CB] |==|  0.20102
USER: genes 4 Torsion [N]-CA--CB-[CG] |==|  0.06030
USER: genes 5 Torsion [CA]-CB--CG-[CD2] |==|  0.63349
USER: genes 6 Torsion [N]-CA--C-[OXT] |==|  0.02047
USER: genes 7 Torsion [N]-C--CA-[N] |==|  0.89690
USER: genes 8 Torsion [C]-CA--CB-[CG2] |==|  0.75046
USER: genes 9 Torsion [CA]-CB--CG1-[CD1] |==|  0.68512
USER: genes 10 Torsion [C]-CA--N-[C] |==|  0.82116
USER: genes 11 Torsion [N]-C--CA-[N] |==|  0.89019
USER: genes 12 Torsion [C]-CA--CB-[CG] |==|  0.84018
USER: genes 13 Torsion [CA]-CB--CG-[OD1] |==|  0.91259
ROOT
ATOM      1  C   ILE C 175     -71.475 -11.468  21.334  1.00 65.51 LIG 0.24  C 
ATOM      2 O    ILE C 175     -71.212 -12.012  20.256  1.00 66.37 LIG-0.27  OA
ATOM      3  N   PRO C 176     -72.518 -10.624  21.494  1.00 64.39 LIG-0.34  N 
ATOM      4  CA  PRO C 176     -73.496 -10.360  20.432  1.00 64.23 LIG 0.18  C 
ATOM      5  CB  PRO C 176     -74.760  -9.944  21.209  1.00 63.87 LIG 0.04  C 
ATOM      6  CG  PRO C 176     -74.363  -9.889  22.675  1.00 63.56 LIG 0.02  C 
ATOM      7  CD  PRO C 176     -72.873  -9.911  22.731  1.00 63.45 LIG 0.13  C 
ENDROOT
BRANCH 4 8
ATOM      8  C   PRO C 176     -73.086  -9.263  19.435  1.00 63.07 LIG 0.24  C 
ATOM      9  N   PHE C 177     -73.352  -9.483  18.149  1.00 62.32 LIG-0.34  N 
ATOM     10 H    PHE C 177     -73.680 -10.220  17.849  1.00 62.32 LIG 0.16  HD
ATOM     11 O    PRO C 176     -72.543  -8.231  19.843  1.00 62.88 LIG-0.27  OA
BRANCH 9 12
ATOM     12  CA  PHE C 177     -73.105  -8.473  17.115  1.00 61.42 LIG 0.19  C 
BRANCH 12 13
ATOM     13  CB  PHE C 177     -71.599  -8.295  16.838  1.00 59.64 LIG 0.07  C 
BRANCH 13 14
ATOM     14  CG  PHE C 177     -70.753  -9.472  17.246  1.00 58.09 LIG-0.06  A 
ATOM     15  CD1 PHE C 177     -71.104 -10.768  16.870  1.00 57.17 LIG 0.01  A 
ATOM     16  CE1 PHE C 177     -70.319 -11.860  17.244  1.00 55.93 LIG 0.00  A 
ATOM     17  CZ  PHE C 177     -69.164 -11.659  17.995  1.00 55.64 LIG 0.00  A 
ATOM     18  CE2 PHE C 177     -68.798 -10.367  18.370  1.00 56.04 LIG 0.00  A 
ATOM     19  CD2 PHE C 177     -69.592  -9.283  17.992  1.00 56.91 LIG 0.01  A 
ENDBRANCH 13 14
ENDBRANCH 12 13
BRANCH 12 20
ATOM     20  C   PHE C 177     -73.870  -8.770  15.826  1.00 62.04 LIG 0.20  C 
ATOM     21 O    PHE C 177     -73.683  -8.110  14.802  1.00 62.52 LIG-0.65  OA
ATOM     22 OXT  PHE C 177     -74.696  -9.683  15.775  1.00 62.11 LIG-0.65  OA
ENDBRANCH 12 20
ENDBRANCH 9 12
ENDBRANCH 4 8
BRANCH 1 23
ATOM     23  CA  ILE C 175     -70.602 -11.741  22.564  1.00 65.77 LIG 0.18  C 
BRANCH 23 24
ATOM     24  CB  ILE C 175     -71.185 -12.905  23.408  1.00 65.27 LIG 0.01  C 
ATOM     25  CG2 ILE C 175     -72.162 -12.376  24.454  1.00 63.89 LIG 0.01  C 
BRANCH 24 26
ATOM     26  CG1 ILE C 175     -71.869 -13.934  22.498  1.00 65.41 LIG 0.00  C 
ATOM     27  CD1 ILE C 175     -73.375 -14.030  22.673  1.00 65.60 LIG 0.01  C 
ENDBRANCH 24 26
ENDBRANCH 23 24
BRANCH 23 28
ATOM     28  N   ILE C 175     -70.456 -10.523  23.364  1.00 67.68 LIG-0.34  N 
ATOM     29 H    ILE C 175     -70.806 -10.578  24.148  1.00 67.68 LIG 0.16  HD
ATOM     30  C   ASP C 174     -69.838  -9.434  22.912  1.00 68.58 LIG 0.26  C 
ATOM     31 O    ASP C 174     -69.371  -9.338  21.772  1.00 68.06 LIG-0.27  OA
BRANCH 30 32
ATOM     32  CA  ASP C 174     -69.726  -8.277  23.900  1.00 70.51 LIG 0.41  C 
ATOM     33  N   ASP C 174     -70.982  -8.137  24.698  1.00 70.88 LIG 0.61  N 
BRANCH 32 34
ATOM     34  CB  ASP C 174     -68.516  -8.479  24.822  1.00 71.81 LIG 0.16  C 
BRANCH 34 35
ATOM     35  CG  ASP C 174     -68.572  -9.790  25.589  1.00 74.09 LIG 0.17  C 
ATOM     36 OD1  ASP C 174     -69.688 -10.257  25.909  1.00 74.88 LIG-0.65  OA
ATOM     37 OD2  ASP C 174     -67.496 -10.360  25.870  1.00 75.75 LIG-0.65  OA
ENDBRANCH 34 35
ENDBRANCH 32 34
ENDBRANCH 30 32
ENDBRANCH 23 28
ENDBRANCH 1 23
TORSDOF 12
ENDMDL
MODEL 7
USER: ADFR SOLUTION from run 118
USER: SCORE 13.278834 LL:  -3.772 LR:  -9.541 RR:   0.000 FEB:  -5.961
USER: RMSD 3.565040
USER: SEED 117
USER: STATUS no improvement in best in 4 clusters for 5 generations
USER: GENES 14
USER: genes 0 Translation |==|  0.59905 0.65281 0.34667
USER: genes 1 Rotation |==|  0.48046 0.64837 0.61321 0.96345
USER: genes 2 Torsion [N]-CA--C-[O] |==|  0.58004
USER: genes 3 Torsion [C]-N--CA-[CB] |==|  0.27648
USER: genes 4 Torsion [N]-CA--CB-[CG] |==|  0.20397
USER: genes 5 Torsion [CA]-CB--CG-[CD2] |==|  0.32181
USER: genes 6 Torsion [N]-CA--C-[OXT] |==|  0.39446
USER: genes 7 Torsion [N]-C--CA-[N] |==|  0.38594
USER: genes 8 Torsion [C]-CA--CB-[CG2] |==|  0.36821
USER: genes 9 Torsion [CA]-CB--CG1-[CD1] |==|  0.43327
USER: genes 10 Torsion [C]-CA--N-[C] |==|  0.85000
USER: genes 11 Torsion [N]-C--CA-[N] |==|  0.55433
USER: genes 12 Torsion [C]-CA--CB-[CG] |==|  0.48677
USER: genes 13 Torsion [CA]-CB--CG-[OD1] |==|  0.26362
ROOT
ATOM      1  C   ILE C 175     -70.510  -7.089  20.400  1.00 65.51 LIG 0.24  C 
ATOM      2 O    ILE C 175     -71.448  -7.274  21.182  1.00 66.37 LIG-0.27  OA
ATOM      3  N   PRO C 176     -70.513  -6.107  19.471  1.00 64.39 LIG-0.34  N 
ATOM      4  CA  PRO C 176     -71.582  -5.106  19.377  1.00 64.23 LIG 0.18  C 
ATOM      5  CB  PRO C 176     -70.883  -3.902  18.716  1.00 63.87 LIG 0.04  C 
ATOM      6  CG  PRO C 176     -69.475  -4.361  18.370  1.00 63.56 LIG 0.02  C 
ATOM      7  CD  PRO C 176     -69.454  -5.847  18.483  1.00 63.45 LIG 0.13  C 
ENDROOT
BRANCH 4 8
ATOM      8  C   PRO C 176     -72.805  -5.542  18.554  1.00 63.07 LIG 0.24  C 
ATOM      9  N   PHE C 177     -73.081  -6.845  18.525  1.00 62.32 LIG-0.34  N 
ATOM     10 H    PHE C 177     -72.583  -7.446  18.887  1.00 62.32 LIG 0.16  HD
ATOM     11 O    PRO C 176     -73.486  -4.697  17.964  1.00 62.88 LIG-0.27  OA
BRANCH 9 12
ATOM     12  CA  PHE C 177     -74.277  -7.376  17.862  1.00 61.42 LIG 0.19  C 
BRANCH 12 13
ATOM     13  CB  PHE C 177     -73.955  -7.929  16.459  1.00 59.64 LIG 0.07  C 
BRANCH 13 14
ATOM     14  CG  PHE C 177     -73.212  -9.240  16.468  1.00 58.09 LIG-0.06  A 
ATOM     15  CD1 PHE C 177     -71.933  -9.332  17.016  1.00 57.17 LIG 0.01  A 
ATOM     16  CE1 PHE C 177     -71.244 -10.546  17.028  1.00 55.93 LIG 0.00  A 
ATOM     17  CZ  PHE C 177     -71.839 -11.686  16.495  1.00 55.64 LIG 0.00  A 
ATOM     18  CE2 PHE C 177     -73.121 -11.608  15.951  1.00 56.04 LIG 0.00  A 
ATOM     19  CD2 PHE C 177     -73.799 -10.389  15.943  1.00 56.91 LIG 0.01  A 
ENDBRANCH 13 14
ENDBRANCH 12 13
BRANCH 12 20
ATOM     20  C   PHE C 177     -74.990  -8.425  18.716  1.00 62.04 LIG 0.20  C 
ATOM     21 O    PHE C 177     -74.359  -9.235  19.395  1.00 62.52 LIG-0.65  OA
ATOM     22 OXT  PHE C 177     -76.220  -8.485  18.748  1.00 62.11 LIG-0.65  OA
ENDBRANCH 12 20
ENDBRANCH 9 12
ENDBRANCH 4 8
BRANCH 1 23
ATOM     23  CA  ILE C 175     -69.273  -7.992  20.459  1.00 65.77 LIG 0.18  C 
BRANCH 23 24
ATOM     24  CB  ILE C 175     -69.512  -9.309  19.673  1.00 65.27 LIG 0.01  C 
ATOM     25  CG2 ILE C 175     -68.333  -9.610  18.753  1.00 63.89 LIG 0.01  C 
BRANCH 24 26
ATOM     26  CG1 ILE C 175     -69.755 -10.472  20.644  1.00 65.41 LIG 0.00  C 
ATOM     27  CD1 ILE C 175     -70.541 -11.632  20.055  1.00 65.60 LIG 0.01  C 
ENDBRANCH 24 26
ENDBRANCH 23 24
BRANCH 23 28
ATOM     28  N   ILE C 175     -68.906  -8.262  21.850  1.00 67.68 LIG-0.34  N 
ATOM     29 H    ILE C 175     -68.839  -9.099  22.037  1.00 67.68 LIG 0.16  HD
ATOM     30  C   ASP C 174     -68.697  -7.294  22.741  1.00 68.58 LIG 0.26  C 
ATOM     31 O    ASP C 174     -68.833  -6.092  22.487  1.00 68.06 LIG-0.27  OA
BRANCH 30 32
ATOM     32  CA  ASP C 174     -68.265  -7.752  24.130  1.00 70.51 LIG 0.41  C 
ATOM     33  N   ASP C 174     -68.513  -6.683  25.144  1.00 70.88 LIG 0.61  N 
BRANCH 32 34
ATOM     34  CB  ASP C 174     -68.996  -9.046  24.514  1.00 71.81 LIG 0.16  C 
BRANCH 34 35
ATOM     35  CG  ASP C 174     -68.522  -9.618  25.842  1.00 74.09 LIG 0.17  C 
ATOM     36 OD1  ASP C 174     -69.154  -9.332  26.884  1.00 74.88 LIG-0.65  OA
ATOM     37 OD2  ASP C 174     -67.517 -10.360  25.843  1.00 75.75 LIG-0.65  OA
ENDBRANCH 34 35
ENDBRANCH 32 34
ENDBRANCH 30 32
ENDBRANCH 23 28
ENDBRANCH 1 23
TORSDOF 12
ENDMDL
MODEL 8
USER: ADFR SOLUTION from run 183
USER: SCORE 12.938921 LL:  -3.630 LR:  -9.464 RR:   0.000 FEB:  -5.884
USER: RMSD 3.337018
USER: SEED 182
USER: STATUS no improvement in best in 2 clusters for 5 generations
USER: GENES 14
USER: genes 0 Translation |==|  0.41252 0.50264 0.38646
USER: genes 1 Rotation |==|  0.49908 0.34584 0.71226 0.92565
USER: genes 2 Torsion [N]-CA--C-[O] |==|  0.64877
USER: genes 3 Torsion [C]-N--CA-[CB] |==|  0.45828
USER: genes 4 Torsion [N]-CA--CB-[CG] |==|  0.83438
USER: genes 5 Torsion [CA]-CB--CG-[CD2] |==|  0.93302
USER: genes 6 Torsion [N]-CA--C-[OXT] |==|  0.43906
USER: genes 7 Torsion [N]-C--CA-[N] |==|  0.36656
USER: genes 8 Torsion [C]-CA--CB-[CG2] |==|  0.25685
USER: genes 9 Torsion [CA]-CB--CG1-[CD1] |==|  0.30219
USER: genes 10 Torsion [C]-CA--N-[C] |==|  0.65775
USER: genes 11 Torsion [N]-C--CA-[N] |==|  0.82639
USER: genes 12 Torsion [C]-CA--CB-[CG] |==|  0.18238
USER: genes 13 Torsion [CA]-CB--CG-[OD1] |==|  0.56662
ROOT
ATOM      1  C   ILE C 175     -73.308  -9.566  21.236  1.00 65.51 LIG 0.24  C 
ATOM      2 O    ILE C 175     -74.115 -10.267  20.616  1.00 66.37 LIG-0.27  OA
ATOM      3  N   PRO C 176     -73.195  -8.233  21.043  1.00 64.39 LIG-0.34  N 
ATOM      4  CA  PRO C 176     -74.092  -7.480  20.158  1.00 64.23 LIG 0.18  C 
ATOM      5  CB  PRO C 176     -74.047  -6.054  20.739  1.00 63.87 LIG 0.04  C 
ATOM      6  CG  PRO C 176     -73.018  -6.079  21.858  1.00 63.56 LIG 0.02  C 
ATOM      7  CD  PRO C 176     -72.236  -7.340  21.713  1.00 63.45 LIG 0.13  C 
ENDROOT
BRANCH 4 8
ATOM      8  C   PRO C 176     -73.682  -7.476  18.676  1.00 63.07 LIG 0.24  C 
ATOM      9  N   PHE C 177     -73.485  -8.660  18.099  1.00 62.32 LIG-0.34  N 
ATOM     10 H    PHE C 177     -73.517  -9.408  18.522  1.00 62.32 LIG 0.16  HD
ATOM     11 O    PRO C 176     -73.556  -6.404  18.074  1.00 62.88 LIG-0.27  OA
BRANCH 9 12
ATOM     12  CA  PHE C 177     -73.193  -8.793  16.667  1.00 61.42 LIG 0.19  C 
BRANCH 12 13
ATOM     13  CB  PHE C 177     -72.648 -10.193  16.323  1.00 59.64 LIG 0.07  C 
BRANCH 13 14
ATOM     14  CG  PHE C 177     -71.375 -10.554  17.043  1.00 58.09 LIG-0.06  A 
ATOM     15  CD1 PHE C 177     -71.017 -11.888  17.231  1.00 57.17 LIG 0.01  A 
ATOM     16  CE1 PHE C 177     -69.835 -12.226  17.895  1.00 55.93 LIG 0.00  A 
ATOM     17  CZ  PHE C 177     -68.996 -11.222  18.370  1.00 55.64 LIG 0.00  A 
ATOM     18  CE2 PHE C 177     -69.340  -9.884  18.181  1.00 56.04 LIG 0.00  A 
ATOM     19  CD2 PHE C 177     -70.524  -9.559  17.518  1.00 56.91 LIG 0.01  A 
ENDBRANCH 13 14
ENDBRANCH 12 13
BRANCH 12 20
ATOM     20  C   PHE C 177     -74.401  -8.444  15.799  1.00 62.04 LIG 0.20  C 
ATOM     21 O    PHE C 177     -75.547  -8.485  16.248  1.00 62.52 LIG-0.65  OA
ATOM     22 OXT  PHE C 177     -74.260  -8.110  14.622  1.00 62.11 LIG-0.65  OA
ENDBRANCH 12 20
ENDBRANCH 9 12
ENDBRANCH 4 8
BRANCH 1 23
ATOM     23  CA  ILE C 175     -72.381 -10.203  22.277  1.00 65.77 LIG 0.18  C 
BRANCH 23 24
ATOM     24  CB  ILE C 175     -71.227 -10.979  21.589  1.00 65.27 LIG 0.01  C 
ATOM     25  CG2 ILE C 175     -70.004 -10.084  21.414  1.00 63.89 LIG 0.01  C 
BRANCH 24 26
ATOM     26  CG1 ILE C 175     -70.871 -12.234  22.398  1.00 65.41 LIG 0.00  C 
ATOM     27  CD1 ILE C 175     -71.284 -13.543  21.747  1.00 65.60 LIG 0.01  C 
ENDBRANCH 24 26
ENDBRANCH 23 24
BRANCH 23 28
ATOM     28  N   ILE C 175     -73.145 -11.072  23.175  1.00 67.68 LIG-0.34  N 
ATOM     29 H    ILE C 175     -73.584 -11.691  22.770  1.00 67.68 LIG 0.16  HD
ATOM     30  C   ASP C 174     -73.156 -10.911  24.497  1.00 68.58 LIG 0.26  C 
ATOM     31 O    ASP C 174     -72.560  -9.998  25.077  1.00 68.06 LIG-0.27  OA
BRANCH 30 32
ATOM     32  CA  ASP C 174     -73.959 -11.941  25.284  1.00 70.51 LIG 0.41  C 
ATOM     33  N   ASP C 174     -75.405 -11.884  24.914  1.00 70.88 LIG 0.61  N 
BRANCH 32 34
ATOM     34  CB  ASP C 174     -73.393 -13.349  25.050  1.00 71.81 LIG 0.16  C 
BRANCH 34 35
ATOM     35  CG  ASP C 174     -71.988 -13.519  25.606  1.00 74.09 LIG 0.17  C 
ATOM     36 OD1  ASP C 174     -71.246 -14.401  25.120  1.00 74.88 LIG-0.65  OA
ATOM     37 OD2  ASP C 174     -71.621 -12.763  26.532  1.00 75.75 LIG-0.65  OA
ENDBRANCH 34 35
ENDBRANCH 32 34
ENDBRANCH 30 32
ENDBRANCH 23 28
ENDBRANCH 1 23
TORSDOF 12
ENDMDL
MODEL 9
USER: ADFR SOLUTION from run 4
USER: SCORE 13.188528 LL:  -3.922 LR:  -9.353 RR:   0.000 FEB:  -5.773
USER: RMSD 4.135244
USER: SEED 61615
USER: STATUS no improvement in best in 5 clusters for 5 generations
USER: GENES 14
USER: genes 0 Translation |==|  0.57195 0.50200 0.37696
USER: genes 1 Rotation |==|  0.29890 0.68175 0.34632 0.89103
USER: genes 2 Torsion [N]-CA--C-[O] |==|  0.93973
USER: genes 3 Torsion [C]-N--CA-[CB] |==|  0.25474
USER: genes 4 Torsion [N]-CA--CB-[CG] |==|  0.92095
USER: genes 5 Torsion [CA]-CB--CG-[CD2] |==|  0.25682
USER: genes 6 Torsion [N]-CA--C-[OXT] |==|  0.53235
USER: genes 7 Torsion [N]-C--CA-[N] |==|  0.44152
USER: genes 8 Torsion [C]-CA--CB-[CG2] |==|  0.96785
USER: genes 9 Torsion [CA]-CB--CG1-[CD1] |==|  0.48227
USER: genes 10 Torsion [C]-CA--N-[C] |==|  0.82778
USER: genes 11 Torsion [N]-C--CA-[N] |==|  0.92902
USER: genes 12 Torsion [C]-CA--CB-[CG] |==|  0.84692
USER: genes 13 Torsion [CA]-CB--CG-[OD1] |==|  0.40015
ROOT
ATOM      1  C   ILE C 175     -70.917  -9.577  21.036  1.00 65.51 LIG 0.24  C 
ATOM      2 O    ILE C 175     -71.429  -8.466  21.209  1.00 66.37 LIG-0.27  OA
ATOM      3  N   PRO C 176     -70.719 -10.111  19.810  1.00 64.39 LIG-0.34  N 
ATOM      4  CA  PRO C 176     -70.996  -9.377  18.570  1.00 64.23 LIG 0.18  C 
ATOM      5  CB  PRO C 176     -70.054 -10.040  17.547  1.00 63.87 LIG 0.04  C 
ATOM      6  CG  PRO C 176     -69.387 -11.200  18.269  1.00 63.56 LIG 0.02  C 
ATOM      7  CD  PRO C 176     -70.152 -11.439  19.526  1.00 63.45 LIG 0.13  C 
ENDROOT
BRANCH 4 8
ATOM      8  C   PRO C 176     -72.455  -9.448  18.090  1.00 63.07 LIG 0.24  C 
ATOM      9  N   PHE C 177     -72.867  -8.490  17.261  1.00 62.32 LIG-0.34  N 
ATOM     10 H    PHE C 177     -72.384  -7.815  17.035  1.00 62.32 LIG 0.16  HD
ATOM     11 O    PRO C 176     -73.185 -10.370  18.468  1.00 62.88 LIG-0.27  OA
BRANCH 9 12
ATOM     12  CA  PHE C 177     -74.201  -8.504  16.652  1.00 61.42 LIG 0.19  C 
BRANCH 12 13
ATOM     13  CB  PHE C 177     -75.227  -7.732  17.506  1.00 59.64 LIG 0.07  C 
BRANCH 13 14
ATOM     14  CG  PHE C 177     -74.919  -7.720  18.981  1.00 58.09 LIG-0.06  A 
ATOM     15  CD1 PHE C 177     -75.352  -8.755  19.809  1.00 57.17 LIG 0.01  A 
ATOM     16  CE1 PHE C 177     -75.064  -8.748  21.175  1.00 55.93 LIG 0.00  A 
ATOM     17  CZ  PHE C 177     -74.328  -7.701  21.723  1.00 55.64 LIG 0.00  A 
ATOM     18  CE2 PHE C 177     -73.883  -6.664  20.903  1.00 56.04 LIG 0.00  A 
ATOM     19  CD2 PHE C 177     -74.178  -6.681  19.540  1.00 56.91 LIG 0.01  A 
ENDBRANCH 13 14
ENDBRANCH 12 13
BRANCH 12 20
ATOM     20  C   PHE C 177     -74.183  -7.985  15.215  1.00 62.04 LIG 0.20  C 
ATOM     21 O    PHE C 177     -73.124  -7.815  14.608  1.00 62.52 LIG-0.65  OA
ATOM     22 OXT  PHE C 177     -75.231  -7.725  14.622  1.00 62.11 LIG-0.65  OA
ENDBRANCH 12 20
ENDBRANCH 9 12
ENDBRANCH 4 8
BRANCH 1 23
ATOM     23  CA  ILE C 175     -70.473 -10.413  22.242  1.00 65.77 LIG 0.18  C 
BRANCH 23 24
ATOM     24  CB  ILE C 175     -71.494 -11.544  22.536  1.00 65.27 LIG 0.01  C 
ATOM     25  CG2 ILE C 175     -72.776 -11.336  21.736  1.00 63.89 LIG 0.01  C 
BRANCH 24 26
ATOM     26  CG1 ILE C 175     -70.876 -12.914  22.223  1.00 65.41 LIG 0.00  C 
ATOM     27  CD1 ILE C 175     -71.738 -14.100  22.620  1.00 65.60 LIG 0.01  C 
ENDBRANCH 24 26
ENDBRANCH 23 24
BRANCH 23 28
ATOM     28  N   ILE C 175     -70.280  -9.554  23.412  1.00 67.68 LIG-0.34  N 
ATOM     29 H    ILE C 175     -70.802  -9.738  24.070  1.00 67.68 LIG 0.16  HD
ATOM     30  C   ASP C 174     -69.375  -8.577  23.448  1.00 68.58 LIG 0.26  C 
ATOM     31 O    ASP C 174     -68.652  -8.282  22.490  1.00 68.06 LIG-0.27  OA
BRANCH 30 32
ATOM     32  CA  ASP C 174     -69.269  -7.819  24.767  1.00 70.51 LIG 0.41  C 
ATOM     33  N   ASP C 174     -70.555  -7.887  25.524  1.00 70.88 LIG 0.61  N 
BRANCH 32 34
ATOM     34  CB  ASP C 174     -68.112  -8.375  25.608  1.00 71.81 LIG 0.16  C 
BRANCH 34 35
ATOM     35  CG  ASP C 174     -68.223  -9.873  25.844  1.00 74.09 LIG 0.17  C 
ATOM     36 OD1  ASP C 174     -67.178 -10.561  25.872  1.00 74.88 LIG-0.65  OA
ATOM     37 OD2  ASP C 174     -69.360 -10.365  26.008  1.00 75.75 LIG-0.65  OA
ENDBRANCH 34 35
ENDBRANCH 32 34
ENDBRANCH 30 32
ENDBRANCH 23 28
ENDBRANCH 1 23
TORSDOF 12
ENDMDL
MODEL 10
USER: ADFR SOLUTION from run 159
USER: SCORE 12.686268 LL:  -3.566 LR:  -9.129 RR:   0.000 FEB:  -5.549
USER: RMSD 3.797450
USER: SEED 158
USER: STATUS no improvement in best in 2 clusters for 5 generations
USER: GENES 14
USER: genes 0 Translation |==|  0.51932 0.49098 0.37565
USER: genes 1 Rotation |==|  0.66086 0.49975 0.63965 0.95235
USER: genes 2 Torsion [N]-CA--C-[O] |==|  0.56142
USER: genes 3 Torsion [C]-N--CA-[CB] |==|  0.39452
USER: genes 4 Torsion [N]-CA--CB-[CG] |==|  0.17706
USER: genes 5 Torsion [CA]-CB--CG-[CD2] |==|  0.72352
USER: genes 6 Torsion [N]-CA--C-[OXT] |==|  0.52294
USER: genes 7 Torsion [N]-C--CA-[N] |==|  0.41412
USER: genes 8 Torsion [C]-CA--CB-[CG2] |==|  0.27880
USER: genes 9 Torsion [CA]-CB--CG1-[CD1] |==|  0.57139
USER: genes 10 Torsion [C]-CA--N-[C] |==|  0.81563
USER: genes 11 Torsion [N]-C--CA-[N] |==|  0.31353
USER: genes 12 Torsion [C]-CA--CB-[CG] |==|  0.66826
USER: genes 13 Torsion [CA]-CB--CG-[OD1] |==|  0.15230
ROOT
ATOM      1  C   ILE C 175     -71.706  -9.759  21.009  1.00 65.51 LIG 0.24  C 
ATOM      2 O    ILE C 175     -72.846 -10.233  21.049  1.00 66.37 LIG-0.27  OA
ATOM      3  N   PRO C 176     -71.450  -8.446  21.207  1.00 64.39 LIG-0.34  N 
ATOM      4  CA  PRO C 176     -72.489  -7.485  21.594  1.00 64.23 LIG 0.18  C 
ATOM      5  CB  PRO C 176     -71.697  -6.382  22.324  1.00 63.87 LIG 0.04  C 
ATOM      6  CG  PRO C 176     -70.227  -6.750  22.190  1.00 63.56 LIG 0.02  C 
ATOM      7  CD  PRO C 176     -70.129  -7.803  21.139  1.00 63.45 LIG 0.13  C 
ENDROOT
BRANCH 4 8
ATOM      8  C   PRO C 176     -73.289  -6.893  20.423  1.00 63.07 LIG 0.24  C 
ATOM      9  N   PHE C 177     -73.314  -7.594  19.291  1.00 62.32 LIG-0.34  N 
ATOM     10 H    PHE C 177     -72.864  -8.317  19.168  1.00 62.32 LIG 0.16  HD
ATOM     11 O    PRO C 176     -73.878  -5.816  20.559  1.00 62.88 LIG-0.27  OA
BRANCH 9 12
ATOM     12  CA  PHE C 177     -74.124  -7.189  18.137  1.00 61.42 LIG 0.19  C 
BRANCH 12 13
ATOM     13  CB  PHE C 177     -73.396  -7.457  16.805  1.00 59.64 LIG 0.07  C 
BRANCH 13 14
ATOM     14  CG  PHE C 177     -73.126  -8.913  16.530  1.00 58.09 LIG-0.06  A 
ATOM     15  CD1 PHE C 177     -74.121  -9.737  16.005  1.00 57.17 LIG 0.01  A 
ATOM     16  CE1 PHE C 177     -73.872 -11.086  15.746  1.00 55.93 LIG 0.00  A 
ATOM     17  CZ  PHE C 177     -72.614 -11.621  16.006  1.00 55.64 LIG 0.00  A 
ATOM     18  CE2 PHE C 177     -71.608 -10.806  16.526  1.00 56.04 LIG 0.00  A 
ATOM     19  CD2 PHE C 177     -71.869  -9.459  16.782  1.00 56.91 LIG 0.01  A 
ENDBRANCH 13 14
ENDBRANCH 12 13
BRANCH 12 20
ATOM     20  C   PHE C 177     -75.507  -7.841  18.148  1.00 62.04 LIG 0.20  C 
ATOM     21 O    PHE C 177     -75.904  -8.485  19.120  1.00 62.52 LIG-0.65  OA
ATOM     22 OXT  PHE C 177     -76.265  -7.735  17.183  1.00 62.11 LIG-0.65  OA
ENDBRANCH 12 20
ENDBRANCH 9 12
ENDBRANCH 4 8
BRANCH 1 23
ATOM     23  CA  ILE C 175     -70.507 -10.670  20.725  1.00 65.77 LIG 0.18  C 
BRANCH 23 24
ATOM     24  CB  ILE C 175     -70.181 -10.698  19.208  1.00 65.27 LIG 0.01  C 
ATOM     25  CG2 ILE C 175     -69.005  -9.778  18.892  1.00 63.89 LIG 0.01  C 
BRANCH 24 26
ATOM     26  CG1 ILE C 175     -69.885 -12.133  18.752  1.00 65.41 LIG 0.00  C 
ATOM     27  CD1 ILE C 175     -68.993 -12.235  17.527  1.00 65.60 LIG 0.01  C 
ENDBRANCH 24 26
ENDBRANCH 23 24
BRANCH 23 28
ATOM     28  N   ILE C 175     -70.759 -12.017  21.240  1.00 67.68 LIG-0.34  N 
ATOM     29 H    ILE C 175     -70.827 -12.617  20.627  1.00 67.68 LIG 0.16  HD
ATOM     30  C   ASP C 174     -70.871 -12.283  22.540  1.00 68.58 LIG 0.26  C 
ATOM     31 O    ASP C 174     -70.814 -11.417  23.420  1.00 68.06 LIG-0.27  OA
BRANCH 30 32
ATOM     32  CA  ASP C 174     -71.075 -13.750  22.902  1.00 70.51 LIG 0.41  C 
ATOM     33  N   ASP C 174     -69.887 -14.287  23.633  1.00 70.88 LIG 0.61  N 
BRANCH 32 34
ATOM     34  CB  ASP C 174     -72.350 -13.920  23.740  1.00 71.81 LIG 0.16  C 
BRANCH 34 35
ATOM     35  CG  ASP C 174     -72.076 -14.501  25.118  1.00 74.09 LIG 0.17  C 
ATOM     36 OD1  ASP C 174     -71.246 -13.932  25.862  1.00 74.88 LIG-0.65  OA
ATOM     37 OD2  ASP C 174     -72.698 -15.530  25.461  1.00 75.75 LIG-0.65  OA
ENDBRANCH 34 35
ENDBRANCH 32 34
ENDBRANCH 30 32
ENDBRANCH 23 28
ENDBRANCH 1 23
TORSDOF 12
ENDMDL
MODEL 11
USER: ADFR SOLUTION from run 150
USER: SCORE 12.693287 LL:  -3.833 LR:  -9.038 RR:   0.000 FEB:  -5.458
USER: RMSD 2.756652
USER: SEED 149
USER: STATUS no improvement in best in 4 clusters for 5 generations
USER: GENES 14
USER: genes 0 Translation |==|  0.54397 0.57834 0.45155
USER: genes 1 Rotation |==|  0.39198 0.64305 0.26193 0.90149
USER: genes 2 Torsion [N]-CA--C-[O] |==|  0.45802
USER: genes 3 Torsion [C]-N--CA-[CB] |==|  0.18844
USER: genes 4 Torsion [N]-CA--CB-[CG] |==|  0.13987
USER: genes 5 Torsion [CA]-CB--CG-[CD2] |==|  0.80412
USER: genes 6 Torsion [N]-CA--C-[OXT] |==|  0.49035
USER: genes 7 Torsion [N]-C--CA-[N] |==|  0.35601
USER: genes 8 Torsion [C]-CA--CB-[CG2] |==|  0.02276
USER: genes 9 Torsion [CA]-CB--CG1-[CD1] |==|  0.81859
USER: genes 10 Torsion [C]-CA--N-[C] |==|  0.67584
USER: genes 11 Torsion [N]-C--CA-[N] |==|  0.31015
USER: genes 12 Torsion [C]-CA--CB-[CG] |==|  0.80190
USER: genes 13 Torsion [CA]-CB--CG-[OD1] |==|  0.30881
ROOT
ATOM      1  C   ILE C 175     -71.336  -8.317  22.603  1.00 65.51 LIG 0.24  C 
ATOM      2 O    ILE C 175     -71.533  -7.114  22.798  1.00 66.37 LIG-0.27  OA
ATOM      3  N   PRO C 176     -70.832  -8.799  21.445  1.00 64.39 LIG-0.34  N 
ATOM      4  CA  PRO C 176     -70.374  -7.929  20.356  1.00 64.23 LIG 0.18  C 
ATOM      5  CB  PRO C 176     -69.337  -8.800  19.620  1.00 63.87 LIG 0.04  C 
ATOM      6  CG  PRO C 176     -69.372 -10.165  20.287  1.00 63.56 LIG 0.02  C 
ATOM      7  CD  PRO C 176     -70.605 -10.217  21.123  1.00 63.45 LIG 0.13  C 
ENDROOT
BRANCH 4 8
ATOM      8  C   PRO C 176     -71.477  -7.467  19.390  1.00 63.07 LIG 0.24  C 
ATOM      9  N   PHE C 177     -72.638  -8.118  19.442  1.00 62.32 LIG-0.34  N 
ATOM     10 H    PHE C 177     -72.777  -8.808  19.937  1.00 62.32 LIG 0.16  HD
ATOM     11 O    PRO C 176     -71.267  -6.526  18.618  1.00 62.88 LIG-0.27  OA
BRANCH 9 12
ATOM     12  CA  PHE C 177     -73.801  -7.707  18.648  1.00 61.42 LIG 0.19  C 
BRANCH 12 13
ATOM     13  CB  PHE C 177     -73.570  -7.928  17.140  1.00 59.64 LIG 0.07  C 
BRANCH 13 14
ATOM     14  CG  PHE C 177     -73.077  -9.308  16.786  1.00 58.09 LIG-0.06  A 
ATOM     15  CD1 PHE C 177     -73.898 -10.206  16.105  1.00 57.17 LIG 0.01  A 
ATOM     16  CE1 PHE C 177     -73.442 -11.483  15.773  1.00 55.93 LIG 0.00  A 
ATOM     17  CZ  PHE C 177     -72.150 -11.869  16.117  1.00 55.64 LIG 0.00  A 
ATOM     18  CE2 PHE C 177     -71.317 -10.977  16.792  1.00 56.04 LIG 0.00  A 
ATOM     19  CD2 PHE C 177     -71.784  -9.703  17.120  1.00 56.91 LIG 0.01  A 
ENDBRANCH 13 14
ENDBRANCH 12 13
BRANCH 12 20
ATOM     20  C   PHE C 177     -75.086  -8.391  19.113  1.00 62.04 LIG 0.20  C 
ATOM     21 O    PHE C 177     -75.076  -9.232  20.013  1.00 62.52 LIG-0.65  OA
ATOM     22 OXT  PHE C 177     -76.172  -8.116  18.599  1.00 62.11 LIG-0.65  OA
ENDBRANCH 12 20
ENDBRANCH 9 12
ENDBRANCH 4 8
BRANCH 1 23
ATOM     23  CA  ILE C 175     -71.665  -9.336  23.699  1.00 65.77 LIG 0.18  C 
BRANCH 23 24
ATOM     24  CB  ILE C 175     -73.200  -9.499  23.860  1.00 65.27 LIG 0.01  C 
ATOM     25  CG2 ILE C 175     -73.941  -8.756  22.752  1.00 63.89 LIG 0.01  C 
BRANCH 24 26
ATOM     26  CG1 ILE C 175     -73.582 -10.986  23.866  1.00 65.41 LIG 0.00  C 
ATOM     27  CD1 ILE C 175     -73.317 -11.710  22.557  1.00 65.60 LIG 0.01  C 
ENDBRANCH 24 26
ENDBRANCH 23 24
BRANCH 23 28
ATOM     28  N   ILE C 175     -71.036  -8.945  24.962  1.00 67.68 LIG-0.34  N 
ATOM     29 H    ILE C 175     -71.323  -8.197  25.277  1.00 67.68 LIG 0.16  HD
ATOM     30  C   ASP C 174     -70.106  -9.685  25.564  1.00 68.58 LIG 0.26  C 
ATOM     31 O    ASP C 174     -69.663 -10.738  25.093  1.00 68.06 LIG-0.27  OA
BRANCH 30 32
ATOM     32  CA  ASP C 174     -69.601  -9.155  26.902  1.00 70.51 LIG 0.41  C 
ATOM     33  N   ASP C 174     -70.035 -10.043  28.022  1.00 70.88 LIG 0.61  N 
BRANCH 32 34
ATOM     34  CB  ASP C 174     -68.072  -9.019  26.877  1.00 71.81 LIG 0.16  C 
BRANCH 34 35
ATOM     35  CG  ASP C 174     -67.361 -10.363  26.893  1.00 74.09 LIG 0.17  C 
ATOM     36 OD1  ASP C 174     -66.742 -10.733  25.870  1.00 74.88 LIG-0.65  OA
ATOM     37 OD2  ASP C 174     -67.416 -11.051  27.935  1.00 75.75 LIG-0.65  OA
ENDBRANCH 34 35
ENDBRANCH 32 34
ENDBRANCH 30 32
ENDBRANCH 23 28
ENDBRANCH 1 23
TORSDOF 12
ENDMDL
MODEL 12
USER: ADFR SOLUTION from run 49
USER: SCORE 12.653567 LL:  -3.874 LR:  -8.966 RR:   0.000 FEB:  -5.386
USER: RMSD 3.996307
USER: SEED 48
USER: STATUS no improvement in best in 3 clusters for 5 generations
USER: GENES 14
USER: genes 0 Translation |==|  0.39217 0.42963 0.46618
USER: genes 1 Rotation |==|  0.55140 0.56610 0.22467 0.90888
USER: genes 2 Torsion [N]-CA--C-[O] |==|  0.43058
USER: genes 3 Torsion [C]-N--CA-[CB] |==|  0.25943
USER: genes 4 Torsion [N]-CA--CB-[CG] |==|  0.99847
USER: genes 5 Torsion [CA]-CB--CG-[CD2] |==|  0.23773
USER: genes 6 Torsion [N]-CA--C-[OXT] |==|  0.57172
USER: genes 7 Torsion [N]-C--CA-[N] |==|  0.31679
USER: genes 8 Torsion [C]-CA--CB-[CG2] |==|  0.05508
USER: genes 9 Torsion [CA]-CB--CG1-[CD1] |==|  0.04621
USER: genes 10 Torsion [C]-CA--N-[C] |==|  0.70497
USER: genes 11 Torsion [N]-C--CA-[N] |==|  0.36107
USER: genes 12 Torsion [C]-CA--CB-[CG] |==|  0.79752
USER: genes 13 Torsion [CA]-CB--CG-[OD1] |==|  0.21770
ROOT
ATOM      1  C   ILE C 175     -73.613 -10.771  22.910  1.00 65.51 LIG 0.24  C 
ATOM      2 O    ILE C 175     -73.754  -9.650  23.408  1.00 66.37 LIG-0.27  OA
ATOM      3  N   PRO C 176     -72.580 -11.088  22.097  1.00 64.39 LIG-0.34  N 
ATOM      4  CA  PRO C 176     -71.476 -10.162  21.819  1.00 64.23 LIG 0.18  C 
ATOM      5  CB  PRO C 176     -70.308 -11.102  21.462  1.00 63.87 LIG 0.04  C 
ATOM      6  CG  PRO C 176     -70.879 -12.511  21.449  1.00 63.56 LIG 0.02  C 
ATOM      7  CD  PRO C 176     -72.365 -12.386  21.438  1.00 63.45 LIG 0.13  C 
ENDROOT
BRANCH 4 8
ATOM      8  C   PRO C 176     -71.740  -9.167  20.678  1.00 63.07 LIG 0.24  C 
ATOM      9  N   PHE C 177     -72.636  -9.524  19.759  1.00 62.32 LIG-0.34  N 
ATOM     10 H    PHE C 177     -73.021 -10.293  19.741  1.00 62.32 LIG 0.16  HD
ATOM     11 O    PRO C 176     -71.137  -8.089  20.647  1.00 62.88 LIG-0.27  OA
BRANCH 9 12
ATOM     12  CA  PHE C 177     -73.051  -8.621  18.680  1.00 61.42 LIG 0.19  C 
BRANCH 12 13
ATOM     13  CB  PHE C 177     -72.216  -8.834  17.402  1.00 59.64 LIG 0.07  C 
BRANCH 13 14
ATOM     14  CG  PHE C 177     -71.156  -9.897  17.528  1.00 58.09 LIG-0.06  A 
ATOM     15  CD1 PHE C 177     -69.851  -9.565  17.891  1.00 57.17 LIG 0.01  A 
ATOM     16  CE1 PHE C 177     -68.869 -10.549  18.012  1.00 55.93 LIG 0.00  A 
ATOM     17  CZ  PHE C 177     -69.190 -11.883  17.777  1.00 55.64 LIG 0.00  A 
ATOM     18  CE2 PHE C 177     -70.493 -12.229  17.420  1.00 56.04 LIG 0.00  A 
ATOM     19  CD2 PHE C 177     -71.467 -11.236  17.300  1.00 56.91 LIG 0.01  A 
ENDBRANCH 13 14
ENDBRANCH 12 13
BRANCH 12 20
ATOM     20  C   PHE C 177     -74.547  -8.729  18.383  1.00 62.04 LIG 0.20  C 
ATOM     21 O    PHE C 177     -75.346  -9.099  19.243  1.00 62.52 LIG-0.65  OA
ATOM     22 OXT  PHE C 177     -74.994  -8.444  17.271  1.00 62.11 LIG-0.65  OA
ENDBRANCH 12 20
ENDBRANCH 9 12
ENDBRANCH 4 8
BRANCH 1 23
ATOM     23  CA  ILE C 175     -74.635 -11.875  23.205  1.00 65.77 LIG 0.18  C 
BRANCH 23 24
ATOM     24  CB  ILE C 175     -76.062 -11.436  22.783  1.00 65.27 LIG 0.01  C 
ATOM     25  CG2 ILE C 175     -75.998 -10.288  21.779  1.00 63.89 LIG 0.01  C 
BRANCH 24 26
ATOM     26  CG1 ILE C 175     -76.836 -12.626  22.199  1.00 65.41 LIG 0.00  C 
ATOM     27  CD1 ILE C 175     -76.237 -13.985  22.518  1.00 65.60 LIG 0.01  C 
ENDBRANCH 24 26
ENDBRANCH 23 24
BRANCH 23 28
ATOM     28  N   ILE C 175     -74.589 -12.244  24.621  1.00 67.68 LIG-0.34  N 
ATOM     29 H    ILE C 175     -74.942 -11.660  25.145  1.00 67.68 LIG 0.16  HD
ATOM     30  C   ASP C 174     -74.049 -13.383  25.052  1.00 68.58 LIG 0.26  C 
ATOM     31 O    ASP C 174     -73.505 -14.205  24.307  1.00 68.06 LIG-0.27  OA
BRANCH 30 32
ATOM     32  CA  ASP C 174     -74.140 -13.634  26.554  1.00 70.51 LIG 0.41  C 
ATOM     33  N   ASP C 174     -74.678 -14.999  26.833  1.00 70.88 LIG 0.61  N 
BRANCH 32 34
ATOM     34  CB  ASP C 174     -72.764 -13.447  27.209  1.00 71.81 LIG 0.16  C 
BRANCH 34 35
ATOM     35  CG  ASP C 174     -71.803 -14.582  26.892  1.00 74.09 LIG 0.17  C 
ATOM     36 OD1  ASP C 174     -71.234 -14.602  25.778  1.00 74.88 LIG-0.65  OA
ATOM     37 OD2  ASP C 174     -71.610 -15.457  27.764  1.00 75.75 LIG-0.65  OA
ENDBRANCH 34 35
ENDBRANCH 32 34
ENDBRANCH 30 32
ENDBRANCH 23 28
ENDBRANCH 1 23
TORSDOF 12
ENDMDL
MODEL 13
USER: ADFR SOLUTION from run 91
USER: SCORE 13.168018 LL:  -4.285 LR:  -8.918 RR:   0.000 FEB:  -5.338
USER: RMSD 4.533321
USER: SEED 90
USER: STATUS no improvement in best in 3 clusters for 5 generations
USER: GENES 14
USER: genes 0 Translation |==|  0.50283 0.45770 0.32723
USER: genes 1 Rotation |==|  0.65242 0.46480 0.62031 0.95941
USER: genes 2 Torsion [N]-CA--C-[O] |==|  0.54209
USER: genes 3 Torsion [C]-N--CA-[CB] |==|  0.25095
USER: genes 4 Torsion [N]-CA--CB-[CG] |==|  0.91939
USER: genes 5 Torsion [CA]-CB--CG-[CD2] |==|  0.72356
USER: genes 6 Torsion [N]-CA--C-[OXT] |==|  0.54002
USER: genes 7 Torsion [N]-C--CA-[N] |==|  0.35798
USER: genes 8 Torsion [C]-CA--CB-[CG2] |==|  0.02704
USER: genes 9 Torsion [CA]-CB--CG1-[CD1] |==|  0.79759
USER: genes 10 Torsion [C]-CA--N-[C] |==|  0.82466
USER: genes 11 Torsion [N]-C--CA-[N] |==|  0.30991
USER: genes 12 Torsion [C]-CA--CB-[CG] |==|  0.60754
USER: genes 13 Torsion [CA]-CB--CG-[OD1] |==|  0.18264
ROOT
ATOM      1  C   ILE C 175     -71.954 -10.308  19.992  1.00 65.51 LIG 0.24  C 
ATOM      2 O    ILE C 175     -73.140 -10.638  19.903  1.00 66.37 LIG-0.27  OA
ATOM      3  N   PRO C 176     -71.562  -9.035  20.226  1.00 64.39 LIG-0.34  N 
ATOM      4  CA  PRO C 176     -72.511  -7.951  20.502  1.00 64.23 LIG 0.18  C 
ATOM      5  CB  PRO C 176     -71.676  -6.948  21.321  1.00 63.87 LIG 0.04  C 
ATOM      6  CG  PRO C 176     -70.257  -7.494  21.348  1.00 63.56 LIG 0.02  C 
ATOM      7  CD  PRO C 176     -70.172  -8.559  20.308  1.00 63.45 LIG 0.13  C 
ENDROOT
BRANCH 4 8
ATOM      8  C   PRO C 176     -73.099  -7.274  19.252  1.00 63.07 LIG 0.24  C 
ATOM      9  N   PHE C 177     -72.956  -7.915  18.093  1.00 62.32 LIG-0.34  N 
ATOM     10 H    PHE C 177     -72.509  -8.644  18.003  1.00 62.32 LIG 0.16  HD
ATOM     11 O    PRO C 176     -73.678  -6.188  19.353  1.00 62.88 LIG-0.27  OA
BRANCH 9 12
ATOM     12  CA  PHE C 177     -73.561  -7.425  16.850  1.00 61.42 LIG 0.19  C 
BRANCH 12 13
ATOM     13  CB  PHE C 177     -72.611  -6.481  16.086  1.00 59.64 LIG 0.07  C 
BRANCH 13 14
ATOM     14  CG  PHE C 177     -71.656  -5.719  16.967  1.00 58.09 LIG-0.06  A 
ATOM     15  CD1 PHE C 177     -70.484  -6.315  17.430  1.00 57.17 LIG 0.01  A 
ATOM     16  CE1 PHE C 177     -69.595  -5.610  18.245  1.00 55.93 LIG 0.00  A 
ATOM     17  CZ  PHE C 177     -69.874  -4.292  18.596  1.00 55.64 LIG 0.00  A 
ATOM     18  CE2 PHE C 177     -71.040  -3.683  18.133  1.00 56.04 LIG 0.00  A 
ATOM     19  CD2 PHE C 177     -71.921  -4.398  17.321  1.00 56.91 LIG 0.01  A 
ENDBRANCH 13 14
ENDBRANCH 12 13
BRANCH 12 20
ATOM     20  C   PHE C 177     -74.038  -8.567  15.953  1.00 62.04 LIG 0.20  C 
ATOM     21 O    PHE C 177     -74.151  -9.716  16.384  1.00 62.52 LIG-0.65  OA
ATOM     22 OXT  PHE C 177     -74.326  -8.368  14.772  1.00 62.11 LIG-0.65  OA
ENDBRANCH 12 20
ENDBRANCH 9 12
ENDBRANCH 4 8
BRANCH 1 23
ATOM     23  CA  ILE C 175     -70.851 -11.361  19.837  1.00 65.77 LIG 0.18  C 
BRANCH 23 24
ATOM     24  CB  ILE C 175     -70.717 -11.807  18.356  1.00 65.27 LIG 0.01  C 
ATOM     25  CG2 ILE C 175     -71.545 -10.907  17.444  1.00 63.89 LIG 0.01  C 
BRANCH 24 26
ATOM     26  CG1 ILE C 175     -69.242 -11.803  17.930  1.00 65.41 LIG 0.00  C 
ATOM     27  CD1 ILE C 175     -68.645 -10.420  17.738  1.00 65.60 LIG 0.01  C 
ENDBRANCH 24 26
ENDBRANCH 23 24
BRANCH 23 28
ATOM     28  N   ILE C 175     -71.111 -12.503  20.715  1.00 67.68 LIG-0.34  N 
ATOM     29 H    ILE C 175     -71.244 -13.242  20.295  1.00 67.68 LIG 0.16  HD
ATOM     30  C   ASP C 174     -71.139 -12.400  22.043  1.00 68.58 LIG 0.26  C 
ATOM     31 O    ASP C 174     -70.988 -11.333  22.647  1.00 68.06 LIG-0.27  OA
BRANCH 30 32
ATOM     32  CA  ASP C 174     -71.367 -13.702  22.805  1.00 70.51 LIG 0.41  C 
ATOM     33  N   ASP C 174     -70.138 -14.099  23.556  1.00 70.88 LIG 0.61  N 
BRANCH 32 34
ATOM     34  CB  ASP C 174     -72.563 -13.560  23.755  1.00 71.81 LIG 0.16  C 
BRANCH 34 35
ATOM     35  CG  ASP C 174     -72.344 -14.260  25.087  1.00 74.09 LIG 0.17  C 
ATOM     36 OD1  ASP C 174     -71.452 -13.836  25.855  1.00 74.88 LIG-0.65  OA
ATOM     37 OD2  ASP C 174     -73.070 -15.238  25.369  1.00 75.75 LIG-0.65  OA
ENDBRANCH 34 35
ENDBRANCH 32 34
ENDBRANCH 30 32
ENDBRANCH 23 28
ENDBRANCH 1 23
TORSDOF 12
ENDMDL
MODEL 14
USER: ADFR SOLUTION from run 118
USER: SCORE 12.352127 LL:  -3.655 LR:  -8.735 RR:   0.000 FEB:  -5.156
USER: RMSD 3.630585
USER: SEED 117
USER: STATUS no improvement in best in 4 clusters for 5 generations
USER: GENES 14
USER: genes 0 Translation |==|  0.55400 0.59774 0.34936
USER: genes 1 Rotation |==|  0.53080 0.56720 0.60179 0.98392
USER: genes 2 Torsion [N]-CA--C-[O] |==|  0.67206
USER: genes 3 Torsion [C]-N--CA-[CB] |==|  0.21968
USER: genes 4 Torsion [N]-CA--CB-[CG] |==|  0.17197
USER: genes 5 Torsion [CA]-CB--CG-[CD2] |==|  0.26388
USER: genes 6 Torsion [N]-CA--C-[OXT] |==|  0.46103
USER: genes 7 Torsion [N]-C--CA-[N] |==|  0.43290
USER: genes 8 Torsion [C]-CA--CB-[CG2] |==|  0.32256
USER: genes 9 Torsion [CA]-CB--CG1-[CD1] |==|  0.52988
USER: genes 10 Torsion [C]-CA--N-[C] |==|  0.78482
USER: genes 11 Torsion [N]-C--CA-[N] |==|  0.65894
USER: genes 12 Torsion [C]-CA--CB-[CG] |==|  0.45118
USER: genes 13 Torsion [CA]-CB--CG-[OD1] |==|  0.17913
ROOT
ATOM      1  C   ILE C 175     -71.186  -7.997  20.456  1.00 65.51 LIG 0.24  C 
ATOM      2 O    ILE C 175     -72.321  -8.223  20.888  1.00 66.37 LIG-0.27  OA
ATOM      3  N   PRO C 176     -70.850  -6.838  19.848  1.00 64.39 LIG-0.34  N 
ATOM      4  CA  PRO C 176     -71.773  -5.702  19.741  1.00 64.23 LIG 0.18  C 
ATOM      5  CB  PRO C 176     -70.829  -4.489  19.623  1.00 63.87 LIG 0.04  C 
ATOM      6  CG  PRO C 176     -69.418  -5.050  19.552  1.00 63.56 LIG 0.02  C 
ATOM      7  CD  PRO C 176     -69.535  -6.510  19.276  1.00 63.45 LIG 0.13  C 
ENDROOT
BRANCH 4 8
ATOM      8  C   PRO C 176     -72.733  -5.761  18.541  1.00 63.07 LIG 0.24  C 
ATOM      9  N   PHE C 177     -73.591  -6.779  18.502  1.00 62.32 LIG-0.34  N 
ATOM     10 H    PHE C 177     -73.593  -7.423  19.072  1.00 62.32 LIG 0.16  HD
ATOM     11 O    PRO C 176     -72.690  -4.884  17.673  1.00 62.88 LIG-0.27  OA
BRANCH 9 12
ATOM     12  CA  PHE C 177     -74.624  -6.891  17.467  1.00 61.42 LIG 0.19  C 
BRANCH 12 13
ATOM     13  CB  PHE C 177     -74.049  -7.424  16.140  1.00 59.64 LIG 0.07  C 
BRANCH 13 14
ATOM     14  CG  PHE C 177     -73.463  -8.809  16.233  1.00 58.09 LIG-0.06  A 
ATOM     15  CD1 PHE C 177     -72.153  -9.002  16.668  1.00 57.17 LIG 0.01  A 
ATOM     16  CE1 PHE C 177     -71.610 -10.284  16.758  1.00 55.93 LIG 0.00  A 
ATOM     17  CZ  PHE C 177     -72.383 -11.391  16.418  1.00 55.64 LIG 0.00  A 
ATOM     18  CE2 PHE C 177     -73.698 -11.211  15.988  1.00 56.04 LIG 0.00  A 
ATOM     19  CD2 PHE C 177     -74.230  -9.924  15.901  1.00 56.91 LIG 0.01  A 
ENDBRANCH 13 14
ENDBRANCH 12 13
BRANCH 12 20
ATOM     20  C   PHE C 177     -75.812  -7.735  17.930  1.00 62.04 LIG 0.20  C 
ATOM     21 O    PHE C 177     -75.743  -8.441  18.937  1.00 62.52 LIG-0.65  OA
ATOM     22 OXT  PHE C 177     -76.874  -7.729  17.306  1.00 62.11 LIG-0.65  OA
ENDBRANCH 12 20
ENDBRANCH 9 12
ENDBRANCH 4 8
BRANCH 1 23
ATOM     23  CA  ILE C 175     -70.086  -9.055  20.601  1.00 65.77 LIG 0.18  C 
BRANCH 23 24
ATOM     24  CB  ILE C 175     -69.902  -9.845  19.278  1.00 65.27 LIG 0.01  C 
ATOM     25  CG2 ILE C 175     -68.512  -9.608  18.696  1.00 63.89 LIG 0.01  C 
BRANCH 24 26
ATOM     26  CG1 ILE C 175     -70.144 -11.343  19.513  1.00 65.41 LIG 0.00  C 
ATOM     27  CD1 ILE C 175     -69.742 -12.236  18.352  1.00 65.60 LIG 0.01  C 
ENDBRANCH 24 26
ENDBRANCH 23 24
BRANCH 23 28
ATOM     28  N   ILE C 175     -70.386  -9.952  21.719  1.00 67.68 LIG-0.34  N 
ATOM     29 H    ILE C 175     -70.698 -10.716  21.478  1.00 67.68 LIG 0.16  HD
ATOM     30  C   ASP C 174     -70.192  -9.608  22.991  1.00 68.58 LIG 0.26  C 
ATOM     31 O    ASP C 174     -69.782  -8.496  23.341  1.00 68.06 LIG-0.27  OA
BRANCH 30 32
ATOM     32  CA  ASP C 174     -70.503 -10.685  24.024  1.00 70.51 LIG 0.41  C 
ATOM     33  N   ASP C 174     -71.522 -10.202  25.005  1.00 70.88 LIG 0.61  N 
BRANCH 32 34
ATOM     34  CB  ASP C 174     -70.982 -11.967  23.329  1.00 71.81 LIG 0.16  C 
BRANCH 34 35
ATOM     35  CG  ASP C 174     -70.902 -13.190  24.230  1.00 74.09 LIG 0.17  C 
ATOM     36 OD1  ASP C 174     -71.621 -13.236  25.253  1.00 74.88 LIG-0.65  OA
ATOM     37 OD2  ASP C 174     -70.121 -14.111  23.911  1.00 75.75 LIG-0.65  OA
ENDBRANCH 34 35
ENDBRANCH 32 34
ENDBRANCH 30 32
ENDBRANCH 23 28
ENDBRANCH 1 23
TORSDOF 12
ENDMDL
