MODEL 1
USER: ADFR SOLUTION from run 188
USER: SCORE 7.839789 LL:  -1.110 LR:  -7.521 RR:   0.000 FEB:  -5.135
USER: RMSD 5.338591
USER: SEED 187
USER: STATUS no improvement in best in 37 clusters for 5 generations
USER: GENES 10
USER: genes 0 Translation |==|  0.41690 0.58867 0.68323
USER: genes 1 Rotation |==|  0.10673 0.43336 0.71062 0.71573
USER: genes 2 Torsion [C]-CA--N-[C] |==|  0.53341
USER: genes 3 Torsion [N]-C--CA-[N] |==|  0.96454
USER: genes 4 Torsion [C]-CA--N-[H3] |==|  0.71512
USER: genes 5 Torsion [N]-CA--C-[N] |==|  0.22345
USER: genes 6 Torsion [C]-N--CA-[CB] |==|  0.82477
USER: genes 7 Torsion [N]-CA--C-[O] |==|  0.07790
USER: genes 8 Torsion [N]-CA--CB-[CG] |==|  0.50168
USER: genes 9 Torsion [CA]-CB--CG-[ND1] |==|  0.99424
ROOT
ATOM      1  CA  HIS F   2      -2.806  31.626 -16.213  1.00 30.59 LIG 0.18  C 
ENDROOT
BRANCH 1 2
ATOM      2  N   HIS F   2      -1.619  30.766 -16.268  1.00 30.70 LIG-0.35  N 
ATOM      3  C   ALA F   1      -0.383  31.229 -16.088  1.00 31.15 LIG 0.25  C 
ATOM      4 O    ALA F   1      -0.124  32.417 -15.869  1.00 30.37 LIG-0.27  OA
ATOM      5 H    HIS F   2      -1.795  29.939 -16.427  1.00 30.70 LIG 0.16  HD
BRANCH 3 6
ATOM      6  CA  ALA F   1       0.740  30.187 -16.169  1.00 31.15 LIG 0.27  C 
ATOM      7  CB  ALA F   1       1.754  30.525 -16.839  0.00 20.00 LIG 0.05  C 
BRANCH 6 8
ATOM      8  N   ALA F   1       0.198  28.787 -16.135  1.00 31.97 LIG-0.07  N 
ATOM      9 H3   ALA F   1       0.317  28.442 -15.324  1.00 31.97 LIG 0.28  HD
ATOM     10 H1   ALA F   1      -0.671  28.801 -16.327  1.00 31.97 LIG 0.28  HD
ATOM     11 H2   ALA F   1       0.625  28.289 -16.735  1.00 31.97 LIG 0.28  HD
ENDBRANCH 6 8
ENDBRANCH 3 6
ENDBRANCH 1 2
BRANCH 1 12
ATOM     12  C   HIS F   2      -4.088  30.786 -16.159  1.00 31.15 LIG 0.24  C 
ATOM     13 O    HIS F   2      -4.762  30.590 -17.188  1.00 30.80 LIG-0.27  OA
ATOM     14  N   ALA F   3      -4.418  30.294 -14.959  1.00 30.97 LIG-0.35  N 
ATOM     15 H    ALA F   3      -3.952  30.424 -14.247  1.00 30.97 LIG 0.16  HD
BRANCH 14 16
ATOM     16  CA  ALA F   3      -5.614  29.481 -14.747  1.00 31.72 LIG 0.16  C 
ATOM     17  CB  ALA F   3      -6.823  30.389 -15.079  0.00 20.00 LIG 0.04  C 
BRANCH 16 18
ATOM     18  C   ALA F   3      -5.843  28.436 -15.836  1.00 32.37 LIG 0.22  C 
ATOM     19 O    ALA F   3      -4.891  27.960 -16.471  1.00 33.75 LIG-0.29  OA
ENDBRANCH 16 18
ENDBRANCH 14 16
ENDBRANCH 1 12
BRANCH 1 20
ATOM     20  CB  HIS F   2      -2.849  32.563 -17.432  1.00 30.20 LIG 0.10  C 
BRANCH 20 21
ATOM     21  CG  HIS F   2      -4.028  33.499 -17.461  1.00 29.66 LIG 0.06  A 
ATOM     22 ND1  HIS F   2      -5.020  33.498 -16.501  1.00 29.25 LIG-0.24  NA
ATOM     23  CE1 HIS F   2      -5.934  34.406 -16.805  1.00 27.69 LIG 0.23  A 
ATOM     24 NE2  HIS F   2      -5.581  34.989 -17.941  1.00 31.40 LIG-0.25  NA
ATOM     25  CD2 HIS F   2      -4.399  34.428 -18.379  1.00 30.69 LIG 0.14  A 
ENDBRANCH 20 21
ENDBRANCH 1 20
TORSDOF 8
ENDMDL
MODEL 2
USER: ADFR SOLUTION from run 102
USER: SCORE 8.080799 LL:  -1.199 LR:  -7.328 RR:   0.000 FEB:  -4.941
USER: RMSD 1.975969
USER: SEED 101
USER: STATUS no improvement in best in 33 clusters for 5 generations
USER: GENES 10
USER: genes 0 Translation |==|  0.50554 0.44841 0.59425
USER: genes 1 Rotation |==|  0.37198 0.65176 0.48369 0.95860
USER: genes 2 Torsion [C]-CA--N-[C] |==|  0.79989
USER: genes 3 Torsion [N]-C--CA-[N] |==|  0.03816
USER: genes 4 Torsion [C]-CA--N-[H3] |==|  0.28526
USER: genes 5 Torsion [N]-CA--C-[N] |==|  0.24529
USER: genes 6 Torsion [C]-N--CA-[CB] |==|  0.16685
USER: genes 7 Torsion [N]-CA--C-[O] |==|  0.04790
USER: genes 8 Torsion [N]-CA--CB-[CG] |==|  0.71837
USER: genes 9 Torsion [CA]-CB--CG-[ND1] |==|  0.43579
ROOT
ATOM      1  CA  HIS F   2      -1.276  29.943 -17.615  1.00 30.59 LIG 0.18  C 
ENDROOT
BRANCH 1 2
ATOM      2  N   HIS F   2      -1.899  29.580 -18.892  1.00 30.70 LIG-0.35  N 
ATOM      3  C   ALA F   1      -3.020  28.865 -18.971  1.00 31.15 LIG 0.25  C 
ATOM      4 O    ALA F   1      -3.627  28.437 -17.984  1.00 30.37 LIG-0.27  OA
ATOM      5 H    HIS F   2      -1.475  29.871 -19.581  1.00 30.70 LIG 0.16  HD
BRANCH 3 6
ATOM      6  CA  ALA F   1      -3.537  28.586 -20.388  1.00 31.15 LIG 0.27  C 
ATOM      7  CB  ALA F   1      -4.366  27.641 -20.493  0.00 20.00 LIG 0.05  C 
BRANCH 6 8
ATOM      8  N   ALA F   1      -2.497  28.897 -21.426  1.00 31.97 LIG-0.07  N 
ATOM      9 H3   ALA F   1      -2.130  28.140 -21.715  1.00 31.97 LIG 0.28  HD
ATOM     10 H1   ALA F   1      -2.877  29.321 -22.109  1.00 31.97 LIG 0.28  HD
ATOM     11 H2   ALA F   1      -1.867  29.414 -21.069  1.00 31.97 LIG 0.28  HD
ENDBRANCH 6 8
ENDBRANCH 3 6
ENDBRANCH 1 2
BRANCH 1 12
ATOM     12  C   HIS F   2      -2.100  31.014 -16.888  1.00 31.15 LIG 0.24  C 
ATOM     13 O    HIS F   2      -1.858  32.224 -17.057  1.00 30.80 LIG-0.27  OA
ATOM     14  N   ALA F   3      -3.071  30.565 -16.084  1.00 30.97 LIG-0.35  N 
ATOM     15 H    ALA F   3      -3.244  29.730 -15.968  1.00 30.97 LIG 0.16  HD
BRANCH 14 16
ATOM     16  CA  ALA F   3      -3.935  31.462 -15.321  1.00 31.72 LIG 0.16  C 
ATOM     17  CB  ALA F   3      -4.665  32.351 -16.358  0.00 20.00 LIG 0.04  C 
BRANCH 16 18
ATOM     18  C   ALA F   3      -5.168  30.776 -14.741  1.00 32.37 LIG 0.22  C 
ATOM     19 O    ALA F   3      -5.224  29.542 -14.647  1.00 33.75 LIG-0.29  OA
ENDBRANCH 16 18
ENDBRANCH 14 16
ENDBRANCH 1 12
BRANCH 1 20
ATOM     20  CB  HIS F   2       0.157  30.453 -17.840  1.00 30.20 LIG 0.10  C 
BRANCH 20 21
ATOM     21  CG  HIS F   2       1.235  29.447 -17.538  1.00 29.66 LIG 0.06  A 
ATOM     22 ND1  HIS F   2       2.502  29.508 -18.083  1.00 29.25 LIG-0.24  NA
ATOM     23  CE1 HIS F   2       3.218  28.478 -17.659  1.00 27.69 LIG 0.23  A 
ATOM     24 NE2  HIS F   2       2.456  27.738 -16.868  1.00 31.40 LIG-0.25  NA
ATOM     25  CD2 HIS F   2       1.205  28.315 -16.789  1.00 30.69 LIG 0.14  A 
ENDBRANCH 20 21
ENDBRANCH 1 20
TORSDOF 8
ENDMDL
MODEL 3
USER: ADFR SOLUTION from run 62
USER: SCORE 8.275741 LL:  -1.409 LR:  -7.327 RR:   0.000 FEB:  -4.941
USER: RMSD 4.764229
USER: SEED 61
USER: STATUS no improvement in best in 37 clusters for 5 generations
USER: GENES 10
USER: genes 0 Translation |==|  0.44432 0.54942 0.59427
USER: genes 1 Rotation |==|  0.91077 0.33722 0.26647 0.51544
USER: genes 2 Torsion [C]-CA--N-[C] |==|  0.63436
USER: genes 3 Torsion [N]-C--CA-[N] |==|  0.09345
USER: genes 4 Torsion [C]-CA--N-[H3] |==|  0.60340
USER: genes 5 Torsion [N]-CA--C-[N] |==|  0.90148
USER: genes 6 Torsion [C]-N--CA-[CB] |==|  0.16018
USER: genes 7 Torsion [N]-CA--C-[O] |==|  0.51325
USER: genes 8 Torsion [N]-CA--CB-[CG] |==|  0.25356
USER: genes 9 Torsion [CA]-CB--CG-[ND1] |==|  0.78662
ROOT
ATOM      1  CA  HIS F   2      -2.332  31.155 -17.614  1.00 30.59 LIG 0.18  C 
ENDROOT
BRANCH 1 2
ATOM      2  N   HIS F   2      -1.329  30.364 -16.894  1.00 30.70 LIG-0.35  N 
ATOM      3  C   ALA F   1      -0.030  30.652 -16.918  1.00 31.15 LIG 0.25  C 
ATOM      4 O    ALA F   1       0.448  31.599 -17.550  1.00 30.37 LIG-0.27  OA
ATOM      5 H    HIS F   2      -1.659  29.699 -16.458  1.00 30.70 LIG 0.16  HD
BRANCH 3 6
ATOM      6  CA  ALA F   1       0.876  29.724 -16.099  1.00 31.15 LIG 0.27  C 
ATOM      7  CB  ALA F   1       2.103  30.020 -16.092  0.00 20.00 LIG 0.05  C 
BRANCH 6 8
ATOM      8  N   ALA F   1       0.364  28.312 -16.099  1.00 31.97 LIG-0.07  N 
ATOM      9 H3   ALA F   1       0.503  27.945 -15.300  1.00 31.97 LIG 0.28  HD
ATOM     10 H1   ALA F   1      -0.508  28.312 -16.278  1.00 31.97 LIG 0.28  HD
ATOM     11 H2   ALA F   1       0.793  27.841 -16.720  1.00 31.97 LIG 0.28  HD
ENDBRANCH 6 8
ENDBRANCH 3 6
ENDBRANCH 1 2
BRANCH 1 12
ATOM     12  C   HIS F   2      -3.516  31.500 -16.702  1.00 31.15 LIG 0.24  C 
ATOM     13 O    HIS F   2      -4.101  32.594 -16.807  1.00 30.80 LIG-0.27  OA
ATOM     14  N   ALA F   3      -3.864  30.563 -15.811  1.00 30.97 LIG-0.35  N 
ATOM     15 H    ALA F   3      -3.465  29.805 -15.738  1.00 30.97 LIG 0.16  HD
BRANCH 14 16
ATOM     16  CA  ALA F   3      -4.966  30.748 -14.870  1.00 31.72 LIG 0.16  C 
ATOM     17  CB  ALA F   3      -6.227  31.028 -15.724  0.00 20.00 LIG 0.04  C 
BRANCH 16 18
ATOM     18  C   ALA F   3      -5.444  29.449 -14.226  1.00 32.37 LIG 0.22  C 
ATOM     19 O    ALA F   3      -6.429  29.437 -13.474  1.00 33.75 LIG-0.29  OA
ENDBRANCH 16 18
ENDBRANCH 14 16
ENDBRANCH 1 12
BRANCH 1 20
ATOM     20  CB  HIS F   2      -2.835  30.391 -18.851  1.00 30.20 LIG 0.10  C 
BRANCH 20 21
ATOM     21  CG  HIS F   2      -4.049  29.534 -18.607  1.00 29.66 LIG 0.06  A 
ATOM     22 ND1  HIS F   2      -3.997  28.312 -17.968  1.00 29.25 LIG-0.24  NA
ATOM     23  CE1 HIS F   2      -5.209  27.780 -17.926  1.00 27.69 LIG 0.23  A 
ATOM     24 NE2  HIS F   2      -6.048  28.607 -18.532  1.00 31.40 LIG-0.25  NA
ATOM     25  CD2 HIS F   2      -5.343  29.704 -18.982  1.00 30.69 LIG 0.14  A 
ENDBRANCH 20 21
ENDBRANCH 1 20
TORSDOF 8
ENDMDL
MODEL 4
USER: ADFR SOLUTION from run 32
USER: SCORE 7.400873 LL:  -1.291 LR:  -7.217 RR:   0.000 FEB:  -4.831
USER: RMSD 3.248760
USER: SEED 31
USER: STATUS no improvement in best in 29 clusters for 5 generations
USER: GENES 10
USER: genes 0 Translation |==|  0.57523 0.51109 0.44205
USER: genes 1 Rotation |==|  0.58284 0.48253 0.57205 0.98748
USER: genes 2 Torsion [C]-CA--N-[C] |==|  0.18889
USER: genes 3 Torsion [N]-C--CA-[N] |==|  0.37735
USER: genes 4 Torsion [C]-CA--N-[H3] |==|  0.87290
USER: genes 5 Torsion [N]-CA--C-[N] |==|  0.28542
USER: genes 6 Torsion [C]-N--CA-[CB] |==|  0.50883
USER: genes 7 Torsion [N]-CA--C-[O] |==|  0.69901
USER: genes 8 Torsion [N]-CA--CB-[CG] |==|  0.58336
USER: genes 9 Torsion [CA]-CB--CG-[ND1] |==|  0.27216
ROOT
ATOM      1  CA  HIS F   2      -0.074  30.695 -20.012  1.00 30.59 LIG 0.18  C 
ENDROOT
BRANCH 1 2
ATOM      2  N   HIS F   2       0.095  31.564 -21.181  1.00 30.70 LIG-0.35  N 
ATOM      3  C   ALA F   1       0.047  32.893 -21.105  1.00 31.15 LIG 0.25  C 
ATOM      4 O    ALA F   1      -0.153  33.510 -20.054  1.00 30.37 LIG-0.27  OA
ATOM      5 H    HIS F   2       0.229  31.137 -21.915  1.00 30.70 LIG 0.16  HD
BRANCH 3 6
ATOM      6  CA  ALA F   1       0.255  33.646 -22.425  1.00 31.15 LIG 0.27  C 
ATOM      7  CB  ALA F   1       1.445  33.703 -22.842  0.00 20.00 LIG 0.05  C 
BRANCH 6 8
ATOM      8  N   ALA F   1      -0.735  34.764 -22.586  1.00 31.97 LIG-0.07  N 
ATOM      9 H3   ALA F   1      -1.548  34.473 -22.375  1.00 31.97 LIG 0.28  HD
ATOM     10 H1   ALA F   1      -0.512  35.437 -22.048  1.00 31.97 LIG 0.28  HD
ATOM     11 H2   ALA F   1      -0.730  35.046 -23.429  1.00 31.97 LIG 0.28  HD
ENDBRANCH 6 8
ENDBRANCH 3 6
ENDBRANCH 1 2
BRANCH 1 12
ATOM     12  C   HIS F   2      -1.512  30.767 -19.480  1.00 31.15 LIG 0.24  C 
ATOM     13 O    HIS F   2      -1.890  31.742 -18.804  1.00 30.80 LIG-0.27  OA
ATOM     14  N   ALA F   3      -2.305  29.734 -19.789  1.00 30.97 LIG-0.35  N 
ATOM     15 H    ALA F   3      -2.048  29.061 -20.259  1.00 30.97 LIG 0.16  HD
BRANCH 14 16
ATOM     16  CA  ALA F   3      -3.696  29.656 -19.349  1.00 31.72 LIG 0.16  C 
ATOM     17  CB  ALA F   3      -4.232  28.288 -19.838  0.00 20.00 LIG 0.04  C 
BRANCH 16 18
ATOM     18  C   ALA F   3      -3.850  29.407 -17.851  1.00 32.37 LIG 0.22  C 
ATOM     19 O    ALA F   3      -4.244  28.312 -17.425  1.00 33.75 LIG-0.29  OA
ENDBRANCH 16 18
ENDBRANCH 14 16
ENDBRANCH 1 12
BRANCH 1 20
ATOM     20  CB  HIS F   2       0.912  31.089 -18.900  1.00 30.20 LIG 0.10  C 
BRANCH 20 21
ATOM     21  CG  HIS F   2       1.346  29.951 -18.014  1.00 29.66 LIG 0.06  A 
ATOM     22 ND1  HIS F   2       2.533  29.267 -18.187  1.00 29.25 LIG-0.24  NA
ATOM     23  CE1 HIS F   2       2.627  28.306 -17.282  1.00 27.69 LIG 0.23  A 
ATOM     24 NE2  HIS F   2       1.534  28.328 -16.534  1.00 31.40 LIG-0.25  NA
ATOM     25  CD2 HIS F   2       0.709  29.339 -16.983  1.00 30.69 LIG 0.14  A 
ENDBRANCH 20 21
ENDBRANCH 1 20
TORSDOF 8
ENDMDL
MODEL 5
USER: ADFR SOLUTION from run 160
USER: SCORE 8.194855 LL:  -1.418 LR:  -7.212 RR:   0.000 FEB:  -4.825
USER: RMSD 4.722363
USER: SEED 159
USER: STATUS no improvement in best in 37 clusters for 5 generations
USER: GENES 10
USER: genes 0 Translation |==|  0.58181 0.66210 0.52561
USER: genes 1 Rotation |==|  0.04980 0.65505 0.64914 0.53225
USER: genes 2 Torsion [C]-CA--N-[C] |==|  0.20059
USER: genes 3 Torsion [N]-C--CA-[N] |==|  0.45700
USER: genes 4 Torsion [C]-CA--N-[H3] |==|  0.89645
USER: genes 5 Torsion [N]-CA--C-[N] |==|  0.99454
USER: genes 6 Torsion [C]-N--CA-[CB] |==|  0.17215
USER: genes 7 Torsion [N]-CA--C-[O] |==|  0.13693
USER: genes 8 Torsion [N]-CA--CB-[CG] |==|  0.61228
USER: genes 9 Torsion [CA]-CB--CG-[ND1] |==|  0.28878
ROOT
ATOM      1  CA  HIS F   2       0.039  32.507 -18.696  1.00 30.59 LIG 0.18  C 
ENDROOT
BRANCH 1 2
ATOM      2  N   HIS F   2       0.676  31.656 -17.686  1.00 30.70 LIG-0.35  N 
ATOM      3  C   ALA F   1       0.380  30.366 -17.539  1.00 31.15 LIG 0.25  C 
ATOM      4 O    ALA F   1      -0.458  29.775 -18.227  1.00 30.37 LIG-0.27  OA
ATOM      5 H    HIS F   2       1.256  32.067 -17.200  1.00 30.70 LIG 0.16  HD
BRANCH 3 6
ATOM      6  CA  ALA F   1       1.151  29.624 -16.439  1.00 31.15 LIG 0.27  C 
ATOM      7  CB  ALA F   1       2.398  29.809 -16.422  0.00 20.00 LIG 0.05  C 
BRANCH 6 8
ATOM      8  N   ALA F   1       0.502  28.313 -16.099  1.00 31.97 LIG-0.07  N 
ATOM      9 H3   ALA F   1      -0.382  28.401 -16.133  1.00 31.97 LIG 0.28  HD
ATOM     10 H1   ALA F   1       0.762  27.693 -16.683  1.00 31.97 LIG 0.28  HD
ATOM     11 H2   ALA F   1       0.744  28.066 -15.279  1.00 31.97 LIG 0.28  HD
ENDBRANCH 6 8
ENDBRANCH 3 6
ENDBRANCH 1 2
BRANCH 1 12
ATOM     12  C   HIS F   2      -1.416  32.811 -18.317  1.00 31.15 LIG 0.24  C 
ATOM     13 O    HIS F   2      -2.117  33.550 -19.033  1.00 30.80 LIG-0.27  OA
ATOM     14  N   ALA F   3      -1.863  32.238 -17.193  1.00 30.97 LIG-0.35  N 
ATOM     15 H    ALA F   3      -1.383  31.723 -16.699  1.00 30.97 LIG 0.16  HD
BRANCH 14 16
ATOM     16  CA  ALA F   3      -3.224  32.437 -16.699  1.00 31.72 LIG 0.16  C 
ATOM     17  CB  ALA F   3      -4.170  31.872 -17.787  0.00 20.00 LIG 0.04  C 
BRANCH 16 18
ATOM     18  C   ALA F   3      -3.613  31.478 -15.577  1.00 32.37 LIG 0.22  C 
ATOM     19 O    ALA F   3      -2.872  31.312 -14.598  1.00 33.75 LIG-0.29  OA
ENDBRANCH 16 18
ENDBRANCH 14 16
ENDBRANCH 1 12
BRANCH 1 20
ATOM     20  CB  HIS F   2       0.087  31.832 -20.077  1.00 30.20 LIG 0.10  C 
BRANCH 20 21
ATOM     21  CG  HIS F   2       0.391  32.764 -21.219  1.00 29.66 LIG 0.06  A 
ATOM     22 ND1  HIS F   2       1.623  32.825 -21.840  1.00 29.25 LIG-0.24  NA
ATOM     23  CE1 HIS F   2       1.600  33.753 -22.784  1.00 27.69 LIG 0.23  A 
ATOM     24 NE2  HIS F   2       0.399  34.312 -22.790  1.00 31.40 LIG-0.25  NA
ATOM     25  CD2 HIS F   2      -0.370  33.722 -21.809  1.00 30.69 LIG 0.14  A 
ENDBRANCH 20 21
ENDBRANCH 1 20
TORSDOF 8
ENDMDL
MODEL 6
USER: ADFR SOLUTION from run 190
USER: SCORE 7.821974 LL:  -1.293 LR:  -7.200 RR:   0.000 FEB:  -4.814
USER: RMSD 3.899260
USER: SEED 189
USER: STATUS no improvement in best in 20 clusters for 5 generations
USER: GENES 10
USER: genes 0 Translation |==|  0.46503 0.59776 0.65150
USER: genes 1 Rotation |==|  0.08480 0.55886 0.72933 0.64680
USER: genes 2 Torsion [C]-CA--N-[C] |==|  0.59444
USER: genes 3 Torsion [N]-C--CA-[N] |==|  0.99431
USER: genes 4 Torsion [C]-CA--N-[H3] |==|  0.04186
USER: genes 5 Torsion [N]-CA--C-[N] |==|  0.90962
USER: genes 6 Torsion [C]-N--CA-[CB] |==|  0.14350
USER: genes 7 Torsion [N]-CA--C-[O] |==|  0.00477
USER: genes 8 Torsion [N]-CA--CB-[CG] |==|  0.84219
USER: genes 9 Torsion [CA]-CB--CG-[ND1] |==|  0.24997
ROOT
ATOM      1  CA  HIS F   2      -1.975  31.735 -16.713  1.00 30.59 LIG 0.18  C 
ENDROOT
BRANCH 1 2
ATOM      2  N   HIS F   2      -1.037  30.628 -16.503  1.00 30.70 LIG-0.35  N 
ATOM      3  C   ALA F   1       0.268  30.813 -16.313  1.00 31.15 LIG 0.25  C 
ATOM      4 O    ALA F   1       0.805  31.925 -16.306  1.00 30.37 LIG-0.27  OA
ATOM      5 H    HIS F   2      -1.408  29.851 -16.513  1.00 30.70 LIG 0.16  HD
BRANCH 3 6
ATOM      6  CA  ALA F   1       1.100  29.542 -16.099  1.00 31.15 LIG 0.27  C 
ATOM      7  CB  ALA F   1       2.274  29.571 -16.560  0.00 20.00 LIG 0.05  C 
BRANCH 6 8
ATOM      8  N   ALA F   1       0.238  28.312 -16.099  1.00 31.97 LIG-0.07  N 
ATOM      9 H3   ALA F   1      -0.561  28.509 -16.436  1.00 31.97 LIG 0.28  HD
ATOM     10 H1   ALA F   1       0.622  27.681 -16.595  1.00 31.97 LIG 0.28  HD
ATOM     11 H2   ALA F   1       0.144  28.016 -15.266  1.00 31.97 LIG 0.28  HD
ENDBRANCH 6 8
ENDBRANCH 3 6
ENDBRANCH 1 2
BRANCH 1 12
ATOM     12  C   HIS F   2      -3.343  31.420 -16.092  1.00 31.15 LIG 0.24  C 
ATOM     13 O    HIS F   2      -4.049  32.329 -15.619  1.00 30.80 LIG-0.27  OA
ATOM     14  N   ALA F   3      -3.708  30.133 -16.099  1.00 30.97 LIG-0.35  N 
ATOM     15 H    ALA F   3      -3.225  29.503 -16.430  1.00 30.97 LIG 0.16  HD
BRANCH 14 16
ATOM     16  CA  ALA F   3      -4.978  29.676 -15.539  1.00 31.72 LIG 0.16  C 
ATOM     17  CB  ALA F   3      -6.079  30.558 -16.179  0.00 20.00 LIG 0.04  C 
BRANCH 16 18
ATOM     18  C   ALA F   3      -5.446  28.335 -16.099  1.00 32.37 LIG 0.22  C 
ATOM     19 O    ALA F   3      -4.759  27.716 -16.924  1.00 33.75 LIG-0.29  OA
ENDBRANCH 16 18
ENDBRANCH 14 16
ENDBRANCH 1 12
BRANCH 1 20
ATOM     20  CB  HIS F   2      -2.140  32.024 -18.215  1.00 30.20 LIG 0.10  C 
BRANCH 20 21
ATOM     21  CG  HIS F   2      -0.857  32.335 -18.937  1.00 29.66 LIG 0.06  A 
ATOM     22 ND1  HIS F   2      -0.069  31.369 -19.532  1.00 29.25 LIG-0.24  NA
ATOM     23  CE1 HIS F   2       1.005  31.935 -20.061  1.00 27.69 LIG 0.23  A 
ATOM     24 NE2  HIS F   2       0.953  33.236 -19.818  1.00 31.40 LIG-0.25  NA
ATOM     25  CD2 HIS F   2      -0.194  33.509 -19.102  1.00 30.69 LIG 0.14  A 
ENDBRANCH 20 21
ENDBRANCH 1 20
TORSDOF 8
ENDMDL
MODEL 7
USER: ADFR SOLUTION from run 58
USER: SCORE 8.397382 LL:  -1.322 LR:  -7.089 RR:   0.000 FEB:  -4.703
USER: RMSD 2.891184
USER: SEED 57
USER: STATUS no improvement in best in 25 clusters for 5 generations
USER: GENES 10
USER: genes 0 Translation |==|  0.59029 0.58056 0.47037
USER: genes 1 Rotation |==|  0.59410 0.56564 0.39147 0.97440
USER: genes 2 Torsion [C]-CA--N-[C] |==|  0.84444
USER: genes 3 Torsion [N]-C--CA-[N] |==|  0.60395
USER: genes 4 Torsion [C]-CA--N-[H3] |==|  0.17703
USER: genes 5 Torsion [N]-CA--C-[N] |==|  0.38682
USER: genes 6 Torsion [C]-N--CA-[CB] |==|  0.24088
USER: genes 7 Torsion [N]-CA--C-[O] |==|  0.35394
USER: genes 8 Torsion [N]-CA--CB-[CG] |==|  0.55222
USER: genes 9 Torsion [CA]-CB--CG-[ND1] |==|  0.35933
ROOT
ATOM      1  CA  HIS F   2       0.185  31.529 -19.566  1.00 30.59 LIG 0.18  C 
ENDROOT
BRANCH 1 2
ATOM      2  N   HIS F   2       0.350  32.321 -20.789  1.00 30.70 LIG-0.35  N 
ATOM      3  C   ALA F   1      -0.676  32.868 -21.438  1.00 31.15 LIG 0.25  C 
ATOM      4 O    ALA F   1      -1.851  32.753 -21.077  1.00 30.37 LIG-0.27  OA
ATOM      5 H    HIS F   2       1.168  32.397 -21.046  1.00 30.70 LIG 0.16  HD
BRANCH 3 6
ATOM      6  CA  ALA F   1      -0.320  33.673 -22.694  1.00 31.15 LIG 0.27  C 
ATOM      7  CB  ALA F   1       0.892  33.639 -23.043  0.00 20.00 LIG 0.05  C 
BRANCH 6 8
ATOM      8  N   ALA F   1      -1.189  34.889 -22.836  1.00 31.97 LIG-0.07  N 
ATOM      9 H3   ALA F   1      -1.042  35.441 -22.153  1.00 31.97 LIG 0.28  HD
ATOM     10 H1   ALA F   1      -0.997  35.305 -23.599  1.00 31.97 LIG 0.28  HD
ATOM     11 H2   ALA F   1      -2.044  34.645 -22.840  1.00 31.97 LIG 0.28  HD
ENDBRANCH 6 8
ENDBRANCH 3 6
ENDBRANCH 1 2
BRANCH 1 12
ATOM     12  C   HIS F   2      -0.555  32.332 -18.489  1.00 31.15 LIG 0.24  C 
ATOM     13 O    HIS F   2      -0.305  33.539 -18.312  1.00 30.80 LIG-0.27  OA
ATOM     14  N   ALA F   3      -1.466  31.658 -17.776  1.00 30.97 LIG-0.35  N 
ATOM     15 H    ALA F   3      -1.645  30.826 -17.898  1.00 30.97 LIG 0.16  HD
BRANCH 14 16
ATOM     16  CA  ALA F   3      -2.247  32.284 -16.711  1.00 31.72 LIG 0.16  C 
ATOM     17  CB  ALA F   3      -3.486  32.914 -17.393  0.00 20.00 LIG 0.04  C 
BRANCH 16 18
ATOM     18  C   ALA F   3      -2.991  31.284 -15.830  1.00 32.37 LIG 0.22  C 
ATOM     19 O    ALA F   3      -2.872  31.312 -14.597  1.00 33.75 LIG-0.29  OA
ENDBRANCH 16 18
ENDBRANCH 14 16
ENDBRANCH 1 12
BRANCH 1 20
ATOM     20  CB  HIS F   2       1.554  31.078 -19.028  1.00 30.20 LIG 0.10  C 
BRANCH 20 21
ATOM     21  CG  HIS F   2       1.499  29.921 -18.066  1.00 29.66 LIG 0.06  A 
ATOM     22 ND1  HIS F   2       2.279  28.789 -18.196  1.00 29.25 LIG-0.24  NA
ATOM     23  CE1 HIS F   2       1.992  27.937 -17.225  1.00 27.69 LIG 0.23  A 
ATOM     24 NE2  HIS F   2       1.038  28.466 -16.474  1.00 31.40 LIG-0.25  NA
ATOM     25  CD2 HIS F   2       0.701  29.701 -16.990  1.00 30.69 LIG 0.14  A 
ENDBRANCH 20 21
ENDBRANCH 1 20
TORSDOF 8
ENDMDL
MODEL 8
USER: ADFR SOLUTION from run 42
USER: SCORE 8.109323 LL:  -1.199 LR:  -6.943 RR:   0.000 FEB:  -4.557
USER: RMSD 1.597299
USER: SEED 41
USER: STATUS no improvement in best in 31 clusters for 5 generations
USER: GENES 10
USER: genes 0 Translation |==|  0.51934 0.56094 0.67297
USER: genes 1 Rotation |==|  0.45957 0.47175 0.54777 0.99526
USER: genes 2 Torsion [C]-CA--N-[C] |==|  0.79539
USER: genes 3 Torsion [N]-C--CA-[N] |==|  0.50620
USER: genes 4 Torsion [C]-CA--N-[H3] |==|  0.98516
USER: genes 5 Torsion [N]-CA--C-[N] |==|  0.37878
USER: genes 6 Torsion [C]-N--CA-[CB] |==|  0.13922
USER: genes 7 Torsion [N]-CA--C-[O] |==|  0.31613
USER: genes 8 Torsion [N]-CA--CB-[CG] |==|  0.79821
USER: genes 9 Torsion [CA]-CB--CG-[ND1] |==|  0.49528
ROOT
ATOM      1  CA  HIS F   2      -1.038  31.293 -16.375  1.00 30.59 LIG 0.18  C 
ENDROOT
BRANCH 1 2
ATOM      2  N   HIS F   2      -0.673  31.495 -17.781  1.00 30.70 LIG-0.35  N 
ATOM      3  C   ALA F   1      -1.131  30.722 -18.764  1.00 31.15 LIG 0.25  C 
ATOM      4 O    ALA F   1      -1.891  29.766 -18.582  1.00 30.37 LIG-0.27  OA
ATOM      5 H    HIS F   2      -0.138  32.157 -17.909  1.00 30.70 LIG 0.16  HD
BRANCH 3 6
ATOM      6  CA  ALA F   1      -0.653  31.083 -20.176  1.00 31.15 LIG 0.27  C 
ATOM      7  CB  ALA F   1      -0.396  32.303 -20.373  0.00 20.00 LIG 0.05  C 
BRANCH 6 8
ATOM      8  N   ALA F   1      -1.267  30.187 -21.212  1.00 31.97 LIG-0.07  N 
ATOM      9 H3   ALA F   1      -1.744  29.552 -20.811  1.00 31.97 LIG 0.28  HD
ATOM     10 H1   ALA F   1      -1.798  30.666 -21.742  1.00 31.97 LIG 0.28  HD
ATOM     11 H2   ALA F   1      -0.625  29.812 -21.700  1.00 31.97 LIG 0.28  HD
ENDBRANCH 6 8
ENDBRANCH 3 6
ENDBRANCH 1 2
BRANCH 1 12
ATOM     12  C   HIS F   2      -2.482  31.744 -16.114  1.00 31.15 LIG 0.24  C 
ATOM     13 O    HIS F   2      -2.909  32.811 -16.592  1.00 30.80 LIG-0.27  OA
ATOM     14  N   ALA F   3      -3.224  30.927 -15.357  1.00 30.97 LIG-0.35  N 
ATOM     15 H    ALA F   3      -2.934  30.187 -15.029  1.00 30.97 LIG 0.16  HD
BRANCH 14 16
ATOM     16  CA  ALA F   3      -4.614  31.223 -15.017  1.00 31.72 LIG 0.16  C 
ATOM     17  CB  ALA F   3      -5.325  31.572 -16.347  0.00 20.00 LIG 0.04  C 
BRANCH 16 18
ATOM     18  C   ALA F   3      -5.435  29.984 -14.669  1.00 32.37 LIG 0.22  C 
ATOM     19 O    ALA F   3      -5.872  29.812 -13.522  1.00 33.75 LIG-0.29  OA
ENDBRANCH 16 18
ENDBRANCH 14 16
ENDBRANCH 1 12
BRANCH 1 20
ATOM     20  CB  HIS F   2      -0.079  32.064 -15.453  1.00 30.20 LIG 0.10  C 
BRANCH 20 21
ATOM     21  CG  HIS F   2       1.302  31.471 -15.349  1.00 29.66 LIG 0.06  A 
ATOM     22 ND1  HIS F   2       2.314  32.036 -14.599  1.00 29.25 LIG-0.24  NA
ATOM     23  CE1 HIS F   2       3.416  31.312 -14.723  1.00 27.69 LIG 0.23  A 
ATOM     24 NE2  HIS F   2       3.162  30.303 -15.543  1.00 31.40 LIG-0.25  NA
ATOM     25  CD2 HIS F   2       1.850  30.390 -15.961  1.00 30.69 LIG 0.14  A 
ENDBRANCH 20 21
ENDBRANCH 1 20
TORSDOF 8
ENDMDL
MODEL 9
USER: ADFR SOLUTION from run 70
USER: SCORE 7.788988 LL:  -1.249 LR:  -6.921 RR:   0.000 FEB:  -4.535
USER: RMSD 2.171162
USER: SEED 69
USER: STATUS no improvement in best in 29 clusters for 5 generations
USER: GENES 10
USER: genes 0 Translation |==|  0.44278 0.52503 0.65433
USER: genes 1 Rotation |==|  0.39701 0.57537 0.59746 0.97351
USER: genes 2 Torsion [C]-CA--N-[C] |==|  0.79444
USER: genes 3 Torsion [N]-C--CA-[N] |==|  0.12992
USER: genes 4 Torsion [C]-CA--N-[H3] |==|  0.03793
USER: genes 5 Torsion [N]-CA--C-[N] |==|  0.27216
USER: genes 6 Torsion [C]-N--CA-[CB] |==|  0.17203
USER: genes 7 Torsion [N]-CA--C-[O] |==|  0.97637
USER: genes 8 Torsion [N]-CA--CB-[CG] |==|  0.70755
USER: genes 9 Torsion [CA]-CB--CG-[ND1] |==|  0.59313
ROOT
ATOM      1  CA  HIS F   2      -2.359  30.862 -16.668  1.00 30.59 LIG 0.18  C 
ENDROOT
BRANCH 1 2
ATOM      2  N   HIS F   2      -2.576  30.627 -18.100  1.00 30.70 LIG-0.35  N 
ATOM      3  C   ALA F   1      -3.175  29.534 -18.569  1.00 31.15 LIG 0.25  C 
ATOM      4 O    ALA F   1      -3.591  28.621 -17.848  1.00 30.37 LIG-0.27  OA
ATOM      5 H    HIS F   2      -2.281  31.258 -18.604  1.00 30.70 LIG 0.16  HD
BRANCH 3 6
ATOM      6  CA  ALA F   1      -3.327  29.457 -20.093  1.00 31.15 LIG 0.27  C 
ATOM      7  CB  ALA F   1      -4.138  28.590 -20.521  0.00 20.00 LIG 0.05  C 
BRANCH 6 8
ATOM      8  N   ALA F   1      -2.047  29.812 -20.794  1.00 31.97 LIG-0.07  N 
ATOM      9 H3   ALA F   1      -1.377  29.812 -20.208  1.00 31.97 LIG 0.28  HD
ATOM     10 H1   ALA F   1      -1.882  29.214 -21.433  1.00 31.97 LIG 0.28  HD
ATOM     11 H2   ALA F   1      -2.122  30.620 -21.158  1.00 31.97 LIG 0.28  HD
ENDBRANCH 6 8
ENDBRANCH 3 6
ENDBRANCH 1 2
BRANCH 1 12
ATOM     12  C   HIS F   2      -3.672  31.240 -15.970  1.00 31.15 LIG 0.24  C 
ATOM     13 O    HIS F   2      -4.098  32.409 -16.009  1.00 30.80 LIG-0.27  OA
ATOM     14  N   ALA F   3      -4.307  30.247 -15.336  1.00 30.97 LIG-0.35  N 
ATOM     15 H    ALA F   3      -4.018  29.437 -15.311  1.00 30.97 LIG 0.16  HD
BRANCH 14 16
ATOM     16  CA  ALA F   3      -5.565  30.452 -14.621  1.00 31.72 LIG 0.16  C 
ATOM     17  CB  ALA F   3      -6.596  30.917 -15.677  0.00 20.00 LIG 0.04  C 
BRANCH 16 18
ATOM     18  C   ALA F   3      -6.259  29.153 -14.221  1.00 32.37 LIG 0.22  C 
ATOM     19 O    ALA F   3      -5.847  28.059 -14.633  1.00 33.75 LIG-0.29  OA
ENDBRANCH 16 18
ENDBRANCH 14 16
ENDBRANCH 1 12
BRANCH 1 20
ATOM     20  CB  HIS F   2      -1.319  31.976 -16.457  1.00 30.20 LIG 0.10  C 
BRANCH 20 21
ATOM     21  CG  HIS F   2       0.035  31.492 -16.011  1.00 29.66 LIG 0.06  A 
ATOM     22 ND1  HIS F   2       0.854  32.210 -15.163  1.00 29.25 LIG-0.24  NA
ATOM     23  CE1 HIS F   2       1.987  31.550 -14.975  1.00 27.69 LIG 0.23  A 
ATOM     24 NE2  HIS F   2       1.941  30.433 -15.685  1.00 31.40 LIG-0.25  NA
ATOM     25  CD2 HIS F   2       0.736  30.381 -16.355  1.00 30.69 LIG 0.14  A 
ENDBRANCH 20 21
ENDBRANCH 1 20
TORSDOF 8
ENDMDL
MODEL 10
USER: ADFR SOLUTION from run 178
USER: SCORE 7.470381 LL:  -1.232 LR:  -6.921 RR:   0.000 FEB:  -4.534
USER: RMSD 1.425675
USER: SEED 177
USER: STATUS no improvement in best in 21 clusters for 5 generations
USER: GENES 10
USER: genes 0 Translation |==|  0.48978 0.41593 0.58705
USER: genes 1 Rotation |==|  0.50743 0.49534 0.49454 0.99989
USER: genes 2 Torsion [C]-CA--N-[C] |==|  0.17719
USER: genes 3 Torsion [N]-C--CA-[N] |==|  0.99995
USER: genes 4 Torsion [C]-CA--N-[H3] |==|  0.75498
USER: genes 5 Torsion [N]-CA--C-[N] |==|  0.61134
USER: genes 6 Torsion [C]-N--CA-[CB] |==|  0.85600
USER: genes 7 Torsion [N]-CA--C-[O] |==|  0.27194
USER: genes 8 Torsion [N]-CA--CB-[CG] |==|  0.84837
USER: genes 9 Torsion [CA]-CB--CG-[ND1] |==|  0.22289
ROOT
ATOM      1  CA  HIS F   2      -1.548  29.553 -17.728  1.00 30.59 LIG 0.18  C 
ENDROOT
BRANCH 1 2
ATOM      2  N   HIS F   2      -1.253  29.958 -19.106  1.00 30.70 LIG-0.35  N 
ATOM      3  C   ALA F   1      -0.979  31.216 -19.446  1.00 31.15 LIG 0.25  C 
ATOM      4 O    ALA F   1      -0.957  32.152 -18.639  1.00 30.37 LIG-0.27  OA
ATOM      5 H    HIS F   2      -1.274  29.310 -19.671  1.00 30.70 LIG 0.16  HD
BRANCH 3 6
ATOM      6  CA  ALA F   1      -0.683  31.459 -20.931  1.00 31.15 LIG 0.27  C 
ATOM      7  CB  ALA F   1      -1.028  32.586 -21.382  0.00 20.00 LIG 0.05  C 
BRANCH 6 8
ATOM      8  N   ALA F   1      -0.766  30.187 -21.725  1.00 31.97 LIG-0.07  N 
ATOM      9 H3   ALA F   1       0.026  29.782 -21.722  1.00 31.97 LIG 0.28  HD
ATOM     10 H1   ALA F   1      -1.376  29.649 -21.363  1.00 31.97 LIG 0.28  HD
ATOM     11 H2   ALA F   1      -0.999  30.375 -22.563  1.00 31.97 LIG 0.28  HD
ENDBRANCH 6 8
ENDBRANCH 3 6
ENDBRANCH 1 2
BRANCH 1 12
ATOM     12  C   HIS F   2      -2.836  30.218 -17.225  1.00 31.15 LIG 0.24  C 
ATOM     13 O    HIS F   2      -3.824  30.337 -17.975  1.00 30.80 LIG-0.27  OA
ATOM     14  N   ALA F   3      -2.820  30.648 -15.958  1.00 30.97 LIG-0.35  N 
ATOM     15 H    ALA F   3      -2.141  30.563 -15.436  1.00 30.97 LIG 0.16  HD
BRANCH 14 16
ATOM     16  CA  ALA F   3      -3.968  31.307 -15.339  1.00 31.72 LIG 0.16  C 
ATOM     17  CB  ALA F   3      -4.379  32.454 -16.294  0.00 20.00 LIG 0.04  C 
BRANCH 16 18
ATOM     18  C   ALA F   3      -5.259  30.498 -15.430  1.00 32.37 LIG 0.22  C 
ATOM     19 O    ALA F   3      -5.641  29.800 -14.479  1.00 33.75 LIG-0.29  OA
ENDBRANCH 16 18
ENDBRANCH 14 16
ENDBRANCH 1 12
BRANCH 1 20
ATOM     20  CB  HIS F   2      -0.379  29.916 -16.797  1.00 30.20 LIG 0.10  C 
BRANCH 20 21
ATOM     21  CG  HIS F   2       0.957  29.372 -17.228  1.00 29.66 LIG 0.06  A 
ATOM     22 ND1  HIS F   2       1.734  29.959 -18.207  1.00 29.25 LIG-0.24  NA
ATOM     23  CE1 HIS F   2       2.833  29.244 -18.390  1.00 27.69 LIG 0.23  A 
ATOM     24 NE2  HIS F   2       2.793  28.200 -17.575  1.00 31.40 LIG-0.25  NA
ATOM     25  CD2 HIS F   2       1.620  28.249 -16.849  1.00 30.69 LIG 0.14  A 
ENDBRANCH 20 21
ENDBRANCH 1 20
TORSDOF 8
ENDMDL
MODEL 11
USER: ADFR SOLUTION from run 23
USER: SCORE 7.585186 LL:  -1.441 LR:  -6.891 RR:   0.000 FEB:  -4.505
USER: RMSD 4.283795
USER: SEED 22
USER: STATUS no improvement in best in 20 clusters for 5 generations
USER: GENES 10
USER: genes 0 Translation |==|  0.61431 0.54965 0.44667
USER: genes 1 Rotation |==|  0.56020 0.66525 0.55824 0.96441
USER: genes 2 Torsion [C]-CA--N-[C] |==|  0.17008
USER: genes 3 Torsion [N]-C--CA-[N] |==|  0.55748
USER: genes 4 Torsion [C]-CA--N-[H3] |==|  0.72894
USER: genes 5 Torsion [N]-CA--C-[N] |==|  0.21612
USER: genes 6 Torsion [C]-N--CA-[CB] |==|  0.17299
USER: genes 7 Torsion [N]-CA--C-[O] |==|  0.08860
USER: genes 8 Torsion [N]-CA--CB-[CG] |==|  0.86647
USER: genes 9 Torsion [CA]-CB--CG-[ND1] |==|  0.16532
ROOT
ATOM      1  CA  HIS F   2       0.600  31.158 -19.939  1.00 30.59 LIG 0.18  C 
ENDROOT
BRANCH 1 2
ATOM      2  N   HIS F   2      -0.149  31.789 -21.030  1.00 30.70 LIG-0.35  N 
ATOM      3  C   ALA F   1      -0.427  33.091 -21.057  1.00 31.15 LIG 0.25  C 
ATOM      4 O    ALA F   1      -0.091  33.879 -20.167  1.00 30.37 LIG-0.27  OA
ATOM      5 H    HIS F   2      -0.391  31.241 -21.649  1.00 30.70 LIG 0.16  HD
BRANCH 3 6
ATOM      6  CA  ALA F   1      -1.212  33.583 -22.280  1.00 31.15 LIG 0.27  C 
ATOM      7  CB  ALA F   1      -1.322  32.758 -23.229  0.00 20.00 LIG 0.05  C 
BRANCH 6 8
ATOM      8  N   ALA F   1      -1.049  35.062 -22.482  1.00 31.97 LIG-0.07  N 
ATOM      9 H3   ALA F   1      -1.746  35.488 -22.130  1.00 31.97 LIG 0.28  HD
ATOM     10 H1   ALA F   1      -0.302  35.336 -22.083  1.00 31.97 LIG 0.28  HD
ATOM     11 H2   ALA F   1      -1.002  35.240 -23.352  1.00 31.97 LIG 0.28  HD
ENDBRANCH 6 8
ENDBRANCH 3 6
ENDBRANCH 1 2
BRANCH 1 12
ATOM     12  C   HIS F   2      -0.139  31.316 -18.604  1.00 31.15 LIG 0.24  C 
ATOM     13 O    HIS F   2       0.226  32.170 -17.774  1.00 30.80 LIG-0.27  OA
ATOM     14  N   ALA F   3      -1.176  30.493 -18.405  1.00 30.97 LIG-0.35  N 
ATOM     15 H    ALA F   3      -1.433  29.906 -18.978  1.00 30.97 LIG 0.16  HD
BRANCH 14 16
ATOM     16  CA  ALA F   3      -1.973  30.520 -17.181  1.00 31.72 LIG 0.16  C 
ATOM     17  CB  ALA F   3      -2.623  31.923 -17.114  0.00 20.00 LIG 0.04  C 
BRANCH 16 18
ATOM     18  C   ALA F   3      -3.262  29.706 -17.273  1.00 32.37 LIG 0.22  C 
ATOM     19 O    ALA F   3      -3.320  28.686 -17.974  1.00 33.75 LIG-0.29  OA
ENDBRANCH 16 18
ENDBRANCH 14 16
ENDBRANCH 1 12
BRANCH 1 20
ATOM     20  CB  HIS F   2       2.007  31.768 -19.829  1.00 30.20 LIG 0.10  C 
BRANCH 20 21
ATOM     21  CG  HIS F   2       2.749  31.871 -21.135  1.00 29.66 LIG 0.06  A 
ATOM     22 ND1  HIS F   2       2.283  32.593 -22.216  1.00 29.25 LIG-0.24  NA
ATOM     23  CE1 HIS F   2       3.130  32.475 -23.227  1.00 27.69 LIG 0.23  A 
ATOM     24 NE2  HIS F   2       4.125  31.687 -22.849  1.00 31.40 LIG-0.25  NA
ATOM     25  CD2 HIS F   2       3.901  31.283 -21.549  1.00 30.69 LIG 0.14  A 
ENDBRANCH 20 21
ENDBRANCH 1 20
TORSDOF 8
ENDMDL
MODEL 12
USER: ADFR SOLUTION from run 73
USER: SCORE 8.010105 LL:  -1.301 LR:  -6.873 RR:   0.000 FEB:  -4.487
USER: RMSD 2.335828
USER: SEED 72
USER: STATUS no improvement in best in 24 clusters for 5 generations
USER: GENES 10
USER: genes 0 Translation |==|  0.57236 0.50626 0.64493
USER: genes 1 Rotation |==|  0.64159 0.47081 0.41199 0.97048
USER: genes 2 Torsion [C]-CA--N-[C] |==|  0.64569
USER: genes 3 Torsion [N]-C--CA-[N] |==|  0.88434
USER: genes 4 Torsion [C]-CA--N-[H3] |==|  0.17703
USER: genes 5 Torsion [N]-CA--C-[N] |==|  0.35556
USER: genes 6 Torsion [C]-N--CA-[CB] |==|  0.23289
USER: genes 7 Torsion [N]-CA--C-[O] |==|  0.38037
USER: genes 8 Torsion [N]-CA--CB-[CG] |==|  0.84192
USER: genes 9 Torsion [CA]-CB--CG-[ND1] |==|  0.28009
ROOT
ATOM      1  CA  HIS F   2      -0.124  30.637 -16.816  1.00 30.59 LIG 0.18  C 
ENDROOT
BRANCH 1 2
ATOM      2  N   HIS F   2       0.522  31.544 -17.771  1.00 30.70 LIG-0.35  N 
ATOM      3  C   ALA F   1       0.672  31.248 -19.060  1.00 31.15 LIG 0.25  C 
ATOM      4 O    ALA F   1       0.293  30.187 -19.565  1.00 30.37 LIG-0.27  OA
ATOM      5 H    HIS F   2       0.793  32.282 -17.420  1.00 30.70 LIG 0.16  HD
BRANCH 3 6
ATOM      6  CA  ALA F   1       1.361  32.318 -19.917  1.00 31.15 LIG 0.27  C 
ATOM      7  CB  ALA F   1       2.545  32.061 -20.268  0.00 20.00 LIG 0.05  C 
BRANCH 6 8
ATOM      8  N   ALA F   1       0.881  33.698 -19.568  1.00 31.97 LIG-0.07  N 
ATOM      9 H3   ALA F   1       1.105  33.887 -18.728  1.00 31.97 LIG 0.28  HD
ATOM     10 H1   ALA F   1       1.256  34.290 -20.116  1.00 31.97 LIG 0.28  HD
ATOM     11 H2   ALA F   1      -0.004  33.735 -19.653  1.00 31.97 LIG 0.28  HD
ENDBRANCH 6 8
ENDBRANCH 3 6
ENDBRANCH 1 2
BRANCH 1 12
ATOM     12  C   HIS F   2      -1.240  31.355 -16.046  1.00 31.15 LIG 0.24  C 
ATOM     13 O    HIS F   2      -1.018  32.436 -15.469  1.00 30.80 LIG-0.27  OA
ATOM     14  N   ALA F   3      -2.434  30.752 -16.044  1.00 30.97 LIG-0.35  N 
ATOM     15 H    ALA F   3      -2.592  30.007 -16.445  1.00 30.97 LIG 0.16  HD
BRANCH 14 16
ATOM     16  CA  ALA F   3      -3.592  31.310 -15.349  1.00 31.72 LIG 0.16  C 
ATOM     17  CB  ALA F   3      -4.226  32.339 -16.316  0.00 20.00 LIG 0.04  C 
BRANCH 16 18
ATOM     18  C   ALA F   3      -4.778  30.351 -15.271  1.00 32.37 LIG 0.22  C 
ATOM     19 O    ALA F   3      -5.428  30.229 -14.223  1.00 33.75 LIG-0.29  OA
ENDBRANCH 16 18
ENDBRANCH 14 16
ENDBRANCH 1 12
BRANCH 1 20
ATOM     20  CB  HIS F   2       0.909  30.072 -15.827  1.00 30.20 LIG 0.10  C 
BRANCH 20 21
ATOM     21  CG  HIS F   2       2.064  29.351 -16.471  1.00 29.66 LIG 0.06  A 
ATOM     22 ND1  HIS F   2       3.309  29.921 -16.648  1.00 29.25 LIG-0.24  NA
ATOM     23  CE1 HIS F   2       4.106  29.062 -17.265  1.00 27.69 LIG 0.23  A 
ATOM     24 NE2  HIS F   2       3.419  27.957 -17.510  1.00 31.40 LIG-0.25  NA
ATOM     25  CD2 HIS F   2       2.133  28.119 -17.038  1.00 30.69 LIG 0.14  A 
ENDBRANCH 20 21
ENDBRANCH 1 20
TORSDOF 8
ENDMDL
MODEL 13
USER: ADFR SOLUTION from run 167
USER: SCORE 7.769614 LL:  -1.392 LR:  -6.837 RR:   0.000 FEB:  -4.451
USER: RMSD 4.377624
USER: SEED 166
USER: STATUS no improvement in best in 14 clusters for 5 generations
USER: GENES 10
USER: genes 0 Translation |==|  0.53492 0.68641 0.46959
USER: genes 1 Rotation |==|  0.64397 0.68522 0.51486 0.94130
USER: genes 2 Torsion [C]-CA--N-[C] |==|  0.61925
USER: genes 3 Torsion [N]-C--CA-[N] |==|  0.29222
USER: genes 4 Torsion [C]-CA--N-[H3] |==|  0.00365
USER: genes 5 Torsion [N]-CA--C-[N] |==|  0.14876
USER: genes 6 Torsion [C]-N--CA-[CB] |==|  0.52238
USER: genes 7 Torsion [N]-CA--C-[O] |==|  0.42925
USER: genes 8 Torsion [N]-CA--CB-[CG] |==|  0.82658
USER: genes 9 Torsion [CA]-CB--CG-[ND1] |==|  0.18139
ROOT
ATOM      1  CA  HIS F   2      -0.770  32.799 -19.578  1.00 30.59 LIG 0.18  C 
ENDROOT
BRANCH 1 2
ATOM      2  N   HIS F   2      -1.457  33.855 -20.329  1.00 30.70 LIG-0.35  N 
ATOM      3  C   ALA F   1      -1.911  33.680 -21.568  1.00 31.15 LIG 0.25  C 
ATOM      4 O    ALA F   1      -1.788  32.625 -22.198  1.00 30.37 LIG-0.27  OA
ATOM      5 H    HIS F   2      -1.539  34.593 -19.895  1.00 30.70 LIG 0.16  HD
BRANCH 3 6
ATOM      6  CA  ALA F   1      -2.615  34.888 -22.199  1.00 31.15 LIG 0.27  C 
ATOM      7  CB  ALA F   1      -3.870  34.803 -22.297  0.00 20.00 LIG 0.05  C 
BRANCH 6 8
ATOM      8  N   ALA F   1      -1.747  35.559 -23.224  1.00 31.97 LIG-0.07  N 
ATOM      9 H3   ALA F   1      -0.977  35.119 -23.296  1.00 31.97 LIG 0.28  HD
ATOM     10 H1   ALA F   1      -2.163  35.560 -24.011  1.00 31.97 LIG 0.28  HD
ATOM     11 H2   ALA F   1      -1.586  36.398 -22.974  1.00 31.97 LIG 0.28  HD
ENDBRANCH 6 8
ENDBRANCH 3 6
ENDBRANCH 1 2
BRANCH 1 12
ATOM     12  C   HIS F   2      -1.260  32.751 -18.125  1.00 31.15 LIG 0.24  C 
ATOM     13 O    HIS F   2      -0.452  32.811 -17.180  1.00 30.80 LIG-0.27  OA
ATOM     14  N   ALA F   3      -2.584  32.646 -17.955  1.00 30.97 LIG-0.35  N 
ATOM     15 H    ALA F   3      -3.145  32.609 -18.606  1.00 30.97 LIG 0.16  HD
BRANCH 14 16
ATOM     16  CA  ALA F   3      -3.201  32.583 -16.632  1.00 31.72 LIG 0.16  C 
ATOM     17  CB  ALA F   3      -4.697  32.259 -16.864  0.00 20.00 LIG 0.04  C 
BRANCH 16 18
ATOM     18  C   ALA F   3      -2.843  31.322 -15.850  1.00 32.37 LIG 0.22  C 
ATOM     19 O    ALA F   3      -2.872  31.313 -14.611  1.00 33.75 LIG-0.29  OA
ENDBRANCH 16 18
ENDBRANCH 14 16
ENDBRANCH 1 12
BRANCH 1 20
ATOM     20  CB  HIS F   2       0.752  33.022 -19.605  1.00 30.20 LIG 0.10  C 
BRANCH 20 21
ATOM     21  CG  HIS F   2       1.368  32.967 -20.978  1.00 29.66 LIG 0.06  A 
ATOM     22 ND1  HIS F   2       1.091  33.886 -21.970  1.00 29.25 LIG-0.24  NA
ATOM     23  CE1 HIS F   2       1.754  33.566 -23.071  1.00 27.69 LIG 0.23  A 
ATOM     24 NE2  HIS F   2       2.443  32.459 -22.835  1.00 31.40 LIG-0.25  NA
ATOM     25  CD2 HIS F   2       2.205  32.056 -21.538  1.00 30.69 LIG 0.14  A 
ENDBRANCH 20 21
ENDBRANCH 1 20
TORSDOF 8
ENDMDL
MODEL 14
USER: ADFR SOLUTION from run 187
USER: SCORE 7.248569 LL:  -1.339 LR:  -6.802 RR:   0.000 FEB:  -4.416
USER: RMSD 3.239478
USER: SEED 186
USER: STATUS no improvement in best in 29 clusters for 5 generations
USER: GENES 10
USER: genes 0 Translation |==|  0.60415 0.54396 0.45040
USER: genes 1 Rotation |==|  0.55710 0.64564 0.54004 0.97321
USER: genes 2 Torsion [C]-CA--N-[C] |==|  0.16657
USER: genes 3 Torsion [N]-C--CA-[N] |==|  0.52636
USER: genes 4 Torsion [C]-CA--N-[H3] |==|  0.75886
USER: genes 5 Torsion [N]-CA--C-[N] |==|  0.23718
USER: genes 6 Torsion [C]-N--CA-[CB] |==|  0.17880
USER: genes 7 Torsion [N]-CA--C-[O] |==|  0.06829
USER: genes 8 Torsion [N]-CA--CB-[CG] |==|  0.61820
USER: genes 9 Torsion [CA]-CB--CG-[ND1] |==|  0.41669
ROOT
ATOM      1  CA  HIS F   2       0.425  31.090 -19.880  1.00 30.59 LIG 0.18  C 
ENDROOT
BRANCH 1 2
ATOM      2  N   HIS F   2      -0.188  31.739 -21.044  1.00 30.70 LIG-0.35  N 
ATOM      3  C   ALA F   1      -0.383  33.054 -21.118  1.00 31.15 LIG 0.25  C 
ATOM      4 O    ALA F   1      -0.077  33.841 -20.216  1.00 30.37 LIG-0.27  OA
ATOM      5 H    HIS F   2      -0.408  31.192 -21.671  1.00 30.70 LIG 0.16  HD
BRANCH 3 6
ATOM      6  CA  ALA F   1      -1.027  33.563 -22.413  1.00 31.15 LIG 0.27  C 
ATOM      7  CB  ALA F   1      -0.911  32.808 -23.417  0.00 20.00 LIG 0.05  C 
BRANCH 6 8
ATOM      8  N   ALA F   1      -0.994  35.062 -22.494  1.00 31.97 LIG-0.07  N 
ATOM      9 H3   ALA F   1      -1.709  35.398 -22.085  1.00 31.97 LIG 0.28  HD
ATOM     10 H1   ALA F   1      -0.256  35.365 -22.099  1.00 31.97 LIG 0.28  HD
ATOM     11 H2   ALA F   1      -0.996  35.313 -23.348  1.00 31.97 LIG 0.28  HD
ENDBRANCH 6 8
ENDBRANCH 3 6
ENDBRANCH 1 2
BRANCH 1 12
ATOM     12  C   HIS F   2      -0.399  31.348 -18.612  1.00 31.15 LIG 0.24  C 
ATOM     13 O    HIS F   2      -0.113  32.291 -17.851  1.00 30.80 LIG-0.27  OA
ATOM     14  N   ALA F   3      -1.419  30.510 -18.392  1.00 30.97 LIG-0.35  N 
ATOM     15 H    ALA F   3      -1.622  29.860 -18.918  1.00 30.97 LIG 0.16  HD
BRANCH 14 16
ATOM     16  CA  ALA F   3      -2.289  30.624 -17.225  1.00 31.72 LIG 0.16  C 
ATOM     17  CB  ALA F   3      -3.028  31.978 -17.362  0.00 20.00 LIG 0.04  C 
BRANCH 16 18
ATOM     18  C   ALA F   3      -3.517  29.719 -17.287  1.00 32.37 LIG 0.22  C 
ATOM     19 O    ALA F   3      -3.512  28.687 -17.973  1.00 33.75 LIG-0.29  OA
ENDBRANCH 16 18
ENDBRANCH 14 16
ENDBRANCH 1 12
BRANCH 1 20
ATOM     20  CB  HIS F   2       1.863  31.594 -19.677  1.00 30.20 LIG 0.10  C 
BRANCH 20 21
ATOM     21  CG  HIS F   2       2.861  30.520 -19.335  1.00 29.66 LIG 0.06  A 
ATOM     22 ND1  HIS F   2       4.196  30.588 -19.683  1.00 29.25 LIG-0.24  NA
ATOM     23  CE1 HIS F   2       4.817  29.492 -19.275  1.00 27.69 LIG 0.23  A 
ATOM     24 NE2  HIS F   2       3.930  28.703 -18.687  1.00 31.40 LIG-0.25  NA
ATOM     25  CD2 HIS F   2       2.695  29.318 -18.726  1.00 30.69 LIG 0.14  A 
ENDBRANCH 20 21
ENDBRANCH 1 20
TORSDOF 8
ENDMDL
MODEL 15
USER: ADFR SOLUTION from run 13
USER: SCORE 7.158027 LL:  -1.487 LR:  -6.788 RR:   0.000 FEB:  -4.402
USER: RMSD 4.247405
USER: SEED 458481
USER: STATUS no improvement in best in 37 clusters for 5 generations
USER: GENES 10
USER: genes 0 Translation |==|  0.51179 0.57823 0.47453
USER: genes 1 Rotation |==|  0.50447 0.38783 0.67884 0.95323
USER: genes 2 Torsion [C]-CA--N-[C] |==|  0.19047
USER: genes 3 Torsion [N]-C--CA-[N] |==|  0.47353
USER: genes 4 Torsion [C]-CA--N-[H3] |==|  0.71128
USER: genes 5 Torsion [N]-CA--C-[N] |==|  0.31368
USER: genes 6 Torsion [C]-N--CA-[CB] |==|  0.42867
USER: genes 7 Torsion [N]-CA--C-[O] |==|  0.79370
USER: genes 8 Torsion [N]-CA--CB-[CG] |==|  0.44044
USER: genes 9 Torsion [CA]-CB--CG-[ND1] |==|  0.76329
ROOT
ATOM      1  CA  HIS F   2      -1.169  31.501 -19.500  1.00 30.59 LIG 0.18  C 
ENDROOT
BRANCH 1 2
ATOM      2  N   HIS F   2      -0.684  32.191 -20.700  1.00 30.70 LIG-0.35  N 
ATOM      3  C   ALA F   1      -1.129  33.389 -21.073  1.00 31.15 LIG 0.25  C 
ATOM      4 O    ALA F   1      -1.992  34.020 -20.454  1.00 30.37 LIG-0.27  OA
ATOM      5 H    HIS F   2      -0.087  31.750 -21.137  1.00 30.70 LIG 0.16  HD
BRANCH 3 6
ATOM      6  CA  ALA F   1      -0.504  33.967 -22.350  1.00 31.15 LIG 0.27  C 
ATOM      7  CB  ALA F   1       0.741  33.803 -22.474  0.00 20.00 LIG 0.05  C 
BRANCH 6 8
ATOM      8  N   ALA F   1      -1.228  35.199 -22.809  1.00 31.97 LIG-0.07  N 
ATOM      9 H3   ALA F   1      -1.741  34.999 -23.508  1.00 31.97 LIG 0.28  HD
ATOM     10 H1   ALA F   1      -1.736  35.510 -22.148  1.00 31.97 LIG 0.28  HD
ATOM     11 H2   ALA F   1      -0.637  35.821 -23.044  1.00 31.97 LIG 0.28  HD
ENDBRANCH 6 8
ENDBRANCH 3 6
ENDBRANCH 1 2
BRANCH 1 12
ATOM     12  C   HIS F   2      -2.629  31.063 -19.672  1.00 31.15 LIG 0.24  C 
ATOM     13 O    HIS F   2      -3.539  31.908 -19.755  1.00 30.80 LIG-0.27  OA
ATOM     14  N   ALA F   3      -2.844  29.743 -19.727  1.00 30.97 LIG-0.35  N 
ATOM     15 H    ALA F   3      -2.217  29.156 -19.675  1.00 30.97 LIG 0.16  HD
BRANCH 14 16
ATOM     16  CA  ALA F   3      -4.180  29.173 -19.882  1.00 31.72 LIG 0.16  C 
ATOM     17  CB  ALA F   3      -3.989  27.786 -20.543  0.00 20.00 LIG 0.04  C 
BRANCH 16 18
ATOM     18  C   ALA F   3      -4.794  28.688 -18.571  1.00 32.37 LIG 0.22  C 
ATOM     19 O    ALA F   3      -4.400  27.643 -18.034  1.00 33.75 LIG-0.29  OA
ENDBRANCH 16 18
ENDBRANCH 14 16
ENDBRANCH 1 12
BRANCH 1 20
ATOM     20  CB  HIS F   2      -1.041  32.411 -18.267  1.00 30.20 LIG 0.10  C 
BRANCH 20 21
ATOM     21  CG  HIS F   2      -1.939  32.038 -17.117  1.00 29.66 LIG 0.06  A 
ATOM     22 ND1  HIS F   2      -3.249  32.461 -17.010  1.00 29.25 LIG-0.24  NA
ATOM     23  CE1 HIS F   2      -3.774  32.001 -15.885  1.00 27.69 LIG 0.23  A 
ATOM     24 NE2  HIS F   2      -2.846  31.305 -15.246  1.00 31.40 LIG-0.25  NA
ATOM     25  CD2 HIS F   2      -1.684  31.327 -15.989  1.00 30.69 LIG 0.14  A 
ENDBRANCH 20 21
ENDBRANCH 1 20
TORSDOF 8
ENDMDL
MODEL 16
USER: ADFR SOLUTION from run 2
USER: SCORE 8.277625 LL:  -1.489 LR:  -6.794 RR:   0.000 FEB:  -4.407
USER: RMSD 4.343053
USER: SEED 886557
USER: STATUS no improvement in best in 28 clusters for 5 generations
USER: GENES 10
USER: genes 0 Translation |==|  0.42039 0.57740 0.43027
USER: genes 1 Rotation |==|  0.69886 0.56175 0.17952 0.82238
USER: genes 2 Torsion [C]-CA--N-[C] |==|  0.82633
USER: genes 3 Torsion [N]-C--CA-[N] |==|  0.45618
USER: genes 4 Torsion [C]-CA--N-[H3] |==|  0.38720
USER: genes 5 Torsion [N]-CA--C-[N] |==|  0.40555
USER: genes 6 Torsion [C]-N--CA-[CB] |==|  0.54221
USER: genes 7 Torsion [N]-CA--C-[O] |==|  0.62481
USER: genes 8 Torsion [N]-CA--CB-[CG] |==|  0.50171
USER: genes 9 Torsion [CA]-CB--CG-[ND1] |==|  0.29272
ROOT
ATOM      1  CA  HIS F   2      -2.745  31.491 -20.197  1.00 30.59 LIG 0.18  C 
ENDROOT
BRANCH 1 2
ATOM      2  N   HIS F   2      -1.875  32.186 -21.152  1.00 30.70 LIG-0.35  N 
ATOM      3  C   ALA F   1      -1.945  33.498 -21.369  1.00 31.15 LIG 0.25  C 
ATOM      4 O    ALA F   1      -2.749  34.242 -20.799  1.00 30.37 LIG-0.27  OA
ATOM      5 H    HIS F   2      -1.319  31.668 -21.556  1.00 30.70 LIG 0.16  HD
BRANCH 3 6
ATOM      6  CA  ALA F   1      -0.952  34.060 -22.395  1.00 31.15 LIG 0.27  C 
ATOM      7  CB  ALA F   1       0.246  33.688 -22.259  0.00 20.00 LIG 0.05  C 
BRANCH 6 8
ATOM      8  N   ALA F   1      -1.347  35.435 -22.849  1.00 31.97 LIG-0.07  N 
ATOM      9 H3   ALA F   1      -0.622  35.946 -22.916  1.00 31.97 LIG 0.28  HD
ATOM     10 H1   ALA F   1      -1.747  35.383 -23.642  1.00 31.97 LIG 0.28  HD
ATOM     11 H2   ALA F   1      -1.908  35.793 -22.259  1.00 31.97 LIG 0.28  HD
ENDBRANCH 6 8
ENDBRANCH 3 6
ENDBRANCH 1 2
BRANCH 1 12
ATOM     12  C   HIS F   2      -2.511  32.002 -18.770  1.00 31.15 LIG 0.24  C 
ATOM     13 O    HIS F   2      -1.377  32.361 -18.402  1.00 30.80 LIG-0.27  OA
ATOM     14  N   ALA F   3      -3.586  32.034 -17.973  1.00 30.97 LIG-0.35  N 
ATOM     15 H    ALA F   3      -4.372  31.791 -18.225  1.00 30.97 LIG 0.16  HD
BRANCH 14 16
ATOM     16  CA  ALA F   3      -3.521  32.490 -16.587  1.00 31.72 LIG 0.16  C 
ATOM     17  CB  ALA F   3      -4.831  32.018 -15.910  0.00 20.00 LIG 0.04  C 
BRANCH 16 18
ATOM     18  C   ALA F   3      -2.550  31.687 -15.725  1.00 32.37 LIG 0.22  C 
ATOM     19 O    ALA F   3      -2.872  31.308 -14.590  1.00 33.75 LIG-0.29  OA
ENDBRANCH 16 18
ENDBRANCH 14 16
ENDBRANCH 1 12
BRANCH 1 20
ATOM     20  CB  HIS F   2      -2.501  29.973 -20.252  1.00 30.20 LIG 0.10  C 
BRANCH 20 21
ATOM     21  CG  HIS F   2      -3.360  29.166 -19.315  1.00 29.66 LIG 0.06  A 
ATOM     22 ND1  HIS F   2      -4.433  28.407 -19.736  1.00 29.25 LIG-0.24  NA
ATOM     23  CE1 HIS F   2      -5.012  27.837 -18.691  1.00 27.69 LIG 0.23  A 
ATOM     24 NE2  HIS F   2      -4.362  28.211 -17.599  1.00 31.40 LIG-0.25  NA
ATOM     25  CD2 HIS F   2      -3.334  29.057 -17.962  1.00 30.69 LIG 0.14  A 
ENDBRANCH 20 21
ENDBRANCH 1 20
TORSDOF 8
ENDMDL
MODEL 17
USER: ADFR SOLUTION from run 12
USER: SCORE 7.666885 LL:  -1.153 LR:  -6.739 RR:   0.000 FEB:  -4.352
USER: RMSD 3.121489
USER: SEED 507959
USER: STATUS no improvement in best in 20 clusters for 5 generations
USER: GENES 10
USER: genes 0 Translation |==|  0.54271 0.43744 0.55774
USER: genes 1 Rotation |==|  0.72175 0.39308 0.61663 0.91928
USER: genes 2 Torsion [C]-CA--N-[C] |==|  0.76666
USER: genes 3 Torsion [N]-C--CA-[N] |==|  0.06840
USER: genes 4 Torsion [C]-CA--N-[H3] |==|  0.18836
USER: genes 5 Torsion [N]-CA--C-[N] |==|  0.24152
USER: genes 6 Torsion [C]-N--CA-[CB] |==|  0.53853
USER: genes 7 Torsion [N]-CA--C-[O] |==|  0.21875
USER: genes 8 Torsion [N]-CA--CB-[CG] |==|  0.74929
USER: genes 9 Torsion [CA]-CB--CG-[ND1] |==|  0.30540
ROOT
ATOM      1  CA  HIS F   2      -0.635  29.811 -18.190  1.00 30.59 LIG 0.18  C 
ENDROOT
BRANCH 1 2
ATOM      2  N   HIS F   2      -0.430  31.225 -18.522  1.00 30.70 LIG-0.35  N 
ATOM      3  C   ALA F   1      -0.342  31.666 -19.776  1.00 31.15 LIG 0.25  C 
ATOM      4 O    ALA F   1      -0.416  30.930 -20.765  1.00 30.37 LIG-0.27  OA
ATOM      5 H    HIS F   2      -0.372  31.739 -17.835  1.00 30.70 LIG 0.16  HD
BRANCH 3 6
ATOM      6  CA  ALA F   1      -0.137  33.177 -19.940  1.00 31.15 LIG 0.27  C 
ATOM      7  CB  ALA F   1       0.085  33.576 -21.116  0.00 20.00 LIG 0.05  C 
BRANCH 6 8
ATOM      8  N   ALA F   1       0.503  33.783 -18.724  1.00 31.97 LIG-0.07  N 
ATOM      9 H3   ALA F   1       1.340  33.489 -18.651  1.00 31.97 LIG 0.28  HD
ATOM     10 H1   ALA F   1       0.506  34.669 -18.800  1.00 31.97 LIG 0.28  HD
ATOM     11 H2   ALA F   1       0.043  33.550 -17.999  1.00 31.97 LIG 0.28  HD
ENDBRANCH 6 8
ENDBRANCH 3 6
ENDBRANCH 1 2
BRANCH 1 12
ATOM     12  C   HIS F   2      -2.125  29.448 -18.240  1.00 31.15 LIG 0.24  C 
ATOM     13 O    HIS F   2      -2.827  29.502 -17.213  1.00 30.80 LIG-0.27  OA
ATOM     14  N   ALA F   3      -2.600  29.080 -19.436  1.00 30.97 LIG-0.35  N 
ATOM     15 H    ALA F   3      -2.119  29.045 -20.148  1.00 30.97 LIG 0.16  HD
BRANCH 14 16
ATOM     16  CA  ALA F   3      -3.996  28.698 -19.641  1.00 31.72 LIG 0.16  C 
ATOM     17  CB  ALA F   3      -4.061  28.015 -21.028  0.00 20.00 LIG 0.04  C 
BRANCH 16 18
ATOM     18  C   ALA F   3      -4.430  27.497 -18.805  1.00 32.37 LIG 0.22  C 
ATOM     19 O    ALA F   3      -4.709  27.626 -17.604  1.00 33.75 LIG-0.29  OA
ENDBRANCH 16 18
ENDBRANCH 14 16
ENDBRANCH 1 12
BRANCH 1 20
ATOM     20  CB  HIS F   2      -0.071  29.499 -16.793  1.00 30.20 LIG 0.10  C 
BRANCH 20 21
ATOM     21  CG  HIS F   2       1.369  29.059 -16.784  1.00 29.66 LIG 0.06  A 
ATOM     22 ND1  HIS F   2       2.395  29.835 -16.283  1.00 29.25 LIG-0.24  NA
ATOM     23  CE1 HIS F   2       3.547  29.200 -16.437  1.00 27.69 LIG 0.23  A 
ATOM     24 NE2  HIS F   2       3.310  28.043 -17.035  1.00 31.40 LIG-0.25  NA
ATOM     25  CD2 HIS F   2       1.956  27.938 -17.278  1.00 30.69 LIG 0.14  A 
ENDBRANCH 20 21
ENDBRANCH 1 20
TORSDOF 8
ENDMDL
MODEL 18
USER: ADFR SOLUTION from run 170
USER: SCORE 8.108657 LL:  -1.433 LR:  -6.731 RR:   0.000 FEB:  -4.344
USER: RMSD 3.156098
USER: SEED 169
USER: STATUS no improvement in best in 25 clusters for 5 generations
USER: GENES 10
USER: genes 0 Translation |==|  0.47546 0.70407 0.48032
USER: genes 1 Rotation |==|  0.62078 0.56684 0.50642 0.98052
USER: genes 2 Torsion [C]-CA--N-[C] |==|  0.78579
USER: genes 3 Torsion [N]-C--CA-[N] |==|  0.11043
USER: genes 4 Torsion [C]-CA--N-[H3] |==|  0.55150
USER: genes 5 Torsion [N]-CA--C-[N] |==|  0.45796
USER: genes 6 Torsion [C]-N--CA-[CB] |==|  0.25626
USER: genes 7 Torsion [N]-CA--C-[O] |==|  0.18203
USER: genes 8 Torsion [N]-CA--CB-[CG] |==|  0.51623
USER: genes 9 Torsion [CA]-CB--CG-[ND1] |==|  0.19886
ROOT
ATOM      1  CA  HIS F   2      -1.795  33.011 -19.409  1.00 30.59 LIG 0.18  C 
ENDROOT
BRANCH 1 2
ATOM      2  N   HIS F   2      -1.896  34.004 -20.484  1.00 30.70 LIG-0.35  N 
ATOM      3  C   ALA F   1      -2.814  33.935 -21.446  1.00 31.15 LIG 0.25  C 
ATOM      4 O    ALA F   1      -3.651  33.031 -21.528  1.00 30.37 LIG-0.27  OA
ATOM      5 H    HIS F   2      -1.310  34.631 -20.433  1.00 30.70 LIG 0.16  HD
BRANCH 3 6
ATOM      6  CA  ALA F   1      -2.780  35.064 -22.484  1.00 31.15 LIG 0.27  C 
ATOM      7  CB  ALA F   1      -3.741  35.087 -23.301  0.00 20.00 LIG 0.05  C 
BRANCH 6 8
ATOM      8  N   ALA F   1      -1.372  35.437 -22.849  1.00 31.97 LIG-0.07  N 
ATOM      9 H3   ALA F   1      -1.366  36.242 -23.227  1.00 31.97 LIG 0.28  HD
ATOM     10 H1   ALA F   1      -0.868  35.450 -22.115  1.00 31.97 LIG 0.28  HD
ATOM     11 H2   ALA F   1      -1.045  34.839 -23.421  1.00 31.97 LIG 0.28  HD
ENDBRANCH 6 8
ENDBRANCH 3 6
ENDBRANCH 1 2
BRANCH 1 12
ATOM     12  C   HIS F   2      -2.882  33.238 -18.350  1.00 31.15 LIG 0.24  C 
ATOM     13 O    HIS F   2      -3.516  34.308 -18.311  1.00 30.80 LIG-0.27  OA
ATOM     14  N   ALA F   3      -3.092  32.227 -17.498  1.00 30.97 LIG-0.35  N 
ATOM     15 H    ALA F   3      -2.659  31.484 -17.525  1.00 30.97 LIG 0.16  HD
BRANCH 14 16
ATOM     16  CA  ALA F   3      -4.089  32.296 -16.432  1.00 31.72 LIG 0.16  C 
ATOM     17  CB  ALA F   3      -5.393  31.700 -17.015  0.00 20.00 LIG 0.04  C 
BRANCH 16 18
ATOM     18  C   ALA F   3      -3.874  31.264 -15.327  1.00 32.37 LIG 0.22  C 
ATOM     19 O    ALA F   3      -2.872  31.312 -14.599  1.00 33.75 LIG-0.29  OA
ENDBRANCH 16 18
ENDBRANCH 14 16
ENDBRANCH 1 12
BRANCH 1 20
ATOM     20  CB  HIS F   2      -0.407  33.070 -18.750  1.00 30.20 LIG 0.10  C 
BRANCH 20 21
ATOM     21  CG  HIS F   2      -0.154  31.996 -17.725  1.00 29.66 LIG 0.06  A 
ATOM     22 ND1  HIS F   2       0.039  30.668 -18.051  1.00 29.25 LIG-0.24  NA
ATOM     23  CE1 HIS F   2       0.208  29.959 -16.946  1.00 27.69 LIG 0.23  A 
ATOM     24 NE2  HIS F   2       0.115  30.776 -15.908  1.00 31.40 LIG-0.25  NA
ATOM     25  CD2 HIS F   2      -0.128  32.054 -16.369  1.00 30.69 LIG 0.14  A 
ENDBRANCH 20 21
ENDBRANCH 1 20
TORSDOF 8
ENDMDL
MODEL 19
USER: ADFR SOLUTION from run 177
USER: SCORE 8.305111 LL:  -1.687 LR:  -6.717 RR:   0.000 FEB:  -4.330
USER: RMSD 3.750874
USER: SEED 176
USER: STATUS no improvement in best in 17 clusters for 5 generations
USER: GENES 10
USER: genes 0 Translation |==|  0.57961 0.67578 0.54762
USER: genes 1 Rotation |==|  0.03042 0.56904 0.62581 0.59432
USER: genes 2 Torsion [C]-CA--N-[C] |==|  0.14083
USER: genes 3 Torsion [N]-C--CA-[N] |==|  0.42392
USER: genes 4 Torsion [C]-CA--N-[H3] |==|  0.93590
USER: genes 5 Torsion [N]-CA--C-[N] |==|  0.10019
USER: genes 6 Torsion [C]-N--CA-[CB] |==|  0.18485
USER: genes 7 Torsion [N]-CA--C-[O] |==|  0.00616
USER: genes 8 Torsion [N]-CA--CB-[CG] |==|  0.94072
USER: genes 9 Torsion [CA]-CB--CG-[ND1] |==|  0.87688
ROOT
ATOM      1  CA  HIS F   2       0.001  32.671 -18.349  1.00 30.59 LIG 0.18  C 
ENDROOT
BRANCH 1 2
ATOM      2  N   HIS F   2       0.675  31.708 -17.472  1.00 30.70 LIG-0.35  N 
ATOM      3  C   ALA F   1       0.398  30.405 -17.484  1.00 31.15 LIG 0.25  C 
ATOM      4 O    ALA F   1      -0.451  29.894 -18.221  1.00 30.37 LIG-0.27  OA
ATOM      5 H    HIS F   2       1.262  32.062 -16.953  1.00 30.70 LIG 0.16  HD
BRANCH 3 6
ATOM      6  CA  ALA F   1       1.206  29.541 -16.507  1.00 31.15 LIG 0.27  C 
ATOM      7  CB  ALA F   1       2.458  29.568 -16.658  0.00 20.00 LIG 0.05  C 
BRANCH 6 8
ATOM      8  N   ALA F   1       0.446  28.312 -16.099  1.00 31.97 LIG-0.07  N 
ATOM      9 H3   ALA F   1      -0.426  28.451 -16.210  1.00 31.97 LIG 0.28  HD
ATOM     10 H1   ALA F   1       0.703  27.623 -16.601  1.00 31.97 LIG 0.28  HD
ATOM     11 H2   ALA F   1       0.610  28.132 -15.243  1.00 31.97 LIG 0.28  HD
ENDBRANCH 6 8
ENDBRANCH 3 6
ENDBRANCH 1 2
BRANCH 1 12
ATOM     12  C   HIS F   2      -1.523  32.518 -18.263  1.00 31.15 LIG 0.24  C 
ATOM     13 O    HIS F   2      -2.235  32.677 -19.272  1.00 30.80 LIG-0.27  OA
ATOM     14  N   ALA F   3      -2.015  32.208 -17.058  1.00 30.97 LIG-0.35  N 
ATOM     15 H    ALA F   3      -1.526  32.093 -16.359  1.00 30.97 LIG 0.16  HD
BRANCH 14 16
ATOM     16  CA  ALA F   3      -3.446  32.035 -16.816  1.00 31.72 LIG 0.16  C 
ATOM     17  CB  ALA F   3      -3.873  30.776 -17.609  0.00 20.00 LIG 0.04  C 
BRANCH 16 18
ATOM     18  C   ALA F   3      -3.771  31.513 -15.420  1.00 32.37 LIG 0.22  C 
ATOM     19 O    ALA F   3      -2.872  31.312 -14.591  1.00 33.75 LIG-0.29  OA
ENDBRANCH 16 18
ENDBRANCH 14 16
ENDBRANCH 1 12
BRANCH 1 20
ATOM     20  CB  HIS F   2       0.461  32.487 -19.805  1.00 30.20 LIG 0.10  C 
BRANCH 20 21
ATOM     21  CG  HIS F   2       1.784  31.787 -19.961  1.00 29.66 LIG 0.06  A 
ATOM     22 ND1  HIS F   2       2.891  32.079 -19.188  1.00 29.25 LIG-0.24  NA
ATOM     23  CE1 HIS F   2       3.911  31.327 -19.572  1.00 27.69 LIG 0.23  A 
ATOM     24 NE2  HIS F   2       3.513  30.565 -20.580  1.00 31.40 LIG-0.25  NA
ATOM     25  CD2 HIS F   2       2.190  30.847 -20.853  1.00 30.69 LIG 0.14  A 
ENDBRANCH 20 21
ENDBRANCH 1 20
TORSDOF 8
ENDMDL
MODEL 20
USER: ADFR SOLUTION from run 128
USER: SCORE 7.091743 LL:  -1.308 LR:  -6.698 RR:   0.000 FEB:  -4.311
USER: RMSD 3.229509
USER: SEED 127
USER: STATUS no improvement in best in 31 clusters for 5 generations
USER: GENES 10
USER: genes 0 Translation |==|  0.56228 0.54627 0.43365
USER: genes 1 Rotation |==|  0.56028 0.54886 0.64794 0.97127
USER: genes 2 Torsion [C]-CA--N-[C] |==|  0.20968
USER: genes 3 Torsion [N]-C--CA-[N] |==|  0.54566
USER: genes 4 Torsion [C]-CA--N-[H3] |==|  0.21586
USER: genes 5 Torsion [N]-CA--C-[N] |==|  0.44576
USER: genes 6 Torsion [C]-N--CA-[CB] |==|  0.86241
USER: genes 7 Torsion [N]-CA--C-[O] |==|  0.37376
USER: genes 8 Torsion [N]-CA--CB-[CG] |==|  0.42540
USER: genes 9 Torsion [CA]-CB--CG-[ND1] |==|  0.74583
ROOT
ATOM      1  CA  HIS F   2      -0.298  31.117 -20.144  1.00 30.59 LIG 0.18  C 
ENDROOT
BRANCH 1 2
ATOM      2  N   HIS F   2      -0.642  31.800 -21.396  1.00 30.70 LIG-0.35  N 
ATOM      3  C   ALA F   1      -1.002  33.081 -21.444  1.00 31.15 LIG 0.25  C 
ATOM      4 O    ALA F   1      -1.088  33.804 -20.446  1.00 30.37 LIG-0.27  OA
ATOM      5 H    HIS F   2      -0.589  31.297 -22.092  1.00 30.70 LIG 0.16  HD
BRANCH 3 6
ATOM      6  CA  ALA F   1      -1.317  33.635 -22.839  1.00 31.15 LIG 0.27  C 
ATOM      7  CB  ALA F   1      -0.922  32.933 -23.810  0.00 20.00 LIG 0.05  C 
BRANCH 6 8
ATOM      8  N   ALA F   1      -1.321  35.137 -22.849  1.00 31.97 LIG-0.07  N 
ATOM      9 H3   ALA F   1      -0.483  35.436 -22.857  1.00 31.97 LIG 0.28  HD
ATOM     10 H1   ALA F   1      -1.747  35.428 -23.574  1.00 31.97 LIG 0.28  HD
ATOM     11 H2   ALA F   1      -1.736  35.437 -22.122  1.00 31.97 LIG 0.28  HD
ENDBRANCH 6 8
ENDBRANCH 3 6
ENDBRANCH 1 2
BRANCH 1 12
ATOM     12  C   HIS F   2      -1.558  30.799 -19.330  1.00 31.15 LIG 0.24  C 
ATOM     13 O    HIS F   2      -2.624  31.405 -19.546  1.00 30.80 LIG-0.27  OA
ATOM     14  N   ALA F   3      -1.431  29.847 -18.398  1.00 30.97 LIG-0.35  N 
ATOM     15 H    ALA F   3      -0.697  29.422 -18.249  1.00 30.97 LIG 0.16  HD
BRANCH 14 16
ATOM     16  CA  ALA F   3      -2.540  29.437 -17.539  1.00 31.72 LIG 0.16  C 
ATOM     17  CB  ALA F   3      -3.146  30.739 -16.959  0.00 20.00 LIG 0.04  C 
BRANCH 16 18
ATOM     18  C   ALA F   3      -3.770  28.970 -18.311  1.00 32.37 LIG 0.22  C 
ATOM     19 O    ALA F   3      -4.372  27.937 -17.984  1.00 33.75 LIG-0.29  OA
ENDBRANCH 16 18
ENDBRANCH 14 16
ENDBRANCH 1 12
BRANCH 1 20
ATOM     20  CB  HIS F   2       0.659  31.981 -19.305  1.00 30.20 LIG 0.10  C 
BRANCH 20 21
ATOM     21  CG  HIS F   2       0.586  31.735 -17.821  1.00 29.66 LIG 0.06  A 
ATOM     22 ND1  HIS F   2      -0.245  32.444 -16.976  1.00 29.25 LIG-0.24  NA
ATOM     23  CE1 HIS F   2      -0.071  32.029 -15.730  1.00 27.69 LIG 0.23  A 
ATOM     24 NE2  HIS F   2       0.858  31.085 -15.732  1.00 31.40 LIG-0.25  NA
ATOM     25  CD2 HIS F   2       1.296  30.894 -17.026  1.00 30.69 LIG 0.14  A 
ENDBRANCH 20 21
ENDBRANCH 1 20
TORSDOF 8
ENDMDL
MODEL 21
USER: ADFR SOLUTION from run 88
USER: SCORE 7.305485 LL:  -1.181 LR:  -6.671 RR:   0.000 FEB:  -4.284
USER: RMSD 5.617176
USER: SEED 87
USER: STATUS no improvement in best in 32 clusters for 5 generations
USER: GENES 10
USER: genes 0 Translation |==|  0.52330 0.62134 0.53700
USER: genes 1 Rotation |==|  0.39734 0.36703 0.97092 0.50347
USER: genes 2 Torsion [C]-CA--N-[C] |==|  0.59279
USER: genes 3 Torsion [N]-C--CA-[N] |==|  0.44623
USER: genes 4 Torsion [C]-CA--N-[H3] |==|  0.18977
USER: genes 5 Torsion [N]-CA--C-[N] |==|  0.18331
USER: genes 6 Torsion [C]-N--CA-[CB] |==|  0.86076
USER: genes 7 Torsion [N]-CA--C-[O] |==|  0.75416
USER: genes 8 Torsion [N]-CA--CB-[CG] |==|  0.65980
USER: genes 9 Torsion [CA]-CB--CG-[ND1] |==|  0.68665
ROOT
ATOM      1  CA  HIS F   2      -0.970  32.018 -18.516  1.00 30.59 LIG 0.18  C 
ENDROOT
BRANCH 1 2
ATOM      2  N   HIS F   2      -0.629  32.427 -19.883  1.00 30.70 LIG-0.35  N 
ATOM      3  C   ALA F   1      -0.906  33.637 -20.364  1.00 31.15 LIG 0.25  C 
ATOM      4 O    ALA F   1      -1.480  34.516 -19.713  1.00 30.37 LIG-0.27  OA
ATOM      5 H    HIS F   2      -0.235  31.815 -20.341  1.00 30.70 LIG 0.16  HD
BRANCH 3 6
ATOM      6  CA  ALA F   1      -0.468  33.898 -21.811  1.00 31.15 LIG 0.27  C 
ATOM      7  CB  ALA F   1       0.734  33.624 -22.079  0.00 20.00 LIG 0.05  C 
BRANCH 6 8
ATOM      8  N   ALA F   1      -1.207  35.060 -22.411  1.00 31.97 LIG-0.07  N 
ATOM      9 H3   ALA F   1      -0.954  35.812 -22.009  1.00 31.97 LIG 0.28  HD
ATOM     10 H1   ALA F   1      -1.024  35.111 -23.280  1.00 31.97 LIG 0.28  HD
ATOM     11 H2   ALA F   1      -2.082  34.945 -22.300  1.00 31.97 LIG 0.28  HD
ENDBRANCH 6 8
ENDBRANCH 3 6
ENDBRANCH 1 2
BRANCH 1 12
ATOM     12  C   HIS F   2       0.078  31.048 -17.957  1.00 31.15 LIG 0.24  C 
ATOM     13 O    HIS F   2      -0.221  29.865 -17.707  1.00 30.80 LIG-0.27  OA
ATOM     14  N   ALA F   3       1.303  31.553 -17.765  1.00 30.97 LIG-0.35  N 
ATOM     15 H    ALA F   3       1.514  32.368 -17.941  1.00 30.97 LIG 0.16  HD
BRANCH 14 16
ATOM     16  CA  ALA F   3       2.405  30.754 -17.233  1.00 31.72 LIG 0.16  C 
ATOM     17  CB  ALA F   3       1.866  30.064 -15.956  0.00 20.00 LIG 0.04  C 
BRANCH 16 18
ATOM     18  C   ALA F   3       2.689  29.490 -18.040  1.00 32.37 LIG 0.22  C 
ATOM     19 O    ALA F   3       2.101  28.429 -17.786  1.00 33.75 LIG-0.29  OA
ENDBRANCH 16 18
ENDBRANCH 14 16
ENDBRANCH 1 12
BRANCH 1 20
ATOM     20  CB  HIS F   2      -2.359  31.358 -18.483  1.00 30.20 LIG 0.10  C 
BRANCH 20 21
ATOM     21  CG  HIS F   2      -3.344  32.020 -17.556  1.00 29.66 LIG 0.06  A 
ATOM     22 ND1  HIS F   2      -3.831  31.418 -16.413  1.00 29.25 LIG-0.24  NA
ATOM     23  CE1 HIS F   2      -4.698  32.224 -15.821  1.00 27.69 LIG 0.23  A 
ATOM     24 NE2  HIS F   2      -4.807  33.326 -16.548  1.00 31.40 LIG-0.25  NA
ATOM     25  CD2 HIS F   2      -3.982  33.215 -17.648  1.00 30.69 LIG 0.14  A 
ENDBRANCH 20 21
ENDBRANCH 1 20
TORSDOF 8
ENDMDL
MODEL 22
USER: ADFR SOLUTION from run 176
USER: SCORE 7.856168 LL:  -1.270 LR:  -6.650 RR:   0.000 FEB:  -4.264
USER: RMSD 5.742619
USER: SEED 175
USER: STATUS no improvement in best in 24 clusters for 5 generations
USER: GENES 10
USER: genes 0 Translation |==|  0.38552 0.75865 0.49070
USER: genes 1 Rotation |==|  0.34072 0.40205 0.94079 0.64400
USER: genes 2 Torsion [C]-CA--N-[C] |==|  0.76962
USER: genes 3 Torsion [N]-C--CA-[N] |==|  0.20845
USER: genes 4 Torsion [C]-CA--N-[H3] |==|  0.64025
USER: genes 5 Torsion [N]-CA--C-[N] |==|  0.45772
USER: genes 6 Torsion [C]-N--CA-[CB] |==|  0.50294
USER: genes 7 Torsion [N]-CA--C-[O] |==|  0.36740
USER: genes 8 Torsion [N]-CA--CB-[CG] |==|  0.58681
USER: genes 9 Torsion [CA]-CB--CG-[ND1] |==|  0.28899
ROOT
ATOM      1  CA  HIS F   2      -3.347  33.666 -19.246  1.00 30.59 LIG 0.18  C 
ENDROOT
BRANCH 1 2
ATOM      2  N   HIS F   2      -2.712  33.777 -20.563  1.00 30.70 LIG-0.35  N 
ATOM      3  C   ALA F   1      -1.420  34.059 -20.721  1.00 31.15 LIG 0.25  C 
ATOM      4 O    ALA F   1      -0.646  34.261 -19.780  1.00 30.37 LIG-0.27  OA
ATOM      5 H    HIS F   2      -3.251  33.642 -21.221  1.00 30.70 LIG 0.16  HD
BRANCH 3 6
ATOM      6  CA  ALA F   1      -0.923  34.126 -22.170  1.00 31.15 LIG 0.27  C 
ATOM      7  CB  ALA F   1       0.186  33.567 -22.396  0.00 20.00 LIG 0.05  C 
BRANCH 6 8
ATOM      8  N   ALA F   1      -1.368  35.389 -22.849  1.00 31.97 LIG-0.07  N 
ATOM      9 H3   ALA F   1      -1.747  35.190 -23.629  1.00 31.97 LIG 0.28  HD
ATOM     10 H1   ALA F   1      -1.957  35.812 -22.333  1.00 31.97 LIG 0.28  HD
ATOM     11 H2   ALA F   1      -0.664  35.916 -22.987  1.00 31.97 LIG 0.28  HD
ENDBRANCH 6 8
ENDBRANCH 3 6
ENDBRANCH 1 2
BRANCH 1 12
ATOM     12  C   HIS F   2      -3.122  32.272 -18.645  1.00 31.15 LIG 0.24  C 
ATOM     13 O    HIS F   2      -2.729  31.330 -19.357  1.00 30.80 LIG-0.27  OA
ATOM     14  N   ALA F   3      -3.373  32.149 -17.336  1.00 30.97 LIG-0.35  N 
ATOM     15 H    ALA F   3      -3.641  32.799 -16.840  1.00 30.97 LIG 0.16  HD
BRANCH 14 16
ATOM     16  CA  ALA F   3      -3.212  30.884 -16.623  1.00 31.72 LIG 0.16  C 
ATOM     17  CB  ALA F   3      -3.623  31.155 -15.155  0.00 20.00 LIG 0.04  C 
BRANCH 16 18
ATOM     18  C   ALA F   3      -4.294  29.857 -16.948  1.00 32.37 LIG 0.22  C 
ATOM     19 O    ALA F   3      -3.997  28.687 -17.227  1.00 33.75 LIG-0.29  OA
ENDBRANCH 16 18
ENDBRANCH 14 16
ENDBRANCH 1 12
BRANCH 1 20
ATOM     20  CB  HIS F   2      -4.855  33.951 -19.348  1.00 30.20 LIG 0.10  C 
BRANCH 20 21
ATOM     21  CG  HIS F   2      -5.458  34.581 -18.121  1.00 29.66 LIG 0.06  A 
ATOM     22 ND1  HIS F   2      -5.792  35.919 -18.043  1.00 29.25 LIG-0.24  NA
ATOM     23  CE1 HIS F   2      -6.272  36.187 -16.838  1.00 27.69 LIG 0.23  A 
ATOM     24 NE2  HIS F   2      -6.247  35.073 -16.122  1.00 31.40 LIG-0.25  NA
ATOM     25  CD2 HIS F   2      -5.727  34.058 -16.897  1.00 30.69 LIG 0.14  A 
ENDBRANCH 20 21
ENDBRANCH 1 20
TORSDOF 8
ENDMDL
MODEL 23
USER: ADFR SOLUTION from run 133
USER: SCORE 7.131574 LL:  -1.227 LR:  -6.632 RR:   0.000 FEB:  -4.245
USER: RMSD 2.742671
USER: SEED 132
USER: STATUS no improvement in best in 39 clusters for 5 generations
USER: GENES 10
USER: genes 0 Translation |==|  0.52314 0.44098 0.55119
USER: genes 1 Rotation |==|  0.71929 0.40573 0.56109 0.93508
USER: genes 2 Torsion [C]-CA--N-[C] |==|  0.65000
USER: genes 3 Torsion [N]-C--CA-[N] |==|  0.07643
USER: genes 4 Torsion [C]-CA--N-[H3] |==|  0.05333
USER: genes 5 Torsion [N]-CA--C-[N] |==|  0.71644
USER: genes 6 Torsion [C]-N--CA-[CB] |==|  0.82303
USER: genes 7 Torsion [N]-CA--C-[O] |==|  0.12107
USER: genes 8 Torsion [N]-CA--CB-[CG] |==|  0.05009
USER: genes 9 Torsion [CA]-CB--CG-[ND1] |==|  0.63811
ROOT
ATOM      1  CA  HIS F   2      -0.973  29.854 -18.293  1.00 30.59 LIG 0.18  C 
ENDROOT
BRANCH 1 2
ATOM      2  N   HIS F   2      -0.570  31.212 -18.673  1.00 30.70 LIG-0.35  N 
ATOM      3  C   ALA F   1       0.166  31.471 -19.752  1.00 31.15 LIG 0.25  C 
ATOM      4 O    ALA F   1       0.583  30.598 -20.520  1.00 30.37 LIG-0.27  OA
ATOM      5 H    HIS F   2      -0.853  31.821 -18.136  1.00 30.70 LIG 0.16  HD
BRANCH 3 6
ATOM      6  CA  ALA F   1       0.487  32.950 -20.004  1.00 31.15 LIG 0.27  C 
ATOM      7  CB  ALA F   1       1.253  33.187 -20.978  0.00 20.00 LIG 0.05  C 
BRANCH 6 8
ATOM      8  N   ALA F   1       0.503  33.736 -18.725  1.00 31.97 LIG-0.07  N 
ATOM      9 H3   ALA F   1       0.601  33.182 -18.036  1.00 31.97 LIG 0.28  HD
ATOM     10 H1   ALA F   1       1.180  34.314 -18.740  1.00 31.97 LIG 0.28  HD
ATOM     11 H2   ALA F   1      -0.263  34.182 -18.640  1.00 31.97 LIG 0.28  HD
ENDBRANCH 6 8
ENDBRANCH 3 6
ENDBRANCH 1 2
BRANCH 1 12
ATOM     12  C   HIS F   2      -2.494  29.764 -18.112  1.00 31.15 LIG 0.24  C 
ATOM     13 O    HIS F   2      -3.247  29.691 -19.101  1.00 30.80 LIG-0.27  OA
ATOM     14  N   ALA F   3      -2.937  29.769 -16.849  1.00 30.97 LIG-0.35  N 
ATOM     15 H    ALA F   3      -2.419  29.814 -16.164  1.00 30.97 LIG 0.16  HD
BRANCH 14 16
ATOM     16  CA  ALA F   3      -4.358  29.695 -16.517  1.00 31.72 LIG 0.16  C 
ATOM     17  CB  ALA F   3      -5.006  30.979 -17.090  0.00 20.00 LIG 0.04  C 
BRANCH 16 18
ATOM     18  C   ALA F   3      -5.131  28.686 -17.361  1.00 32.37 LIG 0.22  C 
ATOM     19 O    ALA F   3      -4.664  27.563 -17.596  1.00 33.75 LIG-0.29  OA
ENDBRANCH 16 18
ENDBRANCH 14 16
ENDBRANCH 1 12
BRANCH 1 20
ATOM     20  CB  HIS F   2      -0.269  29.427 -16.993  1.00 30.20 LIG 0.10  C 
BRANCH 20 21
ATOM     21  CG  HIS F   2       0.301  30.564 -16.187  1.00 29.66 LIG 0.06  A 
ATOM     22 ND1  HIS F   2       1.595  30.578 -15.707  1.00 29.25 LIG-0.24  NA
ATOM     23  CE1 HIS F   2       1.800  31.687 -15.013  1.00 27.69 LIG 0.23  A 
ATOM     24 NE2  HIS F   2       0.677  32.390 -15.010  1.00 31.40 LIG-0.25  NA
ATOM     25  CD2 HIS F   2      -0.281  31.700 -15.724  1.00 30.69 LIG 0.14  A 
ENDBRANCH 20 21
ENDBRANCH 1 20
TORSDOF 8
ENDMDL
MODEL 24
USER: ADFR SOLUTION from run 78
USER: SCORE 7.821168 LL:  -1.437 LR:  -6.599 RR:   0.000 FEB:  -4.213
USER: RMSD 2.660937
USER: SEED 77
USER: STATUS no improvement in best in 31 clusters for 5 generations
USER: GENES 10
USER: genes 0 Translation |==|  0.62359 0.53612 0.69031
USER: genes 1 Rotation |==|  0.48165 0.48364 0.54640 0.99724
USER: genes 2 Torsion [C]-CA--N-[C] |==|  0.77006
USER: genes 3 Torsion [N]-C--CA-[N] |==|  0.57288
USER: genes 4 Torsion [C]-CA--N-[H3] |==|  0.38174
USER: genes 5 Torsion [N]-CA--C-[N] |==|  0.20747
USER: genes 6 Torsion [C]-N--CA-[CB] |==|  0.18802
USER: genes 7 Torsion [N]-CA--C-[O] |==|  0.03886
USER: genes 8 Torsion [N]-CA--CB-[CG] |==|  0.77013
USER: genes 9 Torsion [CA]-CB--CG-[ND1] |==|  0.52246
ROOT
ATOM      1  CA  HIS F   2       0.760  30.995 -16.102  1.00 30.59 LIG 0.18  C 
ENDROOT
BRANCH 1 2
ATOM      2  N   HIS F   2       1.049  31.314 -17.504  1.00 30.70 LIG-0.35  N 
ATOM      3  C   ALA F   1       0.679  30.528 -18.513  1.00 31.15 LIG 0.25  C 
ATOM      4 O    ALA F   1       0.072  29.463 -18.362  1.00 30.37 LIG-0.27  OA
ATOM      5 H    HIS F   2       1.477  32.052 -17.612  1.00 30.70 LIG 0.16  HD
BRANCH 3 6
ATOM      6  CA  ALA F   1       1.055  31.020 -19.917  1.00 31.15 LIG 0.27  C 
ATOM      7  CB  ALA F   1       1.577  32.167 -19.974  0.00 20.00 LIG 0.05  C 
BRANCH 6 8
ATOM      8  N   ALA F   1       0.118  30.483 -20.960  1.00 31.97 LIG-0.07  N 
ATOM      9 H3   ALA F   1      -0.088  31.129 -21.535  1.00 31.97 LIG 0.28  HD
ATOM     10 H1   ALA F   1       0.510  29.812 -21.394  1.00 31.97 LIG 0.28  HD
ATOM     11 H2   ALA F   1      -0.624  30.187 -20.568  1.00 31.97 LIG 0.28  HD
ENDBRANCH 6 8
ENDBRANCH 3 6
ENDBRANCH 1 2
BRANCH 1 12
ATOM     12  C   HIS F   2      -0.663  31.427 -15.724  1.00 31.15 LIG 0.24  C 
ATOM     13 O    HIS F   2      -0.855  32.437 -15.022  1.00 30.80 LIG-0.27  OA
ATOM     14  N   ALA F   3      -1.654  30.659 -16.193  1.00 30.97 LIG-0.35  N 
ATOM     15 H    ALA F   3      -1.525  29.962 -16.682  1.00 30.97 LIG 0.16  HD
BRANCH 14 16
ATOM     16  CA  ALA F   3      -3.061  30.937 -15.913  1.00 31.72 LIG 0.16  C 
ATOM     17  CB  ALA F   3      -3.401  32.252 -16.656  0.00 20.00 LIG 0.04  C 
BRANCH 16 18
ATOM     18  C   ALA F   3      -4.025  30.025 -16.667  1.00 32.37 LIG 0.22  C 
ATOM     19 O    ALA F   3      -3.622  28.994 -17.224  1.00 33.75 LIG-0.29  OA
ENDBRANCH 16 18
ENDBRANCH 14 16
ENDBRANCH 1 12
BRANCH 1 20
ATOM     20  CB  HIS F   2       1.775  31.684 -15.173  1.00 30.20 LIG 0.10  C 
BRANCH 20 21
ATOM     21  CG  HIS F   2       3.077  30.945 -15.012  1.00 29.66 LIG 0.06  A 
ATOM     22 ND1  HIS F   2       4.048  31.312 -14.102  1.00 29.25 LIG-0.24  NA
ATOM     23  CE1 HIS F   2       5.088  30.499 -14.209  1.00 27.69 LIG 0.23  A 
ATOM     24 NE2  HIS F   2       4.836  29.624 -15.171  1.00 31.40 LIG-0.25  NA
ATOM     25  CD2 HIS F   2       3.590  29.893 -15.700  1.00 30.69 LIG 0.14  A 
ENDBRANCH 20 21
ENDBRANCH 1 20
TORSDOF 8
ENDMDL
MODEL 25
USER: ADFR SOLUTION from run 30
USER: SCORE 7.432240 LL:  -1.271 LR:  -6.593 RR:   0.000 FEB:  -4.207
USER: RMSD 2.499645
USER: SEED 29
USER: STATUS no improvement in best in 34 clusters for 5 generations
USER: GENES 10
USER: genes 0 Translation |==|  0.51902 0.60768 0.49974
USER: genes 1 Rotation |==|  0.68987 0.62721 0.51674 0.94439
USER: genes 2 Torsion [C]-CA--N-[C] |==|  0.56419
USER: genes 3 Torsion [N]-C--CA-[N] |==|  0.42879
USER: genes 4 Torsion [C]-CA--N-[H3] |==|  0.28657
USER: genes 5 Torsion [N]-CA--C-[N] |==|  0.31672
USER: genes 6 Torsion [C]-N--CA-[CB] |==|  0.16957
USER: genes 7 Torsion [N]-CA--C-[O] |==|  0.12530
USER: genes 8 Torsion [N]-CA--CB-[CG] |==|  0.50624
USER: genes 9 Torsion [CA]-CB--CG-[ND1] |==|  0.32298
ROOT
ATOM      1  CA  HIS F   2      -1.044  31.854 -19.103  1.00 30.59 LIG 0.18  C 
ENDROOT
BRANCH 1 2
ATOM      2  N   HIS F   2      -1.434  33.100 -19.770  1.00 30.70 LIG-0.35  N 
ATOM      3  C   ALA F   1      -1.262  33.305 -21.075  1.00 31.15 LIG 0.25  C 
ATOM      4 O    ALA F   1      -0.754  32.475 -21.835  1.00 30.37 LIG-0.27  OA
ATOM      5 H    HIS F   2      -1.783  33.683 -19.242  1.00 30.70 LIG 0.16  HD
BRANCH 3 6
ATOM      6  CA  ALA F   1      -1.737  34.663 -21.607  1.00 31.15 LIG 0.27  C 
ATOM      7  CB  ALA F   1      -2.953  34.936 -21.406  0.00 20.00 LIG 0.05  C 
BRANCH 6 8
ATOM      8  N   ALA F   1      -0.992  35.061 -22.849  1.00 31.97 LIG-0.07  N 
ATOM      9 H3   ALA F   1      -1.508  34.925 -23.561  1.00 31.97 LIG 0.28  HD
ATOM     10 H1   ALA F   1      -0.773  35.922 -22.801  1.00 31.97 LIG 0.28  HD
ATOM     11 H2   ALA F   1      -0.253  34.571 -22.921  1.00 31.97 LIG 0.28  HD
ENDBRANCH 6 8
ENDBRANCH 3 6
ENDBRANCH 1 2
BRANCH 1 12
ATOM     12  C   HIS F   2      -1.837  31.656 -17.805  1.00 31.15 LIG 0.24  C 
ATOM     13 O    HIS F   2      -1.685  32.433 -16.843  1.00 30.80 LIG-0.27  OA
ATOM     14  N   ALA F   3      -2.681  30.618 -17.785  1.00 30.97 LIG-0.35  N 
ATOM     15 H    ALA F   3      -2.793  30.082 -18.449  1.00 30.97 LIG 0.16  HD
BRANCH 14 16
ATOM     16  CA  ALA F   3      -3.501  30.297 -16.618  1.00 31.72 LIG 0.16  C 
ATOM     17  CB  ALA F   3      -4.413  31.524 -16.375  0.00 20.00 LIG 0.04  C 
BRANCH 16 18
ATOM     18  C   ALA F   3      -4.604  29.282 -16.907  1.00 32.37 LIG 0.22  C 
ATOM     19 O    ALA F   3      -4.370  28.259 -17.567  1.00 33.75 LIG-0.29  OA
ENDBRANCH 16 18
ENDBRANCH 14 16
ENDBRANCH 1 12
BRANCH 1 20
ATOM     20  CB  HIS F   2       0.463  31.857 -18.796  1.00 30.20 LIG 0.10  C 
BRANCH 20 21
ATOM     21  CG  HIS F   2       0.974  30.593 -18.156  1.00 29.66 LIG 0.06  A 
ATOM     22 ND1  HIS F   2       1.894  29.758 -18.758  1.00 29.25 LIG-0.24  NA
ATOM     23  CE1 HIS F   2       2.129  28.717 -17.974  1.00 27.69 LIG 0.23  A 
ATOM     24 NE2  HIS F   2       1.380  28.836 -16.887  1.00 31.40 LIG-0.25  NA
ATOM     25  CD2 HIS F   2       0.637  29.994 -16.985  1.00 30.69 LIG 0.14  A 
ENDBRANCH 20 21
ENDBRANCH 1 20
TORSDOF 8
ENDMDL
MODEL 26
USER: ADFR SOLUTION from run 98
USER: SCORE 7.198460 LL:  -1.073 LR:  -6.568 RR:   0.000 FEB:  -4.181
USER: RMSD 4.209757
USER: SEED 97
USER: STATUS no improvement in best in 22 clusters for 5 generations
USER: GENES 10
USER: genes 0 Translation |==|  0.44768 0.54371 0.59713
USER: genes 1 Rotation |==|  0.90336 0.33158 0.25866 0.52638
USER: genes 2 Torsion [C]-CA--N-[C] |==|  0.65003
USER: genes 3 Torsion [N]-C--CA-[N] |==|  0.08723
USER: genes 4 Torsion [C]-CA--N-[H3] |==|  0.91567
USER: genes 5 Torsion [N]-CA--C-[N] |==|  0.86466
USER: genes 6 Torsion [C]-N--CA-[CB] |==|  0.18768
USER: genes 7 Torsion [N]-CA--C-[O] |==|  0.51408
USER: genes 8 Torsion [N]-CA--CB-[CG] |==|  0.75495
USER: genes 9 Torsion [CA]-CB--CG-[ND1] |==|  0.51662
ROOT
ATOM      1  CA  HIS F   2      -2.275  31.087 -17.569  1.00 30.59 LIG 0.18  C 
ENDROOT
BRANCH 1 2
ATOM      2  N   HIS F   2      -1.241  30.313 -16.874  1.00 30.70 LIG-0.35  N 
ATOM      3  C   ALA F   1       0.047  30.652 -16.889  1.00 31.15 LIG 0.25  C 
ATOM      4 O    ALA F   1       0.487  31.636 -17.491  1.00 30.37 LIG-0.27  OA
ATOM      5 H    HIS F   2      -1.544  29.623 -16.459  1.00 30.70 LIG 0.16  HD
BRANCH 3 6
ATOM      6  CA  ALA F   1       0.989  29.734 -16.099  1.00 31.15 LIG 0.27  C 
ATOM      7  CB  ALA F   1       2.210  30.053 -16.119  0.00 20.00 LIG 0.05  C 
BRANCH 6 8
ATOM      8  N   ALA F   1       0.503  28.313 -16.098  1.00 31.97 LIG-0.07  N 
ATOM      9 H3   ALA F   1      -0.385  28.303 -16.145  1.00 31.97 LIG 0.28  HD
ATOM     10 H1   ALA F   1       0.842  27.883 -16.799  1.00 31.97 LIG 0.28  HD
ATOM     11 H2   ALA F   1       0.765  27.911 -15.349  1.00 31.97 LIG 0.28  HD
ENDBRANCH 6 8
ENDBRANCH 3 6
ENDBRANCH 1 2
BRANCH 1 12
ATOM     12  C   HIS F   2      -3.406  31.476 -16.609  1.00 31.15 LIG 0.24  C 
ATOM     13 O    HIS F   2      -3.820  32.649 -16.559  1.00 30.80 LIG-0.27  OA
ATOM     14  N   ALA F   3      -3.900  30.489 -15.852  1.00 30.97 LIG-0.35  N 
ATOM     15 H    ALA F   3      -3.619  29.677 -15.887  1.00 30.97 LIG 0.16  HD
BRANCH 14 16
ATOM     16  CA  ALA F   3      -4.974  30.706 -14.886  1.00 31.72 LIG 0.16  C 
ATOM     17  CB  ALA F   3      -6.241  31.040 -15.710  0.00 20.00 LIG 0.04  C 
BRANCH 16 18
ATOM     18  C   ALA F   3      -5.487  29.420 -14.243  1.00 32.37 LIG 0.22  C 
ATOM     19 O    ALA F   3      -6.459  29.437 -13.474  1.00 33.75 LIG-0.29  OA
ENDBRANCH 16 18
ENDBRANCH 14 16
ENDBRANCH 1 12
BRANCH 1 20
ATOM     20  CB  HIS F   2      -2.848  30.282 -18.748  1.00 30.20 LIG 0.10  C 
BRANCH 20 21
ATOM     21  CG  HIS F   2      -2.103  30.454 -20.045  1.00 29.66 LIG 0.06  A 
ATOM     22 ND1  HIS F   2      -2.529  29.913 -21.241  1.00 29.25 LIG-0.24  NA
ATOM     23  CE1 HIS F   2      -1.660  30.204 -22.196  1.00 27.69 LIG 0.23  A 
ATOM     24 NE2  HIS F   2      -0.670  30.903 -21.660  1.00 31.40 LIG-0.25  NA
ATOM     25  CD2 HIS F   2      -0.916  31.058 -20.312  1.00 30.69 LIG 0.14  A 
ENDBRANCH 20 21
ENDBRANCH 1 20
TORSDOF 8
ENDMDL
MODEL 27
USER: ADFR SOLUTION from run 13
USER: SCORE 7.122088 LL:  -1.360 LR:  -6.570 RR:   0.000 FEB:  -4.183
USER: RMSD 4.752933
USER: SEED 458481
USER: STATUS no improvement in best in 37 clusters for 5 generations
USER: GENES 10
USER: genes 0 Translation |==|  0.41780 0.63966 0.66721
USER: genes 1 Rotation |==|  0.16202 0.48888 0.84311 0.63388
USER: genes 2 Torsion [C]-CA--N-[C] |==|  0.74444
USER: genes 3 Torsion [N]-C--CA-[N] |==|  0.38892
USER: genes 4 Torsion [C]-CA--N-[H3] |==|  0.12321
USER: genes 5 Torsion [N]-CA--C-[N] |==|  0.73469
USER: genes 6 Torsion [C]-N--CA-[CB] |==|  0.34141
USER: genes 7 Torsion [N]-CA--C-[O] |==|  0.05639
USER: genes 8 Torsion [N]-CA--CB-[CG] |==|  0.84085
USER: genes 9 Torsion [CA]-CB--CG-[ND1] |==|  0.11275
ROOT
ATOM      1  CA  HIS F   2      -2.790  32.238 -16.465  1.00 30.59 LIG 0.18  C 
ENDROOT
BRANCH 1 2
ATOM      2  N   HIS F   2      -1.589  31.563 -16.968  1.00 30.70 LIG-0.35  N 
ATOM      3  C   ALA F   1      -0.399  31.676 -16.383  1.00 31.15 LIG 0.25  C 
ATOM      4 O    ALA F   1      -0.195  32.363 -15.377  1.00 30.37 LIG-0.27  OA
ATOM      5 H    HIS F   2      -1.726  31.089 -17.674  1.00 30.70 LIG 0.16  HD
BRANCH 3 6
ATOM      6  CA  ALA F   1       0.746  30.893 -17.038  1.00 31.15 LIG 0.27  C 
ATOM      7  CB  ALA F   1       0.705  29.640 -16.896  0.00 20.00 LIG 0.05  C 
BRANCH 6 8
ATOM      8  N   ALA F   1       2.022  31.685 -17.049  1.00 31.97 LIG-0.07  N 
ATOM      9 H3   ALA F   1       2.139  32.071 -16.256  1.00 31.97 LIG 0.28  HD
ATOM     10 H1   ALA F   1       2.707  31.143 -17.219  1.00 31.97 LIG 0.28  HD
ATOM     11 H2   ALA F   1       1.977  32.311 -17.679  1.00 31.97 LIG 0.28  HD
ENDBRANCH 6 8
ENDBRANCH 3 6
ENDBRANCH 1 2
BRANCH 1 12
ATOM     12  C   HIS F   2      -3.560  31.334 -15.494  1.00 31.15 LIG 0.24  C 
ATOM     13 O    HIS F   2      -3.246  31.282 -14.290  1.00 30.80 LIG-0.27  OA
ATOM     14  N   ALA F   3      -4.567  30.627 -16.022  1.00 30.97 LIG-0.35  N 
ATOM     15 H    ALA F   3      -4.790  30.664 -16.852  1.00 30.97 LIG 0.16  HD
BRANCH 14 16
ATOM     16  CA  ALA F   3      -5.388  29.718 -15.226  1.00 31.72 LIG 0.16  C 
ATOM     17  CB  ALA F   3      -6.852  30.194 -15.392  0.00 20.00 LIG 0.04  C 
BRANCH 16 18
ATOM     18  C   ALA F   3      -5.554  28.337 -15.853  1.00 32.37 LIG 0.22  C 
ATOM     19 O    ALA F   3      -4.757  27.927 -16.709  1.00 33.75 LIG-0.29  OA
ENDBRANCH 16 18
ENDBRANCH 14 16
ENDBRANCH 1 12
BRANCH 1 20
ATOM     20  CB  HIS F   2      -3.706  32.648 -17.631  1.00 30.20 LIG 0.10  C 
BRANCH 20 21
ATOM     21  CG  HIS F   2      -3.055  33.539 -18.655  1.00 29.66 LIG 0.06  A 
ATOM     22 ND1  HIS F   2      -1.760  33.363 -19.099  1.00 29.25 LIG-0.24  NA
ATOM     23  CE1 HIS F   2      -1.456  34.312 -19.972  1.00 27.69 LIG 0.23  A 
ATOM     24 NE2  HIS F   2      -2.505  35.111 -20.100  1.00 31.40 LIG-0.25  NA
ATOM     25  CD2 HIS F   2      -3.513  34.658 -19.274  1.00 30.69 LIG 0.14  A 
ENDBRANCH 20 21
ENDBRANCH 1 20
TORSDOF 8
ENDMDL
MODEL 28
USER: ADFR SOLUTION from run 145
USER: SCORE 7.955797 LL:  -1.438 LR:  -6.568 RR:   0.000 FEB:  -4.181
USER: RMSD 3.401183
USER: SEED 144
USER: STATUS no improvement in best in 20 clusters for 5 generations
USER: GENES 10
USER: genes 0 Translation |==|  0.54484 0.57126 0.45705
USER: genes 1 Rotation |==|  0.62874 0.55916 0.32832 0.94772
USER: genes 2 Torsion [C]-CA--N-[C] |==|  0.84374
USER: genes 3 Torsion [N]-C--CA-[N] |==|  0.56219
USER: genes 4 Torsion [C]-CA--N-[H3] |==|  0.71365
USER: genes 5 Torsion [N]-CA--C-[N] |==|  0.40281
USER: genes 6 Torsion [C]-N--CA-[CB] |==|  0.26848
USER: genes 7 Torsion [N]-CA--C-[O] |==|  0.30988
USER: genes 8 Torsion [N]-CA--CB-[CG] |==|  0.05768
USER: genes 9 Torsion [CA]-CB--CG-[ND1] |==|  0.70177
ROOT
ATOM      1  CA  HIS F   2      -0.599  31.417 -19.775  1.00 30.59 LIG 0.18  C 
ENDROOT
BRANCH 1 2
ATOM      2  N   HIS F   2      -0.205  32.263 -20.907  1.00 30.70 LIG-0.35  N 
ATOM      3  C   ALA F   1      -1.030  33.144 -21.471  1.00 31.15 LIG 0.25  C 
ATOM      4 O    ALA F   1      -2.195  33.321 -21.102  1.00 30.37 LIG-0.27  OA
ATOM      5 H    HIS F   2       0.604  32.137 -21.171  1.00 30.70 LIG 0.16  HD
BRANCH 3 6
ATOM      6  CA  ALA F   1      -0.449  33.952 -22.638  1.00 31.15 LIG 0.27  C 
ATOM      7  CB  ALA F   1       0.794  33.833 -22.823  0.00 20.00 LIG 0.05  C 
BRANCH 6 8
ATOM      8  N   ALA F   1      -1.199  35.235 -22.849  1.00 31.97 LIG-0.07  N 
ATOM      9 H3   ALA F   1      -1.739  35.152 -23.551  1.00 31.97 LIG 0.28  HD
ATOM     10 H1   ALA F   1      -1.681  35.420 -22.124  1.00 31.97 LIG 0.28  HD
ATOM     11 H2   ALA F   1      -0.622  35.896 -22.996  1.00 31.97 LIG 0.28  HD
ENDBRANCH 6 8
ENDBRANCH 3 6
ENDBRANCH 1 2
BRANCH 1 12
ATOM     12  C   HIS F   2      -1.092  32.270 -18.600  1.00 31.15 LIG 0.24  C 
ATOM     13 O    HIS F   2      -0.580  33.380 -18.362  1.00 30.80 LIG-0.27  OA
ATOM     14  N   ALA F   3      -2.086  31.748 -17.871  1.00 30.97 LIG-0.35  N 
ATOM     15 H    ALA F   3      -2.445  30.983 -18.035  1.00 30.97 LIG 0.16  HD
BRANCH 14 16
ATOM     16  CA  ALA F   3      -2.657  32.438 -16.717  1.00 31.72 LIG 0.16  C 
ATOM     17  CB  ALA F   3      -3.925  33.166 -17.227  0.00 20.00 LIG 0.04  C 
BRANCH 16 18
ATOM     18  C   ALA F   3      -3.348  31.504 -15.727  1.00 32.37 LIG 0.22  C 
ATOM     19 O    ALA F   3      -2.872  31.308 -14.599  1.00 33.75 LIG-0.29  OA
ENDBRANCH 16 18
ENDBRANCH 14 16
ENDBRANCH 1 12
BRANCH 1 20
ATOM     20  CB  HIS F   2       0.581  30.541 -19.322  1.00 30.20 LIG 0.10  C 
BRANCH 20 21
ATOM     21  CG  HIS F   2       1.935  31.047 -19.743  1.00 29.66 LIG 0.06  A 
ATOM     22 ND1  HIS F   2       2.693  30.452 -20.733  1.00 29.25 LIG-0.24  NA
ATOM     23  CE1 HIS F   2       3.842  31.097 -20.861  1.00 27.69 LIG 0.23  A 
ATOM     24 NE2  HIS F   2       3.868  32.083 -19.977  1.00 31.40 LIG-0.25  NA
ATOM     25  CD2 HIS F   2       2.693  32.063 -19.254  1.00 30.69 LIG 0.14  A 
ENDBRANCH 20 21
ENDBRANCH 1 20
TORSDOF 8
ENDMDL
MODEL 29
USER: ADFR SOLUTION from run 90
USER: SCORE 7.675457 LL:  -1.372 LR:  -6.562 RR:   0.000 FEB:  -4.175
USER: RMSD 4.567216
USER: SEED 89
USER: STATUS no improvement in best in 26 clusters for 5 generations
USER: GENES 10
USER: genes 0 Translation |==|  0.45516 0.57545 0.59535
USER: genes 1 Rotation |==|  0.90059 0.30893 0.27068 0.52061
USER: genes 2 Torsion [C]-CA--N-[C] |==|  0.59724
USER: genes 3 Torsion [N]-C--CA-[N] |==|  0.14302
USER: genes 4 Torsion [C]-CA--N-[H3] |==|  0.25612
USER: genes 5 Torsion [N]-CA--C-[N] |==|  0.49444
USER: genes 6 Torsion [C]-N--CA-[CB] |==|  0.42528
USER: genes 7 Torsion [N]-CA--C-[O] |==|  0.11044
USER: genes 8 Torsion [N]-CA--CB-[CG] |==|  0.17258
USER: genes 9 Torsion [CA]-CB--CG-[ND1] |==|  0.52993
ROOT
ATOM      1  CA  HIS F   2      -2.146  31.467 -17.597  1.00 30.59 LIG 0.18  C 
ENDROOT
BRANCH 1 2
ATOM      2  N   HIS F   2      -1.214  30.640 -16.823  1.00 30.70 LIG-0.35  N 
ATOM      3  C   ALA F   1       0.096  30.616 -17.059  1.00 31.15 LIG 0.25  C 
ATOM      4 O    ALA F   1       0.642  31.275 -17.950  1.00 30.37 LIG-0.27  OA
ATOM      5 H    HIS F   2      -1.593  30.175 -16.206  1.00 30.70 LIG 0.16  HD
BRANCH 3 6
ATOM      6  CA  ALA F   1       0.923  29.701 -16.146  1.00 31.15 LIG 0.27  C 
ATOM      7  CB  ALA F   1       2.159  29.951 -16.092  0.00 20.00 LIG 0.05  C 
BRANCH 6 8
ATOM      8  N   ALA F   1       0.355  28.312 -16.096  1.00 31.97 LIG-0.07  N 
ATOM      9 H3   ALA F   1       0.745  27.809 -16.719  1.00 31.97 LIG 0.28  HD
ATOM     10 H1   ALA F   1       0.505  27.958 -15.293  1.00 31.97 LIG 0.28  HD
ATOM     11 H2   ALA F   1      -0.521  28.344 -16.247  1.00 31.97 LIG 0.28  HD
ENDBRANCH 6 8
ENDBRANCH 3 6
ENDBRANCH 1 2
BRANCH 1 12
ATOM     12  C   HIS F   2      -3.280  31.993 -16.708  1.00 31.15 LIG 0.24  C 
ATOM     13 O    HIS F   2      -3.344  31.675 -15.506  1.00 30.80 LIG-0.27  OA
ATOM     14  N   ALA F   3      -4.169  32.797 -17.304  1.00 30.97 LIG-0.35  N 
ATOM     15 H    ALA F   3      -4.126  33.022 -18.133  1.00 30.97 LIG 0.16  HD
BRANCH 14 16
ATOM     16  CA  ALA F   3      -5.308  33.370 -16.590  1.00 31.72 LIG 0.16  C 
ATOM     17  CB  ALA F   3      -5.662  34.688 -17.322  0.00 20.00 LIG 0.04  C 
BRANCH 16 18
ATOM     18  C   ALA F   3      -6.622  32.638 -16.848  1.00 32.37 LIG 0.22  C 
ATOM     19 O    ALA F   3      -6.657  31.402 -16.923  1.00 33.75 LIG-0.29  OA
ENDBRANCH 16 18
ENDBRANCH 14 16
ENDBRANCH 1 12
BRANCH 1 20
ATOM     20  CB  HIS F   2      -2.734  30.664 -18.769  1.00 30.20 LIG 0.10  C 
BRANCH 20 21
ATOM     21  CG  HIS F   2      -3.542  29.461 -18.361  1.00 29.66 LIG 0.06  A 
ATOM     22 ND1  HIS F   2      -3.969  28.497 -19.252  1.00 29.25 LIG-0.24  NA
ATOM     23  CE1 HIS F   2      -4.680  27.582 -18.610  1.00 27.69 LIG 0.23  A 
ATOM     24 NE2  HIS F   2      -4.746  27.926 -17.333  1.00 31.40 LIG-0.25  NA
ATOM     25  CD2 HIS F   2      -4.055  29.107 -17.154  1.00 30.69 LIG 0.14  A 
ENDBRANCH 20 21
ENDBRANCH 1 20
TORSDOF 8
ENDMDL
MODEL 30
USER: ADFR SOLUTION from run 67
USER: SCORE 7.438033 LL:  -1.358 LR:  -6.526 RR:   0.000 FEB:  -4.140
USER: RMSD 2.700189
USER: SEED 66
USER: STATUS no improvement in best in 32 clusters for 5 generations
USER: GENES 10
USER: genes 0 Translation |==|  0.49582 0.47100 0.62241
USER: genes 1 Rotation |==|  0.38909 0.61890 0.49943 0.97282
USER: genes 2 Torsion [C]-CA--N-[C] |==|  0.80000
USER: genes 3 Torsion [N]-C--CA-[N] |==|  0.03528
USER: genes 4 Torsion [C]-CA--N-[H3] |==|  0.34649
USER: genes 5 Torsion [N]-CA--C-[N] |==|  0.25378
USER: genes 6 Torsion [C]-N--CA-[CB] |==|  0.16833
USER: genes 7 Torsion [N]-CA--C-[O] |==|  0.09073
USER: genes 8 Torsion [N]-CA--CB-[CG] |==|  0.09412
USER: genes 9 Torsion [CA]-CB--CG-[ND1] |==|  0.66926
ROOT
ATOM      1  CA  HIS F   2      -1.444  30.214 -17.171  1.00 30.59 LIG 0.18  C 
ENDROOT
BRANCH 1 2
ATOM      2  N   HIS F   2      -1.879  29.935 -18.544  1.00 30.70 LIG-0.35  N 
ATOM      3  C   ALA F   1      -2.923  29.158 -18.826  1.00 31.15 LIG 0.25  C 
ATOM      4 O    ALA F   1      -3.610  28.598 -17.966  1.00 30.37 LIG-0.27  OA
ATOM      5 H    HIS F   2      -1.398  30.319 -19.145  1.00 30.70 LIG 0.16  HD
BRANCH 3 6
ATOM      6  CA  ALA F   1      -3.243  28.983 -20.316  1.00 31.15 LIG 0.27  C 
ATOM      7  CB  ALA F   1      -3.961  27.988 -20.610  0.00 20.00 LIG 0.05  C 
BRANCH 6 8
ATOM      8  N   ALA F   1      -2.123  29.483 -21.183  1.00 31.97 LIG-0.07  N 
ATOM      9 H3   ALA F   1      -1.861  28.835 -21.733  1.00 31.97 LIG 0.28  HD
ATOM     10 H1   ALA F   1      -2.405  30.181 -21.659  1.00 31.97 LIG 0.28  HD
ATOM     11 H2   ALA F   1      -1.439  29.732 -20.671  1.00 31.97 LIG 0.28  HD
ENDBRANCH 6 8
ENDBRANCH 3 6
ENDBRANCH 1 2
BRANCH 1 12
ATOM     12  C   HIS F   2      -2.430  31.153 -16.464  1.00 31.15 LIG 0.24  C 
ATOM     13 O    HIS F   2      -2.296  32.389 -16.542  1.00 30.80 LIG-0.27  OA
ATOM     14  N   ALA F   3      -3.416  30.563 -15.779  1.00 30.97 LIG-0.35  N 
ATOM     15 H    ALA F   3      -3.514  29.709 -15.727  1.00 30.97 LIG 0.16  HD
BRANCH 14 16
ATOM     16  CA  ALA F   3      -4.428  31.323 -15.049  1.00 31.72 LIG 0.16  C 
ATOM     17  CB  ALA F   3      -5.161  32.194 -16.099  0.00 20.00 LIG 0.04  C 
BRANCH 16 18
ATOM     18  C   ALA F   3      -5.626  30.484 -14.613  1.00 32.37 LIG 0.22  C 
ATOM     19 O    ALA F   3      -5.490  29.289 -14.313  1.00 33.75 LIG-0.29  OA
ENDBRANCH 16 18
ENDBRANCH 14 16
ENDBRANCH 1 12
BRANCH 1 20
ATOM     20  CB  HIS F   2      -0.039  30.838 -17.168  1.00 30.20 LIG 0.10  C 
BRANCH 20 21
ATOM     21  CG  HIS F   2       0.253  31.730 -18.345  1.00 29.66 LIG 0.06  A 
ATOM     22 ND1  HIS F   2       1.268  31.484 -19.249  1.00 29.25 LIG-0.24  NA
ATOM     23  CE1 HIS F   2       1.301  32.451 -20.153  1.00 27.69 LIG 0.23  A 
ATOM     24 NE2  HIS F   2       0.354  33.329 -19.860  1.00 31.40 LIG-0.25  NA
ATOM     25  CD2 HIS F   2      -0.305  32.909 -18.724  1.00 30.69 LIG 0.14  A 
ENDBRANCH 20 21
ENDBRANCH 1 20
TORSDOF 8
ENDMDL
MODEL 31
USER: ADFR SOLUTION from run 120
USER: SCORE 7.538725 LL:  -1.117 LR:  -6.492 RR:   0.000 FEB:  -4.105
USER: RMSD 2.784058
USER: SEED 119
USER: STATUS no improvement in best in 26 clusters for 5 generations
USER: GENES 10
USER: genes 0 Translation |==|  0.45569 0.41872 0.57101
USER: genes 1 Rotation |==|  0.32364 0.62949 0.53943 0.94785
USER: genes 2 Torsion [C]-CA--N-[C] |==|  0.84335
USER: genes 3 Torsion [N]-C--CA-[N] |==|  0.04610
USER: genes 4 Torsion [C]-CA--N-[H3] |==|  0.24628
USER: genes 5 Torsion [N]-CA--C-[N] |==|  0.40942
USER: genes 6 Torsion [C]-N--CA-[CB] |==|  0.87465
USER: genes 7 Torsion [N]-CA--C-[O] |==|  0.66688
USER: genes 8 Torsion [N]-CA--CB-[CG] |==|  0.53119
USER: genes 9 Torsion [CA]-CB--CG-[ND1] |==|  0.25826
ROOT
ATOM      1  CA  HIS F   2      -2.136  29.587 -17.981  1.00 30.59 LIG 0.18  C 
ENDROOT
BRANCH 1 2
ATOM      2  N   HIS F   2      -2.603  28.911 -19.196  1.00 30.70 LIG-0.35  N 
ATOM      3  C   ALA F   1      -3.679  28.127 -19.217  1.00 31.15 LIG 0.25  C 
ATOM      4 O    ALA F   1      -4.372  27.891 -18.223  1.00 30.37 LIG-0.27  OA
ATOM      5 H    HIS F   2      -2.118  29.068 -19.889  1.00 30.70 LIG 0.16  HD
BRANCH 3 6
ATOM      6  CA  ALA F   1      -4.029  27.509 -20.577  1.00 31.15 LIG 0.27  C 
ATOM      7  CB  ALA F   1      -4.847  26.549 -20.549  0.00 20.00 LIG 0.05  C 
BRANCH 6 8
ATOM      8  N   ALA F   1      -2.872  27.584 -21.532  1.00 31.97 LIG-0.07  N 
ATOM      9 H3   ALA F   1      -2.361  26.862 -21.437  1.00 31.97 LIG 0.28  HD
ATOM     10 H1   ALA F   1      -3.178  27.624 -22.366  1.00 31.97 LIG 0.28  HD
ATOM     11 H2   ALA F   1      -2.391  28.312 -21.358  1.00 31.97 LIG 0.28  HD
ENDBRANCH 6 8
ENDBRANCH 3 6
ENDBRANCH 1 2
BRANCH 1 12
ATOM     12  C   HIS F   2      -3.244  30.463 -17.381  1.00 31.15 LIG 0.24  C 
ATOM     13 O    HIS F   2      -4.078  31.023 -18.117  1.00 30.80 LIG-0.27  OA
ATOM     14  N   ALA F   3      -3.247  30.576 -16.048  1.00 30.97 LIG-0.35  N 
ATOM     15 H    ALA F   3      -2.675  30.187 -15.536  1.00 30.97 LIG 0.16  HD
BRANCH 14 16
ATOM     16  CA  ALA F   3      -4.234  31.380 -15.332  1.00 31.72 LIG 0.16  C 
ATOM     17  CB  ALA F   3      -4.344  32.721 -16.099  0.00 20.00 LIG 0.04  C 
BRANCH 16 18
ATOM     18  C   ALA F   3      -5.672  30.912 -15.541  1.00 32.37 LIG 0.22  C 
ATOM     19 O    ALA F   3      -6.519  31.664 -16.043  1.00 33.75 LIG-0.29  OA
ENDBRANCH 16 18
ENDBRANCH 14 16
ENDBRANCH 1 12
BRANCH 1 20
ATOM     20  CB  HIS F   2      -0.899  30.449 -18.285  1.00 30.20 LIG 0.10  C 
BRANCH 20 21
ATOM     21  CG  HIS F   2      -0.185  30.971 -17.067  1.00 29.66 LIG 0.06  A 
ATOM     22 ND1  HIS F   2       0.876  30.318 -16.473  1.00 29.25 LIG-0.24  NA
ATOM     23  CE1 HIS F   2       1.277  30.998 -15.410  1.00 27.69 LIG 0.23  A 
ATOM     24 NE2  HIS F   2       0.503  32.065 -15.280  1.00 31.40 LIG-0.25  NA
ATOM     25  CD2 HIS F   2      -0.431  32.062 -16.296  1.00 30.69 LIG 0.14  A 
ENDBRANCH 20 21
ENDBRANCH 1 20
TORSDOF 8
ENDMDL
MODEL 32
USER: ADFR SOLUTION from run 28
USER: SCORE 7.144766 LL:  -1.151 LR:  -6.456 RR:   0.000 FEB:  -4.069
USER: RMSD 4.364595
USER: SEED 27
USER: STATUS no improvement in best in 29 clusters for 5 generations
USER: GENES 10
USER: genes 0 Translation |==|  0.42484 0.50108 0.60925
USER: genes 1 Rotation |==|  0.06183 0.46417 0.71673 0.59874
USER: genes 2 Torsion [C]-CA--N-[C] |==|  0.55906
USER: genes 3 Torsion [N]-C--CA-[N] |==|  0.99230
USER: genes 4 Torsion [C]-CA--N-[H3] |==|  0.95811
USER: genes 5 Torsion [N]-CA--C-[N] |==|  0.30615
USER: genes 6 Torsion [C]-N--CA-[CB] |==|  0.35812
USER: genes 7 Torsion [N]-CA--C-[O] |==|  0.64311
USER: genes 8 Torsion [N]-CA--CB-[CG] |==|  0.76295
USER: genes 9 Torsion [CA]-CB--CG-[ND1] |==|  0.30100
ROOT
ATOM      1  CA  HIS F   2      -2.669  30.575 -17.378  1.00 30.59 LIG 0.18  C 
ENDROOT
BRANCH 1 2
ATOM      2  N   HIS F   2      -1.426  29.919 -16.958  1.00 30.70 LIG-0.35  N 
ATOM      3  C   ALA F   1      -0.279  30.577 -16.804  1.00 31.15 LIG 0.25  C 
ATOM      4 O    ALA F   1      -0.154  31.789 -17.007  1.00 30.37 LIG-0.27  OA
ATOM      5 H    HIS F   2      -1.508  29.073 -16.822  1.00 30.70 LIG 0.16  HD
BRANCH 3 6
ATOM      6  CA  ALA F   1       0.920  29.735 -16.349  1.00 31.15 LIG 0.27  C 
ATOM      7  CB  ALA F   1       2.041  30.079 -16.815  0.00 20.00 LIG 0.05  C 
BRANCH 6 8
ATOM      8  N   ALA F   1       0.528  28.306 -16.101  1.00 31.97 LIG-0.07  N 
ATOM      9 H3   ALA F   1      -0.358  28.246 -16.049  1.00 31.97 LIG 0.28  HD
ATOM     10 H1   ALA F   1       0.821  27.797 -16.769  1.00 31.97 LIG 0.28  HD
ATOM     11 H2   ALA F   1       0.889  28.028 -15.337  1.00 31.97 LIG 0.28  HD
ENDBRANCH 6 8
ENDBRANCH 3 6
ENDBRANCH 1 2
BRANCH 1 12
ATOM     12  C   HIS F   2      -3.892  29.741 -16.976  1.00 31.15 LIG 0.24  C 
ATOM     13 O    HIS F   2      -4.133  28.656 -17.537  1.00 30.80 LIG-0.27  OA
ATOM     14  N   ALA F   3      -4.656  30.251 -16.003  1.00 30.97 LIG-0.35  N 
ATOM     15 H    ALA F   3      -4.490  30.998 -15.610  1.00 30.97 LIG 0.16  HD
BRANCH 14 16
ATOM     16  CA  ALA F   3      -5.858  29.577 -15.516  1.00 31.72 LIG 0.16  C 
ATOM     17  CB  ALA F   3      -5.727  29.514 -13.974  0.00 20.00 LIG 0.04  C 
BRANCH 16 18
ATOM     18  C   ALA F   3      -7.112  30.444 -15.576  1.00 32.37 LIG 0.22  C 
ATOM     19 O    ALA F   3      -7.835  30.586 -14.579  1.00 33.75 LIG-0.29  OA
ENDBRANCH 16 18
ENDBRANCH 14 16
ENDBRANCH 1 12
BRANCH 1 20
ATOM     20  CB  HIS F   2      -2.671  30.800 -18.900  1.00 30.20 LIG 0.10  C 
BRANCH 20 21
ATOM     21  CG  HIS F   2      -1.988  32.065 -19.347  1.00 29.66 LIG 0.06  A 
ATOM     22 ND1  HIS F   2      -0.771  32.079 -20.000  1.00 29.25 LIG-0.24  NA
ATOM     23  CE1 HIS F   2      -0.410  33.330 -20.240  1.00 27.69 LIG 0.23  A 
ATOM     24 NE2  HIS F   2      -1.342  34.134 -19.750  1.00 31.40 LIG-0.25  NA
ATOM     25  CD2 HIS F   2      -2.332  33.367 -19.172  1.00 30.69 LIG 0.14  A 
ENDBRANCH 20 21
ENDBRANCH 1 20
TORSDOF 8
ENDMDL
MODEL 33
USER: ADFR SOLUTION from run 84
USER: SCORE 7.094824 LL:  -1.288 LR:  -6.450 RR:   0.000 FEB:  -4.064
USER: RMSD 2.323402
USER: SEED 83
USER: STATUS no improvement in best in 30 clusters for 5 generations
USER: GENES 10
USER: genes 0 Translation |==|  0.44740 0.40624 0.59466
USER: genes 1 Rotation |==|  0.41561 0.49146 0.69185 0.95387
USER: genes 2 Torsion [C]-CA--N-[C] |==|  0.17159
USER: genes 3 Torsion [N]-C--CA-[N] |==|  0.86061
USER: genes 4 Torsion [C]-CA--N-[H3] |==|  0.68080
USER: genes 5 Torsion [N]-CA--C-[N] |==|  0.61667
USER: genes 6 Torsion [C]-N--CA-[CB] |==|  0.35948
USER: genes 7 Torsion [N]-CA--C-[O] |==|  0.02724
USER: genes 8 Torsion [N]-CA--CB-[CG] |==|  0.72060
USER: genes 9 Torsion [CA]-CB--CG-[ND1] |==|  0.51400
ROOT
ATOM      1  CA  HIS F   2      -2.279  29.437 -17.608  1.00 30.59 LIG 0.18  C 
ENDROOT
BRANCH 1 2
ATOM      2  N   HIS F   2      -2.127  29.451 -19.067  1.00 30.70 LIG-0.35  N 
ATOM      3  C   ALA F   1      -2.792  30.295 -19.854  1.00 31.15 LIG 0.25  C 
ATOM      4 O    ALA F   1      -3.598  31.130 -19.432  1.00 30.37 LIG-0.27  OA
ATOM      5 H    HIS F   2      -1.570  28.866 -19.364  1.00 30.70 LIG 0.16  HD
BRANCH 3 6
ATOM      6  CA  ALA F   1      -2.503  30.177 -21.356  1.00 31.15 LIG 0.27  C 
ATOM      7  CB  ALA F   1      -3.334  29.503 -22.023  0.00 20.00 LIG 0.05  C 
BRANCH 6 8
ATOM      8  N   ALA F   1      -1.027  30.187 -21.636  1.00 31.97 LIG-0.07  N 
ATOM      9 H3   ALA F   1      -0.818  30.917 -22.100  1.00 31.97 LIG 0.28  HD
ATOM     10 H1   ALA F   1      -0.579  30.185 -20.868  1.00 31.97 LIG 0.28  HD
ATOM     11 H2   ALA F   1      -0.810  29.464 -22.107  1.00 31.97 LIG 0.28  HD
ENDBRANCH 6 8
ENDBRANCH 3 6
ENDBRANCH 1 2
BRANCH 1 12
ATOM     12  C   HIS F   2      -3.723  29.100 -17.211  1.00 31.15 LIG 0.24  C 
ATOM     13 O    HIS F   2      -4.352  28.204 -17.805  1.00 30.80 LIG-0.27  OA
ATOM     14  N   ALA F   3      -4.239  29.820 -16.208  1.00 30.97 LIG-0.35  N 
ATOM     15 H    ALA F   3      -3.806  30.437 -15.793  1.00 30.97 LIG 0.16  HD
BRANCH 14 16
ATOM     16  CA  ALA F   3      -5.602  29.620 -15.721  1.00 31.72 LIG 0.16  C 
ATOM     17  CB  ALA F   3      -5.499  29.467 -14.184  0.00 20.00 LIG 0.04  C 
BRANCH 16 18
ATOM     18  C   ALA F   3      -6.450  30.890 -15.740  1.00 32.37 LIG 0.22  C 
ATOM     19 O    ALA F   3      -6.044  31.917 -16.302  1.00 33.75 LIG-0.29  OA
ENDBRANCH 16 18
ENDBRANCH 14 16
ENDBRANCH 1 12
BRANCH 1 20
ATOM     20  CB  HIS F   2      -1.880  30.797 -17.012  1.00 30.20 LIG 0.10  C 
BRANCH 20 21
ATOM     21  CG  HIS F   2      -0.501  30.837 -16.410  1.00 29.66 LIG 0.06  A 
ATOM     22 ND1  HIS F   2       0.001  31.934 -15.737  1.00 29.25 LIG-0.24  NA
ATOM     23  CE1 HIS F   2       1.243  31.687 -15.349  1.00 27.69 LIG 0.23  A 
ATOM     24 NE2  HIS F   2       1.575  30.472 -15.760  1.00 31.40 LIG-0.25  NA
ATOM     25  CD2 HIS F   2       0.506  29.926 -16.440  1.00 30.69 LIG 0.14  A 
ENDBRANCH 20 21
ENDBRANCH 1 20
TORSDOF 8
ENDMDL
MODEL 34
USER: ADFR SOLUTION from run 147
USER: SCORE 7.028446 LL:  -1.274 LR:  -6.418 RR:   0.000 FEB:  -4.031
USER: RMSD 2.618564
USER: SEED 146
USER: STATUS no improvement in best in 31 clusters for 5 generations
USER: GENES 10
USER: genes 0 Translation |==|  0.44537 0.60598 0.60151
USER: genes 1 Rotation |==|  0.69106 0.46714 0.68212 0.92338
USER: genes 2 Torsion [C]-CA--N-[C] |==|  0.66676
USER: genes 3 Torsion [N]-C--CA-[N] |==|  0.51195
USER: genes 4 Torsion [C]-CA--N-[H3] |==|  0.14552
USER: genes 5 Torsion [N]-CA--C-[N] |==|  0.58889
USER: genes 6 Torsion [C]-N--CA-[CB] |==|  0.84666
USER: genes 7 Torsion [N]-CA--C-[O] |==|  0.13977
USER: genes 8 Torsion [N]-CA--CB-[CG] |==|  0.65193
USER: genes 9 Torsion [CA]-CB--CG-[ND1] |==|  0.40449
ROOT
ATOM      1  CA  HIS F   2      -2.314  31.834 -17.500  1.00 30.59 LIG 0.18  C 
ENDROOT
BRANCH 1 2
ATOM      2  N   HIS F   2      -2.605  33.115 -18.152  1.00 30.70 LIG-0.35  N 
ATOM      3  C   ALA F   1      -2.106  33.449 -19.341  1.00 31.15 LIG 0.25  C 
ATOM      4 O    ALA F   1      -1.351  32.722 -19.994  1.00 30.37 LIG-0.27  OA
ATOM      5 H    HIS F   2      -3.125  33.627 -17.697  1.00 30.70 LIG 0.16  HD
BRANCH 3 6
ATOM      6  CA  ALA F   1      -2.522  34.825 -19.878  1.00 31.15 LIG 0.27  C 
ATOM      7  CB  ALA F   1      -3.638  35.255 -19.477  0.00 20.00 LIG 0.05  C 
BRANCH 6 8
ATOM      8  N   ALA F   1      -1.992  35.060 -21.263  1.00 31.97 LIG-0.07  N 
ATOM      9 H3   ALA F   1      -2.218  34.378 -21.788  1.00 31.97 LIG 0.28  HD
ATOM     10 H1   ALA F   1      -2.338  35.812 -21.590  1.00 31.97 LIG 0.28  HD
ATOM     11 H2   ALA F   1      -1.106  35.130 -21.234  1.00 31.97 LIG 0.28  HD
ENDBRANCH 6 8
ENDBRANCH 3 6
ENDBRANCH 1 2
BRANCH 1 12
ATOM     12  C   HIS F   2      -3.603  31.037 -17.259  1.00 31.15 LIG 0.24  C 
ATOM     13 O    HIS F   2      -4.564  31.130 -18.046  1.00 30.80 LIG-0.27  OA
ATOM     14  N   ALA F   3      -3.617  30.257 -16.172  1.00 30.97 LIG-0.35  N 
ATOM     15 H    ALA F   3      -2.954  30.187 -15.628  1.00 30.97 LIG 0.16  HD
BRANCH 14 16
ATOM     16  CA  ALA F   3      -4.774  29.444 -15.805  1.00 31.72 LIG 0.16  C 
ATOM     17  CB  ALA F   3      -5.978  30.414 -15.718  0.00 20.00 LIG 0.04  C 
BRANCH 16 18
ATOM     18  C   ALA F   3      -5.298  28.577 -16.947  1.00 32.37 LIG 0.22  C 
ATOM     19 O    ALA F   3      -4.532  27.854 -17.599  1.00 33.75 LIG-0.29  OA
ENDBRANCH 16 18
ENDBRANCH 14 16
ENDBRANCH 1 12
BRANCH 1 20
ATOM     20  CB  HIS F   2      -1.587  32.062 -16.165  1.00 30.20 LIG 0.10  C 
BRANCH 20 21
ATOM     21  CG  HIS F   2      -0.280  31.327 -16.030  1.00 29.66 LIG 0.06  A 
ATOM     22 ND1  HIS F   2       0.809  31.836 -15.349  1.00 29.25 LIG-0.24  NA
ATOM     23  CE1 HIS F   2       1.819  30.983 -15.426  1.00 27.69 LIG 0.23  A 
ATOM     24 NE2  HIS F   2       1.432  29.942 -16.147  1.00 31.40 LIG-0.25  NA
ATOM     25  CD2 HIS F   2       0.128  30.141 -16.551  1.00 30.69 LIG 0.14  A 
ENDBRANCH 20 21
ENDBRANCH 1 20
TORSDOF 8
ENDMDL
MODEL 35
USER: ADFR SOLUTION from run 66
USER: SCORE 7.249531 LL:  -1.035 LR:  -6.406 RR:   0.000 FEB:  -4.020
USER: RMSD 4.643311
USER: SEED 65
USER: STATUS no improvement in best in 38 clusters for 5 generations
USER: GENES 10
USER: genes 0 Translation |==|  0.41749 0.42422 0.54827
USER: genes 1 Rotation |==|  0.87336 0.31161 0.26135 0.63476
USER: genes 2 Torsion [C]-CA--N-[C] |==|  0.65578
USER: genes 3 Torsion [N]-C--CA-[N] |==|  0.00825
USER: genes 4 Torsion [C]-CA--N-[H3] |==|  0.66068
USER: genes 5 Torsion [N]-CA--C-[N] |==|  0.00684
USER: genes 6 Torsion [C]-N--CA-[CB] |==|  0.86096
USER: genes 7 Torsion [N]-CA--C-[O] |==|  0.26856
USER: genes 8 Torsion [N]-CA--CB-[CG] |==|  0.70342
USER: genes 9 Torsion [CA]-CB--CG-[ND1] |==|  0.45385
ROOT
ATOM      1  CA  HIS F   2      -2.795  29.653 -18.339  1.00 30.59 LIG 0.18  C 
ENDROOT
BRANCH 1 2
ATOM      2  N   HIS F   2      -1.563  29.287 -17.633  1.00 30.70 LIG-0.35  N 
ATOM      3  C   ALA F   1      -0.359  29.708 -18.018  1.00 31.15 LIG 0.25  C 
ATOM      4 O    ALA F   1      -0.171  30.430 -19.001  1.00 30.37 LIG-0.27  OA
ATOM      5 H    HIS F   2      -1.690  28.778 -16.951  1.00 30.70 LIG 0.16  HD
BRANCH 3 6
ATOM      6  CA  ALA F   1       0.820  29.237 -17.157  1.00 31.15 LIG 0.27  C 
ATOM      7  CB  ALA F   1       1.925  29.122 -17.756  0.00 20.00 LIG 0.05  C 
BRANCH 6 8
ATOM      8  N   ALA F   1       0.370  28.312 -16.063  1.00 31.97 LIG-0.07  N 
ATOM      9 H3   ALA F   1       0.610  28.646 -15.274  1.00 31.97 LIG 0.28  HD
ATOM     10 H1   ALA F   1      -0.515  28.226 -16.092  1.00 31.97 LIG 0.28  HD
ATOM     11 H2   ALA F   1       0.749  27.514 -16.174  1.00 31.97 LIG 0.28  HD
ENDBRANCH 6 8
ENDBRANCH 3 6
ENDBRANCH 1 2
BRANCH 1 12
ATOM     12  C   HIS F   2      -3.796  30.319 -17.385  1.00 31.15 LIG 0.24  C 
ATOM     13 O    HIS F   2      -4.924  30.660 -17.786  1.00 30.80 LIG-0.27  OA
ATOM     14  N   ALA F   3      -3.377  30.499 -16.127  1.00 30.97 LIG-0.35  N 
ATOM     15 H    ALA F   3      -2.600  30.261 -15.845  1.00 30.97 LIG 0.16  HD
BRANCH 14 16
ATOM     16  CA  ALA F   3      -4.213  31.126 -15.105  1.00 31.72 LIG 0.16  C 
ATOM     17  CB  ALA F   3      -4.746  32.441 -15.724  0.00 20.00 LIG 0.04  C 
BRANCH 16 18
ATOM     18  C   ALA F   3      -5.560  30.435 -14.911  1.00 32.37 LIG 0.22  C 
ATOM     19 O    ALA F   3      -5.723  29.602 -14.007  1.00 33.75 LIG-0.29  OA
ENDBRANCH 16 18
ENDBRANCH 14 16
ENDBRANCH 1 12
BRANCH 1 20
ATOM     20  CB  HIS F   2      -3.437  28.411 -18.980  1.00 30.20 LIG 0.10  C 
BRANCH 20 21
ATOM     21  CG  HIS F   2      -3.302  28.339 -20.478  1.00 29.66 LIG 0.06  A 
ATOM     22 ND1  HIS F   2      -3.503  27.180 -21.202  1.00 29.25 LIG-0.24  NA
ATOM     23  CE1 HIS F   2      -3.286  27.416 -22.487  1.00 27.69 LIG 0.23  A 
ATOM     24 NE2  HIS F   2      -2.934  28.685 -22.624  1.00 31.40 LIG-0.25  NA
ATOM     25  CD2 HIS F   2      -2.921  29.280 -21.379  1.00 30.69 LIG 0.14  A 
ENDBRANCH 20 21
ENDBRANCH 1 20
TORSDOF 8
ENDMDL
MODEL 36
USER: ADFR SOLUTION from run 128
USER: SCORE 7.797767 LL:  -1.411 LR:  -6.396 RR:   0.000 FEB:  -4.010
USER: RMSD 2.470317
USER: SEED 127
USER: STATUS no improvement in best in 31 clusters for 5 generations
USER: GENES 10
USER: genes 0 Translation |==|  0.52647 0.43872 0.56362
USER: genes 1 Rotation |==|  0.72534 0.44016 0.50846 0.94223
USER: genes 2 Torsion [C]-CA--N-[C] |==|  0.83093
USER: genes 3 Torsion [N]-C--CA-[N] |==|  0.95516
USER: genes 4 Torsion [C]-CA--N-[H3] |==|  0.20228
USER: genes 5 Torsion [N]-CA--C-[N] |==|  0.91777
USER: genes 6 Torsion [C]-N--CA-[CB] |==|  0.28923
USER: genes 7 Torsion [N]-CA--C-[O] |==|  0.01813
USER: genes 8 Torsion [N]-CA--CB-[CG] |==|  0.82337
USER: genes 9 Torsion [CA]-CB--CG-[ND1] |==|  0.03662
ROOT
ATOM      1  CA  HIS F   2      -0.915  29.827 -18.097  1.00 30.59 LIG 0.18  C 
ENDROOT
BRANCH 1 2
ATOM      2  N   HIS F   2      -0.439  31.144 -18.533  1.00 30.70 LIG-0.35  N 
ATOM      3  C   ALA F   1      -1.015  31.830 -19.518  1.00 31.15 LIG 0.25  C 
ATOM      4 O    ALA F   1      -1.989  31.420 -20.156  1.00 30.37 LIG-0.27  OA
ATOM      5 H    HIS F   2       0.244  31.429 -18.094  1.00 30.70 LIG 0.16  HD
BRANCH 3 6
ATOM      6  CA  ALA F   1      -0.392  33.195 -19.835  1.00 31.15 LIG 0.27  C 
ATOM      7  CB  ALA F   1      -0.168  33.426 -21.055  0.00 20.00 LIG 0.05  C 
BRANCH 6 8
ATOM      8  N   ALA F   1       0.503  33.665 -18.724  1.00 31.97 LIG-0.07  N 
ATOM      9 H3   ALA F   1       1.253  33.186 -18.724  1.00 31.97 LIG 0.28  HD
ATOM     10 H1   ALA F   1       0.700  34.524 -18.844  1.00 31.97 LIG 0.28  HD
ATOM     11 H2   ALA F   1       0.087  33.563 -17.944  1.00 31.97 LIG 0.28  HD
ENDBRANCH 6 8
ENDBRANCH 3 6
ENDBRANCH 1 2
BRANCH 1 12
ATOM     12  C   HIS F   2      -2.360  29.908 -17.587  1.00 31.15 LIG 0.24  C 
ATOM     13 O    HIS F   2      -3.124  28.930 -17.686  1.00 30.80 LIG-0.27  OA
ATOM     14  N   ALA F   3      -2.726  31.074 -17.042  1.00 30.97 LIG-0.35  N 
ATOM     15 H    ALA F   3      -2.200  31.751 -16.968  1.00 30.97 LIG 0.16  HD
BRANCH 14 16
ATOM     16  CA  ALA F   3      -4.070  31.307 -16.518  1.00 31.72 LIG 0.16  C 
ATOM     17  CB  ALA F   3      -3.953  31.243 -14.975  0.00 20.00 LIG 0.04  C 
BRANCH 16 18
ATOM     18  C   ALA F   3      -4.524  32.760 -16.624  1.00 32.37 LIG 0.22  C 
ATOM     19 O    ALA F   3      -3.837  33.599 -17.224  1.00 33.75 LIG-0.29  OA
ENDBRANCH 16 18
ENDBRANCH 14 16
ENDBRANCH 1 12
BRANCH 1 20
ATOM     20  CB  HIS F   2      -0.005  29.263 -16.993  1.00 30.20 LIG 0.10  C 
BRANCH 20 21
ATOM     21  CG  HIS F   2       1.413  28.998 -17.424  1.00 29.66 LIG 0.06  A 
ATOM     22 ND1  HIS F   2       1.946  29.472 -18.606  1.00 29.25 LIG-0.24  NA
ATOM     23  CE1 HIS F   2       3.197  29.057 -18.727  1.00 27.69 LIG 0.23  A 
ATOM     24 NE2  HIS F   2       3.494  28.313 -17.672  1.00 31.40 LIG-0.25  NA
ATOM     25  CD2 HIS F   2       2.388  28.248 -16.850  1.00 30.69 LIG 0.14  A 
ENDBRANCH 20 21
ENDBRANCH 1 20
TORSDOF 8
ENDMDL
MODEL 37
USER: ADFR SOLUTION from run 84
USER: SCORE 7.395668 LL:  -1.225 LR:  -6.346 RR:   0.000 FEB:  -3.960
USER: RMSD 3.104578
USER: SEED 83
USER: STATUS no improvement in best in 30 clusters for 5 generations
USER: GENES 10
USER: genes 0 Translation |==|  0.50726 0.42804 0.59110
USER: genes 1 Rotation |==|  0.42929 0.36551 0.67468 0.94317
USER: genes 2 Torsion [C]-CA--N-[C] |==|  0.18889
USER: genes 3 Torsion [N]-C--CA-[N] |==|  0.15606
USER: genes 4 Torsion [C]-CA--N-[H3] |==|  0.09425
USER: genes 5 Torsion [N]-CA--C-[N] |==|  0.06279
USER: genes 6 Torsion [C]-N--CA-[CB] |==|  0.53110
USER: genes 7 Torsion [N]-CA--C-[O] |==|  0.12403
USER: genes 8 Torsion [N]-CA--CB-[CG] |==|  0.81234
USER: genes 9 Torsion [CA]-CB--CG-[ND1] |==|  0.95644
ROOT
ATOM      1  CA  HIS F   2      -1.247  29.698 -17.664  1.00 30.59 LIG 0.18  C 
ENDROOT
BRANCH 1 2
ATOM      2  N   HIS F   2      -0.485  30.057 -18.865  1.00 30.70 LIG-0.35  N 
ATOM      3  C   ALA F   1      -0.749  31.143 -19.589  1.00 31.15 LIG 0.25  C 
ATOM      4 O    ALA F   1      -1.658  31.937 -19.324  1.00 30.37 LIG-0.27  OA
ATOM      5 H    HIS F   2       0.144  29.503 -19.056  1.00 30.70 LIG 0.16  HD
BRANCH 3 6
ATOM      6  CA  ALA F   1       0.155  31.370 -20.808  1.00 31.15 LIG 0.27  C 
ATOM      7  CB  ALA F   1       0.251  32.564 -21.205  0.00 20.00 LIG 0.05  C 
BRANCH 6 8
ATOM      8  N   ALA F   1       0.141  30.187 -21.733  1.00 31.97 LIG-0.07  N 
ATOM      9 H3   ALA F   1      -0.666  29.812 -21.724  1.00 31.97 LIG 0.28  HD
ATOM     10 H1   ALA F   1       0.334  30.454 -22.560  1.00 31.97 LIG 0.28  HD
ATOM     11 H2   ALA F   1       0.746  29.593 -21.465  1.00 31.97 LIG 0.28  HD
ENDBRANCH 6 8
ENDBRANCH 3 6
ENDBRANCH 1 2
BRANCH 1 12
ATOM     12  C   HIS F   2      -2.683  29.298 -18.026  1.00 31.15 LIG 0.24  C 
ATOM     13 O    HIS F   2      -3.593  29.365 -17.178  1.00 30.80 LIG-0.27  OA
ATOM     14  N   ALA F   3      -2.879  28.885 -19.283  1.00 30.97 LIG-0.35  N 
ATOM     15 H    ALA F   3      -2.254  28.841 -19.873  1.00 30.97 LIG 0.16  HD
BRANCH 14 16
ATOM     16  CA  ALA F   3      -4.189  28.465 -19.775  1.00 31.72 LIG 0.16  C 
ATOM     17  CB  ALA F   3      -3.946  27.801 -21.153  0.00 20.00 LIG 0.04  C 
BRANCH 16 18
ATOM     18  C   ALA F   3      -4.746  27.238 -19.057  1.00 32.37 LIG 0.22  C 
ATOM     19 O    ALA F   3      -4.689  27.143 -17.823  1.00 33.75 LIG-0.29  OA
ENDBRANCH 16 18
ENDBRANCH 14 16
ENDBRANCH 1 12
BRANCH 1 20
ATOM     20  CB  HIS F   2      -1.269  30.872 -16.670  1.00 30.20 LIG 0.10  C 
BRANCH 20 21
ATOM     21  CG  HIS F   2       0.066  31.198 -16.056  1.00 29.66 LIG 0.06  A 
ATOM     22 ND1  HIS F   2       1.148  30.341 -16.096  1.00 29.25 LIG-0.24  NA
ATOM     23  CE1 HIS F   2       2.169  30.884 -15.451  1.00 27.69 LIG 0.23  A 
ATOM     24 NE2  HIS F   2       1.785  32.059 -14.976  1.00 31.40 LIG-0.25  NA
ATOM     25  CD2 HIS F   2       0.468  32.271 -15.327  1.00 30.69 LIG 0.14  A 
ENDBRANCH 20 21
ENDBRANCH 1 20
TORSDOF 8
ENDMDL
MODEL 38
USER: ADFR SOLUTION from run 114
USER: SCORE 7.389374 LL:  -1.167 LR:  -6.322 RR:   0.000 FEB:  -3.936
USER: RMSD 3.669233
USER: SEED 113
USER: STATUS no improvement in best in 42 clusters for 5 generations
USER: GENES 10
USER: genes 0 Translation |==|  0.34258 0.46591 0.68466
USER: genes 1 Rotation |==|  0.37287 0.50761 0.67488 0.95077
USER: genes 2 Torsion [C]-CA--N-[C] |==|  0.81101
USER: genes 3 Torsion [N]-C--CA-[N] |==|  0.16130
USER: genes 4 Torsion [C]-CA--N-[H3] |==|  0.11388
USER: genes 5 Torsion [N]-CA--C-[N] |==|  0.46667
USER: genes 6 Torsion [C]-N--CA-[CB] |==|  0.85486
USER: genes 7 Torsion [N]-CA--C-[O] |==|  0.09037
USER: genes 8 Torsion [N]-CA--CB-[CG] |==|  0.84395
USER: genes 9 Torsion [CA]-CB--CG-[ND1] |==|  0.73204
ROOT
ATOM      1  CA  HIS F   2      -4.087  30.153 -16.191  1.00 30.59 LIG 0.18  C 
ENDROOT
BRANCH 1 2
ATOM      2  N   HIS F   2      -3.917  29.893 -17.624  1.00 30.70 LIG-0.35  N 
ATOM      3  C   ALA F   1      -4.077  28.685 -18.162  1.00 31.15 LIG 0.25  C 
ATOM      4 O    ALA F   1      -4.372  27.680 -17.508  1.00 30.37 LIG-0.27  OA
ATOM      5 H    HIS F   2      -3.705  30.590 -18.081  1.00 30.70 LIG 0.16  HD
BRANCH 3 6
ATOM      6  CA  ALA F   1      -3.869  28.597 -19.680  1.00 31.15 LIG 0.27  C 
ATOM      7  CB  ALA F   1      -4.487  27.665 -20.265  0.00 20.00 LIG 0.05  C 
BRANCH 6 8
ATOM      8  N   ALA F   1      -2.497  29.060 -20.077  1.00 31.97 LIG-0.07  N 
ATOM      9 H3   ALA F   1      -1.900  28.754 -19.493  1.00 31.97 LIG 0.28  HD
ATOM     10 H1   ALA F   1      -2.303  28.751 -20.889  1.00 31.97 LIG 0.28  HD
ATOM     11 H2   ALA F   1      -2.475  29.949 -20.086  1.00 31.97 LIG 0.28  HD
ENDBRANCH 6 8
ENDBRANCH 3 6
ENDBRANCH 1 2
BRANCH 1 12
ATOM     12  C   HIS F   2      -5.556  29.994 -15.776  1.00 31.15 LIG 0.24  C 
ATOM     13 O    HIS F   2      -6.452  29.901 -16.636  1.00 30.80 LIG-0.27  OA
ATOM     14  N   ALA F   3      -5.794  29.961 -14.459  1.00 30.97 LIG-0.35  N 
ATOM     15 H    ALA F   3      -5.178  30.020 -13.863  1.00 30.97 LIG 0.16  HD
BRANCH 14 16
ATOM     16  CA  ALA F   3      -7.141  29.820 -13.910  1.00 31.72 LIG 0.16  C 
ATOM     17  CB  ALA F   3      -8.003  30.917 -14.582  0.00 20.00 LIG 0.04  C 
BRANCH 16 18
ATOM     18  C   ALA F   3      -7.899  28.611 -14.453  1.00 32.37 LIG 0.22  C 
ATOM     19 O    ALA F   3      -7.299  27.570 -14.759  1.00 33.75 LIG-0.29  OA
ENDBRANCH 16 18
ENDBRANCH 14 16
ENDBRANCH 1 12
BRANCH 1 20
ATOM     20  CB  HIS F   2      -3.599  31.568 -15.838  1.00 30.20 LIG 0.10  C 
BRANCH 20 21
ATOM     21  CG  HIS F   2      -2.172  31.853 -16.226  1.00 29.66 LIG 0.06  A 
ATOM     22 ND1  HIS F   2      -1.112  31.739 -15.349  1.00 29.25 LIG-0.24  NA
ATOM     23  CE1 HIS F   2       0.011  32.081 -15.963  1.00 27.69 LIG 0.23  A 
ATOM     24 NE2  HIS F   2      -0.283  32.430 -17.206  1.00 31.40 LIG-0.25  NA
ATOM     25  CD2 HIS F   2      -1.645  32.311 -17.391  1.00 30.69 LIG 0.14  A 
ENDBRANCH 20 21
ENDBRANCH 1 20
TORSDOF 8
ENDMDL
MODEL 39
USER: ADFR SOLUTION from run 145
USER: SCORE 7.537554 LL:  -1.303 LR:  -6.306 RR:   0.000 FEB:  -3.919
USER: RMSD 5.123206
USER: SEED 144
USER: STATUS no improvement in best in 20 clusters for 5 generations
USER: GENES 10
USER: genes 0 Translation |==|  0.42564 0.43770 0.51376
USER: genes 1 Rotation |==|  0.88883 0.37791 0.22524 0.59172
USER: genes 2 Torsion [C]-CA--N-[C] |==|  0.86047
USER: genes 3 Torsion [N]-C--CA-[N] |==|  0.76605
USER: genes 4 Torsion [C]-CA--N-[H3] |==|  0.03257
USER: genes 5 Torsion [N]-CA--C-[N] |==|  0.35582
USER: genes 6 Torsion [C]-N--CA-[CB] |==|  0.15872
USER: genes 7 Torsion [N]-CA--C-[O] |==|  0.92912
USER: genes 8 Torsion [N]-CA--CB-[CG] |==|  0.31132
USER: genes 9 Torsion [CA]-CB--CG-[ND1] |==|  0.79449
ROOT
ATOM      1  CA  HIS F   2      -2.655  29.814 -18.882  1.00 30.59 LIG 0.18  C 
ENDROOT
BRANCH 1 2
ATOM      2  N   HIS F   2      -1.331  29.385 -18.418  1.00 30.70 LIG-0.35  N 
ATOM      3  C   ALA F   1      -0.661  30.022 -17.460  1.00 31.15 LIG 0.25  C 
ATOM      4 O    ALA F   1      -1.084  31.030 -16.886  1.00 30.37 LIG-0.27  OA
ATOM      5 H    HIS F   2      -1.031  28.687 -18.822  1.00 30.70 LIG 0.16  HD
BRANCH 3 6
ATOM      6  CA  ALA F   1       0.706  29.430 -17.093  1.00 31.15 LIG 0.27  C 
ATOM      7  CB  ALA F   1       1.576  29.450 -18.007  0.00 20.00 LIG 0.05  C 
BRANCH 6 8
ATOM      8  N   ALA F   1       0.573  28.312 -16.099  1.00 31.97 LIG-0.07  N 
ATOM      9 H3   ALA F   1      -0.282  28.078 -16.026  1.00 31.97 LIG 0.28  HD
ATOM     10 H1   ALA F   1       1.050  27.612 -16.374  1.00 31.97 LIG 0.28  HD
ATOM     11 H2   ALA F   1       0.875  28.582 -15.307  1.00 31.97 LIG 0.28  HD
ENDBRANCH 6 8
ENDBRANCH 3 6
ENDBRANCH 1 2
BRANCH 1 12
ATOM     12  C   HIS F   2      -3.608  30.027 -17.699  1.00 31.15 LIG 0.24  C 
ATOM     13 O    HIS F   2      -3.763  29.138 -16.841  1.00 30.80 LIG-0.27  OA
ATOM     14  N   ALA F   3      -4.240  31.206 -17.658  1.00 30.97 LIG-0.35  N 
ATOM     15 H    ALA F   3      -4.132  31.824 -18.247  1.00 30.97 LIG 0.16  HD
BRANCH 14 16
ATOM     16  CA  ALA F   3      -5.183  31.553 -16.597  1.00 31.72 LIG 0.16  C 
ATOM     17  CB  ALA F   3      -4.408  31.416 -15.264  0.00 20.00 LIG 0.04  C 
BRANCH 16 18
ATOM     18  C   ALA F   3      -5.476  33.048 -16.506  1.00 32.37 LIG 0.22  C 
ATOM     19 O    ALA F   3      -4.654  33.883 -16.910  1.00 33.75 LIG-0.29  OA
ENDBRANCH 16 18
ENDBRANCH 14 16
ENDBRANCH 1 12
BRANCH 1 20
ATOM     20  CB  HIS F   2      -3.250  28.776 -19.848  1.00 30.20 LIG 0.10  C 
BRANCH 20 21
ATOM     21  CG  HIS F   2      -4.451  28.042 -19.316  1.00 29.66 LIG 0.06  A 
ATOM     22 ND1  HIS F   2      -4.372  27.059 -18.349  1.00 29.25 LIG-0.24  NA
ATOM     23  CE1 HIS F   2      -5.581  26.577 -18.105  1.00 27.69 LIG 0.23  A 
ATOM     24 NE2  HIS F   2      -6.445  27.200 -18.892  1.00 31.40 LIG-0.25  NA
ATOM     25  CD2 HIS F   2      -5.761  28.110 -19.671  1.00 30.69 LIG 0.14  A 
ENDBRANCH 20 21
ENDBRANCH 1 20
TORSDOF 8
ENDMDL
MODEL 40
USER: ADFR SOLUTION from run 106
USER: SCORE 7.814675 LL:  -1.600 LR:  -6.284 RR:   0.000 FEB:  -3.898
USER: RMSD 5.135255
USER: SEED 105
USER: STATUS no improvement in best in 30 clusters for 5 generations
USER: GENES 10
USER: genes 0 Translation |==|  0.43327 0.75690 0.51897
USER: genes 1 Rotation |==|  0.38431 0.44045 0.95065 0.67317
USER: genes 2 Torsion [C]-CA--N-[C] |==|  0.76828
USER: genes 3 Torsion [N]-C--CA-[N] |==|  0.23959
USER: genes 4 Torsion [C]-CA--N-[H3] |==|  0.94345
USER: genes 5 Torsion [N]-CA--C-[N] |==|  0.93564
USER: genes 6 Torsion [C]-N--CA-[CB] |==|  0.85431
USER: genes 7 Torsion [N]-CA--C-[O] |==|  0.30456
USER: genes 8 Torsion [N]-CA--CB-[CG] |==|  0.34174
USER: genes 9 Torsion [CA]-CB--CG-[ND1] |==|  0.74303
ROOT
ATOM      1  CA  HIS F   2      -2.523  33.645 -18.800  1.00 30.59 LIG 0.18  C 
ENDROOT
BRANCH 1 2
ATOM      2  N   HIS F   2      -2.207  33.627 -20.232  1.00 30.70 LIG-0.35  N 
ATOM      3  C   ALA F   1      -0.968  33.766 -20.700  1.00 31.15 LIG 0.25  C 
ATOM      4 O    ALA F   1       0.020  33.930 -19.977  1.00 30.37 LIG-0.27  OA
ATOM      5 H    HIS F   2      -2.895  33.520 -20.739  1.00 30.70 LIG 0.16  HD
BRANCH 3 6
ATOM      6  CA  ALA F   1      -0.819  33.713 -22.226  1.00 31.15 LIG 0.27  C 
ATOM      7  CB  ALA F   1       0.004  32.865 -22.668  0.00 20.00 LIG 0.05  C 
BRANCH 6 8
ATOM      8  N   ALA F   1      -1.035  35.062 -22.848  1.00 31.97 LIG-0.07  N 
ATOM      9 H3   ALA F   1      -1.489  35.580 -22.286  1.00 31.97 LIG 0.28  HD
ATOM     10 H1   ALA F   1      -0.247  35.436 -23.026  1.00 31.97 LIG 0.28  HD
ATOM     11 H2   ALA F   1      -1.496  34.970 -23.604  1.00 31.97 LIG 0.28  HD
ENDBRANCH 6 8
ENDBRANCH 3 6
ENDBRANCH 1 2
BRANCH 1 12
ATOM     12  C   HIS F   2      -2.303  32.262 -18.174  1.00 31.15 LIG 0.24  C 
ATOM     13 O    HIS F   2      -2.095  32.144 -16.952  1.00 30.80 LIG-0.27  OA
ATOM     14  N   ALA F   3      -2.352  31.221 -19.014  1.00 30.97 LIG-0.35  N 
ATOM     15 H    ALA F   3      -2.500  31.298 -19.858  1.00 30.97 LIG 0.16  HD
BRANCH 14 16
ATOM     16  CA  ALA F   3      -2.155  29.844 -18.569  1.00 31.72 LIG 0.16  C 
ATOM     17  CB  ALA F   3      -0.823  29.827 -17.780  0.00 20.00 LIG 0.04  C 
BRANCH 16 18
ATOM     18  C   ALA F   3      -3.074  29.437 -17.419  1.00 32.37 LIG 0.22  C 
ATOM     19 O    ALA F   3      -3.997  28.629 -17.599  1.00 33.75 LIG-0.29  OA
ENDBRANCH 16 18
ENDBRANCH 14 16
ENDBRANCH 1 12
BRANCH 1 20
ATOM     20  CB  HIS F   2      -3.977  34.092 -18.575  1.00 30.20 LIG 0.10  C 
BRANCH 20 21
ATOM     21  CG  HIS F   2      -4.823  33.110 -17.809  1.00 29.66 LIG 0.06  A 
ATOM     22 ND1  HIS F   2      -5.597  32.141 -18.417  1.00 29.25 LIG-0.24  NA
ATOM     23  CE1 HIS F   2      -6.249  31.450 -17.494  1.00 27.69 LIG 0.23  A 
ATOM     24 NE2  HIS F   2      -5.939  31.945 -16.305  1.00 31.40 LIG-0.25  NA
ATOM     25  CD2 HIS F   2      -5.061  32.995 -16.477  1.00 30.69 LIG 0.14  A 
ENDBRANCH 20 21
ENDBRANCH 1 20
TORSDOF 8
ENDMDL
MODEL 41
USER: ADFR SOLUTION from run 141
USER: SCORE 7.637912 LL:  -1.399 LR:  -6.271 RR:   0.000 FEB:  -3.884
USER: RMSD 4.612717
USER: SEED 140
USER: STATUS no improvement in best in 18 clusters for 5 generations
USER: GENES 10
USER: genes 0 Translation |==|  0.55618 0.50506 0.64508
USER: genes 1 Rotation |==|  0.43141 0.24129 0.62675 0.90286
USER: genes 2 Torsion [C]-CA--N-[C] |==|  0.79798
USER: genes 3 Torsion [N]-C--CA-[N] |==|  0.87453
USER: genes 4 Torsion [C]-CA--N-[H3] |==|  0.15809
USER: genes 5 Torsion [N]-CA--C-[N] |==|  0.43696
USER: genes 6 Torsion [C]-N--CA-[CB] |==|  0.17145
USER: genes 7 Torsion [N]-CA--C-[O] |==|  0.12542
USER: genes 8 Torsion [N]-CA--CB-[CG] |==|  0.40233
USER: genes 9 Torsion [CA]-CB--CG-[ND1] |==|  0.26720
ROOT
ATOM      1  CA  HIS F   2      -0.403  30.623 -16.814  1.00 30.59 LIG 0.18  C 
ENDROOT
BRANCH 1 2
ATOM      2  N   HIS F   2       0.846  31.132 -17.389  1.00 30.70 LIG-0.35  N 
ATOM      3  C   ALA F   1       1.659  30.382 -18.130  1.00 31.15 LIG 0.25  C 
ATOM      4 O    ALA F   1       1.442  29.194 -18.391  1.00 30.37 LIG-0.27  OA
ATOM      5 H    HIS F   2       1.003  31.958 -17.203  1.00 30.70 LIG 0.16  HD
BRANCH 3 6
ATOM      6  CA  ALA F   1       2.918  31.081 -18.659  1.00 31.15 LIG 0.27  C 
ATOM      7  CB  ALA F   1       3.991  30.810 -18.053  0.00 20.00 LIG 0.05  C 
BRANCH 6 8
ATOM      8  N   ALA F   1       2.601  32.437 -19.220  1.00 31.97 LIG-0.07  N 
ATOM      9 H3   ALA F   1       2.204  32.931 -18.597  1.00 31.97 LIG 0.28  HD
ATOM     10 H1   ALA F   1       3.355  32.835 -19.478  1.00 31.97 LIG 0.28  HD
ATOM     11 H2   ALA F   1       2.059  32.350 -19.920  1.00 31.97 LIG 0.28  HD
ENDBRANCH 6 8
ENDBRANCH 3 6
ENDBRANCH 1 2
BRANCH 1 12
ATOM     12  C   HIS F   2      -1.469  30.434 -17.901  1.00 31.15 LIG 0.24  C 
ATOM     13 O    HIS F   2      -1.401  31.063 -18.973  1.00 30.80 LIG-0.27  OA
ATOM     14  N   ALA F   3      -2.448  29.566 -17.619  1.00 30.97 LIG-0.35  N 
ATOM     15 H    ALA F   3      -2.496  29.126 -16.881  1.00 30.97 LIG 0.16  HD
BRANCH 14 16
ATOM     16  CA  ALA F   3      -3.538  29.284 -18.551  1.00 31.72 LIG 0.16  C 
ATOM     17  CB  ALA F   3      -2.882  28.688 -19.821  0.00 20.00 LIG 0.04  C 
BRANCH 16 18
ATOM     18  C   ALA F   3      -4.372  28.065 -18.165  1.00 32.37 LIG 0.22  C 
ATOM     19 O    ALA F   3      -4.747  27.896 -16.996  1.00 33.75 LIG-0.29  OA
ENDBRANCH 16 18
ENDBRANCH 14 16
ENDBRANCH 1 12
BRANCH 1 20
ATOM     20  CB  HIS F   2      -0.928  31.581 -15.732  1.00 30.20 LIG 0.10  C 
BRANCH 20 21
ATOM     21  CG  HIS F   2      -2.428  31.687 -15.664  1.00 29.66 LIG 0.06  A 
ATOM     22 ND1  HIS F   2      -3.200  30.956 -14.782  1.00 29.25 LIG-0.24  NA
ATOM     23  CE1 HIS F   2      -4.480  31.237 -14.974  1.00 27.69 LIG 0.23  A 
ATOM     24 NE2  HIS F   2      -4.571  32.114 -15.962  1.00 31.40 LIG-0.25  NA
ATOM     25  CD2 HIS F   2      -3.302  32.400 -16.421  1.00 30.69 LIG 0.14  A 
ENDBRANCH 20 21
ENDBRANCH 1 20
TORSDOF 8
ENDMDL
MODEL 42
USER: ADFR SOLUTION from run 93
USER: SCORE 7.207675 LL:  -1.308 LR:  -6.252 RR:   0.000 FEB:  -3.865
USER: RMSD 4.763230
USER: SEED 92
USER: STATUS no improvement in best in 31 clusters for 5 generations
USER: GENES 10
USER: genes 0 Translation |==|  0.40347 0.66230 0.66649
USER: genes 1 Rotation |==|  0.05209 0.43044 0.68801 0.59588
USER: genes 2 Torsion [C]-CA--N-[C] |==|  0.19884
USER: genes 3 Torsion [N]-C--CA-[N] |==|  0.42891
USER: genes 4 Torsion [C]-CA--N-[H3] |==|  0.90547
USER: genes 5 Torsion [N]-CA--C-[N] |==|  0.01164
USER: genes 6 Torsion [C]-N--CA-[CB] |==|  0.88572
USER: genes 7 Torsion [N]-CA--C-[O] |==|  0.19080
USER: genes 8 Torsion [N]-CA--CB-[CG] |==|  0.32079
USER: genes 9 Torsion [CA]-CB--CG-[ND1] |==|  0.78544
ROOT
ATOM      1  CA  HIS F   2      -3.037  32.510 -16.477  1.00 30.59 LIG 0.18  C 
ENDROOT
BRANCH 1 2
ATOM      2  N   HIS F   2      -1.807  31.950 -15.907  1.00 30.70 LIG-0.35  N 
ATOM      3  C   ALA F   1      -1.152  30.932 -16.461  1.00 31.15 LIG 0.25  C 
ATOM      4 O    ALA F   1      -1.523  30.363 -17.493  1.00 30.37 LIG-0.27  OA
ATOM      5 H    HIS F   2      -1.550  32.341 -15.184  1.00 30.70 LIG 0.16  HD
BRANCH 3 6
ATOM      6  CA  ALA F   1       0.122  30.482 -15.736  1.00 31.15 LIG 0.27  C 
ATOM      7  CB  ALA F   1       1.004  31.370 -15.575  0.00 20.00 LIG 0.05  C 
BRANCH 6 8
ATOM      8  N   ALA F   1       0.438  29.041 -16.017  1.00 31.97 LIG-0.07  N 
ATOM      9 H3   ALA F   1      -0.319  28.583 -16.106  1.00 31.97 LIG 0.28  HD
ATOM     10 H1   ALA F   1       0.911  28.982 -16.769  1.00 31.97 LIG 0.28  HD
ATOM     11 H2   ALA F   1       0.911  28.704 -15.343  1.00 31.97 LIG 0.28  HD
ENDBRANCH 6 8
ENDBRANCH 3 6
ENDBRANCH 1 2
BRANCH 1 12
ATOM     12  C   HIS F   2      -4.215  31.543 -16.293  1.00 31.15 LIG 0.24  C 
ATOM     13 O    HIS F   2      -5.331  31.803 -16.781  1.00 30.80 LIG-0.27  OA
ATOM     14  N   ALA F   3      -3.959  30.432 -15.592  1.00 30.97 LIG-0.35  N 
ATOM     15 H    ALA F   3      -3.188  30.248 -15.257  1.00 30.97 LIG 0.16  HD
BRANCH 14 16
ATOM     16  CA  ALA F   3      -4.980  29.421 -15.327  1.00 31.72 LIG 0.16  C 
ATOM     17  CB  ALA F   3      -6.280  30.191 -14.990  0.00 20.00 LIG 0.04  C 
BRANCH 16 18
ATOM     18  C   ALA F   3      -5.483  28.718 -16.585  1.00 32.37 LIG 0.22  C 
ATOM     19 O    ALA F   3      -4.747  27.952 -17.224  1.00 33.75 LIG-0.29  OA
ENDBRANCH 16 18
ENDBRANCH 14 16
ENDBRANCH 1 12
BRANCH 1 20
ATOM     20  CB  HIS F   2      -2.846  32.818 -17.971  1.00 30.20 LIG 0.10  C 
BRANCH 20 21
ATOM     21  CG  HIS F   2      -3.709  32.000 -18.895  1.00 29.66 LIG 0.06  A 
ATOM     22 ND1  HIS F   2      -3.439  30.685 -19.218  1.00 29.25 LIG-0.24  NA
ATOM     23  CE1 HIS F   2      -4.351  30.240 -20.069  1.00 27.69 LIG 0.23  A 
ATOM     24 NE2  HIS F   2      -5.198  31.226 -20.326  1.00 31.40 LIG-0.25  NA
ATOM     25  CD2 HIS F   2      -4.808  32.343 -19.616  1.00 30.69 LIG 0.14  A 
ENDBRANCH 20 21
ENDBRANCH 1 20
TORSDOF 8
ENDMDL
MODEL 43
USER: ADFR SOLUTION from run 149
USER: SCORE 7.511730 LL:  -1.594 LR:  -6.238 RR:   0.000 FEB:  -3.851
USER: RMSD 3.268748
USER: SEED 148
USER: STATUS no improvement in best in 21 clusters for 5 generations
USER: GENES 10
USER: genes 0 Translation |==|  0.57035 0.43428 0.58814
USER: genes 1 Rotation |==|  0.62497 0.37870 0.43989 0.96482
USER: genes 2 Torsion [C]-CA--N-[C] |==|  0.52222
USER: genes 3 Torsion [N]-C--CA-[N] |==|  0.08121
USER: genes 4 Torsion [C]-CA--N-[H3] |==|  0.05975
USER: genes 5 Torsion [N]-CA--C-[N] |==|  0.47716
USER: genes 6 Torsion [C]-N--CA-[CB] |==|  0.45346
USER: genes 7 Torsion [N]-CA--C-[O] |==|  0.03844
USER: genes 8 Torsion [N]-CA--CB-[CG] |==|  0.09029
USER: genes 9 Torsion [CA]-CB--CG-[ND1] |==|  0.67402
ROOT
ATOM      1  CA  HIS F   2      -0.158  29.773 -17.711  1.00 30.59 LIG 0.18  C 
ENDROOT
BRANCH 1 2
ATOM      2  N   HIS F   2       0.815  30.563 -18.472  1.00 30.70 LIG-0.35  N 
ATOM      3  C   ALA F   1       1.958  30.055 -18.929  1.00 31.15 LIG 0.25  C 
ATOM      4 O    ALA F   1       2.304  28.883 -18.748  1.00 30.37 LIG-0.27  OA
ATOM      5 H    HIS F   2       0.579  31.382 -18.594  1.00 30.70 LIG 0.16  HD
BRANCH 3 6
ATOM      6  CA  ALA F   1       2.853  31.022 -19.714  1.00 31.15 LIG 0.27  C 
ATOM      7  CB  ALA F   1       3.958  30.552 -20.104  0.00 20.00 LIG 0.05  C 
BRANCH 6 8
ATOM      8  N   ALA F   1       2.671  32.440 -19.255  1.00 31.97 LIG-0.07  N 
ATOM      9 H3   ALA F   1       2.331  32.444 -18.433  1.00 31.97 LIG 0.28  HD
ATOM     10 H1   ALA F   1       3.458  32.855 -19.253  1.00 31.97 LIG 0.28  HD
ATOM     11 H2   ALA F   1       2.115  32.861 -19.807  1.00 31.97 LIG 0.28  HD
ENDBRANCH 6 8
ENDBRANCH 3 6
ENDBRANCH 1 2
BRANCH 1 12
ATOM     12  C   HIS F   2      -1.454  30.565 -17.491  1.00 31.15 LIG 0.24  C 
ATOM     13 O    HIS F   2      -1.523  31.769 -17.802  1.00 30.80 LIG-0.27  OA
ATOM     14  N   ALA F   3      -2.476  29.884 -16.958  1.00 30.97 LIG-0.35  N 
ATOM     15 H    ALA F   3      -2.433  29.051 -16.747  1.00 30.97 LIG 0.16  HD
BRANCH 14 16
ATOM     16  CA  ALA F   3      -3.771  30.501 -16.684  1.00 31.72 LIG 0.16  C 
ATOM     17  CB  ALA F   3      -4.776  29.340 -16.493  0.00 20.00 LIG 0.04  C 
BRANCH 16 18
ATOM     18  C   ALA F   3      -3.881  31.094 -15.282  1.00 32.37 LIG 0.22  C 
ATOM     19 O    ALA F   3      -2.872  31.262 -14.582  1.00 33.75 LIG-0.29  OA
ENDBRANCH 16 18
ENDBRANCH 14 16
ENDBRANCH 1 12
BRANCH 1 20
ATOM     20  CB  HIS F   2       0.431  29.355 -16.353  1.00 30.20 LIG 0.10  C 
BRANCH 20 21
ATOM     21  CG  HIS F   2       1.392  30.347 -15.755  1.00 29.66 LIG 0.06  A 
ATOM     22 ND1  HIS F   2       2.722  30.064 -15.516  1.00 29.25 LIG-0.24  NA
ATOM     23  CE1 HIS F   2       3.307  31.114 -14.960  1.00 27.69 LIG 0.23  A 
ATOM     24 NE2  HIS F   2       2.400  32.067 -14.813  1.00 31.40 LIG-0.25  NA
ATOM     25  CD2 HIS F   2       1.190  31.606 -15.288  1.00 30.69 LIG 0.14  A 
ENDBRANCH 20 21
ENDBRANCH 1 20
TORSDOF 8
ENDMDL
MODEL 44
USER: ADFR SOLUTION from run 127
USER: SCORE 7.392340 LL:  -1.283 LR:  -6.238 RR:   0.000 FEB:  -3.852
USER: RMSD 3.488514
USER: SEED 126
USER: STATUS no improvement in best in 30 clusters for 5 generations
USER: GENES 10
USER: genes 0 Translation |==|  0.56647 0.63313 0.43757
USER: genes 1 Rotation |==|  0.65082 0.70596 0.46514 0.92850
USER: genes 2 Torsion [C]-CA--N-[C] |==|  0.68932
USER: genes 3 Torsion [N]-C--CA-[N] |==|  0.14092
USER: genes 4 Torsion [C]-CA--N-[H3] |==|  0.42689
USER: genes 5 Torsion [N]-CA--C-[N] |==|  0.43203
USER: genes 6 Torsion [C]-N--CA-[CB] |==|  0.84194
USER: genes 7 Torsion [N]-CA--C-[O] |==|  0.43042
USER: genes 8 Torsion [N]-CA--CB-[CG] |==|  0.47458
USER: genes 9 Torsion [CA]-CB--CG-[ND1] |==|  0.15966
ROOT
ATOM      1  CA  HIS F   2      -0.225  32.160 -20.082  1.00 30.59 LIG 0.18  C 
ENDROOT
BRANCH 1 2
ATOM      2  N   HIS F   2      -0.846  33.294 -20.775  1.00 30.70 LIG-0.35  N 
ATOM      3  C   ALA F   1      -1.876  33.155 -21.607  1.00 31.15 LIG 0.25  C 
ATOM      4 O    ALA F   1      -2.394  32.067 -21.877  1.00 30.37 LIG-0.27  OA
ATOM      5 H    HIS F   2      -0.482  34.052 -20.594  1.00 30.70 LIG 0.16  HD
BRANCH 3 6
ATOM      6  CA  ALA F   1      -2.406  34.450 -22.237  1.00 31.15 LIG 0.27  C 
ATOM      7  CB  ALA F   1      -3.573  34.391 -22.711  0.00 20.00 LIG 0.05  C 
BRANCH 6 8
ATOM      8  N   ALA F   1      -1.299  35.257 -22.853  1.00 31.97 LIG-0.07  N 
ATOM      9 H3   ALA F   1      -1.629  35.761 -23.508  1.00 31.97 LIG 0.28  HD
ATOM     10 H1   ALA F   1      -0.931  35.778 -22.233  1.00 31.97 LIG 0.28  HD
ATOM     11 H2   ALA F   1      -0.681  34.709 -23.184  1.00 31.97 LIG 0.28  HD
ENDBRANCH 6 8
ENDBRANCH 3 6
ENDBRANCH 1 2
BRANCH 1 12
ATOM     12  C   HIS F   2      -0.490  32.229 -18.573  1.00 31.15 LIG 0.24  C 
ATOM     13 O    HIS F   2      -0.735  33.317 -18.020  1.00 30.80 LIG-0.27  OA
ATOM     14  N   ALA F   3      -0.441  31.065 -17.914  1.00 30.97 LIG-0.35  N 
ATOM     15 H    ALA F   3      -0.277  30.310 -18.293  1.00 30.97 LIG 0.16  HD
BRANCH 14 16
ATOM     16  CA  ALA F   3      -0.665  30.970 -16.473  1.00 31.72 LIG 0.16  C 
ATOM     17  CB  ALA F   3       0.371  31.909 -15.808  0.00 20.00 LIG 0.04  C 
BRANCH 16 18
ATOM     18  C   ALA F   3      -1.924  31.694 -16.002  1.00 32.37 LIG 0.22  C 
ATOM     19 O    ALA F   3      -2.502  31.351 -14.960  1.00 33.75 LIG-0.29  OA
ENDBRANCH 16 18
ENDBRANCH 14 16
ENDBRANCH 1 12
BRANCH 1 20
ATOM     20  CB  HIS F   2       1.290  32.132 -20.343  1.00 30.20 LIG 0.10  C 
BRANCH 20 21
ATOM     21  CG  HIS F   2       2.052  31.139 -19.506  1.00 29.66 LIG 0.06  A 
ATOM     22 ND1  HIS F   2       1.777  29.786 -19.498  1.00 29.25 LIG-0.24  NA
ATOM     23  CE1 HIS F   2       2.587  29.173 -18.649  1.00 27.69 LIG 0.23  A 
ATOM     24 NE2  HIS F   2       3.371  30.082 -18.090  1.00 31.40 LIG-0.25  NA
ATOM     25  CD2 HIS F   2       3.045  31.323 -18.598  1.00 30.69 LIG 0.14  A 
ENDBRANCH 20 21
ENDBRANCH 1 20
TORSDOF 8
ENDMDL
MODEL 45
USER: ADFR SOLUTION from run 192
USER: SCORE 7.563471 LL:  -1.417 LR:  -6.208 RR:   0.000 FEB:  -3.822
USER: RMSD 3.296267
USER: SEED 191
USER: STATUS no improvement in best in 31 clusters for 5 generations
USER: GENES 10
USER: genes 0 Translation |==|  0.48917 0.57299 0.49252
USER: genes 1 Rotation |==|  0.68319 0.40615 0.69103 0.91370
USER: genes 2 Torsion [C]-CA--N-[C] |==|  0.77525
USER: genes 3 Torsion [N]-C--CA-[N] |==|  0.42386
USER: genes 4 Torsion [C]-CA--N-[H3] |==|  0.90946
USER: genes 5 Torsion [N]-CA--C-[N] |==|  0.36111
USER: genes 6 Torsion [C]-N--CA-[CB] |==|  0.45482
USER: genes 7 Torsion [N]-CA--C-[O] |==|  0.12541
USER: genes 8 Torsion [N]-CA--CB-[CG] |==|  0.62873
USER: genes 9 Torsion [CA]-CB--CG-[ND1] |==|  0.91141
ROOT
ATOM      1  CA  HIS F   2      -1.559  31.438 -19.217  1.00 30.59 LIG 0.18  C 
ENDROOT
BRANCH 1 2
ATOM      2  N   HIS F   2      -1.634  32.775 -19.814  1.00 30.70 LIG-0.35  N 
ATOM      3  C   ALA F   1      -1.522  32.989 -21.123  1.00 31.15 LIG 0.25  C 
ATOM      4 O    ALA F   1      -1.335  32.089 -21.948  1.00 30.37 LIG-0.27  OA
ATOM      5 H    HIS F   2      -1.758  33.405 -19.240  1.00 30.70 LIG 0.16  HD
BRANCH 3 6
ATOM      6  CA  ALA F   1      -1.635  34.451 -21.575  1.00 31.15 LIG 0.27  C 
ATOM      7  CB  ALA F   1      -2.717  35.032 -21.283  0.00 20.00 LIG 0.05  C 
BRANCH 6 8
ATOM      8  N   ALA F   1      -0.879  34.695 -22.849  1.00 31.97 LIG-0.07  N 
ATOM      9 H3   ALA F   1      -0.163  34.168 -22.876  1.00 31.97 LIG 0.28  HD
ATOM     10 H1   ALA F   1      -1.405  34.517 -23.545  1.00 31.97 LIG 0.28  HD
ATOM     11 H2   ALA F   1      -0.622  35.546 -22.883  1.00 31.97 LIG 0.28  HD
ENDBRANCH 6 8
ENDBRANCH 3 6
ENDBRANCH 1 2
BRANCH 1 12
ATOM     12  C   HIS F   2      -2.901  30.705 -19.343  1.00 31.15 LIG 0.24  C 
ATOM     13 O    HIS F   2      -3.961  31.257 -18.996  1.00 30.80 LIG-0.27  OA
ATOM     14  N   ALA F   3      -2.847  29.464 -19.842  1.00 30.97 LIG-0.35  N 
ATOM     15 H    ALA F   3      -2.117  29.080 -20.087  1.00 30.97 LIG 0.16  HD
BRANCH 14 16
ATOM     16  CA  ALA F   3      -4.040  28.638 -20.016  1.00 31.72 LIG 0.16  C 
ATOM     17  CB  ALA F   3      -3.638  27.489 -20.973  0.00 20.00 LIG 0.04  C 
BRANCH 16 18
ATOM     18  C   ALA F   3      -4.372  27.778 -18.799  1.00 32.37 LIG 0.22  C 
ATOM     19 O    ALA F   3      -4.339  28.256 -17.656  1.00 33.75 LIG-0.29  OA
ENDBRANCH 16 18
ENDBRANCH 14 16
ENDBRANCH 1 12
BRANCH 1 20
ATOM     20  CB  HIS F   2      -1.155  31.531 -17.736  1.00 30.20 LIG 0.10  C 
BRANCH 20 21
ATOM     21  CG  HIS F   2      -0.077  30.567 -17.318  1.00 29.66 LIG 0.06  A 
ATOM     22 ND1  HIS F   2       0.080  29.315 -17.880  1.00 29.25 LIG-0.24  NA
ATOM     23  CE1 HIS F   2       1.087  28.688 -17.294  1.00 27.69 LIG 0.23  A 
ATOM     24 NE2  HIS F   2       1.584  29.481 -16.356  1.00 31.40 LIG-0.25  NA
ATOM     25  CD2 HIS F   2       0.862  30.656 -16.341  1.00 30.69 LIG 0.14  A 
ENDBRANCH 20 21
ENDBRANCH 1 20
TORSDOF 8
ENDMDL
MODEL 46
USER: ADFR SOLUTION from run 123
USER: SCORE 7.631118 LL:  -1.498 LR:  -6.206 RR:   0.000 FEB:  -3.820
USER: RMSD 4.671888
USER: SEED 122
USER: STATUS no improvement in best in 37 clusters for 5 generations
USER: GENES 10
USER: genes 0 Translation |==|  0.46696 0.71385 0.53887
USER: genes 1 Rotation |==|  0.08785 0.55785 0.76027 0.59511
USER: genes 2 Torsion [C]-CA--N-[C] |==|  0.84998
USER: genes 3 Torsion [N]-C--CA-[N] |==|  0.28528
USER: genes 4 Torsion [C]-CA--N-[H3] |==|  0.14526
USER: genes 5 Torsion [N]-CA--C-[N] |==|  0.92309
USER: genes 6 Torsion [C]-N--CA-[CB] |==|  0.46017
USER: genes 7 Torsion [N]-CA--C-[O] |==|  0.98182
USER: genes 8 Torsion [N]-CA--CB-[CG] |==|  0.84168
USER: genes 9 Torsion [CA]-CB--CG-[ND1] |==|  0.10722
ROOT
ATOM      1  CA  HIS F   2      -1.942  33.128 -18.487  1.00 30.59 LIG 0.18  C 
ENDROOT
BRANCH 1 2
ATOM      2  N   HIS F   2      -0.837  32.191 -18.256  1.00 30.70 LIG-0.35  N 
ATOM      3  C   ALA F   1      -0.363  31.921 -17.041  1.00 31.15 LIG 0.25  C 
ATOM      4 O    ALA F   1      -0.799  32.437 -16.007  1.00 30.37 LIG-0.27  OA
ATOM      5 H    HIS F   2      -0.527  31.835 -18.975  1.00 30.70 LIG 0.16  HD
BRANCH 3 6
ATOM      6  CA  ALA F   1       0.789  30.908 -16.984  1.00 31.15 LIG 0.27  C 
ATOM      7  CB  ALA F   1       0.504  29.781 -16.495  0.00 20.00 LIG 0.05  C 
BRANCH 6 8
ATOM      8  N   ALA F   1       2.112  31.589 -16.783  1.00 31.97 LIG-0.07  N 
ATOM      9 H3   ALA F   1       2.064  32.131 -16.079  1.00 31.97 LIG 0.28  HD
ATOM     10 H1   ALA F   1       2.743  30.977 -16.642  1.00 31.97 LIG 0.28  HD
ATOM     11 H2   ALA F   1       2.316  32.062 -17.508  1.00 31.97 LIG 0.28  HD
ENDBRANCH 6 8
ENDBRANCH 3 6
ENDBRANCH 1 2
BRANCH 1 12
ATOM     12  C   HIS F   2      -3.166  32.752 -17.642  1.00 31.15 LIG 0.24  C 
ATOM     13 O    HIS F   2      -3.981  33.621 -17.283  1.00 30.80 LIG-0.27  OA
ATOM     14  N   ALA F   3      -3.288  31.456 -17.330  1.00 30.97 LIG-0.35  N 
ATOM     15 H    ALA F   3      -2.729  30.851 -17.580  1.00 30.97 LIG 0.16  HD
BRANCH 14 16
ATOM     16  CA  ALA F   3      -4.396  30.945 -16.526  1.00 31.72 LIG 0.16  C 
ATOM     17  CB  ALA F   3      -4.386  29.406 -16.698  0.00 20.00 LIG 0.04  C 
BRANCH 16 18
ATOM     18  C   ALA F   3      -4.129  30.980 -15.024  1.00 32.37 LIG 0.22  C 
ATOM     19 O    ALA F   3      -3.015  31.298 -14.584  1.00 33.75 LIG-0.29  OA
ENDBRANCH 16 18
ENDBRANCH 14 16
ENDBRANCH 1 12
BRANCH 1 20
ATOM     20  CB  HIS F   2      -2.326  33.151 -19.976  1.00 30.20 LIG 0.10  C 
BRANCH 20 21
ATOM     21  CG  HIS F   2      -1.197  33.502 -20.909  1.00 29.66 LIG 0.06  A 
ATOM     22 ND1  HIS F   2       0.099  33.062 -20.728  1.00 29.25 LIG-0.24  NA
ATOM     23  CE1 HIS F   2       0.872  33.553 -21.684  1.00 27.69 LIG 0.23  A 
ATOM     24 NE2  HIS F   2       0.128  34.312 -22.474  1.00 31.40 LIG-0.25  NA
ATOM     25  CD2 HIS F   2      -1.168  34.309 -22.000  1.00 30.69 LIG 0.14  A 
ENDBRANCH 20 21
ENDBRANCH 1 20
TORSDOF 8
ENDMDL
MODEL 47
USER: ADFR SOLUTION from run 140
USER: SCORE 6.919176 LL:  -1.084 LR:  -6.195 RR:   0.000 FEB:  -3.809
USER: RMSD 4.279897
USER: SEED 139
USER: STATUS no improvement in best in 20 clusters for 5 generations
USER: GENES 10
USER: genes 0 Translation |==|  0.51153 0.41906 0.59959
USER: genes 1 Rotation |==|  0.40288 0.36524 0.67216 0.93905
USER: genes 2 Torsion [C]-CA--N-[C] |==|  0.20084
USER: genes 3 Torsion [N]-C--CA-[N] |==|  0.23673
USER: genes 4 Torsion [C]-CA--N-[H3] |==|  0.33510
USER: genes 5 Torsion [N]-CA--C-[N] |==|  0.01411
USER: genes 6 Torsion [C]-N--CA-[CB] |==|  0.54104
USER: genes 7 Torsion [N]-CA--C-[O] |==|  0.15126
USER: genes 8 Torsion [N]-CA--CB-[CG] |==|  0.33549
USER: genes 9 Torsion [CA]-CB--CG-[ND1] |==|  0.76769
ROOT
ATOM      1  CA  HIS F   2      -1.173  29.591 -17.530  1.00 30.59 LIG 0.18  C 
ENDROOT
BRANCH 1 2
ATOM      2  N   HIS F   2      -0.350  29.813 -18.724  1.00 30.70 LIG-0.35  N 
ATOM      3  C   ALA F   1      -0.492  30.879 -19.510  1.00 31.15 LIG 0.25  C 
ATOM      4 O    ALA F   1      -1.329  31.765 -19.314  1.00 30.37 LIG-0.27  OA
ATOM      5 H    HIS F   2       0.230  29.194 -18.866  1.00 30.70 LIG 0.16  HD
BRANCH 3 6
ATOM      6  CA  ALA F   1       0.461  30.956 -20.710  1.00 31.15 LIG 0.27  C 
ATOM      7  CB  ALA F   1       1.123  32.025 -20.817  0.00 20.00 LIG 0.05  C 
BRANCH 6 8
ATOM      8  N   ALA F   1      -0.070  30.187 -21.886  1.00 31.97 LIG-0.07  N 
ATOM      9 H3   ALA F   1      -0.171  30.736 -22.579  1.00 31.97 LIG 0.28  HD
ATOM     10 H1   ALA F   1       0.503  29.541 -22.101  1.00 31.97 LIG 0.28  HD
ATOM     11 H2   ALA F   1      -0.856  29.827 -21.676  1.00 31.97 LIG 0.28  HD
ENDBRANCH 6 8
ENDBRANCH 3 6
ENDBRANCH 1 2
BRANCH 1 12
ATOM     12  C   HIS F   2      -2.605  29.201 -17.918  1.00 31.15 LIG 0.24  C 
ATOM     13 O    HIS F   2      -3.483  29.062 -17.046  1.00 30.80 LIG-0.27  OA
ATOM     14  N   ALA F   3      -2.834  29.026 -19.225  1.00 30.97 LIG-0.35  N 
ATOM     15 H    ALA F   3      -2.231  29.126 -19.831  1.00 30.97 LIG 0.16  HD
BRANCH 14 16
ATOM     16  CA  ALA F   3      -4.145  28.648 -19.748  1.00 31.72 LIG 0.16  C 
ATOM     17  CB  ALA F   3      -3.915  28.184 -21.207  0.00 20.00 LIG 0.04  C 
BRANCH 16 18
ATOM     18  C   ALA F   3      -4.663  27.322 -19.196  1.00 32.37 LIG 0.22  C 
ATOM     19 O    ALA F   3      -4.747  27.132 -17.974  1.00 33.75 LIG-0.29  OA
ENDBRANCH 16 18
ENDBRANCH 14 16
ENDBRANCH 1 12
BRANCH 1 20
ATOM     20  CB  HIS F   2      -1.198  30.852 -16.650  1.00 30.20 LIG 0.10  C 
BRANCH 20 21
ATOM     21  CG  HIS F   2      -2.571  31.424 -16.414  1.00 29.66 LIG 0.06  A 
ATOM     22 ND1  HIS F   2      -3.200  32.273 -17.302  1.00 29.25 LIG-0.24  NA
ATOM     23  CE1 HIS F   2      -4.377  32.634 -16.814  1.00 27.69 LIG 0.23  A 
ATOM     24 NE2  HIS F   2      -4.530  32.061 -15.629  1.00 31.40 LIG-0.25  NA
ATOM     25  CD2 HIS F   2      -3.406  31.312 -15.350  1.00 30.69 LIG 0.14  A 
ENDBRANCH 20 21
ENDBRANCH 1 20
TORSDOF 8
ENDMDL
MODEL 48
USER: ADFR SOLUTION from run 93
USER: SCORE 7.228149 LL:  -1.233 LR:  -6.173 RR:   0.000 FEB:  -3.787
USER: RMSD 4.954906
USER: SEED 92
USER: STATUS no improvement in best in 31 clusters for 5 generations
USER: GENES 10
USER: genes 0 Translation |==|  0.50575 0.61868 0.58706
USER: genes 1 Rotation |==|  0.07511 0.54852 0.71404 0.64594
USER: genes 2 Torsion [C]-CA--N-[C] |==|  0.75889
USER: genes 3 Torsion [N]-C--CA-[N] |==|  0.81252
USER: genes 4 Torsion [C]-CA--N-[H3] |==|  0.99961
USER: genes 5 Torsion [N]-CA--C-[N] |==|  0.28894
USER: genes 6 Torsion [C]-N--CA-[CB] |==|  0.83899
USER: genes 7 Torsion [N]-CA--C-[O] |==|  0.38682
USER: genes 8 Torsion [N]-CA--CB-[CG] |==|  0.52870
USER: genes 9 Torsion [CA]-CB--CG-[ND1] |==|  0.90579
ROOT
ATOM      1  CA  HIS F   2      -1.273  31.986 -17.728  1.00 30.59 LIG 0.18  C 
ENDROOT
BRANCH 1 2
ATOM      2  N   HIS F   2      -0.330  30.900 -17.439  1.00 30.70 LIG-0.35  N 
ATOM      3  C   ALA F   1       0.330  30.805 -16.286  1.00 31.15 LIG 0.25  C 
ATOM      4 O    ALA F   1       0.216  31.620 -15.365  1.00 30.37 LIG-0.27  OA
ATOM      5 H    HIS F   2      -0.244  30.335 -18.082  1.00 30.70 LIG 0.16  HD
BRANCH 3 6
ATOM      6  CA  ALA F   1       1.268  29.599 -16.151  1.00 31.15 LIG 0.27  C 
ATOM      7  CB  ALA F   1       2.397  29.718 -16.701  0.00 20.00 LIG 0.05  C 
BRANCH 6 8
ATOM      8  N   ALA F   1       0.503  28.307 -16.099  1.00 31.97 LIG-0.07  N 
ATOM      9 H3   ALA F   1      -0.368  28.476 -16.155  1.00 31.97 LIG 0.28  HD
ATOM     10 H1   ALA F   1       0.749  27.789 -16.779  1.00 31.97 LIG 0.28  HD
ATOM     11 H2   ALA F   1       0.676  27.891 -15.332  1.00 31.97 LIG 0.28  HD
ENDBRANCH 6 8
ENDBRANCH 3 6
ENDBRANCH 1 2
BRANCH 1 12
ATOM     12  C   HIS F   2      -2.678  31.641 -17.218  1.00 31.15 LIG 0.24  C 
ATOM     13 O    HIS F   2      -3.396  30.832 -17.834  1.00 30.80 LIG-0.27  OA
ATOM     14  N   ALA F   3      -3.063  32.257 -16.094  1.00 30.97 LIG-0.35  N 
ATOM     15 H    ALA F   3      -2.568  32.814 -15.663  1.00 30.97 LIG 0.16  HD
BRANCH 14 16
ATOM     16  CA  ALA F   3      -4.374  32.037 -15.489  1.00 31.72 LIG 0.16  C 
ATOM     17  CB  ALA F   3      -5.420  32.413 -16.567  0.00 20.00 LIG 0.04  C 
BRANCH 16 18
ATOM     18  C   ALA F   3      -4.746  30.562 -15.356  1.00 32.37 LIG 0.22  C 
ATOM     19 O    ALA F   3      -5.312  30.138 -14.338  1.00 33.75 LIG-0.29  OA
ENDBRANCH 16 18
ENDBRANCH 14 16
ENDBRANCH 1 12
BRANCH 1 20
ATOM     20  CB  HIS F   2      -1.323  32.269 -19.239  1.00 30.20 LIG 0.10  C 
BRANCH 20 21
ATOM     21  CG  HIS F   2      -2.070  33.519 -19.618  1.00 29.66 LIG 0.06  A 
ATOM     22 ND1  HIS F   2      -3.175  33.980 -18.929  1.00 29.25 LIG-0.24  NA
ATOM     23  CE1 HIS F   2      -3.634  35.078 -19.509  1.00 27.69 LIG 0.23  A 
ATOM     24 NE2  HIS F   2      -2.876  35.341 -20.563  1.00 31.40 LIG-0.25  NA
ATOM     25  CD2 HIS F   2      -1.901  34.371 -20.662  1.00 30.69 LIG 0.14  A 
ENDBRANCH 20 21
ENDBRANCH 1 20
TORSDOF 8
ENDMDL
MODEL 49
USER: ADFR SOLUTION from run 77
USER: SCORE 7.339826 LL:  -1.249 LR:  -6.160 RR:   0.000 FEB:  -3.774
USER: RMSD 5.114380
USER: SEED 76
USER: STATUS no improvement in best in 37 clusters for 5 generations
USER: GENES 10
USER: genes 0 Translation |==|  0.41383 0.46290 0.49959
USER: genes 1 Rotation |==|  0.67277 0.52430 0.05174 0.63646
USER: genes 2 Torsion [C]-CA--N-[C] |==|  0.77045
USER: genes 3 Torsion [N]-C--CA-[N] |==|  0.01984
USER: genes 4 Torsion [C]-CA--N-[H3] |==|  0.01596
USER: genes 5 Torsion [N]-CA--C-[N] |==|  0.93573
USER: genes 6 Torsion [C]-N--CA-[CB] |==|  0.51834
USER: genes 7 Torsion [N]-CA--C-[O] |==|  0.21541
USER: genes 8 Torsion [N]-CA--CB-[CG] |==|  0.49115
USER: genes 9 Torsion [CA]-CB--CG-[ND1] |==|  0.68544
ROOT
ATOM      1  CA  HIS F   2      -2.858  30.117 -19.105  1.00 30.59 LIG 0.18  C 
ENDROOT
BRANCH 1 2
ATOM      2  N   HIS F   2      -1.997  30.069 -20.292  1.00 30.70 LIG-0.35  N 
ATOM      3  C   ALA F   1      -1.362  31.139 -20.766  1.00 31.15 LIG 0.25  C 
ATOM      4 O    ALA F   1      -1.446  32.263 -20.260  1.00 30.37 LIG-0.27  OA
ATOM      5 H    HIS F   2      -1.942  29.289 -20.650  1.00 30.70 LIG 0.16  HD
BRANCH 3 6
ATOM      6  CA  ALA F   1      -0.495  30.906 -22.010  1.00 31.15 LIG 0.27  C 
ATOM      7  CB  ALA F   1      -0.292  31.918 -22.734  0.00 20.00 LIG 0.05  C 
BRANCH 6 8
ATOM      8  N   ALA F   1      -0.675  29.518 -22.555  1.00 31.97 LIG-0.07  N 
ATOM      9 H3   ALA F   1      -1.320  29.103 -22.104  1.00 31.97 LIG 0.28  HD
ATOM     10 H1   ALA F   1      -0.897  29.564 -23.416  1.00 31.97 LIG 0.28  HD
ATOM     11 H2   ALA F   1       0.086  29.065 -22.470  1.00 31.97 LIG 0.28  HD
ENDBRANCH 6 8
ENDBRANCH 3 6
ENDBRANCH 1 2
BRANCH 1 12
ATOM     12  C   HIS F   2      -2.027  30.015 -17.820  1.00 31.15 LIG 0.24  C 
ATOM     13 O    HIS F   2      -2.470  30.450 -16.741  1.00 30.80 LIG-0.27  OA
ATOM     14  N   ALA F   3      -0.825  29.438 -17.943  1.00 30.97 LIG-0.35  N 
ATOM     15 H    ALA F   3      -0.517  29.133 -18.686  1.00 30.97 LIG 0.16  HD
BRANCH 14 16
ATOM     16  CA  ALA F   3       0.084  29.275 -16.811  1.00 31.72 LIG 0.16  C 
ATOM     17  CB  ALA F   3       1.412  28.730 -17.393  0.00 20.00 LIG 0.04  C 
BRANCH 16 18
ATOM     18  C   ALA F   3       0.629  30.593 -16.269  1.00 32.37 LIG 0.22  C 
ATOM     19 O    ALA F   3      -0.068  31.320 -15.547  1.00 33.75 LIG-0.29  OA
ENDBRANCH 16 18
ENDBRANCH 14 16
ENDBRANCH 1 12
BRANCH 1 20
ATOM     20  CB  HIS F   2      -3.894  28.981 -19.146  1.00 30.20 LIG 0.10  C 
BRANCH 20 21
ATOM     21  CG  HIS F   2      -4.780  28.897 -17.931  1.00 29.66 LIG 0.06  A 
ATOM     22 ND1  HIS F   2      -4.744  27.845 -17.038  1.00 29.25 LIG-0.24  NA
ATOM     23  CE1 HIS F   2      -5.652  28.033 -16.093  1.00 27.69 LIG 0.23  A 
ATOM     24 NE2  HIS F   2      -6.292  29.164 -16.348  1.00 31.40 LIG-0.25  NA
ATOM     25  CD2 HIS F   2      -5.776  29.715 -17.503  1.00 30.69 LIG 0.14  A 
ENDBRANCH 20 21
ENDBRANCH 1 20
TORSDOF 8
ENDMDL
MODEL 50
USER: ADFR SOLUTION from run 13
USER: SCORE 7.545062 LL:  -1.503 LR:  -6.148 RR:   0.000 FEB:  -3.762
USER: RMSD 5.085187
USER: SEED 458481
USER: STATUS no improvement in best in 37 clusters for 5 generations
USER: GENES 10
USER: genes 0 Translation |==|  0.42113 0.47659 0.58550
USER: genes 1 Rotation |==|  0.73238 0.21095 0.23746 0.70862
USER: genes 2 Torsion [C]-CA--N-[C] |==|  0.74536
USER: genes 3 Torsion [N]-C--CA-[N] |==|  0.03278
USER: genes 4 Torsion [C]-CA--N-[H3] |==|  0.67750
USER: genes 5 Torsion [N]-CA--C-[N] |==|  0.42933
USER: genes 6 Torsion [C]-N--CA-[CB] |==|  0.42296
USER: genes 7 Torsion [N]-CA--C-[O] |==|  0.89024
USER: genes 8 Torsion [N]-CA--CB-[CG] |==|  0.30780
USER: genes 9 Torsion [CA]-CB--CG-[ND1] |==|  0.28636
ROOT
ATOM      1  CA  HIS F   2      -2.733  30.281 -17.752  1.00 30.59 LIG 0.18  C 
ENDROOT
BRANCH 1 2
ATOM      2  N   HIS F   2      -1.473  29.727 -17.246  1.00 30.70 LIG-0.35  N 
ATOM      3  C   ALA F   1      -0.306  29.906 -17.861  1.00 31.15 LIG 0.25  C 
ATOM      4 O    ALA F   1      -0.179  30.543 -18.912  1.00 30.37 LIG-0.27  OA
ATOM      5 H    HIS F   2      -1.559  29.277 -16.517  1.00 30.70 LIG 0.16  HD
BRANCH 3 6
ATOM      6  CA  ALA F   1       0.913  29.264 -17.186  1.00 31.15 LIG 0.27  C 
ATOM      7  CB  ALA F   1       1.920  29.086 -17.925  0.00 20.00 LIG 0.05  C 
BRANCH 6 8
ATOM      8  N   ALA F   1       0.503  28.312 -16.099  1.00 31.97 LIG-0.07  N 
ATOM      9 H3   ALA F   1       0.796  28.612 -15.315  1.00 31.97 LIG 0.28  HD
ATOM     10 H1   ALA F   1      -0.384  28.248 -16.079  1.00 31.97 LIG 0.28  HD
ATOM     11 H2   ALA F   1       0.854  27.510 -16.259  1.00 31.97 LIG 0.28  HD
ENDBRANCH 6 8
ENDBRANCH 3 6
ENDBRANCH 1 2
BRANCH 1 12
ATOM     12  C   HIS F   2      -3.005  31.664 -17.147  1.00 31.15 LIG 0.24  C 
ATOM     13 O    HIS F   2      -2.520  31.982 -16.045  1.00 30.80 LIG-0.27  OA
ATOM     14  N   ALA F   3      -3.779  32.480 -17.872  1.00 30.97 LIG-0.35  N 
ATOM     15 H    ALA F   3      -4.113  32.266 -18.636  1.00 30.97 LIG 0.16  HD
BRANCH 14 16
ATOM     16  CA  ALA F   3      -4.133  33.826 -17.426  1.00 31.72 LIG 0.16  C 
ATOM     17  CB  ALA F   3      -4.377  34.661 -18.707  0.00 20.00 LIG 0.04  C 
BRANCH 16 18
ATOM     18  C   ALA F   3      -5.543  33.928 -16.849  1.00 32.37 LIG 0.22  C 
ATOM     19 O    ALA F   3      -6.486  33.310 -17.364  1.00 33.75 LIG-0.29  OA
ENDBRANCH 16 18
ENDBRANCH 14 16
ENDBRANCH 1 12
BRANCH 1 20
ATOM     20  CB  HIS F   2      -3.903  29.335 -17.435  1.00 30.20 LIG 0.10  C 
BRANCH 20 21
ATOM     21  CG  HIS F   2      -4.871  29.860 -16.408  1.00 29.66 LIG 0.06  A 
ATOM     22 ND1  HIS F   2      -6.108  30.383 -16.731  1.00 29.25 LIG-0.24  NA
ATOM     23  CE1 HIS F   2      -6.720  30.788 -15.628  1.00 27.69 LIG 0.23  A 
ATOM     24 NE2  HIS F   2      -5.918  30.562 -14.599  1.00 31.40 LIG-0.25  NA
ATOM     25  CD2 HIS F   2      -4.748  29.996 -15.063  1.00 30.69 LIG 0.14  A 
ENDBRANCH 20 21
ENDBRANCH 1 20
TORSDOF 8
ENDMDL
MODEL 51
USER: ADFR SOLUTION from run 101
USER: SCORE 7.279336 LL:  -1.167 LR:  -6.119 RR:   0.000 FEB:  -3.732
USER: RMSD 2.574986
USER: SEED 100
USER: STATUS no improvement in best in 41 clusters for 5 generations
USER: GENES 10
USER: genes 0 Translation |==|  0.43602 0.47871 0.62430
USER: genes 1 Rotation |==|  0.36149 0.58466 0.50959 0.97282
USER: genes 2 Torsion [C]-CA--N-[C] |==|  0.76637
USER: genes 3 Torsion [N]-C--CA-[N] |==|  0.05834
USER: genes 4 Torsion [C]-CA--N-[H3] |==|  0.02496
USER: genes 5 Torsion [N]-CA--C-[N] |==|  0.98544
USER: genes 6 Torsion [C]-N--CA-[CB] |==|  0.83629
USER: genes 7 Torsion [N]-CA--C-[O] |==|  0.31565
USER: genes 8 Torsion [N]-CA--CB-[CG] |==|  0.77467
USER: genes 9 Torsion [CA]-CB--CG-[ND1] |==|  0.12108
ROOT
ATOM      1  CA  HIS F   2      -2.476  30.307 -17.141  1.00 30.59 LIG 0.18  C 
ENDROOT
BRANCH 1 2
ATOM      2  N   HIS F   2      -2.710  29.864 -18.520  1.00 30.70 LIG-0.35  N 
ATOM      3  C   ALA F   1      -3.462  28.808 -18.821  1.00 31.15 LIG 0.25  C 
ATOM      4 O    ALA F   1      -4.020  28.103 -17.974  1.00 30.37 LIG-0.27  OA
ATOM      5 H    HIS F   2      -2.317  30.350 -19.112  1.00 30.70 LIG 0.16  HD
BRANCH 3 6
ATOM      6  CA  ALA F   1      -3.608  28.495 -20.316  1.00 31.15 LIG 0.27  C 
ATOM      7  CB  ALA F   1      -4.138  27.385 -20.595  0.00 20.00 LIG 0.05  C 
BRANCH 6 8
ATOM      8  N   ALA F   1      -2.497  29.108 -21.119  1.00 31.97 LIG-0.07  N 
ATOM      9 H3   ALA F   1      -1.879  29.437 -20.569  1.00 31.97 LIG 0.28  HD
ATOM     10 H1   ALA F   1      -2.130  28.488 -21.641  1.00 31.97 LIG 0.28  HD
ATOM     11 H2   ALA F   1      -2.823  29.764 -21.624  1.00 31.97 LIG 0.28  HD
ENDBRANCH 6 8
ENDBRANCH 3 6
ENDBRANCH 1 2
BRANCH 1 12
ATOM     12  C   HIS F   2      -3.621  31.201 -16.651  1.00 31.15 LIG 0.24  C 
ATOM     13 O    HIS F   2      -3.655  31.600 -15.472  1.00 30.80 LIG-0.27  OA
ATOM     14  N   ALA F   3      -4.553  31.513 -17.559  1.00 30.97 LIG-0.35  N 
ATOM     15 H    ALA F   3      -4.531  31.243 -18.376  1.00 30.97 LIG 0.16  HD
BRANCH 14 16
ATOM     16  CA  ALA F   3      -5.708  32.351 -17.241  1.00 31.72 LIG 0.16  C 
ATOM     17  CB  ALA F   3      -6.467  31.631 -16.100  0.00 20.00 LIG 0.04  C 
BRANCH 16 18
ATOM     18  C   ALA F   3      -5.349  33.620 -16.474  1.00 32.37 LIG 0.22  C 
ATOM     19 O    ALA F   3      -5.497  34.738 -16.989  1.00 33.75 LIG-0.29  OA
ENDBRANCH 16 18
ENDBRANCH 14 16
ENDBRANCH 1 12
BRANCH 1 20
ATOM     20  CB  HIS F   2      -1.142  31.066 -17.038  1.00 30.20 LIG 0.10  C 
BRANCH 20 21
ATOM     21  CG  HIS F   2       0.075  30.186 -16.940  1.00 29.66 LIG 0.06  A 
ATOM     22 ND1  HIS F   2       0.262  29.062 -17.720  1.00 29.25 LIG-0.24  NA
ATOM     23  CE1 HIS F   2       1.403  28.477 -17.391  1.00 27.69 LIG 0.23  A 
ATOM     24 NE2  HIS F   2       1.960  29.171 -16.410  1.00 31.40 LIG-0.25  NA
ATOM     25  CD2 HIS F   2       1.139  30.236 -16.099  1.00 30.69 LIG 0.14  A 
ENDBRANCH 20 21
ENDBRANCH 1 20
TORSDOF 8
ENDMDL
MODEL 52
USER: ADFR SOLUTION from run 102
USER: SCORE 7.225558 LL:  -1.407 LR:  -6.116 RR:   0.000 FEB:  -3.730
USER: RMSD 4.899108
USER: SEED 101
USER: STATUS no improvement in best in 33 clusters for 5 generations
USER: GENES 10
USER: genes 0 Translation |==|  0.35068 0.48414 0.68440
USER: genes 1 Rotation |==|  0.38111 0.49797 0.70790 0.93890
USER: genes 2 Torsion [C]-CA--N-[C] |==|  0.83836
USER: genes 3 Torsion [N]-C--CA-[N] |==|  0.16989
USER: genes 4 Torsion [C]-CA--N-[H3] |==|  0.42635
USER: genes 5 Torsion [N]-CA--C-[N] |==|  0.45556
USER: genes 6 Torsion [C]-N--CA-[CB] |==|  0.83788
USER: genes 7 Torsion [N]-CA--C-[O] |==|  0.09884
USER: genes 8 Torsion [N]-CA--CB-[CG] |==|  0.11410
USER: genes 9 Torsion [CA]-CB--CG-[ND1] |==|  0.77582
ROOT
ATOM      1  CA  HIS F   2      -3.948  30.372 -16.195  1.00 30.59 LIG 0.18  C 
ENDROOT
BRANCH 1 2
ATOM      2  N   HIS F   2      -3.761  30.185 -17.637  1.00 30.70 LIG-0.35  N 
ATOM      3  C   ALA F   1      -3.940  29.013 -18.243  1.00 31.15 LIG 0.25  C 
ATOM      4 O    ALA F   1      -4.268  27.981 -17.649  1.00 30.37 LIG-0.27  OA
ATOM      5 H    HIS F   2      -3.525  30.901 -18.053  1.00 30.70 LIG 0.16  HD
BRANCH 3 6
ATOM      6  CA  ALA F   1      -3.711  29.002 -19.760  1.00 31.15 LIG 0.27  C 
ATOM      7  CB  ALA F   1      -4.386  28.158 -20.410  0.00 20.00 LIG 0.05  C 
BRANCH 6 8
ATOM      8  N   ALA F   1      -2.300  29.381 -20.107  1.00 31.97 LIG-0.07  N 
ATOM      9 H3   ALA F   1      -2.077  29.015 -20.887  1.00 31.97 LIG 0.28  HD
ATOM     10 H1   ALA F   1      -2.236  30.267 -20.166  1.00 31.97 LIG 0.28  HD
ATOM     11 H2   ALA F   1      -1.748  29.086 -19.474  1.00 31.97 LIG 0.28  HD
ENDBRANCH 6 8
ENDBRANCH 3 6
ENDBRANCH 1 2
BRANCH 1 12
ATOM     12  C   HIS F   2      -5.372  29.988 -15.773  1.00 31.15 LIG 0.24  C 
ATOM     13 O    HIS F   2      -6.275  29.867 -16.622  1.00 30.80 LIG-0.27  OA
ATOM     14  N   ALA F   3      -5.566  29.797 -14.463  1.00 30.97 LIG-0.35  N 
ATOM     15 H    ALA F   3      -4.943  29.875 -13.873  1.00 30.97 LIG 0.16  HD
BRANCH 14 16
ATOM     16  CA  ALA F   3      -6.868  29.434 -13.907  1.00 31.72 LIG 0.16  C 
ATOM     17  CB  ALA F   3      -7.847  30.560 -14.321  0.00 20.00 LIG 0.04  C 
BRANCH 16 18
ATOM     18  C   ALA F   3      -7.552  28.290 -14.651  1.00 32.37 LIG 0.22  C 
ATOM     19 O    ALA F   3      -6.890  27.357 -15.128  1.00 33.75 LIG-0.29  OA
ENDBRANCH 16 18
ENDBRANCH 14 16
ENDBRANCH 1 12
BRANCH 1 20
ATOM     20  CB  HIS F   2      -3.664  31.830 -15.799  1.00 30.20 LIG 0.10  C 
BRANCH 20 21
ATOM     21  CG  HIS F   2      -4.201  32.857 -16.761  1.00 29.66 LIG 0.06  A 
ATOM     22 ND1  HIS F   2      -3.560  33.204 -17.934  1.00 29.25 LIG-0.24  NA
ATOM     23  CE1 HIS F   2      -4.251  34.148 -18.554  1.00 27.69 LIG 0.23  A 
ATOM     24 NE2  HIS F   2      -5.312  34.441 -17.818  1.00 31.40 LIG-0.25  NA
ATOM     25  CD2 HIS F   2      -5.295  33.658 -16.682  1.00 30.69 LIG 0.14  A 
ENDBRANCH 20 21
ENDBRANCH 1 20
TORSDOF 8
ENDMDL
MODEL 53
USER: ADFR SOLUTION from run 166
USER: SCORE 7.316001 LL:  -1.276 LR:  -6.113 RR:   0.000 FEB:  -3.726
USER: RMSD 2.775582
USER: SEED 165
USER: STATUS no improvement in best in 36 clusters for 5 generations
USER: GENES 10
USER: genes 0 Translation |==|  0.64514 0.45766 0.54487
USER: genes 1 Rotation |==|  0.44916 0.56057 0.63451 0.97503
USER: genes 2 Torsion [C]-CA--N-[C] |==|  0.17130
USER: genes 3 Torsion [N]-C--CA-[N] |==|  0.14468
USER: genes 4 Torsion [C]-CA--N-[H3] |==|  0.08919
USER: genes 5 Torsion [N]-CA--C-[N] |==|  0.09865
USER: genes 6 Torsion [C]-N--CA-[CB] |==|  0.19873
USER: genes 7 Torsion [N]-CA--C-[O] |==|  0.37120
USER: genes 8 Torsion [N]-CA--CB-[CG] |==|  0.56668
USER: genes 9 Torsion [CA]-CB--CG-[ND1] |==|  0.21611
ROOT
ATOM      1  CA  HIS F   2       1.132  30.054 -18.392  1.00 30.59 LIG 0.18  C 
ENDROOT
BRANCH 1 2
ATOM      2  N   HIS F   2       0.904  30.129 -19.839  1.00 30.70 LIG-0.35  N 
ATOM      3  C   ALA F   1       0.327  31.176 -20.426  1.00 31.15 LIG 0.25  C 
ATOM      4 O    ALA F   1      -0.076  32.168 -19.809  1.00 30.37 LIG-0.27  OA
ATOM      5 H    HIS F   2       1.178  29.437 -20.271  1.00 30.70 LIG 0.16  HD
BRANCH 3 6
ATOM      6  CA  ALA F   1       0.178  31.091 -21.950  1.00 31.15 LIG 0.27  C 
ATOM      7  CB  ALA F   1       0.014  32.190 -22.548  0.00 20.00 LIG 0.05  C 
BRANCH 6 8
ATOM      8  N   ALA F   1      -0.490  29.812 -22.368  1.00 31.97 LIG-0.07  N 
ATOM      9 H3   ALA F   1      -1.070  29.561 -21.743  1.00 31.97 LIG 0.28  HD
ATOM     10 H1   ALA F   1      -0.919  29.939 -23.137  1.00 31.97 LIG 0.28  HD
ATOM     11 H2   ALA F   1       0.125  29.177 -22.474  1.00 31.97 LIG 0.28  HD
ENDBRANCH 6 8
ENDBRANCH 3 6
ENDBRANCH 1 2
BRANCH 1 12
ATOM     12  C   HIS F   2      -0.197  30.100 -17.626  1.00 31.15 LIG 0.24  C 
ATOM     13 O    HIS F   2      -0.276  30.683 -16.528  1.00 30.80 LIG-0.27  OA
ATOM     14  N   ALA F   3      -1.233  29.486 -18.209  1.00 30.97 LIG-0.35  N 
ATOM     15 H    ALA F   3      -1.183  29.086 -18.969  1.00 30.97 LIG 0.16  HD
BRANCH 14 16
ATOM     16  CA  ALA F   3      -2.560  29.439 -17.599  1.00 31.72 LIG 0.16  C 
ATOM     17  CB  ALA F   3      -3.139  30.871 -17.703  0.00 20.00 LIG 0.04  C 
BRANCH 16 18
ATOM     18  C   ALA F   3      -3.605  28.737 -18.463  1.00 32.37 LIG 0.22  C 
ATOM     19 O    ALA F   3      -4.371  27.894 -17.974  1.00 33.75 LIG-0.29  OA
ENDBRANCH 16 18
ENDBRANCH 14 16
ENDBRANCH 1 12
BRANCH 1 20
ATOM     20  CB  HIS F   2       2.039  31.206 -17.929  1.00 30.20 LIG 0.10  C 
BRANCH 20 21
ATOM     21  CG  HIS F   2       2.788  30.938 -16.651  1.00 29.66 LIG 0.06  A 
ATOM     22 ND1  HIS F   2       3.918  30.147 -16.587  1.00 29.25 LIG-0.24  NA
ATOM     23  CE1 HIS F   2       4.338  30.072 -15.333  1.00 27.69 LIG 0.23  A 
ATOM     24 NE2  HIS F   2       3.510  30.773 -14.574  1.00 31.40 LIG-0.25  NA
ATOM     25  CD2 HIS F   2       2.522  31.312 -15.373  1.00 30.69 LIG 0.14  A 
ENDBRANCH 20 21
ENDBRANCH 1 20
TORSDOF 8
ENDMDL
MODEL 54
USER: ADFR SOLUTION from run 133
USER: SCORE 7.714788 LL:  -1.629 LR:  -6.114 RR:   0.000 FEB:  -3.728
USER: RMSD 2.696688
USER: SEED 132
USER: STATUS no improvement in best in 39 clusters for 5 generations
USER: GENES 10
USER: genes 0 Translation |==|  0.53457 0.44648 0.56589
USER: genes 1 Rotation |==|  0.72477 0.43935 0.52674 0.94168
USER: genes 2 Torsion [C]-CA--N-[C] |==|  0.83889
USER: genes 3 Torsion [N]-C--CA-[N] |==|  0.03080
USER: genes 4 Torsion [C]-CA--N-[H3] |==|  0.29342
USER: genes 5 Torsion [N]-CA--C-[N] |==|  0.90378
USER: genes 6 Torsion [C]-N--CA-[CB] |==|  0.28314
USER: genes 7 Torsion [N]-CA--C-[O] |==|  0.03948
USER: genes 8 Torsion [N]-CA--CB-[CG] |==|  0.07629
USER: genes 9 Torsion [CA]-CB--CG-[ND1] |==|  0.11339
ROOT
ATOM      1  CA  HIS F   2      -0.776  29.920 -18.061  1.00 30.59 LIG 0.18  C 
ENDROOT
BRANCH 1 2
ATOM      2  N   HIS F   2      -0.367  31.260 -18.494  1.00 30.70 LIG-0.35  N 
ATOM      3  C   ALA F   1      -0.985  31.923 -19.470  1.00 31.15 LIG 0.25  C 
ATOM      4 O    ALA F   1      -1.944  31.470 -20.102  1.00 30.37 LIG-0.27  OA
ATOM      5 H    HIS F   2       0.305  31.576 -18.060  1.00 30.70 LIG 0.16  HD
BRANCH 3 6
ATOM      6  CA  ALA F   1      -0.431  33.319 -19.785  1.00 31.15 LIG 0.27  C 
ATOM      7  CB  ALA F   1      -0.715  33.777 -20.926  0.00 20.00 LIG 0.05  C 
BRANCH 6 8
ATOM      8  N   ALA F   1       0.883  33.559 -19.098  1.00 31.97 LIG-0.07  N 
ATOM      9 H3   ALA F   1       1.542  33.514 -19.694  1.00 31.97 LIG 0.28  HD
ATOM     10 H1   ALA F   1       0.878  34.366 -18.721  1.00 31.97 LIG 0.28  HD
ATOM     11 H2   ALA F   1       1.007  32.941 -18.471  1.00 31.97 LIG 0.28  HD
ENDBRANCH 6 8
ENDBRANCH 3 6
ENDBRANCH 1 2
BRANCH 1 12
ATOM     12  C   HIS F   2      -2.240  29.914 -17.604  1.00 31.15 LIG 0.24  C 
ATOM     13 O    HIS F   2      -2.964  28.921 -17.804  1.00 30.80 LIG-0.27  OA
ATOM     14  N   ALA F   3      -2.668  31.024 -16.991  1.00 30.97 LIG-0.35  N 
ATOM     15 H    ALA F   3      -2.170  31.711 -16.847  1.00 30.97 LIG 0.16  HD
BRANCH 14 16
ATOM     16  CA  ALA F   3      -4.038  31.171 -16.504  1.00 31.72 LIG 0.16  C 
ATOM     17  CB  ALA F   3      -3.985  30.941 -14.974  0.00 20.00 LIG 0.04  C 
BRANCH 16 18
ATOM     18  C   ALA F   3      -4.523  32.618 -16.473  1.00 32.37 LIG 0.22  C 
ATOM     19 O    ALA F   3      -3.902  33.510 -17.069  1.00 33.75 LIG-0.29  OA
ENDBRANCH 16 18
ENDBRANCH 14 16
ENDBRANCH 1 12
BRANCH 1 20
ATOM     20  CB  HIS F   2       0.127  29.424 -16.919  1.00 30.20 LIG 0.10  C 
BRANCH 20 21
ATOM     21  CG  HIS F   2       0.729  30.517 -16.077  1.00 29.66 LIG 0.06  A 
ATOM     22 ND1  HIS F   2       0.031  31.641 -15.682  1.00 29.25 LIG-0.24  NA
ATOM     23  CE1 HIS F   2       0.825  32.434 -14.980  1.00 27.69 LIG 0.23  A 
ATOM     24 NE2  HIS F   2       2.024  31.874 -14.916  1.00 31.40 LIG-0.25  NA
ATOM     25  CD2 HIS F   2       1.994  30.681 -15.609  1.00 30.69 LIG 0.14  A 
ENDBRANCH 20 21
ENDBRANCH 1 20
TORSDOF 8
ENDMDL
MODEL 55
USER: ADFR SOLUTION from run 144
USER: SCORE 7.380393 LL:  -1.760 LR:  -6.094 RR:   0.000 FEB:  -3.707
USER: RMSD 4.845145
USER: SEED 143
USER: STATUS no improvement in best in 37 clusters for 5 generations
USER: GENES 10
USER: genes 0 Translation |==|  0.35457 0.56545 0.66522
USER: genes 1 Rotation |==|  0.89033 0.49816 0.18752 0.50040
USER: genes 2 Torsion [C]-CA--N-[C] |==|  0.57364
USER: genes 3 Torsion [N]-C--CA-[N] |==|  0.48763
USER: genes 4 Torsion [C]-CA--N-[H3] |==|  0.03557
USER: genes 5 Torsion [N]-CA--C-[N] |==|  0.53729
USER: genes 6 Torsion [C]-N--CA-[CB] |==|  0.47220
USER: genes 7 Torsion [N]-CA--C-[O] |==|  0.15398
USER: genes 8 Torsion [N]-CA--CB-[CG] |==|  0.19215
USER: genes 9 Torsion [CA]-CB--CG-[ND1] |==|  0.27360
ROOT
ATOM      1  CA  HIS F   2      -3.881  31.347 -16.497  1.00 30.59 LIG 0.18  C 
ENDROOT
BRANCH 1 2
ATOM      2  N   HIS F   2      -2.464  30.971 -16.444  1.00 30.70 LIG-0.35  N 
ATOM      3  C   ALA F   1      -1.496  31.731 -16.953  1.00 31.15 LIG 0.25  C 
ATOM      4 O    ALA F   1      -1.701  32.809 -17.520  1.00 30.37 LIG-0.27  OA
ATOM      5 H    HIS F   2      -2.319  30.217 -16.055  1.00 30.70 LIG 0.16  HD
BRANCH 3 6
ATOM      6  CA  ALA F   1      -0.070  31.187 -16.800  1.00 31.15 LIG 0.27  C 
ATOM      7  CB  ALA F   1       0.171  30.574 -15.724  0.00 20.00 LIG 0.05  C 
BRANCH 6 8
ATOM      8  N   ALA F   1       0.932  32.062 -17.498  1.00 31.97 LIG-0.07  N 
ATOM      9 H3   ALA F   1       0.550  32.834 -17.719  1.00 31.97 LIG 0.28  HD
ATOM     10 H1   ALA F   1       1.621  32.216 -16.956  1.00 31.97 LIG 0.28  HD
ATOM     11 H2   ALA F   1       1.221  31.654 -18.234  1.00 31.97 LIG 0.28  HD
ENDBRANCH 6 8
ENDBRANCH 3 6
ENDBRANCH 1 2
BRANCH 1 12
ATOM     12  C   HIS F   2      -4.661  30.706 -15.342  1.00 31.15 LIG 0.24  C 
ATOM     13 O    HIS F   2      -4.062  30.187 -14.382  1.00 30.80 LIG-0.27  OA
ATOM     14  N   ALA F   3      -5.995  30.746 -15.442  1.00 30.97 LIG-0.35  N 
ATOM     15 H    ALA F   3      -6.413  31.107 -16.101  1.00 30.97 LIG 0.16  HD
BRANCH 14 16
ATOM     16  CA  ALA F   3      -6.874  30.172 -14.425  1.00 31.72 LIG 0.16  C 
ATOM     17  CB  ALA F   3      -8.308  30.643 -14.772  0.00 20.00 LIG 0.04  C 
BRANCH 16 18
ATOM     18  C   ALA F   3      -7.109  28.673 -14.596  1.00 32.37 LIG 0.22  C 
ATOM     19 O    ALA F   3      -6.156  27.882 -14.649  1.00 33.75 LIG-0.29  OA
ENDBRANCH 16 18
ENDBRANCH 14 16
ENDBRANCH 1 12
BRANCH 1 20
ATOM     20  CB  HIS F   2      -4.500  30.926 -17.840  1.00 30.20 LIG 0.10  C 
BRANCH 20 21
ATOM     21  CG  HIS F   2      -4.644  29.439 -18.025  1.00 29.66 LIG 0.06  A 
ATOM     22 ND1  HIS F   2      -5.825  28.759 -17.806  1.00 29.25 LIG-0.24  NA
ATOM     23  CE1 HIS F   2      -5.639  27.465 -18.020  1.00 27.69 LIG 0.23  A 
ATOM     24 NE2  HIS F   2      -4.372  27.276 -18.355  1.00 31.40 LIG-0.25  NA
ATOM     25  CD2 HIS F   2      -3.724  28.494 -18.350  1.00 30.69 LIG 0.14  A 
ENDBRANCH 20 21
ENDBRANCH 1 20
TORSDOF 8
ENDMDL
MODEL 56
USER: ADFR SOLUTION from run 24
USER: SCORE 7.132394 LL:  -1.363 LR:  -6.057 RR:   0.000 FEB:  -3.671
USER: RMSD 4.957182
USER: SEED 23
USER: STATUS no improvement in best in 26 clusters for 5 generations
USER: GENES 10
USER: genes 0 Translation |==|  0.60681 0.59678 0.44159
USER: genes 1 Rotation |==|  0.70641 0.67777 0.55675 0.91542
USER: genes 2 Torsion [C]-CA--N-[C] |==|  0.65707
USER: genes 3 Torsion [N]-C--CA-[N] |==|  0.36320
USER: genes 4 Torsion [C]-CA--N-[H3] |==|  0.31414
USER: genes 5 Torsion [N]-CA--C-[N] |==|  0.49444
USER: genes 6 Torsion [C]-N--CA-[CB] |==|  0.54640
USER: genes 7 Torsion [N]-CA--C-[O] |==|  0.97841
USER: genes 8 Torsion [N]-CA--CB-[CG] |==|  0.74909
USER: genes 9 Torsion [CA]-CB--CG-[ND1] |==|  0.09159
ROOT
ATOM      1  CA  HIS F   2       0.470  31.723 -20.019  1.00 30.59 LIG 0.18  C 
ENDROOT
BRANCH 1 2
ATOM      2  N   HIS F   2      -0.257  32.928 -20.432  1.00 30.70 LIG-0.35  N 
ATOM      3  C   ALA F   1      -0.902  33.019 -21.593  1.00 31.15 LIG 0.25  C 
ATOM      4 O    ALA F   1      -0.939  32.108 -22.427  1.00 30.37 LIG-0.27  OA
ATOM      5 H    HIS F   2      -0.228  33.566 -19.856  1.00 30.70 LIG 0.16  HD
BRANCH 3 6
ATOM      6  CA  ALA F   1      -1.619  34.349 -21.858  1.00 31.15 LIG 0.27  C 
ATOM      7  CB  ALA F   1      -2.748  34.482 -21.311  0.00 20.00 LIG 0.05  C 
BRANCH 6 8
ATOM      8  N   ALA F   1      -1.286  34.895 -23.217  1.00 31.97 LIG-0.07  N 
ATOM      9 H3   ALA F   1      -2.013  34.880 -23.730  1.00 31.97 LIG 0.28  HD
ATOM     10 H1   ALA F   1      -0.995  35.732 -23.138  1.00 31.97 LIG 0.28  HD
ATOM     11 H2   ALA F   1      -0.650  34.396 -23.590  1.00 31.97 LIG 0.28  HD
ENDBRANCH 6 8
ENDBRANCH 3 6
ENDBRANCH 1 2
BRANCH 1 12
ATOM     12  C   HIS F   2      -0.047  31.206 -18.670  1.00 31.15 LIG 0.24  C 
ATOM     13 O    HIS F   2      -0.943  31.816 -18.058  1.00 30.80 LIG-0.27  OA
ATOM     14  N   ALA F   3       0.520  30.082 -18.216  1.00 30.97 LIG-0.35  N 
ATOM     15 H    ALA F   3       1.137  29.656 -18.638  1.00 30.97 LIG 0.16  HD
BRANCH 14 16
ATOM     16  CA  ALA F   3       0.138  29.471 -16.945  1.00 31.72 LIG 0.16  C 
ATOM     17  CB  ALA F   3       1.272  28.483 -16.578  0.00 20.00 LIG 0.04  C 
BRANCH 16 18
ATOM     18  C   ALA F   3       0.292  30.405 -15.747  1.00 32.37 LIG 0.22  C 
ATOM     19 O    ALA F   3       0.837  31.511 -15.869  1.00 33.75 LIG-0.29  OA
ENDBRANCH 16 18
ENDBRANCH 14 16
ENDBRANCH 1 12
BRANCH 1 20
ATOM     20  CB  HIS F   2       1.978  32.012 -19.921  1.00 30.20 LIG 0.10  C 
BRANCH 20 21
ATOM     21  CG  HIS F   2       2.747  31.765 -21.192  1.00 29.66 LIG 0.06  A 
ATOM     22 ND1  HIS F   2       2.214  31.962 -22.450  1.00 29.25 LIG-0.24  NA
ATOM     23  CE1 HIS F   2       3.110  31.635 -23.368  1.00 27.69 LIG 0.23  A 
ATOM     24 NE2  HIS F   2       4.205  31.216 -22.752  1.00 31.40 LIG-0.25  NA
ATOM     25  CD2 HIS F   2       3.997  31.272 -21.389  1.00 30.69 LIG 0.14  A 
ENDBRANCH 20 21
ENDBRANCH 1 20
TORSDOF 8
ENDMDL
MODEL 57
USER: ADFR SOLUTION from run 181
USER: SCORE 6.975475 LL:  -1.279 LR:  -6.053 RR:   0.000 FEB:  -3.667
USER: RMSD 4.622979
USER: SEED 180
USER: STATUS no improvement in best in 43 clusters for 5 generations
USER: GENES 10
USER: genes 0 Translation |==|  0.41688 0.51546 0.63671
USER: genes 1 Rotation |==|  0.09075 0.44880 0.73607 0.65546
USER: genes 2 Torsion [C]-CA--N-[C] |==|  0.54511
USER: genes 3 Torsion [N]-C--CA-[N] |==|  0.93266
USER: genes 4 Torsion [C]-CA--N-[H3] |==|  0.02318
USER: genes 5 Torsion [N]-CA--C-[N] |==|  0.38934
USER: genes 6 Torsion [C]-N--CA-[CB] |==|  0.26704
USER: genes 7 Torsion [N]-CA--C-[O] |==|  0.24669
USER: genes 8 Torsion [N]-CA--CB-[CG] |==|  0.20931
USER: genes 9 Torsion [CA]-CB--CG-[ND1] |==|  0.87948
ROOT
ATOM      1  CA  HIS F   2      -2.806  30.747 -16.946  1.00 30.59 LIG 0.18  C 
ENDROOT
BRANCH 1 2
ATOM      2  N   HIS F   2      -1.546  30.002 -16.852  1.00 30.70 LIG-0.35  N 
ATOM      3  C   ALA F   1      -0.358  30.599 -16.784  1.00 31.15 LIG 0.25  C 
ATOM      4 O    ALA F   1      -0.207  31.824 -16.805  1.00 30.37 LIG-0.27  OA
ATOM      5 H    HIS F   2      -1.648  29.148 -16.844  1.00 30.70 LIG 0.16  HD
BRANCH 3 6
ATOM      6  CA  ALA F   1       0.855  29.665 -16.680  1.00 31.15 LIG 0.27  C 
ATOM      7  CB  ALA F   1       1.739  29.812 -17.567  0.00 20.00 LIG 0.05  C 
BRANCH 6 8
ATOM      8  N   ALA F   1       0.476  28.332 -16.099  1.00 31.97 LIG-0.07  N 
ATOM      9 H3   ALA F   1      -0.409  28.279 -16.030  1.00 31.97 LIG 0.28  HD
ATOM     10 H1   ALA F   1       0.772  27.682 -16.630  1.00 31.97 LIG 0.28  HD
ATOM     11 H2   ALA F   1       0.842  28.245 -15.293  1.00 31.97 LIG 0.28  HD
ENDBRANCH 6 8
ENDBRANCH 3 6
ENDBRANCH 1 2
BRANCH 1 12
ATOM     12  C   HIS F   2      -4.001  29.848 -16.607  1.00 31.15 LIG 0.24  C 
ATOM     13 O    HIS F   2      -4.039  28.667 -17.000  1.00 30.80 LIG-0.27  OA
ATOM     14  N   ALA F   3      -4.972  30.411 -15.876  1.00 30.97 LIG-0.35  N 
ATOM     15 H    ALA F   3      -4.947  31.225 -15.599  1.00 30.97 LIG 0.16  HD
BRANCH 14 16
ATOM     16  CA  ALA F   3      -6.175  29.684 -15.479  1.00 31.72 LIG 0.16  C 
ATOM     17  CB  ALA F   3      -5.913  29.154 -14.048  0.00 20.00 LIG 0.04  C 
BRANCH 16 18
ATOM     18  C   ALA F   3      -7.355  30.592 -15.144  1.00 32.37 LIG 0.22  C 
ATOM     19 O    ALA F   3      -8.148  30.955 -16.024  1.00 33.75 LIG-0.29  OA
ENDBRANCH 16 18
ENDBRANCH 14 16
ENDBRANCH 1 12
BRANCH 1 20
ATOM     20  CB  HIS F   2      -2.980  31.334 -18.357  1.00 30.20 LIG 0.10  C 
BRANCH 20 21
ATOM     21  CG  HIS F   2      -3.374  30.330 -19.408  1.00 29.66 LIG 0.06  A 
ATOM     22 ND1  HIS F   2      -2.802  29.078 -19.511  1.00 29.25 LIG-0.24  NA
ATOM     23  CE1 HIS F   2      -3.325  28.434 -20.543  1.00 27.69 LIG 0.23  A 
ATOM     24 NE2  HIS F   2      -4.208  29.230 -21.127  1.00 31.40 LIG-0.25  NA
ATOM     25  CD2 HIS F   2      -4.245  30.428 -20.445  1.00 30.69 LIG 0.14  A 
ENDBRANCH 20 21
ENDBRANCH 1 20
TORSDOF 8
ENDMDL
MODEL 58
USER: ADFR SOLUTION from run 114
USER: SCORE 7.253824 LL:  -1.356 LR:  -6.055 RR:   0.000 FEB:  -3.668
USER: RMSD 5.144676
USER: SEED 113
USER: STATUS no improvement in best in 42 clusters for 5 generations
USER: GENES 10
USER: genes 0 Translation |==|  0.35201 0.35431 0.46307
USER: genes 1 Rotation |==|  0.59680 0.44510 0.08035 0.74801
USER: genes 2 Torsion [C]-CA--N-[C] |==|  0.58889
USER: genes 3 Torsion [N]-C--CA-[N] |==|  0.11565
USER: genes 4 Torsion [C]-CA--N-[H3] |==|  0.23158
USER: genes 5 Torsion [N]-CA--C-[N] |==|  0.41864
USER: genes 6 Torsion [C]-N--CA-[CB] |==|  0.36368
USER: genes 7 Torsion [N]-CA--C-[O] |==|  0.40330
USER: genes 8 Torsion [N]-CA--CB-[CG] |==|  0.49792
USER: genes 9 Torsion [CA]-CB--CG-[ND1] |==|  0.76056
ROOT
ATOM      1  CA  HIS F   2      -3.925  28.814 -19.681  1.00 30.59 LIG 0.18  C 
ENDROOT
BRANCH 1 2
ATOM      2  N   HIS F   2      -3.140  28.417 -20.855  1.00 30.70 LIG-0.35  N 
ATOM      3  C   ALA F   1      -3.673  28.283 -22.067  1.00 31.15 LIG 0.25  C 
ATOM      4 O    ALA F   1      -4.870  28.469 -22.311  1.00 30.37 LIG-0.27  OA
ATOM      5 H    HIS F   2      -2.307  28.281 -20.686  1.00 30.70 LIG 0.16  HD
BRANCH 3 6
ATOM      6  CA  ALA F   1      -2.704  27.871 -23.182  1.00 31.15 LIG 0.27  C 
ATOM      7  CB  ALA F   1      -3.161  27.931 -24.357  0.00 20.00 LIG 0.05  C 
BRANCH 6 8
ATOM      8  N   ALA F   1      -1.747  26.810 -22.718  1.00 31.97 LIG-0.07  N 
ATOM      9 H3   ALA F   1      -2.133  26.012 -22.785  1.00 31.97 LIG 0.28  HD
ATOM     10 H1   ALA F   1      -1.015  26.829 -23.223  1.00 31.97 LIG 0.28  HD
ATOM     11 H2   ALA F   1      -1.525  26.962 -21.870  1.00 31.97 LIG 0.28  HD
ENDBRANCH 6 8
ENDBRANCH 3 6
ENDBRANCH 1 2
BRANCH 1 12
ATOM     12  C   HIS F   2      -3.070  29.626 -18.699  1.00 31.15 LIG 0.24  C 
ATOM     13 O    HIS F   2      -1.841  29.439 -18.623  1.00 30.80 LIG-0.27  OA
ATOM     14  N   ALA F   3      -3.725  30.525 -17.954  1.00 30.97 LIG-0.35  N 
ATOM     15 H    ALA F   3      -4.573  30.660 -18.008  1.00 30.97 LIG 0.16  HD
BRANCH 14 16
ATOM     16  CA  ALA F   3      -3.049  31.369 -16.971  1.00 31.72 LIG 0.16  C 
ATOM     17  CB  ALA F   3      -3.524  32.818 -17.241  0.00 20.00 LIG 0.04  C 
BRANCH 16 18
ATOM     18  C   ALA F   3      -3.613  31.232 -15.559  1.00 32.37 LIG 0.22  C 
ATOM     19 O    ALA F   3      -2.872  31.312 -14.569  1.00 33.75 LIG-0.29  OA
ENDBRANCH 16 18
ENDBRANCH 14 16
ENDBRANCH 1 12
BRANCH 1 20
ATOM     20  CB  HIS F   2      -4.495  27.575 -18.971  1.00 30.20 LIG 0.10  C 
BRANCH 20 21
ATOM     21  CG  HIS F   2      -5.305  27.877 -17.738  1.00 29.66 LIG 0.06  A 
ATOM     22 ND1  HIS F   2      -4.747  28.033 -16.484  1.00 29.25 LIG-0.24  NA
ATOM     23  CE1 HIS F   2      -5.704  28.260 -15.597  1.00 27.69 LIG 0.23  A 
ATOM     24 NE2  HIS F   2      -6.869  28.241 -16.226  1.00 31.40 LIG-0.25  NA
ATOM     25  CD2 HIS F   2      -6.648  27.986 -17.564  1.00 30.69 LIG 0.14  A 
ENDBRANCH 20 21
ENDBRANCH 1 20
TORSDOF 8
ENDMDL
MODEL 59
USER: ADFR SOLUTION from run 118
USER: SCORE 7.278815 LL:  -1.320 LR:  -6.019 RR:   0.000 FEB:  -3.633
USER: RMSD 5.954538
USER: SEED 117
USER: STATUS no improvement in best in 34 clusters for 5 generations
USER: GENES 10
USER: genes 0 Translation |==|  0.42993 0.75694 0.51702
USER: genes 1 Rotation |==|  0.38252 0.43723 0.95263 0.66548
USER: genes 2 Torsion [C]-CA--N-[C] |==|  0.78065
USER: genes 3 Torsion [N]-C--CA-[N] |==|  0.23262
USER: genes 4 Torsion [C]-CA--N-[H3] |==|  0.27634
USER: genes 5 Torsion [N]-CA--C-[N] |==|  0.93075
USER: genes 6 Torsion [C]-N--CA-[CB] |==|  0.85334
USER: genes 7 Torsion [N]-CA--C-[O] |==|  0.28958
USER: genes 8 Torsion [N]-CA--CB-[CG] |==|  0.92568
USER: genes 9 Torsion [CA]-CB--CG-[ND1] |==|  0.88208
ROOT
ATOM      1  CA  HIS F   2      -2.581  33.645 -18.831  1.00 30.59 LIG 0.18  C 
ENDROOT
BRANCH 1 2
ATOM      2  N   HIS F   2      -2.246  33.640 -20.259  1.00 30.70 LIG-0.35  N 
ATOM      3  C   ALA F   1      -0.996  33.733 -20.708  1.00 31.15 LIG 0.25  C 
ATOM      4 O    ALA F   1      -0.012  33.841 -19.969  1.00 30.37 LIG-0.27  OA
ATOM      5 H    HIS F   2      -2.931  33.571 -20.776  1.00 30.70 LIG 0.16  HD
BRANCH 3 6
ATOM      6  CA  ALA F   1      -0.829  33.701 -22.232  1.00 31.15 LIG 0.27  C 
ATOM      7  CB  ALA F   1       0.000  32.859 -22.676  0.00 20.00 LIG 0.05  C 
BRANCH 6 8
ATOM      8  N   ALA F   1      -1.037  35.059 -22.839  1.00 31.97 LIG-0.07  N 
ATOM      9 H3   ALA F   1      -0.248  35.437 -23.000  1.00 31.97 LIG 0.28  HD
ATOM     10 H1   ALA F   1      -1.488  34.977 -23.602  1.00 31.97 LIG 0.28  HD
ATOM     11 H2   ALA F   1      -1.500  35.568 -22.275  1.00 31.97 LIG 0.28  HD
ENDBRANCH 6 8
ENDBRANCH 3 6
ENDBRANCH 1 2
BRANCH 1 12
ATOM     12  C   HIS F   2      -2.324  32.269 -18.203  1.00 31.15 LIG 0.24  C 
ATOM     13 O    HIS F   2      -2.095  32.161 -16.984  1.00 30.80 LIG-0.27  OA
ATOM     14  N   ALA F   3      -2.364  31.225 -19.039  1.00 30.97 LIG-0.35  N 
ATOM     15 H    ALA F   3      -2.526  31.296 -19.881  1.00 30.97 LIG 0.16  HD
BRANCH 14 16
ATOM     16  CA  ALA F   3      -2.133  29.853 -18.591  1.00 31.72 LIG 0.16  C 
ATOM     17  CB  ALA F   3      -0.785  29.864 -17.830  0.00 20.00 LIG 0.04  C 
BRANCH 16 18
ATOM     18  C   ALA F   3      -3.020  29.435 -17.422  1.00 32.37 LIG 0.22  C 
ATOM     19 O    ALA F   3      -3.993  28.688 -17.597  1.00 33.75 LIG-0.29  OA
ENDBRANCH 16 18
ENDBRANCH 14 16
ENDBRANCH 1 12
BRANCH 1 20
ATOM     20  CB  HIS F   2      -4.051  34.044 -18.624  1.00 30.20 LIG 0.10  C 
BRANCH 20 21
ATOM     21  CG  HIS F   2      -4.624  34.913 -19.712  1.00 29.66 LIG 0.06  A 
ATOM     22 ND1  HIS F   2      -3.937  35.968 -20.279  1.00 29.25 LIG-0.24  NA
ATOM     23  CE1 HIS F   2      -4.702  36.562 -21.183  1.00 27.69 LIG 0.23  A 
ATOM     24 NE2  HIS F   2      -5.871  35.940 -21.213  1.00 31.40 LIG-0.25  NA
ATOM     25  CD2 HIS F   2      -5.853  34.915 -20.290  1.00 30.69 LIG 0.14  A 
ENDBRANCH 20 21
ENDBRANCH 1 20
TORSDOF 8
ENDMDL
MODEL 60
USER: ADFR SOLUTION from run 62
USER: SCORE 7.103234 LL:  -1.489 LR:  -5.999 RR:   0.000 FEB:  -3.613
USER: RMSD 3.443173
USER: SEED 61
USER: STATUS no improvement in best in 37 clusters for 5 generations
USER: GENES 10
USER: genes 0 Translation |==|  0.64303 0.39754 0.54753
USER: genes 1 Rotation |==|  0.57207 0.51652 0.52694 0.99377
USER: genes 2 Torsion [C]-CA--N-[C] |==|  0.16111
USER: genes 3 Torsion [N]-C--CA-[N] |==|  0.49814
USER: genes 4 Torsion [C]-CA--N-[H3] |==|  0.35825
USER: genes 5 Torsion [N]-CA--C-[N] |==|  0.17060
USER: genes 6 Torsion [C]-N--CA-[CB] |==|  0.25308
USER: genes 7 Torsion [N]-CA--C-[O] |==|  0.30416
USER: genes 8 Torsion [N]-CA--CB-[CG] |==|  0.86830
USER: genes 9 Torsion [CA]-CB--CG-[ND1] |==|  0.38719
ROOT
ATOM      1  CA  HIS F   2       1.095  29.332 -18.350  1.00 30.59 LIG 0.18  C 
ENDROOT
BRANCH 1 2
ATOM      2  N   HIS F   2       1.206  30.107 -19.591  1.00 30.70 LIG-0.35  N 
ATOM      3  C   ALA F   1       1.179  31.438 -19.615  1.00 31.15 LIG 0.25  C 
ATOM      4 O    ALA F   1       1.050  32.137 -18.605  1.00 30.37 LIG-0.27  OA
ATOM      5 H    HIS F   2       1.289  29.623 -20.297  1.00 30.70 LIG 0.16  HD
BRANCH 3 6
ATOM      6  CA  ALA F   1       1.317  32.085 -20.999  1.00 31.15 LIG 0.27  C 
ATOM      7  CB  ALA F   1       2.036  31.460 -21.827  0.00 20.00 LIG 0.05  C 
BRANCH 6 8
ATOM      8  N   ALA F   1       1.259  33.583 -20.917  1.00 31.97 LIG-0.07  N 
ATOM      9 H3   ALA F   1       1.954  33.932 -21.349  1.00 31.97 LIG 0.28  HD
ATOM     10 H1   ALA F   1       0.503  33.872 -21.288  1.00 31.97 LIG 0.28  HD
ATOM     11 H2   ALA F   1       1.284  33.835 -20.064  1.00 31.97 LIG 0.28  HD
ENDBRANCH 6 8
ENDBRANCH 3 6
ENDBRANCH 1 2
BRANCH 1 12
ATOM     12  C   HIS F   2      -0.210  29.661 -17.613  1.00 31.15 LIG 0.24  C 
ATOM     13 O    HIS F   2      -0.186  30.154 -16.470  1.00 30.80 LIG-0.27  OA
ATOM     14  N   ALA F   3      -1.342  29.387 -18.272  1.00 30.97 LIG-0.35  N 
ATOM     15 H    ALA F   3      -1.362  29.051 -19.064  1.00 30.97 LIG 0.16  HD
BRANCH 14 16
ATOM     16  CA  ALA F   3      -2.662  29.639 -17.700  1.00 31.72 LIG 0.16  C 
ATOM     17  CB  ALA F   3      -3.061  31.070 -18.134  0.00 20.00 LIG 0.04  C 
BRANCH 16 18
ATOM     18  C   ALA F   3      -3.789  28.893 -18.410  1.00 32.37 LIG 0.22  C 
ATOM     19 O    ALA F   3      -4.371  27.948 -17.860  1.00 33.75 LIG-0.29  OA
ENDBRANCH 16 18
ENDBRANCH 14 16
ENDBRANCH 1 12
BRANCH 1 20
ATOM     20  CB  HIS F   2       2.296  29.613 -17.431  1.00 30.20 LIG 0.10  C 
BRANCH 20 21
ATOM     21  CG  HIS F   2       3.636  29.554 -18.115  1.00 29.66 LIG 0.06  A 
ATOM     22 ND1  HIS F   2       4.656  30.449 -17.861  1.00 29.25 LIG-0.24  NA
ATOM     23  CE1 HIS F   2       5.697  30.166 -18.630  1.00 27.69 LIG 0.23  A 
ATOM     24 NE2  HIS F   2       5.384  29.128 -19.389  1.00 31.40 LIG-0.25  NA
ATOM     25  CD2 HIS F   2       4.094  28.736 -19.098  1.00 30.69 LIG 0.14  A 
ENDBRANCH 20 21
ENDBRANCH 1 20
TORSDOF 8
ENDMDL
MODEL 61
USER: ADFR SOLUTION from run 191
USER: SCORE 7.002407 LL:  -1.113 LR:  -5.939 RR:   0.000 FEB:  -3.552
USER: RMSD 4.835454
USER: SEED 190
USER: STATUS no improvement in best in 20 clusters for 5 generations
USER: GENES 10
USER: genes 0 Translation |==|  0.62744 0.55353 0.42666
USER: genes 1 Rotation |==|  0.41659 0.73717 0.73661 0.86168
USER: genes 2 Torsion [C]-CA--N-[C] |==|  0.16111
USER: genes 3 Torsion [N]-C--CA-[N] |==|  0.03975
USER: genes 4 Torsion [C]-CA--N-[H3] |==|  0.28262
USER: genes 5 Torsion [N]-CA--C-[N] |==|  0.11504
USER: genes 6 Torsion [C]-N--CA-[CB] |==|  0.83256
USER: genes 7 Torsion [N]-CA--C-[O] |==|  0.69452
USER: genes 8 Torsion [N]-CA--CB-[CG] |==|  0.77300
USER: genes 9 Torsion [CA]-CB--CG-[ND1] |==|  0.39538
ROOT
ATOM      1  CA  HIS F   2       0.826  31.204 -20.254  1.00 30.59 LIG 0.18  C 
ENDROOT
BRANCH 1 2
ATOM      2  N   HIS F   2      -0.196  30.562 -21.087  1.00 30.70 LIG-0.35  N 
ATOM      3  C   ALA F   1      -1.459  30.982 -21.131  1.00 31.15 LIG 0.25  C 
ATOM      4 O    ALA F   1      -1.885  31.936 -20.473  1.00 30.37 LIG-0.27  OA
ATOM      5 H    HIS F   2       0.097  29.893 -21.542  1.00 30.70 LIG 0.16  HD
BRANCH 3 6
ATOM      6  CA  ALA F   1      -2.391  30.200 -22.065  1.00 31.15 LIG 0.27  C 
ATOM      7  CB  ALA F   1      -3.627  30.356 -21.864  0.00 20.00 LIG 0.05  C 
BRANCH 6 8
ATOM      8  N   ALA F   1      -1.779  28.896 -22.491  1.00 31.97 LIG-0.07  N 
ATOM      9 H3   ALA F   1      -2.135  28.232 -22.019  1.00 31.97 LIG 0.28  HD
ATOM     10 H1   ALA F   1      -1.937  28.763 -23.357  1.00 31.97 LIG 0.28  HD
ATOM     11 H2   ALA F   1      -0.901  28.921 -22.351  1.00 31.97 LIG 0.28  HD
ENDBRANCH 6 8
ENDBRANCH 3 6
ENDBRANCH 1 2
BRANCH 1 12
ATOM     12  C   HIS F   2       0.413  31.197 -18.777  1.00 31.15 LIG 0.24  C 
ATOM     13 O    HIS F   2       0.601  32.198 -18.060  1.00 30.80 LIG-0.27  OA
ATOM     14  N   ALA F   3      -0.151  30.069 -18.330  1.00 30.97 LIG-0.35  N 
ATOM     15 H    ALA F   3      -0.286  29.377 -18.823  1.00 30.97 LIG 0.16  HD
BRANCH 14 16
ATOM     16  CA  ALA F   3      -0.591  29.908 -16.946  1.00 31.72 LIG 0.16  C 
ATOM     17  CB  ALA F   3       0.668  30.089 -16.063  0.00 20.00 LIG 0.04  C 
BRANCH 16 18
ATOM     18  C   ALA F   3      -1.382  31.100 -16.414  1.00 32.37 LIG 0.22  C 
ATOM     19 O    ALA F   3      -0.899  31.850 -15.553  1.00 33.75 LIG-0.29  OA
ENDBRANCH 16 18
ENDBRANCH 14 16
ENDBRANCH 1 12
BRANCH 1 20
ATOM     20  CB  HIS F   2       1.070  32.650 -20.719  1.00 30.20 LIG 0.10  C 
BRANCH 20 21
ATOM     21  CG  HIS F   2       1.998  32.782 -21.897  1.00 29.66 LIG 0.06  A 
ATOM     22 ND1  HIS F   2       1.816  33.708 -22.905  1.00 29.25 LIG-0.24  NA
ATOM     23  CE1 HIS F   2       2.767  33.567 -23.815  1.00 27.69 LIG 0.23  A 
ATOM     24 NE2  HIS F   2       3.555  32.569 -23.443  1.00 31.40 LIG-0.25  NA
ATOM     25  CD2 HIS F   2       3.085  32.051 -22.255  1.00 30.69 LIG 0.14  A 
ENDBRANCH 20 21
ENDBRANCH 1 20
TORSDOF 8
ENDMDL
MODEL 62
USER: ADFR SOLUTION from run 63
USER: SCORE 7.006123 LL:  -1.321 LR:  -5.907 RR:   0.000 FEB:  -3.520
USER: RMSD 4.606710
USER: SEED 62
USER: STATUS no improvement in best in 34 clusters for 5 generations
USER: GENES 10
USER: genes 0 Translation |==|  0.35288 0.38546 0.47251
USER: genes 1 Rotation |==|  0.82251 0.51546 0.16634 0.68551
USER: genes 2 Torsion [C]-CA--N-[C] |==|  0.76667
USER: genes 3 Torsion [N]-C--CA-[N] |==|  0.14897
USER: genes 4 Torsion [C]-CA--N-[H3] |==|  0.96738
USER: genes 5 Torsion [N]-CA--C-[N] |==|  0.18971
USER: genes 6 Torsion [C]-N--CA-[CB] |==|  0.52435
USER: genes 7 Torsion [N]-CA--C-[O] |==|  0.42038
USER: genes 8 Torsion [N]-CA--CB-[CG] |==|  0.92931
USER: genes 9 Torsion [CA]-CB--CG-[ND1] |==|  0.91657
ROOT
ATOM      1  CA  HIS F   2      -3.910  29.188 -19.532  1.00 30.59 LIG 0.18  C 
ENDROOT
BRANCH 1 2
ATOM      2  N   HIS F   2      -2.515  29.527 -19.832  1.00 30.70 LIG-0.35  N 
ATOM      3  C   ALA F   1      -2.052  30.775 -19.796  1.00 31.15 LIG 0.25  C 
ATOM      4 O    ALA F   1      -2.750  31.754 -19.519  1.00 30.37 LIG-0.27  OA
ATOM      5 H    HIS F   2      -2.027  28.846 -20.033  1.00 30.70 LIG 0.16  HD
BRANCH 3 6
ATOM      6  CA  ALA F   1      -0.564  30.945 -20.129  1.00 31.15 LIG 0.27  C 
ATOM      7  CB  ALA F   1      -0.022  32.000 -19.696  0.00 20.00 LIG 0.05  C 
BRANCH 6 8
ATOM      8  N   ALA F   1      -0.217  30.316 -21.447  1.00 31.97 LIG-0.07  N 
ATOM      9 H3   ALA F   1      -0.895  29.810 -21.723  1.00 31.97 LIG 0.28  HD
ATOM     10 H1   ALA F   1      -0.059  30.953 -22.048  1.00 31.97 LIG 0.28  HD
ATOM     11 H2   ALA F   1       0.510  29.811 -21.354  1.00 31.97 LIG 0.28  HD
ENDBRANCH 6 8
ENDBRANCH 3 6
ENDBRANCH 1 2
BRANCH 1 12
ATOM     12  C   HIS F   2      -4.125  29.041 -18.020  1.00 31.15 LIG 0.24  C 
ATOM     13 O    HIS F   2      -4.373  27.929 -17.519  1.00 30.80 LIG-0.27  OA
ATOM     14  N   ALA F   3      -4.027  30.166 -17.301  1.00 30.97 LIG-0.35  N 
ATOM     15 H    ALA F   3      -3.851  30.936 -17.643  1.00 30.97 LIG 0.16  HD
BRANCH 14 16
ATOM     16  CA  ALA F   3      -4.212  30.188 -15.852  1.00 31.72 LIG 0.16  C 
ATOM     17  CB  ALA F   3      -4.244  31.680 -15.439  0.00 20.00 LIG 0.04  C 
BRANCH 16 18
ATOM     18  C   ALA F   3      -5.629  29.829 -15.411  1.00 32.37 LIG 0.22  C 
ATOM     19 O    ALA F   3      -5.837  29.298 -14.311  1.00 33.75 LIG-0.29  OA
ENDBRANCH 16 18
ENDBRANCH 14 16
ENDBRANCH 1 12
BRANCH 1 20
ATOM     20  CB  HIS F   2      -4.312  27.884 -20.242  1.00 30.20 LIG 0.10  C 
BRANCH 20 21
ATOM     21  CG  HIS F   2      -3.518  27.576 -21.484  1.00 29.66 LIG 0.06  A 
ATOM     22 ND1  HIS F   2      -2.973  28.551 -22.296  1.00 29.25 LIG-0.24  NA
ATOM     23  CE1 HIS F   2      -2.359  27.982 -23.322  1.00 27.69 LIG 0.23  A 
ATOM     24 NE2  HIS F   2      -2.499  26.670 -23.216  1.00 31.40 LIG-0.25  NA
ATOM     25  CD2 HIS F   2      -3.234  26.391 -22.083  1.00 30.69 LIG 0.14  A 
ENDBRANCH 20 21
ENDBRANCH 1 20
TORSDOF 8
ENDMDL
MODEL 63
USER: ADFR SOLUTION from run 100
USER: SCORE 7.256577 LL:  -1.515 LR:  -5.909 RR:   0.000 FEB:  -3.522
USER: RMSD 3.828614
USER: SEED 99
USER: STATUS no improvement in best in 37 clusters for 5 generations
USER: GENES 10
USER: genes 0 Translation |==|  0.57239 0.57527 0.49934
USER: genes 1 Rotation |==|  0.38208 0.65895 0.72947 0.89771
USER: genes 2 Torsion [C]-CA--N-[C] |==|  0.17434
USER: genes 3 Torsion [N]-C--CA-[N] |==|  0.09950
USER: genes 4 Torsion [C]-CA--N-[H3] |==|  0.08203
USER: genes 5 Torsion [N]-CA--C-[N] |==|  0.05556
USER: genes 6 Torsion [C]-N--CA-[CB] |==|  0.17744
USER: genes 7 Torsion [N]-CA--C-[O] |==|  0.09869
USER: genes 8 Torsion [N]-CA--CB-[CG] |==|  0.90149
USER: genes 9 Torsion [CA]-CB--CG-[ND1] |==|  0.79888
ROOT
ATOM      1  CA  HIS F   2      -0.123  31.465 -19.109  1.00 30.59 LIG 0.18  C 
ENDROOT
BRANCH 1 2
ATOM      2  N   HIS F   2      -0.754  30.859 -20.287  1.00 30.70 LIG-0.35  N 
ATOM      3  C   ALA F   1      -1.887  31.318 -20.815  1.00 31.15 LIG 0.25  C 
ATOM      4 O    ALA F   1      -2.511  32.282 -20.360  1.00 30.37 LIG-0.27  OA
ATOM      5 H    HIS F   2      -0.325  30.183 -20.602  1.00 30.70 LIG 0.16  HD
BRANCH 3 6
ATOM      6  CA  ALA F   1      -2.400  30.569 -22.051  1.00 31.15 LIG 0.27  C 
ATOM      7  CB  ALA F   1      -3.429  31.052 -22.598  0.00 20.00 LIG 0.05  C 
BRANCH 6 8
ATOM      8  N   ALA F   1      -2.124  29.096 -21.958  1.00 31.97 LIG-0.07  N 
ATOM      9 H3   ALA F   1      -2.120  28.848 -21.104  1.00 31.97 LIG 0.28  HD
ATOM     10 H1   ALA F   1      -2.757  28.647 -22.394  1.00 31.97 LIG 0.28  HD
ATOM     11 H2   ALA F   1      -1.332  28.918 -22.322  1.00 31.97 LIG 0.28  HD
ENDBRANCH 6 8
ENDBRANCH 3 6
ENDBRANCH 1 2
BRANCH 1 12
ATOM     12  C   HIS F   2      -1.037  31.358 -17.882  1.00 31.15 LIG 0.24  C 
ATOM     13 O    HIS F   2      -0.875  32.109 -16.902  1.00 30.80 LIG-0.27  OA
ATOM     14  N   ALA F   3      -1.995  30.425 -17.942  1.00 30.97 LIG-0.35  N 
ATOM     15 H    ALA F   3      -2.113  29.907 -18.619  1.00 30.97 LIG 0.16  HD
BRANCH 14 16
ATOM     16  CA  ALA F   3      -2.938  30.199 -16.849  1.00 31.72 LIG 0.16  C 
ATOM     17  CB  ALA F   3      -3.768  31.499 -16.714  0.00 20.00 LIG 0.04  C 
BRANCH 16 18
ATOM     18  C   ALA F   3      -4.087  29.264 -17.218  1.00 32.37 LIG 0.22  C 
ATOM     19 O    ALA F   3      -3.907  28.305 -17.981  1.00 33.75 LIG-0.29  OA
ENDBRANCH 16 18
ENDBRANCH 14 16
ENDBRANCH 1 12
BRANCH 1 20
ATOM     20  CB  HIS F   2       0.214  32.941 -19.379  1.00 30.20 LIG 0.10  C 
BRANCH 20 21
ATOM     21  CG  HIS F   2       0.645  33.238 -20.791  1.00 29.66 LIG 0.06  A 
ATOM     22 ND1  HIS F   2       1.871  32.862 -21.303  1.00 29.25 LIG-0.24  NA
ATOM     23  CE1 HIS F   2       1.978  33.284 -22.554  1.00 27.69 LIG 0.23  A 
ATOM     24 NE2  HIS F   2       0.870  33.937 -22.870  1.00 31.40 LIG-0.25  NA
ATOM     25  CD2 HIS F   2       0.027  33.936 -21.778  1.00 30.69 LIG 0.14  A 
ENDBRANCH 20 21
ENDBRANCH 1 20
TORSDOF 8
ENDMDL
MODEL 64
USER: ADFR SOLUTION from run 27
USER: SCORE 7.034520 LL:  -1.692 LR:  -5.904 RR:   0.000 FEB:  -3.518
USER: RMSD 4.545032
USER: SEED 26
USER: STATUS no improvement in best in 30 clusters for 5 generations
USER: GENES 10
USER: genes 0 Translation |==|  0.56584 0.67498 0.54775
USER: genes 1 Rotation |==|  0.03581 0.61039 0.63823 0.55689
USER: genes 2 Torsion [C]-CA--N-[C] |==|  0.19605
USER: genes 3 Torsion [N]-C--CA-[N] |==|  0.44341
USER: genes 4 Torsion [C]-CA--N-[H3] |==|  0.23967
USER: genes 5 Torsion [N]-CA--C-[N] |==|  0.97223
USER: genes 6 Torsion [C]-N--CA-[CB] |==|  0.31477
USER: genes 7 Torsion [N]-CA--C-[O] |==|  0.99596
USER: genes 8 Torsion [N]-CA--CB-[CG] |==|  0.33274
USER: genes 9 Torsion [CA]-CB--CG-[ND1] |==|  0.76133
ROOT
ATOM      1  CA  HIS F   2      -0.236  32.662 -18.347  1.00 30.59 LIG 0.18  C 
ENDROOT
BRANCH 1 2
ATOM      2  N   HIS F   2       0.430  31.782 -17.381  1.00 30.70 LIG-0.35  N 
ATOM      3  C   ALA F   1       0.296  30.457 -17.399  1.00 31.15 LIG 0.25  C 
ATOM      4 O    ALA F   1      -0.405  29.853 -18.218  1.00 30.37 LIG-0.27  OA
ATOM      5 H    HIS F   2       0.914  32.201 -16.806  1.00 30.70 LIG 0.16  HD
BRANCH 3 6
ATOM      6  CA  ALA F   1       1.073  29.691 -16.321  1.00 31.15 LIG 0.27  C 
ATOM      7  CB  ALA F   1       2.304  29.956 -16.241  0.00 20.00 LIG 0.05  C 
BRANCH 6 8
ATOM      8  N   ALA F   1       0.503  28.320 -16.099  1.00 31.97 LIG-0.07  N 
ATOM      9 H3   ALA F   1       0.864  27.750 -16.680  1.00 31.97 LIG 0.28  HD
ATOM     10 H1   ALA F   1       0.686  28.053 -15.270  1.00 31.97 LIG 0.28  HD
ATOM     11 H2   ALA F   1      -0.379  28.342 -16.215  1.00 31.97 LIG 0.28  HD
ENDBRANCH 6 8
ENDBRANCH 3 6
ENDBRANCH 1 2
BRANCH 1 12
ATOM     12  C   HIS F   2      -1.749  32.708 -18.093  1.00 31.15 LIG 0.24  C 
ATOM     13 O    HIS F   2      -2.467  33.536 -18.684  1.00 30.80 LIG-0.27  OA
ATOM     14  N   ALA F   3      -2.224  31.817 -17.215  1.00 30.97 LIG-0.35  N 
ATOM     15 H    ALA F   3      -1.732  31.240 -16.808  1.00 30.97 LIG 0.16  HD
BRANCH 14 16
ATOM     16  CA  ALA F   3      -3.641  31.742 -16.864  1.00 31.72 LIG 0.16  C 
ATOM     17  CB  ALA F   3      -4.153  30.385 -17.406  0.00 20.00 LIG 0.04  C 
BRANCH 16 18
ATOM     18  C   ALA F   3      -3.890  31.473 -15.383  1.00 32.37 LIG 0.22  C 
ATOM     19 O    ALA F   3      -2.944  31.312 -14.598  1.00 33.75 LIG-0.29  OA
ENDBRANCH 16 18
ENDBRANCH 14 16
ENDBRANCH 1 12
BRANCH 1 20
ATOM     20  CB  HIS F   2       0.035  32.187 -19.785  1.00 30.20 LIG 0.10  C 
BRANCH 20 21
ATOM     21  CG  HIS F   2      -1.199  31.822 -20.567  1.00 29.66 LIG 0.06  A 
ATOM     22 ND1  HIS F   2      -1.782  30.571 -20.521  1.00 29.25 LIG-0.24  NA
ATOM     23  CE1 HIS F   2      -2.829  30.539 -21.331  1.00 27.69 LIG 0.23  A 
ATOM     24 NE2  HIS F   2      -2.939  31.722 -21.917  1.00 31.40 LIG-0.25  NA
ATOM     25  CD2 HIS F   2      -1.921  32.537 -21.468  1.00 30.69 LIG 0.14  A 
ENDBRANCH 20 21
ENDBRANCH 1 20
TORSDOF 8
ENDMDL
MODEL 65
USER: ADFR SOLUTION from run 112
USER: SCORE 7.405023 LL:  -1.515 LR:  -5.896 RR:   0.000 FEB:  -3.509
USER: RMSD 3.222888
USER: SEED 111
USER: STATUS no improvement in best in 37 clusters for 5 generations
USER: GENES 10
USER: genes 0 Translation |==|  0.50913 0.41259 0.60430
USER: genes 1 Rotation |==|  0.35945 0.67244 0.41679 0.93999
USER: genes 2 Torsion [C]-CA--N-[C] |==|  0.80523
USER: genes 3 Torsion [N]-C--CA-[N] |==|  0.01685
USER: genes 4 Torsion [C]-CA--N-[H3] |==|  0.24627
USER: genes 5 Torsion [N]-CA--C-[N] |==|  0.96106
USER: genes 6 Torsion [C]-N--CA-[CB] |==|  0.45667
USER: genes 7 Torsion [N]-CA--C-[O] |==|  0.54872
USER: genes 8 Torsion [N]-CA--CB-[CG] |==|  0.18796
USER: genes 9 Torsion [CA]-CB--CG-[ND1] |==|  0.87504
ROOT
ATOM      1  CA  HIS F   2      -1.214  29.513 -17.456  1.00 30.59 LIG 0.18  C 
ENDROOT
BRANCH 1 2
ATOM      2  N   HIS F   2      -1.971  29.147 -18.658  1.00 30.70 LIG-0.35  N 
ATOM      3  C   ALA F   1      -3.247  28.771 -18.621  1.00 31.15 LIG 0.25  C 
ATOM      4 O    ALA F   1      -3.904  28.687 -17.579  1.00 30.37 LIG-0.27  OA
ATOM      5 H    HIS F   2      -1.513  29.198 -19.386  1.00 30.70 LIG 0.16  HD
BRANCH 3 6
ATOM      6  CA  ALA F   1      -3.885  28.434 -19.975  1.00 31.15 LIG 0.27  C 
ATOM      7  CB  ALA F   1      -4.858  27.631 -19.939  0.00 20.00 LIG 0.05  C 
BRANCH 6 8
ATOM      8  N   ALA F   1      -2.872  28.459 -21.084  1.00 31.97 LIG-0.07  N 
ATOM      9 H3   ALA F   1      -2.497  27.656 -21.163  1.00 31.97 LIG 0.28  HD
ATOM     10 H1   ALA F   1      -3.273  28.676 -21.848  1.00 31.97 LIG 0.28  HD
ATOM     11 H2   ALA F   1      -2.244  29.062 -20.899  1.00 31.97 LIG 0.28  HD
ENDBRANCH 6 8
ENDBRANCH 3 6
ENDBRANCH 1 2
BRANCH 1 12
ATOM     12  C   HIS F   2      -1.709  30.848 -16.883  1.00 31.15 LIG 0.24  C 
ATOM     13 O    HIS F   2      -1.383  31.206 -15.736  1.00 30.80 LIG-0.27  OA
ATOM     14  N   ALA F   3      -2.492  31.578 -17.687  1.00 30.97 LIG-0.35  N 
ATOM     15 H    ALA F   3      -2.715  31.336 -18.481  1.00 30.97 LIG 0.16  HD
BRANCH 14 16
ATOM     16  CA  ALA F   3      -3.045  32.868 -17.280  1.00 31.72 LIG 0.16  C 
ATOM     17  CB  ALA F   3      -3.536  33.559 -18.576  0.00 20.00 LIG 0.04  C 
BRANCH 16 18
ATOM     18  C   ALA F   3      -4.399  32.760 -16.585  1.00 32.37 LIG 0.22  C 
ATOM     19 O    ALA F   3      -5.137  33.750 -16.473  1.00 33.75 LIG-0.29  OA
ENDBRANCH 16 18
ENDBRANCH 14 16
ENDBRANCH 1 12
BRANCH 1 20
ATOM     20  CB  HIS F   2       0.288  29.608 -17.773  1.00 30.20 LIG 0.10  C 
BRANCH 20 21
ATOM     21  CG  HIS F   2       0.666  30.745 -18.683  1.00 29.66 LIG 0.06  A 
ATOM     22 ND1  HIS F   2      -0.034  31.061 -19.832  1.00 29.25 LIG-0.24  NA
ATOM     23  CE1 HIS F   2       0.548  32.084 -20.439  1.00 27.69 LIG 0.23  A 
ATOM     24 NE2  HIS F   2       1.613  32.437 -19.735  1.00 31.40 LIG-0.25  NA
ATOM     25  CD2 HIS F   2       1.717  31.603 -18.640  1.00 30.69 LIG 0.14  A 
ENDBRANCH 20 21
ENDBRANCH 1 20
TORSDOF 8
ENDMDL
MODEL 66
USER: ADFR SOLUTION from run 62
USER: SCORE 7.410732 LL:  -1.613 LR:  -5.891 RR:   0.000 FEB:  -3.505
USER: RMSD 5.458822
USER: SEED 61
USER: STATUS no improvement in best in 37 clusters for 5 generations
USER: GENES 10
USER: genes 0 Translation |==|  0.38210 0.56682 0.71377
USER: genes 1 Rotation |==|  0.22148 0.39127 0.79824 0.76769
USER: genes 2 Torsion [C]-CA--N-[C] |==|  0.61115
USER: genes 3 Torsion [N]-C--CA-[N] |==|  0.36494
USER: genes 4 Torsion [C]-CA--N-[H3] |==|  0.93326
USER: genes 5 Torsion [N]-CA--C-[N] |==|  0.43038
USER: genes 6 Torsion [C]-N--CA-[CB] |==|  0.59718
USER: genes 7 Torsion [N]-CA--C-[O] |==|  0.86371
USER: genes 8 Torsion [N]-CA--CB-[CG] |==|  0.28180
USER: genes 9 Torsion [CA]-CB--CG-[ND1] |==|  0.80997
ROOT
ATOM      1  CA  HIS F   2      -3.406  31.364 -15.732  1.00 30.59 LIG 0.18  C 
ENDROOT
BRANCH 1 2
ATOM      2  N   HIS F   2      -2.250  31.001 -16.559  1.00 30.70 LIG-0.35  N 
ATOM      3  C   ALA F   1      -1.010  31.396 -16.279  1.00 31.15 LIG 0.25  C 
ATOM      4 O    ALA F   1      -0.722  32.107 -15.311  1.00 30.37 LIG-0.27  OA
ATOM      5 H    HIS F   2      -2.449  30.511 -17.238  1.00 30.70 LIG 0.16  HD
BRANCH 3 6
ATOM      6  CA  ALA F   1       0.080  30.915 -17.246  1.00 31.15 LIG 0.27  C 
ATOM      7  CB  ALA F   1       0.489  29.735 -17.068  0.00 20.00 LIG 0.05  C 
BRANCH 6 8
ATOM      8  N   ALA F   1       0.969  32.044 -17.682  1.00 31.97 LIG-0.07  N 
ATOM      9 H3   ALA F   1       0.532  32.815 -17.601  1.00 31.97 LIG 0.28  HD
ATOM     10 H1   ALA F   1       1.698  32.062 -17.172  1.00 31.97 LIG 0.28  HD
ATOM     11 H2   ALA F   1       1.205  31.925 -18.531  1.00 31.97 LIG 0.28  HD
ENDBRANCH 6 8
ENDBRANCH 3 6
ENDBRANCH 1 2
BRANCH 1 12
ATOM     12  C   HIS F   2      -4.370  30.179 -15.588  1.00 31.15 LIG 0.24  C 
ATOM     13 O    HIS F   2      -4.405  29.281 -16.449  1.00 30.80 LIG-0.27  OA
ATOM     14  N   ALA F   3      -5.146  30.183 -14.497  1.00 30.97 LIG-0.35  N 
ATOM     15 H    ALA F   3      -5.121  30.800 -13.898  1.00 30.97 LIG 0.16  HD
BRANCH 14 16
ATOM     16  CA  ALA F   3      -6.118  29.127 -14.224  1.00 31.72 LIG 0.16  C 
ATOM     17  CB  ALA F   3      -7.325  29.812 -13.538  0.00 20.00 LIG 0.04  C 
BRANCH 16 18
ATOM     18  C   ALA F   3      -6.850  28.632 -15.469  1.00 32.37 LIG 0.22  C 
ATOM     19 O    ALA F   3      -7.365  29.432 -16.263  1.00 33.75 LIG-0.29  OA
ENDBRANCH 16 18
ENDBRANCH 14 16
ENDBRANCH 1 12
BRANCH 1 20
ATOM     20  CB  HIS F   2      -4.147  32.566 -16.341  1.00 30.20 LIG 0.10  C 
BRANCH 20 21
ATOM     21  CG  HIS F   2      -5.400  32.211 -17.097  1.00 29.66 LIG 0.06  A 
ATOM     22 ND1  HIS F   2      -5.395  31.519 -18.291  1.00 29.25 LIG-0.24  NA
ATOM     23  CE1 HIS F   2      -6.636  31.381 -18.731  1.00 27.69 LIG 0.23  A 
ATOM     24 NE2  HIS F   2      -7.451  31.975 -17.873  1.00 31.40 LIG-0.25  NA
ATOM     25  CD2 HIS F   2      -6.700  32.517 -16.849  1.00 30.69 LIG 0.14  A 
ENDBRANCH 20 21
ENDBRANCH 1 20
TORSDOF 8
ENDMDL
MODEL 67
USER: ADFR SOLUTION from run 154
USER: SCORE 7.187610 LL:  -1.342 LR:  -5.893 RR:   0.000 FEB:  -3.507
USER: RMSD 5.142486
USER: SEED 153
USER: STATUS no improvement in best in 25 clusters for 5 generations
USER: GENES 10
USER: genes 0 Translation |==|  0.45154 0.79732 0.40008
USER: genes 1 Rotation |==|  0.55104 0.58995 0.47448 0.98852
USER: genes 2 Torsion [C]-CA--N-[C] |==|  0.78220
USER: genes 3 Torsion [N]-C--CA-[N] |==|  0.16363
USER: genes 4 Torsion [C]-CA--N-[H3] |==|  0.59390
USER: genes 5 Torsion [N]-CA--C-[N] |==|  0.41074
USER: genes 6 Torsion [C]-N--CA-[CB] |==|  0.21043
USER: genes 7 Torsion [N]-CA--C-[O] |==|  0.08684
USER: genes 8 Torsion [N]-CA--CB-[CG] |==|  0.83369
USER: genes 9 Torsion [CA]-CB--CG-[ND1] |==|  0.19563
ROOT
ATOM      1  CA  HIS F   2      -2.208  34.130 -20.673  1.00 30.59 LIG 0.18  C 
ENDROOT
BRANCH 1 2
ATOM      2  N   HIS F   2      -2.391  34.778 -21.976  1.00 30.70 LIG-0.35  N 
ATOM      3  C   ALA F   1      -3.405  34.490 -22.789  1.00 31.15 LIG 0.25  C 
ATOM      4 O    ALA F   1      -4.273  33.652 -22.527  1.00 30.37 LIG-0.27  OA
ATOM      5 H    HIS F   2      -1.783  35.358 -22.164  1.00 30.70 LIG 0.16  HD
BRANCH 3 6
ATOM      6  CA  ALA F   1      -3.447  35.271 -24.109  1.00 31.15 LIG 0.27  C 
ATOM      7  CB  ALA F   1      -4.590  35.427 -24.618  0.00 20.00 LIG 0.05  C 
BRANCH 6 8
ATOM      8  N   ALA F   1      -2.200  35.054 -24.918  1.00 31.97 LIG-0.07  N 
ATOM      9 H3   ALA F   1      -2.002  35.797 -25.364  1.00 31.97 LIG 0.28  HD
ATOM     10 H1   ALA F   1      -1.526  34.845 -24.375  1.00 31.97 LIG 0.28  HD
ATOM     11 H2   ALA F   1      -2.333  34.389 -25.494  1.00 31.97 LIG 0.28  HD
ENDBRANCH 6 8
ENDBRANCH 3 6
ENDBRANCH 1 2
BRANCH 1 12
ATOM     12  C   HIS F   2      -3.149  34.736 -19.623  1.00 31.15 LIG 0.24  C 
ATOM     13 O    HIS F   2      -3.474  35.936 -19.680  1.00 30.80 LIG-0.27  OA
ATOM     14  N   ALA F   3      -3.582  33.901 -18.671  1.00 30.97 LIG-0.35  N 
ATOM     15 H    ALA F   3      -3.363  33.070 -18.631  1.00 30.97 LIG 0.16  HD
BRANCH 14 16
ATOM     16  CA  ALA F   3      -4.477  34.332 -17.599  1.00 31.72 LIG 0.16  C 
ATOM     17  CB  ALA F   3      -5.884  34.461 -18.232  0.00 20.00 LIG 0.04  C 
BRANCH 16 18
ATOM     18  C   ALA F   3      -4.807  33.229 -16.598  1.00 32.37 LIG 0.22  C 
ATOM     19 O    ALA F   3      -3.986  32.335 -16.343  1.00 33.75 LIG-0.29  OA
ENDBRANCH 16 18
ENDBRANCH 14 16
ENDBRANCH 1 12
BRANCH 1 20
ATOM     20  CB  HIS F   2      -0.750  34.265 -20.204  1.00 30.20 LIG 0.10  C 
BRANCH 20 21
ATOM     21  CG  HIS F   2       0.266  33.650 -21.129  1.00 29.66 LIG 0.06  A 
ATOM     22 ND1  HIS F   2       0.578  34.174 -22.368  1.00 29.25 LIG-0.24  NA
ATOM     23  CE1 HIS F   2       1.478  33.406 -22.962  1.00 27.69 LIG 0.23  A 
ATOM     24 NE2  HIS F   2       1.752  32.389 -22.160  1.00 31.40 LIG-0.25  NA
ATOM     25  CD2 HIS F   2       0.995  32.510 -21.013  1.00 30.69 LIG 0.14  A 
ENDBRANCH 20 21
ENDBRANCH 1 20
TORSDOF 8
ENDMDL
MODEL 68
USER: ADFR SOLUTION from run 71
USER: SCORE 6.941398 LL:  -1.591 LR:  -5.877 RR:   0.000 FEB:  -3.491
USER: RMSD 5.224408
USER: SEED 70
USER: STATUS no improvement in best in 31 clusters for 5 generations
USER: GENES 10
USER: genes 0 Translation |==|  0.38045 0.58469 0.62377
USER: genes 1 Rotation |==|  0.47575 0.62464 0.98308 0.52265
USER: genes 2 Torsion [C]-CA--N-[C] |==|  0.76616
USER: genes 3 Torsion [N]-C--CA-[N] |==|  0.53178
USER: genes 4 Torsion [C]-CA--N-[H3] |==|  0.73676
USER: genes 5 Torsion [N]-CA--C-[N] |==|  0.12054
USER: genes 6 Torsion [C]-N--CA-[CB] |==|  0.49924
USER: genes 7 Torsion [N]-CA--C-[O] |==|  0.12783
USER: genes 8 Torsion [N]-CA--CB-[CG] |==|  0.14998
USER: genes 9 Torsion [CA]-CB--CG-[ND1] |==|  0.83550
ROOT
ATOM      1  CA  HIS F   2      -3.434  31.578 -17.150  1.00 30.59 LIG 0.18  C 
ENDROOT
BRANCH 1 2
ATOM      2  N   HIS F   2      -3.635  30.594 -18.218  1.00 30.70 LIG-0.35  N 
ATOM      3  C   ALA F   1      -2.948  30.617 -19.359  1.00 31.15 LIG 0.25  C 
ATOM      4 O    ALA F   1      -2.092  31.467 -19.623  1.00 30.37 LIG-0.27  OA
ATOM      5 H    HIS F   2      -4.236  30.004 -18.039  1.00 30.70 LIG 0.16  HD
BRANCH 3 6
ATOM      6  CA  ALA F   1      -3.280  29.505 -20.362  1.00 31.15 LIG 0.27  C 
ATOM      7  CB  ALA F   1      -3.844  28.483 -19.882  0.00 20.00 LIG 0.05  C 
BRANCH 6 8
ATOM      8  N   ALA F   1      -2.276  29.450 -21.477  1.00 31.97 LIG-0.07  N 
ATOM      9 H3   ALA F   1      -2.575  29.923 -22.169  1.00 31.97 LIG 0.28  HD
ATOM     10 H1   ALA F   1      -1.502  29.789 -21.198  1.00 31.97 LIG 0.28  HD
ATOM     11 H2   ALA F   1      -2.155  28.605 -21.727  1.00 31.97 LIG 0.28  HD
ENDBRANCH 6 8
ENDBRANCH 3 6
ENDBRANCH 1 2
BRANCH 1 12
ATOM     12  C   HIS F   2      -2.262  31.175 -16.246  1.00 31.15 LIG 0.24  C 
ATOM     13 O    HIS F   2      -2.353  31.268 -15.008  1.00 30.80 LIG-0.27  OA
ATOM     14  N   ALA F   3      -1.166  30.726 -16.871  1.00 30.97 LIG-0.35  N 
ATOM     15 H    ALA F   3      -1.102  30.655 -17.726  1.00 30.97 LIG 0.16  HD
BRANCH 14 16
ATOM     16  CA  ALA F   3       0.033  30.310 -16.148  1.00 31.72 LIG 0.16  C 
ATOM     17  CB  ALA F   3       1.054  29.858 -17.220  0.00 20.00 LIG 0.04  C 
BRANCH 16 18
ATOM     18  C   ALA F   3       0.840  31.475 -15.582  1.00 32.37 LIG 0.22  C 
ATOM     19 O    ALA F   3       0.281  32.401 -14.976  1.00 33.75 LIG-0.29  OA
ENDBRANCH 16 18
ENDBRANCH 14 16
ENDBRANCH 1 12
BRANCH 1 20
ATOM     20  CB  HIS F   2      -4.712  31.726 -16.307  1.00 30.20 LIG 0.10  C 
BRANCH 20 21
ATOM     21  CG  HIS F   2      -5.249  30.434 -15.750  1.00 29.66 LIG 0.06  A 
ATOM     22 ND1  HIS F   2      -5.627  29.368 -16.541  1.00 29.25 LIG-0.24  NA
ATOM     23  CE1 HIS F   2      -6.084  28.388 -15.777  1.00 27.69 LIG 0.23  A 
ATOM     24 NE2  HIS F   2      -6.032  28.785 -14.514  1.00 31.40 LIG-0.25  NA
ATOM     25  CD2 HIS F   2      -5.529  30.069 -14.472  1.00 30.69 LIG 0.14  A 
ENDBRANCH 20 21
ENDBRANCH 1 20
TORSDOF 8
ENDMDL
MODEL 69
USER: ADFR SOLUTION from run 142
USER: SCORE 7.223148 LL:  -1.382 LR:  -5.857 RR:   0.000 FEB:  -3.471
USER: RMSD 5.130042
USER: SEED 141
USER: STATUS no improvement in best in 26 clusters for 5 generations
USER: GENES 10
USER: genes 0 Translation |==|  0.35889 0.49603 0.62875
USER: genes 1 Rotation |==|  0.73834 0.26738 0.26133 0.78656
USER: genes 2 Torsion [C]-CA--N-[C] |==|  0.84433
USER: genes 3 Torsion [N]-C--CA-[N] |==|  0.45970
USER: genes 4 Torsion [C]-CA--N-[H3] |==|  0.78561
USER: genes 5 Torsion [N]-CA--C-[N] |==|  0.36201
USER: genes 6 Torsion [C]-N--CA-[CB] |==|  0.36207
USER: genes 7 Torsion [N]-CA--C-[O] |==|  0.01944
USER: genes 8 Torsion [N]-CA--CB-[CG] |==|  0.68950
USER: genes 9 Torsion [CA]-CB--CG-[ND1] |==|  0.21910
ROOT
ATOM      1  CA  HIS F   2      -3.806  30.514 -17.071  1.00 30.59 LIG 0.18  C 
ENDROOT
BRANCH 1 2
ATOM      2  N   HIS F   2      -2.360  30.432 -16.841  1.00 30.70 LIG-0.35  N 
ATOM      3  C   ALA F   1      -1.512  31.382 -17.230  1.00 31.15 LIG 0.25  C 
ATOM      4 O    ALA F   1      -1.861  32.408 -17.823  1.00 30.37 LIG-0.27  OA
ATOM      5 H    HIS F   2      -2.113  29.715 -16.434  1.00 30.70 LIG 0.16  HD
BRANCH 3 6
ATOM      6  CA  ALA F   1      -0.035  31.136 -16.899  1.00 31.15 LIG 0.27  C 
ATOM      7  CB  ALA F   1       0.207  30.746 -15.723  0.00 20.00 LIG 0.05  C 
BRANCH 6 8
ATOM      8  N   ALA F   1       0.865  32.062 -17.666  1.00 31.97 LIG-0.07  N 
ATOM      9 H3   ALA F   1       0.939  31.777 -18.505  1.00 31.97 LIG 0.28  HD
ATOM     10 H1   ALA F   1       0.520  32.883 -17.661  1.00 31.97 LIG 0.28  HD
ATOM     11 H2   ALA F   1       1.669  32.077 -17.286  1.00 31.97 LIG 0.28  HD
ENDBRANCH 6 8
ENDBRANCH 3 6
ENDBRANCH 1 2
BRANCH 1 12
ATOM     12  C   HIS F   2      -4.384  31.802 -16.469  1.00 31.15 LIG 0.24  C 
ATOM     13 O    HIS F   2      -4.124  32.126 -15.296  1.00 30.80 LIG-0.27  OA
ATOM     14  N   ALA F   3      -5.164  32.530 -17.278  1.00 30.97 LIG-0.35  N 
ATOM     15 H    ALA F   3      -5.342  32.311 -18.090  1.00 30.97 LIG 0.16  HD
BRANCH 14 16
ATOM     16  CA  ALA F   3      -5.791  33.777 -16.846  1.00 31.72 LIG 0.16  C 
ATOM     17  CB  ALA F   3      -5.473  34.826 -17.940  0.00 20.00 LIG 0.04  C 
BRANCH 16 18
ATOM     18  C   ALA F   3      -7.310  33.782 -16.999  1.00 32.37 LIG 0.22  C 
ATOM     19 O    ALA F   3      -7.919  32.755 -17.329  1.00 33.75 LIG-0.29  OA
ENDBRANCH 16 18
ENDBRANCH 14 16
ENDBRANCH 1 12
BRANCH 1 20
ATOM     20  CB  HIS F   2      -4.518  29.293 -16.466  1.00 30.20 LIG 0.10  C 
BRANCH 20 21
ATOM     21  CG  HIS F   2      -5.117  28.352 -17.477  1.00 29.66 LIG 0.06  A 
ATOM     22 ND1  HIS F   2      -4.374  27.427 -18.184  1.00 29.25 LIG-0.24  NA
ATOM     23  CE1 HIS F   2      -5.163  26.765 -19.016  1.00 27.69 LIG 0.23  A 
ATOM     24 NE2  HIS F   2      -6.393  27.238 -18.889  1.00 31.40 LIG-0.25  NA
ATOM     25  CD2 HIS F   2      -6.387  28.243 -17.944  1.00 30.69 LIG 0.14  A 
ENDBRANCH 20 21
ENDBRANCH 1 20
TORSDOF 8
ENDMDL
MODEL 70
USER: ADFR SOLUTION from run 112
USER: SCORE 7.461235 LL:  -1.701 LR:  -5.857 RR:   0.000 FEB:  -3.471
USER: RMSD 2.988407
USER: SEED 111
USER: STATUS no improvement in best in 37 clusters for 5 generations
USER: GENES 10
USER: genes 0 Translation |==|  0.54811 0.57803 0.44736
USER: genes 1 Rotation |==|  0.73526 0.56985 0.56233 0.93115
USER: genes 2 Torsion [C]-CA--N-[C] |==|  0.76826
USER: genes 3 Torsion [N]-C--CA-[N] |==|  0.27283
USER: genes 4 Torsion [C]-CA--N-[H3] |==|  0.28218
USER: genes 5 Torsion [N]-CA--C-[N] |==|  0.91682
USER: genes 6 Torsion [C]-N--CA-[CB] |==|  0.27918
USER: genes 7 Torsion [N]-CA--C-[O] |==|  0.97276
USER: genes 8 Torsion [N]-CA--CB-[CG] |==|  0.36016
USER: genes 9 Torsion [CA]-CB--CG-[ND1] |==|  0.22978
ROOT
ATOM      1  CA  HIS F   2      -0.542  31.498 -19.928  1.00 30.59 LIG 0.18  C 
ENDROOT
BRANCH 1 2
ATOM      2  N   HIS F   2      -0.830  32.867 -20.370  1.00 30.70 LIG-0.35  N 
ATOM      3  C   ALA F   1      -1.666  33.142 -21.369  1.00 31.15 LIG 0.25  C 
ATOM      4 O    ALA F   1      -2.264  32.276 -22.017  1.00 30.37 LIG-0.27  OA
ATOM      5 H    HIS F   2      -0.410  33.471 -19.925  1.00 30.70 LIG 0.16  HD
BRANCH 3 6
ATOM      6  CA  ALA F   1      -1.857  34.629 -21.691  1.00 31.15 LIG 0.27  C 
ATOM      7  CB  ALA F   1      -3.007  35.096 -21.464  0.00 20.00 LIG 0.05  C 
BRANCH 6 8
ATOM      8  N   ALA F   1      -1.002  35.058 -22.849  1.00 31.97 LIG-0.07  N 
ATOM      9 H3   ALA F   1      -1.501  35.109 -23.584  1.00 31.97 LIG 0.28  HD
ATOM     10 H1   ALA F   1      -0.646  35.855 -22.676  1.00 31.97 LIG 0.28  HD
ATOM     11 H2   ALA F   1      -0.351  34.464 -22.973  1.00 31.97 LIG 0.28  HD
ENDBRANCH 6 8
ENDBRANCH 3 6
ENDBRANCH 1 2
BRANCH 1 12
ATOM     12  C   HIS F   2      -1.617  31.000 -18.954  1.00 31.15 LIG 0.24  C 
ATOM     13 O    HIS F   2      -1.901  29.789 -18.887  1.00 30.80 LIG-0.27  OA
ATOM     14  N   ALA F   3      -2.209  31.936 -18.203  1.00 30.97 LIG-0.35  N 
ATOM     15 H    ALA F   3      -2.013  32.773 -18.243  1.00 30.97 LIG 0.16  HD
BRANCH 14 16
ATOM     16  CA  ALA F   3      -3.256  31.617 -17.234  1.00 31.72 LIG 0.16  C 
ATOM     17  CB  ALA F   3      -2.572  31.596 -15.845  0.00 20.00 LIG 0.04  C 
BRANCH 16 18
ATOM     18  C   ALA F   3      -4.215  32.774 -16.968  1.00 32.37 LIG 0.22  C 
ATOM     19 O    ALA F   3      -3.976  33.910 -17.401  1.00 33.75 LIG-0.29  OA
ENDBRANCH 16 18
ENDBRANCH 14 16
ENDBRANCH 1 12
BRANCH 1 20
ATOM     20  CB  HIS F   2       0.840  31.429 -19.257  1.00 30.20 LIG 0.10  C 
BRANCH 20 21
ATOM     21  CG  HIS F   2       0.849  30.753 -17.911  1.00 29.66 LIG 0.06  A 
ATOM     22 ND1  HIS F   2       0.906  29.383 -17.752  1.00 29.25 LIG-0.24  NA
ATOM     23  CE1 HIS F   2       0.870  29.083 -16.463  1.00 27.69 LIG 0.23  A 
ATOM     24 NE2  HIS F   2       0.775  30.211 -15.775  1.00 31.40 LIG-0.25  NA
ATOM     25  CD2 HIS F   2       0.744  31.269 -16.660  1.00 30.69 LIG 0.14  A 
ENDBRANCH 20 21
ENDBRANCH 1 20
TORSDOF 8
ENDMDL
MODEL 71
USER: ADFR SOLUTION from run 37
USER: SCORE 7.229704 LL:  -1.490 LR:  -5.836 RR:   0.000 FEB:  -3.450
USER: RMSD 5.005724
USER: SEED 36
USER: STATUS no improvement in best in 40 clusters for 5 generations
USER: GENES 10
USER: genes 0 Translation |==|  0.47900 0.66146 0.53195
USER: genes 1 Rotation |==|  0.42748 0.38852 0.98154 0.52090
USER: genes 2 Torsion [C]-CA--N-[C] |==|  0.81289
USER: genes 3 Torsion [N]-C--CA-[N] |==|  0.28825
USER: genes 4 Torsion [C]-CA--N-[H3] |==|  0.47047
USER: genes 5 Torsion [N]-CA--C-[N] |==|  0.45611
USER: genes 6 Torsion [C]-N--CA-[CB] |==|  0.84140
USER: genes 7 Torsion [N]-CA--C-[O] |==|  0.03303
USER: genes 8 Torsion [N]-CA--CB-[CG] |==|  0.21310
USER: genes 9 Torsion [CA]-CB--CG-[ND1] |==|  0.76418
ROOT
ATOM      1  CA  HIS F   2      -1.734  32.500 -18.596  1.00 30.59 LIG 0.18  C 
ENDROOT
BRANCH 1 2
ATOM      2  N   HIS F   2      -1.573  32.788 -20.025  1.00 30.70 LIG-0.35  N 
ATOM      3  C   ALA F   1      -0.531  33.458 -20.513  1.00 31.15 LIG 0.25  C 
ATOM      4 O    ALA F   1       0.383  33.902 -19.813  1.00 30.37 LIG-0.27  OA
ATOM      5 H    HIS F   2      -2.213  32.484 -20.514  1.00 30.70 LIG 0.16  HD
BRANCH 3 6
ATOM      6  CA  ALA F   1      -0.520  33.660 -22.034  1.00 31.15 LIG 0.27  C 
ATOM      7  CB  ALA F   1       0.329  32.978 -22.671  0.00 20.00 LIG 0.05  C 
BRANCH 6 8
ATOM      8  N   ALA F   1      -0.906  35.062 -22.407  1.00 31.97 LIG-0.07  N 
ATOM      9 H3   ALA F   1      -0.744  35.195 -23.272  1.00 31.97 LIG 0.28  HD
ATOM     10 H1   ALA F   1      -1.773  35.184 -22.246  1.00 31.97 LIG 0.28  HD
ATOM     11 H2   ALA F   1      -0.432  35.639 -21.924  1.00 31.97 LIG 0.28  HD
ENDBRANCH 6 8
ENDBRANCH 3 6
ENDBRANCH 1 2
BRANCH 1 12
ATOM     12  C   HIS F   2      -0.662  31.515 -18.111  1.00 31.15 LIG 0.24  C 
ATOM     13 O    HIS F   2       0.004  30.850 -18.926  1.00 30.80 LIG-0.27  OA
ATOM     14  N   ALA F   3      -0.498  31.430 -16.786  1.00 30.97 LIG-0.35  N 
ATOM     15 H    ALA F   3      -0.953  31.891 -16.220  1.00 30.97 LIG 0.16  HD
BRANCH 14 16
ATOM     16  CA  ALA F   3       0.479  30.533 -16.173  1.00 31.72 LIG 0.16  C 
ATOM     17  CB  ALA F   3       0.138  29.108 -16.675  0.00 20.00 LIG 0.04  C 
BRANCH 16 18
ATOM     18  C   ALA F   3       1.872  30.635 -16.789  1.00 32.37 LIG 0.22  C 
ATOM     19 O    ALA F   3       2.160  31.561 -17.561  1.00 33.75 LIG-0.29  OA
ENDBRANCH 16 18
ENDBRANCH 14 16
ENDBRANCH 1 12
BRANCH 1 20
ATOM     20  CB  HIS F   2      -3.132  31.923 -18.316  1.00 30.20 LIG 0.10  C 
BRANCH 20 21
ATOM     21  CG  HIS F   2      -3.303  30.478 -18.704  1.00 29.66 LIG 0.06  A 
ATOM     22 ND1  HIS F   2      -3.634  30.071 -19.981  1.00 29.25 LIG-0.24  NA
ATOM     23  CE1 HIS F   2      -3.743  28.751 -20.012  1.00 27.69 LIG 0.23  A 
ATOM     24 NE2  HIS F   2      -3.511  28.285 -18.795  1.00 31.40 LIG-0.25  NA
ATOM     25  CD2 HIS F   2      -3.249  29.347 -17.955  1.00 30.69 LIG 0.14  A 
ENDBRANCH 20 21
ENDBRANCH 1 20
TORSDOF 8
ENDMDL
MODEL 72
USER: ADFR SOLUTION from run 84
USER: SCORE 7.106181 LL:  -1.425 LR:  -5.833 RR:   0.000 FEB:  -3.447
USER: RMSD 5.095850
USER: SEED 83
USER: STATUS no improvement in best in 30 clusters for 5 generations
USER: GENES 10
USER: genes 0 Translation |==|  0.35378 0.37968 0.46291
USER: genes 1 Rotation |==|  0.71800 0.53692 0.11772 0.73448
USER: genes 2 Torsion [C]-CA--N-[C] |==|  0.67534
USER: genes 3 Torsion [N]-C--CA-[N] |==|  0.07984
USER: genes 4 Torsion [C]-CA--N-[H3] |==|  0.05244
USER: genes 5 Torsion [N]-CA--C-[N] |==|  0.07222
USER: genes 6 Torsion [C]-N--CA-[CB] |==|  0.51283
USER: genes 7 Torsion [N]-CA--C-[O] |==|  0.43989
USER: genes 8 Torsion [N]-CA--CB-[CG] |==|  0.92842
USER: genes 9 Torsion [CA]-CB--CG-[ND1] |==|  0.20054
ROOT
ATOM      1  CA  HIS F   2      -3.894  29.118 -19.683  1.00 30.59 LIG 0.18  C 
ENDROOT
BRANCH 1 2
ATOM      2  N   HIS F   2      -2.819  29.473 -20.615  1.00 30.70 LIG-0.35  N 
ATOM      3  C   ALA F   1      -2.929  30.459 -21.503  1.00 31.15 LIG 0.25  C 
ATOM      4 O    ALA F   1      -3.942  31.154 -21.629  1.00 30.37 LIG-0.27  OA
ATOM      5 H    HIS F   2      -2.114  28.985 -20.534  1.00 30.70 LIG 0.16  HD
BRANCH 3 6
ATOM      6  CA  ALA F   1      -1.702  30.698 -22.392  1.00 31.15 LIG 0.27  C 
ATOM      7  CB  ALA F   1      -1.829  31.593 -23.272  0.00 20.00 LIG 0.05  C 
BRANCH 6 8
ATOM      8  N   ALA F   1      -0.916  29.436 -22.600  1.00 31.97 LIG-0.07  N 
ATOM      9 H3   ALA F   1      -1.427  28.733 -22.411  1.00 31.97 LIG 0.28  HD
ATOM     10 H1   ALA F   1      -0.649  29.388 -23.448  1.00 31.97 LIG 0.28  HD
ATOM     11 H2   ALA F   1      -0.205  29.437 -22.066  1.00 31.97 LIG 0.28  HD
ENDBRANCH 6 8
ENDBRANCH 3 6
ENDBRANCH 1 2
BRANCH 1 12
ATOM     12  C   HIS F   2      -3.455  29.339 -18.230  1.00 31.15 LIG 0.24  C 
ATOM     13 O    HIS F   2      -3.972  28.687 -17.304  1.00 30.80 LIG-0.27  OA
ATOM     14  N   ALA F   3      -2.501  30.258 -18.038  1.00 30.97 LIG-0.35  N 
ATOM     15 H    ALA F   3      -2.138  30.707 -18.676  1.00 30.97 LIG 0.16  HD
BRANCH 14 16
ATOM     16  CA  ALA F   3      -1.983  30.584 -16.711  1.00 31.72 LIG 0.16  C 
ATOM     17  CB  ALA F   3      -0.995  31.760 -16.906  0.00 20.00 LIG 0.04  C 
BRANCH 16 18
ATOM     18  C   ALA F   3      -2.990  31.313 -15.825  1.00 32.37 LIG 0.22  C 
ATOM     19 O    ALA F   3      -2.872  31.307 -14.591  1.00 33.75 LIG-0.29  OA
ENDBRANCH 16 18
ENDBRANCH 14 16
ENDBRANCH 1 12
BRANCH 1 20
ATOM     20  CB  HIS F   2      -4.317  27.653 -19.881  1.00 30.20 LIG 0.10  C 
BRANCH 20 21
ATOM     21  CG  HIS F   2      -4.055  27.105 -21.259  1.00 29.66 LIG 0.06  A 
ATOM     22 ND1  HIS F   2      -2.791  26.810 -21.729  1.00 29.25 LIG-0.24  NA
ATOM     23  CE1 HIS F   2      -2.871  26.376 -22.977  1.00 27.69 LIG 0.23  A 
ATOM     24 NE2  HIS F   2      -4.144  26.394 -23.344  1.00 31.40 LIG-0.25  NA
ATOM     25  CD2 HIS F   2      -4.903  26.862 -22.291  1.00 30.69 LIG 0.14  A 
ENDBRANCH 20 21
ENDBRANCH 1 20
TORSDOF 8
ENDMDL
MODEL 73
USER: ADFR SOLUTION from run 39
USER: SCORE 6.960242 LL:  -1.342 LR:  -5.777 RR:   0.000 FEB:  -3.390
USER: RMSD 4.462963
USER: SEED 38
USER: STATUS no improvement in best in 37 clusters for 5 generations
USER: GENES 10
USER: genes 0 Translation |==|  0.41469 0.44211 0.52633
USER: genes 1 Rotation |==|  0.07180 0.49865 0.75760 0.51684
USER: genes 2 Torsion [C]-CA--N-[C] |==|  0.75025
USER: genes 3 Torsion [N]-C--CA-[N] |==|  0.77137
USER: genes 4 Torsion [C]-CA--N-[H3] |==|  0.37729
USER: genes 5 Torsion [N]-CA--C-[N] |==|  0.30010
USER: genes 6 Torsion [C]-N--CA-[CB] |==|  0.34464
USER: genes 7 Torsion [N]-CA--C-[O] |==|  0.01359
USER: genes 8 Torsion [N]-CA--CB-[CG] |==|  0.83650
USER: genes 9 Torsion [CA]-CB--CG-[ND1] |==|  0.45590
ROOT
ATOM      1  CA  HIS F   2      -2.844  29.867 -18.684  1.00 30.59 LIG 0.18  C 
ENDROOT
BRANCH 1 2
ATOM      2  N   HIS F   2      -1.501  29.432 -18.286  1.00 30.70 LIG-0.35  N 
ATOM      3  C   ALA F   1      -0.783  30.062 -17.358  1.00 31.15 LIG 0.25  C 
ATOM      4 O    ALA F   1      -1.175  31.069 -16.759  1.00 30.37 LIG-0.27  OA
ATOM      5 H    HIS F   2      -1.223  28.734 -18.706  1.00 30.70 LIG 0.16  HD
BRANCH 3 6
ATOM      6  CA  ALA F   1       0.597  29.463 -17.058  1.00 31.15 LIG 0.27  C 
ATOM      7  CB  ALA F   1       1.435  29.519 -18.000  0.00 20.00 LIG 0.05  C 
BRANCH 6 8
ATOM      8  N   ALA F   1       0.502  28.312 -16.099  1.00 31.97 LIG-0.07  N 
ATOM      9 H3   ALA F   1       1.018  27.645 -16.384  1.00 31.97 LIG 0.28  HD
ATOM     10 H1   ALA F   1       0.774  28.574 -15.293  1.00 31.97 LIG 0.28  HD
ATOM     11 H2   ALA F   1      -0.341  28.034 -16.050  1.00 31.97 LIG 0.28  HD
ENDBRANCH 6 8
ENDBRANCH 3 6
ENDBRANCH 1 2
BRANCH 1 12
ATOM     12  C   HIS F   2      -3.917  29.194 -17.820  1.00 31.15 LIG 0.24  C 
ATOM     13 O    HIS F   2      -4.177  27.984 -17.958  1.00 30.80 LIG-0.27  OA
ATOM     14  N   ALA F   3      -4.535  29.981 -16.931  1.00 30.97 LIG-0.35  N 
ATOM     15 H    ALA F   3      -4.355  30.816 -16.829  1.00 30.97 LIG 0.16  HD
BRANCH 14 16
ATOM     16  CA  ALA F   3      -5.583  29.486 -16.041  1.00 31.72 LIG 0.16  C 
ATOM     17  CB  ALA F   3      -5.122  29.812 -14.600  0.00 20.00 LIG 0.04  C 
BRANCH 16 18
ATOM     18  C   ALA F   3      -6.845  30.345 -16.047  1.00 32.37 LIG 0.22  C 
ATOM     19 O    ALA F   3      -6.957  31.305 -16.823  1.00 33.75 LIG-0.29  OA
ENDBRANCH 16 18
ENDBRANCH 14 16
ENDBRANCH 1 12
BRANCH 1 20
ATOM     20  CB  HIS F   2      -3.095  29.548 -20.167  1.00 30.20 LIG 0.10  C 
BRANCH 20 21
ATOM     21  CG  HIS F   2      -2.120  30.187 -21.120  1.00 29.66 LIG 0.06  A 
ATOM     22 ND1  HIS F   2      -1.971  29.787 -22.433  1.00 29.25 LIG-0.24  NA
ATOM     23  CE1 HIS F   2      -1.024  30.509 -23.013  1.00 27.69 LIG 0.23  A 
ATOM     24 NE2  HIS F   2      -0.539  31.356 -22.118  1.00 31.40 LIG-0.25  NA
ATOM     25  CD2 HIS F   2      -1.197  31.163 -20.921  1.00 30.69 LIG 0.14  A 
ENDBRANCH 20 21
ENDBRANCH 1 20
TORSDOF 8
ENDMDL
MODEL 74
USER: ADFR SOLUTION from run 2
USER: SCORE 7.084257 LL:  -1.339 LR:  -5.768 RR:   0.000 FEB:  -3.381
USER: RMSD 4.712553
USER: SEED 886557
USER: STATUS no improvement in best in 28 clusters for 5 generations
USER: GENES 10
USER: genes 0 Translation |==|  0.41939 0.57955 0.43175
USER: genes 1 Rotation |==|  0.70581 0.55844 0.18299 0.82208
USER: genes 2 Torsion [C]-CA--N-[C] |==|  0.82221
USER: genes 3 Torsion [N]-C--CA-[N] |==|  0.44562
USER: genes 4 Torsion [C]-CA--N-[H3] |==|  0.39794
USER: genes 5 Torsion [N]-CA--C-[N] |==|  0.41852
USER: genes 6 Torsion [C]-N--CA-[CB] |==|  0.54487
USER: genes 7 Torsion [N]-CA--C-[O] |==|  0.62594
USER: genes 8 Torsion [N]-CA--CB-[CG] |==|  0.85955
USER: genes 9 Torsion [CA]-CB--CG-[ND1] |==|  0.15503
ROOT
ATOM      1  CA  HIS F   2      -2.763  31.517 -20.174  1.00 30.59 LIG 0.18  C 
ENDROOT
BRANCH 1 2
ATOM      2  N   HIS F   2      -1.863  32.222 -21.092  1.00 30.70 LIG-0.35  N 
ATOM      3  C   ALA F   1      -1.944  33.532 -21.318  1.00 31.15 LIG 0.25  C 
ATOM      4 O    ALA F   1      -2.783  34.266 -20.787  1.00 30.37 LIG-0.27  OA
ATOM      5 H    HIS F   2      -1.281  31.712 -21.469  1.00 30.70 LIG 0.16  HD
BRANCH 3 6
ATOM      6  CA  ALA F   1      -0.916  34.106 -22.301  1.00 31.15 LIG 0.27  C 
ATOM      7  CB  ALA F   1       0.290  33.815 -22.067  0.00 20.00 LIG 0.05  C 
BRANCH 6 8
ATOM      8  N   ALA F   1      -1.357  35.433 -22.849  1.00 31.97 LIG-0.07  N 
ATOM      9 H3   ALA F   1      -0.650  35.965 -22.945  1.00 31.97 LIG 0.28  HD
ATOM     10 H1   ALA F   1      -1.747  35.313 -23.640  1.00 31.97 LIG 0.28  HD
ATOM     11 H2   ALA F   1      -1.935  35.808 -22.288  1.00 31.97 LIG 0.28  HD
ENDBRANCH 6 8
ENDBRANCH 3 6
ENDBRANCH 1 2
BRANCH 1 12
ATOM     12  C   HIS F   2      -2.574  32.011 -18.734  1.00 31.15 LIG 0.24  C 
ATOM     13 O    HIS F   2      -1.471  32.446 -18.352  1.00 30.80 LIG-0.27  OA
ATOM     14  N   ALA F   3      -3.651  31.943 -17.943  1.00 30.97 LIG-0.35  N 
ATOM     15 H    ALA F   3      -4.416  31.648 -18.205  1.00 30.97 LIG 0.16  HD
BRANCH 14 16
ATOM     16  CA  ALA F   3      -3.626  32.371 -16.546  1.00 31.72 LIG 0.16  C 
ATOM     17  CB  ALA F   3      -4.887  31.765 -15.882  0.00 20.00 LIG 0.04  C 
BRANCH 16 18
ATOM     18  C   ALA F   3      -2.585  31.640 -15.702  1.00 32.37 LIG 0.22  C 
ATOM     19 O    ALA F   3      -2.872  31.201 -14.580  1.00 33.75 LIG-0.29  OA
ENDBRANCH 16 18
ENDBRANCH 14 16
ENDBRANCH 1 12
BRANCH 1 20
ATOM     20  CB  HIS F   2      -2.517  30.000 -20.239  1.00 30.20 LIG 0.10  C 
BRANCH 20 21
ATOM     21  CG  HIS F   2      -2.515  29.424 -21.630  1.00 29.66 LIG 0.06  A 
ATOM     22 ND1  HIS F   2      -1.688  29.880 -22.637  1.00 29.25 LIG-0.24  NA
ATOM     23  CE1 HIS F   2      -1.932  29.206 -23.751  1.00 27.69 LIG 0.23  A 
ATOM     24 NE2  HIS F   2      -2.902  28.337 -23.509  1.00 31.40 LIG-0.25  NA
ATOM     25  CD2 HIS F   2      -3.295  28.466 -22.193  1.00 30.69 LIG 0.14  A 
ENDBRANCH 20 21
ENDBRANCH 1 20
TORSDOF 8
ENDMDL
MODEL 75
USER: ADFR SOLUTION from run 83
USER: SCORE 7.275414 LL:  -1.531 LR:  -5.752 RR:   0.000 FEB:  -3.366
USER: RMSD 4.726858
USER: SEED 82
USER: STATUS no improvement in best in 24 clusters for 5 generations
USER: GENES 10
USER: genes 0 Translation |==|  0.41202 0.46880 0.47986
USER: genes 1 Rotation |==|  0.82399 0.47273 0.18250 0.70852
USER: genes 2 Torsion [C]-CA--N-[C] |==|  0.84318
USER: genes 3 Torsion [N]-C--CA-[N] |==|  0.53817
USER: genes 4 Torsion [C]-CA--N-[H3] |==|  0.00065
USER: genes 5 Torsion [N]-CA--C-[N] |==|  0.38197
USER: genes 6 Torsion [C]-N--CA-[CB] |==|  0.84315
USER: genes 7 Torsion [N]-CA--C-[O] |==|  0.72712
USER: genes 8 Torsion [N]-CA--CB-[CG] |==|  0.42489
USER: genes 9 Torsion [CA]-CB--CG-[ND1] |==|  0.77239
ROOT
ATOM      1  CA  HIS F   2      -2.890  30.188 -19.416  1.00 30.59 LIG 0.18  C 
ENDROOT
BRANCH 1 2
ATOM      2  N   HIS F   2      -1.459  30.449 -19.609  1.00 30.70 LIG-0.35  N 
ATOM      3  C   ALA F   1      -0.872  31.577 -19.214  1.00 31.15 LIG 0.25  C 
ATOM      4 O    ALA F   1      -1.475  32.503 -18.662  1.00 30.37 LIG-0.27  OA
ATOM      5 H    HIS F   2      -1.038  29.808 -19.999  1.00 30.70 LIG 0.16  HD
BRANCH 3 6
ATOM      6  CA  ALA F   1       0.634  31.678 -19.486  1.00 31.15 LIG 0.27  C 
ATOM      7  CB  ALA F   1       1.224  30.587 -19.719  0.00 20.00 LIG 0.05  C 
BRANCH 6 8
ATOM      8  N   ALA F   1       1.258  32.812 -18.724  1.00 31.97 LIG-0.07  N 
ATOM      9 H3   ALA F   1       0.634  33.225 -18.242  1.00 31.97 LIG 0.28  HD
ATOM     10 H1   ALA F   1       1.889  32.495 -18.182  1.00 31.97 LIG 0.28  HD
ATOM     11 H2   ALA F   1       1.622  33.389 -19.295  1.00 31.97 LIG 0.28  HD
ENDBRANCH 6 8
ENDBRANCH 3 6
ENDBRANCH 1 2
BRANCH 1 12
ATOM     12  C   HIS F   2      -3.273  30.304 -17.935  1.00 31.15 LIG 0.24  C 
ATOM     13 O    HIS F   2      -2.541  29.823 -17.050  1.00 30.80 LIG-0.27  OA
ATOM     14  N   ALA F   3      -4.420  30.943 -17.674  1.00 30.97 LIG-0.35  N 
ATOM     15 H    ALA F   3      -4.926  31.281 -18.282  1.00 30.97 LIG 0.16  HD
BRANCH 14 16
ATOM     16  CA  ALA F   3      -4.921  31.128 -16.314  1.00 31.72 LIG 0.16  C 
ATOM     17  CB  ALA F   3      -5.033  29.713 -15.694  0.00 20.00 LIG 0.04  C 
BRANCH 16 18
ATOM     18  C   ALA F   3      -3.878  31.687 -15.349  1.00 32.37 LIG 0.22  C 
ATOM     19 O    ALA F   3      -3.247  30.937 -14.591  1.00 33.75 LIG-0.29  OA
ENDBRANCH 16 18
ENDBRANCH 14 16
ENDBRANCH 1 12
BRANCH 1 20
ATOM     20  CB  HIS F   2      -3.257  28.789 -19.940  1.00 30.20 LIG 0.10  C 
BRANCH 20 21
ATOM     21  CG  HIS F   2      -4.447  28.160 -19.266  1.00 29.66 LIG 0.06  A 
ATOM     22 ND1  HIS F   2      -4.372  27.502 -18.055  1.00 29.25 LIG-0.24  NA
ATOM     23  CE1 HIS F   2      -5.566  27.031 -17.730  1.00 27.69 LIG 0.23  A 
ATOM     24 NE2  HIS F   2      -6.416  27.346 -18.696  1.00 31.40 LIG-0.25  NA
ATOM     25  CD2 HIS F   2      -5.736  28.038 -19.677  1.00 30.69 LIG 0.14  A 
ENDBRANCH 20 21
ENDBRANCH 1 20
TORSDOF 8
ENDMDL
MODEL 76
USER: ADFR SOLUTION from run 29
USER: SCORE 6.973987 LL:  -1.440 LR:  -5.730 RR:   0.000 FEB:  -3.343
USER: RMSD 2.272227
USER: SEED 28
USER: STATUS no improvement in best in 31 clusters for 5 generations
USER: GENES 10
USER: genes 0 Translation |==|  0.52892 0.56665 0.55919
USER: genes 1 Rotation |==|  0.63218 0.45801 0.53932 0.97877
USER: genes 2 Torsion [C]-CA--N-[C] |==|  0.56635
USER: genes 3 Torsion [N]-C--CA-[N] |==|  0.43895
USER: genes 4 Torsion [C]-CA--N-[H3] |==|  0.90194
USER: genes 5 Torsion [N]-CA--C-[N] |==|  0.48201
USER: genes 6 Torsion [C]-N--CA-[CB] |==|  0.39099
USER: genes 7 Torsion [N]-CA--C-[O] |==|  0.06686
USER: genes 8 Torsion [N]-CA--CB-[CG] |==|  0.69405
USER: genes 9 Torsion [CA]-CB--CG-[ND1] |==|  0.87289
ROOT
ATOM      1  CA  HIS F   2      -0.873  31.362 -18.167  1.00 30.59 LIG 0.18  C 
ENDROOT
BRANCH 1 2
ATOM      2  N   HIS F   2      -0.525  32.428 -19.112  1.00 30.70 LIG-0.35  N 
ATOM      3  C   ALA F   1       0.443  32.302 -20.018  1.00 31.15 LIG 0.25  C 
ATOM      4 O    ALA F   1       1.137  31.287 -20.138  1.00 30.37 LIG-0.27  OA
ATOM      5 H    HIS F   2      -1.003  33.138 -19.026  1.00 30.70 LIG 0.16  HD
BRANCH 3 6
ATOM      6  CA  ALA F   1       0.665  33.513 -20.932  1.00 31.15 LIG 0.27  C 
ATOM      7  CB  ALA F   1      -0.356  33.933 -21.544  0.00 20.00 LIG 0.05  C 
BRANCH 6 8
ATOM      8  N   ALA F   1       2.045  33.512 -21.525  1.00 31.97 LIG-0.07  N 
ATOM      9 H3   ALA F   1       2.623  33.186 -20.932  1.00 31.97 LIG 0.28  HD
ATOM     10 H1   ALA F   1       2.053  33.005 -22.257  1.00 31.97 LIG 0.28  HD
ATOM     11 H2   ALA F   1       2.277  34.343 -21.739  1.00 31.97 LIG 0.28  HD
ENDBRANCH 6 8
ENDBRANCH 3 6
ENDBRANCH 1 2
BRANCH 1 12
ATOM     12  C   HIS F   2      -2.320  31.514 -17.678  1.00 31.15 LIG 0.24  C 
ATOM     13 O    HIS F   2      -2.993  32.514 -17.990  1.00 30.80 LIG-0.27  OA
ATOM     14  N   ALA F   3      -2.789  30.520 -16.915  1.00 30.97 LIG-0.35  N 
ATOM     15 H    ALA F   3      -2.329  29.826 -16.701  1.00 30.97 LIG 0.16  HD
BRANCH 14 16
ATOM     16  CA  ALA F   3      -4.145  30.525 -16.369  1.00 31.72 LIG 0.16  C 
ATOM     17  CB  ALA F   3      -4.661  29.068 -16.471  0.00 20.00 LIG 0.04  C 
BRANCH 16 18
ATOM     18  C   ALA F   3      -4.191  30.648 -14.849  1.00 32.37 LIG 0.22  C 
ATOM     19 O    ALA F   3      -3.253  31.163 -14.224  1.00 33.75 LIG-0.29  OA
ENDBRANCH 16 18
ENDBRANCH 14 16
ENDBRANCH 1 12
BRANCH 1 20
ATOM     20  CB  HIS F   2       0.086  31.374 -16.964  1.00 30.20 LIG 0.10  C 
BRANCH 20 21
ATOM     21  CG  HIS F   2       1.033  30.205 -16.907  1.00 29.66 LIG 0.06  A 
ATOM     22 ND1  HIS F   2       0.638  28.898 -17.113  1.00 29.25 LIG-0.24  NA
ATOM     23  CE1 HIS F   2       1.679  28.092 -16.971  1.00 27.69 LIG 0.23  A 
ATOM     24 NE2  HIS F   2       2.737  28.827 -16.664  1.00 31.40 LIG-0.25  NA
ATOM     25  CD2 HIS F   2       2.356  30.151 -16.602  1.00 30.69 LIG 0.14  A 
ENDBRANCH 20 21
ENDBRANCH 1 20
TORSDOF 8
ENDMDL
MODEL 77
USER: ADFR SOLUTION from run 175
USER: SCORE 6.866310 LL:  -1.314 LR:  -5.710 RR:   0.000 FEB:  -3.324
USER: RMSD 4.751373
USER: SEED 174
USER: STATUS no improvement in best in 18 clusters for 5 generations
USER: GENES 10
USER: genes 0 Translation |==|  0.48829 0.51323 0.64382
USER: genes 1 Rotation |==|  0.22967 0.36277 0.67267 0.85816
USER: genes 2 Torsion [C]-CA--N-[C] |==|  0.66606
USER: genes 3 Torsion [N]-C--CA-[N] |==|  0.63683
USER: genes 4 Torsion [C]-CA--N-[H3] |==|  0.09270
USER: genes 5 Torsion [N]-CA--C-[N] |==|  0.37631
USER: genes 6 Torsion [C]-N--CA-[CB] |==|  0.87197
USER: genes 7 Torsion [N]-CA--C-[O] |==|  0.91073
USER: genes 8 Torsion [N]-CA--CB-[CG] |==|  0.37751
USER: genes 9 Torsion [CA]-CB--CG-[ND1] |==|  0.19654
ROOT
ATOM      1  CA  HIS F   2      -1.574  30.721 -16.834  1.00 30.59 LIG 0.18  C 
ENDROOT
BRANCH 1 2
ATOM      2  N   HIS F   2      -0.418  30.177 -17.555  1.00 30.70 LIG-0.35  N 
ATOM      3  C   ALA F   1       0.567  29.519 -16.947  1.00 31.15 LIG 0.25  C 
ATOM      4 O    ALA F   1       0.603  29.317 -15.729  1.00 30.37 LIG-0.27  OA
ATOM      5 H    HIS F   2      -0.438  30.322 -18.403  1.00 30.70 LIG 0.16  HD
BRANCH 3 6
ATOM      6  CA  ALA F   1       1.692  29.010 -17.857  1.00 31.15 LIG 0.27  C 
ATOM      7  CB  ALA F   1       1.757  29.542 -18.999  0.00 20.00 LIG 0.05  C 
BRANCH 6 8
ATOM      8  N   ALA F   1       2.001  27.564 -17.597  1.00 31.97 LIG-0.07  N 
ATOM      9 H3   ALA F   1       1.254  27.137 -17.368  1.00 31.97 LIG 0.28  HD
ATOM     10 H1   ALA F   1       2.339  27.195 -18.334  1.00 31.97 LIG 0.28  HD
ATOM     11 H2   ALA F   1       2.593  27.500 -16.937  1.00 31.97 LIG 0.28  HD
ENDBRANCH 6 8
ENDBRANCH 3 6
ENDBRANCH 1 2
BRANCH 1 12
ATOM     12  C   HIS F   2      -2.882  30.109 -17.354  1.00 31.15 LIG 0.24  C 
ATOM     13 O    HIS F   2      -3.083  29.987 -18.576  1.00 30.80 LIG-0.27  OA
ATOM     14  N   ALA F   3      -3.763  29.727 -16.422  1.00 30.97 LIG-0.35  N 
ATOM     15 H    ALA F   3      -3.625  29.806 -15.576  1.00 30.97 LIG 0.16  HD
BRANCH 14 16
ATOM     16  CA  ALA F   3      -5.054  29.134 -16.761  1.00 31.72 LIG 0.16  C 
ATOM     17  CB  ALA F   3      -5.657  30.014 -17.883  0.00 20.00 LIG 0.04  C 
BRANCH 16 18
ATOM     18  C   ALA F   3      -4.941  27.839 -17.562  1.00 32.37 LIG 0.22  C 
ATOM     19 O    ALA F   3      -4.005  27.662 -18.355  1.00 33.75 LIG-0.29  OA
ENDBRANCH 16 18
ENDBRANCH 14 16
ENDBRANCH 1 12
BRANCH 1 20
ATOM     20  CB  HIS F   2      -1.624  32.251 -16.974  1.00 30.20 LIG 0.10  C 
BRANCH 20 21
ATOM     21  CG  HIS F   2      -2.992  32.809 -17.267  1.00 29.66 LIG 0.06  A 
ATOM     22 ND1  HIS F   2      -4.016  32.829 -16.341  1.00 29.25 LIG-0.24  NA
ATOM     23  CE1 HIS F   2      -5.103  33.349 -16.892  1.00 27.69 LIG 0.23  A 
ATOM     24 NE2  HIS F   2      -4.827  33.653 -18.151  1.00 31.40 LIG-0.25  NA
ATOM     25  CD2 HIS F   2      -3.517  33.310 -18.415  1.00 30.69 LIG 0.14  A 
ENDBRANCH 20 21
ENDBRANCH 1 20
TORSDOF 8
ENDMDL
MODEL 78
USER: ADFR SOLUTION from run 21
USER: SCORE 6.667156 LL:  -1.446 LR:  -5.658 RR:   0.000 FEB:  -3.271
USER: RMSD 4.020187
USER: SEED 20
USER: STATUS no improvement in best in 21 clusters for 5 generations
USER: GENES 10
USER: genes 0 Translation |==|  0.53074 0.53096 0.53223
USER: genes 1 Rotation |==|  0.07975 0.55506 0.69692 0.67770
USER: genes 2 Torsion [C]-CA--N-[C] |==|  0.61875
USER: genes 3 Torsion [N]-C--CA-[N] |==|  0.31193
USER: genes 4 Torsion [C]-CA--N-[H3] |==|  0.28338
USER: genes 5 Torsion [N]-CA--C-[N] |==|  0.13130
USER: genes 6 Torsion [C]-N--CA-[CB] |==|  0.84716
USER: genes 7 Torsion [N]-CA--C-[O] |==|  0.16528
USER: genes 8 Torsion [N]-CA--CB-[CG] |==|  0.83914
USER: genes 9 Torsion [CA]-CB--CG-[ND1] |==|  0.22412
ROOT
ATOM      1  CA  HIS F   2      -0.842  30.934 -18.591  1.00 30.59 LIG 0.18  C 
ENDROOT
BRANCH 1 2
ATOM      2  N   HIS F   2      -0.026  29.736 -18.364  1.00 30.70 LIG-0.35  N 
ATOM      3  C   ALA F   1       1.192  29.784 -17.827  1.00 31.15 LIG 0.25  C 
ATOM      4 O    ALA F   1       1.746  30.833 -17.483  1.00 30.37 LIG-0.27  OA
ATOM      5 H    HIS F   2      -0.407  29.004 -18.609  1.00 30.70 LIG 0.16  HD
BRANCH 3 6
ATOM      6  CA  ALA F   1       1.899  28.434 -17.652  1.00 31.15 LIG 0.27  C 
ATOM      7  CB  ALA F   1       1.853  27.937 -16.493  0.00 20.00 LIG 0.05  C 
BRANCH 6 8
ATOM      8  N   ALA F   1       3.089  28.312 -18.560  1.00 31.97 LIG-0.07  N 
ATOM      9 H3   ALA F   1       3.834  28.454 -18.095  1.00 31.97 LIG 0.28  HD
ATOM     10 H1   ALA F   1       3.111  27.496 -18.913  1.00 31.97 LIG 0.28  HD
ATOM     11 H2   ALA F   1       3.028  28.915 -19.212  1.00 31.97 LIG 0.28  HD
ENDBRANCH 6 8
ENDBRANCH 3 6
ENDBRANCH 1 2
BRANCH 1 12
ATOM     12  C   HIS F   2      -2.301  30.686 -18.189  1.00 31.15 LIG 0.24  C 
ATOM     13 O    HIS F   2      -3.233  31.016 -18.946  1.00 30.80 LIG-0.27  OA
ATOM     14  N   ALA F   3      -2.492  30.106 -16.998  1.00 30.97 LIG-0.35  N 
ATOM     15 H    ALA F   3      -1.851  29.873 -16.474  1.00 30.97 LIG 0.16  HD
BRANCH 14 16
ATOM     16  CA  ALA F   3      -3.824  29.812 -16.474  1.00 31.72 LIG 0.16  C 
ATOM     17  CB  ALA F   3      -4.605  31.149 -16.493  0.00 20.00 LIG 0.04  C 
BRANCH 16 18
ATOM     18  C   ALA F   3      -4.711  29.048 -17.454  1.00 32.37 LIG 0.22  C 
ATOM     19 O    ALA F   3      -4.372  27.937 -17.885  1.00 33.75 LIG-0.29  OA
ENDBRANCH 16 18
ENDBRANCH 14 16
ENDBRANCH 1 12
BRANCH 1 20
ATOM     20  CB  HIS F   2      -0.775  31.358 -20.068  1.00 30.20 LIG 0.10  C 
BRANCH 20 21
ATOM     21  CG  HIS F   2       0.614  31.642 -20.576  1.00 29.66 LIG 0.06  A 
ATOM     22 ND1  HIS F   2       1.493  30.654 -20.972  1.00 29.25 LIG-0.24  NA
ATOM     23  CE1 HIS F   2       2.641  31.201 -21.340  1.00 27.69 LIG 0.23  A 
ATOM     24 NE2  HIS F   2       2.547  32.513 -21.182  1.00 31.40 LIG-0.25  NA
ATOM     25  CD2 HIS F   2       1.294  32.812 -20.689  1.00 30.69 LIG 0.14  A 
ENDBRANCH 20 21
ENDBRANCH 1 20
TORSDOF 8
ENDMDL
MODEL 79
USER: ADFR SOLUTION from run 169
USER: SCORE 7.168332 LL:  -1.615 LR:  -5.664 RR:   0.000 FEB:  -3.278
USER: RMSD 5.074544
USER: SEED 168
USER: STATUS no improvement in best in 29 clusters for 5 generations
USER: GENES 10
USER: genes 0 Translation |==|  0.42872 0.51249 0.35888
USER: genes 1 Rotation |==|  0.77842 0.63262 0.19002 0.74250
USER: genes 2 Torsion [C]-CA--N-[C] |==|  0.73398
USER: genes 3 Torsion [N]-C--CA-[N] |==|  0.45347
USER: genes 4 Torsion [C]-CA--N-[H3] |==|  0.47391
USER: genes 5 Torsion [N]-CA--C-[N] |==|  0.37231
USER: genes 6 Torsion [C]-N--CA-[CB] |==|  0.34626
USER: genes 7 Torsion [N]-CA--C-[O] |==|  0.14806
USER: genes 8 Torsion [N]-CA--CB-[CG] |==|  0.49386
USER: genes 9 Torsion [CA]-CB--CG-[ND1] |==|  0.06855
ROOT
ATOM      1  CA  HIS F   2      -2.602  30.712 -21.322  1.00 30.59 LIG 0.18  C 
ENDROOT
BRANCH 1 2
ATOM      2  N   HIS F   2      -1.642  31.700 -21.824  1.00 30.70 LIG-0.35  N 
ATOM      3  C   ALA F   1      -1.915  33.002 -21.892  1.00 31.15 LIG 0.25  C 
ATOM      4 O    ALA F   1      -2.996  33.491 -21.549  1.00 30.37 LIG-0.27  OA
ATOM      5 H    HIS F   2      -0.890  31.361 -22.070  1.00 30.70 LIG 0.16  HD
BRANCH 3 6
ATOM      6  CA  ALA F   1      -0.791  33.894 -22.434  1.00 31.15 LIG 0.27  C 
ATOM      7  CB  ALA F   1       0.349  33.711 -21.924  0.00 20.00 LIG 0.05  C 
BRANCH 6 8
ATOM      8  N   ALA F   1      -1.307  35.241 -22.850  1.00 31.97 LIG-0.07  N 
ATOM      9 H3   ALA F   1      -0.622  35.780 -23.030  1.00 31.97 LIG 0.28  HD
ATOM     10 H1   ALA F   1      -1.815  35.154 -23.575  1.00 31.97 LIG 0.28  HD
ATOM     11 H2   ALA F   1      -1.792  35.590 -22.190  1.00 31.97 LIG 0.28  HD
ENDBRANCH 6 8
ENDBRANCH 3 6
ENDBRANCH 1 2
BRANCH 1 12
ATOM     12  C   HIS F   2      -2.354  30.413 -19.837  1.00 31.15 LIG 0.24  C 
ATOM     13 O    HIS F   2      -1.201  30.205 -19.416  1.00 30.80 LIG-0.27  OA
ATOM     14  N   ALA F   3      -3.438  30.395 -19.053  1.00 30.97 LIG-0.35  N 
ATOM     15 H    ALA F   3      -4.235  30.543 -19.340  1.00 30.97 LIG 0.16  HD
BRANCH 14 16
ATOM     16  CA  ALA F   3      -3.363  30.120 -17.620  1.00 31.72 LIG 0.16  C 
ATOM     17  CB  ALA F   3      -4.038  31.319 -16.909  0.00 20.00 LIG 0.04  C 
BRANCH 16 18
ATOM     18  C   ALA F   3      -4.335  29.038 -17.154  1.00 32.37 LIG 0.22  C 
ATOM     19 O    ALA F   3      -4.358  27.927 -17.701  1.00 33.75 LIG-0.29  OA
ENDBRANCH 16 18
ENDBRANCH 14 16
ENDBRANCH 1 12
BRANCH 1 20
ATOM     20  CB  HIS F   2      -2.510  29.410 -22.136  1.00 30.20 LIG 0.10  C 
BRANCH 20 21
ATOM     21  CG  HIS F   2      -3.423  28.310 -21.662  1.00 29.66 LIG 0.06  A 
ATOM     22 ND1  HIS F   2      -4.587  28.542 -20.957  1.00 29.25 LIG-0.24  NA
ATOM     23  CE1 HIS F   2      -5.160  27.388 -20.654  1.00 27.69 LIG 0.23  A 
ATOM     24 NE2  HIS F   2      -4.401  26.409 -21.122  1.00 31.40 LIG-0.25  NA
ATOM     25  CD2 HIS F   2      -3.299  26.960 -21.743  1.00 30.69 LIG 0.14  A 
ENDBRANCH 20 21
ENDBRANCH 1 20
TORSDOF 8
ENDMDL
MODEL 80
USER: ADFR SOLUTION from run 45
USER: SCORE 6.942981 LL:  -1.448 LR:  -5.653 RR:   0.000 FEB:  -3.267
USER: RMSD 3.973942
USER: SEED 44
USER: STATUS no improvement in best in 29 clusters for 5 generations
USER: GENES 10
USER: genes 0 Translation |==|  0.55426 0.56550 0.43786
USER: genes 1 Rotation |==|  0.75372 0.59944 0.53905 0.91739
USER: genes 2 Torsion [C]-CA--N-[C] |==|  0.72855
USER: genes 3 Torsion [N]-C--CA-[N] |==|  0.31781
USER: genes 4 Torsion [C]-CA--N-[H3] |==|  0.14062
USER: genes 5 Torsion [N]-CA--C-[N] |==|  0.94050
USER: genes 6 Torsion [C]-N--CA-[CB] |==|  0.28917
USER: genes 7 Torsion [N]-CA--C-[O] |==|  0.94461
USER: genes 8 Torsion [N]-CA--CB-[CG] |==|  0.79854
USER: genes 9 Torsion [CA]-CB--CG-[ND1] |==|  0.90363
ROOT
ATOM      1  CA  HIS F   2      -0.436  31.348 -20.078  1.00 30.59 LIG 0.18  C 
ENDROOT
BRANCH 1 2
ATOM      2  N   HIS F   2      -0.746  32.748 -20.385  1.00 30.70 LIG-0.35  N 
ATOM      3  C   ALA F   1      -1.520  33.108 -21.407  1.00 31.15 LIG 0.25  C 
ATOM      4 O    ALA F   1      -2.035  32.304 -22.190  1.00 30.37 LIG-0.27  OA
ATOM      5 H    HIS F   2      -0.383  33.311 -19.845  1.00 30.70 LIG 0.16  HD
BRANCH 3 6
ATOM      6  CA  ALA F   1      -1.747  34.616 -21.575  1.00 31.15 LIG 0.27  C 
ATOM      7  CB  ALA F   1      -2.819  35.067 -21.086  0.00 20.00 LIG 0.05  C 
BRANCH 6 8
ATOM      8  N   ALA F   1      -1.135  35.128 -22.847  1.00 31.97 LIG-0.07  N 
ATOM      9 H3   ALA F   1      -1.398  34.621 -23.529  1.00 31.97 LIG 0.28  HD
ATOM     10 H1   ALA F   1      -1.396  35.968 -22.985  1.00 31.97 LIG 0.28  HD
ATOM     11 H2   ALA F   1      -0.248  35.101 -22.783  1.00 31.97 LIG 0.28  HD
ENDBRANCH 6 8
ENDBRANCH 3 6
ENDBRANCH 1 2
BRANCH 1 12
ATOM     12  C   HIS F   2      -1.356  30.813 -18.972  1.00 31.15 LIG 0.24  C 
ATOM     13 O    HIS F   2      -1.539  29.589 -18.836  1.00 30.80 LIG-0.27  OA
ATOM     14  N   ALA F   3      -1.929  31.734 -18.188  1.00 30.97 LIG-0.35  N 
ATOM     15 H    ALA F   3      -1.802  32.580 -18.277  1.00 30.97 LIG 0.16  HD
BRANCH 14 16
ATOM     16  CA  ALA F   3      -2.834  31.380 -17.097  1.00 31.72 LIG 0.16  C 
ATOM     17  CB  ALA F   3      -2.027  31.551 -15.787  0.00 20.00 LIG 0.04  C 
BRANCH 16 18
ATOM     18  C   ALA F   3      -3.897  32.439 -16.817  1.00 32.37 LIG 0.22  C 
ATOM     19 O    ALA F   3      -3.745  33.608 -17.198  1.00 33.75 LIG-0.29  OA
ENDBRANCH 16 18
ENDBRANCH 14 16
ENDBRANCH 1 12
BRANCH 1 20
ATOM     20  CB  HIS F   2       1.033  31.204 -19.646  1.00 30.20 LIG 0.10  C 
BRANCH 20 21
ATOM     21  CG  HIS F   2       2.032  31.354 -20.763  1.00 29.66 LIG 0.06  A 
ATOM     22 ND1  HIS F   2       1.795  30.924 -22.053  1.00 29.25 LIG-0.24  NA
ATOM     23  CE1 HIS F   2       2.860  31.161 -22.803  1.00 27.69 LIG 0.23  A 
ATOM     24 NE2  HIS F   2       3.791  31.717 -22.042  1.00 31.40 LIG-0.25  NA
ATOM     25  CD2 HIS F   2       3.302  31.833 -20.757  1.00 30.69 LIG 0.14  A 
ENDBRANCH 20 21
ENDBRANCH 1 20
TORSDOF 8
ENDMDL
MODEL 81
USER: ADFR SOLUTION from run 188
USER: SCORE 7.020805 LL:  -1.398 LR:  -5.644 RR:   0.000 FEB:  -3.257
USER: RMSD 4.583701
USER: SEED 187
USER: STATUS no improvement in best in 37 clusters for 5 generations
USER: GENES 10
USER: genes 0 Translation |==|  0.37915 0.43638 0.46475
USER: genes 1 Rotation |==|  0.67867 0.46733 0.12343 0.77423
USER: genes 2 Torsion [C]-CA--N-[C] |==|  0.82603
USER: genes 3 Torsion [N]-C--CA-[N] |==|  0.05619
USER: genes 4 Torsion [C]-CA--N-[H3] |==|  0.33735
USER: genes 5 Torsion [N]-CA--C-[N] |==|  0.36155
USER: genes 6 Torsion [C]-N--CA-[CB] |==|  0.50901
USER: genes 7 Torsion [N]-CA--C-[O] |==|  0.34381
USER: genes 8 Torsion [N]-CA--CB-[CG] |==|  0.49755
USER: genes 9 Torsion [CA]-CB--CG-[ND1] |==|  0.72712
ROOT
ATOM      1  CA  HIS F   2      -3.457  29.799 -19.654  1.00 30.59 LIG 0.18  C 
ENDROOT
BRANCH 1 2
ATOM      2  N   HIS F   2      -2.355  29.836 -20.621  1.00 30.70 LIG-0.35  N 
ATOM      3  C   ALA F   1      -1.882  30.971 -21.133  1.00 31.15 LIG 0.25  C 
ATOM      4 O    ALA F   1      -2.330  32.086 -20.850  1.00 30.37 LIG-0.27  OA
ATOM      5 H    HIS F   2      -2.045  29.060 -20.825  1.00 30.70 LIG 0.16  HD
BRANCH 3 6
ATOM      6  CA  ALA F   1      -0.719  30.824 -22.123  1.00 31.15 LIG 0.27  C 
ATOM      7  CB  ALA F   1      -0.421  31.862 -22.776  0.00 20.00 LIG 0.05  C 
BRANCH 6 8
ATOM      8  N   ALA F   1      -0.652  29.437 -22.695  1.00 31.97 LIG-0.07  N 
ATOM      9 H3   ALA F   1      -0.721  29.477 -23.581  1.00 31.97 LIG 0.28  HD
ATOM     10 H1   ALA F   1       0.124  29.062 -22.474  1.00 31.97 LIG 0.28  HD
ATOM     11 H2   ALA F   1      -1.320  28.949 -22.367  1.00 31.97 LIG 0.28  HD
ENDBRANCH 6 8
ENDBRANCH 3 6
ENDBRANCH 1 2
BRANCH 1 12
ATOM     12  C   HIS F   2      -3.073  30.524 -18.358  1.00 31.15 LIG 0.24  C 
ATOM     13 O    HIS F   2      -2.000  30.268 -17.781  1.00 30.80 LIG-0.27  OA
ATOM     14  N   ALA F   3      -3.952  31.427 -17.908  1.00 30.97 LIG-0.35  N 
ATOM     15 H    ALA F   3      -4.692  31.610 -18.306  1.00 30.97 LIG 0.16  HD
BRANCH 14 16
ATOM     16  CA  ALA F   3      -3.730  32.194 -16.684  1.00 31.72 LIG 0.16  C 
ATOM     17  CB  ALA F   3      -5.000  33.055 -16.473  0.00 20.00 LIG 0.04  C 
BRANCH 16 18
ATOM     18  C   ALA F   3      -3.840  31.359 -15.411  1.00 32.37 LIG 0.22  C 
ATOM     19 O    ALA F   3      -2.905  31.310 -14.600  1.00 33.75 LIG-0.29  OA
ENDBRANCH 16 18
ENDBRANCH 14 16
ENDBRANCH 1 12
BRANCH 1 20
ATOM     20  CB  HIS F   2      -3.848  28.345 -19.340  1.00 30.20 LIG 0.10  C 
BRANCH 20 21
ATOM     21  CG  HIS F   2      -4.961  28.199 -18.337  1.00 29.66 LIG 0.06  A 
ATOM     22 ND1  HIS F   2      -4.746  27.938 -16.998  1.00 29.25 LIG-0.24  NA
ATOM     23  CE1 HIS F   2      -5.908  27.834 -16.373  1.00 27.69 LIG 0.23  A 
ATOM     24 NE2  HIS F   2      -6.876  28.002 -17.261  1.00 31.40 LIG-0.25  NA
ATOM     25  CD2 HIS F   2      -6.309  28.216 -18.500  1.00 30.69 LIG 0.14  A 
ENDBRANCH 20 21
ENDBRANCH 1 20
TORSDOF 8
ENDMDL
MODEL 82
USER: ADFR SOLUTION from run 67
USER: SCORE 7.047800 LL:  -1.418 LR:  -5.635 RR:   0.000 FEB:  -3.249
USER: RMSD 5.360484
USER: SEED 66
USER: STATUS no improvement in best in 32 clusters for 5 generations
USER: GENES 10
USER: genes 0 Translation |==|  0.39594 0.53149 0.69077
USER: genes 1 Rotation |==|  0.45199 0.24945 0.77932 0.82696
USER: genes 2 Torsion [C]-CA--N-[C] |==|  0.83186
USER: genes 3 Torsion [N]-C--CA-[N] |==|  0.38994
USER: genes 4 Torsion [C]-CA--N-[H3] |==|  0.51554
USER: genes 5 Torsion [N]-CA--C-[N] |==|  0.93113
USER: genes 6 Torsion [C]-N--CA-[CB] |==|  0.57739
USER: genes 7 Torsion [N]-CA--C-[O] |==|  0.22201
USER: genes 8 Torsion [N]-CA--CB-[CG] |==|  0.41519
USER: genes 9 Torsion [CA]-CB--CG-[ND1] |==|  0.20110
ROOT
ATOM      1  CA  HIS F   2      -3.167  30.940 -16.094  1.00 30.59 LIG 0.18  C 
ENDROOT
BRANCH 1 2
ATOM      2  N   HIS F   2      -2.371  31.894 -16.874  1.00 30.70 LIG-0.35  N 
ATOM      3  C   ALA F   1      -1.325  31.527 -17.611  1.00 31.15 LIG 0.25  C 
ATOM      4 O    ALA F   1      -0.926  30.362 -17.699  1.00 30.37 LIG-0.27  OA
ATOM      5 H    HIS F   2      -2.643  32.708 -16.809  1.00 30.70 LIG 0.16  HD
BRANCH 3 6
ATOM      6  CA  ALA F   1      -0.613  32.655 -18.370  1.00 31.15 LIG 0.27  C 
ATOM      7  CB  ALA F   1      -1.244  33.142 -19.348  0.00 20.00 LIG 0.05  C 
BRANCH 6 8
ATOM      8  N   ALA F   1       0.878  32.480 -18.349  1.00 31.97 LIG-0.07  N 
ATOM      9 H3   ALA F   1       1.266  33.187 -18.724  1.00 31.97 LIG 0.28  HD
ATOM     10 H1   ALA F   1       1.156  32.400 -17.507  1.00 31.97 LIG 0.28  HD
ATOM     11 H2   ALA F   1       1.097  31.747 -18.803  1.00 31.97 LIG 0.28  HD
ENDBRANCH 6 8
ENDBRANCH 3 6
ENDBRANCH 1 2
BRANCH 1 12
ATOM     12  C   HIS F   2      -3.804  29.884 -17.007  1.00 31.15 LIG 0.24  C 
ATOM     13 O    HIS F   2      -4.117  28.765 -16.560  1.00 30.80 LIG-0.27  OA
ATOM     14  N   ALA F   3      -3.993  30.245 -18.281  1.00 30.97 LIG-0.35  N 
ATOM     15 H    ALA F   3      -3.782  31.019 -18.593  1.00 30.97 LIG 0.16  HD
BRANCH 14 16
ATOM     16  CA  ALA F   3      -4.583  29.347 -19.272  1.00 31.72 LIG 0.16  C 
ATOM     17  CB  ALA F   3      -4.009  29.775 -20.645  0.00 20.00 LIG 0.04  C 
BRANCH 16 18
ATOM     18  C   ALA F   3      -3.999  27.937 -19.242  1.00 32.37 LIG 0.22  C 
ATOM     19 O    ALA F   3      -4.372  27.112 -18.395  1.00 33.75 LIG-0.29  OA
ENDBRANCH 16 18
ENDBRANCH 14 16
ENDBRANCH 1 12
BRANCH 1 20
ATOM     20  CB  HIS F   2      -4.264  31.673 -15.304  1.00 30.20 LIG 0.10  C 
BRANCH 20 21
ATOM     21  CG  HIS F   2      -5.516  30.868 -15.076  1.00 29.66 LIG 0.06  A 
ATOM     22 ND1  HIS F   2      -5.585  29.809 -14.194  1.00 29.25 LIG-0.24  NA
ATOM     23  CE1 HIS F   2      -6.799  29.280 -14.229  1.00 27.69 LIG 0.23  A 
ATOM     24 NE2  HIS F   2      -7.519  29.948 -15.117  1.00 31.40 LIG-0.25  NA
ATOM     25  CD2 HIS F   2      -6.734  30.937 -15.673  1.00 30.69 LIG 0.14  A 
ENDBRANCH 20 21
ENDBRANCH 1 20
TORSDOF 8
ENDMDL
MODEL 83
USER: ADFR SOLUTION from run 101
USER: SCORE 7.090438 LL:  -1.498 LR:  -5.629 RR:   0.000 FEB:  -3.242
USER: RMSD 3.557206
USER: SEED 100
USER: STATUS no improvement in best in 41 clusters for 5 generations
USER: GENES 10
USER: genes 0 Translation |==|  0.44397 0.37509 0.53677
USER: genes 1 Rotation |==|  0.38789 0.57130 0.50907 0.98194
USER: genes 2 Torsion [C]-CA--N-[C] |==|  0.80190
USER: genes 3 Torsion [N]-C--CA-[N] |==|  0.16053
USER: genes 4 Torsion [C]-CA--N-[H3] |==|  0.47924
USER: genes 5 Torsion [N]-CA--C-[N] |==|  0.44116
USER: genes 6 Torsion [C]-N--CA-[CB] |==|  0.36122
USER: genes 7 Torsion [N]-CA--C-[O] |==|  0.92756
USER: genes 8 Torsion [N]-CA--CB-[CG] |==|  0.19223
USER: genes 9 Torsion [CA]-CB--CG-[ND1] |==|  0.80809
ROOT
ATOM      1  CA  HIS F   2      -2.338  29.063 -18.520  1.00 30.59 LIG 0.18  C 
ENDROOT
BRANCH 1 2
ATOM      2  N   HIS F   2      -2.497  28.778 -19.950  1.00 30.70 LIG-0.35  N 
ATOM      3  C   ALA F   1      -3.417  27.938 -20.420  1.00 31.15 LIG 0.25  C 
ATOM      4 O    ALA F   1      -4.208  27.319 -19.702  1.00 30.37 LIG-0.27  OA
ATOM      5 H    HIS F   2      -1.943  29.203 -20.452  1.00 30.70 LIG 0.16  HD
BRANCH 3 6
ATOM      6  CA  ALA F   1      -3.448  27.766 -21.945  1.00 31.15 LIG 0.27  C 
ATOM      7  CB  ALA F   1      -4.557  27.420 -22.435  0.00 20.00 LIG 0.05  C 
BRANCH 6 8
ATOM      8  N   ALA F   1      -2.124  27.294 -22.474  1.00 31.97 LIG-0.07  N 
ATOM      9 H3   ALA F   1      -2.202  27.101 -23.339  1.00 31.97 LIG 0.28  HD
ATOM     10 H1   ALA F   1      -1.516  27.935 -22.367  1.00 31.97 LIG 0.28  HD
ATOM     11 H2   ALA F   1      -1.868  26.568 -22.030  1.00 31.97 LIG 0.28  HD
ENDBRANCH 6 8
ENDBRANCH 3 6
ENDBRANCH 1 2
BRANCH 1 12
ATOM     12  C   HIS F   2      -3.507  29.908 -17.997  1.00 31.15 LIG 0.24  C 
ATOM     13 O    HIS F   2      -4.203  30.582 -18.779  1.00 30.80 LIG-0.27  OA
ATOM     14  N   ALA F   3      -3.718  29.867 -16.676  1.00 30.97 LIG-0.35  N 
ATOM     15 H    ALA F   3      -3.242  29.399 -16.133  1.00 30.97 LIG 0.16  HD
BRANCH 14 16
ATOM     16  CA  ALA F   3      -4.788  30.622 -16.029  1.00 31.72 LIG 0.16  C 
ATOM     17  CB  ALA F   3      -5.547  29.618 -15.127  0.00 20.00 LIG 0.04  C 
BRANCH 16 18
ATOM     18  C   ALA F   3      -4.297  31.553 -14.923  1.00 32.37 LIG 0.22  C 
ATOM     19 O    ALA F   3      -3.247  31.312 -14.309  1.00 33.75 LIG-0.29  OA
ENDBRANCH 16 18
ENDBRANCH 14 16
ENDBRANCH 1 12
BRANCH 1 20
ATOM     20  CB  HIS F   2      -1.011  29.795 -18.261  1.00 30.20 LIG 0.10  C 
BRANCH 20 21
ATOM     21  CG  HIS F   2      -0.959  31.204 -18.789  1.00 29.66 LIG 0.06  A 
ATOM     22 ND1  HIS F   2      -0.932  31.507 -20.136  1.00 29.25 LIG-0.24  NA
ATOM     23  CE1 HIS F   2      -0.858  32.820 -20.295  1.00 27.69 LIG 0.23  A 
ATOM     24 NE2  HIS F   2      -0.818  33.383 -19.097  1.00 31.40 LIG-0.25  NA
ATOM     25  CD2 HIS F   2      -0.864  32.392 -18.138  1.00 30.69 LIG 0.14  A 
ENDBRANCH 20 21
ENDBRANCH 1 20
TORSDOF 8
ENDMDL
MODEL 84
USER: ADFR SOLUTION from run 181
USER: SCORE 7.069961 LL:  -1.475 LR:  -5.624 RR:   0.000 FEB:  -3.237
USER: RMSD 6.125935
USER: SEED 180
USER: STATUS no improvement in best in 43 clusters for 5 generations
USER: GENES 10
USER: genes 0 Translation |==|  0.34419 0.68195 0.64817
USER: genes 1 Rotation |==|  0.13007 0.41866 0.75804 0.69988
USER: genes 2 Torsion [C]-CA--N-[C] |==|  0.81059
USER: genes 3 Torsion [N]-C--CA-[N] |==|  0.73155
USER: genes 4 Torsion [C]-CA--N-[H3] |==|  0.01712
USER: genes 5 Torsion [N]-CA--C-[N] |==|  0.96913
USER: genes 6 Torsion [C]-N--CA-[CB] |==|  0.48305
USER: genes 7 Torsion [N]-CA--C-[O] |==|  0.02683
USER: genes 8 Torsion [N]-CA--CB-[CG] |==|  0.51667
USER: genes 9 Torsion [CA]-CB--CG-[ND1] |==|  0.14665
ROOT
ATOM      1  CA  HIS F   2      -4.060  32.745 -16.765  1.00 30.59 LIG 0.18  C 
ENDROOT
BRANCH 1 2
ATOM      2  N   HIS F   2      -2.768  32.093 -17.006  1.00 30.70 LIG-0.35  N 
ATOM      3  C   ALA F   1      -2.109  31.428 -16.059  1.00 31.15 LIG 0.25  C 
ATOM      4 O    ALA F   1      -2.515  31.308 -14.899  1.00 30.37 LIG-0.27  OA
ATOM      5 H    HIS F   2      -2.480  32.180 -17.812  1.00 30.70 LIG 0.16  HD
BRANCH 3 6
ATOM      6  CA  ALA F   1      -0.777  30.799 -16.489  1.00 31.15 LIG 0.27  C 
ATOM      7  CB  ALA F   1       0.034  31.573 -17.068  0.00 20.00 LIG 0.05  C 
BRANCH 6 8
ATOM      8  N   ALA F   1      -0.942  29.350 -16.849  1.00 31.97 LIG-0.07  N 
ATOM      9 H3   ALA F   1      -1.805  29.136 -16.834  1.00 31.97 LIG 0.28  HD
ATOM     10 H1   ALA F   1      -0.615  29.208 -17.665  1.00 31.97 LIG 0.28  HD
ATOM     11 H2   ALA F   1      -0.501  28.847 -16.263  1.00 31.97 LIG 0.28  HD
ENDBRANCH 6 8
ENDBRANCH 3 6
ENDBRANCH 1 2
BRANCH 1 12
ATOM     12  C   HIS F   2      -5.161  31.706 -16.516  1.00 31.15 LIG 0.24  C 
ATOM     13 O    HIS F   2      -6.278  32.055 -16.093  1.00 30.80 LIG-0.27  OA
ATOM     14  N   ALA F   3      -4.839  30.435 -16.782  1.00 30.97 LIG-0.35  N 
ATOM     15 H    ALA F   3      -4.069  30.191 -17.079  1.00 30.97 LIG 0.16  HD
BRANCH 14 16
ATOM     16  CA  ALA F   3      -5.779  29.332 -16.589  1.00 31.72 LIG 0.16  C 
ATOM     17  CB  ALA F   3      -5.087  28.066 -17.150  0.00 20.00 LIG 0.04  C 
BRANCH 16 18
ATOM     18  C   ALA F   3      -5.891  28.872 -15.138  1.00 32.37 LIG 0.22  C 
ATOM     19 O    ALA F   3      -5.368  29.523 -14.222  1.00 33.75 LIG-0.29  OA
ENDBRANCH 16 18
ENDBRANCH 14 16
ENDBRANCH 1 12
BRANCH 1 20
ATOM     20  CB  HIS F   2      -4.445  33.634 -17.960  1.00 30.20 LIG 0.10  C 
BRANCH 20 21
ATOM     21  CG  HIS F   2      -5.687  34.459 -17.752  1.00 29.66 LIG 0.06  A 
ATOM     22 ND1  HIS F   2      -5.872  35.289 -16.664  1.00 29.25 LIG-0.24  NA
ATOM     23  CE1 HIS F   2      -7.064  35.859 -16.738  1.00 27.69 LIG 0.23  A 
ATOM     24 NE2  HIS F   2      -7.671  35.417 -17.829  1.00 31.40 LIG-0.25  NA
ATOM     25  CD2 HIS F   2      -6.836  34.527 -18.472  1.00 30.69 LIG 0.14  A 
ENDBRANCH 20 21
ENDBRANCH 1 20
TORSDOF 8
ENDMDL
MODEL 85
USER: ADFR SOLUTION from run 186
USER: SCORE 6.857169 LL:  -1.356 LR:  -5.617 RR:   0.000 FEB:  -3.231
USER: RMSD 4.991206
USER: SEED 185
USER: STATUS no improvement in best in 29 clusters for 5 generations
USER: GENES 10
USER: genes 0 Translation |==|  0.41135 0.51819 0.37063
USER: genes 1 Rotation |==|  0.77161 0.63026 0.14862 0.68919
USER: genes 2 Torsion [C]-CA--N-[C] |==|  0.71621
USER: genes 3 Torsion [N]-C--CA-[N] |==|  0.46091
USER: genes 4 Torsion [C]-CA--N-[H3] |==|  0.47034
USER: genes 5 Torsion [N]-CA--C-[N] |==|  0.41704
USER: genes 6 Torsion [C]-N--CA-[CB] |==|  0.27963
USER: genes 7 Torsion [N]-CA--C-[O] |==|  0.20099
USER: genes 8 Torsion [N]-CA--CB-[CG] |==|  0.05401
USER: genes 9 Torsion [CA]-CB--CG-[ND1] |==|  0.85008
ROOT
ATOM      1  CA  HIS F   2      -2.901  30.780 -21.137  1.00 30.59 LIG 0.18  C 
ENDROOT
BRANCH 1 2
ATOM      2  N   HIS F   2      -1.842  31.586 -21.753  1.00 30.70 LIG-0.35  N 
ATOM      3  C   ALA F   1      -1.899  32.914 -21.834  1.00 31.15 LIG 0.25  C 
ATOM      4 O    ALA F   1      -2.846  33.583 -21.409  1.00 30.37 LIG-0.27  OA
ATOM      5 H    HIS F   2      -1.184  31.121 -22.056  1.00 30.70 LIG 0.16  HD
BRANCH 3 6
ATOM      6  CA  ALA F   1      -0.698  33.596 -22.501  1.00 31.15 LIG 0.27  C 
ATOM      7  CB  ALA F   1       0.438  33.193 -22.130  0.00 20.00 LIG 0.05  C 
BRANCH 6 8
ATOM      8  N   ALA F   1      -0.998  35.025 -22.849  1.00 31.97 LIG-0.07  N 
ATOM      9 H3   ALA F   1      -0.247  35.437 -23.089  1.00 31.97 LIG 0.28  HD
ATOM     10 H1   ALA F   1      -1.579  35.052 -23.523  1.00 31.97 LIG 0.28  HD
ATOM     11 H2   ALA F   1      -1.348  35.436 -22.141  1.00 31.97 LIG 0.28  HD
ENDBRANCH 6 8
ENDBRANCH 3 6
ENDBRANCH 1 2
BRANCH 1 12
ATOM     12  C   HIS F   2      -2.497  30.331 -19.726  1.00 31.15 LIG 0.24  C 
ATOM     13 O    HIS F   2      -1.301  30.146 -19.437  1.00 30.80 LIG-0.27  OA
ATOM     14  N   ALA F   3      -3.499  30.159 -18.855  1.00 30.97 LIG-0.35  N 
ATOM     15 H    ALA F   3      -4.327  30.290 -19.050  1.00 30.97 LIG 0.16  HD
BRANCH 14 16
ATOM     16  CA  ALA F   3      -3.273  29.728 -17.477  1.00 31.72 LIG 0.16  C 
ATOM     17  CB  ALA F   3      -3.354  31.003 -16.603  0.00 20.00 LIG 0.04  C 
BRANCH 16 18
ATOM     18  C   ALA F   3      -4.461  28.990 -16.866  1.00 32.37 LIG 0.22  C 
ATOM     19 O    ALA F   3      -4.747  27.838 -17.223  1.00 33.75 LIG-0.29  OA
ENDBRANCH 16 18
ENDBRANCH 14 16
ENDBRANCH 1 12
BRANCH 1 20
ATOM     20  CB  HIS F   2      -3.216  29.550 -22.004  1.00 30.20 LIG 0.10  C 
BRANCH 20 21
ATOM     21  CG  HIS F   2      -2.133  29.179 -22.982  1.00 29.66 LIG 0.06  A 
ATOM     22 ND1  HIS F   2      -1.603  30.066 -23.897  1.00 29.25 LIG-0.24  NA
ATOM     23  CE1 HIS F   2      -0.694  29.451 -24.638  1.00 27.69 LIG 0.23  A 
ATOM     24 NE2  HIS F   2      -0.625  28.187 -24.249  1.00 31.40 LIG-0.25  NA
ATOM     25  CD2 HIS F   2      -1.527  27.988 -23.224  1.00 30.69 LIG 0.14  A 
ENDBRANCH 20 21
ENDBRANCH 1 20
TORSDOF 8
ENDMDL
MODEL 86
USER: ADFR SOLUTION from run 146
USER: SCORE 6.850907 LL:  -1.453 LR:  -5.615 RR:   0.000 FEB:  -3.228
USER: RMSD 4.169515
USER: SEED 145
USER: STATUS no improvement in best in 26 clusters for 5 generations
USER: GENES 10
USER: genes 0 Translation |==|  0.49042 0.44512 0.59599
USER: genes 1 Rotation |==|  0.41907 0.37151 0.67064 0.94477
USER: genes 2 Torsion [C]-CA--N-[C] |==|  0.54107
USER: genes 3 Torsion [N]-C--CA-[N] |==|  0.93655
USER: genes 4 Torsion [C]-CA--N-[H3] |==|  0.37297
USER: genes 5 Torsion [N]-CA--C-[N] |==|  0.47613
USER: genes 6 Torsion [C]-N--CA-[CB] |==|  0.23014
USER: genes 7 Torsion [N]-CA--C-[O] |==|  0.10248
USER: genes 8 Torsion [N]-CA--CB-[CG] |==|  0.29042
USER: genes 9 Torsion [CA]-CB--CG-[ND1] |==|  0.76115
ROOT
ATOM      1  CA  HIS F   2      -1.537  29.903 -17.587  1.00 30.59 LIG 0.18  C 
ENDROOT
BRANCH 1 2
ATOM      2  N   HIS F   2      -0.774  30.191 -18.806  1.00 30.70 LIG-0.35  N 
ATOM      3  C   ALA F   1       0.556  30.255 -18.826  1.00 31.15 LIG 0.25  C 
ATOM      4 O    ALA F   1       1.263  30.090 -17.826  1.00 30.37 LIG-0.27  OA
ATOM      5 H    HIS F   2      -1.264  30.313 -19.502  1.00 30.70 LIG 0.16  HD
BRANCH 3 6
ATOM      6  CA  ALA F   1       1.191  30.557 -20.189  1.00 31.15 LIG 0.27  C 
ATOM      7  CB  ALA F   1       1.975  31.544 -20.224  0.00 20.00 LIG 0.05  C 
BRANCH 6 8
ATOM      8  N   ALA F   1       0.273  30.187 -21.319  1.00 31.97 LIG-0.07  N 
ATOM      9 H3   ALA F   1       0.256  30.846 -21.916  1.00 31.97 LIG 0.28  HD
ATOM     10 H1   ALA F   1       0.565  29.442 -21.708  1.00 31.97 LIG 0.28  HD
ATOM     11 H2   ALA F   1      -0.548  30.053 -21.003  1.00 31.97 LIG 0.28  HD
ENDBRANCH 6 8
ENDBRANCH 3 6
ENDBRANCH 1 2
BRANCH 1 12
ATOM     12  C   HIS F   2      -2.988  29.534 -17.924  1.00 31.15 LIG 0.24  C 
ATOM     13 O    HIS F   2      -3.421  29.659 -19.084  1.00 30.80 LIG-0.27  OA
ATOM     14  N   ALA F   3      -3.730  29.079 -16.907  1.00 30.97 LIG-0.35  N 
ATOM     15 H    ALA F   3      -3.432  28.987 -16.105  1.00 30.97 LIG 0.16  HD
BRANCH 14 16
ATOM     16  CA  ALA F   3      -5.129  28.693 -17.070  1.00 31.72 LIG 0.16  C 
ATOM     17  CB  ALA F   3      -5.121  27.242 -17.611  0.00 20.00 LIG 0.04  C 
BRANCH 16 18
ATOM     18  C   ALA F   3      -5.843  28.411 -15.750  1.00 32.37 LIG 0.22  C 
ATOM     19 O    ALA F   3      -5.598  29.084 -14.739  1.00 33.75 LIG-0.29  OA
ENDBRANCH 16 18
ENDBRANCH 14 16
ENDBRANCH 1 12
BRANCH 1 20
ATOM     20  CB  HIS F   2      -1.516  31.115 -16.640  1.00 30.20 LIG 0.10  C 
BRANCH 20 21
ATOM     21  CG  HIS F   2      -2.798  31.905 -16.605  1.00 29.66 LIG 0.06  A 
ATOM     22 ND1  HIS F   2      -3.089  32.916 -17.499  1.00 29.25 LIG-0.24  NA
ATOM     23  CE1 HIS F   2      -4.267  33.444 -17.204  1.00 27.69 LIG 0.23  A 
ATOM     24 NE2  HIS F   2      -4.747  32.824 -16.136  1.00 31.40 LIG-0.25  NA
ATOM     25  CD2 HIS F   2      -3.838  31.867 -15.733  1.00 30.69 LIG 0.14  A 
ENDBRANCH 20 21
ENDBRANCH 1 20
TORSDOF 8
ENDMDL
MODEL 87
USER: ADFR SOLUTION from run 70
USER: SCORE 6.998323 LL:  -1.401 LR:  -5.613 RR:   0.000 FEB:  -3.226
USER: RMSD 4.309577
USER: SEED 69
USER: STATUS no improvement in best in 29 clusters for 5 generations
USER: GENES 10
USER: genes 0 Translation |==|  0.41537 0.58171 0.46091
USER: genes 1 Rotation |==|  0.67205 0.48041 0.26329 0.90495
USER: genes 2 Torsion [C]-CA--N-[C] |==|  0.84101
USER: genes 3 Torsion [N]-C--CA-[N] |==|  0.50435
USER: genes 4 Torsion [C]-CA--N-[H3] |==|  0.23648
USER: genes 5 Torsion [N]-CA--C-[N] |==|  0.36134
USER: genes 6 Torsion [C]-N--CA-[CB] |==|  0.22438
USER: genes 7 Torsion [N]-CA--C-[O] |==|  0.54249
USER: genes 8 Torsion [N]-CA--CB-[CG] |==|  0.54614
USER: genes 9 Torsion [CA]-CB--CG-[ND1] |==|  0.25227
ROOT
ATOM      1  CA  HIS F   2      -2.832  31.543 -19.715  1.00 30.59 LIG 0.18  C 
ENDROOT
BRANCH 1 2
ATOM      2  N   HIS F   2      -1.872  32.178 -20.624  1.00 30.70 LIG-0.35  N 
ATOM      3  C   ALA F   1      -2.137  33.305 -21.281  1.00 31.15 LIG 0.25  C 
ATOM      4 O    ALA F   1      -3.211  33.909 -21.194  1.00 30.37 LIG-0.27  OA
ATOM      5 H    HIS F   2      -1.125  31.755 -20.691  1.00 30.70 LIG 0.16  HD
BRANCH 3 6
ATOM      6  CA  ALA F   1      -1.014  33.834 -22.182  1.00 31.15 LIG 0.27  C 
ATOM      7  CB  ALA F   1       0.161  33.568 -21.807  0.00 20.00 LIG 0.05  C 
BRANCH 6 8
ATOM      8  N   ALA F   1      -1.400  35.125 -22.845  1.00 31.97 LIG-0.07  N 
ATOM      9 H3   ALA F   1      -1.224  35.804 -22.299  1.00 31.97 LIG 0.28  HD
ATOM     10 H1   ALA F   1      -0.937  35.222 -23.599  1.00 31.97 LIG 0.28  HD
ATOM     11 H2   ALA F   1      -2.270  35.113 -23.033  1.00 31.97 LIG 0.28  HD
ENDBRANCH 6 8
ENDBRANCH 3 6
ENDBRANCH 1 2
BRANCH 1 12
ATOM     12  C   HIS F   2      -3.256  32.510 -18.603  1.00 31.15 LIG 0.24  C 
ATOM     13 O    HIS F   2      -2.403  33.132 -17.942  1.00 30.80 LIG-0.27  OA
ATOM     14  N   ALA F   3      -4.574  32.634 -18.402  1.00 30.97 LIG-0.35  N 
ATOM     15 H    ALA F   3      -5.166  32.210 -18.860  1.00 30.97 LIG 0.16  HD
BRANCH 14 16
ATOM     16  CA  ALA F   3      -5.131  33.512 -17.376  1.00 31.72 LIG 0.16  C 
ATOM     17  CB  ALA F   3      -5.121  34.941 -17.972  0.00 20.00 LIG 0.04  C 
BRANCH 16 18
ATOM     18  C   ALA F   3      -6.642  33.375 -17.210  1.00 32.37 LIG 0.22  C 
ATOM     19 O    ALA F   3      -7.295  34.231 -16.595  1.00 33.75 LIG-0.29  OA
ENDBRANCH 16 18
ENDBRANCH 14 16
ENDBRANCH 1 12
BRANCH 1 20
ATOM     20  CB  HIS F   2      -2.227  30.272 -19.095  1.00 30.20 LIG 0.10  C 
BRANCH 20 21
ATOM     21  CG  HIS F   2      -3.231  29.341 -18.469  1.00 29.66 LIG 0.06  A 
ATOM     22 ND1  HIS F   2      -3.844  28.313 -19.158  1.00 29.25 LIG-0.24  NA
ATOM     23  CE1 HIS F   2      -4.695  27.688 -18.360  1.00 27.69 LIG 0.23  A 
ATOM     24 NE2  HIS F   2      -4.671  28.283 -17.177  1.00 31.40 LIG-0.25  NA
ATOM     25  CD2 HIS F   2      -3.775  29.331 -17.225  1.00 30.69 LIG 0.14  A 
ENDBRANCH 20 21
ENDBRANCH 1 20
TORSDOF 8
ENDMDL
MODEL 88
USER: ADFR SOLUTION from run 101
USER: SCORE 6.334260 LL:  -1.132 LR:  -5.612 RR:   0.000 FEB:  -3.225
USER: RMSD 2.915857
USER: SEED 100
USER: STATUS no improvement in best in 41 clusters for 5 generations
USER: GENES 10
USER: genes 0 Translation |==|  0.42131 0.37966 0.55326
USER: genes 1 Rotation |==|  0.37725 0.51398 0.62322 0.96857
USER: genes 2 Torsion [C]-CA--N-[C] |==|  0.86656
USER: genes 3 Torsion [N]-C--CA-[N] |==|  0.29086
USER: genes 4 Torsion [C]-CA--N-[H3] |==|  0.01836
USER: genes 5 Torsion [N]-CA--C-[N] |==|  0.41957
USER: genes 6 Torsion [C]-N--CA-[CB] |==|  0.24640
USER: genes 7 Torsion [N]-CA--C-[O] |==|  0.31624
USER: genes 8 Torsion [N]-CA--CB-[CG] |==|  0.72638
USER: genes 9 Torsion [CA]-CB--CG-[ND1] |==|  0.12276
ROOT
ATOM      1  CA  HIS F   2      -2.729  29.118 -18.260  1.00 30.59 LIG 0.18  C 
ENDROOT
BRANCH 1 2
ATOM      2  N   HIS F   2      -2.581  28.854 -19.695  1.00 30.70 LIG-0.35  N 
ATOM      3  C   ALA F   1      -3.299  27.936 -20.339  1.00 31.15 LIG 0.25  C 
ATOM      4 O    ALA F   1      -4.143  27.221 -19.789  1.00 30.37 LIG-0.27  OA
ATOM      5 H    HIS F   2      -1.989  29.347 -20.080  1.00 30.70 LIG 0.16  HD
BRANCH 3 6
ATOM      6  CA  ALA F   1      -3.020  27.801 -21.841  1.00 31.15 LIG 0.27  C 
ATOM      7  CB  ALA F   1      -3.913  28.255 -22.608  0.00 20.00 LIG 0.05  C 
BRANCH 6 8
ATOM      8  N   ALA F   1      -2.214  26.571 -22.144  1.00 31.97 LIG-0.07  N 
ATOM      9 H3   ALA F   1      -2.122  26.086 -21.404  1.00 31.97 LIG 0.28  HD
ATOM     10 H1   ALA F   1      -2.631  26.088 -22.765  1.00 31.97 LIG 0.28  HD
ATOM     11 H2   ALA F   1      -1.411  26.808 -22.444  1.00 31.97 LIG 0.28  HD
ENDBRANCH 6 8
ENDBRANCH 3 6
ENDBRANCH 1 2
BRANCH 1 12
ATOM     12  C   HIS F   2      -4.208  29.273 -17.882  1.00 31.15 LIG 0.24  C 
ATOM     13 O    HIS F   2      -5.034  29.701 -18.710  1.00 30.80 LIG-0.27  OA
ATOM     14  N   ALA F   3      -4.535  28.922 -16.632  1.00 30.97 LIG-0.35  N 
ATOM     15 H    ALA F   3      -3.968  28.621 -16.059  1.00 30.97 LIG 0.16  HD
BRANCH 14 16
ATOM     16  CA  ALA F   3      -5.901  29.019 -16.123  1.00 31.72 LIG 0.16  C 
ATOM     17  CB  ALA F   3      -6.589  27.674 -16.461  0.00 20.00 LIG 0.04  C 
BRANCH 16 18
ATOM     18  C   ALA F   3      -5.995  28.916 -14.603  1.00 32.37 LIG 0.22  C 
ATOM     19 O    ALA F   3      -6.366  29.883 -13.922  1.00 33.75 LIG-0.29  OA
ENDBRANCH 16 18
ENDBRANCH 14 16
ENDBRANCH 1 12
BRANCH 1 20
ATOM     20  CB  HIS F   2      -1.956  30.386 -17.863  1.00 30.20 LIG 0.10  C 
BRANCH 20 21
ATOM     21  CG  HIS F   2      -0.601  30.130 -17.257  1.00 29.66 LIG 0.06  A 
ATOM     22 ND1  HIS F   2       0.296  29.213 -17.768  1.00 29.25 LIG-0.24  NA
ATOM     23  CE1 HIS F   2       1.383  29.186 -17.012  1.00 27.69 LIG 0.23  A 
ATOM     24 NE2  HIS F   2       1.219  30.043 -16.016  1.00 31.40 LIG-0.25  NA
ATOM     25  CD2 HIS F   2      -0.021  30.634 -16.138  1.00 30.69 LIG 0.14  A 
ENDBRANCH 20 21
ENDBRANCH 1 20
TORSDOF 8
ENDMDL
MODEL 89
USER: ADFR SOLUTION from run 109
USER: SCORE 6.699460 LL:  -1.298 LR:  -5.608 RR:   0.000 FEB:  -3.222
USER: RMSD 3.019278
USER: SEED 108
USER: STATUS no improvement in best in 25 clusters for 5 generations
USER: GENES 10
USER: genes 0 Translation |==|  0.54109 0.60793 0.51164
USER: genes 1 Rotation |==|  0.59551 0.46406 0.46955 0.98853
USER: genes 2 Torsion [C]-CA--N-[C] |==|  0.79702
USER: genes 3 Torsion [N]-C--CA-[N] |==|  0.67971
USER: genes 4 Torsion [C]-CA--N-[H3] |==|  0.26462
USER: genes 5 Torsion [N]-CA--C-[N] |==|  0.00556
USER: genes 6 Torsion [C]-N--CA-[CB] |==|  0.50422
USER: genes 7 Torsion [N]-CA--C-[O] |==|  0.14662
USER: genes 8 Torsion [N]-CA--CB-[CG] |==|  0.69515
USER: genes 9 Torsion [CA]-CB--CG-[ND1] |==|  0.74309
ROOT
ATOM      1  CA  HIS F   2      -0.663  31.857 -18.916  1.00 30.59 LIG 0.18  C 
ENDROOT
BRANCH 1 2
ATOM      2  N   HIS F   2      -0.145  32.668 -20.022  1.00 30.70 LIG-0.35  N 
ATOM      3  C   ALA F   1      -0.712  32.692 -21.227  1.00 31.15 LIG 0.25  C 
ATOM      4 O    ALA F   1      -1.713  32.033 -21.523  1.00 30.37 LIG-0.27  OA
ATOM      5 H    HIS F   2       0.557  33.123 -19.821  1.00 30.70 LIG 0.16  HD
BRANCH 3 6
ATOM      6  CA  ALA F   1      -0.043  33.604 -22.263  1.00 31.15 LIG 0.27  C 
ATOM      7  CB  ALA F   1       1.210  33.717 -22.167  0.00 20.00 LIG 0.05  C 
BRANCH 6 8
ATOM      8  N   ALA F   1      -0.947  34.730 -22.674  1.00 31.97 LIG-0.07  N 
ATOM      9 H3   ALA F   1      -0.763  35.452 -22.188  1.00 31.97 LIG 0.28  HD
ATOM     10 H1   ALA F   1      -0.821  34.913 -23.536  1.00 31.97 LIG 0.28  HD
ATOM     11 H2   ALA F   1      -1.795  34.493 -22.543  1.00 31.97 LIG 0.28  HD
ENDBRANCH 6 8
ENDBRANCH 3 6
ENDBRANCH 1 2
BRANCH 1 12
ATOM     12  C   HIS F   2      -1.957  32.461 -18.353  1.00 31.15 LIG 0.24  C 
ATOM     13 O    HIS F   2      -2.531  31.938 -17.381  1.00 30.80 LIG-0.27  OA
ATOM     14  N   ALA F   3      -2.407  33.562 -18.968  1.00 30.97 LIG-0.35  N 
ATOM     15 H    ALA F   3      -2.010  33.929 -19.637  1.00 30.97 LIG 0.16  HD
BRANCH 14 16
ATOM     16  CA  ALA F   3      -3.628  34.247 -18.552  1.00 31.72 LIG 0.16  C 
ATOM     17  CB  ALA F   3      -3.816  35.434 -19.529  0.00 20.00 LIG 0.04  C 
BRANCH 16 18
ATOM     18  C   ALA F   3      -4.905  33.491 -18.907  1.00 32.37 LIG 0.22  C 
ATOM     19 O    ALA F   3      -5.055  32.306 -18.574  1.00 33.75 LIG-0.29  OA
ENDBRANCH 16 18
ENDBRANCH 14 16
ENDBRANCH 1 12
BRANCH 1 20
ATOM     20  CB  HIS F   2       0.385  31.740 -17.796  1.00 30.20 LIG 0.10  C 
BRANCH 20 21
ATOM     21  CG  HIS F   2       0.994  30.371 -17.649  1.00 29.66 LIG 0.06  A 
ATOM     22 ND1  HIS F   2       0.499  29.410 -16.790  1.00 29.25 LIG-0.24  NA
ATOM     23  CE1 HIS F   2       1.254  28.325 -16.854  1.00 27.69 LIG 0.23  A 
ATOM     24 NE2  HIS F   2       2.235  28.550 -17.715  1.00 31.40 LIG-0.25  NA
ATOM     25  CD2 HIS F   2       2.104  29.830 -18.213  1.00 30.69 LIG 0.14  A 
ENDBRANCH 20 21
ENDBRANCH 1 20
TORSDOF 8
ENDMDL
MODEL 90
USER: ADFR SOLUTION from run 47
USER: SCORE 7.053445 LL:  -1.607 LR:  -5.598 RR:   0.000 FEB:  -3.212
USER: RMSD 5.531633
USER: SEED 46
USER: STATUS no improvement in best in 38 clusters for 5 generations
USER: GENES 10
USER: genes 0 Translation |==|  0.36421 0.41261 0.64284
USER: genes 1 Rotation |==|  0.44703 0.31156 0.71366 0.90747
USER: genes 2 Torsion [C]-CA--N-[C] |==|  0.65000
USER: genes 3 Torsion [N]-C--CA-[N] |==|  0.81335
USER: genes 4 Torsion [C]-CA--N-[H3] |==|  0.96067
USER: genes 5 Torsion [N]-CA--C-[N] |==|  0.37340
USER: genes 6 Torsion [C]-N--CA-[CB] |==|  0.36065
USER: genes 7 Torsion [N]-CA--C-[O] |==|  0.02221
USER: genes 8 Torsion [N]-CA--CB-[CG] |==|  0.42665
USER: genes 9 Torsion [CA]-CB--CG-[ND1] |==|  0.72711
ROOT
ATOM      1  CA  HIS F   2      -3.714  29.513 -16.849  1.00 30.59 LIG 0.18  C 
ENDROOT
BRANCH 1 2
ATOM      2  N   HIS F   2      -2.868  30.151 -17.863  1.00 30.70 LIG-0.35  N 
ATOM      3  C   ALA F   1      -1.564  29.902 -17.976  1.00 31.15 LIG 0.25  C 
ATOM      4 O    ALA F   1      -0.952  29.125 -17.237  1.00 30.37 LIG-0.27  OA
ATOM      5 H    HIS F   2      -3.291  30.698 -18.375  1.00 30.70 LIG 0.16  HD
BRANCH 3 6
ATOM      6  CA  ALA F   1      -0.835  30.650 -19.099  1.00 31.15 LIG 0.27  C 
ATOM      7  CB  ALA F   1      -0.504  31.839 -18.841  0.00 20.00 LIG 0.05  C 
BRANCH 6 8
ATOM      8  N   ALA F   1      -1.292  30.191 -20.454  1.00 31.97 LIG-0.07  N 
ATOM      9 H3   ALA F   1      -1.749  29.433 -20.373  1.00 31.97 LIG 0.28  HD
ATOM     10 H1   ALA F   1      -1.813  30.814 -20.819  1.00 31.97 LIG 0.28  HD
ATOM     11 H2   ALA F   1      -0.584  30.056 -20.976  1.00 31.97 LIG 0.28  HD
ENDBRANCH 6 8
ENDBRANCH 3 6
ENDBRANCH 1 2
BRANCH 1 12
ATOM     12  C   HIS F   2      -4.927  28.833 -17.497  1.00 31.15 LIG 0.24  C 
ATOM     13 O    HIS F   2      -5.593  29.420 -18.370  1.00 30.80 LIG-0.27  OA
ATOM     14  N   ALA F   3      -5.207  27.597 -17.067  1.00 30.97 LIG-0.35  N 
ATOM     15 H    ALA F   3      -4.746  27.186 -16.468  1.00 30.97 LIG 0.16  HD
BRANCH 14 16
ATOM     16  CA  ALA F   3      -6.333  26.823 -17.585  1.00 31.72 LIG 0.16  C 
ATOM     17  CB  ALA F   3      -5.767  25.436 -17.976  0.00 20.00 LIG 0.04  C 
BRANCH 16 18
ATOM     18  C   ALA F   3      -7.297  26.348 -16.501  1.00 32.37 LIG 0.22  C 
ATOM     19 O    ALA F   3      -7.181  26.739 -15.331  1.00 33.75 LIG-0.29  OA
ENDBRANCH 16 18
ENDBRANCH 14 16
ENDBRANCH 1 12
BRANCH 1 20
ATOM     20  CB  HIS F   2      -4.190  30.549 -15.816  1.00 30.20 LIG 0.10  C 
BRANCH 20 21
ATOM     21  CG  HIS F   2      -5.490  30.206 -15.138  1.00 29.66 LIG 0.06  A 
ATOM     22 ND1  HIS F   2      -6.708  30.727 -15.528  1.00 29.25 LIG-0.24  NA
ATOM     23  CE1 HIS F   2      -7.662  30.269 -14.732  1.00 27.69 LIG 0.23  A 
ATOM     24 NE2  HIS F   2      -7.106  29.479 -13.825  1.00 31.40 LIG-0.25  NA
ATOM     25  CD2 HIS F   2      -5.745  29.437 -14.048  1.00 30.69 LIG 0.14  A 
ENDBRANCH 20 21
ENDBRANCH 1 20
TORSDOF 8
ENDMDL
MODEL 91
USER: ADFR SOLUTION from run 166
USER: SCORE 7.314050 LL:  -1.717 LR:  -5.600 RR:   0.000 FEB:  -3.214
USER: RMSD 3.942919
USER: SEED 165
USER: STATUS no improvement in best in 36 clusters for 5 generations
USER: GENES 10
USER: genes 0 Translation |==|  0.44267 0.60640 0.47442
USER: genes 1 Rotation |==|  0.63038 0.42529 0.38867 0.96371
USER: genes 2 Torsion [C]-CA--N-[C] |==|  0.81986
USER: genes 3 Torsion [N]-C--CA-[N] |==|  0.62835
USER: genes 4 Torsion [C]-CA--N-[H3] |==|  0.09340
USER: genes 5 Torsion [N]-CA--C-[N] |==|  0.38030
USER: genes 6 Torsion [C]-N--CA-[CB] |==|  0.52114
USER: genes 7 Torsion [N]-CA--C-[O] |==|  0.23149
USER: genes 8 Torsion [N]-CA--CB-[CG] |==|  0.40915
USER: genes 9 Torsion [CA]-CB--CG-[ND1] |==|  0.16335
ROOT
ATOM      1  CA  HIS F   2      -2.361  31.839 -19.502  1.00 30.59 LIG 0.18  C 
ENDROOT
BRANCH 1 2
ATOM      2  N   HIS F   2      -1.465  32.576 -20.399  1.00 30.70 LIG-0.35  N 
ATOM      3  C   ALA F   1      -1.874  33.109 -21.549  1.00 31.15 LIG 0.25  C 
ATOM      4 O    ALA F   1      -3.033  33.025 -21.966  1.00 30.37 LIG-0.27  OA
ATOM      5 H    HIS F   2      -0.655  32.630 -20.114  1.00 30.70 LIG 0.16  HD
BRANCH 3 6
ATOM      6  CA  ALA F   1      -0.804  33.855 -22.358  1.00 31.15 LIG 0.27  C 
ATOM      7  CB  ALA F   1       0.391  33.650 -22.007  0.00 20.00 LIG 0.05  C 
BRANCH 6 8
ATOM      8  N   ALA F   1      -1.308  35.181 -22.849  1.00 31.97 LIG-0.07  N 
ATOM      9 H3   ALA F   1      -1.871  35.525 -22.252  1.00 31.97 LIG 0.28  HD
ATOM     10 H1   ALA F   1      -0.622  35.736 -22.964  1.00 31.97 LIG 0.28  HD
ATOM     11 H2   ALA F   1      -1.731  35.070 -23.624  1.00 31.97 LIG 0.28  HD
ENDBRANCH 6 8
ENDBRANCH 3 6
ENDBRANCH 1 2
BRANCH 1 12
ATOM     12  C   HIS F   2      -3.449  32.761 -18.936  1.00 31.15 LIG 0.24  C 
ATOM     13 O    HIS F   2      -3.166  33.906 -18.538  1.00 30.80 LIG-0.27  OA
ATOM     14  N   ALA F   3      -4.688  32.256 -18.904  1.00 30.97 LIG-0.35  N 
ATOM     15 H    ALA F   3      -4.888  31.467 -19.182  1.00 30.97 LIG 0.16  HD
BRANCH 14 16
ATOM     16  CA  ALA F   3      -5.828  33.011 -18.388  1.00 31.72 LIG 0.16  C 
ATOM     17  CB  ALA F   3      -7.020  32.024 -18.343  0.00 20.00 LIG 0.04  C 
BRANCH 16 18
ATOM     18  C   ALA F   3      -5.745  33.294 -16.890  1.00 32.37 LIG 0.22  C 
ATOM     19 O    ALA F   3      -5.094  34.257 -16.460  1.00 33.75 LIG-0.29  OA
ENDBRANCH 16 18
ENDBRANCH 14 16
ENDBRANCH 1 12
BRANCH 1 20
ATOM     20  CB  HIS F   2      -1.566  31.205 -18.348  1.00 30.20 LIG 0.10  C 
BRANCH 20 21
ATOM     21  CG  HIS F   2      -2.314  31.118 -17.045  1.00 29.66 LIG 0.06  A 
ATOM     22 ND1  HIS F   2      -3.508  30.439 -16.900  1.00 29.25 LIG-0.24  NA
ATOM     23  CE1 HIS F   2      -3.941  30.562 -15.655  1.00 27.69 LIG 0.23  A 
ATOM     24 NE2  HIS F   2      -3.079  31.312 -14.986  1.00 31.40 LIG-0.25  NA
ATOM     25  CD2 HIS F   2      -2.061  31.687 -15.838  1.00 30.69 LIG 0.14  A 
ENDBRANCH 20 21
ENDBRANCH 1 20
TORSDOF 8
ENDMDL
MODEL 92
USER: ADFR SOLUTION from run 90
USER: SCORE 6.792023 LL:  -1.275 LR:  -5.568 RR:   0.000 FEB:  -3.182
USER: RMSD 5.513924
USER: SEED 89
USER: STATUS no improvement in best in 26 clusters for 5 generations
USER: GENES 10
USER: genes 0 Translation |==|  0.32201 0.53200 0.67037
USER: genes 1 Rotation |==|  0.52120 0.28754 0.23314 0.86496
USER: genes 2 Torsion [C]-CA--N-[C] |==|  0.81843
USER: genes 3 Torsion [N]-C--CA-[N] |==|  0.53736
USER: genes 4 Torsion [C]-CA--N-[H3] |==|  0.39817
USER: genes 5 Torsion [N]-CA--C-[N] |==|  0.43875
USER: genes 6 Torsion [C]-N--CA-[CB] |==|  0.19213
USER: genes 7 Torsion [N]-CA--C-[O] |==|  0.49040
USER: genes 8 Torsion [N]-CA--CB-[CG] |==|  0.68919
USER: genes 9 Torsion [CA]-CB--CG-[ND1] |==|  0.16494
ROOT
ATOM      1  CA  HIS F   2      -4.442  30.946 -16.416  1.00 30.59 LIG 0.18  C 
ENDROOT
BRANCH 1 2
ATOM      2  N   HIS F   2      -3.221  30.345 -16.961  1.00 30.70 LIG-0.35  N 
ATOM      3  C   ALA F   1      -2.881  30.439 -18.245  1.00 31.15 LIG 0.25  C 
ATOM      4 O    ALA F   1      -3.563  31.028 -19.090  1.00 30.37 LIG-0.27  OA
ATOM      5 H    HIS F   2      -2.747  29.928 -16.376  1.00 30.70 LIG 0.16  HD
BRANCH 3 6
ATOM      6  CA  ALA F   1      -1.564  29.758 -18.640  1.00 31.15 LIG 0.27  C 
ATOM      7  CB  ALA F   1      -0.774  29.501 -17.692  0.00 20.00 LIG 0.05  C 
BRANCH 6 8
ATOM      8  N   ALA F   1      -1.110  30.187 -20.006  1.00 31.97 LIG-0.07  N 
ATOM      9 H3   ALA F   1      -0.223  30.253 -20.017  1.00 31.97 LIG 0.28  HD
ATOM     10 H1   ALA F   1      -1.369  29.585 -20.608  1.00 31.97 LIG 0.28  HD
ATOM     11 H2   ALA F   1      -1.468  30.977 -20.204  1.00 31.97 LIG 0.28  HD
ENDBRANCH 6 8
ENDBRANCH 3 6
ENDBRANCH 1 2
BRANCH 1 12
ATOM     12  C   HIS F   2      -4.385  32.477 -16.501  1.00 31.15 LIG 0.24  C 
ATOM     13 O    HIS F   2      -3.292  33.067 -16.590  1.00 30.80 LIG-0.27  OA
ATOM     14  N   ALA F   3      -5.563  33.111 -16.475  1.00 30.97 LIG-0.35  N 
ATOM     15 H    ALA F   3      -6.320  32.707 -16.419  1.00 30.97 LIG 0.16  HD
BRANCH 14 16
ATOM     16  CA  ALA F   3      -5.670  34.567 -16.542  1.00 31.72 LIG 0.16  C 
ATOM     17  CB  ALA F   3      -5.243  34.971 -17.974  0.00 20.00 LIG 0.04  C 
BRANCH 16 18
ATOM     18  C   ALA F   3      -7.109  35.071 -16.613  1.00 32.37 LIG 0.22  C 
ATOM     19 O    ALA F   3      -7.358  36.285 -16.609  1.00 33.75 LIG-0.29  OA
ENDBRANCH 16 18
ENDBRANCH 14 16
ENDBRANCH 1 12
BRANCH 1 20
ATOM     20  CB  HIS F   2      -4.649  30.515 -14.954  1.00 30.20 LIG 0.10  C 
BRANCH 20 21
ATOM     21  CG  HIS F   2      -5.831  29.610 -14.729  1.00 29.66 LIG 0.06  A 
ATOM     22 ND1  HIS F   2      -5.972  28.381 -15.342  1.00 29.25 LIG-0.24  NA
ATOM     23  CE1 HIS F   2      -7.120  27.831 -14.976  1.00 27.69 LIG 0.23  A 
ATOM     24 NE2  HIS F   2      -7.740  28.666 -14.157  1.00 31.40 LIG-0.25  NA
ATOM     25  CD2 HIS F   2      -6.961  29.794 -13.999  1.00 30.69 LIG 0.14  A 
ENDBRANCH 20 21
ENDBRANCH 1 20
TORSDOF 8
ENDMDL
MODEL 93
USER: ADFR SOLUTION from run 181
USER: SCORE 6.787709 LL:  -1.318 LR:  -5.561 RR:   0.000 FEB:  -3.175
USER: RMSD 5.647247
USER: SEED 180
USER: STATUS no improvement in best in 43 clusters for 5 generations
USER: GENES 10
USER: genes 0 Translation |==|  0.34233 0.34789 0.48195
USER: genes 1 Rotation |==|  0.59319 0.42208 0.09101 0.76072
USER: genes 2 Torsion [C]-CA--N-[C] |==|  0.64407
USER: genes 3 Torsion [N]-C--CA-[N] |==|  0.80948
USER: genes 4 Torsion [C]-CA--N-[H3] |==|  0.37430
USER: genes 5 Torsion [N]-CA--C-[N] |==|  0.42223
USER: genes 6 Torsion [C]-N--CA-[CB] |==|  0.40362
USER: genes 7 Torsion [N]-CA--C-[O] |==|  0.36969
USER: genes 8 Torsion [N]-CA--CB-[CG] |==|  0.85231
USER: genes 9 Torsion [CA]-CB--CG-[ND1] |==|  0.91290
ROOT
ATOM      1  CA  HIS F   2      -4.092  28.737 -19.383  1.00 30.59 LIG 0.18  C 
ENDROOT
BRANCH 1 2
ATOM      2  N   HIS F   2      -3.247  28.264 -20.485  1.00 30.70 LIG-0.35  N 
ATOM      3  C   ALA F   1      -3.611  28.349 -21.762  1.00 31.15 LIG 0.25  C 
ATOM      4 O    ALA F   1      -4.690  28.821 -22.134  1.00 30.37 LIG-0.27  OA
ATOM      5 H    HIS F   2      -2.497  27.928 -20.228  1.00 30.70 LIG 0.16  HD
BRANCH 3 6
ATOM      6  CA  ALA F   1      -2.599  27.814 -22.784  1.00 31.15 LIG 0.27  C 
ATOM      7  CB  ALA F   1      -2.578  26.561 -22.931  0.00 20.00 LIG 0.05  C 
BRANCH 6 8
ATOM      8  N   ALA F   1      -1.372  28.677 -22.849  1.00 31.97 LIG-0.07  N 
ATOM      9 H3   ALA F   1      -0.647  28.163 -22.849  1.00 31.97 LIG 0.28  HD
ATOM     10 H1   ALA F   1      -1.391  29.164 -23.594  1.00 31.97 LIG 0.28  HD
ATOM     11 H2   ALA F   1      -1.352  29.218 -22.143  1.00 31.97 LIG 0.28  HD
ENDBRANCH 6 8
ENDBRANCH 3 6
ENDBRANCH 1 2
BRANCH 1 12
ATOM     12  C   HIS F   2      -3.310  29.680 -18.459  1.00 31.15 LIG 0.24  C 
ATOM     13 O    HIS F   2      -2.075  29.573 -18.341  1.00 30.80 LIG-0.27  OA
ATOM     14  N   ALA F   3      -4.034  30.599 -17.810  1.00 30.97 LIG-0.35  N 
ATOM     15 H    ALA F   3      -4.887  30.678 -17.892  1.00 30.97 LIG 0.16  HD
BRANCH 14 16
ATOM     16  CA  ALA F   3      -3.434  31.563 -16.890  1.00 31.72 LIG 0.16  C 
ATOM     17  CB  ALA F   3      -4.244  32.874 -17.042  0.00 20.00 LIG 0.04  C 
BRANCH 16 18
ATOM     18  C   ALA F   3      -3.761  31.294 -15.424  1.00 32.37 LIG 0.22  C 
ATOM     19 O    ALA F   3      -2.872  31.312 -14.560  1.00 33.75 LIG-0.29  OA
ENDBRANCH 16 18
ENDBRANCH 14 16
ENDBRANCH 1 12
BRANCH 1 20
ATOM     20  CB  HIS F   2      -4.636  27.548 -18.573  1.00 30.20 LIG 0.10  C 
BRANCH 20 21
ATOM     21  CG  HIS F   2      -5.339  26.500 -19.394  1.00 29.66 LIG 0.06  A 
ATOM     22 ND1  HIS F   2      -6.040  26.786 -20.548  1.00 29.25 LIG-0.24  NA
ATOM     23  CE1 HIS F   2      -6.572  25.674 -21.032  1.00 27.69 LIG 0.23  A 
ATOM     24 NE2  HIS F   2      -6.255  24.674 -20.224  1.00 31.40 LIG-0.25  NA
ATOM     25  CD2 HIS F   2      -5.497  25.168 -19.182  1.00 30.69 LIG 0.14  A 
ENDBRANCH 20 21
ENDBRANCH 1 20
TORSDOF 8
ENDMDL
