MODEL 1
USER: ADFR SOLUTION from run 189
USER: SCORE 7.199283 LL:  -1.164 LR:  -7.089 RR:   0.000 FEB:  -4.702
USER: RMSD 4.300075
USER: SEED 188
USER: STATUS no improvement in best in 16 clusters for 5 generations
USER: GENES 10
USER: genes 0 Translation |==|  0.58418 0.55943 0.42264
USER: genes 1 Rotation |==|  0.62903 0.62588 0.59592 0.95641
USER: genes 2 Torsion [C]-CA--N-[C] |==|  0.18224
USER: genes 3 Torsion [N]-C--CA-[N] |==|  0.71936
USER: genes 4 Torsion [C]-CA--N-[H3] |==|  0.12821
USER: genes 5 Torsion [N]-CA--C-[N] |==|  0.26171
USER: genes 6 Torsion [C]-N--CA-[C] |==|  0.36280
USER: genes 7 Torsion [N]-CA--C-[O] |==|  0.32224
USER: genes 8 Torsion [N]-CA--CB-[CG] |==|  0.85429
USER: genes 9 Torsion [CA]-CB--CG-[CD2] |==|  0.70745
ROOT
ATOM      1  CA  HIS F   2      -0.220  31.468 -20.341  1.00 49.99 LIG 0.18  C 
ENDROOT
BRANCH 1 2
ATOM      2  N   HIS F   2      -1.020  32.319 -21.223  1.00 49.83 LIG-0.35  N 
ATOM      3  C   GLY F   1      -1.291  33.590 -20.932  1.00 49.82 LIG 0.24  C 
ATOM      4 O    GLY F   1      -0.946  34.133 -19.880  1.00 49.53 LIG-0.27  OA
ATOM      5 H    HIS F   2      -1.294  31.926 -21.937  1.00 49.83 LIG 0.16  HD
BRANCH 3 6
ATOM      6  CA  GLY F   1      -2.073  34.359 -21.984  1.00 49.90 LIG 0.33  C 
BRANCH 6 7
ATOM      7  N   GLY F   1      -1.215  35.250 -22.820  1.00 49.95 LIG-0.07  N 
ATOM      8 H3   GLY F   1      -0.491  34.805 -23.082  1.00 49.95 LIG 0.27  HD
ATOM      9 H1   GLY F   1      -1.673  35.518 -23.535  1.00 49.95 LIG 0.27  HD
ATOM     10 H2   GLY F   1      -0.970  35.960 -22.342  1.00 49.95 LIG 0.27  HD
ENDBRANCH 6 7
ENDBRANCH 3 6
ENDBRANCH 1 2
BRANCH 1 11
ATOM     11  C   HIS F   2      -0.938  31.226 -19.015  1.00 50.00 LIG 0.24  C 
ATOM     12 O    HIS F   2      -0.840  32.031 -18.087  1.00 49.82 LIG-0.27  OA
ATOM     13  N   GLY F   3      -1.668  30.115 -18.943  1.00 50.02 LIG-0.35  N 
ATOM     14 H    GLY F   3      -1.721  29.536 -19.578  1.00 50.02 LIG 0.16  HD
BRANCH 13 15
ATOM     15  CA  GLY F   3      -2.452  29.779 -17.762  1.00 50.20 LIG 0.21  C 
BRANCH 15 16
ATOM     16  C   GLY F   3      -3.881  29.400 -18.099  1.00 50.42 LIG 0.21  C 
ATOM     17 O    GLY F   3      -4.299  28.264 -17.873  1.00 50.69 LIG-0.29  OA
ENDBRANCH 15 16
ENDBRANCH 13 15
ENDBRANCH 1 11
BRANCH 1 18
ATOM     18  CB  HIS F   2       1.160  32.082 -20.101  1.00 49.99 LIG 0.10  C 
BRANCH 18 19
ATOM     19  CG  HIS F   2       1.890  32.440 -21.359  1.00 50.63 LIG 0.06  A 
ATOM     20  CD2 HIS F   2       2.936  31.847 -21.985  1.00 51.31 LIG 0.14  A 
ATOM     21 NE2  HIS F   2       3.204  32.584 -23.114  1.00 51.32 LIG-0.25  NA
ATOM     22  CE1 HIS F   2       2.358  33.598 -23.176  1.00 50.87 LIG 0.23  A 
ATOM     23 ND1  HIS F   2       1.553  33.533 -22.130  1.00 50.82 LIG-0.24  NA
ENDBRANCH 18 19
ENDBRANCH 1 18
TORSDOF 8
ENDMDL
MODEL 2
USER: ADFR SOLUTION from run 135
USER: SCORE 8.014899 LL:  -1.033 LR:  -7.056 RR:   0.000 FEB:  -4.669
USER: RMSD 1.672537
USER: SEED 134
USER: STATUS no improvement in best in 12 clusters for 5 generations
USER: GENES 10
USER: genes 0 Translation |==|  0.48668 0.43649 0.58964
USER: genes 1 Rotation |==|  0.34330 0.60262 0.52299 0.96302
USER: genes 2 Torsion [C]-CA--N-[C] |==|  0.83574
USER: genes 3 Torsion [N]-C--CA-[N] |==|  0.99009
USER: genes 4 Torsion [C]-CA--N-[H3] |==|  0.97441
USER: genes 5 Torsion [N]-CA--C-[N] |==|  0.34444
USER: genes 6 Torsion [C]-N--CA-[C] |==|  0.30730
USER: genes 7 Torsion [N]-CA--C-[O] |==|  0.18586
USER: genes 8 Torsion [N]-CA--CB-[CG] |==|  0.75086
USER: genes 9 Torsion [CA]-CB--CG-[CD2] |==|  0.84667
ROOT
ATOM      1  CA  HIS F   2      -1.902  29.900 -17.586  1.00 49.99 LIG 0.18  C 
ENDROOT
BRANCH 1 2
ATOM      2  N   HIS F   2      -2.396  29.327 -18.839  1.00 49.83 LIG-0.35  N 
ATOM      3  C   GLY F   1      -3.557  28.680 -18.917  1.00 49.82 LIG 0.24  C 
ATOM      4 O    GLY F   1      -4.277  28.460 -17.940  1.00 49.53 LIG-0.27  OA
ATOM      5 H    HIS F   2      -1.872  29.447 -19.510  1.00 49.83 LIG 0.16  HD
BRANCH 3 6
ATOM      6  CA  GLY F   1      -3.961  28.208 -20.303  1.00 49.90 LIG 0.33  C 
BRANCH 6 7
ATOM      7  N   GLY F   1      -3.008  28.632 -21.371  1.00 49.95 LIG-0.07  N 
ATOM      8 H3   GLY F   1      -2.422  29.210 -21.034  1.00 49.95 LIG 0.27  HD
ATOM      9 H1   GLY F   1      -2.575  27.919 -21.683  1.00 49.95 LIG 0.27  HD
ATOM     10 H2   GLY F   1      -3.458  29.018 -22.034  1.00 49.95 LIG 0.27  HD
ENDBRANCH 6 7
ENDBRANCH 3 6
ENDBRANCH 1 2
BRANCH 1 11
ATOM     11  C   HIS F   2      -2.885  30.928 -17.029  1.00 50.00 LIG 0.24  C 
ATOM     12 O    HIS F   2      -3.253  31.886 -17.713  1.00 49.82 LIG-0.27  OA
ATOM     13  N   GLY F   3      -3.313  30.710 -15.787  1.00 50.02 LIG-0.35  N 
ATOM     14 H    GLY F   3      -3.042  30.058 -15.296  1.00 50.02 LIG 0.16  HD
BRANCH 13 15
ATOM     15  CA  GLY F   3      -4.294  31.575 -15.144  1.00 50.20 LIG 0.21  C 
BRANCH 15 16
ATOM     16  C   GLY F   3      -5.632  30.891 -14.945  1.00 50.42 LIG 0.21  C 
ATOM     17 O    GLY F   3      -5.743  29.944 -14.165  1.00 50.69 LIG-0.29  OA
ENDBRANCH 15 16
ENDBRANCH 13 15
ENDBRANCH 1 11
BRANCH 1 18
ATOM     18  CB  HIS F   2      -0.522  30.530 -17.785  1.00 49.99 LIG 0.10  C 
BRANCH 18 19
ATOM     19  CG  HIS F   2       0.614  29.581 -17.557  1.00 50.63 LIG 0.06  A 
ATOM     20  CD2 HIS F   2       0.931  28.806 -16.490  1.00 51.31 LIG 0.14  A 
ATOM     21 NE2  HIS F   2       2.075  28.116 -16.815  1.00 51.32 LIG-0.25  NA
ATOM     22  CE1 HIS F   2       2.452  28.460 -18.034  1.00 50.87 LIG 0.23  A 
ATOM     23 ND1  HIS F   2       1.586  29.341 -18.505  1.00 50.82 LIG-0.24  NA
ENDBRANCH 18 19
ENDBRANCH 1 18
TORSDOF 8
ENDMDL
MODEL 3
USER: ADFR SOLUTION from run 26
USER: SCORE 7.002369 LL:  -1.040 LR:  -7.016 RR:   0.000 FEB:  -4.630
USER: RMSD 3.029071
USER: SEED 25
USER: STATUS no improvement in best in 19 clusters for 5 generations
USER: GENES 10
USER: genes 0 Translation |==|  0.58084 0.54827 0.46390
USER: genes 1 Rotation |==|  0.54974 0.64724 0.41819 0.96814
USER: genes 2 Torsion [C]-CA--N-[C] |==|  0.20199
USER: genes 3 Torsion [N]-C--CA-[N] |==|  0.40108
USER: genes 4 Torsion [C]-CA--N-[H3] |==|  0.75968
USER: genes 5 Torsion [N]-CA--C-[N] |==|  0.37446
USER: genes 6 Torsion [C]-N--CA-[C] |==|  0.33241
USER: genes 7 Torsion [N]-CA--C-[O] |==|  0.38811
USER: genes 8 Torsion [N]-CA--CB-[CG] |==|  0.56043
USER: genes 9 Torsion [CA]-CB--CG-[CD2] |==|  0.96310
ROOT
ATOM      1  CA  HIS F   2      -0.278  31.325 -19.661  1.00 49.99 LIG 0.18  C 
ENDROOT
BRANCH 1 2
ATOM      2  N   HIS F   2      -0.818  32.030 -20.824  1.00 49.83 LIG-0.35  N 
ATOM      3  C   GLY F   1      -0.271  33.148 -21.297  1.00 49.82 LIG 0.24  C 
ATOM      4 O    GLY F   1       0.690  33.710 -20.765  1.00 49.53 LIG-0.27  OA
ATOM      5 H    HIS F   2      -1.512  31.658 -21.168  1.00 49.83 LIG 0.16  HD
BRANCH 3 6
ATOM      6  CA  GLY F   1      -0.907  33.718 -22.554  1.00 49.90 LIG 0.33  C 
BRANCH 6 7
ATOM      7  N   GLY F   1      -0.916  35.210 -22.584  1.00 49.95 LIG-0.07  N 
ATOM      8 H3   GLY F   1      -1.641  35.511 -22.166  1.00 49.95 LIG 0.27  HD
ATOM      9 H1   GLY F   1      -0.188  35.520 -22.176  1.00 49.95 LIG 0.27  HD
ATOM     10 H2   GLY F   1      -0.924  35.490 -23.429  1.00 49.95 LIG 0.27  HD
ENDBRANCH 6 7
ENDBRANCH 3 6
ENDBRANCH 1 2
BRANCH 1 11
ATOM     11  C   HIS F   2      -0.571  32.092 -18.372  1.00 50.00 LIG 0.24  C 
ATOM     12 O    HIS F   2      -0.404  33.312 -18.311  1.00 49.82 LIG-0.27  OA
ATOM     13  N   GLY F   3      -1.019  31.364 -17.351  1.00 50.02 LIG-0.35  N 
ATOM     14 H    GLY F   3      -1.114  30.509 -17.380  1.00 50.02 LIG 0.16  HD
BRANCH 13 15
ATOM     15  CA  GLY F   3      -1.392  31.965 -16.078  1.00 50.20 LIG 0.21  C 
BRANCH 15 16
ATOM     16  C   GLY F   3      -2.845  31.719 -15.721  1.00 50.42 LIG 0.21  C 
ATOM     17 O    GLY F   3      -3.172  31.456 -14.563  1.00 50.69 LIG-0.29  OA
ENDBRANCH 15 16
ENDBRANCH 13 15
ENDBRANCH 1 11
BRANCH 1 18
ATOM     18  CB  HIS F   2       1.227  31.094 -19.818  1.00 49.99 LIG 0.10  C 
BRANCH 18 19
ATOM     19  CG  HIS F   2       1.757  29.975 -18.975  1.00 50.63 LIG 0.06  A 
ATOM     20  CD2 HIS F   2       1.204  29.295 -17.941  1.00 51.31 LIG 0.14  A 
ATOM     21 NE2  HIS F   2       2.122  28.357 -17.534  1.00 51.32 LIG-0.25  NA
ATOM     22  CE1 HIS F   2       3.203  28.460 -18.287  1.00 50.87 LIG 0.23  A 
ATOM     23 ND1  HIS F   2       3.008  29.427 -19.166  1.00 50.82 LIG-0.24  NA
ENDBRANCH 18 19
ENDBRANCH 1 18
TORSDOF 8
ENDMDL
MODEL 4
USER: ADFR SOLUTION from run 108
USER: SCORE 6.786463 LL:  -1.045 LR:  -6.795 RR:   0.000 FEB:  -4.408
USER: RMSD 3.287094
USER: SEED 107
USER: STATUS no improvement in best in 11 clusters for 5 generations
USER: GENES 10
USER: genes 0 Translation |==|  0.60017 0.53519 0.42337
USER: genes 1 Rotation |==|  0.59757 0.61355 0.59706 0.96708
USER: genes 2 Torsion [C]-CA--N-[C] |==|  0.20517
USER: genes 3 Torsion [N]-C--CA-[N] |==|  0.58773
USER: genes 4 Torsion [C]-CA--N-[H3] |==|  0.17570
USER: genes 5 Torsion [N]-CA--C-[N] |==|  0.25640
USER: genes 6 Torsion [C]-N--CA-[C] |==|  0.37330
USER: genes 7 Torsion [N]-CA--C-[O] |==|  0.36215
USER: genes 8 Torsion [N]-CA--CB-[CG] |==|  0.58870
USER: genes 9 Torsion [CA]-CB--CG-[CD2] |==|  0.92790
ROOT
ATOM      1  CA  HIS F   2       0.056  31.159 -20.329  1.00 49.99 LIG 0.18  C 
ENDROOT
BRANCH 1 2
ATOM      2  N   HIS F   2      -0.678  31.888 -21.365  1.00 49.83 LIG-0.35  N 
ATOM      3  C   GLY F   1      -0.846  33.208 -21.323  1.00 49.82 LIG 0.24  C 
ATOM      4 O    GLY F   1      -0.454  33.912 -20.388  1.00 49.53 LIG-0.27  OA
ATOM      5 H    HIS F   2      -0.986  31.389 -21.994  1.00 49.83 LIG 0.16  HD
BRANCH 3 6
ATOM      6  CA  GLY F   1      -1.569  33.823 -22.509  1.00 49.90 LIG 0.33  C 
BRANCH 6 7
ATOM      7  N   GLY F   1      -1.115  35.210 -22.821  1.00 49.95 LIG-0.07  N 
ATOM      8 H3   GLY F   1      -0.257  35.196 -23.056  1.00 49.95 LIG 0.27  HD
ATOM      9 H1   GLY F   1      -1.601  35.539 -23.490  1.00 49.95 LIG 0.27  HD
ATOM     10 H2   GLY F   1      -1.216  35.724 -22.102  1.00 49.95 LIG 0.27  HD
ENDBRANCH 6 7
ENDBRANCH 3 6
ENDBRANCH 1 2
BRANCH 1 11
ATOM     11  C   HIS F   2      -0.766  31.056 -19.046  1.00 50.00 LIG 0.24  C 
ATOM     12 O    HIS F   2      -0.725  31.948 -18.196  1.00 49.82 LIG-0.27  OA
ATOM     13  N   GLY F   3      -1.518  29.964 -18.923  1.00 50.02 LIG-0.35  N 
ATOM     14 H    GLY F   3      -1.533  29.327 -19.500  1.00 50.02 LIG 0.16  HD
BRANCH 13 15
ATOM     15  CA  GLY F   3      -2.396  29.755 -17.779  1.00 50.20 LIG 0.21  C 
BRANCH 15 16
ATOM     16  C   GLY F   3      -3.775  29.270 -18.183  1.00 50.42 LIG 0.21  C 
ATOM     17 O    GLY F   3      -4.281  28.289 -17.637  1.00 50.69 LIG-0.29  OA
ENDBRANCH 15 16
ENDBRANCH 13 15
ENDBRANCH 1 11
BRANCH 1 18
ATOM     18  CB  HIS F   2       1.406  31.824 -20.052  1.00 49.99 LIG 0.10  C 
BRANCH 18 19
ATOM     19  CG  HIS F   2       2.482  30.862 -19.652  1.00 50.63 LIG 0.06  A 
ATOM     20  CD2 HIS F   2       2.418  29.644 -19.059  1.00 51.31 LIG 0.14  A 
ATOM     21 NE2  HIS F   2       3.708  29.188 -18.929  1.00 51.32 LIG-0.25  NA
ATOM     22  CE1 HIS F   2       4.536  30.095 -19.418  1.00 50.87 LIG 0.23  A 
ATOM     23 ND1  HIS F   2       3.821  31.114 -19.862  1.00 50.82 LIG-0.24  NA
ENDBRANCH 18 19
ENDBRANCH 1 18
TORSDOF 8
ENDMDL
MODEL 5
USER: ADFR SOLUTION from run 23
USER: SCORE 7.506595 LL:  -1.184 LR:  -6.749 RR:   0.000 FEB:  -4.362
USER: RMSD 3.993373
USER: SEED 22
USER: STATUS no improvement in best in 16 clusters for 5 generations
USER: GENES 10
USER: genes 0 Translation |==|  0.55674 0.65740 0.47803
USER: genes 1 Rotation |==|  0.64184 0.63913 0.53399 0.95757
USER: genes 2 Torsion [C]-CA--N-[C] |==|  0.62778
USER: genes 3 Torsion [N]-C--CA-[N] |==|  0.23765
USER: genes 4 Torsion [C]-CA--N-[H3] |==|  0.93039
USER: genes 5 Torsion [N]-CA--C-[N] |==|  0.13239
USER: genes 6 Torsion [C]-N--CA-[C] |==|  0.84114
USER: genes 7 Torsion [N]-CA--C-[O] |==|  0.46054
USER: genes 8 Torsion [N]-CA--CB-[CG] |==|  0.82898
USER: genes 9 Torsion [CA]-CB--CG-[CD2] |==|  0.67790
ROOT
ATOM      1  CA  HIS F   2      -0.693  32.717 -19.428  1.00 49.99 LIG 0.18  C 
ENDROOT
BRANCH 1 2
ATOM      2  N   HIS F   2      -1.386  33.715 -20.243  1.00 49.83 LIG-0.35  N 
ATOM      3  C   GLY F   1      -1.788  33.464 -21.487  1.00 49.82 LIG 0.24  C 
ATOM      4 O    GLY F   1      -1.561  32.401 -22.071  1.00 49.53 LIG-0.27  OA
ATOM      5 H    HIS F   2      -1.506  34.469 -19.848  1.00 49.83 LIG 0.16  HD
BRANCH 3 6
ATOM      6  CA  GLY F   1      -2.556  34.580 -22.175  1.00 49.90 LIG 0.33  C 
BRANCH 6 7
ATOM      7  N   GLY F   1      -1.670  35.583 -22.837  1.00 49.95 LIG-0.07  N 
ATOM      8 H3   GLY F   1      -0.874  35.585 -22.439  1.00 49.95 LIG 0.27  HD
ATOM      9 H1   GLY F   1      -1.572  35.372 -23.696  1.00 49.95 LIG 0.27  HD
ATOM     10 H2   GLY F   1      -2.036  36.392 -22.771  1.00 49.95 LIG 0.27  HD
ENDBRANCH 6 7
ENDBRANCH 3 6
ENDBRANCH 1 2
BRANCH 1 11
ATOM     11  C   HIS F   2      -1.279  32.660 -18.018  1.00 50.00 LIG 0.24  C 
ATOM     12 O    HIS F   2      -0.544  32.681 -17.027  1.00 49.82 LIG-0.27  OA
ATOM     13  N   GLY F   3      -2.606  32.600 -17.941  1.00 50.02 LIG-0.35  N 
ATOM     14 H    GLY F   3      -3.123  32.561 -18.628  1.00 50.02 LIG 0.16  HD
BRANCH 13 15
ATOM     15  CA  GLY F   3      -3.308  32.597 -16.664  1.00 50.20 LIG 0.21  C 
BRANCH 15 16
ATOM     16  C   GLY F   3      -2.871  31.460 -15.762  1.00 50.42 LIG 0.21  C 
ATOM     17 O    GLY F   3      -3.165  31.459 -14.566  1.00 50.69 LIG-0.29  OA
ENDBRANCH 15 16
ENDBRANCH 13 15
ENDBRANCH 1 11
BRANCH 1 18
ATOM     18  CB  HIS F   2       0.808  33.007 -19.375  1.00 49.99 LIG 0.10  C 
BRANCH 18 19
ATOM     19  CG  HIS F   2       1.479  32.960 -20.713  1.00 50.63 LIG 0.06  A 
ATOM     20  CD2 HIS F   2       2.439  32.138 -21.204  1.00 51.31 LIG 0.14  A 
ATOM     21 NE2  HIS F   2       2.686  32.529 -22.498  1.00 51.32 LIG-0.25  NA
ATOM     22  CE1 HIS F   2       1.911  33.560 -22.790  1.00 50.87 LIG 0.23  A 
ATOM     23 ND1  HIS F   2       1.172  33.838 -21.731  1.00 50.82 LIG-0.24  NA
ENDBRANCH 18 19
ENDBRANCH 1 18
TORSDOF 8
ENDMDL
MODEL 6
USER: ADFR SOLUTION from run 94
USER: SCORE 7.869277 LL:  -1.211 LR:  -6.696 RR:   0.000 FEB:  -4.309
USER: RMSD 2.952102
USER: SEED 93
USER: STATUS no improvement in best in 11 clusters for 5 generations
USER: GENES 10
USER: genes 0 Translation |==|  0.60011 0.55753 0.46661
USER: genes 1 Rotation |==|  0.64894 0.40494 0.57553 0.96160
USER: genes 2 Torsion [C]-CA--N-[C] |==|  0.84650
USER: genes 3 Torsion [N]-C--CA-[N] |==|  0.63388
USER: genes 4 Torsion [C]-CA--N-[H3] |==|  0.29259
USER: genes 5 Torsion [N]-CA--C-[N] |==|  0.35556
USER: genes 6 Torsion [C]-N--CA-[C] |==|  0.74808
USER: genes 7 Torsion [N]-CA--C-[O] |==|  0.68443
USER: genes 8 Torsion [N]-CA--CB-[CG] |==|  0.57605
USER: genes 9 Torsion [CA]-CB--CG-[CD2] |==|  0.71132
ROOT
ATOM      1  CA  HIS F   2       0.055  31.443 -19.616  1.00 49.99 LIG 0.18  C 
ENDROOT
BRANCH 1 2
ATOM      2  N   HIS F   2       0.364  32.592 -20.469  1.00 49.83 LIG-0.35  N 
ATOM      3  C   GLY F   1      -0.260  32.810 -21.624  1.00 49.82 LIG 0.24  C 
ATOM      4 O    GLY F   1      -1.100  32.039 -22.097  1.00 49.53 LIG-0.27  OA
ATOM      5 H    HIS F   2       0.979  33.106 -20.156  1.00 49.83 LIG 0.16  HD
BRANCH 3 6
ATOM      6  CA  GLY F   1       0.125  34.084 -22.357  1.00 49.90 LIG 0.33  C 
BRANCH 6 7
ATOM      7  N   GLY F   1      -1.053  34.879 -22.815  1.00 49.95 LIG-0.07  N 
ATOM      8 H3   GLY F   1      -1.152  35.592 -22.291  1.00 49.95 LIG 0.27  HD
ATOM      9 H1   GLY F   1      -0.925  35.143 -23.655  1.00 49.95 LIG 0.27  HD
ATOM     10 H2   GLY F   1      -1.786  34.376 -22.771  1.00 49.95 LIG 0.27  HD
ENDBRANCH 6 7
ENDBRANCH 3 6
ENDBRANCH 1 2
BRANCH 1 11
ATOM     11  C   HIS F   2      -1.433  31.401 -19.274  1.00 50.00 LIG 0.24  C 
ATOM     12 O    HIS F   2      -2.005  32.393 -18.815  1.00 49.82 LIG-0.27  OA
ATOM     13  N   GLY F   3      -2.053  30.247 -19.514  1.00 50.02 LIG-0.35  N 
ATOM     14 H    GLY F   3      -1.655  29.544 -19.811  1.00 50.02 LIG 0.16  HD
BRANCH 13 15
ATOM     15  CA  GLY F   3      -3.482  30.074 -19.289  1.00 50.20 LIG 0.21  C 
BRANCH 15 16
ATOM     16  C   GLY F   3      -3.796  29.579 -17.891  1.00 50.42 LIG 0.21  C 
ATOM     17 O    GLY F   3      -4.279  28.460 -17.715  1.00 50.69 LIG-0.29  OA
ENDBRANCH 15 16
ENDBRANCH 13 15
ENDBRANCH 1 11
BRANCH 1 18
ATOM     18  CB  HIS F   2       0.899  31.473 -18.340  1.00 49.99 LIG 0.10  C 
BRANCH 18 19
ATOM     19  CG  HIS F   2       1.151  30.119 -17.752  1.00 50.63 LIG 0.06  A 
ATOM     20  CD2 HIS F   2       0.609  29.495 -16.677  1.00 51.31 LIG 0.14  A 
ATOM     21 NE2  HIS F   2       1.194  28.254 -16.589  1.00 51.32 LIG-0.25  NA
ATOM     22  CE1 HIS F   2       2.070  28.122 -17.571  1.00 50.87 LIG 0.23  A 
ATOM     23 ND1  HIS F   2       2.062  29.232 -18.288  1.00 50.82 LIG-0.24  NA
ENDBRANCH 18 19
ENDBRANCH 1 18
TORSDOF 8
ENDMDL
MODEL 7
USER: ADFR SOLUTION from run 63
USER: SCORE 7.058956 LL:  -1.324 LR:  -6.693 RR:   0.000 FEB:  -4.306
USER: RMSD 2.820364
USER: SEED 62
USER: STATUS no improvement in best in 18 clusters for 5 generations
USER: GENES 10
USER: genes 0 Translation |==|  0.49489 0.59637 0.48740
USER: genes 1 Rotation |==|  0.52508 0.54692 0.49269 0.99711
USER: genes 2 Torsion [C]-CA--N-[C] |==|  0.20659
USER: genes 3 Torsion [N]-C--CA-[N] |==|  0.48149
USER: genes 4 Torsion [C]-CA--N-[H3] |==|  0.14404
USER: genes 5 Torsion [N]-CA--C-[N] |==|  0.41187
USER: genes 6 Torsion [C]-N--CA-[C] |==|  0.54387
USER: genes 7 Torsion [N]-CA--C-[O] |==|  0.11224
USER: genes 8 Torsion [N]-CA--CB-[CG] |==|  0.54679
USER: genes 9 Torsion [CA]-CB--CG-[CD2] |==|  0.71146
ROOT
ATOM      1  CA  HIS F   2      -1.760  31.939 -19.273  1.00 49.99 LIG 0.18  C 
ENDROOT
BRANCH 1 2
ATOM      2  N   HIS F   2      -1.924  32.431 -20.641  1.00 49.83 LIG-0.35  N 
ATOM      3  C   GLY F   1      -1.511  33.640 -21.017  1.00 49.82 LIG 0.24  C 
ATOM      4 O    GLY F   1      -1.015  34.460 -20.239  1.00 49.53 LIG-0.27  OA
ATOM      5 H    HIS F   2      -2.306  31.874 -21.172  1.00 49.83 LIG 0.16  HD
BRANCH 3 6
ATOM      6  CA  GLY F   1      -1.689  33.974 -22.489  1.00 49.90 LIG 0.33  C 
BRANCH 6 7
ATOM      7  N   GLY F   1      -1.355  35.392 -22.815  1.00 49.95 LIG-0.07  N 
ATOM      8 H3   GLY F   1      -0.547  35.588 -22.497  1.00 49.95 LIG 0.27  HD
ATOM      9 H1   GLY F   1      -1.361  35.503 -23.698  1.00 49.95 LIG 0.27  HD
ATOM     10 H2   GLY F   1      -1.958  35.932 -22.445  1.00 49.95 LIG 0.27  HD
ENDBRANCH 6 7
ENDBRANCH 3 6
ENDBRANCH 1 2
BRANCH 1 11
ATOM     11  C   HIS F   2      -2.756  32.608 -18.328  1.00 50.00 LIG 0.24  C 
ATOM     12 O    HIS F   2      -3.141  33.763 -18.529  1.00 49.82 LIG-0.27  OA
ATOM     13  N   GLY F   3      -3.175  31.867 -17.305  1.00 50.02 LIG-0.35  N 
ATOM     14 H    GLY F   3      -2.893  31.070 -17.145  1.00 50.02 LIG 0.16  HD
BRANCH 13 15
ATOM     15  CA  GLY F   3      -4.166  32.352 -16.352  1.00 50.20 LIG 0.21  C 
BRANCH 15 16
ATOM     16  C   GLY F   3      -4.211  31.522 -15.084  1.00 50.42 LIG 0.21  C 
ATOM     17 O    GLY F   3      -3.172  31.112 -14.565  1.00 50.69 LIG-0.29  OA
ENDBRANCH 15 16
ENDBRANCH 13 15
ENDBRANCH 1 11
BRANCH 1 18
ATOM     18  CB  HIS F   2      -0.326  32.158 -18.786  1.00 49.99 LIG 0.10  C 
BRANCH 18 19
ATOM     19  CG  HIS F   2       0.033  31.344 -17.581  1.00 50.63 LIG 0.06  A 
ATOM     20  CD2 HIS F   2       0.161  31.687 -16.276  1.00 51.31 LIG 0.14  A 
ATOM     21 NE2  HIS F   2       0.499  30.546 -15.587  1.00 51.32 LIG-0.25  NA
ATOM     22  CE1 HIS F   2       0.583  29.539 -16.440  1.00 50.87 LIG 0.23  A 
ATOM     23 ND1  HIS F   2       0.305  29.993 -17.649  1.00 50.82 LIG-0.24  NA
ENDBRANCH 18 19
ENDBRANCH 1 18
TORSDOF 8
ENDMDL
MODEL 8
USER: ADFR SOLUTION from run 75
USER: SCORE 7.666890 LL:  -1.127 LR:  -6.546 RR:   0.000 FEB:  -4.159
USER: RMSD 3.617494
USER: SEED 74
USER: STATUS no improvement in best in 17 clusters for 5 generations
USER: GENES 10
USER: genes 0 Translation |==|  0.64201 0.58987 0.47970
USER: genes 1 Rotation |==|  0.62419 0.49148 0.49554 0.98423
USER: genes 2 Torsion [C]-CA--N-[C] |==|  0.81114
USER: genes 3 Torsion [N]-C--CA-[N] |==|  0.61920
USER: genes 4 Torsion [C]-CA--N-[H3] |==|  0.27446
USER: genes 5 Torsion [N]-CA--C-[N] |==|  0.38674
USER: genes 6 Torsion [C]-N--CA-[C] |==|  0.80578
USER: genes 7 Torsion [N]-CA--C-[O] |==|  0.58118
USER: genes 8 Torsion [N]-CA--CB-[CG] |==|  0.85714
USER: genes 9 Torsion [CA]-CB--CG-[CD2] |==|  0.93577
ROOT
ATOM      1  CA  HIS F   2       0.778  31.856 -19.400  1.00 49.99 LIG 0.18  C 
ENDROOT
BRANCH 1 2
ATOM      2  N   HIS F   2       0.921  32.843 -20.471  1.00 49.83 LIG-0.35  N 
ATOM      3  C   GLY F   1       0.031  32.962 -21.454  1.00 49.82 LIG 0.24  C 
ATOM      4 O    GLY F   1      -0.947  32.219 -21.576  1.00 49.53 LIG-0.27  OA
ATOM      5 H    HIS F   2       1.625  33.332 -20.405  1.00 49.83 LIG 0.16  HD
BRANCH 3 6
ATOM      6  CA  GLY F   1       0.285  34.082 -22.448  1.00 49.90 LIG 0.33  C 
BRANCH 6 7
ATOM      7  N   GLY F   1      -0.949  34.839 -22.811  1.00 49.95 LIG-0.07  N 
ATOM      8 H3   GLY F   1      -0.988  35.590 -22.335  1.00 49.95 LIG 0.27  HD
ATOM      9 H1   GLY F   1      -0.930  35.039 -23.678  1.00 49.95 LIG 0.27  HD
ATOM     10 H2   GLY F   1      -1.665  34.341 -22.638  1.00 49.95 LIG 0.27  HD
ENDBRANCH 6 7
ENDBRANCH 3 6
ENDBRANCH 1 2
BRANCH 1 11
ATOM     11  C   HIS F   2      -0.409  32.194 -18.499  1.00 50.00 LIG 0.24  C 
ATOM     12 O    HIS F   2      -0.647  33.360 -18.178  1.00 49.82 LIG-0.27  OA
ATOM     13  N   GLY F   3      -1.154  31.162 -18.108  1.00 50.02 LIG-0.35  N 
ATOM     14 H    GLY F   3      -0.980  30.344 -18.308  1.00 50.02 LIG 0.16  HD
BRANCH 13 15
ATOM     15  CA  GLY F   3      -2.350  31.336 -17.293  1.00 50.20 LIG 0.21  C 
BRANCH 15 16
ATOM     16  C   GLY F   3      -2.030  31.769 -15.875  1.00 50.42 LIG 0.21  C 
ATOM     17 O    GLY F   3      -2.773  31.463 -14.943  1.00 50.69 LIG-0.29  OA
ENDBRANCH 15 16
ENDBRANCH 13 15
ENDBRANCH 1 11
BRANCH 1 18
ATOM     18  CB  HIS F   2       2.065  31.757 -18.579  1.00 49.99 LIG 0.10  C 
BRANCH 18 19
ATOM     19  CG  HIS F   2       3.295  31.548 -19.406  1.00 50.63 LIG 0.06  A 
ATOM     20  CD2 HIS F   2       3.459  31.035 -20.651  1.00 51.31 LIG 0.14  A 
ATOM     21 NE2  HIS F   2       4.803  31.084 -20.936  1.00 51.32 LIG-0.25  NA
ATOM     22  CE1 HIS F   2       5.443  31.601 -19.902  1.00 50.87 LIG 0.23  A 
ATOM     23 ND1  HIS F   2       4.556  31.891 -18.966  1.00 50.82 LIG-0.24  NA
ENDBRANCH 18 19
ENDBRANCH 1 18
TORSDOF 8
ENDMDL
MODEL 9
USER: ADFR SOLUTION from run 157
USER: SCORE 7.550323 LL:  -1.041 LR:  -6.539 RR:   0.000 FEB:  -4.153
USER: RMSD 2.278607
USER: SEED 156
USER: STATUS no improvement in best in 13 clusters for 5 generations
USER: GENES 10
USER: genes 0 Translation |==|  0.47138 0.49048 0.64214
USER: genes 1 Rotation |==|  0.40523 0.59188 0.53753 0.98080
USER: genes 2 Torsion [C]-CA--N-[C] |==|  0.77942
USER: genes 3 Torsion [N]-C--CA-[N] |==|  0.15196
USER: genes 4 Torsion [C]-CA--N-[H3] |==|  0.58620
USER: genes 5 Torsion [N]-CA--C-[N] |==|  0.95000
USER: genes 6 Torsion [C]-N--CA-[C] |==|  0.40650
USER: genes 7 Torsion [N]-CA--C-[O] |==|  0.56026
USER: genes 8 Torsion [N]-CA--CB-[CG] |==|  0.75235
USER: genes 9 Torsion [CA]-CB--CG-[CD2] |==|  0.59933
ROOT
ATOM      1  CA  HIS F   2      -2.166  30.589 -16.720  1.00 49.99 LIG 0.18  C 
ENDROOT
BRANCH 1 2
ATOM      2  N   HIS F   2      -2.621  30.361 -18.092  1.00 49.83 LIG-0.35  N 
ATOM      3  C   GLY F   1      -3.527  29.434 -18.397  1.00 49.82 LIG 0.24  C 
ATOM      4 O    GLY F   1      -4.009  28.658 -17.567  1.00 49.53 LIG-0.27  OA
ATOM      5 H    HIS F   2      -2.254  30.876 -18.674  1.00 49.83 LIG 0.16  HD
BRANCH 3 6
ATOM      6  CA  GLY F   1      -3.947  29.371 -19.856  1.00 49.90 LIG 0.33  C 
BRANCH 6 7
ATOM      7  N   GLY F   1      -2.797  29.210 -20.793  1.00 49.95 LIG-0.07  N 
ATOM      8 H3   GLY F   1      -2.986  29.609 -21.566  1.00 49.95 LIG 0.27  HD
ATOM      9 H1   GLY F   1      -2.070  29.581 -20.438  1.00 49.95 LIG 0.27  HD
ATOM     10 H2   GLY F   1      -2.648  28.344 -20.935  1.00 49.95 LIG 0.27  HD
ENDBRANCH 6 7
ENDBRANCH 3 6
ENDBRANCH 1 2
BRANCH 1 11
ATOM     11  C   HIS F   2      -3.178  31.424 -15.938  1.00 50.00 LIG 0.24  C 
ATOM     12 O    HIS F   2      -3.151  31.460 -14.706  1.00 49.82 LIG-0.27  OA
ATOM     13  N   GLY F   3      -4.062  32.100 -16.669  1.00 50.02 LIG-0.35  N 
ATOM     14 H    GLY F   3      -4.102  32.060 -17.527  1.00 50.02 LIG 0.16  HD
BRANCH 13 15
ATOM     15  CA  GLY F   3      -5.053  32.981 -16.065  1.00 50.20 LIG 0.21  C 
BRANCH 15 16
ATOM     16  C   GLY F   3      -5.368  34.184 -16.931  1.00 50.42 LIG 0.21  C 
ATOM     17 O    GLY F   3      -5.853  35.204 -16.438  1.00 50.69 LIG-0.29  OA
ENDBRANCH 15 16
ENDBRANCH 13 15
ENDBRANCH 1 11
BRANCH 1 18
ATOM     18  CB  HIS F   2      -0.792  31.262 -16.710  1.00 49.99 LIG 0.10  C 
BRANCH 18 19
ATOM     19  CG  HIS F   2       0.354  30.297 -16.722  1.00 50.63 LIG 0.06  A 
ATOM     20  CD2 HIS F   2       1.570  30.345 -16.125  1.00 51.31 LIG 0.14  A 
ATOM     21 NE2  HIS F   2       2.232  29.188 -16.459  1.00 51.32 LIG-0.25  NA
ATOM     22  CE1 HIS F   2       1.454  28.458 -17.239  1.00 50.87 LIG 0.23  A 
ATOM     23 ND1  HIS F   2       0.314  29.104 -17.412  1.00 50.82 LIG-0.24  NA
ENDBRANCH 18 19
ENDBRANCH 1 18
TORSDOF 8
ENDMDL
MODEL 10
USER: ADFR SOLUTION from run 43
USER: SCORE 6.522167 LL:  -1.074 LR:  -6.501 RR:   0.000 FEB:  -4.115
USER: RMSD 1.638870
USER: SEED 42
USER: STATUS no improvement in best in 10 clusters for 5 generations
USER: GENES 10
USER: genes 0 Translation |==|  0.52047 0.43840 0.56754
USER: genes 1 Rotation |==|  0.49054 0.48607 0.51357 0.99953
USER: genes 2 Torsion [C]-CA--N-[C] |==|  0.20643
USER: genes 3 Torsion [N]-C--CA-[N] |==|  0.01209
USER: genes 4 Torsion [C]-CA--N-[H3] |==|  0.39783
USER: genes 5 Torsion [N]-CA--C-[N] |==|  0.36845
USER: genes 6 Torsion [C]-N--CA-[C] |==|  0.80454
USER: genes 7 Torsion [N]-CA--C-[O] |==|  0.96150
USER: genes 8 Torsion [N]-CA--CB-[CG] |==|  0.81010
USER: genes 9 Torsion [CA]-CB--CG-[CD2] |==|  0.71972
ROOT
ATOM      1  CA  HIS F   2      -1.319  29.925 -17.951  1.00 49.99 LIG 0.18  C 
ENDROOT
BRANCH 1 2
ATOM      2  N   HIS F   2      -1.170  30.228 -19.374  1.00 49.83 LIG-0.35  N 
ATOM      3  C   GLY F   1      -0.760  31.417 -19.810  1.00 49.82 LIG 0.24  C 
ATOM      4 O    GLY F   1      -0.530  32.371 -19.062  1.00 49.53 LIG-0.27  OA
ATOM      5 H    HIS F   2      -1.371  29.574 -19.895  1.00 49.83 LIG 0.16  HD
BRANCH 3 6
ATOM      6  CA  GLY F   1      -0.589  31.550 -21.314  1.00 49.90 LIG 0.33  C 
BRANCH 6 7
ATOM      7  N   GLY F   1      -1.015  30.333 -22.065  1.00 49.95 LIG-0.07  N 
ATOM      8 H3   GLY F   1      -1.400  30.576 -22.830  1.00 49.95 LIG 0.27  HD
ATOM      9 H1   GLY F   1      -0.304  29.827 -22.240  1.00 49.95 LIG 0.27  HD
ATOM     10 H2   GLY F   1      -1.595  29.869 -21.575  1.00 49.95 LIG 0.27  HD
ENDBRANCH 6 7
ENDBRANCH 3 6
ENDBRANCH 1 2
BRANCH 1 11
ATOM     11  C   HIS F   2      -2.561  30.602 -17.373  1.00 50.00 LIG 0.24  C 
ATOM     12 O    HIS F   2      -2.800  31.789 -17.608  1.00 49.82 LIG-0.27  OA
ATOM     13  N   GLY F   3      -3.349  29.832 -16.627  1.00 50.02 LIG-0.35  N 
ATOM     14 H    GLY F   3      -3.176  29.010 -16.439  1.00 50.02 LIG 0.16  HD
BRANCH 13 15
ATOM     15  CA  GLY F   3      -4.596  30.324 -16.056  1.00 50.20 LIG 0.21  C 
BRANCH 15 16
ATOM     16  C   GLY F   3      -4.370  31.326 -14.941  1.00 50.42 LIG 0.21  C 
ATOM     17 O    GLY F   3      -3.257  31.459 -14.432  1.00 50.69 LIG-0.29  OA
ENDBRANCH 15 16
ENDBRANCH 13 15
ENDBRANCH 1 11
BRANCH 1 18
ATOM     18  CB  HIS F   2      -0.069  30.343 -17.174  1.00 49.99 LIG 0.10  C 
BRANCH 18 19
ATOM     19  CG  HIS F   2       1.141  29.519 -17.489  1.00 50.63 LIG 0.06  A 
ATOM     20  CD2 HIS F   2       1.725  28.494 -16.820  1.00 51.31 LIG 0.14  A 
ATOM     21 NE2  HIS F   2       2.810  28.090 -17.562  1.00 51.32 LIG-0.25  NA
ATOM     22  CE1 HIS F   2       2.893  28.843 -18.645  1.00 50.87 LIG 0.23  A 
ATOM     23 ND1  HIS F   2       1.898  29.711 -18.626  1.00 50.82 LIG-0.24  NA
ENDBRANCH 18 19
ENDBRANCH 1 18
TORSDOF 8
ENDMDL
MODEL 11
USER: ADFR SOLUTION from run 10
USER: SCORE 7.499427 LL:  -1.415 LR:  -6.490 RR:   0.000 FEB:  -4.103
USER: RMSD 4.767828
USER: SEED 88774
USER: STATUS no improvement in best in 16 clusters for 5 generations
USER: GENES 10
USER: genes 0 Translation |==|  0.44577 0.54765 0.59895
USER: genes 1 Rotation |==|  0.88432 0.33501 0.22600 0.50155
USER: genes 2 Torsion [C]-CA--N-[C] |==|  0.64444
USER: genes 3 Torsion [N]-C--CA-[N] |==|  0.08444
USER: genes 4 Torsion [C]-CA--N-[H3] |==|  0.28824
USER: genes 5 Torsion [N]-CA--C-[N] |==|  0.91966
USER: genes 6 Torsion [C]-N--CA-[C] |==|  0.32434
USER: genes 7 Torsion [N]-CA--C-[O] |==|  0.20788
USER: genes 8 Torsion [N]-CA--CB-[CG] |==|  0.24693
USER: genes 9 Torsion [CA]-CB--CG-[CD2] |==|  0.28808
ROOT
ATOM      1  CA  HIS F   2      -2.608  31.317 -17.432  1.00 49.99 LIG 0.18  C 
ENDROOT
BRANCH 1 2
ATOM      2  N   HIS F   2      -1.571  30.492 -16.811  1.00 49.83 LIG-0.35  N 
ATOM      3  C   GLY F   1      -0.286  30.839 -16.816  1.00 49.82 LIG 0.24  C 
ATOM      4 O    GLY F   1       0.143  31.844 -17.391  1.00 49.53 LIG-0.27  OA
ATOM      5 H    HIS F   2      -1.867  29.772 -16.446  1.00 49.83 LIG 0.16  HD
BRANCH 3 6
ATOM      6  CA  GLY F   1       0.656  29.912 -16.066  1.00 49.90 LIG 0.33  C 
BRANCH 6 7
ATOM      7  N   GLY F   1       0.204  28.489 -16.065  1.00 49.95 LIG-0.07  N 
ATOM      8 H3   GLY F   1       0.691  28.022 -16.645  1.00 49.95 LIG 0.27  HD
ATOM      9 H1   GLY F   1       0.304  28.146 -15.250  1.00 49.95 LIG 0.27  HD
ATOM     10 H2   GLY F   1      -0.654  28.449 -16.299  1.00 49.95 LIG 0.27  HD
ENDBRANCH 6 7
ENDBRANCH 3 6
ENDBRANCH 1 2
BRANCH 1 11
ATOM     11  C   HIS F   2      -3.749  31.592 -16.455  1.00 50.00 LIG 0.24  C 
ATOM     12 O    HIS F   2      -4.425  32.619 -16.544  1.00 49.82 LIG-0.27  OA
ATOM     13  N   GLY F   3      -3.960  30.657 -15.530  1.00 50.02 LIG-0.35  N 
ATOM     14 H    GLY F   3      -3.477  29.950 -15.447  1.00 50.02 LIG 0.16  HD
BRANCH 13 15
ATOM     15  CA  GLY F   3      -5.047  30.755 -14.565  1.00 50.20 LIG 0.21  C 
BRANCH 15 16
ATOM     16  C   GLY F   3      -6.060  29.637 -14.712  1.00 50.42 LIG 0.21  C 
ATOM     17 O    GLY F   3      -5.798  28.497 -14.324  1.00 50.69 LIG-0.29  OA
ENDBRANCH 15 16
ENDBRANCH 13 15
ENDBRANCH 1 11
BRANCH 1 18
ATOM     18  CB  HIS F   2      -3.138  30.654 -18.705  1.00 49.99 LIG 0.10  C 
BRANCH 18 19
ATOM     19  CG  HIS F   2      -4.287  29.724 -18.467  1.00 50.63 LIG 0.06  A 
ATOM     20  CD2 HIS F   2      -5.617  29.871 -18.689  1.00 51.31 LIG 0.14  A 
ATOM     21 NE2  HIS F   2      -6.225  28.701 -18.300  1.00 51.32 LIG-0.25  NA
ATOM     22  CE1 HIS F   2      -5.304  27.868 -17.848  1.00 50.87 LIG 0.23  A 
ATOM     23 ND1  HIS F   2      -4.126  28.460 -17.940  1.00 50.82 LIG-0.24  NA
ENDBRANCH 18 19
ENDBRANCH 1 18
TORSDOF 8
ENDMDL
MODEL 12
USER: ADFR SOLUTION from run 118
USER: SCORE 7.453220 LL:  -1.291 LR:  -6.463 RR:   0.000 FEB:  -4.076
USER: RMSD 4.387611
USER: SEED 117
USER: STATUS no improvement in best in 18 clusters for 5 generations
USER: GENES 10
USER: genes 0 Translation |==|  0.57650 0.65404 0.52675
USER: genes 1 Rotation |==|  0.06508 0.66267 0.68127 0.53902
USER: genes 2 Torsion [C]-CA--N-[C] |==|  0.19045
USER: genes 3 Torsion [N]-C--CA-[N] |==|  0.47170
USER: genes 4 Torsion [C]-CA--N-[H3] |==|  0.60413
USER: genes 5 Torsion [N]-CA--C-[N] |==|  0.02311
USER: genes 6 Torsion [C]-N--CA-[C] |==|  0.42520
USER: genes 7 Torsion [N]-CA--C-[O] |==|  0.12772
USER: genes 8 Torsion [N]-CA--CB-[CG] |==|  0.63134
USER: genes 9 Torsion [CA]-CB--CG-[CD2] |==|  0.76751
ROOT
ATOM      1  CA  HIS F   2      -0.352  32.674 -18.624  1.00 49.99 LIG 0.18  C 
ENDROOT
BRANCH 1 2
ATOM      2  N   HIS F   2       0.297  31.830 -17.620  1.00 49.83 LIG-0.35  N 
ATOM      3  C   GLY F   1      -0.041  30.556 -17.434  1.00 49.82 LIG 0.24  C 
ATOM      4 O    GLY F   1      -0.960  30.002 -18.043  1.00 49.53 LIG-0.27  OA
ATOM      5 H    HIS F   2       0.910  32.230 -17.168  1.00 49.83 LIG 0.16  HD
BRANCH 3 6
ATOM      6  CA  GLY F   1       0.777  29.796 -16.403  1.00 49.90 LIG 0.33  C 
BRANCH 6 7
ATOM      7  N   GLY F   1       0.203  28.460 -16.065  1.00 49.95 LIG-0.07  N 
ATOM      8 H3   GLY F   1       0.314  28.300 -15.197  1.00 49.95 LIG 0.27  HD
ATOM      9 H1   GLY F   1      -0.666  28.452 -16.259  1.00 49.95 LIG 0.27  HD
ATOM     10 H2   GLY F   1       0.618  27.830 -16.538  1.00 49.95 LIG 0.27  HD
ENDBRANCH 6 7
ENDBRANCH 3 6
ENDBRANCH 1 2
BRANCH 1 11
ATOM     11  C   HIS F   2      -1.803  32.961 -18.241  1.00 50.00 LIG 0.24  C 
ATOM     12 O    HIS F   2      -2.568  33.517 -19.034  1.00 49.82 LIG-0.27  OA
ATOM     13  N   GLY F   3      -2.174  32.565 -17.026  1.00 50.02 LIG-0.35  N 
ATOM     14 H    GLY F   3      -1.640  32.199 -16.459  1.00 50.02 LIG 0.16  HD
BRANCH 13 15
ATOM     15  CA  GLY F   3      -3.540  32.722 -16.543  1.00 50.20 LIG 0.21  C 
BRANCH 15 16
ATOM     16  C   GLY F   3      -3.910  31.691 -15.495  1.00 50.42 LIG 0.21  C 
ATOM     17 O    GLY F   3      -3.143  31.439 -14.565  1.00 50.69 LIG-0.29  OA
ENDBRANCH 15 16
ENDBRANCH 13 15
ENDBRANCH 1 11
BRANCH 1 18
ATOM     18  CB  HIS F   2      -0.279  32.025 -20.007  1.00 49.99 LIG 0.10  C 
BRANCH 18 19
ATOM     19  CG  HIS F   2       0.166  32.958 -21.090  1.00 50.63 LIG 0.06  A 
ATOM     20  CD2 HIS F   2      -0.522  33.858 -21.834  1.00 51.31 LIG 0.14  A 
ATOM     21 NE2  HIS F   2       0.379  34.460 -22.680  1.00 51.32 LIG-0.25  NA
ATOM     22  CE1 HIS F   2       1.577  33.944 -22.468  1.00 50.87 LIG 0.23  A 
ATOM     23 ND1  HIS F   2       1.477  33.037 -21.512  1.00 50.82 LIG-0.24  NA
ENDBRANCH 18 19
ENDBRANCH 1 18
TORSDOF 8
ENDMDL
MODEL 13
USER: ADFR SOLUTION from run 102
USER: SCORE 7.389986 LL:  -1.126 LR:  -6.383 RR:   0.000 FEB:  -3.997
USER: RMSD 2.249375
USER: SEED 101
USER: STATUS no improvement in best in 11 clusters for 5 generations
USER: GENES 10
USER: genes 0 Translation |==|  0.43578 0.51514 0.64474
USER: genes 1 Rotation |==|  0.42600 0.55289 0.62781 0.97475
USER: genes 2 Torsion [C]-CA--N-[C] |==|  0.79150
USER: genes 3 Torsion [N]-C--CA-[N] |==|  0.24593
USER: genes 4 Torsion [C]-CA--N-[H3] |==|  0.55656
USER: genes 5 Torsion [N]-CA--C-[N] |==|  0.32778
USER: genes 6 Torsion [C]-N--CA-[C] |==|  0.33320
USER: genes 7 Torsion [N]-CA--C-[O] |==|  0.08807
USER: genes 8 Torsion [N]-CA--CB-[CG] |==|  0.71626
USER: genes 9 Torsion [CA]-CB--CG-[CD2] |==|  0.09116
ROOT
ATOM      1  CA  HIS F   2      -2.780  30.903 -16.677  1.00 49.99 LIG 0.18  C 
ENDROOT
BRANCH 1 2
ATOM      2  N   HIS F   2      -3.065  30.757 -18.105  1.00 49.83 LIG-0.35  N 
ATOM      3  C   GLY F   1      -3.639  29.667 -18.609  1.00 49.82 LIG 0.24  C 
ATOM      4 O    GLY F   1      -3.922  28.675 -17.931  1.00 49.53 LIG-0.27  OA
ATOM      5 H    HIS F   2      -2.830  31.433 -18.581  1.00 49.83 LIG 0.16  HD
BRANCH 3 6
ATOM      6  CA  GLY F   1      -3.933  29.700 -20.099  1.00 49.90 LIG 0.33  C 
BRANCH 6 7
ATOM      7  N   GLY F   1      -2.797  29.211 -20.934  1.00 49.95 LIG-0.07  N 
ATOM      8 H3   GLY F   1      -2.888  29.515 -21.766  1.00 49.95 LIG 0.27  HD
ATOM      9 H1   GLY F   1      -2.029  29.507 -20.593  1.00 49.95 LIG 0.27  HD
ATOM     10 H2   GLY F   1      -2.795  28.322 -20.942  1.00 49.95 LIG 0.27  HD
ENDBRANCH 6 7
ENDBRANCH 3 6
ENDBRANCH 1 2
BRANCH 1 11
ATOM     11  C   HIS F   2      -4.057  31.191 -15.890  1.00 50.00 LIG 0.24  C 
ATOM     12 O    HIS F   2      -4.722  32.205 -16.113  1.00 49.82 LIG-0.27  OA
ATOM     13  N   GLY F   3      -4.396  30.282 -14.978  1.00 50.02 LIG-0.35  N 
ATOM     14 H    GLY F   3      -3.924  29.585 -14.800  1.00 50.02 LIG 0.16  HD
BRANCH 13 15
ATOM     15  CA  GLY F   3      -5.616  30.394 -14.190  1.00 50.20 LIG 0.21  C 
BRANCH 15 16
ATOM     16  C   GLY F   3      -6.551  29.218 -14.393  1.00 50.42 LIG 0.21  C 
ATOM     17 O    GLY F   3      -6.105  28.095 -14.635  1.00 50.69 LIG-0.29  OA
ENDBRANCH 15 16
ENDBRANCH 13 15
ENDBRANCH 1 11
BRANCH 1 18
ATOM     18  CB  HIS F   2      -1.744  32.004 -16.441  1.00 49.99 LIG 0.10  C 
BRANCH 18 19
ATOM     19  CG  HIS F   2      -0.365  31.487 -16.168  1.00 50.63 LIG 0.06  A 
ATOM     20  CD2 HIS F   2       0.284  30.386 -16.621  1.00 51.31 LIG 0.14  A 
ATOM     21 NE2  HIS F   2       1.539  30.396 -16.062  1.00 51.32 LIG-0.25  NA
ATOM     22  CE1 HIS F   2       1.656  31.460 -15.287  1.00 50.87 LIG 0.23  A 
ATOM     23 ND1  HIS F   2       0.522  32.136 -15.335  1.00 50.82 LIG-0.24  NA
ENDBRANCH 18 19
ENDBRANCH 1 18
TORSDOF 8
ENDMDL
MODEL 14
USER: ADFR SOLUTION from run 106
USER: SCORE 7.527384 LL:  -1.201 LR:  -6.350 RR:   0.000 FEB:  -3.964
USER: RMSD 1.979124
USER: SEED 105
USER: STATUS no improvement in best in 9 clusters for 5 generations
USER: GENES 10
USER: genes 0 Translation |==|  0.54704 0.54702 0.61498
USER: genes 1 Rotation |==|  0.67142 0.42311 0.51314 0.96318
USER: genes 2 Torsion [C]-CA--N-[C] |==|  0.80494
USER: genes 3 Torsion [N]-C--CA-[N] |==|  0.51954
USER: genes 4 Torsion [C]-CA--N-[H3] |==|  0.17021
USER: genes 5 Torsion [N]-CA--C-[N] |==|  0.43039
USER: genes 6 Torsion [C]-N--CA-[C] |==|  0.39400
USER: genes 7 Torsion [N]-CA--C-[O] |==|  0.01122
USER: genes 8 Torsion [N]-CA--CB-[CG] |==|  0.73516
USER: genes 9 Torsion [CA]-CB--CG-[CD2] |==|  0.36038
ROOT
ATOM      1  CA  HIS F   2      -0.861  31.310 -17.168  1.00 49.99 LIG 0.18  C 
ENDROOT
BRANCH 1 2
ATOM      2  N   HIS F   2      -0.454  32.485 -17.939  1.00 49.83 LIG-0.35  N 
ATOM      3  C   GLY F   1      -1.005  32.794 -19.110  1.00 49.82 LIG 0.24  C 
ATOM      4 O    GLY F   1      -1.854  32.092 -19.666  1.00 49.53 LIG-0.27  OA
ATOM      5 H    HIS F   2       0.167  32.950 -17.568  1.00 49.83 LIG 0.16  HD
BRANCH 3 6
ATOM      6  CA  GLY F   1      -0.523  34.085 -19.751  1.00 49.90 LIG 0.33  C 
BRANCH 6 7
ATOM      7  N   GLY F   1      -1.295  34.460 -20.972  1.00 49.95 LIG-0.07  N 
ATOM      8 H3   GLY F   1      -2.149  34.588 -20.757  1.00 49.95 LIG 0.27  HD
ATOM      9 H1   GLY F   1      -0.961  35.210 -21.316  1.00 49.95 LIG 0.27  HD
ATOM     10 H2   GLY F   1      -1.236  33.807 -21.574  1.00 49.95 LIG 0.27  HD
ENDBRANCH 6 7
ENDBRANCH 3 6
ENDBRANCH 1 2
BRANCH 1 11
ATOM     11  C   HIS F   2      -2.263  31.493 -16.589  1.00 50.00 LIG 0.24  C 
ATOM     12 O    HIS F   2      -2.722  32.621 -16.392  1.00 49.82 LIG-0.27  OA
ATOM     13  N   GLY F   3      -2.937  30.375 -16.333  1.00 50.02 LIG-0.35  N 
ATOM     14 H    GLY F   3      -2.614  29.586 -16.446  1.00 50.02 LIG 0.16  HD
BRANCH 13 15
ATOM     15  CA  GLY F   3      -4.305  30.394 -15.831  1.00 50.20 LIG 0.21  C 
BRANCH 15 16
ATOM     16  C   GLY F   3      -5.161  29.295 -16.430  1.00 50.42 LIG 0.21  C 
ATOM     17 O    GLY F   3      -4.670  28.460 -17.190  1.00 50.69 LIG-0.29  OA
ENDBRANCH 15 16
ENDBRANCH 13 15
ENDBRANCH 1 11
BRANCH 1 18
ATOM     18  CB  HIS F   2       0.146  31.017 -16.054  1.00 49.99 LIG 0.10  C 
BRANCH 18 19
ATOM     19  CG  HIS F   2       1.180  30.000 -16.426  1.00 50.63 LIG 0.06  A 
ATOM     20  CD2 HIS F   2       2.532  30.021 -16.329  1.00 51.31 LIG 0.14  A 
ATOM     21 NE2  HIS F   2       2.993  28.818 -16.806  1.00 51.32 LIG-0.25  NA
ATOM     22  CE1 HIS F   2       1.962  28.085 -17.190  1.00 50.87 LIG 0.23  A 
ATOM     23 ND1  HIS F   2       0.857  28.774 -16.970  1.00 50.82 LIG-0.24  NA
ENDBRANCH 18 19
ENDBRANCH 1 18
TORSDOF 8
ENDMDL
MODEL 15
USER: ADFR SOLUTION from run 52
USER: SCORE 7.477522 LL:  -1.201 LR:  -6.339 RR:   0.000 FEB:  -3.953
USER: RMSD 3.913848
USER: SEED 51
USER: STATUS no improvement in best in 17 clusters for 5 generations
USER: GENES 10
USER: genes 0 Translation |==|  0.46323 0.64034 0.63226
USER: genes 1 Rotation |==|  0.12103 0.53184 0.77245 0.67647
USER: genes 2 Torsion [C]-CA--N-[C] |==|  0.69446
USER: genes 3 Torsion [N]-C--CA-[N] |==|  0.90068
USER: genes 4 Torsion [C]-CA--N-[H3] |==|  0.35328
USER: genes 5 Torsion [N]-CA--C-[N] |==|  0.02529
USER: genes 6 Torsion [C]-N--CA-[C] |==|  0.29344
USER: genes 7 Torsion [N]-CA--C-[O] |==|  0.08117
USER: genes 8 Torsion [N]-CA--CB-[CG] |==|  0.89329
USER: genes 9 Torsion [CA]-CB--CG-[CD2] |==|  0.90938
ROOT
ATOM      1  CA  HIS F   2      -2.306  32.499 -16.883  1.00 49.99 LIG 0.18  C 
ENDROOT
BRANCH 1 2
ATOM      2  N   HIS F   2      -1.333  31.407 -16.899  1.00 49.83 LIG-0.35  N 
ATOM      3  C   GLY F   1      -0.274  31.384 -16.093  1.00 49.82 LIG 0.24  C 
ATOM      4 O    GLY F   1       0.006  32.300 -15.315  1.00 49.53 LIG-0.27  OA
ATOM      5 H    HIS F   2      -1.508  30.789 -17.471  1.00 49.83 LIG 0.16  HD
BRANCH 3 6
ATOM      6  CA  GLY F   1       0.602  30.146 -16.182  1.00 49.90 LIG 0.33  C 
BRANCH 6 7
ATOM      7  N   GLY F   1      -0.172  28.893 -16.429  1.00 49.95 LIG-0.07  N 
ATOM      8 H3   GLY F   1       0.167  28.469 -17.134  1.00 49.95 LIG 0.27  HD
ATOM      9 H1   GLY F   1      -0.121  28.367 -15.713  1.00 49.95 LIG 0.27  HD
ATOM     10 H2   GLY F   1      -1.024  29.097 -16.587  1.00 49.95 LIG 0.27  HD
ENDBRANCH 6 7
ENDBRANCH 3 6
ENDBRANCH 1 2
BRANCH 1 11
ATOM     11  C   HIS F   2      -3.642  32.034 -16.305  1.00 50.00 LIG 0.24  C 
ATOM     12 O    HIS F   2      -4.642  32.753 -16.367  1.00 49.82 LIG-0.27  OA
ATOM     13  N   GLY F   3      -3.646  30.822 -15.754  1.00 50.02 LIG-0.35  N 
ATOM     14 H    GLY F   3      -2.947  30.326 -15.685  1.00 50.02 LIG 0.16  HD
BRANCH 13 15
ATOM     15  CA  GLY F   3      -4.859  30.224 -15.211  1.00 50.20 LIG 0.21  C 
BRANCH 15 16
ATOM     16  C   GLY F   3      -5.418  29.130 -16.101  1.00 50.42 LIG 0.21  C 
ATOM     17 O    GLY F   3      -4.672  28.461 -16.816  1.00 50.69 LIG-0.29  OA
ENDBRANCH 15 16
ENDBRANCH 13 15
ENDBRANCH 1 11
BRANCH 1 18
ATOM     18  CB  HIS F   2      -2.500  33.074 -18.287  1.00 49.99 LIG 0.10  C 
BRANCH 18 19
ATOM     19  CG  HIS F   2      -1.236  33.154 -19.086  1.00 50.63 LIG 0.06  A 
ATOM     20  CD2 HIS F   2       0.048  33.375 -18.710  1.00 51.31 LIG 0.14  A 
ATOM     21 NE2  HIS F   2       0.818  33.335 -19.849  1.00 51.32 LIG-0.25  NA
ATOM     22  CE1 HIS F   2       0.035  33.105 -20.888  1.00 50.87 LIG 0.23  A 
ATOM     23 ND1  HIS F   2      -1.209  32.990 -20.455  1.00 50.82 LIG-0.24  NA
ENDBRANCH 18 19
ENDBRANCH 1 18
TORSDOF 8
ENDMDL
MODEL 16
USER: ADFR SOLUTION from run 164
USER: SCORE 7.360213 LL:  -1.115 LR:  -6.290 RR:   0.000 FEB:  -3.903
USER: RMSD 1.530471
USER: SEED 163
USER: STATUS no improvement in best in 18 clusters for 5 generations
USER: GENES 10
USER: genes 0 Translation |==|  0.53578 0.54287 0.65070
USER: genes 1 Rotation |==|  0.47768 0.45687 0.53831 0.99616
USER: genes 2 Torsion [C]-CA--N-[C] |==|  0.78549
USER: genes 3 Torsion [N]-C--CA-[N] |==|  0.48888
USER: genes 4 Torsion [C]-CA--N-[H3] |==|  0.00624
USER: genes 5 Torsion [N]-CA--C-[N] |==|  0.39000
USER: genes 6 Torsion [C]-N--CA-[C] |==|  0.37742
USER: genes 7 Torsion [N]-CA--C-[O] |==|  0.33529
USER: genes 8 Torsion [N]-CA--CB-[CG] |==|  0.80037
USER: genes 9 Torsion [CA]-CB--CG-[CD2] |==|  0.99425
ROOT
ATOM      1  CA  HIS F   2      -1.055  31.257 -16.578  1.00 49.99 LIG 0.18  C 
ENDROOT
BRANCH 1 2
ATOM      2  N   HIS F   2      -0.768  31.509 -17.991  1.00 49.83 LIG-0.35  N 
ATOM      3  C   GLY F   1      -1.324  30.797 -18.969  1.00 49.82 LIG 0.24  C 
ATOM      4 O    GLY F   1      -2.073  29.837 -18.767  1.00 49.53 LIG-0.27  OA
ATOM      5 H    HIS F   2      -0.215  32.152 -18.127  1.00 49.83 LIG 0.16  HD
BRANCH 3 6
ATOM      6  CA  GLY F   1      -0.980  31.230 -20.384  1.00 49.90 LIG 0.33  C 
BRANCH 6 7
ATOM      7  N   GLY F   1      -1.557  30.335 -21.431  1.00 49.95 LIG-0.07  N 
ATOM      8 H3   GLY F   1      -2.044  29.700 -21.042  1.00 49.95 LIG 0.27  HD
ATOM      9 H1   GLY F   1      -2.072  30.812 -21.978  1.00 49.95 LIG 0.27  HD
ATOM     10 H2   GLY F   1      -0.898  29.960 -21.897  1.00 49.95 LIG 0.27  HD
ENDBRANCH 6 7
ENDBRANCH 3 6
ENDBRANCH 1 2
BRANCH 1 11
ATOM     11  C   HIS F   2      -2.416  31.828 -16.185  1.00 50.00 LIG 0.24  C 
ATOM     12 O    HIS F   2      -2.798  32.913 -16.630  1.00 49.82 LIG-0.27  OA
ATOM     13  N   GLY F   3      -3.144  31.081 -15.358  1.00 50.02 LIG-0.35  N 
ATOM     14 H    GLY F   3      -2.873  30.335 -15.026  1.00 50.02 LIG 0.16  HD
BRANCH 13 15
ATOM     15  CA  GLY F   3      -4.484  31.471 -14.940  1.00 50.20 LIG 0.21  C 
BRANCH 15 16
ATOM     16  C   GLY F   3      -5.466  30.316 -14.979  1.00 50.42 LIG 0.21  C 
ATOM     17 O    GLY F   3      -6.057  29.959 -13.959  1.00 50.69 LIG-0.29  OA
ENDBRANCH 15 16
ENDBRANCH 13 15
ENDBRANCH 1 11
BRANCH 1 18
ATOM     18  CB  HIS F   2       0.048  31.835 -15.690  1.00 49.99 LIG 0.10  C 
BRANCH 18 19
ATOM     19  CG  HIS F   2       1.337  31.076 -15.756  1.00 50.63 LIG 0.06  A 
ATOM     20  CD2 HIS F   2       1.680  29.953 -16.433  1.00 51.31 LIG 0.14  A 
ATOM     21 NE2  HIS F   2       2.999  29.692 -16.146  1.00 51.32 LIG-0.25  NA
ATOM     22  CE1 HIS F   2       3.448  30.617 -15.316  1.00 50.87 LIG 0.23  A 
ATOM     23 ND1  HIS F   2       2.467  31.465 -15.066  1.00 50.82 LIG-0.24  NA
ENDBRANCH 18 19
ENDBRANCH 1 18
TORSDOF 8
ENDMDL
MODEL 17
USER: ADFR SOLUTION from run 81
USER: SCORE 7.449455 LL:  -1.300 LR:  -6.168 RR:   0.000 FEB:  -3.782
USER: RMSD 4.235345
USER: SEED 80
USER: STATUS no improvement in best in 17 clusters for 5 generations
USER: GENES 10
USER: genes 0 Translation |==|  0.45083 0.58533 0.45402
USER: genes 1 Rotation |==|  0.68058 0.50880 0.21031 0.86523
USER: genes 2 Torsion [C]-CA--N-[C] |==|  0.80376
USER: genes 3 Torsion [N]-C--CA-[N] |==|  0.46591
USER: genes 4 Torsion [C]-CA--N-[H3] |==|  0.41075
USER: genes 5 Torsion [N]-CA--C-[N] |==|  0.42778
USER: genes 6 Torsion [C]-N--CA-[C] |==|  0.65999
USER: genes 7 Torsion [N]-CA--C-[O] |==|  0.27259
USER: genes 8 Torsion [N]-CA--CB-[CG] |==|  0.52874
USER: genes 9 Torsion [CA]-CB--CG-[CD2] |==|  0.77434
ROOT
ATOM      1  CA  HIS F   2      -2.520  31.798 -19.824  1.00 49.99 LIG 0.18  C 
ENDROOT
BRANCH 1 2
ATOM      2  N   HIS F   2      -1.633  32.526 -20.731  1.00 49.83 LIG-0.35  N 
ATOM      3  C   GLY F   1      -1.936  33.732 -21.208  1.00 49.82 LIG 0.24  C 
ATOM      4 O    GLY F   1      -3.003  34.305 -20.975  1.00 49.53 LIG-0.27  OA
ATOM      5 H    HIS F   2      -0.908  32.107 -20.925  1.00 49.83 LIG 0.16  HD
BRANCH 3 6
ATOM      6  CA  GLY F   1      -0.878  34.385 -22.081  1.00 49.90 LIG 0.33  C 
BRANCH 6 7
ATOM      7  N   GLY F   1      -1.379  35.585 -22.815  1.00 49.95 LIG-0.07  N 
ATOM      8 H3   GLY F   1      -0.716  36.171 -22.914  1.00 49.95 LIG 0.27  HD
ATOM      9 H1   GLY F   1      -1.679  35.339 -23.616  1.00 49.95 LIG 0.27  HD
ATOM     10 H2   GLY F   1      -2.040  35.961 -22.354  1.00 49.95 LIG 0.27  HD
ENDBRANCH 6 7
ENDBRANCH 3 6
ENDBRANCH 1 2
BRANCH 1 11
ATOM     11  C   HIS F   2      -2.549  32.454 -18.444  1.00 50.00 LIG 0.24  C 
ATOM     12 O    HIS F   2      -1.599  33.131 -18.046  1.00 49.82 LIG-0.27  OA
ATOM     13  N   GLY F   3      -3.654  32.253 -17.728  1.00 50.02 LIG-0.35  N 
ATOM     14 H    GLY F   3      -4.310  31.762 -17.990  1.00 50.02 LIG 0.16  HD
BRANCH 13 15
ATOM     15  CA  GLY F   3      -3.847  32.861 -16.418  1.00 50.20 LIG 0.21  C 
BRANCH 15 16
ATOM     16  C   GLY F   3      -4.095  31.834 -15.331  1.00 50.42 LIG 0.21  C 
ATOM     17 O    GLY F   3      -3.178  31.460 -14.599  1.00 50.69 LIG-0.29  OA
ENDBRANCH 15 16
ENDBRANCH 13 15
ENDBRANCH 1 11
BRANCH 1 18
ATOM     18  CB  HIS F   2      -2.097  30.332 -19.713  1.00 49.99 LIG 0.10  C 
BRANCH 18 19
ATOM     19  CG  HIS F   2      -3.092  29.468 -19.001  1.00 50.63 LIG 0.06  A 
ATOM     20  CD2 HIS F   2      -3.323  29.273 -17.680  1.00 51.31 LIG 0.14  A 
ATOM     21 NE2  HIS F   2      -4.365  28.381 -17.577  1.00 51.32 LIG-0.25  NA
ATOM     22  CE1 HIS F   2      -4.755  28.036 -18.791  1.00 50.87 LIG 0.23  A 
ATOM     23 ND1  HIS F   2      -4.005  28.679 -19.669  1.00 50.82 LIG-0.24  NA
ENDBRANCH 18 19
ENDBRANCH 1 18
TORSDOF 8
ENDMDL
MODEL 18
USER: ADFR SOLUTION from run 104
USER: SCORE 7.053335 LL:  -1.094 LR:  -6.164 RR:   0.000 FEB:  -3.777
USER: RMSD 2.993752
USER: SEED 103
USER: STATUS no improvement in best in 21 clusters for 5 generations
USER: GENES 10
USER: genes 0 Translation |==|  0.55479 0.42962 0.55408
USER: genes 1 Rotation |==|  0.72016 0.34705 0.57990 0.91443
USER: genes 2 Torsion [C]-CA--N-[C] |==|  0.74557
USER: genes 3 Torsion [N]-C--CA-[N] |==|  0.07004
USER: genes 4 Torsion [C]-CA--N-[H3] |==|  0.27329
USER: genes 5 Torsion [N]-CA--C-[N] |==|  0.26667
USER: genes 6 Torsion [C]-N--CA-[C] |==|  0.78651
USER: genes 7 Torsion [N]-CA--C-[O] |==|  0.16760
USER: genes 8 Torsion [N]-CA--CB-[CG] |==|  0.80035
USER: genes 9 Torsion [CA]-CB--CG-[CD2] |==|  0.77411
ROOT
ATOM      1  CA  HIS F   2      -0.727  29.813 -18.173  1.00 49.99 LIG 0.18  C 
ENDROOT
BRANCH 1 2
ATOM      2  N   HIS F   2      -0.329  31.183 -18.497  1.00 49.83 LIG-0.35  N 
ATOM      3  C   GLY F   1      -0.066  31.572 -19.743  1.00 49.82 LIG 0.24  C 
ATOM      4 O    GLY F   1      -0.078  30.806 -20.710  1.00 49.53 LIG-0.27  OA
ATOM      5 H    HIS F   2      -0.281  31.705 -17.816  1.00 49.83 LIG 0.16  HD
BRANCH 3 6
ATOM      6  CA  GLY F   1       0.264  33.045 -19.923  1.00 49.90 LIG 0.33  C 
BRANCH 6 7
ATOM      7  N   GLY F   1       0.817  33.679 -18.690  1.00 49.95 LIG-0.07  N 
ATOM      8 H3   GLY F   1       1.705  33.710 -18.745  1.00 49.95 LIG 0.27  HD
ATOM      9 H1   GLY F   1       0.496  34.505 -18.611  1.00 49.95 LIG 0.27  HD
ATOM     10 H2   GLY F   1       0.581  33.200 -17.978  1.00 49.95 LIG 0.27  HD
ENDBRANCH 6 7
ENDBRANCH 3 6
ENDBRANCH 1 2
BRANCH 1 11
ATOM     11  C   HIS F   2      -2.247  29.666 -18.190  1.00 50.00 LIG 0.24  C 
ATOM     12 O    HIS F   2      -2.923  29.974 -17.206  1.00 49.82 LIG-0.27  OA
ATOM     13  N   GLY F   3      -2.774  29.204 -19.322  1.00 50.02 LIG-0.35  N 
ATOM     14 H    GLY F   3      -2.307  28.964 -20.003  1.00 50.02 LIG 0.16  HD
BRANCH 13 15
ATOM     15  CA  GLY F   3      -4.213  29.063 -19.505  1.00 50.20 LIG 0.21  C 
BRANCH 15 16
ATOM     16  C   GLY F   3      -4.775  27.847 -18.794  1.00 50.42 LIG 0.21  C 
ATOM     17 O    GLY F   3      -4.673  27.732 -17.572  1.00 50.69 LIG-0.29  OA
ENDBRANCH 15 16
ENDBRANCH 13 15
ENDBRANCH 1 11
BRANCH 1 18
ATOM     18  CB  HIS F   2      -0.162  29.391 -16.815  1.00 49.99 LIG 0.10  C 
BRANCH 18 19
ATOM     19  CG  HIS F   2       1.317  29.157 -16.823  1.00 50.63 LIG 0.06  A 
ATOM     20  CD2 HIS F   2       2.051  28.086 -17.213  1.00 51.31 LIG 0.14  A 
ATOM     21 NE2  HIS F   2       3.374  28.406 -17.017  1.00 51.32 LIG-0.25  NA
ATOM     22  CE1 HIS F   2       3.450  29.628 -16.519  1.00 50.87 LIG 0.23  A 
ATOM     23 ND1  HIS F   2       2.224  30.104 -16.393  1.00 50.82 LIG-0.24  NA
ENDBRANCH 18 19
ENDBRANCH 1 18
TORSDOF 8
ENDMDL
MODEL 19
USER: ADFR SOLUTION from run 164
USER: SCORE 7.470846 LL:  -1.363 LR:  -6.160 RR:   0.000 FEB:  -3.774
USER: RMSD 3.336404
USER: SEED 163
USER: STATUS no improvement in best in 18 clusters for 5 generations
USER: GENES 10
USER: genes 0 Translation |==|  0.57707 0.67181 0.55823
USER: genes 1 Rotation |==|  0.04870 0.57684 0.67073 0.60618
USER: genes 2 Torsion [C]-CA--N-[C] |==|  0.14499
USER: genes 3 Torsion [N]-C--CA-[N] |==|  0.41171
USER: genes 4 Torsion [C]-CA--N-[H3] |==|  0.99775
USER: genes 5 Torsion [N]-CA--C-[N] |==|  0.11928
USER: genes 6 Torsion [C]-N--CA-[C] |==|  0.39999
USER: genes 7 Torsion [N]-CA--C-[O] |==|  0.06162
USER: genes 8 Torsion [N]-CA--CB-[CG] |==|  0.95112
USER: genes 9 Torsion [CA]-CB--CG-[CD2] |==|  0.36728
ROOT
ATOM      1  CA  HIS F   2      -0.343  32.901 -18.104  1.00 49.99 LIG 0.18  C 
ENDROOT
BRANCH 1 2
ATOM      2  N   HIS F   2       0.353  31.894 -17.302  1.00 49.83 LIG-0.35  N 
ATOM      3  C   GLY F   1       0.072  30.596 -17.387  1.00 49.82 LIG 0.24  C 
ATOM      4 O    GLY F   1      -0.830  30.143 -18.098  1.00 49.53 LIG-0.27  OA
ATOM      5 H    HIS F   2       0.953  32.216 -16.777  1.00 49.83 LIG 0.16  HD
BRANCH 3 6
ATOM      6  CA  GLY F   1       0.932  29.672 -16.541  1.00 49.90 LIG 0.33  C 
BRANCH 6 7
ATOM      7  N   GLY F   1       0.203  28.460 -16.065  1.00 49.95 LIG-0.07  N 
ATOM      8 H3   GLY F   1      -0.638  28.487 -16.354  1.00 49.95 LIG 0.27  HD
ATOM      9 H1   GLY F   1       0.602  27.730 -16.382  1.00 49.95 LIG 0.27  HD
ATOM     10 H2   GLY F   1       0.210  28.439 -15.175  1.00 49.95 LIG 0.27  HD
ENDBRANCH 6 7
ENDBRANCH 3 6
ENDBRANCH 1 2
BRANCH 1 11
ATOM     11  C   HIS F   2      -1.857  32.763 -17.962  1.00 50.00 LIG 0.24  C 
ATOM     12 O    HIS F   2      -2.595  32.839 -18.947  1.00 49.82 LIG-0.27  OA
ATOM     13  N   GLY F   3      -2.308  32.548 -16.728  1.00 50.02 LIG-0.35  N 
ATOM     14 H    GLY F   3      -1.802  32.518 -16.033  1.00 50.02 LIG 0.16  HD
BRANCH 13 15
ATOM     15  CA  GLY F   3      -3.723  32.342 -16.446  1.00 50.20 LIG 0.21  C 
BRANCH 15 16
ATOM     16  C   GLY F   3      -3.955  31.334 -15.337  1.00 50.42 LIG 0.21  C 
ATOM     17 O    GLY F   3      -3.072  31.090 -14.515  1.00 50.69 LIG-0.29  OA
ENDBRANCH 15 16
ENDBRANCH 13 15
ENDBRANCH 1 11
BRANCH 1 18
ATOM     18  CB  HIS F   2       0.070  32.802 -19.574  1.00 49.99 LIG 0.10  C 
BRANCH 18 19
ATOM     19  CG  HIS F   2       1.339  32.038 -19.795  1.00 50.63 LIG 0.06  A 
ATOM     20  CD2 HIS F   2       1.647  31.049 -20.670  1.00 51.31 LIG 0.14  A 
ATOM     21 NE2  HIS F   2       2.962  30.710 -20.454  1.00 51.32 LIG-0.25  NA
ATOM     22  CE1 HIS F   2       3.442  31.459 -19.476  1.00 50.87 LIG 0.23  A 
ATOM     23 ND1  HIS F   2       2.485  32.270 -19.063  1.00 50.82 LIG-0.24  NA
ENDBRANCH 18 19
ENDBRANCH 1 18
TORSDOF 8
ENDMDL
MODEL 20
USER: ADFR SOLUTION from run 63
USER: SCORE 7.343616 LL:  -1.282 LR:  -6.155 RR:   0.000 FEB:  -3.768
USER: RMSD 2.586768
USER: SEED 62
USER: STATUS no improvement in best in 18 clusters for 5 generations
USER: GENES 10
USER: genes 0 Translation |==|  0.49332 0.44051 0.59865
USER: genes 1 Rotation |==|  0.35904 0.59041 0.50915 0.97103
USER: genes 2 Torsion [C]-CA--N-[C] |==|  0.82559
USER: genes 3 Torsion [N]-C--CA-[N] |==|  0.97403
USER: genes 4 Torsion [C]-CA--N-[H3] |==|  0.00239
USER: genes 5 Torsion [N]-CA--C-[N] |==|  0.33889
USER: genes 6 Torsion [C]-N--CA-[C] |==|  0.32223
USER: genes 7 Torsion [N]-CA--C-[O] |==|  0.18289
USER: genes 8 Torsion [N]-CA--CB-[CG] |==|  0.15638
USER: genes 9 Torsion [CA]-CB--CG-[CD2] |==|  0.27882
ROOT
ATOM      1  CA  HIS F   2      -1.787  29.952 -17.437  1.00 49.99 LIG 0.18  C 
ENDROOT
BRANCH 1 2
ATOM      2  N   HIS F   2      -2.222  29.478 -18.752  1.00 49.83 LIG-0.35  N 
ATOM      3  C   GLY F   1      -3.374  28.835 -18.932  1.00 49.82 LIG 0.24  C 
ATOM      4 O    GLY F   1      -4.135  28.535 -18.008  1.00 49.53 LIG-0.27  OA
ATOM      5 H    HIS F   2      -1.671  29.653 -19.388  1.00 49.83 LIG 0.16  HD
BRANCH 3 6
ATOM      6  CA  GLY F   1      -3.715  28.473 -20.368  1.00 49.90 LIG 0.33  C 
BRANCH 6 7
ATOM      7  N   GLY F   1      -2.798  29.097 -21.366  1.00 49.95 LIG-0.07  N 
ATOM      8 H3   GLY F   1      -2.182  29.580 -20.942  1.00 49.95 LIG 0.27  HD
ATOM      9 H1   GLY F   1      -2.399  28.460 -21.843  1.00 49.95 LIG 0.27  HD
ATOM     10 H2   GLY F   1      -3.265  29.625 -21.910  1.00 49.95 LIG 0.27  HD
ENDBRANCH 6 7
ENDBRANCH 3 6
ENDBRANCH 1 2
BRANCH 1 11
ATOM     11  C   HIS F   2      -2.755  30.995 -16.884  1.00 50.00 LIG 0.24  C 
ATOM     12 O    HIS F   2      -3.001  32.027 -17.514  1.00 49.82 LIG-0.27  OA
ATOM     13  N   GLY F   3      -3.308  30.710 -15.707  1.00 50.02 LIG-0.35  N 
ATOM     14 H    GLY F   3      -3.122  30.005 -15.251  1.00 50.02 LIG 0.16  HD
BRANCH 13 15
ATOM     15  CA  GLY F   3      -4.291  31.585 -15.081  1.00 50.20 LIG 0.21  C 
BRANCH 15 16
ATOM     16  C   GLY F   3      -5.650  30.927 -14.940  1.00 50.42 LIG 0.21  C 
ATOM     17 O    GLY F   3      -5.804  29.958 -14.197  1.00 50.69 LIG-0.29  OA
ENDBRANCH 15 16
ENDBRANCH 13 15
ENDBRANCH 1 11
BRANCH 1 18
ATOM     18  CB  HIS F   2      -0.368  30.519 -17.508  1.00 49.99 LIG 0.10  C 
BRANCH 18 19
ATOM     19  CG  HIS F   2      -0.206  31.619 -18.511  1.00 50.63 LIG 0.06  A 
ATOM     20  CD2 HIS F   2      -0.168  32.966 -18.363  1.00 51.31 LIG 0.14  A 
ATOM     21 NE2  HIS F   2       0.011  33.507 -19.614  1.00 51.32 LIG-0.25  NA
ATOM     22  CE1 HIS F   2       0.072  32.529 -20.500  1.00 50.87 LIG 0.23  A 
ATOM     23 ND1  HIS F   2      -0.054  31.379 -19.861  1.00 50.82 LIG-0.24  NA
ENDBRANCH 18 19
ENDBRANCH 1 18
TORSDOF 8
ENDMDL
MODEL 21
USER: ADFR SOLUTION from run 62
USER: SCORE 7.032699 LL:  -1.045 LR:  -6.082 RR:   0.000 FEB:  -3.695
USER: RMSD 3.348739
USER: SEED 61
USER: STATUS no improvement in best in 16 clusters for 5 generations
USER: GENES 10
USER: genes 0 Translation |==|  0.66831 0.47050 0.51955
USER: genes 1 Rotation |==|  0.46200 0.57628 0.64816 0.96988
USER: genes 2 Torsion [C]-CA--N-[C] |==|  0.17778
USER: genes 3 Torsion [N]-C--CA-[N] |==|  0.13208
USER: genes 4 Torsion [C]-CA--N-[H3] |==|  0.78951
USER: genes 5 Torsion [N]-CA--C-[N] |==|  0.09038
USER: genes 6 Torsion [C]-N--CA-[C] |==|  0.45978
USER: genes 7 Torsion [N]-CA--C-[O] |==|  0.28614
USER: genes 8 Torsion [N]-CA--CB-[CG] |==|  0.82863
USER: genes 9 Torsion [CA]-CB--CG-[CD2] |==|  0.12832
ROOT
ATOM      1  CA  HIS F   2       1.231  30.334 -18.742  1.00 49.99 LIG 0.18  C 
ENDROOT
BRANCH 1 2
ATOM      2  N   HIS F   2       0.753  30.335 -20.125  1.00 49.83 LIG-0.35  N 
ATOM      3  C   GLY F   1       0.134  31.383 -20.664  1.00 49.82 LIG 0.24  C 
ATOM      4 O    GLY F   1      -0.137  32.408 -20.033  1.00 49.53 LIG-0.27  OA
ATOM      5 H    HIS F   2       0.907  29.604 -20.551  1.00 49.83 LIG 0.16  HD
BRANCH 3 6
ATOM      6  CA  GLY F   1      -0.237  31.253 -22.132  1.00 49.90 LIG 0.33  C 
BRANCH 6 7
ATOM      7  N   GLY F   1      -0.907  29.960 -22.457  1.00 49.95 LIG-0.07  N 
ATOM      8 H3   GLY F   1      -0.302  29.308 -22.478  1.00 49.95 LIG 0.27  HD
ATOM      9 H1   GLY F   1      -1.518  29.777 -21.836  1.00 49.95 LIG 0.27  HD
ATOM     10 H2   GLY F   1      -1.303  30.022 -23.252  1.00 49.95 LIG 0.27  HD
ENDBRANCH 6 7
ENDBRANCH 3 6
ENDBRANCH 1 2
BRANCH 1 11
ATOM     11  C   HIS F   2       0.067  30.451 -17.760  1.00 50.00 LIG 0.24  C 
ATOM     12 O    HIS F   2       0.201  31.049 -16.690  1.00 49.82 LIG-0.27  OA
ATOM     13  N   GLY F   3      -1.075  29.884 -18.142  1.00 50.02 LIG-0.35  N 
ATOM     14 H    GLY F   3      -1.168  29.445 -18.876  1.00 50.02 LIG 0.16  HD
BRANCH 13 15
ATOM     15  CA  GLY F   3      -2.286  29.962 -17.334  1.00 50.20 LIG 0.21  C 
BRANCH 15 16
ATOM     16  C   GLY F   3      -3.528  29.561 -18.106  1.00 50.42 LIG 0.21  C 
ATOM     17 O    GLY F   3      -4.042  28.455 -17.937  1.00 50.69 LIG-0.29  OA
ENDBRANCH 15 16
ENDBRANCH 13 15
ENDBRANCH 1 11
BRANCH 1 18
ATOM     18  CB  HIS F   2       2.240  31.462 -18.517  1.00 49.99 LIG 0.10  C 
BRANCH 18 19
ATOM     19  CG  HIS F   2       3.472  31.348 -19.361  1.00 50.63 LIG 0.06  A 
ATOM     20  CD2 HIS F   2       3.631  31.083 -20.681  1.00 51.31 LIG 0.14  A 
ATOM     21 NE2  HIS F   2       4.981  31.106 -20.940  1.00 51.32 LIG-0.25  NA
ATOM     22  CE1 HIS F   2       5.629  31.368 -19.819  1.00 50.87 LIG 0.23  A 
ATOM     23 ND1  HIS F   2       4.742  31.521 -18.851  1.00 50.82 LIG-0.24  NA
ENDBRANCH 18 19
ENDBRANCH 1 18
TORSDOF 8
ENDMDL
MODEL 22
USER: ADFR SOLUTION from run 84
USER: SCORE 7.334451 LL:  -1.360 LR:  -6.031 RR:   0.000 FEB:  -3.645
USER: RMSD 6.049355
USER: SEED 83
USER: STATUS no improvement in best in 22 clusters for 5 generations
USER: GENES 10
USER: genes 0 Translation |==|  0.34937 0.64726 0.68867
USER: genes 1 Rotation |==|  0.11558 0.38710 0.76938 0.63003
USER: genes 2 Torsion [C]-CA--N-[C] |==|  0.15400
USER: genes 3 Torsion [N]-C--CA-[N] |==|  0.40090
USER: genes 4 Torsion [C]-CA--N-[H3] |==|  0.99721
USER: genes 5 Torsion [N]-CA--C-[N] |==|  0.12778
USER: genes 6 Torsion [C]-N--CA-[C] |==|  0.15908
USER: genes 7 Torsion [N]-CA--C-[O] |==|  0.08136
USER: genes 8 Torsion [N]-CA--CB-[CG] |==|  0.62475
USER: genes 9 Torsion [CA]-CB--CG-[CD2] |==|  0.44383
ROOT
ATOM      1  CA  HIS F   2      -4.270  32.588 -15.952  1.00 49.99 LIG 0.18  C 
ENDROOT
BRANCH 1 2
ATOM      2  N   HIS F   2      -2.878  32.152 -15.837  1.00 49.83 LIG-0.35  N 
ATOM      3  C   GLY F   1      -2.370  31.182 -16.594  1.00 49.82 LIG 0.24  C 
ATOM      4 O    GLY F   1      -3.037  30.535 -17.405  1.00 49.53 LIG-0.27  OA
ATOM      5 H    HIS F   2      -2.426  32.577 -15.242  1.00 49.83 LIG 0.16  HD
BRANCH 3 6
ATOM      6  CA  GLY F   1      -0.890  30.897 -16.402  1.00 49.90 LIG 0.33  C 
BRANCH 6 7
ATOM      7  N   GLY F   1      -0.547  29.450 -16.533  1.00 49.95 LIG-0.07  N 
ATOM      8 H3   GLY F   1      -1.288  28.983 -16.691  1.00 49.95 LIG 0.27  HD
ATOM      9 H1   GLY F   1       0.023  29.340 -17.208  1.00 49.95 LIG 0.27  HD
ATOM     10 H2   GLY F   1      -0.172  29.164 -15.779  1.00 49.95 LIG 0.27  HD
ENDBRANCH 6 7
ENDBRANCH 3 6
ENDBRANCH 1 2
BRANCH 1 11
ATOM     11  C   HIS F   2      -5.228  31.411 -15.774  1.00 50.00 LIG 0.24  C 
ATOM     12 O    HIS F   2      -6.170  31.239 -16.552  1.00 49.82 LIG-0.27  OA
ATOM     13  N   GLY F   3      -4.969  30.600 -14.751  1.00 50.02 LIG-0.35  N 
ATOM     14 H    GLY F   3      -4.329  30.727 -14.190  1.00 50.02 LIG 0.16  HD
BRANCH 13 15
ATOM     15  CA  GLY F   3      -5.763  29.406 -14.489  1.00 50.20 LIG 0.21  C 
BRANCH 15 16
ATOM     16  C   GLY F   3      -5.790  28.454 -15.668  1.00 50.42 LIG 0.21  C 
ATOM     17 O    GLY F   3      -4.841  28.398 -16.452  1.00 50.69 LIG-0.29  OA
ENDBRANCH 15 16
ENDBRANCH 13 15
ENDBRANCH 1 11
BRANCH 1 18
ATOM     18  CB  HIS F   2      -4.513  33.279 -17.295  1.00 49.99 LIG 0.10  C 
BRANCH 18 19
ATOM     19  CG  HIS F   2      -5.304  34.546 -17.188  1.00 50.63 LIG 0.06  A 
ATOM     20  CD2 HIS F   2      -5.421  35.601 -18.031  1.00 51.31 LIG 0.14  A 
ATOM     21 NE2  HIS F   2      -6.289  36.493 -17.446  1.00 51.32 LIG-0.25  NA
ATOM     22  CE1 HIS F   2      -6.686  36.007 -16.283  1.00 50.87 LIG 0.23  A 
ATOM     23 ND1  HIS F   2      -6.108  34.832 -16.104  1.00 50.82 LIG-0.24  NA
ENDBRANCH 18 19
ENDBRANCH 1 18
TORSDOF 8
ENDMDL
MODEL 23
USER: ADFR SOLUTION from run 149
USER: SCORE 7.141431 LL:  -1.319 LR:  -6.027 RR:   0.000 FEB:  -3.641
USER: RMSD 5.220143
USER: SEED 148
USER: STATUS no improvement in best in 14 clusters for 5 generations
USER: GENES 10
USER: genes 0 Translation |==|  0.53415 0.70218 0.38439
USER: genes 1 Rotation |==|  0.67976 0.57352 0.53107 0.95969
USER: genes 2 Torsion [C]-CA--N-[C] |==|  0.71760
USER: genes 3 Torsion [N]-C--CA-[N] |==|  0.38884
USER: genes 4 Torsion [C]-CA--N-[H3] |==|  0.23605
USER: genes 5 Torsion [N]-CA--C-[N] |==|  0.07090
USER: genes 6 Torsion [C]-N--CA-[C] |==|  0.36997
USER: genes 7 Torsion [N]-CA--C-[O] |==|  0.95982
USER: genes 8 Torsion [N]-CA--CB-[CG] |==|  0.80409
USER: genes 9 Torsion [CA]-CB--CG-[CD2] |==|  0.61205
ROOT
ATOM      1  CA  HIS F   2      -1.083  33.288 -20.972  1.00 49.99 LIG 0.18  C 
ENDROOT
BRANCH 1 2
ATOM      2  N   HIS F   2      -1.450  34.476 -21.744  1.00 49.83 LIG-0.35  N 
ATOM      3  C   GLY F   1      -2.163  34.405 -22.866  1.00 49.82 LIG 0.24  C 
ATOM      4 O    GLY F   1      -2.519  33.339 -23.376  1.00 49.53 LIG-0.27  OA
ATOM      5 H    HIS F   2      -1.166  35.214 -21.408  1.00 49.83 LIG 0.16  HD
BRANCH 3 6
ATOM      6  CA  GLY F   1      -2.522  35.733 -23.510  1.00 49.90 LIG 0.33  C 
BRANCH 6 7
ATOM      7  N   GLY F   1      -2.421  35.712 -24.999  1.00 49.95 LIG-0.07  N 
ATOM      8 H3   GLY F   1      -3.179  35.397 -25.344  1.00 49.95 LIG 0.27  HD
ATOM      9 H1   GLY F   1      -2.281  36.539 -25.299  1.00 49.95 LIG 0.27  HD
ATOM     10 H2   GLY F   1      -1.744  35.190 -25.244  1.00 49.95 LIG 0.27  HD
ENDBRANCH 6 7
ENDBRANCH 3 6
ENDBRANCH 1 2
BRANCH 1 11
ATOM     11  C   HIS F   2      -1.987  33.127 -19.752  1.00 50.00 LIG 0.24  C 
ATOM     12 O    HIS F   2      -1.593  32.527 -18.748  1.00 49.82 LIG-0.27  OA
ATOM     13  N   GLY F   3      -3.195  33.678 -19.846  1.00 50.02 LIG-0.35  N 
ATOM     14 H    GLY F   3      -3.484  34.077 -20.551  1.00 50.02 LIG 0.16  HD
BRANCH 13 15
ATOM     15  CA  GLY F   3      -4.145  33.653 -18.741  1.00 50.20 LIG 0.21  C 
BRANCH 15 16
ATOM     16  C   GLY F   3      -4.783  35.005 -18.490  1.00 50.42 LIG 0.21  C 
ATOM     17 O    GLY F   3      -4.307  36.026 -18.988  1.00 50.69 LIG-0.29  OA
ENDBRANCH 15 16
ENDBRANCH 13 15
ENDBRANCH 1 11
BRANCH 1 18
ATOM     18  CB  HIS F   2       0.386  33.349 -20.549  1.00 49.99 LIG 0.10  C 
BRANCH 18 19
ATOM     19  CG  HIS F   2       1.349  33.174 -21.683  1.00 50.63 LIG 0.06  A 
ATOM     20  CD2 HIS F   2       2.517  32.491 -21.766  1.00 51.31 LIG 0.14  A 
ATOM     21 NE2  HIS F   2       2.992  32.653 -23.046  1.00 51.32 LIG-0.25  NA
ATOM     22  CE1 HIS F   2       2.149  33.414 -23.723  1.00 50.87 LIG 0.23  A 
ATOM     23 ND1  HIS F   2       1.149  33.740 -22.924  1.00 50.82 LIG-0.24  NA
ENDBRANCH 18 19
ENDBRANCH 1 18
TORSDOF 8
ENDMDL
MODEL 24
USER: ADFR SOLUTION from run 97
USER: SCORE 7.062437 LL:  -1.152 LR:  -6.005 RR:   0.000 FEB:  -3.619
USER: RMSD 4.054594
USER: SEED 96
USER: STATUS no improvement in best in 21 clusters for 5 generations
USER: GENES 10
USER: genes 0 Translation |==|  0.62300 0.54396 0.44663
USER: genes 1 Rotation |==|  0.40060 0.63637 0.73698 0.90665
USER: genes 2 Torsion [C]-CA--N-[C] |==|  0.17778
USER: genes 3 Torsion [N]-C--CA-[N] |==|  0.12185
USER: genes 4 Torsion [C]-CA--N-[H3] |==|  0.13753
USER: genes 5 Torsion [N]-CA--C-[N] |==|  0.09371
USER: genes 6 Torsion [C]-N--CA-[C] |==|  0.37816
USER: genes 7 Torsion [N]-CA--C-[O] |==|  0.33340
USER: genes 8 Torsion [N]-CA--CB-[CG] |==|  0.85179
USER: genes 9 Torsion [CA]-CB--CG-[CD2] |==|  0.87709
ROOT
ATOM      1  CA  HIS F   2       0.450  31.271 -19.946  1.00 49.99 LIG 0.18  C 
ENDROOT
BRANCH 1 2
ATOM      2  N   HIS F   2      -0.186  30.669 -21.118  1.00 49.83 LIG-0.35  N 
ATOM      3  C   GLY F   1      -1.277  31.184 -21.680  1.00 49.82 LIG 0.24  C 
ATOM      4 O    GLY F   1      -1.873  32.166 -21.229  1.00 49.53 LIG-0.27  OA
ATOM      5 H    HIS F   2       0.208  29.961 -21.406  1.00 49.83 LIG 0.16  HD
BRANCH 3 6
ATOM      6  CA  GLY F   1      -1.773  30.483 -22.934  1.00 49.90 LIG 0.33  C 
BRANCH 6 7
ATOM      7  N   GLY F   1      -1.763  28.994 -22.819  1.00 49.95 LIG-0.07  N 
ATOM      8 H3   GLY F   1      -2.162  28.752 -22.061  1.00 49.95 LIG 0.27  HD
ATOM      9 H1   GLY F   1      -2.199  28.640 -23.510  1.00 49.95 LIG 0.27  HD
ATOM     10 H2   GLY F   1      -0.923  28.702 -22.818  1.00 49.95 LIG 0.27  HD
ENDBRANCH 6 7
ENDBRANCH 3 6
ENDBRANCH 1 2
BRANCH 1 11
ATOM     11  C   HIS F   2      -0.481  31.226 -18.735  1.00 50.00 LIG 0.24  C 
ATOM     12 O    HIS F   2      -0.478  32.135 -17.901  1.00 49.82 LIG-0.27  OA
ATOM     13  N   GLY F   3      -1.283  30.166 -18.657  1.00 50.02 LIG-0.35  N 
ATOM     14 H    GLY F   3      -1.273  29.517 -19.221  1.00 50.02 LIG 0.16  HD
BRANCH 13 15
ATOM     15  CA  GLY F   3      -2.262  30.013 -17.588  1.00 50.20 LIG 0.21  C 
BRANCH 15 16
ATOM     16  C   GLY F   3      -3.607  29.530 -18.095  1.00 50.42 LIG 0.21  C 
ATOM     17 O    GLY F   3      -4.087  28.471 -17.690  1.00 50.69 LIG-0.29  OA
ENDBRANCH 15 16
ENDBRANCH 13 15
ENDBRANCH 1 11
BRANCH 1 18
ATOM     18  CB  HIS F   2       0.879  32.709 -20.240  1.00 49.99 LIG 0.10  C 
BRANCH 18 19
ATOM     19  CG  HIS F   2       1.735  32.846 -21.462  1.00 50.63 LIG 0.06  A 
ATOM     20  CD2 HIS F   2       2.788  32.114 -21.902  1.00 51.31 LIG 0.14  A 
ATOM     21 NE2  HIS F   2       3.200  32.669 -23.091  1.00 51.32 LIG-0.25  NA
ATOM     22  CE1 HIS F   2       2.432  33.709 -23.367  1.00 50.87 LIG 0.23  A 
ATOM     23 ND1  HIS F   2       1.539  33.836 -22.402  1.00 50.82 LIG-0.24  NA
ENDBRANCH 18 19
ENDBRANCH 1 18
TORSDOF 8
ENDMDL
MODEL 25
USER: ADFR SOLUTION from run 140
USER: SCORE 7.311699 LL:  -1.614 LR:  -5.946 RR:   0.000 FEB:  -3.559
USER: RMSD 4.402328
USER: SEED 139
USER: STATUS no improvement in best in 17 clusters for 5 generations
USER: GENES 10
USER: genes 0 Translation |==|  0.53144 0.60284 0.50911
USER: genes 1 Rotation |==|  0.65540 0.42234 0.82259 0.84023
USER: genes 2 Torsion [C]-CA--N-[C] |==|  0.68085
USER: genes 3 Torsion [N]-C--CA-[N] |==|  0.46260
USER: genes 4 Torsion [C]-CA--N-[H3] |==|  0.41314
USER: genes 5 Torsion [N]-CA--C-[N] |==|  0.95052
USER: genes 6 Torsion [C]-N--CA-[C] |==|  0.24210
USER: genes 7 Torsion [N]-CA--C-[O] |==|  0.74653
USER: genes 8 Torsion [N]-CA--CB-[CG] |==|  0.24509
USER: genes 9 Torsion [CA]-CB--CG-[CD2] |==|  0.31719
ROOT
ATOM      1  CA  HIS F   2      -1.130  32.021 -18.915  1.00 49.99 LIG 0.18  C 
ENDROOT
BRANCH 1 2
ATOM      2  N   HIS F   2      -1.730  32.964 -19.859  1.00 49.83 LIG-0.35  N 
ATOM      3  C   GLY F   1      -1.067  33.439 -20.911  1.00 49.82 LIG 0.24  C 
ATOM      4 O    GLY F   1       0.116  33.174 -21.142  1.00 49.53 LIG-0.27  OA
ATOM      5 H    HIS F   2      -2.541  33.179 -19.672  1.00 49.83 LIG 0.16  HD
BRANCH 3 6
ATOM      6  CA  GLY F   1      -1.854  34.353 -21.835  1.00 49.90 LIG 0.33  C 
BRANCH 6 7
ATOM      7  N   GLY F   1      -0.992  35.099 -22.799  1.00 49.95 LIG-0.07  N 
ATOM      8 H3   GLY F   1      -1.443  35.238 -23.554  1.00 49.95 LIG 0.27  HD
ATOM      9 H1   GLY F   1      -0.759  35.882 -22.444  1.00 49.95 LIG 0.27  HD
ATOM     10 H2   GLY F   1      -0.261  34.624 -22.973  1.00 49.95 LIG 0.27  HD
ENDBRANCH 6 7
ENDBRANCH 3 6
ENDBRANCH 1 2
BRANCH 1 11
ATOM     11  C   HIS F   2      -1.842  30.671 -18.962  1.00 50.00 LIG 0.24  C 
ATOM     12 O    HIS F   2      -1.313  29.660 -18.493  1.00 49.82 LIG-0.27  OA
ATOM     13  N   GLY F   3      -3.051  30.670 -19.520  1.00 50.02 LIG-0.35  N 
ATOM     14 H    GLY F   3      -3.415  31.366 -19.871  1.00 50.02 LIG 0.16  HD
BRANCH 13 15
ATOM     15  CA  GLY F   3      -3.872  29.468 -19.587  1.00 50.20 LIG 0.21  C 
BRANCH 15 16
ATOM     16  C   GLY F   3      -4.721  29.273 -18.346  1.00 50.42 LIG 0.21  C 
ATOM     17 O    GLY F   3      -4.301  28.615 -17.394  1.00 50.69 LIG-0.29  OA
ENDBRANCH 15 16
ENDBRANCH 13 15
ENDBRANCH 1 11
BRANCH 1 18
ATOM     18  CB  HIS F   2      -1.149  32.590 -17.495  1.00 49.99 LIG 0.10  C 
BRANCH 18 19
ATOM     19  CG  HIS F   2      -2.402  32.280 -16.736  1.00 50.63 LIG 0.06  A 
ATOM     20  CD2 HIS F   2      -2.616  31.519 -15.635  1.00 51.31 LIG 0.14  A 
ATOM     21 NE2  HIS F   2      -3.960  31.585 -15.350  1.00 51.32 LIG-0.25  NA
ATOM     22  CE1 HIS F   2      -4.552  32.352 -16.249  1.00 50.87 LIG 0.23  A 
ATOM     23 ND1  HIS F   2      -3.634  32.786 -17.096  1.00 50.82 LIG-0.24  NA
ENDBRANCH 18 19
ENDBRANCH 1 18
TORSDOF 8
ENDMDL
MODEL 26
USER: ADFR SOLUTION from run 25
USER: SCORE 7.039966 LL:  -1.133 LR:  -5.940 RR:   0.000 FEB:  -3.553
USER: RMSD 5.263171
USER: SEED 24
USER: STATUS no improvement in best in 20 clusters for 5 generations
USER: GENES 10
USER: genes 0 Translation |==|  0.44976 0.63869 0.62424
USER: genes 1 Rotation |==|  0.11919 0.55094 0.79203 0.63080
USER: genes 2 Torsion [C]-CA--N-[C] |==|  0.72778
USER: genes 3 Torsion [N]-C--CA-[N] |==|  0.90629
USER: genes 4 Torsion [C]-CA--N-[H3] |==|  0.98956
USER: genes 5 Torsion [N]-CA--C-[N] |==|  0.99506
USER: genes 6 Torsion [C]-N--CA-[C] |==|  0.30792
USER: genes 7 Torsion [N]-CA--C-[O] |==|  0.05946
USER: genes 8 Torsion [N]-CA--CB-[CG] |==|  0.56990
USER: genes 9 Torsion [CA]-CB--CG-[CD2] |==|  0.82257
ROOT
ATOM      1  CA  HIS F   2      -2.539  32.478 -17.015  1.00 49.99 LIG 0.18  C 
ENDROOT
BRANCH 1 2
ATOM      2  N   HIS F   2      -1.489  31.462 -16.939  1.00 49.83 LIG-0.35  N 
ATOM      3  C   GLY F   1      -0.479  31.544 -16.075  1.00 49.82 LIG 0.24  C 
ATOM      4 O    GLY F   1      -0.313  32.502 -15.315  1.00 49.53 LIG-0.27  OA
ATOM      5 H    HIS F   2      -1.585  30.815 -17.497  1.00 49.83 LIG 0.16  HD
BRANCH 3 6
ATOM      6  CA  GLY F   1       0.489  30.373 -16.071  1.00 49.90 LIG 0.33  C 
BRANCH 6 7
ATOM      7  N   GLY F   1      -0.168  29.065 -16.363  1.00 49.95 LIG-0.07  N 
ATOM      8 H3   GLY F   1      -1.047  29.185 -16.440  1.00 49.95 LIG 0.27  HD
ATOM      9 H1   GLY F   1       0.154  28.734 -17.124  1.00 49.95 LIG 0.27  HD
ATOM     10 H2   GLY F   1      -0.004  28.495 -15.700  1.00 49.95 LIG 0.27  HD
ENDBRANCH 6 7
ENDBRANCH 3 6
ENDBRANCH 1 2
BRANCH 1 11
ATOM     11  C   HIS F   2      -3.778  32.044 -16.235  1.00 50.00 LIG 0.24  C 
ATOM     12 O    HIS F   2      -4.767  32.778 -16.160  1.00 49.82 LIG-0.27  OA
ATOM     13  N   GLY F   3      -3.717  30.842 -15.667  1.00 50.02 LIG-0.35  N 
ATOM     14 H    GLY F   3      -3.022  30.336 -15.695  1.00 50.02 LIG 0.16  HD
BRANCH 13 15
ATOM     15  CA  GLY F   3      -4.842  30.271 -14.938  1.00 50.20 LIG 0.21  C 
BRANCH 15 16
ATOM     16  C   GLY F   3      -5.464  29.090 -15.657  1.00 50.42 LIG 0.21  C 
ATOM     17 O    GLY F   3      -4.824  28.460 -16.499  1.00 50.69 LIG-0.29  OA
ENDBRANCH 15 16
ENDBRANCH 13 15
ENDBRANCH 1 11
BRANCH 1 18
ATOM     18  CB  HIS F   2      -2.898  32.778 -18.472  1.00 49.99 LIG 0.10  C 
BRANCH 18 19
ATOM     19  CG  HIS F   2      -3.475  34.144 -18.682  1.00 50.63 LIG 0.06  A 
ATOM     20  CD2 HIS F   2      -4.622  34.709 -18.231  1.00 51.31 LIG 0.14  A 
ATOM     21 NE2  HIS F   2      -4.659  35.995 -18.717  1.00 51.32 LIG-0.25  NA
ATOM     22  CE1 HIS F   2      -3.578  36.210 -19.446  1.00 50.87 LIG 0.23  A 
ATOM     23 ND1  HIS F   2      -2.846  35.109 -19.440  1.00 50.82 LIG-0.24  NA
ENDBRANCH 18 19
ENDBRANCH 1 18
TORSDOF 8
ENDMDL
MODEL 27
USER: ADFR SOLUTION from run 121
USER: SCORE 7.061681 LL:  -1.223 LR:  -5.930 RR:   0.000 FEB:  -3.544
USER: RMSD 2.720916
USER: SEED 120
USER: STATUS no improvement in best in 15 clusters for 5 generations
USER: GENES 10
USER: genes 0 Translation |==|  0.45806 0.41292 0.55619
USER: genes 1 Rotation |==|  0.34055 0.60545 0.58142 0.95478
USER: genes 2 Torsion [C]-CA--N-[C] |==|  0.84271
USER: genes 3 Torsion [N]-C--CA-[N] |==|  0.07867
USER: genes 4 Torsion [C]-CA--N-[H3] |==|  0.61117
USER: genes 5 Torsion [N]-CA--C-[N] |==|  0.41666
USER: genes 6 Torsion [C]-N--CA-[C] |==|  0.84020
USER: genes 7 Torsion [N]-CA--C-[O] |==|  0.95090
USER: genes 8 Torsion [N]-CA--CB-[CG] |==|  0.54546
USER: genes 9 Torsion [CA]-CB--CG-[CD2] |==|  0.74440
ROOT
ATOM      1  CA  HIS F   2      -2.396  29.600 -18.138  1.00 49.99 LIG 0.18  C 
ENDROOT
BRANCH 1 2
ATOM      2  N   HIS F   2      -2.869  28.955 -19.363  1.00 49.83 LIG-0.35  N 
ATOM      3  C   GLY F   1      -3.898  28.111 -19.372  1.00 49.82 LIG 0.24  C 
ATOM      4 O    GLY F   1      -4.495  27.759 -18.351  1.00 49.53 LIG-0.27  OA
ATOM      5 H    HIS F   2      -2.425  29.170 -20.067  1.00 49.83 LIG 0.16  HD
BRANCH 3 6
ATOM      6  CA  GLY F   1      -4.311  27.581 -20.735  1.00 49.90 LIG 0.33  C 
BRANCH 6 7
ATOM      7  N   GLY F   1      -3.183  27.523 -21.711  1.00 49.95 LIG-0.07  N 
ATOM      8 H3   GLY F   1      -3.471  27.781 -22.513  1.00 49.95 LIG 0.27  HD
ATOM      9 H1   GLY F   1      -2.529  28.064 -21.442  1.00 49.95 LIG 0.27  HD
ATOM     10 H2   GLY F   1      -2.876  26.689 -21.760  1.00 49.95 LIG 0.27  HD
ENDBRANCH 6 7
ENDBRANCH 3 6
ENDBRANCH 1 2
BRANCH 1 11
ATOM     11  C   HIS F   2      -3.521  30.381 -17.461  1.00 50.00 LIG 0.24  C 
ATOM     12 O    HIS F   2      -4.436  30.873 -18.124  1.00 49.82 LIG-0.27  OA
ATOM     13  N   GLY F   3      -3.446  30.477 -16.135  1.00 50.02 LIG-0.35  N 
ATOM     14 H    GLY F   3      -2.798  30.157 -15.669  1.00 50.02 LIG 0.16  HD
BRANCH 13 15
ATOM     15  CA  GLY F   3      -4.475  31.144 -15.349  1.00 50.20 LIG 0.21  C 
BRANCH 15 16
ATOM     16  C   GLY F   3      -4.688  32.585 -15.769  1.00 50.42 LIG 0.21  C 
ATOM     17 O    GLY F   3      -3.840  33.175 -16.439  1.00 50.69 LIG-0.29  OA
ENDBRANCH 15 16
ENDBRANCH 13 15
ENDBRANCH 1 11
BRANCH 1 18
ATOM     18  CB  HIS F   2      -1.207  30.516 -18.432  1.00 49.99 LIG 0.10  C 
BRANCH 18 19
ATOM     19  CG  HIS F   2      -0.427  30.905 -17.214  1.00 50.63 LIG 0.06  A 
ATOM     20  CD2 HIS F   2      -0.538  31.971 -16.384  1.00 51.31 LIG 0.14  A 
ATOM     21 NE2  HIS F   2       0.425  31.832 -15.413  1.00 51.32 LIG-0.25  NA
ATOM     22  CE1 HIS F   2       1.107  30.723 -15.641  1.00 50.87 LIG 0.23  A 
ATOM     23 ND1  HIS F   2       0.612  30.144 -16.721  1.00 50.82 LIG-0.24  NA
ENDBRANCH 18 19
ENDBRANCH 1 18
TORSDOF 8
ENDMDL
MODEL 28
USER: ADFR SOLUTION from run 157
USER: SCORE 7.159432 LL:  -1.239 LR:  -5.925 RR:   0.000 FEB:  -3.539
USER: RMSD 3.375996
USER: SEED 156
USER: STATUS no improvement in best in 13 clusters for 5 generations
USER: GENES 10
USER: genes 0 Translation |==|  0.47756 0.49957 0.64628
USER: genes 1 Rotation |==|  0.38091 0.59703 0.56672 0.97112
USER: genes 2 Torsion [C]-CA--N-[C] |==|  0.81699
USER: genes 3 Torsion [N]-C--CA-[N] |==|  0.09979
USER: genes 4 Torsion [C]-CA--N-[H3] |==|  0.68219
USER: genes 5 Torsion [N]-CA--C-[N] |==|  0.92223
USER: genes 6 Torsion [C]-N--CA-[C] |==|  0.41456
USER: genes 7 Torsion [N]-CA--C-[O] |==|  0.58962
USER: genes 8 Torsion [N]-CA--CB-[CG] |==|  0.09897
USER: genes 9 Torsion [CA]-CB--CG-[CD2] |==|  0.61903
ROOT
ATOM      1  CA  HIS F   2      -2.059  30.705 -16.651  1.00 49.99 LIG 0.18  C 
ENDROOT
BRANCH 1 2
ATOM      2  N   HIS F   2      -2.531  30.307 -17.978  1.00 49.83 LIG-0.35  N 
ATOM      3  C   GLY F   1      -3.515  29.427 -18.150  1.00 49.82 LIG 0.24  C 
ATOM      4 O    GLY F   1      -4.066  28.835 -17.218  1.00 49.53 LIG-0.27  OA
ATOM      5 H    HIS F   2      -2.118  30.691 -18.627  1.00 49.83 LIG 0.16  HD
BRANCH 3 6
ATOM      6  CA  GLY F   1      -3.937  29.175 -19.588  1.00 49.90 LIG 0.33  C 
BRANCH 6 7
ATOM      7  N   GLY F   1      -2.796  29.210 -20.551  1.00 49.95 LIG-0.07  N 
ATOM      8 H3   GLY F   1      -2.895  29.901 -21.104  1.00 49.95 LIG 0.27  HD
ATOM      9 H1   GLY F   1      -2.032  29.296 -20.103  1.00 49.95 LIG 0.27  HD
ATOM     10 H2   GLY F   1      -2.781  28.455 -21.021  1.00 49.95 LIG 0.27  HD
ENDBRANCH 6 7
ENDBRANCH 3 6
ENDBRANCH 1 2
BRANCH 1 11
ATOM     11  C   HIS F   2      -3.143  31.466 -15.891  1.00 50.00 LIG 0.24  C 
ATOM     12 O    HIS F   2      -3.177  31.455 -14.658  1.00 49.82 LIG-0.27  OA
ATOM     13  N   GLY F   3      -4.018  32.135 -16.639  1.00 50.02 LIG-0.35  N 
ATOM     14 H    GLY F   3      -4.014  32.128 -17.499  1.00 50.02 LIG 0.16  HD
BRANCH 13 15
ATOM     15  CA  GLY F   3      -5.073  32.951 -16.052  1.00 50.20 LIG 0.21  C 
BRANCH 15 16
ATOM     16  C   GLY F   3      -5.445  34.136 -16.922  1.00 50.42 LIG 0.21  C 
ATOM     17 O    GLY F   3      -5.821  35.193 -16.415  1.00 50.69 LIG-0.29  OA
ENDBRANCH 15 16
ENDBRANCH 13 15
ENDBRANCH 1 11
BRANCH 1 18
ATOM     18  CB  HIS F   2      -0.785  31.545 -16.758  1.00 49.99 LIG 0.10  C 
BRANCH 18 19
ATOM     19  CG  HIS F   2      -0.757  32.449 -17.952  1.00 50.63 LIG 0.06  A 
ATOM     20  CD2 HIS F   2       0.233  32.738 -18.832  1.00 51.31 LIG 0.14  A 
ATOM     21 NE2  HIS F   2      -0.283  33.625 -19.747  1.00 51.32 LIG-0.25  NA
ATOM     22  CE1 HIS F   2      -1.542  33.879 -19.436  1.00 50.87 LIG 0.23  A 
ATOM     23 ND1  HIS F   2      -1.854  33.181 -18.358  1.00 50.82 LIG-0.24  NA
ENDBRANCH 18 19
ENDBRANCH 1 18
TORSDOF 8
ENDMDL
MODEL 29
USER: ADFR SOLUTION from run 112
USER: SCORE 6.819745 LL:  -1.164 LR:  -5.911 RR:   0.000 FEB:  -3.525
USER: RMSD 5.056840
USER: SEED 111
USER: STATUS no improvement in best in 17 clusters for 5 generations
USER: GENES 10
USER: genes 0 Translation |==|  0.36021 0.48353 0.67443
USER: genes 1 Rotation |==|  0.40124 0.48771 0.72238 0.93663
USER: genes 2 Torsion [C]-CA--N-[C] |==|  0.83758
USER: genes 3 Torsion [N]-C--CA-[N] |==|  0.23932
USER: genes 4 Torsion [C]-CA--N-[H3] |==|  0.32069
USER: genes 5 Torsion [N]-CA--C-[N] |==|  0.44909
USER: genes 6 Torsion [C]-N--CA-[C] |==|  0.86785
USER: genes 7 Torsion [N]-CA--C-[O] |==|  0.47858
USER: genes 8 Torsion [N]-CA--CB-[CG] |==|  0.13250
USER: genes 9 Torsion [CA]-CB--CG-[CD2] |==|  0.27484
ROOT
ATOM      1  CA  HIS F   2      -4.083  30.500 -16.187  1.00 49.99 LIG 0.18  C 
ENDROOT
BRANCH 1 2
ATOM      2  N   HIS F   2      -3.990  30.295 -17.633  1.00 49.83 LIG-0.35  N 
ATOM      3  C   GLY F   1      -4.246  29.120 -18.204  1.00 49.82 LIG 0.24  C 
ATOM      4 O    GLY F   1      -4.522  28.101 -17.564  1.00 49.53 LIG-0.27  OA
ATOM      5 H    HIS F   2      -3.758  30.996 -18.073  1.00 49.83 LIG 0.16  HD
BRANCH 3 6
ATOM      6  CA  GLY F   1      -4.175  29.089 -19.721  1.00 49.90 LIG 0.33  C 
BRANCH 6 7
ATOM      7  N   GLY F   1      -2.797  28.844 -20.241  1.00 49.95 LIG-0.07  N 
ATOM      8 H3   GLY F   1      -2.777  28.066 -20.673  1.00 49.95 LIG 0.27  HD
ATOM      9 H1   GLY F   1      -2.569  29.499 -20.799  1.00 49.95 LIG 0.27  HD
ATOM     10 H2   GLY F   1      -2.223  28.820 -19.562  1.00 49.95 LIG 0.27  HD
ENDBRANCH 6 7
ENDBRANCH 3 6
ENDBRANCH 1 2
BRANCH 1 11
ATOM     11  C   HIS F   2      -5.487  30.176 -15.678  1.00 50.00 LIG 0.24  C 
ATOM     12 O    HIS F   2      -6.443  30.115 -16.455  1.00 49.82 LIG-0.27  OA
ATOM     13  N   GLY F   3      -5.595  29.958 -14.369  1.00 50.02 LIG-0.35  N 
ATOM     14 H    GLY F   3      -4.937  30.023 -13.818  1.00 50.02 LIG 0.16  HD
BRANCH 13 15
ATOM     15  CA  GLY F   3      -6.859  29.585 -13.748  1.00 50.20 LIG 0.21  C 
BRANCH 15 16
ATOM     16  C   GLY F   3      -8.010  30.464 -14.195  1.00 50.42 LIG 0.21  C 
ATOM     17 O    GLY F   3      -9.168  30.195 -13.875  1.00 50.69 LIG-0.29  OA
ENDBRANCH 15 16
ENDBRANCH 13 15
ENDBRANCH 1 11
BRANCH 1 18
ATOM     18  CB  HIS F   2      -3.695  31.933 -15.817  1.00 49.99 LIG 0.10  C 
BRANCH 18 19
ATOM     19  CG  HIS F   2      -4.356  32.976 -16.663  1.00 50.63 LIG 0.06  A 
ATOM     20  CD2 HIS F   2      -5.444  33.753 -16.439  1.00 51.31 LIG 0.14  A 
ATOM     21 NE2  HIS F   2      -5.609  34.550 -17.546  1.00 51.32 LIG-0.25  NA
ATOM     22  CE1 HIS F   2      -4.662  34.269 -18.423  1.00 50.87 LIG 0.23  A 
ATOM     23 ND1  HIS F   2      -3.891  33.324 -17.915  1.00 50.82 LIG-0.24  NA
ENDBRANCH 18 19
ENDBRANCH 1 18
TORSDOF 8
ENDMDL
MODEL 30
USER: ADFR SOLUTION from run 191
USER: SCORE 6.657102 LL:  -1.074 LR:  -5.911 RR:   0.000 FEB:  -3.525
USER: RMSD 4.482451
USER: SEED 190
USER: STATUS no improvement in best in 16 clusters for 5 generations
USER: GENES 10
USER: genes 0 Translation |==|  0.42501 0.44719 0.55114
USER: genes 1 Rotation |==|  0.83325 0.27332 0.23199 0.62543
USER: genes 2 Torsion [C]-CA--N-[C] |==|  0.64455
USER: genes 3 Torsion [N]-C--CA-[N] |==|  0.03121
USER: genes 4 Torsion [C]-CA--N-[H3] |==|  0.99583
USER: genes 5 Torsion [N]-CA--C-[N] |==|  0.96681
USER: genes 6 Torsion [C]-N--CA-[C] |==|  0.22081
USER: genes 7 Torsion [N]-CA--C-[O] |==|  0.18182
USER: genes 8 Torsion [N]-CA--CB-[CG] |==|  0.71757
USER: genes 9 Torsion [CA]-CB--CG-[CD2] |==|  0.93831
ROOT
ATOM      1  CA  HIS F   2      -2.966  30.037 -18.221  1.00 49.99 LIG 0.18  C 
ENDROOT
BRANCH 1 2
ATOM      2  N   HIS F   2      -1.746  29.583 -17.551  1.00 49.83 LIG-0.35  N 
ATOM      3  C   GLY F   1      -0.533  29.811 -18.049  1.00 49.82 LIG 0.24  C 
ATOM      4 O    GLY F   1      -0.338  30.366 -19.134  1.00 49.53 LIG-0.27  OA
ATOM      5 H    HIS F   2      -1.886  29.161 -16.815  1.00 49.83 LIG 0.16  HD
BRANCH 3 6
ATOM      6  CA  GLY F   1       0.634  29.339 -17.197  1.00 49.90 LIG 0.33  C 
BRANCH 6 7
ATOM      7  N   GLY F   1       0.218  28.460 -16.065  1.00 49.95 LIG-0.07  N 
ATOM      8 H3   GLY F   1      -0.667  28.374 -16.065  1.00 49.95 LIG 0.27  HD
ATOM      9 H1   GLY F   1       0.594  27.658 -16.158  1.00 49.95 LIG 0.27  HD
ATOM     10 H2   GLY F   1       0.481  28.822 -15.295  1.00 49.95 LIG 0.27  HD
ENDBRANCH 6 7
ENDBRANCH 3 6
ENDBRANCH 1 2
BRANCH 1 11
ATOM     11  C   HIS F   2      -3.855  30.826 -17.263  1.00 50.00 LIG 0.24  C 
ATOM     12 O    HIS F   2      -4.822  31.469 -17.682  1.00 49.82 LIG-0.27  OA
ATOM     13  N   GLY F   3      -3.525  30.761 -15.975  1.00 50.02 LIG-0.35  N 
ATOM     14 H    GLY F   3      -2.839  30.335 -15.679  1.00 50.02 LIG 0.16  HD
BRANCH 13 15
ATOM     15  CA  GLY F   3      -4.313  31.417 -14.940  1.00 50.20 LIG 0.21  C 
BRANCH 15 16
ATOM     16  C   GLY F   3      -5.554  30.631 -14.565  1.00 50.42 LIG 0.21  C 
ATOM     17 O    GLY F   3      -5.459  29.528 -14.026  1.00 50.69 LIG-0.29  OA
ENDBRANCH 15 16
ENDBRANCH 13 15
ENDBRANCH 1 11
BRANCH 1 18
ATOM     18  CB  HIS F   2      -3.731  28.852 -18.813  1.00 49.99 LIG 0.10  C 
BRANCH 18 19
ATOM     19  CG  HIS F   2      -3.547  28.691 -20.290  1.00 50.63 LIG 0.06  A 
ATOM     20  CD2 HIS F   2      -3.174  29.576 -21.247  1.00 51.31 LIG 0.14  A 
ATOM     21 NE2  HIS F   2      -3.153  28.898 -22.443  1.00 51.32 LIG-0.25  NA
ATOM     22  CE1 HIS F   2      -3.508  27.643 -22.230  1.00 50.87 LIG 0.23  A 
ATOM     23 ND1  HIS F   2      -3.749  27.491 -20.940  1.00 50.82 LIG-0.24  NA
ENDBRANCH 18 19
ENDBRANCH 1 18
TORSDOF 8
ENDMDL
MODEL 31
USER: ADFR SOLUTION from run 155
USER: SCORE 6.888418 LL:  -1.171 LR:  -5.906 RR:   0.000 FEB:  -3.519
USER: RMSD 3.097912
USER: SEED 154
USER: STATUS no improvement in best in 12 clusters for 5 generations
USER: GENES 10
USER: genes 0 Translation |==|  0.50339 0.66884 0.48088
USER: genes 1 Rotation |==|  0.65475 0.58549 0.59571 0.95780
USER: genes 2 Torsion [C]-CA--N-[C] |==|  0.56136
USER: genes 3 Torsion [N]-C--CA-[N] |==|  0.38459
USER: genes 4 Torsion [C]-CA--N-[H3] |==|  0.30279
USER: genes 5 Torsion [N]-CA--C-[N] |==|  0.42782
USER: genes 6 Torsion [C]-N--CA-[C] |==|  0.26106
USER: genes 7 Torsion [N]-CA--C-[O] |==|  0.25266
USER: genes 8 Torsion [N]-CA--CB-[CG] |==|  0.64888
USER: genes 9 Torsion [CA]-CB--CG-[CD2] |==|  0.79750
ROOT
ATOM      1  CA  HIS F   2      -1.614  32.863 -19.380  1.00 49.99 LIG 0.18  C 
ENDROOT
BRANCH 1 2
ATOM      2  N   HIS F   2      -2.236  33.871 -20.239  1.00 49.83 LIG-0.35  N 
ATOM      3  C   GLY F   1      -1.893  34.030 -21.515  1.00 49.82 LIG 0.24  C 
ATOM      4 O    GLY F   1      -0.991  33.388 -22.060  1.00 49.53 LIG-0.27  OA
ATOM      5 H    HIS F   2      -2.836  34.345 -19.846  1.00 49.83 LIG 0.16  HD
BRANCH 3 6
ATOM      6  CA  GLY F   1      -2.683  35.071 -22.291  1.00 49.90 LIG 0.33  C 
BRANCH 6 7
ATOM      7  N   GLY F   1      -1.833  35.906 -23.190  1.00 49.95 LIG-0.07  N 
ATOM      8 H3   GLY F   1      -1.995  35.689 -24.038  1.00 49.95 LIG 0.27  HD
ATOM      9 H1   GLY F   1      -2.021  36.766 -23.063  1.00 49.95 LIG 0.27  HD
ATOM     10 H2   GLY F   1      -0.974  35.761 -23.006  1.00 49.95 LIG 0.27  HD
ENDBRANCH 6 7
ENDBRANCH 3 6
ENDBRANCH 1 2
BRANCH 1 11
ATOM     11  C   HIS F   2      -2.515  32.521 -18.195  1.00 50.00 LIG 0.24  C 
ATOM     12 O    HIS F   2      -3.343  33.334 -17.777  1.00 49.82 LIG-0.27  OA
ATOM     13  N   GLY F   3      -2.351  31.309 -17.670  1.00 50.02 LIG-0.35  N 
ATOM     14 H    GLY F   3      -1.759  30.748 -17.941  1.00 50.02 LIG 0.16  HD
BRANCH 13 15
ATOM     15  CA  GLY F   3      -3.176  30.824 -16.571  1.00 50.20 LIG 0.21  C 
BRANCH 15 16
ATOM     16  C   GLY F   3      -4.372  30.024 -17.050  1.00 50.42 LIG 0.21  C 
ATOM     17 O    GLY F   3      -4.296  28.803 -17.191  1.00 50.69 LIG-0.29  OA
ENDBRANCH 15 16
ENDBRANCH 13 15
ENDBRANCH 1 11
BRANCH 1 18
ATOM     18  CB  HIS F   2      -0.242  33.336 -18.894  1.00 49.99 LIG 0.10  C 
BRANCH 18 19
ATOM     19  CG  HIS F   2       0.865  32.368 -19.174  1.00 50.63 LIG 0.06  A 
ATOM     20  CD2 HIS F   2       1.173  31.174 -18.609  1.00 51.31 LIG 0.14  A 
ATOM     21 NE2  HIS F   2       2.289  30.696 -19.254  1.00 51.32 LIG-0.25  NA
ATOM     22  CE1 HIS F   2       2.658  31.567 -20.177  1.00 50.87 LIG 0.23  A 
ATOM     23 ND1  HIS F   2       1.814  32.584 -20.151  1.00 50.82 LIG-0.24  NA
ENDBRANCH 18 19
ENDBRANCH 1 18
TORSDOF 8
ENDMDL
MODEL 32
USER: ADFR SOLUTION from run 104
USER: SCORE 7.160515 LL:  -1.359 LR:  -5.889 RR:   0.000 FEB:  -3.502
USER: RMSD 3.061099
USER: SEED 103
USER: STATUS no improvement in best in 21 clusters for 5 generations
USER: GENES 10
USER: genes 0 Translation |==|  0.54356 0.55575 0.48690
USER: genes 1 Rotation |==|  0.54272 0.59418 0.44964 0.98659
USER: genes 2 Torsion [C]-CA--N-[C] |==|  0.16659
USER: genes 3 Torsion [N]-C--CA-[N] |==|  0.49101
USER: genes 4 Torsion [C]-CA--N-[H3] |==|  0.10750
USER: genes 5 Torsion [N]-CA--C-[N] |==|  0.12496
USER: genes 6 Torsion [C]-N--CA-[C] |==|  0.37758
USER: genes 7 Torsion [N]-CA--C-[O] |==|  0.86634
USER: genes 8 Torsion [N]-CA--CB-[CG] |==|  0.58903
USER: genes 9 Torsion [CA]-CB--CG-[CD2] |==|  0.93047
ROOT
ATOM      1  CA  HIS F   2      -0.921  31.421 -19.281  1.00 49.99 LIG 0.18  C 
ENDROOT
BRANCH 1 2
ATOM      2  N   HIS F   2      -1.257  32.035 -20.566  1.00 49.83 LIG-0.35  N 
ATOM      3  C   GLY F   1      -0.953  33.299 -20.853  1.00 49.82 LIG 0.24  C 
ATOM      4 O    GLY F   1      -0.421  34.068 -20.047  1.00 49.53 LIG-0.27  OA
ATOM      5 H    HIS F   2      -1.664  31.509 -21.111  1.00 49.83 LIG 0.16  HD
BRANCH 3 6
ATOM      6  CA  GLY F   1      -1.305  33.765 -22.255  1.00 49.90 LIG 0.33  C 
BRANCH 6 7
ATOM      7  N   GLY F   1      -1.010  35.209 -22.488  1.00 49.95 LIG-0.07  N 
ATOM      8 H3   GLY F   1      -0.247  35.425 -22.083  1.00 49.95 LIG 0.27  HD
ATOM      9 H1   GLY F   1      -0.934  35.360 -23.362  1.00 49.95 LIG 0.27  HD
ATOM     10 H2   GLY F   1      -1.671  35.705 -22.158  1.00 49.95 LIG 0.27  HD
ENDBRANCH 6 7
ENDBRANCH 3 6
ENDBRANCH 1 2
BRANCH 1 11
ATOM     11  C   HIS F   2      -1.584  32.169 -18.127  1.00 50.00 LIG 0.24  C 
ATOM     12 O    HIS F   2      -0.948  32.455 -17.110  1.00 49.82 LIG-0.27  OA
ATOM     13  N   GLY F   3      -2.864  32.491 -18.301  1.00 50.02 LIG-0.35  N 
ATOM     14 H    GLY F   3      -3.321  32.273 -18.997  1.00 50.02 LIG 0.16  HD
BRANCH 13 15
ATOM     15  CA  GLY F   3      -3.613  33.253 -17.310  1.00 50.20 LIG 0.21  C 
BRANCH 15 16
ATOM     16  C   GLY F   3      -4.462  34.343 -17.933  1.00 50.42 LIG 0.21  C 
ATOM     17 O    GLY F   3      -3.984  35.112 -18.767  1.00 50.69 LIG-0.29  OA
ENDBRANCH 15 16
ENDBRANCH 13 15
ENDBRANCH 1 11
BRANCH 1 18
ATOM     18  CB  HIS F   2       0.596  31.368 -19.086  1.00 49.99 LIG 0.10  C 
BRANCH 18 19
ATOM     19  CG  HIS F   2       1.062  30.187 -18.292  1.00 50.63 LIG 0.06  A 
ATOM     20  CD2 HIS F   2       0.428  29.425 -17.367  1.00 51.31 LIG 0.14  A 
ATOM     21 NE2  HIS F   2       1.317  28.459 -16.958  1.00 51.32 LIG-0.25  NA
ATOM     22  CE1 HIS F   2       2.459  28.626 -17.602  1.00 50.87 LIG 0.23  A 
ATOM     23 ND1  HIS F   2       2.331  29.660 -18.415  1.00 50.82 LIG-0.24  NA
ENDBRANCH 18 19
ENDBRANCH 1 18
TORSDOF 8
ENDMDL
MODEL 33
USER: ADFR SOLUTION from run 200
USER: SCORE 6.887869 LL:  -1.236 LR:  -5.843 RR:   0.000 FEB:  -3.457
USER: RMSD 2.581153
USER: SEED 199
USER: STATUS no improvement in best in 13 clusters for 5 generations
USER: GENES 10
USER: genes 0 Translation |==|  0.57717 0.49947 0.63603
USER: genes 1 Rotation |==|  0.65032 0.41892 0.39718 0.95854
USER: genes 2 Torsion [C]-CA--N-[C] |==|  0.61452
USER: genes 3 Torsion [N]-C--CA-[N] |==|  0.88621
USER: genes 4 Torsion [C]-CA--N-[H3] |==|  0.19679
USER: genes 5 Torsion [N]-CA--C-[N] |==|  0.38914
USER: genes 6 Torsion [C]-N--CA-[C] |==|  0.22153
USER: genes 7 Torsion [N]-CA--C-[O] |==|  0.86038
USER: genes 8 Torsion [N]-CA--CB-[CG] |==|  0.86240
USER: genes 9 Torsion [CA]-CB--CG-[CD2] |==|  0.77903
ROOT
ATOM      1  CA  HIS F   2      -0.341  30.703 -16.821  1.00 49.99 LIG 0.18  C 
ENDROOT
BRANCH 1 2
ATOM      2  N   HIS F   2       0.430  31.607 -17.676  1.00 49.83 LIG-0.35  N 
ATOM      3  C   GLY F   1       0.807  31.273 -18.908  1.00 49.82 LIG 0.24  C 
ATOM      4 O    GLY F   1       0.594  30.164 -19.405  1.00 49.53 LIG-0.27  OA
ATOM      5 H    HIS F   2       0.612  32.364 -17.311  1.00 49.83 LIG 0.16  HD
BRANCH 3 6
ATOM      6  CA  GLY F   1       1.539  32.349 -19.693  1.00 49.90 LIG 0.33  C 
BRANCH 6 7
ATOM      7  N   GLY F   1       0.953  33.710 -19.513  1.00 49.95 LIG-0.07  N 
ATOM      8 H3   GLY F   1       1.126  34.001 -18.690  1.00 49.95 LIG 0.27  HD
ATOM      9 H1   GLY F   1       1.312  34.268 -20.106  1.00 49.95 LIG 0.27  HD
ATOM     10 H2   GLY F   1       0.073  33.673 -19.635  1.00 49.95 LIG 0.27  HD
ENDBRANCH 6 7
ENDBRANCH 3 6
ENDBRANCH 1 2
BRANCH 1 11
ATOM     11  C   HIS F   2      -1.431  31.461 -16.065  1.00 50.00 LIG 0.24  C 
ATOM     12 O    HIS F   2      -1.216  32.585 -15.604  1.00 49.82 LIG-0.27  OA
ATOM     13  N   GLY F   3      -2.602  30.838 -15.954  1.00 50.02 LIG-0.35  N 
ATOM     14 H    GLY F   3      -2.751  30.045 -16.252  1.00 50.02 LIG 0.16  HD
BRANCH 13 15
ATOM     15  CA  GLY F   3      -3.751  31.460 -15.308  1.00 50.20 LIG 0.21  C 
BRANCH 15 16
ATOM     16  C   GLY F   3      -4.470  32.440 -16.215  1.00 50.42 LIG 0.21  C 
ATOM     17 O    GLY F   3      -3.845  33.317 -16.813  1.00 50.69 LIG-0.29  OA
ENDBRANCH 15 16
ENDBRANCH 13 15
ENDBRANCH 1 11
BRANCH 1 18
ATOM     18  CB  HIS F   2       0.578  29.967 -15.844  1.00 49.99 LIG 0.10  C 
BRANCH 18 19
ATOM     19  CG  HIS F   2       1.770  29.336 -16.494  1.00 50.63 LIG 0.06  A 
ATOM     20  CD2 HIS F   2       1.901  28.179 -17.190  1.00 51.31 LIG 0.14  A 
ATOM     21 NE2  HIS F   2       3.218  28.085 -17.576  1.00 51.32 LIG-0.25  NA
ATOM     22  CE1 HIS F   2       3.873  29.142 -17.128  1.00 50.87 LIG 0.23  A 
ATOM     23 ND1  HIS F   2       3.022  29.913 -16.474  1.00 50.82 LIG-0.24  NA
ENDBRANCH 18 19
ENDBRANCH 1 18
TORSDOF 8
ENDMDL
MODEL 34
USER: ADFR SOLUTION from run 150
USER: SCORE 6.807115 LL:  -1.076 LR:  -5.838 RR:   0.000 FEB:  -3.451
USER: RMSD 3.560108
USER: SEED 149
USER: STATUS no improvement in best in 15 clusters for 5 generations
USER: GENES 10
USER: genes 0 Translation |==|  0.35766 0.46758 0.67213
USER: genes 1 Rotation |==|  0.41561 0.48602 0.69954 0.95041
USER: genes 2 Torsion [C]-CA--N-[C] |==|  0.80509
USER: genes 3 Torsion [N]-C--CA-[N] |==|  0.21579
USER: genes 4 Torsion [C]-CA--N-[H3] |==|  0.38051
USER: genes 5 Torsion [N]-CA--C-[N] |==|  0.47074
USER: genes 6 Torsion [C]-N--CA-[C] |==|  0.84762
USER: genes 7 Torsion [N]-CA--C-[O] |==|  0.44232
USER: genes 8 Torsion [N]-CA--CB-[CG] |==|  0.85005
USER: genes 9 Torsion [CA]-CB--CG-[CD2] |==|  0.73583
ROOT
ATOM      1  CA  HIS F   2      -4.127  30.297 -16.225  1.00 49.99 LIG 0.18  C 
ENDROOT
BRANCH 1 2
ATOM      2  N   HIS F   2      -4.055  30.180 -17.682  1.00 49.83 LIG-0.35  N 
ATOM      3  C   GLY F   1      -4.207  29.017 -18.311  1.00 49.82 LIG 0.24  C 
ATOM      4 O    GLY F   1      -4.362  27.943 -17.724  1.00 49.53 LIG-0.27  OA
ATOM      5 H    HIS F   2      -3.906  30.923 -18.087  1.00 49.83 LIG 0.16  HD
BRANCH 3 6
ATOM      6  CA  GLY F   1      -4.176  29.075 -19.829  1.00 49.90 LIG 0.33  C 
BRANCH 6 7
ATOM      7  N   GLY F   1      -2.797  29.201 -20.386  1.00 49.95 LIG-0.07  N 
ATOM      8 H3   GLY F   1      -2.708  28.659 -21.086  1.00 49.95 LIG 0.27  HD
ATOM      9 H1   GLY F   1      -2.656  30.042 -20.642  1.00 49.95 LIG 0.27  HD
ATOM     10 H2   GLY F   1      -2.203  28.979 -19.762  1.00 49.95 LIG 0.27  HD
ENDBRANCH 6 7
ENDBRANCH 3 6
ENDBRANCH 1 2
BRANCH 1 11
ATOM     11  C   HIS F   2      -5.556  30.083 -15.729  1.00 50.00 LIG 0.24  C 
ATOM     12 O    HIS F   2      -6.499  30.030 -16.523  1.00 49.82 LIG-0.27  OA
ATOM     13  N   GLY F   3      -5.702  29.951 -14.412  1.00 50.02 LIG-0.35  N 
ATOM     14 H    GLY F   3      -5.052  30.012 -13.852  1.00 50.02 LIG 0.16  HD
BRANCH 13 15
ATOM     15  CA  GLY F   3      -6.997  29.688 -13.800  1.00 50.20 LIG 0.21  C 
BRANCH 15 16
ATOM     16  C   GLY F   3      -8.046  30.711 -14.190  1.00 50.42 LIG 0.21  C 
ATOM     17 O    GLY F   3      -9.245  30.451 -14.089  1.00 50.69 LIG-0.29  OA
ENDBRANCH 15 16
ENDBRANCH 13 15
ENDBRANCH 1 11
BRANCH 1 18
ATOM     18  CB  HIS F   2      -3.595  31.655 -15.763  1.00 49.99 LIG 0.10  C 
BRANCH 18 19
ATOM     19  CG  HIS F   2      -2.218  31.965 -16.261  1.00 50.63 LIG 0.06  A 
ATOM     20  CD2 HIS F   2      -1.000  31.794 -15.690  1.00 51.31 LIG 0.14  A 
ATOM     21 NE2  HIS F   2      -0.062  32.240 -16.591  1.00 51.32 LIG-0.25  NA
ATOM     22  CE1 HIS F   2      -0.681  32.676 -17.674  1.00 50.87 LIG 0.23  A 
ATOM     23 ND1  HIS F   2      -1.982  32.520 -17.502  1.00 50.82 LIG-0.24  NA
ENDBRANCH 18 19
ENDBRANCH 1 18
TORSDOF 8
ENDMDL
MODEL 35
USER: ADFR SOLUTION from run 193
USER: SCORE 7.042476 LL:  -1.228 LR:  -5.820 RR:   0.000 FEB:  -3.434
USER: RMSD 2.745807
USER: SEED 192
USER: STATUS no improvement in best in 15 clusters for 5 generations
USER: GENES 10
USER: genes 0 Translation |==|  0.53859 0.44093 0.54693
USER: genes 1 Rotation |==|  0.75971 0.40564 0.50974 0.91659
USER: genes 2 Torsion [C]-CA--N-[C] |==|  0.83199
USER: genes 3 Torsion [N]-C--CA-[N] |==|  0.02975
USER: genes 4 Torsion [C]-CA--N-[H3] |==|  0.26486
USER: genes 5 Torsion [N]-CA--C-[N] |==|  0.92969
USER: genes 6 Torsion [C]-N--CA-[C] |==|  0.33341
USER: genes 7 Torsion [N]-CA--C-[O] |==|  0.00691
USER: genes 8 Torsion [N]-CA--CB-[CG] |==|  0.06297
USER: genes 9 Torsion [CA]-CB--CG-[CD2] |==|  0.12801
ROOT
ATOM      1  CA  HIS F   2      -1.006  29.957 -18.291  1.00 49.99 LIG 0.18  C 
ENDROOT
BRANCH 1 2
ATOM      2  N   HIS F   2      -0.589  31.342 -18.512  1.00 49.83 LIG-0.35  N 
ATOM      3  C   GLY F   1      -1.196  32.137 -19.390  1.00 49.82 LIG 0.24  C 
ATOM      4 O    GLY F   1      -2.113  31.761 -20.124  1.00 49.53 LIG-0.27  OA
ATOM      5 H    HIS F   2       0.077  31.589 -18.028  1.00 49.83 LIG 0.16  HD
BRANCH 3 6
ATOM      6  CA  GLY F   1      -0.690  33.569 -19.450  1.00 49.90 LIG 0.33  C 
BRANCH 6 7
ATOM      7  N   GLY F   1       0.578  33.777 -18.690  1.00 49.95 LIG-0.07  N 
ATOM      8 H3   GLY F   1       1.271  33.709 -19.244  1.00 49.95 LIG 0.27  HD
ATOM      9 H1   GLY F   1       0.573  34.587 -18.320  1.00 49.95 LIG 0.27  HD
ATOM     10 H2   GLY F   1       0.647  33.161 -18.052  1.00 49.95 LIG 0.27  HD
ENDBRANCH 6 7
ENDBRANCH 3 6
ENDBRANCH 1 2
BRANCH 1 11
ATOM     11  C   HIS F   2      -2.453  29.893 -17.804  1.00 50.00 LIG 0.24  C 
ATOM     12 O    HIS F   2      -3.136  28.882 -17.984  1.00 49.82 LIG-0.27  OA
ATOM     13  N   GLY F   3      -2.904  30.977 -17.177  1.00 50.02 LIG-0.35  N 
ATOM     14 H    GLY F   3      -2.441  31.694 -17.069  1.00 50.02 LIG 0.16  HD
BRANCH 13 15
ATOM     15  CA  GLY F   3      -4.245  31.041 -16.609  1.00 50.20 LIG 0.21  C 
BRANCH 15 16
ATOM     16  C   GLY F   3      -4.234  31.289 -15.114  1.00 50.42 LIG 0.21  C 
ATOM     17 O    GLY F   3      -3.172  31.460 -14.514  1.00 50.69 LIG-0.29  OA
ENDBRANCH 15 16
ENDBRANCH 13 15
ENDBRANCH 1 11
BRANCH 1 18
ATOM     18  CB  HIS F   2      -0.074  29.262 -17.297  1.00 49.99 LIG 0.10  C 
BRANCH 18 19
ATOM     19  CG  HIS F   2       0.665  30.206 -16.399  1.00 50.63 LIG 0.06  A 
ATOM     20  CD2 HIS F   2       0.241  31.281 -15.690  1.00 51.31 LIG 0.14  A 
ATOM     21 NE2  HIS F   2       1.333  31.785 -15.024  1.00 51.32 LIG-0.25  NA
ATOM     22  CE1 HIS F   2       2.392  31.050 -15.319  1.00 50.87 LIG 0.23  A 
ATOM     23 ND1  HIS F   2       2.015  30.090 -16.145  1.00 50.82 LIG-0.24  NA
ENDBRANCH 18 19
ENDBRANCH 1 18
TORSDOF 8
ENDMDL
MODEL 36
USER: ADFR SOLUTION from run 74
USER: SCORE 6.804774 LL:  -1.373 LR:  -5.781 RR:   0.000 FEB:  -3.395
USER: RMSD 5.322557
USER: SEED 73
USER: STATUS no improvement in best in 26 clusters for 5 generations
USER: GENES 10
USER: genes 0 Translation |==|  0.36479 0.60847 0.63429
USER: genes 1 Rotation |==|  0.49924 0.42990 0.00500 0.50784
USER: genes 2 Torsion [C]-CA--N-[C] |==|  0.11667
USER: genes 3 Torsion [N]-C--CA-[N] |==|  0.32545
USER: genes 4 Torsion [C]-CA--N-[H3] |==|  0.36325
USER: genes 5 Torsion [N]-CA--C-[N] |==|  0.11368
USER: genes 6 Torsion [C]-N--CA-[C] |==|  0.36969
USER: genes 7 Torsion [N]-CA--C-[O] |==|  0.98802
USER: genes 8 Torsion [N]-CA--CB-[CG] |==|  0.18236
USER: genes 9 Torsion [CA]-CB--CG-[CD2] |==|  0.26875
ROOT
ATOM      1  CA  HIS F   2      -4.004  32.093 -16.849  1.00 49.99 LIG 0.18  C 
ENDROOT
BRANCH 1 2
ATOM      2  N   HIS F   2      -4.078  31.360 -18.113  1.00 49.83 LIG-0.35  N 
ATOM      3  C   GLY F   1      -3.868  30.047 -18.189  1.00 49.82 LIG 0.24  C 
ATOM      4 O    GLY F   1      -3.538  29.357 -17.221  1.00 49.53 LIG-0.27  OA
ATOM      5 H    HIS F   2      -4.268  31.850 -18.793  1.00 49.83 LIG 0.16  HD
BRANCH 3 6
ATOM      6  CA  GLY F   1      -4.052  29.423 -19.562  1.00 49.90 LIG 0.33  C 
BRANCH 6 7
ATOM      7  N   GLY F   1      -2.799  28.823 -20.109  1.00 49.95 LIG-0.07  N 
ATOM      8 H3   GLY F   1      -2.967  27.999 -20.399  1.00 49.95 LIG 0.27  HD
ATOM      9 H1   GLY F   1      -2.503  29.321 -20.786  1.00 49.95 LIG 0.27  HD
ATOM     10 H2   GLY F   1      -2.180  28.793 -19.471  1.00 49.95 LIG 0.27  HD
ENDBRANCH 6 7
ENDBRANCH 3 6
ENDBRANCH 1 2
BRANCH 1 11
ATOM     11  C   HIS F   2      -2.814  31.625 -16.014  1.00 50.00 LIG 0.24  C 
ATOM     12 O    HIS F   2      -2.921  31.465 -14.795  1.00 49.82 LIG-0.27  OA
ATOM     13  N   GLY F   3      -1.687  31.397 -16.684  1.00 50.02 LIG-0.35  N 
ATOM     14 H    GLY F   3      -1.599  31.529 -17.529  1.00 50.02 LIG 0.16  HD
BRANCH 13 15
ATOM     15  CA  GLY F   3      -0.486  30.894 -16.029  1.00 50.20 LIG 0.21  C 
BRANCH 15 16
ATOM     16  C   GLY F   3       0.154  29.747 -16.787  1.00 50.42 LIG 0.21  C 
ATOM     17 O    GLY F   3      -0.383  29.282 -17.793  1.00 50.69 LIG-0.29  OA
ENDBRANCH 15 16
ENDBRANCH 13 15
ENDBRANCH 1 11
BRANCH 1 18
ATOM     18  CB  HIS F   2      -5.307  31.945 -16.060  1.00 49.99 LIG 0.10  C 
BRANCH 18 19
ATOM     19  CG  HIS F   2      -5.577  30.547 -15.597  1.00 50.63 LIG 0.06  A 
ATOM     20  CD2 HIS F   2      -5.340  29.937 -14.410  1.00 51.31 LIG 0.14  A 
ATOM     21 NE2  HIS F   2      -5.796  28.644 -14.520  1.00 51.32 LIG-0.25  NA
ATOM     22  CE1 HIS F   2      -6.288  28.464 -15.733  1.00 50.87 LIG 0.23  A 
ATOM     23 ND1  HIS F   2      -6.170  29.597 -16.402  1.00 50.82 LIG-0.24  NA
ENDBRANCH 18 19
ENDBRANCH 1 18
TORSDOF 8
ENDMDL
MODEL 37
USER: ADFR SOLUTION from run 174
USER: SCORE 6.690397 LL:  -1.193 LR:  -5.715 RR:   0.000 FEB:  -3.329
USER: RMSD 2.491140
USER: SEED 173
USER: STATUS no improvement in best in 20 clusters for 5 generations
USER: GENES 10
USER: genes 0 Translation |==|  0.44161 0.61419 0.61052
USER: genes 1 Rotation |==|  0.69255 0.53670 0.55120 0.95712
USER: genes 2 Torsion [C]-CA--N-[C] |==|  0.54778
USER: genes 3 Torsion [N]-C--CA-[N] |==|  0.50803
USER: genes 4 Torsion [C]-CA--N-[H3] |==|  0.16909
USER: genes 5 Torsion [N]-CA--C-[N] |==|  0.48333
USER: genes 6 Torsion [C]-N--CA-[C] |==|  0.18981
USER: genes 7 Torsion [N]-CA--C-[O] |==|  0.59583
USER: genes 8 Torsion [N]-CA--CB-[CG] |==|  0.62275
USER: genes 9 Torsion [CA]-CB--CG-[CD2] |==|  0.02448
ROOT
ATOM      1  CA  HIS F   2      -2.679  32.166 -17.241  1.00 49.99 LIG 0.18  C 
ENDROOT
BRANCH 1 2
ATOM      2  N   HIS F   2      -2.943  33.404 -17.976  1.00 49.83 LIG-0.35  N 
ATOM      3  C   GLY F   1      -2.358  33.680 -19.139  1.00 49.82 LIG 0.24  C 
ATOM      4 O    GLY F   1      -1.509  32.952 -19.661  1.00 49.53 LIG-0.27  OA
ATOM      5 H    HIS F   2      -3.504  33.928 -17.590  1.00 49.83 LIG 0.16  HD
BRANCH 3 6
ATOM      6  CA  GLY F   1      -2.792  34.973 -19.810  1.00 49.90 LIG 0.33  C 
BRANCH 6 7
ATOM      7  N   GLY F   1      -2.151  35.189 -21.141  1.00 49.95 LIG-0.07  N 
ATOM      8 H3   GLY F   1      -2.374  34.526 -21.690  1.00 49.95 LIG 0.27  HD
ATOM      9 H1   GLY F   1      -2.429  35.963 -21.482  1.00 49.95 LIG 0.27  HD
ATOM     10 H2   GLY F   1      -1.266  35.209 -21.045  1.00 49.95 LIG 0.27  HD
ENDBRANCH 6 7
ENDBRANCH 3 6
ENDBRANCH 1 2
BRANCH 1 11
ATOM     11  C   HIS F   2      -3.762  31.909 -16.195  1.00 50.00 LIG 0.24  C 
ATOM     12 O    HIS F   2      -4.647  32.742 -15.984  1.00 49.82 LIG-0.27  OA
ATOM     13  N   GLY F   3      -3.687  30.745 -15.554  1.00 50.02 LIG-0.35  N 
ATOM     14 H    GLY F   3      -3.059  30.171 -15.678  1.00 50.02 LIG 0.16  HD
BRANCH 13 15
ATOM     15  CA  GLY F   3      -4.681  30.339 -14.569  1.00 50.20 LIG 0.21  C 
BRANCH 15 16
ATOM     16  C   GLY F   3      -6.035  30.056 -15.189  1.00 50.42 LIG 0.21  C 
ATOM     17 O    GLY F   3      -7.072  30.317 -14.579  1.00 50.69 LIG-0.29  OA
ENDBRANCH 15 16
ENDBRANCH 13 15
ENDBRANCH 1 11
BRANCH 1 18
ATOM     18  CB  HIS F   2      -1.297  32.209 -16.586  1.00 49.99 LIG 0.10  C 
BRANCH 18 19
ATOM     19  CG  HIS F   2      -0.514  30.942 -16.745  1.00 50.63 LIG 0.06  A 
ATOM     20  CD2 HIS F   2      -0.747  29.834 -17.491  1.00 51.31 LIG 0.14  A 
ATOM     21 NE2  HIS F   2       0.301  28.971 -17.274  1.00 51.32 LIG-0.25  NA
ATOM     22  CE1 HIS F   2       1.144  29.525 -16.420  1.00 50.87 LIG 0.23  A 
ATOM     23 ND1  HIS F   2       0.676  30.715 -16.086  1.00 50.82 LIG-0.24  NA
ENDBRANCH 18 19
ENDBRANCH 1 18
TORSDOF 8
ENDMDL
MODEL 38
USER: ADFR SOLUTION from run 86
USER: SCORE 6.972837 LL:  -1.365 LR:  -5.692 RR:   0.000 FEB:  -3.306
USER: RMSD 4.401092
USER: SEED 85
USER: STATUS no improvement in best in 25 clusters for 5 generations
USER: GENES 10
USER: genes 0 Translation |==|  0.57129 0.52746 0.62913
USER: genes 1 Rotation |==|  0.46710 0.23013 0.68182 0.87819
USER: genes 2 Torsion [C]-CA--N-[C] |==|  0.83240
USER: genes 3 Torsion [N]-C--CA-[N] |==|  0.75674
USER: genes 4 Torsion [C]-CA--N-[H3] |==|  0.22101
USER: genes 5 Torsion [N]-CA--C-[N] |==|  0.43212
USER: genes 6 Torsion [C]-N--CA-[C] |==|  0.63924
USER: genes 7 Torsion [N]-CA--C-[O] |==|  0.88287
USER: genes 8 Torsion [N]-CA--CB-[CG] |==|  0.38221
USER: genes 9 Torsion [CA]-CB--CG-[CD2] |==|  0.78588
ROOT
ATOM      1  CA  HIS F   2      -0.442  31.060 -16.934  1.00 49.99 LIG 0.18  C 
ENDROOT
BRANCH 1 2
ATOM      2  N   HIS F   2       0.629  31.785 -17.620  1.00 49.83 LIG-0.35  N 
ATOM      3  C   GLY F   1       1.336  31.243 -18.609  1.00 49.82 LIG 0.24  C 
ATOM      4 O    GLY F   1       1.190  30.077 -18.987  1.00 49.53 LIG-0.27  OA
ATOM      5 H    HIS F   2       0.755  32.583 -17.327  1.00 49.83 LIG 0.16  HD
BRANCH 3 6
ATOM      6  CA  GLY F   1       2.363  32.150 -19.265  1.00 49.90 LIG 0.33  C 
BRANCH 6 7
ATOM      7  N   GLY F   1       1.802  32.960 -20.386  1.00 49.95 LIG-0.07  N 
ATOM      8 H3   GLY F   1       1.363  33.660 -20.056  1.00 49.95 LIG 0.27  HD
ATOM      9 H1   GLY F   1       2.466  33.246 -20.907  1.00 49.95 LIG 0.27  HD
ATOM     10 H2   GLY F   1       1.245  32.459 -20.865  1.00 49.95 LIG 0.27  HD
ENDBRANCH 6 7
ENDBRANCH 3 6
ENDBRANCH 1 2
BRANCH 1 11
ATOM     11  C   HIS F   2      -1.545  30.660 -17.912  1.00 50.00 LIG 0.24  C 
ATOM     12 O    HIS F   2      -1.713  31.281 -18.965  1.00 49.82 LIG-0.27  OA
ATOM     13  N   GLY F   3      -2.285  29.611 -17.558  1.00 50.02 LIG-0.35  N 
ATOM     14 H    GLY F   3      -2.189  29.189 -16.815  1.00 50.02 LIG 0.16  HD
BRANCH 13 15
ATOM     15  CA  GLY F   3      -3.337  29.081 -18.416  1.00 50.20 LIG 0.21  C 
BRANCH 15 16
ATOM     16  C   GLY F   3      -4.650  28.897 -17.681  1.00 50.42 LIG 0.21  C 
ATOM     17 O    GLY F   3      -4.672  28.428 -16.542  1.00 50.69 LIG-0.29  OA
ENDBRANCH 15 16
ENDBRANCH 13 15
ENDBRANCH 1 11
BRANCH 1 18
ATOM     18  CB  HIS F   2      -1.016  31.897 -15.790  1.00 49.99 LIG 0.10  C 
BRANCH 18 19
ATOM     19  CG  HIS F   2      -2.510  31.849 -15.697  1.00 50.63 LIG 0.06  A 
ATOM     20  CD2 HIS F   2      -3.472  32.466 -16.427  1.00 51.31 LIG 0.14  A 
ATOM     21 NE2  HIS F   2      -4.686  32.062 -15.924  1.00 51.32 LIG-0.25  NA
ATOM     22  CE1 HIS F   2      -4.478  31.232 -14.917  1.00 50.87 LIG 0.23  A 
ATOM     23 ND1  HIS F   2      -3.174  31.085 -14.760  1.00 50.82 LIG-0.24  NA
ENDBRANCH 18 19
ENDBRANCH 1 18
TORSDOF 8
ENDMDL
MODEL 39
USER: ADFR SOLUTION from run 116
USER: SCORE 6.587974 LL:  -1.153 LR:  -5.693 RR:   0.000 FEB:  -3.307
USER: RMSD 4.920706
USER: SEED 115
USER: STATUS no improvement in best in 15 clusters for 5 generations
USER: GENES 10
USER: genes 0 Translation |==|  0.34517 0.36813 0.46028
USER: genes 1 Rotation |==|  0.78588 0.49225 0.15924 0.72824
USER: genes 2 Torsion [C]-CA--N-[C] |==|  0.75057
USER: genes 3 Torsion [N]-C--CA-[N] |==|  0.15956
USER: genes 4 Torsion [C]-CA--N-[H3] |==|  0.30049
USER: genes 5 Torsion [N]-CA--C-[N] |==|  0.18458
USER: genes 6 Torsion [C]-N--CA-[C] |==|  0.40330
USER: genes 7 Torsion [N]-CA--C-[O] |==|  0.60708
USER: genes 8 Torsion [N]-CA--CB-[CG] |==|  0.92038
USER: genes 9 Torsion [CA]-CB--CG-[CD2] |==|  0.40621
ROOT
ATOM      1  CA  HIS F   2      -4.343  29.029 -19.720  1.00 49.99 LIG 0.18  C 
ENDROOT
BRANCH 1 2
ATOM      2  N   HIS F   2      -2.999  29.479 -20.087  1.00 49.83 LIG-0.35  N 
ATOM      3  C   GLY F   1      -2.711  30.761 -20.299  1.00 49.82 LIG 0.24  C 
ATOM      4 O    GLY F   1      -3.555  31.660 -20.265  1.00 49.53 LIG-0.27  OA
ATOM      5 H    HIS F   2      -2.422  28.845 -20.150  1.00 49.83 LIG 0.16  HD
BRANCH 3 6
ATOM      6  CA  GLY F   1      -1.255  31.073 -20.601  1.00 49.90 LIG 0.33  C 
BRANCH 6 7
ATOM      7  N   GLY F   1      -0.728  30.335 -21.787  1.00 49.95 LIG-0.07  N 
ATOM      8 H3   GLY F   1      -0.616  30.902 -22.464  1.00 49.95 LIG 0.27  HD
ATOM      9 H1   GLY F   1       0.054  29.961 -21.581  1.00 49.95 LIG 0.27  HD
ATOM     10 H2   GLY F   1      -1.306  29.701 -22.024  1.00 49.95 LIG 0.27  HD
ENDBRANCH 6 7
ENDBRANCH 3 6
ENDBRANCH 1 2
BRANCH 1 11
ATOM     11  C   HIS F   2      -4.523  29.022 -18.203  1.00 50.00 LIG 0.24  C 
ATOM     12 O    HIS F   2      -4.668  27.962 -17.589  1.00 49.82 LIG-0.27  OA
ATOM     13  N   GLY F   3      -4.501  30.213 -17.609  1.00 50.02 LIG-0.35  N 
ATOM     14 H    GLY F   3      -4.425  30.957 -18.034  1.00 50.02 LIG 0.16  HD
BRANCH 13 15
ATOM     15  CA  GLY F   3      -4.605  30.358 -16.163  1.00 50.20 LIG 0.21  C 
BRANCH 15 16
ATOM     16  C   GLY F   3      -3.777  31.512 -15.632  1.00 50.42 LIG 0.21  C 
ATOM     17 O    GLY F   3      -3.172  31.411 -14.565  1.00 50.69 LIG-0.29  OA
ENDBRANCH 15 16
ENDBRANCH 13 15
ENDBRANCH 1 11
BRANCH 1 18
ATOM     18  CB  HIS F   2      -4.627  27.642 -20.302  1.00 49.99 LIG 0.10  C 
BRANCH 18 19
ATOM     19  CG  HIS F   2      -3.885  27.356 -21.571  1.00 50.63 LIG 0.06  A 
ATOM     20  CD2 HIS F   2      -3.369  26.204 -22.065  1.00 51.31 LIG 0.14  A 
ATOM     21 NE2  HIS F   2      -2.797  26.502 -23.279  1.00 51.32 LIG-0.25  NA
ATOM     22  CE1 HIS F   2      -2.950  27.793 -23.519  1.00 50.87 LIG 0.23  A 
ATOM     23 ND1  HIS F   2      -3.605  28.331 -22.506  1.00 50.82 LIG-0.24  NA
ENDBRANCH 18 19
ENDBRANCH 1 18
TORSDOF 8
ENDMDL
MODEL 40
USER: ADFR SOLUTION from run 46
USER: SCORE 6.622757 LL:  -1.218 LR:  -5.678 RR:   0.000 FEB:  -3.292
USER: RMSD 3.509787
USER: SEED 45
USER: STATUS no improvement in best in 13 clusters for 5 generations
USER: GENES 10
USER: genes 0 Translation |==|  0.35022 0.56943 0.62943
USER: genes 1 Rotation |==|  0.32417 0.44671 0.32505 0.93085
USER: genes 2 Torsion [C]-CA--N-[C] |==|  0.56551
USER: genes 3 Torsion [N]-C--CA-[N] |==|  0.11692
USER: genes 4 Torsion [C]-CA--N-[H3] |==|  0.17778
USER: genes 5 Torsion [N]-CA--C-[N] |==|  0.40398
USER: genes 6 Torsion [C]-N--CA-[C] |==|  0.51139
USER: genes 7 Torsion [N]-CA--C-[O] |==|  0.34653
USER: genes 8 Torsion [N]-CA--CB-[CG] |==|  0.11244
USER: genes 9 Torsion [CA]-CB--CG-[CD2] |==|  0.19483
ROOT
ATOM      1  CA  HIS F   2      -4.256  31.595 -16.929  1.00 49.99 LIG 0.18  C 
ENDROOT
BRANCH 1 2
ATOM      2  N   HIS F   2      -4.042  30.762 -18.114  1.00 49.83 LIG-0.35  N 
ATOM      3  C   GLY F   1      -4.198  29.440 -18.092  1.00 49.82 LIG 0.24  C 
ATOM      4 O    GLY F   1      -4.475  28.807 -17.070  1.00 49.53 LIG-0.27  OA
ATOM      5 H    HIS F   2      -3.810  31.202 -18.815  1.00 49.83 LIG 0.16  HD
BRANCH 3 6
ATOM      6  CA  GLY F   1      -4.010  28.728 -19.421  1.00 49.90 LIG 0.33  C 
BRANCH 6 7
ATOM      7  N   GLY F   1      -2.847  29.241 -20.205  1.00 49.95 LIG-0.07  N 
ATOM      8 H3   GLY F   1      -2.094  29.079 -19.759  1.00 49.95 LIG 0.27  HD
ATOM      9 H1   GLY F   1      -2.818  28.831 -20.995  1.00 49.95 LIG 0.27  HD
ATOM     10 H2   GLY F   1      -2.936  30.117 -20.329  1.00 49.95 LIG 0.27  HD
ENDBRANCH 6 7
ENDBRANCH 3 6
ENDBRANCH 1 2
BRANCH 1 11
ATOM     11  C   HIS F   2      -4.582  33.034 -17.324  1.00 50.00 LIG 0.24  C 
ATOM     12 O    HIS F   2      -4.076  33.546 -18.326  1.00 49.82 LIG-0.27  OA
ATOM     13  N   GLY F   3      -5.442  33.674 -16.533  1.00 50.02 LIG-0.35  N 
ATOM     14 H    GLY F   3      -5.780  33.331 -15.820  1.00 50.02 LIG 0.16  HD
BRANCH 13 15
ATOM     15  CA  GLY F   3      -5.889  35.031 -16.815  1.00 50.20 LIG 0.21  C 
BRANCH 15 16
ATOM     16  C   GLY F   3      -6.787  35.587 -15.726  1.00 50.42 LIG 0.21  C 
ATOM     17 O    GLY F   3      -6.513  36.650 -15.169  1.00 50.69 LIG-0.29  OA
ENDBRANCH 15 16
ENDBRANCH 13 15
ENDBRANCH 1 11
BRANCH 1 18
ATOM     18  CB  HIS F   2      -3.033  31.554 -16.011  1.00 49.99 LIG 0.10  C 
BRANCH 18 19
ATOM     19  CG  HIS F   2      -1.727  31.592 -16.742  1.00 50.63 LIG 0.06  A 
ATOM     20  CD2 HIS F   2      -1.118  32.585 -17.435  1.00 51.31 LIG 0.14  A 
ATOM     21 NE2  HIS F   2       0.076  32.085 -17.898  1.00 51.32 LIG-0.25  NA
ATOM     22  CE1 HIS F   2       0.194  30.827 -17.509  1.00 50.87 LIG 0.23  A 
ATOM     23 ND1  HIS F   2      -0.879  30.506 -16.808  1.00 50.82 LIG-0.24  NA
ENDBRANCH 18 19
ENDBRANCH 1 18
TORSDOF 8
ENDMDL
MODEL 41
USER: ADFR SOLUTION from run 133
USER: SCORE 6.647866 LL:  -1.046 LR:  -5.679 RR:   0.000 FEB:  -3.292
USER: RMSD 5.247192
USER: SEED 132
USER: STATUS no improvement in best in 23 clusters for 5 generations
USER: GENES 10
USER: genes 0 Translation |==|  0.55691 0.69081 0.39098
USER: genes 1 Rotation |==|  0.62366 0.65336 0.48897 0.95942
USER: genes 2 Torsion [C]-CA--N-[C] |==|  0.76133
USER: genes 3 Torsion [N]-C--CA-[N] |==|  0.15370
USER: genes 4 Torsion [C]-CA--N-[H3] |==|  0.98763
USER: genes 5 Torsion [N]-CA--C-[N] |==|  0.46539
USER: genes 6 Torsion [C]-N--CA-[C] |==|  0.50747
USER: genes 7 Torsion [N]-CA--C-[O] |==|  0.24991
USER: genes 8 Torsion [N]-CA--CB-[CG] |==|  0.84833
USER: genes 9 Torsion [CA]-CB--CG-[CD2] |==|  0.95890
ROOT
ATOM      1  CA  HIS F   2      -0.690  33.143 -20.864  1.00 49.99 LIG 0.18  C 
ENDROOT
BRANCH 1 2
ATOM      2  N   HIS F   2      -1.336  34.124 -21.737  1.00 49.83 LIG-0.35  N 
ATOM      3  C   GLY F   1      -2.541  33.923 -22.265  1.00 49.82 LIG 0.24  C 
ATOM      4 O    GLY F   1      -3.183  32.880 -22.114  1.00 49.53 LIG-0.27  OA
ATOM      5 H    HIS F   2      -0.869  34.833 -21.874  1.00 49.83 LIG 0.16  HD
BRANCH 3 6
ATOM      6  CA  GLY F   1      -3.104  35.068 -23.091  1.00 49.90 LIG 0.33  C 
BRANCH 6 7
ATOM      7  N   GLY F   1      -2.198  35.495 -24.198  1.00 49.95 LIG-0.07  N 
ATOM      8 H3   GLY F   1      -1.435  35.040 -24.150  1.00 49.95 LIG 0.27  HD
ATOM      9 H1   GLY F   1      -2.591  35.334 -24.981  1.00 49.95 LIG 0.27  HD
ATOM     10 H2   GLY F   1      -2.029  36.365 -24.125  1.00 49.95 LIG 0.27  HD
ENDBRANCH 6 7
ENDBRANCH 3 6
ENDBRANCH 1 2
BRANCH 1 11
ATOM     11  C   HIS F   2      -1.129  33.329 -19.412  1.00 50.00 LIG 0.24  C 
ATOM     12 O    HIS F   2      -1.749  34.337 -19.064  1.00 49.82 LIG-0.27  OA
ATOM     13  N   GLY F   3      -0.811  32.342 -18.577  1.00 50.02 LIG-0.35  N 
ATOM     14 H    GLY F   3      -0.358  31.649 -18.809  1.00 50.02 LIG 0.16  HD
BRANCH 13 15
ATOM     15  CA  GLY F   3      -1.211  32.355 -17.176  1.00 50.20 LIG 0.21  C 
BRANCH 15 16
ATOM     16  C   GLY F   3      -0.681  31.161 -16.408  1.00 50.42 LIG 0.21  C 
ATOM     17 O    GLY F   3       0.414  31.212 -15.845  1.00 50.69 LIG-0.29  OA
ENDBRANCH 15 16
ENDBRANCH 13 15
ENDBRANCH 1 11
BRANCH 1 18
ATOM     18  CB  HIS F   2       0.832  33.233 -20.981  1.00 49.99 LIG 0.10  C 
BRANCH 18 19
ATOM     19  CG  HIS F   2       1.339  33.105 -22.384  1.00 50.63 LIG 0.06  A 
ATOM     20  CD2 HIS F   2       0.734  32.671 -23.517  1.00 51.31 LIG 0.14  A 
ATOM     21 NE2  HIS F   2       1.655  32.772 -24.534  1.00 51.32 LIG-0.25  NA
ATOM     22  CE1 HIS F   2       2.787  33.245 -24.042  1.00 50.87 LIG 0.23  A 
ATOM     23 ND1  HIS F   2       2.622  33.456 -22.748  1.00 50.82 LIG-0.24  NA
ENDBRANCH 18 19
ENDBRANCH 1 18
TORSDOF 8
ENDMDL
MODEL 42
USER: ADFR SOLUTION from run 179
USER: SCORE 6.948442 LL:  -1.384 LR:  -5.658 RR:   0.000 FEB:  -3.271
USER: RMSD 4.059136
USER: SEED 178
USER: STATUS no improvement in best in 11 clusters for 5 generations
USER: GENES 10
USER: genes 0 Translation |==|  0.58636 0.61122 0.43056
USER: genes 1 Rotation |==|  0.68794 0.64424 0.60184 0.92837
USER: genes 2 Torsion [C]-CA--N-[C] |==|  0.61579
USER: genes 3 Torsion [N]-C--CA-[N] |==|  0.25677
USER: genes 4 Torsion [C]-CA--N-[H3] |==|  0.93604
USER: genes 5 Torsion [N]-CA--C-[N] |==|  0.43154
USER: genes 6 Torsion [C]-N--CA-[C] |==|  0.60520
USER: genes 7 Torsion [N]-CA--C-[O] |==|  0.06004
USER: genes 8 Torsion [N]-CA--CB-[CG] |==|  0.53273
USER: genes 9 Torsion [CA]-CB--CG-[CD2] |==|  0.20470
ROOT
ATOM      1  CA  HIS F   2      -0.182  32.128 -20.211  1.00 49.99 LIG 0.18  C 
ENDROOT
BRANCH 1 2
ATOM      2  N   HIS F   2      -1.081  33.147 -20.754  1.00 49.83 LIG-0.35  N 
ATOM      3  C   GLY F   1      -1.376  33.218 -22.051  1.00 49.82 LIG 0.24  C 
ATOM      4 O    GLY F   1      -0.875  32.478 -22.902  1.00 49.53 LIG-0.27  OA
ATOM      5 H    HIS F   2      -1.397  33.687 -20.165  1.00 49.83 LIG 0.16  HD
BRANCH 3 6
ATOM      6  CA  GLY F   1      -2.381  34.287 -22.445  1.00 49.90 LIG 0.33  C 
BRANCH 6 7
ATOM      7  N   GLY F   1      -1.743  35.579 -22.837  1.00 49.95 LIG-0.07  N 
ATOM      8 H3   GLY F   1      -0.934  35.633 -22.472  1.00 49.95 LIG 0.27  HD
ATOM      9 H1   GLY F   1      -1.672  35.618 -23.724  1.00 49.95 LIG 0.27  HD
ATOM     10 H2   GLY F   1      -2.244  36.256 -22.550  1.00 49.95 LIG 0.27  HD
ENDBRANCH 6 7
ENDBRANCH 3 6
ENDBRANCH 1 2
BRANCH 1 11
ATOM     11  C   HIS F   2      -0.720  31.569 -18.895  1.00 50.00 LIG 0.24  C 
ATOM     12 O    HIS F   2      -1.495  32.229 -18.198  1.00 49.82 LIG-0.27  OA
ATOM     13  N   GLY F   3      -0.310  30.345 -18.571  1.00 50.02 LIG-0.35  N 
ATOM     14 H    GLY F   3       0.249  29.890 -19.040  1.00 50.02 LIG 0.16  HD
BRANCH 13 15
ATOM     15  CA  GLY F   3      -0.782  29.662 -17.374  1.00 50.20 LIG 0.21  C 
BRANCH 15 16
ATOM     16  C   GLY F   3       0.306  28.850 -16.699  1.00 50.42 LIG 0.21  C 
ATOM     17 O    GLY F   3       1.494  29.105 -16.897  1.00 50.69 LIG-0.29  OA
ENDBRANCH 15 16
ENDBRANCH 13 15
ENDBRANCH 1 11
BRANCH 1 18
ATOM     18  CB  HIS F   2       1.226  32.695 -20.018  1.00 49.99 LIG 0.10  C 
BRANCH 18 19
ATOM     19  CG  HIS F   2       2.262  31.653 -19.733  1.00 50.63 LIG 0.06  A 
ATOM     20  CD2 HIS F   2       2.850  30.732 -20.537  1.00 51.31 LIG 0.14  A 
ATOM     21 NE2  HIS F   2       3.744  30.030 -19.764  1.00 51.32 LIG-0.25  NA
ATOM     22  CE1 HIS F   2       3.703  30.497 -18.528  1.00 50.87 LIG 0.23  A 
ATOM     23 ND1  HIS F   2       2.819  31.478 -18.483  1.00 50.82 LIG-0.24  NA
ENDBRANCH 18 19
ENDBRANCH 1 18
TORSDOF 8
ENDMDL
MODEL 43
USER: ADFR SOLUTION from run 26
USER: SCORE 6.454846 LL:  -1.154 LR:  -5.612 RR:   0.000 FEB:  -3.226
USER: RMSD 3.759244
USER: SEED 25
USER: STATUS no improvement in best in 19 clusters for 5 generations
USER: GENES 10
USER: genes 0 Translation |==|  0.46837 0.69865 0.48669
USER: genes 1 Rotation |==|  0.63334 0.54504 0.51691 0.97949
USER: genes 2 Torsion [C]-CA--N-[C] |==|  0.66596
USER: genes 3 Torsion [N]-C--CA-[N] |==|  0.25609
USER: genes 4 Torsion [C]-CA--N-[H3] |==|  0.48242
USER: genes 5 Torsion [N]-CA--C-[N] |==|  0.10499
USER: genes 6 Torsion [C]-N--CA-[C] |==|  0.29826
USER: genes 7 Torsion [N]-CA--C-[O] |==|  0.00052
USER: genes 8 Torsion [N]-CA--CB-[CG] |==|  0.52078
USER: genes 9 Torsion [CA]-CB--CG-[CD2] |==|  0.68946
ROOT
ATOM      1  CA  HIS F   2      -2.218  33.243 -19.285  1.00 49.99 LIG 0.18  C 
ENDROOT
BRANCH 1 2
ATOM      2  N   HIS F   2      -2.409  34.270 -20.310  1.00 49.83 LIG-0.35  N 
ATOM      3  C   GLY F   1      -2.666  33.968 -21.580  1.00 49.82 LIG 0.24  C 
ATOM      4 O    GLY F   1      -2.706  32.811 -22.008  1.00 49.53 LIG-0.27  OA
ATOM      5 H    HIS F   2      -2.340  35.075 -20.017  1.00 49.83 LIG 0.16  HD
BRANCH 3 6
ATOM      6  CA  GLY F   1      -2.910  35.148 -22.507  1.00 49.90 LIG 0.33  C 
BRANCH 6 7
ATOM      7  N   GLY F   1      -1.672  35.625 -23.190  1.00 49.95 LIG-0.07  N 
ATOM      8 H3   GLY F   1      -1.884  36.252 -23.785  1.00 49.95 LIG 0.27  HD
ATOM      9 H1   GLY F   1      -1.113  35.967 -22.587  1.00 49.95 LIG 0.27  HD
ATOM     10 H2   GLY F   1      -1.280  34.943 -23.605  1.00 49.95 LIG 0.27  HD
ENDBRANCH 6 7
ENDBRANCH 3 6
ENDBRANCH 1 2
BRANCH 1 11
ATOM     11  C   HIS F   2      -3.249  33.387 -18.167  1.00 50.00 LIG 0.24  C 
ATOM     12 O    HIS F   2      -2.937  33.192 -16.990  1.00 49.82 LIG-0.27  OA
ATOM     13  N   GLY F   3      -4.475  33.740 -18.548  1.00 50.02 LIG-0.35  N 
ATOM     14 H    GLY F   3      -4.705  33.853 -19.369  1.00 50.02 LIG 0.16  HD
BRANCH 13 15
ATOM     15  CA  GLY F   3      -5.548  33.969 -17.589  1.00 50.20 LIG 0.21  C 
BRANCH 15 16
ATOM     16  C   GLY F   3      -5.892  35.437 -17.439  1.00 50.42 LIG 0.21  C 
ATOM     17 O    GLY F   3      -5.292  36.293 -18.091  1.00 50.69 LIG-0.29  OA
ENDBRANCH 15 16
ENDBRANCH 13 15
ENDBRANCH 1 11
BRANCH 1 18
ATOM     18  CB  HIS F   2      -0.798  33.301 -18.717  1.00 49.99 LIG 0.10  C 
BRANCH 18 19
ATOM     19  CG  HIS F   2      -0.471  32.171 -17.791  1.00 50.63 LIG 0.06  A 
ATOM     20  CD2 HIS F   2      -0.242  32.146 -16.455  1.00 51.31 LIG 0.14  A 
ATOM     21 NE2  HIS F   2       0.003  30.838 -16.109  1.00 51.32 LIG-0.25  NA
ATOM     22  CE1 HIS F   2      -0.066  30.087 -17.194  1.00 50.87 LIG 0.23  A 
ATOM     23 ND1  HIS F   2      -0.352  30.866 -18.222  1.00 50.82 LIG-0.24  NA
ENDBRANCH 18 19
ENDBRANCH 1 18
TORSDOF 8
ENDMDL
MODEL 44
USER: ADFR SOLUTION from run 81
USER: SCORE 6.829726 LL:  -1.388 LR:  -5.609 RR:   0.000 FEB:  -3.222
USER: RMSD 6.073382
USER: SEED 80
USER: STATUS no improvement in best in 17 clusters for 5 generations
USER: GENES 10
USER: genes 0 Translation |==|  0.39678 0.73394 0.52577
USER: genes 1 Rotation |==|  0.35957 0.44116 0.96750 0.59088
USER: genes 2 Torsion [C]-CA--N-[C] |==|  0.56743
USER: genes 3 Torsion [N]-C--CA-[N] |==|  0.49701
USER: genes 4 Torsion [C]-CA--N-[H3] |==|  0.94149
USER: genes 5 Torsion [N]-CA--C-[N] |==|  0.47222
USER: genes 6 Torsion [C]-N--CA-[C] |==|  0.67647
USER: genes 7 Torsion [N]-CA--C-[O] |==|  0.01105
USER: genes 8 Torsion [N]-CA--CB-[CG] |==|  0.61836
USER: genes 9 Torsion [CA]-CB--CG-[CD2] |==|  0.23949
ROOT
ATOM      1  CA  HIS F   2      -3.452  33.693 -18.640  1.00 49.99 LIG 0.18  C 
ENDROOT
BRANCH 1 2
ATOM      2  N   HIS F   2      -2.811  33.577 -19.950  1.00 49.83 LIG-0.35  N 
ATOM      3  C   GLY F   1      -2.535  34.639 -20.704  1.00 49.82 LIG 0.24  C 
ATOM      4 O    GLY F   1      -2.848  35.791 -20.393  1.00 49.53 LIG-0.27  OA
ATOM      5 H    HIS F   2      -2.631  32.769 -20.183  1.00 49.83 LIG 0.16  HD
BRANCH 3 6
ATOM      6  CA  GLY F   1      -1.803  34.357 -22.005  1.00 49.90 LIG 0.33  C 
BRANCH 6 7
ATOM      7  N   GLY F   1      -1.547  35.585 -22.815  1.00 49.95 LIG-0.07  N 
ATOM      8 H3   GLY F   1      -2.114  36.226 -22.569  1.00 49.95 LIG 0.27  HD
ATOM      9 H1   GLY F   1      -0.711  35.860 -22.681  1.00 49.95 LIG 0.27  HD
ATOM     10 H2   GLY F   1      -1.663  35.401 -23.678  1.00 49.95 LIG 0.27  HD
ENDBRANCH 6 7
ENDBRANCH 3 6
ENDBRANCH 1 2
BRANCH 1 11
ATOM     11  C   HIS F   2      -3.123  32.487 -17.761  1.00 50.00 LIG 0.24  C 
ATOM     12 O    HIS F   2      -2.550  31.501 -18.230  1.00 49.82 LIG-0.27  OA
ATOM     13  N   GLY F   3      -3.482  32.584 -16.483  1.00 50.02 LIG-0.35  N 
ATOM     14 H    GLY F   3      -3.904  33.259 -16.155  1.00 50.02 LIG 0.16  HD
BRANCH 13 15
ATOM     15  CA  GLY F   3      -3.184  31.537 -15.514  1.00 50.20 LIG 0.21  C 
BRANCH 15 16
ATOM     16  C   GLY F   3      -4.435  30.898 -14.944  1.00 50.42 LIG 0.21  C 
ATOM     17 O    GLY F   3      -5.549  31.221 -15.357  1.00 50.69 LIG-0.29  OA
ENDBRANCH 15 16
ENDBRANCH 13 15
ENDBRANCH 1 11
BRANCH 1 18
ATOM     18  CB  HIS F   2      -4.967  33.851 -18.790  1.00 49.99 LIG 0.10  C 
BRANCH 18 19
ATOM     19  CG  HIS F   2      -5.560  34.880 -17.879  1.00 50.63 LIG 0.06  A 
ATOM     20  CD2 HIS F   2      -5.708  36.221 -18.021  1.00 51.31 LIG 0.14  A 
ATOM     21 NE2  HIS F   2      -6.329  36.683 -16.884  1.00 51.32 LIG-0.25  NA
ATOM     22  CE1 HIS F   2      -6.548  35.665 -16.070  1.00 50.87 LIG 0.23  A 
ATOM     23 ND1  HIS F   2      -6.095  34.565 -16.648  1.00 50.82 LIG-0.24  NA
ENDBRANCH 18 19
ENDBRANCH 1 18
TORSDOF 8
ENDMDL
MODEL 45
USER: ADFR SOLUTION from run 148
USER: SCORE 7.036931 LL:  -1.546 LR:  -5.493 RR:   0.000 FEB:  -3.106
USER: RMSD 4.085464
USER: SEED 147
USER: STATUS no improvement in best in 17 clusters for 5 generations
USER: GENES 10
USER: genes 0 Translation |==|  0.46483 0.62411 0.47855
USER: genes 1 Rotation |==|  0.58775 0.40048 0.39250 0.96993
USER: genes 2 Torsion [C]-CA--N-[C] |==|  0.83685
USER: genes 3 Torsion [N]-C--CA-[N] |==|  0.66442
USER: genes 4 Torsion [C]-CA--N-[H3] |==|  0.37956
USER: genes 5 Torsion [N]-CA--C-[N] |==|  0.37689
USER: genes 6 Torsion [C]-N--CA-[C] |==|  0.81936
USER: genes 7 Torsion [N]-CA--C-[O] |==|  0.92663
USER: genes 8 Torsion [N]-CA--CB-[CG] |==|  0.44951
USER: genes 9 Torsion [CA]-CB--CG-[CD2] |==|  0.64385
ROOT
ATOM      1  CA  HIS F   2      -2.279  32.292 -19.419  1.00 49.99 LIG 0.18  C 
ENDROOT
BRANCH 1 2
ATOM      2  N   HIS F   2      -1.452  32.895 -20.465  1.00 49.83 LIG-0.35  N 
ATOM      3  C   GLY F   1      -1.971  33.393 -21.585  1.00 49.82 LIG 0.24  C 
ATOM      4 O    GLY F   1      -3.173  33.336 -21.859  1.00 49.53 LIG-0.27  OA
ATOM      5 H    HIS F   2      -0.610  32.896 -20.290  1.00 49.83 LIG 0.16  HD
BRANCH 3 6
ATOM      6  CA  GLY F   1      -0.987  34.047 -22.540  1.00 49.90 LIG 0.33  C 
BRANCH 6 7
ATOM      7  N   GLY F   1      -1.298  35.481 -22.815  1.00 49.95 LIG-0.07  N 
ATOM      8 H3   GLY F   1      -0.547  35.958 -22.792  1.00 49.95 LIG 0.27  HD
ATOM      9 H1   GLY F   1      -1.672  35.555 -23.620  1.00 49.95 LIG 0.27  HD
ATOM     10 H2   GLY F   1      -1.862  35.786 -22.198  1.00 49.95 LIG 0.27  HD
ENDBRANCH 6 7
ENDBRANCH 3 6
ENDBRANCH 1 2
BRANCH 1 11
ATOM     11  C   HIS F   2      -3.308  33.291 -18.893  1.00 50.00 LIG 0.24  C 
ATOM     12 O    HIS F   2      -2.991  34.458 -18.653  1.00 49.82 LIG-0.27  OA
ATOM     13  N   GLY F   3      -4.543  32.821 -18.729  1.00 50.02 LIG-0.35  N 
ATOM     14 H    GLY F   3      -4.765  32.002 -18.871  1.00 50.02 LIG 0.16  HD
BRANCH 13 15
ATOM     15  CA  GLY F   3      -5.642  33.670 -18.287  1.00 50.20 LIG 0.21  C 
BRANCH 15 16
ATOM     16  C   GLY F   3      -5.446  34.189 -16.876  1.00 50.42 LIG 0.21  C 
ATOM     17 O    GLY F   3      -4.763  33.562 -16.066  1.00 50.69 LIG-0.29  OA
ENDBRANCH 15 16
ENDBRANCH 13 15
ENDBRANCH 1 11
BRANCH 1 18
ATOM     18  CB  HIS F   2      -1.408  31.766 -18.276  1.00 49.99 LIG 0.10  C 
BRANCH 18 19
ATOM     19  CG  HIS F   2      -2.160  31.533 -17.002  1.00 50.63 LIG 0.06  A 
ATOM     20  CD2 HIS F   2      -1.923  31.952 -15.735  1.00 51.31 LIG 0.14  A 
ATOM     21 NE2  HIS F   2      -2.937  31.460 -14.948  1.00 51.32 LIG-0.25  NA
ATOM     22  CE1 HIS F   2      -3.764  30.758 -15.703  1.00 50.87 LIG 0.23  A 
ATOM     23 ND1  HIS F   2      -3.319  30.788 -16.947  1.00 50.82 LIG-0.24  NA
ENDBRANCH 18 19
ENDBRANCH 1 18
TORSDOF 8
ENDMDL
MODEL 46
USER: ADFR SOLUTION from run 104
USER: SCORE 6.655914 LL:  -1.278 LR:  -5.456 RR:   0.000 FEB:  -3.069
USER: RMSD 4.955559
USER: SEED 103
USER: STATUS no improvement in best in 21 clusters for 5 generations
USER: GENES 10
USER: genes 0 Translation |==|  0.59940 0.62093 0.38236
USER: genes 1 Rotation |==|  0.44478 0.62514 0.55084 0.97823
USER: genes 2 Torsion [C]-CA--N-[C] |==|  0.17153
USER: genes 3 Torsion [N]-C--CA-[N] |==|  0.63377
USER: genes 4 Torsion [C]-CA--N-[H3] |==|  0.13910
USER: genes 5 Torsion [N]-CA--C-[N] |==|  0.09441
USER: genes 6 Torsion [C]-N--CA-[C] |==|  0.73896
USER: genes 7 Torsion [N]-CA--C-[O] |==|  0.33803
USER: genes 8 Torsion [N]-CA--CB-[CG] |==|  0.86688
USER: genes 9 Torsion [CA]-CB--CG-[CD2] |==|  0.84740
ROOT
ATOM      1  CA  HIS F   2       0.043  32.252 -21.006  1.00 49.99 LIG 0.18  C 
ENDROOT
BRANCH 1 2
ATOM      2  N   HIS F   2      -0.618  32.227 -22.312  1.00 49.83 LIG-0.35  N 
ATOM      3  C   GLY F   1      -0.935  33.340 -22.970  1.00 49.82 LIG 0.24  C 
ATOM      4 O    GLY F   1      -0.755  34.472 -22.514  1.00 49.53 LIG-0.27  OA
ATOM      5 H    HIS F   2      -0.779  31.437 -22.609  1.00 49.83 LIG 0.16  HD
BRANCH 3 6
ATOM      6  CA  GLY F   1      -1.551  33.145 -24.345  1.00 49.90 LIG 0.33  C 
BRANCH 6 7
ATOM      7  N   GLY F   1      -0.921  33.993 -25.399  1.00 49.95 LIG-0.07  N 
ATOM      8 H3   GLY F   1      -0.037  33.901 -25.365  1.00 49.95 LIG 0.27  HD
ATOM      9 H1   GLY F   1      -1.215  33.740 -26.200  1.00 49.95 LIG 0.27  HD
ATOM     10 H2   GLY F   1      -1.135  34.846 -25.262  1.00 49.95 LIG 0.27  HD
ENDBRANCH 6 7
ENDBRANCH 3 6
ENDBRANCH 1 2
BRANCH 1 11
ATOM     11  C   HIS F   2      -0.829  32.952 -19.965  1.00 50.00 LIG 0.24  C 
ATOM     12 O    HIS F   2      -0.322  33.629 -19.067  1.00 49.82 LIG-0.27  OA
ATOM     13  N   GLY F   3      -2.143  32.789 -20.102  1.00 50.02 LIG-0.35  N 
ATOM     14 H    GLY F   3      -2.502  32.299 -20.711  1.00 50.02 LIG 0.16  HD
BRANCH 13 15
ATOM     15  CA  GLY F   3      -3.100  33.441 -19.218  1.00 50.20 LIG 0.21  C 
BRANCH 15 16
ATOM     16  C   GLY F   3      -3.510  32.561 -18.053  1.00 50.42 LIG 0.21  C 
ATOM     17 O    GLY F   3      -3.334  32.933 -16.893  1.00 50.69 LIG-0.29  OA
ENDBRANCH 15 16
ENDBRANCH 13 15
ENDBRANCH 1 11
BRANCH 1 18
ATOM     18  CB  HIS F   2       1.411  32.929 -21.104  1.00 49.99 LIG 0.10  C 
BRANCH 18 19
ATOM     19  CG  HIS F   2       2.250  32.434 -22.241  1.00 50.63 LIG 0.06  A 
ATOM     20  CD2 HIS F   2       2.648  31.183 -22.581  1.00 51.31 LIG 0.14  A 
ATOM     21 NE2  HIS F   2       3.398  31.293 -23.728  1.00 51.32 LIG-0.25  NA
ATOM     22  CE1 HIS F   2       3.464  32.566 -24.077  1.00 50.87 LIG 0.23  A 
ATOM     23 ND1  HIS F   2       2.778  33.275 -23.198  1.00 50.82 LIG-0.24  NA
ENDBRANCH 18 19
ENDBRANCH 1 18
TORSDOF 8
ENDMDL
MODEL 47
USER: ADFR SOLUTION from run 16
USER: SCORE 6.577936 LL:  -1.127 LR:  -5.451 RR:   0.000 FEB:  -3.065
USER: RMSD 3.513113
USER: SEED 596533
USER: STATUS no improvement in best in 17 clusters for 5 generations
USER: GENES 10
USER: genes 0 Translation |==|  0.54827 0.60916 0.53151
USER: genes 1 Rotation |==|  0.42221 0.66111 0.70103 0.92141
USER: genes 2 Torsion [C]-CA--N-[C] |==|  0.81950
USER: genes 3 Torsion [N]-C--CA-[N] |==|  0.27664
USER: genes 4 Torsion [C]-CA--N-[H3] |==|  0.55581
USER: genes 5 Torsion [N]-CA--C-[N] |==|  0.93708
USER: genes 6 Torsion [C]-N--CA-[C] |==|  0.81002
USER: genes 7 Torsion [N]-CA--C-[O] |==|  0.23175
USER: genes 8 Torsion [N]-CA--CB-[CG] |==|  0.91277
USER: genes 9 Torsion [CA]-CB--CG-[CD2] |==|  0.24500
ROOT
ATOM      1  CA  HIS F   2      -0.839  32.102 -18.545  1.00 49.99 LIG 0.18  C 
ENDROOT
BRANCH 1 2
ATOM      2  N   HIS F   2      -1.664  31.633 -19.659  1.00 49.83 LIG-0.35  N 
ATOM      3  C   GLY F   1      -2.221  30.424 -19.674  1.00 49.82 LIG 0.24  C 
ATOM      4 O    GLY F   1      -2.042  29.584 -18.788  1.00 49.53 LIG-0.27  OA
ATOM      5 H    HIS F   2      -1.754  32.206 -20.295  1.00 49.83 LIG 0.16  HD
BRANCH 3 6
ATOM      6  CA  GLY F   1      -3.108  30.116 -20.869  1.00 49.90 LIG 0.33  C 
BRANCH 6 7
ATOM      7  N   GLY F   1      -2.422  29.303 -21.917  1.00 49.95 LIG-0.07  N 
ATOM      8 H3   GLY F   1      -2.852  29.394 -22.691  1.00 49.95 LIG 0.27  HD
ATOM      9 H1   GLY F   1      -1.582  29.585 -22.009  1.00 49.95 LIG 0.27  HD
ATOM     10 H2   GLY F   1      -2.422  28.447 -21.676  1.00 49.95 LIG 0.27  HD
ENDBRANCH 6 7
ENDBRANCH 3 6
ENDBRANCH 1 2
BRANCH 1 11
ATOM     11  C   HIS F   2      -1.667  32.228 -17.267  1.00 50.00 LIG 0.24  C 
ATOM     12 O    HIS F   2      -1.125  32.209 -16.159  1.00 49.82 LIG-0.27  OA
ATOM     13  N   GLY F   3      -2.980  32.369 -17.436  1.00 50.02 LIG-0.35  N 
ATOM     14 H    GLY F   3      -3.366  32.359 -18.204  1.00 50.02 LIG 0.16  HD
BRANCH 13 15
ATOM     15  CA  GLY F   3      -3.888  32.556 -16.312  1.00 50.20 LIG 0.21  C 
BRANCH 15 16
ATOM     16  C   GLY F   3      -4.004  31.318 -15.444  1.00 50.42 LIG 0.21  C 
ATOM     17 O    GLY F   3      -3.172  31.088 -14.565  1.00 50.69 LIG-0.29  OA
ENDBRANCH 15 16
ENDBRANCH 13 15
ENDBRANCH 1 11
BRANCH 1 18
ATOM     18  CB  HIS F   2      -0.172  33.435 -18.888  1.00 49.99 LIG 0.10  C 
BRANCH 18 19
ATOM     19  CG  HIS F   2       0.140  33.598 -20.343  1.00 50.63 LIG 0.06  A 
ATOM     20  CD2 HIS F   2      -0.601  34.085 -21.369  1.00 51.31 LIG 0.14  A 
ATOM     21 NE2  HIS F   2       0.176  34.016 -22.501  1.00 51.32 LIG-0.25  NA
ATOM     22  CE1 HIS F   2       1.350  33.498 -22.184  1.00 50.87 LIG 0.23  A 
ATOM     23 ND1  HIS F   2       1.356  33.239 -20.888  1.00 50.82 LIG-0.24  NA
ENDBRANCH 18 19
ENDBRANCH 1 18
TORSDOF 8
ENDMDL
MODEL 48
USER: ADFR SOLUTION from run 174
USER: SCORE 6.896506 LL:  -1.481 LR:  -5.439 RR:   0.000 FEB:  -3.053
USER: RMSD 4.617114
USER: SEED 173
USER: STATUS no improvement in best in 20 clusters for 5 generations
USER: GENES 10
USER: genes 0 Translation |==|  0.46592 0.64663 0.61986
USER: genes 1 Rotation |==|  0.12439 0.54404 0.78980 0.65165
USER: genes 2 Torsion [C]-CA--N-[C] |==|  0.73409
USER: genes 3 Torsion [N]-C--CA-[N] |==|  0.86367
USER: genes 4 Torsion [C]-CA--N-[H3] |==|  0.68058
USER: genes 5 Torsion [N]-CA--C-[N] |==|  0.99450
USER: genes 6 Torsion [C]-N--CA-[C] |==|  0.30405
USER: genes 7 Torsion [N]-CA--C-[O] |==|  0.09325
USER: genes 8 Torsion [N]-CA--CB-[CG] |==|  0.19608
USER: genes 9 Torsion [CA]-CB--CG-[CD2] |==|  0.77917
ROOT
ATOM      1  CA  HIS F   2      -2.260  32.580 -17.087  1.00 49.99 LIG 0.18  C 
ENDROOT
BRANCH 1 2
ATOM      2  N   HIS F   2      -1.243  31.527 -17.087  1.00 49.83 LIG-0.35  N 
ATOM      3  C   GLY F   1      -0.268  31.479 -16.183  1.00 49.82 LIG 0.24  C 
ATOM      4 O    GLY F   1      -0.104  32.340 -15.315  1.00 49.53 LIG-0.27  OA
ATOM      5 H    HIS F   2      -1.336  30.950 -17.718  1.00 49.83 LIG 0.16  HD
BRANCH 3 6
ATOM      6  CA  GLY F   1       0.665  30.283 -16.276  1.00 49.90 LIG 0.33  C 
BRANCH 6 7
ATOM      7  N   GLY F   1      -0.056  28.980 -16.378  1.00 49.95 LIG-0.07  N 
ATOM      8 H3   GLY F   1       0.111  28.491 -15.653  1.00 49.95 LIG 0.27  HD
ATOM      9 H1   GLY F   1      -0.931  29.129 -16.440  1.00 49.95 LIG 0.27  HD
ATOM     10 H2   GLY F   1       0.222  28.542 -17.101  1.00 49.95 LIG 0.27  HD
ENDBRANCH 6 7
ENDBRANCH 3 6
ENDBRANCH 1 2
BRANCH 1 11
ATOM     11  C   HIS F   2      -3.522  32.122 -16.358  1.00 50.00 LIG 0.24  C 
ATOM     12 O    HIS F   2      -4.486  32.880 -16.227  1.00 49.82 LIG-0.27  OA
ATOM     13  N   GLY F   3      -3.506  30.873 -15.897  1.00 50.02 LIG-0.35  N 
ATOM     14 H    GLY F   3      -2.828  30.348 -15.963  1.00 50.02 LIG 0.16  HD
BRANCH 13 15
ATOM     15  CA  GLY F   3      -4.658  30.281 -15.229  1.00 50.20 LIG 0.21  C 
BRANCH 15 16
ATOM     16  C   GLY F   3      -5.332  29.212 -16.067  1.00 50.42 LIG 0.21  C 
ATOM     17 O    GLY F   3      -4.671  28.492 -16.816  1.00 50.69 LIG-0.29  OA
ENDBRANCH 15 16
ENDBRANCH 13 15
ENDBRANCH 1 11
BRANCH 1 18
ATOM     18  CB  HIS F   2      -2.592  33.012 -18.517  1.00 49.99 LIG 0.10  C 
BRANCH 18 19
ATOM     19  CG  HIS F   2      -3.352  31.984 -19.297  1.00 50.63 LIG 0.06  A 
ATOM     20  CD2 HIS F   2      -2.939  30.862 -19.937  1.00 51.31 LIG 0.14  A 
ATOM     21 NE2  HIS F   2      -4.054  30.275 -20.486  1.00 51.32 LIG-0.25  NA
ATOM     22  CE1 HIS F   2      -5.113  31.013 -20.201  1.00 50.87 LIG 0.23  A 
ATOM     23 ND1  HIS F   2      -4.717  32.049 -19.483  1.00 50.82 LIG-0.24  NA
ENDBRANCH 18 19
ENDBRANCH 1 18
TORSDOF 8
ENDMDL
MODEL 49
USER: ADFR SOLUTION from run 63
USER: SCORE 6.688773 LL:  -1.435 LR:  -5.428 RR:   0.000 FEB:  -3.042
USER: RMSD 3.974492
USER: SEED 62
USER: STATUS no improvement in best in 18 clusters for 5 generations
USER: GENES 10
USER: genes 0 Translation |==|  0.54492 0.58527 0.47773
USER: genes 1 Rotation |==|  0.53274 0.59786 0.50368 0.98922
USER: genes 2 Torsion [C]-CA--N-[C] |==|  0.18720
USER: genes 3 Torsion [N]-C--CA-[N] |==|  0.51386
USER: genes 4 Torsion [C]-CA--N-[H3] |==|  0.10081
USER: genes 5 Torsion [N]-CA--C-[N] |==|  0.07659
USER: genes 6 Torsion [C]-N--CA-[C] |==|  0.36525
USER: genes 7 Torsion [N]-CA--C-[O] |==|  0.92688
USER: genes 8 Torsion [N]-CA--CB-[CG] |==|  0.90311
USER: genes 9 Torsion [CA]-CB--CG-[CD2] |==|  0.32301
ROOT
ATOM      1  CA  HIS F   2      -0.897  31.797 -19.432  1.00 49.99 LIG 0.18  C 
ENDROOT
BRANCH 1 2
ATOM      2  N   HIS F   2      -1.357  32.326 -20.717  1.00 49.83 LIG-0.35  N 
ATOM      3  C   GLY F   1      -1.204  33.604 -21.057  1.00 49.82 LIG 0.24  C 
ATOM      4 O    GLY F   1      -0.721  34.453 -20.303  1.00 49.53 LIG-0.27  OA
ATOM      5 H    HIS F   2      -1.730  31.741 -21.224  1.00 49.83 LIG 0.16  HD
BRANCH 3 6
ATOM      6  CA  GLY F   1      -1.671  33.980 -22.453  1.00 49.90 LIG 0.33  C 
BRANCH 6 7
ATOM      7  N   GLY F   1      -1.364  35.396 -22.815  1.00 49.95 LIG-0.07  N 
ATOM      8 H3   GLY F   1      -0.580  35.628 -22.466  1.00 49.95 LIG 0.27  HD
ATOM      9 H1   GLY F   1      -1.330  35.475 -23.701  1.00 49.95 LIG 0.27  HD
ATOM     10 H2   GLY F   1      -2.001  35.929 -22.495  1.00 49.95 LIG 0.27  HD
ENDBRANCH 6 7
ENDBRANCH 3 6
ENDBRANCH 1 2
BRANCH 1 11
ATOM     11  C   HIS F   2      -1.711  32.379 -18.278  1.00 50.00 LIG 0.24  C 
ATOM     12 O    HIS F   2      -1.217  32.499 -17.154  1.00 49.82 LIG-0.27  OA
ATOM     13  N   GLY F   3      -2.956  32.748 -18.571  1.00 50.02 LIG-0.35  N 
ATOM     14 H    GLY F   3      -3.314  32.645 -19.347  1.00 50.02 LIG 0.16  HD
BRANCH 13 15
ATOM     15  CA  GLY F   3      -3.831  33.369 -17.586  1.00 50.20 LIG 0.21  C 
BRANCH 15 16
ATOM     16  C   GLY F   3      -4.507  34.620 -18.113  1.00 50.42 LIG 0.21  C 
ATOM     17 O    GLY F   3      -3.986  35.285 -19.009  1.00 50.69 LIG-0.29  OA
ENDBRANCH 15 16
ENDBRANCH 13 15
ENDBRANCH 1 11
BRANCH 1 18
ATOM     18  CB  HIS F   2       0.594  32.077 -19.234  1.00 49.99 LIG 0.10  C 
BRANCH 18 19
ATOM     19  CG  HIS F   2       1.393  32.017 -20.499  1.00 50.63 LIG 0.06  A 
ATOM     20  CD2 HIS F   2       2.096  32.970 -21.159  1.00 51.31 LIG 0.14  A 
ATOM     21 NE2  HIS F   2       2.651  32.373 -22.266  1.00 51.32 LIG-0.25  NA
ATOM     22  CE1 HIS F   2       2.296  31.100 -22.289  1.00 50.87 LIG 0.23  A 
ATOM     23 ND1  HIS F   2       1.539  30.859 -21.234  1.00 50.82 LIG-0.24  NA
ENDBRANCH 18 19
ENDBRANCH 1 18
TORSDOF 8
ENDMDL
MODEL 50
USER: ADFR SOLUTION from run 174
USER: SCORE 6.808800 LL:  -1.413 LR:  -5.400 RR:   0.000 FEB:  -3.013
USER: RMSD 5.437094
USER: SEED 173
USER: STATUS no improvement in best in 20 clusters for 5 generations
USER: GENES 10
USER: genes 0 Translation |==|  0.40366 0.45583 0.59647
USER: genes 1 Rotation |==|  0.69780 0.21736 0.20484 0.70945
USER: genes 2 Torsion [C]-CA--N-[C] |==|  0.82046
USER: genes 3 Torsion [N]-C--CA-[N] |==|  0.95792
USER: genes 4 Torsion [C]-CA--N-[H3] |==|  0.39085
USER: genes 5 Torsion [N]-CA--C-[N] |==|  0.40108
USER: genes 6 Torsion [C]-N--CA-[C] |==|  0.64341
USER: genes 7 Torsion [N]-CA--C-[O] |==|  0.01729
USER: genes 8 Torsion [N]-CA--CB-[CG] |==|  0.33732
USER: genes 9 Torsion [CA]-CB--CG-[CD2] |==|  0.74613
ROOT
ATOM      1  CA  HIS F   2      -3.334  30.147 -17.473  1.00 49.99 LIG 0.18  C 
ENDROOT
BRANCH 1 2
ATOM      2  N   HIS F   2      -2.013  29.585 -17.190  1.00 49.83 LIG-0.35  N 
ATOM      3  C   GLY F   1      -0.887  30.192 -17.558  1.00 49.82 LIG 0.24  C 
ATOM      4 O    GLY F   1      -0.863  31.237 -18.214  1.00 49.53 LIG-0.27  OA
ATOM      5 H    HIS F   2      -2.033  28.836 -16.769  1.00 49.83 LIG 0.16  HD
BRANCH 3 6
ATOM      6  CA  GLY F   1       0.404  29.516 -17.127  1.00 49.90 LIG 0.33  C 
BRANCH 6 7
ATOM      7  N   GLY F   1       0.203  28.486 -16.065  1.00 49.95 LIG-0.07  N 
ATOM      8 H3   GLY F   1       0.731  27.788 -16.225  1.00 49.95 LIG 0.27  HD
ATOM      9 H1   GLY F   1       0.405  28.835 -15.271  1.00 49.95 LIG 0.27  HD
ATOM     10 H2   GLY F   1      -0.646  28.221 -16.065  1.00 49.95 LIG 0.27  HD
ENDBRANCH 6 7
ENDBRANCH 3 6
ENDBRANCH 1 2
BRANCH 1 11
ATOM     11  C   HIS F   2      -3.538  31.466 -16.730  1.00 50.00 LIG 0.24  C 
ATOM     12 O    HIS F   2      -3.059  31.640 -15.607  1.00 49.82 LIG-0.27  OA
ATOM     13  N   GLY F   3      -4.243  32.393 -17.375  1.00 50.02 LIG-0.35  N 
ATOM     14 H    GLY F   3      -4.600  32.270 -18.148  1.00 50.02 LIG 0.16  HD
BRANCH 13 15
ATOM     15  CA  GLY F   3      -4.473  33.719 -16.815  1.00 50.20 LIG 0.21  C 
BRANCH 15 16
ATOM     16  C   GLY F   3      -5.939  34.106 -16.815  1.00 50.42 LIG 0.21  C 
ATOM     17 O    GLY F   3      -6.802  33.294 -17.149  1.00 50.69 LIG-0.29  OA
ENDBRANCH 15 16
ENDBRANCH 13 15
ENDBRANCH 1 11
BRANCH 1 18
ATOM     18  CB  HIS F   2      -4.436  29.150 -17.111  1.00 49.99 LIG 0.10  C 
BRANCH 18 19
ATOM     19  CG  HIS F   2      -5.410  29.668 -16.098  1.00 50.63 LIG 0.06  A 
ATOM     20  CD2 HIS F   2      -5.422  29.585 -14.745  1.00 51.31 LIG 0.14  A 
ATOM     21 NE2  HIS F   2      -6.546  30.245 -14.308  1.00 51.32 LIG-0.25  NA
ATOM     22  CE1 HIS F   2      -7.205  30.710 -15.354  1.00 50.87 LIG 0.23  A 
ATOM     23 ND1  HIS F   2      -6.540  30.377 -16.447  1.00 50.82 LIG-0.24  NA
ENDBRANCH 18 19
ENDBRANCH 1 18
TORSDOF 8
ENDMDL
MODEL 51
USER: ADFR SOLUTION from run 116
USER: SCORE 6.477529 LL:  -1.197 LR:  -5.387 RR:   0.000 FEB:  -3.001
USER: RMSD 4.795431
USER: SEED 115
USER: STATUS no improvement in best in 15 clusters for 5 generations
USER: GENES 10
USER: genes 0 Translation |==|  0.38760 0.43615 0.46655
USER: genes 1 Rotation |==|  0.64349 0.47717 0.11305 0.78135
USER: genes 2 Torsion [C]-CA--N-[C] |==|  0.76087
USER: genes 3 Torsion [N]-C--CA-[N] |==|  0.99783
USER: genes 4 Torsion [C]-CA--N-[H3] |==|  0.13974
USER: genes 5 Torsion [N]-CA--C-[N] |==|  0.33868
USER: genes 6 Torsion [C]-N--CA-[C] |==|  0.75149
USER: genes 7 Torsion [N]-CA--C-[O] |==|  0.33063
USER: genes 8 Torsion [N]-CA--CB-[CG] |==|  0.50008
USER: genes 9 Torsion [CA]-CB--CG-[CD2] |==|  0.30623
ROOT
ATOM      1  CA  HIS F   2      -3.611  29.896 -19.617  1.00 49.99 LIG 0.18  C 
ENDROOT
BRANCH 1 2
ATOM      2  N   HIS F   2      -2.629  30.048 -20.691  1.00 49.83 LIG-0.35  N 
ATOM      3  C   GLY F   1      -2.568  31.140 -21.451  1.00 49.82 LIG 0.24  C 
ATOM      4 O    GLY F   1      -3.362  32.079 -21.353  1.00 49.53 LIG-0.27  OA
ATOM      5 H    HIS F   2      -2.103  29.375 -20.784  1.00 49.83 LIG 0.16  HD
BRANCH 3 6
ATOM      6  CA  GLY F   1      -1.447  31.174 -22.476  1.00 49.90 LIG 0.33  C 
BRANCH 6 7
ATOM      7  N   GLY F   1      -0.579  29.960 -22.440  1.00 49.95 LIG-0.07  N 
ATOM      8 H3   GLY F   1      -1.088  29.230 -22.465  1.00 49.95 LIG 0.27  HD
ATOM      9 H1   GLY F   1      -0.033  29.964 -23.143  1.00 49.95 LIG 0.27  HD
ATOM     10 H2   GLY F   1      -0.098  29.960 -21.691  1.00 49.95 LIG 0.27  HD
ENDBRANCH 6 7
ENDBRANCH 3 6
ENDBRANCH 1 2
BRANCH 1 11
ATOM     11  C   HIS F   2      -3.100  30.515 -18.317  1.00 50.00 LIG 0.24  C 
ATOM     12 O    HIS F   2      -2.037  30.141 -17.814  1.00 49.82 LIG-0.27  OA
ATOM     13  N   GLY F   3      -3.862  31.470 -17.789  1.00 50.02 LIG-0.35  N 
ATOM     14 H    GLY F   3      -4.615  31.718 -18.121  1.00 50.02 LIG 0.16  HD
BRANCH 13 15
ATOM     15  CA  GLY F   3      -3.475  32.189 -16.581  1.00 50.20 LIG 0.21  C 
BRANCH 15 16
ATOM     16  C   GLY F   3      -3.969  31.512 -15.317  1.00 50.42 LIG 0.21  C 
ATOM     17 O    GLY F   3      -3.172  31.110 -14.469  1.00 50.69 LIG-0.29  OA
ENDBRANCH 15 16
ENDBRANCH 13 15
ENDBRANCH 1 11
BRANCH 1 18
ATOM     18  CB  HIS F   2      -3.962  28.421 -19.409  1.00 49.99 LIG 0.10  C 
BRANCH 18 19
ATOM     19  CG  HIS F   2      -4.965  28.187 -18.322  1.00 50.63 LIG 0.06  A 
ATOM     20  CD2 HIS F   2      -6.257  27.779 -18.370  1.00 51.31 LIG 0.14  A 
ATOM     21 NE2  HIS F   2      -6.713  27.720 -17.074  1.00 51.32 LIG-0.25  NA
ATOM     22  CE1 HIS F   2      -5.738  28.085 -16.259  1.00 50.87 LIG 0.23  A 
ATOM     23 ND1  HIS F   2      -4.672  28.370 -16.986  1.00 50.82 LIG-0.24  NA
ENDBRANCH 18 19
ENDBRANCH 1 18
TORSDOF 8
ENDMDL
MODEL 52
USER: ADFR SOLUTION from run 20
USER: SCORE 6.197750 LL:  -1.167 LR:  -5.341 RR:   0.000 FEB:  -2.955
USER: RMSD 3.149865
USER: SEED 19
USER: STATUS no improvement in best in 14 clusters for 5 generations
USER: GENES 10
USER: genes 0 Translation |==|  0.55501 0.45974 0.52285
USER: genes 1 Rotation |==|  0.74724 0.38051 0.56505 0.91275
USER: genes 2 Torsion [C]-CA--N-[C] |==|  0.83300
USER: genes 3 Torsion [N]-C--CA-[N] |==|  0.45605
USER: genes 4 Torsion [C]-CA--N-[H3] |==|  0.09674
USER: genes 5 Torsion [N]-CA--C-[N] |==|  0.31667
USER: genes 6 Torsion [C]-N--CA-[C] |==|  0.78476
USER: genes 7 Torsion [N]-CA--C-[O] |==|  0.20964
USER: genes 8 Torsion [N]-CA--CB-[CG] |==|  0.07964
USER: genes 9 Torsion [CA]-CB--CG-[CD2] |==|  0.10456
ROOT
ATOM      1  CA  HIS F   2      -0.723  30.197 -18.688  1.00 49.99 LIG 0.18  C 
ENDROOT
BRANCH 1 2
ATOM      2  N   HIS F   2      -0.430  31.608 -18.940  1.00 49.83 LIG-0.35  N 
ATOM      3  C   GLY F   1      -0.937  32.266 -19.981  1.00 49.82 LIG 0.24  C 
ATOM      4 O    GLY F   1      -1.640  31.732 -20.843  1.00 49.53 LIG-0.27  OA
ATOM      5 H    HIS F   2       0.093  31.967 -18.360  1.00 49.83 LIG 0.16  HD
BRANCH 3 6
ATOM      6  CA  GLY F   1      -0.595  33.744 -20.063  1.00 49.90 LIG 0.33  C 
BRANCH 6 7
ATOM      7  N   GLY F   1      -0.861  34.336 -21.407  1.00 49.95 LIG-0.07  N 
ATOM      8 H3   GLY F   1      -1.580  33.953 -21.763  1.00 49.95 LIG 0.27  HD
ATOM      9 H1   GLY F   1      -1.002  35.211 -21.323  1.00 49.95 LIG 0.27  HD
ATOM     10 H2   GLY F   1      -0.159  34.199 -21.936  1.00 49.95 LIG 0.27  HD
ENDBRANCH 6 7
ENDBRANCH 3 6
ENDBRANCH 1 2
BRANCH 1 11
ATOM     11  C   HIS F   2      -2.222  29.975 -18.491  1.00 50.00 LIG 0.24  C 
ATOM     12 O    HIS F   2      -2.811  30.462 -17.523  1.00 49.82 LIG-0.27  OA
ATOM     13  N   GLY F   3      -2.830  29.247 -19.425  1.00 50.02 LIG-0.35  N 
ATOM     14 H    GLY F   3      -2.421  28.885 -20.089  1.00 50.02 LIG 0.16  HD
BRANCH 13 15
ATOM     15  CA  GLY F   3      -4.266  28.999 -19.399  1.00 50.20 LIG 0.21  C 
BRANCH 15 16
ATOM     16  C   GLY F   3      -4.655  27.936 -18.391  1.00 50.42 LIG 0.21  C 
ATOM     17 O    GLY F   3      -4.674  28.189 -17.186  1.00 50.69 LIG-0.29  OA
ENDBRANCH 15 16
ENDBRANCH 13 15
ENDBRANCH 1 11
BRANCH 1 18
ATOM     18  CB  HIS F   2       0.059  29.689 -17.475  1.00 49.99 LIG 0.10  C 
BRANCH 18 19
ATOM     19  CG  HIS F   2       0.360  30.752 -16.463  1.00 50.63 LIG 0.06  A 
ATOM     20  CD2 HIS F   2      -0.374  31.804 -16.026  1.00 51.31 LIG 0.14  A 
ATOM     21 NE2  HIS F   2       0.378  32.458 -15.078  1.00 51.32 LIG-0.25  NA
ATOM     22  CE1 HIS F   2       1.535  31.834 -14.943  1.00 50.87 LIG 0.23  A 
ATOM     23 ND1  HIS F   2       1.549  30.800 -15.766  1.00 50.82 LIG-0.24  NA
ENDBRANCH 18 19
ENDBRANCH 1 18
TORSDOF 8
ENDMDL
MODEL 53
USER: ADFR SOLUTION from run 104
USER: SCORE 6.360446 LL:  -1.162 LR:  -5.302 RR:   0.000 FEB:  -2.915
USER: RMSD 3.733189
USER: SEED 103
USER: STATUS no improvement in best in 21 clusters for 5 generations
USER: GENES 10
USER: genes 0 Translation |==|  0.63992 0.56221 0.47041
USER: genes 1 Rotation |==|  0.34551 0.63688 0.62712 0.93731
USER: genes 2 Torsion [C]-CA--N-[C] |==|  0.16111
USER: genes 3 Torsion [N]-C--CA-[N] |==|  0.18272
USER: genes 4 Torsion [C]-CA--N-[H3] |==|  0.99367
USER: genes 5 Torsion [N]-CA--C-[N] |==|  0.13882
USER: genes 6 Torsion [C]-N--CA-[C] |==|  0.76705
USER: genes 7 Torsion [N]-CA--C-[O] |==|  0.12243
USER: genes 8 Torsion [N]-CA--CB-[CG] |==|  0.81413
USER: genes 9 Torsion [CA]-CB--CG-[CD2] |==|  0.78761
ROOT
ATOM      1  CA  HIS F   2       0.742  31.503 -19.553  1.00 49.99 LIG 0.18  C 
ENDROOT
BRANCH 1 2
ATOM      2  N   HIS F   2       0.133  30.802 -20.684  1.00 49.83 LIG-0.35  N 
ATOM      3  C   GLY F   1      -0.671  31.413 -21.552  1.00 49.82 LIG 0.24  C 
ATOM      4 O    GLY F   1      -1.014  32.594 -21.444  1.00 49.53 LIG-0.27  OA
ATOM      5 H    HIS F   2       0.341  29.969 -20.734  1.00 49.83 LIG 0.16  HD
BRANCH 3 6
ATOM      6  CA  GLY F   1      -1.165  30.564 -22.711  1.00 49.90 LIG 0.33  C 
BRANCH 6 7
ATOM      7  N   GLY F   1      -2.061  29.449 -22.285  1.00 49.95 LIG-0.07  N 
ATOM      8 H3   GLY F   1      -2.132  29.448 -21.398  1.00 49.95 LIG 0.27  HD
ATOM      9 H1   GLY F   1      -2.867  29.560 -22.647  1.00 49.95 LIG 0.27  HD
ATOM     10 H2   GLY F   1      -1.719  28.673 -22.555  1.00 49.95 LIG 0.27  HD
ENDBRANCH 6 7
ENDBRANCH 3 6
ENDBRANCH 1 2
BRANCH 1 11
ATOM     11  C   HIS F   2      -0.326  32.126 -18.656  1.00 50.00 LIG 0.24  C 
ATOM     12 O    HIS F   2      -0.258  33.311 -18.321  1.00 49.82 LIG-0.27  OA
ATOM     13  N   GLY F   3      -1.316  31.318 -18.283  1.00 50.02 LIG-0.35  N 
ATOM     14 H    GLY F   3      -1.357  30.484 -18.492  1.00 50.02 LIG 0.16  HD
BRANCH 13 15
ATOM     15  CA  GLY F   3      -2.433  31.785 -17.473  1.00 50.20 LIG 0.21  C 
BRANCH 15 16
ATOM     16  C   GLY F   3      -2.119  31.784 -15.990  1.00 50.42 LIG 0.21  C 
ATOM     17 O    GLY F   3      -1.040  32.210 -15.576  1.00 50.69 LIG-0.29  OA
ENDBRANCH 15 16
ENDBRANCH 13 15
ENDBRANCH 1 11
BRANCH 1 18
ATOM     18  CB  HIS F   2       1.722  32.571 -20.042  1.00 49.99 LIG 0.10  C 
BRANCH 18 19
ATOM     19  CG  HIS F   2       2.934  32.012 -20.722  1.00 50.63 LIG 0.06  A 
ATOM     20  CD2 HIS F   2       4.048  31.422 -20.222  1.00 51.31 LIG 0.14  A 
ATOM     21 NE2  HIS F   2       4.844  31.085 -21.291  1.00 51.32 LIG-0.25  NA
ATOM     22  CE1 HIS F   2       4.244  31.460 -22.407  1.00 50.87 LIG 0.23  A 
ATOM     23 ND1  HIS F   2       3.090  32.020 -22.092  1.00 50.82 LIG-0.24  NA
ENDBRANCH 18 19
ENDBRANCH 1 18
TORSDOF 8
ENDMDL
MODEL 54
USER: ADFR SOLUTION from run 74
USER: SCORE 6.811923 LL:  -1.544 LR:  -5.291 RR:   0.000 FEB:  -2.905
USER: RMSD 5.273459
USER: SEED 73
USER: STATUS no improvement in best in 26 clusters for 5 generations
USER: GENES 10
USER: genes 0 Translation |==|  0.41369 0.59067 0.63161
USER: genes 1 Rotation |==|  0.40485 0.61233 0.84784 0.82762
USER: genes 2 Torsion [C]-CA--N-[C] |==|  0.82547
USER: genes 3 Torsion [N]-C--CA-[N] |==|  0.26871
USER: genes 4 Torsion [C]-CA--N-[H3] |==|  0.00279
USER: genes 5 Torsion [N]-CA--C-[N] |==|  0.90563
USER: genes 6 Torsion [C]-N--CA-[C] |==|  0.65052
USER: genes 7 Torsion [N]-CA--C-[O] |==|  0.03638
USER: genes 8 Torsion [N]-CA--CB-[CG] |==|  0.18306
USER: genes 9 Torsion [CA]-CB--CG-[CD2] |==|  0.38326
ROOT
ATOM      1  CA  HIS F   2      -3.161  31.866 -16.893  1.00 49.99 LIG 0.18  C 
ENDROOT
BRANCH 1 2
ATOM      2  N   HIS F   2      -3.559  31.127 -18.092  1.00 49.83 LIG-0.35  N 
ATOM      3  C   GLY F   1      -3.229  29.852 -18.285  1.00 49.82 LIG 0.24  C 
ATOM      4 O    GLY F   1      -2.518  29.210 -17.506  1.00 49.53 LIG-0.27  OA
ATOM      5 H    HIS F   2      -4.020  31.588 -18.652  1.00 49.83 LIG 0.16  HD
BRANCH 3 6
ATOM      6  CA  GLY F   1      -3.779  29.207 -19.546  1.00 49.90 LIG 0.33  C 
BRANCH 6 7
ATOM      7  N   GLY F   1      -2.809  29.209 -20.680  1.00 49.95 LIG-0.07  N 
ATOM      8 H3   GLY F   1      -2.047  29.585 -20.418  1.00 49.95 LIG 0.27  HD
ATOM      9 H1   GLY F   1      -2.654  28.372 -20.940  1.00 49.95 LIG 0.27  HD
ATOM     10 H2   GLY F   1      -3.149  29.672 -21.360  1.00 49.95 LIG 0.27  HD
ENDBRANCH 6 7
ENDBRANCH 3 6
ENDBRANCH 1 2
BRANCH 1 11
ATOM     11  C   HIS F   2      -3.777  31.248 -15.640  1.00 50.00 LIG 0.24  C 
ATOM     12 O    HIS F   2      -3.172  31.262 -14.565  1.00 49.82 LIG-0.27  OA
ATOM     13  N   GLY F   3      -4.990  30.719 -15.788  1.00 50.02 LIG-0.35  N 
ATOM     14 H    GLY F   3      -5.407  30.684 -16.539  1.00 50.02 LIG 0.16  HD
BRANCH 13 15
ATOM     15  CA  GLY F   3      -5.725  30.143 -14.669  1.00 50.20 LIG 0.21  C 
BRANCH 15 16
ATOM     16  C   GLY F   3      -6.172  28.719 -14.936  1.00 50.42 LIG 0.21  C 
ATOM     17 O    GLY F   3      -5.714  28.086 -15.888  1.00 50.69 LIG-0.29  OA
ENDBRANCH 15 16
ENDBRANCH 13 15
ENDBRANCH 1 11
BRANCH 1 18
ATOM     18  CB  HIS F   2      -3.549  33.341 -17.013  1.00 49.99 LIG 0.10  C 
BRANCH 18 19
ATOM     19  CG  HIS F   2      -5.028  33.576 -17.044  1.00 50.63 LIG 0.06  A 
ATOM     20  CD2 HIS F   2      -5.797  34.514 -16.440  1.00 51.31 LIG 0.14  A 
ATOM     21 NE2  HIS F   2      -7.098  34.278 -16.818  1.00 51.32 LIG-0.25  NA
ATOM     22  CE1 HIS F   2      -7.127  33.228 -17.620  1.00 50.87 LIG 0.23  A 
ATOM     23 ND1  HIS F   2      -5.892  32.786 -17.774  1.00 50.82 LIG-0.24  NA
ENDBRANCH 18 19
ENDBRANCH 1 18
TORSDOF 8
ENDMDL
MODEL 55
USER: ADFR SOLUTION from run 177
USER: SCORE 6.395150 LL:  -1.188 LR:  -5.269 RR:   0.000 FEB:  -2.882
USER: RMSD 5.178914
USER: SEED 176
USER: STATUS no improvement in best in 20 clusters for 5 generations
USER: GENES 10
USER: genes 0 Translation |==|  0.46710 0.61664 0.48686
USER: genes 1 Rotation |==|  0.48178 0.36451 0.98081 0.51168
USER: genes 2 Torsion [C]-CA--N-[C] |==|  0.76696
USER: genes 3 Torsion [N]-C--CA-[N] |==|  0.36301
USER: genes 4 Torsion [C]-CA--N-[H3] |==|  0.36311
USER: genes 5 Torsion [N]-CA--C-[N] |==|  0.45524
USER: genes 6 Torsion [C]-N--CA-[C] |==|  0.37219
USER: genes 7 Torsion [N]-CA--C-[O] |==|  0.19970
USER: genes 8 Torsion [N]-CA--CB-[CG] |==|  0.57327
USER: genes 9 Torsion [CA]-CB--CG-[CD2] |==|  0.31437
ROOT
ATOM      1  CA  HIS F   2      -2.240  32.197 -19.282  1.00 49.99 LIG 0.18  C 
ENDROOT
BRANCH 1 2
ATOM      2  N   HIS F   2      -2.218  32.640 -20.676  1.00 49.83 LIG-0.35  N 
ATOM      3  C   GLY F   1      -1.403  33.601 -21.106  1.00 49.82 LIG 0.24  C 
ATOM      4 O    GLY F   1      -0.648  34.233 -20.361  1.00 49.53 LIG-0.27  OA
ATOM      5 H    HIS F   2      -2.774  32.227 -21.185  1.00 49.83 LIG 0.16  HD
BRANCH 3 6
ATOM      6  CA  GLY F   1      -1.450  33.896 -22.596  1.00 49.90 LIG 0.33  C 
BRANCH 6 7
ATOM      7  N   GLY F   1      -1.592  35.349 -22.904  1.00 49.95 LIG-0.07  N 
ATOM      8 H3   GLY F   1      -0.984  35.585 -23.509  1.00 49.95 LIG 0.27  HD
ATOM      9 H1   GLY F   1      -2.407  35.506 -23.227  1.00 49.95 LIG 0.27  HD
ATOM     10 H2   GLY F   1      -1.471  35.824 -22.162  1.00 49.95 LIG 0.27  HD
ENDBRANCH 6 7
ENDBRANCH 3 6
ENDBRANCH 1 2
BRANCH 1 11
ATOM     11  C   HIS F   2      -1.149  31.160 -19.020  1.00 50.00 LIG 0.24  C 
ATOM     12 O    HIS F   2      -0.582  30.589 -19.955  1.00 49.82 LIG-0.27  OA
ATOM     13  N   GLY F   3      -0.855  30.935 -17.741  1.00 50.02 LIG-0.35  N 
ATOM     14 H    GLY F   3      -1.263  31.312 -17.084  1.00 50.02 LIG 0.16  HD
BRANCH 13 15
ATOM     15  CA  GLY F   3       0.201  30.015 -17.340  1.00 50.20 LIG 0.21  C 
BRANCH 15 16
ATOM     16  C   GLY F   3       1.101  30.592 -16.266  1.00 50.42 LIG 0.21  C 
ATOM     17 O    GLY F   3       0.694  30.727 -15.111  1.00 50.69 LIG-0.29  OA
ENDBRANCH 15 16
ENDBRANCH 13 15
ENDBRANCH 1 11
BRANCH 1 18
ATOM     18  CB  HIS F   2      -3.614  31.636 -18.913  1.00 49.99 LIG 0.10  C 
BRANCH 18 19
ATOM     19  CG  HIS F   2      -3.939  31.742 -17.455  1.00 50.63 LIG 0.06  A 
ATOM     20  CD2 HIS F   2      -4.871  32.475 -16.797  1.00 51.31 LIG 0.14  A 
ATOM     21 NE2  HIS F   2      -4.743  32.187 -15.459  1.00 51.32 LIG-0.25  NA
ATOM     22  CE1 HIS F   2      -3.763  31.315 -15.299  1.00 50.87 LIG 0.23  A 
ATOM     23 ND1  HIS F   2      -3.262  31.029 -16.488  1.00 50.82 LIG-0.24  NA
ENDBRANCH 18 19
ENDBRANCH 1 18
TORSDOF 8
ENDMDL
MODEL 56
USER: ADFR SOLUTION from run 164
USER: SCORE 6.447958 LL:  -1.260 LR:  -5.240 RR:   0.000 FEB:  -2.854
USER: RMSD 2.494630
USER: SEED 163
USER: STATUS no improvement in best in 18 clusters for 5 generations
USER: GENES 10
USER: genes 0 Translation |==|  0.53077 0.49162 0.58081
USER: genes 1 Rotation |==|  0.41503 0.57426 0.67872 0.95313
USER: genes 2 Torsion [C]-CA--N-[C] |==|  0.15691
USER: genes 3 Torsion [N]-C--CA-[N] |==|  0.11881
USER: genes 4 Torsion [C]-CA--N-[H3] |==|  0.00397
USER: genes 5 Torsion [N]-CA--C-[N] |==|  0.10000
USER: genes 6 Torsion [C]-N--CA-[C] |==|  0.53633
USER: genes 7 Torsion [N]-CA--C-[O] |==|  0.00133
USER: genes 8 Torsion [N]-CA--CB-[CG] |==|  0.93015
USER: genes 9 Torsion [CA]-CB--CG-[CD2] |==|  0.32430
ROOT
ATOM      1  CA  HIS F   2      -1.141  30.603 -17.732  1.00 49.99 LIG 0.18  C 
ENDROOT
BRANCH 1 2
ATOM      2  N   HIS F   2      -1.535  30.309 -19.110  1.00 49.83 LIG-0.35  N 
ATOM      3  C   GLY F   1      -2.398  31.068 -19.782  1.00 49.82 LIG 0.24  C 
ATOM      4 O    GLY F   1      -2.977  32.038 -19.285  1.00 49.53 LIG-0.27  OA
ATOM      5 H    HIS F   2      -1.161  29.609 -19.440  1.00 49.83 LIG 0.16  HD
BRANCH 3 6
ATOM      6  CA  GLY F   1      -2.647  30.670 -21.227  1.00 49.90 LIG 0.33  C 
BRANCH 6 7
ATOM      7  N   GLY F   1      -2.797  29.197 -21.414  1.00 49.95 LIG-0.07  N 
ATOM      8 H3   GLY F   1      -2.734  28.789 -20.626  1.00 49.95 LIG 0.27  HD
ATOM      9 H1   GLY F   1      -3.592  29.022 -21.775  1.00 49.95 LIG 0.27  HD
ATOM     10 H2   GLY F   1      -2.156  28.899 -21.954  1.00 49.95 LIG 0.27  HD
ENDBRANCH 6 7
ENDBRANCH 3 6
ENDBRANCH 1 2
BRANCH 1 11
ATOM     11  C   HIS F   2      -2.363  30.677 -16.817  1.00 50.00 LIG 0.24  C 
ATOM     12 O    HIS F   2      -2.413  31.492 -15.893  1.00 49.82 LIG-0.27  OA
ATOM     13  N   GLY F   3      -3.348  29.824 -17.093  1.00 50.02 LIG-0.35  N 
ATOM     14 H    GLY F   3      -3.309  29.237 -17.720  1.00 50.02 LIG 0.16  HD
BRANCH 13 15
ATOM     15  CA  GLY F   3      -4.596  29.816 -16.342  1.00 50.20 LIG 0.21  C 
BRANCH 15 16
ATOM     16  C   GLY F   3      -5.430  28.579 -16.612  1.00 50.42 LIG 0.21  C 
ATOM     17 O    GLY F   3      -5.031  27.709 -17.387  1.00 50.69 LIG-0.29  OA
ENDBRANCH 15 16
ENDBRANCH 13 15
ENDBRANCH 1 11
BRANCH 1 18
ATOM     18  CB  HIS F   2      -0.340  31.905 -17.663  1.00 49.99 LIG 0.10  C 
BRANCH 18 19
ATOM     19  CG  HIS F   2       0.359  32.251 -18.941  1.00 50.63 LIG 0.06  A 
ATOM     20  CD2 HIS F   2       0.213  33.303 -19.784  1.00 51.31 LIG 0.14  A 
ATOM     21 NE2  HIS F   2       1.117  33.134 -20.806  1.00 51.32 LIG-0.25  NA
ATOM     22  CE1 HIS F   2       1.790  32.015 -20.602  1.00 50.87 LIG 0.23  A 
ATOM     23 ND1  HIS F   2       1.354  31.464 -19.483  1.00 50.82 LIG-0.24  NA
ENDBRANCH 18 19
ENDBRANCH 1 18
TORSDOF 8
ENDMDL
MODEL 57
USER: ADFR SOLUTION from run 166
USER: SCORE 6.643749 LL:  -1.466 LR:  -5.227 RR:   0.000 FEB:  -2.841
USER: RMSD 5.913285
USER: SEED 165
USER: STATUS no improvement in best in 14 clusters for 5 generations
USER: GENES 10
USER: genes 0 Translation |==|  0.40366 0.64157 0.63316
USER: genes 1 Rotation |==|  0.48848 0.53060 0.99887 0.50741
USER: genes 2 Torsion [C]-CA--N-[C] |==|  0.15460
USER: genes 3 Torsion [N]-C--CA-[N] |==|  0.38684
USER: genes 4 Torsion [C]-CA--N-[H3] |==|  0.27218
USER: genes 5 Torsion [N]-CA--C-[N] |==|  0.12220
USER: genes 6 Torsion [C]-N--CA-[C] |==|  0.27891
USER: genes 7 Torsion [N]-CA--C-[O] |==|  0.02700
USER: genes 8 Torsion [N]-CA--CB-[CG] |==|  0.78527
USER: genes 9 Torsion [CA]-CB--CG-[CD2] |==|  0.33591
ROOT
ATOM      1  CA  HIS F   2      -3.334  32.515 -16.868  1.00 49.99 LIG 0.18  C 
ENDROOT
BRANCH 1 2
ATOM      2  N   HIS F   2      -3.369  31.995 -18.235  1.00 49.83 LIG-0.35  N 
ATOM      3  C   GLY F   1      -3.487  30.696 -18.500  1.00 49.82 LIG 0.24  C 
ATOM      4 O    GLY F   1      -3.515  29.825 -17.626  1.00 49.53 LIG-0.27  OA
ATOM      5 H    HIS F   2      -3.308  32.600 -18.843  1.00 49.83 LIG 0.16  HD
BRANCH 3 6
ATOM      6  CA  GLY F   1      -3.581  30.324 -19.971  1.00 49.90 LIG 0.33  C 
BRANCH 6 7
ATOM      7  N   GLY F   1      -2.797  29.103 -20.321  1.00 49.95 LIG-0.07  N 
ATOM      8 H3   GLY F   1      -3.339  28.397 -20.339  1.00 49.95 LIG 0.27  HD
ATOM      9 H1   GLY F   1      -2.422  29.210 -21.121  1.00 49.95 LIG 0.27  HD
ATOM     10 H2   GLY F   1      -2.162  28.973 -19.711  1.00 49.95 LIG 0.27  HD
ENDBRANCH 6 7
ENDBRANCH 3 6
ENDBRANCH 1 2
BRANCH 1 11
ATOM     11  C   HIS F   2      -2.220  31.853 -16.059  1.00 50.00 LIG 0.24  C 
ATOM     12 O    HIS F   2      -2.422  31.460 -14.908  1.00 49.82 LIG-0.27  OA
ATOM     13  N   GLY F   3      -1.048  31.725 -16.679  1.00 50.02 LIG-0.35  N 
ATOM     14 H    GLY F   3      -0.893  32.019 -17.472  1.00 50.02 LIG 0.16  HD
BRANCH 13 15
ATOM     15  CA  GLY F   3       0.090  31.065 -16.054  1.00 50.20 LIG 0.21  C 
BRANCH 15 16
ATOM     16  C   GLY F   3       0.275  29.640 -16.536  1.00 50.42 LIG 0.21  C 
ATOM     17 O    GLY F   3      -0.373  29.212 -17.492  1.00 50.69 LIG-0.29  OA
ENDBRANCH 15 16
ENDBRANCH 13 15
ENDBRANCH 1 11
BRANCH 1 18
ATOM     18  CB  HIS F   2      -4.686  32.321 -16.179  1.00 49.99 LIG 0.10  C 
BRANCH 18 19
ATOM     19  CG  HIS F   2      -5.727  33.312 -16.601  1.00 50.63 LIG 0.06  A 
ATOM     20  CD2 HIS F   2      -6.944  33.141 -17.173  1.00 51.31 LIG 0.14  A 
ATOM     21 NE2  HIS F   2      -7.493  34.391 -17.341  1.00 51.32 LIG-0.25  NA
ATOM     22  CE1 HIS F   2      -6.640  35.297 -16.894  1.00 50.87 LIG 0.23  A 
ATOM     23 ND1  HIS F   2      -5.568  34.672 -16.441  1.00 50.82 LIG-0.24  NA
ENDBRANCH 18 19
ENDBRANCH 1 18
TORSDOF 8
ENDMDL
MODEL 58
USER: ADFR SOLUTION from run 121
USER: SCORE 6.336041 LL:  -1.155 LR:  -5.205 RR:   0.000 FEB:  -2.819
USER: RMSD 4.701262
USER: SEED 120
USER: STATUS no improvement in best in 15 clusters for 5 generations
USER: GENES 10
USER: genes 0 Translation |==|  0.42615 0.57828 0.44191
USER: genes 1 Rotation |==|  0.68294 0.51350 0.17501 0.83276
USER: genes 2 Torsion [C]-CA--N-[C] |==|  0.81106
USER: genes 3 Torsion [N]-C--CA-[N] |==|  0.46156
USER: genes 4 Torsion [C]-CA--N-[H3] |==|  0.71046
USER: genes 5 Torsion [N]-CA--C-[N] |==|  0.43312
USER: genes 6 Torsion [C]-N--CA-[C] |==|  0.67759
USER: genes 7 Torsion [N]-CA--C-[O] |==|  0.33407
USER: genes 8 Torsion [N]-CA--CB-[CG] |==|  0.81584
USER: genes 9 Torsion [CA]-CB--CG-[CD2] |==|  0.67704
ROOT
ATOM      1  CA  HIS F   2      -2.946  31.708 -20.024  1.00 49.99 LIG 0.18  C 
ENDROOT
BRANCH 1 2
ATOM      2  N   HIS F   2      -1.998  32.335 -20.946  1.00 49.83 LIG-0.35  N 
ATOM      3  C   GLY F   1      -2.085  33.618 -21.292  1.00 49.82 LIG 0.24  C 
ATOM      4 O    GLY F   1      -2.994  34.362 -20.916  1.00 49.53 LIG-0.27  OA
ATOM      5 H    HIS F   2      -1.389  31.804 -21.238  1.00 49.83 LIG 0.16  HD
BRANCH 3 6
ATOM      6  CA  GLY F   1      -0.983  34.135 -22.202  1.00 49.90 LIG 0.33  C 
BRANCH 6 7
ATOM      7  N   GLY F   1      -1.299  35.459 -22.815  1.00 49.95 LIG-0.07  N 
ATOM      8 H3   GLY F   1      -1.526  35.344 -23.668  1.00 49.95 LIG 0.27  HD
ATOM      9 H1   GLY F   1      -1.976  35.836 -22.376  1.00 49.95 LIG 0.27  HD
ATOM     10 H2   GLY F   1      -0.584  35.987 -22.767  1.00 49.95 LIG 0.27  HD
ENDBRANCH 6 7
ENDBRANCH 3 6
ENDBRANCH 1 2
BRANCH 1 11
ATOM     11  C   HIS F   2      -2.784  32.265 -18.610  1.00 50.00 LIG 0.24  C 
ATOM     12 O    HIS F   2      -1.721  32.776 -18.250  1.00 49.82 LIG-0.27  OA
ATOM     13  N   GLY F   3      -3.853  32.171 -17.822  1.00 50.02 LIG-0.35  N 
ATOM     14 H    GLY F   3      -4.589  31.794 -18.059  1.00 50.02 LIG 0.16  HD
BRANCH 13 15
ATOM     15  CA  GLY F   3      -3.865  32.707 -16.467  1.00 50.20 LIG 0.21  C 
BRANCH 15 16
ATOM     16  C   GLY F   3      -4.028  31.629 -15.415  1.00 50.42 LIG 0.21  C 
ATOM     17 O    GLY F   3      -3.167  31.460 -14.550  1.00 50.69 LIG-0.29  OA
ENDBRANCH 15 16
ENDBRANCH 13 15
ENDBRANCH 1 11
BRANCH 1 18
ATOM     18  CB  HIS F   2      -2.777  30.187 -20.025  1.00 49.99 LIG 0.10  C 
BRANCH 18 19
ATOM     19  CG  HIS F   2      -3.147  29.540 -21.323  1.00 50.63 LIG 0.06  A 
ATOM     20  CD2 HIS F   2      -4.125  28.654 -21.634  1.00 51.31 LIG 0.14  A 
ATOM     21 NE2  HIS F   2      -4.025  28.395 -22.981  1.00 51.32 LIG-0.25  NA
ATOM     22  CE1 HIS F   2      -3.018  29.091 -23.478  1.00 50.87 LIG 0.23  A 
ATOM     23 ND1  HIS F   2      -2.473  29.792 -22.500  1.00 50.82 LIG-0.24  NA
ENDBRANCH 18 19
ENDBRANCH 1 18
TORSDOF 8
ENDMDL
MODEL 59
USER: ADFR SOLUTION from run 112
USER: SCORE 6.562154 LL:  -1.477 LR:  -5.203 RR:   0.000 FEB:  -2.817
USER: RMSD 5.584151
USER: SEED 111
USER: STATUS no improvement in best in 17 clusters for 5 generations
USER: GENES 10
USER: genes 0 Translation |==|  0.40471 0.57960 0.69417
USER: genes 1 Rotation |==|  0.24199 0.38467 0.82639 0.75219
USER: genes 2 Torsion [C]-CA--N-[C] |==|  0.63228
USER: genes 3 Torsion [N]-C--CA-[N] |==|  0.33009
USER: genes 4 Torsion [C]-CA--N-[H3] |==|  0.96135
USER: genes 5 Torsion [N]-CA--C-[N] |==|  0.40707
USER: genes 6 Torsion [C]-N--CA-[C] |==|  0.75983
USER: genes 7 Torsion [N]-CA--C-[O] |==|  0.88175
USER: genes 8 Torsion [N]-CA--CB-[CG] |==|  0.29573
USER: genes 9 Torsion [CA]-CB--CG-[CD2] |==|  0.77996
ROOT
ATOM      1  CA  HIS F   2      -3.316  31.725 -15.861  1.00 49.99 LIG 0.18  C 
ENDROOT
BRANCH 1 2
ATOM      2  N   HIS F   2      -2.175  31.357 -16.700  1.00 49.83 LIG-0.35  N 
ATOM      3  C   GLY F   1      -0.919  31.632 -16.355  1.00 49.82 LIG 0.24  C 
ATOM      4 O    GLY F   1      -0.618  32.266 -15.340  1.00 49.53 LIG-0.27  OA
ATOM      5 H    HIS F   2      -2.390  30.951 -17.427  1.00 49.83 LIG 0.16  HD
BRANCH 3 6
ATOM      6  CA  GLY F   1       0.157  31.120 -17.298  1.00 49.90 LIG 0.33  C 
BRANCH 6 7
ATOM      7  N   GLY F   1       0.985  32.210 -17.894  1.00 49.95 LIG-0.07  N 
ATOM      8 H3   GLY F   1       0.587  32.994 -17.756  1.00 49.95 LIG 0.27  HD
ATOM      9 H1   GLY F   1       1.789  32.214 -17.512  1.00 49.95 LIG 0.27  HD
ATOM     10 H2   GLY F   1       1.073  32.072 -18.769  1.00 49.95 LIG 0.27  HD
ENDBRANCH 6 7
ENDBRANCH 3 6
ENDBRANCH 1 2
BRANCH 1 11
ATOM     11  C   HIS F   2      -4.275  30.547 -15.694  1.00 50.00 LIG 0.24  C 
ATOM     12 O    HIS F   2      -4.432  29.727 -16.601  1.00 49.82 LIG-0.27  OA
ATOM     13  N   GLY F   3      -4.902  30.470 -14.523  1.00 50.02 LIG-0.35  N 
ATOM     14 H    GLY F   3      -4.815  31.052 -13.895  1.00 50.02 LIG 0.16  HD
BRANCH 13 15
ATOM     15  CA  GLY F   3      -5.804  29.372 -14.199  1.00 50.20 LIG 0.21  C 
BRANCH 15 16
ATOM     16  C   GLY F   3      -7.222  29.623 -14.673  1.00 50.42 LIG 0.21  C 
ATOM     17 O    GLY F   3      -7.744  30.730 -14.532  1.00 50.69 LIG-0.29  OA
ENDBRANCH 15 16
ENDBRANCH 13 15
ENDBRANCH 1 11
BRANCH 1 18
ATOM     18  CB  HIS F   2      -4.048  32.936 -16.443  1.00 49.99 LIG 0.10  C 
BRANCH 18 19
ATOM     19  CG  HIS F   2      -5.362  32.600 -17.077  1.00 50.63 LIG 0.06  A 
ATOM     20  CD2 HIS F   2      -5.661  32.071 -18.289  1.00 51.31 LIG 0.14  A 
ATOM     21 NE2  HIS F   2      -7.030  31.960 -18.357  1.00 51.32 LIG-0.25  NA
ATOM     22  CE1 HIS F   2      -7.554  32.409 -17.230  1.00 50.87 LIG 0.23  A 
ATOM     23 ND1  HIS F   2      -6.569  32.800 -16.440  1.00 50.82 LIG-0.24  NA
ENDBRANCH 18 19
ENDBRANCH 1 18
TORSDOF 8
ENDMDL
MODEL 60
USER: ADFR SOLUTION from run 92
USER: SCORE 6.200213 LL:  -1.240 LR:  -5.194 RR:   0.000 FEB:  -2.807
USER: RMSD 4.692896
USER: SEED 91
USER: STATUS no improvement in best in 16 clusters for 5 generations
USER: GENES 10
USER: genes 0 Translation |==|  0.42295 0.44163 0.50448
USER: genes 1 Rotation |==|  0.89435 0.43178 0.20177 0.52988
USER: genes 2 Torsion [C]-CA--N-[C] |==|  0.81480
USER: genes 3 Torsion [N]-C--CA-[N] |==|  0.72318
USER: genes 4 Torsion [C]-CA--N-[H3] |==|  0.09205
USER: genes 5 Torsion [N]-CA--C-[N] |==|  0.31749
USER: genes 6 Torsion [C]-N--CA-[C] |==|  0.28893
USER: genes 7 Torsion [N]-CA--C-[O] |==|  0.02828
USER: genes 8 Torsion [N]-CA--CB-[CG] |==|  0.76940
USER: genes 9 Torsion [CA]-CB--CG-[CD2] |==|  0.39053
ROOT
ATOM      1  CA  HIS F   2      -3.001  29.966 -18.991  1.00 49.99 LIG 0.18  C 
ENDROOT
BRANCH 1 2
ATOM      2  N   HIS F   2      -1.672  29.508 -18.582  1.00 49.83 LIG-0.35  N 
ATOM      3  C   GLY F   1      -1.013  30.055 -17.563  1.00 49.82 LIG 0.24  C 
ATOM      4 O    GLY F   1      -1.436  31.020 -16.922  1.00 49.53 LIG-0.27  OA
ATOM      5 H    HIS F   2      -1.363  28.862 -19.057  1.00 49.83 LIG 0.16  HD
BRANCH 3 6
ATOM      6  CA  GLY F   1       0.324  29.419 -17.220  1.00 49.90 LIG 0.33  C 
BRANCH 6 7
ATOM      7  N   GLY F   1       0.249  28.480 -16.062  1.00 49.95 LIG-0.07  N 
ATOM      8 H3   GLY F   1      -0.544  28.077 -16.057  1.00 49.95 LIG 0.27  HD
ATOM      9 H1   GLY F   1       0.892  27.868 -16.134  1.00 49.95 LIG 0.27  HD
ATOM     10 H2   GLY F   1       0.355  28.933 -15.304  1.00 49.95 LIG 0.27  HD
ENDBRANCH 6 7
ENDBRANCH 3 6
ENDBRANCH 1 2
BRANCH 1 11
ATOM     11  C   HIS F   2      -4.041  29.660 -17.914  1.00 50.00 LIG 0.24  C 
ATOM     12 O    HIS F   2      -4.323  28.495 -17.621  1.00 49.82 LIG-0.27  OA
ATOM     13  N   GLY F   3      -4.595  30.716 -17.323  1.00 50.02 LIG-0.35  N 
ATOM     14 H    GLY F   3      -4.420  31.530 -17.540  1.00 50.02 LIG 0.16  HD
BRANCH 13 15
ATOM     15  CA  GLY F   3      -5.561  30.579 -16.241  1.00 50.20 LIG 0.21  C 
BRANCH 15 16
ATOM     16  C   GLY F   3      -4.962  30.886 -14.883  1.00 50.42 LIG 0.21  C 
ATOM     17 O    GLY F   3      -3.840  31.387 -14.790  1.00 50.69 LIG-0.29  OA
ENDBRANCH 15 16
ENDBRANCH 13 15
ENDBRANCH 1 11
BRANCH 1 18
ATOM     18  CB  HIS F   2      -3.406  29.333 -20.324  1.00 49.99 LIG 0.10  C 
BRANCH 18 19
ATOM     19  CG  HIS F   2      -2.856  30.045 -21.522  1.00 50.63 LIG 0.06  A 
ATOM     20  CD2 HIS F   2      -2.356  29.574 -22.691  1.00 51.31 LIG 0.14  A 
ATOM     21 NE2  HIS F   2      -2.001  30.664 -23.449  1.00 51.32 LIG-0.25  NA
ATOM     22  CE1 HIS F   2      -2.266  31.766 -22.768  1.00 50.87 LIG 0.23  A 
ATOM     23 ND1  HIS F   2      -2.784  31.420 -21.603  1.00 50.82 LIG-0.24  NA
ENDBRANCH 18 19
ENDBRANCH 1 18
TORSDOF 8
ENDMDL
MODEL 61
USER: ADFR SOLUTION from run 112
USER: SCORE 6.283888 LL:  -1.284 LR:  -5.148 RR:   0.000 FEB:  -2.762
USER: RMSD 4.629238
USER: SEED 111
USER: STATUS no improvement in best in 17 clusters for 5 generations
USER: GENES 10
USER: genes 0 Translation |==|  0.38578 0.53316 0.70479
USER: genes 1 Rotation |==|  0.26892 0.42986 0.80641 0.81271
USER: genes 2 Torsion [C]-CA--N-[C] |==|  0.57208
USER: genes 3 Torsion [N]-C--CA-[N] |==|  0.06688
USER: genes 4 Torsion [C]-CA--N-[H3] |==|  0.36227
USER: genes 5 Torsion [N]-CA--C-[N] |==|  0.44632
USER: genes 6 Torsion [C]-N--CA-[C] |==|  0.77737
USER: genes 7 Torsion [N]-CA--C-[O] |==|  0.72559
USER: genes 8 Torsion [N]-CA--CB-[CG] |==|  0.05601
USER: genes 9 Torsion [CA]-CB--CG-[CD2] |==|  0.24882
ROOT
ATOM      1  CA  HIS F   2      -3.642  31.133 -15.686  1.00 49.99 LIG 0.18  C 
ENDROOT
BRANCH 1 2
ATOM      2  N   HIS F   2      -2.796  30.572 -16.740  1.00 49.83 LIG-0.35  N 
ATOM      3  C   GLY F   1      -1.496  30.845 -16.830  1.00 49.82 LIG 0.24  C 
ATOM      4 O    GLY F   1      -0.914  31.631 -16.077  1.00 49.53 LIG-0.27  OA
ATOM      5 H    HIS F   2      -3.212  30.057 -17.287  1.00 49.83 LIG 0.16  HD
BRANCH 3 6
ATOM      6  CA  GLY F   1      -0.742  30.128 -17.937  1.00 49.90 LIG 0.33  C 
BRANCH 6 7
ATOM      7  N   GLY F   1      -1.620  29.699 -19.065  1.00 49.95 LIG-0.07  N 
ATOM      8 H3   GLY F   1      -1.260  29.960 -19.836  1.00 49.95 LIG 0.27  HD
ATOM      9 H1   GLY F   1      -1.698  28.812 -19.060  1.00 49.95 LIG 0.27  HD
ATOM     10 H2   GLY F   1      -2.424  30.068 -18.973  1.00 49.95 LIG 0.27  HD
ENDBRANCH 6 7
ENDBRANCH 3 6
ENDBRANCH 1 2
BRANCH 1 11
ATOM     11  C   HIS F   2      -4.843  30.229 -15.410  1.00 50.00 LIG 0.24  C 
ATOM     12 O    HIS F   2      -5.201  29.385 -16.235  1.00 49.82 LIG-0.27  OA
ATOM     13  N   GLY F   3      -5.450  30.410 -14.239  1.00 50.02 LIG-0.35  N 
ATOM     14 H    GLY F   3      -5.220  31.013 -13.670  1.00 50.02 LIG 0.16  HD
BRANCH 13 15
ATOM     15  CA  GLY F   3      -6.574  29.585 -13.815  1.00 50.20 LIG 0.21  C 
BRANCH 15 16
ATOM     16  C   GLY F   3      -7.884  30.021 -14.440  1.00 50.42 LIG 0.21  C 
ATOM     17 O    GLY F   3      -8.674  30.728 -13.814  1.00 50.69 LIG-0.29  OA
ENDBRANCH 15 16
ENDBRANCH 13 15
ENDBRANCH 1 11
BRANCH 1 18
ATOM     18  CB  HIS F   2      -4.105  32.544 -16.055  1.00 49.99 LIG 0.10  C 
BRANCH 18 19
ATOM     19  CG  HIS F   2      -4.021  32.842 -17.520  1.00 50.63 LIG 0.06  A 
ATOM     20  CD2 HIS F   2      -4.918  32.670 -18.521  1.00 51.31 LIG 0.14  A 
ATOM     21 NE2  HIS F   2      -4.330  33.124 -19.678  1.00 51.32 LIG-0.25  NA
ATOM     22  CE1 HIS F   2      -3.112  33.554 -19.399  1.00 50.87 LIG 0.23  A 
ATOM     23 ND1  HIS F   2      -2.901  33.397 -18.104  1.00 50.82 LIG-0.24  NA
ENDBRANCH 18 19
ENDBRANCH 1 18
TORSDOF 8
ENDMDL
MODEL 62
USER: ADFR SOLUTION from run 104
USER: SCORE 6.177906 LL:  -1.092 LR:  -5.134 RR:   0.000 FEB:  -2.748
USER: RMSD 4.782837
USER: SEED 103
USER: STATUS no improvement in best in 21 clusters for 5 generations
USER: GENES 10
USER: genes 0 Translation |==|  0.52191 0.53490 0.36833
USER: genes 1 Rotation |==|  0.28222 0.63258 0.78977 0.81786
USER: genes 2 Torsion [C]-CA--N-[C] |==|  0.15874
USER: genes 3 Torsion [N]-C--CA-[N] |==|  0.17342
USER: genes 4 Torsion [C]-CA--N-[H3] |==|  0.36373
USER: genes 5 Torsion [N]-CA--C-[N] |==|  0.11016
USER: genes 6 Torsion [C]-N--CA-[C] |==|  0.35656
USER: genes 7 Torsion [N]-CA--C-[O] |==|  0.37601
USER: genes 8 Torsion [N]-CA--CB-[CG] |==|  0.75396
USER: genes 9 Torsion [CA]-CB--CG-[CD2] |==|  0.68895
ROOT
ATOM      1  CA  HIS F   2      -1.294  31.155 -21.238  1.00 49.99 LIG 0.18  C 
ENDROOT
BRANCH 1 2
ATOM      2  N   HIS F   2      -1.380  29.960 -22.078  1.00 49.83 LIG-0.35  N 
ATOM      3  C   GLY F   1      -2.505  29.600 -22.692  1.00 49.82 LIG 0.24  C 
ATOM      4 O    GLY F   1      -3.573  30.204 -22.559  1.00 49.53 LIG-0.27  OA
ATOM      5 H    HIS F   2      -0.644  29.519 -22.136  1.00 49.83 LIG 0.16  HD
BRANCH 3 6
ATOM      6  CA  GLY F   1      -2.411  28.375 -23.586  1.00 49.90 LIG 0.33  C 
BRANCH 6 7
ATOM      7  N   GLY F   1      -2.047  27.132 -22.844  1.00 49.95 LIG-0.07  N 
ATOM      8 H3   GLY F   1      -2.610  26.479 -23.066  1.00 49.95 LIG 0.27  HD
ATOM      9 H1   GLY F   1      -1.216  26.892 -23.055  1.00 49.95 LIG 0.27  HD
ATOM     10 H2   GLY F   1      -2.098  27.282 -21.969  1.00 49.95 LIG 0.27  HD
ENDBRANCH 6 7
ENDBRANCH 3 6
ENDBRANCH 1 2
BRANCH 1 11
ATOM     11  C   HIS F   2      -2.322  31.105 -20.108  1.00 50.00 LIG 0.24  C 
ATOM     12 O    HIS F   2      -2.944  32.116 -19.774  1.00 49.82 LIG-0.27  OA
ATOM     13  N   GLY F   3      -2.499  29.916 -19.536  1.00 50.02 LIG-0.35  N 
ATOM     14 H    GLY F   3      -2.052  29.213 -19.748  1.00 50.02 LIG 0.16  HD
BRANCH 13 15
ATOM     15  CA  GLY F   3      -3.485  29.703 -18.484  1.00 50.20 LIG 0.21  C 
BRANCH 15 16
ATOM     16  C   GLY F   3      -4.401  28.531 -18.772  1.00 50.42 LIG 0.21  C 
ATOM     17 O    GLY F   3      -4.671  27.713 -17.892  1.00 50.69 LIG-0.29  OA
ENDBRANCH 15 16
ENDBRANCH 13 15
ENDBRANCH 1 11
BRANCH 1 18
ATOM     18  CB  HIS F   2      -1.478  32.421 -22.076  1.00 49.99 LIG 0.10  C 
BRANCH 18 19
ATOM     19  CG  HIS F   2      -0.203  32.956 -22.650  1.00 50.63 LIG 0.06  A 
ATOM     20  CD2 HIS F   2       0.491  34.090 -22.384  1.00 51.31 LIG 0.14  A 
ATOM     21 NE2  HIS F   2       1.604  34.085 -23.192  1.00 51.32 LIG-0.25  NA
ATOM     22  CE1 HIS F   2       1.590  32.991 -23.933  1.00 50.87 LIG 0.23  A 
ATOM     23 ND1  HIS F   2       0.512  32.291 -23.624  1.00 50.82 LIG-0.24  NA
ENDBRANCH 18 19
ENDBRANCH 1 18
TORSDOF 8
ENDMDL
