MODEL 1
USER: ADFR SOLUTION from run 195
USER: SCORE 17.073877 LL:  -0.702 LR: -16.499 RR:   0.000 FEB: -12.323
USER: RMSD 2.287681
USER: SEED 194
USER: STATUS 1 or 2 clusters left
USER: GENES 16
USER: genes 0 Translation |==|  0.35308 0.34995 0.54515
USER: genes 1 Rotation |==|  0.51463 0.49866 0.50203 0.99978
USER: genes 2 Torsion [N]-C--CA-[N] |==|  0.44461
USER: genes 3 Torsion [C]-CA--CB-[CG] |==|  0.79506
USER: genes 4 Torsion [CA]-CB--CG-[CD] |==|  0.56455
USER: genes 5 Torsion [CB]-CG--CD-[CE] |==|  0.31938
USER: genes 6 Torsion [CG]-CD--CE-[NZ] |==|  0.95507
USER: genes 7 Torsion [CD]-CE--NZ-[HZ2] |==|  0.00865
USER: genes 8 Torsion [C]-CA--N-[H2] |==|  0.60713
USER: genes 9 Torsion [C]-N--CA-[C] |==|  0.79061
USER: genes 10 Torsion [N]-CA--C-[N] |==|  0.42263
USER: genes 11 Torsion [C]-N--CA-[C] |==|  0.19188
USER: genes 12 Torsion [N]-CA--C-[O] |==|  0.26200
USER: genes 13 Torsion [N]-CA--CB-[CG] |==|  0.62349
USER: genes 14 Torsion [CA]-CB--CG-[CD] |==|  0.11053
USER: genes 15 Torsion [CB]-CG--CD-[OE2] |==|  0.88695
ROOT
ATOM      1  C   LYS I   1      13.921 -24.045  11.687  1.00 18.69 LIG 0.25  C 
ATOM      2 O    LYS I   1      14.714 -23.827  12.577  1.00 17.50 LIG-0.27  OA
ATOM      3  N   GLY I   2      14.198 -24.789  10.617  1.00 19.29 LIG-0.35  N 
ATOM      4 H    GLY I   2      13.635 -24.933   9.982  1.00 19.29 LIG 0.16  HD
ENDROOT
BRANCH 1 5
ATOM      5  CA  LYS I   1      12.522 -23.453  11.757  1.00 19.30 LIG 0.27  C 
BRANCH 5 6
ATOM      6  CB  LYS I   1      12.416 -22.246  10.808  1.00 20.67 LIG 0.04  C 
BRANCH 6 7
ATOM      7  CG  LYS I   1      13.112 -20.976  11.251  1.00 22.16 LIG 0.00  C 
BRANCH 7 8
ATOM      8  CD  LYS I   1      12.456 -19.784  10.553  1.00 24.26 LIG 0.03  C 
BRANCH 8 9
ATOM      9  CE  LYS I   1      11.742 -18.807  11.456  1.00 26.09 LIG 0.23  C 
BRANCH 9 10
ATOM     10  NZ  LYS I   1      11.441 -19.299  12.832  1.00 28.14 LIG-0.08  N 
ATOM     11 HZ2  LYS I   1      11.779 -20.116  12.936  1.00 28.14 LIG 0.27  HD
ATOM     12 HZ1  LYS I   1      10.559 -19.326  12.951  1.00 28.14 LIG 0.27  HD
ATOM     13 HZ3  LYS I   1      11.804 -18.750  13.430  1.00 28.14 LIG 0.27  HD
ENDBRANCH 9 10
ENDBRANCH 8 9
ENDBRANCH 7 8
ENDBRANCH 6 7
ENDBRANCH 5 6
BRANCH 5 14
ATOM     14  N   LYS I   1      12.176 -23.069  13.161  1.00 18.10 LIG-0.07  N 
ATOM     15 H3   LYS I   1      12.692 -23.521  13.728  1.00 18.10 LIG 0.28  HD
ATOM     16 H1   LYS I   1      12.309 -22.196  13.271  1.00 18.10 LIG 0.28  HD
ATOM     17 H2   LYS I   1      11.322 -23.261  13.319  1.00 18.10 LIG 0.28  HD
ENDBRANCH 5 14
ENDBRANCH 1 5
BRANCH 3 18
ATOM     18  CA  GLY I   2      15.498 -25.441  10.414  1.00 20.06 LIG 0.23  C 
BRANCH 18 19
ATOM     19  C   GLY I   2      16.578 -24.470   9.992  1.00 20.91 LIG 0.23  C 
ATOM     20 O    GLY I   2      16.301 -23.454   9.360  1.00 20.34 LIG-0.27  OA
ATOM     21  N   GLU I   3      17.823 -24.792  10.327  1.00 23.55 LIG-0.35  N 
ATOM     22 H    GLU I   3      18.044 -25.547  10.675  1.00 23.55 LIG 0.16  HD
BRANCH 21 23
ATOM     23  CA  GLU I   3      18.940 -23.874  10.128  1.00 24.92 LIG 0.16  C 
BRANCH 23 24
ATOM     24  C   GLU I   3      18.834 -22.687  11.078  1.00 25.70 LIG 0.22  C 
ATOM     25 O    GLU I   3      19.428 -22.720  12.153  1.00 27.47 LIG-0.29  OA
ENDBRANCH 23 24
BRANCH 23 26
ATOM     26  CB  GLU I   3      18.961 -23.439   8.664  1.00 26.58 LIG 0.04  C 
BRANCH 26 27
ATOM     27  CG  GLU I   3      20.303 -23.413   7.927  1.00 29.64 LIG 0.12  C 
BRANCH 27 28
ATOM     28  CD  GLU I   3      21.234 -24.569   8.243  1.00 32.56 LIG 0.17  C 
ATOM     29 OE2  GLU I   3      21.306 -24.944   9.436  1.00 37.52 LIG-0.65  OA
ATOM     30 OE1  GLU I   3      21.928 -25.068   7.327  1.00 34.95 LIG-0.65  OA
ENDBRANCH 27 28
ENDBRANCH 26 27
ENDBRANCH 23 26
ENDBRANCH 21 23
ENDBRANCH 18 19
ENDBRANCH 3 18
TORSDOF 14
ENDMDL
MODEL 2
USER: ADFR SOLUTION from run 116
USER: SCORE 16.816773 LL:  -0.733 LR: -16.219 RR:   0.000 FEB: -12.042
USER: RMSD 2.275747
USER: SEED 115
USER: STATUS no improvement in best in 8 clusters for 5 generations
USER: GENES 16
USER: genes 0 Translation |==|  0.35436 0.35678 0.54577
USER: genes 1 Rotation |==|  0.45545 0.54970 0.40677 0.98668
USER: genes 2 Torsion [N]-C--CA-[N] |==|  0.29890
USER: genes 3 Torsion [C]-CA--CB-[CG] |==|  0.35198
USER: genes 4 Torsion [CA]-CB--CG-[CD] |==|  0.42016
USER: genes 5 Torsion [CB]-CG--CD-[CE] |==|  0.73331
USER: genes 6 Torsion [CG]-CD--CE-[NZ] |==|  0.12824
USER: genes 7 Torsion [CD]-CE--NZ-[HZ2] |==|  0.98776
USER: genes 8 Torsion [C]-CA--N-[H2] |==|  0.71950
USER: genes 9 Torsion [C]-N--CA-[C] |==|  0.80003
USER: genes 10 Torsion [N]-CA--C-[N] |==|  0.41153
USER: genes 11 Torsion [C]-N--CA-[C] |==|  0.52491
USER: genes 12 Torsion [N]-CA--C-[O] |==|  0.02952
USER: genes 13 Torsion [N]-CA--CB-[CG] |==|  0.37297
USER: genes 14 Torsion [CA]-CB--CG-[CD] |==|  0.17613
USER: genes 15 Torsion [CB]-CG--CD-[OE2] |==|  0.97536
ROOT
ATOM      1  C   LYS I   1      13.945 -23.932  11.695  1.00 18.69 LIG 0.25  C 
ATOM      2 O    LYS I   1      14.962 -23.877  12.352  1.00 17.50 LIG-0.27  OA
ATOM      3  N   GLY I   2      13.675 -24.912  10.833  1.00 19.29 LIG-0.35  N 
ATOM      4 H    GLY I   2      12.956 -24.942  10.361  1.00 19.29 LIG 0.16  HD
ENDROOT
BRANCH 1 5
ATOM      5  CA  LYS I   1      12.895 -22.841  11.832  1.00 19.30 LIG 0.27  C 
BRANCH 5 6
ATOM      6  CB  LYS I   1      13.553 -21.458  11.679  1.00 20.67 LIG 0.04  C 
BRANCH 6 7
ATOM      7  CG  LYS I   1      12.944 -20.532  10.647  1.00 22.16 LIG 0.00  C 
BRANCH 7 8
ATOM      8  CD  LYS I   1      13.178 -19.085  11.084  1.00 24.26 LIG 0.03  C 
BRANCH 8 9
ATOM      9  CE  LYS I   1      12.038 -18.434  11.832  1.00 26.09 LIG 0.23  C 
BRANCH 9 10
ATOM     10  NZ  LYS I   1      11.426 -19.253  12.918  1.00 28.14 LIG-0.08  N 
ATOM     11 HZ2  LYS I   1      11.797 -20.062  12.925  1.00 28.14 LIG 0.27  HD
ATOM     12 HZ1  LYS I   1      10.551 -19.330  12.774  1.00 28.14 LIG 0.27  HD
ATOM     13 HZ3  LYS I   1      11.564 -18.857  13.702  1.00 28.14 LIG 0.27  HD
ENDBRANCH 9 10
ENDBRANCH 8 9
ENDBRANCH 7 8
ENDBRANCH 6 7
ENDBRANCH 5 6
BRANCH 5 14
ATOM     14  N   LYS I   1      12.176 -22.955  13.139  1.00 18.10 LIG-0.07  N 
ATOM     15 H3   LYS I   1      12.660 -23.446  13.702  1.00 18.10 LIG 0.28  HD
ATOM     16 H1   LYS I   1      12.055 -22.143  13.483  1.00 18.10 LIG 0.28  HD
ATOM     17 H2   LYS I   1      11.386 -23.344  13.011  1.00 18.10 LIG 0.28  HD
ENDBRANCH 5 14
ENDBRANCH 1 5
BRANCH 3 18
ATOM     18  CA  GLY I   2      14.581 -26.043  10.603  1.00 20.06 LIG 0.23  C 
BRANCH 18 19
ATOM     19  C   GLY I   2      15.823 -25.649   9.835  1.00 20.91 LIG 0.23  C 
ATOM     20 O    GLY I   2      15.786 -24.761   8.988  1.00 20.34 LIG-0.27  OA
ATOM     21  N   GLU I   3      16.931 -26.325  10.120  1.00 23.55 LIG-0.35  N 
ATOM     22 H    GLU I   3      16.951 -27.016  10.632  1.00 23.55 LIG 0.16  HD
BRANCH 21 23
ATOM     23  CA  GLU I   3      18.232 -25.945   9.577  1.00 24.92 LIG 0.16  C 
BRANCH 23 24
ATOM     24  C   GLU I   3      19.274 -27.012   9.886  1.00 25.70 LIG 0.22  C 
ATOM     25 O    GLU I   3      18.913 -28.096  10.337  1.00 27.47 LIG-0.29  OA
ENDBRANCH 23 24
BRANCH 23 26
ATOM     26  CB  GLU I   3      18.619 -24.581  10.146  1.00 26.58 LIG 0.04  C 
BRANCH 26 27
ATOM     27  CG  GLU I   3      20.043 -24.385  10.674  1.00 29.64 LIG 0.12  C 
BRANCH 27 28
ATOM     28  CD  GLU I   3      21.140 -24.523   9.634  1.00 32.56 LIG 0.17  C 
ATOM     29 OE2  GLU I   3      20.812 -24.944   8.501  1.00 37.52 LIG-0.65  OA
ATOM     30 OE1  GLU I   3      22.324 -24.266   9.952  1.00 34.95 LIG-0.65  OA
ENDBRANCH 27 28
ENDBRANCH 26 27
ENDBRANCH 23 26
ENDBRANCH 21 23
ENDBRANCH 18 19
ENDBRANCH 3 18
TORSDOF 14
ENDMDL
MODEL 3
USER: ADFR SOLUTION from run 116
USER: SCORE 16.222258 LL:  -0.772 LR: -15.900 RR:   0.000 FEB: -11.724
USER: RMSD 3.394500
USER: SEED 115
USER: STATUS no improvement in best in 8 clusters for 5 generations
USER: GENES 16
USER: genes 0 Translation |==|  0.35066 0.36269 0.54516
USER: genes 1 Rotation |==|  0.56773 0.51000 0.40119 0.98533
USER: genes 2 Torsion [N]-C--CA-[N] |==|  0.36436
USER: genes 3 Torsion [C]-CA--CB-[CG] |==|  0.29198
USER: genes 4 Torsion [CA]-CB--CG-[CD] |==|  0.42851
USER: genes 5 Torsion [CB]-CG--CD-[CE] |==|  0.76256
USER: genes 6 Torsion [CG]-CD--CE-[NZ] |==|  0.13262
USER: genes 7 Torsion [CD]-CE--NZ-[HZ2] |==|  0.98090
USER: genes 8 Torsion [C]-CA--N-[H2] |==|  0.73948
USER: genes 9 Torsion [C]-N--CA-[C] |==|  0.78936
USER: genes 10 Torsion [N]-CA--C-[N] |==|  0.30000
USER: genes 11 Torsion [C]-N--CA-[C] |==|  0.09880
USER: genes 12 Torsion [N]-CA--C-[O] |==|  0.30920
USER: genes 13 Torsion [N]-CA--CB-[CG] |==|  0.81067
USER: genes 14 Torsion [CA]-CB--CG-[CD] |==|  0.19783
USER: genes 15 Torsion [CB]-CG--CD-[OE2] |==|  0.11696
ROOT
ATOM      1  C   LYS I   1      13.876 -23.835  11.687  1.00 18.69 LIG 0.25  C 
ATOM      2 O    LYS I   1      14.702 -24.141  12.519  1.00 17.50 LIG-0.27  OA
ATOM      3  N   GLY I   2      13.821 -24.372  10.469  1.00 19.29 LIG-0.35  N 
ATOM      4 H    GLY I   2      13.238 -24.145   9.877  1.00 19.29 LIG 0.16  HD
ENDROOT
BRANCH 1 5
ATOM      5  CA  LYS I   1      12.827 -22.783  12.011  1.00 19.30 LIG 0.27  C 
BRANCH 5 6
ATOM      6  CB  LYS I   1      13.469 -21.383  12.001  1.00 20.67 LIG 0.04  C 
BRANCH 6 7
ATOM      7  CG  LYS I   1      13.160 -20.509  10.803  1.00 22.16 LIG 0.00  C 
BRANCH 7 8
ATOM      8  CD  LYS I   1      13.297 -19.042  11.215  1.00 24.26 LIG 0.03  C 
BRANCH 8 9
ATOM      9  CE  LYS I   1      12.073 -18.421  11.844  1.00 26.09 LIG 0.23  C 
BRANCH 9 10
ATOM     10  NZ  LYS I   1      11.425 -19.220  12.925  1.00 28.14 LIG-0.08  N 
ATOM     11 HZ2  LYS I   1      11.813 -20.020  12.977  1.00 28.14 LIG 0.27  HD
ATOM     12 HZ1  LYS I   1      10.560 -19.322  12.741  1.00 28.14 LIG 0.27  HD
ATOM     13 HZ3  LYS I   1      11.515 -18.796  13.702  1.00 28.14 LIG 0.27  HD
ENDBRANCH 9 10
ENDBRANCH 8 9
ENDBRANCH 7 8
ENDBRANCH 6 7
ENDBRANCH 5 6
BRANCH 5 14
ATOM     14  N   LYS I   1      12.176 -23.068  13.327  1.00 18.10 LIG-0.07  N 
ATOM     15 H3   LYS I   1      12.735 -23.532  13.841  1.00 18.10 LIG 0.28  HD
ATOM     16 H1   LYS I   1      11.972 -22.300  13.730  1.00 18.10 LIG 0.28  HD
ATOM     17 H2   LYS I   1      11.433 -23.540  13.195  1.00 18.10 LIG 0.28  HD
ENDBRANCH 5 14
ENDBRANCH 1 5
BRANCH 3 18
ATOM     18  CA  GLY I   2      14.752 -25.411  10.013  1.00 20.06 LIG 0.23  C 
BRANCH 18 19
ATOM     19  C   GLY I   2      16.120 -24.861   9.675  1.00 20.91 LIG 0.23  C 
ATOM     20 O    GLY I   2      16.298 -24.194   8.660  1.00 20.34 LIG-0.27  OA
ATOM     21  N   GLU I   3      17.099 -25.156  10.524  1.00 23.55 LIG-0.35  N 
ATOM     22 H    GLU I   3      17.013 -25.705  11.180  1.00 23.55 LIG 0.16  HD
BRANCH 21 23
ATOM     23  CA  GLU I   3      18.427 -24.560  10.411  1.00 24.92 LIG 0.16  C 
BRANCH 23 24
ATOM     24  C   GLU I   3      18.328 -23.117   9.932  1.00 25.70 LIG 0.22  C 
ATOM     25 O    GLU I   3      18.617 -22.204  10.701  1.00 27.47 LIG-0.29  OA
ENDBRANCH 23 24
BRANCH 23 26
ATOM     26  CB  GLU I   3      19.271 -25.421   9.473  1.00 26.58 LIG 0.04  C 
BRANCH 26 27
ATOM     27  CG  GLU I   3      19.676 -26.825   9.934  1.00 29.64 LIG 0.12  C 
BRANCH 27 28
ATOM     28  CD  GLU I   3      18.547 -27.837   9.981  1.00 32.56 LIG 0.17  C 
ATOM     29 OE2  GLU I   3      17.731 -27.838   9.031  1.00 37.52 LIG-0.65  OA
ATOM     30 OE1  GLU I   3      18.438 -28.591  10.976  1.00 34.95 LIG-0.65  OA
ENDBRANCH 27 28
ENDBRANCH 26 27
ENDBRANCH 23 26
ENDBRANCH 21 23
ENDBRANCH 18 19
ENDBRANCH 3 18
TORSDOF 14
ENDMDL
MODEL 4
USER: ADFR SOLUTION from run 102
USER: SCORE 16.547216 LL:  -0.939 LR: -15.791 RR:   0.000 FEB: -11.615
USER: RMSD 1.064297
USER: SEED 101
USER: STATUS no improvement in best in 2 clusters for 5 generations
USER: GENES 16
USER: genes 0 Translation |==|  0.35325 0.34894 0.54381
USER: genes 1 Rotation |==|  0.51812 0.49732 0.50974 0.99957
USER: genes 2 Torsion [N]-C--CA-[N] |==|  0.45593
USER: genes 3 Torsion [C]-CA--CB-[CG] |==|  0.80985
USER: genes 4 Torsion [CA]-CB--CG-[CD] |==|  0.59573
USER: genes 5 Torsion [CB]-CG--CD-[CE] |==|  0.35046
USER: genes 6 Torsion [CG]-CD--CE-[NZ] |==|  0.86241
USER: genes 7 Torsion [CD]-CE--NZ-[HZ2] |==|  0.74615
USER: genes 8 Torsion [C]-CA--N-[H2] |==|  0.61443
USER: genes 9 Torsion [C]-N--CA-[C] |==|  0.78357
USER: genes 10 Torsion [N]-CA--C-[N] |==|  0.40994
USER: genes 11 Torsion [C]-N--CA-[C] |==|  0.60169
USER: genes 12 Torsion [N]-CA--C-[O] |==|  0.80065
USER: genes 13 Torsion [N]-CA--CB-[CG] |==|  0.44608
USER: genes 14 Torsion [CA]-CB--CG-[CD] |==|  0.20653
USER: genes 15 Torsion [CB]-CG--CD-[OE2] |==|  0.47401
ROOT
ATOM      1  C   LYS I   1      13.924 -24.061  11.668  1.00 18.69 LIG 0.25  C 
ATOM      2 O    LYS I   1      14.705 -23.832  12.567  1.00 17.50 LIG-0.27  OA
ATOM      3  N   GLY I   2      14.230 -24.782  10.590  1.00 19.29 LIG-0.35  N 
ATOM      4 H    GLY I   2      13.676 -24.934   9.950  1.00 19.29 LIG 0.16  HD
ENDROOT
BRANCH 1 5
ATOM      5  CA  LYS I   1      12.507 -23.514  11.738  1.00 19.30 LIG 0.27  C 
BRANCH 5 6
ATOM      6  CB  LYS I   1      12.341 -22.362  10.730  1.00 20.67 LIG 0.04  C 
BRANCH 6 7
ATOM      7  CG  LYS I   1      13.103 -21.089  11.030  1.00 22.16 LIG 0.00  C 
BRANCH 7 8
ATOM      8  CD  LYS I   1      12.269 -19.893  10.566  1.00 24.26 LIG 0.03  C 
BRANCH 8 9
ATOM      9  CE  LYS I   1      12.013 -18.829  11.606  1.00 26.09 LIG 0.23  C 
BRANCH 9 10
ATOM     10  NZ  LYS I   1      11.506 -19.319  12.921  1.00 28.14 LIG-0.08  N 
ATOM     11 HZ2  LYS I   1      10.616 -19.319  12.915  1.00 28.14 LIG 0.27  HD
ATOM     12 HZ1  LYS I   1      11.798 -18.784  13.569  1.00 28.14 LIG 0.27  HD
ATOM     13 HZ3  LYS I   1      11.801 -20.146  13.063  1.00 28.14 LIG 0.27  HD
ENDBRANCH 9 10
ENDBRANCH 8 9
ENDBRANCH 7 8
ENDBRANCH 6 7
ENDBRANCH 5 6
BRANCH 5 14
ATOM     14  N   LYS I   1      12.176 -23.069  13.127  1.00 18.10 LIG-0.07  N 
ATOM     15 H3   LYS I   1      12.742 -23.444  13.702  1.00 18.10 LIG 0.28  HD
ATOM     16 H1   LYS I   1      12.244 -22.183  13.179  1.00 18.10 LIG 0.28  HD
ATOM     17 H2   LYS I   1      11.344 -23.315  13.327  1.00 18.10 LIG 0.28  HD
ENDBRANCH 5 14
ENDBRANCH 1 5
BRANCH 3 18
ATOM     18  CA  GLY I   2      15.550 -25.390  10.387  1.00 20.06 LIG 0.23  C 
BRANCH 18 19
ATOM     19  C   GLY I   2      16.589 -24.392   9.926  1.00 20.91 LIG 0.23  C 
ATOM     20 O    GLY I   2      16.279 -23.449   9.203  1.00 20.34 LIG-0.27  OA
ATOM     21  N   GLU I   3      17.835 -24.609  10.332  1.00 23.55 LIG-0.35  N 
ATOM     22 H    GLU I   3      18.085 -25.319  10.749  1.00 23.55 LIG 0.16  HD
BRANCH 21 23
ATOM     23  CA  GLU I   3      18.905 -23.642  10.099  1.00 24.92 LIG 0.16  C 
BRANCH 23 24
ATOM     24  C   GLU I   3      20.216 -24.357   9.797  1.00 25.70 LIG 0.22  C 
ATOM     25 O    GLU I   3      20.806 -24.944  10.702  1.00 27.47 LIG-0.29  OA
ENDBRANCH 23 24
BRANCH 23 26
ATOM     26  CB  GLU I   3      19.013 -22.731  11.320  1.00 26.58 LIG 0.04  C 
BRANCH 26 27
ATOM     27  CG  GLU I   3      20.311 -21.945  11.534  1.00 29.64 LIG 0.12  C 
BRANCH 27 28
ATOM     28  CD  GLU I   3      20.504 -20.758  10.609  1.00 32.56 LIG 0.17  C 
ATOM     29 OE2  GLU I   3      21.453 -19.980  10.857  1.00 37.52 LIG-0.65  OA
ATOM     30 OE1  GLU I   3      19.691 -20.568   9.675  1.00 34.95 LIG-0.65  OA
ENDBRANCH 27 28
ENDBRANCH 26 27
ENDBRANCH 23 26
ENDBRANCH 21 23
ENDBRANCH 18 19
ENDBRANCH 3 18
TORSDOF 14
ENDMDL
MODEL 5
USER: ADFR SOLUTION from run 116
USER: SCORE 16.372417 LL:  -1.015 LR: -15.596 RR:   0.000 FEB: -11.420
USER: RMSD 3.355439
USER: SEED 115
USER: STATUS no improvement in best in 8 clusters for 5 generations
USER: GENES 16
USER: genes 0 Translation |==|  0.35262 0.35343 0.53171
USER: genes 1 Rotation |==|  0.56370 0.44294 0.47898 0.99218
USER: genes 2 Torsion [N]-C--CA-[N] |==|  0.49650
USER: genes 3 Torsion [C]-CA--CB-[CG] |==|  0.44646
USER: genes 4 Torsion [CA]-CB--CG-[CD] |==|  0.88040
USER: genes 5 Torsion [CB]-CG--CD-[CE] |==|  0.60035
USER: genes 6 Torsion [CG]-CD--CE-[NZ] |==|  0.57749
USER: genes 7 Torsion [CD]-CE--NZ-[HZ2] |==|  0.76292
USER: genes 8 Torsion [C]-CA--N-[H2] |==|  0.67611
USER: genes 9 Torsion [C]-N--CA-[C] |==|  0.73890
USER: genes 10 Torsion [N]-CA--C-[N] |==|  0.42970
USER: genes 11 Torsion [C]-N--CA-[C] |==|  0.20519
USER: genes 12 Torsion [N]-CA--C-[O] |==|  0.17083
USER: genes 13 Torsion [N]-CA--CB-[CG] |==|  0.59170
USER: genes 14 Torsion [CA]-CB--CG-[CD] |==|  0.12042
USER: genes 15 Torsion [CB]-CG--CD-[OE2] |==|  0.88035
ROOT
ATOM      1  C   LYS I   1      13.913 -23.987  11.505  1.00 18.69 LIG 0.25  C 
ATOM      2 O    LYS I   1      14.498 -24.034  12.566  1.00 17.50 LIG-0.27  OA
ATOM      3  N   GLY I   2      14.368 -24.548  10.385  1.00 19.29 LIG-0.35  N 
ATOM      4 H    GLY I   2      13.954 -24.505   9.632  1.00 19.29 LIG 0.16  HD
ENDROOT
BRANCH 1 5
ATOM      5  CA  LYS I   1      12.582 -23.258  11.405  1.00 19.30 LIG 0.27  C 
BRANCH 5 6
ATOM      6  CB  LYS I   1      12.674 -22.145  10.345  1.00 20.67 LIG 0.04  C 
BRANCH 6 7
ATOM      7  CG  LYS I   1      11.361 -21.627   9.795  1.00 22.16 LIG 0.00  C 
BRANCH 7 8
ATOM      8  CD  LYS I   1      10.437 -22.815   9.525  1.00 24.26 LIG 0.03  C 
BRANCH 8 9
ATOM      9  CE  LYS I   1       9.551 -22.693   8.308  1.00 26.09 LIG 0.23  C 
BRANCH 9 10
ATOM     10  NZ  LYS I   1       8.264 -23.444   8.367  1.00 28.14 LIG-0.08  N 
ATOM     11 HZ2  LYS I   1       8.397 -24.283   8.102  1.00 28.14 LIG 0.27  HD
ATOM     12 HZ1  LYS I   1       7.668 -23.055   7.832  1.00 28.14 LIG 0.27  HD
ATOM     13 HZ3  LYS I   1       7.957 -23.442   9.202  1.00 28.14 LIG 0.27  HD
ENDBRANCH 9 10
ENDBRANCH 8 9
ENDBRANCH 7 8
ENDBRANCH 6 7
ENDBRANCH 5 6
BRANCH 5 14
ATOM     14  N   LYS I   1      12.176 -22.705  12.734  1.00 18.10 LIG-0.07  N 
ATOM     15 H3   LYS I   1      12.817 -22.865  13.331  1.00 18.10 LIG 0.28  HD
ATOM     16 H1   LYS I   1      12.050 -21.826  12.664  1.00 18.10 LIG 0.28  HD
ATOM     17 H2   LYS I   1      11.421 -23.093  13.000  1.00 18.10 LIG 0.28  HD
ENDBRANCH 5 14
ENDBRANCH 1 5
BRANCH 3 18
ATOM     18  CA  GLY I   2      15.627 -25.301  10.326  1.00 20.06 LIG 0.23  C 
BRANCH 18 19
ATOM     19  C   GLY I   2      16.798 -24.445   9.899  1.00 20.91 LIG 0.23  C 
ATOM     20 O    GLY I   2      16.630 -23.445   9.207  1.00 20.34 LIG-0.27  OA
ATOM     21  N   GLU I   3      17.999 -24.849  10.300  1.00 23.55 LIG-0.35  N 
ATOM     22 H    GLU I   3      18.144 -25.599  10.694  1.00 23.55 LIG 0.16  HD
BRANCH 21 23
ATOM     23  CA  GLU I   3      19.196 -24.036  10.100  1.00 24.92 LIG 0.16  C 
BRANCH 23 24
ATOM     24  C   GLU I   3      19.211 -22.859  11.067  1.00 25.70 LIG 0.22  C 
ATOM     25 O    GLU I   3      19.234 -23.073  12.278  1.00 27.47 LIG-0.29  OA
ENDBRANCH 23 24
BRANCH 23 26
ATOM     26  CB  GLU I   3      19.241 -23.583   8.642  1.00 26.58 LIG 0.04  C 
BRANCH 26 27
ATOM     27  CG  GLU I   3      20.607 -23.418   7.969  1.00 29.64 LIG 0.12  C 
BRANCH 27 28
ATOM     28  CD  GLU I   3      21.603 -24.528   8.252  1.00 32.56 LIG 0.17  C 
ATOM     29 OE2  GLU I   3      21.685 -24.944   9.431  1.00 37.52 LIG-0.65  OA
ATOM     30 OE1  GLU I   3      22.336 -24.948   7.327  1.00 34.95 LIG-0.65  OA
ENDBRANCH 27 28
ENDBRANCH 26 27
ENDBRANCH 23 26
ENDBRANCH 21 23
ENDBRANCH 18 19
ENDBRANCH 3 18
TORSDOF 14
ENDMDL
MODEL 6
USER: ADFR SOLUTION from run 6
USER: SCORE 16.046271 LL:  -1.695 LR: -15.082 RR:   0.000 FEB: -10.906
USER: RMSD 2.746079
USER: SEED 700608
USER: STATUS no improvement in best in 5 clusters for 5 generations
USER: GENES 16
USER: genes 0 Translation |==|  0.35430 0.35602 0.53329
USER: genes 1 Rotation |==|  0.50687 0.41756 0.34938 0.96954
USER: genes 2 Torsion [N]-C--CA-[N] |==|  0.27482
USER: genes 3 Torsion [C]-CA--CB-[CG] |==|  0.57200
USER: genes 4 Torsion [CA]-CB--CG-[CD] |==|  0.63809
USER: genes 5 Torsion [CB]-CG--CD-[CE] |==|  0.72699
USER: genes 6 Torsion [CG]-CD--CE-[NZ] |==|  0.85518
USER: genes 7 Torsion [CD]-CE--NZ-[HZ2] |==|  0.96124
USER: genes 8 Torsion [C]-CA--N-[H2] |==|  0.85677
USER: genes 9 Torsion [C]-N--CA-[C] |==|  0.66884
USER: genes 10 Torsion [N]-CA--C-[N] |==|  0.35082
USER: genes 11 Torsion [C]-N--CA-[C] |==|  0.65020
USER: genes 12 Torsion [N]-CA--C-[O] |==|  0.90288
USER: genes 13 Torsion [N]-CA--CB-[CG] |==|  0.77831
USER: genes 14 Torsion [CA]-CB--CG-[CD] |==|  0.16734
USER: genes 15 Torsion [CB]-CG--CD-[OE2] |==|  0.69480
ROOT
ATOM      1  C   LYS I   1      13.944 -23.945  11.526  1.00 18.69 LIG 0.25  C 
ATOM      2 O    LYS I   1      14.426 -24.122  12.625  1.00 17.50 LIG-0.27  OA
ATOM      3  N   GLY I   2      14.019 -24.832  10.535  1.00 19.29 LIG-0.35  N 
ATOM      4 H    GLY I   2      13.684 -24.698   9.754  1.00 19.29 LIG 0.16  HD
ENDROOT
BRANCH 1 5
ATOM      5  CA  LYS I   1      13.205 -22.651  11.223  1.00 19.30 LIG 0.27  C 
BRANCH 5 6
ATOM      6  CB  LYS I   1      13.975 -21.457  11.817  1.00 20.67 LIG 0.04  C 
BRANCH 6 7
ATOM      7  CG  LYS I   1      13.157 -20.227  12.153  1.00 22.16 LIG 0.00  C 
BRANCH 7 8
ATOM      8  CD  LYS I   1      13.839 -19.000  11.546  1.00 24.26 LIG 0.03  C 
BRANCH 8 9
ATOM      9  CE  LYS I   1      14.702 -18.195  12.488  1.00 26.09 LIG 0.23  C 
BRANCH 9 10
ATOM     10  NZ  LYS I   1      14.051 -17.779  13.765  1.00 28.14 LIG-0.08  N 
ATOM     11 HZ2  LYS I   1      13.171 -17.897  13.702  1.00 28.14 LIG 0.27  HD
ATOM     12 HZ1  LYS I   1      14.225 -16.920  13.919  1.00 28.14 LIG 0.27  HD
ATOM     13 HZ3  LYS I   1      14.369 -18.271  14.434  1.00 28.14 LIG 0.27  HD
ENDBRANCH 9 10
ENDBRANCH 8 9
ENDBRANCH 7 8
ENDBRANCH 6 7
ENDBRANCH 5 6
BRANCH 5 14
ATOM     14  N   LYS I   1      11.804 -22.702  11.743  1.00 18.10 LIG-0.07  N 
ATOM     15 H3   LYS I   1      11.818 -22.700  12.633  1.00 18.10 LIG 0.28  HD
ATOM     16 H1   LYS I   1      11.353 -21.992  11.452  1.00 18.10 LIG 0.28  HD
ATOM     17 H2   LYS I   1      11.407 -23.445  11.455  1.00 18.10 LIG 0.28  HD
ENDBRANCH 5 14
ENDBRANCH 1 5
BRANCH 3 18
ATOM     18  CA  GLY I   2      14.684 -26.133  10.679  1.00 20.06 LIG 0.23  C 
BRANCH 18 19
ATOM     19  C   GLY I   2      15.845 -26.304   9.725  1.00 20.91 LIG 0.23  C 
ATOM     20 O    GLY I   2      15.695 -26.153   8.516  1.00 20.34 LIG-0.27  OA
ATOM     21  N   GLU I   3      17.010 -26.639  10.270  1.00 23.55 LIG-0.35  N 
ATOM     22 H    GLU I   3      17.107 -26.849  11.098  1.00 23.55 LIG 0.16  HD
BRANCH 21 23
ATOM     23  CA  GLU I   3      18.245 -26.677   9.493  1.00 24.92 LIG 0.16  C 
BRANCH 23 24
ATOM     24  C   GLU I   3      18.924 -28.034   9.632  1.00 25.70 LIG 0.22  C 
ATOM     25 O    GLU I   3      18.858 -28.635  10.702  1.00 27.47 LIG-0.29  OA
ENDBRANCH 23 24
BRANCH 23 26
ATOM     26  CB  GLU I   3      19.148 -25.533   9.952  1.00 26.58 LIG 0.04  C 
BRANCH 26 27
ATOM     27  CG  GLU I   3      18.868 -24.123   9.422  1.00 29.64 LIG 0.12  C 
BRANCH 27 28
ATOM     28  CD  GLU I   3      17.498 -23.568   9.762  1.00 32.56 LIG 0.17  C 
ATOM     29 OE2  GLU I   3      16.676 -23.444   8.825  1.00 37.52 LIG-0.65  OA
ATOM     30 OE1  GLU I   3      17.254 -23.207  10.936  1.00 34.95 LIG-0.65  OA
ENDBRANCH 27 28
ENDBRANCH 26 27
ENDBRANCH 23 26
ENDBRANCH 21 23
ENDBRANCH 18 19
ENDBRANCH 3 18
TORSDOF 14
ENDMDL
MODEL 7
USER: ADFR SOLUTION from run 129
USER: SCORE 15.845570 LL:  -1.212 LR: -14.903 RR:   0.000 FEB: -10.726
USER: RMSD 3.115083
USER: SEED 128
USER: STATUS no improvement in best in 5 clusters for 5 generations
USER: GENES 16
USER: genes 0 Translation |==|  0.35137 0.34976 0.54842
USER: genes 1 Rotation |==|  0.47377 0.50005 0.51790 0.99899
USER: genes 2 Torsion [N]-C--CA-[N] |==|  0.47921
USER: genes 3 Torsion [C]-CA--CB-[CG] |==|  0.43180
USER: genes 4 Torsion [CA]-CB--CG-[CD] |==|  0.55248
USER: genes 5 Torsion [CB]-CG--CD-[CE] |==|  0.45643
USER: genes 6 Torsion [CG]-CD--CE-[NZ] |==|  0.95667
USER: genes 7 Torsion [CD]-CE--NZ-[HZ2] |==|  0.03979
USER: genes 8 Torsion [C]-CA--N-[H2] |==|  0.31631
USER: genes 9 Torsion [C]-N--CA-[C] |==|  0.73797
USER: genes 10 Torsion [N]-CA--C-[N] |==|  0.42471
USER: genes 11 Torsion [C]-N--CA-[C] |==|  0.59513
USER: genes 12 Torsion [N]-CA--C-[O] |==|  0.04114
USER: genes 13 Torsion [N]-CA--CB-[CG] |==|  0.08422
USER: genes 14 Torsion [CA]-CB--CG-[CD] |==|  0.19659
USER: genes 15 Torsion [CB]-CG--CD-[OE2] |==|  0.45087
ROOT
ATOM      1  C   LYS I   1      13.889 -24.048  11.731  1.00 18.69 LIG 0.25  C 
ATOM      2 O    LYS I   1      14.665 -23.639  12.567  1.00 17.50 LIG-0.27  OA
ATOM      3  N   GLY I   2      14.215 -24.938  10.794  1.00 19.29 LIG-0.35  N 
ATOM      4 H    GLY I   2      13.663 -25.218  10.196  1.00 19.29 LIG 0.16  HD
ENDROOT
BRANCH 1 5
ATOM      5  CA  LYS I   1      12.455 -23.542  11.716  1.00 19.30 LIG 0.27  C 
BRANCH 5 6
ATOM      6  CB  LYS I   1      12.188 -22.764  10.414  1.00 20.67 LIG 0.04  C 
BRANCH 6 7
ATOM      7  CG  LYS I   1      10.747 -22.689   9.957  1.00 22.16 LIG 0.00  C 
BRANCH 7 8
ATOM      8  CD  LYS I   1      10.718 -22.319   8.473  1.00 24.26 LIG 0.03  C 
BRANCH 8 9
ATOM      9  CE  LYS I   1       9.407 -22.556   7.763  1.00 26.09 LIG 0.23  C 
BRANCH 9 10
ATOM     10  NZ  LYS I   1       8.436 -23.438   8.474  1.00 28.14 LIG-0.08  N 
ATOM     11 HZ2  LYS I   1       8.691 -23.537   9.322  1.00 28.14 LIG 0.27  HD
ATOM     12 HZ1  LYS I   1       8.412 -24.233   8.077  1.00 28.14 LIG 0.27  HD
ATOM     13 HZ3  LYS I   1       7.627 -23.069   8.449  1.00 28.14 LIG 0.27  HD
ENDBRANCH 9 10
ENDBRANCH 8 9
ENDBRANCH 7 8
ENDBRANCH 6 7
ENDBRANCH 5 6
BRANCH 5 14
ATOM     14  N   LYS I   1      12.176 -22.696  12.917  1.00 18.10 LIG-0.07  N 
ATOM     15 H3   LYS I   1      11.459 -23.009  13.340  1.00 18.10 LIG 0.28  HD
ATOM     16 H1   LYS I   1      12.877 -22.718  13.465  1.00 18.10 LIG 0.28  HD
ATOM     17 H2   LYS I   1      12.026 -21.857  12.661  1.00 18.10 LIG 0.28  HD
ENDBRANCH 5 14
ENDBRANCH 1 5
BRANCH 3 18
ATOM     18  CA  GLY I   2      15.553 -25.531  10.689  1.00 20.06 LIG 0.23  C 
BRANCH 18 19
ATOM     19  C   GLY I   2      16.446 -24.790   9.719  1.00 20.91 LIG 0.23  C 
ATOM     20 O    GLY I   2      15.970 -24.173   8.770  1.00 20.34 LIG-0.27  OA
ATOM     21  N   GLU I   3      17.753 -24.864   9.947  1.00 23.55 LIG-0.35  N 
ATOM     22 H    GLU I   3      18.106 -25.375  10.543  1.00 23.55 LIG 0.16  HD
BRANCH 21 23
ATOM     23  CA  GLU I   3      18.717 -24.069   9.192  1.00 24.92 LIG 0.16  C 
BRANCH 23 24
ATOM     24  C   GLU I   3      20.013 -24.845   8.993  1.00 25.70 LIG 0.22  C 
ATOM     25 O    GLU I   3      20.029 -26.056   9.202  1.00 27.47 LIG-0.29  OA
ENDBRANCH 23 24
BRANCH 23 26
ATOM     26  CB  GLU I   3      18.944 -22.749   9.926  1.00 26.58 LIG 0.04  C 
BRANCH 26 27
ATOM     27  CG  GLU I   3      18.809 -22.728  11.452  1.00 29.64 LIG 0.12  C 
BRANCH 27 28
ATOM     28  CD  GLU I   3      19.916 -23.441  12.206  1.00 32.56 LIG 0.17  C 
ATOM     29 OE2  GLU I   3      20.051 -23.177  13.422  1.00 37.52 LIG-0.65  OA
ATOM     30 OE1  GLU I   3      20.680 -24.217  11.587  1.00 34.95 LIG-0.65  OA
ENDBRANCH 27 28
ENDBRANCH 26 27
ENDBRANCH 23 26
ENDBRANCH 21 23
ENDBRANCH 18 19
ENDBRANCH 3 18
TORSDOF 14
ENDMDL
