MODEL 1
USER: ADFR SOLUTION from run 152
USER: SCORE 11.739100 LL:  -2.513 LR:  -9.304 RR:   0.000 FEB:  -6.917
USER: RMSD 3.616512
USER: SEED 151
USER: STATUS no improvement in best in 7 clusters for 5 generations
USER: GENES 10
USER: genes 0 Translation |==|  0.51570 0.43633 0.47388
USER: genes 1 Rotation |==|  0.50933 0.54563 0.59742 0.98820
USER: genes 2 Torsion [C]-N--CA-[C] |==|  0.79050
USER: genes 3 Torsion [N]-CA--C-[N] |==|  0.98940
USER: genes 4 Torsion [N]-CA--C-[N] |==|  0.81912
USER: genes 5 Torsion [N]-CA--C-[O] |==|  0.03673
USER: genes 6 Torsion [N]-CA--CB-[CG2] |==|  0.12440
USER: genes 7 Torsion [O]-C--CA-[N] |==|  0.90807
USER: genes 8 Torsion [N]-C--CA-[N] |==|  0.56511
USER: genes 9 Torsion [N]-C--CA-[CB] |==|  0.85501
ROOT
ATOM      1  C   PRO C  76      16.331   8.338   5.241  0.47 42.64 LIG 0.24  C 
ATOM      2 O    PRO C  76      16.903   7.506   4.618  0.47 44.95 LIG-0.27  OA
ATOM      3  N   VAL C  77      16.947   9.224   5.982  0.47 42.25 LIG-0.35  N 
ATOM      4 H    VAL C  77      16.570   9.865   6.413  0.47 42.25 LIG 0.16  HD
ENDROOT
BRANCH 3 5
ATOM      5  CA  VAL C  77      18.371   9.140   6.102  0.47 44.36 LIG 0.17  C 
BRANCH 5 6
ATOM      6  C   VAL C  77      18.626   7.986   7.036  0.47 50.22 LIG 0.22  C 
ATOM      7 O    VAL C  77      19.757   7.698   7.320  0.47 51.68 LIG-0.28  OA
ATOM      8 N    PRO C  78      17.628   7.356   7.601  0.47 51.29 LIG-0.24  NA
ATOM      9  CD  PRO C  78      16.751   8.282   8.333  0.47 47.28 LIG 0.10  C 
ATOM     10  CA  PRO C  78      17.979   6.213   8.424  0.47 47.56 LIG 0.16  C 
ATOM     11  CG  PRO C  78      16.816   7.789   9.707  0.47 42.43 LIG 0.02  C 
ATOM     12  CB  PRO C  78      17.060   6.358   9.626  0.47 42.06 LIG 0.03  C 
BRANCH 10 13
ATOM     13  C   PRO C  78      17.798   4.978   7.578  0.47 54.03 LIG 0.24  C 
ATOM     14  N   PRO C  79      16.592   4.623   7.144  0.47 54.03 LIG-0.34  N 
ATOM     15  CD  PRO C  79      15.473   5.025   8.003  0.47 49.78 LIG 0.13  C 
ATOM     16  CA  PRO C  79      16.355   3.296   6.569  0.47 62.24 LIG 0.17  C 
ATOM     17  CG  PRO C  79      14.528   3.928   7.857  0.47 51.96 LIG 0.02  C 
ATOM     18  CB  PRO C  79      14.869   3.141   6.700  0.47 58.89 LIG 0.04  C 
ATOM     19 O    PRO C  78      18.788   4.321   7.387  0.47 60.82 LIG-0.27  OA
BRANCH 16 20
ATOM     20  C   PRO C  79      16.768   3.072   5.134  0.47 69.87 LIG 0.22  C 
ATOM     21 O    PRO C  79      17.482   3.905   4.632  0.47 73.23 LIG-0.29  OA
ENDBRANCH 16 20
ENDBRANCH 10 13
ENDBRANCH 5 6
BRANCH 5 22
ATOM     22  CB  VAL C  77      18.963  10.518   6.453  0.47 43.60 LIG 0.01  C 
ATOM     23  CG2 VAL C  77      18.087  11.117   7.554  0.47 46.41 LIG 0.01  C 
ATOM     24  CG1 VAL C  77      18.969  11.489   5.266  0.47 37.55 LIG 0.01  C 
ENDBRANCH 5 22
ENDBRANCH 3 5
BRANCH 1 25
ATOM     25  CA  PRO C  76      14.873   8.356   5.118  0.47 40.28 LIG 0.18  C 
ATOM     26  N   PRO C  76      14.550   7.936   3.772  0.47 33.79 LIG-0.34  N 
ATOM     27  CD  PRO C  76      13.694   6.749   3.786  0.47 35.40 LIG 0.13  C 
ATOM     28  C   PRO C  75      14.449   8.820   2.806  0.47 33.84 LIG 0.24  C 
ATOM     29  CG  PRO C  76      13.822   6.276   5.168  0.47 37.80 LIG 0.02  C 
ATOM     30  CB  PRO C  76      14.217   7.289   6.003  0.47 38.87 LIG 0.04  C 
ATOM     31 O    PRO C  75      14.647   9.972   2.979  0.47 33.93 LIG-0.27  OA
BRANCH 28 32
ATOM     32  CA  PRO C  75      13.987   8.340   1.452  0.47 46.85 LIG 0.18  C 
ATOM     33  CB  PRO C  75      14.656   7.011   1.079  0.47 48.68 LIG 0.04  C 
ATOM     34  CG  PRO C  75      15.213   7.197  -0.294  0.47 51.42 LIG 0.02  C 
ATOM     35  CD  PRO C  75      14.766   8.492  -0.815  0.47 56.17 LIG 0.13  C 
ATOM     36  N   PRO C  75      14.432   9.236   0.396  0.47 56.81 LIG-0.34  N 
ATOM     37  C   PRO C  74      13.823  10.382   0.095  0.47 61.55 LIG 0.26  C 
ATOM     38 O    PRO C  74      12.852  10.829   0.676  0.47 61.23 LIG-0.27  OA
BRANCH 37 39
ATOM     39  CA  PRO C  74      14.396  11.166  -1.063  0.47 57.58 LIG 0.35  C 
ATOM     40  N   PRO C  74      13.872  12.533  -1.093  0.47 57.74 LIG 0.32  N 
ATOM     41  CD  PRO C  74      14.969  13.498  -1.196  0.47 56.21 LIG 0.32  C 
ATOM     42  CG  PRO C  74      16.065  12.788  -0.500  0.47 52.80 LIG 0.04  C 
ATOM     43  CB  PRO C  74      15.897  11.378  -0.872  0.47 50.35 LIG 0.05  C 
ENDBRANCH 37 39
ENDBRANCH 28 32
ENDBRANCH 1 25
TORSDOF 8
ENDMDL
MODEL 2
USER: ADFR SOLUTION from run 26
USER: SCORE 12.491102 LL:  -3.977 LR:  -8.829 RR:   0.000 FEB:  -6.443
USER: RMSD 3.881264
USER: SEED 25
USER: STATUS no improvement in best in 9 clusters for 5 generations
USER: GENES 10
USER: genes 0 Translation |==|  0.69263 0.48378 0.52948
USER: genes 1 Rotation |==|  0.59619 0.25294 0.60754 0.91006
USER: genes 2 Torsion [C]-N--CA-[C] |==|  0.68436
USER: genes 3 Torsion [N]-CA--C-[N] |==|  0.27815
USER: genes 4 Torsion [N]-CA--C-[N] |==|  0.51115
USER: genes 5 Torsion [N]-CA--C-[O] |==|  0.17463
USER: genes 6 Torsion [N]-CA--CB-[CG2] |==|  0.00181
USER: genes 7 Torsion [O]-C--CA-[N] |==|  0.41497
USER: genes 8 Torsion [N]-C--CA-[N] |==|  0.34014
USER: genes 9 Torsion [N]-C--CA-[CB] |==|  0.84196
ROOT
ATOM      1  C   PRO C  76      19.250   9.121   6.617  0.47 42.64 LIG 0.24  C 
ATOM      2 O    PRO C  76      20.305   8.580   6.563  0.47 44.95 LIG-0.27  OA
ATOM      3  N   VAL C  77      18.614   9.335   7.741  0.47 42.25 LIG-0.35  N 
ATOM      4 H    VAL C  77      17.871   9.758   7.822  0.47 42.25 LIG 0.16  HD
ENDROOT
BRANCH 3 5
ATOM      5  CA  VAL C  77      19.185   8.830   8.953  0.47 44.36 LIG 0.17  C 
BRANCH 5 6
ATOM      6  C   VAL C  77      18.230   7.768   9.432  0.47 50.22 LIG 0.22  C 
ATOM      7 O    VAL C  77      17.194   8.095   9.943  0.47 51.68 LIG-0.28  OA
ATOM      8 N    PRO C  78      18.484   6.501   9.219  0.47 51.29 LIG-0.24  NA
ATOM      9  CD  PRO C  78      18.707   6.230   7.791  0.47 47.28 LIG 0.10  C 
ATOM     10  CA  PRO C  78      17.539   5.557   9.786  0.47 47.56 LIG 0.16  C 
ATOM     11  CG  PRO C  78      17.657   5.267   7.466  0.47 42.43 LIG 0.02  C 
ATOM     12  CB  PRO C  78      17.381   4.522   8.683  0.47 42.06 LIG 0.03  C 
BRANCH 10 13
ATOM     13  C   PRO C  78      18.116   5.073  11.092  0.47 54.03 LIG 0.24  C 
ATOM     14  N   PRO C  79      17.499   4.132  11.800  0.47 54.03 LIG-0.34  N 
ATOM     15  CD  PRO C  79      16.041   4.086  11.646  0.47 49.78 LIG 0.13  C 
ATOM     16  CA  PRO C  79      17.884   3.852  13.186  0.47 62.24 LIG 0.17  C 
ATOM     17  CG  PRO C  79      15.577   3.693  12.969  0.47 51.96 LIG 0.02  C 
ATOM     18  CB  PRO C  79      16.674   3.153  13.730  0.47 58.89 LIG 0.04  C 
ATOM     19 O    PRO C  78      19.113   5.635  11.467  0.47 60.82 LIG-0.27  OA
BRANCH 16 20
ATOM     20  C   PRO C  79      19.112   3.002  13.413  0.47 69.87 LIG 0.22  C 
ATOM     21 O    PRO C  79      20.163   3.441  13.019  0.47 73.23 LIG-0.29  OA
ENDBRANCH 16 20
ENDBRANCH 10 13
ENDBRANCH 5 6
BRANCH 5 22
ATOM     22  CB  VAL C  77      19.537   9.988   9.905  0.47 43.60 LIG 0.01  C 
ATOM     23  CG2 VAL C  77      19.128  11.285   9.206  0.47 46.41 LIG 0.01  C 
ATOM     24  CG1 VAL C  77      21.036  10.070  10.222  0.47 37.55 LIG 0.01  C 
ENDBRANCH 5 22
ENDBRANCH 3 5
BRANCH 1 25
ATOM     25  CA  PRO C  76      18.690   9.581   5.346  0.47 40.28 LIG 0.18  C 
ATOM     26  N   PRO C  76      17.249   9.517   5.463  0.47 33.79 LIG-0.34  N 
ATOM     27  CD  PRO C  76      16.647  10.832   5.241  0.47 35.40 LIG 0.13  C 
ATOM     28  C   PRO C  75      16.604   8.423   5.130  0.47 33.84 LIG 0.24  C 
ATOM     29  CG  PRO C  76      17.798  11.735   5.347  0.47 37.80 LIG 0.02  C 
ATOM     30  CB  PRO C  76      18.972  11.070   5.107  0.47 38.87 LIG 0.04  C 
ATOM     31 O    PRO C  75      17.159   7.448   4.760  0.47 33.93 LIG-0.27  OA
BRANCH 28 32
ATOM     32  CA  PRO C  75      15.096   8.455   5.154  0.47 46.85 LIG 0.18  C 
ATOM     33  CB  PRO C  75      14.533   7.361   6.069  0.47 48.68 LIG 0.04  C 
ATOM     34  CG  PRO C  75      13.502   6.638   5.267  0.47 51.42 LIG 0.02  C 
ATOM     35  CD  PRO C  75      13.305   7.347   4.000  0.47 56.17 LIG 0.13  C 
ATOM     36  N   PRO C  75      14.541   8.110   3.854  0.47 56.81 LIG-0.34  N 
ATOM     37  C   PRO C  74      14.452   8.968   2.839  0.47 61.55 LIG 0.26  C 
ATOM     38 O    PRO C  74      14.844  10.119   2.861  0.47 61.23 LIG-0.27  OA
BRANCH 37 39
ATOM     39  CA  PRO C  74      13.806   8.450   1.574  0.47 57.58 LIG 0.35  C 
ATOM     40  N   PRO C  74      13.961   9.398   0.469  0.47 57.74 LIG 0.32  N 
ATOM     41  CD  PRO C  74      14.493   8.720  -0.715  0.47 56.21 LIG 0.32  C 
ATOM     42  CG  PRO C  74      15.307   7.642  -0.108  0.47 52.80 LIG 0.04  C 
ATOM     43  CB  PRO C  74      14.543   7.210   1.069  0.47 50.35 LIG 0.05  C 
ENDBRANCH 37 39
ENDBRANCH 28 32
ENDBRANCH 1 25
TORSDOF 8
ENDMDL
MODEL 3
USER: ADFR SOLUTION from run 18
USER: SCORE 11.648561 LL:  -3.288 LR:  -8.708 RR:   0.000 FEB:  -6.322
USER: RMSD 3.211112
USER: SEED 17
USER: STATUS no improvement in best in 3 clusters for 5 generations
USER: GENES 10
USER: genes 0 Translation |==|  0.53551 0.47009 0.46983
USER: genes 1 Rotation |==|  0.36919 0.58711 0.60274 0.96341
USER: genes 2 Torsion [C]-N--CA-[C] |==|  0.84157
USER: genes 3 Torsion [N]-CA--C-[N] |==|  0.84444
USER: genes 4 Torsion [N]-CA--C-[N] |==|  0.30751
USER: genes 5 Torsion [N]-CA--C-[O] |==|  0.89435
USER: genes 6 Torsion [N]-CA--CB-[CG2] |==|  0.05829
USER: genes 7 Torsion [O]-C--CA-[N] |==|  0.83224
USER: genes 8 Torsion [N]-C--CA-[N] |==|  0.56584
USER: genes 9 Torsion [N]-C--CA-[CB] |==|  0.84676
ROOT
ATOM      1  C   PRO C  76      16.658   8.896   5.140  0.47 42.64 LIG 0.24  C 
ATOM      2 O    PRO C  76      17.296   7.902   5.029  0.47 44.95 LIG-0.27  OA
ATOM      3  N   VAL C  77      17.198  10.085   5.219  0.47 42.25 LIG-0.35  N 
ATOM      4 H    VAL C  77      16.767  10.828   5.260  0.47 42.25 LIG 0.16  HD
ENDROOT
BRANCH 3 5
ATOM      5  CA  VAL C  77      18.626  10.185   5.243  0.47 44.36 LIG 0.17  C 
BRANCH 5 6
ATOM      6  C   VAL C  77      19.066   9.352   6.418  0.47 50.22 LIG 0.22  C 
ATOM      7 O    VAL C  77      19.910   8.513   6.262  0.47 51.68 LIG-0.28  OA
ATOM      8 N    PRO C  78      18.596   9.593   7.616  0.47 51.29 LIG-0.24  NA
ATOM      9  CD  PRO C  78      18.816  10.994   8.009  0.47 47.28 LIG 0.10  C 
ATOM     10  CA  PRO C  78      19.026   8.686   8.664  0.47 47.56 LIG 0.16  C 
ATOM     11  CG  PRO C  78      19.642  10.879   9.209  0.47 42.43 LIG 0.02  C 
ATOM     12  CB  PRO C  78      19.292   9.616   9.838  0.47 42.06 LIG 0.03  C 
BRANCH 10 13
ATOM     13  C   PRO C  78      17.936   7.661   8.845  0.47 54.03 LIG 0.24  C 
ATOM     14  N   PRO C  79      18.129   6.395   8.486  0.47 54.03 LIG-0.34  N 
ATOM     15  CD  PRO C  79      19.072   6.193   7.381  0.47 49.78 LIG 0.13  C 
ATOM     16  CA  PRO C  79      17.008   5.456   8.390  0.47 62.24 LIG 0.17  C 
ATOM     17  CG  PRO C  79      18.514   5.052   6.669  0.47 51.96 LIG 0.02  C 
ATOM     18  CB  PRO C  79      17.556   4.376   7.505  0.47 58.89 LIG 0.04  C 
ATOM     19 O    PRO C  78      16.886   8.076   9.264  0.47 60.82 LIG-0.27  OA
BRANCH 16 20
ATOM     20  C   PRO C  79      16.489   4.852   9.674  0.47 69.87 LIG 0.22  C 
ATOM     21 O    PRO C  79      17.305   4.566  10.514  0.47 73.23 LIG-0.29  OA
ENDBRANCH 16 20
ENDBRANCH 10 13
ENDBRANCH 5 6
BRANCH 5 22
ATOM     22  CB  VAL C  77      19.063  11.661   5.181  0.47 43.60 LIG 0.01  C 
ATOM     23  CG2 VAL C  77      17.872  12.502   5.641  0.47 46.41 LIG 0.01  C 
ATOM     24  CG1 VAL C  77      19.449  12.114   3.767  0.47 37.55 LIG 0.01  C 
ENDBRANCH 5 22
ENDBRANCH 3 5
BRANCH 1 25
ATOM     25  CA  PRO C  76      15.204   8.736   5.154  0.47 40.28 LIG 0.18  C 
ATOM     26  N   PRO C  76      14.826   8.133   3.894  0.47 33.79 LIG-0.34  N 
ATOM     27  CD  PRO C  76      14.123   6.868   4.111  0.47 35.40 LIG 0.13  C 
ATOM     28  C   PRO C  75      14.540   8.886   2.857  0.47 33.84 LIG 0.24  C 
ATOM     29  CG  PRO C  76      14.419   6.571   5.517  0.47 37.80 LIG 0.02  C 
ATOM     30  CB  PRO C  76      14.755   7.710   6.202  0.47 38.87 LIG 0.04  C 
ATOM     31 O    PRO C  75      14.611  10.064   2.890  0.47 33.93 LIG-0.27  OA
BRANCH 28 32
ATOM     32  CA  PRO C  75      14.032   8.207   1.609  0.47 46.85 LIG 0.18  C 
ATOM     33  CB  PRO C  75      14.819   6.924   1.317  0.47 48.68 LIG 0.04  C 
ATOM     34  CG  PRO C  75      15.240   7.010  -0.113  0.47 51.42 LIG 0.02  C 
ATOM     35  CD  PRO C  75      14.604   8.181  -0.724  0.47 56.17 LIG 0.13  C 
ATOM     36  N   PRO C  75      14.283   9.019   0.428  0.47 56.81 LIG-0.34  N 
ATOM     37  C   PRO C  74      13.522  10.050   0.066  0.47 61.55 LIG 0.26  C 
ATOM     38 O    PRO C  74      12.555  10.454   0.684  0.47 61.23 LIG-0.27  OA
BRANCH 37 39
ATOM     39  CA  PRO C  74      13.905  10.754  -1.216  0.47 57.58 LIG 0.35  C 
ATOM     40  N   PRO C  74      13.171  12.011  -1.374  0.47 57.74 LIG 0.32  N 
ATOM     41  CD  PRO C  74      14.096  13.108  -1.670  0.47 56.21 LIG 0.32  C 
ATOM     42  CG  PRO C  74      15.324  12.667  -0.971  0.47 52.80 LIG 0.04  C 
ATOM     43  CB  PRO C  74      15.362  11.211  -1.157  0.47 50.35 LIG 0.05  C 
ENDBRANCH 37 39
ENDBRANCH 28 32
ENDBRANCH 1 25
TORSDOF 8
ENDMDL
MODEL 4
USER: ADFR SOLUTION from run 51
USER: SCORE 11.865300 LL:  -3.339 LR:  -8.568 RR:   0.000 FEB:  -6.182
USER: RMSD 1.250066
USER: SEED 50
USER: STATUS 1 or 2 clusters left
USER: GENES 10
USER: genes 0 Translation |==|  0.47268 0.46697 0.49306
USER: genes 1 Rotation |==|  0.51210 0.49264 0.51601 0.99954
USER: genes 2 Torsion [C]-N--CA-[C] |==|  0.79614
USER: genes 3 Torsion [N]-CA--C-[N] |==|  0.44802
USER: genes 4 Torsion [N]-CA--C-[N] |==|  0.53112
USER: genes 5 Torsion [N]-CA--C-[O] |==|  0.83302
USER: genes 6 Torsion [N]-CA--CB-[CG2] |==|  0.83183
USER: genes 7 Torsion [O]-C--CA-[N] |==|  0.94940
USER: genes 8 Torsion [N]-C--CA-[N] |==|  0.53227
USER: genes 9 Torsion [N]-C--CA-[CB] |==|  0.81026
ROOT
ATOM      1  C   PRO C  76      15.621   8.844   5.715  0.47 42.64 LIG 0.24  C 
ATOM      2 O    PRO C  76      16.007   7.863   5.172  0.47 44.95 LIG-0.27  OA
ATOM      3  N   VAL C  77      16.326   9.488   6.610  0.47 42.25 LIG-0.35  N 
ATOM      4 H    VAL C  77      16.098  10.223   6.994  0.47 42.25 LIG 0.16  HD
ENDROOT
BRANCH 3 5
ATOM      5  CA  VAL C  77      17.592   8.944   7.001  0.47 44.36 LIG 0.17  C 
BRANCH 5 6
ATOM      6  C   VAL C  77      17.265   7.751   7.861  0.47 50.22 LIG 0.22  C 
ATOM      7 O    VAL C  77      16.149   7.616   8.281  0.47 51.68 LIG-0.28  OA
ATOM      8 N    PRO C  78      18.164   6.825   8.082  0.47 51.29 LIG-0.24  NA
ATOM      9  CD  PRO C  78      18.697   6.282   6.823  0.47 47.28 LIG 0.10  C 
ATOM     10  CA  PRO C  78      17.772   5.758   8.984  0.47 47.56 LIG 0.16  C 
ATOM     11  CG  PRO C  78      18.354   4.863   6.899  0.47 42.43 LIG 0.02  C 
ATOM     12  CB  PRO C  78      18.331   4.514   8.310  0.47 42.06 LIG 0.03  C 
BRANCH 10 13
ATOM     13  C   PRO C  78      18.322   6.096  10.345  0.47 54.03 LIG 0.24  C 
ATOM     14  N   PRO C  79      18.312   5.196  11.324  0.47 54.03 LIG-0.34  N 
ATOM     15  CD  PRO C  79      17.230   4.208  11.258  0.47 49.78 LIG 0.13  C 
ATOM     16  CA  PRO C  79      18.576   5.584  12.713  0.47 62.24 LIG 0.17  C 
ATOM     17  CG  PRO C  79      16.913   3.964  12.657  0.47 51.96 LIG 0.02  C 
ATOM     18  CB  PRO C  79      17.982   4.449  13.491  0.47 58.89 LIG 0.04  C 
ATOM     19 O    PRO C  78      18.697   7.230  10.495  0.47 60.82 LIG-0.27  OA
BRANCH 16 20
ATOM     20  C   PRO C  79      20.017   5.787  13.120  0.47 69.87 LIG 0.22  C 
ATOM     21 O    PRO C  79      20.756   4.841  13.012  0.47 73.23 LIG-0.29  OA
ENDBRANCH 16 20
ENDBRANCH 10 13
ENDBRANCH 5 6
BRANCH 5 22
ATOM     22  CB  VAL C  77      18.495  10.047   7.583  0.47 43.60 LIG 0.01  C 
ATOM     23  CG2 VAL C  77      18.699  11.089   6.483  0.47 46.41 LIG 0.01  C 
ATOM     24  CG1 VAL C  77      19.874   9.530   8.012  0.47 37.55 LIG 0.01  C 
ENDBRANCH 5 22
ENDBRANCH 3 5
BRANCH 1 25
ATOM     25  CA  PRO C  76      14.304   9.337   5.311  0.47 40.28 LIG 0.18  C 
ATOM     26  N   PRO C  76      13.992   8.731   4.035  0.47 33.79 LIG-0.34  N 
ATOM     27  CD  PRO C  76      12.749   7.961   4.113  0.47 35.40 LIG 0.13  C 
ATOM     28  C   PRO C  75      14.342   9.321   2.916  0.47 33.84 LIG 0.24  C 
ATOM     29  CG  PRO C  76      12.536   7.837   5.558  0.47 37.80 LIG 0.02  C 
ATOM     30  CB  PRO C  76      13.197   8.825   6.242  0.47 38.87 LIG 0.04  C 
ATOM     31 O    PRO C  75      14.947  10.336   2.897  0.47 33.93 LIG-0.27  OA
BRANCH 28 32
ATOM     32  CA  PRO C  75      13.880   8.707   1.617  0.47 46.85 LIG 0.18  C 
ATOM     33  CB  PRO C  75      14.288   7.232   1.527  0.47 48.68 LIG 0.04  C 
ATOM     34  CG  PRO C  75      14.958   7.066   0.203  0.47 51.42 LIG 0.02  C 
ATOM     35  CD  PRO C  75      14.816   8.310  -0.559  0.47 56.17 LIG 0.13  C 
ATOM     36  N   PRO C  75      14.564   9.305   0.480  0.47 56.81 LIG-0.34  N 
ATOM     37  C   PRO C  74      14.219  10.474  -0.056  0.47 61.55 LIG 0.26  C 
ATOM     38 O    PRO C  74      13.324  11.191   0.349  0.47 61.23 LIG-0.27  OA
BRANCH 37 39
ATOM     39  CA  PRO C  74      15.012  10.921  -1.264  0.47 57.58 LIG 0.35  C 
ATOM     40  N   PRO C  74      14.509  12.192  -1.791  0.47 57.74 LIG 0.32  N 
ATOM     41  CD  PRO C  74      15.609  13.143  -1.964  0.47 56.21 LIG 0.32  C 
ATOM     42  CG  PRO C  74      16.544  12.724  -0.896  0.47 52.80 LIG 0.04  C 
ATOM     43  CB  PRO C  74      16.447  11.259  -0.863  0.47 50.35 LIG 0.05  C 
ENDBRANCH 37 39
ENDBRANCH 28 32
ENDBRANCH 1 25
TORSDOF 8
ENDMDL
MODEL 5
USER: ADFR SOLUTION from run 134
USER: SCORE 11.938951 LL:  -3.510 LR:  -8.505 RR:   0.000 FEB:  -6.119
USER: RMSD 3.395432
USER: SEED 133
USER: STATUS no improvement in best in 10 clusters for 5 generations
USER: GENES 10
USER: genes 0 Translation |==|  0.44036 0.37284 0.39924
USER: genes 1 Rotation |==|  0.52296 0.43134 0.54388 0.99278
USER: genes 2 Torsion [C]-N--CA-[C] |==|  0.76111
USER: genes 3 Torsion [N]-CA--C-[N] |==|  0.36966
USER: genes 4 Torsion [N]-CA--C-[N] |==|  0.34107
USER: genes 5 Torsion [N]-CA--C-[O] |==|  0.47789
USER: genes 6 Torsion [N]-CA--CB-[CG2] |==|  0.47125
USER: genes 7 Torsion [O]-C--CA-[N] |==|  0.83313
USER: genes 8 Torsion [N]-C--CA-[N] |==|  0.31045
USER: genes 9 Torsion [N]-C--CA-[CB] |==|  0.61090
ROOT
ATOM      1  C   PRO C  76      15.088   7.291   3.393  0.47 42.64 LIG 0.24  C 
ATOM      2 O    PRO C  76      15.701   6.389   2.926  0.47 44.95 LIG-0.27  OA
ATOM      3  N   VAL C  77      15.479   7.945   4.457  0.47 42.25 LIG-0.35  N 
ATOM      4 H    VAL C  77      15.084   8.627   4.799  0.47 42.25 LIG 0.16  HD
ENDROOT
BRANCH 3 5
ATOM      5  CA  VAL C  77      16.666   7.506   5.129  0.47 44.36 LIG 0.17  C 
BRANCH 5 6
ATOM      6  C   VAL C  77      16.211   6.430   6.080  0.47 50.22 LIG 0.22  C 
ATOM      7 O    VAL C  77      15.205   6.592   6.715  0.47 51.68 LIG-0.28  OA
ATOM      8 N    PRO C  78      16.857   5.294   6.157  0.47 51.29 LIG-0.24  NA
ATOM      9  CD  PRO C  78      16.967   4.648   4.839  0.47 47.28 LIG 0.10  C 
ATOM     10  CA  PRO C  78      16.383   4.356   7.157  0.47 47.56 LIG 0.16  C 
ATOM     11  CG  PRO C  78      16.282   3.372   5.035  0.47 42.43 LIG 0.02  C 
ATOM     12  CB  PRO C  78      16.447   3.019   6.435  0.47 42.06 LIG 0.03  C 
BRANCH 10 13
ATOM     13  C   PRO C  78      17.261   4.513   8.372  0.47 54.03 LIG 0.24  C 
ATOM     14  N   PRO C  79      16.735   4.814   9.556  0.47 54.03 LIG-0.34  N 
ATOM     15  CD  PRO C  79      15.495   5.597   9.511  0.47 49.78 LIG 0.13  C 
ATOM     16  CA  PRO C  79      17.581   5.244  10.673  0.47 62.24 LIG 0.17  C 
ATOM     17  CG  PRO C  79      15.597   6.453  10.684  0.47 51.96 LIG 0.02  C 
ATOM     18  CB  PRO C  79      16.606   5.941  11.575  0.47 58.89 LIG 0.04  C 
ATOM     19 O    PRO C  78      18.446   4.416   8.181  0.47 60.82 LIG-0.27  OA
BRANCH 16 20
ATOM     20  C   PRO C  79      18.319   4.175  11.444  0.47 69.87 LIG 0.22  C 
ATOM     21 O    PRO C  79      19.123   4.544  12.262  0.47 73.23 LIG-0.29  OA
ENDBRANCH 16 20
ENDBRANCH 10 13
ENDBRANCH 5 6
BRANCH 5 22
ATOM     22  CB  VAL C  77      17.441   8.710   5.694  0.47 43.60 LIG 0.01  C 
ATOM     23  CG2 VAL C  77      18.534   8.154   6.606  0.47 46.41 LIG 0.01  C 
ATOM     24  CG1 VAL C  77      16.561   9.654   6.524  0.47 37.55 LIG 0.01  C 
ENDBRANCH 5 22
ENDBRANCH 3 5
BRANCH 1 25
ATOM     25  CA  PRO C  76      13.861   7.674   2.695  0.47 40.28 LIG 0.18  C 
ATOM     26  N   PRO C  76      14.234   8.063   1.352  0.47 33.79 LIG-0.34  N 
ATOM     27  CD  PRO C  76      13.543   7.239   0.359  0.47 35.40 LIG 0.13  C 
ATOM     28  C   PRO C  75      14.547   9.309   1.084  0.47 33.84 LIG 0.24  C 
ATOM     29  CG  PRO C  76      13.034   6.123   1.163  0.47 37.80 LIG 0.02  C 
ATOM     30  CB  PRO C  76      12.929   6.474   2.484  0.47 38.87 LIG 0.04  C 
ATOM     31 O    PRO C  75      14.572  10.148   1.914  0.47 33.93 LIG-0.27  OA
BRANCH 28 32
ATOM     32  CA  PRO C  75      14.805   9.680  -0.356  0.47 46.85 LIG 0.18  C 
ATOM     33  CB  PRO C  75      16.072  10.534  -0.488  0.47 48.68 LIG 0.04  C 
ATOM     34  CG  PRO C  75      15.687  11.726  -1.301  0.47 51.42 LIG 0.02  C 
ATOM     35  CD  PRO C  75      14.320  11.540  -1.796  0.47 56.17 LIG 0.13  C 
ATOM     36  N   PRO C  75      13.765  10.559  -0.868  0.47 56.81 LIG-0.34  N 
ATOM     37  C   PRO C  74      12.577  10.128  -1.289  0.47 61.55 LIG 0.26  C 
ATOM     38 O    PRO C  74      12.208   8.970  -1.269  0.47 61.23 LIG-0.27  OA
BRANCH 37 39
ATOM     39  CA  PRO C  74      11.633  11.178  -1.832  0.47 57.58 LIG 0.35  C 
ATOM     40  N   PRO C  74      11.531  11.099  -3.290  0.47 57.74 LIG 0.32  N 
ATOM     41  CD  PRO C  74      10.127  11.058  -3.702  0.47 56.21 LIG 0.32  C 
ATOM     42  CG  PRO C  74       9.491  10.384  -2.548  0.47 52.80 LIG 0.04  C 
ATOM     43  CB  PRO C  74      10.204  10.898  -1.371  0.47 50.35 LIG 0.05  C 
ENDBRANCH 37 39
ENDBRANCH 28 32
ENDBRANCH 1 25
TORSDOF 8
ENDMDL
MODEL 6
USER: ADFR SOLUTION from run 92
USER: SCORE 11.772788 LL:  -3.376 LR:  -8.447 RR:   0.000 FEB:  -6.060
USER: RMSD 3.703123
USER: SEED 91
USER: STATUS no improvement in best in 10 clusters for 5 generations
USER: GENES 10
USER: genes 0 Translation |==|  0.42981 0.41978 0.42793
USER: genes 1 Rotation |==|  0.53018 0.51893 0.44076 0.99520
USER: genes 2 Torsion [C]-N--CA-[C] |==|  0.77778
USER: genes 3 Torsion [N]-CA--C-[N] |==|  0.44524
USER: genes 4 Torsion [N]-CA--C-[N] |==|  0.33878
USER: genes 5 Torsion [N]-CA--C-[O] |==|  0.46238
USER: genes 6 Torsion [N]-CA--CB-[CG2] |==|  0.32534
USER: genes 7 Torsion [O]-C--CA-[N] |==|  0.87082
USER: genes 8 Torsion [N]-C--CA-[N] |==|  0.94321
USER: genes 9 Torsion [N]-C--CA-[CB] |==|  0.83995
ROOT
ATOM      1  C   PRO C  76      14.914   8.065   4.103  0.47 42.64 LIG 0.24  C 
ATOM      2 O    PRO C  76      14.934   7.067   3.462  0.47 44.95 LIG-0.27  OA
ATOM      3  N   VAL C  77      15.866   8.396   4.938  0.47 42.25 LIG-0.35  N 
ATOM      4 H    VAL C  77      15.906   9.128   5.388  0.47 42.25 LIG 0.16  HD
ENDROOT
BRANCH 3 5
ATOM      5  CA  VAL C  77      16.946   7.477   5.139  0.47 44.36 LIG 0.17  C 
BRANCH 5 6
ATOM      6  C   VAL C  77      16.418   6.444   6.099  0.47 50.22 LIG 0.22  C 
ATOM      7 O    VAL C  77      15.416   6.673   6.720  0.47 51.68 LIG-0.28  OA
ATOM      8 N    PRO C  78      16.994   5.272   6.198  0.47 51.29 LIG-0.24  NA
ATOM      9  CD  PRO C  78      17.080   4.603   4.891  0.47 47.28 LIG 0.10  C 
ATOM     10  CA  PRO C  78      16.455   4.378   7.206  0.47 47.56 LIG 0.16  C 
ATOM     11  CG  PRO C  78      16.319   3.372   5.096  0.47 42.43 LIG 0.02  C 
ATOM     12  CB  PRO C  78      16.447   3.030   6.502  0.47 42.06 LIG 0.03  C 
BRANCH 10 13
ATOM     13  C   PRO C  78      17.328   4.500   8.428  0.47 54.03 LIG 0.24  C 
ATOM     14  N   PRO C  79      16.811   4.864   9.598  0.47 54.03 LIG-0.34  N 
ATOM     15  CD  PRO C  79      15.630   5.731   9.520  0.47 49.78 LIG 0.13  C 
ATOM     16  CA  PRO C  79      17.672   5.258  10.717  0.47 62.24 LIG 0.17  C 
ATOM     17  CG  PRO C  79      15.779   6.604  10.675  0.47 51.96 LIG 0.02  C 
ATOM     18  CB  PRO C  79      16.738   6.042  11.591  0.47 58.89 LIG 0.04  C 
ATOM     19 O    PRO C  78      18.505   4.315   8.255  0.47 60.82 LIG-0.27  OA
BRANCH 16 20
ATOM     20  C   PRO C  79      18.322   4.157  11.520  0.47 69.87 LIG 0.22  C 
ATOM     21 O    PRO C  79      19.214   4.475  12.267  0.47 73.23 LIG-0.29  OA
ENDBRANCH 16 20
ENDBRANCH 10 13
ENDBRANCH 5 6
BRANCH 5 22
ATOM     22  CB  VAL C  77      18.235   8.234   5.506  0.47 43.60 LIG 0.01  C 
ATOM     23  CG2 VAL C  77      18.632   7.790   6.915  0.47 46.41 LIG 0.01  C 
ATOM     24  CG1 VAL C  77      18.054   9.757   5.520  0.47 37.55 LIG 0.01  C 
ENDBRANCH 5 22
ENDBRANCH 3 5
BRANCH 1 25
ATOM     25  CA  PRO C  76      13.768   8.951   3.894  0.47 40.28 LIG 0.18  C 
ATOM     26  N   PRO C  76      13.581   9.080   2.465  0.47 33.79 LIG-0.34  N 
ATOM     27  CD  PRO C  76      12.241   8.639   2.072  0.47 35.40 LIG 0.13  C 
ATOM     28  C   PRO C  75      14.192  10.031   1.798  0.47 33.84 LIG 0.24  C 
ATOM     29  CG  PRO C  76      11.780   7.912   3.260  0.47 37.80 LIG 0.02  C 
ATOM     30  CB  PRO C  76      12.461   8.312   4.380  0.47 38.87 LIG 0.04  C 
ATOM     31 O    PRO C  75      14.936  10.789   2.314  0.47 33.93 LIG-0.27  OA
BRANCH 28 32
ATOM     32  CA  PRO C  75      13.861  10.194   0.334  0.47 46.85 LIG 0.18  C 
ATOM     33  CB  PRO C  75      12.753  11.233   0.131  0.47 48.68 LIG 0.04  C 
ATOM     34  CG  PRO C  75      11.731  10.585  -0.744  0.47 51.42 LIG 0.02  C 
ATOM     35  CD  PRO C  75      12.252   9.295  -1.204  0.47 56.17 LIG 0.13  C 
ATOM     36  N   PRO C  75      13.275   8.980  -0.212  0.47 56.81 LIG-0.34  N 
ATOM     37  C   PRO C  74      13.988   7.920  -0.586  0.47 61.55 LIG 0.26  C 
ATOM     38 O    PRO C  74      15.197   7.823  -0.492  0.47 61.23 LIG-0.27  OA
BRANCH 37 39
ATOM     39  CA  PRO C  74      13.215   6.761  -1.174  0.47 57.58 LIG 0.35  C 
ATOM     40  N   PRO C  74      14.072   5.587  -1.358  0.47 57.74 LIG 0.32  N 
ATOM     41  CD  PRO C  74      13.448   4.402  -0.765  0.47 56.21 LIG 0.32  C 
ATOM     42  CG  PRO C  74      12.667   4.994   0.346  0.47 52.80 LIG 0.04  C 
ATOM     43  CB  PRO C  74      12.162   6.266  -0.185  0.47 50.35 LIG 0.05  C 
ENDBRANCH 37 39
ENDBRANCH 28 32
ENDBRANCH 1 25
TORSDOF 8
ENDMDL
MODEL 7
USER: ADFR SOLUTION from run 48
USER: SCORE 11.082497 LL:  -3.653 LR:  -8.343 RR:   0.000 FEB:  -5.957
USER: RMSD 4.342341
USER: SEED 47
USER: STATUS no improvement in best in 11 clusters for 5 generations
USER: GENES 10
USER: genes 0 Translation |==|  0.62705 0.40951 0.53538
USER: genes 1 Rotation |==|  0.68102 0.17831 0.67652 0.78739
USER: genes 2 Torsion [C]-N--CA-[C] |==|  0.19979
USER: genes 3 Torsion [N]-CA--C-[N] |==|  0.50765
USER: genes 4 Torsion [N]-CA--C-[N] |==|  0.30856
USER: genes 5 Torsion [N]-CA--C-[O] |==|  0.25169
USER: genes 6 Torsion [N]-CA--CB-[CG2] |==|  0.87545
USER: genes 7 Torsion [O]-C--CA-[N] |==|  0.51691
USER: genes 8 Torsion [N]-C--CA-[N] |==|  0.32509
USER: genes 9 Torsion [N]-C--CA-[CB] |==|  0.71805
ROOT
ATOM      1  C   PRO C  76      18.168   7.896   6.763  0.47 42.64 LIG 0.24  C 
ATOM      2 O    PRO C  76      19.286   7.814   7.152  0.47 44.95 LIG-0.27  OA
ATOM      3  N   VAL C  77      17.144   7.429   7.431  0.47 42.25 LIG-0.35  N 
ATOM      4 H    VAL C  77      16.320   7.506   7.201  0.47 42.25 LIG 0.16  HD
ENDROOT
BRANCH 3 5
ATOM      5  CA  VAL C  77      17.392   6.726   8.654  0.47 44.36 LIG 0.17  C 
BRANCH 5 6
ATOM      6  C   VAL C  77      17.819   7.780   9.641  0.47 50.22 LIG 0.22  C 
ATOM      7 O    VAL C  77      17.758   8.938   9.330  0.47 51.68 LIG-0.28  OA
ATOM      8 N    PRO C  78      18.174   7.447  10.857  0.47 51.29 LIG-0.24  NA
ATOM      9  CD  PRO C  78      17.124   6.666  11.528  0.47 47.28 LIG 0.10  C 
ATOM     10  CA  PRO C  78      18.639   8.529  11.705  0.47 47.56 LIG 0.16  C 
ATOM     11  CG  PRO C  78      16.790   7.485  12.692  0.47 42.43 LIG 0.02  C 
ATOM     12  CB  PRO C  78      17.993   8.218  13.046  0.47 42.06 LIG 0.03  C 
BRANCH 10 13
ATOM     13  C   PRO C  78      20.145   8.519  11.659  0.47 54.03 LIG 0.24  C 
ATOM     14  N   PRO C  79      20.813   9.501  11.059  0.47 54.03 LIG-0.34  N 
ATOM     15  CD  PRO C  79      20.106  10.156   9.953  0.47 49.78 LIG 0.13  C 
ATOM     16  CA  PRO C  79      22.241   9.372  10.758  0.47 62.24 LIG 0.17  C 
ATOM     17  CG  PRO C  79      21.174  10.481   9.019  0.47 51.96 LIG 0.02  C 
ATOM     18  CB  PRO C  79      22.447  10.401   9.687  0.47 58.89 LIG 0.04  C 
ATOM     19 O    PRO C  78      20.680   7.550  12.132  0.47 60.82 LIG-0.27  OA
BRANCH 16 20
ATOM     20  C   PRO C  79      23.217   9.605  11.887  0.47 69.87 LIG 0.22  C 
ATOM     21 O    PRO C  79      23.539   8.645  12.541  0.47 73.23 LIG-0.29  OA
ENDBRANCH 16 20
ENDBRANCH 10 13
ENDBRANCH 5 6
BRANCH 5 22
ATOM     22  CB  VAL C  77      18.326   5.527   8.405  0.47 43.60 LIG 0.01  C 
ATOM     23  CG2 VAL C  77      17.824   4.819   7.146  0.47 46.41 LIG 0.01  C 
ATOM     24  CG1 VAL C  77      18.322   4.514   9.556  0.47 37.55 LIG 0.01  C 
ENDBRANCH 5 22
ENDBRANCH 3 5
BRANCH 1 25
ATOM     25  CA  PRO C  76      17.972   8.586   5.488  0.47 40.28 LIG 0.18  C 
ATOM     26  N   PRO C  76      16.545   8.700   5.276  0.47 33.79 LIG-0.34  N 
ATOM     27  CD  PRO C  76      16.148  10.101   5.135  0.47 35.40 LIG 0.13  C 
ATOM     28  C   PRO C  75      15.890   7.754   4.644  0.47 33.84 LIG 0.24  C 
ATOM     29  CG  PRO C  76      17.326  10.822   5.629  0.47 37.80 LIG 0.02  C 
ATOM     30  CB  PRO C  76      18.451  10.042   5.551  0.47 38.87 LIG 0.04  C 
ATOM     31 O    PRO C  75      16.416   6.769   4.257  0.47 33.93 LIG-0.27  OA
BRANCH 28 32
ATOM     32  CA  PRO C  75      14.430   7.984   4.342  0.47 46.85 LIG 0.18  C 
ATOM     33  CB  PRO C  75      13.575   6.802   4.812  0.47 48.68 LIG 0.04  C 
ATOM     34  CG  PRO C  75      12.719   6.419   3.650  0.47 51.42 LIG 0.02  C 
ATOM     35  CD  PRO C  75      12.897   7.410   2.585  0.47 56.17 LIG 0.13  C 
ATOM     36  N   PRO C  75      14.187   8.012   2.908  0.47 56.81 LIG-0.34  N 
ATOM     37  C   PRO C  74      14.418   9.077   2.141  0.47 61.55 LIG 0.26  C 
ATOM     38 O    PRO C  74      14.883  10.131   2.532  0.47 61.23 LIG-0.27  OA
BRANCH 37 39
ATOM     39  CA  PRO C  74      14.065   8.942   0.677  0.47 57.58 LIG 0.35  C 
ATOM     40  N   PRO C  74      13.560  10.204   0.132  0.47 57.74 LIG 0.32  N 
ATOM     41  CD  PRO C  74      14.272  10.549  -1.100  0.47 56.21 LIG 0.32  C 
ATOM     42  CG  PRO C  74      15.601   9.942  -0.863  0.47 52.80 LIG 0.04  C 
ATOM     43  CB  PRO C  74      15.322   8.688  -0.153  0.47 50.35 LIG 0.05  C 
ENDBRANCH 37 39
ENDBRANCH 28 32
ENDBRANCH 1 25
TORSDOF 8
ENDMDL
MODEL 8
USER: ADFR SOLUTION from run 17
USER: SCORE 11.373560 LL:  -3.291 LR:  -8.169 RR:   0.000 FEB:  -5.783
USER: RMSD 3.716107
USER: SEED 16
USER: STATUS no improvement in best in 6 clusters for 5 generations
USER: GENES 10
USER: genes 0 Translation |==|  0.54357 0.35977 0.51736
USER: genes 1 Rotation |==|  0.35397 0.44862 0.20116 0.86977
USER: genes 2 Torsion [C]-N--CA-[C] |==|  0.61978
USER: genes 3 Torsion [N]-CA--C-[N] |==|  0.44707
USER: genes 4 Torsion [N]-CA--C-[N] |==|  0.39657
USER: genes 5 Torsion [N]-CA--C-[O] |==|  0.25374
USER: genes 6 Torsion [N]-CA--CB-[CG2] |==|  0.08395
USER: genes 7 Torsion [O]-C--CA-[N] |==|  0.03859
USER: genes 8 Torsion [N]-C--CA-[N] |==|  0.31531
USER: genes 9 Torsion [N]-C--CA-[CB] |==|  0.62369
ROOT
ATOM      1  C   PRO C  76      16.791   7.075   6.317  0.47 42.64 LIG 0.24  C 
ATOM      2 O    PRO C  76      15.801   6.425   6.380  0.47 44.95 LIG-0.27  OA
ATOM      3  N   VAL C  77      17.764   6.980   7.187  0.47 42.25 LIG-0.35  N 
ATOM      4 H    VAL C  77      18.511   7.404   7.150  0.47 42.25 LIG 0.16  HD
ENDROOT
BRANCH 3 5
ATOM      5  CA  VAL C  77      17.595   6.100   8.304  0.47 44.36 LIG 0.17  C 
BRANCH 5 6
ATOM      6  C   VAL C  77      18.116   6.862   9.494  0.47 50.22 LIG 0.22  C 
ATOM      7 O    VAL C  77      18.782   7.845   9.319  0.47 51.68 LIG-0.28  OA
ATOM      8 N    PRO C  78      17.777   6.510  10.709  0.47 51.29 LIG-0.24  NA
ATOM      9  CD  PRO C  78      16.316   6.461  10.868  0.47 47.28 LIG 0.10  C 
ATOM     10  CA  PRO C  78      18.392   7.262  11.787  0.47 47.56 LIG 0.16  C 
ATOM     11  CG  PRO C  78      16.061   7.439  11.923  0.47 42.43 LIG 0.02  C 
ATOM     12  CB  PRO C  78      17.245   7.463  12.765  0.47 42.06 LIG 0.03  C 
BRANCH 10 13
ATOM     13  C   PRO C  78      19.570   6.461  12.279  0.47 54.03 LIG 0.24  C 
ATOM     14  N   PRO C  79      20.691   7.066  12.659  0.47 54.03 LIG-0.34  N 
ATOM     15  CD  PRO C  79      20.971   8.344  11.995  0.47 49.78 LIG 0.13  C 
ATOM     16  CA  PRO C  79      21.928   6.308  12.868  0.47 62.24 LIG 0.17  C 
ATOM     17  CG  PRO C  79      22.423   8.354  11.887  0.47 51.96 LIG 0.02  C 
ATOM     18  CB  PRO C  79      22.985   7.367  12.773  0.47 58.89 LIG 0.04  C 
ATOM     19 O    PRO C  78      19.447   5.264  12.237  0.47 60.82 LIG-0.27  OA
BRANCH 16 20
ATOM     20  C   PRO C  79      22.074   5.554  14.169  0.47 69.87 LIG 0.22  C 
ATOM     21 O    PRO C  79      21.697   4.409  14.186  0.47 73.23 LIG-0.29  OA
ENDBRANCH 16 20
ENDBRANCH 10 13
ENDBRANCH 5 6
BRANCH 5 22
ATOM     22  CB  VAL C  77      18.196   4.717   7.995  0.47 43.60 LIG 0.01  C 
ATOM     23  CG2 VAL C  77      19.362   4.938   7.030  0.47 46.41 LIG 0.01  C 
ATOM     24  CG1 VAL C  77      17.197   3.764   7.326  0.47 37.55 LIG 0.01  C 
ENDBRANCH 5 22
ENDBRANCH 3 5
BRANCH 1 25
ATOM     25  CA  PRO C  76      16.897   7.989   5.179  0.47 40.28 LIG 0.18  C 
ATOM     26  N   PRO C  76      15.582   8.092   4.586  0.47 33.79 LIG-0.34  N 
ATOM     27  CD  PRO C  76      15.118   9.480   4.581  0.47 35.40 LIG 0.13  C 
ATOM     28  C   PRO C  75      15.215   7.262   3.637  0.47 33.84 LIG 0.24  C 
ATOM     29  CG  PRO C  76      16.043  10.133   5.513  0.47 37.80 LIG 0.02  C 
ATOM     30  CB  PRO C  76      17.210   9.422   5.631  0.47 38.87 LIG 0.04  C 
ATOM     31 O    PRO C  75      15.912   6.389   3.255  0.47 33.93 LIG-0.27  OA
BRANCH 28 32
ATOM     32  CA  PRO C  75      13.882   7.495   2.969  0.47 46.85 LIG 0.18  C 
ATOM     33  CB  PRO C  75      13.073   6.196   2.881  0.47 48.68 LIG 0.04  C 
ATOM     34  CG  PRO C  75      12.629   6.078   1.460  0.47 51.42 LIG 0.02  C 
ATOM     35  CD  PRO C  75      12.982   7.310   0.750  0.47 56.17 LIG 0.13  C 
ATOM     36  N   PRO C  75      14.050   7.870   1.573  0.47 56.81 LIG-0.34  N 
ATOM     37  C   PRO C  74      14.362   9.101   1.173  0.47 61.55 LIG 0.26  C 
ATOM     38 O    PRO C  74      14.572  10.044   1.912  0.47 61.23 LIG-0.27  OA
BRANCH 37 39
ATOM     39  CA  PRO C  74      14.453   9.321  -0.321  0.47 57.58 LIG 0.35  C 
ATOM     40  N   PRO C  74      13.359  10.166  -0.803  0.47 57.74 LIG 0.32  N 
ATOM     41  CD  PRO C  74      13.883  11.264  -1.618  0.47 56.21 LIG 0.32  C 
ATOM     42  CG  PRO C  74      15.217  11.482  -1.012  0.47 52.80 LIG 0.04  C 
ATOM     43  CB  PRO C  74      15.697  10.139  -0.664  0.47 50.35 LIG 0.05  C 
ENDBRANCH 37 39
ENDBRANCH 28 32
ENDBRANCH 1 25
TORSDOF 8
ENDMDL
MODEL 9
USER: ADFR SOLUTION from run 50
USER: SCORE 11.707123 LL:  -3.619 LR:  -8.125 RR:   0.000 FEB:  -5.739
USER: RMSD 3.401510
USER: SEED 49
USER: STATUS no improvement in best in 11 clusters for 5 generations
USER: GENES 10
USER: genes 0 Translation |==|  0.42650 0.38138 0.41013
USER: genes 1 Rotation |==|  0.50354 0.48881 0.48100 0.99950
USER: genes 2 Torsion [C]-N--CA-[C] |==|  0.78334
USER: genes 3 Torsion [N]-CA--C-[N] |==|  0.41084
USER: genes 4 Torsion [N]-CA--C-[N] |==|  0.33180
USER: genes 5 Torsion [N]-CA--C-[O] |==|  0.49168
USER: genes 6 Torsion [N]-CA--CB-[CG2] |==|  0.36789
USER: genes 7 Torsion [O]-C--CA-[N] |==|  0.77827
USER: genes 8 Torsion [N]-C--CA-[N] |==|  0.52974
USER: genes 9 Torsion [N]-C--CA-[CB] |==|  0.83488
ROOT
ATOM      1  C   PRO C  76      14.859   7.432   3.663  0.47 42.64 LIG 0.24  C 
ATOM      2 O    PRO C  76      15.109   6.389   3.156  0.47 44.95 LIG-0.27  OA
ATOM      3  N   VAL C  77      15.639   8.000   4.548  0.47 42.25 LIG-0.35  N 
ATOM      4 H    VAL C  77      15.511   8.771   4.905  0.47 42.25 LIG 0.16  HD
ENDROOT
BRANCH 3 5
ATOM      5  CA  VAL C  77      16.811   7.296   4.975  0.47 44.36 LIG 0.17  C 
BRANCH 5 6
ATOM      6  C   VAL C  77      16.322   6.263   5.956  0.47 50.22 LIG 0.22  C 
ATOM      7 O    VAL C  77      15.321   6.475   6.584  0.47 51.68 LIG-0.28  OA
ATOM      8 N    PRO C  78      16.930   5.109   6.065  0.47 51.29 LIG-0.24  NA
ATOM      9  CD  PRO C  78      17.020   4.423   4.767  0.47 47.28 LIG 0.10  C 
ATOM     10  CA  PRO C  78      16.426   4.216   7.091  0.47 47.56 LIG 0.16  C 
ATOM     11  CG  PRO C  78      16.294   3.176   4.997  0.47 42.43 LIG 0.02  C 
ATOM     12  CB  PRO C  78      16.447   2.858   6.407  0.47 42.06 LIG 0.03  C 
BRANCH 10 13
ATOM     13  C   PRO C  78      17.309   4.379   8.302  0.47 54.03 LIG 0.24  C 
ATOM     14  N   PRO C  79      16.803   4.793   9.459  0.47 54.03 LIG-0.34  N 
ATOM     15  CD  PRO C  79      15.629   5.667   9.355  0.47 49.78 LIG 0.13  C 
ATOM     16  CA  PRO C  79      17.675   5.224  10.556  0.47 62.24 LIG 0.17  C 
ATOM     17  CG  PRO C  79      15.793   6.584  10.474  0.47 51.96 LIG 0.02  C 
ATOM     18  CB  PRO C  79      16.755   6.051  11.404  0.47 58.89 LIG 0.04  C 
ATOM     19 O    PRO C  78      18.483   4.177   8.128  0.47 60.82 LIG-0.27  OA
BRANCH 16 20
ATOM     20  C   PRO C  79      18.322   4.151  11.398  0.47 69.87 LIG 0.22  C 
ATOM     21 O    PRO C  79      19.081   4.513  12.262  0.47 73.23 LIG-0.29  OA
ENDBRANCH 16 20
ENDBRANCH 10 13
ENDBRANCH 5 6
BRANCH 5 22
ATOM     22  CB  VAL C  77      17.897   8.288   5.429  0.47 43.60 LIG 0.01  C 
ATOM     23  CG2 VAL C  77      18.429   7.788   6.773  0.47 46.41 LIG 0.01  C 
ATOM     24  CG1 VAL C  77      17.365   9.713   5.627  0.47 37.55 LIG 0.01  C 
ENDBRANCH 5 22
ENDBRANCH 3 5
BRANCH 1 25
ATOM     25  CA  PRO C  76      13.629   8.091   3.224  0.47 40.28 LIG 0.18  C 
ATOM     26  N   PRO C  76      13.916   8.741   1.964  0.47 33.79 LIG-0.34  N 
ATOM     27  CD  PRO C  76      13.031   8.246   0.908  0.47 35.40 LIG 0.13  C 
ATOM     28  C   PRO C  75      14.358   9.977   1.940  0.47 33.84 LIG 0.24  C 
ATOM     29  CG  PRO C  76      12.465   7.032   1.504  0.47 37.80 LIG 0.02  C 
ATOM     30  CB  PRO C  76      12.535   7.074   2.872  0.47 38.87 LIG 0.04  C 
ATOM     31 O    PRO C  75      14.571  10.593   2.925  0.47 33.93 LIG-0.27  OA
BRANCH 28 32
ATOM     32  CA  PRO C  75      14.520  10.645   0.596  0.47 46.85 LIG 0.18  C 
ATOM     33  CB  PRO C  75      15.419   9.816  -0.329  0.47 48.68 LIG 0.04  C 
ATOM     34  CG  PRO C  75      16.447  10.757  -0.863  0.47 51.42 LIG 0.02  C 
ATOM     35  CD  PRO C  75      16.105  12.119  -0.443  0.47 56.17 LIG 0.13  C 
ATOM     36  N   PRO C  75      15.245  11.900   0.716  0.47 56.81 LIG-0.34  N 
ATOM     37  C   PRO C  74      14.684  13.041   1.113  0.47 61.55 LIG 0.26  C 
ATOM     38 O    PRO C  74      13.522  13.168   1.447  0.47 61.23 LIG-0.27  OA
BRANCH 37 39
ATOM     39  CA  PRO C  74      15.579  14.260   1.136  0.47 57.58 LIG 0.35  C 
ATOM     40  N   PRO C  74      14.900  15.410   1.736  0.47 57.74 LIG 0.32  N 
ATOM     41  CD  PRO C  74      15.736  16.011   2.777  0.47 56.21 LIG 0.32  C 
ATOM     42  CG  PRO C  74      16.496  14.840   3.270  0.47 52.80 LIG 0.04  C 
ATOM     43  CB  PRO C  74      16.764  14.033   2.074  0.47 50.35 LIG 0.05  C 
ENDBRANCH 37 39
ENDBRANCH 28 32
ENDBRANCH 1 25
TORSDOF 8
ENDMDL
MODEL 10
USER: ADFR SOLUTION from run 63
USER: SCORE 11.485446 LL:  -3.540 LR:  -8.065 RR:   0.000 FEB:  -5.679
USER: RMSD 4.200743
USER: SEED 62
USER: STATUS no improvement in best in 12 clusters for 5 generations
USER: GENES 10
USER: genes 0 Translation |==|  0.38398 0.49630 0.37904
USER: genes 1 Rotation |==|  0.76424 0.41526 0.86636 0.69692
USER: genes 2 Torsion [C]-N--CA-[C] |==|  0.70151
USER: genes 3 Torsion [N]-CA--C-[N] |==|  0.42967
USER: genes 4 Torsion [N]-CA--C-[N] |==|  0.40157
USER: genes 5 Torsion [N]-CA--C-[O] |==|  0.62830
USER: genes 6 Torsion [N]-CA--CB-[CG2] |==|  0.29325
USER: genes 7 Torsion [O]-C--CA-[N] |==|  0.09502
USER: genes 8 Torsion [N]-C--CA-[N] |==|  0.49189
USER: genes 9 Torsion [N]-C--CA-[CB] |==|  0.81498
ROOT
ATOM      1  C   PRO C  76      14.158   9.328   2.893  0.47 42.64 LIG 0.24  C 
ATOM      2 O    PRO C  76      14.572  10.436   2.804  0.47 44.95 LIG-0.27  OA
ATOM      3  N   VAL C  77      14.113   8.672   4.025  0.47 42.25 LIG-0.35  N 
ATOM      4 H    VAL C  77      13.783   7.886   4.135  0.47 42.25 LIG 0.16  HD
ENDROOT
BRANCH 3 5
ATOM      5  CA  VAL C  77      14.653   9.294   5.196  0.47 44.36 LIG 0.17  C 
BRANCH 5 6
ATOM      6  C   VAL C  77      15.936   8.559   5.483  0.47 50.22 LIG 0.22  C 
ATOM      7 O    VAL C  77      16.097   7.457   5.035  0.47 51.68 LIG-0.28  OA
ATOM      8 N    PRO C  78      16.903   9.144   6.144  0.47 51.29 LIG-0.24  NA
ATOM      9  CD  PRO C  78      17.297  10.413   5.511  0.47 47.28 LIG 0.10  C 
ATOM     10  CA  PRO C  78      18.066   8.325   6.433  0.47 47.56 LIG 0.16  C 
ATOM     11  CG  PRO C  78      18.706  10.200   5.184  0.47 42.43 LIG 0.02  C 
ATOM     12  CB  PRO C  78      19.228   9.270   6.172  0.47 42.06 LIG 0.03  C 
BRANCH 10 13
ATOM     13  C   PRO C  78      17.913   7.810   7.841  0.47 54.03 LIG 0.24  C 
ATOM     14  N   PRO C  79      18.337   6.592   8.168  0.47 54.03 LIG-0.34  N 
ATOM     15  CD  PRO C  79      18.317   5.608   7.081  0.47 49.78 LIG 0.13  C 
ATOM     16  CA  PRO C  79      17.950   5.972   9.438  0.47 62.24 LIG 0.17  C 
ATOM     17  CG  PRO C  79      17.980   4.365   7.761  0.47 51.96 LIG 0.02  C 
ATOM     18  CB  PRO C  79      18.186   4.514   9.178  0.47 58.89 LIG 0.04  C 
ATOM     19 O    PRO C  78      17.334   8.536   8.607  0.47 60.82 LIG-0.27  OA
BRANCH 16 20
ATOM     20  C   PRO C  79      18.696   6.399  10.680  0.47 69.87 LIG 0.22  C 
ATOM     21 O    PRO C  79      19.072   5.526  11.422  0.47 73.23 LIG-0.29  OA
ENDBRANCH 16 20
ENDBRANCH 10 13
ENDBRANCH 5 6
BRANCH 5 22
ATOM     22  CB  VAL C  77      13.586   9.375   6.303  0.47 43.60 LIG 0.01  C 
ATOM     23  CG2 VAL C  77      13.939   8.314   7.346  0.47 46.41 LIG 0.01  C 
ATOM     24  CG1 VAL C  77      12.168   9.089   5.792  0.47 37.55 LIG 0.01  C 
ENDBRANCH 5 22
ENDBRANCH 3 5
BRANCH 1 25
ATOM     25  CA  PRO C  76      13.656   8.720   1.661  0.47 40.28 LIG 0.18  C 
ATOM     26  N   PRO C  76      14.468   9.220   0.573  0.47 33.79 LIG-0.34  N 
ATOM     27  CD  PRO C  76      15.116   8.120  -0.143  0.47 35.40 LIG 0.13  C 
ATOM     28  C   PRO C  75      14.129  10.319  -0.059  0.47 33.84 LIG 0.24  C 
ATOM     29  CG  PRO C  76      14.947   6.992   0.779  0.47 37.80 LIG 0.02  C 
ATOM     30  CB  PRO C  76      13.898   7.206   1.636  0.47 38.87 LIG 0.04  C 
ATOM     31 O    PRO C  75      13.183  10.959   0.246  0.47 33.93 LIG-0.27  OA
BRANCH 28 32
ATOM     32  CA  PRO C  75      14.943  10.723  -1.264  0.47 46.85 LIG 0.18  C 
ATOM     33  CB  PRO C  75      16.355  11.160  -0.856  0.47 48.68 LIG 0.04  C 
ATOM     34  CG  PRO C  75      16.588  12.481  -1.511  0.47 51.42 LIG 0.02  C 
ATOM     35  CD  PRO C  75      15.468  12.765  -2.413  0.47 56.17 LIG 0.13  C 
ATOM     36  N   PRO C  75      14.400  11.920  -1.889  0.47 56.81 LIG-0.34  N 
ATOM     37  C   PRO C  74      13.354  11.911  -2.713  0.47 61.55 LIG 0.26  C 
ATOM     38 O    PRO C  74      12.713  10.923  -3.018  0.47 61.23 LIG-0.27  OA
BRANCH 37 39
ATOM     39  CA  PRO C  74      12.953  13.243  -3.307  0.47 57.58 LIG 0.35  C 
ATOM     40  N   PRO C  74      11.801  13.103  -4.200  0.47 57.74 LIG 0.32  N 
ATOM     41  CD  PRO C  74      10.764  14.077  -3.852  0.47 56.21 LIG 0.32  C 
ATOM     42  CG  PRO C  74      10.975  14.238  -2.396  0.47 52.80 LIG 0.04  C 
ATOM     43  CB  PRO C  74      12.431  14.177  -2.217  0.47 50.35 LIG 0.05  C 
ENDBRANCH 37 39
ENDBRANCH 28 32
ENDBRANCH 1 25
TORSDOF 8
ENDMDL
MODEL 11
USER: ADFR SOLUTION from run 168
USER: SCORE 11.421611 LL:  -3.587 LR:  -8.021 RR:   0.000 FEB:  -5.635
USER: RMSD 3.872295
USER: SEED 167
USER: STATUS no improvement in best in 11 clusters for 5 generations
USER: GENES 10
USER: genes 0 Translation |==|  0.39710 0.46611 0.37633
USER: genes 1 Rotation |==|  0.77297 0.46975 0.86805 0.69776
USER: genes 2 Torsion [C]-N--CA-[C] |==|  0.67419
USER: genes 3 Torsion [N]-CA--C-[N] |==|  0.47220
USER: genes 4 Torsion [N]-CA--C-[N] |==|  0.37975
USER: genes 5 Torsion [N]-CA--C-[O] |==|  0.65529
USER: genes 6 Torsion [N]-CA--CB-[CG2] |==|  0.61534
USER: genes 7 Torsion [O]-C--CA-[N] |==|  0.95414
USER: genes 8 Torsion [N]-C--CA-[N] |==|  0.91880
USER: genes 9 Torsion [N]-C--CA-[CB] |==|  0.83040
ROOT
ATOM      1  C   PRO C  76      14.374   8.830   2.826  0.47 42.64 LIG 0.24  C 
ATOM      2 O    PRO C  76      14.632   9.950   2.534  0.47 44.95 LIG-0.27  OA
ATOM      3  N   VAL C  77      14.526   8.355   4.037  0.47 42.25 LIG-0.35  N 
ATOM      4 H    VAL C  77      14.312   7.564   4.294  0.47 42.25 LIG 0.16  HD
ENDROOT
BRANCH 3 5
ATOM      5  CA  VAL C  77      15.095   9.208   5.036  0.47 44.36 LIG 0.17  C 
BRANCH 5 6
ATOM      6  C   VAL C  77      16.378   8.537   5.451  0.47 50.22 LIG 0.22  C 
ATOM      7 O    VAL C  77      16.643   7.452   5.012  0.47 51.68 LIG-0.28  OA
ATOM      8 N    PRO C  78      17.238   9.162   6.215  0.47 51.29 LIG-0.24  NA
ATOM      9  CD  PRO C  78      17.627  10.459   5.638  0.47 47.28 LIG 0.10  C 
ATOM     10  CA  PRO C  78      18.406   8.401   6.618  0.47 47.56 LIG 0.16  C 
ATOM     11  CG  PRO C  78      19.072  10.325   5.461  0.47 42.43 LIG 0.02  C 
ATOM     12  CB  PRO C  78      19.537   9.409   6.490  0.47 42.06 LIG 0.03  C 
BRANCH 10 13
ATOM     13  C   PRO C  78      18.134   7.858   7.997  0.47 54.03 LIG 0.24  C 
ATOM     14  N   PRO C  79      18.448   6.604   8.307  0.47 54.03 LIG-0.34  N 
ATOM     15  CD  PRO C  79      18.419   5.655   7.189  0.47 49.78 LIG 0.13  C 
ATOM     16  CA  PRO C  79      17.943   5.977   9.533  0.47 62.24 LIG 0.17  C 
ATOM     17  CG  PRO C  79      17.954   4.422   7.808  0.47 51.96 LIG 0.02  C 
ATOM     18  CB  PRO C  79      18.087   4.514   9.239  0.47 58.89 LIG 0.04  C 
ATOM     19 O    PRO C  78      17.566   8.603   8.754  0.47 60.82 LIG-0.27  OA
BRANCH 16 20
ATOM     20  C   PRO C  79      18.644   6.311  10.828  0.47 69.87 LIG 0.22  C 
ATOM     21 O    PRO C  79      19.072   5.388  11.475  0.47 73.23 LIG-0.29  OA
ENDBRANCH 16 20
ENDBRANCH 10 13
ENDBRANCH 5 6
BRANCH 5 22
ATOM     22  CB  VAL C  77      14.051   9.537   6.120  0.47 43.60 LIG 0.01  C 
ATOM     23  CG2 VAL C  77      14.207  11.020   6.460  0.47 46.41 LIG 0.01  C 
ATOM     24  CG1 VAL C  77      14.249   8.729   7.409  0.47 37.55 LIG 0.01  C 
ENDBRANCH 5 22
ENDBRANCH 3 5
BRANCH 1 25
ATOM     25  CA  PRO C  76      13.835   7.986   1.759  0.47 40.28 LIG 0.18  C 
ATOM     26  N   PRO C  76      13.391   8.865   0.699  0.47 33.79 LIG-0.34  N 
ATOM     27  CD  PRO C  76      14.080   8.559  -0.556  0.47 35.40 LIG 0.13  C 
ATOM     28  C   PRO C  75      12.163   9.328   0.690  0.47 33.84 LIG 0.24  C 
ATOM     29  CG  PRO C  76      15.198   7.718  -0.113  0.47 37.80 LIG 0.02  C 
ATOM     30  CB  PRO C  76      14.930   7.138   1.099  0.47 38.87 LIG 0.04  C 
ATOM     31 O    PRO C  75      11.388   9.082   1.547  0.47 33.93 LIG-0.27  OA
BRANCH 28 32
ATOM     32  CA  PRO C  75      11.719  10.137  -0.504  0.47 46.85 LIG 0.18  C 
ATOM     33  CB  PRO C  75      11.230   9.227  -1.637  0.47 48.68 LIG 0.04  C 
ATOM     34  CG  PRO C  75      11.947   9.673  -2.868  0.47 51.42 LIG 0.02  C 
ATOM     35  CD  PRO C  75      12.698  10.894  -2.562  0.47 56.17 LIG 0.13  C 
ATOM     36  N   PRO C  75      12.841  10.838  -1.111  0.47 56.81 LIG-0.34  N 
ATOM     37  C   PRO C  74      13.339  11.979  -0.638  0.47 61.55 LIG 0.26  C 
ATOM     38 O    PRO C  74      12.946  12.553   0.359  0.47 61.23 LIG-0.27  OA
BRANCH 37 39
ATOM     39  CA  PRO C  74      14.478  12.592  -1.422  0.47 57.58 LIG 0.35  C 
ATOM     40  N   PRO C  74      15.019  13.771  -0.743  0.47 57.74 LIG 0.32  N 
ATOM     41  CD  PRO C  74      16.476  13.670  -0.628  0.47 56.21 LIG 0.32  C 
ATOM     42  CG  PRO C  74      16.673  12.205  -0.548  0.47 52.80 LIG 0.04  C 
ATOM     43  CB  PRO C  74      15.672  11.639  -1.461  0.47 50.35 LIG 0.05  C 
ENDBRANCH 37 39
ENDBRANCH 28 32
ENDBRANCH 1 25
TORSDOF 8
ENDMDL
MODEL 12
USER: ADFR SOLUTION from run 148
USER: SCORE 10.988198 LL:  -3.233 LR:  -7.786 RR:   0.000 FEB:  -5.399
USER: RMSD 4.206652
USER: SEED 147
USER: STATUS no improvement in best in 13 clusters for 5 generations
USER: GENES 10
USER: genes 0 Translation |==|  0.52512 0.43314 0.47459
USER: genes 1 Rotation |==|  0.49266 0.55483 0.60817 0.98502
USER: genes 2 Torsion [C]-N--CA-[C] |==|  0.79565
USER: genes 3 Torsion [N]-CA--C-[N] |==|  0.97719
USER: genes 4 Torsion [N]-CA--C-[N] |==|  0.83043
USER: genes 5 Torsion [N]-CA--C-[O] |==|  0.00654
USER: genes 6 Torsion [N]-CA--CB-[CG2] |==|  0.28942
USER: genes 7 Torsion [O]-C--CA-[N] |==|  0.90022
USER: genes 8 Torsion [N]-C--CA-[N] |==|  0.35203
USER: genes 9 Torsion [N]-C--CA-[CB] |==|  0.81684
ROOT
ATOM      1  C   PRO C  76      16.486   8.286   5.258  0.47 42.64 LIG 0.24  C 
ATOM      2 O    PRO C  76      17.087   7.443   4.679  0.47 44.95 LIG-0.27  OA
ATOM      3  N   VAL C  77      17.071   9.250   5.922  0.47 42.25 LIG-0.35  N 
ATOM      4 H    VAL C  77      16.670   9.899   6.319  0.47 42.25 LIG 0.16  HD
ENDROOT
BRANCH 3 5
ATOM      5  CA  VAL C  77      18.500   9.247   6.012  0.47 44.36 LIG 0.17  C 
BRANCH 5 6
ATOM      6  C   VAL C  77      18.837   8.143   6.980  0.47 50.22 LIG 0.22  C 
ATOM      7 O    VAL C  77      19.988   7.873   7.188  0.47 51.68 LIG-0.28  OA
ATOM      8 N    PRO C  78      17.892   7.539   7.654  0.47 51.29 LIG-0.24  NA
ATOM      9  CD  PRO C  78      17.069   8.499   8.406  0.47 47.28 LIG 0.10  C 
ATOM     10  CA  PRO C  78      18.315   6.440   8.503  0.47 47.56 LIG 0.16  C 
ATOM     11  CG  PRO C  78      17.247   8.076   9.794  0.47 42.43 LIG 0.02  C 
ATOM     12  CB  PRO C  78      17.493   6.644   9.767  0.47 42.06 LIG 0.03  C 
BRANCH 10 13
ATOM     13  C   PRO C  78      18.076   5.164   7.738  0.47 54.03 LIG 0.24  C 
ATOM     14  N   PRO C  79      16.851   4.824   7.351  0.47 54.03 LIG-0.34  N 
ATOM     15  CD  PRO C  79      15.764   5.314   8.205  0.47 49.78 LIG 0.13  C 
ATOM     16  CA  PRO C  79      16.558   3.473   6.862  0.47 62.24 LIG 0.17  C 
ATOM     17  CG  PRO C  79      14.781   4.242   8.145  0.47 51.96 LIG 0.02  C 
ATOM     18  CB  PRO C  79      15.071   3.376   7.032  0.47 58.89 LIG 0.04  C 
ATOM     19 O    PRO C  78      19.041   4.463   7.569  0.47 60.82 LIG-0.27  OA
BRANCH 16 20
ATOM     20  C   PRO C  79      16.933   3.149   5.436  0.47 69.87 LIG 0.22  C 
ATOM     21 O    PRO C  79      17.490   4.012   4.805  0.47 73.23 LIG-0.29  OA
ENDBRANCH 16 20
ENDBRANCH 10 13
ENDBRANCH 5 6
BRANCH 5 22
ATOM     22  CB  VAL C  77      19.024  10.665   6.301  0.47 43.60 LIG 0.01  C 
ATOM     23  CG2 VAL C  77      19.426  10.705   7.776  0.47 46.41 LIG 0.01  C 
ATOM     24  CG1 VAL C  77      17.970  11.755   6.063  0.47 37.55 LIG 0.01  C 
ENDBRANCH 5 22
ENDBRANCH 3 5
BRANCH 1 25
ATOM     25  CA  PRO C  76      15.028   8.221   5.171  0.47 40.28 LIG 0.18  C 
ATOM     26  N   PRO C  76      14.696   7.758   3.841  0.47 33.79 LIG-0.34  N 
ATOM     27  CD  PRO C  76      13.907   6.527   3.898  0.47 35.40 LIG 0.13  C 
ATOM     28  C   PRO C  75      14.524   8.616   2.862  0.47 33.84 LIG 0.24  C 
ATOM     29  CG  PRO C  76      14.094   6.089   5.285  0.47 37.80 LIG 0.02  C 
ATOM     30  CB  PRO C  76      14.452   7.138   6.092  0.47 38.87 LIG 0.04  C 
ATOM     31 O    PRO C  75      14.662   9.780   3.009  0.47 33.93 LIG-0.27  OA
BRANCH 28 32
ATOM     32  CA  PRO C  75      14.058   8.085   1.529  0.47 46.85 LIG 0.18  C 
ATOM     33  CB  PRO C  75      15.085   8.376   0.428  0.47 48.68 LIG 0.04  C 
ATOM     34  CG  PRO C  75      14.326   9.007  -0.692  0.47 51.42 LIG 0.02  C 
ATOM     35  CD  PRO C  75      12.894   8.949  -0.386  0.47 56.17 LIG 0.13  C 
ATOM     36  N   PRO C  75      12.874   8.793   1.065  0.47 56.81 LIG-0.34  N 
ATOM     37  C   PRO C  74      11.642   8.530   1.497  0.47 61.55 LIG 0.26  C 
ATOM     38 O    PRO C  74      11.359   7.701   2.341  0.47 61.23 LIG-0.27  OA
BRANCH 37 39
ATOM     39  CA  PRO C  74      10.523   9.334   0.872  0.47 57.58 LIG 0.35  C 
ATOM     40  N   PRO C  74       9.222   8.961   1.431  0.47 57.74 LIG 0.32  N 
ATOM     41  CD  PRO C  74       8.492  10.154   1.863  0.47 56.21 LIG 0.32  C 
ATOM     42  CG  PRO C  74       9.595  11.067   2.239  0.47 52.80 LIG 0.04  C 
ATOM     43  CB  PRO C  74      10.651  10.808   1.252  0.47 50.35 LIG 0.05  C 
ENDBRANCH 37 39
ENDBRANCH 28 32
ENDBRANCH 1 25
TORSDOF 8
ENDMDL
MODEL 13
USER: ADFR SOLUTION from run 135
USER: SCORE 10.643834 LL:  -3.141 LR:  -7.591 RR:   0.000 FEB:  -5.205
USER: RMSD 2.324716
USER: SEED 134
USER: STATUS no improvement in best in 11 clusters for 5 generations
USER: GENES 10
USER: genes 0 Translation |==|  0.47150 0.42925 0.48126
USER: genes 1 Rotation |==|  0.52625 0.49972 0.51366 0.99912
USER: genes 2 Torsion [C]-N--CA-[C] |==|  0.61135
USER: genes 3 Torsion [N]-CA--C-[N] |==|  0.44015
USER: genes 4 Torsion [N]-CA--C-[N] |==|  0.53921
USER: genes 5 Torsion [N]-CA--C-[O] |==|  0.40537
USER: genes 6 Torsion [N]-CA--CB-[CG2] |==|  0.39105
USER: genes 7 Torsion [O]-C--CA-[N] |==|  0.93677
USER: genes 8 Torsion [N]-C--CA-[N] |==|  0.53382
USER: genes 9 Torsion [N]-C--CA-[CB] |==|  0.83008
ROOT
ATOM      1  C   PRO C  76      15.602   8.222   5.423  0.47 42.64 LIG 0.24  C 
ATOM      2 O    PRO C  76      15.963   7.270   4.814  0.47 44.95 LIG-0.27  OA
ATOM      3  N   VAL C  77      16.339   8.810   6.331  0.47 42.25 LIG-0.35  N 
ATOM      4 H    VAL C  77      16.128   9.523   6.761  0.47 42.25 LIG 0.16  HD
ENDROOT
BRANCH 3 5
ATOM      5  CA  VAL C  77      17.611   8.236   6.652  0.47 44.36 LIG 0.17  C 
BRANCH 5 6
ATOM      6  C   VAL C  77      17.741   8.364   8.147  0.47 50.22 LIG 0.22  C 
ATOM      7 O    VAL C  77      17.029   9.131   8.737  0.47 51.68 LIG-0.28  OA
ATOM      8 N    PRO C  78      18.561   7.589   8.812  0.47 51.29 LIG-0.24  NA
ATOM      9  CD  PRO C  78      18.289   6.167   8.550  0.47 47.28 LIG 0.10  C 
ATOM     10  CA  PRO C  78      18.666   7.845  10.237  0.47 47.56 LIG 0.16  C 
ATOM     11  CG  PRO C  78      17.964   5.640   9.874  0.47 42.43 LIG 0.02  C 
ATOM     12  CB  PRO C  78      18.696   6.447  10.836  0.47 42.06 LIG 0.03  C 
BRANCH 10 13
ATOM     13  C   PRO C  78      19.889   8.700  10.450  0.47 54.03 LIG 0.24  C 
ATOM     14  N   PRO C  79      20.399   8.863  11.667  0.47 54.03 LIG-0.34  N 
ATOM     15  CD  PRO C  79      19.435   8.773  12.769  0.47 49.78 LIG 0.13  C 
ATOM     16  CA  PRO C  79      21.400   9.900  11.936  0.47 62.24 LIG 0.17  C 
ATOM     17  CG  PRO C  79      19.941   9.737  13.736  0.47 51.96 LIG 0.02  C 
ATOM     18  CB  PRO C  79      21.306  10.071  13.423  0.47 58.89 LIG 0.04  C 
ATOM     19 O    PRO C  78      20.315   9.262   9.474  0.47 60.82 LIG-0.27  OA
BRANCH 16 20
ATOM     20  C   PRO C  79      22.829   9.611  11.542  0.47 69.87 LIG 0.22  C 
ATOM     21 O    PRO C  79      23.493  10.542  11.162  0.47 73.23 LIG-0.29  OA
ENDBRANCH 16 20
ENDBRANCH 10 13
ENDBRANCH 5 6
BRANCH 5 22
ATOM     22  CB  VAL C  77      18.713   8.839   5.762  0.47 43.60 LIG 0.01  C 
ATOM     23  CG2 VAL C  77      19.949   9.030   6.643  0.47 46.41 LIG 0.01  C 
ATOM     24  CG1 VAL C  77      18.331  10.203   5.174  0.47 37.55 LIG 0.01  C 
ENDBRANCH 5 22
ENDBRANCH 3 5
BRANCH 1 25
ATOM     25  CA  PRO C  76      14.278   8.745   5.088  0.47 40.28 LIG 0.18  C 
ATOM     26  N   PRO C  76      13.968   8.303   3.745  0.47 33.79 LIG-0.34  N 
ATOM     27  CD  PRO C  76      12.735   7.514   3.727  0.47 35.40 LIG 0.13  C 
ATOM     28  C   PRO C  75      14.307   9.035   2.710  0.47 33.84 LIG 0.24  C 
ATOM     29  CG  PRO C  76      12.529   7.205   5.146  0.47 37.80 LIG 0.02  C 
ATOM     30  CB  PRO C  76      13.180   8.106   5.948  0.47 38.87 LIG 0.04  C 
ATOM     31 O    PRO C  75      14.900  10.051   2.819  0.47 33.93 LIG-0.27  OA
BRANCH 28 32
ATOM     32  CA  PRO C  75      13.848   8.585   1.344  0.47 46.85 LIG 0.18  C 
ATOM     33  CB  PRO C  75      14.262   7.134   1.072  0.47 48.68 LIG 0.04  C 
ATOM     34  CG  PRO C  75      14.933   7.136  -0.262  0.47 51.42 LIG 0.02  C 
ATOM     35  CD  PRO C  75      14.787   8.465  -0.863  0.47 56.17 LIG 0.13  C 
ATOM     36  N   PRO C  75      14.530   9.322   0.291  0.47 56.81 LIG-0.34  N 
ATOM     37  C   PRO C  74      14.181  10.548  -0.097  0.47 61.55 LIG 0.26  C 
ATOM     38 O    PRO C  74      13.284  11.206   0.394  0.47 61.23 LIG-0.27  OA
BRANCH 37 39
ATOM     39  CA  PRO C  74      14.973  11.144  -1.238  0.47 57.58 LIG 0.35  C 
ATOM     40  N   PRO C  74      14.579  12.531  -1.493  0.47 57.74 LIG 0.32  N 
ATOM     41  CD  PRO C  74      15.759  13.397  -1.541  0.47 56.21 LIG 0.32  C 
ATOM     42  CG  PRO C  74      16.684  12.701  -0.619  0.47 52.80 LIG 0.04  C 
ATOM     43  CB  PRO C  74      16.447  11.271  -0.855  0.47 50.35 LIG 0.05  C 
ENDBRANCH 37 39
ENDBRANCH 28 32
ENDBRANCH 1 25
TORSDOF 8
ENDMDL
MODEL 14
USER: ADFR SOLUTION from run 112
USER: SCORE 11.201757 LL:  -3.623 LR:  -7.587 RR:   0.000 FEB:  -5.201
USER: RMSD 2.567965
USER: SEED 111
USER: STATUS no improvement in best in 9 clusters for 5 generations
USER: GENES 10
USER: genes 0 Translation |==|  0.45376 0.42303 0.44052
USER: genes 1 Rotation |==|  0.49724 0.49277 0.45563 0.99797
USER: genes 2 Torsion [C]-N--CA-[C] |==|  0.80557
USER: genes 3 Torsion [N]-CA--C-[N] |==|  0.40131
USER: genes 4 Torsion [N]-CA--C-[N] |==|  0.32638
USER: genes 5 Torsion [N]-CA--C-[O] |==|  0.44055
USER: genes 6 Torsion [N]-CA--CB-[CG2] |==|  0.79527
USER: genes 7 Torsion [O]-C--CA-[N] |==|  0.99903
USER: genes 8 Torsion [N]-C--CA-[N] |==|  0.42823
USER: genes 9 Torsion [N]-C--CA-[CB] |==|  0.69613
ROOT
ATOM      1  C   PRO C  76      15.309   8.119   4.415  0.47 42.64 LIG 0.24  C 
ATOM      2 O    PRO C  76      15.442   7.045   3.928  0.47 44.95 LIG-0.27  OA
ATOM      3  N   VAL C  77      16.158   8.623   5.274  0.47 42.25 LIG-0.35  N 
ATOM      4 H    VAL C  77      16.116   9.411   5.615  0.47 42.25 LIG 0.16  HD
ENDROOT
BRANCH 3 5
ATOM      5  CA  VAL C  77      17.260   7.813   5.698  0.47 44.36 LIG 0.17  C 
BRANCH 5 6
ATOM      6  C   VAL C  77      16.655   6.731   6.554  0.47 50.22 LIG 0.22  C 
ATOM      7 O    VAL C  77      15.667   6.970   7.193  0.47 51.68 LIG-0.28  OA
ATOM      8 N    PRO C  78      17.148   5.519   6.540  0.47 51.29 LIG-0.24  NA
ATOM      9  CD  PRO C  78      17.197   4.973   5.174  0.47 47.28 LIG 0.10  C 
ATOM     10  CA  PRO C  78      16.540   4.571   7.456  0.47 47.56 LIG 0.16  C 
ATOM     11  CG  PRO C  78      16.350   3.785   5.259  0.47 42.43 LIG 0.02  C 
ATOM     12  CB  PRO C  78      16.444   3.301   6.626  0.47 42.06 LIG 0.03  C 
BRANCH 10 13
ATOM     13  C   PRO C  78      17.410   4.514   8.685  0.47 54.03 LIG 0.24  C 
ATOM     14  N   PRO C  79      16.935   4.884   9.871  0.47 54.03 LIG-0.34  N 
ATOM     15  CD  PRO C  79      15.881   5.903   9.835  0.47 49.78 LIG 0.13  C 
ATOM     16  CA  PRO C  79      17.831   5.103  11.011  0.47 62.24 LIG 0.17  C 
ATOM     17  CG  PRO C  79      16.133   6.688  11.034  0.47 51.96 LIG 0.02  C 
ATOM     18  CB  PRO C  79      17.002   5.958  11.921  0.47 58.89 LIG 0.04  C 
ATOM     19 O    PRO C  78      18.554   4.183   8.506  0.47 60.82 LIG-0.27  OA
BRANCH 16 20
ATOM     20  C   PRO C  79      18.322   3.886  11.758  0.47 69.87 LIG 0.22  C 
ATOM     21 O    PRO C  79      19.329   4.010  12.409  0.47 73.23 LIG-0.29  OA
ENDBRANCH 16 20
ENDBRANCH 10 13
ENDBRANCH 5 6
BRANCH 5 22
ATOM     22  CB  VAL C  77      18.374   8.691   6.298  0.47 43.60 LIG 0.01  C 
ATOM     23  CG2 VAL C  77      19.055   9.411   5.134  0.47 46.41 LIG 0.01  C 
ATOM     24  CG1 VAL C  77      19.439   7.881   7.047  0.47 37.55 LIG 0.01  C 
ENDBRANCH 5 22
ENDBRANCH 3 5
BRANCH 1 25
ATOM     25  CA  PRO C  76      14.144   8.891   3.981  0.47 40.28 LIG 0.18  C 
ATOM     26  N   PRO C  76      13.434   8.087   3.010  0.47 33.79 LIG-0.34  N 
ATOM     27  CD  PRO C  76      12.057   7.841   3.443  0.47 35.40 LIG 0.13  C 
ATOM     28  C   PRO C  75      13.726   8.174   1.733  0.47 33.84 LIG 0.24  C 
ATOM     29  CG  PRO C  76      12.092   8.219   4.860  0.47 37.80 LIG 0.02  C 
ATOM     30  CB  PRO C  76      13.131   9.076   5.117  0.47 38.87 LIG 0.04  C 
ATOM     31 O    PRO C  75      14.588   8.872   1.327  0.47 33.93 LIG-0.27  OA
BRANCH 28 32
ATOM     32  CA  PRO C  75      12.868   7.407   0.757  0.47 46.85 LIG 0.18  C 
ATOM     33  CB  PRO C  75      13.449   6.014   0.487  0.47 48.68 LIG 0.04  C 
ATOM     34  CG  PRO C  75      13.507   5.867  -0.997  0.47 51.42 LIG 0.02  C 
ATOM     35  CD  PRO C  75      12.840   7.018  -1.613  0.47 56.17 LIG 0.13  C 
ATOM     36  N   PRO C  75      12.886   8.028  -0.559  0.47 56.81 LIG-0.34  N 
ATOM     37  C   PRO C  74      12.147   9.087  -0.885  0.47 61.55 LIG 0.26  C 
ATOM     38 O    PRO C  74      11.402   9.678  -0.127  0.47 61.23 LIG-0.27  OA
BRANCH 37 39
ATOM     39  CA  PRO C  74      12.258   9.573  -2.313  0.47 57.58 LIG 0.35  C 
ATOM     40  N   PRO C  74      10.944   9.904  -2.867  0.47 57.74 LIG 0.32  N 
ATOM     41  CD  PRO C  74      10.965  11.240  -3.466  0.47 56.21 LIG 0.32  C 
ATOM     42  CG  PRO C  74      11.982  11.929  -2.638  0.47 52.80 LIG 0.04  C 
ATOM     43  CB  PRO C  74      13.001  10.907  -2.365  0.47 50.35 LIG 0.05  C 
ENDBRANCH 37 39
ENDBRANCH 28 32
ENDBRANCH 1 25
TORSDOF 8
ENDMDL
MODEL 15
USER: ADFR SOLUTION from run 160
USER: SCORE 10.683356 LL:  -3.340 LR:  -7.568 RR:   0.000 FEB:  -5.182
USER: RMSD 3.658035
USER: SEED 159
USER: STATUS no improvement in best in 9 clusters for 5 generations
USER: GENES 10
USER: genes 0 Translation |==|  0.50887 0.33836 0.50006
USER: genes 1 Rotation |==|  0.31349 0.62975 0.13486 0.75505
USER: genes 2 Torsion [C]-N--CA-[C] |==|  0.69692
USER: genes 3 Torsion [N]-CA--C-[N] |==|  0.30049
USER: genes 4 Torsion [N]-CA--C-[N] |==|  0.54173
USER: genes 5 Torsion [N]-CA--C-[O] |==|  0.90824
USER: genes 6 Torsion [N]-CA--CB-[CG2] |==|  0.01065
USER: genes 7 Torsion [O]-C--CA-[N] |==|  0.88824
USER: genes 8 Torsion [N]-C--CA-[N] |==|  0.31646
USER: genes 9 Torsion [N]-C--CA-[CB] |==|  0.64156
ROOT
ATOM      1  C   PRO C  76      16.218   6.722   5.888  0.47 42.64 LIG 0.24  C 
ATOM      2 O    PRO C  76      15.181   6.789   6.459  0.47 44.95 LIG-0.27  OA
ATOM      3  N   VAL C  77      17.097   5.778   6.114  0.47 42.25 LIG-0.35  N 
ATOM      4 H    VAL C  77      17.839   5.674   5.692  0.47 42.25 LIG 0.16  HD
ENDROOT
BRANCH 3 5
ATOM      5  CA  VAL C  77      16.822   4.824   7.145  0.47 44.36 LIG 0.17  C 
BRANCH 5 6
ATOM      6  C   VAL C  77      17.790   5.145   8.254  0.47 50.22 LIG 0.22  C 
ATOM      7 O    VAL C  77      18.964   4.965   8.082  0.47 51.68 LIG-0.28  OA
ATOM      8 N    PRO C  78      17.368   5.694   9.365  0.47 51.29 LIG-0.24  NA
ATOM      9  CD  PRO C  78      16.625   6.937   9.104  0.47 47.28 LIG 0.10  C 
ATOM     10  CA  PRO C  78      18.368   5.894  10.399  0.47 47.56 LIG 0.16  C 
ATOM     11  CG  PRO C  78      17.402   7.947   9.820  0.47 42.43 LIG 0.02  C 
ATOM     12  CB  PRO C  78      18.030   7.273  10.943  0.47 42.06 LIG 0.03  C 
BRANCH 10 13
ATOM     13  C   PRO C  78      18.256   4.739  11.360  0.47 54.03 LIG 0.24  C 
ATOM     14  N   PRO C  79      18.832   4.795  12.558  0.47 54.03 LIG-0.34  N 
ATOM     15  CD  PRO C  79      20.036   5.628  12.637  0.47 49.78 LIG 0.13  C 
ATOM     16  CA  PRO C  79      18.975   3.594  13.386  0.47 62.24 LIG 0.17  C 
ATOM     17  CG  PRO C  79      20.869   4.922  13.600  0.47 51.96 LIG 0.02  C 
ATOM     18  CB  PRO C  79      20.069   3.978  14.337  0.47 58.89 LIG 0.04  C 
ATOM     19 O    PRO C  78      17.683   3.764  10.948  0.47 60.82 LIG-0.27  OA
BRANCH 16 20
ATOM     20  C   PRO C  79      17.764   3.128  14.158  0.47 69.87 LIG 0.22  C 
ATOM     21 O    PRO C  79      17.009   3.978  14.560  0.47 73.23 LIG-0.29  OA
ENDBRANCH 16 20
ENDBRANCH 10 13
ENDBRANCH 5 6
BRANCH 5 22
ATOM     22  CB  VAL C  77      16.811   3.396   6.568  0.47 43.60 LIG 0.01  C 
ATOM     23  CG2 VAL C  77      17.198   3.505   5.093  0.47 46.41 LIG 0.01  C 
ATOM     24  CG1 VAL C  77      15.434   2.726   6.652  0.47 37.55 LIG 0.01  C 
ENDBRANCH 5 22
ENDBRANCH 3 5
BRANCH 1 25
ATOM     25  CA  PRO C  76      16.470   7.745   4.873  0.47 40.28 LIG 0.18  C 
ATOM     26  N   PRO C  76      15.229   7.955   4.159  0.47 33.79 LIG-0.34  N 
ATOM     27  CD  PRO C  76      14.803   9.352   4.254  0.47 35.40 LIG 0.13  C 
ATOM     28  C   PRO C  75      14.947   7.242   3.093  0.47 33.84 LIG 0.24  C 
ATOM     29  CG  PRO C  76      15.638   9.871   5.342  0.47 37.80 LIG 0.02  C 
ATOM     30  CB  PRO C  76      16.767   9.111   5.505  0.47 38.87 LIG 0.04  C 
ATOM     31 O    PRO C  75      15.660   6.389   2.695  0.47 33.93 LIG-0.27  OA
BRANCH 28 32
ATOM     32  CA  PRO C  75      13.700   7.591   2.318  0.47 46.85 LIG 0.18  C 
ATOM     33  CB  PRO C  75      12.869   6.339   2.015  0.47 48.68 LIG 0.04  C 
ATOM     34  CG  PRO C  75      12.576   6.377   0.552  0.47 51.42 LIG 0.02  C 
ATOM     35  CD  PRO C  75      13.039   7.658   0.010  0.47 56.17 LIG 0.13  C 
ATOM     36  N   PRO C  75      14.028   8.093   0.992  0.47 56.81 LIG-0.34  N 
ATOM     37  C   PRO C  74      14.416   9.344   0.752  0.47 61.55 LIG 0.26  C 
ATOM     38 O    PRO C  74      14.572  10.201   1.601  0.47 61.23 LIG-0.27  OA
BRANCH 37 39
ATOM     39  CA  PRO C  74      14.673   9.705  -0.694  0.47 57.58 LIG 0.35  C 
ATOM     40  N   PRO C  74      13.754  10.748  -1.154  0.47 57.74 LIG 0.32  N 
ATOM     41  CD  PRO C  74      14.497  11.837  -1.792  0.47 56.21 LIG 0.32  C 
ATOM     42  CG  PRO C  74      15.786  11.791  -1.067  0.47 52.80 LIG 0.04  C 
ATOM     43  CB  PRO C  74      16.043  10.363  -0.843  0.47 50.35 LIG 0.05  C 
ENDBRANCH 37 39
ENDBRANCH 28 32
ENDBRANCH 1 25
TORSDOF 8
ENDMDL
MODEL 16
USER: ADFR SOLUTION from run 148
USER: SCORE 10.750196 LL:  -3.645 LR:  -7.518 RR:   0.000 FEB:  -5.131
USER: RMSD 4.121545
USER: SEED 147
USER: STATUS no improvement in best in 13 clusters for 5 generations
USER: GENES 10
USER: genes 0 Translation |==|  0.53393 0.46245 0.46602
USER: genes 1 Rotation |==|  0.37700 0.57713 0.61519 0.96438
USER: genes 2 Torsion [C]-N--CA-[C] |==|  0.83635
USER: genes 3 Torsion [N]-CA--C-[N] |==|  0.83901
USER: genes 4 Torsion [N]-CA--C-[N] |==|  0.30888
USER: genes 5 Torsion [N]-CA--C-[O] |==|  0.96063
USER: genes 6 Torsion [N]-CA--CB-[CG2] |==|  0.03910
USER: genes 7 Torsion [O]-C--CA-[N] |==|  0.83864
USER: genes 8 Torsion [N]-C--CA-[N] |==|  0.33897
USER: genes 9 Torsion [N]-C--CA-[CB] |==|  0.81613
ROOT
ATOM      1  C   PRO C  76      16.632   8.769   5.046  0.47 42.64 LIG 0.24  C 
ATOM      2 O    PRO C  76      17.322   7.815   4.901  0.47 44.95 LIG-0.27  OA
ATOM      3  N   VAL C  77      17.109   9.980   5.191  0.47 42.25 LIG-0.35  N 
ATOM      4 H    VAL C  77      16.641  10.697   5.257  0.47 42.25 LIG 0.16  HD
ENDROOT
BRANCH 3 5
ATOM      5  CA  VAL C  77      18.530  10.150   5.246  0.47 44.36 LIG 0.17  C 
BRANCH 5 6
ATOM      6  C   VAL C  77      18.986   9.322   6.419  0.47 50.22 LIG 0.22  C 
ATOM      7 O    VAL C  77      19.850   8.503   6.262  0.47 51.68 LIG-0.28  OA
ATOM      8 N    PRO C  78      18.508   9.547   7.617  0.47 51.29 LIG-0.24  NA
ATOM      9  CD  PRO C  78      18.695  10.951   8.016  0.47 47.28 LIG 0.10  C 
ATOM     10  CA  PRO C  78      18.956   8.646   8.663  0.47 47.56 LIG 0.16  C 
ATOM     11  CG  PRO C  78      19.520  10.850   9.218  0.47 42.43 LIG 0.02  C 
ATOM     12  CB  PRO C  78      19.197   9.577   9.841  0.47 42.06 LIG 0.03  C 
BRANCH 10 13
ATOM     13  C   PRO C  78      17.889   7.595   8.837  0.47 54.03 LIG 0.24  C 
ATOM     14  N   PRO C  79      18.115   6.334   8.481  0.47 54.03 LIG-0.34  N 
ATOM     15  CD  PRO C  79      19.072   6.152   7.385  0.47 49.78 LIG 0.13  C 
ATOM     16  CA  PRO C  79      17.017   5.368   8.378  0.47 62.24 LIG 0.17  C 
ATOM     17  CG  PRO C  79      18.548   4.997   6.671  0.47 51.96 LIG 0.02  C 
ATOM     18  CB  PRO C  79      17.599   4.300   7.501  0.47 58.89 LIG 0.04  C 
ATOM     19 O    PRO C  78      16.826   7.986   9.245  0.47 60.82 LIG-0.27  OA
BRANCH 16 20
ATOM     20  C   PRO C  79      16.503   4.755   9.659  0.47 69.87 LIG 0.22  C 
ATOM     21 O    PRO C  79      17.184   4.889  10.645  0.47 73.23 LIG-0.29  OA
ENDBRANCH 16 20
ENDBRANCH 10 13
ENDBRANCH 5 6
BRANCH 5 22
ATOM     22  CB  VAL C  77      18.894  11.646   5.214  0.47 43.60 LIG 0.01  C 
ATOM     23  CG2 VAL C  77      17.609  12.427   5.490  0.47 46.41 LIG 0.01  C 
ATOM     24  CG1 VAL C  77      19.447  12.100   3.857  0.47 37.55 LIG 0.01  C 
ENDBRANCH 5 22
ENDBRANCH 3 5
BRANCH 1 25
ATOM     25  CA  PRO C  76      15.188   8.538   5.024  0.47 40.28 LIG 0.18  C 
ATOM     26  N   PRO C  76      14.870   7.926   3.752  0.47 33.79 LIG-0.34  N 
ATOM     27  CD  PRO C  76      14.227   6.625   3.944  0.47 35.40 LIG 0.13  C 
ATOM     28  C   PRO C  75      14.571   8.671   2.713  0.47 33.84 LIG 0.24  C 
ATOM     29  CG  PRO C  76      14.505   6.333   5.354  0.47 37.80 LIG 0.02  C 
ATOM     30  CB  PRO C  76      14.767   7.482   6.055  0.47 38.87 LIG 0.04  C 
ATOM     31 O    PRO C  75      14.581   9.851   2.756  0.47 33.93 LIG-0.27  OA
BRANCH 28 32
ATOM     32  CA  PRO C  75      14.127   7.977   1.449  0.47 46.85 LIG 0.18  C 
ATOM     33  CB  PRO C  75      15.011   8.372   0.260  0.47 48.68 LIG 0.04  C 
ATOM     34  CG  PRO C  75      14.081   8.781  -0.833  0.47 51.42 LIG 0.02  C 
ATOM     35  CD  PRO C  75      12.706   8.488  -0.419  0.47 56.17 LIG 0.13  C 
ATOM     36  N   PRO C  75      12.807   8.428   1.036  0.47 56.81 LIG-0.34  N 
ATOM     37  C   PRO C  74      11.673   7.978   1.572  0.47 61.55 LIG 0.26  C 
ATOM     38 O    PRO C  74      11.602   7.170   2.479  0.47 61.23 LIG-0.27  OA
BRANCH 37 39
ATOM     39  CA  PRO C  74      10.389   8.525   0.990  0.47 57.58 LIG 0.35  C 
ATOM     40  N   PRO C  74       9.216   7.958   1.659  0.47 57.74 LIG 0.32  N 
ATOM     41  CD  PRO C  74       8.306   9.024   2.082  0.47 56.21 LIG 0.32  C 
ATOM     42  CG  PRO C  74       9.242  10.144   2.330  0.47 52.80 LIG 0.04  C 
ATOM     43  CB  PRO C  74      10.265  10.019   1.284  0.47 50.35 LIG 0.05  C 
ENDBRANCH 37 39
ENDBRANCH 28 32
ENDBRANCH 1 25
TORSDOF 8
ENDMDL
MODEL 17
USER: ADFR SOLUTION from run 147
USER: SCORE 10.167441 LL:  -3.267 LR:  -7.396 RR:   0.000 FEB:  -5.010
USER: RMSD 3.461076
USER: SEED 146
USER: STATUS no improvement in best in 7 clusters for 5 generations
USER: GENES 10
USER: genes 0 Translation |==|  0.39587 0.43744 0.49219
USER: genes 1 Rotation |==|  0.22556 0.62549 0.31364 0.85243
USER: genes 2 Torsion [C]-N--CA-[C] |==|  0.65253
USER: genes 3 Torsion [N]-CA--C-[N] |==|  0.20591
USER: genes 4 Torsion [N]-CA--C-[N] |==|  0.49827
USER: genes 5 Torsion [N]-CA--C-[O] |==|  0.97056
USER: genes 6 Torsion [N]-CA--CB-[CG2] |==|  0.91912
USER: genes 7 Torsion [O]-C--CA-[N] |==|  0.69533
USER: genes 8 Torsion [N]-C--CA-[N] |==|  0.46093
USER: genes 9 Torsion [N]-C--CA-[CB] |==|  0.83820
ROOT
ATOM      1  C   PRO C  76      14.354   8.357   5.694  0.47 42.64 LIG 0.24  C 
ATOM      2 O    PRO C  76      13.894   7.692   6.562  0.47 44.95 LIG-0.27  OA
ATOM      3  N   VAL C  77      15.616   8.309   5.351  0.47 42.25 LIG-0.35  N 
ATOM      4 H    VAL C  77      15.975   8.744   4.702  0.47 42.25 LIG 0.16  HD
ENDROOT
BRANCH 3 5
ATOM      5  CA  VAL C  77      16.496   7.467   6.106  0.47 44.36 LIG 0.17  C 
BRANCH 5 6
ATOM      6  C   VAL C  77      17.613   8.367   6.565  0.47 50.22 LIG 0.22  C 
ATOM      7 O    VAL C  77      18.666   8.340   5.989  0.47 51.68 LIG-0.28  OA
ATOM      8 N    PRO C  78      17.416   9.231   7.528  0.47 51.29 LIG-0.24  NA
ATOM      9  CD  PRO C  78      16.280  10.117   7.233  0.47 47.28 LIG 0.10  C 
ATOM     10  CA  PRO C  78      18.577   9.997   7.946  0.47 47.56 LIG 0.16  C 
ATOM     11  CG  PRO C  78      16.886  11.447   7.224  0.47 42.43 LIG 0.02  C 
ATOM     12  CB  PRO C  78      18.016  11.397   8.137  0.47 42.06 LIG 0.03  C 
BRANCH 10 13
ATOM     13  C   PRO C  78      19.144   9.321   9.167  0.47 54.03 LIG 0.24  C 
ATOM     14  N   PRO C  79      20.230   9.801   9.766  0.47 54.03 LIG-0.34  N 
ATOM     15  CD  PRO C  79      21.167  10.514   8.890  0.47 49.78 LIG 0.13  C 
ATOM     16  CA  PRO C  79      20.954   9.014  10.768  0.47 62.24 LIG 0.17  C 
ATOM     17  CG  PRO C  79      22.468  10.185   9.453  0.47 51.96 LIG 0.02  C 
ATOM     18  CB  PRO C  79      22.305   9.664  10.785  0.47 58.89 LIG 0.04  C 
ATOM     19 O    PRO C  78      18.597   8.305   9.509  0.47 60.82 LIG-0.27  OA
BRANCH 16 20
ATOM     20  C   PRO C  79      20.387   8.973  12.168  0.47 69.87 LIG 0.22  C 
ATOM     21 O    PRO C  79      19.494   9.742  12.421  0.47 73.23 LIG-0.29  OA
ENDBRANCH 16 20
ENDBRANCH 10 13
ENDBRANCH 5 6
BRANCH 5 22
ATOM     22  CB  VAL C  77      16.851   6.203   5.302  0.47 43.60 LIG 0.01  C 
ATOM     23  CG2 VAL C  77      15.666   5.908   4.380  0.47 46.41 LIG 0.01  C 
ATOM     24  CG1 VAL C  77      17.083   4.973   6.189  0.47 37.55 LIG 0.01  C 
ENDBRANCH 5 22
ENDBRANCH 3 5
BRANCH 1 25
ATOM     25  CA  PRO C  76      13.423   9.231   4.981  0.47 40.28 LIG 0.18  C 
ATOM     26  N   PRO C  76      13.258   8.690   3.649  0.47 33.79 LIG-0.34  N 
ATOM     27  CD  PRO C  76      11.854   8.378   3.382  0.47 35.40 LIG 0.13  C 
ATOM     28  C   PRO C  75      14.055   9.066   2.676  0.47 33.84 LIG 0.24  C 
ATOM     29  CG  PRO C  76      11.255   8.414   4.720  0.47 37.80 LIG 0.02  C 
ATOM     30  CB  PRO C  76      12.012   9.167   5.580  0.47 38.87 LIG 0.04  C 
ATOM     31 O    PRO C  75      14.947   9.822   2.844  0.47 33.93 LIG-0.27  OA
BRANCH 28 32
ATOM     32  CA  PRO C  75      13.758   8.565   1.284  0.47 46.85 LIG 0.18  C 
ATOM     33  CB  PRO C  75      14.267   7.132   1.092  0.47 48.68 LIG 0.04  C 
ATOM     34  CG  PRO C  75      15.068   7.140  -0.168  0.47 51.42 LIG 0.02  C 
ATOM     35  CD  PRO C  75      14.918   8.446  -0.815  0.47 56.17 LIG 0.13  C 
ATOM     36  N   PRO C  75      14.506   9.313   0.284  0.47 56.81 LIG-0.34  N 
ATOM     37  C   PRO C  74      14.138  10.511  -0.168  0.47 61.55 LIG 0.26  C 
ATOM     38 O    PRO C  74      13.164  11.132   0.213  0.47 61.23 LIG-0.27  OA
BRANCH 37 39
ATOM     39  CA  PRO C  74      15.010  11.123  -1.241  0.47 57.58 LIG 0.35  C 
ATOM     40  N   PRO C  74      14.619  12.506  -1.521  0.47 57.74 LIG 0.32  N 
ATOM     41  CD  PRO C  74      15.788  13.386  -1.472  0.47 56.21 LIG 0.32  C 
ATOM     42  CG  PRO C  74      16.646  12.698  -0.481  0.47 52.80 LIG 0.04  C 
ATOM     43  CB  PRO C  74      16.447  11.266  -0.741  0.47 50.35 LIG 0.05  C 
ENDBRANCH 37 39
ENDBRANCH 28 32
ENDBRANCH 1 25
TORSDOF 8
ENDMDL
MODEL 18
USER: ADFR SOLUTION from run 34
USER: SCORE 10.595436 LL:  -3.221 LR:  -7.383 RR:   0.000 FEB:  -4.997
USER: RMSD 3.118338
USER: SEED 33
USER: STATUS no improvement in best in 10 clusters for 5 generations
USER: GENES 10
USER: genes 0 Translation |==|  0.49663 0.55301 0.45503
USER: genes 1 Rotation |==|  0.34870 0.56567 0.53225 0.97091
USER: genes 2 Torsion [C]-N--CA-[C] |==|  0.81192
USER: genes 3 Torsion [N]-CA--C-[N] |==|  0.38158
USER: genes 4 Torsion [N]-CA--C-[N] |==|  0.48403
USER: genes 5 Torsion [N]-CA--C-[O] |==|  0.55654
USER: genes 6 Torsion [N]-CA--CB-[CG2] |==|  0.08979
USER: genes 7 Torsion [O]-C--CA-[N] |==|  0.89852
USER: genes 8 Torsion [N]-C--CA-[N] |==|  0.48186
USER: genes 9 Torsion [N]-C--CA-[CB] |==|  0.72155
ROOT
ATOM      1  C   PRO C  76      16.016  10.264   4.774  0.47 42.64 LIG 0.24  C 
ATOM      2 O    PRO C  76      16.411   9.148   4.860  0.47 44.95 LIG-0.27  OA
ATOM      3  N   VAL C  77      16.802  11.307   4.858  0.47 42.25 LIG-0.35  N 
ATOM      4 H    VAL C  77      16.559  12.126   4.760  0.47 42.25 LIG 0.16  HD
ENDROOT
BRANCH 3 5
ATOM      5  CA  VAL C  77      18.191  11.093   5.137  0.47 44.36 LIG 0.17  C 
BRANCH 5 6
ATOM      6  C   VAL C  77      18.239  10.573   6.550  0.47 50.22 LIG 0.22  C 
ATOM      7 O    VAL C  77      17.489  11.027   7.370  0.47 51.68 LIG-0.28  OA
ATOM      8 N    PRO C  78      19.030   9.579   6.865  0.47 51.29 LIG-0.24  NA
ATOM      9  CD  PRO C  78      18.787   8.406   6.011  0.47 47.28 LIG 0.10  C 
ATOM     10  CA  PRO C  78      19.056   9.204   8.267  0.47 47.56 LIG 0.16  C 
ATOM     11  CG  PRO C  78      18.397   7.371   6.967  0.47 42.43 LIG 0.02  C 
ATOM     12  CB  PRO C  78      19.068   7.684   8.218  0.47 42.06 LIG 0.03  C 
BRANCH 10 13
ATOM     13  C   PRO C  78      20.256   9.871   8.888  0.47 54.03 LIG 0.24  C 
ATOM     14  N   PRO C  79      20.472   9.798  10.198  0.47 54.03 LIG-0.34  N 
ATOM     15  CD  PRO C  79      19.268   9.664  11.025  0.47 49.78 LIG 0.13  C 
ATOM     16  CA  PRO C  79      21.459  10.661  10.852  0.47 62.24 LIG 0.17  C 
ATOM     17  CG  PRO C  79      19.604  10.413  12.228  0.47 51.96 LIG 0.02  C 
ATOM     18  CB  PRO C  79      21.027  10.627  12.288  0.47 58.89 LIG 0.04  C 
ATOM     19 O    PRO C  78      20.947  10.514   8.140  0.47 60.82 LIG-0.27  OA
BRANCH 16 20
ATOM     20  C   PRO C  79      22.913  10.267  10.745  0.47 69.87 LIG 0.22  C 
ATOM     21 O    PRO C  79      23.669  10.728  11.564  0.47 73.23 LIG-0.29  OA
ENDBRANCH 16 20
ENDBRANCH 10 13
ENDBRANCH 5 6
BRANCH 5 22
ATOM     22  CB  VAL C  77      19.009  12.349   4.786  0.47 43.60 LIG 0.01  C 
ATOM     23  CG2 VAL C  77      18.111  13.559   5.047  0.47 46.41 LIG 0.01  C 
ATOM     24  CG1 VAL C  77      19.447  12.389   3.316  0.47 37.55 LIG 0.01  C 
ENDBRANCH 5 22
ENDBRANCH 3 5
BRANCH 1 25
ATOM     25  CA  PRO C  76      14.583  10.430   4.531  0.47 40.28 LIG 0.18  C 
ATOM     26  N   PRO C  76      14.170   9.362   3.647  0.47 33.79 LIG-0.34  N 
ATOM     27  CD  PRO C  76      13.117   8.553   4.262  0.47 35.40 LIG 0.13  C 
ATOM     28  C   PRO C  75      14.214   9.523   2.345  0.47 33.84 LIG 0.24  C 
ATOM     29  CG  PRO C  76      13.179   8.959   5.670  0.47 37.80 LIG 0.02  C 
ATOM     30  CB  PRO C  76      13.761  10.193   5.804  0.47 38.87 LIG 0.04  C 
ATOM     31 O    PRO C  75      14.616  10.513   1.842  0.47 33.93 LIG-0.27  OA
BRANCH 28 32
ATOM     32  CA  PRO C  75      13.653   8.423   1.477  0.47 46.85 LIG 0.18  C 
ATOM     33  CB  PRO C  75      14.572   7.195   1.478  0.47 48.68 LIG 0.04  C 
ATOM     34  CG  PRO C  75      14.792   6.839   0.045  0.47 51.42 LIG 0.02  C 
ATOM     35  CD  PRO C  75      13.924   7.676  -0.789  0.47 56.17 LIG 0.13  C 
ATOM     36  N   PRO C  75      13.635   8.815   0.076  0.47 56.81 LIG-0.34  N 
ATOM     37  C   PRO C  74      12.695   9.592  -0.460  0.47 61.55 LIG 0.26  C 
ATOM     38 O    PRO C  74      11.767  10.086   0.150  0.47 61.23 LIG-0.27  OA
BRANCH 37 39
ATOM     39  CA  PRO C  74      12.810   9.862  -1.944  0.47 57.58 LIG 0.35  C 
ATOM     40  N   PRO C  74      11.490   9.976  -2.569  0.47 57.74 LIG 0.32  N 
ATOM     41  CD  PRO C  74      11.408  11.200  -3.368  0.47 56.21 LIG 0.32  C 
ATOM     42  CG  PRO C  74      12.328  12.102  -2.637  0.47 52.80 LIG 0.04  C 
ATOM     43  CB  PRO C  74      13.427  11.237  -2.189  0.47 50.35 LIG 0.05  C 
ENDBRANCH 37 39
ENDBRANCH 28 32
ENDBRANCH 1 25
TORSDOF 8
ENDMDL
MODEL 19
USER: ADFR SOLUTION from run 125
USER: SCORE 10.983984 LL:  -3.636 LR:  -7.354 RR:   0.000 FEB:  -4.967
USER: RMSD 2.552294
USER: SEED 124
USER: STATUS no improvement in best in 9 clusters for 5 generations
USER: GENES 10
USER: genes 0 Translation |==|  0.44076 0.43589 0.46126
USER: genes 1 Rotation |==|  0.50127 0.51239 0.45539 0.99785
USER: genes 2 Torsion [C]-N--CA-[C] |==|  0.81482
USER: genes 3 Torsion [N]-CA--C-[N] |==|  0.40949
USER: genes 4 Torsion [N]-CA--C-[N] |==|  0.34305
USER: genes 5 Torsion [N]-CA--C-[O] |==|  0.45224
USER: genes 6 Torsion [N]-CA--CB-[CG2] |==|  0.78696
USER: genes 7 Torsion [O]-C--CA-[N] |==|  0.89647
USER: genes 8 Torsion [N]-C--CA-[N] |==|  0.33813
USER: genes 9 Torsion [N]-C--CA-[CB] |==|  0.81486
ROOT
ATOM      1  C   PRO C  76      15.095   8.331   4.928  0.47 42.64 LIG 0.24  C 
ATOM      2 O    PRO C  76      15.188   7.269   4.408  0.47 44.95 LIG-0.27  OA
ATOM      3  N   VAL C  77      16.008   8.815   5.731  0.47 42.25 LIG-0.35  N 
ATOM      4 H    VAL C  77      15.994   9.595   6.093  0.47 42.25 LIG 0.16  HD
ENDROOT
BRANCH 3 5
ATOM      5  CA  VAL C  77      17.138   7.995   6.050  0.47 44.36 LIG 0.17  C 
BRANCH 5 6
ATOM      6  C   VAL C  77      16.584   6.849   6.856  0.47 50.22 LIG 0.22  C 
ATOM      7 O    VAL C  77      15.591   7.014   7.510  0.47 51.68 LIG-0.28  OA
ATOM      8 N    PRO C  78      17.128   5.660   6.780  0.47 51.29 LIG-0.24  NA
ATOM      9  CD  PRO C  78      17.191   5.184   5.390  0.47 47.28 LIG 0.10  C 
ATOM     10  CA  PRO C  78      16.567   4.645   7.652  0.47 47.56 LIG 0.16  C 
ATOM     11  CG  PRO C  78      16.395   3.958   5.420  0.47 42.43 LIG 0.02  C 
ATOM     12  CB  PRO C  78      16.519   3.413   6.761  0.47 42.06 LIG 0.03  C 
BRANCH 10 13
ATOM     13  C   PRO C  78      17.447   4.565   8.873  0.47 54.03 LIG 0.24  C 
ATOM     14  N   PRO C  79      16.938   4.740  10.089  0.47 54.03 LIG-0.34  N 
ATOM     15  CD  PRO C  79      15.762   5.615  10.158  0.47 49.78 LIG 0.13  C 
ATOM     16  CA  PRO C  79      17.807   4.945  11.251  0.47 62.24 LIG 0.17  C 
ATOM     17  CG  PRO C  79      15.923   6.291  11.437  0.47 51.96 LIG 0.02  C 
ATOM     18  CB  PRO C  79      16.883   5.585  12.245  0.47 58.89 LIG 0.04  C 
ATOM     19 O    PRO C  78      18.622   4.403   8.666  0.47 60.82 LIG-0.27  OA
BRANCH 16 20
ATOM     20  C   PRO C  79      18.455   3.726  11.864  0.47 69.87 LIG 0.22  C 
ATOM     21 O    PRO C  79      19.396   3.913  12.594  0.47 73.23 LIG-0.29  OA
ENDBRANCH 16 20
ENDBRANCH 10 13
ENDBRANCH 5 6
BRANCH 5 22
ATOM     22  CB  VAL C  77      18.266   8.847   6.661  0.47 43.60 LIG 0.01  C 
ATOM     23  CG2 VAL C  77      18.936   9.598   5.509  0.47 46.41 LIG 0.01  C 
ATOM     24  CG1 VAL C  77      19.336   8.008   7.370  0.47 37.55 LIG 0.01  C 
ENDBRANCH 5 22
ENDBRANCH 3 5
BRANCH 1 25
ATOM     25  CA  PRO C  76      13.902   9.113   4.602  0.47 40.28 LIG 0.18  C 
ATOM     26  N   PRO C  76      13.607   8.886   3.204  0.47 33.79 LIG-0.34  N 
ATOM     27  CD  PRO C  76      12.263   8.332   3.037  0.47 35.40 LIG 0.13  C 
ATOM     28  C   PRO C  75      14.130   9.659   2.281  0.47 33.84 LIG 0.24  C 
ATOM     29  CG  PRO C  76      11.918   7.906   4.397  0.47 37.80 LIG 0.02  C 
ATOM     30  CB  PRO C  76      12.660   8.583   5.331  0.47 38.87 LIG 0.04  C 
ATOM     31 O    PRO C  75      14.877  10.537   2.539  0.47 33.93 LIG-0.27  OA
BRANCH 28 32
ATOM     32  CA  PRO C  75      13.689   9.454   0.853  0.47 46.85 LIG 0.18  C 
ATOM     33  CB  PRO C  75      14.890   9.193  -0.065  0.47 48.68 LIG 0.04  C 
ATOM     34  CG  PRO C  75      14.747  10.134  -1.215  0.47 51.42 LIG 0.02  C 
ATOM     35  CD  PRO C  75      13.451  10.810  -1.115  0.47 56.17 LIG 0.13  C 
ATOM     36  N   PRO C  75      13.115  10.671   0.299  0.47 56.81 LIG-0.34  N 
ATOM     37  C   PRO C  74      11.865  11.068   0.531  0.47 61.55 LIG 0.26  C 
ATOM     38 O    PRO C  74      11.070  10.489   1.247  0.47 61.23 LIG-0.27  OA
BRANCH 37 39
ATOM     39  CA  PRO C  74      11.421  12.336  -0.163  0.47 57.58 LIG 0.35  C 
ATOM     40  N   PRO C  74      10.030  12.662   0.161  0.47 57.74 LIG 0.32  N 
ATOM     41  CD  PRO C  74       9.923  14.054   0.602  0.47 56.21 LIG 0.32  C 
ATOM     42  CG  PRO C  74      11.247  14.279   1.225  0.47 52.80 LIG 0.04  C 
ATOM     43  CB  PRO C  74      12.192  13.538   0.379  0.47 50.35 LIG 0.05  C 
ENDBRANCH 37 39
ENDBRANCH 28 32
ENDBRANCH 1 25
TORSDOF 8
ENDMDL
MODEL 20
USER: ADFR SOLUTION from run 121
USER: SCORE 10.524316 LL:  -3.324 LR:  -7.321 RR:   0.000 FEB:  -4.935
USER: RMSD 2.679113
USER: SEED 120
USER: STATUS no improvement in best in 11 clusters for 5 generations
USER: GENES 10
USER: genes 0 Translation |==|  0.46746 0.38485 0.43459
USER: genes 1 Rotation |==|  0.45887 0.48933 0.54882 0.99579
USER: genes 2 Torsion [C]-N--CA-[C] |==|  0.73185
USER: genes 3 Torsion [N]-CA--C-[N] |==|  0.42822
USER: genes 4 Torsion [N]-CA--C-[N] |==|  0.54345
USER: genes 5 Torsion [N]-CA--C-[O] |==|  0.81958
USER: genes 6 Torsion [N]-CA--CB-[CG2] |==|  0.43226
USER: genes 7 Torsion [O]-C--CA-[N] |==|  0.81933
USER: genes 8 Torsion [N]-C--CA-[N] |==|  0.32400
USER: genes 9 Torsion [N]-C--CA-[CB] |==|  0.64452
ROOT
ATOM      1  C   PRO C  76      15.535   7.489   4.268  0.47 42.64 LIG 0.24  C 
ATOM      2 O    PRO C  76      16.060   6.474   3.951  0.47 44.95 LIG-0.27  OA
ATOM      3  N   VAL C  77      16.121   8.393   5.011  0.47 42.25 LIG-0.35  N 
ATOM      4 H    VAL C  77      15.788   9.156   5.227  0.47 42.25 LIG 0.16  HD
ENDROOT
BRANCH 3 5
ATOM      5  CA  VAL C  77      17.429   8.112   5.522  0.47 44.36 LIG 0.17  C 
BRANCH 5 6
ATOM      6  C   VAL C  77      17.210   7.592   6.918  0.47 50.22 LIG 0.22  C 
ATOM      7 O    VAL C  77      16.187   7.852   7.490  0.47 51.68 LIG-0.28  OA
ATOM      8 N    PRO C  78      18.085   6.794   7.475  0.47 51.29 LIG-0.24  NA
ATOM      9  CD  PRO C  78      18.344   5.611   6.639  0.47 47.28 LIG 0.10  C 
ATOM     10  CA  PRO C  78      17.817   6.411   8.849  0.47 47.56 LIG 0.16  C 
ATOM     11  CG  PRO C  78      17.950   4.500   7.502  0.47 42.43 LIG 0.02  C 
ATOM     12  CB  PRO C  78      18.175   4.933   8.871  0.47 42.06 LIG 0.03  C 
BRANCH 10 13
ATOM     13  C   PRO C  78      18.630   7.318   9.736  0.47 54.03 LIG 0.24  C 
ATOM     14  N   PRO C  79      18.831   7.016  11.014  0.47 54.03 LIG-0.34  N 
ATOM     15  CD  PRO C  79      17.771   6.224  11.647  0.47 49.78 LIG 0.13  C 
ATOM     16  CA  PRO C  79      19.369   8.006  11.952  0.47 62.24 LIG 0.17  C 
ATOM     17  CG  PRO C  79      17.750   6.724  13.014  0.47 51.96 LIG 0.02  C 
ATOM     18  CB  PRO C  79      18.961   7.454  13.285  0.47 58.89 LIG 0.04  C 
ATOM     19 O    PRO C  78      19.013   8.342   9.231  0.47 60.82 LIG-0.27  OA
BRANCH 16 20
ATOM     20  C   PRO C  79      20.860   8.249  11.932  0.47 69.87 LIG 0.22  C 
ATOM     21 O    PRO C  79      21.570   7.333  12.261  0.47 73.23 LIG-0.29  OA
ENDBRANCH 16 20
ENDBRANCH 10 13
ENDBRANCH 5 6
BRANCH 5 22
ATOM     22  CB  VAL C  77      18.355   9.326   5.325  0.47 43.60 LIG 0.01  C 
ATOM     23  CG2 VAL C  77      19.461   9.225   6.377  0.47 46.41 LIG 0.01  C 
ATOM     24  CG1 VAL C  77      17.636  10.668   5.516  0.47 37.55 LIG 0.01  C 
ENDBRANCH 5 22
ENDBRANCH 3 5
BRANCH 1 25
ATOM     25  CA  PRO C  76      14.183   7.710   3.756  0.47 40.28 LIG 0.18  C 
ATOM     26  N   PRO C  76      14.282   7.825   2.317  0.47 33.79 LIG-0.34  N 
ATOM     27  CD  PRO C  76      13.460   6.810   1.655  0.47 35.40 LIG 0.13  C 
ATOM     28  C   PRO C  75      14.478   8.995   1.756  0.47 33.84 LIG 0.24  C 
ATOM     29  CG  PRO C  76      13.164   5.874   2.743  0.47 37.80 LIG 0.02  C 
ATOM     30  CB  PRO C  76      13.288   6.482   3.966  0.47 38.87 LIG 0.04  C 
ATOM     31 O    PRO C  75      14.615   9.985   2.386  0.47 33.93 LIG-0.27  OA
BRANCH 28 32
ATOM     32  CA  PRO C  75      14.447   9.072   0.249  0.47 46.85 LIG 0.18  C 
ATOM     33  CB  PRO C  75      15.688   9.792  -0.294  0.47 48.68 LIG 0.04  C 
ATOM     34  CG  PRO C  75      15.184  10.836  -1.234  0.47 51.42 LIG 0.02  C 
ATOM     35  CD  PRO C  75      13.739  10.661  -1.406  0.47 56.17 LIG 0.13  C 
ATOM     36  N   PRO C  75      13.354   9.913  -0.214  0.47 56.81 LIG-0.34  N 
ATOM     37  C   PRO C  74      12.091   9.499  -0.301  0.47 61.55 LIG 0.26  C 
ATOM     38 O    PRO C  74      11.695   8.394   0.018  0.47 61.23 LIG-0.27  OA
BRANCH 37 39
ATOM     39  CA  PRO C  74      11.092  10.495  -0.845  0.47 57.58 LIG 0.35  C 
ATOM     40  N   PRO C  74      10.476  10.011  -2.082  0.47 57.74 LIG 0.32  N 
ATOM     41  CD  PRO C  74       9.017  10.105  -1.998  0.47 56.21 LIG 0.32  C 
ATOM     42  CG  PRO C  74       8.785   9.927  -0.546  0.47 52.80 LIG 0.04  C 
ATOM     43  CB  PRO C  74       9.901  10.627   0.103  0.47 50.35 LIG 0.05  C 
ENDBRANCH 37 39
ENDBRANCH 28 32
ENDBRANCH 1 25
TORSDOF 8
ENDMDL
