MODEL 1
USER: ADFR SOLUTION from run 28
USER: SCORE 15.729264 LL:  -3.826 LR: -12.180 RR:   0.000 FEB:  -8.600
USER: RMSD 2.069067
USER: SEED 27
USER: STATUS no improvement in best in 2 clusters for 5 generations
USER: GENES 14
USER: genes 0 Translation |==|  0.47806 0.42775 0.50283
USER: genes 1 Rotation |==|  0.45093 0.53562 0.53386 0.99515
USER: genes 2 Torsion [N]-CA--C-[O] |==|  0.55807
USER: genes 3 Torsion [C]-N--CA-[CB] |==|  0.30216
USER: genes 4 Torsion [N]-CA--CB-[CG] |==|  0.03679
USER: genes 5 Torsion [CA]-CB--CG-[CD2] |==|  0.28900
USER: genes 6 Torsion [N]-CA--C-[O] |==|  0.55022
USER: genes 7 Torsion [N]-C--CA-[N] |==|  0.31137
USER: genes 8 Torsion [C]-CA--N-[C] |==|  0.81667
USER: genes 9 Torsion [N]-C--CA-[N] |==|  0.14558
USER: genes 10 Torsion [C]-CA--CB-[CG] |==|  0.85258
USER: genes 11 Torsion [CA]-CB--CG-[OD2] |==|  0.83064
USER: genes 12 Torsion [C]-CA--CB-[CG1] |==|  0.62149
USER: genes 13 Torsion [CA]-CB--CG1-[CD1] |==|  0.53736
ROOT
ATOM      1  C   ILE B 176      -0.769 -31.551  14.086  1.00 22.90 LIG 0.24  C 
ATOM      2 O    ILE B 176       0.359 -31.183  14.462  1.00 27.22 LIG-0.27  OA
ATOM      3  N   PRO B 177      -1.721 -31.927  14.955  1.00 22.83 LIG-0.34  N 
ATOM      4  CA  PRO B 177      -1.545 -31.819  16.414  1.00 24.67 LIG 0.18  C 
ATOM      5  CB  PRO B 177      -2.987 -31.754  16.929  1.00 26.20 LIG 0.04  C 
ATOM      6  CG  PRO B 177      -3.717 -32.634  15.960  1.00 24.14 LIG 0.02  C 
ATOM      7  CD  PRO B 177      -3.097 -32.350  14.610  1.00 21.80 LIG 0.13  C 
ENDROOT
BRANCH 4 8
ATOM      8  C   PRO B 177      -0.810 -33.007  17.038  1.00 25.32 LIG 0.24  C 
ATOM      9 O    PRO B 177      -0.930 -33.240  18.242  1.00 32.00 LIG-0.27  OA
ATOM     10  N   PHE B 178      -0.042 -33.733  16.239  1.00 24.88 LIG-0.34  N 
ATOM     11 H    PHE B 178       0.018 -33.600  15.391  1.00 24.88 LIG 0.16  HD
BRANCH 10 12
ATOM     12  CA  PHE B 178       0.784 -34.836  16.725  1.00 25.09 LIG 0.19  C 
BRANCH 12 13
ATOM     13  CB  PHE B 178       0.241 -36.215  16.285  1.00 24.80 LIG 0.07  C 
BRANCH 13 14
ATOM     14  CG  PHE B 178      -0.822 -36.148  15.201  1.00 21.99 LIG-0.06  A 
ATOM     15  CD2 PHE B 178      -0.546 -36.469  13.859  1.00 23.17 LIG 0.01  A 
ATOM     16  CE2 PHE B 178      -1.550 -36.399  12.875  1.00 21.52 LIG 0.00  A 
ATOM     17  CZ  PHE B 178      -2.815 -36.034  13.250  1.00 22.39 LIG 0.00  A 
ATOM     18  CE1 PHE B 178      -3.122 -35.736  14.565  1.00 21.58 LIG 0.00  A 
ATOM     19  CD1 PHE B 178      -2.131 -35.809  15.539  1.00 21.72 LIG 0.01  A 
ENDBRANCH 13 14
ENDBRANCH 12 13
BRANCH 12 20
ATOM     20  C   PHE B 178       2.225 -34.612  16.296  1.00 24.87 LIG 0.20  C 
ATOM     21 OXT  PHE B 178       2.560 -33.485  15.914  1.00 27.82 LIG-0.65  OA
ATOM     22 O    PHE B 178       3.044 -35.530  16.289  1.00 30.25 LIG-0.65  OA
ENDBRANCH 12 20
ENDBRANCH 10 12
ENDBRANCH 4 8
BRANCH 1 23
ATOM     23  CA  ILE B 176      -1.098 -31.579  12.595  1.00 23.71 LIG 0.18  C 
BRANCH 23 24
ATOM     24  N   ILE B 176      -1.128 -30.200  12.129  1.00 24.90 LIG-0.34  N 
ATOM     25  C   ASP B 175      -2.057 -29.348  12.560  1.00 27.89 LIG 0.26  C 
ATOM     26 O    ASP B 175      -2.922 -29.671  13.374  1.00 29.58 LIG-0.27  OA
ATOM     27 H    ILE B 176      -0.509 -29.997  11.567  1.00 24.90 LIG 0.16  HD
BRANCH 25 28
ATOM     28  CA  ASP B 175      -2.022 -27.925  11.989  1.00 34.92 LIG 0.41  C 
ATOM     29  N   ASP B 175      -2.001 -27.883  10.493  1.00 43.46 LIG 0.61  N 
BRANCH 28 30
ATOM     30  CB  ASP B 175      -3.214 -27.107  12.520  1.00 38.90 LIG 0.16  C 
BRANCH 30 31
ATOM     31  CG  ASP B 175      -4.566 -27.799  12.293  1.00 38.28 LIG 0.17  C 
ATOM     32 OD2  ASP B 175      -4.922 -28.042  11.107  1.00 42.70 LIG-0.65  OA
ATOM     33 OD1  ASP B 175      -5.261 -28.124  13.289  1.00 44.78 LIG-0.65  OA
ENDBRANCH 30 31
ENDBRANCH 28 30
ENDBRANCH 25 28
ENDBRANCH 23 24
BRANCH 23 34
ATOM     34  CB  ILE B 176      -0.090 -32.443  11.821  1.00 23.83 LIG 0.01  C 
ATOM     35  CG2 ILE B 176      -0.698 -33.795  11.522  1.00 26.43 LIG 0.01  C 
BRANCH 34 36
ATOM     36  CG1 ILE B 176       0.322 -31.722  10.526  1.00 26.50 LIG 0.00  C 
ATOM     37  CD1 ILE B 176       1.050 -32.600   9.539  1.00 30.68 LIG 0.01  C 
ENDBRANCH 34 36
ENDBRANCH 23 34
ENDBRANCH 1 23
TORSDOF 12
ENDMDL
MODEL 2
USER: ADFR SOLUTION from run 20
USER: SCORE 15.516329 LL:  -4.510 LR: -11.097 RR:   0.000 FEB:  -7.518
USER: RMSD 1.596189
USER: SEED 19
USER: STATUS no improvement in best in 1 clusters for 5 generations
USER: GENES 14
USER: genes 0 Translation |==|  0.43731 0.47471 0.52168
USER: genes 1 Rotation |==|  0.44904 0.53604 0.58998 0.98786
USER: genes 2 Torsion [N]-CA--C-[O] |==|  0.50537
USER: genes 3 Torsion [C]-N--CA-[CB] |==|  0.30575
USER: genes 4 Torsion [N]-CA--CB-[CG] |==|  0.08989
USER: genes 5 Torsion [CA]-CB--CG-[CD2] |==|  0.28694
USER: genes 6 Torsion [N]-CA--C-[O] |==|  0.36956
USER: genes 7 Torsion [N]-C--CA-[N] |==|  0.35857
USER: genes 8 Torsion [C]-CA--N-[C] |==|  0.75747
USER: genes 9 Torsion [N]-C--CA-[N] |==|  0.80462
USER: genes 10 Torsion [C]-CA--CB-[CG] |==|  0.62186
USER: genes 11 Torsion [CA]-CB--CG-[OD2] |==|  0.34636
USER: genes 12 Torsion [C]-CA--CB-[CG1] |==|  0.21158
USER: genes 13 Torsion [CA]-CB--CG1-[CD1] |==|  0.45593
ROOT
ATOM      1  C   ILE B 176      -1.380 -30.565  14.397  1.00 22.90 LIG 0.24  C 
ATOM      2 O    ILE B 176      -0.354 -29.956  14.748  1.00 27.22 LIG-0.27  OA
ATOM      3  N   PRO B 177      -2.202 -31.147  15.286  1.00 22.83 LIG-0.34  N 
ATOM      4  CA  PRO B 177      -2.017 -31.005  16.741  1.00 24.67 LIG 0.18  C 
ATOM      5  CB  PRO B 177      -3.423 -31.266  17.292  1.00 26.20 LIG 0.04  C 
ATOM      6  CG  PRO B 177      -3.963 -32.284  16.333  1.00 24.14 LIG 0.02  C 
ATOM      7  CD  PRO B 177      -3.457 -31.865  14.971  1.00 21.80 LIG 0.13  C 
ENDROOT
BRANCH 4 8
ATOM      8  C   PRO B 177      -1.020 -32.001  17.337  1.00 25.32 LIG 0.24  C 
ATOM      9 O    PRO B 177      -0.807 -32.006  18.550  1.00 32.00 LIG-0.27  OA
ATOM     10  N   PHE B 178      -0.398 -32.815  16.495  1.00 24.88 LIG-0.34  N 
ATOM     11 H    PHE B 178      -0.568 -32.843  15.653  1.00 24.88 LIG 0.16  HD
BRANCH 10 12
ATOM     12  CA  PHE B 178       0.643 -33.748  16.922  1.00 25.09 LIG 0.19  C 
BRANCH 12 13
ATOM     13  CB  PHE B 178       0.177 -35.220  16.850  1.00 24.80 LIG 0.07  C 
BRANCH 13 14
ATOM     14  CG  PHE B 178      -0.811 -35.507  15.732  1.00 21.99 LIG-0.06  A 
ATOM     15  CD2 PHE B 178      -0.429 -36.155  14.543  1.00 23.17 LIG 0.01  A 
ATOM     16  CE2 PHE B 178      -1.365 -36.409  13.522  1.00 21.52 LIG 0.00  A 
ATOM     17  CZ  PHE B 178      -2.668 -36.034  13.716  1.00 22.39 LIG 0.00  A 
ATOM     18  CE1 PHE B 178      -3.077 -35.417  14.883  1.00 21.58 LIG 0.00  A 
ATOM     19  CD1 PHE B 178      -2.153 -35.170  15.894  1.00 21.72 LIG 0.01  A 
ENDBRANCH 13 14
ENDBRANCH 12 13
BRANCH 12 20
ATOM     20  C   PHE B 178       1.905 -33.494  16.116  1.00 24.87 LIG 0.20  C 
ATOM     21 OXT  PHE B 178       1.816 -33.409  14.886  1.00 27.82 LIG-0.65  OA
ATOM     22 O    PHE B 178       3.008 -33.409  16.657  1.00 30.25 LIG-0.65  OA
ENDBRANCH 12 20
ENDBRANCH 10 12
ENDBRANCH 4 8
BRANCH 1 23
ATOM     23  CA  ILE B 176      -1.733 -30.662  12.914  1.00 23.71 LIG 0.18  C 
BRANCH 23 24
ATOM     24  N   ILE B 176      -1.683 -29.314  12.365  1.00 24.90 LIG-0.34  N 
ATOM     25  C   ASP B 175      -2.747 -28.515  12.407  1.00 27.89 LIG 0.26  C 
ATOM     26 O    ASP B 175      -3.814 -28.860  12.914  1.00 29.58 LIG-0.27  OA
ATOM     27 H    ILE B 176      -0.925 -29.094  12.023  1.00 24.90 LIG 0.16  HD
BRANCH 25 28
ATOM     28  CA  ASP B 175      -2.604 -27.123  11.776  1.00 34.92 LIG 0.41  C 
ATOM     29  N   ASP B 175      -1.711 -26.207  12.553  1.00 43.46 LIG 0.61  N 
BRANCH 28 30
ATOM     30  CB  ASP B 175      -2.099 -27.243  10.327  1.00 38.90 LIG 0.16  C 
BRANCH 30 31
ATOM     31  CG  ASP B 175      -0.999 -26.226   9.988  1.00 38.28 LIG 0.17  C 
ATOM     32 OD2  ASP B 175       0.098 -26.659   9.539  1.00 42.70 LIG-0.65  OA
ATOM     33 OD1  ASP B 175      -1.231 -25.000  10.142  1.00 44.78 LIG-0.65  OA
ENDBRANCH 30 31
ENDBRANCH 28 30
ENDBRANCH 25 28
ENDBRANCH 23 24
BRANCH 23 34
ATOM     34  CB  ILE B 176      -0.793 -31.633  12.184  1.00 23.83 LIG 0.01  C 
ATOM     35  CG2 ILE B 176       0.639 -31.356  12.583  1.00 26.43 LIG 0.01  C 
BRANCH 34 36
ATOM     36  CG1 ILE B 176      -1.189 -33.082  12.513  1.00 26.50 LIG 0.00  C 
ATOM     37  CD1 ILE B 176      -0.599 -34.109  11.579  1.00 30.68 LIG 0.01  C 
ENDBRANCH 34 36
ENDBRANCH 23 34
ENDBRANCH 1 23
TORSDOF 12
ENDMDL
MODEL 3
USER: ADFR SOLUTION from run 111
USER: SCORE 14.591639 LL:  -4.119 LR: -10.484 RR:   0.000 FEB:  -6.904
USER: RMSD 3.902617
USER: SEED 110
USER: STATUS no improvement in best in 6 clusters for 5 generations
USER: GENES 14
USER: genes 0 Translation |==|  0.60101 0.40225 0.50437
USER: genes 1 Rotation |==|  0.49054 0.51343 0.42311 0.99378
USER: genes 2 Torsion [N]-CA--C-[O] |==|  0.60137
USER: genes 3 Torsion [C]-N--CA-[CB] |==|  0.20363
USER: genes 4 Torsion [N]-CA--CB-[CG] |==|  0.08526
USER: genes 5 Torsion [CA]-CB--CG-[CD2] |==|  0.20863
USER: genes 6 Torsion [N]-CA--C-[O] |==|  0.22410
USER: genes 7 Torsion [N]-C--CA-[N] |==|  0.42049
USER: genes 8 Torsion [C]-CA--N-[C] |==|  0.80620
USER: genes 9 Torsion [N]-C--CA-[N] |==|  0.61935
USER: genes 10 Torsion [C]-CA--CB-[CG] |==|  0.81538
USER: genes 11 Torsion [CA]-CB--CG-[OD2] |==|  0.94131
USER: genes 12 Torsion [C]-CA--CB-[CG1] |==|  0.59668
USER: genes 13 Torsion [CA]-CB--CG1-[CD1] |==|  0.79618
ROOT
ATOM      1  C   ILE B 176       1.075 -32.087  14.111  1.00 22.90 LIG 0.24  C 
ATOM      2 O    ILE B 176       2.185 -32.287  14.637  1.00 27.22 LIG-0.27  OA
ATOM      3  N   PRO B 177      -0.062 -32.095  14.825  1.00 22.83 LIG-0.34  N 
ATOM      4  CA  PRO B 177      -0.072 -32.221  16.293  1.00 24.67 LIG 0.18  C 
ATOM      5  CB  PRO B 177      -1.410 -31.587  16.683  1.00 26.20 LIG 0.04  C 
ATOM      6  CG  PRO B 177      -2.293 -31.958  15.530  1.00 24.14 LIG 0.02  C 
ATOM      7  CD  PRO B 177      -1.422 -31.838  14.299  1.00 21.80 LIG 0.13  C 
ENDROOT
BRANCH 4 8
ATOM      8  C   PRO B 177      -0.004 -33.668  16.789  1.00 25.32 LIG 0.24  C 
ATOM      9 O    PRO B 177      -0.634 -34.002  17.794  1.00 32.00 LIG-0.27  OA
ATOM     10  N   PHE B 178       0.768 -34.506  16.113  1.00 24.88 LIG-0.34  N 
ATOM     11 H    PHE B 178       1.181 -34.290  15.390  1.00 24.88 LIG 0.16  HD
BRANCH 10 12
ATOM     12  CA  PHE B 178       0.993 -35.887  16.533  1.00 25.09 LIG 0.19  C 
BRANCH 12 13
ATOM     13  CB  PHE B 178      -0.243 -36.784  16.289  1.00 24.80 LIG 0.07  C 
BRANCH 13 14
ATOM     14  CG  PHE B 178      -1.088 -36.368  15.097  1.00 21.99 LIG-0.06  A 
ATOM     15  CD2 PHE B 178      -0.685 -36.611  13.771  1.00 23.17 LIG 0.01  A 
ATOM     16  CE2 PHE B 178      -1.488 -36.215  12.684  1.00 21.52 LIG 0.00  A 
ATOM     17  CZ  PHE B 178      -2.688 -35.607  12.940  1.00 22.39 LIG 0.00  A 
ATOM     18  CE1 PHE B 178      -3.121 -35.376  14.232  1.00 21.58 LIG 0.00  A 
ATOM     19  CD1 PHE B 178      -2.329 -35.771  15.307  1.00 21.72 LIG 0.01  A 
ENDBRANCH 13 14
ENDBRANCH 12 13
BRANCH 12 20
ATOM     20  C   PHE B 178       2.245 -36.420  15.858  1.00 24.87 LIG 0.20  C 
ATOM     21 OXT  PHE B 178       2.119 -37.159  14.875  1.00 27.82 LIG-0.65  OA
ATOM     22 O    PHE B 178       3.368 -36.162  16.289  1.00 30.25 LIG-0.65  OA
ENDBRANCH 12 20
ENDBRANCH 10 12
ENDBRANCH 4 8
BRANCH 1 23
ATOM     23  CA  ILE B 176       0.986 -31.818  12.610  1.00 23.71 LIG 0.18  C 
BRANCH 23 24
ATOM     24  N   ILE B 176       2.237 -31.195  12.203  1.00 24.90 LIG-0.34  N 
ATOM     25  C   ASP B 175       2.543 -29.955  12.581  1.00 27.89 LIG 0.26  C 
ATOM     26 O    ASP B 175       1.801 -29.280  13.293  1.00 29.58 LIG-0.27  OA
ATOM     27 H    ILE B 176       2.742 -31.691  11.713  1.00 24.90 LIG 0.16  HD
BRANCH 25 28
ATOM     28  CA  ASP B 175       3.872 -29.377  12.077  1.00 34.92 LIG 0.41  C 
ATOM     29  N   ASP B 175       4.633 -28.632  13.128  1.00 43.46 LIG 0.61  N 
BRANCH 28 30
ATOM     30  CB  ASP B 175       4.750 -30.494  11.485  1.00 38.90 LIG 0.16  C 
BRANCH 30 31
ATOM     31  CG  ASP B 175       5.220 -31.510  12.536  1.00 38.28 LIG 0.17  C 
ATOM     32 OD2  ASP B 175       5.223 -31.159  13.748  1.00 42.70 LIG-0.65  OA
ATOM     33 OD1  ASP B 175       5.562 -32.661  12.164  1.00 44.78 LIG-0.65  OA
ENDBRANCH 30 31
ENDBRANCH 28 30
ENDBRANCH 25 28
ENDBRANCH 23 24
BRANCH 23 34
ATOM     34  CB  ILE B 176       0.688 -33.110  11.834  1.00 23.83 LIG 0.01  C 
ATOM     35  CG2 ILE B 176      -0.805 -33.263  11.649  1.00 26.43 LIG 0.01  C 
BRANCH 34 36
ATOM     36  CG1 ILE B 176       1.413 -33.077  10.478  1.00 26.50 LIG 0.00  C 
ATOM     37  CD1 ILE B 176       0.797 -32.136   9.473  1.00 30.68 LIG 0.01  C 
ENDBRANCH 34 36
ENDBRANCH 23 34
ENDBRANCH 1 23
TORSDOF 12
ENDMDL
MODEL 4
USER: ADFR SOLUTION from run 14
USER: SCORE 14.794802 LL:  -4.377 LR: -10.419 RR:   0.000 FEB:  -6.839
USER: RMSD 2.487210
USER: SEED 640402
USER: STATUS no improvement in best in 4 clusters for 5 generations
USER: GENES 14
USER: genes 0 Translation |==|  0.51391 0.43224 0.56306
USER: genes 1 Rotation |==|  0.55316 0.44188 0.53108 0.99278
USER: genes 2 Torsion [N]-CA--C-[O] |==|  0.57816
USER: genes 3 Torsion [C]-N--CA-[CB] |==|  0.21633
USER: genes 4 Torsion [N]-CA--CB-[CG] |==|  0.08177
USER: genes 5 Torsion [CA]-CB--CG-[CD2] |==|  0.25810
USER: genes 6 Torsion [N]-CA--C-[O] |==|  0.52179
USER: genes 7 Torsion [N]-C--CA-[N] |==|  0.39541
USER: genes 8 Torsion [C]-CA--N-[C] |==|  0.82778
USER: genes 9 Torsion [N]-C--CA-[N] |==|  0.28390
USER: genes 10 Torsion [C]-CA--CB-[CG] |==|  0.82626
USER: genes 11 Torsion [CA]-CB--CG-[OD2] |==|  0.40485
USER: genes 12 Torsion [C]-CA--CB-[CG1] |==|  0.37280
USER: genes 13 Torsion [CA]-CB--CG1-[CD1] |==|  0.54530
ROOT
ATOM      1  C   ILE B 176      -0.231 -31.457  15.080  1.00 22.90 LIG 0.24  C 
ATOM      2 O    ILE B 176       0.679 -31.364  15.923  1.00 27.22 LIG-0.27  OA
ATOM      3  N   PRO B 177      -1.388 -32.084  15.348  1.00 22.83 LIG-0.34  N 
ATOM      4  CA  PRO B 177      -1.714 -32.599  16.689  1.00 24.67 LIG 0.18  C 
ATOM      5  CB  PRO B 177      -3.245 -32.642  16.677  1.00 26.20 LIG 0.04  C 
ATOM      6  CG  PRO B 177      -3.548 -32.987  15.250  1.00 24.14 LIG 0.02  C 
ATOM      7  CD  PRO B 177      -2.539 -32.220  14.426  1.00 21.80 LIG 0.13  C 
ENDROOT
BRANCH 4 8
ATOM      8  C   PRO B 177      -1.145 -33.991  16.971  1.00 25.32 LIG 0.24  C 
ATOM      9 O    PRO B 177      -1.719 -34.741  17.763  1.00 32.00 LIG-0.27  OA
ATOM     10  N   PHE B 178      -0.020 -34.323  16.355  1.00 24.88 LIG-0.34  N 
ATOM     11 H    PHE B 178       0.367 -33.821  15.774  1.00 24.88 LIG 0.16  HD
BRANCH 10 12
ATOM     12  CA  PHE B 178       0.676 -35.583  16.606  1.00 25.09 LIG 0.19  C 
BRANCH 12 13
ATOM     13  CB  PHE B 178       0.007 -36.777  15.887  1.00 24.80 LIG 0.07  C 
BRANCH 13 14
ATOM     14  CG  PHE B 178      -0.707 -36.408  14.598  1.00 21.99 LIG-0.06  A 
ATOM     15  CD2 PHE B 178      -0.072 -36.478  13.344  1.00 23.17 LIG 0.01  A 
ATOM     16  CE2 PHE B 178      -0.757 -36.129  12.164  1.00 21.52 LIG 0.00  A 
ATOM     17  CZ  PHE B 178      -2.067 -35.741  12.254  1.00 22.39 LIG 0.00  A 
ATOM     18  CE1 PHE B 178      -2.723 -35.685  13.469  1.00 21.58 LIG 0.00  A 
ATOM     19  CD1 PHE B 178      -2.048 -36.034  14.635  1.00 21.72 LIG 0.01  A 
ENDBRANCH 13 14
ENDBRANCH 12 13
BRANCH 12 20
ATOM     20  C   PHE B 178       2.143 -35.428  16.240  1.00 24.87 LIG 0.20  C 
ATOM     21 OXT  PHE B 178       2.557 -34.310  15.914  1.00 27.82 LIG-0.65  OA
ATOM     22 O    PHE B 178       2.908 -36.392  16.228  1.00 30.25 LIG-0.65  OA
ENDBRANCH 12 20
ENDBRANCH 10 12
ENDBRANCH 4 8
BRANCH 1 23
ATOM     23  CA  ILE B 176      -0.045 -30.843  13.693  1.00 23.71 LIG 0.18  C 
BRANCH 23 24
ATOM     24  N   ILE B 176       0.681 -29.593  13.864  1.00 24.90 LIG-0.34  N 
ATOM     25  C   ASP B 175       0.167 -28.591  14.575  1.00 27.89 LIG 0.26  C 
ATOM     26 O    ASP B 175      -0.929 -28.668  15.128  1.00 29.58 LIG-0.27  OA
ATOM     27 H    ILE B 176       1.448 -29.567  13.475  1.00 24.90 LIG 0.16  HD
BRANCH 25 28
ATOM     28  CA  ASP B 175       0.996 -27.304  14.673  1.00 34.92 LIG 0.41  C 
ATOM     29  N   ASP B 175       0.509 -26.211  13.773  1.00 43.46 LIG 0.61  N 
BRANCH 28 30
ATOM     30  CB  ASP B 175       1.038 -26.805  16.129  1.00 38.90 LIG 0.16  C 
BRANCH 30 31
ATOM     31  CG  ASP B 175      -0.348 -26.434  16.677  1.00 38.28 LIG 0.17  C 
ATOM     32 OD2  ASP B 175      -0.585 -26.647  17.897  1.00 42.70 LIG-0.65  OA
ATOM     33 OD1  ASP B 175      -1.190 -25.909  15.904  1.00 44.78 LIG-0.65  OA
ENDBRANCH 30 31
ENDBRANCH 28 30
ENDBRANCH 25 28
ENDBRANCH 23 24
BRANCH 23 34
ATOM     34  CB  ILE B 176       0.672 -31.819  12.748  1.00 23.83 LIG 0.01  C 
ATOM     35  CG2 ILE B 176       0.720 -33.195  13.374  1.00 26.43 LIG 0.01  C 
BRANCH 34 36
ATOM     36  CG1 ILE B 176      -0.053 -31.853  11.392  1.00 26.50 LIG 0.00  C 
ATOM     37  CD1 ILE B 176       0.311 -33.036  10.530  1.00 30.68 LIG 0.01  C 
ENDBRANCH 34 36
ENDBRANCH 23 34
ENDBRANCH 1 23
TORSDOF 12
ENDMDL
