MODEL 1
USER: ADFR SOLUTION from run 13
USER: SCORE 15.354325 LL:  -3.556 LR: -11.919 RR:   0.000 FEB:  -8.340
USER: RMSD 3.939625
USER: SEED 269744
USER: STATUS no improvement in best in 4 clusters for 5 generations
USER: GENES 14
USER: genes 0 Translation |==|  0.32539 0.54022 0.52600
USER: genes 1 Rotation |==|  0.46282 0.28785 0.33510 0.92002
USER: genes 2 Torsion [N]-C--CA-[N] |==|  0.41208
USER: genes 3 Torsion [C]-CA--CB-[CG] |==|  0.26238
USER: genes 4 Torsion [CA]-CB--CG-[CD2] |==|  0.07833
USER: genes 5 Torsion [C]-CA--N-[C] |==|  0.69147
USER: genes 6 Torsion [N]-C--CA-[N] |==|  0.91028
USER: genes 7 Torsion [C]-CA--CB-[CG] |==|  0.79719
USER: genes 8 Torsion [CA]-CB--CG-[OD2] |==|  0.51241
USER: genes 9 Torsion [N]-CA--C-[N] |==|  0.35832
USER: genes 10 Torsion [C]-N--CA-[CB] |==|  0.22976
USER: genes 11 Torsion [N]-CA--CB-[CG] |==|  0.80372
USER: genes 12 Torsion [CA]-CB--CG-[CD2] |==|  0.38381
USER: genes 13 Torsion [N]-CA--C-[O] |==|  0.24462
ROOT
ATOM      1  C   LEU B 299     -19.349   1.292  14.249  1.00 46.80 LIG 0.24  C 
ATOM      2 O    LEU B 299     -19.227   0.816  13.111  1.00 48.15 LIG-0.27  OA
ATOM      3  N   PRO B 300     -19.777   2.555  14.461  1.00 44.47 LIG-0.34  N 
ATOM      4  CA  PRO B 300     -20.085   3.445  13.330  1.00 41.25 LIG 0.18  C 
ATOM      5  CB  PRO B 300     -21.212   4.318  13.890  1.00 41.07 LIG 0.04  C 
ATOM      6  CG  PRO B 300     -20.872   4.440  15.367  1.00 41.88 LIG 0.02  C 
ATOM      7  CD  PRO B 300     -20.092   3.198  15.759  1.00 43.19 LIG 0.13  C 
ENDROOT
BRANCH 1 8
ATOM      8  CA  LEU B 299     -19.036   0.439  15.492  1.00 51.80 LIG 0.18  C 
BRANCH 8 9
ATOM      9  CB  LEU B 299     -17.617   0.693  16.002  1.00 51.70 LIG 0.04  C 
BRANCH 9 10
ATOM     10  CG  LEU B 299     -17.439   1.735  17.116  1.00 53.57 LIG-0.02  C 
ATOM     11  CD2 LEU B 299     -18.674   1.866  18.003  1.00 54.40 LIG 0.01  C 
ATOM     12  CD1 LEU B 299     -17.076   3.084  16.522  1.00 50.77 LIG 0.01  C 
ENDBRANCH 9 10
ENDBRANCH 8 9
BRANCH 8 13
ATOM     13  N   LEU B 299     -19.294  -1.001  15.311  1.00 58.35 LIG-0.35  N 
ATOM     14  C   ASP B 298     -20.292  -1.611  15.956  1.00 67.04 LIG 0.26  C 
ATOM     15 O    ASP B 298     -21.079  -0.992  16.697  1.00 64.28 LIG-0.27  OA
ATOM     16 H    LEU B 299     -18.758  -1.396  14.767  1.00 58.35 LIG 0.16  HD
BRANCH 14 17
ATOM     17  CA  ASP B 298     -20.451  -3.143  15.753  1.00 70.29 LIG 0.41  C 
ATOM     18  N   ASP B 298     -20.045  -3.631  14.398  1.00 66.44 LIG 0.61  N 
BRANCH 17 19
ATOM     19  CB  ASP B 298     -19.743  -3.949  16.865  1.00 75.12 LIG 0.16  C 
BRANCH 19 20
ATOM     20  CG  ASP B 298     -18.212  -3.932  16.742  1.00 83.78 LIG 0.17  C 
ATOM     21 OD2  ASP B 298     -17.519  -4.615  17.530  1.00 86.97 LIG-0.65  OA
ATOM     22 OD1  ASP B 298     -17.697  -3.228  15.847  1.00 89.47 LIG-0.65  OA
ENDBRANCH 19 20
ENDBRANCH 17 19
ENDBRANCH 14 17
ENDBRANCH 8 13
ENDBRANCH 1 8
BRANCH 4 23
ATOM     23  C   PRO B 300     -18.848   4.286  12.890  1.00 41.91 LIG 0.24  C 
ATOM     24  N   PHE B 301     -18.559   4.251  11.591  1.00 41.99 LIG-0.34  N 
ATOM     25 H    PHE B 301     -19.008   3.771  11.036  1.00 41.99 LIG 0.16  HD
ATOM     26 O    PRO B 300     -18.203   4.941  13.718  1.00 39.52 LIG-0.27  OA
BRANCH 24 27
ATOM     27  CA  PHE B 301     -17.470   5.000  10.942  1.00 41.99 LIG 0.19  C 
BRANCH 27 28
ATOM     28  CB  PHE B 301     -16.119   4.266  11.082  1.00 39.59 LIG 0.07  C 
BRANCH 28 29
ATOM     29  CG  PHE B 301     -15.547   4.266  12.492  1.00 41.19 LIG-0.06  A 
ATOM     30  CD1 PHE B 301     -15.587   5.420  13.263  1.00 38.91 LIG 0.01  A 
ATOM     31  CE1 PHE B 301     -15.062   5.441  14.558  1.00 39.99 LIG 0.00  A 
ATOM     32  CZ  PHE B 301     -14.462   4.307  15.083  1.00 37.57 LIG 0.00  A 
ATOM     33  CE2 PHE B 301     -14.411   3.143  14.320  1.00 41.60 LIG 0.00  A 
ATOM     34  CD2 PHE B 301     -14.956   3.122  13.036  1.00 40.14 LIG 0.01  A 
ENDBRANCH 28 29
ENDBRANCH 27 28
BRANCH 27 35
ATOM     35  C   PHE B 301     -17.837   5.221   9.470  1.00 45.15 LIG 0.20  C 
ATOM     36 O    PHE B 301     -18.496   6.193   9.056  1.00 42.31 LIG-0.65  OA
ATOM     37 OXT  PHE B 301     -17.436   4.401   8.628  1.00 47.06 LIG-0.65  OA
ENDBRANCH 27 35
ENDBRANCH 24 27
ENDBRANCH 4 23
TORSDOF 12
ENDMDL
MODEL 2
USER: ADFR SOLUTION from run 48
USER: SCORE 14.734850 LL:  -3.401 LR: -11.454 RR:   0.000 FEB:  -7.875
USER: RMSD 4.705380
USER: SEED 47
USER: STATUS no improvement in best in 6 clusters for 5 generations
USER: GENES 14
USER: genes 0 Translation |==|  0.33049 0.54542 0.54523
USER: genes 1 Rotation |==|  0.41303 0.31730 0.30712 0.91455
USER: genes 2 Torsion [N]-C--CA-[N] |==|  0.45438
USER: genes 3 Torsion [C]-CA--CB-[CG] |==|  0.76218
USER: genes 4 Torsion [CA]-CB--CG-[CD2] |==|  0.48283
USER: genes 5 Torsion [C]-CA--N-[C] |==|  0.72558
USER: genes 6 Torsion [N]-C--CA-[N] |==|  0.87608
USER: genes 7 Torsion [C]-CA--CB-[CG] |==|  0.76817
USER: genes 8 Torsion [CA]-CB--CG-[OD2] |==|  0.03133
USER: genes 9 Torsion [N]-CA--C-[N] |==|  0.44642
USER: genes 10 Torsion [C]-N--CA-[CB] |==|  0.15115
USER: genes 11 Torsion [N]-CA--CB-[CG] |==|  0.18136
USER: genes 12 Torsion [CA]-CB--CG-[CD2] |==|  0.33906
USER: genes 13 Torsion [N]-CA--C-[O] |==|  0.26718
ROOT
ATOM      1  C   LEU B 299     -19.261   1.386  14.523  1.00 46.80 LIG 0.24  C 
ATOM      2 O    LEU B 299     -19.407   0.819  13.430  1.00 48.15 LIG-0.27  OA
ATOM      3  N   PRO B 300     -19.408   2.720  14.670  1.00 44.47 LIG-0.34  N 
ATOM      4  CA  PRO B 300     -19.714   3.575  13.511  1.00 41.25 LIG 0.18  C 
ATOM      5  CB  PRO B 300     -20.558   4.691  14.135  1.00 41.07 LIG 0.04  C 
ATOM      6  CG  PRO B 300     -19.979   4.842  15.532  1.00 41.88 LIG 0.02  C 
ATOM      7  CD  PRO B 300     -19.393   3.499  15.930  1.00 43.19 LIG 0.13  C 
ENDROOT
BRANCH 1 8
ATOM      8  CA  LEU B 299     -18.925   0.574  15.787  1.00 51.80 LIG 0.18  C 
BRANCH 8 9
ATOM      9  CB  LEU B 299     -17.510   0.871  16.285  1.00 51.70 LIG 0.04  C 
BRANCH 9 10
ATOM     10  CG  LEU B 299     -16.357   0.070  15.662  1.00 53.57 LIG-0.02  C 
ATOM     11  CD2 LEU B 299     -14.986   0.555  16.125  1.00 54.40 LIG 0.01  C 
ATOM     12  CD1 LEU B 299     -16.443   0.111  14.148  1.00 50.77 LIG 0.01  C 
ENDBRANCH 9 10
ENDBRANCH 8 9
BRANCH 8 13
ATOM     13  N   LEU B 299     -19.153  -0.876  15.646  1.00 58.35 LIG-0.35  N 
ATOM     14  C   ASP B 298     -20.267  -1.449  16.110  1.00 67.04 LIG 0.26  C 
ATOM     15 O    ASP B 298     -21.183  -0.789  16.634  1.00 64.28 LIG-0.27  OA
ATOM     16 H    LEU B 299     -18.520  -1.301  15.249  1.00 58.35 LIG 0.16  HD
BRANCH 14 17
ATOM     17  CA  ASP B 298     -20.394  -2.992  15.973  1.00 70.29 LIG 0.41  C 
ATOM     18  N   ASP B 298     -19.985  -3.528  14.637  1.00 66.44 LIG 0.61  N 
BRANCH 17 19
ATOM     19  CB  ASP B 298     -19.662  -3.734  17.113  1.00 75.12 LIG 0.16  C 
BRANCH 19 20
ATOM     20  CG  ASP B 298     -18.159  -3.912  16.852  1.00 83.78 LIG 0.17  C 
ATOM     21 OD2  ASP B 298     -17.615  -3.293  15.909  1.00 86.97 LIG-0.65  OA
ATOM     22 OD1  ASP B 298     -17.514  -4.678  17.600  1.00 89.47 LIG-0.65  OA
ENDBRANCH 19 20
ENDBRANCH 17 19
ENDBRANCH 14 17
ENDBRANCH 8 13
ENDBRANCH 1 8
BRANCH 4 23
ATOM     23  C   PRO B 300     -18.425   4.121  12.826  1.00 41.91 LIG 0.24  C 
ATOM     24  N   PHE B 301     -18.575   4.554  11.576  1.00 41.99 LIG-0.34  N 
ATOM     25 H    PHE B 301     -19.328   4.507  11.164  1.00 41.99 LIG 0.16  HD
ATOM     26 O    PRO B 300     -17.348   4.146  13.435  1.00 39.52 LIG-0.27  OA
BRANCH 24 27
ATOM     27  CA  PHE B 301     -17.513   5.153  10.751  1.00 41.99 LIG 0.19  C 
BRANCH 27 28
ATOM     28  CB  PHE B 301     -16.278   4.229  10.664  1.00 39.59 LIG 0.07  C 
BRANCH 28 29
ATOM     29  CG  PHE B 301     -16.528   2.913   9.941  1.00 41.19 LIG-0.06  A 
ATOM     30  CD1 PHE B 301     -17.499   2.035  10.402  1.00 38.91 LIG 0.01  A 
ATOM     31  CE1 PHE B 301     -17.739   0.820   9.755  1.00 39.99 LIG 0.00  A 
ATOM     32  CZ  PHE B 301     -16.982   0.460   8.651  1.00 37.57 LIG 0.00  A 
ATOM     33  CE2 PHE B 301     -16.003   1.329   8.178  1.00 41.60 LIG 0.00  A 
ATOM     34  CD2 PHE B 301     -15.783   2.550   8.816  1.00 40.14 LIG 0.01  A 
ENDBRANCH 28 29
ENDBRANCH 27 28
BRANCH 27 35
ATOM     35  C   PHE B 301     -18.084   5.455   9.360  1.00 45.15 LIG 0.20  C 
ATOM     36 O    PHE B 301     -18.524   6.568   9.016  1.00 42.31 LIG-0.65  OA
ATOM     37 OXT  PHE B 301     -18.090   4.550   8.511  1.00 47.06 LIG-0.65  OA
ENDBRANCH 27 35
ENDBRANCH 24 27
ENDBRANCH 4 23
TORSDOF 12
ENDMDL
MODEL 3
USER: ADFR SOLUTION from run 121
USER: SCORE 15.597387 LL:  -4.421 LR: -11.267 RR:   0.000 FEB:  -7.687
USER: RMSD 3.024203
USER: SEED 120
USER: STATUS no improvement in best in 8 clusters for 5 generations
USER: GENES 14
USER: genes 0 Translation |==|  0.49328 0.54870 0.57594
USER: genes 1 Rotation |==|  0.55761 0.43807 0.63828 0.97300
USER: genes 2 Torsion [N]-C--CA-[N] |==|  0.43670
USER: genes 3 Torsion [C]-CA--CB-[CG] |==|  0.73505
USER: genes 4 Torsion [CA]-CB--CG-[CD2] |==|  0.54217
USER: genes 5 Torsion [C]-CA--N-[C] |==|  0.61121
USER: genes 6 Torsion [N]-C--CA-[N] |==|  0.41812
USER: genes 7 Torsion [C]-CA--CB-[CG] |==|  0.88695
USER: genes 8 Torsion [CA]-CB--CG-[OD2] |==|  0.83700
USER: genes 9 Torsion [N]-CA--C-[N] |==|  0.13643
USER: genes 10 Torsion [C]-N--CA-[CB] |==|  0.19087
USER: genes 11 Torsion [N]-CA--CB-[CG] |==|  0.11338
USER: genes 12 Torsion [CA]-CB--CG-[CD2] |==|  0.27207
USER: genes 13 Torsion [N]-CA--C-[O] |==|  0.54879
ROOT
ATOM      1  C   LEU B 299     -16.453   1.445  14.960  1.00 46.80 LIG 0.24  C 
ATOM      2 O    LEU B 299     -16.501   1.056  13.784  1.00 48.15 LIG-0.27  OA
ATOM      3  N   PRO B 300     -17.543   1.472  15.757  1.00 44.47 LIG-0.34  N 
ATOM      4  CA  PRO B 300     -18.862   1.071  15.240  1.00 41.25 LIG 0.18  C 
ATOM      5  CB  PRO B 300     -19.536   0.471  16.478  1.00 41.07 LIG 0.04  C 
ATOM      6  CG  PRO B 300     -18.971   1.291  17.628  1.00 41.88 LIG 0.02  C 
ATOM      7  CD  PRO B 300     -17.599   1.784  17.204  1.00 43.19 LIG 0.13  C 
ENDROOT
BRANCH 1 8
ATOM      8  CA  LEU B 299     -15.119   1.897  15.582  1.00 51.80 LIG 0.18  C 
BRANCH 8 9
ATOM      9  CB  LEU B 299     -15.053   3.419  15.721  1.00 51.70 LIG 0.04  C 
BRANCH 9 10
ATOM     10  CG  LEU B 299     -14.359   4.204  14.599  1.00 53.57 LIG-0.02  C 
ATOM     11  CD2 LEU B 299     -14.025   5.638  15.003  1.00 54.40 LIG 0.01  C 
ATOM     12  CD1 LEU B 299     -15.215   4.199  13.345  1.00 50.77 LIG 0.01  C 
ENDBRANCH 9 10
ENDBRANCH 8 9
BRANCH 8 13
ATOM     13  N   LEU B 299     -13.927   1.367  14.893  1.00 58.35 LIG-0.35  N 
ATOM     14  C   ASP B 298     -12.860   0.952  15.581  1.00 67.04 LIG 0.26  C 
ATOM     15 O    ASP B 298     -12.835   0.943  16.826  1.00 64.28 LIG-0.27  OA
ATOM     16 H    LEU B 299     -13.986   1.353  14.036  1.00 58.35 LIG 0.16  HD
BRANCH 14 17
ATOM     17  CA  ASP B 298     -11.625   0.468  14.770  1.00 70.29 LIG 0.41  C 
ATOM     18  N   ASP B 298     -10.314   0.678  15.460  1.00 66.44 LIG 0.61  N 
BRANCH 17 19
ATOM     19  CB  ASP B 298     -11.777  -0.998  14.308  1.00 75.12 LIG 0.16  C 
BRANCH 19 20
ATOM     20  CG  ASP B 298     -12.397  -1.908  15.378  1.00 83.78 LIG 0.17  C 
ATOM     21 OD2  ASP B 298     -11.837  -2.028  16.492  1.00 86.97 LIG-0.65  OA
ATOM     22 OD1  ASP B 298     -13.457  -2.511  15.102  1.00 89.47 LIG-0.65  OA
ENDBRANCH 19 20
ENDBRANCH 17 19
ENDBRANCH 14 17
ENDBRANCH 8 13
ENDBRANCH 1 8
BRANCH 4 23
ATOM     23  C   PRO B 300     -19.659   2.278  14.660  1.00 41.91 LIG 0.24  C 
ATOM     24  N   PHE B 301     -18.992   3.054  13.807  1.00 41.99 LIG-0.34  N 
ATOM     25 H    PHE B 301     -18.166   2.913  13.613  1.00 41.99 LIG 0.16  HD
ATOM     26 O    PRO B 300     -20.837   2.471  14.984  1.00 39.52 LIG-0.27  OA
BRANCH 24 27
ATOM     27  CA  PHE B 301     -19.552   4.218  13.102  1.00 41.99 LIG 0.19  C 
BRANCH 27 28
ATOM     28  CB  PHE B 301     -19.853   5.377  14.077  1.00 39.59 LIG 0.07  C 
BRANCH 28 29
ATOM     29  CG  PHE B 301     -18.791   5.591  15.146  1.00 41.19 LIG-0.06  A 
ATOM     30  CD1 PHE B 301     -18.798   4.822  16.302  1.00 38.91 LIG 0.01  A 
ATOM     31  CE1 PHE B 301     -17.835   5.007  17.298  1.00 39.99 LIG 0.00  A 
ATOM     32  CZ  PHE B 301     -16.869   5.991  17.155  1.00 37.57 LIG 0.00  A 
ATOM     33  CE2 PHE B 301     -16.852   6.772  16.003  1.00 41.60 LIG 0.00  A 
ATOM     34  CD2 PHE B 301     -17.803   6.568  15.003  1.00 40.14 LIG 0.01  A 
ENDBRANCH 28 29
ENDBRANCH 27 28
BRANCH 27 35
ATOM     35  C   PHE B 301     -18.566   4.650  12.009  1.00 45.15 LIG 0.20  C 
ATOM     36 O    PHE B 301     -18.587   5.764  11.455  1.00 42.31 LIG-0.65  OA
ATOM     37 OXT  PHE B 301     -17.675   3.856  11.666  1.00 47.06 LIG-0.65  OA
ENDBRANCH 27 35
ENDBRANCH 24 27
ENDBRANCH 4 23
TORSDOF 12
ENDMDL
MODEL 4
USER: ADFR SOLUTION from run 140
USER: SCORE 14.521790 LL:  -3.669 LR: -11.046 RR:   0.000 FEB:  -7.467
USER: RMSD 3.757046
USER: SEED 139
USER: STATUS no improvement in best in 8 clusters for 5 generations
USER: GENES 14
USER: genes 0 Translation |==|  0.49009 0.53315 0.57685
USER: genes 1 Rotation |==|  0.54815 0.41973 0.62521 0.97493
USER: genes 2 Torsion [N]-C--CA-[N] |==|  0.42778
USER: genes 3 Torsion [C]-CA--CB-[CG] |==|  0.81061
USER: genes 4 Torsion [CA]-CB--CG-[CD2] |==|  0.82629
USER: genes 5 Torsion [C]-CA--N-[C] |==|  0.55202
USER: genes 6 Torsion [N]-C--CA-[N] |==|  0.51991
USER: genes 7 Torsion [C]-CA--CB-[CG] |==|  0.84058
USER: genes 8 Torsion [CA]-CB--CG-[OD2] |==|  0.37588
USER: genes 9 Torsion [N]-CA--C-[N] |==|  0.99841
USER: genes 10 Torsion [C]-N--CA-[CB] |==|  0.83291
USER: genes 11 Torsion [N]-CA--CB-[CG] |==|  0.80818
USER: genes 12 Torsion [CA]-CB--CG-[CD2] |==|  0.13632
USER: genes 13 Torsion [N]-CA--C-[O] |==|  0.40768
ROOT
ATOM      1  C   LEU B 299     -16.508   1.165  14.973  1.00 46.80 LIG 0.24  C 
ATOM      2 O    LEU B 299     -16.496   0.766  13.800  1.00 48.15 LIG-0.27  OA
ATOM      3  N   PRO B 300     -17.649   1.272  15.688  1.00 44.47 LIG-0.34  N 
ATOM      4  CA  PRO B 300     -18.950   0.950  15.079  1.00 41.25 LIG 0.18  C 
ATOM      5  CB  PRO B 300     -19.749   0.410  16.269  1.00 41.07 LIG 0.04  C 
ATOM      6  CG  PRO B 300     -19.218   1.206  17.451  1.00 41.88 LIG 0.02  C 
ATOM      7  CD  PRO B 300     -17.789   1.604  17.125  1.00 43.19 LIG 0.13  C 
ENDROOT
BRANCH 1 8
ATOM      8  CA  LEU B 299     -15.196   1.538  15.687  1.00 51.80 LIG 0.18  C 
BRANCH 8 9
ATOM      9  CB  LEU B 299     -15.004   3.054  15.750  1.00 51.70 LIG 0.04  C 
BRANCH 9 10
ATOM     10  CG  LEU B 299     -14.742   3.791  14.428  1.00 53.57 LIG-0.02  C 
ATOM     11  CD2 LEU B 299     -13.446   3.347  13.753  1.00 54.40 LIG 0.01  C 
ATOM     12  CD1 LEU B 299     -14.727   5.291  14.655  1.00 50.77 LIG 0.01  C 
ENDBRANCH 9 10
ENDBRANCH 8 9
BRANCH 8 13
ATOM     13  N   LEU B 299     -14.003   0.866  15.139  1.00 58.35 LIG-0.35  N 
ATOM     14  C   ASP B 298     -12.873   0.780  15.845  1.00 67.04 LIG 0.26  C 
ATOM     15 O    ASP B 298     -12.784   1.212  17.009  1.00 64.28 LIG-0.27  OA
ATOM     16 H    LEU B 299     -14.104   0.547  14.347  1.00 58.35 LIG 0.16  HD
BRANCH 14 17
ATOM     17  CA  ASP B 298     -11.648   0.110  15.164  1.00 70.29 LIG 0.41  C 
ATOM     18  N   ASP B 298     -10.477  -0.101  16.071  1.00 66.44 LIG 0.61  N 
BRANCH 17 19
ATOM     19  CB  ASP B 298     -12.033  -1.203  14.445  1.00 75.12 LIG 0.16  C 
BRANCH 19 20
ATOM     20  CG  ASP B 298     -12.686  -2.233  15.378  1.00 83.78 LIG 0.17  C 
ATOM     21 OD2  ASP B 298     -13.708  -2.851  15.002  1.00 86.97 LIG-0.65  OA
ATOM     22 OD1  ASP B 298     -12.171  -2.427  16.500  1.00 89.47 LIG-0.65  OA
ENDBRANCH 19 20
ENDBRANCH 17 19
ENDBRANCH 14 17
ENDBRANCH 8 13
ENDBRANCH 1 8
BRANCH 4 23
ATOM     23  C   PRO B 300     -19.622   2.199  14.433  1.00 41.91 LIG 0.24  C 
ATOM     24  N   PHE B 301     -18.943   3.339  14.537  1.00 41.99 LIG-0.34  N 
ATOM     25 H    PHE B 301     -18.196   3.388  14.960  1.00 41.99 LIG 0.16  HD
ATOM     26 O    PRO B 300     -20.714   2.102  13.859  1.00 39.52 LIG-0.27  OA
BRANCH 24 27
ATOM     27  CA  PHE B 301     -19.358   4.631  13.966  1.00 41.99 LIG 0.19  C 
BRANCH 27 28
ATOM     28  CB  PHE B 301     -19.494   4.551  12.430  1.00 39.59 LIG 0.07  C 
BRANCH 28 29
ATOM     29  CG  PHE B 301     -18.175   4.383  11.690  1.00 41.19 LIG-0.06  A 
ATOM     30  CD1 PHE B 301     -17.877   5.189  10.600  1.00 38.91 LIG 0.01  A 
ATOM     31  CE1 PHE B 301     -16.674   5.047   9.904  1.00 39.99 LIG 0.00  A 
ATOM     32  CZ  PHE B 301     -15.766   4.069  10.281  1.00 37.57 LIG 0.00  A 
ATOM     33  CE2 PHE B 301     -16.052   3.251  11.370  1.00 41.60 LIG 0.00  A 
ATOM     34  CD2 PHE B 301     -17.246   3.412  12.073  1.00 40.14 LIG 0.01  A 
ENDBRANCH 28 29
ENDBRANCH 27 28
BRANCH 27 35
ATOM     35  C   PHE B 301     -20.677   5.056  14.623  1.00 45.15 LIG 0.20  C 
ATOM     36 O    PHE B 301     -20.992   6.240  14.847  1.00 42.31 LIG-0.65  OA
ATOM     37 OXT  PHE B 301     -21.497   4.177  14.933  1.00 47.06 LIG-0.65  OA
ENDBRANCH 27 35
ENDBRANCH 24 27
ENDBRANCH 4 23
TORSDOF 12
ENDMDL
MODEL 5
USER: ADFR SOLUTION from run 186
USER: SCORE 14.984925 LL:  -4.373 LR: -11.053 RR:   0.000 FEB:  -7.473
USER: RMSD 3.399761
USER: SEED 185
USER: STATUS no improvement in best in 8 clusters for 5 generations
USER: GENES 14
USER: genes 0 Translation |==|  0.44207 0.54082 0.45223
USER: genes 1 Rotation |==|  0.61444 0.64401 0.61317 0.95095
USER: genes 2 Torsion [N]-C--CA-[N] |==|  0.23725
USER: genes 3 Torsion [C]-CA--CB-[CG] |==|  0.22904
USER: genes 4 Torsion [CA]-CB--CG-[CD2] |==|  0.78423
USER: genes 5 Torsion [C]-CA--N-[C] |==|  0.70025
USER: genes 6 Torsion [N]-C--CA-[N] |==|  0.49153
USER: genes 7 Torsion [C]-CA--CB-[CG] |==|  0.82796
USER: genes 8 Torsion [CA]-CB--CG-[OD2] |==|  0.27482
USER: genes 9 Torsion [N]-CA--C-[N] |==|  0.96314
USER: genes 10 Torsion [C]-N--CA-[CB] |==|  0.51577
USER: genes 11 Torsion [N]-CA--CB-[CG] |==|  0.92032
USER: genes 12 Torsion [CA]-CB--CG-[CD2] |==|  0.30568
USER: genes 13 Torsion [N]-CA--C-[O] |==|  0.87905
ROOT
ATOM      1  C   LEU B 299     -17.336   1.303  13.197  1.00 46.80 LIG 0.24  C 
ATOM      2 O    LEU B 299     -18.249   0.897  12.464  1.00 48.15 LIG-0.27  OA
ATOM      3  N   PRO B 300     -17.430   1.284  14.544  1.00 44.47 LIG-0.34  N 
ATOM      4  CA  PRO B 300     -18.656   0.808  15.206  1.00 41.25 LIG 0.18  C 
ATOM      5  CB  PRO B 300     -18.118   0.191  16.500  1.00 41.07 LIG 0.04  C 
ATOM      6  CG  PRO B 300     -16.911   1.054  16.836  1.00 41.88 LIG 0.02  C 
ATOM      7  CD  PRO B 300     -16.374   1.612  15.530  1.00 43.19 LIG 0.13  C 
ENDROOT
BRANCH 1 8
ATOM      8  CA  LEU B 299     -16.022   1.831  12.593  1.00 51.80 LIG 0.18  C 
BRANCH 8 9
ATOM      9  CB  LEU B 299     -16.264   2.541  11.260  1.00 51.70 LIG 0.04  C 
BRANCH 9 10
ATOM     10  CG  LEU B 299     -16.722   4.007  11.310  1.00 53.57 LIG-0.02  C 
ATOM     11  CD2 LEU B 299     -18.203   4.150  11.649  1.00 54.40 LIG 0.01  C 
ATOM     12  CD1 LEU B 299     -16.416   4.699   9.994  1.00 50.77 LIG 0.01  C 
ENDBRANCH 9 10
ENDBRANCH 8 9
BRANCH 8 13
ATOM     13  N   LEU B 299     -14.964   0.811  12.476  1.00 58.35 LIG-0.35  N 
ATOM     14  C   ASP B 298     -13.897   0.828  13.279  1.00 67.04 LIG 0.26  C 
ATOM     15 O    ASP B 298     -13.765   1.666  14.191  1.00 64.28 LIG-0.27  OA
ATOM     16 H    LEU B 299     -15.097   0.226  11.861  1.00 58.35 LIG 0.16  HD
BRANCH 14 17
ATOM     17  CA  ASP B 298     -12.801  -0.248  13.042  1.00 70.29 LIG 0.41  C 
ATOM     18  N   ASP B 298     -11.607  -0.118  13.934  1.00 66.44 LIG 0.61  N 
BRANCH 17 19
ATOM     19  CB  ASP B 298     -13.378  -1.680  13.097  1.00 75.12 LIG 0.16  C 
BRANCH 19 20
ATOM     20  CG  ASP B 298     -13.986  -2.036  14.461  1.00 83.78 LIG 0.17  C 
ATOM     21 OD2  ASP B 298     -15.224  -1.962  14.628  1.00 86.97 LIG-0.65  OA
ATOM     22 OD1  ASP B 298     -13.215  -2.395  15.378  1.00 89.47 LIG-0.65  OA
ENDBRANCH 19 20
ENDBRANCH 17 19
ENDBRANCH 14 17
ENDBRANCH 8 13
ENDBRANCH 1 8
BRANCH 4 23
ATOM     23  C   PRO B 300     -19.665   1.966  15.478  1.00 41.91 LIG 0.24  C 
ATOM     24  N   PHE B 301     -19.180   3.198  15.341  1.00 41.99 LIG-0.34  N 
ATOM     25 H    PHE B 301     -18.356   3.345  15.144  1.00 41.99 LIG 0.16  HD
ATOM     26 O    PRO B 300     -20.837   1.721  15.790  1.00 39.52 LIG-0.27  OA
BRANCH 24 27
ATOM     27  CA  PHE B 301     -19.956   4.439  15.501  1.00 41.99 LIG 0.19  C 
BRANCH 27 28
ATOM     28  CB  PHE B 301     -19.116   5.681  15.134  1.00 39.59 LIG 0.07  C 
BRANCH 28 29
ATOM     29  CG  PHE B 301     -17.619   5.516  15.360  1.00 41.19 LIG-0.06  A 
ATOM     30  CD1 PHE B 301     -17.109   5.465  16.650  1.00 38.91 LIG 0.01  A 
ATOM     31  CE1 PHE B 301     -15.738   5.320  16.878  1.00 39.99 LIG 0.00  A 
ATOM     32  CZ  PHE B 301     -14.859   5.255  15.808  1.00 37.57 LIG 0.00  A 
ATOM     33  CE2 PHE B 301     -15.356   5.308  14.508  1.00 41.60 LIG 0.00  A 
ATOM     34  CD2 PHE B 301     -16.728   5.432  14.287  1.00 40.14 LIG 0.01  A 
ENDBRANCH 28 29
ENDBRANCH 27 28
BRANCH 27 35
ATOM     35  C   PHE B 301     -21.218   4.342  14.635  1.00 45.15 LIG 0.20  C 
ATOM     36 O    PHE B 301     -21.230   3.907  13.468  1.00 42.31 LIG-0.65  OA
ATOM     37 OXT  PHE B 301     -22.303   4.693  15.126  1.00 47.06 LIG-0.65  OA
ENDBRANCH 27 35
ENDBRANCH 24 27
ENDBRANCH 4 23
TORSDOF 12
ENDMDL
MODEL 6
USER: ADFR SOLUTION from run 164
USER: SCORE 14.287078 LL:  -3.576 LR: -10.827 RR:   0.000 FEB:  -7.248
USER: RMSD 4.359646
USER: SEED 163
USER: STATUS no improvement in best in 8 clusters for 5 generations
USER: GENES 14
USER: genes 0 Translation |==|  0.29647 0.44210 0.66283
USER: genes 1 Rotation |==|  0.36086 0.78294 0.37568 0.86760
USER: genes 2 Torsion [N]-C--CA-[N] |==|  0.42429
USER: genes 3 Torsion [C]-CA--CB-[CG] |==|  0.30675
USER: genes 4 Torsion [CA]-CB--CG-[CD2] |==|  0.04926
USER: genes 5 Torsion [C]-CA--N-[C] |==|  0.70410
USER: genes 6 Torsion [N]-C--CA-[N] |==|  0.40695
USER: genes 7 Torsion [C]-CA--CB-[CG] |==|  0.75517
USER: genes 8 Torsion [CA]-CB--CG-[OD2] |==|  0.07238
USER: genes 9 Torsion [N]-CA--C-[N] |==|  0.73596
USER: genes 10 Torsion [C]-N--CA-[CB] |==|  0.46196
USER: genes 11 Torsion [N]-CA--CB-[CG] |==|  0.05707
USER: genes 12 Torsion [CA]-CB--CG-[CD2] |==|  0.24781
USER: genes 13 Torsion [N]-CA--C-[O] |==|  0.71691
ROOT
ATOM      1  C   LEU B 299     -19.848  -0.474  16.198  1.00 46.80 LIG 0.24  C 
ATOM      2 O    LEU B 299     -20.969  -0.542  16.723  1.00 48.15 LIG-0.27  OA
ATOM      3  N   PRO B 300     -19.059   0.615  16.319  1.00 44.47 LIG-0.34  N 
ATOM      4  CA  PRO B 300     -19.523   1.801  17.058  1.00 41.25 LIG 0.18  C 
ATOM      5  CB  PRO B 300     -18.221   2.359  17.642  1.00 41.07 LIG 0.04  C 
ATOM      6  CG  PRO B 300     -17.178   2.017  16.590  1.00 41.88 LIG 0.02  C 
ATOM      7  CD  PRO B 300     -17.660   0.775  15.860  1.00 43.19 LIG 0.13  C 
ENDROOT
BRANCH 1 8
ATOM      8  CA  LEU B 299     -19.286  -1.661  15.394  1.00 51.80 LIG 0.18  C 
BRANCH 8 9
ATOM      9  CB  LEU B 299     -19.430  -1.435  13.888  1.00 51.70 LIG 0.04  C 
BRANCH 9 10
ATOM     10  CG  LEU B 299     -18.146  -1.191  13.081  1.00 53.57 LIG-0.02  C 
ATOM     11  CD2 LEU B 299     -16.890  -1.632  13.827  1.00 54.40 LIG 0.01  C 
ATOM     12  CD1 LEU B 299     -18.039   0.272  12.692  1.00 50.77 LIG 0.01  C 
ENDBRANCH 9 10
ENDBRANCH 8 9
BRANCH 8 13
ATOM     13  N   LEU B 299     -19.832  -2.970  15.797  1.00 58.35 LIG-0.35  N 
ATOM     14  C   ASP B 298     -19.095  -3.841  16.491  1.00 67.04 LIG 0.26  C 
ATOM     15 O    ASP B 298     -17.940  -3.577  16.874  1.00 64.28 LIG-0.27  OA
ATOM     16 H    LEU B 299     -20.643  -3.111  15.550  1.00 58.35 LIG 0.16  HD
BRANCH 14 17
ATOM     17  CA  ASP B 298     -19.731  -5.221  16.819  1.00 70.29 LIG 0.41  C 
ATOM     18  N   ASP B 298     -18.757  -6.357  16.848  1.00 66.44 LIG 0.61  N 
BRANCH 17 19
ATOM     19  CB  ASP B 298     -20.567  -5.178  18.116  1.00 75.12 LIG 0.16  C 
BRANCH 19 20
ATOM     20  CG  ASP B 298     -19.741  -5.466  19.378  1.00 83.78 LIG 0.17  C 
ATOM     21 OD2  ASP B 298     -18.513  -5.224  19.385  1.00 86.97 LIG-0.65  OA
ATOM     22 OD1  ASP B 298     -20.328  -5.938  20.376  1.00 89.47 LIG-0.65  OA
ENDBRANCH 19 20
ENDBRANCH 17 19
ENDBRANCH 14 17
ENDBRANCH 8 13
ENDBRANCH 1 8
BRANCH 4 23
ATOM     23  C   PRO B 300     -20.243   2.828  16.132  1.00 41.91 LIG 0.24  C 
ATOM     24  N   PHE B 301     -19.481   3.812  15.660  1.00 41.99 LIG-0.34  N 
ATOM     25 H    PHE B 301     -18.653   3.892  15.876  1.00 41.99 LIG 0.16  HD
ATOM     26 O    PRO B 300     -21.444   2.702  15.864  1.00 39.52 LIG-0.27  OA
BRANCH 24 27
ATOM     27  CA  PHE B 301     -19.931   4.865  14.734  1.00 41.99 LIG 0.19  C 
BRANCH 27 28
ATOM     28  CB  PHE B 301     -18.912   6.022  14.658  1.00 39.59 LIG 0.07  C 
BRANCH 28 29
ATOM     29  CG  PHE B 301     -17.506   5.652  15.112  1.00 41.19 LIG-0.06  A 
ATOM     30  CD1 PHE B 301     -17.128   5.834  16.435  1.00 38.91 LIG 0.01  A 
ATOM     31  CE1 PHE B 301     -15.842   5.506  16.870  1.00 39.99 LIG 0.00  A 
ATOM     32  CZ  PHE B 301     -14.908   5.018  15.969  1.00 37.57 LIG 0.00  A 
ATOM     33  CE2 PHE B 301     -15.271   4.833  14.638  1.00 41.60 LIG 0.00  A 
ATOM     34  CD2 PHE B 301     -16.564   5.143  14.215  1.00 40.14 LIG 0.01  A 
ENDBRANCH 28 29
ENDBRANCH 27 28
BRANCH 27 35
ATOM     35  C   PHE B 301     -20.168   4.237  13.355  1.00 45.15 LIG 0.20  C 
ATOM     36 O    PHE B 301     -19.372   4.331  12.402  1.00 42.31 LIG-0.65  OA
ATOM     37 OXT  PHE B 301     -21.200   3.571  13.175  1.00 47.06 LIG-0.65  OA
ENDBRANCH 27 35
ENDBRANCH 24 27
ENDBRANCH 4 23
TORSDOF 12
ENDMDL
MODEL 7
USER: ADFR SOLUTION from run 135
USER: SCORE 14.652891 LL:  -4.078 LR: -10.606 RR:   0.000 FEB:  -7.027
USER: RMSD 1.534766
USER: SEED 134
USER: STATUS no improvement in best in 6 clusters for 5 generations
USER: GENES 14
USER: genes 0 Translation |==|  0.44745 0.51873 0.53146
USER: genes 1 Rotation |==|  0.54096 0.49094 0.55378 0.99533
USER: genes 2 Torsion [N]-C--CA-[N] |==|  0.43568
USER: genes 3 Torsion [C]-CA--CB-[CG] |==|  0.59906
USER: genes 4 Torsion [CA]-CB--CG-[CD2] |==|  0.83814
USER: genes 5 Torsion [C]-CA--N-[C] |==|  0.81111
USER: genes 6 Torsion [N]-C--CA-[N] |==|  0.87995
USER: genes 7 Torsion [C]-CA--CB-[CG] |==|  0.09092
USER: genes 8 Torsion [CA]-CB--CG-[OD2] |==|  0.69018
USER: genes 9 Torsion [N]-CA--C-[N] |==|  0.07787
USER: genes 10 Torsion [C]-N--CA-[CB] |==|  0.23243
USER: genes 11 Torsion [N]-CA--CB-[CG] |==|  0.10715
USER: genes 12 Torsion [CA]-CB--CG-[CD2] |==|  0.20127
USER: genes 13 Torsion [N]-CA--C-[O] |==|  0.47635
ROOT
ATOM      1  C   LEU B 299     -17.244   0.905  14.326  1.00 46.80 LIG 0.24  C 
ATOM      2 O    LEU B 299     -17.692   0.496  13.246  1.00 48.15 LIG-0.27  OA
ATOM      3  N   PRO B 300     -18.045   1.332  15.326  1.00 44.47 LIG-0.34  N 
ATOM      4  CA  PRO B 300     -19.507   1.366  15.155  1.00 41.25 LIG 0.18  C 
ATOM      5  CB  PRO B 300     -20.014   1.086  16.573  1.00 41.07 LIG 0.04  C 
ATOM      6  CG  PRO B 300     -18.963   1.729  17.465  1.00 41.88 LIG 0.02  C 
ATOM      7  CD  PRO B 300     -17.650   1.717  16.701  1.00 43.19 LIG 0.13  C 
ENDROOT
BRANCH 1 8
ATOM      8  CA  LEU B 299     -15.727   0.920  14.589  1.00 51.80 LIG 0.18  C 
BRANCH 8 9
ATOM      9  CB  LEU B 299     -15.158   2.337  14.510  1.00 51.70 LIG 0.04  C 
BRANCH 9 10
ATOM     10  CG  LEU B 299     -13.749   2.504  13.922  1.00 53.57 LIG-0.02  C 
ATOM     11  CD2 LEU B 299     -12.694   1.708  14.687  1.00 54.40 LIG 0.01  C 
ATOM     12  CD1 LEU B 299     -13.367   3.973  13.878  1.00 50.77 LIG 0.01  C 
ENDBRANCH 9 10
ENDBRANCH 8 9
BRANCH 8 13
ATOM     13  N   LEU B 299     -14.963  -0.015  13.742  1.00 58.35 LIG-0.35  N 
ATOM     14  C   ASP B 298     -15.088  -1.337  13.886  1.00 67.04 LIG 0.26  C 
ATOM     15 O    ASP B 298     -15.883  -1.844  14.699  1.00 64.28 LIG-0.27  OA
ATOM     16 H    LEU B 299     -14.448   0.362  13.167  1.00 58.35 LIG 0.16  HD
BRANCH 14 17
ATOM     17  CA  ASP B 298     -14.197  -2.246  12.994  1.00 70.29 LIG 0.41  C 
ATOM     18  N   ASP B 298     -14.107  -1.808  11.566  1.00 66.44 LIG 0.61  N 
BRANCH 17 19
ATOM     19  CB  ASP B 298     -12.790  -2.448  13.598  1.00 75.12 LIG 0.16  C 
BRANCH 19 20
ATOM     20  CG  ASP B 298     -12.788  -2.457  15.134  1.00 83.78 LIG 0.17  C 
ATOM     21 OD2  ASP B 298     -12.250  -1.515  15.760  1.00 86.97 LIG-0.65  OA
ATOM     22 OD1  ASP B 298     -13.331  -3.417  15.722  1.00 89.47 LIG-0.65  OA
ENDBRANCH 19 20
ENDBRANCH 17 19
ENDBRANCH 14 17
ENDBRANCH 8 13
ENDBRANCH 1 8
BRANCH 4 23
ATOM     23  C   PRO B 300     -20.004   2.739  14.610  1.00 41.91 LIG 0.24  C 
ATOM     24  N   PHE B 301     -19.133   3.412  13.861  1.00 41.99 LIG-0.34  N 
ATOM     25 H    PHE B 301     -18.337   3.121  13.713  1.00 41.99 LIG 0.16  HD
ATOM     26 O    PRO B 300     -21.144   3.145  14.866  1.00 39.52 LIG-0.27  OA
BRANCH 24 27
ATOM     27  CA  PHE B 301     -19.396   4.703  13.204  1.00 41.99 LIG 0.19  C 
BRANCH 27 28
ATOM     28  CB  PHE B 301     -19.177   5.885  14.173  1.00 39.59 LIG 0.07  C 
BRANCH 28 29
ATOM     29  CG  PHE B 301     -17.991   5.716  15.111  1.00 41.19 LIG-0.06  A 
ATOM     30  CD1 PHE B 301     -18.196   5.474  16.462  1.00 38.91 LIG 0.01  A 
ATOM     31  CE1 PHE B 301     -17.119   5.322  17.340  1.00 39.99 LIG 0.00  A 
ATOM     32  CZ  PHE B 301     -15.820   5.441  16.872  1.00 37.57 LIG 0.00  A 
ATOM     33  CE2 PHE B 301     -15.598   5.687  15.520  1.00 41.60 LIG 0.00  A 
ATOM     34  CD2 PHE B 301     -16.677   5.817  14.645  1.00 40.14 LIG 0.01  A 
ENDBRANCH 28 29
ENDBRANCH 27 28
BRANCH 27 35
ATOM     35  C   PHE B 301     -18.494   4.817  11.969  1.00 45.15 LIG 0.20  C 
ATOM     36 O    PHE B 301     -18.590   5.723  11.120  1.00 42.31 LIG-0.65  OA
ATOM     37 OXT  PHE B 301     -17.595   3.976  11.810  1.00 47.06 LIG-0.65  OA
ENDBRANCH 27 35
ENDBRANCH 24 27
ENDBRANCH 4 23
TORSDOF 12
ENDMDL
MODEL 8
USER: ADFR SOLUTION from run 141
USER: SCORE 15.090935 LL:  -4.747 LR: -10.445 RR:   0.000 FEB:  -6.866
USER: RMSD 3.651820
USER: SEED 140
USER: STATUS no improvement in best in 7 clusters for 5 generations
USER: GENES 14
USER: genes 0 Translation |==|  0.35407 0.53459 0.55043
USER: genes 1 Rotation |==|  0.46891 0.25947 0.35119 0.91114
USER: genes 2 Torsion [N]-C--CA-[N] |==|  0.38798
USER: genes 3 Torsion [C]-CA--CB-[CG] |==|  0.88683
USER: genes 4 Torsion [CA]-CB--CG-[CD2] |==|  0.82980
USER: genes 5 Torsion [C]-CA--N-[C] |==|  0.74211
USER: genes 6 Torsion [N]-C--CA-[N] |==|  0.84084
USER: genes 7 Torsion [C]-CA--CB-[CG] |==|  0.77965
USER: genes 8 Torsion [CA]-CB--CG-[OD2] |==|  0.52008
USER: genes 9 Torsion [N]-CA--C-[N] |==|  0.15239
USER: genes 10 Torsion [C]-N--CA-[CB] |==|  0.26239
USER: genes 11 Torsion [N]-CA--CB-[CG] |==|  0.90970
USER: genes 12 Torsion [CA]-CB--CG-[CD2] |==|  0.25536
USER: genes 13 Torsion [N]-CA--C-[O] |==|  0.32979
ROOT
ATOM      1  C   LEU B 299     -18.854   1.191  14.597  1.00 46.80 LIG 0.24  C 
ATOM      2 O    LEU B 299     -18.575   0.675  13.505  1.00 48.15 LIG-0.27  OA
ATOM      3  N   PRO B 300     -19.377   2.432  14.696  1.00 44.47 LIG-0.34  N 
ATOM      4  CA  PRO B 300     -19.604   3.250  13.494  1.00 41.25 LIG 0.18  C 
ATOM      5  CB  PRO B 300     -20.837   4.074  13.880  1.00 41.07 LIG 0.04  C 
ATOM      6  CG  PRO B 300     -20.677   4.281  15.378  1.00 41.88 LIG 0.02  C 
ATOM      7  CD  PRO B 300     -19.875   3.109  15.916  1.00 43.19 LIG 0.13  C 
ENDROOT
BRANCH 1 8
ATOM      8  CA  LEU B 299     -18.637   0.414  15.908  1.00 51.80 LIG 0.18  C 
BRANCH 8 9
ATOM      9  CB  LEU B 299     -17.221   0.614  16.450  1.00 51.70 LIG 0.04  C 
BRANCH 9 10
ATOM     10  CG  LEU B 299     -16.067   0.613  15.436  1.00 53.57 LIG-0.02  C 
ATOM     11  CD2 LEU B 299     -15.947  -0.709  14.682  1.00 54.40 LIG 0.01  C 
ATOM     12  CD1 LEU B 299     -14.757   0.942  16.128  1.00 50.77 LIG 0.01  C 
ENDBRANCH 9 10
ENDBRANCH 8 9
BRANCH 8 13
ATOM     13  N   LEU B 299     -18.984  -1.016  15.822  1.00 58.35 LIG-0.35  N 
ATOM     14  C   ASP B 298     -20.201  -1.453  16.155  1.00 67.04 LIG 0.26  C 
ATOM     15 O    ASP B 298     -21.112  -0.679  16.503  1.00 64.28 LIG-0.27  OA
ATOM     16 H    LEU B 299     -18.347  -1.523  15.546  1.00 58.35 LIG 0.16  HD
BRANCH 14 17
ATOM     17  CA  ASP B 298     -20.458  -2.985  16.093  1.00 70.29 LIG 0.41  C 
ATOM     18  N   ASP B 298     -20.200  -3.599  14.753  1.00 66.44 LIG 0.61  N 
BRANCH 17 19
ATOM     19  CB  ASP B 298     -19.697  -3.743  17.203  1.00 75.12 LIG 0.16  C 
BRANCH 19 20
ATOM     20  CG  ASP B 298     -18.212  -3.962  16.878  1.00 83.78 LIG 0.17  C 
ATOM     21 OD2  ASP B 298     -17.511  -4.679  17.628  1.00 86.97 LIG-0.65  OA
ATOM     22 OD1  ASP B 298     -17.741  -3.410  15.860  1.00 89.47 LIG-0.65  OA
ENDBRANCH 19 20
ENDBRANCH 17 19
ENDBRANCH 14 17
ENDBRANCH 8 13
ENDBRANCH 1 8
BRANCH 4 23
ATOM     23  C   PRO B 300     -18.376   4.149  13.153  1.00 41.91 LIG 0.24  C 
ATOM     24  N   PHE B 301     -17.215   3.512  13.017  1.00 41.99 LIG-0.34  N 
ATOM     25 H    PHE B 301     -17.143   2.664  13.138  1.00 41.99 LIG 0.16  HD
ATOM     26 O    PRO B 300     -18.508   5.372  13.016  1.00 39.52 LIG-0.27  OA
BRANCH 24 27
ATOM     27  CA  PHE B 301     -15.937   4.145  12.652  1.00 41.99 LIG 0.19  C 
BRANCH 27 28
ATOM     28  CB  PHE B 301     -15.111   4.510  13.905  1.00 39.59 LIG 0.07  C 
BRANCH 28 29
ATOM     29  CG  PHE B 301     -15.947   4.897  15.117  1.00 41.19 LIG-0.06  A 
ATOM     30  CD1 PHE B 301     -16.325   6.218  15.312  1.00 38.91 LIG 0.01  A 
ATOM     31  CE1 PHE B 301     -17.087   6.594  16.422  1.00 39.99 LIG 0.00  A 
ATOM     32  CZ  PHE B 301     -17.453   5.647  17.366  1.00 37.57 LIG 0.00  A 
ATOM     33  CE2 PHE B 301     -17.077   4.318  17.186  1.00 41.60 LIG 0.00  A 
ATOM     34  CD2 PHE B 301     -16.335   3.946  16.065  1.00 40.14 LIG 0.01  A 
ENDBRANCH 28 29
ENDBRANCH 27 28
BRANCH 27 35
ATOM     35  C   PHE B 301     -15.164   3.193  11.731  1.00 45.15 LIG 0.20  C 
ATOM     36 O    PHE B 301     -14.837   3.470  10.562  1.00 42.31 LIG-0.65  OA
ATOM     37 OXT  PHE B 301     -14.818   2.087  12.176  1.00 47.06 LIG-0.65  OA
ENDBRANCH 27 35
ENDBRANCH 24 27
ENDBRANCH 4 23
TORSDOF 12
ENDMDL
MODEL 9
USER: ADFR SOLUTION from run 6
USER: SCORE 14.516532 LL:  -4.351 LR: -10.286 RR:   0.000 FEB:  -6.706
USER: RMSD 3.741460
USER: SEED 534144
USER: STATUS no improvement in best in 4 clusters for 5 generations
USER: GENES 14
USER: genes 0 Translation |==|  0.52067 0.56187 0.55923
USER: genes 1 Rotation |==|  0.57465 0.42083 0.66991 0.95748
USER: genes 2 Torsion [N]-C--CA-[N] |==|  0.45515
USER: genes 3 Torsion [C]-CA--CB-[CG] |==|  0.80262
USER: genes 4 Torsion [CA]-CB--CG-[CD2] |==|  0.00411
USER: genes 5 Torsion [C]-CA--N-[C] |==|  0.72332
USER: genes 6 Torsion [N]-C--CA-[N] |==|  0.86539
USER: genes 7 Torsion [C]-CA--CB-[CG] |==|  0.51421
USER: genes 8 Torsion [CA]-CB--CG-[OD2] |==|  0.99148
USER: genes 9 Torsion [N]-CA--C-[N] |==|  0.13239
USER: genes 10 Torsion [C]-N--CA-[CB] |==|  0.19723
USER: genes 11 Torsion [N]-CA--CB-[CG] |==|  0.11452
USER: genes 12 Torsion [CA]-CB--CG-[CD2] |==|  0.26767
USER: genes 13 Torsion [N]-CA--C-[O] |==|  0.50711
ROOT
ATOM      1  C   LEU B 299     -15.981   1.682  14.722  1.00 46.80 LIG 0.24  C 
ATOM      2 O    LEU B 299     -15.900   1.385  13.522  1.00 48.15 LIG-0.27  OA
ATOM      3  N   PRO B 300     -17.112   1.499  15.436  1.00 44.47 LIG-0.34  N 
ATOM      4  CA  PRO B 300     -18.326   0.966  14.797  1.00 41.25 LIG 0.18  C 
ATOM      5  CB  PRO B 300     -18.987   0.185  15.937  1.00 41.07 LIG 0.04  C 
ATOM      6  CG  PRO B 300     -18.617   0.979  17.180  1.00 41.88 LIG 0.02  C 
ATOM      7  CD  PRO B 300     -17.302   1.684  16.894  1.00 43.19 LIG 0.13  C 
ENDROOT
BRANCH 1 8
ATOM      8  CA  LEU B 299     -14.765   2.258  15.470  1.00 51.80 LIG 0.18  C 
BRANCH 8 9
ATOM      9  CB  LEU B 299     -14.990   3.719  15.865  1.00 51.70 LIG 0.04  C 
BRANCH 9 10
ATOM     10  CG  LEU B 299     -14.987   4.765  14.741  1.00 53.57 LIG-0.02  C 
ATOM     11  CD2 LEU B 299     -14.786   4.146  13.360  1.00 54.40 LIG 0.01  C 
ATOM     12  CD1 LEU B 299     -13.924   5.817  15.003  1.00 50.77 LIG 0.01  C 
ENDBRANCH 9 10
ENDBRANCH 8 9
BRANCH 8 13
ATOM     13  N   LEU B 299     -13.485   2.084  14.758  1.00 58.35 LIG-0.35  N 
ATOM     14  C   ASP B 298     -12.643   1.100  15.083  1.00 67.04 LIG 0.26  C 
ATOM     15 O    ASP B 298     -12.912   0.257  15.959  1.00 64.28 LIG-0.27  OA
ATOM     16 H    LEU B 299     -13.341   2.659  14.135  1.00 58.35 LIG 0.16  HD
BRANCH 14 17
ATOM     17  CA  ASP B 298     -11.289   1.031  14.321  1.00 70.29 LIG 0.41  C 
ATOM     18  N   ASP B 298     -11.414   1.134  12.834  1.00 66.44 LIG 0.61  N 
BRANCH 17 19
ATOM     19  CB  ASP B 298     -10.269   2.057  14.863  1.00 75.12 LIG 0.16  C 
BRANCH 19 20
ATOM     20  CG  ASP B 298      -8.966   2.100  14.051  1.00 83.78 LIG 0.17  C 
ATOM     21 OD2  ASP B 298      -8.802   1.306  13.097  1.00 86.97 LIG-0.65  OA
ATOM     22 OD1  ASP B 298      -8.097   2.940  14.371  1.00 89.47 LIG-0.65  OA
ENDBRANCH 19 20
ENDBRANCH 17 19
ENDBRANCH 14 17
ENDBRANCH 8 13
ENDBRANCH 1 8
BRANCH 4 23
ATOM     23  C   PRO B 300     -19.246   2.099  14.246  1.00 41.91 LIG 0.24  C 
ATOM     24  N   PHE B 301     -18.636   3.038  13.526  1.00 41.99 LIG-0.34  N 
ATOM     25 H    PHE B 301     -17.786   3.035  13.400  1.00 41.99 LIG 0.16  HD
ATOM     26 O    PRO B 300     -20.462   2.091  14.473  1.00 39.52 LIG-0.27  OA
BRANCH 24 27
ATOM     27  CA  PHE B 301     -19.305   4.173  12.870  1.00 41.99 LIG 0.19  C 
BRANCH 27 28
ATOM     28  CB  PHE B 301     -19.804   5.207  13.901  1.00 39.59 LIG 0.07  C 
BRANCH 28 29
ATOM     29  CG  PHE B 301     -18.832   5.478  15.040  1.00 41.19 LIG-0.06  A 
ATOM     30  CD1 PHE B 301     -18.812   4.651  16.155  1.00 38.91 LIG 0.01  A 
ATOM     31  CE1 PHE B 301     -17.930   4.887  17.213  1.00 39.99 LIG 0.00  A 
ATOM     32  CZ  PHE B 301     -17.076   5.979  17.175  1.00 37.57 LIG 0.00  A 
ATOM     33  CE2 PHE B 301     -17.087   6.820  16.065  1.00 41.60 LIG 0.00  A 
ATOM     34  CD2 PHE B 301     -17.955   6.566  15.003  1.00 40.14 LIG 0.01  A 
ENDBRANCH 28 29
ENDBRANCH 27 28
BRANCH 27 35
ATOM     35  C   PHE B 301     -18.329   4.806  11.871  1.00 45.15 LIG 0.20  C 
ATOM     36 O    PHE B 301     -18.587   5.818  11.192  1.00 42.31 LIG-0.65  OA
ATOM     37 OXT  PHE B 301     -17.201   4.303  11.742  1.00 47.06 LIG-0.65  OA
ENDBRANCH 27 35
ENDBRANCH 24 27
ENDBRANCH 4 23
TORSDOF 12
ENDMDL
MODEL 10
USER: ADFR SOLUTION from run 176
USER: SCORE 14.192345 LL:  -3.951 LR: -10.243 RR:   0.000 FEB:  -6.663
USER: RMSD 4.164294
USER: SEED 175
USER: STATUS no improvement in best in 7 clusters for 5 generations
USER: GENES 14
USER: genes 0 Translation |==|  0.41251 0.41312 0.60085
USER: genes 1 Rotation |==|  0.35462 0.95329 0.51881 0.65179
USER: genes 2 Torsion [N]-C--CA-[N] |==|  0.39151
USER: genes 3 Torsion [C]-CA--CB-[CG] |==|  0.86722
USER: genes 4 Torsion [CA]-CB--CG-[CD2] |==|  0.21167
USER: genes 5 Torsion [C]-CA--N-[C] |==|  0.81677
USER: genes 6 Torsion [N]-C--CA-[N] |==|  0.51716
USER: genes 7 Torsion [C]-CA--CB-[CG] |==|  0.84669
USER: genes 8 Torsion [CA]-CB--CG-[OD2] |==|  0.78416
USER: genes 9 Torsion [N]-CA--C-[N] |==|  0.86778
USER: genes 10 Torsion [C]-N--CA-[CB] |==|  0.25283
USER: genes 11 Torsion [N]-CA--CB-[CG] |==|  0.97637
USER: genes 12 Torsion [CA]-CB--CG-[CD2] |==|  0.24948
USER: genes 13 Torsion [N]-CA--C-[O] |==|  0.55905
ROOT
ATOM      1  C   LEU B 299     -17.846  -0.996  15.315  1.00 46.80 LIG 0.24  C 
ATOM      2 O    LEU B 299     -17.735  -1.332  16.503  1.00 48.15 LIG-0.27  OA
ATOM      3  N   PRO B 300     -17.351   0.169  14.845  1.00 44.47 LIG-0.34  N 
ATOM      4  CA  PRO B 300     -16.681   1.120  15.748  1.00 41.25 LIG 0.18  C 
ATOM      5  CB  PRO B 300     -15.639   1.770  14.832  1.00 41.07 LIG 0.04  C 
ATOM      6  CG  PRO B 300     -16.316   1.786  13.471  1.00 41.88 LIG 0.02  C 
ATOM      7  CD  PRO B 300     -17.297   0.628  13.437  1.00 43.19 LIG 0.13  C 
ENDROOT
BRANCH 1 8
ATOM      8  CA  LEU B 299     -18.544  -1.921  14.301  1.00 51.80 LIG 0.18  C 
BRANCH 8 9
ATOM      9  CB  LEU B 299     -20.048  -1.650  14.238  1.00 51.70 LIG 0.04  C 
BRANCH 9 10
ATOM     10  CG  LEU B 299     -20.807  -1.552  15.570  1.00 53.57 LIG-0.02  C 
ATOM     11  CD2 LEU B 299     -20.572  -0.224  16.286  1.00 54.40 LIG 0.01  C 
ATOM     12  CD1 LEU B 299     -20.432  -2.710  16.477  1.00 50.77 LIG 0.01  C 
ENDBRANCH 9 10
ENDBRANCH 8 9
BRANCH 8 13
ATOM     13  N   LEU B 299     -18.263  -3.354  14.505  1.00 58.35 LIG-0.35  N 
ATOM     14  C   ASP B 298     -17.035  -3.848  14.331  1.00 67.04 LIG 0.26  C 
ATOM     15 O    ASP B 298     -16.064  -3.126  14.040  1.00 64.28 LIG-0.27  OA
ATOM     16 H    LEU B 299     -18.945  -3.823  14.739  1.00 58.35 LIG 0.16  HD
BRANCH 14 17
ATOM     17  CA  ASP B 298     -16.844  -5.381  14.507  1.00 70.29 LIG 0.41  C 
ATOM     18  N   ASP B 298     -15.421  -5.837  14.440  1.00 66.44 LIG 0.61  N 
BRANCH 17 19
ATOM     19  CB  ASP B 298     -17.532  -5.904  15.787  1.00 75.12 LIG 0.16  C 
BRANCH 19 20
ATOM     20  CG  ASP B 298     -17.079  -5.173  17.059  1.00 83.78 LIG 0.17  C 
ATOM     21 OD2  ASP B 298     -15.973  -5.454  17.576  1.00 86.97 LIG-0.65  OA
ATOM     22 OD1  ASP B 298     -17.837  -4.307  17.547  1.00 89.47 LIG-0.65  OA
ENDBRANCH 19 20
ENDBRANCH 17 19
ENDBRANCH 14 17
ENDBRANCH 8 13
ENDBRANCH 1 8
BRANCH 4 23
ATOM     23  C   PRO B 300     -17.674   2.161  16.347  1.00 41.91 LIG 0.24  C 
ATOM     24  N   PHE B 301     -18.495   2.744  15.475  1.00 41.99 LIG-0.34  N 
ATOM     25 H    PHE B 301     -18.458   2.577  14.633  1.00 41.99 LIG 0.16  HD
ATOM     26 O    PRO B 300     -17.681   2.402  17.560  1.00 39.52 LIG-0.27  OA
BRANCH 24 27
ATOM     27  CA  PHE B 301     -19.543   3.720  15.817  1.00 41.99 LIG 0.19  C 
BRANCH 27 28
ATOM     28  CB  PHE B 301     -19.009   5.167  15.752  1.00 39.59 LIG 0.07  C 
BRANCH 28 29
ATOM     29  CG  PHE B 301     -17.502   5.273  15.559  1.00 41.19 LIG-0.06  A 
ATOM     30  CD1 PHE B 301     -16.659   5.340  16.660  1.00 38.91 LIG 0.01  A 
ATOM     31  CE1 PHE B 301     -15.274   5.443  16.503  1.00 39.99 LIG 0.00  A 
ATOM     32  CZ  PHE B 301     -14.722   5.509  15.233  1.00 37.57 LIG 0.00  A 
ATOM     33  CE2 PHE B 301     -15.556   5.446  14.119  1.00 41.60 LIG 0.00  A 
ATOM     34  CD2 PHE B 301     -16.935   5.322  14.283  1.00 40.14 LIG 0.01  A 
ENDBRANCH 28 29
ENDBRANCH 27 28
BRANCH 27 35
ATOM     35  C   PHE B 301     -20.728   3.519  14.865  1.00 45.15 LIG 0.20  C 
ATOM     36 O    PHE B 301     -21.588   4.389  14.631  1.00 42.31 LIG-0.65  OA
ATOM     37 OXT  PHE B 301     -20.834   2.435  14.268  1.00 47.06 LIG-0.65  OA
ENDBRANCH 27 35
ENDBRANCH 24 27
ENDBRANCH 4 23
TORSDOF 12
ENDMDL
MODEL 11
USER: ADFR SOLUTION from run 140
USER: SCORE 14.324762 LL:  -4.189 LR: -10.231 RR:   0.000 FEB:  -6.651
USER: RMSD 4.227961
USER: SEED 139
USER: STATUS no improvement in best in 8 clusters for 5 generations
USER: GENES 14
USER: genes 0 Translation |==|  0.50862 0.54312 0.58510
USER: genes 1 Rotation |==|  0.53574 0.42898 0.63991 0.97340
USER: genes 2 Torsion [N]-C--CA-[N] |==|  0.47465
USER: genes 3 Torsion [C]-CA--CB-[CG] |==|  0.84860
USER: genes 4 Torsion [CA]-CB--CG-[CD2] |==|  0.73859
USER: genes 5 Torsion [C]-CA--N-[C] |==|  0.77368
USER: genes 6 Torsion [N]-C--CA-[N] |==|  0.85724
USER: genes 7 Torsion [C]-CA--CB-[CG] |==|  0.76470
USER: genes 8 Torsion [CA]-CB--CG-[OD2] |==|  0.53298
USER: genes 9 Torsion [N]-CA--C-[N] |==|  0.99841
USER: genes 10 Torsion [C]-N--CA-[CB] |==|  0.83291
USER: genes 11 Torsion [N]-CA--CB-[CG] |==|  0.80818
USER: genes 12 Torsion [CA]-CB--CG-[CD2] |==|  0.13638
USER: genes 13 Torsion [N]-CA--C-[O] |==|  0.29162
ROOT
ATOM      1  C   LEU B 299     -16.188   1.344  15.091  1.00 46.80 LIG 0.24  C 
ATOM      2 O    LEU B 299     -16.172   0.870  13.946  1.00 48.15 LIG-0.27  OA
ATOM      3  N   PRO B 300     -17.323   1.438  15.817  1.00 44.47 LIG-0.34  N 
ATOM      4  CA  PRO B 300     -18.613   1.009  15.254  1.00 41.25 LIG 0.18  C 
ATOM      5  CB  PRO B 300     -19.366   0.507  16.490  1.00 41.07 LIG 0.04  C 
ATOM      6  CG  PRO B 300     -18.861   1.405  17.608  1.00 41.88 LIG 0.02  C 
ATOM      7  CD  PRO B 300     -17.460   1.856  17.232  1.00 43.19 LIG 0.13  C 
ENDROOT
BRANCH 1 8
ATOM      8  CA  LEU B 299     -14.888   1.832  15.756  1.00 51.80 LIG 0.18  C 
BRANCH 8 9
ATOM      9  CB  LEU B 299     -14.956   3.322  16.092  1.00 51.70 LIG 0.04  C 
BRANCH 9 10
ATOM     10  CG  LEU B 299     -15.300   4.292  14.951  1.00 53.57 LIG-0.02  C 
ATOM     11  CD2 LEU B 299     -14.059   4.871  14.276  1.00 54.40 LIG 0.01  C 
ATOM     12  CD1 LEU B 299     -16.189   5.411  15.462  1.00 50.77 LIG 0.01  C 
ENDBRANCH 9 10
ENDBRANCH 8 9
BRANCH 8 13
ATOM     13  N   LEU B 299     -13.668   1.506  14.995  1.00 58.35 LIG-0.35  N 
ATOM     14  C   ASP B 298     -13.106   0.297  15.075  1.00 67.04 LIG 0.26  C 
ATOM     15 O    ASP B 298     -13.606  -0.624  15.748  1.00 64.28 LIG-0.27  OA
ATOM     16 H    LEU B 299     -13.364   2.149  14.512  1.00 58.35 LIG 0.16  HD
BRANCH 14 17
ATOM     17  CA  ASP B 298     -11.787   0.062  14.288  1.00 70.29 LIG 0.41  C 
ATOM     18  N   ASP B 298     -11.852   0.455  12.845  1.00 66.44 LIG 0.61  N 
BRANCH 17 19
ATOM     19  CB  ASP B 298     -10.575   0.719  14.984  1.00 75.12 LIG 0.16  C 
BRANCH 19 20
ATOM     20  CG  ASP B 298     -10.402   2.203  14.626  1.00 83.78 LIG 0.17  C 
ATOM     21 OD2  ASP B 298      -9.345   2.797  14.937  1.00 86.97 LIG-0.65  OA
ATOM     22 OD1  ASP B 298     -11.334   2.780  14.025  1.00 89.47 LIG-0.65  OA
ENDBRANCH 19 20
ENDBRANCH 17 19
ENDBRANCH 14 17
ENDBRANCH 8 13
ENDBRANCH 1 8
BRANCH 4 23
ATOM     23  C   PRO B 300     -19.361   2.176  14.540  1.00 41.91 LIG 0.24  C 
ATOM     24  N   PHE B 301     -18.742   3.354  14.558  1.00 41.99 LIG-0.34  N 
ATOM     25 H    PHE B 301     -17.992   3.470  14.963  1.00 41.99 LIG 0.16  HD
ATOM     26 O    PRO B 300     -20.454   1.985  13.993  1.00 39.52 LIG-0.27  OA
BRANCH 24 27
ATOM     27  CA  PHE B 301     -19.234   4.582  13.912  1.00 41.99 LIG 0.19  C 
BRANCH 27 28
ATOM     28  CB  PHE B 301     -19.388   4.395  12.387  1.00 39.59 LIG 0.07  C 
BRANCH 28 29
ATOM     29  CG  PHE B 301     -18.072   4.249  11.636  1.00 41.19 LIG-0.06  A 
ATOM     30  CD1 PHE B 301     -17.833   4.996  10.491  1.00 38.91 LIG 0.01  A 
ATOM     31  CE1 PHE B 301     -16.634   4.871   9.785  1.00 39.99 LIG 0.00  A 
ATOM     32  CZ  PHE B 301     -15.670   3.969  10.207  1.00 37.57 LIG 0.00  A 
ATOM     33  CE2 PHE B 301     -15.896   3.210  11.352  1.00 41.60 LIG 0.00  A 
ATOM     34  CD2 PHE B 301     -17.087   3.354  12.065  1.00 40.14 LIG 0.01  A 
ENDBRANCH 28 29
ENDBRANCH 27 28
BRANCH 27 35
ATOM     35  C   PHE B 301     -20.564   4.980  14.564  1.00 45.15 LIG 0.20  C 
ATOM     36 O    PHE B 301     -20.690   5.923  15.368  1.00 42.31 LIG-0.65  OA
ATOM     37 OXT  PHE B 301     -21.587   4.347  14.259  1.00 47.06 LIG-0.65  OA
ENDBRANCH 27 35
ENDBRANCH 24 27
ENDBRANCH 4 23
TORSDOF 12
ENDMDL
MODEL 12
USER: ADFR SOLUTION from run 144
USER: SCORE 14.667197 LL:  -4.472 LR: -10.218 RR:   0.000 FEB:  -6.638
USER: RMSD 3.783479
USER: SEED 143
USER: STATUS no improvement in best in 6 clusters for 5 generations
USER: GENES 14
USER: genes 0 Translation |==|  0.28796 0.42062 0.65756
USER: genes 1 Rotation |==|  0.36339 0.72960 0.32856 0.88630
USER: genes 2 Torsion [N]-C--CA-[N] |==|  0.91675
USER: genes 3 Torsion [C]-CA--CB-[CG] |==|  0.26665
USER: genes 4 Torsion [CA]-CB--CG-[CD2] |==|  0.89909
USER: genes 5 Torsion [C]-CA--N-[C] |==|  0.81518
USER: genes 6 Torsion [N]-C--CA-[N] |==|  0.72188
USER: genes 7 Torsion [C]-CA--CB-[CG] |==|  0.76412
USER: genes 8 Torsion [CA]-CB--CG-[OD2] |==|  0.02201
USER: genes 9 Torsion [N]-CA--C-[N] |==|  0.85409
USER: genes 10 Torsion [C]-N--CA-[CB] |==|  0.23004
USER: genes 11 Torsion [N]-CA--CB-[CG] |==|  0.08460
USER: genes 12 Torsion [CA]-CB--CG-[CD2] |==|  0.21719
USER: genes 13 Torsion [N]-CA--C-[O] |==|  0.63372
ROOT
ATOM      1  C   LEU B 299     -19.995  -0.861  16.123  1.00 46.80 LIG 0.24  C 
ATOM      2 O    LEU B 299     -21.212  -0.801  16.348  1.00 48.15 LIG-0.27  OA
ATOM      3  N   PRO B 300     -19.174   0.195  16.308  1.00 44.47 LIG-0.34  N 
ATOM      4  CA  PRO B 300     -19.706   1.493  16.754  1.00 41.25 LIG 0.18  C 
ATOM      5  CB  PRO B 300     -18.548   2.062  17.580  1.00 41.07 LIG 0.04  C 
ATOM      6  CG  PRO B 300     -17.309   1.527  16.879  1.00 41.88 LIG 0.02  C 
ATOM      7  CD  PRO B 300     -17.695   0.221  16.206  1.00 43.19 LIG 0.13  C 
ENDROOT
BRANCH 1 8
ATOM      8  CA  LEU B 299     -19.351  -2.173  15.640  1.00 51.80 LIG 0.18  C 
BRANCH 8 9
ATOM      9  CB  LEU B 299     -19.073  -3.123  16.805  1.00 51.70 LIG 0.04  C 
BRANCH 9 10
ATOM     10  CG  LEU B 299     -20.120  -4.207  17.103  1.00 53.57 LIG-0.02  C 
ATOM     11  CD2 LEU B 299     -21.549  -3.722  16.876  1.00 54.40 LIG 0.01  C 
ATOM     12  CD1 LEU B 299     -19.960  -4.719  18.523  1.00 50.77 LIG 0.01  C 
ENDBRANCH 9 10
ENDBRANCH 8 9
BRANCH 8 13
ATOM     13  N   LEU B 299     -18.151  -1.980  14.804  1.00 58.35 LIG-0.35  N 
ATOM     14  C   ASP B 298     -18.235  -1.417  13.596  1.00 67.04 LIG 0.26  C 
ATOM     15 O    ASP B 298     -19.309  -0.984  13.138  1.00 64.28 LIG-0.27  OA
ATOM     16 H    LEU B 299     -17.419  -2.256  15.160  1.00 58.35 LIG 0.16  HD
BRANCH 14 17
ATOM     17  CA  ASP B 298     -16.929  -1.310  12.760  1.00 70.29 LIG 0.41  C 
ATOM     18  N   ASP B 298     -16.284   0.039  12.794  1.00 66.44 LIG 0.61  N 
BRANCH 17 19
ATOM     19  CB  ASP B 298     -15.916  -2.416  13.129  1.00 75.12 LIG 0.16  C 
BRANCH 19 20
ATOM     20  CG  ASP B 298     -15.040  -2.056  14.338  1.00 83.78 LIG 0.17  C 
ATOM     21 OD2  ASP B 298     -15.293  -1.024  15.002  1.00 86.97 LIG-0.65  OA
ATOM     22 OD1  ASP B 298     -14.089  -2.813  14.628  1.00 89.47 LIG-0.65  OA
ENDBRANCH 19 20
ENDBRANCH 17 19
ENDBRANCH 14 17
ENDBRANCH 8 13
ENDBRANCH 1 8
BRANCH 4 23
ATOM     23  C   PRO B 300     -20.088   2.415  15.557  1.00 41.91 LIG 0.24  C 
ATOM     24  N   PHE B 301     -19.136   2.600  14.645  1.00 41.99 LIG-0.34  N 
ATOM     25 H    PHE B 301     -18.353   2.256  14.727  1.00 41.99 LIG 0.16  HD
ATOM     26 O    PRO B 300     -21.215   2.921  15.484  1.00 39.52 LIG-0.27  OA
BRANCH 24 27
ATOM     27  CA  PHE B 301     -19.284   3.390  13.411  1.00 41.99 LIG 0.19  C 
BRANCH 27 28
ATOM     28  CB  PHE B 301     -19.072   4.896  13.676  1.00 39.59 LIG 0.07  C 
BRANCH 28 29
ATOM     29  CG  PHE B 301     -18.106   5.203  14.812  1.00 41.19 LIG-0.06  A 
ATOM     30  CD1 PHE B 301     -18.587   5.594  16.054  1.00 38.91 LIG 0.01  A 
ATOM     31  CE1 PHE B 301     -17.716   5.886  17.106  1.00 39.99 LIG 0.00  A 
ATOM     32  CZ  PHE B 301     -16.345   5.818  16.912  1.00 37.57 LIG 0.00  A 
ATOM     33  CE2 PHE B 301     -15.847   5.431  15.671  1.00 41.60 LIG 0.00  A 
ATOM     34  CD2 PHE B 301     -16.722   5.120  14.631  1.00 40.14 LIG 0.01  A 
ENDBRANCH 28 29
ENDBRANCH 27 28
BRANCH 27 35
ATOM     35  C   PHE B 301     -18.291   2.861  12.369  1.00 45.15 LIG 0.20  C 
ATOM     36 O    PHE B 301     -17.534   3.587  11.698  1.00 42.31 LIG-0.65  OA
ATOM     37 OXT  PHE B 301     -18.213   1.634  12.192  1.00 47.06 LIG-0.65  OA
ENDBRANCH 27 35
ENDBRANCH 24 27
ENDBRANCH 4 23
TORSDOF 12
ENDMDL
MODEL 13
USER: ADFR SOLUTION from run 142
USER: SCORE 13.845392 LL:  -4.161 LR: -10.092 RR:   0.000 FEB:  -6.512
USER: RMSD 4.277588
USER: SEED 141
USER: STATUS no improvement in best in 9 clusters for 5 generations
USER: GENES 14
USER: genes 0 Translation |==|  0.43476 0.51852 0.65399
USER: genes 1 Rotation |==|  0.33686 0.90648 0.40635 0.72224
USER: genes 2 Torsion [N]-C--CA-[N] |==|  0.12716
USER: genes 3 Torsion [C]-CA--CB-[CG] |==|  0.23339
USER: genes 4 Torsion [CA]-CB--CG-[CD2] |==|  0.29647
USER: genes 5 Torsion [C]-CA--N-[C] |==|  0.63646
USER: genes 6 Torsion [N]-C--CA-[N] |==|  0.79669
USER: genes 7 Torsion [C]-CA--CB-[CG] |==|  0.77638
USER: genes 8 Torsion [CA]-CB--CG-[OD2] |==|  0.01737
USER: genes 9 Torsion [N]-CA--C-[N] |==|  0.00120
USER: genes 10 Torsion [C]-N--CA-[CB] |==|  0.28298
USER: genes 11 Torsion [N]-CA--CB-[CG] |==|  0.09003
USER: genes 12 Torsion [CA]-CB--CG-[CD2] |==|  0.61938
USER: genes 13 Torsion [N]-CA--C-[O] |==|  0.49999
ROOT
ATOM      1  C   LEU B 299     -17.462   0.901  16.072  1.00 46.80 LIG 0.24  C 
ATOM      2 O    LEU B 299     -17.900   0.986  17.229  1.00 48.15 LIG-0.27  OA
ATOM      3  N   PRO B 300     -16.697   1.866  15.518  1.00 44.47 LIG-0.34  N 
ATOM      4  CA  PRO B 300     -16.378   3.094  16.263  1.00 41.25 LIG 0.18  C 
ATOM      5  CB  PRO B 300     -14.986   3.453  15.734  1.00 41.07 LIG 0.04  C 
ATOM      6  CG  PRO B 300     -15.018   2.982  14.289  1.00 41.88 LIG 0.02  C 
ATOM      7  CD  PRO B 300     -16.007   1.832  14.207  1.00 43.19 LIG 0.13  C 
ENDROOT
BRANCH 1 8
ATOM      8  CA  LEU B 299     -17.757  -0.341  15.212  1.00 51.80 LIG 0.18  C 
BRANCH 8 9
ATOM      9  CB  LEU B 299     -18.482  -1.421  16.017  1.00 51.70 LIG 0.04  C 
BRANCH 9 10
ATOM     10  CG  LEU B 299     -20.008  -1.306  16.145  1.00 53.57 LIG-0.02  C 
ATOM     11  CD2 LEU B 299     -20.749  -2.335  15.296  1.00 54.40 LIG 0.01  C 
ATOM     12  CD1 LEU B 299     -20.463   0.096  15.783  1.00 50.77 LIG 0.01  C 
ENDBRANCH 9 10
ENDBRANCH 8 9
BRANCH 8 13
ATOM     13  N   LEU B 299     -16.573  -0.887  14.523  1.00 58.35 LIG-0.35  N 
ATOM     14  C   ASP B 298     -16.604  -1.171  13.218  1.00 67.04 LIG 0.26  C 
ATOM     15 O    ASP B 298     -17.604  -0.946  12.513  1.00 64.28 LIG-0.27  OA
ATOM     16 H    LEU B 299     -15.886  -1.000  15.027  1.00 58.35 LIG 0.16  HD
BRANCH 14 17
ATOM     17  CA  ASP B 298     -15.330  -1.801  12.589  1.00 70.29 LIG 0.41  C 
ATOM     18  N   ASP B 298     -14.189  -0.848  12.420  1.00 66.44 LIG 0.61  N 
BRANCH 17 19
ATOM     19  CB  ASP B 298     -14.881  -3.071  13.346  1.00 75.12 LIG 0.16  C 
BRANCH 19 20
ATOM     20  CG  ASP B 298     -14.086  -2.765  14.623  1.00 83.78 LIG 0.17  C 
ATOM     21 OD2  ASP B 298     -13.967  -1.580  15.012  1.00 86.97 LIG-0.65  OA
ATOM     22 OD1  ASP B 298     -13.575  -3.720  15.247  1.00 89.47 LIG-0.65  OA
ENDBRANCH 19 20
ENDBRANCH 17 19
ENDBRANCH 14 17
ENDBRANCH 8 13
ENDBRANCH 1 8
BRANCH 4 23
ATOM     23  C   PRO B 300     -17.419   4.226  16.005  1.00 41.91 LIG 0.24  C 
ATOM     24  N   PHE B 301     -18.415   3.916  15.179  1.00 41.99 LIG-0.34  N 
ATOM     25 H    PHE B 301     -18.465   3.151  14.790  1.00 41.99 LIG 0.16  HD
ATOM     26 O    PRO B 300     -17.302   5.329  16.555  1.00 39.52 LIG-0.27  OA
BRANCH 24 27
ATOM     27  CA  PHE B 301     -19.534   4.806  14.825  1.00 41.99 LIG 0.19  C 
BRANCH 27 28
ATOM     28  CB  PHE B 301     -19.332   5.439  13.431  1.00 39.59 LIG 0.07  C 
BRANCH 28 29
ATOM     29  CG  PHE B 301     -18.592   4.551  12.440  1.00 41.19 LIG-0.06  A 
ATOM     30  CD1 PHE B 301     -18.884   3.196  12.361  1.00 38.91 LIG 0.01  A 
ATOM     31  CE1 PHE B 301     -18.212   2.365  11.461  1.00 39.99 LIG 0.00  A 
ATOM     32  CZ  PHE B 301     -17.214   2.882  10.649  1.00 37.57 LIG 0.00  A 
ATOM     33  CE2 PHE B 301     -16.909   4.239  10.719  1.00 41.60 LIG 0.00  A 
ATOM     34  CD2 PHE B 301     -17.598   5.068  11.604  1.00 40.14 LIG 0.01  A 
ENDBRANCH 28 29
ENDBRANCH 27 28
BRANCH 27 35
ATOM     35  C   PHE B 301     -20.839   4.003  14.891  1.00 45.15 LIG 0.20  C 
ATOM     36 O    PHE B 301     -21.962   4.481  14.645  1.00 42.31 LIG-0.65  OA
ATOM     37 OXT  PHE B 301     -20.780   2.798  15.184  1.00 47.06 LIG-0.65  OA
ENDBRANCH 27 35
ENDBRANCH 24 27
ENDBRANCH 4 23
TORSDOF 12
ENDMDL
MODEL 14
USER: ADFR SOLUTION from run 7
USER: SCORE 13.622516 LL:  -3.925 LR: -10.038 RR:   0.000 FEB:  -6.458
USER: RMSD 4.335996
USER: SEED 660633
USER: STATUS no improvement in best in 9 clusters for 5 generations
USER: GENES 14
USER: genes 0 Translation |==|  0.32946 0.45916 0.53647
USER: genes 1 Rotation |==|  0.46518 0.69382 0.44438 0.95621
USER: genes 2 Torsion [N]-C--CA-[N] |==|  0.85000
USER: genes 3 Torsion [C]-CA--CB-[CG] |==|  0.17191
USER: genes 4 Torsion [CA]-CB--CG-[CD2] |==|  0.77748
USER: genes 5 Torsion [C]-CA--N-[C] |==|  0.75310
USER: genes 6 Torsion [N]-C--CA-[N] |==|  0.20539
USER: genes 7 Torsion [C]-CA--CB-[CG] |==|  0.49336
USER: genes 8 Torsion [CA]-CB--CG-[OD2] |==|  0.61959
USER: genes 9 Torsion [N]-CA--C-[N] |==|  0.92651
USER: genes 10 Torsion [C]-N--CA-[CB] |==|  0.26299
USER: genes 11 Torsion [N]-CA--CB-[CG] |==|  0.12028
USER: genes 12 Torsion [CA]-CB--CG-[CD2] |==|  0.16507
USER: genes 13 Torsion [N]-CA--C-[O] |==|  0.54764
ROOT
ATOM      1  C   LEU B 299     -19.279  -0.167  14.398  1.00 46.80 LIG 0.24  C 
ATOM      2 O    LEU B 299     -20.456  -0.510  14.218  1.00 48.15 LIG-0.27  OA
ATOM      3  N   PRO B 300     -18.928   0.752  15.322  1.00 44.47 LIG-0.34  N 
ATOM      4  CA  PRO B 300     -19.950   1.424  16.141  1.00 41.25 LIG 0.18  C 
ATOM      5  CB  PRO B 300     -19.212   1.669  17.461  1.00 41.07 LIG 0.04  C 
ATOM      6  CG  PRO B 300     -17.773   1.903  17.030  1.00 41.88 LIG 0.02  C 
ATOM      7  CD  PRO B 300     -17.559   1.152  15.727  1.00 43.19 LIG 0.13  C 
ENDROOT
BRANCH 1 8
ATOM      8  CA  LEU B 299     -18.143  -0.805  13.577  1.00 51.80 LIG 0.18  C 
BRANCH 8 9
ATOM      9  CB  LEU B 299     -17.333  -1.795  14.417  1.00 51.70 LIG 0.04  C 
BRANCH 9 10
ATOM     10  CG  LEU B 299     -18.072  -3.018  14.979  1.00 53.57 LIG-0.02  C 
ATOM     11  CD2 LEU B 299     -18.873  -2.695  16.238  1.00 54.40 LIG 0.01  C 
ATOM     12  CD1 LEU B 299     -17.092  -4.144  15.257  1.00 50.77 LIG 0.01  C 
ENDBRANCH 9 10
ENDBRANCH 8 9
BRANCH 8 13
ATOM     13  N   LEU B 299     -17.268   0.172  12.904  1.00 58.35 LIG-0.35  N 
ATOM     14  C   ASP B 298     -17.549   0.621  11.678  1.00 67.04 LIG 0.26  C 
ATOM     15 O    ASP B 298     -18.578   0.281  11.066  1.00 64.28 LIG-0.27  OA
ATOM     16 H    LEU B 299     -16.583   0.416  13.363  1.00 58.35 LIG 0.16  HD
BRANCH 14 17
ATOM     17  CA  ASP B 298     -16.537   1.602  11.021  1.00 70.29 LIG 0.41  C 
ATOM     18  N   ASP B 298     -15.272   0.957  10.549  1.00 66.44 LIG 0.61  N 
BRANCH 17 19
ATOM     19  CB  ASP B 298     -17.188   2.432   9.893  1.00 75.12 LIG 0.16  C 
BRANCH 19 20
ATOM     20  CG  ASP B 298     -16.230   3.453   9.263  1.00 83.78 LIG 0.17  C 
ATOM     21 OD2  ASP B 298     -16.632   4.612   9.014  1.00 86.97 LIG-0.65  OA
ATOM     22 OD1  ASP B 298     -15.059   3.091   9.015  1.00 89.47 LIG-0.65  OA
ENDBRANCH 19 20
ENDBRANCH 17 19
ENDBRANCH 14 17
ENDBRANCH 8 13
ENDBRANCH 1 8
BRANCH 4 23
ATOM     23  C   PRO B 300     -20.450   2.749  15.488  1.00 41.91 LIG 0.24  C 
ATOM     24  N   PHE B 301     -19.586   3.352  14.675  1.00 41.99 LIG-0.34  N 
ATOM     25 H    PHE B 301     -18.794   3.046  14.542  1.00 41.99 LIG 0.16  HD
ATOM     26 O    PRO B 300     -21.585   3.180  15.725  1.00 39.52 LIG-0.27  OA
BRANCH 24 27
ATOM     27  CA  PHE B 301     -19.854   4.585  13.915  1.00 41.99 LIG 0.19  C 
BRANCH 27 28
ATOM     28  CB  PHE B 301     -19.363   5.835  14.676  1.00 39.59 LIG 0.07  C 
BRANCH 28 29
ATOM     29  CG  PHE B 301     -17.991   5.681  15.318  1.00 41.19 LIG-0.06  A 
ATOM     30  CD1 PHE B 301     -17.836   5.847  16.687  1.00 38.91 LIG 0.01  A 
ATOM     31  CE1 PHE B 301     -16.584   5.715  17.293  1.00 39.99 LIG 0.00  A 
ATOM     32  CZ  PHE B 301     -15.465   5.443  16.522  1.00 37.57 LIG 0.00  A 
ATOM     33  CE2 PHE B 301     -15.603   5.277  15.147  1.00 41.60 LIG 0.00  A 
ATOM     34  CD2 PHE B 301     -16.859   5.389  14.551  1.00 40.14 LIG 0.01  A 
ENDBRANCH 28 29
ENDBRANCH 27 28
BRANCH 27 35
ATOM     35  C   PHE B 301     -19.185   4.468  12.540  1.00 45.15 LIG 0.20  C 
ATOM     36 O    PHE B 301     -18.962   5.437  11.791  1.00 42.31 LIG-0.65  OA
ATOM     37 OXT  PHE B 301     -18.816   3.348  12.152  1.00 47.06 LIG-0.65  OA
ENDBRANCH 27 35
ENDBRANCH 24 27
ENDBRANCH 4 23
TORSDOF 12
ENDMDL
MODEL 15
USER: ADFR SOLUTION from run 78
USER: SCORE 14.163922 LL:  -4.484 LR:  -9.971 RR:   0.000 FEB:  -6.392
USER: RMSD 3.446708
USER: SEED 77
USER: STATUS no improvement in best in 4 clusters for 5 generations
USER: GENES 14
USER: genes 0 Translation |==|  0.49000 0.53370 0.53758
USER: genes 1 Rotation |==|  0.55477 0.48701 0.62172 0.98168
USER: genes 2 Torsion [N]-C--CA-[N] |==|  0.48752
USER: genes 3 Torsion [C]-CA--CB-[CG] |==|  0.71759
USER: genes 4 Torsion [CA]-CB--CG-[CD2] |==|  0.54701
USER: genes 5 Torsion [C]-CA--N-[C] |==|  0.53340
USER: genes 6 Torsion [N]-C--CA-[N] |==|  0.79596
USER: genes 7 Torsion [C]-CA--CB-[CG] |==|  0.78219
USER: genes 8 Torsion [CA]-CB--CG-[OD2] |==|  0.91193
USER: genes 9 Torsion [N]-CA--C-[N] |==|  0.10759
USER: genes 10 Torsion [C]-N--CA-[CB] |==|  0.19345
USER: genes 11 Torsion [N]-CA--CB-[CG] |==|  0.11304
USER: genes 12 Torsion [CA]-CB--CG-[CD2] |==|  0.26329
USER: genes 13 Torsion [N]-CA--C-[O] |==|  0.59819
ROOT
ATOM      1  C   LEU B 299     -16.509   1.175  14.413  1.00 46.80 LIG 0.24  C 
ATOM      2 O    LEU B 299     -16.803   0.725  13.297  1.00 48.15 LIG-0.27  OA
ATOM      3  N   PRO B 300     -17.422   1.308  15.400  1.00 44.47 LIG-0.34  N 
ATOM      4  CA  PRO B 300     -18.832   0.954  15.173  1.00 41.25 LIG 0.18  C 
ATOM      5  CB  PRO B 300     -19.279   0.463  16.554  1.00 41.07 LIG 0.04  C 
ATOM      6  CG  PRO B 300     -18.465   1.312  17.518  1.00 41.88 LIG 0.02  C 
ATOM      7  CD  PRO B 300     -17.181   1.702  16.808  1.00 43.19 LIG 0.13  C 
ENDROOT
BRANCH 1 8
ATOM      8  CA  LEU B 299     -15.061   1.584  14.738  1.00 51.80 LIG 0.18  C 
BRANCH 8 9
ATOM      9  CB  LEU B 299     -14.981   3.039  15.203  1.00 51.70 LIG 0.04  C 
BRANCH 9 10
ATOM     10  CG  LEU B 299     -14.500   4.084  14.185  1.00 53.57 LIG-0.02  C 
ATOM     11  CD2 LEU B 299     -14.069   5.392  14.842  1.00 54.40 LIG 0.01  C 
ATOM     12  CD1 LEU B 299     -15.579   4.348  13.151  1.00 50.77 LIG 0.01  C 
ENDBRANCH 9 10
ENDBRANCH 8 9
BRANCH 8 13
ATOM     13  N   LEU B 299     -14.104   1.314  13.649  1.00 58.35 LIG-0.35  N 
ATOM     14  C   ASP B 298     -12.787   1.387  13.853  1.00 67.04 LIG 0.26  C 
ATOM     15 O    ASP B 298     -12.301   1.635  14.973  1.00 64.28 LIG-0.27  OA
ATOM     16 H    LEU B 299     -14.466   1.111  12.896  1.00 58.35 LIG 0.16  HD
BRANCH 14 17
ATOM     17  CA  ASP B 298     -11.854   1.148  12.633  1.00 70.29 LIG 0.41  C 
ATOM     18  N   ASP B 298     -11.766  -0.280  12.195  1.00 66.44 LIG 0.61  N 
BRANCH 17 19
ATOM     19  CB  ASP B 298     -12.211   2.068  11.445  1.00 75.12 LIG 0.16  C 
BRANCH 19 20
ATOM     20  CG  ASP B 298     -13.435   1.585  10.652  1.00 83.78 LIG 0.17  C 
ATOM     21 OD2  ASP B 298     -13.671   0.359  10.561  1.00 86.97 LIG-0.65  OA
ATOM     22 OD1  ASP B 298     -14.169   2.443  10.115  1.00 89.47 LIG-0.65  OA
ENDBRANCH 19 20
ENDBRANCH 17 19
ENDBRANCH 14 17
ENDBRANCH 8 13
ENDBRANCH 1 8
BRANCH 4 23
ATOM     23  C   PRO B 300     -19.672   2.171  14.678  1.00 41.91 LIG 0.24  C 
ATOM     24  N   PHE B 301     -19.060   2.983  13.819  1.00 41.99 LIG-0.34  N 
ATOM     25 H    PHE B 301     -18.244   2.860  13.577  1.00 41.99 LIG 0.16  HD
ATOM     26 O    PRO B 300     -20.833   2.338  15.071  1.00 39.52 LIG-0.27  OA
BRANCH 24 27
ATOM     27  CA  PHE B 301     -19.669   4.164  13.186  1.00 41.99 LIG 0.19  C 
BRANCH 27 28
ATOM     28  CB  PHE B 301     -19.908   5.294  14.211  1.00 39.59 LIG 0.07  C 
BRANCH 28 29
ATOM     29  CG  PHE B 301     -18.780   5.481  15.215  1.00 41.19 LIG-0.06  A 
ATOM     30  CD1 PHE B 301     -18.746   4.725  16.378  1.00 38.91 LIG 0.01  A 
ATOM     31  CE1 PHE B 301     -17.722   4.886  17.315  1.00 39.99 LIG 0.00  A 
ATOM     32  CZ  PHE B 301     -16.732   5.834  17.105  1.00 37.57 LIG 0.00  A 
ATOM     33  CE2 PHE B 301     -16.754   6.602  15.944  1.00 41.60 LIG 0.00  A 
ATOM     34  CD2 PHE B 301     -17.768   6.421  15.003  1.00 40.14 LIG 0.01  A 
ENDBRANCH 28 29
ENDBRANCH 27 28
BRANCH 27 35
ATOM     35  C   PHE B 301     -18.759   4.631  12.042  1.00 45.15 LIG 0.20  C 
ATOM     36 O    PHE B 301     -18.588   5.825  11.733  1.00 42.31 LIG-0.65  OA
ATOM     37 OXT  PHE B 301     -18.132   3.776  11.396  1.00 47.06 LIG-0.65  OA
ENDBRANCH 27 35
ENDBRANCH 24 27
ENDBRANCH 4 23
TORSDOF 12
ENDMDL
