MODEL 1
USER: ADFR SOLUTION from run 58
USER: SCORE 20.673342 LL:  -1.627 LR: -19.313 RR:   0.000 FEB: -14.540
USER: RMSD 1.496394
USER: SEED 57
USER: STATUS no improvement in best in 3 clusters for 5 generations
USER: GENES 18
USER: genes 0 Translation |==|  0.46430 0.46539 0.58608
USER: genes 1 Rotation |==|  0.49960 0.50783 0.51307 0.99977
USER: genes 2 Torsion [N]-C--CA-[N] |==|  0.31839
USER: genes 3 Torsion [C]-CA--CB-[CG] |==|  0.65490
USER: genes 4 Torsion [CA]-CB--CG-[CD] |==|  0.55832
USER: genes 5 Torsion [CB]-CG--CD-[NE] |==|  0.86777
USER: genes 6 Torsion [CG]-CD--NE-[CZ] |==|  0.27294
USER: genes 7 Torsion [C]-CA--N-[C] |==|  0.62332
USER: genes 8 Torsion [N]-C--CA-[N] |==|  0.02800
USER: genes 9 Torsion [C]-CA--CB-[CG2] |==|  0.60439
USER: genes 10 Torsion [C]-CA--N-[H3] |==|  0.20793
USER: genes 11 Torsion [N]-CA--C-[O] |==|  0.90879
USER: genes 12 Torsion [C]-N--CA-[C] |==|  0.75444
USER: genes 13 Torsion [N]-CA--CB-[CG] |==|  0.85409
USER: genes 14 Torsion [CA]-CB--CG-[CD] |==|  0.64915
USER: genes 15 Torsion [CB]-CG--CD-[NE] |==|  0.43452
USER: genes 16 Torsion [CG]-CD--NE-[HE] |==|  0.85909
USER: genes 17 Torsion [N]-CA--C-[O] |==|  0.68563
ROOT
ATOM      1  C   ARG L   2     -23.688   7.177 -39.786  1.00 28.86 LIG 0.24  C 
ATOM      2 O    ARG L   2     -22.853   8.034 -39.533  1.00 28.60 LIG-0.27  OA
ATOM      3  N   PRO L   3     -23.836   6.074 -39.048  1.00 31.50 LIG-0.34  N 
ATOM      4  CA  PRO L   3     -23.053   5.873 -37.829  1.00 28.56 LIG 0.18  C 
ATOM      5  CB  PRO L   3     -23.821   4.764 -37.112  1.00 31.15 LIG 0.04  C 
ATOM      6  CG  PRO L   3     -24.414   3.969 -38.212  1.00 34.79 LIG 0.02  C 
ATOM      7  CD  PRO L   3     -24.749   4.947 -39.306  1.00 34.83 LIG 0.13  C 
ENDROOT
BRANCH 1 8
ATOM      8  CA  ARG L   2     -24.609   7.342 -40.978  1.00 35.60 LIG 0.18  C 
BRANCH 8 9
ATOM      9  CB  ARG L   2     -23.772   7.538 -42.239  1.00 35.35 LIG 0.04  C 
BRANCH 9 10
ATOM     10  CG  ARG L   2     -24.106   8.806 -42.996  1.00 43.75 LIG 0.02  C 
BRANCH 10 11
ATOM     11  CD  ARG L   2     -23.661   8.731 -44.453  1.00 55.75 LIG 0.14  C 
BRANCH 11 12
ATOM     12  NE  ARG L   2     -22.289   8.249 -44.604  1.00 59.77 LIG-0.23  N 
ATOM     13 HE   ARG L   2     -21.654   8.819 -44.495  1.00 59.77 LIG 0.18  HD
ATOM     14  CZ  ARG L   2     -21.946   6.995 -44.898  1.00 59.01 LIG 0.67  C 
ATOM     15  NH2 ARG L   2     -20.661   6.680 -45.012  1.00 68.00 LIG-0.23  N 
ATOM     16  NH1 ARG L   2     -22.870   6.059 -45.088  1.00 46.29 LIG-0.23  N 
ATOM     17 1HH2 ARG L   2     -20.058   7.282 -44.896  1.00 68.00 LIG 0.17  HD
ATOM     18 2HH2 ARG L   2     -20.431   5.873 -45.201  1.00 68.00 LIG 0.17  HD
ATOM     19 1HH1 ARG L   2     -23.703   6.258 -45.022  1.00 46.29 LIG 0.17  HD
ATOM     20 2HH1 ARG L   2     -22.633   5.255 -45.277  1.00 46.29 LIG 0.17  HD
ENDBRANCH 11 12
ENDBRANCH 10 11
ENDBRANCH 9 10
ENDBRANCH 8 9
BRANCH 8 21
ATOM     21  N   ARG L   2     -25.475   8.489 -40.753  1.00 36.06 LIG-0.35  N 
ATOM     22  C   VAL L   1     -26.778   8.442 -41.013  1.00 46.58 LIG 0.25  C 
ATOM     23 O    VAL L   1     -27.334   7.438 -41.448  1.00 52.05 LIG-0.27  OA
ATOM     24 H    ARG L   2     -25.073   9.182 -40.443  1.00 36.06 LIG 0.16  HD
BRANCH 22 25
ATOM     25  CA  VAL L   1     -27.572   9.714 -40.741  1.00 44.00 LIG 0.28  C 
BRANCH 25 26
ATOM     26  CB  VAL L   1     -28.462  10.010 -41.956  1.00 44.54 LIG 0.02  C 
ATOM     27  CG2 VAL L   1     -28.532  11.515 -42.214  1.00 44.46 LIG 0.01  C 
ATOM     28  CG1 VAL L   1     -29.848   9.424 -41.750  1.00 39.43 LIG 0.01  C 
ENDBRANCH 25 26
BRANCH 25 29
ATOM     29  N   VAL L   1     -26.661  10.858 -40.451  1.00 43.15 LIG-0.07  N 
ATOM     30 H3   VAL L   1     -26.284  11.137 -41.208  1.00 43.15 LIG 0.28  HD
ATOM     31 H2   VAL L   1     -26.028  10.597 -39.883  1.00 43.15 LIG 0.28  HD
ATOM     32 H1   VAL L   1     -27.127  11.524 -40.089  1.00 43.15 LIG 0.28  HD
ENDBRANCH 25 29
ENDBRANCH 22 25
ENDBRANCH 8 21
ENDBRANCH 1 8
BRANCH 4 33
ATOM     33  C   PRO L   3     -21.633   5.407 -38.111  1.00 21.59 LIG 0.24  C 
ATOM     34 O    PRO L   3     -21.406   4.685 -39.087  1.00 24.79 LIG-0.27  OA
ATOM     35  N   ARG L   4     -20.707   5.800 -37.240  1.00 21.43 LIG-0.35  N 
ATOM     36 H    ARG L   4     -20.874   6.328 -36.582  1.00 21.43 LIG 0.16  HD
BRANCH 35 37
ATOM     37  CA  ARG L   4     -19.321   5.376 -37.312  1.00 26.28 LIG 0.16  C 
BRANCH 37 38
ATOM     38  CB  ARG L   4     -18.412   6.475 -36.762  1.00 29.57 LIG 0.04  C 
BRANCH 38 39
ATOM     39  CG  ARG L   4     -18.665   7.821 -37.412  1.00 30.64 LIG 0.02  C 
BRANCH 39 40
ATOM     40  CD  ARG L   4     -17.401   8.442 -37.984  1.00 33.05 LIG 0.14  C 
BRANCH 40 41
ATOM     41  NE  ARG L   4     -17.713   9.397 -39.042  1.00 22.53 LIG-0.23  N 
ATOM     42 HE   ARG L   4     -18.237   9.138 -39.673  1.00 22.53 LIG 0.18  HD
ATOM     43  CZ  ARG L   4     -17.246  10.635 -39.100  1.00 22.76 LIG 0.67  C 
ATOM     44  NH2 ARG L   4     -17.580  11.419 -40.112  1.00 22.03 LIG-0.23  N 
ATOM     45  NH1 ARG L   4     -16.435  11.091 -38.154  1.00 22.99 LIG-0.23  N 
ATOM     46 2HH2 ARG L   4     -17.278  12.223 -40.151  1.00 22.03 LIG 0.17  HD
ATOM     47 1HH2 ARG L   4     -18.100  11.125 -40.731  1.00 22.03 LIG 0.17  HD
ATOM     48 1HH1 ARG L   4     -16.209  10.581 -37.499  1.00 22.99 LIG 0.17  HD
ATOM     49 2HH1 ARG L   4     -16.135  11.895 -38.196  1.00 22.99 LIG 0.17  HD
ENDBRANCH 40 41
ENDBRANCH 39 40
ENDBRANCH 38 39
ENDBRANCH 37 38
BRANCH 37 50
ATOM     50  C   ARG L   4     -19.102   4.072 -36.548  1.00 33.78 LIG 0.22  C 
ATOM     51 O    ARG L   4     -18.411   4.049 -35.529  1.00 23.95 LIG-0.29  OA
ENDBRANCH 37 50
ENDBRANCH 35 37
ENDBRANCH 4 33
TORSDOF 16
ENDMDL
MODEL 2
USER: ADFR SOLUTION from run 151
USER: SCORE 20.202770 LL:  -2.242 LR: -18.422 RR:   0.000 FEB: -13.649
USER: RMSD 5.107872
USER: SEED 150
USER: STATUS no improvement in best in 4 clusters for 5 generations
USER: GENES 18
USER: genes 0 Translation |==|  0.44158 0.48676 0.56850
USER: genes 1 Rotation |==|  0.57921 0.46817 0.62191 0.97734
USER: genes 2 Torsion [N]-C--CA-[N] |==|  0.82779
USER: genes 3 Torsion [C]-CA--CB-[CG] |==|  0.09819
USER: genes 4 Torsion [CA]-CB--CG-[CD] |==|  0.56168
USER: genes 5 Torsion [CB]-CG--CD-[NE] |==|  0.25978
USER: genes 6 Torsion [CG]-CD--NE-[CZ] |==|  0.31838
USER: genes 7 Torsion [C]-CA--N-[C] |==|  0.70164
USER: genes 8 Torsion [N]-C--CA-[N] |==|  0.67182
USER: genes 9 Torsion [C]-CA--CB-[CG2] |==|  0.77799
USER: genes 10 Torsion [C]-CA--N-[H3] |==|  0.11323
USER: genes 11 Torsion [N]-CA--C-[O] |==|  0.98624
USER: genes 12 Torsion [C]-N--CA-[C] |==|  0.67819
USER: genes 13 Torsion [N]-CA--CB-[CG] |==|  0.65265
USER: genes 14 Torsion [CA]-CB--CG-[CD] |==|  0.24059
USER: genes 15 Torsion [CB]-CG--CD-[NE] |==|  0.61509
USER: genes 16 Torsion [CG]-CD--NE-[HE] |==|  0.22735
USER: genes 17 Torsion [N]-CA--C-[O] |==|  0.76402
ROOT
ATOM      1  C   ARG L   2     -24.182   7.530 -40.142  1.00 28.86 LIG 0.24  C 
ATOM      2 O    ARG L   2     -23.829   8.498 -39.484  1.00 28.60 LIG-0.27  OA
ATOM      3  N   PRO L   3     -23.883   6.275 -39.797  1.00 31.50 LIG-0.34  N 
ATOM      4  CA  PRO L   3     -23.180   5.985 -38.547  1.00 28.56 LIG 0.18  C 
ATOM      5  CB  PRO L   3     -23.431   4.490 -38.355  1.00 31.15 LIG 0.04  C 
ATOM      6  CG  PRO L   3     -23.534   3.964 -39.736  1.00 34.79 LIG 0.02  C 
ATOM      7  CD  PRO L   3     -24.186   5.047 -40.553  1.00 34.83 LIG 0.13  C 
ENDROOT
BRANCH 1 8
ATOM      8  CA  ARG L   2     -24.995   7.725 -41.406  1.00 35.60 LIG 0.18  C 
BRANCH 8 9
ATOM      9  CB  ARG L   2     -26.326   6.991 -41.268  1.00 35.35 LIG 0.04  C 
BRANCH 9 10
ATOM     10  CG  ARG L   2     -26.886   7.015 -39.861  1.00 43.75 LIG 0.02  C 
BRANCH 10 11
ATOM     11  CD  ARG L   2     -27.870   5.875 -39.623  1.00 55.75 LIG 0.14  C 
BRANCH 11 12
ATOM     12  NE  ARG L   2     -27.239   4.692 -39.040  1.00 59.77 LIG-0.23  N 
ATOM     13 HE   ARG L   2     -26.658   4.276 -39.519  1.00 59.77 LIG 0.18  HD
ATOM     14  CZ  ARG L   2     -27.493   4.208 -37.825  1.00 59.01 LIG 0.67  C 
ATOM     15  NH2 ARG L   2     -26.855   3.121 -37.408  1.00 68.00 LIG-0.23  N 
ATOM     16  NH1 ARG L   2     -28.383   4.791 -37.028  1.00 46.29 LIG-0.23  N 
ATOM     17 1HH2 ARG L   2     -26.282   2.735 -37.922  1.00 68.00 LIG 0.17  HD
ATOM     18 2HH2 ARG L   2     -27.013   2.802 -36.626  1.00 68.00 LIG 0.17  HD
ATOM     19 1HH1 ARG L   2     -28.804   5.491 -37.294  1.00 46.29 LIG 0.17  HD
ATOM     20 2HH1 ARG L   2     -28.536   4.467 -36.247  1.00 46.29 LIG 0.17  HD
ENDBRANCH 11 12
ENDBRANCH 10 11
ENDBRANCH 9 10
ENDBRANCH 8 9
BRANCH 8 21
ATOM     21  N   ARG L   2     -24.240   7.213 -42.539  1.00 36.06 LIG-0.35  N 
ATOM     22  C   VAL L   1     -23.680   8.024 -43.430  1.00 46.58 LIG 0.25  C 
ATOM     23 O    VAL L   1     -23.754   9.248 -43.354  1.00 52.05 LIG-0.27  OA
ATOM     24 H    ARG L   2     -24.193   6.356 -42.576  1.00 36.06 LIG 0.16  HD
BRANCH 22 25
ATOM     25  CA  VAL L   1     -22.923   7.361 -44.575  1.00 44.00 LIG 0.28  C 
BRANCH 25 26
ATOM     26  CB  VAL L   1     -23.094   5.839 -44.462  1.00 44.54 LIG 0.02  C 
ATOM     27  CG2 VAL L   1     -22.138   5.271 -43.413  1.00 44.46 LIG 0.01  C 
ATOM     28  CG1 VAL L   1     -22.876   5.182 -45.814  1.00 39.43 LIG 0.01  C 
ENDBRANCH 25 26
BRANCH 25 29
ATOM     29  N   VAL L   1     -21.483   7.744 -44.552  1.00 43.15 LIG-0.07  N 
ATOM     30 H3   VAL L   1     -21.190   7.749 -43.711  1.00 43.15 LIG 0.28  HD
ATOM     31 H2   VAL L   1     -21.386   8.555 -44.904  1.00 43.15 LIG 0.28  HD
ATOM     32 H1   VAL L   1     -21.012   7.156 -45.025  1.00 43.15 LIG 0.28  HD
ENDBRANCH 25 29
ENDBRANCH 22 25
ENDBRANCH 8 21
ENDBRANCH 1 8
BRANCH 4 33
ATOM     33  C   PRO L   3     -21.683   6.241 -38.639  1.00 21.59 LIG 0.24  C 
ATOM     34 O    PRO L   3     -21.181   6.563 -39.721  1.00 24.79 LIG-0.27  OA
ATOM     35  N   ARG L   4     -20.992   6.066 -37.516  1.00 21.43 LIG-0.35  N 
ATOM     36 H    ARG L   4     -21.359   5.873 -36.763  1.00 21.43 LIG 0.16  HD
BRANCH 35 37
ATOM     37  CA  ARG L   4     -19.547   6.186 -37.449  1.00 26.28 LIG 0.16  C 
BRANCH 37 38
ATOM     38  CB  ARG L   4     -19.161   7.262 -36.434  1.00 29.57 LIG 0.04  C 
BRANCH 38 39
ATOM     39  CG  ARG L   4     -18.263   8.329 -37.030  1.00 30.64 LIG 0.02  C 
BRANCH 39 40
ATOM     40  CD  ARG L   4     -19.047   9.448 -37.696  1.00 33.05 LIG 0.14  C 
BRANCH 40 41
ATOM     41  NE  ARG L   4     -18.428   9.852 -38.954  1.00 22.53 LIG-0.23  N 
ATOM     42 HE   ARG L   4     -18.597   9.378 -39.652  1.00 22.53 LIG 0.18  HD
ATOM     43  CZ  ARG L   4     -17.625  10.895 -39.097  1.00 22.76 LIG 0.67  C 
ATOM     44  NH2 ARG L   4     -17.103  11.168 -40.282  1.00 22.03 LIG-0.23  N 
ATOM     45  NH1 ARG L   4     -17.331  11.663 -38.055  1.00 22.99 LIG-0.23  N 
ATOM     46 2HH2 ARG L   4     -16.582  11.845 -40.377  1.00 22.03 LIG 0.17  HD
ATOM     47 1HH2 ARG L   4     -17.286  10.669 -40.958  1.00 22.03 LIG 0.17  HD
ATOM     48 1HH1 ARG L   4     -17.662  11.485 -37.282  1.00 22.99 LIG 0.17  HD
ATOM     49 2HH1 ARG L   4     -16.809  12.340 -38.154  1.00 22.99 LIG 0.17  HD
ENDBRANCH 40 41
ENDBRANCH 39 40
ENDBRANCH 38 39
ENDBRANCH 37 38
BRANCH 37 50
ATOM     50  C   ARG L   4     -18.900   4.852 -37.082  1.00 33.78 LIG 0.22  C 
ATOM     51 O    ARG L   4     -18.786   4.511 -35.904  1.00 23.95 LIG-0.29  OA
ENDBRANCH 37 50
ENDBRANCH 35 37
ENDBRANCH 4 33
TORSDOF 16
ENDMDL
MODEL 3
USER: ADFR SOLUTION from run 150
USER: SCORE 19.447845 LL:  -1.778 LR: -18.010 RR:   0.000 FEB: -13.237
USER: RMSD 3.932849
USER: SEED 149
USER: STATUS no improvement in best in 5 clusters for 5 generations
USER: GENES 18
USER: genes 0 Translation |==|  0.48078 0.43396 0.52836
USER: genes 1 Rotation |==|  0.36042 0.50779 0.46916 0.97907
USER: genes 2 Torsion [N]-C--CA-[N] |==|  0.51331
USER: genes 3 Torsion [C]-CA--CB-[CG] |==|  0.80382
USER: genes 4 Torsion [CA]-CB--CG-[CD] |==|  0.63712
USER: genes 5 Torsion [CB]-CG--CD-[NE] |==|  0.36239
USER: genes 6 Torsion [CG]-CD--NE-[CZ] |==|  0.65920
USER: genes 7 Torsion [C]-CA--N-[C] |==|  0.78333
USER: genes 8 Torsion [N]-C--CA-[N] |==|  0.66567
USER: genes 9 Torsion [C]-CA--CB-[CG2] |==|  0.77991
USER: genes 10 Torsion [C]-CA--N-[H3] |==|  0.34992
USER: genes 11 Torsion [N]-CA--C-[O] |==|  0.93057
USER: genes 12 Torsion [C]-N--CA-[C] |==|  0.84379
USER: genes 13 Torsion [N]-CA--CB-[CG] |==|  0.76151
USER: genes 14 Torsion [CA]-CB--CG-[CD] |==|  0.24552
USER: genes 15 Torsion [CB]-CG--CD-[NE] |==|  0.59098
USER: genes 16 Torsion [CG]-CD--NE-[HE] |==|  0.17533
USER: genes 17 Torsion [N]-CA--C-[O] |==|  0.61559
ROOT
ATOM      1  C   ARG L   2     -23.329   6.658 -40.955  1.00 28.86 LIG 0.24  C 
ATOM      2 O    ARG L   2     -22.359   7.377 -41.150  1.00 28.60 LIG-0.27  OA
ATOM      3  N   PRO L   3     -23.629   6.161 -39.752  1.00 31.50 LIG-0.34  N 
ATOM      4  CA  PRO L   3     -22.849   6.528 -38.570  1.00 28.56 LIG 0.18  C 
ATOM      5  CB  PRO L   3     -23.761   6.109 -37.418  1.00 31.15 LIG 0.04  C 
ATOM      6  CG  PRO L   3     -24.511   4.951 -37.957  1.00 34.79 LIG 0.02  C 
ATOM      7  CD  PRO L   3     -24.720   5.228 -39.422  1.00 34.83 LIG 0.13  C 
ENDROOT
BRANCH 1 8
ATOM      8  CA  ARG L   2     -24.251   6.298 -42.103  1.00 35.60 LIG 0.18  C 
BRANCH 8 9
ATOM      9  CB  ARG L   2     -24.384   4.779 -42.184  1.00 35.35 LIG 0.04  C 
BRANCH 9 10
ATOM     10  CG  ARG L   2     -23.126   4.087 -42.666  1.00 43.75 LIG 0.02  C 
BRANCH 10 11
ATOM     11  CD  ARG L   2     -23.419   3.096 -43.787  1.00 55.75 LIG 0.14  C 
BRANCH 11 12
ATOM     12  NE  ARG L   2     -22.536   3.265 -44.940  1.00 59.77 LIG-0.23  N 
ATOM     13 HE   ARG L   2     -21.689   3.207 -44.803  1.00 59.77 LIG 0.18  HD
ATOM     14  CZ  ARG L   2     -22.942   3.501 -46.187  1.00 59.01 LIG 0.67  C 
ATOM     15  NH2 ARG L   2     -22.040   3.639 -47.152  1.00 68.00 LIG-0.23  N 
ATOM     16  NH1 ARG L   2     -24.234   3.611 -46.478  1.00 46.29 LIG-0.23  N 
ATOM     17 1HH2 ARG L   2     -21.202   3.575 -46.970  1.00 68.00 LIG 0.17  HD
ATOM     18 2HH2 ARG L   2     -22.293   3.792 -47.960  1.00 68.00 LIG 0.17  HD
ATOM     19 1HH1 ARG L   2     -24.823   3.529 -45.857  1.00 46.29 LIG 0.17  HD
ATOM     20 2HH1 ARG L   2     -24.480   3.764 -47.287  1.00 46.29 LIG 0.17  HD
ENDBRANCH 11 12
ENDBRANCH 10 11
ENDBRANCH 9 10
ENDBRANCH 8 9
BRANCH 8 21
ATOM     21  N   ARG L   2     -23.701   6.833 -43.338  1.00 36.06 LIG-0.35  N 
ATOM     22  C   VAL L   1     -23.818   8.118 -43.656  1.00 46.58 LIG 0.25  C 
ATOM     23 O    VAL L   1     -24.383   8.934 -42.933  1.00 52.05 LIG-0.27  OA
ATOM     24 H    ARG L   2     -23.304   6.252 -43.831  1.00 36.06 LIG 0.16  HD
BRANCH 22 25
ATOM     25  CA  VAL L   1     -23.205   8.550 -44.983  1.00 44.00 LIG 0.28  C 
BRANCH 25 26
ATOM     26  CB  VAL L   1     -22.618   7.314 -45.681  1.00 44.54 LIG 0.02  C 
ATOM     27  CG2 VAL L   1     -21.261   6.953 -45.077  1.00 44.46 LIG 0.01  C 
ATOM     28  CG1 VAL L   1     -22.506   7.555 -47.176  1.00 39.43 LIG 0.01  C 
ENDBRANCH 25 26
BRANCH 25 29
ATOM     29  N   VAL L   1     -22.161   9.593 -44.772  1.00 43.15 LIG-0.07  N 
ATOM     30 H3   VAL L   1     -21.400   9.334 -45.155  1.00 43.15 LIG 0.28  HD
ATOM     31 H2   VAL L   1     -22.029   9.709 -43.900  1.00 43.15 LIG 0.28  HD
ATOM     32 H1   VAL L   1     -22.429  10.359 -45.135  1.00 43.15 LIG 0.28  HD
ENDBRANCH 25 29
ENDBRANCH 22 25
ENDBRANCH 8 21
ENDBRANCH 1 8
BRANCH 4 33
ATOM     33  C   PRO L   3     -21.532   5.771 -38.476  1.00 21.59 LIG 0.24  C 
ATOM     34 O    PRO L   3     -21.414   4.672 -39.027  1.00 24.79 LIG-0.27  OA
ATOM     35  N   ARG L   4     -20.576   6.353 -37.756  1.00 21.43 LIG-0.35  N 
ATOM     36 H    ARG L   4     -20.662   7.133 -37.403  1.00 21.43 LIG 0.16  HD
BRANCH 35 37
ATOM     37  CA  ARG L   4     -19.292   5.730 -37.494  1.00 26.28 LIG 0.16  C 
BRANCH 37 38
ATOM     38  CB  ARG L   4     -18.440   6.646 -36.615  1.00 29.57 LIG 0.04  C 
BRANCH 38 39
ATOM     39  CG  ARG L   4     -17.663   7.669 -37.421  1.00 30.64 LIG 0.02  C 
BRANCH 39 40
ATOM     40  CD  ARG L   4     -18.452   8.947 -37.660  1.00 33.05 LIG 0.14  C 
BRANCH 40 41
ATOM     41  NE  ARG L   4     -18.115   9.543 -38.948  1.00 22.53 LIG-0.23  N 
ATOM     42 HE   ARG L   4     -18.295   9.090 -39.657  1.00 22.53 LIG 0.18  HD
ATOM     43  CZ  ARG L   4     -17.553  10.732 -39.104  1.00 22.76 LIG 0.67  C 
ATOM     44  NH2 ARG L   4     -17.276  11.176 -40.319  1.00 22.03 LIG-0.23  N 
ATOM     45  NH1 ARG L   4     -17.256  11.476 -38.047  1.00 22.99 LIG-0.23  N 
ATOM     46 2HH2 ARG L   4     -16.911  11.948 -40.422  1.00 22.03 LIG 0.17  HD
ATOM     47 1HH2 ARG L   4     -17.461  10.693 -41.006  1.00 22.03 LIG 0.17  HD
ATOM     48 1HH1 ARG L   4     -17.428  11.188 -37.255  1.00 22.99 LIG 0.17  HD
ATOM     49 2HH1 ARG L   4     -16.891  12.248 -38.153  1.00 22.99 LIG 0.17  HD
ENDBRANCH 40 41
ENDBRANCH 39 40
ENDBRANCH 38 39
ENDBRANCH 37 38
BRANCH 37 50
ATOM     50  C   ARG L   4     -19.466   4.366 -36.830  1.00 33.78 LIG 0.22  C 
ATOM     51 O    ARG L   4     -18.732   4.020 -35.903  1.00 23.95 LIG-0.29  OA
ENDBRANCH 37 50
ENDBRANCH 35 37
ENDBRANCH 4 33
TORSDOF 16
ENDMDL
MODEL 4
USER: ADFR SOLUTION from run 151
USER: SCORE 19.399338 LL:  -2.137 LR: -17.723 RR:   0.000 FEB: -12.951
USER: RMSD 4.749852
USER: SEED 150
USER: STATUS no improvement in best in 4 clusters for 5 generations
USER: GENES 18
USER: genes 0 Translation |==|  0.44158 0.48606 0.57010
USER: genes 1 Rotation |==|  0.57828 0.47008 0.62194 0.97761
USER: genes 2 Torsion [N]-C--CA-[N] |==|  0.82778
USER: genes 3 Torsion [C]-CA--CB-[CG] |==|  0.32005
USER: genes 4 Torsion [CA]-CB--CG-[CD] |==|  0.82625
USER: genes 5 Torsion [CB]-CG--CD-[NE] |==|  0.25679
USER: genes 6 Torsion [CG]-CD--NE-[CZ] |==|  0.38909
USER: genes 7 Torsion [C]-CA--N-[C] |==|  0.70311
USER: genes 8 Torsion [N]-C--CA-[N] |==|  0.66999
USER: genes 9 Torsion [C]-CA--CB-[CG2] |==|  0.77371
USER: genes 10 Torsion [C]-CA--N-[H3] |==|  0.11211
USER: genes 11 Torsion [N]-CA--C-[O] |==|  0.98720
USER: genes 12 Torsion [C]-N--CA-[C] |==|  0.67826
USER: genes 13 Torsion [N]-CA--CB-[CG] |==|  0.65367
USER: genes 14 Torsion [CA]-CB--CG-[CD] |==|  0.23911
USER: genes 15 Torsion [CB]-CG--CD-[NE] |==|  0.61385
USER: genes 16 Torsion [CG]-CD--NE-[HE] |==|  0.22797
USER: genes 17 Torsion [N]-CA--C-[O] |==|  0.76978
ROOT
ATOM      1  C   ARG L   2     -24.182   7.518 -40.110  1.00 28.86 LIG 0.24  C 
ATOM      2 O    ARG L   2     -23.826   8.490 -39.459  1.00 28.60 LIG-0.27  OA
ATOM      3  N   PRO L   3     -23.879   6.266 -39.759  1.00 31.50 LIG-0.34  N 
ATOM      4  CA  PRO L   3     -23.168   5.983 -38.512  1.00 28.56 LIG 0.18  C 
ATOM      5  CB  PRO L   3     -23.417   4.489 -38.311  1.00 31.15 LIG 0.04  C 
ATOM      6  CG  PRO L   3     -23.528   3.955 -39.688  1.00 34.79 LIG 0.02  C 
ATOM      7  CD  PRO L   3     -24.186   5.033 -40.507  1.00 34.83 LIG 0.13  C 
ENDROOT
BRANCH 1 8
ATOM      8  CA  ARG L   2     -25.003   7.706 -41.370  1.00 35.60 LIG 0.18  C 
BRANCH 8 9
ATOM      9  CB  ARG L   2     -26.332   6.971 -41.219  1.00 35.35 LIG 0.04  C 
BRANCH 9 10
ATOM     10  CG  ARG L   2     -27.534   7.892 -41.210  1.00 43.75 LIG 0.02  C 
BRANCH 10 11
ATOM     11  CD  ARG L   2     -27.504   8.853 -40.026  1.00 55.75 LIG 0.14  C 
BRANCH 11 12
ATOM     12  NE  ARG L   2     -26.863  10.128 -40.345  1.00 59.77 LIG-0.23  N 
ATOM     13 HE   ARG L   2     -26.160  10.105 -40.841  1.00 59.77 LIG 0.18  HD
ATOM     14  CZ  ARG L   2     -27.282  11.321 -39.927  1.00 59.01 LIG 0.67  C 
ATOM     15  NH2 ARG L   2     -26.610  12.411 -40.283  1.00 68.00 LIG-0.23  N 
ATOM     16  NH1 ARG L   2     -28.356  11.438 -39.153  1.00 46.29 LIG-0.23  N 
ATOM     17 1HH2 ARG L   2     -25.911  12.342 -40.779  1.00 68.00 LIG 0.17  HD
ATOM     18 2HH2 ARG L   2     -26.874  13.185 -40.018  1.00 68.00 LIG 0.17  HD
ATOM     19 1HH1 ARG L   2     -28.792  10.737 -38.914  1.00 46.29 LIG 0.17  HD
ATOM     20 2HH1 ARG L   2     -28.614  12.215 -38.891  1.00 46.29 LIG 0.17  HD
ENDBRANCH 11 12
ENDBRANCH 10 11
ENDBRANCH 9 10
ENDBRANCH 8 9
BRANCH 8 21
ATOM     21  N   ARG L   2     -24.255   7.188 -42.505  1.00 36.06 LIG-0.35  N 
ATOM     22  C   VAL L   1     -23.693   7.995 -43.398  1.00 46.58 LIG 0.25  C 
ATOM     23 O    VAL L   1     -23.759   9.219 -43.323  1.00 52.05 LIG-0.27  OA
ATOM     24 H    ARG L   2     -24.213   6.330 -42.541  1.00 36.06 LIG 0.16  HD
BRANCH 22 25
ATOM     25  CA  VAL L   1     -22.944   7.326 -44.544  1.00 44.00 LIG 0.28  C 
BRANCH 25 26
ATOM     26  CB  VAL L   1     -23.110   5.805 -44.420  1.00 44.54 LIG 0.02  C 
ATOM     27  CG2 VAL L   1     -22.118   5.240 -43.403  1.00 44.46 LIG 0.01  C 
ATOM     28  CG1 VAL L   1     -22.939   5.143 -45.777  1.00 39.43 LIG 0.01  C 
ENDBRANCH 25 26
BRANCH 25 29
ATOM     29  N   VAL L   1     -21.504   7.712 -44.536  1.00 43.15 LIG-0.07  N 
ATOM     30 H3   VAL L   1     -21.206   7.729 -43.697  1.00 43.15 LIG 0.28  HD
ATOM     31 H2   VAL L   1     -21.411   8.519 -44.899  1.00 43.15 LIG 0.28  HD
ATOM     32 H1   VAL L   1     -21.035   7.119 -45.005  1.00 43.15 LIG 0.28  HD
ENDBRANCH 25 29
ENDBRANCH 22 25
ENDBRANCH 8 21
ENDBRANCH 1 8
BRANCH 4 33
ATOM     33  C   PRO L   3     -21.673   6.240 -38.616  1.00 21.59 LIG 0.24  C 
ATOM     34 O    PRO L   3     -21.178   6.562 -39.701  1.00 24.79 LIG-0.27  OA
ATOM     35  N   ARG L   4     -20.973   6.065 -37.498  1.00 21.43 LIG-0.35  N 
ATOM     36 H    ARG L   4     -21.334   5.871 -36.742  1.00 21.43 LIG 0.16  HD
BRANCH 35 37
ATOM     37  CA  ARG L   4     -19.527   6.185 -37.441  1.00 26.28 LIG 0.16  C 
BRANCH 37 38
ATOM     38  CB  ARG L   4     -19.134   7.261 -36.429  1.00 29.57 LIG 0.04  C 
BRANCH 38 39
ATOM     39  CG  ARG L   4     -18.249   8.333 -37.032  1.00 30.64 LIG 0.02  C 
BRANCH 39 40
ATOM     40  CD  ARG L   4     -19.046   9.444 -37.698  1.00 33.05 LIG 0.14  C 
BRANCH 40 41
ATOM     41  NE  ARG L   4     -18.431   9.856 -38.955  1.00 22.53 LIG-0.23  N 
ATOM     42 HE   ARG L   4     -18.596   9.383 -39.654  1.00 22.53 LIG 0.18  HD
ATOM     43  CZ  ARG L   4     -17.637  10.907 -39.096  1.00 22.76 LIG 0.67  C 
ATOM     44  NH2 ARG L   4     -17.119  11.187 -40.281  1.00 22.03 LIG-0.23  N 
ATOM     45  NH1 ARG L   4     -17.349  11.674 -38.053  1.00 22.99 LIG-0.23  N 
ATOM     46 2HH2 ARG L   4     -16.603  11.869 -40.374  1.00 22.03 LIG 0.17  HD
ATOM     47 1HH2 ARG L   4     -17.298  10.688 -40.958  1.00 22.03 LIG 0.17  HD
ATOM     48 1HH1 ARG L   4     -17.678  11.491 -37.280  1.00 22.99 LIG 0.17  HD
ATOM     49 2HH1 ARG L   4     -16.833  12.356 -38.150  1.00 22.99 LIG 0.17  HD
ENDBRANCH 40 41
ENDBRANCH 39 40
ENDBRANCH 38 39
ENDBRANCH 37 38
BRANCH 37 50
ATOM     50  C   ARG L   4     -18.877   4.851 -37.080  1.00 33.78 LIG 0.22  C 
ATOM     51 O    ARG L   4     -18.788   4.493 -35.906  1.00 23.95 LIG-0.29  OA
ENDBRANCH 37 50
ENDBRANCH 35 37
ENDBRANCH 4 33
TORSDOF 16
ENDMDL
