MODEL 1
USER: ADFR SOLUTION from run 148
USER: SCORE 22.958662 LL:  -4.355 LR: -19.118 RR:   0.000 FEB: -11.661
USER: RMSD 1.435444
USER: SEED 147
USER: STATUS no improvement in best in 1 clusters for 5 generations
USER: GENES 27
USER: genes 0 Translation |==|  0.64089 0.54134 0.57046
USER: genes 1 Rotation |==|  0.51683 0.46394 0.50069 0.99841
USER: genes 2 Torsion [N]-CA--C-[N] |==|  0.95125
USER: genes 3 Torsion [C]-N--CA-[C] |==|  0.71480
USER: genes 4 Torsion [N]-CA--CB-[CG] |==|  0.68141
USER: genes 5 Torsion [CA]-CB--CG-[CD] |==|  0.63562
USER: genes 6 Torsion [CB]-CG--CD-[OE2] |==|  0.71189
USER: genes 7 Torsion [N]-CA--C-[N] |==|  0.36667
USER: genes 8 Torsion [C]-N--CA-[C] |==|  0.65901
USER: genes 9 Torsion [N]-CA--C-[N] |==|  0.38971
USER: genes 10 Torsion [C]-N--CA-[C] |==|  0.74239
USER: genes 11 Torsion [N]-CA--C-[OXT] |==|  0.20820
USER: genes 12 Torsion [N]-CA--CB-[CG] |==|  0.84797
USER: genes 13 Torsion [CA]-CB--CG-[OD1] |==|  0.19013
USER: genes 14 Torsion [N]-CA--CB-[CG2] |==|  0.13271
USER: genes 15 Torsion [C]-CA--CB-[CG] |==|  0.47395
USER: genes 16 Torsion [CA]-CB--CG-[CD] |==|  0.85287
USER: genes 17 Torsion [CB]-CG--CD-[OE2] |==|  0.90452
USER: genes 18 Torsion [C]-CA--N-[C] |==|  0.82400
USER: genes 19 Torsion [N]-C--CA-[N] |==|  0.88695
USER: genes 20 Torsion [C]-CA--N-[C] |==|  0.77636
USER: genes 21 Torsion [N]-C--CA-[N] |==|  0.91896
USER: genes 22 Torsion [C]-CA--N-[C] |==|  0.84243
USER: genes 23 Torsion [N]-C--CA-[CB] |==|  0.11465
USER: genes 24 Torsion [C]-CA--CB-[CG2] |==|  0.08829
USER: genes 25 Torsion [CA]-CB--OG1-[HG1] |==|  0.20717
USER: genes 26 Torsion [C]-CA--CB-[CG1] |==|  0.18515
ROOT
ATOM      1  CA  GLU B 653       7.797 -22.118  15.159  1.00 16.59 LIG 0.18  C 
ENDROOT
BRANCH 1 2
ATOM      2  C   GLU B 653       7.027 -22.400  13.853  1.00 17.01 LIG 0.24  C 
ATOM      3 O    GLU B 653       7.630 -22.690  12.801  1.00 18.89 LIG-0.27  OA
ATOM      4  N   GLU B 654       5.709 -22.347  13.924  1.00 17.47 LIG-0.35  N 
ATOM      5 H    GLU B 654       5.291 -22.070  14.623  1.00 17.47 LIG 0.16  HD
BRANCH 4 6
ATOM      6  CA  GLU B 654       4.839 -22.741  12.859  1.00 19.20 LIG 0.18  C 
BRANCH 6 7
ATOM      7  CB  GLU B 654       3.697 -23.575  13.414  1.00 21.36 LIG 0.04  C 
BRANCH 7 8
ATOM      8  CG  GLU B 654       3.718 -24.990  12.928  1.00 25.94 LIG 0.12  C 
BRANCH 8 9
ATOM      9  CD  GLU B 654       2.395 -25.448  12.417  1.00 34.53 LIG 0.17  C 
ATOM     10 OE2  GLU B 654       1.696 -26.211  13.138  1.00 38.43 LIG-0.65  OA
ATOM     11 OE1  GLU B 654       2.045 -25.019  11.281  1.00 40.98 LIG-0.65  OA
ENDBRANCH 8 9
ENDBRANCH 7 8
ENDBRANCH 6 7
BRANCH 6 12
ATOM     12  C   GLU B 654       4.273 -21.551  12.116  1.00 18.66 LIG 0.24  C 
ATOM     13  N   VAL B 655       4.335 -21.588  10.781  1.00 18.37 LIG-0.35  N 
ATOM     14 H    VAL B 655       4.773 -22.182  10.341  1.00 18.37 LIG 0.16  HD
ATOM     15 O    GLU B 654       3.907 -20.575  12.748  1.00 17.95 LIG-0.27  OA
BRANCH 13 16
ATOM     16  CA  VAL B 655       3.649 -20.603   9.940  1.00 18.99 LIG 0.18  C 
BRANCH 16 17
ATOM     17  C   VAL B 655       2.710 -21.365   8.999  1.00 20.12 LIG 0.24  C 
ATOM     18 O    VAL B 655       3.062 -22.452   8.510  1.00 20.44 LIG-0.27  OA
ATOM     19  N   ASP B 656       1.520 -20.807   8.784  1.00 20.60 LIG-0.34  N 
ATOM     20 H    ASP B 656       1.278 -20.051   9.116  1.00 20.60 LIG 0.16  HD
BRANCH 19 21
ATOM     21  CA  ASP B 656       0.500 -21.456   7.938  1.00 22.64 LIG 0.20  C 
BRANCH 21 22
ATOM     22  C   ASP B 656       0.566 -20.998   6.472  1.00 24.92 LIG 0.20  C 
ATOM     23 OXT  ASP B 656       1.488 -21.421   5.714  1.00 27.50 LIG-0.65  OA
ATOM     24 O    ASP B 656      -0.257 -20.175   6.021  1.00 24.52 LIG-0.65  OA
ENDBRANCH 21 22
BRANCH 21 25
ATOM     25  CB  ASP B 656      -0.867 -21.146   8.527  1.00 22.32 LIG 0.15  C 
BRANCH 25 26
ATOM     26  CG  ASP B 656      -0.962 -21.549   9.994  1.00 24.14 LIG 0.17  C 
ATOM     27 OD1  ASP B 656      -0.298 -20.925  10.849  1.00 27.79 LIG-0.65  OA
ATOM     28 OD2  ASP B 656      -1.749 -22.456  10.309  1.00 21.16 LIG-0.65  OA
ENDBRANCH 25 26
ENDBRANCH 21 25
ENDBRANCH 19 21
ENDBRANCH 16 17
BRANCH 16 29
ATOM     29  CB  VAL B 655       4.582 -19.725   9.101  1.00 17.39 LIG 0.01  C 
ATOM     30  CG2 VAL B 655       5.646 -20.577   8.368  1.00 19.33 LIG 0.01  C 
ATOM     31  CG1 VAL B 655       5.245 -18.599   9.987  1.00 17.58 LIG 0.01  C 
ENDBRANCH 16 29
ENDBRANCH 13 16
ENDBRANCH 6 12
ENDBRANCH 4 6
ENDBRANCH 1 2
BRANCH 1 32
ATOM     32  CB  GLU B 653       8.344 -23.481  15.705  1.00 16.22 LIG 0.04  C 
BRANCH 32 33
ATOM     33  CG  GLU B 653       9.301 -23.341  16.851  1.00 17.46 LIG 0.12  C 
BRANCH 33 34
ATOM     34  CD  GLU B 653      10.484 -22.374  16.561  1.00 17.13 LIG 0.17  C 
ATOM     35 OE1  GLU B 653      10.908 -21.699  17.531  1.00 19.48 LIG-0.65  OA
ATOM     36 OE2  GLU B 653      11.001 -22.270  15.396  1.00 19.36 LIG-0.65  OA
ENDBRANCH 33 34
ENDBRANCH 32 33
ENDBRANCH 1 32
BRANCH 1 37
ATOM     37  N   GLU B 653       7.003 -21.440  16.197  1.00 15.81 LIG-0.35  N 
ATOM     38  C   VAL B 652       6.470 -20.207  16.101  1.00 15.71 LIG 0.24  C 
ATOM     39 O    VAL B 652       6.498 -19.537  15.079  1.00 14.72 LIG-0.27  OA
ATOM     40 H    GLU B 653       6.904 -21.922  16.902  1.00 15.81 LIG 0.16  HD
BRANCH 38 41
ATOM     41  CA  VAL B 652       5.631 -19.697  17.329  1.00 15.41 LIG 0.18  C 
BRANCH 41 42
ATOM     42  N   VAL B 652       4.811 -20.779  17.844  1.00 15.06 LIG-0.35  N 
ATOM     43  C   THR B 651       3.661 -21.098  17.255  1.00 17.05 LIG 0.24  C 
ATOM     44 O    THR B 651       3.322 -20.674  16.157  1.00 16.18 LIG-0.27  OA
ATOM     45 H    VAL B 652       5.129 -21.176  18.538  1.00 15.06 LIG 0.16  HD
BRANCH 43 46
ATOM     46  CA  THR B 651       2.809 -22.143  17.925  1.00 18.25 LIG 0.20  C 
BRANCH 46 47
ATOM     47  N   THR B 651       3.550 -23.122  18.695  1.00 18.62 LIG-0.34  N 
ATOM     48 H    THR B 651       3.316 -23.180  19.520  1.00 18.62 LIG 0.16  HD
ATOM     49  C   PRO B 650       4.497 -23.849  18.143  1.00 22.21 LIG 0.25  C 
ATOM     50 O    PRO B 650       4.937 -23.619  17.027  1.00 21.73 LIG-0.27  OA
BRANCH 49 51
ATOM     51  CA  PRO B 650       4.999 -25.031  18.967  1.00 24.06 LIG 0.35  C 
ATOM     52  CB  PRO B 650       3.888 -25.799  19.681  1.00 25.19 LIG 0.05  C 
ATOM     53  CG  PRO B 650       4.611 -26.343  20.894  1.00 26.54 LIG 0.04  C 
ATOM     54  CD  PRO B 650       5.500 -25.192  21.309  1.00 26.80 LIG 0.32  C 
ATOM     55  N   PRO B 650       5.754 -24.489  20.053  1.00 26.10 LIG 0.32  N 
ENDBRANCH 49 51
ENDBRANCH 46 47
BRANCH 46 56
ATOM     56  CB  THR B 651       1.738 -21.510  18.860  1.00 18.88 LIG 0.15  C 
ATOM     57  CG2 THR B 651       1.205 -20.113  18.396  1.00 20.33 LIG 0.04  C 
BRANCH 56 58
ATOM     58 OG1  THR B 651       0.724 -22.495  19.053  1.00 19.33 LIG-0.39  OA
ATOM     59 HG1  THR B 651       1.005 -23.089  19.577  1.00 19.33 LIG 0.21  HD
ENDBRANCH 56 58
ENDBRANCH 46 56
ENDBRANCH 43 46
ENDBRANCH 41 42
BRANCH 41 60
ATOM     60  CB  VAL B 652       6.592 -19.072  18.384  1.00 13.27 LIG 0.01  C 
ATOM     61  CG1 VAL B 652       7.219 -17.863  17.897  1.00 15.32 LIG 0.01  C 
ATOM     62  CG2 VAL B 652       5.875 -18.810  19.708  1.00 15.72 LIG 0.01  C 
ENDBRANCH 41 60
ENDBRANCH 38 41
ENDBRANCH 1 37
TORSDOF 25
ENDMDL
MODEL 2
USER: ADFR SOLUTION from run 16
USER: SCORE 21.693291 LL:  -5.495 LR: -17.318 RR:   0.000 FEB:  -9.861
USER: RMSD 2.348362
USER: SEED 186640
USER: STATUS no improvement in best in 2 clusters for 5 generations
USER: GENES 27
USER: genes 0 Translation |==|  0.65411 0.52701 0.53823
USER: genes 1 Rotation |==|  0.52916 0.53427 0.51500 0.99775
USER: genes 2 Torsion [N]-CA--C-[N] |==|  0.98889
USER: genes 3 Torsion [C]-N--CA-[C] |==|  0.71351
USER: genes 4 Torsion [N]-CA--CB-[CG] |==|  0.84495
USER: genes 5 Torsion [CA]-CB--CG-[CD] |==|  0.62146
USER: genes 6 Torsion [CB]-CG--CD-[OE2] |==|  0.07367
USER: genes 7 Torsion [N]-CA--C-[N] |==|  0.36946
USER: genes 8 Torsion [C]-N--CA-[C] |==|  0.67199
USER: genes 9 Torsion [N]-CA--C-[N] |==|  0.47599
USER: genes 10 Torsion [C]-N--CA-[C] |==|  0.65930
USER: genes 11 Torsion [N]-CA--C-[OXT] |==|  0.98356
USER: genes 12 Torsion [N]-CA--CB-[CG] |==|  0.83189
USER: genes 13 Torsion [CA]-CB--CG-[OD1] |==|  0.74309
USER: genes 14 Torsion [N]-CA--CB-[CG2] |==|  0.11371
USER: genes 15 Torsion [C]-CA--CB-[CG] |==|  0.54586
USER: genes 16 Torsion [CA]-CB--CG-[CD] |==|  0.84358
USER: genes 17 Torsion [CB]-CG--CD-[OE2] |==|  0.43351
USER: genes 18 Torsion [C]-CA--N-[C] |==|  0.17330
USER: genes 19 Torsion [N]-C--CA-[N] |==|  0.39034
USER: genes 20 Torsion [C]-CA--N-[C] |==|  0.79224
USER: genes 21 Torsion [N]-C--CA-[N] |==|  0.90706
USER: genes 22 Torsion [C]-CA--N-[C] |==|  0.76138
USER: genes 23 Torsion [N]-C--CA-[CB] |==|  0.74208
USER: genes 24 Torsion [C]-CA--CB-[CG2] |==|  0.94361
USER: genes 25 Torsion [CA]-CB--OG1-[HG1] |==|  0.29402
USER: genes 26 Torsion [C]-CA--CB-[CG1] |==|  0.22004
ROOT
ATOM      1  CA  GLU B 653       8.094 -22.354  14.410  1.00 16.59 LIG 0.18  C 
ENDROOT
BRANCH 1 2
ATOM      2  C   GLU B 653       7.012 -22.649  13.351  1.00 17.01 LIG 0.24  C 
ATOM      3 O    GLU B 653       7.316 -23.098  12.228  1.00 18.89 LIG-0.27  OA
ATOM      4  N   GLU B 654       5.761 -22.428  13.712  1.00 17.47 LIG-0.35  N 
ATOM      5 H    GLU B 654       5.550 -22.044  14.452  1.00 17.47 LIG 0.16  HD
BRANCH 4 6
ATOM      6  CA  GLU B 654       4.628 -22.800  12.922  1.00 19.20 LIG 0.18  C 
BRANCH 6 7
ATOM      7  CB  GLU B 654       3.578 -23.448  13.808  1.00 21.36 LIG 0.04  C 
BRANCH 7 8
ATOM      8  CG  GLU B 654       4.103 -24.622  14.573  1.00 25.94 LIG 0.12  C 
BRANCH 8 9
ATOM      9  CD  GLU B 654       3.167 -25.782  14.570  1.00 34.53 LIG 0.17  C 
ATOM     10 OE2  GLU B 654       2.360 -25.909  13.608  1.00 38.43 LIG-0.65  OA
ATOM     11 OE1  GLU B 654       3.256 -26.588  15.539  1.00 40.98 LIG-0.65  OA
ENDBRANCH 8 9
ENDBRANCH 7 8
ENDBRANCH 6 7
BRANCH 6 12
ATOM     12  C   GLU B 654       4.017 -21.615  12.208  1.00 18.66 LIG 0.24  C 
ATOM     13  N   VAL B 655       3.735 -21.771  10.911  1.00 18.37 LIG-0.35  N 
ATOM     14 H    VAL B 655       3.984 -22.451  10.448  1.00 18.37 LIG 0.16  HD
ATOM     15 O    GLU B 654       3.924 -20.550  12.796  1.00 17.95 LIG-0.27  OA
BRANCH 13 16
ATOM     16  CA  VAL B 655       2.963 -20.781  10.155  1.00 18.99 LIG 0.18  C 
BRANCH 16 17
ATOM     17  C   VAL B 655       1.684 -21.465   9.659  1.00 20.12 LIG 0.24  C 
ATOM     18 O    VAL B 655       1.529 -22.688   9.814  1.00 20.44 LIG-0.27  OA
ATOM     19  N   ASP B 656       0.774 -20.667   9.102  1.00 20.60 LIG-0.34  N 
ATOM     20 H    ASP B 656       0.883 -19.821   8.988  1.00 20.60 LIG 0.16  HD
BRANCH 19 21
ATOM     21  CA  ASP B 656      -0.523 -21.185   8.625  1.00 22.64 LIG 0.20  C 
BRANCH 21 22
ATOM     22  C   ASP B 656      -0.766 -20.895   7.135  1.00 24.92 LIG 0.20  C 
ATOM     23 OXT  ASP B 656       0.050 -20.177   6.485  1.00 27.50 LIG-0.65  OA
ATOM     24 O    ASP B 656      -1.786 -21.324   6.558  1.00 24.52 LIG-0.65  OA
ENDBRANCH 21 22
BRANCH 21 25
ATOM     25  CB  ASP B 656      -1.619 -20.558   9.471  1.00 22.32 LIG 0.15  C 
BRANCH 25 26
ATOM     26  CG  ASP B 656      -1.473 -20.907  10.948  1.00 24.14 LIG 0.17  C 
ATOM     27 OD1  ASP B 656      -2.068 -21.905  11.408  1.00 27.79 LIG-0.65  OA
ATOM     28 OD2  ASP B 656      -0.710 -20.219  11.645  1.00 21.16 LIG-0.65  OA
ENDBRANCH 25 26
ENDBRANCH 21 25
ENDBRANCH 19 21
ENDBRANCH 16 17
BRANCH 16 29
ATOM     29  CB  VAL B 655       3.700 -20.184   8.953  1.00 17.39 LIG 0.01  C 
ATOM     30  CG2 VAL B 655       4.499 -21.268   8.189  1.00 19.33 LIG 0.01  C 
ATOM     31  CG1 VAL B 655       4.623 -18.983   9.397  1.00 17.58 LIG 0.01  C 
ENDBRANCH 16 29
ENDBRANCH 13 16
ENDBRANCH 6 12
ENDBRANCH 4 6
ENDBRANCH 1 2
BRANCH 1 32
ATOM     32  CB  GLU B 653       8.856 -23.691  14.710  1.00 16.22 LIG 0.04  C 
BRANCH 32 33
ATOM     33  CG  GLU B 653       9.660 -23.664  15.976  1.00 17.46 LIG 0.12  C 
BRANCH 33 34
ATOM     34  CD  GLU B 653      10.700 -22.510  16.031  1.00 17.13 LIG 0.17  C 
ATOM     35 OE1  GLU B 653      11.087 -22.050  14.929  1.00 19.48 LIG-0.65  OA
ATOM     36 OE2  GLU B 653      11.141 -22.050  17.141  1.00 19.36 LIG-0.65  OA
ENDBRANCH 33 34
ENDBRANCH 32 33
ENDBRANCH 1 32
BRANCH 1 37
ATOM     37  N   GLU B 653       7.578 -21.774  15.660  1.00 15.81 LIG-0.35  N 
ATOM     38  C   VAL B 652       6.716 -22.369  16.507  1.00 15.71 LIG 0.24  C 
ATOM     39 O    VAL B 652       6.337 -23.525  16.384  1.00 14.72 LIG-0.27  OA
ATOM     40 H    GLU B 653       7.889 -20.986  15.810  1.00 15.81 LIG 0.16  HD
BRANCH 38 41
ATOM     41  CA  VAL B 652       6.324 -21.568  17.802  1.00 15.41 LIG 0.18  C 
BRANCH 41 42
ATOM     42  N   VAL B 652       4.911 -21.754  18.083  1.00 15.06 LIG-0.35  N 
ATOM     43  C   THR B 651       3.988 -21.133  17.352  1.00 17.05 LIG 0.24  C 
ATOM     44 O    THR B 651       4.232 -20.557  16.299  1.00 16.18 LIG-0.27  OA
ATOM     45 H    VAL B 652       4.738 -22.282  18.739  1.00 15.06 LIG 0.16  HD
BRANCH 43 46
ATOM     46  CA  THR B 651       2.553 -21.275  17.787  1.00 18.25 LIG 0.20  C 
BRANCH 46 47
ATOM     47  N   THR B 651       2.229 -22.554  18.387  1.00 18.62 LIG-0.34  N 
ATOM     48 H    THR B 651       2.281 -22.570  19.245  1.00 18.62 LIG 0.16  HD
ATOM     49  C   PRO B 650       1.886 -23.586  17.649  1.00 22.21 LIG 0.25  C 
ATOM     50 O    PRO B 650       2.002 -23.593  16.432  1.00 21.73 LIG-0.27  OA
BRANCH 49 51
ATOM     51  CA  PRO B 650       1.295 -24.777  18.397  1.00 24.06 LIG 0.35  C 
ATOM     52  CB  PRO B 650       2.330 -25.829  18.795  1.00 25.19 LIG 0.05  C 
ATOM     53  CG  PRO B 650       1.503 -27.096  18.804  1.00 26.54 LIG 0.04  C 
ATOM     54  CD  PRO B 650       0.611 -26.933  17.595  1.00 26.80 LIG 0.32  C 
ATOM     55  N   PRO B 650       0.471 -25.484  17.468  1.00 26.10 LIG 0.32  N 
ENDBRANCH 49 51
ENDBRANCH 46 47
BRANCH 46 56
ATOM     56  CB  THR B 651       2.134 -20.158  18.786  1.00 18.88 LIG 0.15  C 
ATOM     57  CG2 THR B 651       3.324 -19.449  19.515  1.00 20.33 LIG 0.04  C 
BRANCH 56 58
ATOM     58 OG1  THR B 651       1.264 -19.275  18.078  1.00 19.33 LIG-0.39  OA
ATOM     59 HG1  THR B 651       0.472 -19.398  18.332  1.00 19.33 LIG 0.21  HD
ENDBRANCH 56 58
ENDBRANCH 46 56
ENDBRANCH 43 46
ENDBRANCH 41 42
BRANCH 41 60
ATOM     60  CB  VAL B 652       7.262 -21.990  18.971  1.00 13.27 LIG 0.01  C 
ATOM     61  CG1 VAL B 652       8.553 -21.342  18.891  1.00 15.32 LIG 0.01  C 
ATOM     62  CG2 VAL B 652       6.615 -21.730  20.331  1.00 15.72 LIG 0.01  C 
ENDBRANCH 41 60
ENDBRANCH 38 41
ENDBRANCH 1 37
TORSDOF 25
ENDMDL
