MODEL 1
USER: ADFR SOLUTION from run 130
USER: SCORE 22.215462 LL:  -5.262 LR: -21.080 RR:   0.000 FEB: -12.131
USER: RMSD 2.166602
USER: SEED 129
USER: STATUS 1 or 2 clusters left
USER: GENES 32
USER: genes 0 Translation |==|  0.42385 0.60168 0.53572
USER: genes 1 Rotation |==|  0.50893 0.52781 0.51594 0.99889
USER: genes 2 Torsion [C]-CA--CB-[CG] |==|  0.08644
USER: genes 3 Torsion [CA]-CB--CG-[CD] |==|  0.28841
USER: genes 4 Torsion [CB]-CG--CD-[CE] |==|  0.54303
USER: genes 5 Torsion [CG]-CD--CE-[NZ] |==|  0.48021
USER: genes 6 Torsion [CD]-CE--NZ-[HZ1] |==|  0.65537
USER: genes 7 Torsion [N]-CA--C-[N] |==|  0.90468
USER: genes 8 Torsion [C]-N--CA-[CB] |==|  0.26667
USER: genes 9 Torsion [N]-CA--CB-[CG] |==|  0.94257
USER: genes 10 Torsion [CA]-CB--CG-[CD] |==|  0.61113
USER: genes 11 Torsion [CB]-CG--CD-[OE1] |==|  0.00002
USER: genes 12 Torsion [N]-CA--C-[N] |==|  0.88005
USER: genes 13 Torsion [C]-N--CA-[CB] |==|  0.47696
USER: genes 14 Torsion [N]-CA--CB-[CG2] |==|  0.50621
USER: genes 15 Torsion [CA]-CB--OG1-[HG1] |==|  0.23622
USER: genes 16 Torsion [N]-CA--C-[N] |==|  0.94165
USER: genes 17 Torsion [C]-N--CA-[C] |==|  0.56753
USER: genes 18 Torsion [N]-CA--C-[O] |==|  0.12793
USER: genes 19 Torsion [CB]-CA--N-[C] |==|  0.48491
USER: genes 20 Torsion [N]-C--CA-[N] |==|  0.46704
USER: genes 21 Torsion [C]-CA--CB-[CG2] |==|  0.62693
USER: genes 22 Torsion [CA]-CB--OG1-[HG1] |==|  0.39710
USER: genes 23 Torsion [C]-CA--N-[C] |==|  0.56345
USER: genes 24 Torsion [N]-C--CA-[N] |==|  0.47716
USER: genes 25 Torsion [C]-CA--N-[C] |==|  0.78237
USER: genes 26 Torsion [N]-C--CA-[N] |==|  0.23833
USER: genes 27 Torsion [C]-CA--N-[H1] |==|  0.54439
USER: genes 28 Torsion [C]-CA--CB-[CG] |==|  0.33351
USER: genes 29 Torsion [CA]-CB--CG-[CD] |==|  0.29783
USER: genes 30 Torsion [CB]-CG--CD-[NE] |==|  0.09598
USER: genes 31 Torsion [CG]-CD--NE-[HE] |==|  0.66428
ROOT
ATOM      1  CA  LYS Q   4      13.763  13.138  17.011  1.00 15.20 LIG 0.18  C 
ENDROOT
BRANCH 1 2
ATOM      2  CB  LYS Q   4      12.252  13.217  16.818  1.00 14.69 LIG 0.04  C 
BRANCH 2 3
ATOM      3  CG  LYS Q   4      11.545  13.917  17.942  1.00 16.14 LIG 0.00  C 
BRANCH 3 4
ATOM      4  CD  LYS Q   4      11.142  15.309  17.547  1.00 18.10 LIG 0.03  C 
BRANCH 4 5
ATOM      5  CE  LYS Q   4      10.790  16.100  18.788  1.00 22.11 LIG 0.23  C 
BRANCH 5 6
ATOM      6  NZ  LYS Q   4      10.549  17.530  18.462  1.00 25.79 LIG-0.08  N 
ATOM      7 HZ1  LYS Q   4      11.087  18.041  18.953  1.00 25.79 LIG 0.27  HD
ATOM      8 HZ2  LYS Q   4      10.715  17.671  17.598  1.00 25.79 LIG 0.27  HD
ATOM      9 HZ3  LYS Q   4       9.702  17.737  18.638  1.00 25.79 LIG 0.27  HD
ENDBRANCH 5 6
ENDBRANCH 4 5
ENDBRANCH 3 4
ENDBRANCH 2 3
ENDBRANCH 1 2
BRANCH 1 10
ATOM     10  C   LYS Q   4      14.075  13.060  18.508  1.00 15.70 LIG 0.24  C 
ATOM     11  N   GLN Q   5      14.115  11.845  19.059  1.00 16.90 LIG-0.35  N 
ATOM     12 H    GLN Q   5      14.091  11.110  18.614  1.00 16.90 LIG 0.16  HD
ATOM     13 O    LYS Q   4      14.264  14.094  19.159  1.00 16.41 LIG-0.27  OA
BRANCH 11 14
ATOM     14  CA  GLN Q   5      14.206  11.679  20.515  1.00 18.58 LIG 0.18  C 
BRANCH 14 15
ATOM     15  CB  GLN Q   5      12.823  11.461  21.136  1.00 18.36 LIG 0.04  C 
BRANCH 15 16
ATOM     16  CG  GLN Q   5      11.650  11.937  20.283  1.00 19.34 LIG 0.10  C 
BRANCH 16 17
ATOM     17  CD  GLN Q   5      10.543  12.611  21.064  1.00 21.85 LIG 0.21  C 
ATOM     18  NE2 GLN Q   5       9.490  13.030  20.360  1.00 24.33 LIG-0.37  N 
ATOM     19 21HE GLN Q   5       9.471  12.920  19.507  1.00 24.33 LIG 0.16  HD
ATOM     20 22HE GLN Q   5       8.830  13.411  20.758  1.00 24.33 LIG 0.16  HD
ATOM     21 OE1  GLN Q   5      10.620  12.743  22.282  1.00 24.78 LIG-0.27  OA
ENDBRANCH 16 17
ENDBRANCH 15 16
ENDBRANCH 14 15
BRANCH 14 22
ATOM     22  C   GLN Q   5      15.144  10.548  20.908  1.00 20.15 LIG 0.24  C 
ATOM     23 O    GLN Q   5      15.938  10.701  21.843  1.00 22.37 LIG-0.27  OA
ATOM     24  N   THR Q   6      15.073   9.414  20.224  1.00 20.72 LIG-0.34  N 
ATOM     25 H    THR Q   6      14.471   9.232  19.636  1.00 20.72 LIG 0.16  HD
BRANCH 24 26
ATOM     26  CA  THR Q   6      16.067   8.360  20.448  1.00 22.01 LIG 0.20  C 
BRANCH 26 27
ATOM     27  CB  THR Q   6      15.718   7.045  19.725  1.00 21.09 LIG 0.15  C 
ATOM     28  CG2 THR Q   6      16.748   5.958  20.030  1.00 22.53 LIG 0.04  C 
BRANCH 27 29
ATOM     29 OG1  THR Q   6      14.419   6.602  20.135  1.00 19.47 LIG-0.39  OA
ATOM     30 HG1  THR Q   6      13.833   6.981  19.667  1.00 19.47 LIG 0.21  HD
ENDBRANCH 27 29
ENDBRANCH 26 27
BRANCH 26 31
ATOM     31  C   THR Q   6      17.473   8.809  20.060  1.00 23.85 LIG 0.24  C 
ATOM     32  N   ALA Q   7      17.566   9.835  19.214  1.00 25.35 LIG-0.35  N 
ATOM     33 H    ALA Q   7      16.882  10.227  18.869  1.00 25.35 LIG 0.16  HD
ATOM     34 O    THR Q   6      18.459   8.244  20.549  1.00 25.66 LIG-0.27  OA
BRANCH 32 35
ATOM     35  CA  ALA Q   7      18.853  10.402  18.784  1.00 27.02 LIG 0.16  C 
ATOM     36  CB  ALA Q   7      19.462   9.551  17.672  1.00 27.03 LIG 0.04  C 
BRANCH 35 37
ATOM     37  C   ALA Q   7      18.725  11.861  18.330  1.00 28.43 LIG 0.22  C 
ATOM     38 O    ALA Q   7      18.084  12.684  19.001  1.00 30.23 LIG-0.29  OA
ENDBRANCH 35 37
ENDBRANCH 32 35
ENDBRANCH 26 31
ENDBRANCH 24 26
ENDBRANCH 14 22
ENDBRANCH 11 14
ENDBRANCH 1 10
BRANCH 1 39
ATOM     39  N   LYS Q   4      14.314  12.009  16.263  1.00 13.85 LIG-0.35  N 
ATOM     40 H    LYS Q   4      13.724  11.510  15.886  1.00 13.85 LIG 0.16  HD
ATOM     41  C   THR Q   3      15.629  11.798  16.190  1.00 13.84 LIG 0.24  C 
ATOM     42 O    THR Q   3      16.469  12.552  16.694  1.00 14.15 LIG-0.27  OA
BRANCH 41 43
ATOM     43  CA  THR Q   3      16.062  10.536  15.474  1.00 13.21 LIG 0.20  C 
BRANCH 43 44
ATOM     44  CB  THR Q   3      15.600   9.321  16.317  1.00 13.38 LIG 0.15  C 
ATOM     45  CG2 THR Q   3      16.686   8.282  16.466  1.00 13.96 LIG 0.04  C 
BRANCH 44 46
ATOM     46 OG1  THR Q   3      15.123   9.747  17.602  1.00 13.85 LIG-0.39  OA
ATOM     47 HG1  THR Q   3      14.468   9.273  17.828  1.00 13.85 LIG 0.21  HD
ENDBRANCH 44 46
ENDBRANCH 43 44
BRANCH 43 48
ATOM     48  N   THR Q   3      17.504  10.559  15.215  1.00 13.00 LIG-0.34  N 
ATOM     49  C   ARG Q   2      18.057   9.832  14.249  1.00 13.30 LIG 0.24  C 
ATOM     50 O    ARG Q   2      17.446   8.988  13.606  1.00 13.04 LIG-0.27  OA
ATOM     51 H    THR Q   3      17.949  11.077  15.738  1.00 13.00 LIG 0.16  HD
BRANCH 49 52
ATOM     52  CA  ARG Q   2      19.525  10.076  13.984  1.00 13.85 LIG 0.18  C 
BRANCH 52 53
ATOM     53  N   ARG Q   2      20.018   9.079  13.047  1.00 14.89 LIG-0.35  N 
ATOM     54 H    ARG Q   2      20.096   9.370  12.242  1.00 14.89 LIG 0.16  HD
ATOM     55  C   ALA Q   1      20.318   7.838  13.400  1.00 17.12 LIG 0.25  C 
ATOM     56 O    ALA Q   1      20.212   7.412  14.556  1.00 19.52 LIG-0.27  OA
BRANCH 55 57
ATOM     57  CA  ALA Q   1      20.838   6.948  12.278  1.00 17.93 LIG 0.27  C 
ATOM     58  CB  ALA Q   1      20.468   5.479  12.523  1.00 18.07 LIG 0.05  C 
BRANCH 57 59
ATOM     59  N   ALA Q   1      22.313   7.109  12.105  1.00 19.51 LIG-0.07  N 
ATOM     60 H1   ALA Q   1      22.558   6.774  11.318  1.00 19.51 LIG 0.28  HD
ATOM     61 H3   ALA Q   1      22.738   6.677  12.757  1.00 19.51 LIG 0.28  HD
ATOM     62 H2   ALA Q   1      22.523   7.974  12.137  1.00 19.51 LIG 0.28  HD
ENDBRANCH 57 59
ENDBRANCH 55 57
ENDBRANCH 52 53
BRANCH 52 63
ATOM     63  CB  ARG Q   2      19.707  11.487  13.413  1.00 13.50 LIG 0.04  C 
BRANCH 63 64
ATOM     64  CG  ARG Q   2      20.605  12.405  14.261  1.00 14.15 LIG 0.02  C 
BRANCH 64 65
ATOM     65  CD  ARG Q   2      21.950  12.616  13.585  1.00 12.93 LIG 0.14  C 
BRANCH 65 66
ATOM     66  NE  ARG Q   2      21.795  12.647  12.132  1.00 12.58 LIG-0.23  N 
ATOM     67 HE   ARG Q   2      22.230  12.061  11.678  1.00 12.58 LIG 0.18  HD
ATOM     68  CZ  ARG Q   2      21.034  13.511  11.447  1.00 11.80 LIG 0.67  C 
ATOM     69  NH2 ARG Q   2      20.953  13.401  10.132  1.00 12.39 LIG-0.23  N 
ATOM     70  NH1 ARG Q   2      20.368  14.484  12.055  1.00 13.65 LIG-0.23  N 
ATOM     71 2HH2 ARG Q   2      20.466  13.951   9.684  1.00 12.39 LIG 0.17  HD
ATOM     72 1HH2 ARG Q   2      21.386  12.779   9.725  1.00 12.39 LIG 0.17  HD
ATOM     73 2HH1 ARG Q   2      19.886  15.027  11.594  1.00 13.65 LIG 0.17  HD
ATOM     74 1HH1 ARG Q   2      20.419  14.572  12.909  1.00 13.65 LIG 0.17  HD
ENDBRANCH 65 66
ENDBRANCH 64 65
ENDBRANCH 63 64
ENDBRANCH 52 63
ENDBRANCH 49 52
ENDBRANCH 43 48
ENDBRANCH 41 43
ENDBRANCH 1 39
TORSDOF 30
ENDMDL
MODEL 2
USER: ADFR SOLUTION from run 13
USER: SCORE 21.894942 LL:  -5.171 LR: -20.040 RR:   0.000 FEB: -11.091
USER: RMSD 1.579641
USER: SEED 330499
USER: STATUS no improvement in best in 3 clusters for 5 generations
USER: GENES 32
USER: genes 0 Translation |==|  0.41442 0.60819 0.51785
USER: genes 1 Rotation |==|  0.45932 0.50832 0.52079 0.99784
USER: genes 2 Torsion [C]-CA--CB-[CG] |==|  0.05576
USER: genes 3 Torsion [CA]-CB--CG-[CD] |==|  0.23334
USER: genes 4 Torsion [CB]-CG--CD-[CE] |==|  0.53370
USER: genes 5 Torsion [CG]-CD--CE-[NZ] |==|  0.49930
USER: genes 6 Torsion [CD]-CE--NZ-[HZ1] |==|  0.72151
USER: genes 7 Torsion [N]-CA--C-[N] |==|  0.89082
USER: genes 8 Torsion [C]-N--CA-[CB] |==|  0.39652
USER: genes 9 Torsion [N]-CA--CB-[CG] |==|  0.82992
USER: genes 10 Torsion [CA]-CB--CG-[CD] |==|  0.79825
USER: genes 11 Torsion [CB]-CG--CD-[OE1] |==|  0.96322
USER: genes 12 Torsion [N]-CA--C-[N] |==|  0.04271
USER: genes 13 Torsion [C]-N--CA-[CB] |==|  0.19436
USER: genes 14 Torsion [N]-CA--CB-[CG2] |==|  0.19175
USER: genes 15 Torsion [CA]-CB--OG1-[HG1] |==|  0.56945
USER: genes 16 Torsion [N]-CA--C-[N] |==|  0.05940
USER: genes 17 Torsion [C]-N--CA-[C] |==|  0.62375
USER: genes 18 Torsion [N]-CA--C-[O] |==|  0.70644
USER: genes 19 Torsion [CB]-CA--N-[C] |==|  0.50641
USER: genes 20 Torsion [N]-C--CA-[N] |==|  0.41405
USER: genes 21 Torsion [C]-CA--CB-[CG2] |==|  0.65842
USER: genes 22 Torsion [CA]-CB--OG1-[HG1] |==|  0.38426
USER: genes 23 Torsion [C]-CA--N-[C] |==|  0.63363
USER: genes 24 Torsion [N]-C--CA-[N] |==|  0.44041
USER: genes 25 Torsion [C]-CA--N-[C] |==|  0.75844
USER: genes 26 Torsion [N]-C--CA-[N] |==|  0.28031
USER: genes 27 Torsion [C]-CA--N-[H1] |==|  0.59091
USER: genes 28 Torsion [C]-CA--CB-[CG] |==|  0.39886
USER: genes 29 Torsion [CA]-CB--CG-[CD] |==|  0.52983
USER: genes 30 Torsion [CB]-CG--CD-[NE] |==|  0.83292
USER: genes 31 Torsion [CG]-CD--NE-[HE] |==|  0.32576
ROOT
ATOM      1  CA  LYS Q   4      13.537  13.265  16.636  1.00 15.20 LIG 0.18  C 
ENDROOT
BRANCH 1 2
ATOM      2  CB  LYS Q   4      12.046  13.250  16.309  1.00 14.69 LIG 0.04  C 
BRANCH 2 3
ATOM      3  CG  LYS Q   4      11.201  13.906  17.361  1.00 16.14 LIG 0.00  C 
BRANCH 3 4
ATOM      4  CD  LYS Q   4      11.146  15.394  17.163  1.00 18.10 LIG 0.03  C 
BRANCH 4 5
ATOM      5  CE  LYS Q   4      10.546  16.041  18.392  1.00 22.11 LIG 0.23  C 
BRANCH 5 6
ATOM      6  NZ  LYS Q   4      10.479  17.519  18.242  1.00 25.79 LIG-0.08  N 
ATOM      7 HZ1  LYS Q   4      11.158  17.893  18.679  1.00 25.79 LIG 0.27  HD
ATOM      8 HZ2  LYS Q   4      10.529  17.732  17.379  1.00 25.79 LIG 0.27  HD
ATOM      9 HZ3  LYS Q   4       9.711  17.817  18.577  1.00 25.79 LIG 0.27  HD
ENDBRANCH 5 6
ENDBRANCH 4 5
ENDBRANCH 3 4
ENDBRANCH 2 3
ENDBRANCH 1 2
BRANCH 1 10
ATOM     10  C   LYS Q   4      13.719  13.488  18.139  1.00 15.70 LIG 0.24  C 
ATOM     11  N   GLN Q   5      13.634  12.414  18.929  1.00 16.90 LIG-0.35  N 
ATOM     12 H    GLN Q   5      13.599  11.604  18.643  1.00 16.90 LIG 0.16  HD
ATOM     13 O    LYS Q   4      13.922  14.625  18.580  1.00 16.41 LIG-0.27  OA
BRANCH 11 14
ATOM     14  CA  GLN Q   5      13.595  12.553  20.389  1.00 18.58 LIG 0.18  C 
BRANCH 14 15
ATOM     15  CB  GLN Q   5      12.652  11.522  21.019  1.00 18.36 LIG 0.04  C 
BRANCH 15 16
ATOM     16  CG  GLN Q   5      11.193  11.631  20.581  1.00 19.34 LIG 0.10  C 
BRANCH 16 17
ATOM     17  CD  GLN Q   5      10.456  12.821  21.156  1.00 21.85 LIG 0.21  C 
ATOM     18  NE2 GLN Q   5       9.273  13.106  20.608  1.00 24.33 LIG-0.37  N 
ATOM     19 21HE GLN Q   5       8.973  12.629  19.959  1.00 24.33 LIG 0.16  HD
ATOM     20 22HE GLN Q   5       8.810  13.767  20.905  1.00 24.33 LIG 0.16  HD
ATOM     21 OE1  GLN Q   5      10.930  13.469  22.084  1.00 24.78 LIG-0.27  OA
ENDBRANCH 16 17
ENDBRANCH 15 16
ENDBRANCH 14 15
BRANCH 14 22
ATOM     22  C   GLN Q   5      14.978  12.451  21.015  1.00 20.15 LIG 0.24  C 
ATOM     23 O    GLN Q   5      15.093  12.258  22.230  1.00 22.37 LIG-0.27  OA
ATOM     24  N   THR Q   6      16.032  12.572  20.218  1.00 20.72 LIG-0.34  N 
ATOM     25 H    THR Q   6      15.997  12.607  19.360  1.00 20.72 LIG 0.16  HD
BRANCH 24 26
ATOM     26  CA  THR Q   6      17.378  12.654  20.793  1.00 22.01 LIG 0.20  C 
BRANCH 26 27
ATOM     27  CB  THR Q   6      17.845  11.324  21.415  1.00 21.09 LIG 0.15  C 
ATOM     28  CG2 THR Q   6      18.091  10.267  20.338  1.00 22.53 LIG 0.04  C 
BRANCH 27 29
ATOM     29 OG1  THR Q   6      19.049  11.538  22.160  1.00 19.47 LIG-0.39  OA
ATOM     30 HG1  THR Q   6      19.482  10.820  22.206  1.00 19.47 LIG 0.21  HD
ENDBRANCH 27 29
ENDBRANCH 26 27
BRANCH 26 31
ATOM     31  C   THR Q   6      18.405  13.141  19.775  1.00 23.85 LIG 0.24  C 
ATOM     32  N   ALA Q   7      17.939  13.819  18.726  1.00 25.35 LIG-0.35  N 
ATOM     33 H    ALA Q   7      17.102  13.967  18.593  1.00 25.35 LIG 0.16  HD
ATOM     34 O    THR Q   6      19.609  12.924  19.959  1.00 25.66 LIG-0.27  OA
BRANCH 32 35
ATOM     35  CA  ALA Q   7      18.813  14.384  17.687  1.00 27.02 LIG 0.16  C 
ATOM     36  CB  ALA Q   7      18.816  13.488  16.451  1.00 27.03 LIG 0.04  C 
BRANCH 35 37
ATOM     37  C   ALA Q   7      18.418  15.816  17.307  1.00 28.43 LIG 0.22  C 
ATOM     38 O    ALA Q   7      17.844  16.055  16.234  1.00 30.23 LIG-0.29  OA
ENDBRANCH 35 37
ENDBRANCH 32 35
ENDBRANCH 26 31
ENDBRANCH 24 26
ENDBRANCH 14 22
ENDBRANCH 11 14
ENDBRANCH 1 10
BRANCH 1 39
ATOM     39  N   LYS Q   4      14.173  12.035  16.169  1.00 13.85 LIG-0.35  N 
ATOM     40 H    LYS Q   4      13.647  11.495  15.755  1.00 13.85 LIG 0.16  HD
ATOM     41  C   THR Q   3      15.469  11.797  16.381  1.00 13.84 LIG 0.24  C 
ATOM     42 O    THR Q   3      16.228  12.603  16.933  1.00 14.15 LIG-0.27  OA
BRANCH 41 43
ATOM     43  CA  THR Q   3      15.978  10.442  15.941  1.00 13.21 LIG 0.20  C 
BRANCH 43 44
ATOM     44  CB  THR Q   3      15.725   9.435  17.090  1.00 13.38 LIG 0.15  C 
ATOM     45  CG2 THR Q   3      16.994   8.757  17.548  1.00 13.96 LIG 0.04  C 
BRANCH 44 46
ATOM     46 OG1  THR Q   3      15.066  10.077  18.191  1.00 13.85 LIG-0.39  OA
ATOM     47 HG1  THR Q   3      14.469   9.570  18.495  1.00 13.85 LIG 0.21  HD
ENDBRANCH 44 46
ENDBRANCH 43 44
BRANCH 43 48
ATOM     48  N   THR Q   3      17.383  10.526  15.531  1.00 13.00 LIG-0.34  N 
ATOM     49  C   ARG Q   2      17.818   9.996  14.392  1.00 13.30 LIG 0.24  C 
ATOM     50 O    ARG Q   2      17.130   9.279  13.677  1.00 13.04 LIG-0.27  OA
ATOM     51 H    THR Q   3      17.889  10.944  16.088  1.00 13.00 LIG 0.16  HD
BRANCH 49 52
ATOM     52  CA  ARG Q   2      19.249  10.300  14.016  1.00 13.85 LIG 0.18  C 
BRANCH 52 53
ATOM     53  N   ARG Q   2      19.726   9.293  13.081  1.00 14.89 LIG-0.35  N 
ATOM     54 H    ARG Q   2      19.624   9.512  12.255  1.00 14.89 LIG 0.16  HD
ATOM     55  C   ALA Q   1      20.265   8.145  13.464  1.00 17.12 LIG 0.25  C 
ATOM     56 O    ALA Q   1      20.418   7.824  14.647  1.00 19.52 LIG-0.27  OA
BRANCH 55 57
ATOM     57  CA  ALA Q   1      20.720   7.230  12.334  1.00 17.93 LIG 0.27  C 
ATOM     58  CB  ALA Q   1      20.283   5.781  12.588  1.00 18.07 LIG 0.05  C 
BRANCH 57 59
ATOM     59  N   ALA Q   1      22.199   7.318  12.134  1.00 19.51 LIG-0.07  N 
ATOM     60 H1   ALA Q   1      22.389   7.202  11.273  1.00 19.51 LIG 0.28  HD
ATOM     61 H3   ALA Q   1      22.601   6.685  12.615  1.00 19.51 LIG 0.28  HD
ATOM     62 H2   ALA Q   1      22.487   8.118  12.397  1.00 19.51 LIG 0.28  HD
ENDBRANCH 57 59
ENDBRANCH 55 57
ENDBRANCH 52 53
BRANCH 52 63
ATOM     63  CB  ARG Q   2      19.320  11.695  13.385  1.00 13.50 LIG 0.04  C 
BRANCH 63 64
ATOM     64  CG  ARG Q   2      20.590  12.490  13.740  1.00 14.15 LIG 0.02  C 
BRANCH 64 65
ATOM     65  CD  ARG Q   2      20.459  13.939  13.299  1.00 12.93 LIG 0.14  C 
BRANCH 65 66
ATOM     66  NE  ARG Q   2      20.261  14.019  11.853  1.00 12.58 LIG-0.23  N 
ATOM     67 HE   ARG Q   2      19.520  14.357  11.576  1.00 12.58 LIG 0.18  HD
ATOM     68  CZ  ARG Q   2      21.133  13.612  10.922  1.00 11.80 LIG 0.67  C 
ATOM     69  NH2 ARG Q   2      20.842  13.780   9.644  1.00 12.39 LIG-0.23  N 
ATOM     70  NH1 ARG Q   2      22.279  13.030  11.251  1.00 13.65 LIG-0.23  N 
ATOM     71 2HH2 ARG Q   2      21.397  13.522   9.039  1.00 12.39 LIG 0.17  HD
ATOM     72 1HH2 ARG Q   2      20.098  14.149   9.416  1.00 12.39 LIG 0.17  HD
ATOM     73 2HH1 ARG Q   2      22.824  12.777  10.636  1.00 13.65 LIG 0.17  HD
ATOM     74 1HH1 ARG Q   2      22.476  12.907  12.079  1.00 13.65 LIG 0.17  HD
ENDBRANCH 65 66
ENDBRANCH 64 65
ENDBRANCH 63 64
ENDBRANCH 52 63
ENDBRANCH 49 52
ENDBRANCH 43 48
ENDBRANCH 41 43
ENDBRANCH 1 39
TORSDOF 30
ENDMDL
MODEL 3
USER: ADFR SOLUTION from run 130
USER: SCORE 20.936836 LL:  -4.719 LR: -19.824 RR:   0.000 FEB: -10.875
USER: RMSD 2.873910
USER: SEED 129
USER: STATUS 1 or 2 clusters left
USER: GENES 32
USER: genes 0 Translation |==|  0.42010 0.60522 0.52903
USER: genes 1 Rotation |==|  0.48429 0.52021 0.51368 0.99916
USER: genes 2 Torsion [C]-CA--CB-[CG] |==|  0.06708
USER: genes 3 Torsion [CA]-CB--CG-[CD] |==|  0.26740
USER: genes 4 Torsion [CB]-CG--CD-[CE] |==|  0.51895
USER: genes 5 Torsion [CG]-CD--CE-[NZ] |==|  0.47174
USER: genes 6 Torsion [CD]-CE--NZ-[HZ1] |==|  0.69829
USER: genes 7 Torsion [N]-CA--C-[N] |==|  0.91398
USER: genes 8 Torsion [C]-N--CA-[CB] |==|  0.30087
USER: genes 9 Torsion [N]-CA--CB-[CG] |==|  0.90804
USER: genes 10 Torsion [CA]-CB--CG-[CD] |==|  0.67729
USER: genes 11 Torsion [CB]-CG--CD-[OE1] |==|  0.01098
USER: genes 12 Torsion [N]-CA--C-[N] |==|  0.12382
USER: genes 13 Torsion [C]-N--CA-[CB] |==|  0.88536
USER: genes 14 Torsion [N]-CA--CB-[CG2] |==|  0.41536
USER: genes 15 Torsion [CA]-CB--OG1-[HG1] |==|  0.60862
USER: genes 16 Torsion [N]-CA--C-[N] |==|  0.86448
USER: genes 17 Torsion [C]-N--CA-[C] |==|  0.51512
USER: genes 18 Torsion [N]-CA--C-[O] |==|  0.97905
USER: genes 19 Torsion [CB]-CA--N-[C] |==|  0.51111
USER: genes 20 Torsion [N]-C--CA-[N] |==|  0.42611
USER: genes 21 Torsion [C]-CA--CB-[CG2] |==|  0.63664
USER: genes 22 Torsion [CA]-CB--OG1-[HG1] |==|  0.42927
USER: genes 23 Torsion [C]-CA--N-[C] |==|  0.60024
USER: genes 24 Torsion [N]-C--CA-[N] |==|  0.45879
USER: genes 25 Torsion [C]-CA--N-[C] |==|  0.73199
USER: genes 26 Torsion [N]-C--CA-[N] |==|  0.30148
USER: genes 27 Torsion [C]-CA--N-[H1] |==|  0.54353
USER: genes 28 Torsion [C]-CA--CB-[CG] |==|  0.33572
USER: genes 29 Torsion [CA]-CB--CG-[CD] |==|  0.28959
USER: genes 30 Torsion [CB]-CG--CD-[NE] |==|  0.09449
USER: genes 31 Torsion [CG]-CD--NE-[HE] |==|  0.66528
ROOT
ATOM      1  CA  LYS Q   4      13.673  13.207  16.871  1.00 15.20 LIG 0.18  C 
ENDROOT
BRANCH 1 2
ATOM      2  CB  LYS Q   4      12.169  13.271  16.620  1.00 14.69 LIG 0.04  C 
BRANCH 2 3
ATOM      3  CG  LYS Q   4      11.410  13.936  17.730  1.00 16.14 LIG 0.00  C 
BRANCH 3 4
ATOM      4  CD  LYS Q   4      11.162  15.386  17.426  1.00 18.10 LIG 0.03  C 
BRANCH 4 5
ATOM      5  CE  LYS Q   4      10.546  16.053  18.637  1.00 22.11 LIG 0.23  C 
BRANCH 5 6
ATOM      6  NZ  LYS Q   4      10.508  17.530  18.473  1.00 25.79 LIG-0.08  N 
ATOM      7 HZ1  LYS Q   4      11.105  17.905  19.016  1.00 25.79 LIG 0.27  HD
ATOM      8 HZ2  LYS Q   4      10.701  17.741  17.630  1.00 25.79 LIG 0.27  HD
ATOM      9 HZ3  LYS Q   4       9.695  17.830  18.675  1.00 25.79 LIG 0.27  HD
ENDBRANCH 5 6
ENDBRANCH 4 5
ENDBRANCH 3 4
ENDBRANCH 2 3
ENDBRANCH 1 2
BRANCH 1 10
ATOM     10  C   LYS Q   4      13.934  13.275  18.377  1.00 15.70 LIG 0.24  C 
ATOM     11  N   GLN Q   5      14.018  12.116  19.034  1.00 16.90 LIG-0.35  N 
ATOM     12 H    GLN Q   5      14.048  11.345  18.655  1.00 16.90 LIG 0.16  HD
ATOM     13 O    LYS Q   4      14.047  14.370  18.941  1.00 16.41 LIG-0.27  OA
BRANCH 11 14
ATOM     14  CA  GLN Q   5      14.065  12.081  20.501  1.00 18.58 LIG 0.18  C 
BRANCH 14 15
ATOM     15  CB  GLN Q   5      12.754  11.546  21.086  1.00 18.36 LIG 0.04  C 
BRANCH 15 16
ATOM     16  CG  GLN Q   5      11.501  11.897  20.287  1.00 19.34 LIG 0.10  C 
BRANCH 16 17
ATOM     17  CD  GLN Q   5      10.518  12.780  21.025  1.00 21.85 LIG 0.21  C 
ATOM     18  NE2 GLN Q   5       9.366  13.033  20.403  1.00 24.33 LIG-0.37  N 
ATOM     19 21HE GLN Q   5       9.218  12.708  19.621  1.00 24.33 LIG 0.16  HD
ATOM     20 22HE GLN Q   5       8.770  13.523  20.784  1.00 24.33 LIG 0.16  HD
ATOM     21 OE1  GLN Q   5      10.779  13.220  22.141  1.00 24.78 LIG-0.27  OA
ENDBRANCH 16 17
ENDBRANCH 15 16
ENDBRANCH 14 15
BRANCH 14 22
ATOM     22  C   GLN Q   5      15.243  11.270  21.020  1.00 20.15 LIG 0.24  C 
ATOM     23 O    GLN Q   5      15.078  10.465  21.943  1.00 22.37 LIG-0.27  OA
ATOM     24  N   THR Q   6      16.426  11.454  20.449  1.00 20.72 LIG-0.34  N 
ATOM     25 H    THR Q   6      16.562  11.927  19.743  1.00 20.72 LIG 0.16  HD
BRANCH 24 26
ATOM     26  CA  THR Q   6      17.621  10.828  21.023  1.00 22.01 LIG 0.20  C 
BRANCH 26 27
ATOM     27  CB  THR Q   6      17.651  10.895  22.562  1.00 21.09 LIG 0.15  C 
ATOM     28  CG2 THR Q   6      18.390   9.694  23.152  1.00 22.53 LIG 0.04  C 
BRANCH 27 29
ATOM     29 OG1  THR Q   6      18.293  12.105  22.977  1.00 19.47 LIG-0.39  OA
ATOM     30 HG1  THR Q   6      18.774  11.951  23.648  1.00 19.47 LIG 0.21  HD
ENDBRANCH 27 29
ENDBRANCH 26 27
BRANCH 26 31
ATOM     31  C   THR Q   6      17.785   9.382  20.562  1.00 23.85 LIG 0.24  C 
ATOM     32  N   ALA Q   7      16.713   8.595  20.654  1.00 25.35 LIG-0.35  N 
ATOM     33 H    ALA Q   7      15.960   8.857  20.977  1.00 25.35 LIG 0.16  HD
ATOM     34 O    THR Q   6      18.868   8.999  20.103  1.00 25.66 LIG-0.27  OA
BRANCH 32 35
ATOM     35  CA  ALA Q   7      16.711   7.192  20.210  1.00 27.02 LIG 0.16  C 
ATOM     36  CB  ALA Q   7      17.724   6.381  21.013  1.00 27.03 LIG 0.04  C 
BRANCH 35 37
ATOM     37  C   ALA Q   7      15.321   6.553  20.303  1.00 28.43 LIG 0.22  C 
ATOM     38 O    ALA Q   7      14.378   7.152  20.843  1.00 30.23 LIG-0.29  OA
ENDBRANCH 35 37
ENDBRANCH 32 35
ENDBRANCH 26 31
ENDBRANCH 24 26
ENDBRANCH 14 22
ENDBRANCH 11 14
ENDBRANCH 1 10
BRANCH 1 39
ATOM     39  N   LYS Q   4      14.242  12.009  16.255  1.00 13.85 LIG-0.35  N 
ATOM     40 H    LYS Q   4      13.682  11.542  15.800  1.00 13.85 LIG 0.16  HD
ATOM     41  C   THR Q   3      15.529  11.693  16.406  1.00 13.84 LIG 0.24  C 
ATOM     42 O    THR Q   3      16.337  12.400  17.021  1.00 14.15 LIG-0.27  OA
BRANCH 41 43
ATOM     43  CA  THR Q   3      15.966  10.374  15.807  1.00 13.21 LIG 0.20  C 
BRANCH 43 44
ATOM     44  CB  THR Q   3      15.590   9.246  16.800  1.00 13.38 LIG 0.15  C 
ATOM     45  CG2 THR Q   3      16.744   8.308  17.064  1.00 13.96 LIG 0.04  C 
BRANCH 44 46
ATOM     46 OG1  THR Q   3      15.092   9.796  18.028  1.00 13.85 LIG-0.39  OA
ATOM     47 HG1  THR Q   3      14.587   9.238  18.401  1.00 13.85 LIG 0.21  HD
ENDBRANCH 44 46
ENDBRANCH 43 44
BRANCH 43 48
ATOM     48  N   THR Q   3      17.391  10.408  15.466  1.00 13.00 LIG-0.34  N 
ATOM     49  C   ARG Q   2      17.872   9.792  14.390  1.00 13.30 LIG 0.24  C 
ATOM     50 O    ARG Q   2      17.208   9.039  13.691  1.00 13.04 LIG-0.27  OA
ATOM     51 H    THR Q   3      17.875  10.855  16.018  1.00 13.00 LIG 0.16  HD
BRANCH 49 52
ATOM     52  CA  ARG Q   2      19.326  10.047  14.068  1.00 13.85 LIG 0.18  C 
BRANCH 52 53
ATOM     53  N   ARG Q   2      19.787   9.058  13.106  1.00 14.89 LIG-0.35  N 
ATOM     54 H    ARG Q   2      19.603   9.258  12.290  1.00 14.89 LIG 0.16  HD
ATOM     55  C   ALA Q   1      20.430   7.953  13.453  1.00 17.12 LIG 0.25  C 
ATOM     56 O    ALA Q   1      20.702   7.660  14.623  1.00 19.52 LIG-0.27  OA
BRANCH 55 57
ATOM     57  CA  ALA Q   1      20.847   7.052  12.298  1.00 17.93 LIG 0.27  C 
ATOM     58  CB  ALA Q   1      20.360   5.613  12.518  1.00 18.07 LIG 0.05  C 
BRANCH 57 59
ATOM     59  N   ALA Q   1      22.327   7.092  12.093  1.00 19.51 LIG-0.07  N 
ATOM     60 H1   ALA Q   1      22.525   6.753  11.294  1.00 19.51 LIG 0.28  HD
ATOM     61 H3   ALA Q   1      22.728   6.613  12.727  1.00 19.51 LIG 0.28  HD
ATOM     62 H2   ALA Q   1      22.609   7.935  12.135  1.00 19.51 LIG 0.28  HD
ENDBRANCH 57 59
ENDBRANCH 55 57
ENDBRANCH 52 53
BRANCH 52 63
ATOM     63  CB  ARG Q   2      19.477  11.462  13.498  1.00 13.50 LIG 0.04  C 
BRANCH 63 64
ATOM     64  CG  ARG Q   2      20.418  12.375  14.304  1.00 14.15 LIG 0.02  C 
BRANCH 64 65
ATOM     65  CD  ARG Q   2      21.753  12.534  13.594  1.00 12.93 LIG 0.14  C 
BRANCH 65 66
ATOM     66  NE  ARG Q   2      21.568  12.522  12.145  1.00 12.58 LIG-0.23  N 
ATOM     67 HE   ARG Q   2      21.975  11.909  11.701  1.00 12.58 LIG 0.18  HD
ATOM     68  CZ  ARG Q   2      20.817  13.385  11.447  1.00 11.80 LIG 0.67  C 
ATOM     69  NH2 ARG Q   2      20.704  13.235  10.139  1.00 12.39 LIG-0.23  N 
ATOM     70  NH1 ARG Q   2      20.193  14.397  12.036  1.00 13.65 LIG-0.23  N 
ATOM     71 2HH2 ARG Q   2      20.224  13.785   9.683  1.00 12.39 LIG 0.17  HD
ATOM     72 1HH2 ARG Q   2      21.111  12.588   9.743  1.00 12.39 LIG 0.17  HD
ATOM     73 2HH1 ARG Q   2      19.716  14.938  11.568  1.00 13.65 LIG 0.17  HD
ATOM     74 1HH1 ARG Q   2      20.265  14.510  12.886  1.00 13.65 LIG 0.17  HD
ENDBRANCH 65 66
ENDBRANCH 64 65
ENDBRANCH 63 64
ENDBRANCH 52 63
ENDBRANCH 49 52
ENDBRANCH 43 48
ENDBRANCH 41 43
ENDBRANCH 1 39
TORSDOF 30
ENDMDL
MODEL 4
USER: ADFR SOLUTION from run 189
USER: SCORE 21.258755 LL:  -4.026 LR: -19.598 RR:   0.000 FEB: -10.649
USER: RMSD 3.583925
USER: SEED 188
USER: STATUS searching
USER: GENES 32
USER: genes 0 Translation |==|  0.42670 0.59051 0.53512
USER: genes 1 Rotation |==|  0.52756 0.43943 0.45340 0.99336
USER: genes 2 Torsion [C]-CA--CB-[CG] |==|  0.16984
USER: genes 3 Torsion [CA]-CB--CG-[CD] |==|  0.60150
USER: genes 4 Torsion [CB]-CG--CD-[CE] |==|  0.33768
USER: genes 5 Torsion [CG]-CD--CE-[NZ] |==|  0.65754
USER: genes 6 Torsion [CD]-CE--NZ-[HZ1] |==|  0.53456
USER: genes 7 Torsion [N]-CA--C-[N] |==|  0.67833
USER: genes 8 Torsion [C]-N--CA-[CB] |==|  0.84314
USER: genes 9 Torsion [N]-CA--CB-[CG] |==|  0.64694
USER: genes 10 Torsion [CA]-CB--CG-[CD] |==|  0.11583
USER: genes 11 Torsion [CB]-CG--CD-[OE1] |==|  0.86235
USER: genes 12 Torsion [N]-CA--C-[N] |==|  0.90754
USER: genes 13 Torsion [C]-N--CA-[CB] |==|  0.87864
USER: genes 14 Torsion [N]-CA--CB-[CG2] |==|  0.50591
USER: genes 15 Torsion [CA]-CB--OG1-[HG1] |==|  0.60452
USER: genes 16 Torsion [N]-CA--C-[N] |==|  0.86356
USER: genes 17 Torsion [C]-N--CA-[C] |==|  0.65622
USER: genes 18 Torsion [N]-CA--C-[O] |==|  0.94621
USER: genes 19 Torsion [CB]-CA--N-[C] |==|  0.43132
USER: genes 20 Torsion [N]-C--CA-[N] |==|  0.46372
USER: genes 21 Torsion [C]-CA--CB-[CG2] |==|  0.57696
USER: genes 22 Torsion [CA]-CB--OG1-[HG1] |==|  0.42448
USER: genes 23 Torsion [C]-CA--N-[C] |==|  0.62132
USER: genes 24 Torsion [N]-C--CA-[N] |==|  0.45555
USER: genes 25 Torsion [C]-CA--N-[C] |==|  0.71682
USER: genes 26 Torsion [N]-C--CA-[N] |==|  0.24280
USER: genes 27 Torsion [C]-CA--N-[H1] |==|  0.58033
USER: genes 28 Torsion [C]-CA--CB-[CG] |==|  0.46877
USER: genes 29 Torsion [CA]-CB--CG-[CD] |==|  0.47247
USER: genes 30 Torsion [CB]-CG--CD-[NE] |==|  0.80635
USER: genes 31 Torsion [CG]-CD--NE-[HE] |==|  0.82645
ROOT
ATOM      1  CA  LYS Q   4      13.832  12.920  16.999  1.00 15.20 LIG 0.18  C 
ENDROOT
BRANCH 1 2
ATOM      2  CB  LYS Q   4      12.546  13.403  16.332  1.00 14.69 LIG 0.04  C 
BRANCH 2 3
ATOM      3  CG  LYS Q   4      12.059  14.719  16.865  1.00 16.14 LIG 0.00  C 
BRANCH 3 4
ATOM      4  CD  LYS Q   4      10.559  14.757  16.928  1.00 18.10 LIG 0.03  C 
BRANCH 4 5
ATOM      5  CE  LYS Q   4      10.124  15.020  18.353  1.00 22.11 LIG 0.23  C 
BRANCH 5 6
ATOM      6  NZ  LYS Q   4       9.220  13.945  18.844  1.00 25.79 LIG-0.08  N 
ATOM      7 HZ1  LYS Q   4       8.837  14.204  19.604  1.00 25.79 LIG 0.27  HD
ATOM      8 HZ2  LYS Q   4       8.591  13.784  18.235  1.00 25.79 LIG 0.27  HD
ATOM      9 HZ3  LYS Q   4       9.691  13.204  18.987  1.00 25.79 LIG 0.27  HD
ENDBRANCH 5 6
ENDBRANCH 4 5
ENDBRANCH 3 4
ENDBRANCH 2 3
ENDBRANCH 1 2
BRANCH 1 10
ATOM     10  C   LYS Q   4      13.578  12.724  18.495  1.00 15.70 LIG 0.24  C 
ATOM     11  N   GLN Q   5      12.319  12.848  18.921  1.00 16.90 LIG-0.35  N 
ATOM     12 H    GLN Q   5      11.636  12.917  18.402  1.00 16.90 LIG 0.16  HD
ATOM     13 O    LYS Q   4      14.518  12.475  19.259  1.00 16.41 LIG-0.27  OA
BRANCH 11 14
ATOM     14  CA  GLN Q   5      12.005  12.877  20.354  1.00 18.58 LIG 0.18  C 
BRANCH 14 15
ATOM     15  CB  GLN Q   5      12.536  11.626  21.064  1.00 18.36 LIG 0.04  C 
BRANCH 15 16
ATOM     16  CG  GLN Q   5      11.502  10.865  21.888  1.00 19.34 LIG 0.10  C 
BRANCH 16 17
ATOM     17  CD  GLN Q   5      10.148  10.734  21.224  1.00 21.85 LIG 0.21  C 
ATOM     18  NE2 GLN Q   5       9.613   9.512  21.203  1.00 24.33 LIG-0.37  N 
ATOM     19 21HE GLN Q   5      10.040   8.850  21.547  1.00 24.33 LIG 0.16  HD
ATOM     20 22HE GLN Q   5       8.841   9.387  20.846  1.00 24.33 LIG 0.16  HD
ATOM     21 OE1  GLN Q   5       9.582  11.713  20.748  1.00 24.78 LIG-0.27  OA
ENDBRANCH 16 17
ENDBRANCH 15 16
ENDBRANCH 14 15
BRANCH 14 22
ATOM     22  C   GLN Q   5      12.533  14.131  21.034  1.00 20.15 LIG 0.24  C 
ATOM     23 O    GLN Q   5      11.909  14.629  21.978  1.00 22.37 LIG-0.27  OA
ATOM     24  N   THR Q   6      13.666  14.653  20.586  1.00 20.72 LIG-0.34  N 
ATOM     25 H    THR Q   6      14.179  14.284  20.002  1.00 20.72 LIG 0.16  HD
BRANCH 24 26
ATOM     26  CA  THR Q   6      14.125  15.951  21.090  1.00 22.01 LIG 0.20  C 
BRANCH 26 27
ATOM     27  CB  THR Q   6      12.991  16.991  21.183  1.00 21.09 LIG 0.15  C 
ATOM     28  CG2 THR Q   6      13.520  18.342  21.662  1.00 22.53 LIG 0.04  C 
BRANCH 27 29
ATOM     29 OG1  THR Q   6      12.375  17.144  19.900  1.00 19.47 LIG-0.39  OA
ATOM     30 HG1  THR Q   6      12.175  17.951  19.780  1.00 19.47 LIG 0.21  HD
ENDBRANCH 27 29
ENDBRANCH 26 27
BRANCH 26 31
ATOM     31  C   THR Q   6      14.826  15.824  22.439  1.00 23.85 LIG 0.24  C 
ATOM     32  N   ALA Q   7      14.197  15.119  23.381  1.00 25.35 LIG-0.35  N 
ATOM     33 H    ALA Q   7      13.422  14.764  23.267  1.00 25.35 LIG 0.16  HD
ATOM     34 O    THR Q   6      15.937  16.339  22.609  1.00 25.66 LIG-0.27  OA
BRANCH 32 35
ATOM     35  CA  ALA Q   7      14.770  14.878  24.714  1.00 27.02 LIG 0.16  C 
ATOM     36  CB  ALA Q   7      13.957  15.608  25.780  1.00 27.03 LIG 0.04  C 
BRANCH 35 37
ATOM     37  C   ALA Q   7      14.867  13.384  25.046  1.00 28.43 LIG 0.22  C 
ATOM     38 O    ALA Q   7      14.187  12.549  24.430  1.00 30.23 LIG-0.29  OA
ENDBRANCH 35 37
ENDBRANCH 32 35
ENDBRANCH 26 31
ENDBRANCH 24 26
ENDBRANCH 14 22
ENDBRANCH 11 14
ENDBRANCH 1 10
BRANCH 1 39
ATOM     39  N   LYS Q   4      14.318  11.705  16.347  1.00 13.85 LIG-0.35  N 
ATOM     40 H    LYS Q   4      13.710  11.248  15.946  1.00 13.85 LIG 0.16  HD
ATOM     41  C   THR Q   3      15.606  11.361  16.388  1.00 13.84 LIG 0.24  C 
ATOM     42 O    THR Q   3      16.480  12.055  16.924  1.00 14.15 LIG-0.27  OA
BRANCH 41 43
ATOM     43  CA  THR Q   3      15.960  10.028  15.765  1.00 13.21 LIG 0.20  C 
BRANCH 43 44
ATOM     44  CB  THR Q   3      15.340   8.909  16.638  1.00 13.38 LIG 0.15  C 
ATOM     45  CG2 THR Q   3      16.120   7.618  16.553  1.00 13.96 LIG 0.04  C 
BRANCH 44 46
ATOM     46 OG1  THR Q   3      15.216   9.339  18.001  1.00 13.85 LIG-0.39  OA
ATOM     47 HG1  THR Q   3      14.583   8.927  18.369  1.00 13.85 LIG 0.21  HD
ENDBRANCH 44 46
ENDBRANCH 43 44
BRANCH 43 48
ATOM     48  N   THR Q   3      17.411   9.906  15.594  1.00 13.00 LIG-0.34  N 
ATOM     49  C   ARG Q   2      17.950   9.422  14.480  1.00 13.30 LIG 0.24  C 
ATOM     50 O    ARG Q   2      17.295   8.909  13.582  1.00 13.04 LIG-0.27  OA
ATOM     51 H    THR Q   3      17.869  10.173  16.271  1.00 13.00 LIG 0.16  HD
BRANCH 49 52
ATOM     52  CA  ARG Q   2      19.455   9.507  14.373  1.00 13.85 LIG 0.18  C 
BRANCH 52 53
ATOM     53  N   ARG Q   2      19.914   8.621  13.314  1.00 14.89 LIG-0.35  N 
ATOM     54 H    ARG Q   2      19.800   8.940  12.523  1.00 14.89 LIG 0.16  HD
ATOM     55  C   ALA Q   1      20.456   7.435  13.546  1.00 17.12 LIG 0.25  C 
ATOM     56 O    ALA Q   1      20.627   6.971  14.679  1.00 19.52 LIG-0.27  OA
BRANCH 55 57
ATOM     57  CA  ALA Q   1      20.891   6.664  12.306  1.00 17.93 LIG 0.27  C 
ATOM     58  CB  ALA Q   1      20.758   5.150  12.523  1.00 18.07 LIG 0.05  C 
BRANCH 57 59
ATOM     59  N   ALA Q   1      22.283   7.030  11.907  1.00 19.51 LIG-0.07  N 
ATOM     60 H1   ALA Q   1      22.376   6.932  11.027  1.00 19.51 LIG 0.28  HD
ATOM     61 H3   ALA Q   1      22.862   6.499  12.326  1.00 19.51 LIG 0.28  HD
ATOM     62 H2   ALA Q   1      22.443   7.877  12.129  1.00 19.51 LIG 0.28  HD
ENDBRANCH 57 59
ENDBRANCH 55 57
ENDBRANCH 52 53
BRANCH 52 63
ATOM     63  CB  ARG Q   2      19.858  10.956  14.074  1.00 13.50 LIG 0.04  C 
BRANCH 63 64
ATOM     64  CG  ARG Q   2      21.366  11.236  14.209  1.00 14.15 LIG 0.02  C 
BRANCH 64 65
ATOM     65  CD  ARG Q   2      21.707  12.615  13.665  1.00 12.93 LIG 0.14  C 
BRANCH 65 66
ATOM     66  NE  ARG Q   2      21.565  12.642  12.212  1.00 12.58 LIG-0.23  N 
ATOM     67 HE   ARG Q   2      22.077  12.123  11.757  1.00 12.58 LIG 0.18  HD
ATOM     68  CZ  ARG Q   2      20.704  13.407  11.526  1.00 11.80 LIG 0.67  C 
ATOM     69  NH2 ARG Q   2      20.652  13.303  10.209  1.00 12.39 LIG-0.23  N 
ATOM     70  NH1 ARG Q   2      19.911  14.277  12.136  1.00 13.65 LIG-0.23  N 
ATOM     71 2HH2 ARG Q   2      20.103  13.790   9.761  1.00 12.39 LIG 0.17  HD
ATOM     72 1HH2 ARG Q   2      21.168  12.748   9.801  1.00 12.39 LIG 0.17  HD
ATOM     73 2HH1 ARG Q   2      19.366  14.758  11.675  1.00 13.65 LIG 0.17  HD
ATOM     74 1HH1 ARG Q   2      19.941  14.361  12.991  1.00 13.65 LIG 0.17  HD
ENDBRANCH 65 66
ENDBRANCH 64 65
ENDBRANCH 63 64
ENDBRANCH 52 63
ENDBRANCH 49 52
ENDBRANCH 43 48
ENDBRANCH 41 43
ENDBRANCH 1 39
TORSDOF 30
ENDMDL
MODEL 5
USER: ADFR SOLUTION from run 70
USER: SCORE 20.984720 LL:  -4.542 LR: -19.200 RR:   0.000 FEB: -10.251
USER: RMSD 2.570497
USER: SEED 69
USER: STATUS no improvement in best in 5 clusters for 5 generations
USER: GENES 32
USER: genes 0 Translation |==|  0.40915 0.60164 0.51082
USER: genes 1 Rotation |==|  0.42812 0.48414 0.53163 0.99354
USER: genes 2 Torsion [C]-CA--CB-[CG] |==|  0.16129
USER: genes 3 Torsion [CA]-CB--CG-[CD] |==|  0.57001
USER: genes 4 Torsion [CB]-CG--CD-[CE] |==|  0.39879
USER: genes 5 Torsion [CG]-CD--CE-[NZ] |==|  0.66616
USER: genes 6 Torsion [CD]-CE--NZ-[HZ1] |==|  0.46327
USER: genes 7 Torsion [N]-CA--C-[N] |==|  0.87482
USER: genes 8 Torsion [C]-N--CA-[CB] |==|  0.49330
USER: genes 9 Torsion [N]-CA--CB-[CG] |==|  0.75204
USER: genes 10 Torsion [CA]-CB--CG-[CD] |==|  0.86334
USER: genes 11 Torsion [CB]-CG--CD-[OE1] |==|  0.82401
USER: genes 12 Torsion [N]-CA--C-[N] |==|  0.28207
USER: genes 13 Torsion [C]-N--CA-[CB] |==|  0.86667
USER: genes 14 Torsion [N]-CA--CB-[CG2] |==|  0.57168
USER: genes 15 Torsion [CA]-CB--OG1-[HG1] |==|  0.43856
USER: genes 16 Torsion [N]-CA--C-[N] |==|  0.87521
USER: genes 17 Torsion [C]-N--CA-[C] |==|  0.51474
USER: genes 18 Torsion [N]-CA--C-[O] |==|  0.98639
USER: genes 19 Torsion [CB]-CA--N-[C] |==|  0.45895
USER: genes 20 Torsion [N]-C--CA-[N] |==|  0.43846
USER: genes 21 Torsion [C]-CA--CB-[CG2] |==|  0.66315
USER: genes 22 Torsion [CA]-CB--OG1-[HG1] |==|  0.86785
USER: genes 23 Torsion [C]-CA--N-[C] |==|  0.64664
USER: genes 24 Torsion [N]-C--CA-[N] |==|  0.46425
USER: genes 25 Torsion [C]-CA--N-[C] |==|  0.78685
USER: genes 26 Torsion [N]-C--CA-[N] |==|  0.26492
USER: genes 27 Torsion [C]-CA--N-[H1] |==|  0.56909
USER: genes 28 Torsion [C]-CA--CB-[CG] |==|  0.35163
USER: genes 29 Torsion [CA]-CB--CG-[CD] |==|  0.50372
USER: genes 30 Torsion [CB]-CG--CD-[NE] |==|  0.88691
USER: genes 31 Torsion [CG]-CD--NE-[HE] |==|  0.31290
ROOT
ATOM      1  CA  LYS Q   4      13.411  13.137  16.488  1.00 15.20 LIG 0.18  C 
ENDROOT
BRANCH 1 2
ATOM      2  CB  LYS Q   4      11.963  12.995  16.027  1.00 14.69 LIG 0.04  C 
BRANCH 2 3
ATOM      3  CG  LYS Q   4      11.157  14.249  16.202  1.00 16.14 LIG 0.00  C 
BRANCH 3 4
ATOM      4  CD  LYS Q   4       9.693  13.940  16.332  1.00 18.10 LIG 0.03  C 
BRANCH 4 5
ATOM      5  CE  LYS Q   4       9.066  14.897  17.322  1.00 22.11 LIG 0.23  C 
BRANCH 5 6
ATOM      6  NZ  LYS Q   4       8.465  14.165  18.468  1.00 25.79 LIG-0.08  N 
ATOM      7 HZ1  LYS Q   4       8.276  14.739  19.122  1.00 25.79 LIG 0.27  HD
ATOM      8 HZ2  LYS Q   4       7.717  13.761  18.204  1.00 25.79 LIG 0.27  HD
ATOM      9 HZ3  LYS Q   4       9.042  13.556  18.767  1.00 25.79 LIG 0.27  HD
ENDBRANCH 5 6
ENDBRANCH 4 5
ENDBRANCH 3 4
ENDBRANCH 2 3
ENDBRANCH 1 2
BRANCH 1 10
ATOM     10  C   LYS Q   4      13.429  13.546  17.963  1.00 15.70 LIG 0.24  C 
ATOM     11  N   GLN Q   5      13.199  12.588  18.864  1.00 16.90 LIG-0.35  N 
ATOM     12 H    GLN Q   5      13.155  11.749  18.679  1.00 16.90 LIG 0.16  HD
ATOM     13 O    LYS Q   4      13.639  14.723  18.281  1.00 16.41 LIG-0.27  OA
BRANCH 11 14
ATOM     14  CA  GLN Q   5      12.999  12.916  20.280  1.00 18.58 LIG 0.18  C 
BRANCH 14 15
ATOM     15  CB  GLN Q   5      12.694  11.659  21.103  1.00 18.36 LIG 0.04  C 
BRANCH 15 16
ATOM     16  CG  GLN Q   5      11.214  11.297  21.203  1.00 19.34 LIG 0.10  C 
BRANCH 16 17
ATOM     17  CD  GLN Q   5      10.316  12.449  21.598  1.00 21.85 LIG 0.21  C 
ATOM     18  NE2 GLN Q   5       9.398  12.819  20.704  1.00 24.33 LIG-0.37  N 
ATOM     19 21HE GLN Q   5       9.346  12.414  19.947  1.00 24.33 LIG 0.16  HD
ATOM     20 22HE GLN Q   5       8.856  13.463  20.884  1.00 24.33 LIG 0.16  HD
ATOM     21 OE1  GLN Q   5      10.432  12.994  22.692  1.00 24.78 LIG-0.27  OA
ENDBRANCH 16 17
ENDBRANCH 15 16
ENDBRANCH 14 15
BRANCH 14 22
ATOM     22  C   GLN Q   5      14.188  13.657  20.873  1.00 20.15 LIG 0.24  C 
ATOM     23 O    GLN Q   5      15.206  13.034  21.193  1.00 22.37 LIG-0.27  OA
ATOM     24  N   THR Q   6      14.090  14.971  21.025  1.00 20.72 LIG-0.34  N 
ATOM     25 H    THR Q   6      13.443  15.453  20.725  1.00 20.72 LIG 0.16  HD
BRANCH 24 26
ATOM     26  CA  THR Q   6      15.134  15.705  21.747  1.00 22.01 LIG 0.20  C 
BRANCH 26 27
ATOM     27  CB  THR Q   6      15.506  15.048  23.090  1.00 21.09 LIG 0.15  C 
ATOM     28  CG2 THR Q   6      16.065  16.078  24.071  1.00 22.53 LIG 0.04  C 
BRANCH 27 29
ATOM     29 OG1  THR Q   6      14.348  14.425  23.657  1.00 19.47 LIG-0.39  OA
ATOM     30 HG1  THR Q   6      14.587  13.832  24.201  1.00 19.47 LIG 0.21  HD
ENDBRANCH 27 29
ENDBRANCH 26 27
BRANCH 26 31
ATOM     31  C   THR Q   6      16.387  15.899  20.897  1.00 23.85 LIG 0.24  C 
ATOM     32  N   ALA Q   7      16.823  14.838  20.216  1.00 25.35 LIG-0.35  N 
ATOM     33 H    ALA Q   7      16.448  14.065  20.255  1.00 25.35 LIG 0.16  HD
ATOM     34 O    THR Q   6      16.931  17.008  20.844  1.00 25.66 LIG-0.27  OA
BRANCH 32 35
ATOM     35  CA  ALA Q   7      17.992  14.887  19.325  1.00 27.02 LIG 0.16  C 
ATOM     36  CB  ALA Q   7      19.246  15.249  20.116  1.00 27.03 LIG 0.04  C 
BRANCH 35 37
ATOM     37  C   ALA Q   7      18.202  13.572  18.565  1.00 28.43 LIG 0.22  C 
ATOM     38 O    ALA Q   7      17.489  12.582  18.795  1.00 30.23 LIG-0.29  OA
ENDBRANCH 35 37
ENDBRANCH 32 35
ENDBRANCH 26 31
ENDBRANCH 24 26
ENDBRANCH 14 22
ENDBRANCH 11 14
ENDBRANCH 1 10
BRANCH 1 39
ATOM     39  N   LYS Q   4      14.149  11.900  16.238  1.00 13.85 LIG-0.35  N 
ATOM     40 H    LYS Q   4      13.654  11.219  16.065  1.00 13.85 LIG 0.16  HD
ATOM     41  C   THR Q   3      15.481  11.865  16.281  1.00 13.84 LIG 0.24  C 
ATOM     42 O    THR Q   3      16.184  12.864  16.479  1.00 14.15 LIG-0.27  OA
BRANCH 41 43
ATOM     43  CA  THR Q   3      16.117  10.502  16.108  1.00 13.21 LIG 0.20  C 
BRANCH 43 44
ATOM     44  CB  THR Q   3      15.970   9.729  17.442  1.00 13.38 LIG 0.15  C 
ATOM     45  CG2 THR Q   3      17.305   9.316  18.015  1.00 13.96 LIG 0.04  C 
BRANCH 44 46
ATOM     46 OG1  THR Q   3      15.225  10.501  18.396  1.00 13.85 LIG-0.39  OA
ATOM     47 HG1  THR Q   3      15.525  11.285  18.418  1.00 13.85 LIG 0.21  HD
ENDBRANCH 44 46
ENDBRANCH 43 44
BRANCH 43 48
ATOM     48  N   THR Q   3      17.505  10.633  15.653  1.00 13.00 LIG-0.34  N 
ATOM     49  C   ARG Q   2      17.956   9.996  14.577  1.00 13.30 LIG 0.24  C 
ATOM     50 O    ARG Q   2      17.310   9.148  13.976  1.00 13.04 LIG-0.27  OA
ATOM     51 H    THR Q   3      17.988  11.152  16.140  1.00 13.00 LIG 0.16  HD
BRANCH 49 52
ATOM     52  CA  ARG Q   2      19.354  10.350  14.128  1.00 13.85 LIG 0.18  C 
BRANCH 52 53
ATOM     53  N   ARG Q   2      19.809   9.372  13.152  1.00 14.89 LIG-0.35  N 
ATOM     54 H    ARG Q   2      19.784   9.655  12.340  1.00 14.89 LIG 0.16  HD
ATOM     55  C   ALA Q   1      20.223   8.157  13.481  1.00 17.12 LIG 0.25  C 
ATOM     56 O    ALA Q   1      20.266   7.743  14.645  1.00 19.52 LIG-0.27  OA
BRANCH 55 57
ATOM     57  CA  ALA Q   1      20.677   7.285  12.318  1.00 17.93 LIG 0.27  C 
ATOM     58  CB  ALA Q   1      20.218   5.833  12.505  1.00 18.07 LIG 0.05  C 
BRANCH 57 59
ATOM     59  N   ALA Q   1      22.158   7.362  12.136  1.00 19.51 LIG-0.07  N 
ATOM     60 H1   ALA Q   1      22.365   7.168  11.292  1.00 19.51 LIG 0.28  HD
ATOM     61 H3   ALA Q   1      22.555   6.778  12.680  1.00 19.51 LIG 0.28  HD
ATOM     62 H2   ALA Q   1      22.439   8.184  12.328  1.00 19.51 LIG 0.28  HD
ENDBRANCH 57 59
ENDBRANCH 55 57
ENDBRANCH 52 53
BRANCH 52 63
ATOM     63  CB  ARG Q   2      19.347  11.756  13.516  1.00 13.50 LIG 0.04  C 
BRANCH 63 64
ATOM     64  CG  ARG Q   2      20.378  12.721  14.128  1.00 14.15 LIG 0.02  C 
BRANCH 64 65
ATOM     65  CD  ARG Q   2      20.277  14.095  13.486  1.00 12.93 LIG 0.14  C 
BRANCH 65 66
ATOM     66  NE  ARG Q   2      20.069  13.973  12.044  1.00 12.58 LIG-0.23  N 
ATOM     67 HE   ARG Q   2      19.310  14.230  11.734  1.00 12.58 LIG 0.18  HD
ATOM     68  CZ  ARG Q   2      20.961  13.497  11.165  1.00 11.80 LIG 0.67  C 
ATOM     69  NH2 ARG Q   2      20.656  13.480   9.879  1.00 12.39 LIG-0.23  N 
ATOM     70  NH1 ARG Q   2      22.139  13.029  11.555  1.00 13.65 LIG-0.23  N 
ATOM     71 2HH2 ARG Q   2      21.223  13.176   9.307  1.00 12.39 LIG 0.17  HD
ATOM     72 1HH2 ARG Q   2      19.892  13.773   9.614  1.00 12.39 LIG 0.17  HD
ATOM     73 2HH1 ARG Q   2      22.696  12.728  10.972  1.00 13.65 LIG 0.17  HD
ATOM     74 1HH1 ARG Q   2      22.346  13.027  12.390  1.00 13.65 LIG 0.17  HD
ENDBRANCH 65 66
ENDBRANCH 64 65
ENDBRANCH 63 64
ENDBRANCH 52 63
ENDBRANCH 49 52
ENDBRANCH 43 48
ENDBRANCH 41 43
ENDBRANCH 1 39
TORSDOF 30
ENDMDL
MODEL 6
USER: ADFR SOLUTION from run 95
USER: SCORE 21.846937 LL:  -3.692 LR: -19.110 RR:   0.000 FEB: -10.161
USER: RMSD 2.713701
USER: SEED 94
USER: STATUS no improvement in best in 5 clusters for 5 generations
USER: GENES 32
USER: genes 0 Translation |==|  0.42816 0.60530 0.52146
USER: genes 1 Rotation |==|  0.49314 0.48981 0.48533 0.99963
USER: genes 2 Torsion [C]-CA--CB-[CG] |==|  0.04962
USER: genes 3 Torsion [CA]-CB--CG-[CD] |==|  0.30122
USER: genes 4 Torsion [CB]-CG--CD-[CE] |==|  0.52438
USER: genes 5 Torsion [CG]-CD--CE-[NZ] |==|  0.46028
USER: genes 6 Torsion [CD]-CE--NZ-[HZ1] |==|  0.36967
USER: genes 7 Torsion [N]-CA--C-[N] |==|  0.43919
USER: genes 8 Torsion [C]-N--CA-[CB] |==|  0.84211
USER: genes 9 Torsion [N]-CA--CB-[CG] |==|  0.82594
USER: genes 10 Torsion [CA]-CB--CG-[CD] |==|  0.32620
USER: genes 11 Torsion [CB]-CG--CD-[OE1] |==|  0.98640
USER: genes 12 Torsion [N]-CA--C-[N] |==|  0.36051
USER: genes 13 Torsion [C]-N--CA-[CB] |==|  0.19948
USER: genes 14 Torsion [N]-CA--CB-[CG2] |==|  0.69554
USER: genes 15 Torsion [CA]-CB--OG1-[HG1] |==|  0.31883
USER: genes 16 Torsion [N]-CA--C-[N] |==|  0.05658
USER: genes 17 Torsion [C]-N--CA-[C] |==|  0.80157
USER: genes 18 Torsion [N]-CA--C-[O] |==|  0.91389
USER: genes 19 Torsion [CB]-CA--N-[C] |==|  0.51111
USER: genes 20 Torsion [N]-C--CA-[N] |==|  0.42704
USER: genes 21 Torsion [C]-CA--CB-[CG2] |==|  0.57450
USER: genes 22 Torsion [CA]-CB--OG1-[HG1] |==|  0.41894
USER: genes 23 Torsion [C]-CA--N-[C] |==|  0.62663
USER: genes 24 Torsion [N]-C--CA-[N] |==|  0.45424
USER: genes 25 Torsion [C]-CA--N-[C] |==|  0.72229
USER: genes 26 Torsion [N]-C--CA-[N] |==|  0.26121
USER: genes 27 Torsion [C]-CA--N-[H1] |==|  0.81407
USER: genes 28 Torsion [C]-CA--CB-[CG] |==|  0.46915
USER: genes 29 Torsion [CA]-CB--CG-[CD] |==|  0.46109
USER: genes 30 Torsion [CB]-CG--CD-[NE] |==|  0.81516
USER: genes 31 Torsion [CG]-CD--NE-[HE] |==|  0.82993
ROOT
ATOM      1  CA  LYS Q   4      13.867  13.208  16.712  1.00 15.20 LIG 0.18  C 
ENDROOT
BRANCH 1 2
ATOM      2  CB  LYS Q   4      12.422  13.448  16.283  1.00 14.69 LIG 0.04  C 
BRANCH 2 3
ATOM      3  CG  LYS Q   4      11.567  14.028  17.372  1.00 16.14 LIG 0.00  C 
BRANCH 3 4
ATOM      4  CD  LYS Q   4      11.232  15.465  17.092  1.00 18.10 LIG 0.03  C 
BRANCH 4 5
ATOM      5  CE  LYS Q   4      10.559  16.068  18.306  1.00 22.11 LIG 0.23  C 
BRANCH 5 6
ATOM      6  NZ  LYS Q   4      10.519  17.551  18.215  1.00 25.79 LIG-0.08  N 
ATOM      7 HZ1  LYS Q   4       9.702  17.839  18.419  1.00 25.79 LIG 0.27  HD
ATOM      8 HZ2  LYS Q   4      11.106  17.900  18.785  1.00 25.79 LIG 0.27  HD
ATOM      9 HZ3  LYS Q   4      10.723  17.803  17.386  1.00 25.79 LIG 0.27  HD
ENDBRANCH 5 6
ENDBRANCH 4 5
ENDBRANCH 3 4
ENDBRANCH 2 3
ENDBRANCH 1 2
BRANCH 1 10
ATOM     10  C   LYS Q   4      13.942  13.206  18.241  1.00 15.70 LIG 0.24  C 
ATOM     11  N   GLN Q   5      13.941  14.392  18.852  1.00 16.90 LIG-0.35  N 
ATOM     12 H    GLN Q   5      13.788  15.141  18.458  1.00 16.90 LIG 0.16  HD
ATOM     13 O    LYS Q   4      14.014  12.137  18.859  1.00 16.41 LIG-0.27  OA
BRANCH 11 14
ATOM     14  CA  GLN Q   5      14.210  14.501  20.291  1.00 18.58 LIG 0.18  C 
BRANCH 14 15
ATOM     15  CB  GLN Q   5      13.231  13.647  21.104  1.00 18.36 LIG 0.04  C 
BRANCH 15 16
ATOM     16  CG  GLN Q   5      11.765  14.055  20.982  1.00 19.34 LIG 0.10  C 
BRANCH 16 17
ATOM     17  CD  GLN Q   5      10.871  12.995  20.376  1.00 21.85 LIG 0.21  C 
ATOM     18  NE2 GLN Q   5       9.567  13.274  20.329  1.00 24.33 LIG-0.37  N 
ATOM     19 21HE GLN Q   5       9.276  14.019  20.642  1.00 24.33 LIG 0.16  HD
ATOM     20 22HE GLN Q   5       9.018  12.708  19.986  1.00 24.33 LIG 0.16  HD
ATOM     21 OE1  GLN Q   5      11.340  11.946  19.943  1.00 24.78 LIG-0.27  OA
ENDBRANCH 16 17
ENDBRANCH 15 16
ENDBRANCH 14 15
BRANCH 14 22
ATOM     22  C   GLN Q   5      15.644  14.131  20.638  1.00 20.15 LIG 0.24  C 
ATOM     23 O    GLN Q   5      16.129  13.076  20.215  1.00 22.37 LIG-0.27  OA
ATOM     24  N   THR Q   6      16.338  14.972  21.393  1.00 20.72 LIG-0.34  N 
ATOM     25 H    THR Q   6      16.074  15.757  21.624  1.00 20.72 LIG 0.16  HD
BRANCH 24 26
ATOM     26  CA  THR Q   6      17.660  14.584  21.896  1.00 22.01 LIG 0.20  C 
BRANCH 26 27
ATOM     27  CB  THR Q   6      18.734  14.552  20.793  1.00 21.09 LIG 0.15  C 
ATOM     28  CG2 THR Q   6      19.159  13.118  20.478  1.00 22.53 LIG 0.04  C 
BRANCH 27 29
ATOM     29 OG1  THR Q   6      18.223  15.172  19.608  1.00 19.47 LIG-0.39  OA
ATOM     30 HG1  THR Q   6      18.661  15.871  19.446  1.00 19.47 LIG 0.21  HD
ENDBRANCH 27 29
ENDBRANCH 26 27
BRANCH 26 31
ATOM     31  C   THR Q   6      18.119  15.478  23.044  1.00 23.85 LIG 0.24  C 
ATOM     32  N   ALA Q   7      17.173  16.157  23.695  1.00 25.35 LIG-0.35  N 
ATOM     33 H    ALA Q   7      16.340  16.129  23.482  1.00 25.35 LIG 0.16  HD
ATOM     34 O    THR Q   6      19.316  15.526  23.349  1.00 25.66 LIG-0.27  OA
BRANCH 32 35
ATOM     35  CA  ALA Q   7      17.462  17.025  24.846  1.00 27.02 LIG 0.16  C 
ATOM     36  CB  ALA Q   7      16.272  17.936  25.135  1.00 27.03 LIG 0.04  C 
BRANCH 35 37
ATOM     37  C   ALA Q   7      17.838  16.225  26.100  1.00 28.43 LIG 0.22  C 
ATOM     38 O    ALA Q   7      17.364  15.096  26.301  1.00 30.23 LIG-0.29  OA
ENDBRANCH 35 37
ENDBRANCH 32 35
ENDBRANCH 26 31
ENDBRANCH 24 26
ENDBRANCH 14 22
ENDBRANCH 11 14
ENDBRANCH 1 10
BRANCH 1 39
ATOM     39  N   LYS Q   4      14.375  11.971  16.122  1.00 13.85 LIG-0.35  N 
ATOM     40 H    LYS Q   4      13.829  11.583  15.583  1.00 13.85 LIG 0.16  HD
ATOM     41  C   THR Q   3      15.591  11.509  16.415  1.00 13.84 LIG 0.24  C 
ATOM     42 O    THR Q   3      16.387  12.103  17.152  1.00 14.15 LIG-0.27  OA
BRANCH 41 43
ATOM     43  CA  THR Q   3      15.954  10.165  15.820  1.00 13.21 LIG 0.20  C 
BRANCH 43 44
ATOM     44  CB  THR Q   3      15.330   9.060  16.708  1.00 13.38 LIG 0.15  C 
ATOM     45  CG2 THR Q   3      16.102   7.764  16.637  1.00 13.96 LIG 0.04  C 
BRANCH 44 46
ATOM     46 OG1  THR Q   3      15.212   9.508  18.067  1.00 13.85 LIG-0.39  OA
ATOM     47 HG1  THR Q   3      14.560   9.125  18.432  1.00 13.85 LIG 0.21  HD
ENDBRANCH 44 46
ENDBRANCH 43 44
BRANCH 43 48
ATOM     48  N   THR Q   3      17.406  10.044  15.664  1.00 13.00 LIG-0.34  N 
ATOM     49  C   ARG Q   2      17.958   9.576  14.549  1.00 13.30 LIG 0.24  C 
ATOM     50 O    ARG Q   2      17.313   9.076  13.636  1.00 13.04 LIG-0.27  OA
ATOM     51 H    THR Q   3      17.858  10.301  16.349  1.00 13.00 LIG 0.16  HD
BRANCH 49 52
ATOM     52  CA  ARG Q   2      19.464   9.661  14.460  1.00 13.85 LIG 0.18  C 
BRANCH 52 53
ATOM     53  N   ARG Q   2      19.935   8.782  13.402  1.00 14.89 LIG-0.35  N 
ATOM     54 H    ARG Q   2      19.855   9.117  12.613  1.00 14.89 LIG 0.16  HD
ATOM     55  C   ALA Q   1      20.440   7.578  13.629  1.00 17.12 LIG 0.25  C 
ATOM     56 O    ALA Q   1      20.562   7.092  14.759  1.00 19.52 LIG-0.27  OA
BRANCH 55 57
ATOM     57  CA  ALA Q   1      20.896   6.818  12.391  1.00 17.93 LIG 0.27  C 
ATOM     58  CB  ALA Q   1      20.568   5.323  12.510  1.00 18.07 LIG 0.05  C 
BRANCH 57 59
ATOM     59  N   ALA Q   1      22.353   7.030  12.136  1.00 19.51 LIG-0.07  N 
ATOM     60 H1   ALA Q   1      22.494   7.880  11.912  1.00 19.51 LIG 0.28  HD
ATOM     61 H3   ALA Q   1      22.618   6.500  11.471  1.00 19.51 LIG 0.28  HD
ATOM     62 H2   ALA Q   1      22.814   6.836  12.872  1.00 19.51 LIG 0.28  HD
ENDBRANCH 57 59
ENDBRANCH 55 57
ENDBRANCH 52 53
BRANCH 52 63
ATOM     63  CB  ARG Q   2      19.871  11.111  14.176  1.00 13.50 LIG 0.04  C 
BRANCH 63 64
ATOM     64  CG  ARG Q   2      21.378  11.390  14.327  1.00 14.15 LIG 0.02  C 
BRANCH 64 65
ATOM     65  CD  ARG Q   2      21.742  12.729  13.705  1.00 12.93 LIG 0.14  C 
BRANCH 65 66
ATOM     66  NE  ARG Q   2      21.560  12.689  12.256  1.00 12.58 LIG-0.23  N 
ATOM     67 HE   ARG Q   2      22.034  12.121  11.817  1.00 12.58 LIG 0.18  HD
ATOM     68  CZ  ARG Q   2      20.720  13.459  11.554  1.00 11.80 LIG 0.67  C 
ATOM     69  NH2 ARG Q   2      20.626  13.290  10.246  1.00 12.39 LIG-0.23  N 
ATOM     70  NH1 ARG Q   2      19.988  14.400  12.136  1.00 13.65 LIG-0.23  N 
ATOM     71 2HH2 ARG Q   2      20.089  13.780   9.786  1.00 12.39 LIG 0.17  HD
ATOM     72 1HH2 ARG Q   2      21.102  12.689   9.854  1.00 12.39 LIG 0.17  HD
ATOM     73 2HH1 ARG Q   2      19.455  14.883  11.664  1.00 13.65 LIG 0.17  HD
ATOM     74 1HH1 ARG Q   2      20.046  14.526  12.985  1.00 13.65 LIG 0.17  HD
ENDBRANCH 65 66
ENDBRANCH 64 65
ENDBRANCH 63 64
ENDBRANCH 52 63
ENDBRANCH 49 52
ENDBRANCH 43 48
ENDBRANCH 41 43
ENDBRANCH 1 39
TORSDOF 30
ENDMDL
MODEL 7
USER: ADFR SOLUTION from run 13
USER: SCORE 20.902642 LL:  -4.470 LR: -19.109 RR:   0.000 FEB: -10.160
USER: RMSD 2.837162
USER: SEED 330499
USER: STATUS no improvement in best in 3 clusters for 5 generations
USER: GENES 32
USER: genes 0 Translation |==|  0.41457 0.60846 0.51796
USER: genes 1 Rotation |==|  0.45639 0.51297 0.52299 0.99739
USER: genes 2 Torsion [C]-CA--CB-[CG] |==|  0.05633
USER: genes 3 Torsion [CA]-CB--CG-[CD] |==|  0.23310
USER: genes 4 Torsion [CB]-CG--CD-[CE] |==|  0.53385
USER: genes 5 Torsion [CG]-CD--CE-[NZ] |==|  0.49899
USER: genes 6 Torsion [CD]-CE--NZ-[HZ1] |==|  0.72149
USER: genes 7 Torsion [N]-CA--C-[N] |==|  0.92099
USER: genes 8 Torsion [C]-N--CA-[CB] |==|  0.54193
USER: genes 9 Torsion [N]-CA--CB-[CG] |==|  0.80708
USER: genes 10 Torsion [CA]-CB--CG-[CD] |==|  0.50289
USER: genes 11 Torsion [CB]-CG--CD-[OE1] |==|  0.18717
USER: genes 12 Torsion [N]-CA--C-[N] |==|  0.86168
USER: genes 13 Torsion [C]-N--CA-[CB] |==|  0.18287
USER: genes 14 Torsion [N]-CA--CB-[CG2] |==|  0.17415
USER: genes 15 Torsion [CA]-CB--OG1-[HG1] |==|  0.56869
USER: genes 16 Torsion [N]-CA--C-[N] |==|  0.05970
USER: genes 17 Torsion [C]-N--CA-[C] |==|  0.62323
USER: genes 18 Torsion [N]-CA--C-[O] |==|  0.70942
USER: genes 19 Torsion [CB]-CA--N-[C] |==|  0.50619
USER: genes 20 Torsion [N]-C--CA-[N] |==|  0.41739
USER: genes 21 Torsion [C]-CA--CB-[CG2] |==|  0.66133
USER: genes 22 Torsion [CA]-CB--OG1-[HG1] |==|  0.38397
USER: genes 23 Torsion [C]-CA--N-[C] |==|  0.63363
USER: genes 24 Torsion [N]-C--CA-[N] |==|  0.44040
USER: genes 25 Torsion [C]-CA--N-[C] |==|  0.75844
USER: genes 26 Torsion [N]-C--CA-[N] |==|  0.28031
USER: genes 27 Torsion [C]-CA--N-[H1] |==|  0.59091
USER: genes 28 Torsion [C]-CA--CB-[CG] |==|  0.39885
USER: genes 29 Torsion [CA]-CB--CG-[CD] |==|  0.52983
USER: genes 30 Torsion [CB]-CG--CD-[NE] |==|  0.83290
USER: genes 31 Torsion [CG]-CD--NE-[HE] |==|  0.32576
ROOT
ATOM      1  CA  LYS Q   4      13.541  13.270  16.638  1.00 15.20 LIG 0.18  C 
ENDROOT
BRANCH 1 2
ATOM      2  CB  LYS Q   4      12.044  13.240  16.340  1.00 14.69 LIG 0.04  C 
BRANCH 2 3
ATOM      3  CG  LYS Q   4      11.214  13.907  17.397  1.00 16.14 LIG 0.00  C 
BRANCH 3 4
ATOM      4  CD  LYS Q   4      11.147  15.392  17.177  1.00 18.10 LIG 0.03  C 
BRANCH 4 5
ATOM      5  CE  LYS Q   4      10.567  16.054  18.408  1.00 22.11 LIG 0.23  C 
BRANCH 5 6
ATOM      6  NZ  LYS Q   4      10.491  17.529  18.237  1.00 25.79 LIG-0.08  N 
ATOM      7 HZ1  LYS Q   4      11.175  17.912  18.657  1.00 25.79 LIG 0.27  HD
ATOM      8 HZ2  LYS Q   4      10.525  17.730  17.371  1.00 25.79 LIG 0.27  HD
ATOM      9 HZ3  LYS Q   4       9.727  17.829  18.582  1.00 25.79 LIG 0.27  HD
ENDBRANCH 5 6
ENDBRANCH 4 5
ENDBRANCH 3 4
ENDBRANCH 2 3
ENDBRANCH 1 2
BRANCH 1 10
ATOM     10  C   LYS Q   4      13.749  13.513  18.135  1.00 15.70 LIG 0.24  C 
ATOM     11  N   GLN Q   5      13.910  12.438  18.910  1.00 16.90 LIG-0.35  N 
ATOM     12 H    GLN Q   5      14.017  11.638  18.613  1.00 16.90 LIG 0.16  HD
ATOM     13 O    LYS Q   4      13.751  14.665  18.585  1.00 16.41 LIG-0.27  OA
BRANCH 11 14
ATOM     14  CA  GLN Q   5      13.916  12.556  20.373  1.00 18.58 LIG 0.18  C 
BRANCH 14 15
ATOM     15  CB  GLN Q   5      14.477  11.290  21.029  1.00 18.36 LIG 0.04  C 
BRANCH 15 16
ATOM     16  CG  GLN Q   5      13.588  10.054  20.912  1.00 19.34 LIG 0.10  C 
BRANCH 16 17
ATOM     17  CD  GLN Q   5      14.145   8.819  21.587  1.00 21.85 LIG 0.21  C 
ATOM     18  NE2 GLN Q   5      14.519   7.822  20.783  1.00 24.33 LIG-0.37  N 
ATOM     19 21HE GLN Q   5      14.429   7.899  19.932  1.00 24.33 LIG 0.16  HD
ATOM     20 22HE GLN Q   5      14.850   7.102  21.117  1.00 24.33 LIG 0.16  HD
ATOM     21 OE1  GLN Q   5      14.252   8.761  22.808  1.00 24.78 LIG-0.27  OA
ENDBRANCH 16 17
ENDBRANCH 15 16
ENDBRANCH 14 15
BRANCH 14 22
ATOM     22  C   GLN Q   5      14.683  13.780  20.849  1.00 20.15 LIG 0.24  C 
ATOM     23 O    GLN Q   5      14.169  14.549  21.669  1.00 22.37 LIG-0.27  OA
ATOM     24  N   THR Q   6      15.900  13.980  20.363  1.00 20.72 LIG-0.34  N 
ATOM     25 H    THR Q   6      16.331  13.421  19.871  1.00 20.72 LIG 0.16  HD
BRANCH 24 26
ATOM     26  CA  THR Q   6      16.609  15.230  20.656  1.00 22.01 LIG 0.20  C 
BRANCH 26 27
ATOM     27  CB  THR Q   6      16.957  15.384  22.149  1.00 21.09 LIG 0.15  C 
ATOM     28  CG2 THR Q   6      17.908  14.280  22.611  1.00 22.53 LIG 0.04  C 
BRANCH 27 29
ATOM     29 OG1  THR Q   6      17.562  16.662  22.372  1.00 19.47 LIG-0.39  OA
ATOM     30 HG1  THR Q   6      18.043  16.628  23.059  1.00 19.47 LIG 0.21  HD
ENDBRANCH 27 29
ENDBRANCH 26 27
BRANCH 26 31
ATOM     31  C   THR Q   6      17.870  15.383  19.810  1.00 23.85 LIG 0.24  C 
ATOM     32  N   ALA Q   7      17.928  14.675  18.681  1.00 25.35 LIG-0.35  N 
ATOM     33 H    ALA Q   7      17.309  14.132  18.432  1.00 25.35 LIG 0.16  HD
ATOM     34 O    THR Q   6      18.765  16.158  20.169  1.00 25.66 LIG-0.27  OA
BRANCH 32 35
ATOM     35  CA  ALA Q   7      19.061  14.753  17.747  1.00 27.02 LIG 0.16  C 
ATOM     36  CB  ALA Q   7      19.990  13.557  17.940  1.00 27.03 LIG 0.04  C 
BRANCH 35 37
ATOM     37  C   ALA Q   7      18.607  14.845  16.286  1.00 28.43 LIG 0.22  C 
ATOM     38 O    ALA Q   7      18.688  13.865  15.530  1.00 30.23 LIG-0.29  OA
ENDBRANCH 35 37
ENDBRANCH 32 35
ENDBRANCH 26 31
ENDBRANCH 24 26
ENDBRANCH 14 22
ENDBRANCH 11 14
ENDBRANCH 1 10
BRANCH 1 39
ATOM     39  N   LYS Q   4      14.178  12.039  16.174  1.00 13.85 LIG-0.35  N 
ATOM     40 H    LYS Q   4      13.647  11.490  15.778  1.00 13.85 LIG 0.16  HD
ATOM     41  C   THR Q   3      15.479  11.814  16.364  1.00 13.84 LIG 0.24  C 
ATOM     42 O    THR Q   3      16.242  12.634  16.890  1.00 14.15 LIG-0.27  OA
BRANCH 41 43
ATOM     43  CA  THR Q   3      15.990  10.457  15.931  1.00 13.21 LIG 0.20  C 
BRANCH 43 44
ATOM     44  CB  THR Q   3      15.740   9.457  17.087  1.00 13.38 LIG 0.15  C 
ATOM     45  CG2 THR Q   3      17.015   8.803  17.564  1.00 13.96 LIG 0.04  C 
BRANCH 44 46
ATOM     46 OG1  THR Q   3      15.059  10.098  18.175  1.00 13.85 LIG-0.39  OA
ATOM     47 HG1  THR Q   3      14.466   9.585  18.475  1.00 13.85 LIG 0.21  HD
ENDBRANCH 44 46
ENDBRANCH 43 44
BRANCH 43 48
ATOM     48  N   THR Q   3      17.395  10.542  15.520  1.00 13.00 LIG-0.34  N 
ATOM     49  C   ARG Q   2      17.829  10.006  14.383  1.00 13.30 LIG 0.24  C 
ATOM     50 O    ARG Q   2      17.142   9.284  13.673  1.00 13.04 LIG-0.27  OA
ATOM     51 H    THR Q   3      17.900  10.964  16.073  1.00 13.00 LIG 0.16  HD
BRANCH 49 52
ATOM     52  CA  ARG Q   2      19.259  10.311  14.003  1.00 13.85 LIG 0.18  C 
BRANCH 52 53
ATOM     53  N   ARG Q   2      19.737   9.299  13.073  1.00 14.89 LIG-0.35  N 
ATOM     54 H    ARG Q   2      19.634   9.513  12.247  1.00 14.89 LIG 0.16  HD
ATOM     55  C   ALA Q   1      20.279   8.154  13.463  1.00 17.12 LIG 0.25  C 
ATOM     56 O    ALA Q   1      20.434   7.840  14.648  1.00 19.52 LIG-0.27  OA
BRANCH 55 57
ATOM     57  CA  ALA Q   1      20.735   7.233  12.338  1.00 17.93 LIG 0.27  C 
ATOM     58  CB  ALA Q   1      20.300   5.785  12.601  1.00 18.07 LIG 0.05  C 
BRANCH 57 59
ATOM     59  N   ALA Q   1      22.212   7.323  12.136  1.00 19.51 LIG-0.07  N 
ATOM     60 H1   ALA Q   1      22.402   7.202  11.275  1.00 19.51 LIG 0.28  HD
ATOM     61 H3   ALA Q   1      22.617   6.694  12.620  1.00 19.51 LIG 0.28  HD
ATOM     62 H2   ALA Q   1      22.499   8.125  12.394  1.00 19.51 LIG 0.28  HD
ENDBRANCH 57 59
ENDBRANCH 55 57
ENDBRANCH 52 53
BRANCH 52 63
ATOM     63  CB  ARG Q   2      19.327  11.702  13.364  1.00 13.50 LIG 0.04  C 
BRANCH 63 64
ATOM     64  CG  ARG Q   2      20.595  12.501  13.713  1.00 14.15 LIG 0.02  C 
BRANCH 64 65
ATOM     65  CD  ARG Q   2      20.461  13.948  13.263  1.00 12.93 LIG 0.14  C 
BRANCH 65 66
ATOM     66  NE  ARG Q   2      20.261  14.019  11.817  1.00 12.58 LIG-0.23  N 
ATOM     67 HE   ARG Q   2      19.519  14.353  11.539  1.00 12.58 LIG 0.18  HD
ATOM     68  CZ  ARG Q   2      21.134  13.607  10.888  1.00 11.80 LIG 0.67  C 
ATOM     69  NH2 ARG Q   2      20.841  13.768   9.609  1.00 12.39 LIG-0.23  N 
ATOM     70  NH1 ARG Q   2      22.281  13.030  11.219  1.00 13.65 LIG-0.23  N 
ATOM     71 2HH2 ARG Q   2      21.396  13.507   9.005  1.00 12.39 LIG 0.17  HD
ATOM     72 1HH2 ARG Q   2      20.096  14.133   9.380  1.00 12.39 LIG 0.17  HD
ATOM     73 2HH1 ARG Q   2      22.826  12.774  10.604  1.00 13.65 LIG 0.17  HD
ATOM     74 1HH1 ARG Q   2      22.480  12.912  12.047  1.00 13.65 LIG 0.17  HD
ENDBRANCH 65 66
ENDBRANCH 64 65
ENDBRANCH 63 64
ENDBRANCH 52 63
ENDBRANCH 49 52
ENDBRANCH 43 48
ENDBRANCH 41 43
ENDBRANCH 1 39
TORSDOF 30
ENDMDL
MODEL 8
USER: ADFR SOLUTION from run 120
USER: SCORE 20.930552 LL:  -4.269 LR: -19.094 RR:   0.000 FEB: -10.145
USER: RMSD 3.439073
USER: SEED 119
USER: STATUS no improvement in best in 6 clusters for 5 generations
USER: GENES 32
USER: genes 0 Translation |==|  0.42857 0.60568 0.52957
USER: genes 1 Rotation |==|  0.47652 0.52746 0.49346 0.99865
USER: genes 2 Torsion [C]-CA--CB-[CG] |==|  0.06149
USER: genes 3 Torsion [CA]-CB--CG-[CD] |==|  0.32054
USER: genes 4 Torsion [CB]-CG--CD-[CE] |==|  0.49977
USER: genes 5 Torsion [CG]-CD--CE-[NZ] |==|  0.41508
USER: genes 6 Torsion [CD]-CE--NZ-[HZ1] |==|  0.38592
USER: genes 7 Torsion [N]-CA--C-[N] |==|  0.35114
USER: genes 8 Torsion [C]-N--CA-[CB] |==|  0.80602
USER: genes 9 Torsion [N]-CA--CB-[CG] |==|  0.85383
USER: genes 10 Torsion [CA]-CB--CG-[CD] |==|  0.80974
USER: genes 11 Torsion [CB]-CG--CD-[OE1] |==|  0.02003
USER: genes 12 Torsion [N]-CA--C-[N] |==|  0.77229
USER: genes 13 Torsion [C]-N--CA-[CB] |==|  0.18777
USER: genes 14 Torsion [N]-CA--CB-[CG2] |==|  0.68978
USER: genes 15 Torsion [CA]-CB--OG1-[HG1] |==|  0.46711
USER: genes 16 Torsion [N]-CA--C-[N] |==|  0.97280
USER: genes 17 Torsion [C]-N--CA-[C] |==|  0.48458
USER: genes 18 Torsion [N]-CA--C-[O] |==|  0.19300
USER: genes 19 Torsion [CB]-CA--N-[C] |==|  0.51780
USER: genes 20 Torsion [N]-C--CA-[N] |==|  0.44094
USER: genes 21 Torsion [C]-CA--CB-[CG2] |==|  0.57816
USER: genes 22 Torsion [CA]-CB--OG1-[HG1] |==|  0.49128
USER: genes 23 Torsion [C]-CA--N-[C] |==|  0.63492
USER: genes 24 Torsion [N]-C--CA-[N] |==|  0.44983
USER: genes 25 Torsion [C]-CA--N-[C] |==|  0.68470
USER: genes 26 Torsion [N]-C--CA-[N] |==|  0.28418
USER: genes 27 Torsion [C]-CA--N-[H1] |==|  0.56376
USER: genes 28 Torsion [C]-CA--CB-[CG] |==|  0.45908
USER: genes 29 Torsion [CA]-CB--CG-[CD] |==|  0.46774
USER: genes 30 Torsion [CB]-CG--CD-[NE] |==|  0.81615
USER: genes 31 Torsion [CG]-CD--NE-[HE] |==|  0.83094
ROOT
ATOM      1  CA  LYS Q   4      13.877  13.216  16.882  1.00 15.20 LIG 0.18  C 
ENDROOT
BRANCH 1 2
ATOM      2  CB  LYS Q   4      12.376  13.393  16.666  1.00 14.69 LIG 0.04  C 
BRANCH 2 3
ATOM      3  CG  LYS Q   4      11.694  14.112  17.792  1.00 16.14 LIG 0.00  C 
BRANCH 3 4
ATOM      4  CD  LYS Q   4      11.135  15.430  17.336  1.00 18.10 LIG 0.03  C 
BRANCH 4 5
ATOM      5  CE  LYS Q   4      10.458  16.116  18.501  1.00 22.11 LIG 0.23  C 
BRANCH 5 6
ATOM      6  NZ  LYS Q   4      10.542  17.595  18.374  1.00 25.79 LIG-0.08  N 
ATOM      7 HZ1  LYS Q   4       9.766  17.959  18.613  1.00 25.79 LIG 0.27  HD
ATOM      8 HZ2  LYS Q   4      11.189  17.903  18.904  1.00 25.79 LIG 0.27  HD
ATOM      9 HZ3  LYS Q   4      10.723  17.811  17.530  1.00 25.79 LIG 0.27  HD
ENDBRANCH 5 6
ENDBRANCH 4 5
ENDBRANCH 3 4
ENDBRANCH 2 3
ENDBRANCH 1 2
BRANCH 1 10
ATOM     10  C   LYS Q   4      14.183  13.314  18.379  1.00 15.70 LIG 0.24  C 
ATOM     11  N   GLN Q   5      14.855  14.390  18.793  1.00 16.90 LIG-0.35  N 
ATOM     12 H    GLN Q   5      15.025  15.075  18.302  1.00 16.90 LIG 0.16  HD
ATOM     13 O    LYS Q   4      13.823  12.415  19.148  1.00 16.41 LIG-0.27  OA
BRANCH 11 14
ATOM     14  CA  GLN Q   5      15.367  14.478  20.166  1.00 18.58 LIG 0.18  C 
BRANCH 14 15
ATOM     15  CB  GLN Q   5      14.224  14.633  21.176  1.00 18.36 LIG 0.04  C 
BRANCH 15 16
ATOM     16  CG  GLN Q   5      13.251  15.771  20.878  1.00 19.34 LIG 0.10  C 
BRANCH 16 17
ATOM     17  CD  GLN Q   5      13.841  17.155  21.039  1.00 21.85 LIG 0.21  C 
ATOM     18  NE2 GLN Q   5      12.989  18.177  20.949  1.00 24.33 LIG-0.37  N 
ATOM     19 21HE GLN Q   5      12.155  18.030  20.799  1.00 24.33 LIG 0.16  HD
ATOM     20 22HE GLN Q   5      13.273  18.984  21.043  1.00 24.33 LIG 0.16  HD
ATOM     21 OE1  GLN Q   5      15.040  17.309  21.252  1.00 24.78 LIG-0.27  OA
ENDBRANCH 16 17
ENDBRANCH 15 16
ENDBRANCH 14 15
BRANCH 14 22
ATOM     22  C   GLN Q   5      16.236  13.286  20.534  1.00 20.15 LIG 0.24  C 
ATOM     23 O    GLN Q   5      17.467  13.377  20.471  1.00 22.37 LIG-0.27  OA
ATOM     24  N   THR Q   6      15.632  12.170  20.921  1.00 20.72 LIG-0.34  N 
ATOM     25 H    THR Q   6      14.789  12.096  21.073  1.00 20.72 LIG 0.16  HD
BRANCH 24 26
ATOM     26  CA  THR Q   6      16.413  10.945  21.120  1.00 22.01 LIG 0.20  C 
BRANCH 26 27
ATOM     27  CB  THR Q   6      17.380  11.040  22.316  1.00 21.09 LIG 0.15  C 
ATOM     28  CG2 THR Q   6      18.835  11.056  21.850  1.00 22.53 LIG 0.04  C 
BRANCH 27 29
ATOM     29 OG1  THR Q   6      17.103  12.229  23.064  1.00 19.47 LIG-0.39  OA
ATOM     30 HG1  THR Q   6      17.512  12.201  23.797  1.00 19.47 LIG 0.21  HD
ENDBRANCH 27 29
ENDBRANCH 26 27
BRANCH 26 31
ATOM     31  C   THR Q   6      15.521   9.716  21.267  1.00 23.85 LIG 0.24  C 
ATOM     32  N   ALA Q   7      14.212   9.935  21.401  1.00 25.35 LIG-0.35  N 
ATOM     33 H    ALA Q   7      13.865  10.721  21.430  1.00 25.35 LIG 0.16  HD
ATOM     34 O    THR Q   6      16.018   8.584  21.233  1.00 25.66 LIG-0.27  OA
BRANCH 32 35
ATOM     35  CA  ALA Q   7      13.228   8.847  21.511  1.00 27.02 LIG 0.16  C 
ATOM     36  CB  ALA Q   7      13.653   7.856  22.591  1.00 27.03 LIG 0.04  C 
BRANCH 35 37
ATOM     37  C   ALA Q   7      11.813   9.367  21.791  1.00 28.43 LIG 0.22  C 
ATOM     38 O    ALA Q   7      11.180   9.990  20.925  1.00 30.23 LIG-0.29  OA
ENDBRANCH 35 37
ENDBRANCH 32 35
ENDBRANCH 26 31
ENDBRANCH 24 26
ENDBRANCH 14 22
ENDBRANCH 11 14
ENDBRANCH 1 10
BRANCH 1 39
ATOM     39  N   LYS Q   4      14.331  11.956  16.297  1.00 13.85 LIG-0.35  N 
ATOM     40 H    LYS Q   4      13.732  11.536  15.845  1.00 13.85 LIG 0.16  HD
ATOM     41  C   THR Q   3      15.580  11.519  16.468  1.00 13.84 LIG 0.24  C 
ATOM     42 O    THR Q   3      16.447  12.157  17.077  1.00 14.15 LIG-0.27  OA
BRANCH 41 43
ATOM     43  CA  THR Q   3      15.891  10.151  15.900  1.00 13.21 LIG 0.20  C 
BRANCH 43 44
ATOM     44  CB  THR Q   3      15.279   9.087  16.844  1.00 13.38 LIG 0.15  C 
ATOM     45  CG2 THR Q   3      16.039   7.783  16.806  1.00 13.96 LIG 0.04  C 
BRANCH 44 46
ATOM     46 OG1  THR Q   3      15.195   9.588  18.186  1.00 13.85 LIG-0.39  OA
ATOM     47 HG1  THR Q   3      14.823   9.016  18.676  1.00 13.85 LIG 0.21  HD
ENDBRANCH 44 46
ENDBRANCH 43 44
BRANCH 43 48
ATOM     48  N   THR Q   3      17.333   9.994  15.691  1.00 13.00 LIG-0.34  N 
ATOM     49  C   ARG Q   2      17.834   9.535  14.548  1.00 13.30 LIG 0.24  C 
ATOM     50 O    ARG Q   2      17.144   9.075  13.648  1.00 13.04 LIG-0.27  OA
ATOM     51 H    THR Q   3      17.814  10.223  16.366  1.00 13.00 LIG 0.16  HD
BRANCH 49 52
ATOM     52  CA  ARG Q   2      19.338   9.581  14.410  1.00 13.85 LIG 0.18  C 
BRANCH 52 53
ATOM     53  N   ARG Q   2      19.751   8.684  13.342  1.00 14.89 LIG-0.35  N 
ATOM     54 H    ARG Q   2      19.489   8.933  12.561  1.00 14.89 LIG 0.16  HD
ATOM     55  C   ALA Q   1      20.464   7.588  13.551  1.00 17.12 LIG 0.25  C 
ATOM     56 O    ALA Q   1      20.848   7.226  14.669  1.00 19.52 LIG-0.27  OA
BRANCH 55 57
ATOM     57  CA  ALA Q   1      20.814   6.790  12.302  1.00 17.93 LIG 0.27  C 
ATOM     58  CB  ALA Q   1      20.547   5.293  12.511  1.00 18.07 LIG 0.05  C 
BRANCH 57 59
ATOM     59  N   ALA Q   1      22.230   7.030  11.890  1.00 19.51 LIG-0.07  N 
ATOM     60 H1   ALA Q   1      22.323   6.847  11.024  1.00 19.51 LIG 0.28  HD
ATOM     61 H3   ALA Q   1      22.770   6.505  12.364  1.00 19.51 LIG 0.28  HD
ATOM     62 H2   ALA Q   1      22.441   7.882  12.037  1.00 19.51 LIG 0.28  HD
ENDBRANCH 57 59
ENDBRANCH 55 57
ENDBRANCH 52 53
BRANCH 52 63
ATOM     63  CB  ARG Q   2      19.773  11.019  14.104  1.00 13.50 LIG 0.04  C 
BRANCH 63 64
ATOM     64  CG  ARG Q   2      21.278  11.281  14.289  1.00 14.15 LIG 0.02  C 
BRANCH 64 65
ATOM     65  CD  ARG Q   2      21.667  12.627  13.699  1.00 12.93 LIG 0.14  C 
BRANCH 65 66
ATOM     66  NE  ARG Q   2      21.505  12.616  12.247  1.00 12.58 LIG-0.23  N 
ATOM     67 HE   ARG Q   2      21.974  12.048  11.803  1.00 12.58 LIG 0.18  HD
ATOM     68  CZ  ARG Q   2      20.689  13.415  11.547  1.00 11.80 LIG 0.67  C 
ATOM     69  NH2 ARG Q   2      20.611  13.271  10.235  1.00 12.39 LIG-0.23  N 
ATOM     70  NH1 ARG Q   2      19.965  14.358  12.136  1.00 13.65 LIG-0.23  N 
ATOM     71 2HH2 ARG Q   2      20.089  13.780   9.777  1.00 12.39 LIG 0.17  HD
ATOM     72 1HH2 ARG Q   2      21.081  12.669   9.839  1.00 12.39 LIG 0.17  HD
ATOM     73 2HH1 ARG Q   2      19.448  14.859  11.666  1.00 13.65 LIG 0.17  HD
ATOM     74 1HH1 ARG Q   2      20.014  14.467  12.988  1.00 13.65 LIG 0.17  HD
ENDBRANCH 65 66
ENDBRANCH 64 65
ENDBRANCH 63 64
ENDBRANCH 52 63
ENDBRANCH 49 52
ENDBRANCH 43 48
ENDBRANCH 41 43
ENDBRANCH 1 39
TORSDOF 30
ENDMDL
