MODEL 1
USER: ADFR SOLUTION from run 185
USER: SCORE 13.887506 LL:  -2.602 LR: -11.492 RR:   0.000 FEB:  -7.614
USER: RMSD 1.046956
USER: SEED 184
USER: STATUS 1 or 2 clusters left
USER: GENES 15
USER: genes 0 Translation |==|  0.47748 0.47226 0.45980
USER: genes 1 Rotation |==|  0.50779 0.52508 0.46555 0.99812
USER: genes 2 Torsion [C]-N--CA-[C] |==|  0.80183
USER: genes 3 Torsion [N]-CA--C-[N] |==|  0.38273
USER: genes 4 Torsion [C]-N--CA-[CB] |==|  0.28822
USER: genes 5 Torsion [N]-CA--CB-[CG1] |==|  0.82238
USER: genes 6 Torsion [N]-CA--C-[OXT] |==|  0.45071
USER: genes 7 Torsion [N]-CA--CB-[CG] |==|  0.56646
USER: genes 8 Torsion [CA]-CB--CG-[CD1] |==|  0.78306
USER: genes 9 Torsion [N]-C--CA-[N] |==|  0.29808
USER: genes 10 Torsion [C]-CA--CB-[CG2] |==|  0.48079
USER: genes 11 Torsion [CA]-CB--OG1-[HG1] |==|  0.95604
USER: genes 12 Torsion [C]-CA--N-[C] |==|  0.72898
USER: genes 13 Torsion [N]-C--CA-[N] |==|  0.42134
USER: genes 14 Torsion [C]-CA--CB-[CG1] |==|  0.28945
ROOT
ATOM      1  C   THR B 103     -25.774   8.493  -1.544  1.00  4.93 LIG 0.24  C 
ATOM      2 O    THR B 103     -24.603   8.113  -1.518  1.00  4.94 LIG-0.27  OA
ATOM      3  N   LEU B 104     -26.544   8.527  -0.463  1.00  4.18 LIG-0.35  N 
ATOM      4 H    LEU B 104     -27.359   8.802  -0.458  1.00  4.18 LIG 0.16  HD
ENDROOT
BRANCH 3 5
ATOM      5  CA  LEU B 104     -26.045   8.087   0.829  1.00  5.70 LIG 0.18  C 
BRANCH 5 6
ATOM      6  C   LEU B 104     -25.887   6.582   0.841  1.00  6.53 LIG 0.24  C 
ATOM      7 O    LEU B 104     -26.752   5.855   0.347  1.00  8.21 LIG-0.27  OA
ATOM      8  N   VAL B 105     -24.787   6.113   1.413  1.00  6.80 LIG-0.34  N 
ATOM      9 H    VAL B 105     -24.160   6.611   1.729  1.00  6.80 LIG 0.16  HD
BRANCH 8 10
ATOM     10  CA  VAL B 105     -24.549   4.683   1.554  1.00  6.91 LIG 0.19  C 
BRANCH 10 11
ATOM     11  CB  VAL B 105     -23.525   4.165   0.529  1.00  6.78 LIG 0.01  C 
ATOM     12  CG1 VAL B 105     -24.054   4.321  -0.887  1.00  6.96 LIG 0.01  C 
ATOM     13  CG2 VAL B 105     -22.201   4.909   0.680  1.00  7.27 LIG 0.01  C 
ENDBRANCH 10 11
BRANCH 10 14
ATOM     14  C   VAL B 105     -24.047   4.380   2.961  1.00  6.40 LIG 0.20  C 
ATOM     15 OXT  VAL B 105     -24.094   3.227   3.401  1.00  6.01 LIG-0.65  OA
ATOM     16 O    VAL B 105     -23.578   5.284   3.675  1.00  5.94 LIG-0.65  OA
ENDBRANCH 10 14
ENDBRANCH 8 10
ENDBRANCH 5 6
BRANCH 5 17
ATOM     17  CB  LEU B 104     -26.996   8.508   1.954  1.00  7.33 LIG 0.04  C 
BRANCH 17 18
ATOM     18  CG  LEU B 104     -26.396   8.641   3.359  1.00 10.28 LIG-0.02  C 
ATOM     19  CD2 LEU B 104     -25.078   9.415   3.306  1.00 13.23 LIG 0.01  C 
ATOM     20  CD1 LEU B 104     -26.201   7.281   4.033  1.00 11.40 LIG 0.01  C 
ENDBRANCH 17 18
ENDBRANCH 5 17
ENDBRANCH 3 5
BRANCH 1 21
ATOM     21  CA  THR B 103     -26.397   8.976  -2.842  1.00  5.29 LIG 0.20  C 
BRANCH 21 22
ATOM     22  CB  THR B 103     -26.109   7.943  -3.944  1.00  5.94 LIG 0.15  C 
ATOM     23  CG2 THR B 103     -26.859   8.296  -5.233  1.00  6.62 LIG 0.04  C 
BRANCH 22 24
ATOM     24 OG1  THR B 103     -24.698   7.892  -4.195  1.00  6.95 LIG-0.39  OA
ATOM     25 HG1  THR B 103     -24.329   8.570  -3.862  1.00  6.95 LIG 0.21  HD
ENDBRANCH 22 24
ENDBRANCH 21 22
BRANCH 21 26
ATOM     26  N   THR B 103     -25.826  10.273  -3.188  1.00  6.31 LIG-0.34  N 
ATOM     27  C   VAL B 102     -26.440  11.415  -2.902  1.00  9.59 LIG 0.26  C 
ATOM     28 O    VAL B 102     -27.530  11.457  -2.340  1.00 11.78 LIG-0.27  OA
ATOM     29 H    THR B 103     -25.067  10.228  -3.590  1.00  6.31 LIG 0.16  HD
BRANCH 27 30
ATOM     30  CA  VAL B 102     -25.724  12.698  -3.324  1.00 12.05 LIG 0.40  C 
ATOM     31  N   VAL B 102     -26.681  13.769  -3.585  1.00 12.38 LIG 0.61  N 
BRANCH 30 32
ATOM     32  CB  VAL B 102     -24.703  13.112  -2.241  1.00 15.16 LIG 0.03  C 
ATOM     33  CG1 VAL B 102     -23.294  12.780  -2.695  1.00 16.31 LIG 0.01  C 
ATOM     34  CG2 VAL B 102     -24.816  14.594  -1.944  1.00 16.97 LIG 0.01  C 
ENDBRANCH 30 32
ENDBRANCH 27 30
ENDBRANCH 21 26
ENDBRANCH 1 21
TORSDOF 13
ENDMDL
MODEL 2
USER: ADFR SOLUTION from run 125
USER: SCORE 13.271929 LL:  -2.833 LR: -10.980 RR:   0.000 FEB:  -7.102
USER: RMSD 2.059635
USER: SEED 124
USER: STATUS no improvement in best in 3 clusters for 5 generations
USER: GENES 15
USER: genes 0 Translation |==|  0.48048 0.46191 0.41287
USER: genes 1 Rotation |==|  0.47946 0.55245 0.46879 0.99584
USER: genes 2 Torsion [C]-N--CA-[C] |==|  0.78909
USER: genes 3 Torsion [N]-CA--C-[N] |==|  0.45172
USER: genes 4 Torsion [C]-N--CA-[CB] |==|  0.25845
USER: genes 5 Torsion [N]-CA--CB-[CG1] |==|  0.80301
USER: genes 6 Torsion [N]-CA--C-[OXT] |==|  0.46863
USER: genes 7 Torsion [N]-CA--CB-[CG] |==|  0.49556
USER: genes 8 Torsion [CA]-CB--CG-[CD1] |==|  0.36084
USER: genes 9 Torsion [N]-C--CA-[N] |==|  0.32222
USER: genes 10 Torsion [C]-CA--CB-[CG2] |==|  0.12306
USER: genes 11 Torsion [CA]-CB--OG1-[HG1] |==|  0.05947
USER: genes 12 Torsion [C]-CA--N-[C] |==|  0.54610
USER: genes 13 Torsion [N]-C--CA-[N] |==|  0.87419
USER: genes 14 Torsion [C]-CA--CB-[CG1] |==|  0.06430
ROOT
ATOM      1  C   THR B 103     -25.731   8.291  -2.388  1.00  4.93 LIG 0.24  C 
ATOM      2 O    THR B 103     -24.555   7.932  -2.461  1.00  4.94 LIG-0.27  OA
ATOM      3  N   LEU B 104     -26.372   8.429  -1.234  1.00  4.18 LIG-0.35  N 
ATOM      4 H    LEU B 104     -27.187   8.691  -1.161  1.00  4.18 LIG 0.16  HD
ENDROOT
BRANCH 3 5
ATOM      5  CA  LEU B 104     -25.715   8.134   0.029  1.00  5.70 LIG 0.18  C 
BRANCH 5 6
ATOM      6  C   LEU B 104     -25.619   6.636   0.229  1.00  6.53 LIG 0.24  C 
ATOM      7 O    LEU B 104     -26.330   5.869  -0.424  1.00  8.21 LIG-0.27  OA
ATOM      8  N   VAL B 105     -24.748   6.222   1.137  1.00  6.80 LIG-0.34  N 
ATOM      9 H    VAL B 105     -24.222   6.745   1.572  1.00  6.80 LIG 0.16  HD
BRANCH 8 10
ATOM     10  CA  VAL B 105     -24.611   4.812   1.476  1.00  6.91 LIG 0.19  C 
BRANCH 10 11
ATOM     11  CB  VAL B 105     -23.514   4.123   0.644  1.00  6.78 LIG 0.01  C 
ATOM     12  CG1 VAL B 105     -23.953   3.969  -0.802  1.00  6.96 LIG 0.01  C 
ATOM     13  CG2 VAL B 105     -22.214   4.919   0.717  1.00  7.27 LIG 0.01  C 
ENDBRANCH 10 11
BRANCH 10 14
ATOM     14  C   VAL B 105     -24.280   4.668   2.957  1.00  6.40 LIG 0.20  C 
ATOM     15 OXT  VAL B 105     -24.327   3.558   3.498  1.00  6.01 LIG-0.65  OA
ATOM     16 O    VAL B 105     -23.953   5.659   3.633  1.00  5.94 LIG-0.65  OA
ENDBRANCH 10 14
ENDBRANCH 8 10
ENDBRANCH 5 6
BRANCH 5 17
ATOM     17  CB  LEU B 104     -26.481   8.756   1.201  1.00  7.33 LIG 0.04  C 
BRANCH 17 18
ATOM     18  CG  LEU B 104     -25.928   8.499   2.608  1.00 10.28 LIG-0.02  C 
ATOM     19  CD2 LEU B 104     -26.804   7.487   3.349  1.00 13.23 LIG 0.01  C 
ATOM     20  CD1 LEU B 104     -25.787   9.790   3.416  1.00 11.40 LIG 0.01  C 
ENDBRANCH 17 18
ENDBRANCH 5 17
ENDBRANCH 3 5
BRANCH 1 21
ATOM     21  CA  THR B 103     -26.512   8.626  -3.647  1.00  5.29 LIG 0.20  C 
BRANCH 21 22
ATOM     22  CB  THR B 103     -26.509   7.399  -4.574  1.00  5.94 LIG 0.15  C 
ATOM     23  CG2 THR B 103     -26.788   6.116  -3.783  1.00  6.62 LIG 0.04  C 
BRANCH 22 24
ATOM     24 OG1  THR B 103     -27.496   7.571  -5.598  1.00  6.95 LIG-0.39  OA
ATOM     25 HG1  THR B 103     -27.675   8.387  -5.683  1.00  6.95 LIG 0.21  HD
ENDBRANCH 22 24
ENDBRANCH 21 22
BRANCH 21 26
ATOM     26  N   THR B 103     -25.888   9.770  -4.303  1.00  6.31 LIG-0.34  N 
ATOM     27  C   VAL B 102     -26.517  10.483  -5.229  1.00  9.59 LIG 0.26  C 
ATOM     28 O    VAL B 102     -27.656  10.225  -5.604  1.00 11.78 LIG-0.27  OA
ATOM     29 H    THR B 103     -25.086   9.934  -4.037  1.00  6.31 LIG 0.16  HD
BRANCH 27 30
ATOM     30  CA  VAL B 102     -25.740  11.655  -5.830  1.00 12.05 LIG 0.40  C 
ATOM     31  N   VAL B 102     -25.074  12.431  -4.787  1.00 12.38 LIG 0.61  N 
BRANCH 30 32
ATOM     32  CB  VAL B 102     -24.727  11.136  -6.873  1.00 15.16 LIG 0.03  C 
ATOM     33  CG1 VAL B 102     -25.166   9.784  -7.402  1.00 16.31 LIG 0.01  C 
ATOM     34  CG2 VAL B 102     -24.592  12.121  -8.018  1.00 16.97 LIG 0.01  C 
ENDBRANCH 30 32
ENDBRANCH 27 30
ENDBRANCH 21 26
ENDBRANCH 1 21
TORSDOF 13
ENDMDL
MODEL 3
USER: ADFR SOLUTION from run 168
USER: SCORE 12.852528 LL:  -2.664 LR: -10.806 RR:   0.000 FEB:  -6.928
USER: RMSD 3.765844
USER: SEED 167
USER: STATUS 1 or 2 clusters left
USER: GENES 15
USER: genes 0 Translation |==|  0.50014 0.47309 0.43767
USER: genes 1 Rotation |==|  0.48817 0.50423 0.41426 0.99243
USER: genes 2 Torsion [C]-N--CA-[C] |==|  0.82605
USER: genes 3 Torsion [N]-CA--C-[N] |==|  0.38888
USER: genes 4 Torsion [C]-N--CA-[CB] |==|  0.26361
USER: genes 5 Torsion [N]-CA--CB-[CG1] |==|  0.82649
USER: genes 6 Torsion [N]-CA--C-[OXT] |==|  0.47591
USER: genes 7 Torsion [N]-CA--CB-[CG] |==|  0.50011
USER: genes 8 Torsion [CA]-CB--CG-[CD1] |==|  0.15478
USER: genes 9 Torsion [N]-C--CA-[N] |==|  0.82520
USER: genes 10 Torsion [C]-CA--CB-[CG2] |==|  0.09006
USER: genes 11 Torsion [CA]-CB--OG1-[HG1] |==|  0.82579
USER: genes 12 Torsion [C]-CA--N-[C] |==|  0.60685
USER: genes 13 Torsion [N]-C--CA-[N] |==|  0.40006
USER: genes 14 Torsion [C]-CA--CB-[CG1] |==|  0.04992
ROOT
ATOM      1  C   THR B 103     -25.451   8.509  -1.942  1.00  4.93 LIG 0.24  C 
ATOM      2 O    THR B 103     -24.387   7.909  -1.787  1.00  4.94 LIG-0.27  OA
ATOM      3  N   LEU B 104     -26.265   8.804  -0.935  1.00  4.18 LIG-0.35  N 
ATOM      4 H    LEU B 104     -27.004   9.234  -1.021  1.00  4.18 LIG 0.16  HD
ENDROOT
BRANCH 3 5
ATOM      5  CA  LEU B 104     -25.949   8.406   0.427  1.00  5.70 LIG 0.18  C 
BRANCH 5 6
ATOM      6  C   LEU B 104     -25.895   6.897   0.529  1.00  6.53 LIG 0.24  C 
ATOM      7 O    LEU B 104     -26.720   6.197  -0.063  1.00  8.21 LIG-0.27  OA
ATOM      8  N   VAL B 105     -24.930   6.396   1.286  1.00  6.80 LIG-0.34  N 
ATOM      9 H    VAL B 105     -24.328   6.871   1.674  1.00  6.80 LIG 0.16  HD
BRANCH 8 10
ATOM     10  CA  VAL B 105     -24.813   4.963   1.525  1.00  6.91 LIG 0.19  C 
BRANCH 10 11
ATOM     11  CB  VAL B 105     -23.834   4.293   0.544  1.00  6.78 LIG 0.01  C 
ATOM     12  CG1 VAL B 105     -24.328   4.429  -0.887  1.00  6.96 LIG 0.01  C 
ATOM     13  CG2 VAL B 105     -22.443   4.909   0.680  1.00  7.27 LIG 0.01  C 
ENDBRANCH 10 11
BRANCH 10 14
ATOM     14  C   VAL B 105     -24.340   4.716   2.952  1.00  6.40 LIG 0.20  C 
ATOM     15 OXT  VAL B 105     -24.328   3.569   3.412  1.00  6.01 LIG-0.65  OA
ATOM     16 O    VAL B 105     -23.953   5.659   3.665  1.00  5.94 LIG-0.65  OA
ENDBRANCH 10 14
ENDBRANCH 8 10
ENDBRANCH 5 6
BRANCH 5 17
ATOM     17  CB  LEU B 104     -26.994   8.946   1.409  1.00  7.33 LIG 0.04  C 
BRANCH 17 18
ATOM     18  CG  LEU B 104     -26.794   8.607   2.892  1.00 10.28 LIG-0.02  C 
ATOM     19  CD2 LEU B 104     -27.914   9.220   3.734  1.00 13.23 LIG 0.01  C 
ATOM     20  CD1 LEU B 104     -25.423   9.051   3.404  1.00 11.40 LIG 0.01  C 
ENDBRANCH 17 18
ENDBRANCH 5 17
ENDBRANCH 3 5
BRANCH 1 21
ATOM     21  CA  THR B 103     -25.878   8.973  -3.323  1.00  5.29 LIG 0.20  C 
BRANCH 21 22
ATOM     22  CB  THR B 103     -26.061  10.500  -3.300  1.00  5.94 LIG 0.15  C 
ATOM     23  CG2 THR B 103     -25.078  11.152  -2.320  1.00  6.62 LIG 0.04  C 
BRANCH 22 24
ATOM     24 OG1  THR B 103     -25.863  11.026  -4.618  1.00  6.95 LIG-0.39  OA
ATOM     25 HG1  THR B 103     -25.074  10.873  -4.866  1.00  6.95 LIG 0.21  HD
ENDBRANCH 22 24
ENDBRANCH 21 22
BRANCH 21 26
ATOM     26  N   THR B 103     -27.128   8.310  -3.681  1.00  6.31 LIG-0.34  N 
ATOM     27  C   VAL B 102     -27.375   7.885  -4.914  1.00  9.59 LIG 0.26  C 
ATOM     28 O    VAL B 102     -26.579   8.031  -5.836  1.00 11.78 LIG-0.27  OA
ATOM     29 H    THR B 103     -27.680   8.223  -3.027  1.00  6.31 LIG 0.16  HD
BRANCH 27 30
ATOM     30  CA  VAL B 102     -28.726   7.207  -5.143  1.00 12.05 LIG 0.40  C 
ATOM     31  N   VAL B 102     -29.258   7.534  -6.463  1.00 12.38 LIG 0.61  N 
BRANCH 30 32
ATOM     32  CB  VAL B 102     -28.587   5.680  -4.959  1.00 15.16 LIG 0.03  C 
ATOM     33  CG1 VAL B 102     -27.317   5.358  -4.195  1.00 16.31 LIG 0.01  C 
ATOM     34  CG2 VAL B 102     -29.789   5.123  -4.222  1.00 16.97 LIG 0.01  C 
ENDBRANCH 30 32
ENDBRANCH 27 30
ENDBRANCH 21 26
ENDBRANCH 1 21
TORSDOF 13
ENDMDL
MODEL 4
USER: ADFR SOLUTION from run 144
USER: SCORE 11.746961 LL:  -2.519 LR:  -9.726 RR:   0.000 FEB:  -5.848
USER: RMSD 2.385774
USER: SEED 143
USER: STATUS no improvement in best in 3 clusters for 5 generations
USER: GENES 15
USER: genes 0 Translation |==|  0.50584 0.44376 0.50966
USER: genes 1 Rotation |==|  0.44915 0.45736 0.76273 0.92020
USER: genes 2 Torsion [C]-N--CA-[C] |==|  0.63894
USER: genes 3 Torsion [N]-CA--C-[N] |==|  0.86518
USER: genes 4 Torsion [C]-N--CA-[CB] |==|  0.48713
USER: genes 5 Torsion [N]-CA--CB-[CG1] |==|  0.19156
USER: genes 6 Torsion [N]-CA--C-[OXT] |==|  0.38652
USER: genes 7 Torsion [N]-CA--CB-[CG] |==|  0.54060
USER: genes 8 Torsion [CA]-CB--CG-[CD1] |==|  0.06017
USER: genes 9 Torsion [N]-C--CA-[N] |==|  0.43009
USER: genes 10 Torsion [C]-CA--CB-[CG2] |==|  0.17812
USER: genes 11 Torsion [CA]-CB--OG1-[HG1] |==|  0.64167
USER: genes 12 Torsion [C]-CA--N-[C] |==|  0.80341
USER: genes 13 Torsion [N]-C--CA-[N] |==|  0.40920
USER: genes 14 Torsion [C]-CA--CB-[CG1] |==|  0.53582
ROOT
ATOM      1  C   THR B 103     -25.370   7.937  -0.646  1.00  4.93 LIG 0.24  C 
ATOM      2 O    THR B 103     -24.703   8.942  -0.397  1.00  4.94 LIG-0.27  OA
ATOM      3  N   LEU B 104     -25.957   7.211   0.297  1.00  4.18 LIG-0.35  N 
ATOM      4 H    LEU B 104     -26.438   6.515   0.143  1.00  4.18 LIG 0.16  HD
ENDROOT
BRANCH 3 5
ATOM      5  CA  LEU B 104     -25.824   7.556   1.703  1.00  5.70 LIG 0.18  C 
BRANCH 5 6
ATOM      6  C   LEU B 104     -25.411   6.337   2.501  1.00  6.53 LIG 0.24  C 
ATOM      7 O    LEU B 104     -24.472   6.395   3.296  1.00  8.21 LIG-0.27  OA
ATOM      8  N   VAL B 105     -26.108   5.232   2.281  1.00  6.80 LIG-0.34  N 
ATOM      9 H    VAL B 105     -26.788   5.189   1.756  1.00  6.80 LIG 0.16  HD
BRANCH 8 10
ATOM     10  CA  VAL B 105     -25.768   3.973   2.930  1.00  6.91 LIG 0.19  C 
BRANCH 10 11
ATOM     11  CB  VAL B 105     -26.786   2.864   2.608  1.00  6.78 LIG 0.01  C 
ATOM     12  CG1 VAL B 105     -26.690   2.453   1.148  1.00  6.96 LIG 0.01  C 
ATOM     13  CG2 VAL B 105     -26.556   1.655   3.511  1.00  7.27 LIG 0.01  C 
ENDBRANCH 10 11
BRANCH 10 14
ATOM     14  C   VAL B 105     -24.381   3.523   2.486  1.00  6.40 LIG 0.20  C 
ATOM     15 OXT  VAL B 105     -23.595   3.034   3.305  1.00  6.01 LIG-0.65  OA
ATOM     16 O    VAL B 105     -24.029   3.632   1.298  1.00  5.94 LIG-0.65  OA
ENDBRANCH 10 14
ENDBRANCH 8 10
ENDBRANCH 5 6
BRANCH 5 17
ATOM     17  CB  LEU B 104     -27.141   8.106   2.258  1.00  7.33 LIG 0.04  C 
BRANCH 17 18
ATOM     18  CG  LEU B 104     -27.079   8.830   3.609  1.00 10.28 LIG-0.02  C 
ATOM     19  CD2 LEU B 104     -28.095   9.972   3.649  1.00 13.23 LIG 0.01  C 
ATOM     20  CD1 LEU B 104     -25.672   9.341   3.924  1.00 11.40 LIG 0.01  C 
ENDBRANCH 17 18
ENDBRANCH 5 17
ENDBRANCH 3 5
BRANCH 1 21
ATOM     21  CA  THR B 103     -25.576   7.487  -2.082  1.00  5.29 LIG 0.20  C 
BRANCH 21 22
ATOM     22  CB  THR B 103     -24.543   6.397  -2.412  1.00  5.94 LIG 0.15  C 
ATOM     23  CG2 THR B 103     -24.769   5.150  -1.549  1.00  6.62 LIG 0.04  C 
BRANCH 22 24
ATOM     24 OG1  THR B 103     -24.635   6.056  -3.802  1.00  6.95 LIG-0.39  OA
ATOM     25 HG1  THR B 103     -24.702   5.222  -3.882  1.00  6.95 LIG 0.21  HD
ENDBRANCH 22 24
ENDBRANCH 21 22
BRANCH 21 26
ATOM     26  N   THR B 103     -25.414   8.636  -2.967  1.00  6.31 LIG-0.34  N 
ATOM     27  C   VAL B 102     -26.305   9.618  -3.020  1.00  9.59 LIG 0.26  C 
ATOM     28 O    VAL B 102     -27.327   9.622  -2.342  1.00 11.78 LIG-0.27  OA
ATOM     29 H    THR B 103     -24.698   8.615  -3.443  1.00  6.31 LIG 0.16  HD
BRANCH 27 30
ATOM     30  CA  VAL B 102     -26.005  10.758  -3.993  1.00 12.05 LIG 0.40  C 
ATOM     31  N   VAL B 102     -27.237  11.313  -4.545  1.00 12.38 LIG 0.61  N 
BRANCH 30 32
ATOM     32  CB  VAL B 102     -25.169  11.847  -3.287  1.00 15.16 LIG 0.03  C 
ATOM     33  CG1 VAL B 102     -25.134  13.110  -4.127  1.00 16.31 LIG 0.01  C 
ATOM     34  CG2 VAL B 102     -25.744  12.153  -1.917  1.00 16.97 LIG 0.01  C 
ENDBRANCH 30 32
ENDBRANCH 27 30
ENDBRANCH 21 26
ENDBRANCH 1 21
TORSDOF 13
ENDMDL
