MODEL 1
USER: ADFR SOLUTION from run 9
USER: SCORE 19.435528 LL:  -4.289 LR: -17.842 RR:   0.000 FEB: -12.771
USER: RMSD 3.867837
USER: SEED 718081
USER: STATUS no improvement in best in 10 clusters for 5 generations
USER: GENES 19
USER: genes 0 Translation |==|  0.65176 0.49284 0.55791
USER: genes 1 Rotation |==|  0.47711 0.54733 0.56406 0.99308
USER: genes 2 Torsion [C]-N--CA-[CB] |==|  0.44286
USER: genes 3 Torsion [N]-CA--CB-[CG2] |==|  0.08789
USER: genes 4 Torsion [CA]-CB--CG1-[CD1] |==|  0.51339
USER: genes 5 Torsion [N]-CA--C-[N] |==|  0.93484
USER: genes 6 Torsion [C]-N--CA-[CB] |==|  0.16699
USER: genes 7 Torsion [N]-CA--C-[N] |==|  0.46047
USER: genes 8 Torsion [N]-CA--C-[O] |==|  0.16897
USER: genes 9 Torsion [N]-CA--CB-[CG] |==|  0.21887
USER: genes 10 Torsion [CA]-CB--CG-[ND1] |==|  0.71756
USER: genes 11 Torsion [N]-C--CA-[N] |==|  0.06841
USER: genes 12 Torsion [C]-CA--N-[C] |==|  0.75555
USER: genes 13 Torsion [N]-C--CA-[N] |==|  0.40309
USER: genes 14 Torsion [C]-CA--N-[H2] |==|  0.77789
USER: genes 15 Torsion [C]-CA--CB-[CG1] |==|  0.43207
USER: genes 16 Torsion [C]-CA--CB-[CG] |==|  0.37547
USER: genes 17 Torsion [CA]-CB--CG-[CD1] |==|  0.42537
USER: genes 18 Torsion [CE1]-CZ--OH-[HH] |==|  0.83573
ROOT
ATOM      1  C   TYR C   2      57.985  30.887  36.589  1.00 15.61 LIG 0.24  C 
ATOM      2 O    TYR C   2      58.700  31.311  35.668  1.00 14.40 LIG-0.27  OA
ATOM      3  N   ILE C   3      57.963  29.627  36.922  1.00 16.82 LIG-0.35  N 
ATOM      4 H    ILE C   3      57.636  29.329  37.660  1.00 16.82 LIG 0.16  HD
ENDROOT
BRANCH 3 5
ATOM      5  CA  ILE C   3      58.505  28.598  36.043  1.00 16.46 LIG 0.18  C 
BRANCH 5 6
ATOM      6  CB  ILE C   3      58.824  27.333  36.818  1.00 18.77 LIG 0.01  C 
ATOM      7  CG2 ILE C   3      57.839  27.201  37.971  1.00 19.99 LIG 0.01  C 
BRANCH 6 8
ATOM      8  CG1 ILE C   3      58.721  26.070  35.932  1.00 18.05 LIG 0.00  C 
ATOM      9  CD1 ILE C   3      58.919  24.754  36.689  1.00 24.94 LIG 0.01  C 
ENDBRANCH 6 8
ENDBRANCH 5 6
BRANCH 5 10
ATOM     10  C   ILE C   3      57.480  28.342  34.933  1.00 19.56 LIG 0.24  C 
ATOM     11  N   HIS C   4      56.218  28.643  35.166  1.00 25.52 LIG-0.35  N 
ATOM     12 H    HIS C   4      55.928  29.049  35.867  1.00 25.52 LIG 0.16  HD
ATOM     13 O    ILE C   3      57.828  27.876  33.846  1.00 16.93 LIG-0.27  OA
BRANCH 11 14
ATOM     14  CA  HIS C   4      55.184  28.275  34.176  1.00 31.94 LIG 0.18  C 
BRANCH 14 15
ATOM     15  C   HIS C   4      53.867  28.835  34.656  1.00 43.02 LIG 0.24  C 
ATOM     16 O    HIS C   4      53.809  29.158  35.859  1.00 47.49 LIG-0.27  OA
ATOM     17  N   PRO C   5      52.817  28.878  33.755  1.00 55.18 LIG-0.34  N 
ATOM     18  CA  PRO C   5      51.432  29.477  33.901  1.00 55.75 LIG 0.17  C 
ATOM     19  CD  PRO C   5      52.852  27.975  32.574  1.00 48.44 LIG 0.13  C 
ATOM     20  CB  PRO C   5      50.818  29.275  32.512  1.00 55.43 LIG 0.04  C 
ATOM     21  CG  PRO C   5      51.423  27.990  32.032  1.00 51.63 LIG 0.02  C 
BRANCH 18 22
ATOM     22  C   PRO C   5      50.511  28.793  34.900  1.00 57.38 LIG 0.22  C 
ATOM     23 O    PRO C   5      50.831  28.736  36.091  1.00 61.90 LIG-0.29  OA
ENDBRANCH 18 22
ENDBRANCH 14 15
BRANCH 14 24
ATOM     24  CB  HIS C   4      55.132  26.731  33.944  1.00 32.76 LIG 0.10  C 
BRANCH 24 25
ATOM     25  CG  HIS C   4      54.410  25.949  35.005  1.00 32.77 LIG 0.06  A 
ATOM     26 ND1  HIS C   4      55.077  25.243  35.990  1.00 34.96 LIG-0.24  NA
ATOM     27  CE1 HIS C   4      54.198  24.668  36.797  1.00 36.21 LIG 0.23  A 
ATOM     28 NE2  HIS C   4      52.979  24.967  36.366  1.00 34.31 LIG-0.25  NA
ATOM     29  CD2 HIS C   4      53.084  25.765  35.243  1.00 30.94 LIG 0.14  A 
ENDBRANCH 24 25
ENDBRANCH 14 24
ENDBRANCH 11 14
ENDBRANCH 5 10
ENDBRANCH 3 5
BRANCH 1 30
ATOM     30  CA  TYR C   2      57.159  31.799  37.446  1.00 15.99 LIG 0.18  C 
BRANCH 30 31
ATOM     31  N   TYR C   2      56.905  31.330  38.795  1.00 12.71 LIG-0.35  N 
ATOM     32  C   VAL C   1      55.892  30.568  39.105  1.00 12.74 LIG 0.25  C 
ATOM     33 O    VAL C   1      55.118  30.139  38.273  1.00 11.92 LIG-0.27  OA
ATOM     34 H    TYR C   2      57.484  31.600  39.370  1.00 12.71 LIG 0.16  HD
BRANCH 32 35
ATOM     35  CA  VAL C   1      55.684  30.293  40.602  1.00 14.22 LIG 0.28  C 
BRANCH 35 36
ATOM     36  N   VAL C   1      54.209  30.210  40.863  1.00 13.26 LIG-0.07  N 
ATOM     37 H1   VAL C   1      54.068  29.777  41.628  1.00 13.26 LIG 0.28  HD
ATOM     38 H2   VAL C   1      53.871  31.031  40.920  1.00 13.26 LIG 0.28  HD
ATOM     39 H3   VAL C   1      53.814  29.772  40.197  1.00 13.26 LIG 0.28  HD
ENDBRANCH 35 36
BRANCH 35 40
ATOM     40  CB  VAL C   1      56.456  29.071  41.148  1.00 17.02 LIG 0.02  C 
ATOM     41  CG1 VAL C   1      56.713  29.190  42.697  1.00 17.35 LIG 0.01  C 
ATOM     42  CG2 VAL C   1      55.723  27.830  40.876  1.00 19.35 LIG 0.01  C 
ENDBRANCH 35 40
ENDBRANCH 32 35
ENDBRANCH 30 31
BRANCH 30 43
ATOM     43  CB  TYR C   2      57.736  33.255  37.543  1.00 16.65 LIG 0.07  C 
BRANCH 43 44
ATOM     44  CG  TYR C   2      56.692  34.344  37.385  1.00 19.66 LIG-0.06  A 
ATOM     45  CD1 TYR C   2      56.834  35.577  37.937  1.00 23.16 LIG 0.01  A 
ATOM     46  CE1 TYR C   2      55.840  36.596  37.846  1.00 26.66 LIG 0.04  A 
ATOM     47  CZ  TYR C   2      54.687  36.365  37.206  1.00 21.30 LIG 0.07  A 
ATOM     48  CE2 TYR C   2      54.531  35.147  36.643  1.00 23.08 LIG 0.04  A 
ATOM     49  CD2 TYR C   2      55.495  34.120  36.737  1.00 20.76 LIG 0.01  A 
BRANCH 47 50
ATOM     50 OH   TYR C   2      53.691  37.408  37.104  1.00 23.41 LIG-0.36  OA
ATOM     51 HH   TYR C   2      53.458  37.650  37.875  1.00 23.41 LIG 0.22  HD
ENDBRANCH 47 50
ENDBRANCH 43 44
ENDBRANCH 30 43
ENDBRANCH 1 30
TORSDOF 17
ENDMDL
MODEL 2
USER: ADFR SOLUTION from run 179
USER: SCORE 18.503180 LL:  -4.237 LR: -17.418 RR:   0.000 FEB: -12.347
USER: RMSD 4.090916
USER: SEED 178
USER: STATUS no improvement in best in 14 clusters for 5 generations
USER: GENES 19
USER: genes 0 Translation |==|  0.62903 0.47779 0.55307
USER: genes 1 Rotation |==|  0.53973 0.45233 0.46940 0.99519
USER: genes 2 Torsion [C]-N--CA-[CB] |==|  0.33161
USER: genes 3 Torsion [N]-CA--CB-[CG2] |==|  0.56978
USER: genes 4 Torsion [CA]-CB--CG1-[CD1] |==|  0.51179
USER: genes 5 Torsion [N]-CA--C-[N] |==|  0.90445
USER: genes 6 Torsion [C]-N--CA-[CB] |==|  0.45388
USER: genes 7 Torsion [N]-CA--C-[N] |==|  0.81929
USER: genes 8 Torsion [N]-CA--C-[O] |==|  0.21486
USER: genes 9 Torsion [N]-CA--CB-[CG] |==|  0.36158
USER: genes 10 Torsion [CA]-CB--CG-[ND1] |==|  0.16451
USER: genes 11 Torsion [N]-C--CA-[N] |==|  0.16818
USER: genes 12 Torsion [C]-CA--N-[C] |==|  0.77401
USER: genes 13 Torsion [N]-C--CA-[N] |==|  0.37829
USER: genes 14 Torsion [C]-CA--N-[H2] |==|  0.77979
USER: genes 15 Torsion [C]-CA--CB-[CG1] |==|  0.10084
USER: genes 16 Torsion [C]-CA--CB-[CG] |==|  0.38808
USER: genes 17 Torsion [CA]-CB--CG-[CD1] |==|  0.39068
USER: genes 18 Torsion [CE1]-CZ--OH-[HH] |==|  0.86183
ROOT
ATOM      1  C   TYR C   2      57.644  30.560  36.477  1.00 15.61 LIG 0.24  C 
ATOM      2 O    TYR C   2      58.758  30.811  35.993  1.00 14.40 LIG-0.27  OA
ATOM      3  N   ILE C   3      57.094  29.383  36.370  1.00 16.82 LIG-0.35  N 
ATOM      4 H    ILE C   3      56.427  29.118  36.843  1.00 16.82 LIG 0.16  HD
ENDROOT
BRANCH 3 5
ATOM      5  CA  ILE C   3      57.582  28.399  35.411  1.00 16.46 LIG 0.18  C 
BRANCH 5 6
ATOM      6  CB  ILE C   3      58.057  27.142  36.116  1.00 18.77 LIG 0.01  C 
ATOM      7  CG2 ILE C   3      59.084  26.443  35.238  1.00 19.99 LIG 0.01  C 
BRANCH 6 8
ATOM      8  CG1 ILE C   3      58.706  27.456  37.484  1.00 18.05 LIG 0.00  C 
ATOM      9  CD1 ILE C   3      59.296  26.235  38.195  1.00 24.94 LIG 0.01  C 
ENDBRANCH 6 8
ENDBRANCH 5 6
BRANCH 5 10
ATOM     10  C   ILE C   3      56.448  28.104  34.424  1.00 19.56 LIG 0.24  C 
ATOM     11  N   HIS C   4      55.209  28.119  34.872  1.00 25.52 LIG-0.35  N 
ATOM     12 H    HIS C   4      54.973  28.361  35.663  1.00 25.52 LIG 0.16  HD
ATOM     13 O    ILE C   3      56.688  27.869  33.238  1.00 16.93 LIG-0.27  OA
BRANCH 11 14
ATOM     14  CA  HIS C   4      54.106  27.697  33.984  1.00 31.94 LIG 0.18  C 
BRANCH 14 15
ATOM     15  C   HIS C   4      53.905  28.780  32.952  1.00 43.02 LIG 0.24  C 
ATOM     16 O    HIS C   4      54.211  28.489  31.779  1.00 47.49 LIG-0.27  OA
ATOM     17  N   PRO C   5      53.472  30.019  33.392  1.00 55.18 LIG-0.34  N 
ATOM     18  CA  PRO C   5      53.078  31.250  32.600  1.00 55.75 LIG 0.17  C 
ATOM     19  CD  PRO C   5      53.684  30.384  34.818  1.00 48.44 LIG 0.13  C 
ATOM     20  CB  PRO C   5      52.603  32.223  33.686  1.00 55.43 LIG 0.04  C 
ATOM     21  CG  PRO C   5      53.466  31.897  34.867  1.00 51.63 LIG 0.02  C 
BRANCH 18 22
ATOM     22  C   PRO C   5      54.199  31.942  31.840  1.00 57.38 LIG 0.22  C 
ATOM     23 O    PRO C   5      54.608  31.462  30.779  1.00 61.90 LIG-0.29  OA
ENDBRANCH 18 22
ENDBRANCH 14 15
BRANCH 14 24
ATOM     24  CB  HIS C   4      52.804  27.386  34.791  1.00 32.76 LIG 0.10  C 
BRANCH 24 25
ATOM     25  CG  HIS C   4      51.559  28.049  34.275  1.00 32.77 LIG 0.06  A 
ATOM     26 ND1  HIS C   4      51.084  27.839  32.992  1.00 34.96 LIG-0.24  NA
ATOM     27  CE1 HIS C   4      49.967  28.529  32.813  1.00 36.21 LIG 0.23  A 
ATOM     28 NE2  HIS C   4      49.701  29.189  33.933  1.00 34.31 LIG-0.25  NA
ATOM     29  CD2 HIS C   4      50.685  28.908  34.863  1.00 30.94 LIG 0.14  A 
ENDBRANCH 24 25
ENDBRANCH 14 24
ENDBRANCH 11 14
ENDBRANCH 5 10
ENDBRANCH 3 5
BRANCH 1 30
ATOM     30  CA  TYR C   2      56.883  31.560  37.295  1.00 15.99 LIG 0.18  C 
BRANCH 30 31
ATOM     31  N   TYR C   2      56.660  31.195  38.680  1.00 12.71 LIG-0.35  N 
ATOM     32  C   VAL C   1      55.703  30.393  39.060  1.00 12.74 LIG 0.25  C 
ATOM     33 O    VAL C   1      54.964  29.838  38.272  1.00 11.92 LIG-0.27  OA
ATOM     34 H    TYR C   2      57.216  31.556  39.227  1.00 12.71 LIG 0.16  HD
BRANCH 32 35
ATOM     35  CA  VAL C   1      55.511  30.237  40.576  1.00 14.22 LIG 0.28  C 
BRANCH 35 36
ATOM     36  N   VAL C   1      54.042  30.293  40.872  1.00 13.26 LIG-0.07  N 
ATOM     37 H1   VAL C   1      53.886  29.935  41.671  1.00 13.26 LIG 0.28  HD
ATOM     38 H2   VAL C   1      53.770  31.141  40.869  1.00 13.26 LIG 0.28  HD
ATOM     39 H3   VAL C   1      53.597  29.837  40.250  1.00 13.26 LIG 0.28  HD
ENDBRANCH 35 36
BRANCH 35 40
ATOM     40  CB  VAL C   1      56.196  28.996  41.191  1.00 17.02 LIG 0.02  C 
ATOM     41  CG1 VAL C   1      57.575  28.687  40.496  1.00 17.35 LIG 0.01  C 
ATOM     42  CG2 VAL C   1      56.413  29.182  42.629  1.00 19.35 LIG 0.01  C 
ENDBRANCH 35 40
ENDBRANCH 32 35
ENDBRANCH 30 31
BRANCH 30 43
ATOM     43  CB  TYR C   2      57.516  32.995  37.270  1.00 16.65 LIG 0.07  C 
BRANCH 43 44
ATOM     44  CG  TYR C   2      56.497  34.117  37.179  1.00 19.66 LIG-0.06  A 
ATOM     45  CD1 TYR C   2      56.629  35.279  37.869  1.00 23.16 LIG 0.01  A 
ATOM     46  CE1 TYR C   2      55.657  36.323  37.840  1.00 26.66 LIG 0.04  A 
ATOM     47  CZ  TYR C   2      54.536  36.187  37.121  1.00 21.30 LIG 0.07  A 
ATOM     48  CE2 TYR C   2      54.391  35.040  36.421  1.00 23.08 LIG 0.04  A 
ATOM     49  CD2 TYR C   2      55.333  33.989  36.450  1.00 20.76 LIG 0.01  A 
BRANCH 47 50
ATOM     50 OH   TYR C   2      53.562  37.255  37.084  1.00 23.41 LIG-0.36  OA
ATOM     51 HH   TYR C   2      53.389  37.504  37.867  1.00 23.41 LIG 0.22  HD
ENDBRANCH 47 50
ENDBRANCH 43 44
ENDBRANCH 30 43
ENDBRANCH 1 30
TORSDOF 17
ENDMDL
MODEL 3
USER: ADFR SOLUTION from run 19
USER: SCORE 19.226345 LL:  -3.659 LR: -17.318 RR:   0.000 FEB: -12.246
USER: RMSD 3.983531
USER: SEED 18
USER: STATUS no improvement in best in 9 clusters for 5 generations
USER: GENES 19
USER: genes 0 Translation |==|  0.62228 0.48294 0.54942
USER: genes 1 Rotation |==|  0.56362 0.43708 0.44049 0.98832
USER: genes 2 Torsion [C]-N--CA-[CB] |==|  0.25553
USER: genes 3 Torsion [N]-CA--CB-[CG2] |==|  0.74910
USER: genes 4 Torsion [CA]-CB--CG1-[CD1] |==|  0.56411
USER: genes 5 Torsion [N]-CA--C-[N] |==|  0.16307
USER: genes 6 Torsion [C]-N--CA-[CB] |==|  0.16480
USER: genes 7 Torsion [N]-CA--C-[N] |==|  0.13550
USER: genes 8 Torsion [N]-CA--C-[O] |==|  0.76721
USER: genes 9 Torsion [N]-CA--CB-[CG] |==|  0.71265
USER: genes 10 Torsion [CA]-CB--CG-[ND1] |==|  0.38635
USER: genes 11 Torsion [N]-C--CA-[N] |==|  0.19027
USER: genes 12 Torsion [C]-CA--N-[C] |==|  0.78107
USER: genes 13 Torsion [N]-C--CA-[N] |==|  0.37520
USER: genes 14 Torsion [C]-CA--N-[H2] |==|  0.77375
USER: genes 15 Torsion [C]-CA--CB-[CG1] |==|  0.12116
USER: genes 16 Torsion [C]-CA--CB-[CG] |==|  0.38954
USER: genes 17 Torsion [CA]-CB--CG-[CD1] |==|  0.90432
USER: genes 18 Torsion [CE1]-CZ--OH-[HH] |==|  0.34837
ROOT
ATOM      1  C   TYR C   2      57.543  30.672  36.392  1.00 15.61 LIG 0.24  C 
ATOM      2 O    TYR C   2      58.707  30.841  35.998  1.00 14.40 LIG-0.27  OA
ATOM      3  N   ILE C   3      56.876  29.582  36.130  1.00 16.82 LIG-0.35  N 
ATOM      4 H    ILE C   3      56.155  29.350  36.536  1.00 16.82 LIG 0.16  HD
ENDROOT
BRANCH 3 5
ATOM      5  CA  ILE C   3      57.317  28.651  35.099  1.00 16.46 LIG 0.18  C 
BRANCH 5 6
ATOM      6  CB  ILE C   3      58.210  27.573  35.686  1.00 18.77 LIG 0.01  C 
ATOM      7  CG2 ILE C   3      59.656  28.043  35.619  1.00 19.99 LIG 0.01  C 
BRANCH 6 8
ATOM      8  CG1 ILE C   3      57.856  27.267  37.160  1.00 18.05 LIG 0.00  C 
ATOM      9  CD1 ILE C   3      59.000  26.646  37.965  1.00 24.94 LIG 0.01  C 
ENDBRANCH 6 8
ENDBRANCH 5 6
BRANCH 5 10
ATOM     10  C   ILE C   3      56.068  28.057  34.439  1.00 19.56 LIG 0.24  C 
ATOM     11  N   HIS C   4      55.210  28.880  33.870  1.00 25.52 LIG-0.35  N 
ATOM     12 H    HIS C   4      55.331  29.726  33.767  1.00 25.52 LIG 0.16  HD
ATOM     13 O    ILE C   3      55.875  26.840  34.432  1.00 16.93 LIG-0.27  OA
BRANCH 11 14
ATOM     14  CA  HIS C   4      53.927  28.358  33.355  1.00 31.94 LIG 0.18  C 
BRANCH 14 15
ATOM     15  C   HIS C   4      53.200  29.499  32.688  1.00 43.02 LIG 0.24  C 
ATOM     16 O    HIS C   4      51.988  29.616  32.956  1.00 47.49 LIG-0.27  OA
ATOM     17  N   PRO C   5      53.906  30.274  31.783  1.00 55.18 LIG-0.34  N 
ATOM     18  CA  PRO C   5      53.493  31.535  31.050  1.00 55.75 LIG 0.17  C 
ATOM     19  CD  PRO C   5      55.125  29.702  31.152  1.00 48.44 LIG 0.13  C 
ATOM     20  CB  PRO C   5      54.767  31.932  30.297  1.00 55.43 LIG 0.04  C 
ATOM     21  CG  PRO C   5      55.415  30.622  29.966  1.00 51.63 LIG 0.02  C 
BRANCH 18 22
ATOM     22  C   PRO C   5      52.393  31.374  30.012  1.00 57.38 LIG 0.22  C 
ATOM     23 O    PRO C   5      52.678  31.002  28.869  1.00 61.90 LIG-0.29  OA
ENDBRANCH 18 22
ENDBRANCH 14 15
BRANCH 14 24
ATOM     24  CB  HIS C   4      53.083  27.685  34.485  1.00 32.76 LIG 0.10  C 
BRANCH 24 25
ATOM     25  CG  HIS C   4      53.088  26.183  34.478  1.00 32.77 LIG 0.06  A 
ATOM     26 ND1  HIS C   4      53.175  25.436  35.639  1.00 34.96 LIG-0.24  NA
ATOM     27  CE1 HIS C   4      53.138  24.146  35.342  1.00 36.21 LIG 0.23  A 
ATOM     28 NE2  HIS C   4      53.039  24.025  34.023  1.00 34.31 LIG-0.25  NA
ATOM     29  CD2 HIS C   4      53.010  25.286  33.460  1.00 30.94 LIG 0.14  A 
ENDBRANCH 24 25
ENDBRANCH 14 24
ENDBRANCH 11 14
ENDBRANCH 5 10
ENDBRANCH 3 5
BRANCH 1 30
ATOM     30  CA  TYR C   2      56.843  31.665  37.270  1.00 15.99 LIG 0.18  C 
BRANCH 30 31
ATOM     31  N   TYR C   2      56.652  31.257  38.648  1.00 12.71 LIG-0.35  N 
ATOM     32  C   VAL C   1      55.710  30.436  39.023  1.00 12.74 LIG 0.25  C 
ATOM     33 O    VAL C   1      54.959  29.898  38.234  1.00 11.92 LIG-0.27  OA
ATOM     34 H    TYR C   2      57.217  31.606  39.194  1.00 12.71 LIG 0.16  HD
BRANCH 32 35
ATOM     35  CA  VAL C   1      55.551  30.232  40.538  1.00 14.22 LIG 0.28  C 
BRANCH 35 36
ATOM     36  N   VAL C   1      54.090  30.293  40.869  1.00 13.26 LIG-0.07  N 
ATOM     37 H1   VAL C   1      53.944  29.882  41.645  1.00 13.26 LIG 0.28  HD
ATOM     38 H2   VAL C   1      53.834  31.143  40.931  1.00 13.26 LIG 0.28  HD
ATOM     39 H3   VAL C   1      53.623  29.889  40.228  1.00 13.26 LIG 0.28  HD
ENDBRANCH 35 36
BRANCH 35 40
ATOM     40  CB  VAL C   1      56.237  28.964  41.096  1.00 17.02 LIG 0.02  C 
ATOM     41  CG1 VAL C   1      57.677  28.767  40.492  1.00 17.35 LIG 0.01  C 
ATOM     42  CG2 VAL C   1      56.332  29.027  42.558  1.00 19.35 LIG 0.01  C 
ENDBRANCH 35 40
ENDBRANCH 32 35
ENDBRANCH 30 31
BRANCH 30 43
ATOM     43  CB  TYR C   2      57.523  33.079  37.276  1.00 16.65 LIG 0.07  C 
BRANCH 43 44
ATOM     44  CG  TYR C   2      56.541  34.236  37.272  1.00 19.66 LIG-0.06  A 
ATOM     45  CD1 TYR C   2      55.353  34.182  36.617  1.00 23.16 LIG 0.01  A 
ATOM     46  CE1 TYR C   2      54.441  35.277  36.555  1.00 26.66 LIG 0.04  A 
ATOM     47  CZ  TYR C   2      54.736  36.441  37.147  1.00 21.30 LIG 0.07  A 
ATOM     48  CE2 TYR C   2      55.911  36.511  37.811  1.00 23.08 LIG 0.04  A 
ATOM     49  CD2 TYR C   2      56.835  35.445  37.869  1.00 20.76 LIG 0.01  A 
BRANCH 47 50
ATOM     50 OH   TYR C   2      53.800  37.542  37.094  1.00 23.41 LIG-0.36  OA
ATOM     51 HH   TYR C   2      53.633  37.806  37.874  1.00 23.41 LIG 0.22  HD
ENDBRANCH 47 50
ENDBRANCH 43 44
ENDBRANCH 30 43
ENDBRANCH 1 30
TORSDOF 17
ENDMDL
MODEL 4
USER: ADFR SOLUTION from run 146
USER: SCORE 19.590477 LL:  -4.141 LR: -17.230 RR:   0.000 FEB: -12.159
USER: RMSD 2.366760
USER: SEED 145
USER: STATUS searching
USER: GENES 19
USER: genes 0 Translation |==|  0.64712 0.47322 0.56055
USER: genes 1 Rotation |==|  0.44650 0.56423 0.57018 0.98794
USER: genes 2 Torsion [C]-N--CA-[CB] |==|  0.52778
USER: genes 3 Torsion [N]-CA--CB-[CG2] |==|  0.79435
USER: genes 4 Torsion [CA]-CB--CG1-[CD1] |==|  0.56523
USER: genes 5 Torsion [N]-CA--C-[N] |==|  0.83753
USER: genes 6 Torsion [C]-N--CA-[CB] |==|  0.11477
USER: genes 7 Torsion [N]-CA--C-[N] |==|  0.17738
USER: genes 8 Torsion [N]-CA--C-[O] |==|  0.57503
USER: genes 9 Torsion [N]-CA--CB-[CG] |==|  0.66000
USER: genes 10 Torsion [CA]-CB--CG-[ND1] |==|  0.85234
USER: genes 11 Torsion [N]-C--CA-[N] |==|  0.04985
USER: genes 12 Torsion [C]-CA--N-[C] |==|  0.75380
USER: genes 13 Torsion [N]-C--CA-[N] |==|  0.39196
USER: genes 14 Torsion [C]-CA--N-[H2] |==|  0.77941
USER: genes 15 Torsion [C]-CA--CB-[CG1] |==|  0.10119
USER: genes 16 Torsion [C]-CA--CB-[CG] |==|  0.39837
USER: genes 17 Torsion [CA]-CB--CG-[CD1] |==|  0.90923
USER: genes 18 Torsion [CE1]-CZ--OH-[HH] |==|  0.33118
ROOT
ATOM      1  C   TYR C   2      57.916  30.461  36.651  1.00 15.61 LIG 0.24  C 
ATOM      2 O    TYR C   2      58.565  30.785  35.645  1.00 14.40 LIG-0.27  OA
ATOM      3  N   ILE C   3      57.959  29.253  37.141  1.00 16.82 LIG-0.35  N 
ATOM      4 H    ILE C   3      57.683  29.043  37.928  1.00 16.82 LIG 0.16  HD
ENDROOT
BRANCH 3 5
ATOM      5  CA  ILE C   3      58.494  28.138  36.370  1.00 16.46 LIG 0.18  C 
BRANCH 5 6
ATOM      6  CB  ILE C   3      58.211  26.816  37.059  1.00 18.77 LIG 0.01  C 
ATOM      7  CG2 ILE C   3      59.133  26.680  38.262  1.00 19.99 LIG 0.01  C 
BRANCH 6 8
ATOM      8  CG1 ILE C   3      56.745  26.718  37.544  1.00 18.05 LIG 0.00  C 
ATOM      9  CD1 ILE C   3      56.528  25.731  38.694  1.00 24.94 LIG 0.01  C 
ENDBRANCH 6 8
ENDBRANCH 5 6
BRANCH 5 10
ATOM     10  C   ILE C   3      57.874  28.195  34.971  1.00 19.56 LIG 0.24  C 
ATOM     11  N   HIS C   4      56.561  28.142  34.865  1.00 25.52 LIG-0.35  N 
ATOM     12 H    HIS C   4      56.012  28.158  35.528  1.00 25.52 LIG 0.16  HD
ATOM     13 O    ILE C   3      58.584  28.298  33.968  1.00 16.93 LIG-0.27  OA
BRANCH 11 14
ATOM     14  CA  HIS C   4      55.938  28.048  33.529  1.00 31.94 LIG 0.18  C 
BRANCH 14 15
ATOM     15  C   HIS C   4      54.496  27.646  33.721  1.00 43.02 LIG 0.24  C 
ATOM     16 O    HIS C   4      54.146  26.573  33.193  1.00 47.49 LIG-0.27  OA
ATOM     17  N   PRO C   5      53.665  28.524  34.397  1.00 55.18 LIG-0.34  N 
ATOM     18  CA  PRO C   5      52.224  28.357  34.837  1.00 55.75 LIG 0.17  C 
ATOM     19  CD  PRO C   5      54.051  29.958  34.470  1.00 48.44 LIG 0.13  C 
ATOM     20  CB  PRO C   5      51.949  29.648  35.617  1.00 55.43 LIG 0.04  C 
ATOM     21  CG  PRO C   5      52.779  30.680  34.914  1.00 51.63 LIG 0.02  C 
BRANCH 18 22
ATOM     22  C   PRO C   5      51.191  28.279  33.724  1.00 57.38 LIG 0.22  C 
ATOM     23 O    PRO C   5      50.029  28.638  33.939  1.00 61.90 LIG-0.29  OA
ENDBRANCH 18 22
ENDBRANCH 14 15
BRANCH 14 24
ATOM     24  CB  HIS C   4      56.717  27.065  32.598  1.00 32.76 LIG 0.10  C 
BRANCH 24 25
ATOM     25  CG  HIS C   4      57.217  27.662  31.313  1.00 32.77 LIG 0.06  A 
ATOM     26 ND1  HIS C   4      56.386  28.339  30.438  1.00 34.96 LIG-0.24  NA
ATOM     27  CE1 HIS C   4      57.091  28.775  29.404  1.00 36.21 LIG 0.23  A 
ATOM     28 NE2  HIS C   4      58.352  28.396  29.570  1.00 34.31 LIG-0.25  NA
ATOM     29  CD2 HIS C   4      58.456  27.695  30.756  1.00 30.94 LIG 0.14  A 
ENDBRANCH 24 25
ENDBRANCH 14 24
ENDBRANCH 11 14
ENDBRANCH 5 10
ENDBRANCH 3 5
BRANCH 1 30
ATOM     30  CA  TYR C   2      57.100  31.448  37.431  1.00 15.99 LIG 0.18  C 
BRANCH 30 31
ATOM     31  N   TYR C   2      56.807  31.074  38.800  1.00 12.71 LIG-0.35  N 
ATOM     32  C   VAL C   1      55.760  30.373  39.139  1.00 12.74 LIG 0.25  C 
ATOM     33 O    VAL C   1      54.983  29.923  38.321  1.00 11.92 LIG-0.27  OA
ATOM     34 H    TYR C   2      57.387  31.358  39.368  1.00 12.71 LIG 0.16  HD
BRANCH 32 35
ATOM     35  CA  VAL C   1      55.519  30.200  40.646  1.00 14.22 LIG 0.28  C 
BRANCH 35 36
ATOM     36  N   VAL C   1      54.043  30.288  40.898  1.00 13.26 LIG-0.07  N 
ATOM     37 H1   VAL C   1      53.854  29.921  41.686  1.00 13.26 LIG 0.28  HD
ATOM     38 H2   VAL C   1      53.792  31.143  40.901  1.00 13.26 LIG 0.28  HD
ATOM     39 H3   VAL C   1      53.605  29.854  40.255  1.00 13.26 LIG 0.28  HD
ENDBRANCH 35 36
BRANCH 35 40
ATOM     40  CB  VAL C   1      56.153  28.932  41.262  1.00 17.02 LIG 0.02  C 
ATOM     41  CG1 VAL C   1      57.546  28.601  40.606  1.00 17.35 LIG 0.01  C 
ATOM     42  CG2 VAL C   1      56.328  29.091  42.709  1.00 19.35 LIG 0.01  C 
ENDBRANCH 35 40
ENDBRANCH 32 35
ENDBRANCH 30 31
BRANCH 30 43
ATOM     43  CB  TYR C   2      57.717  32.891  37.446  1.00 16.65 LIG 0.07  C 
BRANCH 43 44
ATOM     44  CG  TYR C   2      56.687  34.003  37.394  1.00 19.66 LIG-0.06  A 
ATOM     45  CD1 TYR C   2      55.511  33.877  36.727  1.00 23.16 LIG 0.01  A 
ATOM     46  CE1 TYR C   2      54.553  34.929  36.620  1.00 26.66 LIG 0.04  A 
ATOM     47  CZ  TYR C   2      54.790  36.123  37.180  1.00 21.30 LIG 0.07  A 
ATOM     48  CE2 TYR C   2      55.951  36.264  37.855  1.00 23.08 LIG 0.04  A 
ATOM     49  CD2 TYR C   2      56.919  35.241  37.957  1.00 20.76 LIG 0.01  A 
BRANCH 47 50
ATOM     50 OH   TYR C   2      53.808  37.179  37.081  1.00 23.41 LIG-0.36  OA
ATOM     51 HH   TYR C   2      53.556  37.401  37.852  1.00 23.41 LIG 0.22  HD
ENDBRANCH 47 50
ENDBRANCH 43 44
ENDBRANCH 30 43
ENDBRANCH 1 30
TORSDOF 17
ENDMDL
MODEL 5
USER: ADFR SOLUTION from run 92
USER: SCORE 19.495485 LL:  -4.166 LR: -17.167 RR:   0.000 FEB: -12.096
USER: RMSD 3.541453
USER: SEED 91
USER: STATUS no improvement in best in 9 clusters for 5 generations
USER: GENES 19
USER: genes 0 Translation |==|  0.62570 0.47950 0.55425
USER: genes 1 Rotation |==|  0.54589 0.46486 0.46235 0.99522
USER: genes 2 Torsion [C]-N--CA-[CB] |==|  0.22422
USER: genes 3 Torsion [N]-CA--CB-[CG2] |==|  0.74530
USER: genes 4 Torsion [CA]-CB--CG1-[CD1] |==|  0.36650
USER: genes 5 Torsion [N]-CA--C-[N] |==|  0.35194
USER: genes 6 Torsion [C]-N--CA-[CB] |==|  0.78294
USER: genes 7 Torsion [N]-CA--C-[N] |==|  0.16331
USER: genes 8 Torsion [N]-CA--C-[O] |==|  0.79083
USER: genes 9 Torsion [N]-CA--CB-[CG] |==|  0.99439
USER: genes 10 Torsion [CA]-CB--CG-[ND1] |==|  0.81179
USER: genes 11 Torsion [N]-C--CA-[N] |==|  0.15746
USER: genes 12 Torsion [C]-CA--N-[C] |==|  0.78312
USER: genes 13 Torsion [N]-C--CA-[N] |==|  0.36156
USER: genes 14 Torsion [C]-CA--N-[H2] |==|  0.79593
USER: genes 15 Torsion [C]-CA--CB-[CG1] |==|  0.10717
USER: genes 16 Torsion [C]-CA--CB-[CG] |==|  0.37709
USER: genes 17 Torsion [CA]-CB--CG-[CD1] |==|  0.42210
USER: genes 18 Torsion [CE1]-CZ--OH-[HH] |==|  0.74503
ROOT
ATOM      1  C   TYR C   2      57.594  30.597  36.504  1.00 15.61 LIG 0.24  C 
ATOM      2 O    TYR C   2      58.688  30.839  35.972  1.00 14.40 LIG-0.27  OA
ATOM      3  N   ILE C   3      57.013  29.436  36.390  1.00 16.82 LIG-0.35  N 
ATOM      4 H    ILE C   3      56.365  29.170  36.889  1.00 16.82 LIG 0.16  HD
ENDROOT
BRANCH 3 5
ATOM      5  CA  ILE C   3      57.431  28.472  35.379  1.00 16.46 LIG 0.18  C 
BRANCH 5 6
ATOM      6  CB  ILE C   3      58.664  27.711  35.830  1.00 18.77 LIG 0.01  C 
ATOM      7  CG2 ILE C   3      59.902  28.443  35.334  1.00 19.99 LIG 0.01  C 
BRANCH 6 8
ATOM      8  CG1 ILE C   3      58.741  27.595  37.371  1.00 18.05 LIG 0.00  C 
ATOM      9  CD1 ILE C   3      59.037  26.182  37.881  1.00 24.94 LIG 0.01  C 
ENDBRANCH 6 8
ENDBRANCH 5 6
BRANCH 5 10
ATOM     10  C   ILE C   3      56.250  27.534  35.110  1.00 19.56 LIG 0.24  C 
ATOM     11  N   HIS C   4      55.846  27.377  33.866  1.00 25.52 LIG-0.35  N 
ATOM     12 H    HIS C   4      56.243  27.699  33.174  1.00 25.52 LIG 0.16  HD
ATOM     13 O    ILE C   3      55.697  26.932  36.034  1.00 16.93 LIG-0.27  OA
BRANCH 11 14
ATOM     14  CA  HIS C   4      54.623  26.597  33.587  1.00 31.94 LIG 0.18  C 
BRANCH 14 15
ATOM     15  C   HIS C   4      53.556  27.053  34.551  1.00 43.02 LIG 0.24  C 
ATOM     16 O    HIS C   4      53.026  26.167  35.250  1.00 47.49 LIG-0.27  OA
ATOM     17  N   PRO C   5      53.199  28.391  34.534  1.00 55.18 LIG-0.34  N 
ATOM     18  CA  PRO C   5      52.259  29.159  35.442  1.00 55.75 LIG 0.17  C 
ATOM     19  CD  PRO C   5      53.485  29.190  33.314  1.00 48.44 LIG 0.13  C 
ATOM     20  CB  PRO C   5      52.398  30.602  34.944  1.00 55.43 LIG 0.04  C 
ATOM     21  CG  PRO C   5      52.640  30.455  33.472  1.00 51.63 LIG 0.02  C 
BRANCH 18 22
ATOM     22  C   PRO C   5      50.786  28.793  35.342  1.00 57.38 LIG 0.22  C 
ATOM     23 O    PRO C   5      50.123  29.175  34.374  1.00 61.90 LIG-0.29  OA
ENDBRANCH 18 22
ENDBRANCH 14 15
BRANCH 14 24
ATOM     24  CB  HIS C   4      54.889  25.059  33.667  1.00 32.76 LIG 0.10  C 
BRANCH 24 25
ATOM     25  CG  HIS C   4      56.311  24.671  33.957  1.00 32.77 LIG 0.06  A 
ATOM     26 ND1  HIS C   4      57.337  24.888  33.054  1.00 34.96 LIG-0.24  NA
ATOM     27  CE1 HIS C   4      58.482  24.469  33.575  1.00 36.21 LIG 0.23  A 
ATOM     28 NE2  HIS C   4      58.235  23.977  34.783  1.00 34.31 LIG-0.25  NA
ATOM     29  CD2 HIS C   4      56.882  24.089  35.043  1.00 30.94 LIG 0.14  A 
ENDBRANCH 24 25
ENDBRANCH 14 24
ENDBRANCH 11 14
ENDBRANCH 5 10
ENDBRANCH 3 5
BRANCH 1 30
ATOM     30  CA  TYR C   2      56.897  31.587  37.389  1.00 15.99 LIG 0.18  C 
BRANCH 30 31
ATOM     31  N   TYR C   2      56.658  31.150  38.750  1.00 12.71 LIG-0.35  N 
ATOM     32  C   VAL C   1      55.693  30.334  39.077  1.00 12.74 LIG 0.25  C 
ATOM     33 O    VAL C   1      54.959  29.827  38.253  1.00 11.92 LIG-0.27  OA
ATOM     34 H    TYR C   2      57.211  31.477  39.321  1.00 12.71 LIG 0.16  HD
BRANCH 32 35
ATOM     35  CA  VAL C   1      55.485  30.098  40.580  1.00 14.22 LIG 0.28  C 
BRANCH 35 36
ATOM     36  N   VAL C   1      54.030  30.293  40.889  1.00 13.26 LIG-0.07  N 
ATOM     37 H1   VAL C   1      53.854  29.975  41.702  1.00 13.26 LIG 0.28  HD
ATOM     38 H2   VAL C   1      53.834  31.161  40.862  1.00 13.26 LIG 0.28  HD
ATOM     39 H3   VAL C   1      53.538  29.859  40.288  1.00 13.26 LIG 0.28  HD
ENDBRANCH 35 36
BRANCH 35 40
ATOM     40  CB  VAL C   1      56.031  28.751  41.106  1.00 17.02 LIG 0.02  C 
ATOM     41  CG1 VAL C   1      57.397  28.370  40.423  1.00 17.35 LIG 0.01  C 
ATOM     42  CG2 VAL C   1      56.215  28.797  42.560  1.00 19.35 LIG 0.01  C 
ENDBRANCH 35 40
ENDBRANCH 32 35
ENDBRANCH 30 31
BRANCH 30 43
ATOM     43  CB  TYR C   2      57.615  32.981  37.449  1.00 16.65 LIG 0.07  C 
BRANCH 43 44
ATOM     44  CG  TYR C   2      56.672  34.165  37.341  1.00 19.66 LIG-0.06  A 
ATOM     45  CD1 TYR C   2      56.950  35.372  37.900  1.00 23.16 LIG 0.01  A 
ATOM     46  CE1 TYR C   2      56.053  36.481  37.857  1.00 26.66 LIG 0.04  A 
ATOM     47  CZ  TYR C   2      54.861  36.368  37.258  1.00 21.30 LIG 0.07  A 
ATOM     48  CE2 TYR C   2      54.571  35.177  36.689  1.00 23.08 LIG 0.04  A 
ATOM     49  CD2 TYR C   2      55.437  34.063  36.736  1.00 20.76 LIG 0.01  A 
BRANCH 47 50
ATOM     50 OH   TYR C   2      53.964  37.500  37.204  1.00 23.41 LIG-0.36  OA
ATOM     51 HH   TYR C   2      53.450  37.482  37.868  1.00 23.41 LIG 0.22  HD
ENDBRANCH 47 50
ENDBRANCH 43 44
ENDBRANCH 30 43
ENDBRANCH 1 30
TORSDOF 17
ENDMDL
MODEL 6
USER: ADFR SOLUTION from run 51
USER: SCORE 18.393088 LL:  -3.525 LR: -17.131 RR:   0.000 FEB: -12.060
USER: RMSD 3.670278
USER: SEED 50
USER: STATUS searching
USER: GENES 19
USER: genes 0 Translation |==|  0.65006 0.46332 0.55886
USER: genes 1 Rotation |==|  0.44498 0.55543 0.55412 0.99089
USER: genes 2 Torsion [C]-N--CA-[CB] |==|  0.40653
USER: genes 3 Torsion [N]-CA--CB-[CG2] |==|  0.11025
USER: genes 4 Torsion [CA]-CB--CG1-[CD1] |==|  0.63672
USER: genes 5 Torsion [N]-CA--C-[N] |==|  0.23030
USER: genes 6 Torsion [C]-N--CA-[CB] |==|  0.13960
USER: genes 7 Torsion [N]-CA--C-[N] |==|  0.16629
USER: genes 8 Torsion [N]-CA--C-[O] |==|  0.58229
USER: genes 9 Torsion [N]-CA--CB-[CG] |==|  0.67478
USER: genes 10 Torsion [CA]-CB--CG-[ND1] |==|  0.30452
USER: genes 11 Torsion [N]-C--CA-[N] |==|  0.06050
USER: genes 12 Torsion [C]-CA--N-[C] |==|  0.74896
USER: genes 13 Torsion [N]-C--CA-[N] |==|  0.40706
USER: genes 14 Torsion [C]-CA--N-[H2] |==|  0.75985
USER: genes 15 Torsion [C]-CA--CB-[CG1] |==|  0.40679
USER: genes 16 Torsion [C]-CA--CB-[CG] |==|  0.41348
USER: genes 17 Torsion [CA]-CB--CG-[CD1] |==|  0.90705
USER: genes 18 Torsion [CE1]-CZ--OH-[HH] |==|  0.35226
ROOT
ATOM      1  C   TYR C   2      57.960  30.245  36.611  1.00 15.61 LIG 0.24  C 
ATOM      2 O    TYR C   2      58.670  30.520  35.633  1.00 14.40 LIG-0.27  OA
ATOM      3  N   ILE C   3      57.910  29.042  37.111  1.00 16.82 LIG-0.35  N 
ATOM      4 H    ILE C   3      57.587  28.856  37.887  1.00 16.82 LIG 0.16  HD
ENDROOT
BRANCH 3 5
ATOM      5  CA  ILE C   3      58.410  27.889  36.372  1.00 16.46 LIG 0.18  C 
BRANCH 5 6
ATOM      6  CB  ILE C   3      59.005  26.857  37.312  1.00 18.77 LIG 0.01  C 
ATOM      7  CG2 ILE C   3      58.136  26.767  38.558  1.00 19.99 LIG 0.01  C 
BRANCH 6 8
ATOM      8  CG1 ILE C   3      59.084  25.457  36.660  1.00 18.05 LIG 0.00  C 
ATOM      9  CD1 ILE C   3      58.517  24.328  37.524  1.00 24.94 LIG 0.01  C 
ENDBRANCH 6 8
ENDBRANCH 5 6
BRANCH 5 10
ATOM     10  C   ILE C   3      57.246  27.314  35.558  1.00 19.56 LIG 0.24  C 
ATOM     11  N   HIS C   4      56.962  27.866  34.396  1.00 25.52 LIG-0.35  N 
ATOM     12 H    HIS C   4      57.429  28.480  34.014  1.00 25.52 LIG 0.16  HD
ATOM     13 O    ILE C   3      56.599  26.351  35.975  1.00 16.93 LIG-0.27  OA
BRANCH 11 14
ATOM     14  CA  HIS C   4      55.760  27.433  33.655  1.00 31.94 LIG 0.18  C 
BRANCH 14 15
ATOM     15  C   HIS C   4      55.618  28.324  32.445  1.00 43.02 LIG 0.24  C 
ATOM     16 O    HIS C   4      54.537  28.935  32.332  1.00 47.49 LIG-0.27  OA
ATOM     17  N   PRO C   5      56.655  28.339  31.529  1.00 55.18 LIG-0.34  N 
ATOM     18  CA  PRO C   5      56.853  29.198  30.296  1.00 55.75 LIG 0.17  C 
ATOM     19  CD  PRO C   5      57.592  27.184  31.493  1.00 48.44 LIG 0.13  C 
ATOM     20  CB  PRO C   5      58.242  28.780  29.801  1.00 55.43 LIG 0.04  C 
ATOM     21  CG  PRO C   5      58.334  27.329  30.164  1.00 51.63 LIG 0.02  C 
BRANCH 18 22
ATOM     22  C   PRO C   5      55.881  28.958  29.151  1.00 57.38 LIG 0.22  C 
ATOM     23 O    PRO C   5      56.242  29.156  27.987  1.00 61.90 LIG-0.29  OA
ENDBRANCH 18 22
ENDBRANCH 14 15
BRANCH 14 24
ATOM     24  CB  HIS C   4      54.488  27.444  34.563  1.00 32.76 LIG 0.10  C 
BRANCH 24 25
ATOM     25  CG  HIS C   4      53.843  26.104  34.776  1.00 32.77 LIG 0.06  A 
ATOM     26 ND1  HIS C   4      53.883  25.447  35.993  1.00 34.96 LIG-0.24  NA
ATOM     27  CE1 HIS C   4      53.221  24.303  35.902  1.00 36.21 LIG 0.23  A 
ATOM     28 NE2  HIS C   4      52.760  24.186  34.663  1.00 34.31 LIG-0.25  NA
ATOM     29  CD2 HIS C   4      53.139  25.299  33.937  1.00 30.94 LIG 0.14  A 
ENDBRANCH 24 25
ENDBRANCH 14 24
ENDBRANCH 11 14
ENDBRANCH 5 10
ENDBRANCH 3 5
BRANCH 1 30
ATOM     30  CA  TYR C   2      57.172  31.287  37.348  1.00 15.99 LIG 0.18  C 
BRANCH 30 31
ATOM     31  N   TYR C   2      56.873  30.981  38.733  1.00 12.71 LIG-0.35  N 
ATOM     32  C   VAL C   1      55.792  30.351  39.106  1.00 12.74 LIG 0.25  C 
ATOM     33 O    VAL C   1      54.984  29.914  38.312  1.00 11.92 LIG-0.27  OA
ATOM     34 H    TYR C   2      57.473  31.253  39.285  1.00 12.71 LIG 0.16  HD
BRANCH 32 35
ATOM     35  CA  VAL C   1      55.556  30.248  40.621  1.00 14.22 LIG 0.28  C 
BRANCH 35 36
ATOM     36  N   VAL C   1      54.078  30.293  40.869  1.00 13.26 LIG-0.07  N 
ATOM     37 H1   VAL C   1      53.892  29.869  41.629  1.00 13.26 LIG 0.28  HD
ATOM     38 H2   VAL C   1      53.812  31.140  40.930  1.00 13.26 LIG 0.28  HD
ATOM     39 H3   VAL C   1      53.652  29.897  40.196  1.00 13.26 LIG 0.28  HD
ENDBRANCH 35 36
BRANCH 35 40
ATOM     40  CB  VAL C   1      56.239  29.040  41.301  1.00 17.02 LIG 0.02  C 
ATOM     41  CG1 VAL C   1      56.701  29.382  42.767  1.00 17.35 LIG 0.01  C 
ATOM     42  CG2 VAL C   1      55.334  27.887  41.339  1.00 19.35 LIG 0.01  C 
ENDBRANCH 35 40
ENDBRANCH 32 35
ENDBRANCH 30 31
BRANCH 30 43
ATOM     43  CB  TYR C   2      57.827  32.712  37.299  1.00 16.65 LIG 0.07  C 
BRANCH 43 44
ATOM     44  CG  TYR C   2      56.825  33.852  37.332  1.00 19.66 LIG-0.06  A 
ATOM     45  CD1 TYR C   2      55.598  33.761  36.759  1.00 23.16 LIG 0.01  A 
ATOM     46  CE1 TYR C   2      54.663  34.838  36.730  1.00 26.66 LIG 0.04  A 
ATOM     47  CZ  TYR C   2      54.975  36.022  37.273  1.00 21.30 LIG 0.07  A 
ATOM     48  CE2 TYR C   2      56.189  36.129  37.855  1.00 23.08 LIG 0.04  A 
ATOM     49  CD2 TYR C   2      57.135  35.080  37.878  1.00 20.76 LIG 0.01  A 
BRANCH 47 50
ATOM     50 OH   TYR C   2      54.018  37.105  37.255  1.00 23.41 LIG-0.36  OA
ATOM     51 HH   TYR C   2      53.912  37.399  38.034  1.00 23.41 LIG 0.22  HD
ENDBRANCH 47 50
ENDBRANCH 43 44
ENDBRANCH 30 43
ENDBRANCH 1 30
TORSDOF 17
ENDMDL
MODEL 7
USER: ADFR SOLUTION from run 152
USER: SCORE 18.444880 LL:  -3.827 LR: -17.047 RR:   0.000 FEB: -11.976
USER: RMSD 1.869028
USER: SEED 151
USER: STATUS no improvement in best in 7 clusters for 5 generations
USER: GENES 19
USER: genes 0 Translation |==|  0.64696 0.47876 0.55940
USER: genes 1 Rotation |==|  0.46964 0.53685 0.55140 0.99505
USER: genes 2 Torsion [C]-N--CA-[CB] |==|  0.47778
USER: genes 3 Torsion [N]-CA--CB-[CG2] |==|  0.79262
USER: genes 4 Torsion [CA]-CB--CG1-[CD1] |==|  0.47172
USER: genes 5 Torsion [N]-CA--C-[N] |==|  0.46170
USER: genes 6 Torsion [C]-N--CA-[CB] |==|  0.50388
USER: genes 7 Torsion [N]-CA--C-[N] |==|  0.82163
USER: genes 8 Torsion [N]-CA--C-[O] |==|  0.75188
USER: genes 9 Torsion [N]-CA--CB-[CG] |==|  0.58291
USER: genes 10 Torsion [CA]-CB--CG-[ND1] |==|  0.61165
USER: genes 11 Torsion [N]-C--CA-[N] |==|  0.07727
USER: genes 12 Torsion [C]-CA--N-[C] |==|  0.76004
USER: genes 13 Torsion [N]-C--CA-[N] |==|  0.38774
USER: genes 14 Torsion [C]-CA--N-[H2] |==|  0.78261
USER: genes 15 Torsion [C]-CA--CB-[CG1] |==|  0.08777
USER: genes 16 Torsion [C]-CA--CB-[CG] |==|  0.39771
USER: genes 17 Torsion [CA]-CB--CG-[CD1] |==|  0.90821
USER: genes 18 Torsion [CE1]-CZ--OH-[HH] |==|  0.32638
ROOT
ATOM      1  C   TYR C   2      57.913  30.581  36.624  1.00 15.61 LIG 0.24  C 
ATOM      2 O    TYR C   2      58.690  30.944  35.728  1.00 14.40 LIG-0.27  OA
ATOM      3  N   ILE C   3      57.816  29.333  36.990  1.00 16.82 LIG-0.35  N 
ATOM      4 H    ILE C   3      57.441  29.073  37.718  1.00 16.82 LIG 0.16  HD
ENDROOT
BRANCH 3 5
ATOM      5  CA  ILE C   3      58.351  28.256  36.166  1.00 16.46 LIG 0.18  C 
BRANCH 5 6
ATOM      6  CB  ILE C   3      58.285  26.928  36.899  1.00 18.77 LIG 0.01  C 
ATOM      7  CG2 ILE C   3      59.374  26.899  37.962  1.00 19.99 LIG 0.01  C 
BRANCH 6 8
ATOM      8  CG1 ILE C   3      56.916  26.713  37.586  1.00 18.05 LIG 0.00  C 
ATOM      9  CD1 ILE C   3      56.701  25.298  38.130  1.00 24.94 LIG 0.01  C 
ENDBRANCH 6 8
ENDBRANCH 5 6
BRANCH 5 10
ATOM     10  C   ILE C   3      57.552  28.224  34.859  1.00 19.56 LIG 0.24  C 
ATOM     11  N   HIS C   4      58.027  27.520  33.852  1.00 25.52 LIG-0.35  N 
ATOM     12 H    HIS C   4      58.717  27.007  33.891  1.00 25.52 LIG 0.16  HD
ATOM     13 O    ILE C   3      56.485  28.833  34.756  1.00 16.93 LIG-0.27  OA
BRANCH 11 14
ATOM     14  CA  HIS C   4      57.361  27.585  32.535  1.00 31.94 LIG 0.18  C 
BRANCH 14 15
ATOM     15  C   HIS C   4      55.905  27.244  32.738  1.00 43.02 LIG 0.24  C 
ATOM     16 O    HIS C   4      55.089  28.169  32.554  1.00 47.49 LIG-0.27  OA
ATOM     17  N   PRO C   5      55.596  25.969  33.179  1.00 55.18 LIG-0.34  N 
ATOM     18  CA  PRO C   5      54.247  25.303  33.366  1.00 55.75 LIG 0.17  C 
ATOM     19  CD  PRO C   5      56.646  25.181  33.878  1.00 48.44 LIG 0.13  C 
ATOM     20  CB  PRO C   5      54.619  23.873  33.774  1.00 55.43 LIG 0.04  C 
ATOM     21  CG  PRO C   5      55.888  24.038  34.553  1.00 51.63 LIG 0.02  C 
BRANCH 18 22
ATOM     22  C   PRO C   5      53.370  25.869  34.472  1.00 57.38 LIG 0.22  C 
ATOM     23 O    PRO C   5      53.461  25.418  35.618  1.00 61.90 LIG-0.29  OA
ENDBRANCH 18 22
ENDBRANCH 14 15
BRANCH 14 24
ATOM     24  CB  HIS C   4      58.057  26.655  31.490  1.00 32.76 LIG 0.10  C 
BRANCH 24 25
ATOM     25  CG  HIS C   4      57.968  27.118  30.064  1.00 32.77 LIG 0.06  A 
ATOM     26 ND1  HIS C   4      57.746  26.245  29.013  1.00 34.96 LIG-0.24  NA
ATOM     27  CE1 HIS C   4      57.695  26.922  27.876  1.00 36.21 LIG 0.23  A 
ATOM     28 NE2  HIS C   4      57.887  28.208  28.147  1.00 34.31 LIG-0.25  NA
ATOM     29  CD2 HIS C   4      58.064  28.355  29.510  1.00 30.94 LIG 0.14  A 
ENDBRANCH 24 25
ENDBRANCH 14 24
ENDBRANCH 11 14
ENDBRANCH 5 10
ENDBRANCH 3 5
BRANCH 1 30
ATOM     30  CA  TYR C   2      57.091  31.554  37.415  1.00 15.99 LIG 0.18  C 
BRANCH 30 31
ATOM     31  N   TYR C   2      56.812  31.170  38.784  1.00 12.71 LIG-0.35  N 
ATOM     32  C   VAL C   1      55.800  30.418  39.121  1.00 12.74 LIG 0.25  C 
ATOM     33 O    VAL C   1      55.049  29.928  38.302  1.00 11.92 LIG-0.27  OA
ATOM     34 H    TYR C   2      57.376  31.483  39.353  1.00 12.71 LIG 0.16  HD
BRANCH 32 35
ATOM     35  CA  VAL C   1      55.562  30.237  40.628  1.00 14.22 LIG 0.28  C 
BRANCH 35 36
ATOM     36  N   VAL C   1      54.085  30.290  40.880  1.00 13.26 LIG-0.07  N 
ATOM     37 H1   VAL C   1      53.906  29.932  41.674  1.00 13.26 LIG 0.28  HD
ATOM     38 H2   VAL C   1      53.811  31.137  40.868  1.00 13.26 LIG 0.28  HD
ATOM     39 H3   VAL C   1      53.659  29.833  40.246  1.00 13.26 LIG 0.28  HD
ENDBRANCH 35 36
BRANCH 35 40
ATOM     40  CB  VAL C   1      56.227  28.984  41.242  1.00 17.02 LIG 0.02  C 
ATOM     41  CG1 VAL C   1      57.568  28.615  40.505  1.00 17.35 LIG 0.01  C 
ATOM     42  CG2 VAL C   1      56.502  29.189  42.668  1.00 19.35 LIG 0.01  C 
ENDBRANCH 35 40
ENDBRANCH 32 35
ENDBRANCH 30 31
BRANCH 30 43
ATOM     43  CB  TYR C   2      57.690  33.005  37.433  1.00 16.65 LIG 0.07  C 
BRANCH 43 44
ATOM     44  CG  TYR C   2      56.645  34.104  37.389  1.00 19.66 LIG-0.06  A 
ATOM     45  CD1 TYR C   2      55.472  33.968  36.718  1.00 23.16 LIG 0.01  A 
ATOM     46  CE1 TYR C   2      54.501  35.009  36.618  1.00 26.66 LIG 0.04  A 
ATOM     47  CZ  TYR C   2      54.721  36.200  37.188  1.00 21.30 LIG 0.07  A 
ATOM     48  CE2 TYR C   2      55.880  36.351  37.866  1.00 23.08 LIG 0.04  A 
ATOM     49  CD2 TYR C   2      56.861  35.340  37.962  1.00 20.76 LIG 0.01  A 
BRANCH 47 50
ATOM     50 OH   TYR C   2      53.726  37.245  37.096  1.00 23.41 LIG-0.36  OA
ATOM     51 HH   TYR C   2      53.453  37.441  37.866  1.00 23.41 LIG 0.22  HD
ENDBRANCH 47 50
ENDBRANCH 43 44
ENDBRANCH 30 43
ENDBRANCH 1 30
TORSDOF 17
ENDMDL
MODEL 8
USER: ADFR SOLUTION from run 200
USER: SCORE 18.927291 LL:  -4.056 LR: -16.860 RR:   0.000 FEB: -11.789
USER: RMSD 3.936781
USER: SEED 199
USER: STATUS searching
USER: GENES 19
USER: genes 0 Translation |==|  0.63139 0.44487 0.55714
USER: genes 1 Rotation |==|  0.51435 0.48319 0.45957 0.99787
USER: genes 2 Torsion [C]-N--CA-[CB] |==|  0.25262
USER: genes 3 Torsion [N]-CA--CB-[CG2] |==|  0.04872
USER: genes 4 Torsion [CA]-CB--CG1-[CD1] |==|  0.43207
USER: genes 5 Torsion [N]-CA--C-[N] |==|  0.33639
USER: genes 6 Torsion [C]-N--CA-[CB] |==|  0.79416
USER: genes 7 Torsion [N]-CA--C-[N] |==|  0.16425
USER: genes 8 Torsion [N]-CA--C-[O] |==|  0.88666
USER: genes 9 Torsion [N]-CA--CB-[CG] |==|  0.51429
USER: genes 10 Torsion [CA]-CB--CG-[ND1] |==|  0.70508
USER: genes 11 Torsion [N]-C--CA-[N] |==|  0.14268
USER: genes 12 Torsion [C]-CA--N-[C] |==|  0.76092
USER: genes 13 Torsion [N]-C--CA-[N] |==|  0.39110
USER: genes 14 Torsion [C]-CA--N-[H2] |==|  0.77618
USER: genes 15 Torsion [C]-CA--CB-[CG1] |==|  0.93118
USER: genes 16 Torsion [C]-CA--CB-[CG] |==|  0.37977
USER: genes 17 Torsion [CA]-CB--CG-[CD1] |==|  0.92756
USER: genes 18 Torsion [CE1]-CZ--OH-[HH] |==|  0.67426
ROOT
ATOM      1  C   TYR C   2      57.680  29.844  36.572  1.00 15.61 LIG 0.24  C 
ATOM      2 O    TYR C   2      58.726  30.002  35.925  1.00 14.40 LIG-0.27  OA
ATOM      3  N   ILE C   3      57.083  28.687  36.646  1.00 16.82 LIG-0.35  N 
ATOM      4 H    ILE C   3      56.477  28.495  37.225  1.00 16.82 LIG 0.16  HD
ENDROOT
BRANCH 3 5
ATOM      5  CA  ILE C   3      57.406  27.603  35.727  1.00 16.46 LIG 0.18  C 
BRANCH 5 6
ATOM      6  CB  ILE C   3      58.511  26.727  36.287  1.00 18.77 LIG 0.01  C 
ATOM      7  CG2 ILE C   3      58.629  26.981  37.783  1.00 19.99 LIG 0.01  C 
BRANCH 6 8
ATOM      8  CG1 ILE C   3      58.229  25.223  36.060  1.00 18.05 LIG 0.00  C 
ATOM      9  CD1 ILE C   3      59.482  24.344  36.043  1.00 24.94 LIG 0.01  C 
ENDBRANCH 6 8
ENDBRANCH 5 6
BRANCH 5 10
ATOM     10  C   ILE C   3      56.123  26.807  35.471  1.00 19.56 LIG 0.24  C 
ATOM     11  N   HIS C   4      55.687  26.704  34.231  1.00 25.52 LIG-0.35  N 
ATOM     12 H    HIS C   4      56.109  26.982  33.535  1.00 25.52 LIG 0.16  HD
ATOM     13 O    ILE C   3      55.518  26.267  36.400  1.00 16.93 LIG-0.27  OA
BRANCH 11 14
ATOM     14  CA  HIS C   4      54.379  26.070  33.967  1.00 31.94 LIG 0.18  C 
BRANCH 14 15
ATOM     15  C   HIS C   4      53.363  26.711  34.880  1.00 43.02 LIG 0.24  C 
ATOM     16 O    HIS C   4      52.718  25.941  35.618  1.00 47.49 LIG-0.27  OA
ATOM     17  N   PRO C   5      53.174  28.079  34.776  1.00 55.18 LIG-0.34  N 
ATOM     18  CA  PRO C   5      52.324  29.011  35.617  1.00 55.75 LIG 0.17  C 
ATOM     19  CD  PRO C   5      53.574  28.761  33.517  1.00 48.44 LIG 0.13  C 
ATOM     20  CB  PRO C   5      52.647  30.392  35.038  1.00 55.43 LIG 0.04  C 
ATOM     21  CG  PRO C   5      52.890  30.127  33.583  1.00 51.63 LIG 0.02  C 
BRANCH 18 22
ATOM     22  C   PRO C   5      50.819  28.822  35.507  1.00 57.38 LIG 0.22  C 
ATOM     23 O    PRO C   5      50.306  28.601  34.406  1.00 61.90 LIG-0.29  OA
ENDBRANCH 18 22
ENDBRANCH 14 15
BRANCH 14 24
ATOM     24  CB  HIS C   4      54.446  24.518  34.137  1.00 32.76 LIG 0.10  C 
BRANCH 24 25
ATOM     25  CG  HIS C   4      53.190  23.780  33.769  1.00 32.77 LIG 0.06  A 
ATOM     26 ND1  HIS C   4      52.345  23.234  34.719  1.00 34.96 LIG-0.24  NA
ATOM     27  CE1 HIS C   4      51.311  22.663  34.119  1.00 36.21 LIG 0.23  A 
ATOM     28 NE2  HIS C   4      51.458  22.809  32.807  1.00 34.31 LIG-0.25  NA
ATOM     29  CD2 HIS C   4      52.628  23.503  32.563  1.00 30.94 LIG 0.14  A 
ENDBRANCH 24 25
ENDBRANCH 14 24
ENDBRANCH 11 14
ENDBRANCH 5 10
ENDBRANCH 3 5
BRANCH 1 30
ATOM     30  CA  TYR C   2      57.067  30.944  37.386  1.00 15.99 LIG 0.18  C 
BRANCH 30 31
ATOM     31  N   TYR C   2      56.830  30.631  38.781  1.00 12.71 LIG-0.35  N 
ATOM     32  C   VAL C   1      55.746  30.040  39.204  1.00 12.74 LIG 0.25  C 
ATOM     33 O    VAL C   1      54.879  29.647  38.450  1.00 11.92 LIG-0.27  OA
ATOM     34 H    TYR C   2      57.469  30.871  39.303  1.00 12.71 LIG 0.16  HD
BRANCH 32 35
ATOM     35  CA  VAL C   1      55.587  29.926  40.728  1.00 14.22 LIG 0.28  C 
BRANCH 35 36
ATOM     36  N   VAL C   1      54.146  30.167  41.069  1.00 13.26 LIG-0.07  N 
ATOM     37 H1   VAL C   1      53.970  29.823  41.871  1.00 13.26 LIG 0.28  HD
ATOM     38 H2   VAL C   1      53.987  31.043  41.081  1.00 13.26 LIG 0.28  HD
ATOM     39 H3   VAL C   1      53.628  29.780  40.459  1.00 13.26 LIG 0.28  HD
ENDBRANCH 35 36
BRANCH 35 40
ATOM     40  CB  VAL C   1      56.132  28.615  41.339  1.00 17.02 LIG 0.02  C 
ATOM     41  CG1 VAL C   1      56.157  27.447  40.283  1.00 17.35 LIG 0.01  C 
ATOM     42  CG2 VAL C   1      57.485  28.813  41.869  1.00 19.35 LIG 0.01  C 
ENDBRANCH 35 40
ENDBRANCH 32 35
ENDBRANCH 30 31
BRANCH 30 43
ATOM     43  CB  TYR C   2      57.874  32.288  37.323  1.00 16.65 LIG 0.07  C 
BRANCH 43 44
ATOM     44  CG  TYR C   2      57.005  33.522  37.160  1.00 19.66 LIG-0.06  A 
ATOM     45  CD1 TYR C   2      55.780  33.479  36.576  1.00 23.16 LIG 0.01  A 
ATOM     46  CE1 TYR C   2      54.971  34.635  36.363  1.00 26.66 LIG 0.04  A 
ATOM     47  CZ  TYR C   2      55.409  35.846  36.730  1.00 21.30 LIG 0.07  A 
ATOM     48  CE2 TYR C   2      56.623  35.907  37.320  1.00 23.08 LIG 0.04  A 
ATOM     49  CD2 TYR C   2      57.445  34.778  37.523  1.00 20.76 LIG 0.01  A 
BRANCH 47 50
ATOM     50 OH   TYR C   2      54.578  37.011  36.526  1.00 23.41 LIG-0.36  OA
ATOM     51 HH   TYR C   2      54.958  37.538  35.993  1.00 23.41 LIG 0.22  HD
ENDBRANCH 47 50
ENDBRANCH 43 44
ENDBRANCH 30 43
ENDBRANCH 1 30
TORSDOF 17
ENDMDL
MODEL 9
USER: ADFR SOLUTION from run 142
USER: SCORE 19.290714 LL:  -4.106 LR: -16.812 RR:   0.000 FEB: -11.741
USER: RMSD 3.735116
USER: SEED 141
USER: STATUS no improvement in best in 7 clusters for 5 generations
USER: GENES 19
USER: genes 0 Translation |==|  0.61751 0.48793 0.55229
USER: genes 1 Rotation |==|  0.56775 0.44071 0.43783 0.98788
USER: genes 2 Torsion [C]-N--CA-[CB] |==|  0.27482
USER: genes 3 Torsion [N]-CA--CB-[CG2] |==|  0.73254
USER: genes 4 Torsion [CA]-CB--CG1-[CD1] |==|  0.60338
USER: genes 5 Torsion [N]-CA--C-[N] |==|  0.30452
USER: genes 6 Torsion [C]-N--CA-[CB] |==|  0.16292
USER: genes 7 Torsion [N]-CA--C-[N] |==|  0.12624
USER: genes 8 Torsion [N]-CA--C-[O] |==|  0.59896
USER: genes 9 Torsion [N]-CA--CB-[CG] |==|  0.14817
USER: genes 10 Torsion [CA]-CB--CG-[ND1] |==|  0.69825
USER: genes 11 Torsion [N]-C--CA-[N] |==|  0.18889
USER: genes 12 Torsion [C]-CA--N-[C] |==|  0.78862
USER: genes 13 Torsion [N]-C--CA-[N] |==|  0.36877
USER: genes 14 Torsion [C]-CA--N-[H2] |==|  0.80776
USER: genes 15 Torsion [C]-CA--CB-[CG1] |==|  0.11166
USER: genes 16 Torsion [C]-CA--CB-[CG] |==|  0.38258
USER: genes 17 Torsion [CA]-CB--CG-[CD1] |==|  0.91090
USER: genes 18 Torsion [CE1]-CZ--OH-[HH] |==|  0.33397
ROOT
ATOM      1  C   TYR C   2      57.472  30.780  36.459  1.00 15.61 LIG 0.24  C 
ATOM      2 O    TYR C   2      58.631  30.949  36.052  1.00 14.40 LIG-0.27  OA
ATOM      3  N   ILE C   3      56.794  29.701  36.185  1.00 16.82 LIG-0.35  N 
ATOM      4 H    ILE C   3      56.077  29.465  36.596  1.00 16.82 LIG 0.16  HD
ENDROOT
BRANCH 3 5
ATOM      5  CA  ILE C   3      57.214  28.786  35.130  1.00 16.46 LIG 0.18  C 
BRANCH 5 6
ATOM      6  CB  ILE C   3      57.965  27.600  35.706  1.00 18.77 LIG 0.01  C 
ATOM      7  CG2 ILE C   3      59.459  27.873  35.618  1.00 19.99 LIG 0.01  C 
BRANCH 6 8
ATOM      8  CG1 ILE C   3      57.594  27.344  37.186  1.00 18.05 LIG 0.00  C 
ATOM      9  CD1 ILE C   3      58.768  26.891  38.059  1.00 24.94 LIG 0.01  C 
ENDBRANCH 6 8
ENDBRANCH 5 6
BRANCH 5 10
ATOM     10  C   ILE C   3      55.962  28.349  34.362  1.00 19.56 LIG 0.24  C 
ATOM     11  N   HIS C   4      55.795  28.794  33.133  1.00 25.52 LIG-0.35  N 
ATOM     12 H    HIS C   4      56.374  29.251  32.690  1.00 25.52 LIG 0.16  HD
ATOM     13 O    ILE C   3      55.137  27.592  34.878  1.00 16.93 LIG-0.27  OA
BRANCH 11 14
ATOM     14  CA  HIS C   4      54.533  28.512  32.419  1.00 31.94 LIG 0.18  C 
BRANCH 14 15
ATOM     15  C   HIS C   4      54.656  29.077  31.025  1.00 43.02 LIG 0.24  C 
ATOM     16 O    HIS C   4      53.654  29.669  30.577  1.00 47.49 LIG-0.27  OA
ATOM     17  N   PRO C   5      55.829  28.835  30.332  1.00 55.18 LIG-0.34  N 
ATOM     18  CA  PRO C   5      56.289  29.354  28.983  1.00 55.75 LIG 0.17  C 
ATOM     19  CD  PRO C   5      56.676  27.684  30.742  1.00 48.44 LIG 0.13  C 
ATOM     20  CB  PRO C   5      57.708  28.789  28.859  1.00 55.43 LIG 0.04  C 
ATOM     21  CG  PRO C   5      57.637  27.472  29.572  1.00 51.63 LIG 0.02  C 
BRANCH 18 22
ATOM     22  C   PRO C   5      55.505  28.862  27.776  1.00 57.38 LIG 0.22  C 
ATOM     23 O    PRO C   5      56.091  28.648  26.711  1.00 61.90 LIG-0.29  OA
ENDBRANCH 18 22
ENDBRANCH 14 15
BRANCH 14 24
ATOM     24  CB  HIS C   4      53.296  29.077  33.190  1.00 32.76 LIG 0.10  C 
BRANCH 24 25
ATOM     25  CG  HIS C   4      53.376  30.534  33.547  1.00 32.77 LIG 0.06  A 
ATOM     26 ND1  HIS C   4      53.560  30.970  34.847  1.00 34.96 LIG-0.24  NA
ATOM     27  CE1 HIS C   4      53.613  32.294  34.868  1.00 36.21 LIG 0.23  A 
ATOM     28 NE2  HIS C   4      53.459  32.737  33.626  1.00 34.31 LIG-0.25  NA
ATOM     29  CD2 HIS C   4      53.306  31.654  32.781  1.00 30.94 LIG 0.14  A 
ENDBRANCH 24 25
ENDBRANCH 14 24
ENDBRANCH 11 14
ENDBRANCH 5 10
ENDBRANCH 3 5
BRANCH 1 30
ATOM     30  CA  TYR C   2      56.790  31.761  37.365  1.00 15.99 LIG 0.18  C 
BRANCH 30 31
ATOM     31  N   TYR C   2      56.604  31.323  38.735  1.00 12.71 LIG-0.35  N 
ATOM     32  C   VAL C   1      55.688  30.464  39.089  1.00 12.74 LIG 0.25  C 
ATOM     33 O    VAL C   1      54.960  29.916  38.287  1.00 11.92 LIG-0.27  OA
ATOM     34 H    TYR C   2      57.154  31.681  39.290  1.00 12.71 LIG 0.16  HD
BRANCH 32 35
ATOM     35  CA  VAL C   1      55.527  30.230  40.599  1.00 14.22 LIG 0.28  C 
BRANCH 35 36
ATOM     36  N   VAL C   1      54.066  30.293  40.931  1.00 13.26 LIG-0.07  N 
ATOM     37 H1   VAL C   1      53.941  30.028  41.772  1.00 13.26 LIG 0.28  HD
ATOM     38 H2   VAL C   1      53.776  31.129  40.837  1.00 13.26 LIG 0.28  HD
ATOM     39 H3   VAL C   1      53.613  29.759  40.382  1.00 13.26 LIG 0.28  HD
ENDBRANCH 35 36
BRANCH 35 40
ATOM     40  CB  VAL C   1      56.204  28.945  41.130  1.00 17.02 LIG 0.02  C 
ATOM     41  CG1 VAL C   1      57.607  28.706  40.458  1.00 17.35 LIG 0.01  C 
ATOM     42  CG2 VAL C   1      56.372  29.012  42.585  1.00 19.35 LIG 0.01  C 
ENDBRANCH 35 40
ENDBRANCH 32 35
ENDBRANCH 30 31
BRANCH 30 43
ATOM     43  CB  TYR C   2      57.487  33.166  37.399  1.00 16.65 LIG 0.07  C 
BRANCH 43 44
ATOM     44  CG  TYR C   2      56.520  34.336  37.369  1.00 19.66 LIG-0.06  A 
ATOM     45  CD1 TYR C   2      55.331  34.282  36.716  1.00 23.16 LIG 0.01  A 
ATOM     46  CE1 TYR C   2      54.433  35.387  36.629  1.00 26.66 LIG 0.04  A 
ATOM     47  CZ  TYR C   2      54.743  36.560  37.195  1.00 21.30 LIG 0.07  A 
ATOM     48  CE2 TYR C   2      55.919  36.630  37.857  1.00 23.08 LIG 0.04  A 
ATOM     49  CD2 TYR C   2      56.829  35.554  37.938  1.00 20.76 LIG 0.01  A 
BRANCH 47 50
ATOM     50 OH   TYR C   2      53.821  37.671  37.117  1.00 23.41 LIG-0.36  OA
ATOM     51 HH   TYR C   2      53.603  37.909  37.892  1.00 23.41 LIG 0.22  HD
ENDBRANCH 47 50
ENDBRANCH 43 44
ENDBRANCH 30 43
ENDBRANCH 1 30
TORSDOF 17
ENDMDL
MODEL 10
USER: ADFR SOLUTION from run 79
USER: SCORE 17.804103 LL:  -4.039 LR: -16.687 RR:   0.000 FEB: -11.615
USER: RMSD 3.617029
USER: SEED 78
USER: STATUS no improvement in best in 6 clusters for 5 generations
USER: GENES 19
USER: genes 0 Translation |==|  0.62839 0.47437 0.55722
USER: genes 1 Rotation |==|  0.52698 0.46881 0.47258 0.99754
USER: genes 2 Torsion [C]-N--CA-[CB] |==|  0.38978
USER: genes 3 Torsion [N]-CA--CB-[CG2] |==|  0.59887
USER: genes 4 Torsion [CA]-CB--CG1-[CD1] |==|  0.33024
USER: genes 5 Torsion [N]-CA--C-[N] |==|  0.89515
USER: genes 6 Torsion [C]-N--CA-[CB] |==|  0.46112
USER: genes 7 Torsion [N]-CA--C-[N] |==|  0.29011
USER: genes 8 Torsion [N]-CA--C-[O] |==|  0.32899
USER: genes 9 Torsion [N]-CA--CB-[CG] |==|  0.47779
USER: genes 10 Torsion [CA]-CB--CG-[ND1] |==|  0.21240
USER: genes 11 Torsion [N]-C--CA-[N] |==|  0.15343
USER: genes 12 Torsion [C]-CA--N-[C] |==|  0.77727
USER: genes 13 Torsion [N]-C--CA-[N] |==|  0.38122
USER: genes 14 Torsion [C]-CA--N-[H2] |==|  0.79451
USER: genes 15 Torsion [C]-CA--CB-[CG1] |==|  0.12050
USER: genes 16 Torsion [C]-CA--CB-[CG] |==|  0.39590
USER: genes 17 Torsion [CA]-CB--CG-[CD1] |==|  0.90221
USER: genes 18 Torsion [CE1]-CZ--OH-[HH] |==|  0.37661
ROOT
ATOM      1  C   TYR C   2      57.635  30.486  36.573  1.00 15.61 LIG 0.24  C 
ATOM      2 O    TYR C   2      58.709  30.726  36.003  1.00 14.40 LIG-0.27  OA
ATOM      3  N   ILE C   3      57.096  29.298  36.561  1.00 16.82 LIG-0.35  N 
ATOM      4 H    ILE C   3      56.467  29.049  37.091  1.00 16.82 LIG 0.16  HD
ENDROOT
BRANCH 3 5
ATOM      5  CA  ILE C   3      57.533  28.275  35.619  1.00 16.46 LIG 0.18  C 
BRANCH 5 6
ATOM      6  CB  ILE C   3      57.585  26.911  36.284  1.00 18.77 LIG 0.01  C 
ATOM      7  CG2 ILE C   3      58.759  26.130  35.712  1.00 19.99 LIG 0.01  C 
BRANCH 6 8
ATOM      8  CG1 ILE C   3      57.761  27.021  37.816  1.00 18.05 LIG 0.00  C 
ATOM      9  CD1 ILE C   3      56.612  26.414  38.626  1.00 24.94 LIG 0.01  C 
ENDBRANCH 6 8
ENDBRANCH 5 6
BRANCH 5 10
ATOM     10  C   ILE C   3      56.569  28.291  34.428  1.00 19.56 LIG 0.24  C 
ATOM     11  N   HIS C   4      55.289  28.501  34.663  1.00 25.52 LIG-0.35  N 
ATOM     12 H    HIS C   4      54.955  28.710  35.427  1.00 25.52 LIG 0.16  HD
ATOM     13 O    ILE C   3      56.981  28.123  33.279  1.00 16.93 LIG-0.27  OA
BRANCH 11 14
ATOM     14  CA  HIS C   4      54.314  28.378  33.559  1.00 31.94 LIG 0.18  C 
BRANCH 14 15
ATOM     15  C   HIS C   4      54.540  29.534  32.615  1.00 43.02 LIG 0.24  C 
ATOM     16 O    HIS C   4      54.062  30.632  32.961  1.00 47.49 LIG-0.27  OA
ATOM     17  N   PRO C   5      55.187  29.273  31.419  1.00 55.18 LIG-0.34  N 
ATOM     18  CA  PRO C   5      55.651  30.227  30.335  1.00 55.75 LIG 0.17  C 
ATOM     19  CD  PRO C   5      55.195  27.880  30.900  1.00 48.44 LIG 0.13  C 
ATOM     20  CB  PRO C   5      56.378  29.304  29.350  1.00 55.43 LIG 0.04  C 
ATOM     21  CG  PRO C   5      55.622  28.013  29.438  1.00 51.63 LIG 0.02  C 
BRANCH 18 22
ATOM     22  C   PRO C   5      54.555  30.936  29.556  1.00 57.38 LIG 0.22  C 
ATOM     23 O    PRO C   5      54.478  32.168  29.589  1.00 61.90 LIG-0.29  OA
ENDBRANCH 18 22
ENDBRANCH 14 15
BRANCH 14 24
ATOM     24  CB  HIS C   4      52.847  28.314  34.091  1.00 32.76 LIG 0.10  C 
BRANCH 24 25
ATOM     25  CG  HIS C   4      51.781  28.378  33.035  1.00 32.77 LIG 0.06  A 
ATOM     26 ND1  HIS C   4      51.465  27.295  32.233  1.00 34.96 LIG-0.24  NA
ATOM     27  CE1 HIS C   4      50.482  27.625  31.408  1.00 36.21 LIG 0.23  A 
ATOM     28 NE2  HIS C   4      50.151  28.890  31.638  1.00 34.31 LIG-0.25  NA
ATOM     29  CD2 HIS C   4      50.953  29.385  32.649  1.00 30.94 LIG 0.14  A 
ENDBRANCH 24 25
ENDBRANCH 14 24
ENDBRANCH 11 14
ENDBRANCH 5 10
ENDBRANCH 3 5
BRANCH 1 30
ATOM     30  CA  TYR C   2      56.915  31.515  37.392  1.00 15.99 LIG 0.18  C 
BRANCH 30 31
ATOM     31  N   TYR C   2      56.687  31.162  38.780  1.00 12.71 LIG-0.35  N 
ATOM     32  C   VAL C   1      55.716  30.380  39.165  1.00 12.74 LIG 0.25  C 
ATOM     33 O    VAL C   1      54.967  29.833  38.381  1.00 11.92 LIG-0.27  OA
ATOM     34 H    TYR C   2      57.250  31.517  39.325  1.00 12.71 LIG 0.16  HD
BRANCH 32 35
ATOM     35  CA  VAL C   1      55.523  30.236  40.682  1.00 14.22 LIG 0.28  C 
BRANCH 35 36
ATOM     36  N   VAL C   1      54.053  30.293  40.976  1.00 13.26 LIG-0.07  N 
ATOM     37 H1   VAL C   1      53.906  30.012  41.807  1.00 13.26 LIG 0.28  HD
ATOM     38 H2   VAL C   1      53.765  31.131  40.890  1.00 13.26 LIG 0.28  HD
ATOM     39 H3   VAL C   1      53.616  29.770  40.404  1.00 13.26 LIG 0.28  HD
ENDBRANCH 35 36
BRANCH 35 40
ATOM     40  CB  VAL C   1      56.208  29.000  41.308  1.00 17.02 LIG 0.02  C 
ATOM     41  CG1 VAL C   1      57.663  28.792  40.743  1.00 17.35 LIG 0.01  C 
ATOM     42  CG2 VAL C   1      56.272  29.125  42.768  1.00 19.35 LIG 0.01  C 
ENDBRANCH 35 40
ENDBRANCH 32 35
ENDBRANCH 30 31
BRANCH 30 43
ATOM     43  CB  TYR C   2      57.601  32.926  37.360  1.00 16.65 LIG 0.07  C 
BRANCH 43 44
ATOM     44  CG  TYR C   2      56.623  34.086  37.340  1.00 19.66 LIG-0.06  A 
ATOM     45  CD1 TYR C   2      55.435  34.027  36.685  1.00 23.16 LIG 0.01  A 
ATOM     46  CE1 TYR C   2      54.526  35.124  36.608  1.00 26.66 LIG 0.04  A 
ATOM     47  CZ  TYR C   2      54.826  36.296  37.184  1.00 21.30 LIG 0.07  A 
ATOM     48  CE2 TYR C   2      56.000  36.371  37.847  1.00 23.08 LIG 0.04  A 
ATOM     49  CD2 TYR C   2      56.920  35.303  37.920  1.00 20.76 LIG 0.01  A 
BRANCH 47 50
ATOM     50 OH   TYR C   2      53.893  37.399  37.115  1.00 23.41 LIG-0.36  OA
ATOM     51 HH   TYR C   2      53.834  37.763  37.869  1.00 23.41 LIG 0.22  HD
ENDBRANCH 47 50
ENDBRANCH 43 44
ENDBRANCH 30 43
ENDBRANCH 1 30
TORSDOF 17
ENDMDL
MODEL 11
USER: ADFR SOLUTION from run 148
USER: SCORE 19.017170 LL:  -4.079 LR: -16.621 RR:   0.000 FEB: -11.550
USER: RMSD 4.277433
USER: SEED 147
USER: STATUS no improvement in best in 10 clusters for 5 generations
USER: GENES 19
USER: genes 0 Translation |==|  0.62464 0.47994 0.54886
USER: genes 1 Rotation |==|  0.55984 0.43532 0.45195 0.98982
USER: genes 2 Torsion [C]-N--CA-[CB] |==|  0.21811
USER: genes 3 Torsion [N]-CA--CB-[CG2] |==|  0.73624
USER: genes 4 Torsion [CA]-CB--CG1-[CD1] |==|  0.40385
USER: genes 5 Torsion [N]-CA--C-[N] |==|  0.93934
USER: genes 6 Torsion [C]-N--CA-[CB] |==|  0.81082
USER: genes 7 Torsion [N]-CA--C-[N] |==|  0.14575
USER: genes 8 Torsion [N]-CA--C-[O] |==|  0.83931
USER: genes 9 Torsion [N]-CA--CB-[CG] |==|  0.74733
USER: genes 10 Torsion [CA]-CB--CG-[ND1] |==|  0.56048
USER: genes 11 Torsion [N]-C--CA-[N] |==|  0.19079
USER: genes 12 Torsion [C]-CA--N-[C] |==|  0.77210
USER: genes 13 Torsion [N]-C--CA-[N] |==|  0.37605
USER: genes 14 Torsion [C]-CA--N-[H2] |==|  0.77541
USER: genes 15 Torsion [C]-CA--CB-[CG1] |==|  0.08764
USER: genes 16 Torsion [C]-CA--CB-[CG] |==|  0.39522
USER: genes 17 Torsion [CA]-CB--CG-[CD1] |==|  0.89239
USER: genes 18 Torsion [CE1]-CZ--OH-[HH] |==|  0.35595
ROOT
ATOM      1  C   TYR C   2      57.579  30.607  36.379  1.00 15.61 LIG 0.24  C 
ATOM      2 O    TYR C   2      58.738  30.816  35.993  1.00 14.40 LIG-0.27  OA
ATOM      3  N   ILE C   3      56.962  29.484  36.135  1.00 16.82 LIG-0.35  N 
ATOM      4 H    ILE C   3      56.247  29.230  36.539  1.00 16.82 LIG 0.16  HD
ENDROOT
BRANCH 3 5
ATOM      5  CA  ILE C   3      57.452  28.550  35.129  1.00 16.46 LIG 0.18  C 
BRANCH 5 6
ATOM      6  CB  ILE C   3      58.621  27.742  35.662  1.00 18.77 LIG 0.01  C 
ATOM      7  CG2 ILE C   3      59.918  28.418  35.244  1.00 19.99 LIG 0.01  C 
BRANCH 6 8
ATOM      8  CG1 ILE C   3      58.594  27.634  37.205  1.00 18.05 LIG 0.00  C 
ATOM      9  CD1 ILE C   3      59.112  26.300  37.751  1.00 24.94 LIG 0.01  C 
ENDBRANCH 6 8
ENDBRANCH 5 6
BRANCH 5 10
ATOM     10  C   ILE C   3      56.282  27.652  34.713  1.00 19.56 LIG 0.24  C 
ATOM     11  N   HIS C   4      55.264  27.527  35.541  1.00 25.52 LIG-0.35  N 
ATOM     12 H    HIS C   4      55.163  27.974  36.269  1.00 25.52 LIG 0.16  HD
ATOM     13 O    ILE C   3      56.288  27.069  33.627  1.00 16.93 LIG-0.27  OA
BRANCH 11 14
ATOM     14  CA  HIS C   4      54.190  26.559  35.239  1.00 31.94 LIG 0.18  C 
BRANCH 14 15
ATOM     15  C   HIS C   4      54.828  25.201  35.072  1.00 43.02 LIG 0.24  C 
ATOM     16 O    HIS C   4      54.502  24.558  34.055  1.00 47.49 LIG-0.27  OA
ATOM     17  N   PRO C   5      55.657  24.749  36.085  1.00 55.18 LIG-0.34  N 
ATOM     18  CA  PRO C   5      56.515  23.501  36.156  1.00 55.75 LIG 0.17  C 
ATOM     19  CD  PRO C   5      55.514  25.339  37.442  1.00 48.44 LIG 0.13  C 
ATOM     20  CB  PRO C   5      57.250  23.662  37.491  1.00 55.43 LIG 0.04  C 
ATOM     21  CG  PRO C   5      56.264  24.378  38.364  1.00 51.63 LIG 0.02  C 
BRANCH 18 22
ATOM     22  C   PRO C   5      55.766  22.179  36.215  1.00 57.38 LIG 0.22  C 
ATOM     23 O    PRO C   5      54.959  21.971  37.126  1.00 61.90 LIG-0.29  OA
ENDBRANCH 18 22
ENDBRANCH 14 15
BRANCH 14 24
ATOM     24  CB  HIS C   4      53.360  26.991  33.988  1.00 32.76 LIG 0.10  C 
BRANCH 24 25
ATOM     25  CG  HIS C   4      52.157  27.842  34.281  1.00 32.77 LIG 0.06  A 
ATOM     26 ND1  HIS C   4      51.092  27.947  33.405  1.00 34.96 LIG-0.24  NA
ATOM     27  CE1 HIS C   4      50.167  28.742  33.924  1.00 36.21 LIG 0.23  A 
ATOM     28 NE2  HIS C   4      50.597  29.166  35.105  1.00 34.31 LIG-0.25  NA
ATOM     29  CD2 HIS C   4      51.843  28.619  35.351  1.00 30.94 LIG 0.14  A 
ENDBRANCH 24 25
ENDBRANCH 14 24
ENDBRANCH 11 14
ENDBRANCH 5 10
ENDBRANCH 3 5
BRANCH 1 30
ATOM     30  CA  TYR C   2      56.827  31.588  37.228  1.00 15.99 LIG 0.18  C 
BRANCH 30 31
ATOM     31  N   TYR C   2      56.643  31.204  38.614  1.00 12.71 LIG-0.35  N 
ATOM     32  C   VAL C   1      55.696  30.398  39.009  1.00 12.74 LIG 0.25  C 
ATOM     33 O    VAL C   1      54.935  29.854  38.235  1.00 11.92 LIG-0.27  OA
ATOM     34 H    TYR C   2      57.215  31.557  39.150  1.00 12.71 LIG 0.16  HD
BRANCH 32 35
ATOM     35  CA  VAL C   1      55.547  30.221  40.528  1.00 14.22 LIG 0.28  C 
BRANCH 35 36
ATOM     36  N   VAL C   1      54.088  30.293  40.868  1.00 13.26 LIG-0.07  N 
ATOM     37 H1   VAL C   1      53.947  29.904  41.656  1.00 13.26 LIG 0.28  HD
ATOM     38 H2   VAL C   1      53.834  31.145  40.908  1.00 13.26 LIG 0.28  HD
ATOM     39 H3   VAL C   1      53.616  29.873  40.241  1.00 13.26 LIG 0.28  HD
ENDBRANCH 35 36
BRANCH 35 40
ATOM     40  CB  VAL C   1      56.231  28.960  41.103  1.00 17.02 LIG 0.02  C 
ATOM     41  CG1 VAL C   1      57.521  28.573  40.286  1.00 17.35 LIG 0.01  C 
ATOM     42  CG2 VAL C   1      56.595  29.163  42.509  1.00 19.35 LIG 0.01  C 
ENDBRANCH 35 40
ENDBRANCH 32 35
ENDBRANCH 30 31
BRANCH 30 43
ATOM     43  CB  TYR C   2      57.444  33.031  37.205  1.00 16.65 LIG 0.07  C 
BRANCH 43 44
ATOM     44  CG  TYR C   2      56.412  34.143  37.216  1.00 19.66 LIG-0.06  A 
ATOM     45  CD1 TYR C   2      55.248  34.064  36.521  1.00 23.16 LIG 0.01  A 
ATOM     46  CE1 TYR C   2      54.290  35.120  36.473  1.00 26.66 LIG 0.04  A 
ATOM     47  CZ  TYR C   2      54.514  36.271  37.121  1.00 21.30 LIG 0.07  A 
ATOM     48  CE2 TYR C   2      55.664  36.364  37.824  1.00 23.08 LIG 0.04  A 
ATOM     49  CD2 TYR C   2      56.632  35.338  37.869  1.00 20.76 LIG 0.01  A 
BRANCH 47 50
ATOM     50 OH   TYR C   2      53.532  37.331  37.081  1.00 23.41 LIG-0.36  OA
ATOM     51 HH   TYR C   2      53.357  37.581  37.864  1.00 23.41 LIG 0.22  HD
ENDBRANCH 47 50
ENDBRANCH 43 44
ENDBRANCH 30 43
ENDBRANCH 1 30
TORSDOF 17
ENDMDL
MODEL 12
USER: ADFR SOLUTION from run 166
USER: SCORE 18.439713 LL:  -3.965 LR: -16.518 RR:   0.000 FEB: -11.447
USER: RMSD 1.735373
USER: SEED 165
USER: STATUS searching
USER: GENES 19
USER: genes 0 Translation |==|  0.64002 0.47131 0.55616
USER: genes 1 Rotation |==|  0.49721 0.49167 0.51214 0.99978
USER: genes 2 Torsion [C]-N--CA-[CB] |==|  0.46711
USER: genes 3 Torsion [N]-CA--CB-[CG2] |==|  0.53994
USER: genes 4 Torsion [CA]-CB--CG1-[CD1] |==|  0.82551
USER: genes 5 Torsion [N]-CA--C-[N] |==|  0.43680
USER: genes 6 Torsion [C]-N--CA-[CB] |==|  0.51156
USER: genes 7 Torsion [N]-CA--C-[N] |==|  0.35477
USER: genes 8 Torsion [N]-CA--C-[O] |==|  0.03391
USER: genes 9 Torsion [N]-CA--CB-[CG] |==|  0.47385
USER: genes 10 Torsion [CA]-CB--CG-[ND1] |==|  0.74035
USER: genes 11 Torsion [N]-C--CA-[N] |==|  0.12424
USER: genes 12 Torsion [C]-CA--N-[C] |==|  0.75818
USER: genes 13 Torsion [N]-C--CA-[N] |==|  0.39383
USER: genes 14 Torsion [C]-CA--N-[H2] |==|  0.77444
USER: genes 15 Torsion [C]-CA--CB-[CG1] |==|  0.09823
USER: genes 16 Torsion [C]-CA--CB-[CG] |==|  0.40618
USER: genes 17 Torsion [CA]-CB--CG-[CD1] |==|  0.89319
USER: genes 18 Torsion [CE1]-CZ--OH-[HH] |==|  0.36013
ROOT
ATOM      1  C   TYR C   2      57.809  30.419  36.549  1.00 15.61 LIG 0.24  C 
ATOM      2 O    TYR C   2      58.782  30.740  35.851  1.00 14.40 LIG-0.27  OA
ATOM      3  N   ILE C   3      57.469  29.173  36.727  1.00 16.82 LIG-0.35  N 
ATOM      4 H    ILE C   3      56.931  28.904  37.342  1.00 16.82 LIG 0.16  HD
ENDROOT
BRANCH 3 5
ATOM      5  CA  ILE C   3      57.987  28.113  35.872  1.00 16.46 LIG 0.18  C 
BRANCH 5 6
ATOM      6  CB  ILE C   3      57.679  26.745  36.455  1.00 18.77 LIG 0.01  C 
ATOM      7  CG2 ILE C   3      58.528  25.704  35.741  1.00 19.99 LIG 0.01  C 
BRANCH 6 8
ATOM      8  CG1 ILE C   3      57.982  26.680  37.970  1.00 18.05 LIG 0.00  C 
ATOM      9  CD1 ILE C   3      59.456  26.894  38.325  1.00 24.94 LIG 0.01  C 
ENDBRANCH 6 8
ENDBRANCH 5 6
BRANCH 5 10
ATOM     10  C   ILE C   3      57.373  28.290  34.480  1.00 19.56 LIG 0.24  C 
ATOM     11  N   HIS C   4      58.003  27.769  33.447  1.00 25.52 LIG-0.35  N 
ATOM     12 H    HIS C   4      58.697  27.263  33.496  1.00 25.52 LIG 0.16  HD
ATOM     13 O    ILE C   3      56.310  28.897  34.331  1.00 16.93 LIG-0.27  OA
BRANCH 11 14
ATOM     14  CA  HIS C   4      57.518  28.045  32.079  1.00 31.94 LIG 0.18  C 
BRANCH 14 15
ATOM     15  C   HIS C   4      56.043  27.724  32.040  1.00 43.02 LIG 0.24  C 
ATOM     16 O    HIS C   4      55.719  26.572  32.387  1.00 47.49 LIG-0.27  OA
ATOM     17  N   PRO C   5      55.184  28.696  31.558  1.00 55.18 LIG-0.34  N 
ATOM     18  CA  PRO C   5      53.669  28.715  31.500  1.00 55.75 LIG 0.17  C 
ATOM     19  CD  PRO C   5      55.733  29.764  30.681  1.00 48.44 LIG 0.13  C 
ATOM     20  CB  PRO C   5      53.360  30.114  30.955  1.00 55.43 LIG 0.04  C 
ATOM     21  CG  PRO C   5      54.505  30.404  30.033  1.00 51.63 LIG 0.02  C 
BRANCH 18 22
ATOM     22  C   PRO C   5      53.024  27.714  30.554  1.00 57.38 LIG 0.22  C 
ATOM     23 O    PRO C   5      53.704  26.807  30.065  1.00 61.90 LIG-0.29  OA
ENDBRANCH 18 22
ENDBRANCH 14 15
BRANCH 14 24
ATOM     24  CB  HIS C   4      58.334  27.254  31.007  1.00 32.76 LIG 0.10  C 
BRANCH 24 25
ATOM     25  CG  HIS C   4      57.773  27.300  29.614  1.00 32.77 LIG 0.06  A 
ATOM     26 ND1  HIS C   4      56.917  26.328  29.127  1.00 34.96 LIG-0.24  NA
ATOM     27  CE1 HIS C   4      56.565  26.629  27.886  1.00 36.21 LIG 0.23  A 
ATOM     28 NE2  HIS C   4      57.169  27.760  27.543  1.00 34.31 LIG-0.25  NA
ATOM     29  CD2 HIS C   4      57.934  28.198  28.607  1.00 30.94 LIG 0.14  A 
ENDBRANCH 24 25
ENDBRANCH 14 24
ENDBRANCH 11 14
ENDBRANCH 5 10
ENDBRANCH 3 5
BRANCH 1 30
ATOM     30  CA  TYR C   2      57.002  31.427  37.310  1.00 15.99 LIG 0.18  C 
BRANCH 30 31
ATOM     31  N   TYR C   2      56.744  31.103  38.699  1.00 12.71 LIG-0.35  N 
ATOM     32  C   VAL C   1      55.729  30.380  39.085  1.00 12.74 LIG 0.25  C 
ATOM     33 O    VAL C   1      54.956  29.867  38.301  1.00 11.92 LIG-0.27  OA
ATOM     34 H    TYR C   2      57.322  31.431  39.244  1.00 12.71 LIG 0.16  HD
BRANCH 32 35
ATOM     35  CA  VAL C   1      55.518  30.263  40.602  1.00 14.22 LIG 0.28  C 
BRANCH 35 36
ATOM     36  N   VAL C   1      54.043  30.293  40.874  1.00 13.26 LIG-0.07  N 
ATOM     37 H1   VAL C   1      53.880  29.929  41.670  1.00 13.26 LIG 0.28  HD
ATOM     38 H2   VAL C   1      53.756  31.136  40.870  1.00 13.26 LIG 0.28  HD
ATOM     39 H3   VAL C   1      53.615  29.832  40.244  1.00 13.26 LIG 0.28  HD
ENDBRANCH 35 36
BRANCH 35 40
ATOM     40  CB  VAL C   1      56.221  29.056  41.263  1.00 17.02 LIG 0.02  C 
ATOM     41  CG1 VAL C   1      57.607  28.746  40.582  1.00 17.35 LIG 0.01  C 
ATOM     42  CG2 VAL C   1      56.431  29.298  42.694  1.00 19.35 LIG 0.01  C 
ENDBRANCH 35 40
ENDBRANCH 32 35
ENDBRANCH 30 31
BRANCH 30 43
ATOM     43  CB  TYR C   2      57.604  32.876  37.256  1.00 16.65 LIG 0.07  C 
BRANCH 43 44
ATOM     44  CG  TYR C   2      56.561  33.978  37.255  1.00 19.66 LIG-0.06  A 
ATOM     45  CD1 TYR C   2      55.390  33.873  36.576  1.00 23.16 LIG 0.01  A 
ATOM     46  CE1 TYR C   2      54.421  34.918  36.517  1.00 26.66 LIG 0.04  A 
ATOM     47  CZ  TYR C   2      54.641  36.084  37.137  1.00 21.30 LIG 0.07  A 
ATOM     48  CE2 TYR C   2      55.798  36.204  37.825  1.00 23.08 LIG 0.04  A 
ATOM     49  CD2 TYR C   2      56.777  35.188  37.881  1.00 20.76 LIG 0.01  A 
BRANCH 47 50
ATOM     50 OH   TYR C   2      53.648  37.133  37.086  1.00 23.41 LIG-0.36  OA
ATOM     51 HH   TYR C   2      53.495  37.413  37.864  1.00 23.41 LIG 0.22  HD
ENDBRANCH 47 50
ENDBRANCH 43 44
ENDBRANCH 30 43
ENDBRANCH 1 30
TORSDOF 17
ENDMDL
MODEL 13
USER: ADFR SOLUTION from run 179
USER: SCORE 18.508111 LL:  -4.227 LR: -16.434 RR:   0.000 FEB: -11.363
USER: RMSD 3.216551
USER: SEED 178
USER: STATUS no improvement in best in 14 clusters for 5 generations
USER: GENES 19
USER: genes 0 Translation |==|  0.62969 0.47833 0.55385
USER: genes 1 Rotation |==|  0.54067 0.45777 0.46381 0.99523
USER: genes 2 Torsion [C]-N--CA-[CB] |==|  0.35284
USER: genes 3 Torsion [N]-CA--CB-[CG2] |==|  0.56069
USER: genes 4 Torsion [CA]-CB--CG1-[CD1] |==|  0.50769
USER: genes 5 Torsion [N]-CA--C-[N] |==|  0.90583
USER: genes 6 Torsion [C]-N--CA-[CB] |==|  0.80467
USER: genes 7 Torsion [N]-CA--C-[N] |==|  0.18698
USER: genes 8 Torsion [N]-CA--C-[O] |==|  0.82099
USER: genes 9 Torsion [N]-CA--CB-[CG] |==|  0.83214
USER: genes 10 Torsion [CA]-CB--CG-[ND1] |==|  0.00479
USER: genes 11 Torsion [N]-C--CA-[N] |==|  0.16264
USER: genes 12 Torsion [C]-CA--N-[C] |==|  0.77556
USER: genes 13 Torsion [N]-C--CA-[N] |==|  0.38116
USER: genes 14 Torsion [C]-CA--N-[H2] |==|  0.77441
USER: genes 15 Torsion [C]-CA--CB-[CG1] |==|  0.10454
USER: genes 16 Torsion [C]-CA--CB-[CG] |==|  0.38335
USER: genes 17 Torsion [CA]-CB--CG-[CD1] |==|  0.40355
USER: genes 18 Torsion [CE1]-CZ--OH-[HH] |==|  0.88447
ROOT
ATOM      1  C   TYR C   2      57.654  30.572  36.495  1.00 15.61 LIG 0.24  C 
ATOM      2 O    TYR C   2      58.761  30.804  35.987  1.00 14.40 LIG-0.27  OA
ATOM      3  N   ILE C   3      57.078  29.406  36.392  1.00 16.82 LIG-0.35  N 
ATOM      4 H    ILE C   3      56.417  29.152  36.879  1.00 16.82 LIG 0.16  HD
ENDROOT
BRANCH 3 5
ATOM      5  CA  ILE C   3      57.524  28.421  35.416  1.00 16.46 LIG 0.18  C 
BRANCH 5 6
ATOM      6  CB  ILE C   3      57.812  27.088  36.082  1.00 18.77 LIG 0.01  C 
ATOM      7  CG2 ILE C   3      58.754  26.288  35.195  1.00 19.99 LIG 0.01  C 
BRANCH 6 8
ATOM      8  CG1 ILE C   3      58.469  27.265  37.471  1.00 18.05 LIG 0.00  C 
ATOM      9  CD1 ILE C   3      58.844  25.950  38.161  1.00 24.94 LIG 0.01  C 
ENDBRANCH 6 8
ENDBRANCH 5 6
BRANCH 5 10
ATOM     10  C   ILE C   3      56.437  28.298  34.343  1.00 19.56 LIG 0.24  C 
ATOM     11  N   HIS C   4      55.178  28.438  34.709  1.00 25.52 LIG-0.35  N 
ATOM     12 H    HIS C   4      54.916  28.674  35.494  1.00 25.52 LIG 0.16  HD
ATOM     13 O    ILE C   3      56.731  28.083  33.166  1.00 16.93 LIG-0.27  OA
BRANCH 11 14
ATOM     14  CA  HIS C   4      54.100  28.182  33.733  1.00 31.94 LIG 0.18  C 
BRANCH 14 15
ATOM     15  C   HIS C   4      54.312  26.800  33.164  1.00 43.02 LIG 0.24  C 
ATOM     16 O    HIS C   4      54.559  26.737  31.943  1.00 47.49 LIG-0.27  OA
ATOM     17  N   PRO C   5      54.147  25.720  34.013  1.00 55.18 LIG-0.34  N 
ATOM     18  CA  PRO C   5      54.395  24.244  33.771  1.00 55.75 LIG 0.17  C 
ATOM     19  CD  PRO C   5      53.329  25.897  35.243  1.00 48.44 LIG 0.13  C 
ATOM     20  CB  PRO C   5      54.115  23.616  35.141  1.00 55.43 LIG 0.04  C 
ATOM     21  CG  PRO C   5      53.031  24.475  35.718  1.00 51.63 LIG 0.02  C 
BRANCH 18 22
ATOM     22  C   PRO C   5      53.471  23.566  32.772  1.00 57.38 LIG 0.22  C 
ATOM     23 O    PRO C   5      52.264  23.472  33.018  1.00 61.90 LIG-0.29  OA
ENDBRANCH 18 22
ENDBRANCH 14 15
BRANCH 14 24
ATOM     24  CB  HIS C   4      54.048  29.286  32.628  1.00 32.76 LIG 0.10  C 
BRANCH 24 25
ATOM     25  CG  HIS C   4      53.795  30.679  33.129  1.00 32.77 LIG 0.06  A 
ATOM     26 ND1  HIS C   4      53.654  30.970  34.475  1.00 34.96 LIG-0.24  NA
ATOM     27  CE1 HIS C   4      53.460  32.271  34.631  1.00 36.21 LIG 0.23  A 
ATOM     28 NE2  HIS C   4      53.459  32.839  33.431  1.00 34.31 LIG-0.25  NA
ATOM     29  CD2 HIS C   4      53.663  31.863  32.474  1.00 30.94 LIG 0.14  A 
ENDBRANCH 24 25
ENDBRANCH 14 24
ENDBRANCH 11 14
ENDBRANCH 5 10
ENDBRANCH 3 5
BRANCH 1 30
ATOM     30  CA  TYR C   2      56.932  31.580  37.337  1.00 15.99 LIG 0.18  C 
BRANCH 30 31
ATOM     31  N   TYR C   2      56.694  31.191  38.713  1.00 12.71 LIG-0.35  N 
ATOM     32  C   VAL C   1      55.712  30.410  39.072  1.00 12.74 LIG 0.25  C 
ATOM     33 O    VAL C   1      54.959  29.895  38.270  1.00 11.92 LIG-0.27  OA
ATOM     34 H    TYR C   2      57.259  31.522  39.269  1.00 12.71 LIG 0.16  HD
BRANCH 32 35
ATOM     35  CA  VAL C   1      55.511  30.225  40.584  1.00 14.22 LIG 0.28  C 
BRANCH 35 36
ATOM     36  N   VAL C   1      54.041  30.293  40.874  1.00 13.26 LIG-0.07  N 
ATOM     37 H1   VAL C   1      53.874  29.895  41.652  1.00 13.26 LIG 0.28  HD
ATOM     38 H2   VAL C   1      53.785  31.145  40.915  1.00 13.26 LIG 0.28  HD
ATOM     39 H3   VAL C   1      53.592  29.879  40.227  1.00 13.26 LIG 0.28  HD
ENDBRANCH 35 36
BRANCH 35 40
ATOM     40  CB  VAL C   1      56.178  28.963  41.176  1.00 17.02 LIG 0.02  C 
ATOM     41  CG1 VAL C   1      57.572  28.671  40.505  1.00 17.35 LIG 0.01  C 
ATOM     42  CG2 VAL C   1      56.362  29.104  42.624  1.00 19.35 LIG 0.01  C 
ENDBRANCH 35 40
ENDBRANCH 32 35
ENDBRANCH 30 31
BRANCH 30 43
ATOM     43  CB  TYR C   2      57.621  32.990  37.347  1.00 16.65 LIG 0.07  C 
BRANCH 43 44
ATOM     44  CG  TYR C   2      56.650  34.152  37.243  1.00 19.66 LIG-0.06  A 
ATOM     45  CD1 TYR C   2      56.856  35.334  37.879  1.00 23.16 LIG 0.01  A 
ATOM     46  CE1 TYR C   2      55.930  36.418  37.838  1.00 26.66 LIG 0.04  A 
ATOM     47  CZ  TYR C   2      54.780  36.304  37.162  1.00 21.30 LIG 0.07  A 
ATOM     48  CE2 TYR C   2      54.561  35.138  36.516  1.00 23.08 LIG 0.04  A 
ATOM     49  CD2 TYR C   2      55.456  34.047  36.559  1.00 20.76 LIG 0.01  A 
BRANCH 47 50
ATOM     50 OH   TYR C   2      53.853  37.412  37.112  1.00 23.41 LIG-0.36  OA
ATOM     51 HH   TYR C   2      53.803  37.771  37.871  1.00 23.41 LIG 0.22  HD
ENDBRANCH 47 50
ENDBRANCH 43 44
ENDBRANCH 30 43
ENDBRANCH 1 30
TORSDOF 17
ENDMDL
MODEL 14
USER: ADFR SOLUTION from run 58
USER: SCORE 18.055436 LL:  -3.902 LR: -16.432 RR:   0.000 FEB: -11.360
USER: RMSD 3.634982
USER: SEED 57
USER: STATUS no improvement in best in 8 clusters for 5 generations
USER: GENES 19
USER: genes 0 Translation |==|  0.62505 0.48263 0.55045
USER: genes 1 Rotation |==|  0.55878 0.44296 0.44810 0.99051
USER: genes 2 Torsion [C]-N--CA-[CB] |==|  0.22144
USER: genes 3 Torsion [N]-CA--CB-[CG2] |==|  0.73720
USER: genes 4 Torsion [CA]-CB--CG1-[CD1] |==|  0.41585
USER: genes 5 Torsion [N]-CA--C-[N] |==|  0.20984
USER: genes 6 Torsion [C]-N--CA-[CB] |==|  0.24184
USER: genes 7 Torsion [N]-CA--C-[N] |==|  0.43617
USER: genes 8 Torsion [N]-CA--C-[O] |==|  0.90766
USER: genes 9 Torsion [N]-CA--CB-[CG] |==|  0.29564
USER: genes 10 Torsion [CA]-CB--CG-[ND1] |==|  0.32420
USER: genes 11 Torsion [N]-C--CA-[N] |==|  0.18276
USER: genes 12 Torsion [C]-CA--N-[C] |==|  0.77778
USER: genes 13 Torsion [N]-C--CA-[N] |==|  0.37740
USER: genes 14 Torsion [C]-CA--N-[H2] |==|  0.11881
USER: genes 15 Torsion [C]-CA--CB-[CG1] |==|  0.09513
USER: genes 16 Torsion [C]-CA--CB-[CG] |==|  0.38047
USER: genes 17 Torsion [CA]-CB--CG-[CD1] |==|  0.40257
USER: genes 18 Torsion [CE1]-CZ--OH-[HH] |==|  0.82283
ROOT
ATOM      1  C   TYR C   2      57.585  30.665  36.416  1.00 15.61 LIG 0.24  C 
ATOM      2 O    TYR C   2      58.733  30.862  35.992  1.00 14.40 LIG-0.27  OA
ATOM      3  N   ILE C   3      56.947  29.550  36.192  1.00 16.82 LIG-0.35  N 
ATOM      4 H    ILE C   3      56.243  29.304  36.619  1.00 16.82 LIG 0.16  HD
ENDROOT
BRANCH 3 5
ATOM      5  CA  ILE C   3      57.393  28.611  35.171  1.00 16.46 LIG 0.18  C 
BRANCH 5 6
ATOM      6  CB  ILE C   3      58.551  27.769  35.676  1.00 18.77 LIG 0.01  C 
ATOM      7  CG2 ILE C   3      59.857  28.418  35.244  1.00 19.99 LIG 0.01  C 
BRANCH 6 8
ATOM      8  CG1 ILE C   3      58.545  27.643  37.217  1.00 18.05 LIG 0.00  C 
ATOM      9  CD1 ILE C   3      59.136  26.332  37.743  1.00 24.94 LIG 0.01  C 
ENDBRANCH 6 8
ENDBRANCH 5 6
BRANCH 5 10
ATOM     10  C   ILE C   3      56.193  27.747  34.771  1.00 19.56 LIG 0.24  C 
ATOM     11  N   HIS C   4      55.268  28.280  33.997  1.00 25.52 LIG-0.35  N 
ATOM     12 H    HIS C   4      55.321  29.055  33.628  1.00 25.52 LIG 0.16  HD
ATOM     13 O    ILE C   3      56.098  26.580  35.155  1.00 16.93 LIG-0.27  OA
BRANCH 11 14
ATOM     14  CA  HIS C   4      54.029  27.527  33.713  1.00 31.94 LIG 0.18  C 
BRANCH 14 15
ATOM     15  C   HIS C   4      53.562  27.914  32.332  1.00 43.02 LIG 0.24  C 
ATOM     16 O    HIS C   4      53.903  29.043  31.928  1.00 47.49 LIG-0.27  OA
ATOM     17  N   PRO C   5      52.740  27.027  31.657  1.00 55.18 LIG-0.34  N 
ATOM     18  CA  PRO C   5      52.209  27.080  30.238  1.00 55.75 LIG 0.17  C 
ATOM     19  CD  PRO C   5      51.978  26.021  32.442  1.00 48.44 LIG 0.13  C 
ATOM     20  CB  PRO C   5      51.457  25.751  30.100  1.00 55.43 LIG 0.04  C 
ATOM     21  CG  PRO C   5      50.917  25.496  31.474  1.00 51.63 LIG 0.02  C 
BRANCH 18 22
ATOM     22  C   PRO C   5      51.213  28.189  29.938  1.00 57.38 LIG 0.22  C 
ATOM     23 O    PRO C   5      50.432  28.567  30.817  1.00 61.90 LIG-0.29  OA
ENDBRANCH 18 22
ENDBRANCH 14 15
BRANCH 14 24
ATOM     24  CB  HIS C   4      52.941  27.774  34.807  1.00 32.76 LIG 0.10  C 
BRANCH 24 25
ATOM     25  CG  HIS C   4      51.798  28.652  34.385  1.00 32.77 LIG 0.06  A 
ATOM     26 ND1  HIS C   4      50.494  28.192  34.321  1.00 34.96 LIG-0.24  NA
ATOM     27  CE1 HIS C   4      49.694  29.176  33.940  1.00 36.21 LIG 0.23  A 
ATOM     28 NE2  HIS C   4      50.433  30.262  33.743  1.00 34.31 LIG-0.25  NA
ATOM     29  CD2 HIS C   4      51.754  29.958  34.011  1.00 30.94 LIG 0.14  A 
ENDBRANCH 24 25
ENDBRANCH 14 24
ENDBRANCH 11 14
ENDBRANCH 5 10
ENDBRANCH 3 5
BRANCH 1 30
ATOM     30  CA  TYR C   2      56.873  31.655  37.289  1.00 15.99 LIG 0.18  C 
BRANCH 30 31
ATOM     31  N   TYR C   2      56.672  31.244  38.665  1.00 12.71 LIG-0.35  N 
ATOM     32  C   VAL C   1      55.716  30.437  39.034  1.00 12.74 LIG 0.25  C 
ATOM     33 O    VAL C   1      54.959  29.914  38.241  1.00 11.92 LIG-0.27  OA
ATOM     34 H    TYR C   2      57.240  31.582  39.214  1.00 12.71 LIG 0.16  HD
BRANCH 32 35
ATOM     35  CA  VAL C   1      55.550  30.230  40.547  1.00 14.22 LIG 0.28  C 
BRANCH 35 36
ATOM     36  N   VAL C   1      54.087  30.293  40.872  1.00 13.26 LIG-0.07  N 
ATOM     37 H1   VAL C   1      53.820  31.142  40.874  1.00 13.26 LIG 0.28  HD
ATOM     38 H2   VAL C   1      53.626  29.839  40.260  1.00 13.26 LIG 0.28  HD
ATOM     39 H3   VAL C   1      53.945  29.935  41.675  1.00 13.26 LIG 0.28  HD
ENDBRANCH 35 36
BRANCH 35 40
ATOM     40  CB  VAL C   1      56.230  28.959  41.105  1.00 17.02 LIG 0.02  C 
ATOM     41  CG1 VAL C   1      57.565  28.629  40.340  1.00 17.35 LIG 0.01  C 
ATOM     42  CG2 VAL C   1      56.519  29.111  42.535  1.00 19.35 LIG 0.01  C 
ENDBRANCH 35 40
ENDBRANCH 32 35
ENDBRANCH 30 31
BRANCH 30 43
ATOM     43  CB  TYR C   2      57.548  33.072  37.303  1.00 16.65 LIG 0.07  C 
BRANCH 43 44
ATOM     44  CG  TYR C   2      56.565  34.224  37.213  1.00 19.66 LIG-0.06  A 
ATOM     45  CD1 TYR C   2      56.761  35.402  37.860  1.00 23.16 LIG 0.01  A 
ATOM     46  CE1 TYR C   2      55.824  36.477  37.833  1.00 26.66 LIG 0.04  A 
ATOM     47  CZ  TYR C   2      54.672  36.357  37.159  1.00 21.30 LIG 0.07  A 
ATOM     48  CE2 TYR C   2      54.464  35.196  36.502  1.00 23.08 LIG 0.04  A 
ATOM     49  CD2 TYR C   2      55.371  34.114  36.531  1.00 20.76 LIG 0.01  A 
BRANCH 47 50
ATOM     50 OH   TYR C   2      53.734  37.457  37.123  1.00 23.41 LIG-0.36  OA
ATOM     51 HH   TYR C   2      53.452  37.610  37.899  1.00 23.41 LIG 0.22  HD
ENDBRANCH 47 50
ENDBRANCH 43 44
ENDBRANCH 30 43
ENDBRANCH 1 30
TORSDOF 17
ENDMDL
MODEL 15
USER: ADFR SOLUTION from run 116
USER: SCORE 17.952181 LL:  -3.760 LR: -16.363 RR:   0.000 FEB: -11.292
USER: RMSD 3.004769
USER: SEED 115
USER: STATUS no improvement in best in 11 clusters for 5 generations
USER: GENES 19
USER: genes 0 Translation |==|  0.65227 0.46871 0.55912
USER: genes 1 Rotation |==|  0.44321 0.56015 0.56025 0.98941
USER: genes 2 Torsion [C]-N--CA-[CB] |==|  0.49444
USER: genes 3 Torsion [N]-CA--CB-[CG2] |==|  0.83266
USER: genes 4 Torsion [CA]-CB--CG1-[CD1] |==|  0.57530
USER: genes 5 Torsion [N]-CA--C-[N] |==|  0.48328
USER: genes 6 Torsion [C]-N--CA-[CB] |==|  0.49464
USER: genes 7 Torsion [N]-CA--C-[N] |==|  0.83678
USER: genes 8 Torsion [N]-CA--C-[O] |==|  0.63938
USER: genes 9 Torsion [N]-CA--CB-[CG] |==|  0.07959
USER: genes 10 Torsion [CA]-CB--CG-[ND1] |==|  0.86186
USER: genes 11 Torsion [N]-C--CA-[N] |==|  0.05782
USER: genes 12 Torsion [C]-CA--N-[C] |==|  0.75491
USER: genes 13 Torsion [N]-C--CA-[N] |==|  0.40551
USER: genes 14 Torsion [C]-CA--N-[H2] |==|  0.77654
USER: genes 15 Torsion [C]-CA--CB-[CG1] |==|  0.41658
USER: genes 16 Torsion [C]-CA--CB-[CG] |==|  0.41282
USER: genes 17 Torsion [CA]-CB--CG-[CD1] |==|  0.90000
USER: genes 18 Torsion [CE1]-CZ--OH-[HH] |==|  0.34189
ROOT
ATOM      1  C   TYR C   2      57.993  30.362  36.618  1.00 15.61 LIG 0.24  C 
ATOM      2 O    TYR C   2      58.676  30.647  35.622  1.00 14.40 LIG-0.27  OA
ATOM      3  N   ILE C   3      57.982  29.162  37.126  1.00 16.82 LIG-0.35  N 
ATOM      4 H    ILE C   3      57.680  28.974  37.909  1.00 16.82 LIG 0.16  HD
ENDROOT
BRANCH 3 5
ATOM      5  CA  ILE C   3      58.493  28.016  36.384  1.00 16.46 LIG 0.18  C 
BRANCH 5 6
ATOM      6  CB  ILE C   3      58.410  26.749  37.216  1.00 18.77 LIG 0.01  C 
ATOM      7  CG2 ILE C   3      59.245  26.932  38.475  1.00 19.99 LIG 0.01  C 
BRANCH 6 8
ATOM      8  CG1 ILE C   3      56.956  26.422  37.628  1.00 18.05 LIG 0.00  C 
ATOM      9  CD1 ILE C   3      56.836  25.620  38.927  1.00 24.94 LIG 0.01  C 
ENDBRANCH 6 8
ENDBRANCH 5 6
BRANCH 5 10
ATOM     10  C   ILE C   3      57.686  27.900  35.087  1.00 19.56 LIG 0.24  C 
ATOM     11  N   HIS C   4      58.057  27.000  34.198  1.00 25.52 LIG-0.35  N 
ATOM     12 H    HIS C   4      58.673  26.412  34.319  1.00 25.52 LIG 0.16  HD
ATOM     13 O    ILE C   3      56.708  28.622  34.885  1.00 16.93 LIG-0.27  OA
BRANCH 11 14
ATOM     14  CA  HIS C   4      57.393  26.960  32.879  1.00 31.94 LIG 0.18  C 
BRANCH 14 15
ATOM     15  C   HIS C   4      55.915  26.763  33.112  1.00 43.02 LIG 0.24  C 
ATOM     16 O    HIS C   4      55.166  27.678  32.716  1.00 47.49 LIG-0.27  OA
ATOM     17  N   PRO C   5      55.516  25.633  33.804  1.00 55.18 LIG-0.34  N 
ATOM     18  CA  PRO C   5      54.122  25.109  34.092  1.00 55.75 LIG 0.17  C 
ATOM     19  CD  PRO C   5      56.502  24.946  34.680  1.00 48.44 LIG 0.13  C 
ATOM     20  CB  PRO C   5      54.392  23.777  34.801  1.00 55.43 LIG 0.04  C 
ATOM     21  CG  PRO C   5      55.661  24.023  35.561  1.00 51.63 LIG 0.02  C 
BRANCH 18 22
ATOM     22  C   PRO C   5      53.274  25.951  35.031  1.00 57.38 LIG 0.22  C 
ATOM     23 O    PRO C   5      52.708  25.419  35.991  1.00 61.90 LIG-0.29  OA
ENDBRANCH 18 22
ENDBRANCH 14 15
BRANCH 14 24
ATOM     24  CB  HIS C   4      58.009  25.858  31.958  1.00 32.76 LIG 0.10  C 
BRANCH 24 25
ATOM     25  CG  HIS C   4      58.593  24.676  32.678  1.00 32.77 LIG 0.06  A 
ATOM     26 ND1  HIS C   4      59.480  24.814  33.731  1.00 34.96 LIG-0.24  NA
ATOM     27  CE1 HIS C   4      59.816  23.616  34.188  1.00 36.21 LIG 0.23  A 
ATOM     28 NE2  HIS C   4      59.186  22.701  33.462  1.00 34.31 LIG-0.25  NA
ATOM     29  CD2 HIS C   4      58.416  23.339  32.508  1.00 30.94 LIG 0.14  A 
ENDBRANCH 24 25
ENDBRANCH 14 24
ENDBRANCH 11 14
ENDBRANCH 5 10
ENDBRANCH 3 5
BRANCH 1 30
ATOM     30  CA  TYR C   2      57.197  31.390  37.364  1.00 15.99 LIG 0.18  C 
BRANCH 30 31
ATOM     31  N   TYR C   2      56.915  31.078  38.751  1.00 12.71 LIG-0.35  N 
ATOM     32  C   VAL C   1      55.869  30.396  39.129  1.00 12.74 LIG 0.25  C 
ATOM     33 O    VAL C   1      55.082  29.914  38.339  1.00 11.92 LIG-0.27  OA
ATOM     34 H    TYR C   2      57.502  31.383  39.301  1.00 12.71 LIG 0.16  HD
BRANCH 32 35
ATOM     35  CA  VAL C   1      55.640  30.289  40.644  1.00 14.22 LIG 0.28  C 
BRANCH 35 36
ATOM     36  N   VAL C   1      54.162  30.274  40.897  1.00 13.26 LIG-0.07  N 
ATOM     37 H1   VAL C   1      54.001  29.924  41.699  1.00 13.26 LIG 0.28  HD
ATOM     38 H2   VAL C   1      53.847  31.106  40.868  1.00 13.26 LIG 0.28  HD
ATOM     39 H3   VAL C   1      53.759  29.784  40.272  1.00 13.26 LIG 0.28  HD
ENDBRANCH 35 36
BRANCH 35 40
ATOM     40  CB  VAL C   1      56.373  29.113  41.328  1.00 17.02 LIG 0.02  C 
ATOM     41  CG1 VAL C   1      56.746  29.448  42.821  1.00 17.35 LIG 0.01  C 
ATOM     42  CG2 VAL C   1      55.550  27.900  41.298  1.00 19.35 LIG 0.01  C 
ENDBRANCH 35 40
ENDBRANCH 32 35
ENDBRANCH 30 31
BRANCH 30 43
ATOM     43  CB  TYR C   2      57.829  32.826  37.312  1.00 16.65 LIG 0.07  C 
BRANCH 43 44
ATOM     44  CG  TYR C   2      56.811  33.950  37.351  1.00 19.66 LIG-0.06  A 
ATOM     45  CD1 TYR C   2      55.601  33.859  36.741  1.00 23.16 LIG 0.01  A 
ATOM     46  CE1 TYR C   2      54.652  34.924  36.719  1.00 26.66 LIG 0.04  A 
ATOM     47  CZ  TYR C   2      54.932  36.096  37.304  1.00 21.30 LIG 0.07  A 
ATOM     48  CE2 TYR C   2      56.128  36.202  37.923  1.00 23.08 LIG 0.04  A 
ATOM     49  CD2 TYR C   2      57.087  35.166  37.941  1.00 20.76 LIG 0.01  A 
BRANCH 47 50
ATOM     50 OH   TYR C   2      53.959  37.165  37.292  1.00 23.41 LIG-0.36  OA
ATOM     51 HH   TYR C   2      53.789  37.400  38.080  1.00 23.41 LIG 0.22  HD
ENDBRANCH 47 50
ENDBRANCH 43 44
ENDBRANCH 30 43
ENDBRANCH 1 30
TORSDOF 17
ENDMDL
MODEL 16
USER: ADFR SOLUTION from run 156
USER: SCORE 18.172619 LL:  -3.610 LR: -16.227 RR:   0.000 FEB: -11.156
USER: RMSD 4.466771
USER: SEED 155
USER: STATUS no improvement in best in 12 clusters for 5 generations
USER: GENES 19
USER: genes 0 Translation |==|  0.62453 0.46986 0.55023
USER: genes 1 Rotation |==|  0.53630 0.44765 0.45959 0.99428
USER: genes 2 Torsion [C]-N--CA-[CB] |==|  0.19955
USER: genes 3 Torsion [N]-CA--CB-[CG2] |==|  0.75052
USER: genes 4 Torsion [CA]-CB--CG1-[CD1] |==|  0.31398
USER: genes 5 Torsion [N]-CA--C-[N] |==|  0.84861
USER: genes 6 Torsion [C]-N--CA-[CB] |==|  0.86808
USER: genes 7 Torsion [N]-CA--C-[N] |==|  0.29142
USER: genes 8 Torsion [N]-CA--C-[O] |==|  0.16287
USER: genes 9 Torsion [N]-CA--CB-[CG] |==|  0.42290
USER: genes 10 Torsion [CA]-CB--CG-[ND1] |==|  0.19857
USER: genes 11 Torsion [N]-C--CA-[N] |==|  0.17778
USER: genes 12 Torsion [C]-CA--N-[C] |==|  0.77561
USER: genes 13 Torsion [N]-C--CA-[N] |==|  0.38053
USER: genes 14 Torsion [C]-CA--N-[H2] |==|  0.77799
USER: genes 15 Torsion [C]-CA--CB-[CG1] |==|  0.09730
USER: genes 16 Torsion [C]-CA--CB-[CG] |==|  0.40489
USER: genes 17 Torsion [CA]-CB--CG-[CD1] |==|  0.87324
USER: genes 18 Torsion [CE1]-CZ--OH-[HH] |==|  0.34766
ROOT
ATOM      1  C   TYR C   2      57.577  30.387  36.411  1.00 15.61 LIG 0.24  C 
ATOM      2 O    TYR C   2      58.707  30.586  35.941  1.00 14.40 LIG-0.27  OA
ATOM      3  N   ILE C   3      56.979  29.233  36.308  1.00 16.82 LIG-0.35  N 
ATOM      4 H    ILE C   3      56.295  29.002  36.774  1.00 16.82 LIG 0.16  HD
ENDROOT
BRANCH 3 5
ATOM      5  CA  ILE C   3      57.440  28.220  35.366  1.00 16.46 LIG 0.18  C 
BRANCH 5 6
ATOM      6  CB  ILE C   3      58.749  27.606  35.827  1.00 18.77 LIG 0.01  C 
ATOM      7  CG2 ILE C   3      59.901  28.416  35.252  1.00 19.99 LIG 0.01  C 
BRANCH 6 8
ATOM      8  CG1 ILE C   3      58.872  27.594  37.369  1.00 18.05 LIG 0.00  C 
ATOM      9  CD1 ILE C   3      58.858  26.194  37.989  1.00 24.94 LIG 0.01  C 
ENDBRANCH 6 8
ENDBRANCH 5 6
BRANCH 5 10
ATOM     10  C   ILE C   3      56.334  27.168  35.232  1.00 19.56 LIG 0.24  C 
ATOM     11  N   HIS C   4      55.882  26.592  36.328  1.00 25.52 LIG-0.35  N 
ATOM     12 H    HIS C   4      56.102  26.815  37.130  1.00 25.52 LIG 0.16  HD
ATOM     13 O    ILE C   3      55.871  26.874  34.128  1.00 16.93 LIG-0.27  OA
BRANCH 11 14
ATOM     14  CA  HIS C   4      54.924  25.472  36.224  1.00 31.94 LIG 0.18  C 
BRANCH 14 15
ATOM     15  C   HIS C   4      55.697  24.240  35.824  1.00 43.02 LIG 0.24  C 
ATOM     16 O    HIS C   4      56.003  24.146  34.619  1.00 47.49 LIG-0.27  OA
ATOM     17  N   PRO C   5      55.939  23.285  36.797  1.00 55.18 LIG-0.34  N 
ATOM     18  CA  PRO C   5      56.768  22.018  36.733  1.00 55.75 LIG 0.17  C 
ATOM     19  CD  PRO C   5      55.065  23.254  38.000  1.00 48.44 LIG 0.13  C 
ATOM     20  CB  PRO C   5      56.702  21.487  38.169  1.00 55.43 LIG 0.04  C 
ATOM     21  CG  PRO C   5      55.339  21.895  38.643  1.00 51.63 LIG 0.02  C 
BRANCH 18 22
ATOM     22  C   PRO C   5      56.238  20.918  35.826  1.00 57.38 LIG 0.22  C 
ATOM     23 O    PRO C   5      56.067  21.144  34.624  1.00 61.90 LIG-0.29  OA
ENDBRANCH 18 22
ENDBRANCH 14 15
BRANCH 14 24
ATOM     24  CB  HIS C   4      53.760  25.800  35.234  1.00 32.76 LIG 0.10  C 
BRANCH 24 25
ATOM     25  CG  HIS C   4      53.137  24.609  34.563  1.00 32.77 LIG 0.06  A 
ATOM     26 ND1  HIS C   4      52.333  23.711  35.243  1.00 34.96 LIG-0.24  NA
ATOM     27  CE1 HIS C   4      51.906  22.776  34.408  1.00 36.21 LIG 0.23  A 
ATOM     28 NE2  HIS C   4      52.413  23.027  33.207  1.00 34.31 LIG-0.25  NA
ATOM     29  CD2 HIS C   4      53.190  24.168  33.279  1.00 30.94 LIG 0.14  A 
ENDBRANCH 24 25
ENDBRANCH 14 24
ENDBRANCH 11 14
ENDBRANCH 5 10
ENDBRANCH 3 5
BRANCH 1 30
ATOM     30  CA  TYR C   2      56.846  31.427  37.206  1.00 15.99 LIG 0.18  C 
BRANCH 30 31
ATOM     31  N   TYR C   2      56.656  31.121  38.611  1.00 12.71 LIG-0.35  N 
ATOM     32  C   VAL C   1      55.709  30.337  39.047  1.00 12.74 LIG 0.25  C 
ATOM     33 O    VAL C   1      54.952  29.749  38.301  1.00 11.92 LIG-0.27  OA
ATOM     34 H    TYR C   2      57.225  31.505  39.129  1.00 12.71 LIG 0.16  HD
BRANCH 32 35
ATOM     35  CA  VAL C   1      55.554  30.245  40.572  1.00 14.22 LIG 0.28  C 
BRANCH 35 36
ATOM     36  N   VAL C   1      54.091  30.293  40.899  1.00 13.26 LIG-0.07  N 
ATOM     37 H1   VAL C   1      53.957  29.959  41.713  1.00 13.26 LIG 0.28  HD
ATOM     38 H2   VAL C   1      53.808  31.137  40.874  1.00 13.26 LIG 0.28  HD
ATOM     39 H3   VAL C   1      53.638  29.812  40.303  1.00 13.26 LIG 0.28  HD
ENDBRANCH 35 36
BRANCH 35 40
ATOM     40  CB  VAL C   1      56.270  29.041  41.225  1.00 17.02 LIG 0.02  C 
ATOM     41  CG1 VAL C   1      57.622  28.701  40.492  1.00 17.35 LIG 0.01  C 
ATOM     42  CG2 VAL C   1      56.544  29.305  42.641  1.00 19.35 LIG 0.01  C 
ENDBRANCH 35 40
ENDBRANCH 32 35
ENDBRANCH 30 31
BRANCH 30 43
ATOM     43  CB  TYR C   2      57.491  32.854  37.107  1.00 16.65 LIG 0.07  C 
BRANCH 43 44
ATOM     44  CG  TYR C   2      56.485  33.990  37.143  1.00 19.66 LIG-0.06  A 
ATOM     45  CD1 TYR C   2      55.343  33.975  36.408  1.00 23.16 LIG 0.01  A 
ATOM     46  CE1 TYR C   2      54.411  35.055  36.385  1.00 26.66 LIG 0.04  A 
ATOM     47  CZ  TYR C   2      54.640  36.165  37.099  1.00 21.30 LIG 0.07  A 
ATOM     48  CE2 TYR C   2      55.768  36.194  37.842  1.00 23.08 LIG 0.04  A 
ATOM     49  CD2 TYR C   2      56.710  35.143  37.865  1.00 20.76 LIG 0.01  A 
BRANCH 47 50
ATOM     50 OH   TYR C   2      53.684  37.250  37.083  1.00 23.41 LIG-0.36  OA
ATOM     51 HH   TYR C   2      53.458  37.436  37.871  1.00 23.41 LIG 0.22  HD
ENDBRANCH 47 50
ENDBRANCH 43 44
ENDBRANCH 30 43
ENDBRANCH 1 30
TORSDOF 17
ENDMDL
MODEL 17
USER: ADFR SOLUTION from run 151
USER: SCORE 18.403779 LL:  -3.673 LR: -16.187 RR:   0.000 FEB: -11.116
USER: RMSD 2.669114
USER: SEED 150
USER: STATUS no improvement in best in 9 clusters for 5 generations
USER: GENES 19
USER: genes 0 Translation |==|  0.64957 0.47739 0.56068
USER: genes 1 Rotation |==|  0.46405 0.53890 0.55846 0.99374
USER: genes 2 Torsion [C]-N--CA-[CB] |==|  0.50754
USER: genes 3 Torsion [N]-CA--CB-[CG2] |==|  0.79417
USER: genes 4 Torsion [CA]-CB--CG1-[CD1] |==|  0.41331
USER: genes 5 Torsion [N]-CA--C-[N] |==|  0.49444
USER: genes 6 Torsion [C]-N--CA-[CB] |==|  0.51882
USER: genes 7 Torsion [N]-CA--C-[N] |==|  0.38240
USER: genes 8 Torsion [N]-CA--C-[O] |==|  0.91794
USER: genes 9 Torsion [N]-CA--CB-[CG] |==|  0.09708
USER: genes 10 Torsion [CA]-CB--CG-[ND1] |==|  0.61606
USER: genes 11 Torsion [N]-C--CA-[N] |==|  0.07201
USER: genes 12 Torsion [C]-CA--N-[C] |==|  0.75471
USER: genes 13 Torsion [N]-C--CA-[N] |==|  0.38846
USER: genes 14 Torsion [C]-CA--N-[H2] |==|  0.77740
USER: genes 15 Torsion [C]-CA--CB-[CG1] |==|  0.09716
USER: genes 16 Torsion [C]-CA--CB-[CG] |==|  0.39860
USER: genes 17 Torsion [CA]-CB--CG-[CD1] |==|  0.91178
USER: genes 18 Torsion [CE1]-CZ--OH-[HH] |==|  0.34637
ROOT
ATOM      1  C   TYR C   2      57.953  30.551  36.654  1.00 15.61 LIG 0.24  C 
ATOM      2 O    TYR C   2      58.711  30.918  35.744  1.00 14.40 LIG-0.27  OA
ATOM      3  N   ILE C   3      57.895  29.309  37.046  1.00 16.82 LIG-0.35  N 
ATOM      4 H    ILE C   3      57.534  29.053  37.783  1.00 16.82 LIG 0.16  HD
ENDROOT
BRANCH 3 5
ATOM      5  CA  ILE C   3      58.455  28.230  36.241  1.00 16.46 LIG 0.18  C 
BRANCH 5 6
ATOM      6  CB  ILE C   3      58.199  26.881  36.888  1.00 18.77 LIG 0.01  C 
ATOM      7  CG2 ILE C   3      59.124  26.727  38.086  1.00 19.99 LIG 0.01  C 
BRANCH 6 8
ATOM      8  CG1 ILE C   3      56.736  26.738  37.368  1.00 18.05 LIG 0.00  C 
ATOM      9  CD1 ILE C   3      56.195  25.306  37.319  1.00 24.94 LIG 0.01  C 
ENDBRANCH 6 8
ENDBRANCH 5 6
BRANCH 5 10
ATOM     10  C   ILE C   3      57.835  28.318  34.843  1.00 19.56 LIG 0.24  C 
ATOM     11  N   HIS C   4      58.230  27.456  33.928  1.00 25.52 LIG-0.35  N 
ATOM     12 H    HIS C   4      58.755  26.790  34.072  1.00 25.52 LIG 0.16  HD
ATOM     13 O    ILE C   3      56.980  29.168  34.583  1.00 16.93 LIG-0.27  OA
BRANCH 11 14
ATOM     14  CA  HIS C   4      57.763  27.604  32.534  1.00 31.94 LIG 0.18  C 
BRANCH 14 15
ATOM     15  C   HIS C   4      56.265  27.786  32.567  1.00 43.02 LIG 0.24  C 
ATOM     16 O    HIS C   4      55.630  27.008  33.305  1.00 47.49 LIG-0.27  OA
ATOM     17  N   PRO C   5      55.712  28.741  31.731  1.00 55.18 LIG-0.34  N 
ATOM     18  CA  PRO C   5      54.280  29.226  31.620  1.00 55.75 LIG 0.17  C 
ATOM     19  CD  PRO C   5      56.486  29.182  30.540  1.00 48.44 LIG 0.13  C 
ATOM     20  CB  PRO C   5      54.375  30.354  30.586  1.00 55.43 LIG 0.04  C 
ATOM     21  CG  PRO C   5      55.466  29.905  29.661  1.00 51.63 LIG 0.02  C 
BRANCH 18 22
ATOM     22  C   PRO C   5      53.273  28.218  31.090  1.00 57.38 LIG 0.22  C 
ATOM     23 O    PRO C   5      53.638  27.342  30.301  1.00 61.90 LIG-0.29  OA
ENDBRANCH 18 22
ENDBRANCH 14 15
BRANCH 14 24
ATOM     24  CB  HIS C   4      58.203  26.395  31.648  1.00 32.76 LIG 0.10  C 
BRANCH 24 25
ATOM     25  CG  HIS C   4      58.227  25.065  32.347  1.00 32.77 LIG 0.06  A 
ATOM     26 ND1  HIS C   4      59.244  24.147  32.159  1.00 34.96 LIG-0.24  NA
ATOM     27  CE1 HIS C   4      59.022  23.078  32.909  1.00 36.21 LIG 0.23  A 
ATOM     28 NE2  HIS C   4      57.888  23.264  33.574  1.00 34.31 LIG-0.25  NA
ATOM     29  CD2 HIS C   4      57.369  24.499  33.236  1.00 30.94 LIG 0.14  A 
ENDBRANCH 24 25
ENDBRANCH 14 24
ENDBRANCH 11 14
ENDBRANCH 5 10
ENDBRANCH 3 5
BRANCH 1 30
ATOM     30  CA  TYR C   2      57.108  31.516  37.430  1.00 15.99 LIG 0.18  C 
BRANCH 30 31
ATOM     31  N   TYR C   2      56.815  31.132  38.797  1.00 12.71 LIG-0.35  N 
ATOM     32  C   VAL C   1      55.788  30.399  39.127  1.00 12.74 LIG 0.25  C 
ATOM     33 O    VAL C   1      55.031  29.926  38.303  1.00 11.92 LIG-0.27  OA
ATOM     34 H    TYR C   2      57.382  31.433  39.370  1.00 12.71 LIG 0.16  HD
BRANCH 32 35
ATOM     35  CA  VAL C   1      55.539  30.217  40.632  1.00 14.22 LIG 0.28  C 
BRANCH 35 36
ATOM     36  N   VAL C   1      54.061  30.291  40.876  1.00 13.26 LIG-0.07  N 
ATOM     37 H1   VAL C   1      53.870  29.909  41.657  1.00 13.26 LIG 0.28  HD
ATOM     38 H2   VAL C   1      53.805  31.144  40.893  1.00 13.26 LIG 0.28  HD
ATOM     39 H3   VAL C   1      53.631  29.865  40.224  1.00 13.26 LIG 0.28  HD
ENDBRANCH 35 36
BRANCH 35 40
ATOM     40  CB  VAL C   1      56.182  28.952  41.245  1.00 17.02 LIG 0.02  C 
ATOM     41  CG1 VAL C   1      57.564  28.615  40.571  1.00 17.35 LIG 0.01  C 
ATOM     42  CG2 VAL C   1      56.379  29.119  42.689  1.00 19.35 LIG 0.01  C 
ENDBRANCH 35 40
ENDBRANCH 32 35
ENDBRANCH 30 31
BRANCH 30 43
ATOM     43  CB  TYR C   2      57.688  32.974  37.452  1.00 16.65 LIG 0.07  C 
BRANCH 43 44
ATOM     44  CG  TYR C   2      56.630  34.060  37.399  1.00 19.66 LIG-0.06  A 
ATOM     45  CD1 TYR C   2      55.453  33.900  36.740  1.00 23.16 LIG 0.01  A 
ATOM     46  CE1 TYR C   2      54.469  34.927  36.631  1.00 26.66 LIG 0.04  A 
ATOM     47  CZ  TYR C   2      54.680  36.131  37.179  1.00 21.30 LIG 0.07  A 
ATOM     48  CE2 TYR C   2      55.842  36.306  37.846  1.00 23.08 LIG 0.04  A 
ATOM     49  CD2 TYR C   2      56.836  35.308  37.950  1.00 20.76 LIG 0.01  A 
BRANCH 47 50
ATOM     50 OH   TYR C   2      53.672  37.162  37.079  1.00 23.41 LIG-0.36  OA
ATOM     51 HH   TYR C   2      53.474  37.437  37.847  1.00 23.41 LIG 0.22  HD
ENDBRANCH 47 50
ENDBRANCH 43 44
ENDBRANCH 30 43
ENDBRANCH 1 30
TORSDOF 17
ENDMDL
MODEL 18
USER: ADFR SOLUTION from run 81
USER: SCORE 18.615523 LL:  -3.694 LR: -16.165 RR:   0.000 FEB: -11.094
USER: RMSD 2.621733
USER: SEED 80
USER: STATUS no improvement in best in 7 clusters for 5 generations
USER: GENES 19
USER: genes 0 Translation |==|  0.65011 0.46668 0.55709
USER: genes 1 Rotation |==|  0.45172 0.54191 0.55822 0.99247
USER: genes 2 Torsion [C]-N--CA-[CB] |==|  0.47435
USER: genes 3 Torsion [N]-CA--CB-[CG2] |==|  0.81006
USER: genes 4 Torsion [CA]-CB--CG1-[CD1] |==|  0.55455
USER: genes 5 Torsion [N]-CA--C-[N] |==|  0.45756
USER: genes 6 Torsion [C]-N--CA-[CB] |==|  0.16602
USER: genes 7 Torsion [N]-CA--C-[N] |==|  0.13024
USER: genes 8 Torsion [N]-CA--C-[O] |==|  0.52162
USER: genes 9 Torsion [N]-CA--CB-[CG] |==|  0.49553
USER: genes 10 Torsion [CA]-CB--CG-[ND1] |==|  0.64098
USER: genes 11 Torsion [N]-C--CA-[N] |==|  0.07168
USER: genes 12 Torsion [C]-CA--N-[C] |==|  0.74444
USER: genes 13 Torsion [N]-C--CA-[N] |==|  0.40093
USER: genes 14 Torsion [C]-CA--N-[H2] |==|  0.43046
USER: genes 15 Torsion [C]-CA--CB-[CG1] |==|  0.11232
USER: genes 16 Torsion [C]-CA--CB-[CG] |==|  0.41108
USER: genes 17 Torsion [CA]-CB--CG-[CD1] |==|  0.89152
USER: genes 18 Torsion [CE1]-CZ--OH-[HH] |==|  0.38453
ROOT
ATOM      1  C   TYR C   2      57.961  30.318  36.570  1.00 15.61 LIG 0.24  C 
ATOM      2 O    TYR C   2      58.712  30.640  35.638  1.00 14.40 LIG-0.27  OA
ATOM      3  N   ILE C   3      57.909  29.097  37.026  1.00 16.82 LIG-0.35  N 
ATOM      4 H    ILE C   3      57.553  28.878  37.777  1.00 16.82 LIG 0.16  HD
ENDROOT
BRANCH 3 5
ATOM      5  CA  ILE C   3      58.467  27.981  36.273  1.00 16.46 LIG 0.18  C 
BRANCH 5 6
ATOM      6  CB  ILE C   3      58.483  26.715  37.110  1.00 18.77 LIG 0.01  C 
ATOM      7  CG2 ILE C   3      59.496  26.881  38.233  1.00 19.99 LIG 0.01  C 
BRANCH 6 8
ATOM      8  CG1 ILE C   3      57.099  26.415  37.731  1.00 18.05 LIG 0.00  C 
ATOM      9  CD1 ILE C   3      57.141  25.465  38.932  1.00 24.94 LIG 0.01  C 
ENDBRANCH 6 8
ENDBRANCH 5 6
BRANCH 5 10
ATOM     10  C   ILE C   3      57.632  27.810  34.999  1.00 19.56 LIG 0.24  C 
ATOM     11  N   HIS C   4      58.122  27.073  34.023  1.00 25.52 LIG-0.35  N 
ATOM     12 H    HIS C   4      58.845  26.609  34.071  1.00 25.52 LIG 0.16  HD
ATOM     13 O    ILE C   3      56.524  28.341  34.894  1.00 16.93 LIG-0.27  OA
BRANCH 11 14
ATOM     14  CA  HIS C   4      57.413  27.007  32.729  1.00 31.94 LIG 0.18  C 
BRANCH 14 15
ATOM     15  C   HIS C   4      58.145  26.021  31.852  1.00 43.02 LIG 0.24  C 
ATOM     16 O    HIS C   4      58.319  26.360  30.665  1.00 47.49 LIG-0.27  OA
ATOM     17  N   PRO C   5      58.499  24.803  32.405  1.00 55.18 LIG-0.34  N 
ATOM     18  CA  PRO C   5      59.324  23.672  31.824  1.00 55.75 LIG 0.17  C 
ATOM     19  CD  PRO C   5      57.761  24.322  33.604  1.00 48.44 LIG 0.13  C 
ATOM     20  CB  PRO C   5      59.418  22.678  32.987  1.00 55.43 LIG 0.04  C 
ATOM     21  CG  PRO C   5      58.113  22.838  33.706  1.00 51.63 LIG 0.02  C 
BRANCH 18 22
ATOM     22  C   PRO C   5      58.705  22.929  30.650  1.00 57.38 LIG 0.22  C 
ATOM     23 O    PRO C   5      59.246  21.908  30.215  1.00 61.90 LIG-0.29  OA
ENDBRANCH 18 22
ENDBRANCH 14 15
BRANCH 14 24
ATOM     24  CB  HIS C   4      57.283  28.418  32.071  1.00 32.76 LIG 0.10  C 
BRANCH 24 25
ATOM     25  CG  HIS C   4      56.605  28.437  30.730  1.00 32.77 LIG 0.06  A 
ATOM     26 ND1  HIS C   4      57.160  29.064  29.628  1.00 34.96 LIG-0.24  NA
ATOM     27  CE1 HIS C   4      56.363  28.908  28.581  1.00 36.21 LIG 0.23  A 
ATOM     28 NE2  HIS C   4      55.302  28.209  28.965  1.00 34.31 LIG-0.25  NA
ATOM     29  CD2 HIS C   4      55.428  27.905  30.307  1.00 30.94 LIG 0.14  A 
ENDBRANCH 24 25
ENDBRANCH 14 24
ENDBRANCH 11 14
ENDBRANCH 5 10
ENDBRANCH 3 5
BRANCH 1 30
ATOM     30  CA  TYR C   2      57.118  31.319  37.302  1.00 15.99 LIG 0.18  C 
BRANCH 30 31
ATOM     31  N   TYR C   2      56.833  31.003  38.688  1.00 12.71 LIG-0.35  N 
ATOM     32  C   VAL C   1      55.771  30.345  39.065  1.00 12.74 LIG 0.25  C 
ATOM     33 O    VAL C   1      54.970  29.889  38.274  1.00 11.92 LIG-0.27  OA
ATOM     34 H    TYR C   2      57.429  31.289  39.238  1.00 12.71 LIG 0.16  HD
BRANCH 32 35
ATOM     35  CA  VAL C   1      55.546  30.232  40.580  1.00 14.22 LIG 0.28  C 
BRANCH 35 36
ATOM     36  N   VAL C   1      54.070  30.293  40.841  1.00 13.26 LIG-0.07  N 
ATOM     37 H1   VAL C   1      53.634  29.889  40.178  1.00 13.26 LIG 0.28  HD
ATOM     38 H2   VAL C   1      53.886  29.883  41.609  1.00 13.26 LIG 0.28  HD
ATOM     39 H3   VAL C   1      53.812  31.143  40.890  1.00 13.26 LIG 0.28  HD
ENDBRANCH 35 36
BRANCH 35 40
ATOM     40  CB  VAL C   1      56.218  29.010  41.246  1.00 17.02 LIG 0.02  C 
ATOM     41  CG1 VAL C   1      57.657  28.748  40.663  1.00 17.35 LIG 0.01  C 
ATOM     42  CG2 VAL C   1      56.313  29.197  42.697  1.00 19.35 LIG 0.01  C 
ENDBRANCH 35 40
ENDBRANCH 32 35
ENDBRANCH 30 31
BRANCH 30 43
ATOM     43  CB  TYR C   2      57.696  32.777  37.250  1.00 16.65 LIG 0.07  C 
BRANCH 43 44
ATOM     44  CG  TYR C   2      56.635  33.862  37.256  1.00 19.66 LIG-0.06  A 
ATOM     45  CD1 TYR C   2      55.468  33.745  36.573  1.00 23.16 LIG 0.01  A 
ATOM     46  CE1 TYR C   2      54.482  34.774  36.521  1.00 26.66 LIG 0.04  A 
ATOM     47  CZ  TYR C   2      54.682  35.938  37.153  1.00 21.30 LIG 0.07  A 
ATOM     48  CE2 TYR C   2      55.834  36.070  37.845  1.00 23.08 LIG 0.04  A 
ATOM     49  CD2 TYR C   2      56.830  35.070  37.894  1.00 20.76 LIG 0.01  A 
BRANCH 47 50
ATOM     50 OH   TYR C   2      53.672  36.971  37.110  1.00 23.41 LIG-0.36  OA
ATOM     51 HH   TYR C   2      53.598  37.324  37.869  1.00 23.41 LIG 0.22  HD
ENDBRANCH 47 50
ENDBRANCH 43 44
ENDBRANCH 30 43
ENDBRANCH 1 30
TORSDOF 17
ENDMDL
MODEL 19
USER: ADFR SOLUTION from run 174
USER: SCORE 18.369221 LL:  -3.682 LR: -16.160 RR:   0.000 FEB: -11.089
USER: RMSD 3.451402
USER: SEED 173
USER: STATUS no improvement in best in 7 clusters for 5 generations
USER: GENES 19
USER: genes 0 Translation |==|  0.62241 0.48695 0.54965
USER: genes 1 Rotation |==|  0.57066 0.43728 0.44572 0.98798
USER: genes 2 Torsion [C]-N--CA-[CB] |==|  0.25000
USER: genes 3 Torsion [N]-CA--CB-[CG2] |==|  0.72698
USER: genes 4 Torsion [CA]-CB--CG1-[CD1] |==|  0.51058
USER: genes 5 Torsion [N]-CA--C-[N] |==|  0.27239
USER: genes 6 Torsion [C]-N--CA-[CB] |==|  0.86072
USER: genes 7 Torsion [N]-CA--C-[N] |==|  0.36045
USER: genes 8 Torsion [N]-CA--C-[O] |==|  0.17552
USER: genes 9 Torsion [N]-CA--CB-[CG] |==|  0.50939
USER: genes 10 Torsion [CA]-CB--CG-[ND1] |==|  0.78922
USER: genes 11 Torsion [N]-C--CA-[N] |==|  0.19209
USER: genes 12 Torsion [C]-CA--N-[C] |==|  0.77729
USER: genes 13 Torsion [N]-C--CA-[N] |==|  0.37221
USER: genes 14 Torsion [C]-CA--N-[H2] |==|  0.79729
USER: genes 15 Torsion [C]-CA--CB-[CG1] |==|  0.09996
USER: genes 16 Torsion [C]-CA--CB-[CG] |==|  0.37810
USER: genes 17 Torsion [CA]-CB--CG-[CD1] |==|  0.90326
USER: genes 18 Torsion [CE1]-CZ--OH-[HH] |==|  0.36716
ROOT
ATOM      1  C   TYR C   2      57.545  30.759  36.397  1.00 15.61 LIG 0.24  C 
ATOM      2 O    TYR C   2      58.706  30.966  36.014  1.00 14.40 LIG-0.27  OA
ATOM      3  N   ILE C   3      56.906  29.661  36.104  1.00 16.82 LIG-0.35  N 
ATOM      4 H    ILE C   3      56.188  29.401  36.500  1.00 16.82 LIG 0.16  HD
ENDROOT
BRANCH 3 5
ATOM      5  CA  ILE C   3      57.374  28.766  35.053  1.00 16.46 LIG 0.18  C 
BRANCH 5 6
ATOM      6  CB  ILE C   3      58.328  27.726  35.609  1.00 18.77 LIG 0.01  C 
ATOM      7  CG2 ILE C   3      59.757  28.179  35.347  1.00 19.99 LIG 0.01  C 
BRANCH 6 8
ATOM      8  CG1 ILE C   3      58.143  27.526  37.132  1.00 18.05 LIG 0.00  C 
ATOM      9  CD1 ILE C   3      59.142  26.554  37.765  1.00 24.94 LIG 0.01  C 
ENDBRANCH 6 8
ENDBRANCH 5 6
BRANCH 5 10
ATOM     10  C   ILE C   3      56.144  28.122  34.405  1.00 19.56 LIG 0.24  C 
ATOM     11  N   HIS C   4      55.686  28.638  33.282  1.00 25.52 LIG-0.35  N 
ATOM     12 H    HIS C   4      56.069  29.265  32.834  1.00 25.52 LIG 0.16  HD
ATOM     13 O    ILE C   3      55.603  27.139  34.915  1.00 16.93 LIG-0.27  OA
BRANCH 11 14
ATOM     14  CA  HIS C   4      54.420  28.135  32.709  1.00 31.94 LIG 0.18  C 
BRANCH 14 15
ATOM     15  C   HIS C   4      53.289  28.670  33.552  1.00 43.02 LIG 0.24  C 
ATOM     16 O    HIS C   4      53.360  28.451  34.777  1.00 47.49 LIG-0.27  OA
ATOM     17  N   PRO C   5      52.236  29.291  32.901  1.00 55.18 LIG-0.34  N 
ATOM     18  CA  PRO C   5      51.031  30.016  33.468  1.00 55.75 LIG 0.17  C 
ATOM     19  CD  PRO C   5      52.011  28.992  31.462  1.00 48.44 LIG 0.13  C 
ATOM     20  CB  PRO C   5      50.325  30.547  32.216  1.00 55.43 LIG 0.04  C 
ATOM     21  CG  PRO C   5      50.599  29.504  31.176  1.00 51.63 LIG 0.02  C 
BRANCH 18 22
ATOM     22  C   PRO C   5      50.026  29.155  34.217  1.00 57.38 LIG 0.22  C 
ATOM     23 O    PRO C   5      50.367  28.569  35.249  1.00 61.90 LIG-0.29  OA
ENDBRANCH 18 22
ENDBRANCH 14 15
BRANCH 14 24
ATOM     24  CB  HIS C   4      54.412  26.576  32.610  1.00 32.76 LIG 0.10  C 
BRANCH 24 25
ATOM     25  CG  HIS C   4      53.191  25.983  31.964  1.00 32.77 LIG 0.06  A 
ATOM     26 ND1  HIS C   4      51.976  25.891  32.619  1.00 34.96 LIG-0.24  NA
ATOM     27  CE1 HIS C   4      51.076  25.349  31.812  1.00 36.21 LIG 0.23  A 
ATOM     28 NE2  HIS C   4      51.666  25.075  30.655  1.00 34.31 LIG-0.25  NA
ATOM     29  CD2 HIS C   4      52.991  25.460  30.726  1.00 30.94 LIG 0.14  A 
ENDBRANCH 24 25
ENDBRANCH 14 24
ENDBRANCH 11 14
ENDBRANCH 5 10
ENDBRANCH 3 5
BRANCH 1 30
ATOM     30  CA  TYR C   2      56.817  31.713  37.296  1.00 15.99 LIG 0.18  C 
BRANCH 30 31
ATOM     31  N   TYR C   2      56.641  31.272  38.666  1.00 12.71 LIG-0.35  N 
ATOM     32  C   VAL C   1      55.710  30.435  39.031  1.00 12.74 LIG 0.25  C 
ATOM     33 O    VAL C   1      54.956  29.909  38.236  1.00 11.92 LIG-0.27  OA
ATOM     34 H    TYR C   2      57.208  31.614  39.215  1.00 12.71 LIG 0.16  HD
BRANCH 32 35
ATOM     35  CA  VAL C   1      55.566  30.196  40.541  1.00 14.22 LIG 0.28  C 
BRANCH 35 36
ATOM     36  N   VAL C   1      54.109  30.263  40.892  1.00 13.26 LIG-0.07  N 
ATOM     37 H1   VAL C   1      53.987  29.945  41.714  1.00 13.26 LIG 0.28  HD
ATOM     38 H2   VAL C   1      53.834  31.109  40.857  1.00 13.26 LIG 0.28  HD
ATOM     39 H3   VAL C   1      53.642  29.776  40.312  1.00 13.26 LIG 0.28  HD
ENDBRANCH 35 36
BRANCH 35 40
ATOM     40  CB  VAL C   1      56.245  28.908  41.060  1.00 17.02 LIG 0.02  C 
ATOM     41  CG1 VAL C   1      57.588  28.608  40.295  1.00 17.35 LIG 0.01  C 
ATOM     42  CG2 VAL C   1      56.522  29.010  42.497  1.00 19.35 LIG 0.01  C 
ENDBRANCH 35 40
ENDBRANCH 32 35
ENDBRANCH 30 31
BRANCH 30 43
ATOM     43  CB  TYR C   2      57.453  33.147  37.329  1.00 16.65 LIG 0.07  C 
BRANCH 43 44
ATOM     44  CG  TYR C   2      56.440  34.274  37.250  1.00 19.66 LIG-0.06  A 
ATOM     45  CD1 TYR C   2      55.301  34.180  36.516  1.00 23.16 LIG 0.01  A 
ATOM     46  CE1 TYR C   2      54.363  35.247  36.384  1.00 26.66 LIG 0.04  A 
ATOM     47  CZ  TYR C   2      54.583  36.423  36.986  1.00 21.30 LIG 0.07  A 
ATOM     48  CE2 TYR C   2      55.707  36.532  37.728  1.00 23.08 LIG 0.04  A 
ATOM     49  CD2 TYR C   2      56.656  35.494  37.856  1.00 20.76 LIG 0.01  A 
BRANCH 47 50
ATOM     50 OH   TYR C   2      53.620  37.494  36.862  1.00 23.41 LIG-0.36  OA
ATOM     51 HH   TYR C   2      53.462  37.819  37.620  1.00 23.41 LIG 0.22  HD
ENDBRANCH 47 50
ENDBRANCH 43 44
ENDBRANCH 30 43
ENDBRANCH 1 30
TORSDOF 17
ENDMDL
MODEL 20
USER: ADFR SOLUTION from run 12
USER: SCORE 17.796971 LL:  -3.586 LR: -15.988 RR:   0.000 FEB: -10.917
USER: RMSD 2.191092
USER: SEED 311505
USER: STATUS no improvement in best in 8 clusters for 5 generations
USER: GENES 19
USER: genes 0 Translation |==|  0.63113 0.46579 0.55224
USER: genes 1 Rotation |==|  0.52288 0.45230 0.47399 0.99651
USER: genes 2 Torsion [C]-N--CA-[CB] |==|  0.40989
USER: genes 3 Torsion [N]-CA--CB-[CG2] |==|  0.56803
USER: genes 4 Torsion [CA]-CB--CG1-[CD1] |==|  0.77032
USER: genes 5 Torsion [N]-CA--C-[N] |==|  0.93885
USER: genes 6 Torsion [C]-N--CA-[CB] |==|  0.86883
USER: genes 7 Torsion [N]-CA--C-[N] |==|  0.38115
USER: genes 8 Torsion [N]-CA--C-[O] |==|  0.14589
USER: genes 9 Torsion [N]-CA--CB-[CG] |==|  0.65092
USER: genes 10 Torsion [CA]-CB--CG-[ND1] |==|  0.07771
USER: genes 11 Torsion [N]-C--CA-[N] |==|  0.16879
USER: genes 12 Torsion [C]-CA--N-[C] |==|  0.77101
USER: genes 13 Torsion [N]-C--CA-[N] |==|  0.38306
USER: genes 14 Torsion [C]-CA--N-[H2] |==|  0.76667
USER: genes 15 Torsion [C]-CA--CB-[CG1] |==|  0.08302
USER: genes 16 Torsion [C]-CA--CB-[CG] |==|  0.41233
USER: genes 17 Torsion [CA]-CB--CG-[CD1] |==|  0.86938
USER: genes 18 Torsion [CE1]-CZ--OH-[HH] |==|  0.38994
ROOT
ATOM      1  C   TYR C   2      57.676  30.299  36.458  1.00 15.61 LIG 0.24  C 
ATOM      2 O    TYR C   2      58.785  30.529  35.953  1.00 14.40 LIG-0.27  OA
ATOM      3  N   ILE C   3      57.140  29.111  36.434  1.00 16.82 LIG-0.35  N 
ATOM      4 H    ILE C   3      56.477  28.871  36.927  1.00 16.82 LIG 0.16  HD
ENDROOT
BRANCH 3 5
ATOM      5  CA  ILE C   3      57.637  28.069  35.543  1.00 16.46 LIG 0.18  C 
BRANCH 5 6
ATOM      6  CB  ILE C   3      57.481  26.697  36.171  1.00 18.77 LIG 0.01  C 
ATOM      7  CG2 ILE C   3      58.503  25.754  35.554  1.00 19.99 LIG 0.01  C 
BRANCH 6 8
ATOM      8  CG1 ILE C   3      57.700  26.733  37.702  1.00 18.05 LIG 0.00  C 
ATOM      9  CD1 ILE C   3      59.169  26.682  38.128  1.00 24.94 LIG 0.01  C 
ENDBRANCH 6 8
ENDBRANCH 5 6
BRANCH 5 10
ATOM     10  C   ILE C   3      56.873  28.180  34.220  1.00 19.56 LIG 0.24  C 
ATOM     11  N   HIS C   4      55.701  28.783  34.222  1.00 25.52 LIG-0.35  N 
ATOM     12 H    HIS C   4      55.360  29.195  34.896  1.00 25.52 LIG 0.16  HD
ATOM     13 O    ILE C   3      57.347  27.725  33.176  1.00 16.93 LIG-0.27  OA
BRANCH 11 14
ATOM     14  CA  HIS C   4      54.874  28.779  32.998  1.00 31.94 LIG 0.18  C 
BRANCH 14 15
ATOM     15  C   HIS C   4      54.233  27.418  32.880  1.00 43.02 LIG 0.24  C 
ATOM     16 O    HIS C   4      54.980  26.437  33.063  1.00 47.49 LIG-0.27  OA
ATOM     17  N   PRO C   5      52.900  27.362  32.510  1.00 55.18 LIG-0.34  N 
ATOM     18  CA  PRO C   5      51.964  26.172  32.418  1.00 55.75 LIG 0.17  C 
ATOM     19  CD  PRO C   5      52.308  28.524  31.797  1.00 48.44 LIG 0.13  C 
ATOM     20  CB  PRO C   5      50.621  26.815  32.056  1.00 55.43 LIG 0.04  C 
ATOM     21  CG  PRO C   5      51.000  27.993  31.209  1.00 51.63 LIG 0.02  C 
BRANCH 18 22
ATOM     22  C   PRO C   5      52.281  25.157  31.332  1.00 57.38 LIG 0.22  C 
ATOM     23 O    PRO C   5      53.414  24.674  31.254  1.00 61.90 LIG-0.29  OA
ENDBRANCH 18 22
ENDBRANCH 14 15
BRANCH 14 24
ATOM     24  CB  HIS C   4      55.711  29.161  31.736  1.00 32.76 LIG 0.10  C 
BRANCH 24 25
ATOM     25  CG  HIS C   4      55.164  30.303  30.928  1.00 32.77 LIG 0.06  A 
ATOM     26 ND1  HIS C   4      54.399  31.310  31.490  1.00 34.96 LIG-0.24  NA
ATOM     27  CE1 HIS C   4      54.069  32.191  30.557  1.00 36.21 LIG 0.23  A 
ATOM     28 NE2  HIS C   4      54.585  31.788  29.402  1.00 34.31 LIG-0.25  NA
ATOM     29  CD2 HIS C   4      55.272  30.607  29.607  1.00 30.94 LIG 0.14  A 
ENDBRANCH 24 25
ENDBRANCH 14 24
ENDBRANCH 11 14
ENDBRANCH 5 10
ENDBRANCH 3 5
BRANCH 1 30
ATOM     30  CA  TYR C   2      56.904  31.343  37.207  1.00 15.99 LIG 0.18  C 
BRANCH 30 31
ATOM     31  N   TYR C   2      56.694  31.075  38.616  1.00 12.71 LIG-0.35  N 
ATOM     32  C   VAL C   1      55.738  30.305  39.059  1.00 12.74 LIG 0.25  C 
ATOM     33 O    VAL C   1      54.989  29.701  38.318  1.00 11.92 LIG-0.27  OA
ATOM     34 H    TYR C   2      57.257  31.470  39.132  1.00 12.71 LIG 0.16  HD
BRANCH 32 35
ATOM     35  CA  VAL C   1      55.561  30.253  40.584  1.00 14.22 LIG 0.28  C 
BRANCH 35 36
ATOM     36  N   VAL C   1      54.092  30.293  40.888  1.00 13.26 LIG-0.07  N 
ATOM     37 H1   VAL C   1      53.944  29.926  41.685  1.00 13.26 LIG 0.28  HD
ATOM     38 H2   VAL C   1      53.813  31.138  40.894  1.00 13.26 LIG 0.28  HD
ATOM     39 H3   VAL C   1      53.648  29.838  40.265  1.00 13.26 LIG 0.28  HD
ENDBRANCH 35 36
BRANCH 35 40
ATOM     40  CB  VAL C   1      56.282  29.077  41.280  1.00 17.02 LIG 0.02  C 
ATOM     41  CG1 VAL C   1      57.582  28.648  40.502  1.00 17.35 LIG 0.01  C 
ATOM     42  CG2 VAL C   1      56.639  29.429  42.658  1.00 19.35 LIG 0.01  C 
ENDBRANCH 35 40
ENDBRANCH 32 35
ENDBRANCH 30 31
BRANCH 30 43
ATOM     43  CB  TYR C   2      57.517  32.783  37.077  1.00 16.65 LIG 0.07  C 
BRANCH 43 44
ATOM     44  CG  TYR C   2      56.488  33.897  37.124  1.00 19.66 LIG-0.06  A 
ATOM     45  CD1 TYR C   2      55.343  33.863  36.394  1.00 23.16 LIG 0.01  A 
ATOM     46  CE1 TYR C   2      54.389  34.924  36.381  1.00 26.66 LIG 0.04  A 
ATOM     47  CZ  TYR C   2      54.600  36.035  37.099  1.00 21.30 LIG 0.07  A 
ATOM     48  CE2 TYR C   2      55.730  36.083  37.838  1.00 23.08 LIG 0.04  A 
ATOM     49  CD2 TYR C   2      56.694  35.051  37.850  1.00 20.76 LIG 0.01  A 
BRANCH 47 50
ATOM     50 OH   TYR C   2      53.622  37.100  37.094  1.00 23.41 LIG-0.36  OA
ATOM     51 HH   TYR C   2      53.550  37.419  37.868  1.00 23.41 LIG 0.22  HD
ENDBRANCH 47 50
ENDBRANCH 43 44
ENDBRANCH 30 43
ENDBRANCH 1 30
TORSDOF 17
ENDMDL
MODEL 21
USER: ADFR SOLUTION from run 123
USER: SCORE 18.578490 LL:  -4.477 LR: -15.984 RR:   0.000 FEB: -10.912
USER: RMSD 3.663615
USER: SEED 122
USER: STATUS no improvement in best in 8 clusters for 5 generations
USER: GENES 19
USER: genes 0 Translation |==|  0.64829 0.46719 0.56393
USER: genes 1 Rotation |==|  0.42769 0.56608 0.57083 0.98517
USER: genes 2 Torsion [C]-N--CA-[CB] |==|  0.51168
USER: genes 3 Torsion [N]-CA--CB-[CG2] |==|  0.77071
USER: genes 4 Torsion [CA]-CB--CG1-[CD1] |==|  0.49013
USER: genes 5 Torsion [N]-CA--C-[N] |==|  0.75125
USER: genes 6 Torsion [C]-N--CA-[CB] |==|  0.79423
USER: genes 7 Torsion [N]-CA--C-[N] |==|  0.15099
USER: genes 8 Torsion [N]-CA--C-[O] |==|  0.61208
USER: genes 9 Torsion [N]-CA--CB-[CG] |==|  0.86121
USER: genes 10 Torsion [CA]-CB--CG-[ND1] |==|  0.69675
USER: genes 11 Torsion [N]-C--CA-[N] |==|  0.04421
USER: genes 12 Torsion [C]-CA--N-[C] |==|  0.75544
USER: genes 13 Torsion [N]-C--CA-[N] |==|  0.40252
USER: genes 14 Torsion [C]-CA--N-[H2] |==|  0.75928
USER: genes 15 Torsion [C]-CA--CB-[CG1] |==|  0.09094
USER: genes 16 Torsion [C]-CA--CB-[CG] |==|  0.40068
USER: genes 17 Torsion [CA]-CB--CG-[CD1] |==|  0.39930
USER: genes 18 Torsion [CE1]-CZ--OH-[HH] |==|  0.84686
ROOT
ATOM      1  C   TYR C   2      57.933  30.329  36.729  1.00 15.61 LIG 0.24  C 
ATOM      2 O    TYR C   2      58.580  30.585  35.703  1.00 14.40 LIG-0.27  OA
ATOM      3  N   ILE C   3      57.991  29.163  37.309  1.00 16.82 LIG-0.35  N 
ATOM      4 H    ILE C   3      57.716  29.009  38.109  1.00 16.82 LIG 0.16  HD
ENDROOT
BRANCH 3 5
ATOM      5  CA  ILE C   3      58.543  28.000  36.625  1.00 16.46 LIG 0.18  C 
BRANCH 5 6
ATOM      6  CB  ILE C   3      58.400  26.751  37.476  1.00 18.77 LIG 0.01  C 
ATOM      7  CG2 ILE C   3      59.546  26.704  38.476  1.00 19.99 LIG 0.01  C 
BRANCH 6 8
ATOM      8  CG1 ILE C   3      57.063  26.730  38.253  1.00 18.05 LIG 0.00  C 
ATOM      9  CD1 ILE C   3      56.827  25.452  39.063  1.00 24.94 LIG 0.01  C 
ENDBRANCH 6 8
ENDBRANCH 5 6
BRANCH 5 10
ATOM     10  C   ILE C   3      57.818  27.859  35.282  1.00 19.56 LIG 0.24  C 
ATOM     11  N   HIS C   4      56.718  27.135  35.238  1.00 25.52 LIG-0.35  N 
ATOM     12 H    HIS C   4      56.323  26.795  35.922  1.00 25.52 LIG 0.16  HD
ATOM     13 O    ILE C   3      58.248  28.418  34.271  1.00 16.93 LIG-0.27  OA
BRANCH 11 14
ATOM     14  CA  HIS C   4      56.077  26.858  33.936  1.00 31.94 LIG 0.18  C 
BRANCH 14 15
ATOM     15  C   HIS C   4      57.141  26.341  32.999  1.00 43.02 LIG 0.24  C 
ATOM     16 O    HIS C   4      57.220  26.901  31.888  1.00 47.49 LIG-0.27  OA
ATOM     17  N   PRO C   5      57.889  25.251  33.410  1.00 55.18 LIG-0.34  N 
ATOM     18  CA  PRO C   5      59.082  24.585  32.754  1.00 55.75 LIG 0.17  C 
ATOM     19  CD  PRO C   5      57.334  24.361  34.465  1.00 48.44 LIG 0.13  C 
ATOM     20  CB  PRO C   5      59.487  23.516  33.774  1.00 55.43 LIG 0.04  C 
ATOM     21  CG  PRO C   5      58.189  23.096  34.395  1.00 51.63 LIG 0.02  C 
BRANCH 18 22
ATOM     22  C   PRO C   5      58.807  23.867  31.441  1.00 57.38 LIG 0.22  C 
ATOM     23 O    PRO C   5      59.349  22.782  31.210  1.00 61.90 LIG-0.29  OA
ENDBRANCH 18 22
ENDBRANCH 14 15
BRANCH 14 24
ATOM     24  CB  HIS C   4      55.343  28.119  33.375  1.00 32.76 LIG 0.10  C 
BRANCH 24 25
ATOM     25  CG  HIS C   4      54.417  28.801  34.342  1.00 32.77 LIG 0.06  A 
ATOM     26 ND1  HIS C   4      53.041  28.760  34.204  1.00 34.96 LIG-0.24  NA
ATOM     27  CE1 HIS C   4      52.474  29.425  35.201  1.00 36.21 LIG 0.23  A 
ATOM     28 NE2  HIS C   4      53.436  29.908  35.979  1.00 34.31 LIG-0.25  NA
ATOM     29  CD2 HIS C   4      54.661  29.534  35.460  1.00 30.94 LIG 0.14  A 
ENDBRANCH 24 25
ENDBRANCH 14 24
ENDBRANCH 11 14
ENDBRANCH 5 10
ENDBRANCH 3 5
BRANCH 1 30
ATOM     30  CA  TYR C   2      57.104  31.362  37.432  1.00 15.99 LIG 0.18  C 
BRANCH 30 31
ATOM     31  N   TYR C   2      56.774  31.067  38.812  1.00 12.71 LIG-0.35  N 
ATOM     32  C   VAL C   1      55.721  30.380  39.161  1.00 12.74 LIG 0.25  C 
ATOM     33 O    VAL C   1      54.969  29.878  38.350  1.00 11.92 LIG-0.27  OA
ATOM     34 H    TYR C   2      57.337  31.386  39.378  1.00 12.71 LIG 0.16  HD
BRANCH 32 35
ATOM     35  CA  VAL C   1      55.438  30.293  40.669  1.00 14.22 LIG 0.28  C 
BRANCH 35 36
ATOM     36  N   VAL C   1      53.951  30.293  40.868  1.00 13.26 LIG-0.07  N 
ATOM     37 H1   VAL C   1      53.754  29.872  41.627  1.00 13.26 LIG 0.28  HD
ATOM     38 H2   VAL C   1      53.657  31.132  40.909  1.00 13.26 LIG 0.28  HD
ATOM     39 H3   VAL C   1      53.561  29.875  40.186  1.00 13.26 LIG 0.28  HD
ENDBRANCH 35 36
BRANCH 35 40
ATOM     40  CB  VAL C   1      56.136  29.119  41.392  1.00 17.02 LIG 0.02  C 
ATOM     41  CG1 VAL C   1      57.532  28.784  40.745  1.00 17.35 LIG 0.01  C 
ATOM     42  CG2 VAL C   1      56.326  29.425  42.814  1.00 19.35 LIG 0.01  C 
ENDBRANCH 35 40
ENDBRANCH 32 35
ENDBRANCH 30 31
BRANCH 30 43
ATOM     43  CB  TYR C   2      57.728  32.801  37.382  1.00 16.65 LIG 0.07  C 
BRANCH 43 44
ATOM     44  CG  TYR C   2      56.703  33.914  37.262  1.00 19.66 LIG-0.06  A 
ATOM     45  CD1 TYR C   2      56.854  35.114  37.881  1.00 23.16 LIG 0.01  A 
ATOM     46  CE1 TYR C   2      55.878  36.153  37.826  1.00 26.66 LIG 0.04  A 
ATOM     47  CZ  TYR C   2      54.734  35.974  37.154  1.00 21.30 LIG 0.07  A 
ATOM     48  CE2 TYR C   2      54.570  34.790  36.525  1.00 23.08 LIG 0.04  A 
ATOM     49  CD2 TYR C   2      55.516  33.743  36.582  1.00 20.76 LIG 0.01  A 
BRANCH 47 50
ATOM     50 OH   TYR C   2      53.756  37.037  37.089  1.00 23.41 LIG-0.36  OA
ATOM     51 HH   TYR C   2      53.554  37.280  37.868  1.00 23.41 LIG 0.22  HD
ENDBRANCH 47 50
ENDBRANCH 43 44
ENDBRANCH 30 43
ENDBRANCH 1 30
TORSDOF 17
ENDMDL
MODEL 22
USER: ADFR SOLUTION from run 9
USER: SCORE 18.084919 LL:  -4.398 LR: -15.954 RR:   0.000 FEB: -10.883
USER: RMSD 4.489324
USER: SEED 718081
USER: STATUS no improvement in best in 10 clusters for 5 generations
USER: GENES 19
USER: genes 0 Translation |==|  0.63437 0.42597 0.54752
USER: genes 1 Rotation |==|  0.42223 0.60053 0.53564 0.98226
USER: genes 2 Torsion [C]-N--CA-[CB] |==|  0.36373
USER: genes 3 Torsion [N]-CA--CB-[CG2] |==|  0.08092
USER: genes 4 Torsion [CA]-CB--CG1-[CD1] |==|  0.32377
USER: genes 5 Torsion [N]-CA--C-[N] |==|  0.38002
USER: genes 6 Torsion [C]-N--CA-[CB] |==|  0.77326
USER: genes 7 Torsion [N]-CA--C-[N] |==|  0.13609
USER: genes 8 Torsion [N]-CA--C-[O] |==|  0.29504
USER: genes 9 Torsion [N]-CA--CB-[CG] |==|  0.16922
USER: genes 10 Torsion [CA]-CB--CG-[ND1] |==|  0.71981
USER: genes 11 Torsion [N]-C--CA-[N] |==|  0.04397
USER: genes 12 Torsion [C]-CA--N-[C] |==|  0.74288
USER: genes 13 Torsion [N]-C--CA-[N] |==|  0.43728
USER: genes 14 Torsion [C]-CA--N-[H2] |==|  0.76957
USER: genes 15 Torsion [C]-CA--CB-[CG1] |==|  0.43735
USER: genes 16 Torsion [C]-CA--CB-[CG] |==|  0.42865
USER: genes 17 Torsion [CA]-CB--CG-[CD1] |==|  0.38251
USER: genes 18 Torsion [CE1]-CZ--OH-[HH] |==|  0.83946
ROOT
ATOM      1  C   TYR C   2      57.725  29.433  36.348  1.00 15.61 LIG 0.24  C 
ATOM      2 O    TYR C   2      58.279  29.532  35.243  1.00 14.40 LIG-0.27  OA
ATOM      3  N   ILE C   3      57.676  28.303  36.998  1.00 16.82 LIG-0.35  N 
ATOM      4 H    ILE C   3      57.476  28.235  37.831  1.00 16.82 LIG 0.16  HD
ENDROOT
BRANCH 3 5
ATOM      5  CA  ILE C   3      57.966  27.035  36.341  1.00 16.46 LIG 0.18  C 
BRANCH 5 6
ATOM      6  CB  ILE C   3      58.955  26.217  37.151  1.00 18.77 LIG 0.01  C 
ATOM      7  CG2 ILE C   3      58.791  26.564  38.623  1.00 19.99 LIG 0.01  C 
BRANCH 6 8
ATOM      8  CG1 ILE C   3      58.733  24.697  36.972  1.00 18.05 LIG 0.00  C 
ATOM      9  CD1 ILE C   3      59.908  23.962  36.321  1.00 24.94 LIG 0.01  C 
ENDBRANCH 6 8
ENDBRANCH 5 6
BRANCH 5 10
ATOM     10  C   ILE C   3      56.640  26.294  36.146  1.00 19.56 LIG 0.24  C 
ATOM     11  N   HIS C   4      56.420  25.696  34.992  1.00 25.52 LIG-0.35  N 
ATOM     12 H    HIS C   4      56.998  25.618  34.359  1.00 25.52 LIG 0.16  HD
ATOM     13 O    ILE C   3      55.802  26.249  37.049  1.00 16.93 LIG-0.27  OA
BRANCH 11 14
ATOM     14  CA  HIS C   4      55.097  25.099  34.718  1.00 31.94 LIG 0.18  C 
BRANCH 14 15
ATOM     15  C   HIS C   4      54.046  26.065  35.207  1.00 43.02 LIG 0.24  C 
ATOM     16 O    HIS C   4      53.109  25.574  35.868  1.00 47.49 LIG-0.27  OA
ATOM     17  N   PRO C   5      54.160  27.391  34.828  1.00 55.18 LIG-0.34  N 
ATOM     18  CA  PRO C   5      53.341  28.597  35.243  1.00 55.75 LIG 0.17  C 
ATOM     19  CD  PRO C   5      54.966  27.722  33.623  1.00 48.44 LIG 0.13  C 
ATOM     20  CB  PRO C   5      54.056  29.759  34.545  1.00 55.43 LIG 0.04  C 
ATOM     21  CG  PRO C   5      54.570  29.156  33.272  1.00 51.63 LIG 0.02  C 
BRANCH 18 22
ATOM     22  C   PRO C   5      51.895  28.616  34.773  1.00 57.38 LIG 0.22  C 
ATOM     23 O    PRO C   5      50.985  28.397  35.578  1.00 61.90 LIG-0.29  OA
ENDBRANCH 18 22
ENDBRANCH 14 15
BRANCH 14 24
ATOM     24  CB  HIS C   4      54.959  23.682  35.362  1.00 32.76 LIG 0.10  C 
BRANCH 24 25
ATOM     25  CG  HIS C   4      55.088  23.645  36.858  1.00 32.77 LIG 0.06  A 
ATOM     26 ND1  HIS C   4      56.254  23.253  37.492  1.00 34.96 LIG-0.24  NA
ATOM     27  CE1 HIS C   4      56.094  23.334  38.805  1.00 36.21 LIG 0.23  A 
ATOM     28 NE2  HIS C   4      54.860  23.757  39.049  1.00 34.31 LIG-0.25  NA
ATOM     29  CD2 HIS C   4      54.209  23.956  37.847  1.00 30.94 LIG 0.14  A 
ENDBRANCH 24 25
ENDBRANCH 14 24
ENDBRANCH 11 14
ENDBRANCH 5 10
ENDBRANCH 3 5
BRANCH 1 30
ATOM     30  CA  TYR C   2      57.143  30.617  37.061  1.00 15.99 LIG 0.18  C 
BRANCH 30 31
ATOM     31  N   TYR C   2      56.934  30.447  38.486  1.00 12.71 LIG-0.35  N 
ATOM     32  C   VAL C   1      55.807  30.032  38.996  1.00 12.74 LIG 0.25  C 
ATOM     33 O    VAL C   1      54.865  29.692  38.309  1.00 11.92 LIG-0.27  OA
ATOM     34 H    TYR C   2      57.621  30.646  38.963  1.00 12.71 LIG 0.16  HD
BRANCH 32 35
ATOM     35  CA  VAL C   1      55.706  30.059  40.528  1.00 14.22 LIG 0.28  C 
BRANCH 35 36
ATOM     36  N   VAL C   1      54.254  30.099  40.902  1.00 13.26 LIG-0.07  N 
ATOM     37 H1   VAL C   1      54.151  29.787  41.729  1.00 13.26 LIG 0.28  HD
ATOM     38 H2   VAL C   1      53.959  30.938  40.863  1.00 13.26 LIG 0.28  HD
ATOM     39 H3   VAL C   1      53.788  29.595  40.335  1.00 13.26 LIG 0.28  HD
ENDBRANCH 35 36
BRANCH 35 40
ATOM     40  CB  VAL C   1      56.476  28.929  41.248  1.00 17.02 LIG 0.02  C 
ATOM     41  CG1 VAL C   1      56.813  29.310  42.738  1.00 17.35 LIG 0.01  C 
ATOM     42  CG2 VAL C   1      55.702  27.683  41.234  1.00 19.35 LIG 0.01  C 
ENDBRANCH 35 40
ENDBRANCH 32 35
ENDBRANCH 30 31
BRANCH 30 43
ATOM     43  CB  TYR C   2      57.965  31.937  36.848  1.00 16.65 LIG 0.07  C 
BRANCH 43 44
ATOM     44  CG  TYR C   2      57.145  33.205  37.001  1.00 19.66 LIG-0.06  A 
ATOM     45  CD1 TYR C   2      57.608  34.296  37.663  1.00 23.16 LIG 0.01  A 
ATOM     46  CE1 TYR C   2      56.834  35.477  37.866  1.00 26.66 LIG 0.04  A 
ATOM     47  CZ  TYR C   2      55.577  35.552  37.410  1.00 21.30 LIG 0.07  A 
ATOM     48  CE2 TYR C   2      55.102  34.478  36.741  1.00 23.08 LIG 0.04  A 
ATOM     49  CD2 TYR C   2      55.846  33.294  36.546  1.00 20.76 LIG 0.01  A 
BRANCH 47 50
ATOM     50 OH   TYR C   2      54.804  36.758  37.605  1.00 23.41 LIG-0.36  OA
ATOM     51 HH   TYR C   2      54.754  36.929  38.426  1.00 23.41 LIG 0.22  HD
ENDBRANCH 47 50
ENDBRANCH 43 44
ENDBRANCH 30 43
ENDBRANCH 1 30
TORSDOF 17
ENDMDL
