MODEL 1
USER: ADFR SOLUTION from run 90
USER: SCORE 25.565701 LL:  -6.017 LR: -20.281 RR:   0.000 FEB: -14.016
USER: RMSD 5.221462
USER: SEED 89
USER: STATUS 1 or 2 clusters left
USER: GENES 23
USER: genes 0 Translation |==|  0.68031 0.53160 0.47581
USER: genes 1 Rotation |==|  0.53937 0.47863 0.54580 0.99588
USER: genes 2 Torsion [N]-C--CA-[N] |==|  0.45357
USER: genes 3 Torsion [C]-CA--CB-[CG2] |==|  0.43359
USER: genes 4 Torsion [CA]-CB--CG1-[CD1] |==|  0.58159
USER: genes 5 Torsion [C]-CA--N-[C] |==|  0.82211
USER: genes 6 Torsion [N]-C--CA-[N] |==|  0.10154
USER: genes 7 Torsion [C]-CA--N-[C] |==|  0.77222
USER: genes 8 Torsion [N]-C--CA-[N] |==|  0.38191
USER: genes 9 Torsion [C]-CA--CB-[CG1] |==|  0.10666
USER: genes 10 Torsion [C]-CA--N-[H3] |==|  0.10749
USER: genes 11 Torsion [C]-CA--CB-[CG] |==|  0.40845
USER: genes 12 Torsion [CA]-CB--CG-[CD1] |==|  0.89731
USER: genes 13 Torsion [CE1]-CZ--OH-[HH] |==|  0.33191
USER: genes 14 Torsion [C]-N--CA-[C] |==|  0.83064
USER: genes 15 Torsion [N]-CA--C-[N] |==|  0.94860
USER: genes 16 Torsion [N]-CA--C-[O] |==|  0.39248
USER: genes 17 Torsion [C]-N--CA-[C] |==|  0.15804
USER: genes 18 Torsion [N]-CA--C-[O] |==|  0.75384
USER: genes 19 Torsion [N]-CA--CB-[CG] |==|  0.58553
USER: genes 20 Torsion [CA]-CB--CG-[CD1] |==|  0.06525
USER: genes 21 Torsion [N]-CA--CB-[CG] |==|  0.56969
USER: genes 22 Torsion [CA]-CB--CG-[CD2] |==|  0.02813
ROOT
ATOM      1  C   ILE C   3      57.282  28.504  34.611  1.00 18.73 LIG 0.24  C 
ATOM      2 O    ILE C   3      56.252  29.154  34.522  1.00 16.27 LIG-0.27  OA
ATOM      3  N   HIS C   4      57.781  27.895  33.537  1.00 21.57 LIG-0.35  N 
ATOM      4 H    HIS C   4      58.510  27.440  33.510  1.00 21.57 LIG 0.16  HD
ENDROOT
BRANCH 1 5
ATOM      5  CA  ILE C   3      58.002  28.358  35.961  1.00 14.70 LIG 0.18  C 
BRANCH 5 6
ATOM      6  CB  ILE C   3      57.774  26.989  36.582  1.00 14.24 LIG 0.01  C 
ATOM      7  CG2 ILE C   3      58.893  26.645  37.545  1.00 15.96 LIG 0.01  C 
BRANCH 6 8
ATOM      8  CG1 ILE C   3      56.491  26.976  37.396  1.00 14.06 LIG 0.00  C 
ATOM      9  CD1 ILE C   3      56.491  26.008  38.569  1.00 15.53 LIG 0.01  C 
ENDBRANCH 6 8
ENDBRANCH 5 6
BRANCH 5 10
ATOM     10  N   ILE C   3      57.506  29.405  36.832  1.00 14.80 LIG-0.35  N 
ATOM     11 H    ILE C   3      57.078  29.128  37.525  1.00 14.80 LIG 0.16  HD
ATOM     12  C   TYR C   2      57.721  30.675  36.542  1.00 14.99 LIG 0.24  C 
ATOM     13 O    TYR C   2      58.563  31.020  35.702  1.00 13.53 LIG-0.27  OA
BRANCH 12 14
ATOM     14  CA  TYR C   2      56.954  31.682  37.369  1.00 13.94 LIG 0.18  C 
BRANCH 14 15
ATOM     15  N   TYR C   2      56.783  31.315  38.753  1.00 12.58 LIG-0.35  N 
ATOM     16  C   VAL C   1      55.809  30.484  39.087  1.00 12.16 LIG 0.25  C 
ATOM     17 O    VAL C   1      55.110  29.922  38.215  1.00 12.42 LIG-0.27  OA
ATOM     18 H    TYR C   2      57.342  31.670  39.303  1.00 12.58 LIG 0.16  HD
BRANCH 16 19
ATOM     19  CA  VAL C   1      55.536  30.277  40.601  1.00 12.03 LIG 0.28  C 
BRANCH 19 20
ATOM     20  CB  VAL C   1      56.164  28.962  41.130  1.00 13.82 LIG 0.02  C 
ATOM     21  CG2 VAL C   1      56.288  28.957  42.650  1.00 13.35 LIG 0.01  C 
ATOM     22  CG1 VAL C   1      57.532  28.682  40.507  1.00 14.11 LIG 0.01  C 
ENDBRANCH 19 20
BRANCH 19 23
ATOM     23  N   VAL C   1      54.018  30.277  40.791  1.00 11.80 LIG-0.07  N 
ATOM     24 H3   VAL C   1      53.633  29.849  40.112  1.00 11.80 LIG 0.28  HD
ATOM     25 H1   VAL C   1      53.814  29.866  41.554  1.00 11.80 LIG 0.28  HD
ATOM     26 H2   VAL C   1      53.722  31.116  40.819  1.00 11.80 LIG 0.28  HD
ENDBRANCH 19 23
ENDBRANCH 16 19
ENDBRANCH 14 15
BRANCH 14 27
ATOM     27  CB  TYR C   2      57.564  33.111  37.326  1.00 13.68 LIG 0.07  C 
BRANCH 27 28
ATOM     28  CG  TYR C   2      56.644  34.233  37.409  1.00 14.01 LIG-0.06  A 
ATOM     29  CD1 TYR C   2      55.402  34.219  36.811  1.00 14.17 LIG 0.01  A 
ATOM     30  CE1 TYR C   2      54.589  35.318  36.776  1.00 16.08 LIG 0.04  A 
ATOM     31  CZ  TYR C   2      54.973  36.443  37.441  1.00 18.02 LIG 0.07  A 
ATOM     32  CE2 TYR C   2      56.181  36.506  38.039  1.00 16.42 LIG 0.04  A 
ATOM     33  CD2 TYR C   2      57.037  35.432  38.033  1.00 16.83 LIG 0.01  A 
BRANCH 31 34
ATOM     34 OH   TYR C   2      54.178  37.560  37.459  1.00 21.46 LIG-0.36  OA
ATOM     35 HH   TYR C   2      53.968  37.743  38.251  1.00 21.46 LIG 0.22  HD
ENDBRANCH 31 34
ENDBRANCH 27 28
ENDBRANCH 14 27
ENDBRANCH 12 14
ENDBRANCH 5 10
ENDBRANCH 1 5
BRANCH 3 36
ATOM     36  CA  HIS C   4      57.031  27.998  32.274  1.00 30.85 LIG 0.18  C 
BRANCH 36 37
ATOM     37  C   HIS C   4      55.559  27.368  32.374  1.00 37.69 LIG 0.24  C 
ATOM     38 O    HIS C   4      54.728  27.619  31.480  1.00 34.87 LIG-0.27  OA
ATOM     39  N   PRO C   5      55.268  26.486  33.402  1.00 41.85 LIG-0.34  N 
ATOM     40  CA  PRO C   5      53.845  26.114  33.573  1.00 42.98 LIG 0.18  C 
ATOM     41  CD  PRO C   5      56.136  25.506  34.106  1.00 45.49 LIG 0.13  C 
ATOM     42  CB  PRO C   5      53.817  25.317  34.895  1.00 43.99 LIG 0.04  C 
ATOM     43  CG  PRO C   5      55.266  25.047  35.265  1.00 47.39 LIG 0.02  C 
BRANCH 40 44
ATOM     44  C   PRO C   5      52.947  27.342  33.641  1.00 44.97 LIG 0.24  C 
ATOM     45  N   PHE C   6      53.437  28.357  34.356  1.00 47.34 LIG-0.35  N 
ATOM     46 H    PHE C   6      54.258  28.394  34.611  1.00 47.34 LIG 0.16  HD
ATOM     47 O    PRO C   5      51.839  27.325  33.091  1.00 42.20 LIG-0.27  OA
BRANCH 45 48
ATOM     48  CA  PHE C   6      52.639  29.517  34.785  1.00 47.71 LIG 0.17  C 
BRANCH 48 49
ATOM     49  C   PHE C   6      51.436  29.052  35.600  1.00 43.76 LIG 0.22  C 
ATOM     50 O    PHE C   6      50.380  28.775  35.008  1.00 44.85 LIG-0.29  OA
ENDBRANCH 48 49
BRANCH 48 51
ATOM     51  CB  PHE C   6      52.170  30.275  33.554  1.00 45.10 LIG 0.07  C 
BRANCH 51 52
ATOM     52  CG  PHE C   6      52.018  31.731  33.778  1.00 47.89 LIG-0.06  A 
ATOM     53  CD1 PHE C   6      52.720  32.366  34.795  1.00 50.48 LIG 0.01  A 
ATOM     54  CE1 PHE C   6      52.587  33.743  35.009  1.00 53.80 LIG 0.00  A 
ATOM     55  CZ  PHE C   6      51.746  34.493  34.201  1.00 48.07 LIG 0.00  A 
ATOM     56  CE2 PHE C   6      51.046  33.862  33.183  1.00 44.45 LIG 0.00  A 
ATOM     57  CD2 PHE C   6      51.168  32.484  32.982  1.00 45.95 LIG 0.01  A 
ENDBRANCH 51 52
ENDBRANCH 48 51
ENDBRANCH 45 48
ENDBRANCH 40 44
ENDBRANCH 36 37
BRANCH 36 58
ATOM     58  CB  HIS C   4      57.855  27.531  31.061  1.00 37.41 LIG 0.10  C 
BRANCH 58 59
ATOM     59  CG  HIS C   4      57.370  28.177  29.775  1.00 46.77 LIG 0.06  A 
ATOM     60 ND1  HIS C   4      57.693  27.712  28.518  1.00 46.89 LIG-0.24  NA
ATOM     61  CE1 HIS C   4      57.022  28.392  27.603  1.00 44.31 LIG 0.23  A 
ATOM     62 NE2  HIS C   4      56.265  29.276  28.217  1.00 47.07 LIG-0.25  NA
ATOM     63  CD2 HIS C   4      56.491  29.192  29.569  1.00 43.50 LIG 0.14  A 
ENDBRANCH 58 59
ENDBRANCH 36 58
ENDBRANCH 3 36
TORSDOF 21
ENDMDL
MODEL 2
USER: ADFR SOLUTION from run 123
USER: SCORE 23.591729 LL:  -5.108 LR: -19.985 RR:   0.000 FEB: -13.720
USER: RMSD 5.310405
USER: SEED 122
USER: STATUS no improvement in best in 7 clusters for 5 generations
USER: GENES 23
USER: genes 0 Translation |==|  0.68193 0.50499 0.49795
USER: genes 1 Rotation |==|  0.57899 0.53422 0.67297 0.96116
USER: genes 2 Torsion [N]-C--CA-[N] |==|  0.38610
USER: genes 3 Torsion [C]-CA--CB-[CG2] |==|  0.53551
USER: genes 4 Torsion [CA]-CB--CG1-[CD1] |==|  0.49257
USER: genes 5 Torsion [C]-CA--N-[C] |==|  0.79674
USER: genes 6 Torsion [N]-C--CA-[N] |==|  0.07155
USER: genes 7 Torsion [C]-CA--N-[C] |==|  0.73223
USER: genes 8 Torsion [N]-C--CA-[N] |==|  0.38300
USER: genes 9 Torsion [C]-CA--CB-[CG1] |==|  0.98114
USER: genes 10 Torsion [C]-CA--N-[H3] |==|  0.16356
USER: genes 11 Torsion [C]-CA--CB-[CG] |==|  0.35690
USER: genes 12 Torsion [CA]-CB--CG-[CD1] |==|  0.95091
USER: genes 13 Torsion [CE1]-CZ--OH-[HH] |==|  0.70565
USER: genes 14 Torsion [C]-N--CA-[C] |==|  0.16197
USER: genes 15 Torsion [N]-CA--C-[N] |==|  0.37296
USER: genes 16 Torsion [N]-CA--C-[O] |==|  0.88552
USER: genes 17 Torsion [C]-N--CA-[C] |==|  0.12217
USER: genes 18 Torsion [N]-CA--C-[O] |==|  0.48184
USER: genes 19 Torsion [N]-CA--CB-[CG] |==|  0.89388
USER: genes 20 Torsion [CA]-CB--CG-[CD1] |==|  0.82018
USER: genes 21 Torsion [N]-CA--CB-[CG] |==|  0.21680
USER: genes 22 Torsion [CA]-CB--CG-[CD2] |==|  0.18575
ROOT
ATOM      1  C   ILE C   3      57.311  27.786  35.125  1.00 18.73 LIG 0.24  C 
ATOM      2 O    ILE C   3      56.102  27.796  35.302  1.00 16.27 LIG-0.27  OA
ATOM      3  N   HIS C   4      57.806  27.609  33.902  1.00 21.57 LIG-0.35  N 
ATOM      4 H    HIS C   4      58.639  27.613  33.690  1.00 21.57 LIG 0.16  HD
ENDROOT
BRANCH 1 5
ATOM      5  CA  ILE C   3      58.276  27.950  36.310  1.00 14.70 LIG 0.18  C 
BRANCH 5 6
ATOM      6  CB  ILE C   3      58.450  26.654  37.086  1.00 14.24 LIG 0.01  C 
ATOM      7  CG2 ILE C   3      59.144  26.911  38.410  1.00 15.96 LIG 0.01  C 
BRANCH 6 8
ATOM      8  CG1 ILE C   3      57.100  26.045  37.423  1.00 14.06 LIG 0.00  C 
ATOM      9  CD1 ILE C   3      57.167  24.709  38.146  1.00 15.53 LIG 0.01  C 
ENDBRANCH 6 8
ENDBRANCH 5 6
BRANCH 5 10
ATOM     10  N   ILE C   3      57.741  28.991  37.165  1.00 14.80 LIG-0.35  N 
ATOM     11 H    ILE C   3      57.398  28.713  37.903  1.00 14.80 LIG 0.16  HD
ATOM     12  C   TYR C   2      57.798  30.257  36.795  1.00 14.99 LIG 0.24  C 
ATOM     13 O    TYR C   2      58.534  30.635  35.873  1.00 13.53 LIG-0.27  OA
BRANCH 12 14
ATOM     14  CA  TYR C   2      56.995  31.228  37.629  1.00 13.94 LIG 0.18  C 
BRANCH 14 15
ATOM     15  N   TYR C   2      56.762  30.802  38.987  1.00 12.58 LIG-0.35  N 
ATOM     16  C   VAL C   1      55.624  30.200  39.291  1.00 12.16 LIG 0.25  C 
ATOM     17 O    VAL C   1      54.799  29.891  38.403  1.00 12.42 LIG-0.27  OA
ATOM     18 H    TYR C   2      57.398  30.969  39.542  1.00 12.58 LIG 0.16  HD
BRANCH 16 19
ATOM     19  CA  VAL C   1      55.333  29.942  40.794  1.00 12.03 LIG 0.28  C 
BRANCH 19 20
ATOM     20  CB  VAL C   1      55.648  28.481  41.204  1.00 13.82 LIG 0.02  C 
ATOM     21  CG2 VAL C   1      56.763  28.405  42.241  1.00 13.35 LIG 0.01  C 
ATOM     22  CG1 VAL C   1      56.008  27.608  40.003  1.00 14.11 LIG 0.01  C 
ENDBRANCH 19 20
BRANCH 19 23
ATOM     23  N   VAL C   1      53.859  30.276  41.033  1.00 11.80 LIG-0.07  N 
ATOM     24 H3   VAL C   1      53.350  29.766  40.510  1.00 11.80 LIG 0.28  HD
ATOM     25 H1   VAL C   1      53.654  30.123  41.885  1.00 11.80 LIG 0.28  HD
ATOM     26 H2   VAL C   1      53.714  31.133  40.843  1.00 11.80 LIG 0.28  HD
ENDBRANCH 19 23
ENDBRANCH 16 19
ENDBRANCH 14 15
BRANCH 14 27
ATOM     27  CB  TYR C   2      57.605  32.657  37.675  1.00 13.68 LIG 0.07  C 
BRANCH 27 28
ATOM     28  CG  TYR C   2      56.727  33.769  37.351  1.00 14.01 LIG-0.06  A 
ATOM     29  CD1 TYR C   2      55.534  33.601  36.682  1.00 14.17 LIG 0.01  A 
ATOM     30  CE1 TYR C   2      54.771  34.655  36.262  1.00 16.08 LIG 0.04  A 
ATOM     31  CZ  TYR C   2      55.149  35.919  36.601  1.00 18.02 LIG 0.07  A 
ATOM     32  CE2 TYR C   2      56.311  36.134  37.253  1.00 16.42 LIG 0.04  A 
ATOM     33  CD2 TYR C   2      57.120  35.092  37.631  1.00 16.83 LIG 0.01  A 
BRANCH 31 34
ATOM     34 OH   TYR C   2      54.401  37.006  36.227  1.00 21.46 LIG-0.36  OA
ATOM     35 HH   TYR C   2      54.791  37.414  35.605  1.00 21.46 LIG 0.22  HD
ENDBRANCH 31 34
ENDBRANCH 27 28
ENDBRANCH 14 27
ENDBRANCH 12 14
ENDBRANCH 5 10
ENDBRANCH 1 5
BRANCH 3 36
ATOM     36  CA  HIS C   4      56.855  27.387  32.799  1.00 30.85 LIG 0.18  C 
BRANCH 36 37
ATOM     37  C   HIS C   4      55.806  28.589  32.633  1.00 37.69 LIG 0.24  C 
ATOM     38 O    HIS C   4      55.306  29.105  33.651  1.00 34.87 LIG-0.27  OA
ATOM     39  N   PRO C   5      55.546  29.090  31.369  1.00 41.85 LIG-0.34  N 
ATOM     40  CA  PRO C   5      54.414  30.038  31.252  1.00 42.98 LIG 0.18  C 
ATOM     41  CD  PRO C   5      56.426  29.203  30.175  1.00 45.49 LIG 0.13  C 
ATOM     42  CB  PRO C   5      54.244  30.241  29.731  1.00 43.99 LIG 0.04  C 
ATOM     43  CG  PRO C   5      55.461  29.610  29.074  1.00 47.39 LIG 0.02  C 
BRANCH 40 44
ATOM     44  C   PRO C   5      53.147  29.482  31.887  1.00 44.97 LIG 0.24  C 
ATOM     45  N   PHE C   6      52.461  30.355  32.627  1.00 47.34 LIG-0.35  N 
ATOM     46 H    PHE C   6      52.613  31.201  32.610  1.00 47.34 LIG 0.16  HD
ATOM     47 O    PRO C   5      52.850  28.291  31.729  1.00 42.20 LIG-0.27  OA
BRANCH 45 48
ATOM     48  CA  PHE C   6      51.376  29.975  33.547  1.00 47.71 LIG 0.17  C 
BRANCH 48 49
ATOM     49  C   PHE C   6      51.781  28.745  34.354  1.00 43.76 LIG 0.22  C 
ATOM     50 O    PHE C   6      51.038  28.354  35.269  1.00 44.85 LIG-0.29  OA
ENDBRANCH 48 49
BRANCH 48 51
ATOM     51  CB  PHE C   6      50.125  29.675  32.738  1.00 45.10 LIG 0.07  C 
BRANCH 51 52
ATOM     52  CG  PHE C   6      49.936  30.582  31.582  1.00 47.89 LIG-0.06  A 
ATOM     53  CD1 PHE C   6      49.709  31.938  31.779  1.00 50.48 LIG 0.01  A 
ATOM     54  CE1 PHE C   6      49.535  32.803  30.693  1.00 53.80 LIG 0.00  A 
ATOM     55  CZ  PHE C   6      49.588  32.310  29.398  1.00 48.07 LIG 0.00  A 
ATOM     56  CE2 PHE C   6      49.817  30.957  29.198  1.00 44.45 LIG 0.00  A 
ATOM     57  CD2 PHE C   6      49.974  30.092  30.285  1.00 45.95 LIG 0.01  A 
ENDBRANCH 51 52
ENDBRANCH 48 51
ENDBRANCH 45 48
ENDBRANCH 40 44
ENDBRANCH 36 37
BRANCH 36 58
ATOM     58  CB  HIS C   4      56.229  25.981  32.836  1.00 37.41 LIG 0.10  C 
BRANCH 58 59
ATOM     59  CG  HIS C   4      55.129  25.887  33.879  1.00 46.77 LIG 0.06  A 
ATOM     60 ND1  HIS C   4      55.265  25.211  35.072  1.00 46.89 LIG-0.24  NA
ATOM     61  CE1 HIS C   4      54.197  25.415  35.826  1.00 44.31 LIG 0.23  A 
ATOM     62 NE2  HIS C   4      53.374  26.207  35.173  1.00 47.07 LIG-0.25  NA
ATOM     63  CD2 HIS C   4      53.911  26.486  33.940  1.00 43.50 LIG 0.14  A 
ENDBRANCH 58 59
ENDBRANCH 36 58
ENDBRANCH 3 36
TORSDOF 21
ENDMDL
MODEL 3
USER: ADFR SOLUTION from run 25
USER: SCORE 25.405799 LL:  -6.952 LR: -19.769 RR:   0.000 FEB: -13.505
USER: RMSD 5.967575
USER: SEED 24
USER: STATUS searching
USER: GENES 23
USER: genes 0 Translation |==|  0.65983 0.51627 0.48029
USER: genes 1 Rotation |==|  0.16938 0.47575 0.21101 0.73788
USER: genes 2 Torsion [N]-C--CA-[N] |==|  0.87717
USER: genes 3 Torsion [C]-CA--CB-[CG2] |==|  0.72491
USER: genes 4 Torsion [CA]-CB--CG1-[CD1] |==|  0.55259
USER: genes 5 Torsion [C]-CA--N-[C] |==|  0.70588
USER: genes 6 Torsion [N]-C--CA-[N] |==|  0.11751
USER: genes 7 Torsion [C]-CA--N-[C] |==|  0.75948
USER: genes 8 Torsion [N]-C--CA-[N] |==|  0.36701
USER: genes 9 Torsion [C]-CA--CB-[CG1] |==|  0.86345
USER: genes 10 Torsion [C]-CA--N-[H3] |==|  0.13008
USER: genes 11 Torsion [C]-CA--CB-[CG] |==|  0.38812
USER: genes 12 Torsion [CA]-CB--CG-[CD1] |==|  0.90117
USER: genes 13 Torsion [CE1]-CZ--OH-[HH] |==|  0.33468
USER: genes 14 Torsion [C]-N--CA-[C] |==|  0.63132
USER: genes 15 Torsion [N]-CA--C-[N] |==|  0.15516
USER: genes 16 Torsion [N]-CA--C-[O] |==|  0.33831
USER: genes 17 Torsion [C]-N--CA-[C] |==|  0.72445
USER: genes 18 Torsion [N]-CA--C-[O] |==|  0.96003
USER: genes 19 Torsion [N]-CA--CB-[CG] |==|  0.92924
USER: genes 20 Torsion [CA]-CB--CG-[CD1] |==|  0.30521
USER: genes 21 Torsion [N]-CA--CB-[CG] |==|  0.16545
USER: genes 22 Torsion [CA]-CB--CG-[CD2] |==|  0.26380
ROOT
ATOM      1  C   ILE C   3      56.913  28.090  34.715  1.00 18.73 LIG 0.24  C 
ATOM      2 O    ILE C   3      57.029  28.006  33.502  1.00 16.27 LIG-0.27  OA
ATOM      3  N   HIS C   4      55.772  27.736  35.303  1.00 21.57 LIG-0.35  N 
ATOM      4 H    HIS C   4      55.618  27.742  36.149  1.00 21.57 LIG 0.16  HD
ENDROOT
BRANCH 1 5
ATOM      5  CA  ILE C   3      58.067  28.629  35.576  1.00 14.70 LIG 0.18  C 
BRANCH 5 6
ATOM      6  CB  ILE C   3      58.802  27.514  36.303  1.00 14.24 LIG 0.01  C 
ATOM      7  CG2 ILE C   3      58.326  27.404  37.737  1.00 15.96 LIG 0.01  C 
BRANCH 6 8
ATOM      8  CG1 ILE C   3      58.517  26.170  35.654  1.00 14.06 LIG 0.00  C 
ATOM      9  CD1 ILE C   3      58.813  24.964  36.531  1.00 15.53 LIG 0.01  C 
ENDBRANCH 6 8
ENDBRANCH 5 6
BRANCH 5 10
ATOM     10  N   ILE C   3      57.501  29.569  36.521  1.00 14.80 LIG-0.35  N 
ATOM     11 H    ILE C   3      57.058  29.213  37.167  1.00 14.80 LIG 0.16  HD
ATOM     12  C   TYR C   2      57.677  30.868  36.361  1.00 14.99 LIG 0.24  C 
ATOM     13 O    TYR C   2      58.536  31.321  35.592  1.00 13.53 LIG-0.27  OA
BRANCH 12 14
ATOM     14  CA  TYR C   2      56.842  31.765  37.247  1.00 13.94 LIG 0.18  C 
BRANCH 14 15
ATOM     15  N   TYR C   2      56.743  31.327  38.618  1.00 12.58 LIG-0.35  N 
ATOM     16  C   VAL C   1      55.799  30.463  38.956  1.00 12.16 LIG 0.25  C 
ATOM     17 O    VAL C   1      55.069  29.933  38.090  1.00 12.42 LIG-0.27  OA
ATOM     18 H    TYR C   2      57.322  31.664  39.158  1.00 12.58 LIG 0.16  HD
BRANCH 16 19
ATOM     19  CA  VAL C   1      55.602  30.178  40.469  1.00 12.03 LIG 0.28  C 
BRANCH 19 20
ATOM     20  CB  VAL C   1      56.158  28.789  40.875  1.00 13.82 LIG 0.02  C 
ATOM     21  CG2 VAL C   1      57.681  28.777  40.933  1.00 13.35 LIG 0.01  C 
ATOM     22  CG1 VAL C   1      55.675  27.677  39.944  1.00 14.11 LIG 0.01  C 
ENDBRANCH 19 20
BRANCH 19 23
ATOM     23  N   VAL C   1      54.103  30.276  40.755  1.00 11.80 LIG-0.07  N 
ATOM     24 H3   VAL C   1      53.651  29.820  40.138  1.00 11.80 LIG 0.28  HD
ATOM     25 H1   VAL C   1      53.931  29.935  41.559  1.00 11.80 LIG 0.28  HD
ATOM     26 H2   VAL C   1      53.851  31.130  40.737  1.00 11.80 LIG 0.28  HD
ENDBRANCH 19 23
ENDBRANCH 16 19
ENDBRANCH 14 15
BRANCH 14 27
ATOM     27  CB  TYR C   2      57.316  33.245  37.252  1.00 13.68 LIG 0.07  C 
BRANCH 27 28
ATOM     28  CG  TYR C   2      56.291  34.275  37.239  1.00 14.01 LIG-0.06  A 
ATOM     29  CD1 TYR C   2      55.106  34.132  36.549  1.00 14.17 LIG 0.01  A 
ATOM     30  CE1 TYR C   2      54.198  35.148  36.428  1.00 16.08 LIG 0.04  A 
ATOM     31  CZ  TYR C   2      54.421  36.315  37.095  1.00 18.02 LIG 0.07  A 
ATOM     32  CE2 TYR C   2      55.569  36.502  37.781  1.00 16.42 LIG 0.04  A 
ATOM     33  CD2 TYR C   2      56.519  35.516  37.865  1.00 16.83 LIG 0.01  A 
BRANCH 31 34
ATOM     34 OH   TYR C   2      53.526  37.351  37.026  1.00 21.46 LIG-0.36  OA
ATOM     35 HH   TYR C   2      53.250  37.534  37.798  1.00 21.46 LIG 0.22  HD
ENDBRANCH 31 34
ENDBRANCH 27 28
ENDBRANCH 14 27
ENDBRANCH 12 14
ENDBRANCH 5 10
ENDBRANCH 1 5
BRANCH 3 36
ATOM     36  CA  HIS C   4      54.663  27.288  34.444  1.00 30.85 LIG 0.18  C 
BRANCH 36 37
ATOM     37  C   HIS C   4      53.268  27.983  34.821  1.00 37.69 LIG 0.24  C 
ATOM     38 O    HIS C   4      52.309  27.269  35.174  1.00 34.87 LIG-0.27  OA
ATOM     39  N   PRO C   5      53.182  29.365  34.836  1.00 41.85 LIG-0.34  N 
ATOM     40  CA  PRO C   5      51.825  29.943  34.971  1.00 42.98 LIG 0.18  C 
ATOM     41  CD  PRO C   5      54.204  30.392  35.168  1.00 45.49 LIG 0.13  C 
ATOM     42  CB  PRO C   5      52.031  31.456  34.741  1.00 43.99 LIG 0.04  C 
ATOM     43  CG  PRO C   5      53.533  31.692  34.756  1.00 47.39 LIG 0.02  C 
BRANCH 40 44
ATOM     44  C   PRO C   5      50.857  29.350  33.957  1.00 44.97 LIG 0.24  C 
ATOM     45  N   PHE C   6      51.194  29.545  32.680  1.00 47.34 LIG-0.35  N 
ATOM     46 H    PHE C   6      51.972  29.823  32.440  1.00 47.34 LIG 0.16  HD
ATOM     47 O    PRO C   5      49.831  28.779  34.345  1.00 42.20 LIG-0.27  OA
BRANCH 45 48
ATOM     48  CA  PHE C   6      50.283  29.311  31.547  1.00 47.71 LIG 0.17  C 
BRANCH 48 49
ATOM     49  C   PHE C   6      50.575  27.954  30.913  1.00 43.76 LIG 0.22  C 
ATOM     50 O    PHE C   6      51.635  27.372  31.199  1.00 44.85 LIG-0.29  OA
ENDBRANCH 48 49
BRANCH 48 51
ATOM     51  CB  PHE C   6      50.478  30.415  30.521  1.00 45.10 LIG 0.07  C 
BRANCH 51 52
ATOM     52  CG  PHE C   6      50.997  31.676  31.099  1.00 47.89 LIG-0.06  A 
ATOM     53  CD1 PHE C   6      52.293  32.096  30.826  1.00 50.48 LIG 0.01  A 
ATOM     54  CE1 PHE C   6      52.790  33.289  31.362  1.00 53.80 LIG 0.00  A 
ATOM     55  CZ  PHE C   6      51.987  34.070  32.179  1.00 48.07 LIG 0.00  A 
ATOM     56  CE2 PHE C   6      50.692  33.655  32.451  1.00 44.45 LIG 0.00  A 
ATOM     57  CD2 PHE C   6      50.204  32.454  31.927  1.00 45.95 LIG 0.01  A 
ENDBRANCH 51 52
ENDBRANCH 48 51
ENDBRANCH 45 48
ENDBRANCH 40 44
ENDBRANCH 36 37
BRANCH 36 58
ATOM     58  CB  HIS C   4      54.608  25.756  34.304  1.00 37.41 LIG 0.10  C 
BRANCH 58 59
ATOM     59  CG  HIS C   4      54.431  25.079  35.653  1.00 46.77 LIG 0.06  A 
ATOM     60 ND1  HIS C   4      55.459  24.886  36.550  1.00 46.89 LIG-0.24  NA
ATOM     61  CE1 HIS C   4      54.980  24.395  37.681  1.00 44.31 LIG 0.23  A 
ATOM     62 NE2  HIS C   4      53.676  24.270  37.558  1.00 47.07 LIG-0.25  NA
ATOM     63  CD2 HIS C   4      53.310  24.651  36.290  1.00 43.50 LIG 0.14  A 
ENDBRANCH 58 59
ENDBRANCH 36 58
ENDBRANCH 3 36
TORSDOF 21
ENDMDL
MODEL 4
USER: ADFR SOLUTION from run 180
USER: SCORE 23.591865 LL:  -5.700 LR: -19.633 RR:   0.000 FEB: -13.369
USER: RMSD 5.944441
USER: SEED 179
USER: STATUS no improvement in best in 10 clusters for 5 generations
USER: GENES 23
USER: genes 0 Translation |==|  0.70801 0.50192 0.49119
USER: genes 1 Rotation |==|  0.31356 0.48104 0.21170 0.86299
USER: genes 2 Torsion [N]-C--CA-[N] |==|  0.72923
USER: genes 3 Torsion [C]-CA--CB-[CG2] |==|  0.44747
USER: genes 4 Torsion [CA]-CB--CG1-[CD1] |==|  0.44804
USER: genes 5 Torsion [C]-CA--N-[C] |==|  0.83748
USER: genes 6 Torsion [N]-C--CA-[N] |==|  0.08174
USER: genes 7 Torsion [C]-CA--N-[C] |==|  0.74537
USER: genes 8 Torsion [N]-C--CA-[N] |==|  0.40394
USER: genes 9 Torsion [C]-CA--CB-[CG1] |==|  0.76417
USER: genes 10 Torsion [C]-CA--N-[H3] |==|  0.08090
USER: genes 11 Torsion [C]-CA--CB-[CG] |==|  0.43834
USER: genes 12 Torsion [CA]-CB--CG-[CD1] |==|  0.88295
USER: genes 13 Torsion [CE1]-CZ--OH-[HH] |==|  0.28418
USER: genes 14 Torsion [C]-N--CA-[C] |==|  0.81365
USER: genes 15 Torsion [N]-CA--C-[N] |==|  0.36648
USER: genes 16 Torsion [N]-CA--C-[O] |==|  0.98355
USER: genes 17 Torsion [C]-N--CA-[C] |==|  0.80982
USER: genes 18 Torsion [N]-CA--C-[O] |==|  0.76187
USER: genes 19 Torsion [N]-CA--CB-[CG] |==|  0.84893
USER: genes 20 Torsion [CA]-CB--CG-[CD1] |==|  0.43847
USER: genes 21 Torsion [N]-CA--CB-[CG] |==|  0.14534
USER: genes 22 Torsion [CA]-CB--CG-[CD2] |==|  0.25148
ROOT
ATOM      1  C   ILE C   3      57.780  27.703  34.968  1.00 18.73 LIG 0.24  C 
ATOM      2 O    ILE C   3      58.137  28.410  34.039  1.00 16.27 LIG-0.27  OA
ATOM      3  N   HIS C   4      56.769  26.852  34.810  1.00 21.57 LIG-0.35  N 
ATOM      4 H    HIS C   4      56.473  26.305  35.404  1.00 21.57 LIG 0.16  HD
ENDROOT
BRANCH 1 5
ATOM      5  CA  ILE C   3      58.472  27.802  36.338  1.00 14.70 LIG 0.18  C 
BRANCH 5 6
ATOM      6  CB  ILE C   3      58.306  26.529  37.152  1.00 14.24 LIG 0.01  C 
ATOM      7  CG2 ILE C   3      59.344  26.458  38.254  1.00 15.96 LIG 0.01  C 
BRANCH 6 8
ATOM      8  CG1 ILE C   3      56.951  26.504  37.840  1.00 14.06 LIG 0.00  C 
ATOM      9  CD1 ILE C   3      56.496  25.129  38.301  1.00 15.53 LIG 0.01  C 
ENDBRANCH 6 8
ENDBRANCH 5 6
BRANCH 5 10
ATOM     10  N   ILE C   3      57.896  28.934  37.034  1.00 14.80 LIG-0.35  N 
ATOM     11 H    ILE C   3      57.531  28.748  37.790  1.00 14.80 LIG 0.16  HD
ATOM     12  C   TYR C   2      57.951  30.144  36.507  1.00 14.99 LIG 0.24  C 
ATOM     13 O    TYR C   2      58.713  30.413  35.569  1.00 13.53 LIG-0.27  OA
BRANCH 12 14
ATOM     14  CA  TYR C   2      57.108  31.200  37.183  1.00 13.94 LIG 0.18  C 
BRANCH 14 15
ATOM     15  N   TYR C   2      56.903  30.991  38.596  1.00 12.58 LIG-0.35  N 
ATOM     16  C   VAL C   1      55.842  30.312  39.002  1.00 12.16 LIG 0.25  C 
ATOM     17 O    VAL C   1      55.079  29.753  38.184  1.00 12.42 LIG-0.27  OA
ATOM     18 H    TYR C   2      57.502  31.330  39.112  1.00 12.58 LIG 0.16  HD
BRANCH 16 19
ATOM     19  CA  VAL C   1      55.556  30.285  40.528  1.00 12.03 LIG 0.28  C 
BRANCH 19 20
ATOM     20  CB  VAL C   1      56.204  29.058  41.218  1.00 13.82 LIG 0.02  C 
ATOM     21  CG2 VAL C   1      57.584  28.744  40.652  1.00 13.35 LIG 0.01  C 
ATOM     22  CG1 VAL C   1      55.322  27.812  41.132  1.00 14.11 LIG 0.01  C 
ENDBRANCH 19 20
BRANCH 19 23
ATOM     23  N   VAL C   1      54.036  30.276  40.702  1.00 11.80 LIG-0.07  N 
ATOM     24 H3   VAL C   1      53.659  29.878  40.001  1.00 11.80 LIG 0.28  HD
ATOM     25 H1   VAL C   1      53.824  29.832  41.443  1.00 11.80 LIG 0.28  HD
ATOM     26 H2   VAL C   1      53.739  31.113  40.764  1.00 11.80 LIG 0.28  HD
ENDBRANCH 19 23
ENDBRANCH 16 19
ENDBRANCH 14 15
BRANCH 14 27
ATOM     27  CB  TYR C   2      57.652  32.644  36.989  1.00 13.68 LIG 0.07  C 
BRANCH 27 28
ATOM     28  CG  TYR C   2      56.710  33.739  37.148  1.00 14.01 LIG-0.06  A 
ATOM     29  CD1 TYR C   2      55.430  33.696  36.639  1.00 14.17 LIG 0.01  A 
ATOM     30  CE1 TYR C   2      54.587  34.772  36.673  1.00 16.08 LIG 0.04  A 
ATOM     31  CZ  TYR C   2      54.987  35.902  37.321  1.00 18.02 LIG 0.07  A 
ATOM     32  CE2 TYR C   2      56.233  35.993  37.832  1.00 16.42 LIG 0.04  A 
ATOM     33  CD2 TYR C   2      57.114  34.944  37.755  1.00 16.83 LIG 0.01  A 
BRANCH 31 34
ATOM     34 OH   TYR C   2      54.167  36.997  37.405  1.00 21.46 LIG-0.36  OA
ATOM     35 HH   TYR C   2      53.821  37.030  38.170  1.00 21.46 LIG 0.22  HD
ENDBRANCH 31 34
ENDBRANCH 27 28
ENDBRANCH 14 27
ENDBRANCH 12 14
ENDBRANCH 5 10
ENDBRANCH 1 5
BRANCH 3 36
ATOM     36  CA  HIS C   4      56.083  26.830  33.507  1.00 30.85 LIG 0.18  C 
BRANCH 36 37
ATOM     37  C   HIS C   4      55.278  28.184  33.207  1.00 37.69 LIG 0.24  C 
ATOM     38 O    HIS C   4      54.593  28.697  34.113  1.00 34.87 LIG-0.27  OA
ATOM     39  N   PRO C   5      55.431  28.805  31.979  1.00 41.85 LIG-0.34  N 
ATOM     40  CA  PRO C   5      54.501  29.918  31.679  1.00 42.98 LIG 0.18  C 
ATOM     41  CD  PRO C   5      56.605  28.867  31.069  1.00 45.49 LIG 0.13  C 
ATOM     42  CB  PRO C   5      54.771  30.250  30.196  1.00 43.99 LIG 0.04  C 
ATOM     43  CG  PRO C   5      56.030  29.491  29.808  1.00 47.39 LIG 0.02  C 
BRANCH 40 44
ATOM     44  C   PRO C   5      53.050  29.516  31.907  1.00 44.97 LIG 0.24  C 
ATOM     45  N   PHE C   6      52.170  30.515  31.820  1.00 47.34 LIG-0.35  N 
ATOM     46 H    PHE C   6      52.370  31.285  31.491  1.00 47.34 LIG 0.16  HD
ATOM     47 O    PRO C   5      52.774  28.344  32.190  1.00 42.20 LIG-0.27  OA
BRANCH 45 48
ATOM     48  CA  PHE C   6      50.773  30.418  32.270  1.00 47.71 LIG 0.17  C 
BRANCH 48 49
ATOM     49  C   PHE C   6      49.997  29.462  31.368  1.00 43.76 LIG 0.22  C 
ATOM     50 O    PHE C   6      49.492  29.901  30.322  1.00 44.85 LIG-0.29  OA
ENDBRANCH 48 49
BRANCH 48 51
ATOM     51  CB  PHE C   6      50.142  31.800  32.225  1.00 45.10 LIG 0.07  C 
BRANCH 51 52
ATOM     52  CG  PHE C   6      50.900  32.822  32.983  1.00 47.89 LIG-0.06  A 
ATOM     53  CD1 PHE C   6      50.751  34.172  32.691  1.00 50.48 LIG 0.01  A 
ATOM     54  CE1 PHE C   6      51.459  35.145  33.406  1.00 53.80 LIG 0.00  A 
ATOM     55  CZ  PHE C   6      52.323  34.767  34.423  1.00 48.07 LIG 0.00  A 
ATOM     56  CE2 PHE C   6      52.471  33.420  34.719  1.00 44.45 LIG 0.00  A 
ATOM     57  CD2 PHE C   6      51.776  32.450  33.992  1.00 45.95 LIG 0.01  A 
ENDBRANCH 51 52
ENDBRANCH 48 51
ENDBRANCH 45 48
ENDBRANCH 40 44
ENDBRANCH 36 37
BRANCH 36 58
ATOM     58  CB  HIS C   4      55.280  25.535  33.287  1.00 37.41 LIG 0.10  C 
BRANCH 58 59
ATOM     59  CG  HIS C   4      54.339  25.258  34.447  1.00 46.77 LIG 0.06  A 
ATOM     60 ND1  HIS C   4      54.728  24.633  35.612  1.00 46.89 LIG-0.24  NA
ATOM     61  CE1 HIS C   4      53.733  24.651  36.483  1.00 44.31 LIG 0.23  A 
ATOM     62 NE2  HIS C   4      52.712  25.273  35.933  1.00 47.07 LIG-0.25  NA
ATOM     63  CD2 HIS C   4      53.047  25.628  34.649  1.00 43.50 LIG 0.14  A 
ENDBRANCH 58 59
ENDBRANCH 36 58
ENDBRANCH 3 36
TORSDOF 21
ENDMDL
MODEL 5
USER: ADFR SOLUTION from run 123
USER: SCORE 23.717291 LL:  -4.630 LR: -19.556 RR:   0.000 FEB: -13.292
USER: RMSD 0.836814
USER: SEED 122
USER: STATUS no improvement in best in 7 clusters for 5 generations
USER: GENES 23
USER: genes 0 Translation |==|  0.68525 0.51190 0.49373
USER: genes 1 Rotation |==|  0.50907 0.52480 0.56775 0.99469
USER: genes 2 Torsion [N]-C--CA-[N] |==|  0.47135
USER: genes 3 Torsion [C]-CA--CB-[CG2] |==|  0.54940
USER: genes 4 Torsion [CA]-CB--CG1-[CD1] |==|  0.46564
USER: genes 5 Torsion [C]-CA--N-[C] |==|  0.80226
USER: genes 6 Torsion [N]-C--CA-[N] |==|  0.06958
USER: genes 7 Torsion [C]-CA--N-[C] |==|  0.73785
USER: genes 8 Torsion [N]-C--CA-[N] |==|  0.37168
USER: genes 9 Torsion [C]-CA--CB-[CG1] |==|  0.98020
USER: genes 10 Torsion [C]-CA--N-[H3] |==|  0.15816
USER: genes 11 Torsion [C]-CA--CB-[CG] |==|  0.35369
USER: genes 12 Torsion [CA]-CB--CG-[CD1] |==|  0.94936
USER: genes 13 Torsion [CE1]-CZ--OH-[HH] |==|  0.71633
USER: genes 14 Torsion [C]-N--CA-[C] |==|  0.85868
USER: genes 15 Torsion [N]-CA--C-[N] |==|  0.35637
USER: genes 16 Torsion [N]-CA--C-[O] |==|  0.00756
USER: genes 17 Torsion [C]-N--CA-[C] |==|  0.69307
USER: genes 18 Torsion [N]-CA--C-[O] |==|  0.86494
USER: genes 19 Torsion [N]-CA--CB-[CG] |==|  0.58991
USER: genes 20 Torsion [CA]-CB--CG-[CD1] |==|  0.16550
USER: genes 21 Torsion [N]-CA--CB-[CG] |==|  0.69144
USER: genes 22 Torsion [CA]-CB--CG-[CD2] |==|  0.04752
ROOT
ATOM      1  C   ILE C   3      57.371  27.972  35.027  1.00 18.73 LIG 0.24  C 
ATOM      2 O    ILE C   3      56.276  28.513  35.031  1.00 16.27 LIG-0.27  OA
ATOM      3  N   HIS C   4      57.758  27.256  33.974  1.00 21.57 LIG-0.35  N 
ATOM      4 H    HIS C   4      58.519  26.865  33.883  1.00 21.57 LIG 0.16  HD
ENDROOT
BRANCH 1 5
ATOM      5  CA  ILE C   3      58.305  28.089  36.242  1.00 14.70 LIG 0.18  C 
BRANCH 5 6
ATOM      6  CB  ILE C   3      58.448  26.766  36.979  1.00 14.24 LIG 0.01  C 
ATOM      7  CG2 ILE C   3      58.994  26.987  38.375  1.00 15.96 LIG 0.01  C 
BRANCH 6 8
ATOM      8  CG1 ILE C   3      57.094  26.098  37.151  1.00 14.06 LIG 0.00  C 
ATOM      9  CD1 ILE C   3      57.152  24.649  37.605  1.00 15.53 LIG 0.01  C 
ENDBRANCH 6 8
ENDBRANCH 5 6
BRANCH 5 10
ATOM     10  N   ILE C   3      57.756  29.105  37.117  1.00 14.80 LIG-0.35  N 
ATOM     11 H    ILE C   3      57.415  28.808  37.849  1.00 14.80 LIG 0.16  HD
ATOM     12  C   TYR C   2      57.798  30.379  36.773  1.00 14.99 LIG 0.24  C 
ATOM     13 O    TYR C   2      58.531  30.785  35.860  1.00 13.53 LIG-0.27  OA
BRANCH 12 14
ATOM     14  CA  TYR C   2      56.981  31.323  37.625  1.00 13.94 LIG 0.18  C 
BRANCH 14 15
ATOM     15  N   TYR C   2      56.738  30.859  38.969  1.00 12.58 LIG-0.35  N 
ATOM     16  C   VAL C   1      55.617  30.207  39.236  1.00 12.16 LIG 0.25  C 
ATOM     17 O    VAL C   1      54.823  29.886  38.324  1.00 12.42 LIG-0.27  OA
ATOM     18 H    TYR C   2      57.355  31.038  39.541  1.00 12.58 LIG 0.16  HD
BRANCH 16 19
ATOM     19  CA  VAL C   1      55.305  29.906  40.726  1.00 12.03 LIG 0.28  C 
BRANCH 19 20
ATOM     20  CB  VAL C   1      55.573  28.423  41.087  1.00 13.82 LIG 0.02  C 
ATOM     21  CG2 VAL C   1      56.682  28.276  42.123  1.00 13.35 LIG 0.01  C 
ATOM     22  CG1 VAL C   1      55.909  27.579  39.858  1.00 14.11 LIG 0.01  C 
ENDBRANCH 19 20
BRANCH 19 23
ATOM     23  N   VAL C   1      53.841  30.276  40.965  1.00 11.80 LIG-0.07  N 
ATOM     24 H3   VAL C   1      53.323  29.821  40.402  1.00 11.80 LIG 0.28  HD
ATOM     25 H1   VAL C   1      53.616  30.073  41.802  1.00 11.80 LIG 0.28  HD
ATOM     26 H2   VAL C   1      53.729  31.149  40.832  1.00 11.80 LIG 0.28  HD
ENDBRANCH 19 23
ENDBRANCH 16 19
ENDBRANCH 14 15
BRANCH 14 27
ATOM     27  CB  TYR C   2      57.583  32.753  37.715  1.00 13.68 LIG 0.07  C 
BRANCH 27 28
ATOM     28  CG  TYR C   2      56.710  33.868  37.388  1.00 14.01 LIG-0.06  A 
ATOM     29  CD1 TYR C   2      55.542  33.709  36.672  1.00 14.17 LIG 0.01  A 
ATOM     30  CE1 TYR C   2      54.788  34.769  36.251  1.00 16.08 LIG 0.04  A 
ATOM     31  CZ  TYR C   2      55.144  36.026  36.636  1.00 18.02 LIG 0.07  A 
ATOM     32  CE2 TYR C   2      56.280  36.232  37.334  1.00 16.42 LIG 0.04  A 
ATOM     33  CD2 TYR C   2      57.083  35.185  37.715  1.00 16.83 LIG 0.01  A 
BRANCH 31 34
ATOM     34 OH   TYR C   2      54.403  37.117  36.262  1.00 21.46 LIG-0.36  OA
ATOM     35 HH   TYR C   2      54.786  37.513  35.628  1.00 21.46 LIG 0.22  HD
ENDBRANCH 31 34
ENDBRANCH 27 28
ENDBRANCH 14 27
ENDBRANCH 12 14
ENDBRANCH 5 10
ENDBRANCH 1 5
BRANCH 3 36
ATOM     36  CA  HIS C   4      56.812  27.107  32.855  1.00 30.85 LIG 0.18  C 
BRANCH 36 37
ATOM     37  C   HIS C   4      55.361  26.617  33.331  1.00 37.69 LIG 0.24  C 
ATOM     38 O    HIS C   4      55.272  25.655  34.119  1.00 34.87 LIG-0.27  OA
ATOM     39  N   PRO C   5      54.242  27.327  32.930  1.00 41.85 LIG-0.34  N 
ATOM     40  CA  PRO C   5      52.927  26.705  33.211  1.00 42.98 LIG 0.18  C 
ATOM     41  CD  PRO C   5      54.066  28.777  32.654  1.00 45.49 LIG 0.13  C 
ATOM     42  CB  PRO C   5      51.914  27.606  32.472  1.00 43.99 LIG 0.04  C 
ATOM     43  CG  PRO C   5      52.680  28.844  32.035  1.00 47.39 LIG 0.02  C 
BRANCH 40 44
ATOM     44  C   PRO C   5      52.866  25.268  32.712  1.00 44.97 LIG 0.24  C 
ATOM     45  N   PHE C   6      51.703  24.649  32.923  1.00 47.34 LIG-0.35  N 
ATOM     46 H    PHE C   6      50.988  25.067  33.157  1.00 47.34 LIG 0.16  HD
ATOM     47 O    PRO C   5      53.866  24.752  32.196  1.00 42.20 LIG-0.27  OA
BRANCH 45 48
ATOM     48  CA  PHE C   6      51.510  23.197  32.781  1.00 47.71 LIG 0.17  C 
BRANCH 48 49
ATOM     49  C   PHE C   6      50.634  22.902  31.566  1.00 43.76 LIG 0.22  C 
ATOM     50 O    PHE C   6      49.573  23.532  31.423  1.00 44.85 LIG-0.29  OA
ENDBRANCH 48 49
BRANCH 48 51
ATOM     51  CB  PHE C   6      50.847  22.662  34.040  1.00 45.10 LIG 0.07  C 
BRANCH 51 52
ATOM     52  CG  PHE C   6      51.255  21.280  34.383  1.00 47.89 LIG-0.06  A 
ATOM     53  CD1 PHE C   6      52.589  20.978  34.626  1.00 50.48 LIG 0.01  A 
ATOM     54  CE1 PHE C   6      52.983  19.677  34.957  1.00 53.80 LIG 0.00  A 
ATOM     55  CZ  PHE C   6      52.036  18.666  35.045  1.00 48.07 LIG 0.00  A 
ATOM     56  CE2 PHE C   6      50.704  18.966  34.805  1.00 44.45 LIG 0.00  A 
ATOM     57  CD2 PHE C   6      50.316  20.263  34.459  1.00 45.95 LIG 0.01  A 
ENDBRANCH 51 52
ENDBRANCH 48 51
ENDBRANCH 45 48
ENDBRANCH 40 44
ENDBRANCH 36 37
BRANCH 36 58
ATOM     58  CB  HIS C   4      57.411  26.314  31.680  1.00 37.41 LIG 0.10  C 
BRANCH 58 59
ATOM     59  CG  HIS C   4      57.642  27.201  30.468  1.00 46.77 LIG 0.06  A 
ATOM     60 ND1  HIS C   4      57.718  26.725  29.178  1.00 46.89 LIG-0.24  NA
ATOM     61  CE1 HIS C   4      57.791  27.737  28.330  1.00 44.31 LIG 0.23  A 
ATOM     62 NE2  HIS C   4      57.756  28.858  29.020  1.00 47.07 LIG-0.25  NA
ATOM     63  CD2 HIS C   4      57.704  28.554  30.358  1.00 43.50 LIG 0.14  A 
ENDBRANCH 58 59
ENDBRANCH 36 58
ENDBRANCH 3 36
TORSDOF 21
ENDMDL
MODEL 6
USER: ADFR SOLUTION from run 84
USER: SCORE 24.218194 LL:  -5.387 LR: -19.482 RR:   0.000 FEB: -13.218
USER: RMSD 2.593917
USER: SEED 83
USER: STATUS no improvement in best in 3 clusters for 5 generations
USER: GENES 23
USER: genes 0 Translation |==|  0.69145 0.52278 0.48629
USER: genes 1 Rotation |==|  0.56488 0.51814 0.66637 0.96667
USER: genes 2 Torsion [N]-C--CA-[N] |==|  0.39703
USER: genes 3 Torsion [C]-CA--CB-[CG2] |==|  0.59617
USER: genes 4 Torsion [CA]-CB--CG1-[CD1] |==|  0.75147
USER: genes 5 Torsion [C]-CA--N-[C] |==|  0.80153
USER: genes 6 Torsion [N]-C--CA-[N] |==|  0.09044
USER: genes 7 Torsion [C]-CA--N-[C] |==|  0.76333
USER: genes 8 Torsion [N]-C--CA-[N] |==|  0.37500
USER: genes 9 Torsion [C]-CA--CB-[CG1] |==|  0.39113
USER: genes 10 Torsion [C]-CA--N-[H3] |==|  0.11146
USER: genes 11 Torsion [C]-CA--CB-[CG] |==|  0.40173
USER: genes 12 Torsion [CA]-CB--CG-[CD1] |==|  0.89380
USER: genes 13 Torsion [CE1]-CZ--OH-[HH] |==|  0.33053
USER: genes 14 Torsion [C]-N--CA-[C] |==|  0.80009
USER: genes 15 Torsion [N]-CA--C-[N] |==|  0.90189
USER: genes 16 Torsion [N]-CA--C-[O] |==|  0.86334
USER: genes 17 Torsion [C]-N--CA-[C] |==|  0.86752
USER: genes 18 Torsion [N]-CA--C-[O] |==|  0.27702
USER: genes 19 Torsion [N]-CA--CB-[CG] |==|  0.20276
USER: genes 20 Torsion [CA]-CB--CG-[CD1] |==|  0.87780
USER: genes 21 Torsion [N]-CA--CB-[CG] |==|  0.60774
USER: genes 22 Torsion [CA]-CB--CG-[CD2] |==|  0.09131
ROOT
ATOM      1  C   ILE C   3      57.482  28.266  34.854  1.00 18.73 LIG 0.24  C 
ATOM      2 O    ILE C   3      56.265  28.327  34.937  1.00 16.27 LIG-0.27  OA
ATOM      3  N   HIS C   4      58.061  28.027  33.679  1.00 21.57 LIG-0.35  N 
ATOM      4 H    HIS C   4      58.907  27.992  33.532  1.00 21.57 LIG 0.16  HD
ENDROOT
BRANCH 1 5
ATOM      5  CA  ILE C   3      58.361  28.438  36.104  1.00 14.70 LIG 0.18  C 
BRANCH 5 6
ATOM      6  CB  ILE C   3      58.503  27.140  36.883  1.00 14.24 LIG 0.01  C 
ATOM      7  CG2 ILE C   3      58.576  27.413  38.372  1.00 15.96 LIG 0.01  C 
BRANCH 6 8
ATOM      8  CG1 ILE C   3      57.289  26.251  36.671  1.00 14.06 LIG 0.00  C 
ATOM      9  CD1 ILE C   3      56.157  26.473  37.662  1.00 15.53 LIG 0.01  C 
ENDBRANCH 6 8
ENDBRANCH 5 6
BRANCH 5 10
ATOM     10  N   ILE C   3      57.752  29.464  36.925  1.00 14.80 LIG-0.35  N 
ATOM     11 H    ILE C   3      57.384  29.179  37.649  1.00 14.80 LIG 0.16  HD
ATOM     12  C   TYR C   2      57.784  30.730  36.550  1.00 14.99 LIG 0.24  C 
ATOM     13 O    TYR C   2      58.550  31.128  35.661  1.00 13.53 LIG-0.27  OA
BRANCH 12 14
ATOM     14  CA  TYR C   2      56.910  31.677  37.339  1.00 13.94 LIG 0.18  C 
BRANCH 14 15
ATOM     15  N   TYR C   2      56.754  31.331  38.731  1.00 12.58 LIG-0.35  N 
ATOM     16  C   VAL C   1      55.818  30.464  39.081  1.00 12.16 LIG 0.25  C 
ATOM     17 O    VAL C   1      55.145  29.855  38.220  1.00 12.42 LIG-0.27  OA
ATOM     18 H    TYR C   2      57.297  31.721  39.273  1.00 12.58 LIG 0.16  HD
BRANCH 16 19
ATOM     19  CA  VAL C   1      55.553  30.276  40.599  1.00 12.03 LIG 0.28  C 
BRANCH 19 20
ATOM     20  CB  VAL C   1      56.186  28.969  41.141  1.00 13.82 LIG 0.02  C 
ATOM     21  CG2 VAL C   1      55.187  27.818  41.172  1.00 13.35 LIG 0.01  C 
ATOM     22  CG1 VAL C   1      56.794  29.153  42.531  1.00 14.11 LIG 0.01  C 
ENDBRANCH 19 20
BRANCH 19 23
ATOM     23  N   VAL C   1      54.036  30.276  40.797  1.00 11.80 LIG-0.07  N 
ATOM     24 H3   VAL C   1      53.650  29.821  40.136  1.00 11.80 LIG 0.28  HD
ATOM     25 H1   VAL C   1      53.838  29.893  41.575  1.00 11.80 LIG 0.28  HD
ATOM     26 H2   VAL C   1      53.736  31.114  40.795  1.00 11.80 LIG 0.28  HD
ENDBRANCH 19 23
ENDBRANCH 16 19
ENDBRANCH 14 15
BRANCH 14 27
ATOM     27  CB  TYR C   2      57.378  33.158  37.265  1.00 13.68 LIG 0.07  C 
BRANCH 27 28
ATOM     28  CG  TYR C   2      56.349  34.184  37.252  1.00 14.01 LIG-0.06  A 
ATOM     29  CD1 TYR C   2      55.161  34.032  36.570  1.00 14.17 LIG 0.01  A 
ATOM     30  CE1 TYR C   2      54.249  35.044  36.447  1.00 16.08 LIG 0.04  A 
ATOM     31  CZ  TYR C   2      54.472  36.216  37.104  1.00 18.02 LIG 0.07  A 
ATOM     32  CE2 TYR C   2      55.623  36.413  37.781  1.00 16.42 LIG 0.04  A 
ATOM     33  CD2 TYR C   2      56.578  35.430  37.866  1.00 16.83 LIG 0.01  A 
BRANCH 31 34
ATOM     34 OH   TYR C   2      53.573  37.249  37.034  1.00 21.46 LIG-0.36  OA
ATOM     35 HH   TYR C   2      53.285  37.423  37.803  1.00 21.46 LIG 0.22  HD
ENDBRANCH 31 34
ENDBRANCH 27 28
ENDBRANCH 14 27
ENDBRANCH 12 14
ENDBRANCH 5 10
ENDBRANCH 1 5
BRANCH 3 36
ATOM     36  CA  HIS C   4      57.188  27.799  32.515  1.00 30.85 LIG 0.18  C 
BRANCH 36 37
ATOM     37  C   HIS C   4      56.443  26.380  32.567  1.00 37.69 LIG 0.24  C 
ATOM     38 O    HIS C   4      55.315  26.266  32.048  1.00 34.87 LIG-0.27  OA
ATOM     39  N   PRO C   5      57.103  25.288  33.104  1.00 41.85 LIG-0.34  N 
ATOM     40  CA  PRO C   5      56.293  24.068  33.329  1.00 42.98 LIG 0.18  C 
ATOM     41  CD  PRO C   5      58.549  24.943  33.114  1.00 45.49 LIG 0.13  C 
ATOM     42  CB  PRO C   5      57.231  23.128  34.116  1.00 43.99 LIG 0.04  C 
ATOM     43  CG  PRO C   5      58.614  23.757  34.062  1.00 47.39 LIG 0.02  C 
BRANCH 40 44
ATOM     44  C   PRO C   5      55.022  24.373  34.110  1.00 44.97 LIG 0.24  C 
ATOM     45  N   PHE C   6      53.899  23.913  33.556  1.00 47.34 LIG-0.35  N 
ATOM     46 H    PHE C   6      53.896  23.343  32.912  1.00 47.34 LIG 0.16  HD
ATOM     47 O    PRO C   5      55.084  25.039  35.151  1.00 42.20 LIG-0.27  OA
BRANCH 45 48
ATOM     48  CA  PHE C   6      52.549  24.322  33.979  1.00 47.71 LIG 0.17  C 
BRANCH 48 49
ATOM     49  C   PHE C   6      52.434  24.253  35.499  1.00 43.76 LIG 0.22  C 
ATOM     50 O    PHE C   6      52.545  25.300  36.158  1.00 44.85 LIG-0.29  OA
ENDBRANCH 48 49
BRANCH 48 51
ATOM     51  CB  PHE C   6      51.530  23.394  33.339  1.00 45.10 LIG 0.07  C 
BRANCH 51 52
ATOM     52  CG  PHE C   6      51.506  22.038  33.935  1.00 47.89 LIG-0.06  A 
ATOM     53  CD1 PHE C   6      52.691  21.371  34.218  1.00 50.48 LIG 0.01  A 
ATOM     54  CE1 PHE C   6      52.678  20.093  34.787  1.00 53.80 LIG 0.00  A 
ATOM     55  CZ  PHE C   6      51.470  19.474  35.077  1.00 48.07 LIG 0.00  A 
ATOM     56  CE2 PHE C   6      50.286  20.139  34.798  1.00 44.45 LIG 0.00  A 
ATOM     57  CD2 PHE C   6      50.302  21.409  34.214  1.00 45.95 LIG 0.01  A 
ENDBRANCH 51 52
ENDBRANCH 48 51
ENDBRANCH 45 48
ENDBRANCH 40 44
ENDBRANCH 36 37
BRANCH 36 58
ATOM     58  CB  HIS C   4      57.892  28.114  31.182  1.00 37.41 LIG 0.10  C 
BRANCH 58 59
ATOM     59  CG  HIS C   4      56.950  28.788  30.199  1.00 46.77 LIG 0.06  A 
ATOM     60 ND1  HIS C   4      56.937  28.518  28.848  1.00 46.89 LIG-0.24  NA
ATOM     61  CE1 HIS C   4      55.929  29.154  28.274  1.00 44.31 LIG 0.23  A 
ATOM     62 NE2  HIS C   4      55.278  29.821  29.203  1.00 47.07 LIG-0.25  NA
ATOM     63  CD2 HIS C   4      55.915  29.643  30.407  1.00 43.50 LIG 0.14  A 
ENDBRANCH 58 59
ENDBRANCH 36 58
ENDBRANCH 3 36
TORSDOF 21
ENDMDL
MODEL 7
USER: ADFR SOLUTION from run 77
USER: SCORE 25.203723 LL:  -6.325 LR: -19.466 RR:   0.000 FEB: -13.202
USER: RMSD 3.884061
USER: SEED 76
USER: STATUS no improvement in best in 5 clusters for 5 generations
USER: GENES 23
USER: genes 0 Translation |==|  0.69110 0.50711 0.49854
USER: genes 1 Rotation |==|  0.56622 0.53078 0.68813 0.95747
USER: genes 2 Torsion [N]-C--CA-[N] |==|  0.37384
USER: genes 3 Torsion [C]-CA--CB-[CG2] |==|  0.55909
USER: genes 4 Torsion [CA]-CB--CG1-[CD1] |==|  0.76892
USER: genes 5 Torsion [C]-CA--N-[C] |==|  0.80733
USER: genes 6 Torsion [N]-C--CA-[N] |==|  0.07701
USER: genes 7 Torsion [C]-CA--N-[C] |==|  0.76633
USER: genes 8 Torsion [N]-C--CA-[N] |==|  0.37974
USER: genes 9 Torsion [C]-CA--CB-[CG1] |==|  0.38490
USER: genes 10 Torsion [C]-CA--N-[H3] |==|  0.10419
USER: genes 11 Torsion [C]-CA--CB-[CG] |==|  0.42066
USER: genes 12 Torsion [CA]-CB--CG-[CD1] |==|  0.89241
USER: genes 13 Torsion [CE1]-CZ--OH-[HH] |==|  0.33610
USER: genes 14 Torsion [C]-N--CA-[C] |==|  0.78438
USER: genes 15 Torsion [N]-CA--C-[N] |==|  0.93889
USER: genes 16 Torsion [N]-CA--C-[O] |==|  0.30335
USER: genes 17 Torsion [C]-N--CA-[C] |==|  0.83652
USER: genes 18 Torsion [N]-CA--C-[O] |==|  0.84425
USER: genes 19 Torsion [N]-CA--CB-[CG] |==|  0.80879
USER: genes 20 Torsion [CA]-CB--CG-[CD1] |==|  0.48087
USER: genes 21 Torsion [N]-CA--CB-[CG] |==|  0.66296
USER: genes 22 Torsion [CA]-CB--CG-[CD2] |==|  0.51204
ROOT
ATOM      1  C   ILE C   3      57.476  27.843  35.139  1.00 18.73 LIG 0.24  C 
ATOM      2 O    ILE C   3      56.263  27.783  35.269  1.00 16.27 LIG-0.27  OA
ATOM      3  N   HIS C   4      58.029  27.656  33.943  1.00 21.57 LIG-0.35  N 
ATOM      4 H    HIS C   4      58.869  27.704  33.763  1.00 21.57 LIG 0.16  HD
ENDROOT
BRANCH 1 5
ATOM      5  CA  ILE C   3      58.381  28.109  36.353  1.00 14.70 LIG 0.18  C 
BRANCH 5 6
ATOM      6  CB  ILE C   3      58.517  26.882  37.241  1.00 14.24 LIG 0.01  C 
ATOM      7  CG2 ILE C   3      58.947  27.278  38.640  1.00 15.96 LIG 0.01  C 
BRANCH 6 8
ATOM      8  CG1 ILE C   3      57.180  26.176  37.390  1.00 14.06 LIG 0.00  C 
ATOM      9  CD1 ILE C   3      56.267  26.759  38.457  1.00 15.53 LIG 0.01  C 
ENDBRANCH 6 8
ENDBRANCH 5 6
BRANCH 5 10
ATOM     10  N   ILE C   3      57.804  29.214  37.091  1.00 14.80 LIG-0.35  N 
ATOM     11 H    ILE C   3      57.470  29.005  37.855  1.00 14.80 LIG 0.16  HD
ATOM     12  C   TYR C   2      57.813  30.434  36.586  1.00 14.99 LIG 0.24  C 
ATOM     13 O    TYR C   2      58.536  30.739  35.627  1.00 13.53 LIG-0.27  OA
BRANCH 12 14
ATOM     14  CA  TYR C   2      56.970  31.458  37.312  1.00 13.94 LIG 0.18  C 
BRANCH 14 15
ATOM     15  N   TYR C   2      56.788  31.196  38.718  1.00 12.58 LIG-0.35  N 
ATOM     16  C   VAL C   1      55.829  30.371  39.104  1.00 12.16 LIG 0.25  C 
ATOM     17 O    VAL C   1      55.155  29.727  38.270  1.00 12.42 LIG-0.27  OA
ATOM     18 H    TYR C   2      57.332  31.605  39.245  1.00 12.58 LIG 0.16  HD
BRANCH 16 19
ATOM     19  CA  VAL C   1      55.539  30.276  40.627  1.00 12.03 LIG 0.28  C 
BRANCH 19 20
ATOM     20  CB  VAL C   1      56.173  29.011  41.260  1.00 13.82 LIG 0.02  C 
ATOM     21  CG2 VAL C   1      55.167  27.874  41.398  1.00 13.35 LIG 0.01  C 
ATOM     22  CG1 VAL C   1      56.804  29.300  42.622  1.00 14.11 LIG 0.01  C 
ENDBRANCH 19 20
BRANCH 19 23
ATOM     23  N   VAL C   1      54.020  30.276  40.799  1.00 11.80 LIG-0.07  N 
ATOM     24 H3   VAL C   1      53.646  29.809  40.140  1.00 11.80 LIG 0.28  HD
ATOM     25 H1   VAL C   1      53.809  29.906  41.580  1.00 11.80 LIG 0.28  HD
ATOM     26 H2   VAL C   1      53.718  31.113  40.777  1.00 11.80 LIG 0.28  HD
ENDBRANCH 19 23
ENDBRANCH 16 19
ENDBRANCH 14 15
BRANCH 14 27
ATOM     27  CB  TYR C   2      57.498  32.912  37.161  1.00 13.68 LIG 0.07  C 
BRANCH 27 28
ATOM     28  CG  TYR C   2      56.523  33.987  37.232  1.00 14.01 LIG-0.06  A 
ATOM     29  CD1 TYR C   2      55.268  33.888  36.670  1.00 14.17 LIG 0.01  A 
ATOM     30  CE1 TYR C   2      54.398  34.942  36.621  1.00 16.08 LIG 0.04  A 
ATOM     31  CZ  TYR C   2      54.739  36.108  37.237  1.00 18.02 LIG 0.07  A 
ATOM     32  CE2 TYR C   2      55.958  36.254  37.798  1.00 16.42 LIG 0.04  A 
ATOM     33  CD2 TYR C   2      56.868  35.226  37.805  1.00 16.83 LIG 0.01  A 
BRANCH 31 34
ATOM     34 OH   TYR C   2      53.888  37.183  37.239  1.00 21.46 LIG-0.36  OA
ATOM     35 HH   TYR C   2      53.706  37.395  38.031  1.00 21.46 LIG 0.22  HD
ENDBRANCH 31 34
ENDBRANCH 27 28
ENDBRANCH 14 27
ENDBRANCH 12 14
ENDBRANCH 5 10
ENDBRANCH 1 5
BRANCH 3 36
ATOM     36  CA  HIS C   4      57.139  27.336  32.814  1.00 30.85 LIG 0.18  C 
BRANCH 36 37
ATOM     37  C   HIS C   4      56.657  25.806  32.819  1.00 37.69 LIG 0.24  C 
ATOM     38 O    HIS C   4      55.664  25.479  32.141  1.00 34.87 LIG-0.27  OA
ATOM     39  N   PRO C   5      57.405  24.863  33.503  1.00 41.85 LIG-0.34  N 
ATOM     40  CA  PRO C   5      56.797  23.521  33.659  1.00 42.98 LIG 0.18  C 
ATOM     41  CD  PRO C   5      58.869  24.787  33.750  1.00 45.49 LIG 0.13  C 
ATOM     42  CB  PRO C   5      57.749  22.782  34.625  1.00 43.99 LIG 0.04  C 
ATOM     43  CG  PRO C   5      58.991  23.650  34.753  1.00 47.39 LIG 0.02  C 
BRANCH 40 44
ATOM     44  C   PRO C   5      55.385  23.605  34.222  1.00 44.97 LIG 0.24  C 
ATOM     45  N   PHE C   6      55.314  23.923  35.516  1.00 47.34 LIG-0.35  N 
ATOM     46 H    PHE C   6      55.986  24.228  35.959  1.00 47.34 LIG 0.16  HD
ATOM     47 O    PRO C   5      54.417  23.346  33.496  1.00 42.20 LIG-0.27  OA
BRANCH 45 48
ATOM     48  CA  PHE C   6      54.093  23.790  36.327  1.00 47.71 LIG 0.17  C 
BRANCH 48 49
ATOM     49  C   PHE C   6      52.971  24.630  35.725  1.00 43.76 LIG 0.22  C 
ATOM     50 O    PHE C   6      53.159  25.845  35.548  1.00 44.85 LIG-0.29  OA
ENDBRANCH 48 49
BRANCH 48 51
ATOM     51  CB  PHE C   6      54.388  24.257  37.743  1.00 45.10 LIG 0.07  C 
BRANCH 51 52
ATOM     52  CG  PHE C   6      55.305  23.360  38.484  1.00 47.89 LIG-0.06  A 
ATOM     53  CD1 PHE C   6      55.784  23.719  39.737  1.00 50.48 LIG 0.01  A 
ATOM     54  CE1 PHE C   6      56.646  22.875  40.447  1.00 53.80 LIG 0.00  A 
ATOM     55  CZ  PHE C   6      57.032  21.660  39.901  1.00 48.07 LIG 0.00  A 
ATOM     56  CE2 PHE C   6      56.552  21.297  38.651  1.00 44.45 LIG 0.00  A 
ATOM     57  CD2 PHE C   6      55.706  22.150  37.937  1.00 45.95 LIG 0.01  A 
ENDBRANCH 51 52
ENDBRANCH 48 51
ENDBRANCH 45 48
ENDBRANCH 40 44
ENDBRANCH 36 37
BRANCH 36 58
ATOM     58  CB  HIS C   4      57.694  27.836  31.468  1.00 37.41 LIG 0.10  C 
BRANCH 58 59
ATOM     59  CG  HIS C   4      56.732  28.796  30.790  1.00 46.77 LIG 0.06  A 
ATOM     60 ND1  HIS C   4      55.621  29.327  31.409  1.00 46.89 LIG-0.24  NA
ATOM     61  CE1 HIS C   4      55.055  30.226  30.621  1.00 44.31 LIG 0.23  A 
ATOM     62 NE2  HIS C   4      55.762  30.308  29.513  1.00 47.07 LIG-0.25  NA
ATOM     63  CD2 HIS C   4      56.790  29.399  29.574  1.00 43.50 LIG 0.14  A 
ENDBRANCH 58 59
ENDBRANCH 36 58
ENDBRANCH 3 36
TORSDOF 21
ENDMDL
MODEL 8
USER: ADFR SOLUTION from run 181
USER: SCORE 24.375587 LL:  -6.164 LR: -19.240 RR:   0.000 FEB: -12.976
USER: RMSD 5.530931
USER: SEED 180
USER: STATUS no improvement in best in 5 clusters for 5 generations
USER: GENES 23
USER: genes 0 Translation |==|  0.68757 0.52153 0.48161
USER: genes 1 Rotation |==|  0.49942 0.50496 0.53563 0.99870
USER: genes 2 Torsion [N]-C--CA-[N] |==|  0.48250
USER: genes 3 Torsion [C]-CA--CB-[CG2] |==|  0.50892
USER: genes 4 Torsion [CA]-CB--CG1-[CD1] |==|  0.61188
USER: genes 5 Torsion [C]-CA--N-[C] |==|  0.81656
USER: genes 6 Torsion [N]-C--CA-[N] |==|  0.08646
USER: genes 7 Torsion [C]-CA--N-[C] |==|  0.75549
USER: genes 8 Torsion [N]-C--CA-[N] |==|  0.38857
USER: genes 9 Torsion [C]-CA--CB-[CG1] |==|  0.14326
USER: genes 10 Torsion [C]-CA--N-[H3] |==|  0.45243
USER: genes 11 Torsion [C]-CA--CB-[CG] |==|  0.40531
USER: genes 12 Torsion [CA]-CB--CG-[CD1] |==|  0.90476
USER: genes 13 Torsion [CE1]-CZ--OH-[HH] |==|  0.32125
USER: genes 14 Torsion [C]-N--CA-[C] |==|  0.87185
USER: genes 15 Torsion [N]-CA--C-[N] |==|  0.87276
USER: genes 16 Torsion [N]-CA--C-[O] |==|  0.88490
USER: genes 17 Torsion [C]-N--CA-[C] |==|  0.48561
USER: genes 18 Torsion [N]-CA--C-[O] |==|  0.01422
USER: genes 19 Torsion [N]-CA--CB-[CG] |==|  0.50148
USER: genes 20 Torsion [CA]-CB--CG-[CD1] |==|  0.24759
USER: genes 21 Torsion [N]-CA--CB-[CG] |==|  0.13732
USER: genes 22 Torsion [CA]-CB--CG-[CD2] |==|  0.80396
ROOT
ATOM      1  C   ILE C   3      57.412  28.232  34.745  1.00 18.73 LIG 0.24  C 
ATOM      2 O    ILE C   3      56.400  28.907  34.642  1.00 16.27 LIG-0.27  OA
ATOM      3  N   HIS C   4      57.786  27.432  33.750  1.00 21.57 LIG-0.35  N 
ATOM      4 H    HIS C   4      58.494  26.944  33.734  1.00 21.57 LIG 0.16  HD
ENDROOT
BRANCH 1 5
ATOM      5  CA  ILE C   3      58.254  28.277  36.031  1.00 14.70 LIG 0.18  C 
BRANCH 5 6
ATOM      6  CB  ILE C   3      58.244  26.945  36.764  1.00 14.24 LIG 0.01  C 
ATOM      7  CG2 ILE C   3      59.016  27.042  38.065  1.00 15.96 LIG 0.01  C 
BRANCH 6 8
ATOM      8  CG1 ILE C   3      56.825  26.549  37.139  1.00 14.06 LIG 0.00  C 
ATOM      9  CD1 ILE C   3      56.681  25.928  38.519  1.00 15.53 LIG 0.01  C 
ENDBRANCH 6 8
ENDBRANCH 5 6
BRANCH 5 10
ATOM     10  N   ILE C   3      57.712  29.327  36.869  1.00 14.80 LIG-0.35  N 
ATOM     11 H    ILE C   3      57.354  29.057  37.604  1.00 14.80 LIG 0.16  HD
ATOM     12  C   TYR C   2      57.783  30.590  36.491  1.00 14.99 LIG 0.24  C 
ATOM     13 O    TYR C   2      58.537  30.957  35.579  1.00 13.53 LIG-0.27  OA
BRANCH 12 14
ATOM     14  CA  TYR C   2      56.972  31.572  37.305  1.00 13.94 LIG 0.18  C 
BRANCH 14 15
ATOM     15  N   TYR C   2      56.817  31.216  38.694  1.00 12.58 LIG-0.35  N 
ATOM     16  C   VAL C   1      55.807  30.441  39.055  1.00 12.16 LIG 0.25  C 
ATOM     17 O    VAL C   1      55.055  29.919  38.202  1.00 12.42 LIG-0.27  OA
ATOM     18 H    TYR C   2      57.410  31.538  39.228  1.00 12.58 LIG 0.16  HD
BRANCH 16 19
ATOM     19  CA  VAL C   1      55.563  30.250  40.576  1.00 12.03 LIG 0.28  C 
BRANCH 19 20
ATOM     20  CB  VAL C   1      56.182  28.930  41.102  1.00 13.82 LIG 0.02  C 
ATOM     21  CG2 VAL C   1      56.045  28.796  42.615  1.00 13.35 LIG 0.01  C 
ATOM     22  CG1 VAL C   1      57.652  28.783  40.709  1.00 14.11 LIG 0.01  C 
ENDBRANCH 19 20
BRANCH 19 23
ATOM     23  N   VAL C   1      54.050  30.276  40.798  1.00 11.80 LIG-0.07  N 
ATOM     24 H3   VAL C   1      53.860  29.929  41.595  1.00 11.80 LIG 0.28  HD
ATOM     25 H1   VAL C   1      53.759  31.116  40.764  1.00 11.80 LIG 0.28  HD
ATOM     26 H2   VAL C   1      53.648  29.798  40.164  1.00 11.80 LIG 0.28  HD
ENDBRANCH 19 23
ENDBRANCH 16 19
ENDBRANCH 14 15
BRANCH 14 27
ATOM     27  CB  TYR C   2      57.518  33.026  37.243  1.00 13.68 LIG 0.07  C 
BRANCH 27 28
ATOM     28  CG  TYR C   2      56.547  34.107  37.286  1.00 14.01 LIG-0.06  A 
ATOM     29  CD1 TYR C   2      55.297  34.004  36.713  1.00 14.17 LIG 0.01  A 
ATOM     30  CE1 TYR C   2      54.433  35.060  36.638  1.00 16.08 LIG 0.04  A 
ATOM     31  CZ  TYR C   2      54.773  36.234  37.238  1.00 18.02 LIG 0.07  A 
ATOM     32  CE2 TYR C   2      55.986  36.384  37.810  1.00 16.42 LIG 0.04  A 
ATOM     33  CD2 TYR C   2      56.892  35.353  37.843  1.00 16.83 LIG 0.01  A 
BRANCH 31 34
ATOM     34 OH   TYR C   2      53.926  37.313  37.214  1.00 21.46 LIG-0.36  OA
ATOM     35 HH   TYR C   2      53.679  37.493  37.996  1.00 21.46 LIG 0.22  HD
ENDBRANCH 31 34
ENDBRANCH 27 28
ENDBRANCH 14 27
ENDBRANCH 12 14
ENDBRANCH 5 10
ENDBRANCH 1 5
BRANCH 3 36
ATOM     36  CA  HIS C   4      56.921  27.361  32.560  1.00 30.85 LIG 0.18  C 
BRANCH 36 37
ATOM     37  C   HIS C   4      55.369  27.199  32.930  1.00 37.69 LIG 0.24  C 
ATOM     38 O    HIS C   4      54.520  27.846  32.287  1.00 34.87 LIG-0.27  OA
ATOM     39  N   PRO C   5      54.996  26.277  33.894  1.00 41.85 LIG-0.34  N 
ATOM     40  CA  PRO C   5      53.588  26.330  34.350  1.00 42.98 LIG 0.18  C 
ATOM     41  CD  PRO C   5      55.600  24.970  34.264  1.00 45.49 LIG 0.13  C 
ATOM     42  CB  PRO C   5      53.539  25.355  35.547  1.00 43.99 LIG 0.04  C 
ATOM     43  CG  PRO C   5      54.857  24.596  35.536  1.00 47.39 LIG 0.02  C 
BRANCH 40 44
ATOM     44  C   PRO C   5      53.181  27.738  34.760  1.00 44.97 LIG 0.24  C 
ATOM     45  N   PHE C   6      51.980  28.125  34.326  1.00 47.34 LIG-0.35  N 
ATOM     46 H    PHE C   6      51.405  27.576  33.996  1.00 47.34 LIG 0.16  HD
ATOM     47 O    PRO C   5      53.965  28.441  35.410  1.00 42.20 LIG-0.27  OA
BRANCH 45 48
ATOM     48  CA  PHE C   6      51.505  29.517  34.361  1.00 47.71 LIG 0.17  C 
BRANCH 48 49
ATOM     49  C   PHE C   6      50.147  29.625  33.673  1.00 43.76 LIG 0.22  C 
ATOM     50 O    PHE C   6      49.588  28.587  33.281  1.00 44.85 LIG-0.29  OA
ENDBRANCH 48 49
BRANCH 48 51
ATOM     51  CB  PHE C   6      52.517  30.401  33.651  1.00 45.10 LIG 0.07  C 
BRANCH 51 52
ATOM     52  CG  PHE C   6      52.145  31.835  33.636  1.00 47.89 LIG-0.06  A 
ATOM     53  CD1 PHE C   6      52.535  32.675  34.671  1.00 50.48 LIG 0.01  A 
ATOM     54  CE1 PHE C   6      52.193  34.032  34.663  1.00 53.80 LIG 0.00  A 
ATOM     55  CZ  PHE C   6      51.454  34.556  33.612  1.00 48.07 LIG 0.00  A 
ATOM     56  CE2 PHE C   6      51.066  33.719  32.576  1.00 44.45 LIG 0.00  A 
ATOM     57  CD2 PHE C   6      51.394  32.360  32.596  1.00 45.95 LIG 0.01  A 
ENDBRANCH 51 52
ENDBRANCH 48 51
ENDBRANCH 45 48
ENDBRANCH 40 44
ENDBRANCH 36 37
BRANCH 36 58
ATOM     58  CB  HIS C   4      57.445  26.363  31.511  1.00 37.41 LIG 0.10  C 
BRANCH 58 59
ATOM     59  CG  HIS C   4      57.778  25.019  32.135  1.00 46.77 LIG 0.06  A 
ATOM     60 ND1  HIS C   4      57.116  23.851  31.828  1.00 46.89 LIG-0.24  NA
ATOM     61  CE1 HIS C   4      57.709  22.830  32.424  1.00 44.31 LIG 0.23  A 
ATOM     62 NE2  HIS C   4      58.740  23.288  33.101  1.00 47.07 LIG-0.25  NA
ATOM     63  CD2 HIS C   4      58.784  24.655  32.972  1.00 43.50 LIG 0.14  A 
ENDBRANCH 58 59
ENDBRANCH 36 58
ENDBRANCH 3 36
TORSDOF 21
ENDMDL
MODEL 9
USER: ADFR SOLUTION from run 22
USER: SCORE 23.808155 LL:  -5.598 LR: -18.962 RR:   0.000 FEB: -12.698
USER: RMSD 4.039351
USER: SEED 21
USER: STATUS no improvement in best in 3 clusters for 5 generations
USER: GENES 23
USER: genes 0 Translation |==|  0.68483 0.53307 0.47565
USER: genes 1 Rotation |==|  0.52966 0.48890 0.55496 0.99596
USER: genes 2 Torsion [N]-C--CA-[N] |==|  0.46403
USER: genes 3 Torsion [C]-CA--CB-[CG2] |==|  0.51484
USER: genes 4 Torsion [CA]-CB--CG1-[CD1] |==|  0.62040
USER: genes 5 Torsion [C]-CA--N-[C] |==|  0.81108
USER: genes 6 Torsion [N]-C--CA-[N] |==|  0.10640
USER: genes 7 Torsion [C]-CA--N-[C] |==|  0.76549
USER: genes 8 Torsion [N]-C--CA-[N] |==|  0.37700
USER: genes 9 Torsion [C]-CA--CB-[CG1] |==|  0.38335
USER: genes 10 Torsion [C]-CA--N-[H3] |==|  0.11509
USER: genes 11 Torsion [C]-CA--CB-[CG] |==|  0.39649
USER: genes 12 Torsion [CA]-CB--CG-[CD1] |==|  0.90816
USER: genes 13 Torsion [CE1]-CZ--OH-[HH] |==|  0.32003
USER: genes 14 Torsion [C]-N--CA-[C] |==|  0.85256
USER: genes 15 Torsion [N]-CA--C-[N] |==|  0.88190
USER: genes 16 Torsion [N]-CA--C-[O] |==|  0.85664
USER: genes 17 Torsion [C]-N--CA-[C] |==|  0.86509
USER: genes 18 Torsion [N]-CA--C-[O] |==|  0.85499
USER: genes 19 Torsion [N]-CA--CB-[CG] |==|  0.84958
USER: genes 20 Torsion [CA]-CB--CG-[CD1] |==|  0.25589
USER: genes 21 Torsion [N]-CA--CB-[CG] |==|  0.59403
USER: genes 22 Torsion [CA]-CB--CG-[CD2] |==|  0.02072
ROOT
ATOM      1  C   ILE C   3      57.363  28.544  34.607  1.00 18.73 LIG 0.24  C 
ATOM      2 O    ILE C   3      56.306  29.151  34.527  1.00 16.27 LIG-0.27  OA
ATOM      3  N   HIS C   4      57.849  27.906  33.544  1.00 21.57 LIG-0.35  N 
ATOM      4 H    HIS C   4      58.594  27.478  33.511  1.00 21.57 LIG 0.16  HD
ENDROOT
BRANCH 1 5
ATOM      5  CA  ILE C   3      58.133  28.485  35.936  1.00 14.70 LIG 0.18  C 
BRANCH 5 6
ATOM      6  CB  ILE C   3      58.055  27.109  36.579  1.00 14.24 LIG 0.01  C 
ATOM      7  CG2 ILE C   3      58.710  27.117  37.945  1.00 15.96 LIG 0.01  C 
BRANCH 6 8
ATOM      8  CG1 ILE C   3      56.608  26.702  36.801  1.00 14.06 LIG 0.00  C 
ATOM      9  CD1 ILE C   3      56.327  26.061  38.151  1.00 15.53 LIG 0.01  C 
ENDBRANCH 6 8
ENDBRANCH 5 6
BRANCH 5 10
ATOM     10  N   ILE C   3      57.566  29.491  36.811  1.00 14.80 LIG-0.35  N 
ATOM     11 H    ILE C   3      57.140  29.182  37.492  1.00 14.80 LIG 0.16  HD
ATOM     12  C   TYR C   2      57.717  30.775  36.542  1.00 14.99 LIG 0.24  C 
ATOM     13 O    TYR C   2      58.556  31.176  35.723  1.00 13.53 LIG-0.27  OA
BRANCH 12 14
ATOM     14  CA  TYR C   2      56.882  31.728  37.366  1.00 13.94 LIG 0.18  C 
BRANCH 14 15
ATOM     15  N   TYR C   2      56.738  31.354  38.752  1.00 12.58 LIG-0.35  N 
ATOM     16  C   VAL C   1      55.793  30.493  39.095  1.00 12.16 LIG 0.25  C 
ATOM     17 O    VAL C   1      55.101  29.913  38.229  1.00 12.42 LIG-0.27  OA
ATOM     18 H    TYR C   2      57.293  31.724  39.295  1.00 12.58 LIG 0.16  HD
BRANCH 16 19
ATOM     19  CA  VAL C   1      55.543  30.276  40.612  1.00 12.03 LIG 0.28  C 
BRANCH 19 20
ATOM     20  CB  VAL C   1      56.179  28.958  41.121  1.00 13.82 LIG 0.02  C 
ATOM     21  CG2 VAL C   1      55.162  27.825  41.205  1.00 13.35 LIG 0.01  C 
ATOM     22  CG1 VAL C   1      56.862  29.130  42.478  1.00 14.11 LIG 0.01  C 
ENDBRANCH 19 20
BRANCH 19 23
ATOM     23  N   VAL C   1      54.029  30.276  40.825  1.00 11.80 LIG-0.07  N 
ATOM     24 H3   VAL C   1      53.636  29.819  40.170  1.00 11.80 LIG 0.28  HD
ATOM     25 H1   VAL C   1      53.839  29.895  41.607  1.00 11.80 LIG 0.28  HD
ATOM     26 H2   VAL C   1      53.728  31.114  40.824  1.00 11.80 LIG 0.28  HD
ENDBRANCH 19 23
ENDBRANCH 16 19
ENDBRANCH 14 15
BRANCH 14 27
ATOM     27  CB  TYR C   2      57.390  33.196  37.319  1.00 13.68 LIG 0.07  C 
BRANCH 27 28
ATOM     28  CG  TYR C   2      56.389  34.250  37.302  1.00 14.01 LIG-0.06  A 
ATOM     29  CD1 TYR C   2      55.165  34.099  36.688  1.00 14.17 LIG 0.01  A 
ATOM     30  CE1 TYR C   2      54.275  35.129  36.558  1.00 16.08 LIG 0.04  A 
ATOM     31  CZ  TYR C   2      54.561  36.325  37.142  1.00 18.02 LIG 0.07  A 
ATOM     32  CE2 TYR C   2      55.749  36.522  37.752  1.00 16.42 LIG 0.04  A 
ATOM     33  CD2 TYR C   2      56.680  35.518  37.841  1.00 16.83 LIG 0.01  A 
BRANCH 31 34
ATOM     34 OH   TYR C   2      53.687  37.379  37.062  1.00 21.46 LIG-0.36  OA
ATOM     35 HH   TYR C   2      53.403  37.565  37.830  1.00 21.46 LIG 0.22  HD
ENDBRANCH 31 34
ENDBRANCH 27 28
ENDBRANCH 14 27
ENDBRANCH 12 14
ENDBRANCH 5 10
ENDBRANCH 1 5
BRANCH 3 36
ATOM     36  CA  HIS C   4      57.054  27.925  32.305  1.00 30.85 LIG 0.18  C 
BRANCH 36 37
ATOM     37  C   HIS C   4      55.544  27.432  32.530  1.00 37.69 LIG 0.24  C 
ATOM     38 O    HIS C   4      54.621  28.000  31.914  1.00 34.87 LIG-0.27  OA
ATOM     39  N   PRO C   5      55.304  26.329  33.332  1.00 41.85 LIG-0.34  N 
ATOM     40  CA  PRO C   5      53.890  26.059  33.681  1.00 42.98 LIG 0.18  C 
ATOM     41  CD  PRO C   5      56.126  25.114  33.573  1.00 45.49 LIG 0.13  C 
ATOM     42  CB  PRO C   5      53.968  24.930  34.732  1.00 43.99 LIG 0.04  C 
ATOM     43  CG  PRO C   5      55.404  24.433  34.723  1.00 47.39 LIG 0.02  C 
BRANCH 40 44
ATOM     44  C   PRO C   5      53.202  27.296  34.240  1.00 44.97 LIG 0.24  C 
ATOM     45  N   PHE C   6      52.071  27.638  33.621  1.00 47.34 LIG-0.35  N 
ATOM     46 H    PHE C   6      51.664  27.115  33.072  1.00 47.34 LIG 0.16  HD
ATOM     47 O    PRO C   5      53.723  27.923  35.172  1.00 42.20 LIG-0.27  OA
BRANCH 45 48
ATOM     48  CA  PHE C   6      51.395  28.932  33.803  1.00 47.71 LIG 0.17  C 
BRANCH 48 49
ATOM     49  C   PHE C   6      51.262  29.249  35.290  1.00 43.76 LIG 0.22  C 
ATOM     50 O    PHE C   6      50.753  28.401  36.041  1.00 44.85 LIG-0.29  OA
ENDBRANCH 48 49
BRANCH 48 51
ATOM     51  CB  PHE C   6      50.018  28.865  33.162  1.00 45.10 LIG 0.07  C 
BRANCH 51 52
ATOM     52  CG  PHE C   6      50.045  28.442  31.743  1.00 47.89 LIG-0.06  A 
ATOM     53  CD1 PHE C   6      49.913  27.102  31.403  1.00 50.48 LIG 0.01  A 
ATOM     54  CE1 PHE C   6      49.931  26.694  30.064  1.00 53.80 LIG 0.00  A 
ATOM     55  CZ  PHE C   6      50.083  27.634  29.055  1.00 48.07 LIG 0.00  A 
ATOM     56  CE2 PHE C   6      50.212  28.973  29.392  1.00 44.45 LIG 0.00  A 
ATOM     57  CD2 PHE C   6      50.211  29.375  30.730  1.00 45.95 LIG 0.01  A 
ENDBRANCH 51 52
ENDBRANCH 48 51
ENDBRANCH 45 48
ENDBRANCH 40 44
ENDBRANCH 36 37
BRANCH 36 58
ATOM     58  CB  HIS C   4      57.785  27.257  31.126  1.00 37.41 LIG 0.10  C 
BRANCH 58 59
ATOM     59  CG  HIS C   4      57.453  27.934  29.808  1.00 46.77 LIG 0.06  A 
ATOM     60 ND1  HIS C   4      57.743  27.388  28.576  1.00 46.89 LIG-0.24  NA
ATOM     61  CE1 HIS C   4      57.220  28.138  27.620  1.00 44.31 LIG 0.23  A 
ATOM     62 NE2  HIS C   4      56.591  29.148  28.183  1.00 47.07 LIG-0.25  NA
ATOM     63  CD2 HIS C   4      56.754  29.068  29.545  1.00 43.50 LIG 0.14  A 
ENDBRANCH 58 59
ENDBRANCH 36 58
ENDBRANCH 3 36
TORSDOF 21
ENDMDL
MODEL 10
USER: ADFR SOLUTION from run 40
USER: SCORE 23.606465 LL:  -6.660 LR: -18.669 RR:   0.000 FEB: -12.405
USER: RMSD 4.843221
USER: SEED 39
USER: STATUS no improvement in best in 5 clusters for 5 generations
USER: GENES 23
USER: genes 0 Translation |==|  0.68096 0.52005 0.48808
USER: genes 1 Rotation |==|  0.56592 0.56591 0.68990 0.95304
USER: genes 2 Torsion [N]-C--CA-[N] |==|  0.39494
USER: genes 3 Torsion [C]-CA--CB-[CG2] |==|  0.68139
USER: genes 4 Torsion [CA]-CB--CG1-[CD1] |==|  0.45181
USER: genes 5 Torsion [C]-CA--N-[C] |==|  0.76589
USER: genes 6 Torsion [N]-C--CA-[N] |==|  0.09201
USER: genes 7 Torsion [C]-CA--N-[C] |==|  0.76110
USER: genes 8 Torsion [N]-C--CA-[N] |==|  0.37846
USER: genes 9 Torsion [C]-CA--CB-[CG1] |==|  0.43275
USER: genes 10 Torsion [C]-CA--N-[H3] |==|  0.84138
USER: genes 11 Torsion [C]-CA--CB-[CG] |==|  0.39566
USER: genes 12 Torsion [CA]-CB--CG-[CD1] |==|  0.90677
USER: genes 13 Torsion [CE1]-CZ--OH-[HH] |==|  0.30931
USER: genes 14 Torsion [C]-N--CA-[C] |==|  0.19649
USER: genes 15 Torsion [N]-CA--C-[N] |==|  0.33126
USER: genes 16 Torsion [N]-CA--C-[O] |==|  0.97327
USER: genes 17 Torsion [C]-N--CA-[C] |==|  0.62436
USER: genes 18 Torsion [N]-CA--C-[O] |==|  0.24137
USER: genes 19 Torsion [N]-CA--CB-[CG] |==|  0.84691
USER: genes 20 Torsion [CA]-CB--CG-[CD1] |==|  0.30088
USER: genes 21 Torsion [N]-CA--CB-[CG] |==|  0.48802
USER: genes 22 Torsion [CA]-CB--CG-[CD2] |==|  0.14548
ROOT
ATOM      1  C   ILE C   3      57.293  28.192  34.896  1.00 18.73 LIG 0.24  C 
ATOM      2 O    ILE C   3      56.110  28.105  35.184  1.00 16.27 LIG-0.27  OA
ATOM      3  N   HIS C   4      57.696  27.958  33.649  1.00 21.57 LIG-0.35  N 
ATOM      4 H    HIS C   4      58.504  28.021  33.360  1.00 21.57 LIG 0.16  HD
ENDROOT
BRANCH 1 5
ATOM      5  CA  ILE C   3      58.336  28.548  35.968  1.00 14.70 LIG 0.18  C 
BRANCH 5 6
ATOM      6  CB  ILE C   3      58.763  27.330  36.772  1.00 14.24 LIG 0.01  C 
ATOM      7  CG2 ILE C   3      58.334  27.466  38.220  1.00 15.96 LIG 0.01  C 
BRANCH 6 8
ATOM      8  CG1 ILE C   3      58.091  26.075  36.244  1.00 14.06 LIG 0.00  C 
ATOM      9  CD1 ILE C   3      58.740  24.772  36.682  1.00 15.53 LIG 0.01  C 
ENDBRANCH 6 8
ENDBRANCH 5 6
BRANCH 5 10
ATOM     10  N   ILE C   3      57.745  29.550  36.832  1.00 14.80 LIG-0.35  N 
ATOM     11 H    ILE C   3      57.382  29.243  37.549  1.00 14.80 LIG 0.16  HD
ATOM     12  C   TYR C   2      57.785  30.828  36.501  1.00 14.99 LIG 0.24  C 
ATOM     13 O    TYR C   2      58.545  31.250  35.619  1.00 13.53 LIG-0.27  OA
BRANCH 12 14
ATOM     14  CA  TYR C   2      56.929  31.755  37.333  1.00 13.94 LIG 0.18  C 
BRANCH 14 15
ATOM     15  N   TYR C   2      56.795  31.368  38.716  1.00 12.58 LIG-0.35  N 
ATOM     16  C   VAL C   1      55.850  30.507  39.059  1.00 12.16 LIG 0.25  C 
ATOM     17 O    VAL C   1      55.150  29.937  38.194  1.00 12.42 LIG-0.27  OA
ATOM     18 H    TYR C   2      57.355  31.731  39.259  1.00 12.58 LIG 0.16  HD
BRANCH 16 19
ATOM     19  CA  VAL C   1      55.613  30.276  40.576  1.00 12.03 LIG 0.28  C 
BRANCH 19 20
ATOM     20  CB  VAL C   1      56.260  28.957  41.070  1.00 13.82 LIG 0.02  C 
ATOM     21  CG2 VAL C   1      55.400  27.741  40.750  1.00 13.35 LIG 0.01  C 
ATOM     22  CG1 VAL C   1      56.562  28.987  42.569  1.00 14.11 LIG 0.01  C 
ENDBRANCH 19 20
BRANCH 19 23
ATOM     23  N   VAL C   1      54.100  30.265  40.800  1.00 11.80 LIG-0.07  N 
ATOM     24 H3   VAL C   1      53.750  31.029  40.506  1.00 11.80 LIG 0.28  HD
ATOM     25 H1   VAL C   1      53.739  29.584  40.356  1.00 11.80 LIG 0.28  HD
ATOM     26 H2   VAL C   1      53.929  30.175  41.669  1.00 11.80 LIG 0.28  HD
ENDBRANCH 19 23
ENDBRANCH 16 19
ENDBRANCH 14 15
BRANCH 14 27
ATOM     27  CB  TYR C   2      57.402  33.235  37.295  1.00 13.68 LIG 0.07  C 
BRANCH 27 28
ATOM     28  CG  TYR C   2      56.376  34.265  37.280  1.00 14.01 LIG-0.06  A 
ATOM     29  CD1 TYR C   2      55.162  34.091  36.652  1.00 14.17 LIG 0.01  A 
ATOM     30  CE1 TYR C   2      54.249  35.101  36.524  1.00 16.08 LIG 0.04  A 
ATOM     31  CZ  TYR C   2      54.501  36.298  37.124  1.00 18.02 LIG 0.07  A 
ATOM     32  CE2 TYR C   2      55.677  36.516  37.749  1.00 16.42 LIG 0.04  A 
ATOM     33  CD2 TYR C   2      56.632  35.533  37.836  1.00 16.83 LIG 0.01  A 
BRANCH 31 34
ATOM     34 OH   TYR C   2      53.603  37.331  37.048  1.00 21.46 LIG-0.36  OA
ATOM     35 HH   TYR C   2      53.267  37.467  37.805  1.00 21.46 LIG 0.22  HD
ENDBRANCH 31 34
ENDBRANCH 27 28
ENDBRANCH 14 27
ENDBRANCH 12 14
ENDBRANCH 5 10
ENDBRANCH 1 5
BRANCH 3 36
ATOM     36  CA  HIS C   4      56.682  27.553  32.661  1.00 30.85 LIG 0.18  C 
BRANCH 36 37
ATOM     37  C   HIS C   4      55.690  28.750  32.266  1.00 37.69 LIG 0.24  C 
ATOM     38 O    HIS C   4      55.049  29.330  33.164  1.00 34.87 LIG-0.27  OA
ATOM     39  N   PRO C   5      55.632  29.175  30.949  1.00 41.85 LIG-0.34  N 
ATOM     40  CA  PRO C   5      54.546  30.121  30.605  1.00 42.98 LIG 0.18  C 
ATOM     41  CD  PRO C   5      56.685  29.209  29.900  1.00 45.49 LIG 0.13  C 
ATOM     42  CB  PRO C   5      54.613  30.233  29.066  1.00 43.99 LIG 0.04  C 
ATOM     43  CG  PRO C   5      55.905  29.555  28.642  1.00 47.39 LIG 0.02  C 
BRANCH 40 44
ATOM     44  C   PRO C   5      53.189  29.614  31.071  1.00 44.97 LIG 0.24  C 
ATOM     45  N   PHE C   6      52.205  30.514  31.020  1.00 47.34 LIG-0.35  N 
ATOM     46 H    PHE C   6      52.278  31.260  30.598  1.00 47.34 LIG 0.16  HD
ATOM     47 O    PRO C   5      53.077  28.457  31.496  1.00 42.20 LIG-0.27  OA
BRANCH 45 48
ATOM     48  CA  PHE C   6      50.897  30.336  31.670  1.00 47.71 LIG 0.17  C 
BRANCH 48 49
ATOM     49  C   PHE C   6      49.778  30.744  30.717  1.00 43.76 LIG 0.22  C 
ATOM     50 O    PHE C   6      49.328  29.901  29.923  1.00 44.85 LIG-0.29  OA
ENDBRANCH 48 49
BRANCH 48 51
ATOM     51  CB  PHE C   6      50.849  31.195  32.923  1.00 45.10 LIG 0.07  C 
BRANCH 51 52
ATOM     52  CG  PHE C   6      51.962  30.934  33.864  1.00 47.89 LIG-0.06  A 
ATOM     53  CD1 PHE C   6      52.982  31.864  34.026  1.00 50.48 LIG 0.01  A 
ATOM     54  CE1 PHE C   6      54.035  31.628  34.918  1.00 53.80 LIG 0.00  A 
ATOM     55  CZ  PHE C   6      54.071  30.453  35.654  1.00 48.07 LIG 0.00  A 
ATOM     56  CE2 PHE C   6      53.052  29.525  35.496  1.00 44.45 LIG 0.00  A 
ATOM     57  CD2 PHE C   6      52.011  29.756  34.593  1.00 45.95 LIG 0.01  A 
ENDBRANCH 51 52
ENDBRANCH 48 51
ENDBRANCH 45 48
ENDBRANCH 40 44
ENDBRANCH 36 37
BRANCH 36 58
ATOM     58  CB  HIS C   4      55.987  26.233  33.039  1.00 37.41 LIG 0.10  C 
BRANCH 58 59
ATOM     59  CG  HIS C   4      54.874  25.889  32.064  1.00 46.77 LIG 0.06  A 
ATOM     60 ND1  HIS C   4      53.559  25.712  32.438  1.00 46.89 LIG-0.24  NA
ATOM     61  CE1 HIS C   4      52.805  25.555  31.363  1.00 44.31 LIG 0.23  A 
ATOM     62 NE2  HIS C   4      53.578  25.632  30.300  1.00 47.07 LIG-0.25  NA
ATOM     63  CD2 HIS C   4      54.879  25.800  30.708  1.00 43.50 LIG 0.14  A 
ENDBRANCH 58 59
ENDBRANCH 36 58
ENDBRANCH 3 36
TORSDOF 21
ENDMDL
MODEL 11
USER: ADFR SOLUTION from run 180
USER: SCORE 23.240872 LL:  -6.754 LR: -18.522 RR:   0.000 FEB: -12.258
USER: RMSD 5.267679
USER: SEED 179
USER: STATUS no improvement in best in 10 clusters for 5 generations
USER: GENES 23
USER: genes 0 Translation |==|  0.69962 0.51141 0.49080
USER: genes 1 Rotation |==|  0.33116 0.50454 0.13792 0.80062
USER: genes 2 Torsion [N]-C--CA-[N] |==|  0.77615
USER: genes 3 Torsion [C]-CA--CB-[CG2] |==|  0.45684
USER: genes 4 Torsion [CA]-CB--CG1-[CD1] |==|  0.44971
USER: genes 5 Torsion [C]-CA--N-[C] |==|  0.85805
USER: genes 6 Torsion [N]-C--CA-[N] |==|  0.08286
USER: genes 7 Torsion [C]-CA--N-[C] |==|  0.73329
USER: genes 8 Torsion [N]-C--CA-[N] |==|  0.40234
USER: genes 9 Torsion [C]-CA--CB-[CG1] |==|  0.99890
USER: genes 10 Torsion [C]-CA--N-[H3] |==|  0.13681
USER: genes 11 Torsion [C]-CA--CB-[CG] |==|  0.36762
USER: genes 12 Torsion [CA]-CB--CG-[CD1] |==|  0.93553
USER: genes 13 Torsion [CE1]-CZ--OH-[HH] |==|  0.68245
USER: genes 14 Torsion [C]-N--CA-[C] |==|  0.55143
USER: genes 15 Torsion [N]-CA--C-[N] |==|  0.16360
USER: genes 16 Torsion [N]-CA--C-[O] |==|  0.41507
USER: genes 17 Torsion [C]-N--CA-[C] |==|  0.70315
USER: genes 18 Torsion [N]-CA--C-[O] |==|  0.99898
USER: genes 19 Torsion [N]-CA--CB-[CG] |==|  0.89126
USER: genes 20 Torsion [CA]-CB--CG-[CD1] |==|  0.24959
USER: genes 21 Torsion [N]-CA--CB-[CG] |==|  0.61636
USER: genes 22 Torsion [CA]-CB--CG-[CD2] |==|  0.01827
ROOT
ATOM      1  C   ILE C   3      57.629  27.959  34.959  1.00 18.73 LIG 0.24  C 
ATOM      2 O    ILE C   3      58.315  28.479  34.093  1.00 16.27 LIG-0.27  OA
ATOM      3  N   HIS C   4      56.389  27.562  34.680  1.00 21.57 LIG-0.35  N 
ATOM      4 H    HIS C   4      55.852  27.167  35.224  1.00 21.57 LIG 0.16  HD
ENDROOT
BRANCH 1 5
ATOM      5  CA  ILE C   3      58.174  27.778  36.385  1.00 14.70 LIG 0.18  C 
BRANCH 5 6
ATOM      6  CB  ILE C   3      57.773  26.438  36.981  1.00 14.24 LIG 0.01  C 
ATOM      7  CG2 ILE C   3      58.615  26.121  38.202  1.00 15.96 LIG 0.01  C 
BRANCH 6 8
ATOM      8  CG1 ILE C   3      56.330  26.471  37.456  1.00 14.06 LIG 0.00  C 
ATOM      9  CD1 ILE C   3      55.696  25.104  37.663  1.00 15.53 LIG 0.01  C 
ENDBRANCH 6 8
ENDBRANCH 5 6
BRANCH 5 10
ATOM     10  N   ILE C   3      57.659  28.869  37.188  1.00 14.80 LIG-0.35  N 
ATOM     11 H    ILE C   3      57.281  28.632  37.923  1.00 14.80 LIG 0.16  HD
ATOM     12  C   TYR C   2      57.786  30.119  36.779  1.00 14.99 LIG 0.24  C 
ATOM     13 O    TYR C   2      58.567  30.433  35.871  1.00 13.53 LIG-0.27  OA
BRANCH 12 14
ATOM     14  CA  TYR C   2      57.001  31.152  37.554  1.00 13.94 LIG 0.18  C 
BRANCH 14 15
ATOM     15  N   TYR C   2      56.786  30.824  38.943  1.00 12.58 LIG-0.35  N 
ATOM     16  C   VAL C   1      55.651  30.246  39.303  1.00 12.16 LIG 0.25  C 
ATOM     17 O    VAL C   1      54.815  29.876  38.450  1.00 12.42 LIG-0.27  OA
ATOM     18 H    TYR C   2      57.429  31.030  39.476  1.00 12.58 LIG 0.16  HD
BRANCH 16 19
ATOM     19  CA  VAL C   1      55.379  30.097  40.824  1.00 12.03 LIG 0.28  C 
BRANCH 19 20
ATOM     20  CB  VAL C   1      55.860  28.728  41.368  1.00 13.82 LIG 0.02  C 
ATOM     21  CG2 VAL C   1      56.853  28.882  42.514  1.00 13.35 LIG 0.01  C 
ATOM     22  CG1 VAL C   1      56.475  27.854  40.275  1.00 14.11 LIG 0.01  C 
ENDBRANCH 19 20
BRANCH 19 23
ATOM     23  N   VAL C   1      53.875  30.276  41.034  1.00 11.80 LIG-0.07  N 
ATOM     24 H3   VAL C   1      53.431  29.761  40.460  1.00 11.80 LIG 0.28  HD
ATOM     25 H1   VAL C   1      53.661  30.044  41.866  1.00 11.80 LIG 0.28  HD
ATOM     26 H2   VAL C   1      53.655  31.128  40.899  1.00 11.80 LIG 0.28  HD
ENDBRANCH 19 23
ENDBRANCH 16 19
ENDBRANCH 14 15
BRANCH 14 27
ATOM     27  CB  TYR C   2      57.621  32.576  37.491  1.00 13.68 LIG 0.07  C 
BRANCH 27 28
ATOM     28  CG  TYR C   2      56.728  33.681  37.187  1.00 14.01 LIG-0.06  A 
ATOM     29  CD1 TYR C   2      55.535  33.507  36.518  1.00 14.17 LIG 0.01  A 
ATOM     30  CE1 TYR C   2      54.757  34.557  36.116  1.00 16.08 LIG 0.04  A 
ATOM     31  CZ  TYR C   2      55.119  35.821  36.474  1.00 18.02 LIG 0.07  A 
ATOM     32  CE2 TYR C   2      56.279  36.042  37.126  1.00 16.42 LIG 0.04  A 
ATOM     33  CD2 TYR C   2      57.104  35.005  37.486  1.00 16.83 LIG 0.01  A 
BRANCH 31 34
ATOM     34 OH   TYR C   2      54.355  36.903  36.119  1.00 21.46 LIG-0.36  OA
ATOM     35 HH   TYR C   2      54.787  37.388  35.585  1.00 21.46 LIG 0.22  HD
ENDBRANCH 31 34
ENDBRANCH 27 28
ENDBRANCH 14 27
ENDBRANCH 12 14
ENDBRANCH 5 10
ENDBRANCH 1 5
BRANCH 3 36
ATOM     36  CA  HIS C   4      55.874  27.811  33.324  1.00 30.85 LIG 0.18  C 
BRANCH 36 37
ATOM     37  C   HIS C   4      54.274  27.733  33.245  1.00 37.69 LIG 0.24  C 
ATOM     38 O    HIS C   4      53.742  26.853  32.540  1.00 34.87 LIG-0.27  OA
ATOM     39  N   PRO C   5      53.515  28.584  34.030  1.00 41.85 LIG-0.34  N 
ATOM     40  CA  PRO C   5      52.060  28.622  33.753  1.00 42.98 LIG 0.18  C 
ATOM     41  CD  PRO C   5      53.789  29.157  35.375  1.00 45.49 LIG 0.13  C 
ATOM     42  CB  PRO C   5      51.539  29.790  34.617  1.00 43.99 LIG 0.04  C 
ATOM     43  CG  PRO C   5      52.677  30.180  35.545  1.00 47.39 LIG 0.02  C 
BRANCH 40 44
ATOM     44  C   PRO C   5      51.776  28.849  32.275  1.00 44.97 LIG 0.24  C 
ATOM     45  N   PHE C   6      52.668  29.613  31.642  1.00 47.34 LIG-0.35  N 
ATOM     46 H    PHE C   6      53.432  29.817  31.982  1.00 47.34 LIG 0.16  HD
ATOM     47 O    PRO C   5      50.755  28.372  31.764  1.00 42.20 LIG-0.27  OA
BRANCH 45 48
ATOM     48  CA  PHE C   6      52.453  30.188  30.304  1.00 47.71 LIG 0.17  C 
BRANCH 48 49
ATOM     49  C   PHE C   6      53.305  29.452  29.275  1.00 43.76 LIG 0.22  C 
ATOM     50 O    PHE C   6      54.037  28.523  29.654  1.00 44.85 LIG-0.29  OA
ENDBRANCH 48 49
BRANCH 48 51
ATOM     51  CB  PHE C   6      52.831  31.660  30.333  1.00 45.10 LIG 0.07  C 
BRANCH 51 52
ATOM     52  CG  PHE C   6      52.427  32.351  31.579  1.00 47.89 LIG-0.06  A 
ATOM     53  CD1 PHE C   6      53.286  32.397  32.670  1.00 50.48 LIG 0.01  A 
ATOM     54  CE1 PHE C   6      52.915  33.053  33.849  1.00 53.80 LIG 0.00  A 
ATOM     55  CZ  PHE C   6      51.675  33.669  33.940  1.00 48.07 LIG 0.00  A 
ATOM     56  CE2 PHE C   6      50.818  33.627  32.851  1.00 44.45 LIG 0.00  A 
ATOM     57  CD2 PHE C   6      51.184  32.956  31.681  1.00 45.95 LIG 0.01  A 
ENDBRANCH 51 52
ENDBRANCH 48 51
ENDBRANCH 45 48
ENDBRANCH 40 44
ENDBRANCH 36 37
BRANCH 36 58
ATOM     58  CB  HIS C   4      56.616  26.992  32.252  1.00 37.41 LIG 0.10  C 
BRANCH 58 59
ATOM     59  CG  HIS C   4      56.898  27.821  31.011  1.00 46.77 LIG 0.06  A 
ATOM     60 ND1  HIS C   4      57.315  27.283  29.813  1.00 46.89 LIG-0.24  NA
ATOM     61  CE1 HIS C   4      57.350  28.227  28.887  1.00 44.31 LIG 0.23  A 
ATOM     62 NE2  HIS C   4      56.960  29.358  29.434  1.00 47.07 LIG-0.25  NA
ATOM     63  CD2 HIS C   4      56.710  29.144  30.768  1.00 43.50 LIG 0.14  A 
ENDBRANCH 58 59
ENDBRANCH 36 58
ENDBRANCH 3 36
TORSDOF 21
ENDMDL
MODEL 12
USER: ADFR SOLUTION from run 77
USER: SCORE 25.242977 LL:  -7.475 LR: -18.339 RR:   0.000 FEB: -12.075
USER: RMSD 4.294986
USER: SEED 76
USER: STATUS no improvement in best in 5 clusters for 5 generations
USER: GENES 23
USER: genes 0 Translation |==|  0.68806 0.52699 0.46751
USER: genes 1 Rotation |==|  0.57004 0.48406 0.62348 0.97916
USER: genes 2 Torsion [N]-C--CA-[N] |==|  0.41339
USER: genes 3 Torsion [C]-CA--CB-[CG2] |==|  0.53760
USER: genes 4 Torsion [CA]-CB--CG1-[CD1] |==|  0.74147
USER: genes 5 Torsion [C]-CA--N-[C] |==|  0.80787
USER: genes 6 Torsion [N]-C--CA-[N] |==|  0.11446
USER: genes 7 Torsion [C]-CA--N-[C] |==|  0.74444
USER: genes 8 Torsion [N]-C--CA-[N] |==|  0.39321
USER: genes 9 Torsion [C]-CA--CB-[CG1] |==|  0.37474
USER: genes 10 Torsion [C]-CA--N-[H3] |==|  0.12381
USER: genes 11 Torsion [C]-CA--CB-[CG] |==|  0.40564
USER: genes 12 Torsion [CA]-CB--CG-[CD1] |==|  0.88954
USER: genes 13 Torsion [CE1]-CZ--OH-[HH] |==|  0.35935
USER: genes 14 Torsion [C]-N--CA-[C] |==|  0.78909
USER: genes 15 Torsion [N]-CA--C-[N] |==|  0.90330
USER: genes 16 Torsion [N]-CA--C-[O] |==|  0.42917
USER: genes 17 Torsion [C]-N--CA-[C] |==|  0.11035
USER: genes 18 Torsion [N]-CA--C-[O] |==|  0.46146
USER: genes 19 Torsion [N]-CA--CB-[CG] |==|  0.75999
USER: genes 20 Torsion [CA]-CB--CG-[CD1] |==|  0.37478
USER: genes 21 Torsion [N]-CA--CB-[CG] |==|  0.54978
USER: genes 22 Torsion [CA]-CB--CG-[CD2] |==|  0.11651
ROOT
ATOM      1  C   ILE C   3      57.421  28.380  34.418  1.00 18.73 LIG 0.24  C 
ATOM      2 O    ILE C   3      56.237  28.675  34.389  1.00 16.27 LIG-0.27  OA
ATOM      3  N   HIS C   4      58.062  28.081  33.290  1.00 21.57 LIG-0.35  N 
ATOM      4 H    HIS C   4      58.897  27.886  33.221  1.00 21.57 LIG 0.16  HD
ENDROOT
BRANCH 1 5
ATOM      5  CA  ILE C   3      58.182  28.323  35.752  1.00 14.70 LIG 0.18  C 
BRANCH 5 6
ATOM      6  CB  ILE C   3      58.109  26.945  36.391  1.00 14.24 LIG 0.01  C 
ATOM      7  CG2 ILE C   3      58.569  26.998  37.834  1.00 15.96 LIG 0.01  C 
BRANCH 6 8
ATOM      8  CG1 ILE C   3      56.676  26.441  36.418  1.00 14.06 LIG 0.00  C 
ATOM      9  CD1 ILE C   3      55.916  26.749  37.699  1.00 15.53 LIG 0.01  C 
ENDBRANCH 6 8
ENDBRANCH 5 6
BRANCH 5 10
ATOM     10  N   ILE C   3      57.601  29.323  36.625  1.00 14.80 LIG-0.35  N 
ATOM     11 H    ILE C   3      57.159  29.009  37.294  1.00 14.80 LIG 0.16  HD
ATOM     12  C   TYR C   2      57.764  30.609  36.373  1.00 14.99 LIG 0.24  C 
ATOM     13 O    TYR C   2      58.622  31.014  35.577  1.00 13.53 LIG-0.27  OA
BRANCH 12 14
ATOM     14  CA  TYR C   2      56.916  31.557  37.189  1.00 13.94 LIG 0.18  C 
BRANCH 14 15
ATOM     15  N   TYR C   2      56.795  31.205  38.583  1.00 12.58 LIG-0.35  N 
ATOM     16  C   VAL C   1      55.781  30.449  38.973  1.00 12.16 LIG 0.25  C 
ATOM     17 O    VAL C   1      54.995  29.941  38.143  1.00 12.42 LIG-0.27  OA
ATOM     18 H    TYR C   2      57.408  31.516  39.099  1.00 12.58 LIG 0.16  HD
BRANCH 16 19
ATOM     19  CA  VAL C   1      55.577  30.264  40.501  1.00 12.03 LIG 0.28  C 
BRANCH 19 20
ATOM     20  CB  VAL C   1      56.222  28.953  41.018  1.00 13.82 LIG 0.02  C 
ATOM     21  CG2 VAL C   1      55.190  27.850  41.228  1.00 13.35 LIG 0.01  C 
ATOM     22  CG1 VAL C   1      57.010  29.165  42.310  1.00 14.11 LIG 0.01  C 
ENDBRANCH 19 20
BRANCH 19 23
ATOM     23  N   VAL C   1      54.070  30.276  40.761  1.00 11.80 LIG-0.07  N 
ATOM     24 H3   VAL C   1      53.659  29.771  40.154  1.00 11.80 LIG 0.28  HD
ATOM     25 H1   VAL C   1      53.906  29.954  41.574  1.00 11.80 LIG 0.28  HD
ATOM     26 H2   VAL C   1      53.766  31.111  40.707  1.00 11.80 LIG 0.28  HD
ENDBRANCH 19 23
ENDBRANCH 16 19
ENDBRANCH 14 15
BRANCH 14 27
ATOM     27  CB  TYR C   2      57.391  33.035  37.111  1.00 13.68 LIG 0.07  C 
BRANCH 27 28
ATOM     28  CG  TYR C   2      56.369  34.068  37.161  1.00 14.01 LIG-0.06  A 
ATOM     29  CD1 TYR C   2      55.159  33.946  36.512  1.00 14.17 LIG 0.01  A 
ATOM     30  CE1 TYR C   2      54.252  34.967  36.448  1.00 16.08 LIG 0.04  A 
ATOM     31  CZ  TYR C   2      54.504  36.117  37.134  1.00 18.02 LIG 0.07  A 
ATOM     32  CE2 TYR C   2      55.676  36.284  37.781  1.00 16.42 LIG 0.04  A 
ATOM     33  CD2 TYR C   2      56.626  35.293  37.807  1.00 16.83 LIG 0.01  A 
BRANCH 31 34
ATOM     34 OH   TYR C   2      53.611  37.157  37.124  1.00 21.46 LIG-0.36  OA
ATOM     35 HH   TYR C   2      53.457  37.402  37.912  1.00 21.46 LIG 0.22  HD
ENDBRANCH 31 34
ENDBRANCH 27 28
ENDBRANCH 14 27
ENDBRANCH 12 14
ENDBRANCH 5 10
ENDBRANCH 1 5
BRANCH 3 36
ATOM     36  CA  HIS C   4      57.289  28.078  32.037  1.00 30.85 LIG 0.18  C 
BRANCH 36 37
ATOM     37  C   HIS C   4      56.359  26.780  31.885  1.00 37.69 LIG 0.24  C 
ATOM     38 O    HIS C   4      55.289  26.869  31.253  1.00 34.87 LIG-0.27  OA
ATOM     39  N   PRO C   5      56.806  25.566  32.379  1.00 41.85 LIG-0.34  N 
ATOM     40  CA  PRO C   5      55.820  24.460  32.411  1.00 42.98 LIG 0.18  C 
ATOM     41  CD  PRO C   5      58.184  25.019  32.495  1.00 45.49 LIG 0.13  C 
ATOM     42  CB  PRO C   5      56.534  23.337  33.194  1.00 43.99 LIG 0.04  C 
ATOM     43  CG  PRO C   5      57.987  23.765  33.331  1.00 47.39 LIG 0.02  C 
BRANCH 40 44
ATOM     44  C   PRO C   5      54.525  24.881  33.092  1.00 44.97 LIG 0.24  C 
ATOM     45  N   PHE C   6      54.659  25.845  34.005  1.00 47.34 LIG-0.35  N 
ATOM     46 H    PHE C   6      55.373  26.318  34.083  1.00 47.34 LIG 0.16  HD
ATOM     47 O    PRO C   5      53.467  24.305  32.811  1.00 42.20 LIG-0.27  OA
BRANCH 45 48
ATOM     48  CA  PHE C   6      53.610  26.209  34.971  1.00 47.71 LIG 0.17  C 
BRANCH 48 49
ATOM     49  C   PHE C   6      52.915  24.953  35.488  1.00 43.76 LIG 0.22  C 
ATOM     50 O    PHE C   6      52.190  25.037  36.492  1.00 44.85 LIG-0.29  OA
ENDBRANCH 48 49
BRANCH 48 51
ATOM     51  CB  PHE C   6      52.600  27.115  34.285  1.00 45.10 LIG 0.07  C 
BRANCH 51 52
ATOM     52  CG  PHE C   6      52.971  28.548  34.319  1.00 47.89 LIG-0.06  A 
ATOM     53  CD1 PHE C   6      52.860  29.333  33.178  1.00 50.48 LIG 0.01  A 
ATOM     54  CE1 PHE C   6      53.202  30.690  33.202  1.00 53.80 LIG 0.00  A 
ATOM     55  CZ  PHE C   6      53.661  31.269  34.376  1.00 48.07 LIG 0.00  A 
ATOM     56  CE2 PHE C   6      53.771  30.488  35.517  1.00 44.45 LIG 0.00  A 
ATOM     57  CD2 PHE C   6      53.444  29.130  35.486  1.00 45.95 LIG 0.01  A 
ENDBRANCH 51 52
ENDBRANCH 48 51
ENDBRANCH 45 48
ENDBRANCH 40 44
ENDBRANCH 36 37
BRANCH 36 58
ATOM     58  CB  HIS C   4      58.159  28.400  30.808  1.00 37.41 LIG 0.10  C 
BRANCH 58 59
ATOM     59  CG  HIS C   4      57.312  28.821  29.619  1.00 46.77 LIG 0.06  A 
ATOM     60 ND1  HIS C   4      57.467  28.306  28.351  1.00 46.89 LIG-0.24  NA
ATOM     61  CE1 HIS C   4      56.508  28.761  27.562  1.00 44.31 LIG 0.23  A 
ATOM     62 NE2  HIS C   4      55.726  29.547  28.272  1.00 47.07 LIG-0.25  NA
ATOM     63  CD2 HIS C   4      56.226  29.635  29.548  1.00 43.50 LIG 0.14  A 
ENDBRANCH 58 59
ENDBRANCH 36 58
ENDBRANCH 3 36
TORSDOF 21
ENDMDL
