MODEL 1
USER: ADFR SOLUTION from run 143
USER: SCORE 23.134290 LL:  -5.147 LR: -19.296 RR:   0.000 FEB: -11.540
USER: RMSD 4.913311
USER: SEED 142
USER: STATUS searching
USER: GENES 28
USER: genes 0 Translation |==|  0.68743 0.46988 0.51516
USER: genes 1 Rotation |==|  0.51166 0.50863 0.51031 0.99968
USER: genes 2 Torsion [N]-C--CA-[N] |==|  0.42778
USER: genes 3 Torsion [C]-CA--N-[C] |==|  0.80876
USER: genes 4 Torsion [N]-C--CA-[N] |==|  0.07661
USER: genes 5 Torsion [C]-CA--CB-[CG] |==|  0.43827
USER: genes 6 Torsion [CA]-CB--CG-[CD] |==|  0.81702
USER: genes 7 Torsion [CB]-CG--CD-[NE] |==|  0.44442
USER: genes 8 Torsion [CG]-CD--NE-[CZ] |==|  0.37616
USER: genes 9 Torsion [C]-CA--N-[C] |==|  0.74858
USER: genes 10 Torsion [N]-C--CA-[N] |==|  0.41264
USER: genes 11 Torsion [C]-CA--CB-[CG] |==|  0.22431
USER: genes 12 Torsion [CA]-CB--CG-[OD2] |==|  0.25142
USER: genes 13 Torsion [C]-CA--N-[H1] |==|  0.44402
USER: genes 14 Torsion [C]-CA--CB-[CG1] |==|  0.49224
USER: genes 15 Torsion [C]-N--CA-[CB] |==|  0.56279
USER: genes 16 Torsion [N]-CA--CB-[CG] |==|  0.56816
USER: genes 17 Torsion [CA]-CB--CG-[CD2] |==|  0.54428
USER: genes 18 Torsion [CE2]-CZ--OH-[HH] |==|  0.23044
USER: genes 19 Torsion [N]-CA--C-[N] |==|  0.28943
USER: genes 20 Torsion [C]-N--CA-[C] |==|  0.58217
USER: genes 21 Torsion [N]-CA--C-[N] |==|  0.52735
USER: genes 22 Torsion [C]-N--CA-[CB] |==|  0.91006
USER: genes 23 Torsion [N]-CA--CB-[CG] |==|  0.80438
USER: genes 24 Torsion [CA]-CB--CG-[CD2] |==|  0.28937
USER: genes 25 Torsion [N]-CA--C-[O] |==|  0.14558
USER: genes 26 Torsion [N]-CA--CB-[CG1] |==|  0.55807
USER: genes 27 Torsion [CA]-CB--CG1-[CD1] |==|  0.52479
ROOT
ATOM      1  C   VAL C   3      57.377  28.562  34.759  1.00 15.94 LIG 0.24  C 
ATOM      2 O    VAL C   3      56.233  28.961  34.858  1.00 17.86 LIG-0.27  OA
ATOM      3  N   TYR C   4      57.888  28.205  33.584  1.00 16.41 LIG-0.35  N 
ATOM      4 H    TYR C   4      58.685  27.901  33.480  1.00 16.41 LIG 0.16  HD
ENDROOT
BRANCH 1 5
ATOM      5  CA  VAL C   3      58.249  28.424  36.024  1.00 16.01 LIG 0.18  C 
BRANCH 5 6
ATOM      6  N   VAL C   3      57.746  29.416  36.998  1.00 15.77 LIG-0.35  N 
ATOM      7 H    VAL C   3      57.354  29.088  37.690  1.00 15.77 LIG 0.16  HD
ATOM      8  C   ARG C   2      57.920  30.706  36.763  1.00 16.54 LIG 0.24  C 
ATOM      9 O    ARG C   2      58.589  31.129  35.797  1.00 14.63 LIG-0.27  OA
BRANCH 8 10
ATOM     10  CA  ARG C   2      57.287  31.675  37.743  1.00 19.03 LIG 0.18  C 
BRANCH 10 11
ATOM     11  CB  ARG C   2      58.139  32.947  37.813  1.00 20.38 LIG 0.04  C 
BRANCH 11 12
ATOM     12  CG  ARG C   2      57.422  34.161  38.297  1.00 20.75 LIG 0.02  C 
BRANCH 12 13
ATOM     13  CD  ARG C   2      56.382  34.568  37.351  1.00 22.55 LIG 0.14  C 
BRANCH 13 14
ATOM     14  NE  ARG C   2      55.388  35.413  37.956  1.00 20.36 LIG-0.23  N 
ATOM     15  CZ  ARG C   2      54.909  36.510  37.408  1.00 23.11 LIG 0.67  C 
ATOM     16  NH1 ARG C   2      55.221  36.830  36.202  1.00 23.20 LIG-0.23  N 
ATOM     17  NH2 ARG C   2      54.012  37.237  38.085  1.00 25.55 LIG-0.23  N 
ATOM     18 1HH1 ARG C   2      55.748  36.326  35.745  1.00 23.20 LIG 0.17  HD
ATOM     19 2HH1 ARG C   2      54.903  37.548  35.852  1.00 23.20 LIG 0.17  HD
ATOM     20 2HH2 ARG C   2      53.691  37.956  37.738  1.00 25.55 LIG 0.17  HD
ATOM     21 1HH2 ARG C   2      53.756  36.986  38.867  1.00 25.55 LIG 0.17  HD
ATOM     22 HE   ARG C   2      55.087  35.186  38.728  1.00 20.36 LIG 0.18  HD
ENDBRANCH 13 14
ENDBRANCH 12 13
ENDBRANCH 11 12
ENDBRANCH 10 11
BRANCH 10 23
ATOM     23  N   ARG C   2      57.159  31.067  39.078  1.00 19.42 LIG-0.35  N 
ATOM     24  C   ASP C   1      56.055  30.406  39.399  1.00 19.51 LIG 0.25  C 
ATOM     25 O    ASP C   1      55.213  30.070  38.549  1.00 19.29 LIG-0.27  OA
ATOM     26 H    ARG C   2      57.834  31.178  39.598  1.00 19.42 LIG 0.16  HD
BRANCH 24 27
ATOM     27  CA  ASP C   1      55.819  30.080  40.863  1.00 19.04 LIG 0.28  C 
BRANCH 27 28
ATOM     28  CB  ASP C   1      56.406  28.726  41.168  1.00 21.34 LIG 0.15  C 
BRANCH 28 29
ATOM     29  CG  ASP C   1      57.937  28.792  41.402  1.00 23.67 LIG 0.17  C 
ATOM     30 OD2  ASP C   1      58.340  28.978  42.583  1.00 27.41 LIG-0.65  OA
ATOM     31 OD1  ASP C   1      58.736  28.688  40.414  1.00 20.87 LIG-0.65  OA
ENDBRANCH 28 29
ENDBRANCH 27 28
BRANCH 27 32
ATOM     32  N   ASP C   1      54.328  30.081  41.089  1.00 18.38 LIG-0.07  N 
ATOM     33 H1   ASP C   1      54.139  29.622  41.828  1.00 18.38 LIG 0.28  HD
ATOM     34 H3   ASP C   1      53.922  29.703  40.393  1.00 18.38 LIG 0.28  HD
ATOM     35 H2   ASP C   1      54.041  30.919  41.179  1.00 18.38 LIG 0.28  HD
ENDBRANCH 27 32
ENDBRANCH 24 27
ENDBRANCH 10 23
ENDBRANCH 8 10
ENDBRANCH 5 6
BRANCH 5 36
ATOM     36  CB  VAL C   3      58.117  27.000  36.516  1.00 17.74 LIG 0.01  C 
ATOM     37  CG1 VAL C   3      58.993  26.740  37.723  1.00 20.72 LIG 0.01  C 
ATOM     38  CG2 VAL C   3      56.684  26.686  36.908  1.00 18.64 LIG 0.01  C 
ENDBRANCH 5 36
ENDBRANCH 1 5
BRANCH 3 39
ATOM     39  CA  TYR C   4      57.115  28.306  32.352  1.00 17.90 LIG 0.18  C 
BRANCH 39 40
ATOM     40  CB  TYR C   4      57.656  27.379  31.307  1.00 20.19 LIG 0.07  C 
BRANCH 40 41
ATOM     41  CG  TYR C   4      57.371  27.756  29.878  1.00 23.00 LIG-0.06  A 
ATOM     42  CD2 TYR C   4      57.529  26.821  28.854  1.00 26.62 LIG 0.01  A 
ATOM     43  CE2 TYR C   4      57.279  27.146  27.536  1.00 28.63 LIG 0.04  A 
ATOM     44  CZ  TYR C   4      56.874  28.409  27.229  1.00 25.42 LIG 0.07  A 
ATOM     45  CE1 TYR C   4      56.668  29.330  28.200  1.00 26.89 LIG 0.04  A 
ATOM     46  CD1 TYR C   4      56.925  29.001  29.539  1.00 24.41 LIG 0.01  A 
BRANCH 44 47
ATOM     47 OH   TYR C   4      56.621  28.726  25.926  1.00 32.39 LIG-0.36  OA
ATOM     48 HH   TYR C   4      55.843  28.483  25.725  1.00 32.39 LIG 0.22  HD
ENDBRANCH 44 47
ENDBRANCH 40 41
ENDBRANCH 39 40
BRANCH 39 49
ATOM     49  C   TYR C   4      55.588  28.102  32.571  1.00 20.63 LIG 0.24  C 
ATOM     50 O    TYR C   4      55.139  27.029  32.866  1.00 19.73 LIG-0.27  OA
ATOM     51  N   ILE C   5      54.837  29.193  32.540  1.00 22.91 LIG-0.35  N 
ATOM     52 H    ILE C   5      55.146  29.990  32.452  1.00 22.91 LIG 0.16  HD
BRANCH 51 53
ATOM     53  CA  ILE C   5      53.392  29.113  32.657  1.00 27.58 LIG 0.18  C 
BRANCH 53 54
ATOM     54  C   ILE C   5      52.753  30.273  31.898  1.00 33.14 LIG 0.24  C 
ATOM     55  N   HIS C   6      51.438  30.467  32.070  1.00 39.14 LIG-0.35  N 
ATOM     56 H    HIS C   6      50.945  29.936  32.533  1.00 39.14 LIG 0.16  HD
ATOM     57 O    ILE C   5      53.445  30.895  31.097  1.00 25.88 LIG-0.27  OA
BRANCH 55 58
ATOM     58  CA  HIS C   6      50.678  31.627  31.479  1.00 56.87 LIG 0.17  C 
BRANCH 58 59
ATOM     59  CB  HIS C   6      51.583  32.891  31.390  1.00 66.39 LIG 0.09  C 
BRANCH 59 60
ATOM     60  CG  HIS C   6      51.918  33.517  32.714  1.00 78.50 LIG 0.06  A 
ATOM     61  CD2 HIS C   6      53.063  33.484  33.440  1.00 82.71 LIG 0.14  A 
ATOM     62 NE2  HIS C   6      52.864  34.263  34.557  1.00 84.02 LIG-0.25  NA
ATOM     63  CE1 HIS C   6      51.647  34.778  34.511  1.00 85.20 LIG 0.23  A 
ATOM     64 ND1  HIS C   6      51.055  34.350  33.406  1.00 88.66 LIG-0.24  NA
ENDBRANCH 59 60
ENDBRANCH 58 59
BRANCH 58 65
ATOM     65  C   HIS C   6      50.039  31.423  30.098  1.00 59.18 LIG 0.22  C 
ATOM     66 O    HIS C   6      49.285  30.437  29.881  1.00 63.69 LIG-0.29  OA
ENDBRANCH 58 65
ENDBRANCH 55 58
ENDBRANCH 53 54
BRANCH 53 67
ATOM     67  CB  ILE C   5      52.990  29.103  34.126  1.00 28.54 LIG 0.01  C 
ATOM     68  CG2 ILE C   5      53.110  30.523  34.673  1.00 32.34 LIG 0.01  C 
BRANCH 67 69
ATOM     69  CG1 ILE C   5      51.578  28.500  34.206  1.00 30.21 LIG 0.00  C 
ATOM     70  CD1 ILE C   5      50.890  28.580  35.546  1.00 32.85 LIG 0.01  C 
ENDBRANCH 67 69
ENDBRANCH 53 67
ENDBRANCH 51 53
ENDBRANCH 39 49
ENDBRANCH 3 39
TORSDOF 26
ENDMDL
MODEL 2
USER: ADFR SOLUTION from run 119
USER: SCORE 24.594143 LL:  -5.933 LR: -19.283 RR:   0.000 FEB: -11.527
USER: RMSD 4.939306
USER: SEED 118
USER: STATUS searching
USER: GENES 28
USER: genes 0 Translation |==|  0.69956 0.44402 0.53344
USER: genes 1 Rotation |==|  0.49870 0.51570 0.58915 0.99174
USER: genes 2 Torsion [N]-C--CA-[N] |==|  0.39153
USER: genes 3 Torsion [C]-CA--N-[C] |==|  0.79707
USER: genes 4 Torsion [N]-C--CA-[N] |==|  0.07178
USER: genes 5 Torsion [C]-CA--CB-[CG] |==|  0.47763
USER: genes 6 Torsion [CA]-CB--CG-[CD] |==|  0.78102
USER: genes 7 Torsion [CB]-CG--CD-[NE] |==|  0.46196
USER: genes 8 Torsion [CG]-CD--NE-[CZ] |==|  0.38036
USER: genes 9 Torsion [C]-CA--N-[C] |==|  0.76111
USER: genes 10 Torsion [N]-C--CA-[N] |==|  0.38207
USER: genes 11 Torsion [C]-CA--CB-[CG] |==|  0.23121
USER: genes 12 Torsion [CA]-CB--CG-[OD2] |==|  0.26192
USER: genes 13 Torsion [C]-CA--N-[H1] |==|  0.44644
USER: genes 14 Torsion [C]-CA--CB-[CG1] |==|  0.49190
USER: genes 15 Torsion [C]-N--CA-[CB] |==|  0.79058
USER: genes 16 Torsion [N]-CA--CB-[CG] |==|  0.20687
USER: genes 17 Torsion [CA]-CB--CG-[CD2] |==|  0.20747
USER: genes 18 Torsion [CE2]-CZ--OH-[HH] |==|  0.99177
USER: genes 19 Torsion [N]-CA--C-[N] |==|  0.43759
USER: genes 20 Torsion [C]-N--CA-[C] |==|  0.73472
USER: genes 21 Torsion [N]-CA--C-[N] |==|  0.40944
USER: genes 22 Torsion [C]-N--CA-[CB] |==|  0.38389
USER: genes 23 Torsion [N]-CA--CB-[CG] |==|  0.88977
USER: genes 24 Torsion [CA]-CB--CG-[CD2] |==|  0.19236
USER: genes 25 Torsion [N]-CA--C-[O] |==|  0.70318
USER: genes 26 Torsion [N]-CA--CB-[CG1] |==|  0.54316
USER: genes 27 Torsion [CA]-CB--CG1-[CD1] |==|  0.11474
ROOT
ATOM      1  C   VAL C   3      57.586  27.903  35.239  1.00 15.94 LIG 0.24  C 
ATOM      2 O    VAL C   3      56.376  27.928  35.352  1.00 17.86 LIG-0.27  OA
ATOM      3  N   TYR C   4      58.168  27.667  34.067  1.00 16.41 LIG-0.35  N 
ATOM      4 H    TYR C   4      59.019  27.622  33.954  1.00 16.41 LIG 0.16  HD
ENDROOT
BRANCH 1 5
ATOM      5  CA  VAL C   3      58.473  28.106  36.484  1.00 16.01 LIG 0.18  C 
BRANCH 5 6
ATOM      6  N   VAL C   3      57.847  29.181  37.282  1.00 15.77 LIG-0.35  N 
ATOM      7 H    VAL C   3      57.455  28.925  38.004  1.00 15.77 LIG 0.16  HD
ATOM      8  C   ARG C   2      57.921  30.433  36.861  1.00 16.54 LIG 0.24  C 
ATOM      9 O    ARG C   2      58.592  30.768  35.861  1.00 14.63 LIG-0.27  OA
BRANCH 8 10
ATOM     10  CA  ARG C   2      57.166  31.475  37.664  1.00 19.03 LIG 0.18  C 
BRANCH 10 11
ATOM     11  CB  ARG C   2      57.926  32.804  37.601  1.00 20.38 LIG 0.04  C 
BRANCH 11 12
ATOM     12  CG  ARG C   2      57.207  33.971  38.190  1.00 20.75 LIG 0.02  C 
BRANCH 12 13
ATOM     13  CD  ARG C   2      56.197  34.485  37.264  1.00 22.55 LIG 0.14  C 
BRANCH 13 14
ATOM     14  NE  ARG C   2      55.279  35.391  37.898  1.00 20.36 LIG-0.23  N 
ATOM     15  CZ  ARG C   2      54.864  36.523  37.371  1.00 23.11 LIG 0.67  C 
ATOM     16  NH1 ARG C   2      55.170  36.832  36.160  1.00 23.20 LIG-0.23  N 
ATOM     17  NH2 ARG C   2      54.036  37.305  38.075  1.00 25.55 LIG-0.23  N 
ATOM     18 1HH1 ARG C   2      55.649  36.297  35.687  1.00 23.20 LIG 0.17  HD
ATOM     19 2HH1 ARG C   2      54.894  37.574  35.823  1.00 23.20 LIG 0.17  HD
ATOM     20 2HH2 ARG C   2      53.758  38.047  37.741  1.00 25.55 LIG 0.17  HD
ATOM     21 1HH2 ARG C   2      53.782  37.065  38.861  1.00 25.55 LIG 0.17  HD
ATOM     22 HE   ARG C   2      54.981  35.178  38.676  1.00 20.36 LIG 0.18  HD
ENDBRANCH 13 14
ENDBRANCH 12 13
ENDBRANCH 11 12
ENDBRANCH 10 11
BRANCH 10 23
ATOM     23  N   ARG C   2      56.998  31.043  39.061  1.00 19.42 LIG-0.35  N 
ATOM     24  C   ASP C   1      55.969  30.276  39.395  1.00 19.51 LIG 0.25  C 
ATOM     25 O    ASP C   1      55.264  29.705  38.546  1.00 19.29 LIG-0.27  OA
ATOM     26 H    ARG C   2      57.600  31.323  39.607  1.00 19.42 LIG 0.16  HD
BRANCH 24 27
ATOM     27  CA  ASP C   1      55.643  30.122  40.870  1.00 19.04 LIG 0.28  C 
BRANCH 27 28
ATOM     28  CB  ASP C   1      56.151  28.787  41.351  1.00 21.34 LIG 0.15  C 
BRANCH 28 29
ATOM     29  CG  ASP C   1      57.657  28.833  41.721  1.00 23.67 LIG 0.17  C 
ATOM     30 OD2  ASP C   1      57.956  29.046  42.928  1.00 27.41 LIG-0.65  OA
ATOM     31 OD1  ASP C   1      58.538  28.687  40.813  1.00 20.87 LIG-0.65  OA
ENDBRANCH 28 29
ENDBRANCH 27 28
BRANCH 27 32
ATOM     32  N   ASP C   1      54.144  30.207  41.011  1.00 18.38 LIG-0.07  N 
ATOM     33 H1   ASP C   1      53.898  29.851  41.789  1.00 18.38 LIG 0.28  HD
ATOM     34 H3   ASP C   1      53.758  29.761  40.345  1.00 18.38 LIG 0.28  HD
ATOM     35 H2   ASP C   1      53.890  31.059  40.982  1.00 18.38 LIG 0.28  HD
ENDBRANCH 27 32
ENDBRANCH 24 27
ENDBRANCH 10 23
ENDBRANCH 8 10
ENDBRANCH 5 6
BRANCH 5 36
ATOM     36  CB  VAL C   3      58.533  26.787  37.222  1.00 17.74 LIG 0.01  C 
ATOM     37  CG1 VAL C   3      59.443  26.861  38.430  1.00 20.72 LIG 0.01  C 
ATOM     38  CG2 VAL C   3      57.157  26.365  37.705  1.00 18.64 LIG 0.01  C 
ENDBRANCH 5 36
ENDBRANCH 1 5
BRANCH 3 39
ATOM     39  CA  TYR C   4      57.387  27.460  32.853  1.00 17.90 LIG 0.18  C 
BRANCH 39 40
ATOM     40  CB  TYR C   4      56.767  26.096  32.844  1.00 20.19 LIG 0.07  C 
BRANCH 40 41
ATOM     41  CG  TYR C   4      55.589  25.899  33.760  1.00 23.00 LIG-0.06  A 
ATOM     42  CD2 TYR C   4      54.343  26.438  33.437  1.00 26.62 LIG 0.01  A 
ATOM     43  CE2 TYR C   4      53.250  26.275  34.265  1.00 28.63 LIG 0.04  A 
ATOM     44  CZ  TYR C   4      53.394  25.575  35.423  1.00 25.42 LIG 0.07  A 
ATOM     45  CE1 TYR C   4      54.576  25.000  35.748  1.00 26.89 LIG 0.04  A 
ATOM     46  CD1 TYR C   4      55.687  25.169  34.909  1.00 24.41 LIG 0.01  A 
BRANCH 44 47
ATOM     47 OH   TYR C   4      52.311  25.410  36.236  1.00 32.39 LIG-0.36  OA
ATOM     48 HH   TYR C   4      51.653  25.822  35.914  1.00 32.39 LIG 0.22  HD
ENDBRANCH 44 47
ENDBRANCH 40 41
ENDBRANCH 39 40
BRANCH 39 49
ATOM     49  C   TYR C   4      56.331  28.576  32.609  1.00 20.63 LIG 0.24  C 
ATOM     50 O    TYR C   4      56.003  29.326  33.487  1.00 19.73 LIG-0.27  OA
ATOM     51  N   ILE C   5      55.915  28.732  31.361  1.00 22.91 LIG-0.35  N 
ATOM     52 H    ILE C   5      56.222  28.290  30.690  1.00 22.91 LIG 0.16  HD
BRANCH 51 53
ATOM     53  CA  ILE C   5      54.877  29.691  31.029  1.00 27.58 LIG 0.18  C 
BRANCH 53 54
ATOM     54  C   ILE C   5      53.523  28.986  30.986  1.00 33.14 LIG 0.24  C 
ATOM     55  N   HIS C   6      52.451  29.697  31.360  1.00 39.14 LIG-0.35  N 
ATOM     56 H    HIS C   6      52.507  30.496  31.674  1.00 39.14 LIG 0.16  HD
ATOM     57 O    ILE C   5      53.501  27.788  30.717  1.00 25.88 LIG-0.27  OA
BRANCH 55 58
ATOM     58  CA  HIS C   6      51.036  29.185  31.274  1.00 56.87 LIG 0.17  C 
BRANCH 58 59
ATOM     59  CB  HIS C   6      50.230  29.578  32.547  1.00 66.39 LIG 0.09  C 
BRANCH 59 60
ATOM     60  CG  HIS C   6      50.999  29.476  33.834  1.00 78.50 LIG 0.06  A 
ATOM     61  CD2 HIS C   6      52.033  30.219  34.302  1.00 82.71 LIG 0.14  A 
ATOM     62 NE2  HIS C   6      52.343  29.745  35.557  1.00 84.02 LIG-0.25  NA
ATOM     63  CE1 HIS C   6      51.515  28.759  35.861  1.00 85.20 LIG 0.23  A 
ATOM     64 ND1  HIS C   6      50.689  28.580  34.842  1.00 88.66 LIG-0.24  NA
ENDBRANCH 59 60
ENDBRANCH 58 59
BRANCH 58 65
ATOM     65  C   HIS C   6      50.204  29.608  30.056  1.00 59.18 LIG 0.22  C 
ATOM     66 O    HIS C   6      49.279  30.455  30.175  1.00 63.69 LIG-0.29  OA
ENDBRANCH 58 65
ENDBRANCH 55 58
ENDBRANCH 53 54
BRANCH 53 67
ATOM     67  CB  ILE C   5      55.206  30.375  29.709  1.00 28.54 LIG 0.01  C 
ATOM     68  CG2 ILE C   5      55.020  29.366  28.579  1.00 32.34 LIG 0.01  C 
BRANCH 67 69
ATOM     69  CG1 ILE C   5      54.314  31.624  29.610  1.00 30.21 LIG 0.00  C 
ATOM     70  CD1 ILE C   5      54.144  32.428  30.875  1.00 32.85 LIG 0.01  C 
ENDBRANCH 67 69
ENDBRANCH 53 67
ENDBRANCH 51 53
ENDBRANCH 39 49
ENDBRANCH 3 39
TORSDOF 26
ENDMDL
MODEL 3
USER: ADFR SOLUTION from run 143
USER: SCORE 24.388692 LL:  -5.738 LR: -19.269 RR:   0.000 FEB: -11.513
USER: RMSD 4.962248
USER: SEED 142
USER: STATUS searching
USER: GENES 28
USER: genes 0 Translation |==|  0.68893 0.44528 0.52907
USER: genes 1 Rotation |==|  0.51568 0.51980 0.59239 0.99074
USER: genes 2 Torsion [N]-C--CA-[N] |==|  0.38288
USER: genes 3 Torsion [C]-CA--N-[C] |==|  0.79064
USER: genes 4 Torsion [N]-C--CA-[N] |==|  0.07956
USER: genes 5 Torsion [C]-CA--CB-[CG] |==|  0.46978
USER: genes 6 Torsion [CA]-CB--CG-[CD] |==|  0.77793
USER: genes 7 Torsion [CB]-CG--CD-[NE] |==|  0.45050
USER: genes 8 Torsion [CG]-CD--NE-[CZ] |==|  0.38887
USER: genes 9 Torsion [C]-CA--N-[C] |==|  0.75668
USER: genes 10 Torsion [N]-C--CA-[N] |==|  0.39806
USER: genes 11 Torsion [C]-CA--CB-[CG] |==|  0.19182
USER: genes 12 Torsion [CA]-CB--CG-[OD2] |==|  0.27603
USER: genes 13 Torsion [C]-CA--N-[H1] |==|  0.43184
USER: genes 14 Torsion [C]-CA--CB-[CG1] |==|  0.47137
USER: genes 15 Torsion [C]-N--CA-[CB] |==|  0.78940
USER: genes 16 Torsion [N]-CA--CB-[CG] |==|  0.20060
USER: genes 17 Torsion [CA]-CB--CG-[CD2] |==|  0.20960
USER: genes 18 Torsion [CE2]-CZ--OH-[HH] |==|  0.00657
USER: genes 19 Torsion [N]-CA--C-[N] |==|  0.42155
USER: genes 20 Torsion [C]-N--CA-[C] |==|  0.79245
USER: genes 21 Torsion [N]-CA--C-[N] |==|  0.36172
USER: genes 22 Torsion [C]-N--CA-[CB] |==|  0.87605
USER: genes 23 Torsion [N]-CA--CB-[CG] |==|  0.77520
USER: genes 24 Torsion [CA]-CB--CG-[CD2] |==|  0.03605
USER: genes 25 Torsion [N]-CA--C-[O] |==|  0.20017
USER: genes 26 Torsion [N]-CA--CB-[CG1] |==|  0.50944
USER: genes 27 Torsion [CA]-CB--CG1-[CD1] |==|  0.13306
ROOT
ATOM      1  C   VAL C   3      57.403  27.935  35.124  1.00 15.94 LIG 0.24  C 
ATOM      2 O    VAL C   3      56.196  27.938  35.273  1.00 17.86 LIG-0.27  OA
ATOM      3  N   TYR C   4      57.953  27.781  33.924  1.00 16.41 LIG-0.35  N 
ATOM      4 H    TYR C   4      58.801  27.755  33.784  1.00 16.41 LIG 0.16  HD
ENDROOT
BRANCH 1 5
ATOM      5  CA  VAL C   3      58.323  28.069  36.355  1.00 16.01 LIG 0.18  C 
BRANCH 5 6
ATOM      6  N   VAL C   3      57.750  29.137  37.201  1.00 15.77 LIG-0.35  N 
ATOM      7 H    VAL C   3      57.339  28.868  37.907  1.00 15.77 LIG 0.16  HD
ATOM      8  C   ARG C   2      57.895  30.401  36.842  1.00 16.54 LIG 0.24  C 
ATOM      9 O    ARG C   2      58.592  30.747  35.863  1.00 14.63 LIG-0.27  OA
BRANCH 8 10
ATOM     10  CA  ARG C   2      57.192  31.443  37.691  1.00 19.03 LIG 0.18  C 
BRANCH 10 11
ATOM     11  CB  ARG C   2      57.988  32.751  37.641  1.00 20.38 LIG 0.04  C 
BRANCH 11 12
ATOM     12  CG  ARG C   2      57.291  33.937  38.219  1.00 20.75 LIG 0.02  C 
BRANCH 12 13
ATOM     13  CD  ARG C   2      56.328  34.493  37.267  1.00 22.55 LIG 0.14  C 
BRANCH 13 14
ATOM     14  NE  ARG C   2      55.363  35.351  37.899  1.00 20.36 LIG-0.23  N 
ATOM     15  CZ  ARG C   2      54.920  36.480  37.387  1.00 23.11 LIG 0.67  C 
ATOM     16  NH1 ARG C   2      55.244  36.828  36.191  1.00 23.20 LIG-0.23  N 
ATOM     17  NH2 ARG C   2      54.048  37.216  38.087  1.00 25.55 LIG-0.23  N 
ATOM     18 1HH1 ARG C   2      55.753  36.321  35.719  1.00 23.20 LIG 0.17  HD
ATOM     19 2HH1 ARG C   2      54.949  37.568  35.864  1.00 23.20 LIG 0.17  HD
ATOM     20 2HH2 ARG C   2      53.751  37.955  37.764  1.00 25.55 LIG 0.17  HD
ATOM     21 1HH2 ARG C   2      53.784  36.948  38.861  1.00 25.55 LIG 0.17  HD
ATOM     22 HE   ARG C   2      55.054  35.110  38.664  1.00 20.36 LIG 0.18  HD
ENDBRANCH 13 14
ENDBRANCH 12 13
ENDBRANCH 11 12
ENDBRANCH 10 11
BRANCH 10 23
ATOM     23  N   ARG C   2      57.049  30.980  39.081  1.00 19.42 LIG-0.35  N 
ATOM     24  C   ASP C   1      55.992  30.260  39.431  1.00 19.51 LIG 0.25  C 
ATOM     25 O    ASP C   1      55.228  29.754  38.592  1.00 19.29 LIG-0.27  OA
ATOM     26 H    ARG C   2      57.683  31.211  39.613  1.00 19.42 LIG 0.16  HD
BRANCH 24 27
ATOM     27  CA  ASP C   1      55.709  30.081  40.912  1.00 19.04 LIG 0.28  C 
BRANCH 27 28
ATOM     28  CB  ASP C   1      56.285  28.766  41.369  1.00 21.34 LIG 0.15  C 
BRANCH 28 29
ATOM     29  CG  ASP C   1      57.836  28.775  41.365  1.00 23.67 LIG 0.17  C 
ATOM     30 OD2  ASP C   1      58.422  28.969  42.465  1.00 27.41 LIG-0.65  OA
ATOM     31 OD1  ASP C   1      58.469  28.618  40.270  1.00 20.87 LIG-0.65  OA
ENDBRANCH 28 29
ENDBRANCH 27 28
BRANCH 27 32
ATOM     32  N   ASP C   1      54.211  30.100  41.089  1.00 18.38 LIG-0.07  N 
ATOM     33 H1   ASP C   1      53.994  29.660  41.833  1.00 18.38 LIG 0.28  HD
ATOM     34 H3   ASP C   1      53.824  29.709  40.390  1.00 18.38 LIG 0.28  HD
ATOM     35 H2   ASP C   1      53.929  30.942  41.150  1.00 18.38 LIG 0.28  HD
ENDBRANCH 27 32
ENDBRANCH 24 27
ENDBRANCH 10 23
ENDBRANCH 8 10
ENDBRANCH 5 6
BRANCH 5 36
ATOM     36  CB  VAL C   3      58.356  26.725  37.048  1.00 17.74 LIG 0.01  C 
ATOM     37  CG1 VAL C   3      59.422  26.674  38.122  1.00 20.72 LIG 0.01  C 
ATOM     38  CG2 VAL C   3      57.023  26.414  37.705  1.00 18.64 LIG 0.01  C 
ENDBRANCH 5 36
ENDBRANCH 1 5
BRANCH 3 39
ATOM     39  CA  TYR C   4      57.140  27.643  32.722  1.00 17.90 LIG 0.18  C 
BRANCH 39 40
ATOM     40  CB  TYR C   4      56.543  26.272  32.637  1.00 20.19 LIG 0.07  C 
BRANCH 40 41
ATOM     41  CG  TYR C   4      55.430  25.974  33.606  1.00 23.00 LIG-0.06  A 
ATOM     42  CD2 TYR C   4      54.153  26.499  33.403  1.00 26.62 LIG 0.01  A 
ATOM     43  CE2 TYR C   4      53.120  26.244  34.282  1.00 28.63 LIG 0.04  A 
ATOM     44  CZ  TYR C   4      53.355  25.465  35.374  1.00 25.42 LIG 0.07  A 
ATOM     45  CE1 TYR C   4      54.569  24.903  35.581  1.00 26.89 LIG 0.04  A 
ATOM     46  CD1 TYR C   4      55.619  25.165  34.690  1.00 24.41 LIG 0.01  A 
BRANCH 44 47
ATOM     47 OH   TYR C   4      52.330  25.209  36.237  1.00 32.39 LIG-0.36  OA
ATOM     48 HH   TYR C   4      51.626  25.565  35.949  1.00 32.39 LIG 0.22  HD
ENDBRANCH 44 47
ENDBRANCH 40 41
ENDBRANCH 39 40
BRANCH 39 49
ATOM     49  C   TYR C   4      56.059  28.754  32.585  1.00 20.63 LIG 0.24  C 
ATOM     50 O    TYR C   4      55.671  29.367  33.541  1.00 19.73 LIG-0.27  OA
ATOM     51  N   ILE C   5      55.689  29.069  31.352  1.00 22.91 LIG-0.35  N 
ATOM     52 H    ILE C   5      56.038  28.732  30.642  1.00 22.91 LIG 0.16  HD
BRANCH 51 53
ATOM     53  CA  ILE C   5      54.635  30.037  31.108  1.00 27.58 LIG 0.18  C 
BRANCH 53 54
ATOM     54  C   ILE C   5      53.279  29.406  31.418  1.00 33.14 LIG 0.24  C 
ATOM     55  N   HIS C   6      52.450  30.097  32.210  1.00 39.14 LIG-0.35  N 
ATOM     56 H    HIS C   6      52.674  30.835  32.591  1.00 39.14 LIG 0.16  HD
ATOM     57 O    ILE C   5      53.065  28.265  31.016  1.00 25.88 LIG-0.27  OA
BRANCH 55 58
ATOM     58  CA  HIS C   6      51.040  29.665  32.526  1.00 56.87 LIG 0.17  C 
BRANCH 58 59
ATOM     59  CB  HIS C   6      50.308  29.188  31.237  1.00 66.39 LIG 0.09  C 
BRANCH 59 60
ATOM     60  CG  HIS C   6      49.756  30.294  30.383  1.00 78.50 LIG 0.06  A 
ATOM     61  CD2 HIS C   6      49.983  31.631  30.419  1.00 82.71 LIG 0.14  A 
ATOM     62 NE2  HIS C   6      49.270  32.196  29.386  1.00 84.02 LIG-0.25  NA
ATOM     63  CE1 HIS C   6      48.642  31.239  28.722  1.00 85.20 LIG 0.23  A 
ATOM     64 ND1  HIS C   6      48.924  30.080  29.298  1.00 88.66 LIG-0.24  NA
ENDBRANCH 59 60
ENDBRANCH 58 59
BRANCH 58 65
ATOM     65  C   HIS C   6      50.857  28.573  33.589  1.00 59.18 LIG 0.22  C 
ATOM     66 O    HIS C   6      51.054  28.826  34.807  1.00 63.69 LIG-0.29  OA
ENDBRANCH 58 65
ENDBRANCH 55 58
ENDBRANCH 53 54
BRANCH 53 67
ATOM     67  CB  ILE C   5      54.716  30.540  29.673  1.00 28.54 LIG 0.01  C 
ATOM     68  CG2 ILE C   5      54.577  29.347  28.731  1.00 32.34 LIG 0.01  C 
BRANCH 67 69
ATOM     69  CG1 ILE C   5      53.632  31.619  29.509  1.00 30.21 LIG 0.00  C 
ATOM     70  CD1 ILE C   5      53.569  32.674  30.585  1.00 32.85 LIG 0.01  C 
ENDBRANCH 67 69
ENDBRANCH 53 67
ENDBRANCH 51 53
ENDBRANCH 39 49
ENDBRANCH 3 39
TORSDOF 26
ENDMDL
MODEL 4
USER: ADFR SOLUTION from run 197
USER: SCORE 23.384057 LL:  -5.313 LR: -19.160 RR:   0.000 FEB: -11.405
USER: RMSD 4.212034
USER: SEED 196
USER: STATUS no improvement in best in 8 clusters for 5 generations
USER: GENES 28
USER: genes 0 Translation |==|  0.70829 0.43390 0.53964
USER: genes 1 Rotation |==|  0.40519 0.52712 0.54767 0.98786
USER: genes 2 Torsion [N]-C--CA-[N] |==|  0.46111
USER: genes 3 Torsion [C]-CA--N-[C] |==|  0.75954
USER: genes 4 Torsion [N]-C--CA-[N] |==|  0.09267
USER: genes 5 Torsion [C]-CA--CB-[CG] |==|  0.50397
USER: genes 6 Torsion [CA]-CB--CG-[CD] |==|  0.69129
USER: genes 7 Torsion [CB]-CG--CD-[NE] |==|  0.46158
USER: genes 8 Torsion [CG]-CD--NE-[CZ] |==|  0.46072
USER: genes 9 Torsion [C]-CA--N-[C] |==|  0.74421
USER: genes 10 Torsion [N]-C--CA-[N] |==|  0.38551
USER: genes 11 Torsion [C]-CA--CB-[CG] |==|  0.35471
USER: genes 12 Torsion [CA]-CB--CG-[OD2] |==|  0.64734
USER: genes 13 Torsion [C]-CA--N-[H1] |==|  0.41661
USER: genes 14 Torsion [C]-CA--CB-[CG1] |==|  0.59286
USER: genes 15 Torsion [C]-N--CA-[CB] |==|  0.57894
USER: genes 16 Torsion [N]-CA--CB-[CG] |==|  0.08222
USER: genes 17 Torsion [CA]-CB--CG-[CD2] |==|  0.21776
USER: genes 18 Torsion [CE2]-CZ--OH-[HH] |==|  0.45357
USER: genes 19 Torsion [N]-CA--C-[N] |==|  0.28474
USER: genes 20 Torsion [C]-N--CA-[C] |==|  0.72989
USER: genes 21 Torsion [N]-CA--C-[N] |==|  0.45203
USER: genes 22 Torsion [C]-N--CA-[CB] |==|  0.25253
USER: genes 23 Torsion [N]-CA--CB-[CG] |==|  0.13017
USER: genes 24 Torsion [CA]-CB--CG-[CD2] |==|  0.68495
USER: genes 25 Torsion [N]-CA--C-[O] |==|  0.62170
USER: genes 26 Torsion [N]-CA--CB-[CG1] |==|  0.92228
USER: genes 27 Torsion [CA]-CB--CG1-[CD1] |==|  0.52752
ROOT
ATOM      1  C   VAL C   3      57.737  27.645  35.402  1.00 15.94 LIG 0.24  C 
ATOM      2 O    VAL C   3      56.545  27.881  35.437  1.00 17.86 LIG-0.27  OA
ATOM      3  N   TYR C   4      58.268  26.907  34.432  1.00 16.41 LIG-0.35  N 
ATOM      4 H    TYR C   4      59.102  26.703  34.385  1.00 16.41 LIG 0.16  HD
ENDROOT
BRANCH 1 5
ATOM      5  CA  VAL C   3      58.653  28.172  36.524  1.00 16.01 LIG 0.18  C 
BRANCH 5 6
ATOM      6  N   VAL C   3      57.889  29.212  37.245  1.00 15.77 LIG-0.35  N 
ATOM      7 H    VAL C   3      57.454  28.940  37.935  1.00 15.77 LIG 0.16  HD
ATOM      8  C   ARG C   2      57.913  30.460  36.806  1.00 16.54 LIG 0.24  C 
ATOM      9 O    ARG C   2      58.644  30.827  35.861  1.00 14.63 LIG-0.27  OA
BRANCH 8 10
ATOM     10  CA  ARG C   2      57.023  31.458  37.521  1.00 19.03 LIG 0.18  C 
BRANCH 10 11
ATOM     11  CB  ARG C   2      57.599  32.866  37.336  1.00 20.38 LIG 0.04  C 
BRANCH 11 12
ATOM     12  CG  ARG C   2      56.839  33.954  38.019  1.00 20.75 LIG 0.02  C 
BRANCH 12 13
ATOM     13  CD  ARG C   2      56.179  34.823  37.043  1.00 22.55 LIG 0.14  C 
BRANCH 13 14
ATOM     14  NE  ARG C   2      55.193  35.677  37.647  1.00 20.36 LIG-0.23  N 
ATOM     15  CZ  ARG C   2      54.651  36.723  37.059  1.00 23.11 LIG 0.67  C 
ATOM     16  NH1 ARG C   2      54.889  36.973  35.819  1.00 23.20 LIG-0.23  N 
ATOM     17  NH2 ARG C   2      53.769  37.468  37.736  1.00 25.55 LIG-0.23  N 
ATOM     18 1HH1 ARG C   2      55.406  36.455  35.367  1.00 23.20 LIG 0.17  HD
ATOM     19 2HH1 ARG C   2      54.531  37.659  35.442  1.00 23.20 LIG 0.17  HD
ATOM     20 2HH2 ARG C   2      53.408  38.153  37.363  1.00 25.55 LIG 0.17  HD
ATOM     21 1HH2 ARG C   2      53.563  37.260  38.545  1.00 25.55 LIG 0.17  HD
ATOM     22 HE   ARG C   2      54.939  35.492  38.447  1.00 20.36 LIG 0.18  HD
ENDBRANCH 13 14
ENDBRANCH 12 13
ENDBRANCH 11 12
ENDBRANCH 10 11
BRANCH 10 23
ATOM     23  N   ARG C   2      56.910  31.132  38.952  1.00 19.42 LIG-0.35  N 
ATOM     24  C   ASP C   1      55.917  30.362  39.377  1.00 19.51 LIG 0.25  C 
ATOM     25 O    ASP C   1      55.208  29.705  38.597  1.00 19.29 LIG-0.27  OA
ATOM     26 H    ARG C   2      57.517  31.473  39.456  1.00 19.42 LIG 0.16  HD
BRANCH 24 27
ATOM     27  CA  ASP C   1      55.639  30.314  40.869  1.00 19.04 LIG 0.28  C 
BRANCH 27 28
ATOM     28  CB  ASP C   1      56.232  29.052  41.441  1.00 21.34 LIG 0.15  C 
BRANCH 28 29
ATOM     29  CG  ASP C   1      57.147  29.338  42.660  1.00 23.67 LIG 0.17  C 
ATOM     30 OD2  ASP C   1      58.318  28.869  42.634  1.00 27.41 LIG-0.65  OA
ATOM     31 OD1  ASP C   1      56.696  30.000  43.651  1.00 20.87 LIG-0.65  OA
ENDBRANCH 28 29
ENDBRANCH 27 28
BRANCH 27 32
ATOM     32  N   ASP C   1      54.142  30.332  41.048  1.00 18.38 LIG-0.07  N 
ATOM     33 H1   ASP C   1      53.926  29.890  41.790  1.00 18.38 LIG 0.28  HD
ATOM     34 H3   ASP C   1      53.754  29.945  40.347  1.00 18.38 LIG 0.28  HD
ATOM     35 H2   ASP C   1      53.860  31.174  41.113  1.00 18.38 LIG 0.28  HD
ENDBRANCH 27 32
ENDBRANCH 24 27
ENDBRANCH 10 23
ENDBRANCH 8 10
ENDBRANCH 5 6
BRANCH 5 36
ATOM     36  CB  VAL C   3      59.019  26.998  37.405  1.00 17.74 LIG 0.01  C 
ATOM     37  CG1 VAL C   3      59.175  27.410  38.853  1.00 20.72 LIG 0.01  C 
ATOM     38  CG2 VAL C   3      57.956  25.915  37.344  1.00 18.64 LIG 0.01  C 
ENDBRANCH 5 36
ENDBRANCH 1 5
BRANCH 3 39
ATOM     39  CA  TYR C   4      57.457  26.373  33.345  1.00 17.90 LIG 0.18  C 
BRANCH 39 40
ATOM     40  CB  TYR C   4      58.046  25.102  32.814  1.00 20.19 LIG 0.07  C 
BRANCH 40 41
ATOM     41  CG  TYR C   4      58.823  24.271  33.800  1.00 23.00 LIG-0.06  A 
ATOM     42  CD2 TYR C   4      58.159  23.466  34.727  1.00 26.62 LIG 0.01  A 
ATOM     43  CE2 TYR C   4      58.851  22.701  35.643  1.00 28.63 LIG 0.04  A 
ATOM     44  CZ  TYR C   4      60.212  22.737  35.645  1.00 25.42 LIG 0.07  A 
ATOM     45  CE1 TYR C   4      60.891  23.472  34.733  1.00 26.89 LIG 0.04  A 
ATOM     46  CD1 TYR C   4      60.188  24.252  33.804  1.00 24.41 LIG 0.01  A 
BRANCH 44 47
ATOM     47 OH   TYR C   4      60.894  21.974  36.548  1.00 32.39 LIG-0.36  OA
ATOM     48 HH   TYR C   4      61.696  21.904  36.306  1.00 32.39 LIG 0.22  HD
ENDBRANCH 44 47
ENDBRANCH 40 41
ENDBRANCH 39 40
BRANCH 39 49
ATOM     49  C   TYR C   4      55.959  26.200  33.729  1.00 20.63 LIG 0.24  C 
ATOM     50 O    TYR C   4      55.607  25.342  34.491  1.00 19.73 LIG-0.27  OA
ATOM     51  N   ILE C   5      55.123  27.121  33.274  1.00 22.91 LIG-0.35  N 
ATOM     52 H    ILE C   5      55.364  27.814  32.827  1.00 22.91 LIG 0.16  HD
BRANCH 51 53
ATOM     53  CA  ILE C   5      53.693  27.018  33.508  1.00 27.58 LIG 0.18  C 
BRANCH 53 54
ATOM     54  C   ILE C   5      53.017  26.404  32.284  1.00 33.14 LIG 0.24  C 
ATOM     55  N   HIS C   6      51.782  25.913  32.449  1.00 39.14 LIG-0.35  N 
ATOM     56 H    HIS C   6      51.393  25.877  33.216  1.00 39.14 LIG 0.16  HD
ATOM     57 O    ILE C   5      53.673  26.297  31.251  1.00 25.88 LIG-0.27  OA
BRANCH 55 58
ATOM     58  CA  HIS C   6      50.939  25.371  31.323  1.00 56.87 LIG 0.17  C 
BRANCH 58 59
ATOM     59  CB  HIS C   6      51.171  23.842  31.148  1.00 66.39 LIG 0.09  C 
BRANCH 59 60
ATOM     60  CG  HIS C   6      51.137  23.051  32.426  1.00 78.50 LIG 0.06  A 
ATOM     61  CD2 HIS C   6      52.121  22.373  33.068  1.00 82.71 LIG 0.14  A 
ATOM     62 NE2  HIS C   6      51.579  21.862  34.225  1.00 84.02 LIG-0.25  NA
ATOM     63  CE1 HIS C   6      50.311  22.231  34.306  1.00 85.20 LIG 0.23  A 
ATOM     64 ND1  HIS C   6      50.019  22.955  33.236  1.00 88.66 LIG-0.24  NA
ENDBRANCH 59 60
ENDBRANCH 58 59
BRANCH 58 65
ATOM     65  C   HIS C   6      49.423  25.599  31.403  1.00 59.18 LIG 0.22  C 
ATOM     66 O    HIS C   6      48.620  24.667  31.127  1.00 63.69 LIG-0.29  OA
ENDBRANCH 58 65
ENDBRANCH 55 58
ENDBRANCH 53 54
BRANCH 53 67
ATOM     67  CB  ILE C   5      53.124  28.390  33.846  1.00 28.54 LIG 0.01  C 
ATOM     68  CG2 ILE C   5      51.887  28.201  34.721  1.00 32.34 LIG 0.01  C 
BRANCH 67 69
ATOM     69  CG1 ILE C   5      54.255  29.202  34.498  1.00 30.21 LIG 0.00  C 
ATOM     70  CD1 ILE C   5      53.861  30.515  35.126  1.00 32.85 LIG 0.01  C 
ENDBRANCH 67 69
ENDBRANCH 53 67
ENDBRANCH 51 53
ENDBRANCH 39 49
ENDBRANCH 3 39
TORSDOF 26
ENDMDL
MODEL 5
USER: ADFR SOLUTION from run 143
USER: SCORE 23.071001 LL:  -5.229 LR: -19.097 RR:   0.000 FEB: -11.341
USER: RMSD 4.930357
USER: SEED 142
USER: STATUS searching
USER: GENES 28
USER: genes 0 Translation |==|  0.69475 0.42448 0.54593
USER: genes 1 Rotation |==|  0.47737 0.57831 0.66415 0.96520
USER: genes 2 Torsion [N]-C--CA-[N] |==|  0.37081
USER: genes 3 Torsion [C]-CA--N-[C] |==|  0.73349
USER: genes 4 Torsion [N]-C--CA-[N] |==|  0.09359
USER: genes 5 Torsion [C]-CA--CB-[CG] |==|  0.50729
USER: genes 6 Torsion [CA]-CB--CG-[CD] |==|  0.73602
USER: genes 7 Torsion [CB]-CG--CD-[NE] |==|  0.48651
USER: genes 8 Torsion [CG]-CD--NE-[CZ] |==|  0.42016
USER: genes 9 Torsion [C]-CA--N-[C] |==|  0.75754
USER: genes 10 Torsion [N]-C--CA-[N] |==|  0.37055
USER: genes 11 Torsion [C]-CA--CB-[CG] |==|  0.34873
USER: genes 12 Torsion [CA]-CB--CG-[OD2] |==|  0.19196
USER: genes 13 Torsion [C]-CA--N-[H1] |==|  0.79416
USER: genes 14 Torsion [C]-CA--CB-[CG1] |==|  0.59878
USER: genes 15 Torsion [C]-N--CA-[CB] |==|  0.69232
USER: genes 16 Torsion [N]-CA--CB-[CG] |==|  0.08502
USER: genes 17 Torsion [CA]-CB--CG-[CD2] |==|  0.73946
USER: genes 18 Torsion [CE2]-CZ--OH-[HH] |==|  0.30680
USER: genes 19 Torsion [N]-CA--C-[N] |==|  0.22264
USER: genes 20 Torsion [C]-N--CA-[C] |==|  0.73580
USER: genes 21 Torsion [N]-CA--C-[N] |==|  0.44736
USER: genes 22 Torsion [C]-N--CA-[CB] |==|  0.89043
USER: genes 23 Torsion [N]-CA--CB-[CG] |==|  0.80361
USER: genes 24 Torsion [CA]-CB--CG-[CD2] |==|  0.13271
USER: genes 25 Torsion [N]-CA--C-[O] |==|  0.28164
USER: genes 26 Torsion [N]-CA--CB-[CG1] |==|  0.91680
USER: genes 27 Torsion [CA]-CB--CG1-[CD1] |==|  0.42505
ROOT
ATOM      1  C   VAL C   3      57.503  27.404  35.567  1.00 15.94 LIG 0.24  C 
ATOM      2 O    VAL C   3      56.403  27.089  35.975  1.00 17.86 LIG-0.27  OA
ATOM      3  N   TYR C   4      57.868  27.173  34.310  1.00 16.41 LIG-0.35  N 
ATOM      4 H    TYR C   4      58.644  27.365  33.992  1.00 16.41 LIG 0.16  HD
ENDROOT
BRANCH 1 5
ATOM      5  CA  VAL C   3      58.519  28.050  36.531  1.00 16.01 LIG 0.18  C 
BRANCH 5 6
ATOM      6  N   VAL C   3      57.803  29.129  37.245  1.00 15.77 LIG-0.35  N 
ATOM      7 H    VAL C   3      57.351  28.880  37.934  1.00 15.77 LIG 0.16  HD
ATOM      8  C   ARG C   2      57.891  30.372  36.803  1.00 16.54 LIG 0.24  C 
ATOM      9 O    ARG C   2      58.644  30.699  35.861  1.00 14.63 LIG-0.27  OA
BRANCH 8 10
ATOM     10  CA  ARG C   2      57.047  31.415  37.510  1.00 19.03 LIG 0.18  C 
BRANCH 10 11
ATOM     11  CB  ARG C   2      57.688  32.794  37.318  1.00 20.38 LIG 0.04  C 
BRANCH 11 12
ATOM     12  CG  ARG C   2      56.995  33.915  38.015  1.00 20.75 LIG 0.02  C 
BRANCH 12 13
ATOM     13  CD  ARG C   2      56.058  34.592  37.116  1.00 22.55 LIG 0.14  C 
BRANCH 13 14
ATOM     14  NE  ARG C   2      55.291  35.607  37.784  1.00 20.36 LIG-0.23  N 
ATOM     15  CZ  ARG C   2      54.810  36.685  37.201  1.00 23.11 LIG 0.67  C 
ATOM     16  NH1 ARG C   2      54.896  36.832  35.925  1.00 23.20 LIG-0.23  N 
ATOM     17  NH2 ARG C   2      54.141  37.581  37.935  1.00 25.55 LIG-0.23  N 
ATOM     18 1HH1 ARG C   2      55.270  36.223  35.446  1.00 23.20 LIG 0.17  HD
ATOM     19 2HH1 ARG C   2      54.580  37.539  35.551  1.00 23.20 LIG 0.17  HD
ATOM     20 2HH2 ARG C   2      53.822  38.289  37.565  1.00 25.55 LIG 0.17  HD
ATOM     21 1HH2 ARG C   2      54.029  37.449  38.778  1.00 25.55 LIG 0.17  HD
ATOM     22 HE   ARG C   2      55.135  35.503  38.623  1.00 20.36 LIG 0.18  HD
ENDBRANCH 13 14
ENDBRANCH 12 13
ENDBRANCH 11 12
ENDBRANCH 10 11
BRANCH 10 23
ATOM     23  N   ARG C   2      56.916  31.104  38.943  1.00 19.42 LIG-0.35  N 
ATOM     24  C   ASP C   1      55.943  30.305  39.359  1.00 19.51 LIG 0.25  C 
ATOM     25 O    ASP C   1      55.273  29.614  38.574  1.00 19.29 LIG-0.27  OA
ATOM     26 H    ARG C   2      57.502  31.472  39.454  1.00 19.42 LIG 0.16  HD
BRANCH 24 27
ATOM     27  CA  ASP C   1      55.637  30.266  40.846  1.00 19.04 LIG 0.28  C 
BRANCH 27 28
ATOM     28  CB  ASP C   1      56.147  28.970  41.421  1.00 21.34 LIG 0.15  C 
BRANCH 28 29
ATOM     29  CG  ASP C   1      57.098  29.199  42.624  1.00 23.67 LIG 0.17  C 
ATOM     30 OD2  ASP C   1      56.594  29.648  43.690  1.00 27.41 LIG-0.65  OA
ATOM     31 OD1  ASP C   1      58.344  28.960  42.503  1.00 20.87 LIG-0.65  OA
ENDBRANCH 28 29
ENDBRANCH 27 28
BRANCH 27 32
ATOM     32  N   ASP C   1      54.140  30.369  40.999  1.00 18.38 LIG-0.07  N 
ATOM     33 H1   ASP C   1      53.882  31.205  40.834  1.00 18.38 LIG 0.28  HD
ATOM     34 H3   ASP C   1      53.911  30.146  41.830  1.00 18.38 LIG 0.28  HD
ATOM     35 H2   ASP C   1      53.743  29.818  40.425  1.00 18.38 LIG 0.28  HD
ENDBRANCH 27 32
ENDBRANCH 24 27
ENDBRANCH 10 23
ENDBRANCH 8 10
ENDBRANCH 5 6
BRANCH 5 36
ATOM     36  CB  VAL C   3      59.020  26.965  37.459  1.00 17.74 LIG 0.01  C 
ATOM     37  CG1 VAL C   3      59.271  27.494  38.856  1.00 20.72 LIG 0.01  C 
ATOM     38  CG2 VAL C   3      58.018  25.830  37.568  1.00 18.64 LIG 0.01  C 
ENDBRANCH 5 36
ENDBRANCH 1 5
BRANCH 3 39
ATOM     39  CA  TYR C   4      56.959  26.561  33.349  1.00 17.90 LIG 0.18  C 
BRANCH 39 40
ATOM     40  CB  TYR C   4      57.411  25.178  32.993  1.00 20.19 LIG 0.07  C 
BRANCH 40 41
ATOM     41  CG  TYR C   4      58.148  24.426  34.068  1.00 23.00 LIG-0.06  A 
ATOM     42  CD2 TYR C   4      59.543  24.453  34.124  1.00 26.62 LIG 0.01  A 
ATOM     43  CE2 TYR C   4      60.239  23.766  35.097  1.00 28.63 LIG 0.04  A 
ATOM     44  CZ  TYR C   4      59.549  23.042  36.021  1.00 25.42 LIG 0.07  A 
ATOM     45  CE1 TYR C   4      58.195  23.027  36.025  1.00 26.89 LIG 0.04  A 
ATOM     46  CD1 TYR C   4      57.487  23.722  35.034  1.00 24.41 LIG 0.01  A 
BRANCH 44 47
ATOM     47 OH   TYR C   4      60.239  22.369  36.986  1.00 32.39 LIG-0.36  OA
ATOM     48 HH   TYR C   4      60.108  22.734  37.731  1.00 32.39 LIG 0.22  HD
ENDBRANCH 44 47
ENDBRANCH 40 41
ENDBRANCH 39 40
BRANCH 39 49
ATOM     49  C   TYR C   4      55.475  26.580  33.816  1.00 20.63 LIG 0.24  C 
ATOM     50 O    TYR C   4      54.994  25.650  34.403  1.00 19.73 LIG-0.27  OA
ATOM     51  N   ILE C   5      54.817  27.718  33.645  1.00 22.91 LIG-0.35  N 
ATOM     52 H    ILE C   5      55.171  28.439  33.339  1.00 22.91 LIG 0.16  HD
BRANCH 51 53
ATOM     53  CA  ILE C   5      53.407  27.828  33.975  1.00 27.58 LIG 0.18  C 
BRANCH 53 54
ATOM     54  C   ILE C   5      52.569  27.591  32.721  1.00 33.14 LIG 0.24  C 
ATOM     55  N   HIS C   6      51.281  27.270  32.898  1.00 39.14 LIG-0.35  N 
ATOM     56 H    HIS C   6      50.935  27.136  33.674  1.00 39.14 LIG 0.16  HD
ATOM     57 O    ILE C   5      53.137  27.603  31.632  1.00 25.88 LIG-0.27  OA
BRANCH 55 58
ATOM     58  CA  HIS C   6      50.295  27.109  31.768  1.00 56.87 LIG 0.17  C 
BRANCH 58 59
ATOM     59  CB  HIS C   6      50.529  28.191  30.674  1.00 66.39 LIG 0.09  C 
BRANCH 59 60
ATOM     60  CG  HIS C   6      50.143  29.586  31.078  1.00 78.50 LIG 0.06  A 
ATOM     61  CD2 HIS C   6      50.427  30.286  32.204  1.00 82.71 LIG 0.14  A 
ATOM     62 NE2  HIS C   6      49.878  31.540  32.057  1.00 84.02 LIG-0.25  NA
ATOM     63  CE1 HIS C   6      49.295  31.618  30.872  1.00 85.20 LIG 0.23  A 
ATOM     64 ND1  HIS C   6      49.446  30.455  30.256  1.00 88.66 LIG-0.24  NA
ENDBRANCH 59 60
ENDBRANCH 58 59
BRANCH 58 65
ATOM     65  C   HIS C   6      50.246  25.746  31.063  1.00 59.18 LIG 0.22  C 
ATOM     66 O    HIS C   6      49.334  24.919  31.330  1.00 63.69 LIG-0.29  OA
ENDBRANCH 58 65
ENDBRANCH 55 58
ENDBRANCH 53 54
BRANCH 53 67
ATOM     67  CB  ILE C   5      53.126  29.187  34.601  1.00 28.54 LIG 0.01  C 
ATOM     68  CG2 ILE C   5      51.890  29.067  35.489  1.00 32.34 LIG 0.01  C 
BRANCH 67 69
ATOM     69  CG1 ILE C   5      54.405  29.622  35.335  1.00 30.21 LIG 0.00  C 
ATOM     70  CD1 ILE C   5      54.620  31.107  35.486  1.00 32.85 LIG 0.01  C 
ENDBRANCH 67 69
ENDBRANCH 53 67
ENDBRANCH 51 53
ENDBRANCH 39 49
ENDBRANCH 3 39
TORSDOF 26
ENDMDL
MODEL 6
USER: ADFR SOLUTION from run 139
USER: SCORE 23.743380 LL:  -5.246 LR: -19.030 RR:   0.000 FEB: -11.274
USER: RMSD 4.514593
USER: SEED 138
USER: STATUS no improvement in best in 13 clusters for 5 generations
USER: GENES 28
USER: genes 0 Translation |==|  0.70758 0.43876 0.53620
USER: genes 1 Rotation |==|  0.54005 0.52962 0.67587 0.96539
USER: genes 2 Torsion [N]-C--CA-[N] |==|  0.33638
USER: genes 3 Torsion [C]-CA--N-[C] |==|  0.79037
USER: genes 4 Torsion [N]-C--CA-[N] |==|  0.06667
USER: genes 5 Torsion [C]-CA--CB-[CG] |==|  0.48564
USER: genes 6 Torsion [CA]-CB--CG-[CD] |==|  0.76480
USER: genes 7 Torsion [CB]-CG--CD-[NE] |==|  0.47313
USER: genes 8 Torsion [CG]-CD--NE-[CZ] |==|  0.38769
USER: genes 9 Torsion [C]-CA--N-[C] |==|  0.74620
USER: genes 10 Torsion [N]-C--CA-[N] |==|  0.37142
USER: genes 11 Torsion [C]-CA--CB-[CG] |==|  0.40940
USER: genes 12 Torsion [CA]-CB--CG-[OD2] |==|  0.05315
USER: genes 13 Torsion [C]-CA--N-[H1] |==|  0.13002
USER: genes 14 Torsion [C]-CA--CB-[CG1] |==|  0.49910
USER: genes 15 Torsion [C]-N--CA-[CB] |==|  0.82658
USER: genes 16 Torsion [N]-CA--CB-[CG] |==|  0.83859
USER: genes 17 Torsion [CA]-CB--CG-[CD2] |==|  0.70505
USER: genes 18 Torsion [CE2]-CZ--OH-[HH] |==|  0.11648
USER: genes 19 Torsion [N]-CA--C-[N] |==|  0.36384
USER: genes 20 Torsion [C]-N--CA-[C] |==|  0.74979
USER: genes 21 Torsion [N]-CA--C-[N] |==|  0.39443
USER: genes 22 Torsion [C]-N--CA-[CB] |==|  0.37543
USER: genes 23 Torsion [N]-CA--CB-[CG] |==|  0.96269
USER: genes 24 Torsion [CA]-CB--CG-[CD2] |==|  0.35723
USER: genes 25 Torsion [N]-CA--C-[O] |==|  0.73462
USER: genes 26 Torsion [N]-CA--CB-[CG1] |==|  0.52442
USER: genes 27 Torsion [CA]-CB--CG1-[CD1] |==|  0.12979
ROOT
ATOM      1  C   VAL C   3      57.725  27.768  35.311  1.00 15.94 LIG 0.24  C 
ATOM      2 O    VAL C   3      56.600  27.346  35.497  1.00 17.86 LIG-0.27  OA
ATOM      3  N   TYR C   4      58.212  27.926  34.085  1.00 16.41 LIG-0.35  N 
ATOM      4 H    TYR C   4      59.009  28.203  33.916  1.00 16.41 LIG 0.16  HD
ENDROOT
BRANCH 1 5
ATOM      5  CA  VAL C   3      58.627  28.091  36.519  1.00 16.01 LIG 0.18  C 
BRANCH 5 6
ATOM      6  N   VAL C   3      57.938  29.142  37.298  1.00 15.77 LIG-0.35  N 
ATOM      7 H    VAL C   3      57.561  28.877  38.024  1.00 15.77 LIG 0.16  HD
ATOM      8  C   ARG C   2      57.937  30.388  36.852  1.00 16.54 LIG 0.24  C 
ATOM      9 O    ARG C   2      58.588  30.743  35.846  1.00 14.63 LIG-0.27  OA
BRANCH 8 10
ATOM     10  CA  ARG C   2      57.122  31.398  37.636  1.00 19.03 LIG 0.18  C 
BRANCH 10 11
ATOM     11  CB  ARG C   2      57.827  32.758  37.587  1.00 20.38 LIG 0.04  C 
BRANCH 11 12
ATOM     12  CG  ARG C   2      57.075  33.882  38.217  1.00 20.75 LIG 0.02  C 
BRANCH 12 13
ATOM     13  CD  ARG C   2      56.117  34.464  37.275  1.00 22.55 LIG 0.14  C 
BRANCH 13 14
ATOM     14  NE  ARG C   2      55.223  35.396  37.906  1.00 20.36 LIG-0.23  N 
ATOM     15  CZ  ARG C   2      54.837  36.537  37.374  1.00 23.11 LIG 0.67  C 
ATOM     16  NH1 ARG C   2      55.151  36.833  36.161  1.00 23.20 LIG-0.23  N 
ATOM     17  NH2 ARG C   2      54.029  37.343  38.073  1.00 25.55 LIG-0.23  N 
ATOM     18 1HH1 ARG C   2      55.616  36.283  35.691  1.00 23.20 LIG 0.17  HD
ATOM     19 2HH1 ARG C   2      54.894  37.580  35.821  1.00 23.20 LIG 0.17  HD
ATOM     20 2HH2 ARG C   2      53.770  38.090  37.737  1.00 25.55 LIG 0.17  HD
ATOM     21 1HH2 ARG C   2      53.769  37.112  38.861  1.00 25.55 LIG 0.17  HD
ATOM     22 HE   ARG C   2      54.919  35.195  38.684  1.00 20.36 LIG 0.18  HD
ENDBRANCH 13 14
ENDBRANCH 12 13
ENDBRANCH 11 12
ENDBRANCH 10 11
BRANCH 10 23
ATOM     23  N   ARG C   2      56.942  30.962  39.031  1.00 19.42 LIG-0.35  N 
ATOM     24  C   ASP C   1      55.881  30.240  39.364  1.00 19.51 LIG 0.25  C 
ATOM     25 O    ASP C   1      55.145  29.711  38.514  1.00 19.29 LIG-0.27  OA
ATOM     26 H    ARG C   2      57.559  31.209  39.576  1.00 19.42 LIG 0.16  HD
BRANCH 24 27
ATOM     27  CA  ASP C   1      55.556  30.088  40.840  1.00 19.04 LIG 0.28  C 
BRANCH 27 28
ATOM     28  CB  ASP C   1      55.918  28.694  41.284  1.00 21.34 LIG 0.15  C 
BRANCH 28 29
ATOM     29  CG  ASP C   1      56.396  28.657  42.758  1.00 23.67 LIG 0.17  C 
ATOM     30 OD2  ASP C   1      56.090  29.632  43.497  1.00 27.41 LIG-0.65  OA
ATOM     31 OD1  ASP C   1      57.095  27.676  43.174  1.00 20.87 LIG-0.65  OA
ENDBRANCH 28 29
ENDBRANCH 27 28
BRANCH 27 32
ATOM     32  N   ASP C   1      54.077  30.336  41.003  1.00 18.38 LIG-0.07  N 
ATOM     33 H1   ASP C   1      53.629  29.879  40.384  1.00 18.38 LIG 0.28  HD
ATOM     34 H3   ASP C   1      53.910  31.205  40.909  1.00 18.38 LIG 0.28  HD
ATOM     35 H2   ASP C   1      53.818  30.071  41.812  1.00 18.38 LIG 0.28  HD
ENDBRANCH 27 32
ENDBRANCH 24 27
ENDBRANCH 10 23
ENDBRANCH 8 10
ENDBRANCH 5 6
BRANCH 5 36
ATOM     36  CB  VAL C   3      58.816  26.811  37.303  1.00 17.74 LIG 0.01  C 
ATOM     37  CG1 VAL C   3      59.700  27.020  38.514  1.00 20.72 LIG 0.01  C 
ATOM     38  CG2 VAL C   3      57.487  26.264  37.790  1.00 18.64 LIG 0.01  C 
ENDBRANCH 5 36
ENDBRANCH 1 5
BRANCH 3 39
ATOM     39  CA  TYR C   4      57.413  27.633  32.901  1.00 17.90 LIG 0.18  C 
BRANCH 39 40
ATOM     40  CB  TYR C   4      57.034  26.185  32.859  1.00 20.19 LIG 0.07  C 
BRANCH 40 41
ATOM     41  CG  TYR C   4      58.174  25.202  32.865  1.00 23.00 LIG-0.06  A 
ATOM     42  CD2 TYR C   4      58.521  24.511  31.703  1.00 26.62 LIG 0.01  A 
ATOM     43  CE2 TYR C   4      59.558  23.601  31.687  1.00 28.63 LIG 0.04  A 
ATOM     44  CZ  TYR C   4      60.255  23.370  32.833  1.00 25.42 LIG 0.07  A 
ATOM     45  CE1 TYR C   4      59.977  24.053  33.968  1.00 26.89 LIG 0.04  A 
ATOM     46  CD1 TYR C   4      58.920  24.975  33.985  1.00 24.41 LIG 0.01  A 
BRANCH 44 47
ATOM     47 OH   TYR C   4      61.285  22.475  32.813  1.00 32.39 LIG-0.36  OA
ATOM     48 HH   TYR C   4      61.734  22.580  32.111  1.00 32.39 LIG 0.22  HD
ENDBRANCH 44 47
ENDBRANCH 40 41
ENDBRANCH 39 40
BRANCH 39 49
ATOM     49  C   TYR C   4      56.172  28.560  32.757  1.00 20.63 LIG 0.24  C 
ATOM     50 O    TYR C   4      55.487  28.834  33.703  1.00 19.73 LIG-0.27  OA
ATOM     51  N   ILE C   5      55.992  29.125  31.573  1.00 22.91 LIG-0.35  N 
ATOM     52 H    ILE C   5      56.535  29.044  30.910  1.00 22.91 LIG 0.16  HD
BRANCH 51 53
ATOM     53  CA  ILE C   5      54.827  29.949  31.302  1.00 27.58 LIG 0.18  C 
BRANCH 53 54
ATOM     54  C   ILE C   5      53.698  29.076  30.759  1.00 33.14 LIG 0.24  C 
ATOM     55  N   HIS C   6      52.453  29.367  31.159  1.00 39.14 LIG-0.35  N 
ATOM     56 H    HIS C   6      52.280  29.973  31.744  1.00 39.14 LIG 0.16  HD
ATOM     57 O    ILE C   5      53.997  28.099  30.078  1.00 25.88 LIG-0.27  OA
BRANCH 55 58
ATOM     58  CA  HIS C   6      51.222  28.672  30.635  1.00 56.87 LIG 0.17  C 
BRANCH 58 59
ATOM     59  CB  HIS C   6      50.258  28.306  31.801  1.00 66.39 LIG 0.09  C 
BRANCH 59 60
ATOM     60  CG  HIS C   6      50.862  28.415  33.173  1.00 78.50 LIG 0.06  A 
ATOM     61  CD2 HIS C   6      50.420  29.060  34.282  1.00 82.71 LIG 0.14  A 
ATOM     62 NE2  HIS C   6      51.321  28.804  35.291  1.00 84.02 LIG-0.25  NA
ATOM     63  CE1 HIS C   6      52.273  28.012  34.827  1.00 85.20 LIG 0.23  A 
ATOM     64 ND1  HIS C   6      52.018  27.755  33.554  1.00 88.66 LIG-0.24  NA
ENDBRANCH 59 60
ENDBRANCH 58 59
BRANCH 58 65
ATOM     65  C   HIS C   6      50.396  29.407  29.570  1.00 59.18 LIG 0.22  C 
ATOM     66 O    HIS C   6      49.393  30.095  29.900  1.00 63.69 LIG-0.29  OA
ENDBRANCH 58 65
ENDBRANCH 55 58
ENDBRANCH 53 54
BRANCH 53 67
ATOM     67  CB  ILE C   5      55.196  31.069  30.339  1.00 28.54 LIG 0.01  C 
ATOM     68  CG2 ILE C   5      55.596  30.448  29.002  1.00 32.34 LIG 0.01  C 
BRANCH 67 69
ATOM     69  CG1 ILE C   5      53.993  32.024  30.271  1.00 30.21 LIG 0.00  C 
ATOM     70  CD1 ILE C   5      53.381  32.425  31.589  1.00 32.85 LIG 0.01  C 
ENDBRANCH 67 69
ENDBRANCH 53 67
ENDBRANCH 51 53
ENDBRANCH 39 49
ENDBRANCH 3 39
TORSDOF 26
ENDMDL
MODEL 7
USER: ADFR SOLUTION from run 93
USER: SCORE 23.984731 LL:  -6.023 LR: -18.909 RR:   0.000 FEB: -11.153
USER: RMSD 5.876723
USER: SEED 92
USER: STATUS no improvement in best in 4 clusters for 5 generations
USER: GENES 28
USER: genes 0 Translation |==|  0.70896 0.42045 0.54035
USER: genes 1 Rotation |==|  0.50156 0.54376 0.67422 0.96662
USER: genes 2 Torsion [N]-C--CA-[N] |==|  0.35583
USER: genes 3 Torsion [C]-CA--N-[C] |==|  0.76335
USER: genes 4 Torsion [N]-C--CA-[N] |==|  0.08693
USER: genes 5 Torsion [C]-CA--CB-[CG] |==|  0.51885
USER: genes 6 Torsion [CA]-CB--CG-[CD] |==|  0.67354
USER: genes 7 Torsion [CB]-CG--CD-[NE] |==|  0.45084
USER: genes 8 Torsion [CG]-CD--NE-[CZ] |==|  0.46515
USER: genes 9 Torsion [C]-CA--N-[C] |==|  0.71579
USER: genes 10 Torsion [N]-C--CA-[N] |==|  0.39832
USER: genes 11 Torsion [C]-CA--CB-[CG] |==|  0.40562
USER: genes 12 Torsion [CA]-CB--CG-[OD2] |==|  0.51585
USER: genes 13 Torsion [C]-CA--N-[H1] |==|  0.42256
USER: genes 14 Torsion [C]-CA--CB-[CG1] |==|  0.51365
USER: genes 15 Torsion [C]-N--CA-[CB] |==|  0.74787
USER: genes 16 Torsion [N]-CA--CB-[CG] |==|  0.03169
USER: genes 17 Torsion [CA]-CB--CG-[CD2] |==|  0.76593
USER: genes 18 Torsion [CE2]-CZ--OH-[HH] |==|  0.35210
USER: genes 19 Torsion [N]-CA--C-[N] |==|  0.14444
USER: genes 20 Torsion [C]-N--CA-[C] |==|  0.66703
USER: genes 21 Torsion [N]-CA--C-[N] |==|  0.46523
USER: genes 22 Torsion [C]-N--CA-[CB] |==|  0.85620
USER: genes 23 Torsion [N]-CA--CB-[CG] |==|  0.78201
USER: genes 24 Torsion [CA]-CB--CG-[CD2] |==|  0.85803
USER: genes 25 Torsion [N]-CA--C-[O] |==|  0.80148
USER: genes 26 Torsion [N]-CA--CB-[CG1] |==|  0.62577
USER: genes 27 Torsion [CA]-CB--CG1-[CD1] |==|  0.76268
ROOT
ATOM      1  C   VAL C   3      57.748  27.302  35.420  1.00 15.94 LIG 0.24  C 
ATOM      2 O    VAL C   3      56.626  26.909  35.671  1.00 17.86 LIG-0.27  OA
ATOM      3  N   TYR C   4      58.237  27.259  34.185  1.00 16.41 LIG-0.35  N 
ATOM      4 H    TYR C   4      59.032  27.510  33.974  1.00 16.41 LIG 0.16  HD
ENDROOT
BRANCH 1 5
ATOM      5  CA  VAL C   3      58.647  27.823  36.560  1.00 16.01 LIG 0.18  C 
BRANCH 5 6
ATOM      6  N   VAL C   3      57.878  28.870  37.264  1.00 15.77 LIG-0.35  N 
ATOM      7 H    VAL C   3      57.442  28.606  37.958  1.00 15.77 LIG 0.16  HD
ATOM      8  C   ARG C   2      57.899  30.112  36.809  1.00 16.54 LIG 0.24  C 
ATOM      9 O    ARG C   2      58.631  30.468  35.861  1.00 14.63 LIG-0.27  OA
BRANCH 8 10
ATOM     10  CA  ARG C   2      57.004  31.117  37.508  1.00 19.03 LIG 0.18  C 
BRANCH 10 11
ATOM     11  CB  ARG C   2      57.604  32.518  37.350  1.00 20.38 LIG 0.04  C 
BRANCH 11 12
ATOM     12  CG  ARG C   2      56.913  33.591  38.122  1.00 20.75 LIG 0.02  C 
BRANCH 12 13
ATOM     13  CD  ARG C   2      56.347  34.601  37.226  1.00 22.55 LIG 0.14  C 
BRANCH 13 14
ATOM     14  NE  ARG C   2      55.350  35.411  37.870  1.00 20.36 LIG-0.23  N 
ATOM     15  CZ  ARG C   2      54.860  36.527  37.372  1.00 23.11 LIG 0.67  C 
ATOM     16  NH1 ARG C   2      55.165  36.901  36.179  1.00 23.20 LIG-0.23  N 
ATOM     17  NH2 ARG C   2      53.961  37.218  38.082  1.00 25.55 LIG-0.23  N 
ATOM     18 1HH1 ARG C   2      55.693  36.421  35.699  1.00 23.20 LIG 0.17  HD
ATOM     19 2HH1 ARG C   2      54.840  37.632  35.861  1.00 23.20 LIG 0.17  HD
ATOM     20 2HH2 ARG C   2      53.633  37.949  37.768  1.00 25.55 LIG 0.17  HD
ATOM     21 1HH2 ARG C   2      53.710  36.932  38.854  1.00 25.55 LIG 0.17  HD
ATOM     22 HE   ARG C   2      55.053  35.149  38.632  1.00 20.36 LIG 0.18  HD
ENDBRANCH 13 14
ENDBRANCH 12 13
ENDBRANCH 11 12
ENDBRANCH 10 11
BRANCH 10 23
ATOM     23  N   ARG C   2      56.848  30.782  38.933  1.00 19.42 LIG-0.35  N 
ATOM     24  C   ASP C   1      55.735  30.199  39.356  1.00 19.51 LIG 0.25  C 
ATOM     25 O    ASP C   1      54.907  29.705  38.572  1.00 19.29 LIG-0.27  OA
ATOM     26 H    ARG C   2      57.514  30.991  39.435  1.00 19.42 LIG 0.16  HD
BRANCH 24 27
ATOM     27  CA  ASP C   1      55.469  30.166  40.851  1.00 19.04 LIG 0.28  C 
BRANCH 27 28
ATOM     28  CB  ASP C   1      55.929  28.842  41.404  1.00 21.34 LIG 0.15  C 
BRANCH 28 29
ATOM     29  CG  ASP C   1      56.488  28.974  42.844  1.00 23.67 LIG 0.17  C 
ATOM     30 OD2  ASP C   1      57.004  27.948  43.367  1.00 27.41 LIG-0.65  OA
ATOM     31 OD1  ASP C   1      56.392  30.083  43.464  1.00 20.87 LIG-0.65  OA
ENDBRANCH 28 29
ENDBRANCH 27 28
BRANCH 27 32
ATOM     32  N   ASP C   1      53.984  30.343  41.047  1.00 18.38 LIG-0.07  N 
ATOM     33 H1   ASP C   1      53.736  29.945  41.804  1.00 18.38 LIG 0.28  HD
ATOM     34 H3   ASP C   1      53.548  29.979  40.363  1.00 18.38 LIG 0.28  HD
ATOM     35 H2   ASP C   1      53.792  31.211  41.093  1.00 18.38 LIG 0.28  HD
ENDBRANCH 27 32
ENDBRANCH 24 27
ENDBRANCH 10 23
ENDBRANCH 8 10
ENDBRANCH 5 6
BRANCH 5 36
ATOM     36  CB  VAL C   3      58.985  26.646  37.449  1.00 17.74 LIG 0.01  C 
ATOM     37  CG1 VAL C   3      59.770  27.074  38.671  1.00 20.72 LIG 0.01  C 
ATOM     38  CG2 VAL C   3      57.729  25.943  37.929  1.00 18.64 LIG 0.01  C 
ENDBRANCH 5 36
ENDBRANCH 1 5
BRANCH 3 39
ATOM     39  CA  TYR C   4      57.442  26.772  33.064  1.00 17.90 LIG 0.18  C 
BRANCH 39 40
ATOM     40  CB  TYR C   4      57.636  25.299  32.873  1.00 20.19 LIG 0.07  C 
BRANCH 40 41
ATOM     41  CG  TYR C   4      58.356  24.578  33.981  1.00 23.00 LIG-0.06  A 
ATOM     42  CD2 TYR C   4      59.751  24.550  34.019  1.00 26.62 LIG 0.01  A 
ATOM     43  CE2 TYR C   4      60.432  23.890  35.021  1.00 28.63 LIG 0.04  A 
ATOM     44  CZ  TYR C   4      59.726  23.249  35.992  1.00 25.42 LIG 0.07  A 
ATOM     45  CE1 TYR C   4      58.373  23.291  36.013  1.00 26.89 LIG 0.04  A 
ATOM     46  CD1 TYR C   4      57.681  23.959  34.992  1.00 24.41 LIG 0.01  A 
BRANCH 44 47
ATOM     47 OH   TYR C   4      60.402  22.602  36.986  1.00 32.39 LIG-0.36  OA
ATOM     48 HH   TYR C   4      60.125  22.870  37.733  1.00 32.39 LIG 0.22  HD
ENDBRANCH 44 47
ENDBRANCH 40 41
ENDBRANCH 39 40
BRANCH 39 49
ATOM     49  C   TYR C   4      55.936  27.147  33.175  1.00 20.63 LIG 0.24  C 
ATOM     50 O    TYR C   4      55.083  26.303  33.183  1.00 19.73 LIG-0.27  OA
ATOM     51  N   ILE C   5      55.661  28.425  33.388  1.00 22.91 LIG-0.35  N 
ATOM     52 H    ILE C   5      56.256  29.035  33.508  1.00 22.91 LIG 0.16  HD
BRANCH 51 53
ATOM     53  CA  ILE C   5      54.289  28.901  33.434  1.00 27.58 LIG 0.18  C 
BRANCH 53 54
ATOM     54  C   ILE C   5      54.074  29.946  32.342  1.00 33.14 LIG 0.24  C 
ATOM     55  N   HIS C   6      52.809  30.299  32.074  1.00 39.14 LIG-0.35  N 
ATOM     56 H    HIS C   6      52.131  29.922  32.444  1.00 39.14 LIG 0.16  HD
ATOM     57 O    ILE C   5      55.049  30.325  31.700  1.00 25.88 LIG-0.27  OA
BRANCH 55 58
ATOM     58  CA  HIS C   6      52.432  31.389  31.103  1.00 56.87 LIG 0.17  C 
BRANCH 58 59
ATOM     59  CB  HIS C   6      53.201  32.704  31.425  1.00 66.39 LIG 0.09  C 
BRANCH 59 60
ATOM     60  CG  HIS C   6      52.644  33.492  32.577  1.00 78.50 LIG 0.06  A 
ATOM     61  CD2 HIS C   6      51.378  33.909  32.827  1.00 82.71 LIG 0.14  A 
ATOM     62 NE2  HIS C   6      51.391  34.552  34.044  1.00 84.02 LIG-0.25  NA
ATOM     63  CE1 HIS C   6      52.617  34.512  34.539  1.00 85.20 LIG 0.23  A 
ATOM     64 ND1  HIS C   6      53.393  33.872  33.677  1.00 88.66 LIG-0.24  NA
ENDBRANCH 59 60
ENDBRANCH 58 59
BRANCH 58 65
ATOM     65  C   HIS C   6      52.623  31.100  29.608  1.00 59.18 LIG 0.22  C 
ATOM     66 O    HIS C   6      53.779  31.040  29.110  1.00 63.69 LIG-0.29  OA
ENDBRANCH 58 65
ENDBRANCH 55 58
ENDBRANCH 53 54
BRANCH 53 67
ATOM     67  CB  ILE C   5      53.978  29.451  34.819  1.00 28.54 LIG 0.01  C 
ATOM     68  CG2 ILE C   5      54.058  30.975  34.767  1.00 32.34 LIG 0.01  C 
BRANCH 67 69
ATOM     69  CG1 ILE C   5      52.605  28.893  35.230  1.00 30.21 LIG 0.00  C 
ATOM     70  CD1 ILE C   5      51.399  29.664  34.757  1.00 32.85 LIG 0.01  C 
ENDBRANCH 67 69
ENDBRANCH 53 67
ENDBRANCH 51 53
ENDBRANCH 39 49
ENDBRANCH 3 39
TORSDOF 26
ENDMDL
MODEL 8
USER: ADFR SOLUTION from run 6
USER: SCORE 22.984143 LL:  -5.222 LR: -18.841 RR:   0.000 FEB: -11.085
USER: RMSD 3.979784
USER: SEED 619872
USER: STATUS no improvement in best in 2 clusters for 5 generations
USER: GENES 28
USER: genes 0 Translation |==|  0.68108 0.47749 0.50628
USER: genes 1 Rotation |==|  0.51507 0.49212 0.49827 0.99971
USER: genes 2 Torsion [N]-C--CA-[N] |==|  0.43160
USER: genes 3 Torsion [C]-CA--N-[C] |==|  0.79429
USER: genes 4 Torsion [N]-C--CA-[N] |==|  0.11142
USER: genes 5 Torsion [C]-CA--CB-[CG] |==|  0.44451
USER: genes 6 Torsion [CA]-CB--CG-[CD] |==|  0.79503
USER: genes 7 Torsion [CB]-CG--CD-[NE] |==|  0.45239
USER: genes 8 Torsion [CG]-CD--NE-[CZ] |==|  0.40245
USER: genes 9 Torsion [C]-CA--N-[C] |==|  0.74841
USER: genes 10 Torsion [N]-C--CA-[N] |==|  0.42294
USER: genes 11 Torsion [C]-CA--CB-[CG] |==|  0.75056
USER: genes 12 Torsion [CA]-CB--CG-[OD2] |==|  0.25756
USER: genes 13 Torsion [C]-CA--N-[H1] |==|  0.10363
USER: genes 14 Torsion [C]-CA--CB-[CG1] |==|  0.50827
USER: genes 15 Torsion [C]-N--CA-[CB] |==|  0.56111
USER: genes 16 Torsion [N]-CA--CB-[CG] |==|  0.54284
USER: genes 17 Torsion [CA]-CB--CG-[CD2] |==|  0.53176
USER: genes 18 Torsion [CE2]-CZ--OH-[HH] |==|  0.57762
USER: genes 19 Torsion [N]-CA--C-[N] |==|  0.30089
USER: genes 20 Torsion [C]-N--CA-[C] |==|  0.62030
USER: genes 21 Torsion [N]-CA--C-[N] |==|  0.42278
USER: genes 22 Torsion [C]-N--CA-[CB] |==|  0.34113
USER: genes 23 Torsion [N]-CA--CB-[CG] |==|  0.54466
USER: genes 24 Torsion [CA]-CB--CG-[CD2] |==|  0.85202
USER: genes 25 Torsion [N]-CA--C-[O] |==|  0.76995
USER: genes 26 Torsion [N]-CA--CB-[CG1] |==|  0.68389
USER: genes 27 Torsion [CA]-CB--CG1-[CD1] |==|  0.57135
ROOT
ATOM      1  C   VAL C   3      57.268  28.756  34.526  1.00 15.94 LIG 0.24  C 
ATOM      2 O    VAL C   3      56.141  29.211  34.558  1.00 17.86 LIG-0.27  OA
ATOM      3  N   TYR C   4      57.835  28.389  33.381  1.00 16.41 LIG-0.35  N 
ATOM      4 H    TYR C   4      58.621  28.046  33.323  1.00 16.41 LIG 0.16  HD
ENDROOT
BRANCH 1 5
ATOM      5  CA  VAL C   3      58.047  28.559  35.842  1.00 16.01 LIG 0.18  C 
BRANCH 5 6
ATOM      6  N   VAL C   3      57.509  29.539  36.808  1.00 15.77 LIG-0.35  N 
ATOM      7 H    VAL C   3      57.004  29.213  37.423  1.00 15.77 LIG 0.16  HD
ATOM      8  C   ARG C   2      57.821  30.818  36.680  1.00 16.54 LIG 0.24  C 
ATOM      9 O    ARG C   2      58.644  31.229  35.834  1.00 14.63 LIG-0.27  OA
BRANCH 8 10
ATOM     10  CA  ARG C   2      57.151  31.789  37.634  1.00 19.03 LIG 0.18  C 
BRANCH 10 11
ATOM     11  CB  ARG C   2      57.939  33.103  37.648  1.00 20.38 LIG 0.04  C 
BRANCH 11 12
ATOM     12  CG  ARG C   2      57.183  34.287  38.149  1.00 20.75 LIG 0.02  C 
BRANCH 12 13
ATOM     13  CD  ARG C   2      56.204  34.741  37.160  1.00 22.55 LIG 0.14  C 
BRANCH 13 14
ATOM     14  NE  ARG C   2      55.204  35.602  37.730  1.00 20.36 LIG-0.23  N 
ATOM     15  CZ  ARG C   2      54.655  36.623  37.106  1.00 23.11 LIG 0.67  C 
ATOM     16  NH1 ARG C   2      54.900  36.838  35.861  1.00 23.20 LIG-0.23  N 
ATOM     17  NH2 ARG C   2      53.760  37.377  37.754  1.00 25.55 LIG-0.23  N 
ATOM     18 1HH1 ARG C   2      55.426  36.312  35.429  1.00 23.20 LIG 0.17  HD
ATOM     19 2HH1 ARG C   2      54.537  37.507  35.461  1.00 23.20 LIG 0.17  HD
ATOM     20 2HH2 ARG C   2      53.394  38.047  37.357  1.00 25.55 LIG 0.17  HD
ATOM     21 1HH2 ARG C   2      53.550  37.193  38.568  1.00 25.55 LIG 0.17  HD
ATOM     22 HE   ARG C   2      54.947  35.438  38.534  1.00 20.36 LIG 0.18  HD
ENDBRANCH 13 14
ENDBRANCH 12 13
ENDBRANCH 11 12
ENDBRANCH 10 11
BRANCH 10 23
ATOM     23  N   ARG C   2      57.069  31.223  38.990  1.00 19.42 LIG-0.35  N 
ATOM     24  C   ASP C   1      56.003  30.520  39.348  1.00 19.51 LIG 0.25  C 
ATOM     25 O    ASP C   1      55.168  30.114  38.522  1.00 19.29 LIG-0.27  OA
ATOM     26 H    ARG C   2      57.744  31.385  39.498  1.00 19.42 LIG 0.16  HD
BRANCH 24 27
ATOM     27  CA  ASP C   1      55.799  30.235  40.826  1.00 19.04 LIG 0.28  C 
BRANCH 27 28
ATOM     28  CB  ASP C   1      56.532  28.970  41.190  1.00 21.34 LIG 0.15  C 
BRANCH 28 29
ATOM     29  CG  ASP C   1      55.645  27.710  41.016  1.00 23.67 LIG 0.17  C 
ATOM     30 OD2  ASP C   1      55.700  27.104  39.911  1.00 27.41 LIG-0.65  OA
ATOM     31 OD1  ASP C   1      54.876  27.340  41.962  1.00 20.87 LIG-0.65  OA
ENDBRANCH 28 29
ENDBRANCH 27 28
BRANCH 27 32
ATOM     32  N   ASP C   1      54.316  30.080  41.054  1.00 18.38 LIG-0.07  N 
ATOM     33 H1   ASP C   1      53.951  29.661  40.359  1.00 18.38 LIG 0.28  HD
ATOM     34 H3   ASP C   1      53.944  30.883  41.145  1.00 18.38 LIG 0.28  HD
ATOM     35 H2   ASP C   1      54.177  29.604  41.793  1.00 18.38 LIG 0.28  HD
ENDBRANCH 27 32
ENDBRANCH 24 27
ENDBRANCH 10 23
ENDBRANCH 8 10
ENDBRANCH 5 6
BRANCH 5 36
ATOM     36  CB  VAL C   3      57.841  27.126  36.284  1.00 17.74 LIG 0.01  C 
ATOM     37  CG1 VAL C   3      58.511  26.848  37.613  1.00 20.72 LIG 0.01  C 
ATOM     38  CG2 VAL C   3      56.365  26.806  36.434  1.00 18.64 LIG 0.01  C 
ENDBRANCH 5 36
ENDBRANCH 1 5
BRANCH 3 39
ATOM     39  CA  TYR C   4      57.150  28.543  32.104  1.00 17.90 LIG 0.18  C 
BRANCH 39 40
ATOM     40  CB  TYR C   4      57.721  27.614  31.077  1.00 20.19 LIG 0.07  C 
BRANCH 40 41
ATOM     41  CG  TYR C   4      57.365  27.912  29.645  1.00 23.00 LIG-0.06  A 
ATOM     42  CD2 TYR C   4      57.642  26.986  28.638  1.00 26.62 LIG 0.01  A 
ATOM     43  CE2 TYR C   4      57.330  27.240  27.318  1.00 28.63 LIG 0.04  A 
ATOM     44  CZ  TYR C   4      56.743  28.424  26.992  1.00 25.42 LIG 0.07  A 
ATOM     45  CE1 TYR C   4      56.420  29.329  27.945  1.00 26.89 LIG 0.04  A 
ATOM     46  CD1 TYR C   4      56.740  29.072  29.286  1.00 24.41 LIG 0.01  A 
BRANCH 44 47
ATOM     47 OH   TYR C   4      56.430  28.671  25.686  1.00 32.39 LIG-0.36  OA
ATOM     48 HH   TYR C   4      56.445  29.499  25.546  1.00 32.39 LIG 0.22  HD
ENDBRANCH 44 47
ENDBRANCH 40 41
ENDBRANCH 39 40
BRANCH 39 49
ATOM     49  C   TYR C   4      55.605  28.399  32.218  1.00 20.63 LIG 0.24  C 
ATOM     50 O    TYR C   4      55.099  27.358  32.532  1.00 19.73 LIG-0.27  OA
ATOM     51  N   ILE C   5      54.897  29.510  32.077  1.00 22.91 LIG-0.35  N 
ATOM     52 H    ILE C   5      55.239  30.291  31.972  1.00 22.91 LIG 0.16  HD
BRANCH 51 53
ATOM     53  CA  ILE C   5      53.445  29.481  32.090  1.00 27.58 LIG 0.18  C 
BRANCH 53 54
ATOM     54  C   ILE C   5      52.906  30.381  30.980  1.00 33.14 LIG 0.24  C 
ATOM     55  N   HIS C   6      51.709  30.068  30.466  1.00 39.14 LIG-0.35  N 
ATOM     56 H    HIS C   6      51.274  29.360  30.692  1.00 39.14 LIG 0.16  HD
ATOM     57 O    ILE C   5      53.635  31.269  30.547  1.00 25.88 LIG-0.27  OA
BRANCH 55 58
ATOM     58  CA  HIS C   6      50.991  30.911  29.443  1.00 56.87 LIG 0.17  C 
BRANCH 58 59
ATOM     59  CB  HIS C   6      50.680  30.079  28.164  1.00 66.39 LIG 0.09  C 
BRANCH 59 60
ATOM     60  CG  HIS C   6      50.318  30.897  26.956  1.00 78.50 LIG 0.06  A 
ATOM     61  CD2 HIS C   6      49.375  31.859  26.795  1.00 82.71 LIG 0.14  A 
ATOM     62 NE2  HIS C   6      49.487  32.330  25.506  1.00 84.02 LIG-0.25  NA
ATOM     63  CE1 HIS C   6      50.478  31.697  24.901  1.00 85.20 LIG 0.23  A 
ATOM     64 ND1  HIS C   6      51.002  30.831  25.755  1.00 88.66 LIG-0.24  NA
ENDBRANCH 59 60
ENDBRANCH 58 59
BRANCH 58 65
ATOM     65  C   HIS C   6      49.684  31.589  29.878  1.00 59.18 LIG 0.22  C 
ATOM     66 O    HIS C   6      48.596  30.953  29.861  1.00 63.69 LIG-0.29  OA
ENDBRANCH 58 65
ENDBRANCH 55 58
ENDBRANCH 53 54
BRANCH 53 67
ATOM     67  CB  ILE C   5      52.931  29.897  33.461  1.00 28.54 LIG 0.01  C 
ATOM     68  CG2 ILE C   5      52.023  31.114  33.292  1.00 32.34 LIG 0.01  C 
BRANCH 67 69
ATOM     69  CG1 ILE C   5      52.248  28.667  34.082  1.00 30.21 LIG 0.00  C 
ATOM     70  CD1 ILE C   5      51.178  28.942  35.109  1.00 32.85 LIG 0.01  C 
ENDBRANCH 67 69
ENDBRANCH 53 67
ENDBRANCH 51 53
ENDBRANCH 39 49
ENDBRANCH 3 39
TORSDOF 26
ENDMDL
MODEL 9
USER: ADFR SOLUTION from run 16
USER: SCORE 22.064164 LL:  -5.715 LR: -18.636 RR:   0.000 FEB: -10.880
USER: RMSD 4.041744
USER: SEED 351700
USER: STATUS no improvement in best in 12 clusters for 5 generations
USER: GENES 28
USER: genes 0 Translation |==|  0.68682 0.46829 0.51411
USER: genes 1 Rotation |==|  0.49261 0.51534 0.49829 0.99971
USER: genes 2 Torsion [N]-C--CA-[N] |==|  0.44778
USER: genes 3 Torsion [C]-CA--N-[C] |==|  0.79430
USER: genes 4 Torsion [N]-C--CA-[N] |==|  0.07649
USER: genes 5 Torsion [C]-CA--CB-[CG] |==|  0.44295
USER: genes 6 Torsion [CA]-CB--CG-[CD] |==|  0.79965
USER: genes 7 Torsion [CB]-CG--CD-[NE] |==|  0.43984
USER: genes 8 Torsion [CG]-CD--NE-[CZ] |==|  0.40018
USER: genes 9 Torsion [C]-CA--N-[C] |==|  0.73293
USER: genes 10 Torsion [N]-C--CA-[N] |==|  0.40715
USER: genes 11 Torsion [C]-CA--CB-[CG] |==|  0.05232
USER: genes 12 Torsion [CA]-CB--CG-[OD2] |==|  0.72793
USER: genes 13 Torsion [C]-CA--N-[H1] |==|  0.78950
USER: genes 14 Torsion [C]-CA--CB-[CG1] |==|  0.14940
USER: genes 15 Torsion [C]-N--CA-[CB] |==|  0.44599
USER: genes 16 Torsion [N]-CA--CB-[CG] |==|  0.55451
USER: genes 17 Torsion [CA]-CB--CG-[CD2] |==|  0.58003
USER: genes 18 Torsion [CE2]-CZ--OH-[HH] |==|  0.11643
USER: genes 19 Torsion [N]-CA--C-[N] |==|  0.13352
USER: genes 20 Torsion [C]-N--CA-[C] |==|  0.74449
USER: genes 21 Torsion [N]-CA--C-[N] |==|  0.89744
USER: genes 22 Torsion [C]-N--CA-[CB] |==|  0.81560
USER: genes 23 Torsion [N]-CA--CB-[CG] |==|  0.50497
USER: genes 24 Torsion [CA]-CB--CG-[CD2] |==|  0.16581
USER: genes 25 Torsion [N]-CA--C-[O] |==|  0.22885
USER: genes 26 Torsion [N]-CA--CB-[CG1] |==|  0.91020
USER: genes 27 Torsion [CA]-CB--CG1-[CD1] |==|  0.46847
ROOT
ATOM      1  C   VAL C   3      57.367  28.521  34.731  1.00 15.94 LIG 0.24  C 
ATOM      2 O    VAL C   3      56.245  28.980  34.827  1.00 17.86 LIG-0.27  OA
ATOM      3  N   TYR C   4      57.827  28.052  33.576  1.00 16.41 LIG-0.35  N 
ATOM      4 H    TYR C   4      58.607  27.703  33.476  1.00 16.41 LIG 0.16  HD
ENDROOT
BRANCH 1 5
ATOM      5  CA  VAL C   3      58.266  28.440  35.981  1.00 16.01 LIG 0.18  C 
BRANCH 5 6
ATOM      6  N   VAL C   3      57.726  29.408  36.960  1.00 15.77 LIG-0.35  N 
ATOM      7 H    VAL C   3      57.303  29.063  37.625  1.00 15.77 LIG 0.16  HD
ATOM      8  C   ARG C   2      57.913  30.703  36.767  1.00 16.54 LIG 0.24  C 
ATOM      9 O    ARG C   2      58.624  31.149  35.841  1.00 14.63 LIG-0.27  OA
BRANCH 8 10
ATOM     10  CA  ARG C   2      57.242  31.648  37.744  1.00 19.03 LIG 0.18  C 
BRANCH 10 11
ATOM     11  CB  ARG C   2      58.094  32.913  37.885  1.00 20.38 LIG 0.04  C 
BRANCH 11 12
ATOM     12  CG  ARG C   2      57.370  34.108  38.409  1.00 20.75 LIG 0.02  C 
BRANCH 12 13
ATOM     13  CD  ARG C   2      56.453  34.647  37.403  1.00 22.55 LIG 0.14  C 
BRANCH 13 14
ATOM     14  NE  ARG C   2      55.406  35.443  37.983  1.00 20.36 LIG-0.23  N 
ATOM     15  CZ  ARG C   2      54.897  36.523  37.430  1.00 23.11 LIG 0.67  C 
ATOM     16  NH1 ARG C   2      55.232  36.867  36.236  1.00 23.20 LIG-0.23  N 
ATOM     17  NH2 ARG C   2      53.950  37.206  38.084  1.00 25.55 LIG-0.23  N 
ATOM     18 1HH1 ARG C   2      55.793  36.390  35.792  1.00 23.20 LIG 0.17  HD
ATOM     19 2HH1 ARG C   2      54.894  37.575  35.882  1.00 23.20 LIG 0.17  HD
ATOM     20 2HH2 ARG C   2      53.609  37.914  37.733  1.00 25.55 LIG 0.17  HD
ATOM     21 1HH2 ARG C   2      53.682  36.937  38.856  1.00 25.55 LIG 0.17  HD
ATOM     22 HE   ARG C   2      55.092  35.197  38.744  1.00 20.36 LIG 0.18  HD
ENDBRANCH 13 14
ENDBRANCH 12 13
ENDBRANCH 11 12
ENDBRANCH 10 11
BRANCH 10 23
ATOM     23  N   ARG C   2      57.054  31.005  39.055  1.00 19.42 LIG-0.35  N 
ATOM     24  C   ASP C   1      55.893  30.437  39.352  1.00 19.51 LIG 0.25  C 
ATOM     25 O    ASP C   1      55.026  30.213  38.491  1.00 19.29 LIG-0.27  OA
ATOM     26 H    ARG C   2      57.735  31.034  39.580  1.00 19.42 LIG 0.16  HD
BRANCH 24 27
ATOM     27  CA  ASP C   1      55.623  30.080  40.803  1.00 19.04 LIG 0.28  C 
BRANCH 27 28
ATOM     28  CB  ASP C   1      56.036  28.651  41.044  1.00 21.34 LIG 0.15  C 
BRANCH 28 29
ATOM     29  CG  ASP C   1      57.008  28.132  39.953  1.00 23.67 LIG 0.17  C 
ATOM     30 OD2  ASP C   1      56.519  27.448  39.013  1.00 27.41 LIG-0.65  OA
ATOM     31 OD1  ASP C   1      58.255  28.378  40.044  1.00 20.87 LIG-0.65  OA
ENDBRANCH 28 29
ENDBRANCH 27 28
BRANCH 27 32
ATOM     32  N   ASP C   1      54.144  30.258  41.042  1.00 18.38 LIG-0.07  N 
ATOM     33 H1   ASP C   1      53.956  31.126  41.107  1.00 18.38 LIG 0.28  HD
ATOM     34 H3   ASP C   1      53.914  29.847  41.796  1.00 18.38 LIG 0.28  HD
ATOM     35 H2   ASP C   1      53.688  29.907  40.363  1.00 18.38 LIG 0.28  HD
ENDBRANCH 27 32
ENDBRANCH 24 27
ENDBRANCH 10 23
ENDBRANCH 8 10
ENDBRANCH 5 6
BRANCH 5 36
ATOM     36  CB  VAL C   3      58.223  27.013  36.483  1.00 17.74 LIG 0.01  C 
ATOM     37  CG1 VAL C   3      58.581  26.025  35.393  1.00 20.72 LIG 0.01  C 
ATOM     38  CG2 VAL C   3      59.195  26.806  37.631  1.00 18.64 LIG 0.01  C 
ENDBRANCH 5 36
ENDBRANCH 1 5
BRANCH 3 39
ATOM     39  CA  TYR C   4      57.025  28.094  32.359  1.00 17.90 LIG 0.18  C 
BRANCH 39 40
ATOM     40  CB  TYR C   4      57.892  27.958  31.145  1.00 20.19 LIG 0.07  C 
BRANCH 40 41
ATOM     41  CG  TYR C   4      57.293  28.432  29.848  1.00 23.00 LIG-0.06  A 
ATOM     42  CD2 TYR C   4      57.679  27.858  28.637  1.00 26.62 LIG 0.01  A 
ATOM     43  CE2 TYR C   4      57.147  28.281  27.436  1.00 28.63 LIG 0.04  A 
ATOM     44  CZ  TYR C   4      56.228  29.284  27.434  1.00 25.42 LIG 0.07  A 
ATOM     45  CE1 TYR C   4      55.796  29.836  28.592  1.00 26.89 LIG 0.04  A 
ATOM     46  CD1 TYR C   4      56.339  29.409  29.813  1.00 24.41 LIG 0.01  A 
BRANCH 44 47
ATOM     47 OH   TYR C   4      55.699  29.696  26.246  1.00 32.39 LIG-0.36  OA
ATOM     48 HH   TYR C   4      55.530  29.026  25.767  1.00 32.39 LIG 0.22  HD
ENDBRANCH 44 47
ENDBRANCH 40 41
ENDBRANCH 39 40
BRANCH 39 49
ATOM     49  C   TYR C   4      55.864  27.059  32.358  1.00 20.63 LIG 0.24  C 
ATOM     50 O    TYR C   4      55.734  26.269  31.464  1.00 19.73 LIG-0.27  OA
ATOM     51  N   ILE C   5      55.112  27.015  33.448  1.00 22.91 LIG-0.35  N 
ATOM     52 H    ILE C   5      55.256  27.485  34.154  1.00 22.91 LIG 0.16  HD
BRANCH 51 53
ATOM     53  CA  ILE C   5      53.954  26.142  33.528  1.00 27.58 LIG 0.18  C 
BRANCH 53 54
ATOM     54  C   ILE C   5      52.709  26.899  33.074  1.00 33.14 LIG 0.24  C 
ATOM     55  N   HIS C   6      52.625  28.194  33.408  1.00 39.14 LIG-0.35  N 
ATOM     56 H    HIS C   6      53.204  28.585  33.911  1.00 39.14 LIG 0.16  HD
ATOM     57 O    ILE C   5      51.812  26.266  32.524  1.00 25.88 LIG-0.27  OA
BRANCH 55 58
ATOM     58  CA  HIS C   6      51.516  29.107  32.949  1.00 56.87 LIG 0.17  C 
BRANCH 58 59
ATOM     59  CB  HIS C   6      51.584  29.324  31.409  1.00 66.39 LIG 0.09  C 
BRANCH 59 60
ATOM     60  CG  HIS C   6      50.542  30.257  30.860  1.00 78.50 LIG 0.06  A 
ATOM     61  CD2 HIS C   6      50.292  31.561  31.140  1.00 82.71 LIG 0.14  A 
ATOM     62 NE2  HIS C   6      49.258  31.964  30.326  1.00 84.02 LIG-0.25  NA
ATOM     63  CE1 HIS C   6      48.897  30.951  29.556  1.00 85.20 LIG 0.23  A 
ATOM     64 ND1  HIS C   6      49.659  29.910  29.852  1.00 88.66 LIG-0.24  NA
ENDBRANCH 59 60
ENDBRANCH 58 59
BRANCH 58 65
ATOM     65  C   HIS C   6      50.077  28.698  33.291  1.00 59.18 LIG 0.22  C 
ATOM     66 O    HIS C   6      49.591  28.954  34.425  1.00 63.69 LIG-0.29  OA
ENDBRANCH 58 65
ENDBRANCH 55 58
ENDBRANCH 53 54
BRANCH 53 67
ATOM     67  CB  ILE C   5      53.809  25.603  34.945  1.00 28.54 LIG 0.01  C 
ATOM     68  CG2 ILE C   5      53.009  24.303  34.891  1.00 32.34 LIG 0.01  C 
BRANCH 67 69
ATOM     69  CG1 ILE C   5      55.226  25.462  35.525  1.00 30.21 LIG 0.00  C 
ATOM     70  CD1 ILE C   5      55.321  25.197  37.006  1.00 32.85 LIG 0.01  C 
ENDBRANCH 67 69
ENDBRANCH 53 67
ENDBRANCH 51 53
ENDBRANCH 39 49
ENDBRANCH 3 39
TORSDOF 26
ENDMDL
MODEL 10
USER: ADFR SOLUTION from run 183
USER: SCORE 22.304055 LL:  -4.950 LR: -18.634 RR:   0.000 FEB: -10.879
USER: RMSD 2.252580
USER: SEED 182
USER: STATUS no improvement in best in 5 clusters for 5 generations
USER: GENES 28
USER: genes 0 Translation |==|  0.68351 0.47271 0.51498
USER: genes 1 Rotation |==|  0.47147 0.53890 0.57103 0.99257
USER: genes 2 Torsion [N]-C--CA-[N] |==|  0.43467
USER: genes 3 Torsion [C]-CA--N-[C] |==|  0.75000
USER: genes 4 Torsion [N]-C--CA-[N] |==|  0.10419
USER: genes 5 Torsion [C]-CA--CB-[CG] |==|  0.43468
USER: genes 6 Torsion [CA]-CB--CG-[CD] |==|  0.81894
USER: genes 7 Torsion [CB]-CG--CD-[NE] |==|  0.63126
USER: genes 8 Torsion [CG]-CD--NE-[CZ] |==|  0.74726
USER: genes 9 Torsion [C]-CA--N-[C] |==|  0.75511
USER: genes 10 Torsion [N]-C--CA-[N] |==|  0.39297
USER: genes 11 Torsion [C]-CA--CB-[CG] |==|  0.42952
USER: genes 12 Torsion [CA]-CB--CG-[OD2] |==|  0.05193
USER: genes 13 Torsion [C]-CA--N-[H1] |==|  0.42310
USER: genes 14 Torsion [C]-CA--CB-[CG1] |==|  0.65539
USER: genes 15 Torsion [C]-N--CA-[CB] |==|  0.53473
USER: genes 16 Torsion [N]-CA--CB-[CG] |==|  0.62813
USER: genes 17 Torsion [CA]-CB--CG-[CD2] |==|  0.54183
USER: genes 18 Torsion [CE2]-CZ--OH-[HH] |==|  0.63507
USER: genes 19 Torsion [N]-CA--C-[N] |==|  0.30011
USER: genes 20 Torsion [C]-N--CA-[C] |==|  0.77660
USER: genes 21 Torsion [N]-CA--C-[N] |==|  0.47093
USER: genes 22 Torsion [C]-N--CA-[CB] |==|  0.28142
USER: genes 23 Torsion [N]-CA--CB-[CG] |==|  0.19495
USER: genes 24 Torsion [CA]-CB--CG-[CD2] |==|  0.46126
USER: genes 25 Torsion [N]-CA--C-[O] |==|  0.08928
USER: genes 26 Torsion [N]-CA--CB-[CG1] |==|  0.65227
USER: genes 27 Torsion [CA]-CB--CG1-[CD1] |==|  0.43153
ROOT
ATOM      1  C   VAL C   3      57.309  28.634  34.754  1.00 15.94 LIG 0.24  C 
ATOM      2 O    VAL C   3      56.116  28.761  34.944  1.00 17.86 LIG-0.27  OA
ATOM      3  N   TYR C   4      57.784  28.214  33.586  1.00 16.41 LIG-0.35  N 
ATOM      4 H    TYR C   4      58.620  28.094  33.422  1.00 16.41 LIG 0.16  HD
ENDROOT
BRANCH 1 5
ATOM      5  CA  VAL C   3      58.299  28.924  35.901  1.00 16.01 LIG 0.18  C 
BRANCH 5 6
ATOM      6  N   VAL C   3      57.628  29.873  36.814  1.00 15.77 LIG-0.35  N 
ATOM      7 H    VAL C   3      57.167  29.515  37.446  1.00 15.77 LIG 0.16  HD
ATOM      8  C   ARG C   2      57.766  31.174  36.618  1.00 16.54 LIG 0.24  C 
ATOM      9 O    ARG C   2      58.532  31.646  35.751  1.00 14.63 LIG-0.27  OA
BRANCH 8 10
ATOM     10  CA  ARG C   2      56.966  32.094  37.519  1.00 19.03 LIG 0.18  C 
BRANCH 10 11
ATOM     11  CB  ARG C   2      57.609  33.485  37.514  1.00 20.38 LIG 0.04  C 
BRANCH 11 12
ATOM     12  CG  ARG C   2      56.693  34.606  37.874  1.00 20.75 LIG 0.02  C 
BRANCH 12 13
ATOM     13  CD  ARG C   2      55.637  34.762  36.872  1.00 22.55 LIG 0.14  C 
BRANCH 13 14
ATOM     14  NE  ARG C   2      55.461  36.130  36.467  1.00 20.36 LIG-0.23  N 
ATOM     15  CZ  ARG C   2      54.626  36.974  37.036  1.00 23.11 LIG 0.67  C 
ATOM     16  NH1 ARG C   2      53.990  36.647  38.106  1.00 23.20 LIG-0.23  N 
ATOM     17  NH2 ARG C   2      54.520  38.216  36.547  1.00 25.55 LIG-0.23  N 
ATOM     18 1HH1 ARG C   2      54.109  35.870  38.456  1.00 23.20 LIG 0.17  HD
ATOM     19 2HH1 ARG C   2      53.447  37.205  38.471  1.00 23.20 LIG 0.17  HD
ATOM     20 2HH2 ARG C   2      53.979  38.777  36.909  1.00 25.55 LIG 0.17  HD
ATOM     21 1HH2 ARG C   2      54.995  38.453  35.869  1.00 25.55 LIG 0.17  HD
ATOM     22 HE   ARG C   2      55.933  36.416  35.809  1.00 20.36 LIG 0.18  HD
ENDBRANCH 13 14
ENDBRANCH 12 13
ENDBRANCH 11 12
ENDBRANCH 10 11
BRANCH 10 23
ATOM     23  N   ARG C   2      56.900  31.563  38.891  1.00 19.42 LIG-0.35  N 
ATOM     24  C   ASP C   1      55.930  30.723  39.227  1.00 19.51 LIG 0.25  C 
ATOM     25 O    ASP C   1      55.205  30.175  38.380  1.00 19.29 LIG-0.27  OA
ATOM     26 H    ARG C   2      57.518  31.837  39.421  1.00 19.42 LIG 0.16  HD
BRANCH 24 27
ATOM     27  CA  ASP C   1      55.698  30.455  40.703  1.00 19.04 LIG 0.28  C 
BRANCH 27 28
ATOM     28  CB  ASP C   1      56.379  29.166  41.084  1.00 21.34 LIG 0.15  C 
BRANCH 28 29
ATOM     29  CG  ASP C   1      56.742  29.120  42.590  1.00 23.67 LIG 0.17  C 
ATOM     30 OD2  ASP C   1      56.145  29.921  43.360  1.00 27.41 LIG-0.65  OA
ATOM     31 OD1  ASP C   1      57.637  28.311  43.003  1.00 20.87 LIG-0.65  OA
ENDBRANCH 28 29
ENDBRANCH 27 28
BRANCH 27 32
ATOM     32  N   ASP C   1      54.208  30.357  40.914  1.00 18.38 LIG-0.07  N 
ATOM     33 H1   ASP C   1      54.040  29.831  41.612  1.00 18.38 LIG 0.28  HD
ATOM     34 H3   ASP C   1      53.827  30.013  40.186  1.00 18.38 LIG 0.28  HD
ATOM     35 H2   ASP C   1      53.875  31.168  41.066  1.00 18.38 LIG 0.28  HD
ENDBRANCH 27 32
ENDBRANCH 24 27
ENDBRANCH 10 23
ENDBRANCH 8 10
ENDBRANCH 5 6
BRANCH 5 36
ATOM     36  CB  VAL C   3      58.628  27.605  36.565  1.00 17.74 LIG 0.01  C 
ATOM     37  CG1 VAL C   3      58.333  27.635  38.049  1.00 20.72 LIG 0.01  C 
ATOM     38  CG2 VAL C   3      57.824  26.470  35.956  1.00 18.64 LIG 0.01  C 
ENDBRANCH 5 36
ENDBRANCH 1 5
BRANCH 3 39
ATOM     39  CA  TYR C   4      56.902  27.917  32.464  1.00 17.90 LIG 0.18  C 
BRANCH 39 40
ATOM     40  CB  TYR C   4      57.640  27.186  31.385  1.00 20.19 LIG 0.07  C 
BRANCH 40 41
ATOM     41  CG  TYR C   4      57.423  27.683  29.981  1.00 23.00 LIG-0.06  A 
ATOM     42  CD2 TYR C   4      57.798  26.902  28.887  1.00 26.62 LIG 0.01  A 
ATOM     43  CE2 TYR C   4      57.613  27.340  27.591  1.00 28.63 LIG 0.04  A 
ATOM     44  CZ  TYR C   4      57.056  28.563  27.377  1.00 25.42 LIG 0.07  A 
ATOM     45  CE1 TYR C   4      56.640  29.330  28.412  1.00 26.89 LIG 0.04  A 
ATOM     46  CD1 TYR C   4      56.830  28.887  29.729  1.00 24.41 LIG 0.01  A 
BRANCH 44 47
ATOM     47 OH   TYR C   4      56.869  28.991  26.095  1.00 32.39 LIG-0.36  OA
ATOM     48 HH   TYR C   4      57.166  29.773  26.015  1.00 32.39 LIG 0.22  HD
ENDBRANCH 44 47
ENDBRANCH 40 41
ENDBRANCH 39 40
BRANCH 39 49
ATOM     49  C   TYR C   4      55.606  27.168  32.888  1.00 20.63 LIG 0.24  C 
ATOM     50 O    TYR C   4      55.648  26.056  33.335  1.00 19.73 LIG-0.27  OA
ATOM     51  N   ILE C   5      54.481  27.866  32.847  1.00 22.91 LIG-0.35  N 
ATOM     52 H    ILE C   5      54.438  28.702  32.647  1.00 22.91 LIG 0.16  HD
BRANCH 51 53
ATOM     53  CA  ILE C   5      53.202  27.249  33.149  1.00 27.58 LIG 0.18  C 
BRANCH 53 54
ATOM     54  C   ILE C   5      52.702  26.485  31.925  1.00 33.14 LIG 0.24  C 
ATOM     55  N   HIS C   6      51.644  25.681  32.096  1.00 39.14 LIG-0.35  N 
ATOM     56 H    HIS C   6      51.287  25.536  32.865  1.00 39.14 LIG 0.16  HD
ATOM     57 O    ILE C   5      53.351  26.565  30.886  1.00 25.88 LIG-0.27  OA
BRANCH 55 58
ATOM     58  CA  HIS C   6      50.964  24.942  30.972  1.00 56.87 LIG 0.17  C 
BRANCH 58 59
ATOM     59  CB  HIS C   6      51.407  23.449  30.946  1.00 66.39 LIG 0.09  C 
BRANCH 59 60
ATOM     60  CG  HIS C   6      50.888  22.621  32.087  1.00 78.50 LIG 0.06  A 
ATOM     61  CD2 HIS C   6      50.854  21.275  32.254  1.00 82.71 LIG 0.14  A 
ATOM     62 NE2  HIS C   6      50.321  21.030  33.500  1.00 84.02 LIG-0.25  NA
ATOM     63  CE1 HIS C   6      50.056  22.184  34.089  1.00 85.20 LIG 0.23  A 
ATOM     64 ND1  HIS C   6      50.394  23.161  33.262  1.00 88.66 LIG-0.24  NA
ENDBRANCH 59 60
ENDBRANCH 58 59
BRANCH 58 65
ATOM     65  C   HIS C   6      49.430  24.966  30.937  1.00 59.18 LIG 0.22  C 
ATOM     66 O    HIS C   6      48.795  25.969  31.361  1.00 63.69 LIG-0.29  OA
ENDBRANCH 58 65
ENDBRANCH 55 58
ENDBRANCH 53 54
BRANCH 53 67
ATOM     67  CB  ILE C   5      52.209  28.309  33.605  1.00 28.54 LIG 0.01  C 
ATOM     68  CG2 ILE C   5      51.146  28.478  32.522  1.00 32.34 LIG 0.01  C 
BRANCH 67 69
ATOM     69  CG1 ILE C   5      51.668  27.864  34.974  1.00 30.21 LIG 0.00  C 
ATOM     70  CD1 ILE C   5      51.144  28.955  35.874  1.00 32.85 LIG 0.01  C 
ENDBRANCH 67 69
ENDBRANCH 53 67
ENDBRANCH 51 53
ENDBRANCH 39 49
ENDBRANCH 3 39
TORSDOF 26
ENDMDL
MODEL 11
USER: ADFR SOLUTION from run 113
USER: SCORE 23.123531 LL:  -5.329 LR: -18.632 RR:   0.000 FEB: -10.876
USER: RMSD 3.660518
USER: SEED 112
USER: STATUS no improvement in best in 3 clusters for 5 generations
USER: GENES 28
USER: genes 0 Translation |==|  0.67433 0.47337 0.48904
USER: genes 1 Rotation |==|  0.52595 0.44642 0.44746 0.99366
USER: genes 2 Torsion [N]-C--CA-[N] |==|  0.44144
USER: genes 3 Torsion [C]-CA--N-[C] |==|  0.79013
USER: genes 4 Torsion [N]-C--CA-[N] |==|  0.16367
USER: genes 5 Torsion [C]-CA--CB-[CG] |==|  0.47861
USER: genes 6 Torsion [CA]-CB--CG-[CD] |==|  0.72031
USER: genes 7 Torsion [CB]-CG--CD-[NE] |==|  0.44361
USER: genes 8 Torsion [CG]-CD--NE-[CZ] |==|  0.46124
USER: genes 9 Torsion [C]-CA--N-[C] |==|  0.74444
USER: genes 10 Torsion [N]-C--CA-[N] |==|  0.38053
USER: genes 11 Torsion [C]-CA--CB-[CG] |==|  0.43436
USER: genes 12 Torsion [CA]-CB--CG-[OD2] |==|  0.46280
USER: genes 13 Torsion [C]-CA--N-[H1] |==|  0.48524
USER: genes 14 Torsion [C]-CA--CB-[CG1] |==|  0.56667
USER: genes 15 Torsion [C]-N--CA-[CB] |==|  0.57268
USER: genes 16 Torsion [N]-CA--CB-[CG] |==|  0.48493
USER: genes 17 Torsion [CA]-CB--CG-[CD2] |==|  0.64168
USER: genes 18 Torsion [CE2]-CZ--OH-[HH] |==|  0.99917
USER: genes 19 Torsion [N]-CA--C-[N] |==|  0.35018
USER: genes 20 Torsion [C]-N--CA-[C] |==|  0.74511
USER: genes 21 Torsion [N]-CA--C-[N] |==|  0.38143
USER: genes 22 Torsion [C]-N--CA-[CB] |==|  0.57494
USER: genes 23 Torsion [N]-CA--CB-[CG] |==|  0.12401
USER: genes 24 Torsion [CA]-CB--CG-[CD2] |==|  0.25366
USER: genes 25 Torsion [N]-CA--C-[O] |==|  0.69957
USER: genes 26 Torsion [N]-CA--CB-[CG1] |==|  0.47062
USER: genes 27 Torsion [CA]-CB--CG1-[CD1] |==|  0.37912
ROOT
ATOM      1  C   VAL C   3      57.151  28.651  34.073  1.00 15.94 LIG 0.24  C 
ATOM      2 O    VAL C   3      56.152  29.331  33.942  1.00 17.86 LIG-0.27  OA
ATOM      3  N   TYR C   4      57.830  28.205  33.021  1.00 16.41 LIG-0.35  N 
ATOM      4 H    TYR C   4      58.528  27.706  33.076  1.00 16.41 LIG 0.16  HD
ENDROOT
BRANCH 1 5
ATOM      5  CA  VAL C   3      57.625  28.257  35.487  1.00 16.01 LIG 0.18  C 
BRANCH 5 6
ATOM      6  N   VAL C   3      57.058  29.254  36.420  1.00 15.77 LIG-0.35  N 
ATOM      7 H    VAL C   3      56.388  28.984  36.888  1.00 15.77 LIG 0.16  HD
ATOM      8  C   ARG C   2      57.590  30.464  36.483  1.00 16.54 LIG 0.24  C 
ATOM      9 O    ARG C   2      58.628  30.775  35.861  1.00 14.63 LIG-0.27  OA
BRANCH 8 10
ATOM     10  CA  ARG C   2      56.897  31.474  37.377  1.00 19.03 LIG 0.18  C 
BRANCH 10 11
ATOM     11  CB  ARG C   2      57.646  32.809  37.299  1.00 20.38 LIG 0.04  C 
BRANCH 11 12
ATOM     12  CG  ARG C   2      56.975  33.950  37.987  1.00 20.75 LIG 0.02  C 
BRANCH 12 13
ATOM     13  CD  ARG C   2      56.277  34.804  37.024  1.00 22.55 LIG 0.14  C 
BRANCH 13 14
ATOM     14  NE  ARG C   2      55.261  35.613  37.642  1.00 20.36 LIG-0.23  N 
ATOM     15  CZ  ARG C   2      54.674  36.641  37.067  1.00 23.11 LIG 0.67  C 
ATOM     16  NH1 ARG C   2      54.894  36.913  35.829  1.00 23.20 LIG-0.23  N 
ATOM     17  NH2 ARG C   2      53.768  37.344  37.757  1.00 25.55 LIG-0.23  N 
ATOM     18 1HH1 ARG C   2      55.428  36.420  35.369  1.00 23.20 LIG 0.17  HD
ATOM     19 2HH1 ARG C   2      54.506  37.586  35.460  1.00 23.20 LIG 0.17  HD
ATOM     20 2HH2 ARG C   2      53.377  38.018  37.392  1.00 25.55 LIG 0.17  HD
ATOM     21 1HH2 ARG C   2      53.575  37.121  38.566  1.00 25.55 LIG 0.17  HD
ATOM     22 HE   ARG C   2      55.021  35.411  38.442  1.00 20.36 LIG 0.18  HD
ENDBRANCH 13 14
ENDBRANCH 12 13
ENDBRANCH 11 12
ENDBRANCH 10 11
BRANCH 10 23
ATOM     23  N   ARG C   2      56.840  30.996  38.768  1.00 19.42 LIG-0.35  N 
ATOM     24  C   ASP C   1      55.784  30.312  39.188  1.00 19.51 LIG 0.25  C 
ATOM     25 O    ASP C   1      54.940  29.849  38.403  1.00 19.29 LIG-0.27  OA
ATOM     26 H    ARG C   2      57.521  31.195  39.253  1.00 19.42 LIG 0.16  HD
BRANCH 24 27
ATOM     27  CA  ASP C   1      55.606  30.122  40.684  1.00 19.04 LIG 0.28  C 
BRANCH 27 28
ATOM     28  CB  ASP C   1      56.019  28.721  41.055  1.00 21.34 LIG 0.15  C 
BRANCH 28 29
ATOM     29  CG  ASP C   1      56.430  28.609  42.546  1.00 23.67 LIG 0.17  C 
ATOM     30 OD2  ASP C   1      56.544  27.452  43.036  1.00 27.41 LIG-0.65  OA
ATOM     31 OD1  ASP C   1      56.611  29.666  43.236  1.00 20.87 LIG-0.65  OA
ENDBRANCH 28 29
ENDBRANCH 27 28
BRANCH 27 32
ATOM     32  N   ASP C   1      54.148  30.352  40.996  1.00 18.38 LIG-0.07  N 
ATOM     33 H1   ASP C   1      53.997  30.172  41.855  1.00 18.38 LIG 0.28  HD
ATOM     34 H3   ASP C   1      53.648  29.819  40.488  1.00 18.38 LIG 0.28  HD
ATOM     35 H2   ASP C   1      53.939  31.201  40.830  1.00 18.38 LIG 0.28  HD
ENDBRANCH 27 32
ENDBRANCH 24 27
ENDBRANCH 10 23
ENDBRANCH 8 10
ENDBRANCH 5 6
BRANCH 5 36
ATOM     36  CB  VAL C   3      57.132  26.853  35.759  1.00 17.74 LIG 0.01  C 
ATOM     37  CG1 VAL C   3      57.012  26.579  37.244  1.00 20.72 LIG 0.01  C 
ATOM     38  CG2 VAL C   3      55.768  26.620  35.135  1.00 18.64 LIG 0.01  C 
ENDBRANCH 5 36
ENDBRANCH 1 5
BRANCH 3 39
ATOM     39  CA  TYR C   4      57.431  28.536  31.658  1.00 17.90 LIG 0.18  C 
BRANCH 39 40
ATOM     40  CB  TYR C   4      57.893  27.483  30.698  1.00 20.19 LIG 0.07  C 
BRANCH 40 41
ATOM     41  CG  TYR C   4      57.436  27.641  29.272  1.00 23.00 LIG-0.06  A 
ATOM     42  CD2 TYR C   4      56.830  26.579  28.600  1.00 26.62 LIG 0.01  A 
ATOM     43  CE2 TYR C   4      56.409  26.700  27.291  1.00 28.63 LIG 0.04  A 
ATOM     44  CZ  TYR C   4      56.593  27.882  26.642  1.00 25.42 LIG 0.07  A 
ATOM     45  CE1 TYR C   4      57.136  28.948  27.275  1.00 26.89 LIG 0.04  A 
ATOM     46  CD1 TYR C   4      57.568  28.824  28.603  1.00 24.41 LIG 0.01  A 
BRANCH 44 47
ATOM     47 OH   TYR C   4      56.169  28.001  25.350  1.00 32.39 LIG-0.36  OA
ATOM     48 HH   TYR C   4      55.827  27.276  25.100  1.00 32.39 LIG 0.22  HD
ENDBRANCH 44 47
ENDBRANCH 40 41
ENDBRANCH 39 40
BRANCH 39 49
ATOM     49  C   TYR C   4      55.908  28.817  31.518  1.00 20.63 LIG 0.24  C 
ATOM     50 O    TYR C   4      55.092  28.078  31.995  1.00 19.73 LIG-0.27  OA
ATOM     51  N   ILE C   5      55.570  29.971  30.962  1.00 22.91 LIG-0.35  N 
ATOM     52 H    ILE C   5      56.132  30.575  30.722  1.00 22.91 LIG 0.16  HD
BRANCH 51 53
ATOM     53  CA  ILE C   5      54.179  30.306  30.713  1.00 27.58 LIG 0.18  C 
BRANCH 53 54
ATOM     54  C   ILE C   5      53.790  29.861  29.306  1.00 33.14 LIG 0.24  C 
ATOM     55  N   HIS C   6      52.597  29.268  29.159  1.00 39.14 LIG-0.35  N 
ATOM     56 H    HIS C   6      52.085  29.079  29.824  1.00 39.14 LIG 0.16  HD
ATOM     57 O    ILE C   5      54.623  29.971  28.411  1.00 25.88 LIG-0.27  OA
BRANCH 55 58
ATOM     58  CA  HIS C   6      52.020  28.866  27.825  1.00 56.87 LIG 0.17  C 
BRANCH 58 59
ATOM     59  CB  HIS C   6      50.464  28.852  27.880  1.00 66.39 LIG 0.09  C 
BRANCH 59 60
ATOM     60  CG  HIS C   6      49.849  30.040  28.565  1.00 78.50 LIG 0.06  A 
ATOM     61  CD2 HIS C   6      49.431  31.228  28.061  1.00 82.71 LIG 0.14  A 
ATOM     62 NE2  HIS C   6      48.897  31.951  29.103  1.00 84.02 LIG-0.25  NA
ATOM     63  CE1 HIS C   6      48.964  31.226  30.208  1.00 85.20 LIG 0.23  A 
ATOM     64 ND1  HIS C   6      49.528  30.065  29.911  1.00 88.66 LIG-0.24  NA
ENDBRANCH 59 60
ENDBRANCH 58 59
BRANCH 58 65
ATOM     65  C   HIS C   6      52.428  29.697  26.601  1.00 59.18 LIG 0.22  C 
ATOM     66 O    HIS C   6      51.603  30.475  26.051  1.00 63.69 LIG-0.29  OA
ENDBRANCH 58 65
ENDBRANCH 55 58
ENDBRANCH 53 54
BRANCH 53 67
ATOM     67  CB  ILE C   5      53.960  31.798  30.921  1.00 28.54 LIG 0.01  C 
ATOM     68  CG2 ILE C   5      55.097  32.556  30.239  1.00 32.34 LIG 0.01  C 
BRANCH 67 69
ATOM     69  CG1 ILE C   5      52.556  32.129  30.388  1.00 30.21 LIG 0.00  C 
ATOM     70  CD1 ILE C   5      51.714  33.044  31.242  1.00 32.85 LIG 0.01  C 
ENDBRANCH 67 69
ENDBRANCH 53 67
ENDBRANCH 51 53
ENDBRANCH 39 49
ENDBRANCH 3 39
TORSDOF 26
ENDMDL
MODEL 12
USER: ADFR SOLUTION from run 190
USER: SCORE 22.567696 LL:  -6.185 LR: -18.579 RR:   0.000 FEB: -10.823
USER: RMSD 4.674850
USER: SEED 189
USER: STATUS no improvement in best in 10 clusters for 5 generations
USER: GENES 28
USER: genes 0 Translation |==|  0.68332 0.46294 0.51772
USER: genes 1 Rotation |==|  0.51902 0.51238 0.55461 0.99649
USER: genes 2 Torsion [N]-C--CA-[N] |==|  0.40430
USER: genes 3 Torsion [C]-CA--N-[C] |==|  0.78852
USER: genes 4 Torsion [N]-C--CA-[N] |==|  0.09131
USER: genes 5 Torsion [C]-CA--CB-[CG] |==|  0.45035
USER: genes 6 Torsion [CA]-CB--CG-[CD] |==|  0.81628
USER: genes 7 Torsion [CB]-CG--CD-[NE] |==|  0.46164
USER: genes 8 Torsion [CG]-CD--NE-[CZ] |==|  0.36099
USER: genes 9 Torsion [C]-CA--N-[C] |==|  0.75000
USER: genes 10 Torsion [N]-C--CA-[N] |==|  0.40964
USER: genes 11 Torsion [C]-CA--CB-[CG] |==|  0.40642
USER: genes 12 Torsion [CA]-CB--CG-[OD2] |==|  0.08761
USER: genes 13 Torsion [C]-CA--N-[H1] |==|  0.44503
USER: genes 14 Torsion [C]-CA--CB-[CG1] |==|  0.52566
USER: genes 15 Torsion [C]-N--CA-[CB] |==|  0.49124
USER: genes 16 Torsion [N]-CA--CB-[CG] |==|  0.55405
USER: genes 17 Torsion [CA]-CB--CG-[CD2] |==|  0.59210
USER: genes 18 Torsion [CE2]-CZ--OH-[HH] |==|  0.96930
USER: genes 19 Torsion [N]-CA--C-[N] |==|  0.99135
USER: genes 20 Torsion [C]-N--CA-[C] |==|  0.76140
USER: genes 21 Torsion [N]-CA--C-[N] |==|  0.17664
USER: genes 22 Torsion [C]-N--CA-[CB] |==|  0.16954
USER: genes 23 Torsion [N]-CA--CB-[CG] |==|  0.18696
USER: genes 24 Torsion [CA]-CB--CG-[CD2] |==|  0.18659
USER: genes 25 Torsion [N]-CA--C-[O] |==|  0.38315
USER: genes 26 Torsion [N]-CA--CB-[CG1] |==|  0.88383
USER: genes 27 Torsion [CA]-CB--CG1-[CD1] |==|  0.35036
ROOT
ATOM      1  C   VAL C   3      57.306  28.385  34.826  1.00 15.94 LIG 0.24  C 
ATOM      2 O    VAL C   3      56.111  28.572  34.949  1.00 17.86 LIG-0.27  OA
ATOM      3  N   TYR C   4      57.854  28.161  33.636  1.00 16.41 LIG-0.35  N 
ATOM      4 H    TYR C   4      58.691  28.006  33.515  1.00 16.41 LIG 0.16  HD
ENDROOT
BRANCH 1 5
ATOM      5  CA  VAL C   3      58.207  28.364  36.078  1.00 16.01 LIG 0.18  C 
BRANCH 5 6
ATOM      6  N   VAL C   3      57.666  29.375  37.010  1.00 15.77 LIG-0.35  N 
ATOM      7 H    VAL C   3      57.220  29.063  37.676  1.00 15.77 LIG 0.16  HD
ATOM      8  C   ARG C   2      57.887  30.659  36.779  1.00 16.54 LIG 0.24  C 
ATOM      9 O    ARG C   2      58.630  31.058  35.856  1.00 14.63 LIG-0.27  OA
BRANCH 8 10
ATOM     10  CA  ARG C   2      57.215  31.651  37.707  1.00 19.03 LIG 0.18  C 
BRANCH 10 11
ATOM     11  CB  ARG C   2      58.024  32.953  37.722  1.00 20.38 LIG 0.04  C 
BRANCH 11 12
ATOM     12  CG  ARG C   2      57.293  34.145  38.240  1.00 20.75 LIG 0.02  C 
BRANCH 12 13
ATOM     13  CD  ARG C   2      56.191  34.512  37.349  1.00 22.55 LIG 0.14  C 
BRANCH 13 14
ATOM     14  NE  ARG C   2      55.277  35.440  37.958  1.00 20.36 LIG-0.23  N 
ATOM     15  CZ  ARG C   2      54.868  36.559  37.398  1.00 23.11 LIG 0.67  C 
ATOM     16  NH1 ARG C   2      55.175  36.832  36.179  1.00 23.20 LIG-0.23  N 
ATOM     17  NH2 ARG C   2      54.043  37.364  38.079  1.00 25.55 LIG-0.23  N 
ATOM     18 1HH1 ARG C   2      55.652  36.282  35.722  1.00 23.20 LIG 0.17  HD
ATOM     19 2HH1 ARG C   2      54.903  37.566  35.821  1.00 23.20 LIG 0.17  HD
ATOM     20 2HH2 ARG C   2      53.769  38.098  37.724  1.00 25.55 LIG 0.17  HD
ATOM     21 1HH2 ARG C   2      53.788  37.148  38.872  1.00 25.55 LIG 0.17  HD
ATOM     22 HE   ARG C   2      54.978  35.251  38.741  1.00 20.36 LIG 0.18  HD
ENDBRANCH 13 14
ENDBRANCH 12 13
ENDBRANCH 11 12
ENDBRANCH 10 11
BRANCH 10 23
ATOM     23  N   ARG C   2      57.096  31.103  39.068  1.00 19.42 LIG-0.35  N 
ATOM     24  C   ASP C   1      56.017  30.413  39.410  1.00 19.51 LIG 0.25  C 
ATOM     25 O    ASP C   1      55.199  30.002  38.570  1.00 19.29 LIG-0.27  OA
ATOM     26 H    ARG C   2      57.760  31.267  39.590  1.00 19.42 LIG 0.16  HD
BRANCH 24 27
ATOM     27  CA  ASP C   1      55.777  30.148  40.886  1.00 19.04 LIG 0.28  C 
BRANCH 27 28
ATOM     28  CB  ASP C   1      56.392  28.823  41.256  1.00 21.34 LIG 0.15  C 
BRANCH 28 29
ATOM     29  CG  ASP C   1      56.946  28.820  42.704  1.00 23.67 LIG 0.17  C 
ATOM     30 OD2  ASP C   1      56.355  29.538  43.557  1.00 27.41 LIG-0.65  OA
ATOM     31 OD1  ASP C   1      57.980  28.131  42.987  1.00 20.87 LIG-0.65  OA
ENDBRANCH 28 29
ENDBRANCH 27 28
BRANCH 27 32
ATOM     32  N   ASP C   1      54.284  30.125  41.102  1.00 18.38 LIG-0.07  N 
ATOM     33 H1   ASP C   1      54.101  29.700  41.863  1.00 18.38 LIG 0.28  HD
ATOM     34 H3   ASP C   1      53.893  29.702  40.424  1.00 18.38 LIG 0.28  HD
ATOM     35 H2   ASP C   1      53.977  30.959  41.147  1.00 18.38 LIG 0.28  HD
ENDBRANCH 27 32
ENDBRANCH 24 27
ENDBRANCH 10 23
ENDBRANCH 8 10
ENDBRANCH 5 6
BRANCH 5 36
ATOM     36  CB  VAL C   3      58.166  26.962  36.646  1.00 17.74 LIG 0.01  C 
ATOM     37  CG1 VAL C   3      58.835  26.886  38.002  1.00 20.72 LIG 0.01  C 
ATOM     38  CG2 VAL C   3      56.736  26.478  36.809  1.00 18.64 LIG 0.01  C 
ENDBRANCH 5 36
ENDBRANCH 1 5
BRANCH 3 39
ATOM     39  CA  TYR C   4      57.058  28.162  32.415  1.00 17.90 LIG 0.18  C 
BRANCH 39 40
ATOM     40  CB  TYR C   4      57.928  27.961  31.212  1.00 20.19 LIG 0.07  C 
BRANCH 40 41
ATOM     41  CG  TYR C   4      57.339  28.383  29.892  1.00 23.00 LIG-0.06  A 
ATOM     42  CD2 TYR C   4      57.654  27.692  28.722  1.00 26.62 LIG 0.01  A 
ATOM     43  CE2 TYR C   4      57.131  28.065  27.500  1.00 28.63 LIG 0.04  A 
ATOM     44  CZ  TYR C   4      56.293  29.136  27.438  1.00 25.42 LIG 0.07  A 
ATOM     45  CE1 TYR C   4      55.930  29.804  28.557  1.00 26.89 LIG 0.04  A 
ATOM     46  CD1 TYR C   4      56.464  29.427  29.798  1.00 24.41 LIG 0.01  A 
BRANCH 44 47
ATOM     47 OH   TYR C   4      55.772  29.499  26.230  1.00 32.39 LIG-0.36  OA
ATOM     48 HH   TYR C   4      56.166  29.081  25.617  1.00 32.39 LIG 0.22  HD
ENDBRANCH 44 47
ENDBRANCH 40 41
ENDBRANCH 39 40
BRANCH 39 49
ATOM     49  C   TYR C   4      55.881  27.146  32.453  1.00 20.63 LIG 0.24  C 
ATOM     50 O    TYR C   4      55.165  26.986  31.503  1.00 19.73 LIG-0.27  OA
ATOM     51  N   ILE C   5      55.793  26.385  33.534  1.00 22.91 LIG-0.35  N 
ATOM     52 H    ILE C   5      56.363  26.392  34.178  1.00 22.91 LIG 0.16  HD
BRANCH 51 53
ATOM     53  CA  ILE C   5      54.692  25.455  33.711  1.00 27.58 LIG 0.18  C 
BRANCH 53 54
ATOM     54  C   ILE C   5      53.506  26.180  34.343  1.00 33.14 LIG 0.24  C 
ATOM     55  N   HIS C   6      52.946  27.169  33.633  1.00 39.14 LIG-0.35  N 
ATOM     56 H    HIS C   6      53.263  27.442  32.882  1.00 39.14 LIG 0.16  HD
ATOM     57 O    ILE C   5      53.199  25.895  35.497  1.00 25.88 LIG-0.27  OA
BRANCH 55 58
ATOM     58  CA  HIS C   6      51.707  27.911  34.066  1.00 56.87 LIG 0.17  C 
BRANCH 58 59
ATOM     59  CB  HIS C   6      51.946  28.639  35.421  1.00 66.39 LIG 0.09  C 
BRANCH 59 60
ATOM     60  CG  HIS C   6      52.932  29.771  35.361  1.00 78.50 LIG 0.06  A 
ATOM     61  CD2 HIS C   6      52.857  30.972  34.734  1.00 82.71 LIG 0.14  A 
ATOM     62 NE2  HIS C   6      54.008  31.664  35.034  1.00 84.02 LIG-0.25  NA
ATOM     63  CE1 HIS C   6      54.757  30.925  35.836  1.00 85.20 LIG 0.23  A 
ATOM     64 ND1  HIS C   6      54.129  29.780  36.056  1.00 88.66 LIG-0.24  NA
ENDBRANCH 59 60
ENDBRANCH 58 59
BRANCH 58 65
ATOM     65  C   HIS C   6      51.124  28.941  33.089  1.00 59.18 LIG 0.22  C 
ATOM     66 O    HIS C   6      49.879  29.020  32.908  1.00 63.69 LIG-0.29  OA
ENDBRANCH 58 65
ENDBRANCH 55 58
ENDBRANCH 53 54
BRANCH 53 67
ATOM     67  CB  ILE C   5      55.146  24.267  34.549  1.00 28.54 LIG 0.01  C 
ATOM     68  CG2 ILE C   5      54.100  23.161  34.433  1.00 32.34 LIG 0.01  C 
BRANCH 67 69
ATOM     69  CG1 ILE C   5      56.551  23.877  34.059  1.00 30.21 LIG 0.00  C 
ATOM     70  CD1 ILE C   5      57.630  23.802  35.110  1.00 32.85 LIG 0.01  C 
ENDBRANCH 67 69
ENDBRANCH 53 67
ENDBRANCH 51 53
ENDBRANCH 39 49
ENDBRANCH 3 39
TORSDOF 26
ENDMDL
MODEL 13
USER: ADFR SOLUTION from run 191
USER: SCORE 22.557257 LL:  -5.086 LR: -18.482 RR:   0.000 FEB: -10.726
USER: RMSD 3.113725
USER: SEED 190
USER: STATUS no improvement in best in 15 clusters for 5 generations
USER: GENES 28
USER: genes 0 Translation |==|  0.69089 0.46351 0.52546
USER: genes 1 Rotation |==|  0.47848 0.54214 0.52956 0.99688
USER: genes 2 Torsion [N]-C--CA-[N] |==|  0.43831
USER: genes 3 Torsion [C]-CA--N-[C] |==|  0.80066
USER: genes 4 Torsion [N]-C--CA-[N] |==|  0.04875
USER: genes 5 Torsion [C]-CA--CB-[CG] |==|  0.43149
USER: genes 6 Torsion [CA]-CB--CG-[CD] |==|  0.84496
USER: genes 7 Torsion [CB]-CG--CD-[NE] |==|  0.44407
USER: genes 8 Torsion [CG]-CD--NE-[CZ] |==|  0.34964
USER: genes 9 Torsion [C]-CA--N-[C] |==|  0.74863
USER: genes 10 Torsion [N]-C--CA-[N] |==|  0.42036
USER: genes 11 Torsion [C]-CA--CB-[CG] |==|  0.29890
USER: genes 12 Torsion [CA]-CB--CG-[OD2] |==|  0.16144
USER: genes 13 Torsion [C]-CA--N-[H1] |==|  0.79258
USER: genes 14 Torsion [C]-CA--CB-[CG1] |==|  0.57628
USER: genes 15 Torsion [C]-N--CA-[CB] |==|  0.53750
USER: genes 16 Torsion [N]-CA--CB-[CG] |==|  0.62766
USER: genes 17 Torsion [CA]-CB--CG-[CD2] |==|  0.99640
USER: genes 18 Torsion [CE2]-CZ--OH-[HH] |==|  0.96787
USER: genes 19 Torsion [N]-CA--C-[N] |==|  0.25000
USER: genes 20 Torsion [C]-N--CA-[C] |==|  0.81655
USER: genes 21 Torsion [N]-CA--C-[N] |==|  0.45531
USER: genes 22 Torsion [C]-N--CA-[CB] |==|  0.95734
USER: genes 23 Torsion [N]-CA--CB-[CG] |==|  0.79369
USER: genes 24 Torsion [CA]-CB--CG-[CD2] |==|  0.61336
USER: genes 25 Torsion [N]-CA--C-[O] |==|  0.10784
USER: genes 26 Torsion [N]-CA--CB-[CG1] |==|  0.87104
USER: genes 27 Torsion [CA]-CB--CG1-[CD1] |==|  0.32673
ROOT
ATOM      1  C   VAL C   3      57.437  28.400  35.029  1.00 15.94 LIG 0.24  C 
ATOM      2 O    VAL C   3      56.282  28.723  35.230  1.00 17.86 LIG-0.27  OA
ATOM      3  N   TYR C   4      57.829  27.922  33.852  1.00 16.41 LIG-0.35  N 
ATOM      4 H    TYR C   4      58.631  27.666  33.681  1.00 16.41 LIG 0.16  HD
ENDROOT
BRANCH 1 5
ATOM      5  CA  VAL C   3      58.467  28.503  36.173  1.00 16.01 LIG 0.18  C 
BRANCH 5 6
ATOM      6  N   VAL C   3      57.953  29.515  37.119  1.00 15.77 LIG-0.35  N 
ATOM      7 H    VAL C   3      57.661  29.207  37.868  1.00 15.77 LIG 0.16  HD
ATOM      8  C   ARG C   2      57.969  30.793  36.779  1.00 16.54 LIG 0.24  C 
ATOM      9 O    ARG C   2      58.500  31.201  35.723  1.00 14.63 LIG-0.27  OA
BRANCH 8 10
ATOM     10  CA  ARG C   2      57.329  31.771  37.745  1.00 19.03 LIG 0.18  C 
BRANCH 10 11
ATOM     11  CB  ARG C   2      58.193  33.034  37.827  1.00 20.38 LIG 0.04  C 
BRANCH 11 12
ATOM     12  CG  ARG C   2      57.468  34.269  38.242  1.00 20.75 LIG 0.02  C 
BRANCH 12 13
ATOM     13  CD  ARG C   2      56.330  34.530  37.358  1.00 22.55 LIG 0.14  C 
BRANCH 13 14
ATOM     14  NE  ARG C   2      55.355  35.400  37.959  1.00 20.36 LIG-0.23  N 
ATOM     15  CZ  ARG C   2      54.912  36.513  37.413  1.00 23.11 LIG 0.67  C 
ATOM     16  NH1 ARG C   2      55.244  36.830  36.211  1.00 23.20 LIG-0.23  N 
ATOM     17  NH2 ARG C   2      54.030  37.262  38.085  1.00 25.55 LIG-0.23  N 
ATOM     18 1HH1 ARG C   2      55.760  36.313  35.756  1.00 23.20 LIG 0.17  HD
ATOM     19 2HH1 ARG C   2      54.949  37.559  35.862  1.00 23.20 LIG 0.17  HD
ATOM     20 2HH2 ARG C   2      53.732  37.991  37.739  1.00 25.55 LIG 0.17  HD
ATOM     21 1HH2 ARG C   2      53.760  37.014  38.864  1.00 25.55 LIG 0.17  HD
ATOM     22 HE   ARG C   2      55.041  35.178  38.727  1.00 20.36 LIG 0.18  HD
ENDBRANCH 13 14
ENDBRANCH 12 13
ENDBRANCH 11 12
ENDBRANCH 10 11
BRANCH 10 23
ATOM     23  N   ARG C   2      57.170  31.167  39.078  1.00 19.42 LIG-0.35  N 
ATOM     24  C   ASP C   1      56.054  30.518  39.381  1.00 19.51 LIG 0.25  C 
ATOM     25 O    ASP C   1      55.224  30.189  38.517  1.00 19.29 LIG-0.27  OA
ATOM     26 H    ARG C   2      57.837  31.272  39.611  1.00 19.42 LIG 0.16  HD
BRANCH 24 27
ATOM     27  CA  ASP C   1      55.789  30.198  40.841  1.00 19.04 LIG 0.28  C 
BRANCH 27 28
ATOM     28  CB  ASP C   1      56.415  28.869  41.177  1.00 21.34 LIG 0.15  C 
BRANCH 28 29
ATOM     29  CG  ASP C   1      57.675  29.026  42.067  1.00 23.67 LIG 0.17  C 
ATOM     30 OD2  ASP C   1      57.539  29.613  43.175  1.00 27.41 LIG-0.65  OA
ATOM     31 OD1  ASP C   1      58.801  28.593  41.655  1.00 20.87 LIG-0.65  OA
ENDBRANCH 28 29
ENDBRANCH 27 28
BRANCH 27 32
ATOM     32  N   ASP C   1      54.292  30.147  41.025  1.00 18.38 LIG-0.07  N 
ATOM     33 H1   ASP C   1      53.964  30.974  41.018  1.00 18.38 LIG 0.28  HD
ATOM     34 H3   ASP C   1      54.102  29.758  41.802  1.00 18.38 LIG 0.28  HD
ATOM     35 H2   ASP C   1      53.927  29.678  40.362  1.00 18.38 LIG 0.28  HD
ENDBRANCH 27 32
ENDBRANCH 24 27
ENDBRANCH 10 23
ENDBRANCH 8 10
ENDBRANCH 5 6
BRANCH 5 36
ATOM     36  CB  VAL C   3      58.596  27.130  36.795  1.00 17.74 LIG 0.01  C 
ATOM     37  CG1 VAL C   3      59.008  27.211  38.250  1.00 20.72 LIG 0.01  C 
ATOM     38  CG2 VAL C   3      57.283  26.372  36.728  1.00 18.64 LIG 0.01  C 
ENDBRANCH 5 36
ENDBRANCH 1 5
BRANCH 3 39
ATOM     39  CA  TYR C   4      56.904  27.794  32.733  1.00 17.90 LIG 0.18  C 
BRANCH 39 40
ATOM     40  CB  TYR C   4      57.494  26.944  31.649  1.00 20.19 LIG 0.07  C 
BRANCH 40 41
ATOM     41  CG  TYR C   4      57.362  27.475  30.247  1.00 23.00 LIG-0.06  A 
ATOM     42  CD2 TYR C   4      56.698  28.679  30.004  1.00 26.62 LIG 0.01  A 
ATOM     43  CE2 TYR C   4      56.560  29.181  28.726  1.00 28.63 LIG 0.04  A 
ATOM     44  CZ  TYR C   4      57.081  28.484  27.679  1.00 25.42 LIG 0.07  A 
ATOM     45  CE1 TYR C   4      57.769  27.336  27.880  1.00 26.89 LIG 0.04  A 
ATOM     46  CD1 TYR C   4      57.906  26.823  29.178  1.00 24.41 LIG 0.01  A 
BRANCH 44 47
ATOM     47 OH   TYR C   4      56.949  28.986  26.417  1.00 32.39 LIG-0.36  OA
ATOM     48 HH   TYR C   4      56.403  29.625  26.426  1.00 32.39 LIG 0.22  HD
ENDBRANCH 44 47
ENDBRANCH 40 41
ENDBRANCH 39 40
BRANCH 39 49
ATOM     49  C   TYR C   4      55.495  27.291  33.159  1.00 20.63 LIG 0.24  C 
ATOM     50 O    TYR C   4      55.267  26.121  33.297  1.00 19.73 LIG-0.27  OA
ATOM     51  N   ILE C   5      54.609  28.222  33.483  1.00 22.91 LIG-0.35  N 
ATOM     52 H    ILE C   5      54.781  29.064  33.511  1.00 22.91 LIG 0.16  HD
BRANCH 51 53
ATOM     53  CA  ILE C   5      53.242  27.871  33.823  1.00 27.58 LIG 0.18  C 
BRANCH 53 54
ATOM     54  C   ILE C   5      52.540  27.296  32.595  1.00 33.14 LIG 0.24  C 
ATOM     55  N   HIS C   6      51.401  26.622  32.801  1.00 39.14 LIG-0.35  N 
ATOM     56 H    HIS C   6      51.093  26.454  33.587  1.00 39.14 LIG 0.16  HD
ATOM     57 O    ILE C   5      53.104  27.387  31.508  1.00 25.88 LIG-0.27  OA
BRANCH 55 58
ATOM     58  CA  HIS C   6      50.534  26.084  31.691  1.00 56.87 LIG 0.17  C 
BRANCH 58 59
ATOM     59  CB  HIS C   6      50.916  26.733  30.329  1.00 66.39 LIG 0.09  C 
BRANCH 59 60
ATOM     60  CG  HIS C   6      50.463  28.156  30.163  1.00 78.50 LIG 0.06  A 
ATOM     61  CD2 HIS C   6      49.936  28.792  29.086  1.00 82.71 LIG 0.14  A 
ATOM     62 NE2  HIS C   6      49.644  30.080  29.473  1.00 84.02 LIG-0.25  NA
ATOM     63  CE1 HIS C   6      49.958  30.228  30.750  1.00 85.20 LIG 0.23  A 
ATOM     64 ND1  HIS C   6      50.449  29.080  31.193  1.00 88.66 LIG-0.24  NA
ENDBRANCH 59 60
ENDBRANCH 58 59
BRANCH 58 65
ATOM     65  C   HIS C   6      50.513  24.563  31.485  1.00 59.18 LIG 0.22  C 
ATOM     66 O    HIS C   6      50.524  23.783  32.475  1.00 63.69 LIG-0.29  OA
ENDBRANCH 58 65
ENDBRANCH 55 58
ENDBRANCH 53 54
BRANCH 53 67
ATOM     67  CB  ILE C   5      52.516  29.091  34.375  1.00 28.54 LIG 0.01  C 
ATOM     68  CG2 ILE C   5      51.167  28.644  34.933  1.00 32.34 LIG 0.01  C 
BRANCH 67 69
ATOM     69  CG1 ILE C   5      53.452  29.748  35.404  1.00 30.21 LIG 0.00  C 
ATOM     70  CD1 ILE C   5      53.907  31.152  35.095  1.00 32.85 LIG 0.01  C 
ENDBRANCH 67 69
ENDBRANCH 53 67
ENDBRANCH 51 53
ENDBRANCH 39 49
ENDBRANCH 3 39
TORSDOF 26
ENDMDL
MODEL 14
USER: ADFR SOLUTION from run 86
USER: SCORE 23.018104 LL:  -5.163 LR: -18.459 RR:   0.000 FEB: -10.704
USER: RMSD 4.573317
USER: SEED 85
USER: STATUS no improvement in best in 8 clusters for 5 generations
USER: GENES 28
USER: genes 0 Translation |==|  0.70331 0.44219 0.53230
USER: genes 1 Rotation |==|  0.52677 0.52282 0.65939 0.97261
USER: genes 2 Torsion [N]-C--CA-[N] |==|  0.34856
USER: genes 3 Torsion [C]-CA--N-[C] |==|  0.78528
USER: genes 4 Torsion [N]-C--CA-[N] |==|  0.08293
USER: genes 5 Torsion [C]-CA--CB-[CG] |==|  0.49531
USER: genes 6 Torsion [CA]-CB--CG-[CD] |==|  0.70971
USER: genes 7 Torsion [CB]-CG--CD-[NE] |==|  0.44968
USER: genes 8 Torsion [CG]-CD--NE-[CZ] |==|  0.46531
USER: genes 9 Torsion [C]-CA--N-[C] |==|  0.75534
USER: genes 10 Torsion [N]-C--CA-[N] |==|  0.37735
USER: genes 11 Torsion [C]-CA--CB-[CG] |==|  0.42273
USER: genes 12 Torsion [CA]-CB--CG-[OD2] |==|  0.48705
USER: genes 13 Torsion [C]-CA--N-[H1] |==|  0.39653
USER: genes 14 Torsion [C]-CA--CB-[CG1] |==|  0.48834
USER: genes 15 Torsion [C]-N--CA-[CB] |==|  0.81946
USER: genes 16 Torsion [N]-CA--CB-[CG] |==|  0.82234
USER: genes 17 Torsion [CA]-CB--CG-[CD2] |==|  0.19603
USER: genes 18 Torsion [CE2]-CZ--OH-[HH] |==|  0.70985
USER: genes 19 Torsion [N]-CA--C-[N] |==|  0.40535
USER: genes 20 Torsion [C]-N--CA-[C] |==|  0.76863
USER: genes 21 Torsion [N]-CA--C-[N] |==|  0.38425
USER: genes 22 Torsion [C]-N--CA-[CB] |==|  0.79533
USER: genes 23 Torsion [N]-CA--CB-[CG] |==|  0.80586
USER: genes 24 Torsion [CA]-CB--CG-[CD2] |==|  0.61803
USER: genes 25 Torsion [N]-CA--C-[O] |==|  0.56203
USER: genes 26 Torsion [N]-CA--CB-[CG1] |==|  0.65643
USER: genes 27 Torsion [CA]-CB--CG1-[CD1] |==|  0.91253
ROOT
ATOM      1  C   VAL C   3      57.651  27.856  35.209  1.00 15.94 LIG 0.24  C 
ATOM      2 O    VAL C   3      56.493  27.522  35.366  1.00 17.86 LIG-0.27  OA
ATOM      3  N   TYR C   4      58.196  27.921  33.998  1.00 16.41 LIG-0.35  N 
ATOM      4 H    TYR C   4      59.016  28.133  33.851  1.00 16.41 LIG 0.16  HD
ENDROOT
BRANCH 1 5
ATOM      5  CA  VAL C   3      58.527  28.172  36.438  1.00 16.01 LIG 0.18  C 
BRANCH 5 6
ATOM      6  N   VAL C   3      57.829  29.232  37.197  1.00 15.77 LIG-0.35  N 
ATOM      7 H    VAL C   3      57.412  28.968  37.902  1.00 15.77 LIG 0.16  HD
ATOM      8  C   ARG C   2      57.883  30.482  36.770  1.00 16.54 LIG 0.24  C 
ATOM      9 O    ARG C   2      58.590  30.832  35.800  1.00 14.63 LIG-0.27  OA
BRANCH 8 10
ATOM     10  CA  ARG C   2      57.058  31.504  37.528  1.00 19.03 LIG 0.18  C 
BRANCH 10 11
ATOM     11  CB  ARG C   2      57.726  32.878  37.406  1.00 20.38 LIG 0.04  C 
BRANCH 11 12
ATOM     12  CG  ARG C   2      56.999  33.995  38.075  1.00 20.75 LIG 0.02  C 
BRANCH 12 13
ATOM     13  CD  ARG C   2      56.312  34.836  37.092  1.00 22.55 LIG 0.14  C 
BRANCH 13 14
ATOM     14  NE  ARG C   2      55.286  35.649  37.685  1.00 20.36 LIG-0.23  N 
ATOM     15  CZ  ARG C   2      54.685  36.652  37.079  1.00 23.11 LIG 0.67  C 
ATOM     16  NH1 ARG C   2      54.902  36.888  35.833  1.00 23.20 LIG-0.23  N 
ATOM     17  NH2 ARG C   2      53.769  37.362  37.747  1.00 25.55 LIG-0.23  N 
ATOM     18 1HH1 ARG C   2      55.443  36.389  35.388  1.00 23.20 LIG 0.17  HD
ATOM     19 2HH1 ARG C   2      54.505  37.545  35.444  1.00 23.20 LIG 0.17  HD
ATOM     20 2HH2 ARG C   2      53.369  38.019  37.362  1.00 25.55 LIG 0.17  HD
ATOM     21 1HH2 ARG C   2      53.579  37.161  38.562  1.00 25.55 LIG 0.17  HD
ATOM     22 HE   ARG C   2      55.048  35.468  38.491  1.00 20.36 LIG 0.18  HD
ENDBRANCH 13 14
ENDBRANCH 12 13
ENDBRANCH 11 12
ENDBRANCH 10 11
BRANCH 10 23
ATOM     23  N   ARG C   2      56.917  31.124  38.943  1.00 19.42 LIG-0.35  N 
ATOM     24  C   ASP C   1      55.919  30.337  39.318  1.00 19.51 LIG 0.25  C 
ATOM     25 O    ASP C   1      55.225  29.710  38.500  1.00 19.29 LIG-0.27  OA
ATOM     26 H    ARG C   2      57.515  31.446  39.471  1.00 19.42 LIG 0.16  HD
BRANCH 24 27
ATOM     27  CA  ASP C   1      55.612  30.231  40.802  1.00 19.04 LIG 0.28  C 
BRANCH 27 28
ATOM     28  CB  ASP C   1      56.132  28.916  41.321  1.00 21.34 LIG 0.15  C 
BRANCH 28 29
ATOM     29  CG  ASP C   1      56.499  28.986  42.826  1.00 23.67 LIG 0.17  C 
ATOM     30 OD2  ASP C   1      56.860  27.917  43.390  1.00 27.41 LIG-0.65  OA
ATOM     31 OD1  ASP C   1      56.401  30.091  43.453  1.00 20.87 LIG-0.65  OA
ENDBRANCH 28 29
ENDBRANCH 27 28
BRANCH 27 32
ATOM     32  N   ASP C   1      54.114  30.314  40.958  1.00 18.38 LIG-0.07  N 
ATOM     33 H1   ASP C   1      53.853  29.766  41.609  1.00 18.38 LIG 0.28  HD
ATOM     34 H3   ASP C   1      53.722  30.079  40.195  1.00 18.38 LIG 0.28  HD
ATOM     35 H2   ASP C   1      53.882  31.149  41.164  1.00 18.38 LIG 0.28  HD
ENDBRANCH 27 32
ENDBRANCH 24 27
ENDBRANCH 10 23
ENDBRANCH 8 10
ENDBRANCH 5 6
BRANCH 5 36
ATOM     36  CB  VAL C   3      58.684  26.891  37.228  1.00 17.74 LIG 0.01  C 
ATOM     37  CG1 VAL C   3      59.616  27.071  38.408  1.00 20.72 LIG 0.01  C 
ATOM     38  CG2 VAL C   3      57.347  26.410  37.764  1.00 18.64 LIG 0.01  C 
ENDBRANCH 5 36
ENDBRANCH 1 5
BRANCH 3 39
ATOM     39  CA  TYR C   4      57.425  27.628  32.796  1.00 17.90 LIG 0.18  C 
BRANCH 39 40
ATOM     40  CB  TYR C   4      56.997  26.193  32.773  1.00 20.19 LIG 0.07  C 
BRANCH 40 41
ATOM     41  CG  TYR C   4      58.103  25.174  32.699  1.00 23.00 LIG-0.06  A 
ATOM     42  CD2 TYR C   4      58.941  24.957  33.793  1.00 26.62 LIG 0.01  A 
ATOM     43  CE2 TYR C   4      59.965  24.033  33.745  1.00 28.63 LIG 0.04  A 
ATOM     44  CZ  TYR C   4      60.163  23.321  32.602  1.00 25.42 LIG 0.07  A 
ATOM     45  CE1 TYR C   4      59.344  23.473  31.535  1.00 26.89 LIG 0.04  A 
ATOM     46  CD1 TYR C   4      58.305  24.414  31.583  1.00 24.41 LIG 0.01  A 
BRANCH 44 47
ATOM     47 OH   TYR C   4      61.172  22.403  32.560  1.00 32.39 LIG-0.36  OA
ATOM     48 HH   TYR C   4      61.812  22.711  32.111  1.00 32.39 LIG 0.22  HD
ENDBRANCH 44 47
ENDBRANCH 40 41
ENDBRANCH 39 40
BRANCH 39 49
ATOM     49  C   TYR C   4      56.221  28.593  32.593  1.00 20.63 LIG 0.24  C 
ATOM     50 O    TYR C   4      55.682  29.120  33.526  1.00 19.73 LIG-0.27  OA
ATOM     51  N   ILE C   5      55.912  28.896  31.341  1.00 22.91 LIG-0.35  N 
ATOM     52 H    ILE C   5      56.358  28.629  30.655  1.00 22.91 LIG 0.16  HD
BRANCH 51 53
ATOM     53  CA  ILE C   5      54.762  29.726  31.030  1.00 27.58 LIG 0.18  C 
BRANCH 53 54
ATOM     54  C   ILE C   5      53.502  28.865  31.005  1.00 33.14 LIG 0.24  C 
ATOM     55  N   HIS C   6      52.400  29.376  31.570  1.00 39.14 LIG-0.35  N 
ATOM     56 H    HIS C   6      52.396  30.127  31.991  1.00 39.14 LIG 0.16  HD
ATOM     57 O    ILE C   5      53.589  27.721  30.568  1.00 25.88 LIG-0.27  OA
BRANCH 55 58
ATOM     58  CA  HIS C   6      51.052  28.702  31.537  1.00 56.87 LIG 0.17  C 
BRANCH 58 59
ATOM     59  CB  HIS C   6      50.416  28.812  30.120  1.00 66.39 LIG 0.09  C 
BRANCH 59 60
ATOM     60  CG  HIS C   6      49.977  30.196  29.734  1.00 78.50 LIG 0.06  A 
ATOM     61  CD2 HIS C   6      48.850  30.619  29.108  1.00 82.71 LIG 0.14  A 
ATOM     62 NE2  HIS C   6      48.912  31.993  29.038  1.00 84.02 LIG-0.25  NA
ATOM     63  CE1 HIS C   6      50.027  32.404  29.620  1.00 85.20 LIG 0.23  A 
ATOM     64 ND1  HIS C   6      50.685  31.341  30.055  1.00 88.66 LIG-0.24  NA
ENDBRANCH 59 60
ENDBRANCH 58 59
BRANCH 58 65
ATOM     65  C   HIS C   6      50.989  27.227  31.955  1.00 59.18 LIG 0.22  C 
ATOM     66 O    HIS C   6      50.040  26.492  31.572  1.00 63.69 LIG-0.29  OA
ENDBRANCH 58 65
ENDBRANCH 55 58
ENDBRANCH 53 54
BRANCH 53 67
ATOM     67  CB  ILE C   5      54.987  30.448  29.708  1.00 28.54 LIG 0.01  C 
ATOM     68  CG2 ILE C   5      54.011  29.888  28.676  1.00 32.34 LIG 0.01  C 
BRANCH 67 69
ATOM     69  CG1 ILE C   5      54.837  31.954  29.983  1.00 30.21 LIG 0.00  C 
ATOM     70  CD1 ILE C   5      53.869  32.343  31.072  1.00 32.85 LIG 0.01  C 
ENDBRANCH 67 69
ENDBRANCH 53 67
ENDBRANCH 51 53
ENDBRANCH 39 49
ENDBRANCH 3 39
TORSDOF 26
ENDMDL
MODEL 15
USER: ADFR SOLUTION from run 58
USER: SCORE 21.356128 LL:  -5.313 LR: -18.375 RR:   0.000 FEB: -10.619
USER: RMSD 3.740669
USER: SEED 57
USER: STATUS no improvement in best in 9 clusters for 5 generations
USER: GENES 28
USER: genes 0 Translation |==|  0.68461 0.45114 0.51077
USER: genes 1 Rotation |==|  0.51802 0.49198 0.58923 0.99158
USER: genes 2 Torsion [N]-C--CA-[N] |==|  0.38778
USER: genes 3 Torsion [C]-CA--N-[C] |==|  0.76643
USER: genes 4 Torsion [N]-C--CA-[N] |==|  0.13356
USER: genes 5 Torsion [C]-CA--CB-[CG] |==|  0.49915
USER: genes 6 Torsion [CA]-CB--CG-[CD] |==|  0.68020
USER: genes 7 Torsion [CB]-CG--CD-[NE] |==|  0.44526
USER: genes 8 Torsion [CG]-CD--NE-[CZ] |==|  0.49581
USER: genes 9 Torsion [C]-CA--N-[C] |==|  0.74445
USER: genes 10 Torsion [N]-C--CA-[N] |==|  0.39783
USER: genes 11 Torsion [C]-CA--CB-[CG] |==|  0.46141
USER: genes 12 Torsion [CA]-CB--CG-[OD2] |==|  0.43053
USER: genes 13 Torsion [C]-CA--N-[H1] |==|  0.39837
USER: genes 14 Torsion [C]-CA--CB-[CG1] |==|  0.47827
USER: genes 15 Torsion [C]-N--CA-[CB] |==|  0.39909
USER: genes 16 Torsion [N]-CA--CB-[CG] |==|  0.54004
USER: genes 17 Torsion [CA]-CB--CG-[CD2] |==|  0.67611
USER: genes 18 Torsion [CE2]-CZ--OH-[HH] |==|  0.22319
USER: genes 19 Torsion [N]-CA--C-[N] |==|  0.06404
USER: genes 20 Torsion [C]-N--CA-[C] |==|  0.69553
USER: genes 21 Torsion [N]-CA--C-[N] |==|  0.40671
USER: genes 22 Torsion [C]-N--CA-[CB] |==|  0.85668
USER: genes 23 Torsion [N]-CA--CB-[CG] |==|  0.61287
USER: genes 24 Torsion [CA]-CB--CG-[CD2] |==|  0.86597
USER: genes 25 Torsion [N]-CA--C-[O] |==|  0.49646
USER: genes 26 Torsion [N]-CA--CB-[CG1] |==|  0.91124
USER: genes 27 Torsion [CA]-CB--CG1-[CD1] |==|  0.29930
ROOT
ATOM      1  C   VAL C   3      57.328  28.084  34.644  1.00 15.94 LIG 0.24  C 
ATOM      2 O    VAL C   3      56.113  28.105  34.663  1.00 17.86 LIG-0.27  OA
ATOM      3  N   TYR C   4      58.002  27.955  33.505  1.00 16.41 LIG-0.35  N 
ATOM      4 H    TYR C   4      58.859  27.916  33.456  1.00 16.41 LIG 0.16  HD
ENDROOT
BRANCH 1 5
ATOM      5  CA  VAL C   3      58.113  28.166  35.969  1.00 16.01 LIG 0.18  C 
BRANCH 5 6
ATOM      6  N   VAL C   3      57.443  29.190  36.798  1.00 15.77 LIG-0.35  N 
ATOM      7 H    VAL C   3      56.873  28.889  37.368  1.00 15.77 LIG 0.16  HD
ATOM      8  C   ARG C   2      57.744  30.467  36.627  1.00 16.54 LIG 0.24  C 
ATOM      9 O    ARG C   2      58.655  30.846  35.861  1.00 14.63 LIG-0.27  OA
BRANCH 8 10
ATOM     10  CA  ARG C   2      56.945  31.475  37.429  1.00 19.03 LIG 0.18  C 
BRANCH 10 11
ATOM     11  CB  ARG C   2      57.595  32.856  37.289  1.00 20.38 LIG 0.04  C 
BRANCH 11 12
ATOM     12  CG  ARG C   2      56.906  33.956  38.025  1.00 20.75 LIG 0.02  C 
BRANCH 12 13
ATOM     13  CD  ARG C   2      56.362  34.948  37.096  1.00 22.55 LIG 0.14  C 
BRANCH 13 14
ATOM     14  NE  ARG C   2      55.333  35.754  37.692  1.00 20.36 LIG-0.23  N 
ATOM     15  CZ  ARG C   2      54.704  36.735  37.079  1.00 23.11 LIG 0.67  C 
ATOM     16  NH1 ARG C   2      54.894  36.951  35.824  1.00 23.20 LIG-0.23  N 
ATOM     17  NH2 ARG C   2      53.788  37.443  37.751  1.00 25.55 LIG-0.23  N 
ATOM     18 1HH1 ARG C   2      55.435  36.453  35.379  1.00 23.20 LIG 0.17  HD
ATOM     19 2HH1 ARG C   2      54.479  37.593  35.431  1.00 23.20 LIG 0.17  HD
ATOM     20 2HH2 ARG C   2      53.371  38.085  37.361  1.00 25.55 LIG 0.17  HD
ATOM     21 1HH2 ARG C   2      53.617  37.255  38.573  1.00 25.55 LIG 0.17  HD
ATOM     22 HE   ARG C   2      55.114  35.585  38.506  1.00 20.36 LIG 0.18  HD
ENDBRANCH 13 14
ENDBRANCH 12 13
ENDBRANCH 11 12
ENDBRANCH 10 11
BRANCH 10 23
ATOM     23  N   ARG C   2      56.871  31.083  38.846  1.00 19.42 LIG-0.35  N 
ATOM     24  C   ASP C   1      55.854  30.348  39.275  1.00 19.51 LIG 0.25  C 
ATOM     25 O    ASP C   1      55.076  29.773  38.495  1.00 19.29 LIG-0.27  OA
ATOM     26 H    ARG C   2      57.517  31.363  39.340  1.00 19.42 LIG 0.16  HD
BRANCH 24 27
ATOM     27  CA  ASP C   1      55.634  30.238  40.773  1.00 19.04 LIG 0.28  C 
BRANCH 27 28
ATOM     28  CB  ASP C   1      56.271  28.968  41.274  1.00 21.34 LIG 0.15  C 
BRANCH 28 29
ATOM     29  CG  ASP C   1      56.395  28.946  42.820  1.00 23.67 LIG 0.17  C 
ATOM     30 OD2  ASP C   1      56.446  27.820  43.386  1.00 27.41 LIG-0.65  OA
ATOM     31 OD1  ASP C   1      56.415  30.042  43.470  1.00 20.87 LIG-0.65  OA
ENDBRANCH 28 29
ENDBRANCH 27 28
BRANCH 27 32
ATOM     32  N   ASP C   1      54.144  30.219  41.009  1.00 18.38 LIG-0.07  N 
ATOM     33 H1   ASP C   1      53.957  29.668  41.683  1.00 18.38 LIG 0.28  HD
ATOM     34 H3   ASP C   1      53.731  29.939  40.273  1.00 18.38 LIG 0.28  HD
ATOM     35 H2   ASP C   1      53.865  31.040  41.211  1.00 18.38 LIG 0.28  HD
ENDBRANCH 27 32
ENDBRANCH 24 27
ENDBRANCH 10 23
ENDBRANCH 8 10
ENDBRANCH 5 6
BRANCH 5 36
ATOM     36  CB  VAL C   3      58.088  26.792  36.600  1.00 17.74 LIG 0.01  C 
ATOM     37  CG1 VAL C   3      58.991  26.716  37.813  1.00 20.72 LIG 0.01  C 
ATOM     38  CG2 VAL C   3      56.686  26.417  37.044  1.00 18.64 LIG 0.01  C 
ENDBRANCH 5 36
ENDBRANCH 1 5
BRANCH 3 39
ATOM     39  CA  TYR C   4      57.320  27.865  32.219  1.00 17.90 LIG 0.18  C 
BRANCH 39 40
ATOM     40  CB  TYR C   4      58.099  28.572  31.153  1.00 20.19 LIG 0.07  C 
BRANCH 40 41
ATOM     41  CG  TYR C   4      57.364  28.848  29.869  1.00 23.00 LIG-0.06  A 
ATOM     42  CD2 TYR C   4      57.782  28.265  28.672  1.00 26.62 LIG 0.01  A 
ATOM     43  CE2 TYR C   4      57.127  28.509  27.483  1.00 28.63 LIG 0.04  A 
ATOM     44  CZ  TYR C   4      56.049  29.341  27.478  1.00 25.42 LIG 0.07  A 
ATOM     45  CE1 TYR C   4      55.587  29.890  28.625  1.00 26.89 LIG 0.04  A 
ATOM     46  CD1 TYR C   4      56.256  29.645  29.834  1.00 24.41 LIG 0.01  A 
BRANCH 44 47
ATOM     47 OH   TYR C   4      55.399  29.575  26.301  1.00 32.39 LIG-0.36  OA
ATOM     48 HH   TYR C   4      54.880  28.935  26.136  1.00 32.39 LIG 0.22  HD
ENDBRANCH 44 47
ENDBRANCH 40 41
ENDBRANCH 39 40
BRANCH 39 49
ATOM     49  C   TYR C   4      56.975  26.404  31.811  1.00 20.63 LIG 0.24  C 
ATOM     50 O    TYR C   4      56.910  26.079  30.658  1.00 19.73 LIG-0.27  OA
ATOM     51  N   ILE C   5      56.886  25.522  32.796  1.00 22.91 LIG-0.35  N 
ATOM     52 H    ILE C   5      57.047  25.701  33.621  1.00 22.91 LIG 0.16  HD
BRANCH 51 53
ATOM     53  CA  ILE C   5      56.495  24.147  32.540  1.00 27.58 LIG 0.18  C 
BRANCH 53 54
ATOM     54  C   ILE C   5      55.098  23.899  33.102  1.00 33.14 LIG 0.24  C 
ATOM     55  N   HIS C   6      54.314  23.041  32.435  1.00 39.14 LIG-0.35  N 
ATOM     56 H    HIS C   6      54.543  22.684  31.687  1.00 39.14 LIG 0.16  HD
ATOM     57 O    ILE C   5      54.731  24.570  34.063  1.00 25.88 LIG-0.27  OA
BRANCH 55 58
ATOM     58  CA  HIS C   6      52.952  22.607  32.914  1.00 56.87 LIG 0.17  C 
BRANCH 58 59
ATOM     59  CB  HIS C   6      53.020  22.099  34.384  1.00 66.39 LIG 0.09  C 
BRANCH 59 60
ATOM     60  CG  HIS C   6      52.189  20.879  34.665  1.00 78.50 LIG 0.06  A 
ATOM     61  CD2 HIS C   6      50.897  20.603  34.358  1.00 82.71 LIG 0.14  A 
ATOM     62 NE2  HIS C   6      50.634  19.326  34.798  1.00 84.02 LIG-0.25  NA
ATOM     63  CE1 HIS C   6      51.732  18.822  35.337  1.00 85.20 LIG 0.23  A 
ATOM     64 ND1  HIS C   6      52.688  19.735  35.265  1.00 88.66 LIG-0.24  NA
ENDBRANCH 59 60
ENDBRANCH 58 59
BRANCH 58 65
ATOM     65  C   HIS C   6      51.815  23.636  32.836  1.00 59.18 LIG 0.22  C 
ATOM     66 O    HIS C   6      50.647  23.328  33.198  1.00 63.69 LIG-0.29  OA
ENDBRANCH 58 65
ENDBRANCH 55 58
ENDBRANCH 53 54
BRANCH 53 67
ATOM     67  CB  ILE C   5      57.527  23.197  33.133  1.00 28.54 LIG 0.01  C 
ATOM     68  CG2 ILE C   5      57.448  21.866  32.388  1.00 32.34 LIG 0.01  C 
BRANCH 67 69
ATOM     69  CG1 ILE C   5      58.892  23.900  33.051  1.00 30.21 LIG 0.00  C 
ATOM     70  CD1 ILE C   5      59.471  24.394  34.353  1.00 32.85 LIG 0.01  C 
ENDBRANCH 67 69
ENDBRANCH 53 67
ENDBRANCH 51 53
ENDBRANCH 39 49
ENDBRANCH 3 39
TORSDOF 26
ENDMDL
MODEL 16
USER: ADFR SOLUTION from run 129
USER: SCORE 22.899105 LL:  -5.125 LR: -18.367 RR:   0.000 FEB: -10.611
USER: RMSD 4.156174
USER: SEED 128
USER: STATUS no improvement in best in 7 clusters for 5 generations
USER: GENES 28
USER: genes 0 Translation |==|  0.70602 0.43808 0.53639
USER: genes 1 Rotation |==|  0.48522 0.52614 0.60076 0.98882
USER: genes 2 Torsion [N]-C--CA-[N] |==|  0.39600
USER: genes 3 Torsion [C]-CA--N-[C] |==|  0.78629
USER: genes 4 Torsion [N]-C--CA-[N] |==|  0.07135
USER: genes 5 Torsion [C]-CA--CB-[CG] |==|  0.48586
USER: genes 6 Torsion [CA]-CB--CG-[CD] |==|  0.76261
USER: genes 7 Torsion [CB]-CG--CD-[NE] |==|  0.46609
USER: genes 8 Torsion [CG]-CD--NE-[CZ] |==|  0.39241
USER: genes 9 Torsion [C]-CA--N-[C] |==|  0.74989
USER: genes 10 Torsion [N]-C--CA-[N] |==|  0.37268
USER: genes 11 Torsion [C]-CA--CB-[CG] |==|  0.38155
USER: genes 12 Torsion [CA]-CB--CG-[OD2] |==|  0.56989
USER: genes 13 Torsion [C]-CA--N-[H1] |==|  0.43661
USER: genes 14 Torsion [C]-CA--CB-[CG1] |==|  0.75545
USER: genes 15 Torsion [C]-N--CA-[CB] |==|  0.79405
USER: genes 16 Torsion [N]-CA--CB-[CG] |==|  0.22277
USER: genes 17 Torsion [CA]-CB--CG-[CD2] |==|  0.70867
USER: genes 18 Torsion [CE2]-CZ--OH-[HH] |==|  0.59819
USER: genes 19 Torsion [N]-CA--C-[N] |==|  0.46596
USER: genes 20 Torsion [C]-N--CA-[C] |==|  0.68768
USER: genes 21 Torsion [N]-CA--C-[N] |==|  0.41680
USER: genes 22 Torsion [C]-N--CA-[CB] |==|  0.94685
USER: genes 23 Torsion [N]-CA--CB-[CG] |==|  0.44576
USER: genes 24 Torsion [CA]-CB--CG-[CD2] |==|  0.28799
USER: genes 25 Torsion [N]-CA--C-[O] |==|  0.15724
USER: genes 26 Torsion [N]-CA--CB-[CG1] |==|  0.93540
USER: genes 27 Torsion [CA]-CB--CG1-[CD1] |==|  0.28356
ROOT
ATOM      1  C   VAL C   3      57.698  27.751  35.316  1.00 15.94 LIG 0.24  C 
ATOM      2 O    VAL C   3      56.492  27.725  35.468  1.00 17.86 LIG-0.27  OA
ATOM      3  N   TYR C   4      58.254  27.474  34.141  1.00 16.41 LIG-0.35  N 
ATOM      4 H    TYR C   4      59.103  27.464  34.002  1.00 16.41 LIG 0.16  HD
ENDROOT
BRANCH 1 5
ATOM      5  CA  VAL C   3      58.611  28.071  36.517  1.00 16.01 LIG 0.18  C 
BRANCH 5 6
ATOM      6  N   VAL C   3      57.937  29.134  37.294  1.00 15.77 LIG-0.35  N 
ATOM      7 H    VAL C   3      57.546  28.873  38.014  1.00 15.77 LIG 0.16  HD
ATOM      8  C   ARG C   2      57.971  30.381  36.857  1.00 16.54 LIG 0.24  C 
ATOM      9 O    ARG C   2      58.642  30.727  35.861  1.00 14.63 LIG-0.27  OA
BRANCH 8 10
ATOM     10  CA  ARG C   2      57.171  31.406  37.637  1.00 19.03 LIG 0.18  C 
BRANCH 10 11
ATOM     11  CB  ARG C   2      57.886  32.759  37.570  1.00 20.38 LIG 0.04  C 
BRANCH 11 12
ATOM     12  CG  ARG C   2      57.149  33.895  38.196  1.00 20.75 LIG 0.02  C 
BRANCH 12 13
ATOM     13  CD  ARG C   2      56.201  34.489  37.252  1.00 22.55 LIG 0.14  C 
BRANCH 13 14
ATOM     14  NE  ARG C   2      55.281  35.391  37.890  1.00 20.36 LIG-0.23  N 
ATOM     15  CZ  ARG C   2      54.865  36.525  37.367  1.00 23.11 LIG 0.67  C 
ATOM     16  NH1 ARG C   2      55.171  36.839  36.157  1.00 23.20 LIG-0.23  N 
ATOM     17  NH2 ARG C   2      54.035  37.303  38.073  1.00 25.55 LIG-0.23  N 
ATOM     18 1HH1 ARG C   2      55.651  36.307  35.682  1.00 23.20 LIG 0.17  HD
ATOM     19 2HH1 ARG C   2      54.894  37.582  35.823  1.00 23.20 LIG 0.17  HD
ATOM     20 2HH2 ARG C   2      53.756  38.046  37.742  1.00 25.55 LIG 0.17  HD
ATOM     21 1HH2 ARG C   2      53.781  37.059  38.858  1.00 25.55 LIG 0.17  HD
ATOM     22 HE   ARG C   2      54.983  35.175  38.666  1.00 20.36 LIG 0.18  HD
ENDBRANCH 13 14
ENDBRANCH 12 13
ENDBRANCH 11 12
ENDBRANCH 10 11
BRANCH 10 23
ATOM     23  N   ARG C   2      56.997  30.984  39.037  1.00 19.42 LIG-0.35  N 
ATOM     24  C   ASP C   1      55.946  30.252  39.380  1.00 19.51 LIG 0.25  C 
ATOM     25 O    ASP C   1      55.217  29.703  38.537  1.00 19.29 LIG-0.27  OA
ATOM     26 H    ARG C   2      57.611  31.246  39.578  1.00 19.42 LIG 0.16  HD
BRANCH 24 27
ATOM     27  CA  ASP C   1      55.625  30.113  40.858  1.00 19.04 LIG 0.28  C 
BRANCH 27 28
ATOM     28  CB  ASP C   1      56.016  28.734  41.321  1.00 21.34 LIG 0.15  C 
BRANCH 28 29
ATOM     29  CG  ASP C   1      56.724  28.760  42.700  1.00 23.67 LIG 0.17  C 
ATOM     30 OD2  ASP C   1      57.507  27.809  42.972  1.00 27.41 LIG-0.65  OA
ATOM     31 OD1  ASP C   1      56.484  29.705  43.520  1.00 20.87 LIG-0.65  OA
ENDBRANCH 28 29
ENDBRANCH 27 28
BRANCH 27 32
ATOM     32  N   ASP C   1      54.141  30.332  41.018  1.00 18.38 LIG-0.07  N 
ATOM     33 H1   ASP C   1      53.864  29.947  41.771  1.00 18.38 LIG 0.28  HD
ATOM     34 H3   ASP C   1      53.712  29.973  40.326  1.00 18.38 LIG 0.28  HD
ATOM     35 H2   ASP C   1      53.970  31.205  41.051  1.00 18.38 LIG 0.28  HD
ENDBRANCH 27 32
ENDBRANCH 24 27
ENDBRANCH 10 23
ENDBRANCH 8 10
ENDBRANCH 5 6
BRANCH 5 36
ATOM     36  CB  VAL C   3      58.792  26.793  37.306  1.00 17.74 LIG 0.01  C 
ATOM     37  CG1 VAL C   3      57.702  26.614  38.341  1.00 20.72 LIG 0.01  C 
ATOM     38  CG2 VAL C   3      58.770  25.579  36.395  1.00 18.64 LIG 0.01  C 
ENDBRANCH 5 36
ENDBRANCH 1 5
BRANCH 3 39
ATOM     39  CA  TYR C   4      57.448  27.158  32.969  1.00 17.90 LIG 0.18  C 
BRANCH 39 40
ATOM     40  CB  TYR C   4      56.873  25.778  33.073  1.00 20.19 LIG 0.07  C 
BRANCH 40 41
ATOM     41  CG  TYR C   4      55.644  25.638  33.931  1.00 23.00 LIG-0.06  A 
ATOM     42  CD2 TYR C   4      55.727  25.060  35.199  1.00 26.62 LIG 0.01  A 
ATOM     43  CE2 TYR C   4      54.612  24.916  36.000  1.00 28.63 LIG 0.04  A 
ATOM     44  CZ  TYR C   4      53.405  25.343  35.539  1.00 25.42 LIG 0.07  A 
ATOM     45  CE1 TYR C   4      53.293  25.948  34.333  1.00 26.89 LIG 0.04  A 
ATOM     46  CD1 TYR C   4      54.425  26.091  33.518  1.00 24.41 LIG 0.01  A 
BRANCH 44 47
ATOM     47 OH   TYR C   4      52.305  25.205  36.336  1.00 32.39 LIG-0.36  OA
ATOM     48 HH   TYR C   4      51.635  25.031  35.860  1.00 32.39 LIG 0.22  HD
ENDBRANCH 44 47
ENDBRANCH 40 41
ENDBRANCH 39 40
BRANCH 39 49
ATOM     49  C   TYR C   4      56.351  28.221  32.677  1.00 20.63 LIG 0.24  C 
ATOM     50 O    TYR C   4      56.148  29.130  33.434  1.00 19.73 LIG-0.27  OA
ATOM     51  N   ILE C   5      55.748  28.139  31.500  1.00 22.91 LIG-0.35  N 
ATOM     52 H    ILE C   5      55.957  27.572  30.888  1.00 22.91 LIG 0.16  HD
BRANCH 51 53
ATOM     53  CA  ILE C   5      54.657  29.032  31.151  1.00 27.58 LIG 0.18  C 
BRANCH 53 54
ATOM     54  C   ILE C   5      53.359  28.235  31.044  1.00 33.14 LIG 0.24  C 
ATOM     55  N   HIS C   6      52.221  28.877  31.341  1.00 39.14 LIG-0.35  N 
ATOM     56 H    HIS C   6      52.204  29.683  31.642  1.00 39.14 LIG 0.16  HD
ATOM     57 O    ILE C   5      53.433  27.034  30.798  1.00 25.88 LIG-0.27  OA
BRANCH 55 58
ATOM     58  CA  HIS C   6      50.851  28.268  31.185  1.00 56.87 LIG 0.17  C 
BRANCH 58 59
ATOM     59  CB  HIS C   6      50.897  27.048  30.219  1.00 66.39 LIG 0.09  C 
BRANCH 59 60
ATOM     60  CG  HIS C   6      49.733  26.105  30.342  1.00 78.50 LIG 0.06  A 
ATOM     61  CD2 HIS C   6      48.646  25.941  29.548  1.00 82.71 LIG 0.14  A 
ATOM     62 NE2  HIS C   6      47.904  24.910  30.078  1.00 84.02 LIG-0.25  NA
ATOM     63  CE1 HIS C   6      48.523  24.439  31.148  1.00 85.20 LIG 0.23  A 
ATOM     64 ND1  HIS C   6      49.633  25.138  31.327  1.00 88.66 LIG-0.24  NA
ENDBRANCH 59 60
ENDBRANCH 58 59
BRANCH 58 65
ATOM     65  C   HIS C   6      50.129  27.815  32.462  1.00 59.18 LIG 0.22  C 
ATOM     66 O    HIS C   6      49.920  28.627  33.402  1.00 63.69 LIG-0.29  OA
ENDBRANCH 58 65
ENDBRANCH 55 58
ENDBRANCH 53 54
BRANCH 53 67
ATOM     67  CB  ILE C   5      54.983  29.768  29.859  1.00 28.54 LIG 0.01  C 
ATOM     68  CG2 ILE C   5      54.348  31.156  29.916  1.00 32.34 LIG 0.01  C 
BRANCH 67 69
ATOM     69  CG1 ILE C   5      56.513  29.766  29.710  1.00 30.21 LIG 0.00  C 
ATOM     70  CD1 ILE C   5      57.090  28.770  28.736  1.00 32.85 LIG 0.01  C 
ENDBRANCH 67 69
ENDBRANCH 53 67
ENDBRANCH 51 53
ENDBRANCH 39 49
ENDBRANCH 3 39
TORSDOF 26
ENDMDL
MODEL 17
USER: ADFR SOLUTION from run 91
USER: SCORE 22.671733 LL:  -5.900 LR: -18.298 RR:   0.000 FEB: -10.542
USER: RMSD 5.140525
USER: SEED 90
USER: STATUS searching
USER: GENES 28
USER: genes 0 Translation |==|  0.69171 0.44824 0.51920
USER: genes 1 Rotation |==|  0.54743 0.54328 0.67146 0.96527
USER: genes 2 Torsion [N]-C--CA-[N] |==|  0.34447
USER: genes 3 Torsion [C]-CA--N-[C] |==|  0.76228
USER: genes 4 Torsion [N]-C--CA-[N] |==|  0.08863
USER: genes 5 Torsion [C]-CA--CB-[CG] |==|  0.48341
USER: genes 6 Torsion [CA]-CB--CG-[CD] |==|  0.70938
USER: genes 7 Torsion [CB]-CG--CD-[NE] |==|  0.44420
USER: genes 8 Torsion [CG]-CD--NE-[CZ] |==|  0.48731
USER: genes 9 Torsion [C]-CA--N-[C] |==|  0.72743
USER: genes 10 Torsion [N]-C--CA-[N] |==|  0.40497
USER: genes 11 Torsion [C]-CA--CB-[CG] |==|  0.46345
USER: genes 12 Torsion [CA]-CB--CG-[OD2] |==|  0.48241
USER: genes 13 Torsion [C]-CA--N-[H1] |==|  0.44557
USER: genes 14 Torsion [C]-CA--CB-[CG1] |==|  0.75424
USER: genes 15 Torsion [C]-N--CA-[CB] |==|  0.20039
USER: genes 16 Torsion [N]-CA--CB-[CG] |==|  0.76168
USER: genes 17 Torsion [CA]-CB--CG-[CD2] |==|  0.82854
USER: genes 18 Torsion [CE2]-CZ--OH-[HH] |==|  0.99770
USER: genes 19 Torsion [N]-CA--C-[N] |==|  0.34470
USER: genes 20 Torsion [C]-N--CA-[C] |==|  0.75632
USER: genes 21 Torsion [N]-CA--C-[N] |==|  0.98529
USER: genes 22 Torsion [C]-N--CA-[CB] |==|  0.53845
USER: genes 23 Torsion [N]-CA--CB-[CG] |==|  0.18996
USER: genes 24 Torsion [CA]-CB--CG-[CD2] |==|  0.95023
USER: genes 25 Torsion [N]-CA--C-[O] |==|  0.90438
USER: genes 26 Torsion [N]-CA--CB-[CG1] |==|  0.92534
USER: genes 27 Torsion [CA]-CB--CG1-[CD1] |==|  0.57781
ROOT
ATOM      1  C   VAL C   3      57.451  28.010  34.865  1.00 15.94 LIG 0.24  C 
ATOM      2 O    VAL C   3      56.334  27.602  35.118  1.00 17.86 LIG-0.27  OA
ATOM      3  N   TYR C   4      57.863  28.170  33.611  1.00 16.41 LIG-0.35  N 
ATOM      4 H    TYR C   4      58.651  28.438  33.395  1.00 16.41 LIG 0.16  HD
ENDROOT
BRANCH 1 5
ATOM      5  CA  VAL C   3      58.432  28.311  36.017  1.00 16.01 LIG 0.18  C 
BRANCH 5 6
ATOM      6  N   VAL C   3      57.777  29.314  36.883  1.00 15.77 LIG-0.35  N 
ATOM      7 H    VAL C   3      57.344  28.995  37.555  1.00 15.77 LIG 0.16  HD
ATOM      8  C   ARG C   2      57.887  30.599  36.591  1.00 16.54 LIG 0.24  C 
ATOM      9 O    ARG C   2      58.614  31.019  35.665  1.00 14.63 LIG-0.27  OA
BRANCH 8 10
ATOM     10  CA  ARG C   2      57.103  31.570  37.452  1.00 19.03 LIG 0.18  C 
BRANCH 10 11
ATOM     11  CB  ARG C   2      57.804  32.933  37.437  1.00 20.38 LIG 0.04  C 
BRANCH 11 12
ATOM     12  CG  ARG C   2      57.068  34.029  38.131  1.00 20.75 LIG 0.02  C 
BRANCH 12 13
ATOM     13  CD  ARG C   2      56.448  34.938  37.165  1.00 22.55 LIG 0.14  C 
BRANCH 13 14
ATOM     14  NE  ARG C   2      55.381  35.709  37.742  1.00 20.36 LIG-0.23  N 
ATOM     15  CZ  ARG C   2      54.720  36.657  37.111  1.00 23.11 LIG 0.67  C 
ATOM     16  NH1 ARG C   2      54.915  36.868  35.857  1.00 23.20 LIG-0.23  N 
ATOM     17  NH2 ARG C   2      53.769  37.335  37.765  1.00 25.55 LIG-0.23  N 
ATOM     18 1HH1 ARG C   2      55.481  36.387  35.423  1.00 23.20 LIG 0.17  HD
ATOM     19 2HH1 ARG C   2      54.479  37.489  35.452  1.00 23.20 LIG 0.17  HD
ATOM     20 2HH2 ARG C   2      53.330  37.956  37.364  1.00 25.55 LIG 0.17  HD
ATOM     21 1HH2 ARG C   2      53.596  37.148  38.587  1.00 25.55 LIG 0.17  HD
ATOM     22 HE   ARG C   2      55.159  35.539  38.555  1.00 20.36 LIG 0.18  HD
ENDBRANCH 13 14
ENDBRANCH 12 13
ENDBRANCH 11 12
ENDBRANCH 10 11
BRANCH 10 23
ATOM     23  N   ARG C   2      56.980  31.070  38.832  1.00 19.42 LIG-0.35  N 
ATOM     24  C   ASP C   1      55.873  30.447  39.211  1.00 19.51 LIG 0.25  C 
ATOM     25 O    ASP C   1      55.022  30.053  38.396  1.00 19.29 LIG-0.27  OA
ATOM     26 H    ARG C   2      57.659  31.216  39.337  1.00 19.42 LIG 0.16  HD
BRANCH 24 27
ATOM     27  CA  ASP C   1      55.644  30.239  40.697  1.00 19.04 LIG 0.28  C 
BRANCH 27 28
ATOM     28  CB  ASP C   1      56.161  28.879  41.091  1.00 21.34 LIG 0.15  C 
BRANCH 28 29
ATOM     29  CG  ASP C   1      56.265  28.717  42.630  1.00 23.67 LIG 0.17  C 
ATOM     30 OD2  ASP C   1      56.570  27.578  43.078  1.00 27.41 LIG-0.65  OA
ATOM     31 OD1  ASP C   1      56.019  29.709  43.391  1.00 20.87 LIG-0.65  OA
ENDBRANCH 28 29
ENDBRANCH 27 28
BRANCH 27 32
ATOM     32  N   ASP C   1      54.159  30.340  40.942  1.00 18.38 LIG-0.07  N 
ATOM     33 H1   ASP C   1      53.959  29.953  41.719  1.00 18.38 LIG 0.28  HD
ATOM     34 H3   ASP C   1      53.721  29.930  40.285  1.00 18.38 LIG 0.28  HD
ATOM     35 H2   ASP C   1      53.919  31.196  40.968  1.00 18.38 LIG 0.28  HD
ENDBRANCH 27 32
ENDBRANCH 24 27
ENDBRANCH 10 23
ENDBRANCH 8 10
ENDBRANCH 5 6
BRANCH 5 36
ATOM     36  CB  VAL C   3      58.708  27.008  36.733  1.00 17.74 LIG 0.01  C 
ATOM     37  CG1 VAL C   3      57.703  26.750  37.835  1.00 20.72 LIG 0.01  C 
ATOM     38  CG2 VAL C   3      58.655  25.833  35.774  1.00 18.64 LIG 0.01  C 
ENDBRANCH 5 36
ENDBRANCH 1 5
BRANCH 3 39
ATOM     39  CA  TYR C   4      56.988  27.897  32.478  1.00 17.90 LIG 0.18  C 
BRANCH 39 40
ATOM     40  CB  TYR C   4      55.929  28.951  32.356  1.00 20.19 LIG 0.07  C 
BRANCH 40 41
ATOM     41  CG  TYR C   4      54.688  28.740  33.181  1.00 23.00 LIG-0.06  A 
ATOM     42  CD2 TYR C   4      53.881  27.620  32.975  1.00 26.62 LIG 0.01  A 
ATOM     43  CE2 TYR C   4      52.736  27.410  33.716  1.00 28.63 LIG 0.04  A 
ATOM     44  CZ  TYR C   4      52.385  28.319  34.666  1.00 25.42 LIG 0.07  A 
ATOM     45  CE1 TYR C   4      53.166  29.394  34.926  1.00 26.89 LIG 0.04  A 
ATOM     46  CD1 TYR C   4      54.328  29.609  34.170  1.00 24.41 LIG 0.01  A 
BRANCH 44 47
ATOM     47 OH   TYR C   4      51.255  28.105  35.402  1.00 32.39 LIG-0.36  OA
ATOM     48 HH   TYR C   4      50.887  27.394  35.149  1.00 32.39 LIG 0.22  HD
ENDBRANCH 44 47
ENDBRANCH 40 41
ENDBRANCH 39 40
BRANCH 39 49
ATOM     49  C   TYR C   4      57.761  27.699  31.143  1.00 20.63 LIG 0.24  C 
ATOM     50 O    TYR C   4      58.593  28.485  30.783  1.00 19.73 LIG-0.27  OA
ATOM     51  N   ILE C   5      57.545  26.561  30.500  1.00 22.91 LIG-0.35  N 
ATOM     52 H    ILE C   5      57.047  25.925  30.795  1.00 22.91 LIG 0.16  HD
BRANCH 51 53
ATOM     53  CA  ILE C   5      58.155  26.301  29.208  1.00 27.58 LIG 0.18  C 
BRANCH 53 54
ATOM     54  C   ILE C   5      57.258  26.847  28.099  1.00 33.14 LIG 0.24  C 
ATOM     55  N   HIS C   6      56.070  27.346  28.464  1.00 39.14 LIG-0.35  N 
ATOM     56 H    HIS C   6      55.777  27.312  29.273  1.00 39.14 LIG 0.16  HD
ATOM     57 O    ILE C   5      57.623  26.705  26.935  1.00 25.88 LIG-0.27  OA
BRANCH 55 58
ATOM     58  CA  HIS C   6      55.115  28.017  27.510  1.00 56.87 LIG 0.17  C 
BRANCH 58 59
ATOM     59  CB  HIS C   6      54.005  28.782  28.288  1.00 66.39 LIG 0.09  C 
BRANCH 59 60
ATOM     60  CG  HIS C   6      54.487  29.987  29.046  1.00 78.50 LIG 0.06  A 
ATOM     61  CD2 HIS C   6      55.738  30.342  29.432  1.00 82.71 LIG 0.14  A 
ATOM     62 NE2  HIS C   6      55.644  31.565  30.056  1.00 84.02 LIG-0.25  NA
ATOM     63  CE1 HIS C   6      54.382  31.962  30.036  1.00 85.20 LIG 0.23  A 
ATOM     64 ND1  HIS C   6      53.663  31.032  29.427  1.00 88.66 LIG-0.24  NA
ENDBRANCH 59 60
ENDBRANCH 58 59
BRANCH 58 65
ATOM     65  C   HIS C   6      55.710  28.991  26.484  1.00 59.18 LIG 0.22  C 
ATOM     66 O    HIS C   6      56.705  29.705  26.781  1.00 63.69 LIG-0.29  OA
ENDBRANCH 58 65
ENDBRANCH 55 58
ENDBRANCH 53 54
BRANCH 53 67
ATOM     67  CB  ILE C   5      58.415  24.809  29.048  1.00 28.54 LIG 0.01  C 
ATOM     68  CG2 ILE C   5      59.617  24.620  28.126  1.00 32.34 LIG 0.01  C 
BRANCH 67 69
ATOM     69  CG1 ILE C   5      58.590  24.226  30.461  1.00 30.21 LIG 0.00  C 
ATOM     70  CD1 ILE C   5      59.461  23.000  30.576  1.00 32.85 LIG 0.01  C 
ENDBRANCH 67 69
ENDBRANCH 53 67
ENDBRANCH 51 53
ENDBRANCH 39 49
ENDBRANCH 3 39
TORSDOF 26
ENDMDL
MODEL 18
USER: ADFR SOLUTION from run 151
USER: SCORE 22.852526 LL:  -5.661 LR: -18.281 RR:   0.000 FEB: -10.525
USER: RMSD 5.096689
USER: SEED 150
USER: STATUS no improvement in best in 11 clusters for 5 generations
USER: GENES 28
USER: genes 0 Translation |==|  0.69504 0.43459 0.53335
USER: genes 1 Rotation |==|  0.49447 0.54289 0.64614 0.97621
USER: genes 2 Torsion [N]-C--CA-[N] |==|  0.37344
USER: genes 3 Torsion [C]-CA--N-[C] |==|  0.75110
USER: genes 4 Torsion [N]-C--CA-[N] |==|  0.10658
USER: genes 5 Torsion [C]-CA--CB-[CG] |==|  0.49275
USER: genes 6 Torsion [CA]-CB--CG-[CD] |==|  0.74118
USER: genes 7 Torsion [CB]-CG--CD-[NE] |==|  0.47313
USER: genes 8 Torsion [CG]-CD--NE-[CZ] |==|  0.39633
USER: genes 9 Torsion [C]-CA--N-[C] |==|  0.73889
USER: genes 10 Torsion [N]-C--CA-[N] |==|  0.40158
USER: genes 11 Torsion [C]-CA--CB-[CG] |==|  0.46148
USER: genes 12 Torsion [CA]-CB--CG-[OD2] |==|  0.90337
USER: genes 13 Torsion [C]-CA--N-[H1] |==|  0.42430
USER: genes 14 Torsion [C]-CA--CB-[CG1] |==|  0.52896
USER: genes 15 Torsion [C]-N--CA-[CB] |==|  0.73447
USER: genes 16 Torsion [N]-CA--CB-[CG] |==|  0.04544
USER: genes 17 Torsion [CA]-CB--CG-[CD2] |==|  0.77139
USER: genes 18 Torsion [CE2]-CZ--OH-[HH] |==|  0.20185
USER: genes 19 Torsion [N]-CA--C-[N] |==|  0.14504
USER: genes 20 Torsion [C]-N--CA-[C] |==|  0.74797
USER: genes 21 Torsion [N]-CA--C-[N] |==|  0.37726
USER: genes 22 Torsion [C]-N--CA-[CB] |==|  0.77726
USER: genes 23 Torsion [N]-CA--CB-[CG] |==|  0.51515
USER: genes 24 Torsion [CA]-CB--CG-[CD2] |==|  0.78281
USER: genes 25 Torsion [N]-CA--C-[O] |==|  0.20760
USER: genes 26 Torsion [N]-CA--CB-[CG1] |==|  0.69189
USER: genes 27 Torsion [CA]-CB--CG1-[CD1] |==|  0.92871
ROOT
ATOM      1  C   VAL C   3      57.509  27.662  35.236  1.00 15.94 LIG 0.24  C 
ATOM      2 O    VAL C   3      56.344  27.411  35.481  1.00 17.86 LIG-0.27  OA
ATOM      3  N   TYR C   4      58.006  27.519  34.012  1.00 16.41 LIG-0.35  N 
ATOM      4 H    TYR C   4      58.828  27.669  33.808  1.00 16.41 LIG 0.16  HD
ENDROOT
BRANCH 1 5
ATOM      5  CA  VAL C   3      58.445  28.117  36.374  1.00 16.01 LIG 0.18  C 
BRANCH 5 6
ATOM      6  N   VAL C   3      57.725  29.168  37.125  1.00 15.77 LIG-0.35  N 
ATOM      7 H    VAL C   3      57.246  28.889  37.783  1.00 15.77 LIG 0.16  HD
ATOM      8  C   ARG C   2      57.852  30.432  36.759  1.00 16.54 LIG 0.24  C 
ATOM      9 O    ARG C   2      58.643  30.798  35.863  1.00 14.63 LIG-0.27  OA
BRANCH 8 10
ATOM     10  CA  ARG C   2      57.004  31.450  37.497  1.00 19.03 LIG 0.18  C 
BRANCH 10 11
ATOM     11  CB  ARG C   2      57.614  32.843  37.309  1.00 20.38 LIG 0.04  C 
BRANCH 11 12
ATOM     12  CG  ARG C   2      56.846  33.959  37.933  1.00 20.75 LIG 0.02  C 
BRANCH 12 13
ATOM     13  CD  ARG C   2      55.916  34.556  36.974  1.00 22.55 LIG 0.14  C 
BRANCH 13 14
ATOM     14  NE  ARG C   2      55.005  35.480  37.593  1.00 20.36 LIG-0.23  N 
ATOM     15  CZ  ARG C   2      54.590  36.601  37.041  1.00 23.11 LIG 0.67  C 
ATOM     16  NH1 ARG C   2      54.888  36.880  35.821  1.00 23.20 LIG-0.23  N 
ATOM     17  NH2 ARG C   2      53.770  37.402  37.731  1.00 25.55 LIG-0.23  N 
ATOM     18 1HH1 ARG C   2      55.362  36.332  35.358  1.00 23.20 LIG 0.17  HD
ATOM     19 2HH1 ARG C   2      54.613  37.614  35.468  1.00 23.20 LIG 0.17  HD
ATOM     20 2HH2 ARG C   2      53.491  38.137  37.382  1.00 25.55 LIG 0.17  HD
ATOM     21 1HH2 ARG C   2      53.520  37.182  38.525  1.00 25.55 LIG 0.17  HD
ATOM     22 HE   ARG C   2      54.711  35.287  38.377  1.00 20.36 LIG 0.18  HD
ENDBRANCH 13 14
ENDBRANCH 12 13
ENDBRANCH 11 12
ENDBRANCH 10 11
BRANCH 10 23
ATOM     23  N   ARG C   2      56.910  31.119  38.929  1.00 19.42 LIG-0.35  N 
ATOM     24  C   ASP C   1      55.885  30.406  39.375  1.00 19.51 LIG 0.25  C 
ATOM     25 O    ASP C   1      55.117  29.799  38.610  1.00 19.29 LIG-0.27  OA
ATOM     26 H    ARG C   2      57.550  31.419  39.418  1.00 19.42 LIG 0.16  HD
BRANCH 24 27
ATOM     27  CA  ASP C   1      55.646  30.361  40.874  1.00 19.04 LIG 0.28  C 
BRANCH 27 28
ATOM     28  CB  ASP C   1      56.301  29.129  41.442  1.00 21.34 LIG 0.15  C 
BRANCH 28 29
ATOM     29  CG  ASP C   1      56.402  29.182  42.989  1.00 23.67 LIG 0.17  C 
ATOM     30 OD2  ASP C   1      56.603  30.307  43.523  1.00 27.41 LIG-0.65  OA
ATOM     31 OD1  ASP C   1      56.309  28.108  43.668  1.00 20.87 LIG-0.65  OA
ENDBRANCH 28 29
ENDBRANCH 27 28
BRANCH 27 32
ATOM     32  N   ASP C   1      54.153  30.322  41.089  1.00 18.38 LIG-0.07  N 
ATOM     33 H1   ASP C   1      53.975  29.913  41.860  1.00 18.38 LIG 0.28  HD
ATOM     34 H3   ASP C   1      53.768  29.877  40.422  1.00 18.38 LIG 0.28  HD
ATOM     35 H2   ASP C   1      53.834  31.152  41.114  1.00 18.38 LIG 0.28  HD
ENDBRANCH 27 32
ENDBRANCH 24 27
ENDBRANCH 10 23
ENDBRANCH 8 10
ENDBRANCH 5 6
BRANCH 5 36
ATOM     36  CB  VAL C   3      58.759  26.903  37.220  1.00 17.74 LIG 0.01  C 
ATOM     37  CG1 VAL C   3      59.464  27.282  38.505  1.00 20.72 LIG 0.01  C 
ATOM     38  CG2 VAL C   3      57.494  26.151  37.591  1.00 18.64 LIG 0.01  C 
ENDBRANCH 5 36
ENDBRANCH 1 5
BRANCH 3 39
ATOM     39  CA  TYR C   4      57.176  27.087  32.895  1.00 17.90 LIG 0.18  C 
BRANCH 39 40
ATOM     40  CB  TYR C   4      57.292  25.609  32.685  1.00 20.19 LIG 0.07  C 
BRANCH 40 41
ATOM     41  CG  TYR C   4      57.881  24.823  33.826  1.00 23.00 LIG-0.06  A 
ATOM     42  CD2 TYR C   4      59.265  24.740  33.989  1.00 26.62 LIG 0.01  A 
ATOM     43  CE2 TYR C   4      59.826  24.020  35.025  1.00 28.63 LIG 0.04  A 
ATOM     44  CZ  TYR C   4      59.011  23.374  35.902  1.00 25.42 LIG 0.07  A 
ATOM     45  CE1 TYR C   4      57.664  23.468  35.802  1.00 26.89 LIG 0.04  A 
ATOM     46  CD1 TYR C   4      57.094  24.196  34.748  1.00 24.41 LIG 0.01  A 
BRANCH 44 47
ATOM     47 OH   TYR C   4      59.569  22.669  36.929  1.00 32.39 LIG-0.36  OA
ATOM     48 HH   TYR C   4      59.878  23.202  37.499  1.00 32.39 LIG 0.22  HD
ENDBRANCH 44 47
ENDBRANCH 40 41
ENDBRANCH 39 40
BRANCH 39 49
ATOM     49  C   TYR C   4      55.693  27.537  33.026  1.00 20.63 LIG 0.24  C 
ATOM     50 O    TYR C   4      54.798  26.737  33.037  1.00 19.73 LIG-0.27  OA
ATOM     51  N   ILE C   5      55.485  28.826  33.252  1.00 22.91 LIG-0.35  N 
ATOM     52 H    ILE C   5      56.111  29.403  33.371  1.00 22.91 LIG 0.16  HD
BRANCH 51 53
ATOM     53  CA  ILE C   5      54.140  29.370  33.318  1.00 27.58 LIG 0.18  C 
BRANCH 53 54
ATOM     54  C   ILE C   5      53.707  29.832  31.928  1.00 33.14 LIG 0.24  C 
ATOM     55  N   HIS C   6      52.467  29.511  31.536  1.00 39.14 LIG-0.35  N 
ATOM     56 H    HIS C   6      51.944  29.013  32.003  1.00 39.14 LIG 0.16  HD
ATOM     57 O    ILE C   5      54.543  30.374  31.210  1.00 25.88 LIG-0.27  OA
BRANCH 55 58
ATOM     58  CA  HIS C   6      51.851  29.980  30.242  1.00 56.87 LIG 0.17  C 
BRANCH 58 59
ATOM     59  CB  HIS C   6      51.322  31.437  30.380  1.00 66.39 LIG 0.09  C 
BRANCH 59 60
ATOM     60  CG  HIS C   6      50.574  31.949  29.181  1.00 78.50 LIG 0.06  A 
ATOM     61  CD2 HIS C   6      51.031  32.415  27.992  1.00 82.71 LIG 0.14  A 
ATOM     62 NE2  HIS C   6      49.931  32.712  27.219  1.00 84.02 LIG-0.25  NA
ATOM     63  CE1 HIS C   6      48.835  32.419  27.899  1.00 85.20 LIG 0.23  A 
ATOM     64 ND1  HIS C   6      49.193  31.951  29.084  1.00 88.66 LIG-0.24  NA
ENDBRANCH 59 60
ENDBRANCH 58 59
BRANCH 58 65
ATOM     65  C   HIS C   6      52.727  29.926  28.983  1.00 59.18 LIG 0.22  C 
ATOM     66 O    HIS C   6      52.972  28.826  28.419  1.00 63.69 LIG-0.29  OA
ENDBRANCH 58 65
ENDBRANCH 55 58
ENDBRANCH 53 54
BRANCH 53 67
ATOM     67  CB  ILE C   5      54.088  30.500  34.337  1.00 28.54 LIG 0.01  C 
ATOM     68  CG2 ILE C   5      53.546  31.751  33.649  1.00 32.34 LIG 0.01  C 
BRANCH 67 69
ATOM     69  CG1 ILE C   5      53.244  30.002  35.523  1.00 30.21 LIG 0.00  C 
ATOM     70  CD1 ILE C   5      52.232  28.926  35.220  1.00 32.85 LIG 0.01  C 
ENDBRANCH 67 69
ENDBRANCH 53 67
ENDBRANCH 51 53
ENDBRANCH 39 49
ENDBRANCH 3 39
TORSDOF 26
ENDMDL
MODEL 19
USER: ADFR SOLUTION from run 93
USER: SCORE 23.419700 LL:  -6.254 LR: -18.238 RR:   0.000 FEB: -10.483
USER: RMSD 5.094805
USER: SEED 92
USER: STATUS no improvement in best in 4 clusters for 5 generations
USER: GENES 28
USER: genes 0 Translation |==|  0.70768 0.42107 0.53974
USER: genes 1 Rotation |==|  0.50704 0.54199 0.67468 0.96656
USER: genes 2 Torsion [N]-C--CA-[N] |==|  0.35261
USER: genes 3 Torsion [C]-CA--N-[C] |==|  0.76623
USER: genes 4 Torsion [N]-C--CA-[N] |==|  0.08524
USER: genes 5 Torsion [C]-CA--CB-[CG] |==|  0.51728
USER: genes 6 Torsion [CA]-CB--CG-[CD] |==|  0.67367
USER: genes 7 Torsion [CB]-CG--CD-[NE] |==|  0.45081
USER: genes 8 Torsion [CG]-CD--NE-[CZ] |==|  0.46766
USER: genes 9 Torsion [C]-CA--N-[C] |==|  0.71632
USER: genes 10 Torsion [N]-C--CA-[N] |==|  0.39867
USER: genes 11 Torsion [C]-CA--CB-[CG] |==|  0.40452
USER: genes 12 Torsion [CA]-CB--CG-[OD2] |==|  0.51492
USER: genes 13 Torsion [C]-CA--N-[H1] |==|  0.42105
USER: genes 14 Torsion [C]-CA--CB-[CG1] |==|  0.50786
USER: genes 15 Torsion [C]-N--CA-[CB] |==|  0.75429
USER: genes 16 Torsion [N]-CA--CB-[CG] |==|  0.03158
USER: genes 17 Torsion [CA]-CB--CG-[CD2] |==|  0.76119
USER: genes 18 Torsion [CE2]-CZ--OH-[HH] |==|  0.35257
USER: genes 19 Torsion [N]-CA--C-[N] |==|  0.16672
USER: genes 20 Torsion [C]-N--CA-[C] |==|  0.70496
USER: genes 21 Torsion [N]-CA--C-[N] |==|  0.86069
USER: genes 22 Torsion [C]-N--CA-[CB] |==|  0.77101
USER: genes 23 Torsion [N]-CA--CB-[CG] |==|  0.92305
USER: genes 24 Torsion [CA]-CB--CG-[CD2] |==|  0.33881
USER: genes 25 Torsion [N]-CA--C-[O] |==|  0.71373
USER: genes 26 Torsion [N]-CA--CB-[CG1] |==|  0.72306
USER: genes 27 Torsion [CA]-CB--CG1-[CD1] |==|  0.75695
ROOT
ATOM      1  C   VAL C   3      57.726  27.317  35.404  1.00 15.94 LIG 0.24  C 
ATOM      2 O    VAL C   3      56.604  26.919  35.647  1.00 17.86 LIG-0.27  OA
ATOM      3  N   TYR C   4      58.214  27.304  34.167  1.00 16.41 LIG-0.35  N 
ATOM      4 H    TYR C   4      59.009  27.559  33.962  1.00 16.41 LIG 0.16  HD
ENDROOT
BRANCH 1 5
ATOM      5  CA  VAL C   3      58.626  27.812  36.555  1.00 16.01 LIG 0.18  C 
BRANCH 5 6
ATOM      6  N   VAL C   3      57.869  28.863  37.267  1.00 15.77 LIG-0.35  N 
ATOM      7 H    VAL C   3      57.436  28.600  37.962  1.00 15.77 LIG 0.16  HD
ATOM      8  C   ARG C   2      57.895  30.106  36.814  1.00 16.54 LIG 0.24  C 
ATOM      9 O    ARG C   2      58.623  30.459  35.861  1.00 14.63 LIG-0.27  OA
BRANCH 8 10
ATOM     10  CA  ARG C   2      57.012  31.115  37.521  1.00 19.03 LIG 0.18  C 
BRANCH 10 11
ATOM     11  CB  ARG C   2      57.627  32.511  37.374  1.00 20.38 LIG 0.04  C 
BRANCH 11 12
ATOM     12  CG  ARG C   2      56.941  33.587  38.145  1.00 20.75 LIG 0.02  C 
BRANCH 12 13
ATOM     13  CD  ARG C   2      56.393  34.606  37.247  1.00 22.55 LIG 0.14  C 
BRANCH 13 14
ATOM     14  NE  ARG C   2      55.398  35.424  37.886  1.00 20.36 LIG-0.23  N 
ATOM     15  CZ  ARG C   2      54.911  36.538  37.381  1.00 23.11 LIG 0.67  C 
ATOM     16  NH1 ARG C   2      55.217  36.903  36.186  1.00 23.20 LIG-0.23  N 
ATOM     17  NH2 ARG C   2      54.014  37.236  38.087  1.00 25.55 LIG-0.23  N 
ATOM     18 1HH1 ARG C   2      55.743  36.418  35.709  1.00 23.20 LIG 0.17  HD
ATOM     19 2HH1 ARG C   2      54.894  37.632  35.863  1.00 23.20 LIG 0.17  HD
ATOM     20 2HH2 ARG C   2      53.689  37.965  37.768  1.00 25.55 LIG 0.17  HD
ATOM     21 1HH2 ARG C   2      53.763  36.956  38.861  1.00 25.55 LIG 0.17  HD
ATOM     22 HE   ARG C   2      55.101  35.168  38.651  1.00 20.36 LIG 0.18  HD
ENDBRANCH 13 14
ENDBRANCH 12 13
ENDBRANCH 11 12
ENDBRANCH 10 11
BRANCH 10 23
ATOM     23  N   ARG C   2      56.852  30.770  38.943  1.00 19.42 LIG-0.35  N 
ATOM     24  C   ASP C   1      55.734  30.193  39.361  1.00 19.51 LIG 0.25  C 
ATOM     25 O    ASP C   1      54.902  29.712  38.573  1.00 19.29 LIG-0.27  OA
ATOM     26 H    ARG C   2      57.520  30.970  39.447  1.00 19.42 LIG 0.16  HD
BRANCH 24 27
ATOM     27  CA  ASP C   1      55.467  30.150  40.855  1.00 19.04 LIG 0.28  C 
BRANCH 27 28
ATOM     28  CB  ASP C   1      55.918  28.819  41.399  1.00 21.34 LIG 0.15  C 
BRANCH 28 29
ATOM     29  CG  ASP C   1      56.487  28.939  42.837  1.00 23.67 LIG 0.17  C 
ATOM     30 OD2  ASP C   1      56.990  27.904  43.354  1.00 27.41 LIG-0.65  OA
ATOM     31 OD1  ASP C   1      56.409  30.048  43.460  1.00 20.87 LIG-0.65  OA
ENDBRANCH 28 29
ENDBRANCH 27 28
BRANCH 27 32
ATOM     32  N   ASP C   1      53.983  30.335  41.052  1.00 18.38 LIG-0.07  N 
ATOM     33 H1   ASP C   1      53.730  29.926  41.802  1.00 18.38 LIG 0.28  HD
ATOM     34 H3   ASP C   1      53.546  29.986  40.361  1.00 18.38 LIG 0.28  HD
ATOM     35 H2   ASP C   1      53.797  31.203  41.112  1.00 18.38 LIG 0.28  HD
ENDBRANCH 27 32
ENDBRANCH 24 27
ENDBRANCH 10 23
ENDBRANCH 8 10
ENDBRANCH 5 6
BRANCH 5 36
ATOM     36  CB  VAL C   3      58.942  26.620  37.432  1.00 17.74 LIG 0.01  C 
ATOM     37  CG1 VAL C   3      59.769  27.015  38.637  1.00 20.72 LIG 0.01  C 
ATOM     38  CG2 VAL C   3      57.671  25.961  37.939  1.00 18.64 LIG 0.01  C 
ENDBRANCH 5 36
ENDBRANCH 1 5
BRANCH 3 39
ATOM     39  CA  TYR C   4      57.417  26.843  33.037  1.00 17.90 LIG 0.18  C 
BRANCH 39 40
ATOM     40  CB  TYR C   4      57.568  25.365  32.846  1.00 20.19 LIG 0.07  C 
BRANCH 40 41
ATOM     41  CG  TYR C   4      58.252  24.620  33.961  1.00 23.00 LIG-0.06  A 
ATOM     42  CD2 TYR C   4      59.644  24.518  33.996  1.00 26.62 LIG 0.01  A 
ATOM     43  CE2 TYR C   4      60.292  23.836  35.005  1.00 28.63 LIG 0.04  A 
ATOM     44  CZ  TYR C   4      59.556  23.246  35.986  1.00 25.42 LIG 0.07  A 
ATOM     45  CE1 TYR C   4      58.208  23.360  36.010  1.00 26.89 LIG 0.04  A 
ATOM     46  CD1 TYR C   4      57.548  24.051  34.983  1.00 24.41 LIG 0.01  A 
BRANCH 44 47
ATOM     47 OH   TYR C   4      60.200  22.577  36.986  1.00 32.39 LIG-0.36  OA
ATOM     48 HH   TYR C   4      59.939  22.867  37.730  1.00 32.39 LIG 0.22  HD
ENDBRANCH 44 47
ENDBRANCH 40 41
ENDBRANCH 39 40
BRANCH 39 49
ATOM     49  C   TYR C   4      55.923  27.264  33.130  1.00 20.63 LIG 0.24  C 
ATOM     50 O    TYR C   4      55.054  26.449  33.270  1.00 19.73 LIG-0.27  OA
ATOM     51  N   ILE C   5      55.679  28.566  33.176  1.00 22.91 LIG-0.35  N 
ATOM     52 H    ILE C   5      56.289  29.171  33.201  1.00 22.91 LIG 0.16  HD
BRANCH 51 53
ATOM     53  CA  ILE C   5      54.319  29.075  33.188  1.00 27.58 LIG 0.18  C 
BRANCH 53 54
ATOM     54  C   ILE C   5      53.987  29.680  31.826  1.00 33.14 LIG 0.24  C 
ATOM     55  N   HIS C   6      54.862  30.559  31.318  1.00 39.14 LIG-0.35  N 
ATOM     56 H    HIS C   6      55.553  30.833  31.750  1.00 39.14 LIG 0.16  HD
ATOM     57 O    ILE C   5      52.899  29.415  31.323  1.00 25.88 LIG-0.27  OA
BRANCH 55 58
ATOM     58  CA  HIS C   6      54.737  31.165  29.943  1.00 56.87 LIG 0.17  C 
BRANCH 58 59
ATOM     59  CB  HIS C   6      55.303  30.199  28.862  1.00 66.39 LIG 0.09  C 
BRANCH 59 60
ATOM     60  CG  HIS C   6      56.379  29.271  29.351  1.00 78.50 LIG 0.06  A 
ATOM     61  CD2 HIS C   6      56.440  27.916  29.350  1.00 82.71 LIG 0.14  A 
ATOM     62 NE2  HIS C   6      57.665  27.560  29.866  1.00 84.02 LIG-0.25  NA
ATOM     63  CE1 HIS C   6      58.345  28.658  30.156  1.00 85.20 LIG 0.23  A 
ATOM     64 ND1  HIS C   6      57.596  29.705  29.849  1.00 88.66 LIG-0.24  NA
ENDBRANCH 59 60
ENDBRANCH 58 59
BRANCH 58 65
ATOM     65  C   HIS C   6      53.336  31.595  29.486  1.00 59.18 LIG 0.22  C 
ATOM     66 O    HIS C   6      52.683  30.888  28.672  1.00 63.69 LIG-0.29  OA
ENDBRANCH 58 65
ENDBRANCH 55 58
ENDBRANCH 53 54
BRANCH 53 67
ATOM     67  CB  ILE C   5      54.154  30.084  34.317  1.00 28.54 LIG 0.01  C 
ATOM     68  CG2 ILE C   5      53.380  31.288  33.784  1.00 32.34 LIG 0.01  C 
BRANCH 67 69
ATOM     69  CG1 ILE C   5      53.476  29.351  35.486  1.00 30.21 LIG 0.00  C 
ATOM     70  CD1 ILE C   5      51.969  29.326  35.478  1.00 32.85 LIG 0.01  C 
ENDBRANCH 67 69
ENDBRANCH 53 67
ENDBRANCH 51 53
ENDBRANCH 39 49
ENDBRANCH 3 39
TORSDOF 26
ENDMDL
MODEL 20
USER: ADFR SOLUTION from run 84
USER: SCORE 22.292634 LL:  -5.838 LR: -18.126 RR:   0.000 FEB: -10.370
USER: RMSD 4.991797
USER: SEED 83
USER: STATUS searching
USER: GENES 28
USER: genes 0 Translation |==|  0.68711 0.47071 0.51153
USER: genes 1 Rotation |==|  0.49885 0.50646 0.49120 0.99988
USER: genes 2 Torsion [N]-C--CA-[N] |==|  0.44441
USER: genes 3 Torsion [C]-CA--N-[C] |==|  0.80224
USER: genes 4 Torsion [N]-C--CA-[N] |==|  0.07778
USER: genes 5 Torsion [C]-CA--CB-[CG] |==|  0.44058
USER: genes 6 Torsion [CA]-CB--CG-[CD] |==|  0.81734
USER: genes 7 Torsion [CB]-CG--CD-[NE] |==|  0.44295
USER: genes 8 Torsion [CG]-CD--NE-[CZ] |==|  0.38000
USER: genes 9 Torsion [C]-CA--N-[C] |==|  0.74374
USER: genes 10 Torsion [N]-C--CA-[N] |==|  0.39697
USER: genes 11 Torsion [C]-CA--CB-[CG] |==|  0.44297
USER: genes 12 Torsion [CA]-CB--CG-[OD2] |==|  0.47709
USER: genes 13 Torsion [C]-CA--N-[H1] |==|  0.49119
USER: genes 14 Torsion [C]-CA--CB-[CG1] |==|  0.50371
USER: genes 15 Torsion [C]-N--CA-[CB] |==|  0.52809
USER: genes 16 Torsion [N]-CA--CB-[CG] |==|  0.19252
USER: genes 17 Torsion [CA]-CB--CG-[CD2] |==|  0.34538
USER: genes 18 Torsion [CE2]-CZ--OH-[HH] |==|  0.76380
USER: genes 19 Torsion [N]-CA--C-[N] |==|  0.30210
USER: genes 20 Torsion [C]-N--CA-[C] |==|  0.59076
USER: genes 21 Torsion [N]-CA--C-[N] |==|  0.57165
USER: genes 22 Torsion [C]-N--CA-[CB] |==|  0.89333
USER: genes 23 Torsion [N]-CA--CB-[CG] |==|  0.83979
USER: genes 24 Torsion [CA]-CB--CG-[CD2] |==|  0.28561
USER: genes 25 Torsion [N]-CA--C-[O] |==|  0.37505
USER: genes 26 Torsion [N]-CA--CB-[CG1] |==|  0.11501
USER: genes 27 Torsion [CA]-CB--CG1-[CD1] |==|  0.33828
ROOT
ATOM      1  C   VAL C   3      57.372  28.583  34.664  1.00 15.94 LIG 0.24  C 
ATOM      2 O    VAL C   3      56.260  29.072  34.731  1.00 17.86 LIG-0.27  OA
ATOM      3  N   TYR C   4      57.860  28.128  33.515  1.00 16.41 LIG-0.35  N 
ATOM      4 H    TYR C   4      58.633  27.759  33.434  1.00 16.41 LIG 0.16  HD
ENDROOT
BRANCH 1 5
ATOM      5  CA  VAL C   3      58.223  28.447  35.943  1.00 16.01 LIG 0.18  C 
BRANCH 5 6
ATOM      6  N   VAL C   3      57.693  29.427  36.914  1.00 15.77 LIG-0.35  N 
ATOM      7 H    VAL C   3      57.265  29.092  37.581  1.00 15.77 LIG 0.16  HD
ATOM      8  C   ARG C   2      57.898  30.718  36.714  1.00 16.54 LIG 0.24  C 
ATOM      9 O    ARG C   2      58.616  31.150  35.787  1.00 14.63 LIG-0.27  OA
BRANCH 8 10
ATOM     10  CA  ARG C   2      57.237  31.678  37.684  1.00 19.03 LIG 0.18  C 
BRANCH 10 11
ATOM     11  CB  ARG C   2      58.100  32.938  37.810  1.00 20.38 LIG 0.04  C 
BRANCH 11 12
ATOM     12  CG  ARG C   2      57.383  34.148  38.305  1.00 20.75 LIG 0.02  C 
BRANCH 12 13
ATOM     13  CD  ARG C   2      56.372  34.589  37.342  1.00 22.55 LIG 0.14  C 
BRANCH 13 14
ATOM     14  NE  ARG C   2      55.364  35.419  37.944  1.00 20.36 LIG-0.23  N 
ATOM     15  CZ  ARG C   2      54.886  36.521  37.405  1.00 23.11 LIG 0.67  C 
ATOM     16  NH1 ARG C   2      55.215  36.860  36.207  1.00 23.20 LIG-0.23  N 
ATOM     17  NH2 ARG C   2      53.975  37.234  38.078  1.00 25.55 LIG-0.23  N 
ATOM     18 1HH1 ARG C   2      55.751  36.365  35.752  1.00 23.20 LIG 0.17  HD
ATOM     19 2HH1 ARG C   2      54.897  37.581  35.863  1.00 23.20 LIG 0.17  HD
ATOM     20 2HH2 ARG C   2      53.655  37.955  37.736  1.00 25.55 LIG 0.17  HD
ATOM     21 1HH2 ARG C   2      53.709  36.970  38.852  1.00 25.55 LIG 0.17  HD
ATOM     22 HE   ARG C   2      55.052  35.180  38.708  1.00 20.36 LIG 0.18  HD
ENDBRANCH 13 14
ENDBRANCH 12 13
ENDBRANCH 11 12
ENDBRANCH 10 11
BRANCH 10 23
ATOM     23  N   ARG C   2      57.049  31.050  39.002  1.00 19.42 LIG-0.35  N 
ATOM     24  C   ASP C   1      55.912  30.426  39.279  1.00 19.51 LIG 0.25  C 
ATOM     25 O    ASP C   1      55.081  30.141  38.401  1.00 19.29 LIG-0.27  OA
ATOM     26 H    ARG C   2      57.713  31.123  39.543  1.00 19.42 LIG 0.16  HD
BRANCH 24 27
ATOM     27  CA  ASP C   1      55.623  30.081  40.730  1.00 19.04 LIG 0.28  C 
BRANCH 27 28
ATOM     28  CB  ASP C   1      56.022  28.651  40.985  1.00 21.34 LIG 0.15  C 
BRANCH 28 29
ATOM     29  CG  ASP C   1      56.245  28.367  42.493  1.00 23.67 LIG 0.17  C 
ATOM     30 OD2  ASP C   1      56.426  27.168  42.842  1.00 27.41 LIG-0.65  OA
ATOM     31 OD1  ASP C   1      56.213  29.327  43.331  1.00 20.87 LIG-0.65  OA
ENDBRANCH 28 29
ENDBRANCH 27 28
BRANCH 27 32
ATOM     32  N   ASP C   1      54.143  30.273  40.951  1.00 18.38 LIG-0.07  N 
ATOM     33 H1   ASP C   1      53.934  30.033  41.783  1.00 18.38 LIG 0.28  HD
ATOM     34 H3   ASP C   1      53.689  29.770  40.375  1.00 18.38 LIG 0.28  HD
ATOM     35 H2   ASP C   1      53.932  31.128  40.828  1.00 18.38 LIG 0.28  HD
ENDBRANCH 27 32
ENDBRANCH 24 27
ENDBRANCH 10 23
ENDBRANCH 8 10
ENDBRANCH 5 6
BRANCH 5 36
ATOM     36  CB  VAL C   3      58.097  27.018  36.424  1.00 17.74 LIG 0.01  C 
ATOM     37  CG1 VAL C   3      58.875  26.787  37.702  1.00 20.72 LIG 0.01  C 
ATOM     38  CG2 VAL C   3      56.648  26.655  36.693  1.00 18.64 LIG 0.01  C 
ENDBRANCH 5 36
ENDBRANCH 1 5
BRANCH 3 39
ATOM     39  CA  TYR C   4      57.105  28.221  32.271  1.00 17.90 LIG 0.18  C 
BRANCH 39 40
ATOM     40  CB  TYR C   4      57.764  27.427  31.186  1.00 20.19 LIG 0.07  C 
BRANCH 40 41
ATOM     41  CG  TYR C   4      57.725  25.930  31.345  1.00 23.00 LIG-0.06  A 
ATOM     42  CD2 TYR C   4      57.190  25.124  30.340  1.00 26.62 LIG 0.01  A 
ATOM     43  CE2 TYR C   4      57.138  23.751  30.467  1.00 28.63 LIG 0.04  A 
ATOM     44  CZ  TYR C   4      57.617  23.171  31.601  1.00 25.42 LIG 0.07  A 
ATOM     45  CE1 TYR C   4      58.184  23.917  32.579  1.00 26.89 LIG 0.04  A 
ATOM     46  CD1 TYR C   4      58.233  25.312  32.452  1.00 24.41 LIG 0.01  A 
BRANCH 44 47
ATOM     47 OH   TYR C   4      57.571  21.813  31.722  1.00 32.39 LIG-0.36  OA
ATOM     48 HH   TYR C   4      56.818  21.583  32.013  1.00 32.39 LIG 0.22  HD
ENDBRANCH 44 47
ENDBRANCH 40 41
ENDBRANCH 39 40
BRANCH 39 49
ATOM     49  C   TYR C   4      55.606  27.840  32.438  1.00 20.63 LIG 0.24  C 
ATOM     50 O    TYR C   4      55.277  26.725  32.735  1.00 19.73 LIG-0.27  OA
ATOM     51  N   ILE C   5      54.732  28.833  32.360  1.00 22.91 LIG-0.35  N 
ATOM     52 H    ILE C   5      54.948  29.660  32.269  1.00 22.91 LIG 0.16  HD
BRANCH 51 53
ATOM     53  CA  ILE C   5      53.303  28.583  32.426  1.00 27.58 LIG 0.18  C 
BRANCH 53 54
ATOM     54  C   ILE C   5      52.566  29.602  31.561  1.00 33.14 LIG 0.24  C 
ATOM     55  N   HIS C   6      51.297  29.879  31.889  1.00 39.14 LIG-0.35  N 
ATOM     56 H    HIS C   6      50.876  29.466  32.516  1.00 39.14 LIG 0.16  HD
ATOM     57 O    ILE C   5      53.131  30.031  30.559  1.00 25.88 LIG-0.27  OA
BRANCH 55 58
ATOM     58  CA  HIS C   6      50.466  30.935  31.206  1.00 56.87 LIG 0.17  C 
BRANCH 58 59
ATOM     59  CB  HIS C   6      51.331  32.186  30.872  1.00 66.39 LIG 0.09  C 
BRANCH 59 60
ATOM     60  CG  HIS C   6      51.999  32.822  32.058  1.00 78.50 LIG 0.06  A 
ATOM     61  CD2 HIS C   6      53.287  32.760  32.481  1.00 82.71 LIG 0.14  A 
ATOM     62 NE2  HIS C   6      53.392  33.563  33.594  1.00 84.02 LIG-0.25  NA
ATOM     63  CE1 HIS C   6      52.215  34.118  33.837  1.00 85.20 LIG 0.23  A 
ATOM     64 ND1  HIS C   6      51.358  33.693  32.921  1.00 88.66 LIG-0.24  NA
ENDBRANCH 59 60
ENDBRANCH 58 59
BRANCH 58 65
ATOM     65  C   HIS C   6      49.729  30.532  29.921  1.00 59.18 LIG 0.22  C 
ATOM     66 O    HIS C   6      48.526  30.864  29.742  1.00 63.69 LIG-0.29  OA
ENDBRANCH 58 65
ENDBRANCH 55 58
ENDBRANCH 53 54
BRANCH 53 67
ATOM     67  CB  ILE C   5      52.837  28.620  33.875  1.00 28.54 LIG 0.01  C 
ATOM     68  CG2 ILE C   5      53.104  27.256  34.507  1.00 32.34 LIG 0.01  C 
BRANCH 67 69
ATOM     69  CG1 ILE C   5      53.559  29.796  34.554  1.00 30.21 LIG 0.00  C 
ATOM     70  CD1 ILE C   5      52.680  30.858  35.166  1.00 32.85 LIG 0.01  C 
ENDBRANCH 67 69
ENDBRANCH 53 67
ENDBRANCH 51 53
ENDBRANCH 39 49
ENDBRANCH 3 39
TORSDOF 26
ENDMDL
MODEL 21
USER: ADFR SOLUTION from run 180
USER: SCORE 22.193319 LL:  -6.017 LR: -17.999 RR:   0.000 FEB: -10.244
USER: RMSD 4.167662
USER: SEED 179
USER: STATUS no improvement in best in 6 clusters for 5 generations
USER: GENES 28
USER: genes 0 Translation |==|  0.65850 0.47254 0.49768
USER: genes 1 Rotation |==|  0.51696 0.51476 0.53211 0.99846
USER: genes 2 Torsion [N]-C--CA-[N] |==|  0.42517
USER: genes 3 Torsion [C]-CA--N-[C] |==|  0.74636
USER: genes 4 Torsion [N]-C--CA-[N] |==|  0.13842
USER: genes 5 Torsion [C]-CA--CB-[CG] |==|  0.45284
USER: genes 6 Torsion [CA]-CB--CG-[CD] |==|  0.75892
USER: genes 7 Torsion [CB]-CG--CD-[NE] |==|  0.45567
USER: genes 8 Torsion [CG]-CD--NE-[CZ] |==|  0.43723
USER: genes 9 Torsion [C]-CA--N-[C] |==|  0.73756
USER: genes 10 Torsion [N]-C--CA-[N] |==|  0.40257
USER: genes 11 Torsion [C]-CA--CB-[CG] |==|  0.49892
USER: genes 12 Torsion [CA]-CB--CG-[OD2] |==|  0.41471
USER: genes 13 Torsion [C]-CA--N-[H1] |==|  0.11214
USER: genes 14 Torsion [C]-CA--CB-[CG1] |==|  0.19493
USER: genes 15 Torsion [C]-N--CA-[CB] |==|  0.53333
USER: genes 16 Torsion [N]-CA--CB-[CG] |==|  0.55147
USER: genes 17 Torsion [CA]-CB--CG-[CD2] |==|  0.85386
USER: genes 18 Torsion [CE2]-CZ--OH-[HH] |==|  0.86319
USER: genes 19 Torsion [N]-CA--C-[N] |==|  0.28796
USER: genes 20 Torsion [C]-N--CA-[C] |==|  0.61009
USER: genes 21 Torsion [N]-CA--C-[N] |==|  0.79786
USER: genes 22 Torsion [C]-N--CA-[CB] |==|  0.82007
USER: genes 23 Torsion [N]-CA--CB-[CG] |==|  0.91089
USER: genes 24 Torsion [CA]-CB--CG-[CD2] |==|  0.30944
USER: genes 25 Torsion [N]-CA--C-[O] |==|  0.77700
USER: genes 26 Torsion [N]-CA--CB-[CG1] |==|  0.11432
USER: genes 27 Torsion [CA]-CB--CG1-[CD1] |==|  0.39931
ROOT
ATOM      1  C   VAL C   3      56.878  28.630  34.300  1.00 15.94 LIG 0.24  C 
ATOM      2 O    VAL C   3      55.706  28.925  34.433  1.00 17.86 LIG-0.27  OA
ATOM      3  N   TYR C   4      57.389  28.344  33.107  1.00 16.41 LIG-0.35  N 
ATOM      4 H    TYR C   4      58.208  28.113  32.978  1.00 16.41 LIG 0.16  HD
ENDROOT
BRANCH 1 5
ATOM      5  CA  VAL C   3      57.788  28.542  35.542  1.00 16.01 LIG 0.18  C 
BRANCH 5 6
ATOM      6  N   VAL C   3      57.238  29.482  36.541  1.00 15.77 LIG-0.35  N 
ATOM      7 H    VAL C   3      56.641  29.154  37.067  1.00 15.77 LIG 0.16  HD
ATOM      8  C   ARG C   2      57.676  30.729  36.573  1.00 16.54 LIG 0.24  C 
ATOM      9 O    ARG C   2      58.620  31.129  35.858  1.00 14.63 LIG-0.27  OA
BRANCH 8 10
ATOM     10  CA  ARG C   2      56.996  31.673  37.546  1.00 19.03 LIG 0.18  C 
BRANCH 10 11
ATOM     11  CB  ARG C   2      57.768  32.996  37.585  1.00 20.38 LIG 0.04  C 
BRANCH 11 12
ATOM     12  CG  ARG C   2      57.022  34.145  38.174  1.00 20.75 LIG 0.02  C 
BRANCH 12 13
ATOM     13  CD  ARG C   2      56.215  34.823  37.157  1.00 22.55 LIG 0.14  C 
BRANCH 13 14
ATOM     14  NE  ARG C   2      55.217  35.684  37.731  1.00 20.36 LIG-0.23  N 
ATOM     15  CZ  ARG C   2      54.660  36.700  37.107  1.00 23.11 LIG 0.67  C 
ATOM     16  NH1 ARG C   2      54.895  36.910  35.859  1.00 23.20 LIG-0.23  N 
ATOM     17  NH2 ARG C   2      53.768  37.455  37.758  1.00 25.55 LIG-0.23  N 
ATOM     18 1HH1 ARG C   2      55.419  36.384  35.425  1.00 23.20 LIG 0.17  HD
ATOM     19 2HH1 ARG C   2      54.526  37.576  35.459  1.00 23.20 LIG 0.17  HD
ATOM     20 2HH2 ARG C   2      53.397  38.122  37.361  1.00 25.55 LIG 0.17  HD
ATOM     21 1HH2 ARG C   2      53.564  37.274  38.574  1.00 25.55 LIG 0.17  HD
ATOM     22 HE   ARG C   2      54.967  35.523  38.538  1.00 20.36 LIG 0.18  HD
ENDBRANCH 13 14
ENDBRANCH 12 13
ENDBRANCH 11 12
ENDBRANCH 10 11
BRANCH 10 23
ATOM     23  N   ARG C   2      56.923  31.080  38.892  1.00 19.42 LIG-0.35  N 
ATOM     24  C   ASP C   1      55.833  30.424  39.265  1.00 19.51 LIG 0.25  C 
ATOM     25 O    ASP C   1      54.957  30.079  38.455  1.00 19.29 LIG-0.27  OA
ATOM     26 H    ARG C   2      57.619  31.196  39.383  1.00 19.42 LIG 0.16  HD
BRANCH 24 27
ATOM     27  CA  ASP C   1      55.657  30.115  40.741  1.00 19.04 LIG 0.28  C 
BRANCH 27 28
ATOM     28  CB  ASP C   1      56.174  28.727  41.020  1.00 21.34 LIG 0.15  C 
BRANCH 28 29
ATOM     29  CG  ASP C   1      56.036  28.342  42.516  1.00 23.67 LIG 0.17  C 
ATOM     30 OD2  ASP C   1      55.857  27.124  42.791  1.00 27.41 LIG-0.65  OA
ATOM     31 OD1  ASP C   1      56.079  29.248  43.411  1.00 20.87 LIG-0.65  OA
ENDBRANCH 28 29
ENDBRANCH 27 28
BRANCH 27 32
ATOM     32  N   ASP C   1      54.183  30.209  41.048  1.00 18.38 LIG-0.07  N 
ATOM     33 H1   ASP C   1      53.717  29.848  40.380  1.00 18.38 LIG 0.28  HD
ATOM     34 H3   ASP C   1      53.953  31.063  41.143  1.00 18.38 LIG 0.28  HD
ATOM     35 H2   ASP C   1      54.007  29.770  41.801  1.00 18.38 LIG 0.28  HD
ENDBRANCH 27 32
ENDBRANCH 24 27
ENDBRANCH 10 23
ENDBRANCH 8 10
ENDBRANCH 5 6
BRANCH 5 36
ATOM     36  CB  VAL C   3      57.774  27.106  36.017  1.00 17.74 LIG 0.01  C 
ATOM     37  CG1 VAL C   3      58.508  26.191  35.060  1.00 20.72 LIG 0.01  C 
ATOM     38  CG2 VAL C   3      58.431  26.973  37.379  1.00 18.64 LIG 0.01  C 
ENDBRANCH 5 36
ENDBRANCH 1 5
BRANCH 3 39
ATOM     39  CA  TYR C   4      56.582  28.403  31.895  1.00 17.90 LIG 0.18  C 
BRANCH 39 40
ATOM     40  CB  TYR C   4      57.299  27.766  30.745  1.00 20.19 LIG 0.07  C 
BRANCH 40 41
ATOM     41  CG  TYR C   4      56.799  28.126  29.371  1.00 23.00 LIG-0.06  A 
ATOM     42  CD2 TYR C   4      55.447  27.990  29.051  1.00 26.62 LIG 0.01  A 
ATOM     43  CE2 TYR C   4      54.968  28.308  27.797  1.00 28.63 LIG 0.04  A 
ATOM     44  CZ  TYR C   4      55.835  28.761  26.850  1.00 25.42 LIG 0.07  A 
ATOM     45  CE1 TYR C   4      57.145  28.947  27.137  1.00 26.89 LIG 0.04  A 
ATOM     46  CD1 TYR C   4      57.633  28.620  28.410  1.00 24.41 LIG 0.01  A 
BRANCH 44 47
ATOM     47 OH   TYR C   4      55.357  29.081  25.613  1.00 32.39 LIG-0.36  OA
ATOM     48 HH   TYR C   4      54.877  28.454  25.327  1.00 32.39 LIG 0.22  HD
ENDBRANCH 44 47
ENDBRANCH 40 41
ENDBRANCH 39 40
BRANCH 39 49
ATOM     49  C   TYR C   4      55.154  27.813  32.083  1.00 20.63 LIG 0.24  C 
ATOM     50 O    TYR C   4      54.982  26.635  32.233  1.00 19.73 LIG-0.27  OA
ATOM     51  N   ILE C   5      54.165  28.687  32.196  1.00 22.91 LIG-0.35  N 
ATOM     52 H    ILE C   5      54.273  29.540  32.214  1.00 22.91 LIG 0.16  HD
BRANCH 51 53
ATOM     53  CA  ILE C   5      52.784  28.250  32.300  1.00 27.58 LIG 0.18  C 
BRANCH 53 54
ATOM     54  C   ILE C   5      51.890  29.181  31.485  1.00 33.14 LIG 0.24  C 
ATOM     55  N   HIS C   6      51.673  30.408  31.979  1.00 39.14 LIG-0.35  N 
ATOM     56 H    HIS C   6      51.962  30.659  32.749  1.00 39.14 LIG 0.16  HD
ATOM     57 O    ILE C   5      51.337  28.728  30.487  1.00 25.88 LIG-0.27  OA
BRANCH 55 58
ATOM     58  CA  HIS C   6      50.904  31.480  31.249  1.00 56.87 LIG 0.17  C 
BRANCH 58 59
ATOM     59  CB  HIS C   6      51.649  31.905  29.950  1.00 66.39 LIG 0.09  C 
BRANCH 59 60
ATOM     60  CG  HIS C   6      53.147  31.826  30.031  1.00 78.50 LIG 0.06  A 
ATOM     61  CD2 HIS C   6      54.020  30.994  29.409  1.00 82.71 LIG 0.14  A 
ATOM     62 NE2  HIS C   6      55.288  31.371  29.789  1.00 84.02 LIG-0.25  NA
ATOM     63  CE1 HIS C   6      55.202  32.413  30.600  1.00 85.20 LIG 0.23  A 
ATOM     64 ND1  HIS C   6      53.922  32.713  30.758  1.00 88.66 LIG-0.24  NA
ENDBRANCH 59 60
ENDBRANCH 58 59
BRANCH 58 65
ATOM     65  C   HIS C   6      49.451  31.169  30.864  1.00 59.18 LIG 0.22  C 
ATOM     66 O    HIS C   6      49.194  30.475  29.844  1.00 63.69 LIG-0.29  OA
ENDBRANCH 58 65
ENDBRANCH 55 58
ENDBRANCH 53 54
BRANCH 53 67
ATOM     67  CB  ILE C   5      52.367  28.195  33.764  1.00 28.54 LIG 0.01  C 
ATOM     68  CG2 ILE C   5      52.827  26.862  34.350  1.00 32.34 LIG 0.01  C 
BRANCH 67 69
ATOM     69  CG1 ILE C   5      52.957  29.437  34.451  1.00 30.21 LIG 0.00  C 
ATOM     70  CD1 ILE C   5      52.110  30.076  35.522  1.00 32.85 LIG 0.01  C 
ENDBRANCH 67 69
ENDBRANCH 53 67
ENDBRANCH 51 53
ENDBRANCH 39 49
ENDBRANCH 3 39
TORSDOF 26
ENDMDL
MODEL 22
USER: ADFR SOLUTION from run 139
USER: SCORE 23.387752 LL:  -6.344 LR: -17.984 RR:   0.000 FEB: -10.228
USER: RMSD 5.532752
USER: SEED 138
USER: STATUS no improvement in best in 13 clusters for 5 generations
USER: GENES 28
USER: genes 0 Translation |==|  0.62301 0.46676 0.51176
USER: genes 1 Rotation |==|  0.39665 0.57464 0.48309 0.98318
USER: genes 2 Torsion [N]-C--CA-[N] |==|  0.50548
USER: genes 3 Torsion [C]-CA--N-[C] |==|  0.68593
USER: genes 4 Torsion [N]-C--CA-[N] |==|  0.14622
USER: genes 5 Torsion [C]-CA--CB-[CG] |==|  0.42427
USER: genes 6 Torsion [CA]-CB--CG-[CD] |==|  0.85157
USER: genes 7 Torsion [CB]-CG--CD-[NE] |==|  0.62156
USER: genes 8 Torsion [CG]-CD--NE-[CZ] |==|  0.72056
USER: genes 9 Torsion [C]-CA--N-[C] |==|  0.77889
USER: genes 10 Torsion [N]-C--CA-[N] |==|  0.38354
USER: genes 11 Torsion [C]-CA--CB-[CG] |==|  0.47644
USER: genes 12 Torsion [CA]-CB--CG-[OD2] |==|  0.46925
USER: genes 13 Torsion [C]-CA--N-[H1] |==|  0.40656
USER: genes 14 Torsion [C]-CA--CB-[CG1] |==|  0.56649
USER: genes 15 Torsion [C]-N--CA-[CB] |==|  0.80755
USER: genes 16 Torsion [N]-CA--CB-[CG] |==|  0.30870
USER: genes 17 Torsion [CA]-CB--CG-[CD2] |==|  0.75961
USER: genes 18 Torsion [CE2]-CZ--OH-[HH] |==|  0.28601
USER: genes 19 Torsion [N]-CA--C-[N] |==|  0.40152
USER: genes 20 Torsion [C]-N--CA-[C] |==|  0.76818
USER: genes 21 Torsion [N]-CA--C-[N] |==|  0.32362
USER: genes 22 Torsion [C]-N--CA-[CB] |==|  0.43288
USER: genes 23 Torsion [N]-CA--CB-[CG] |==|  0.99322
USER: genes 24 Torsion [CA]-CB--CG-[CD2] |==|  0.29765
USER: genes 25 Torsion [N]-CA--C-[O] |==|  0.36624
USER: genes 26 Torsion [N]-CA--CB-[CG1] |==|  0.75207
USER: genes 27 Torsion [CA]-CB--CG1-[CD1] |==|  0.15589
ROOT
ATOM      1  C   VAL C   3      56.266  28.482  34.670  1.00 15.94 LIG 0.24  C 
ATOM      2 O    VAL C   3      55.204  29.051  34.830  1.00 17.86 LIG-0.27  OA
ATOM      3  N   TYR C   4      56.429  27.577  33.710  1.00 16.41 LIG-0.35  N 
ATOM      4 H    TYR C   4      57.159  27.142  33.580  1.00 16.41 LIG 0.16  HD
ENDROOT
BRANCH 1 5
ATOM      5  CA  VAL C   3      57.442  28.781  35.621  1.00 16.01 LIG 0.18  C 
BRANCH 5 6
ATOM      6  N   VAL C   3      56.957  29.778  36.599  1.00 15.77 LIG-0.35  N 
ATOM      7 H    VAL C   3      56.348  29.499  37.140  1.00 15.77 LIG 0.16  HD
ATOM      8  C   ARG C   2      57.466  30.999  36.592  1.00 16.54 LIG 0.24  C 
ATOM      9 O    ARG C   2      58.423  31.324  35.857  1.00 14.63 LIG-0.27  OA
BRANCH 8 10
ATOM     10  CA  ARG C   2      56.851  32.006  37.544  1.00 19.03 LIG 0.18  C 
BRANCH 10 11
ATOM     11  CB  ARG C   2      57.656  33.308  37.486  1.00 20.38 LIG 0.04  C 
BRANCH 11 12
ATOM     12  CG  ARG C   2      56.887  34.542  37.822  1.00 20.75 LIG 0.02  C 
BRANCH 12 13
ATOM     13  CD  ARG C   2      55.678  34.645  37.002  1.00 22.55 LIG 0.14  C 
BRANCH 13 14
ATOM     14  NE  ARG C   2      55.469  35.974  36.495  1.00 20.36 LIG-0.23  N 
ATOM     15  CZ  ARG C   2      54.626  36.844  37.009  1.00 23.11 LIG 0.67  C 
ATOM     16  NH1 ARG C   2      54.012  36.589  38.111  1.00 23.20 LIG-0.23  N 
ATOM     17  NH2 ARG C   2      54.489  38.041  36.427  1.00 25.55 LIG-0.23  N 
ATOM     18 1HH1 ARG C   2      54.151  35.844  38.518  1.00 23.20 LIG 0.17  HD
ATOM     19 2HH1 ARG C   2      53.463  37.163  38.440  1.00 23.20 LIG 0.17  HD
ATOM     20 2HH2 ARG C   2      53.941  38.619  36.753  1.00 25.55 LIG 0.17  HD
ATOM     21 1HH2 ARG C   2      54.949  38.234  35.726  1.00 25.55 LIG 0.17  HD
ATOM     22 HE   ARG C   2      55.926  36.217  35.809  1.00 20.36 LIG 0.18  HD
ENDBRANCH 13 14
ENDBRANCH 12 13
ENDBRANCH 11 12
ENDBRANCH 10 11
BRANCH 10 23
ATOM     23  N   ARG C   2      56.820  31.481  38.919  1.00 19.42 LIG-0.35  N 
ATOM     24  C   ASP C   1      55.872  30.626  39.278  1.00 19.51 LIG 0.25  C 
ATOM     25 O    ASP C   1      55.140  30.061  38.449  1.00 19.29 LIG-0.27  OA
ATOM     26 H    ARG C   2      57.444  31.768  39.436  1.00 19.42 LIG 0.16  HD
BRANCH 24 27
ATOM     27  CA  ASP C   1      55.673  30.362  40.760  1.00 19.04 LIG 0.28  C 
BRANCH 27 28
ATOM     28  CB  ASP C   1      56.312  29.045  41.117  1.00 21.34 LIG 0.15  C 
BRANCH 28 29
ATOM     29  CG  ASP C   1      56.336  28.803  42.649  1.00 23.67 LIG 0.17  C 
ATOM     30 OD2  ASP C   1      56.649  27.650  43.054  1.00 27.41 LIG-0.65  OA
ATOM     31 OD1  ASP C   1      56.019  29.746  43.445  1.00 20.87 LIG-0.65  OA
ENDBRANCH 28 29
ENDBRANCH 27 28
BRANCH 27 32
ATOM     32  N   ASP C   1      54.187  30.323  41.015  1.00 18.38 LIG-0.07  N 
ATOM     33 H1   ASP C   1      54.011  29.736  41.661  1.00 18.38 LIG 0.28  HD
ATOM     34 H3   ASP C   1      53.764  30.080  40.270  1.00 18.38 LIG 0.28  HD
ATOM     35 H2   ASP C   1      53.906  31.130  41.264  1.00 18.38 LIG 0.28  HD
ENDBRANCH 27 32
ENDBRANCH 24 27
ENDBRANCH 10 23
ENDBRANCH 8 10
ENDBRANCH 5 6
BRANCH 5 36
ATOM     36  CB  VAL C   3      57.849  27.475  36.268  1.00 17.74 LIG 0.01  C 
ATOM     37  CG1 VAL C   3      58.551  27.699  37.590  1.00 20.72 LIG 0.01  C 
ATOM     38  CG2 VAL C   3      56.642  26.593  36.528  1.00 18.64 LIG 0.01  C 
ENDBRANCH 5 36
ENDBRANCH 1 5
BRANCH 3 39
ATOM     39  CA  TYR C   4      55.356  27.245  32.781  1.00 17.90 LIG 0.18  C 
BRANCH 39 40
ATOM     40  CB  TYR C   4      54.253  26.512  33.482  1.00 20.19 LIG 0.07  C 
BRANCH 40 41
ATOM     41  CG  TYR C   4      52.954  27.257  33.632  1.00 23.00 LIG-0.06  A 
ATOM     42  CD2 TYR C   4      52.746  28.106  34.720  1.00 26.62 LIG 0.01  A 
ATOM     43  CE2 TYR C   4      51.560  28.795  34.880  1.00 28.63 LIG 0.04  A 
ATOM     44  CZ  TYR C   4      50.572  28.638  33.958  1.00 25.42 LIG 0.07  A 
ATOM     45  CE1 TYR C   4      50.753  27.857  32.867  1.00 26.89 LIG 0.04  A 
ATOM     46  CD1 TYR C   4      51.956  27.155  32.706  1.00 24.41 LIG 0.01  A 
BRANCH 44 47
ATOM     47 OH   TYR C   4      49.403  29.325  34.116  1.00 32.39 LIG-0.36  OA
ATOM     48 HH   TYR C   4      49.390  29.979  33.589  1.00 32.39 LIG 0.22  HD
ENDBRANCH 44 47
ENDBRANCH 40 41
ENDBRANCH 39 40
BRANCH 39 49
ATOM     49  C   TYR C   4      54.822  28.478  31.998  1.00 20.63 LIG 0.24  C 
ATOM     50 O    TYR C   4      54.857  29.580  32.472  1.00 19.73 LIG-0.27  OA
ATOM     51  N   ILE C   5      54.452  28.265  30.744  1.00 22.91 LIG-0.35  N 
ATOM     52 H    ILE C   5      54.530  27.511  30.338  1.00 22.91 LIG 0.16  HD
BRANCH 51 53
ATOM     53  CA  ILE C   5      53.869  29.326  29.942  1.00 27.58 LIG 0.18  C 
BRANCH 53 54
ATOM     54  C   ILE C   5      52.374  29.427  30.235  1.00 33.14 LIG 0.24  C 
ATOM     55  N   HIS C   6      51.934  30.567  30.785  1.00 39.14 LIG-0.35  N 
ATOM     56 H    HIS C   6      52.461  31.202  31.029  1.00 39.14 LIG 0.16  HD
ATOM     57 O    ILE C   5      51.678  28.431  30.054  1.00 25.88 LIG-0.27  OA
BRANCH 55 58
ATOM     58  CA  HIS C   6      50.478  30.866  31.039  1.00 56.87 LIG 0.17  C 
BRANCH 58 59
ATOM     59  CB  HIS C   6      50.322  31.914  32.179  1.00 66.39 LIG 0.09  C 
BRANCH 59 60
ATOM     60  CG  HIS C   6      51.613  32.351  32.811  1.00 78.50 LIG 0.06  A 
ATOM     61  CD2 HIS C   6      52.292  33.521  32.708  1.00 82.71 LIG 0.14  A 
ATOM     62 NE2  HIS C   6      53.394  33.429  33.528  1.00 84.02 LIG-0.25  NA
ATOM     63  CE1 HIS C   6      53.384  32.253  34.132  1.00 85.20 LIG 0.23  A 
ATOM     64 ND1  HIS C   6      52.317  31.584  33.723  1.00 88.66 LIG-0.24  NA
ENDBRANCH 59 60
ENDBRANCH 58 59
BRANCH 58 65
ATOM     65  C   HIS C   6      49.640  31.355  29.849  1.00 59.18 LIG 0.22  C 
ATOM     66 O    HIS C   6      48.519  30.836  29.599  1.00 63.69 LIG-0.29  OA
ENDBRANCH 58 65
ENDBRANCH 55 58
ENDBRANCH 53 54
BRANCH 53 67
ATOM     67  CB  ILE C   5      54.145  29.072  28.466  1.00 28.54 LIG 0.01  C 
ATOM     68  CG2 ILE C   5      52.956  29.582  27.654  1.00 32.34 LIG 0.01  C 
BRANCH 67 69
ATOM     69  CG1 ILE C   5      55.487  29.744  28.133  1.00 30.21 LIG 0.00  C 
ATOM     70  CD1 ILE C   5      56.672  29.323  28.966  1.00 32.85 LIG 0.01  C 
ENDBRANCH 67 69
ENDBRANCH 53 67
ENDBRANCH 51 53
ENDBRANCH 39 49
ENDBRANCH 3 39
TORSDOF 26
ENDMDL
MODEL 23
USER: ADFR SOLUTION from run 115
USER: SCORE 22.519071 LL:  -5.639 LR: -17.906 RR:   0.000 FEB: -10.150
USER: RMSD 4.318790
USER: SEED 114
USER: STATUS no improvement in best in 7 clusters for 5 generations
USER: GENES 28
USER: genes 0 Translation |==|  0.71126 0.43401 0.54005
USER: genes 1 Rotation |==|  0.39531 0.52336 0.53683 0.98697
USER: genes 2 Torsion [N]-C--CA-[N] |==|  0.46740
USER: genes 3 Torsion [C]-CA--N-[C] |==|  0.76532
USER: genes 4 Torsion [N]-C--CA-[N] |==|  0.08241
USER: genes 5 Torsion [C]-CA--CB-[CG] |==|  0.49987
USER: genes 6 Torsion [CA]-CB--CG-[CD] |==|  0.74347
USER: genes 7 Torsion [CB]-CG--CD-[NE] |==|  0.47241
USER: genes 8 Torsion [CG]-CD--NE-[CZ] |==|  0.39625
USER: genes 9 Torsion [C]-CA--N-[C] |==|  0.75105
USER: genes 10 Torsion [N]-C--CA-[N] |==|  0.37619
USER: genes 11 Torsion [C]-CA--CB-[CG] |==|  0.42517
USER: genes 12 Torsion [CA]-CB--CG-[OD2] |==|  0.46642
USER: genes 13 Torsion [C]-CA--N-[H1] |==|  0.76153
USER: genes 14 Torsion [C]-CA--CB-[CG1] |==|  0.58980
USER: genes 15 Torsion [C]-N--CA-[CB] |==|  0.54721
USER: genes 16 Torsion [N]-CA--CB-[CG] |==|  0.10432
USER: genes 17 Torsion [CA]-CB--CG-[CD2] |==|  0.68012
USER: genes 18 Torsion [CE2]-CZ--OH-[HH] |==|  0.16397
USER: genes 19 Torsion [N]-CA--C-[N] |==|  0.35292
USER: genes 20 Torsion [C]-N--CA-[C] |==|  0.84151
USER: genes 21 Torsion [N]-CA--C-[N] |==|  0.39839
USER: genes 22 Torsion [C]-N--CA-[CB] |==|  0.87177
USER: genes 23 Torsion [N]-CA--CB-[CG] |==|  0.85382
USER: genes 24 Torsion [CA]-CB--CG-[CD2] |==|  0.44371
USER: genes 25 Torsion [N]-CA--C-[O] |==|  0.05687
USER: genes 26 Torsion [N]-CA--CB-[CG1] |==|  0.62266
USER: genes 27 Torsion [CA]-CB--CG1-[CD1] |==|  0.10066
ROOT
ATOM      1  C   VAL C   3      57.788  27.647  35.412  1.00 15.94 LIG 0.24  C 
ATOM      2 O    VAL C   3      56.606  27.929  35.406  1.00 17.86 LIG-0.27  OA
ATOM      3  N   TYR C   4      58.316  26.852  34.487  1.00 16.41 LIG-0.35  N 
ATOM      4 H    TYR C   4      59.143  26.616  34.472  1.00 16.41 LIG 0.16  HD
ENDROOT
BRANCH 1 5
ATOM      5  CA  VAL C   3      58.694  28.186  36.538  1.00 16.01 LIG 0.18  C 
BRANCH 5 6
ATOM      6  N   VAL C   3      57.930  29.245  37.231  1.00 15.77 LIG-0.35  N 
ATOM      7 H    VAL C   3      57.506  28.993  37.936  1.00 15.77 LIG 0.16  HD
ATOM      8  C   ARG C   2      57.937  30.476  36.748  1.00 16.54 LIG 0.24  C 
ATOM      9 O    ARG C   2      58.652  30.815  35.781  1.00 14.63 LIG-0.27  OA
BRANCH 8 10
ATOM     10  CA  ARG C   2      57.047  31.491  37.438  1.00 19.03 LIG 0.18  C 
BRANCH 10 11
ATOM     11  CB  ARG C   2      57.656  32.887  37.274  1.00 20.38 LIG 0.04  C 
BRANCH 11 12
ATOM     12  CG  ARG C   2      56.881  33.993  37.907  1.00 20.75 LIG 0.02  C 
BRANCH 12 13
ATOM     13  CD  ARG C   2      55.944  34.589  36.953  1.00 22.55 LIG 0.14  C 
BRANCH 13 14
ATOM     14  NE  ARG C   2      55.024  35.498  37.580  1.00 20.36 LIG-0.23  N 
ATOM     15  CZ  ARG C   2      54.598  36.620  37.039  1.00 23.11 LIG 0.67  C 
ATOM     16  NH1 ARG C   2      54.894  36.913  35.821  1.00 23.20 LIG-0.23  N 
ATOM     17  NH2 ARG C   2      53.769  37.406  37.736  1.00 25.55 LIG-0.23  N 
ATOM     18 1HH1 ARG C   2      55.374  36.375  35.354  1.00 23.20 LIG 0.17  HD
ATOM     19 2HH1 ARG C   2      54.611  37.648  35.475  1.00 23.20 LIG 0.17  HD
ATOM     20 2HH2 ARG C   2      53.483  38.142  37.393  1.00 25.55 LIG 0.17  HD
ATOM     21 1HH2 ARG C   2      53.521  37.176  38.527  1.00 25.55 LIG 0.17  HD
ATOM     22 HE   ARG C   2      54.732  35.295  38.363  1.00 20.36 LIG 0.18  HD
ENDBRANCH 13 14
ENDBRANCH 12 13
ENDBRANCH 11 12
ENDBRANCH 10 11
BRANCH 10 23
ATOM     23  N   ARG C   2      56.883  31.165  38.865  1.00 19.42 LIG-0.35  N 
ATOM     24  C   ASP C   1      55.892  30.374  39.252  1.00 19.51 LIG 0.25  C 
ATOM     25 O    ASP C   1      55.227  29.702  38.446  1.00 19.29 LIG-0.27  OA
ATOM     26 H    ARG C   2      57.463  31.519  39.391  1.00 19.42 LIG 0.16  HD
BRANCH 24 27
ATOM     27  CA  ASP C   1      55.556  30.323  40.732  1.00 19.04 LIG 0.28  C 
BRANCH 27 28
ATOM     28  CB  ASP C   1      56.081  29.035  41.312  1.00 21.34 LIG 0.15  C 
BRANCH 28 29
ATOM     29  CG  ASP C   1      56.394  29.162  42.826  1.00 23.67 LIG 0.17  C 
ATOM     30 OD2  ASP C   1      56.615  28.098  43.468  1.00 27.41 LIG-0.65  OA
ATOM     31 OD1  ASP C   1      56.395  30.309  43.380  1.00 20.87 LIG-0.65  OA
ENDBRANCH 28 29
ENDBRANCH 27 28
BRANCH 27 32
ATOM     32  N   ASP C   1      54.054  30.394  40.855  1.00 18.38 LIG-0.07  N 
ATOM     33 H1   ASP C   1      53.797  31.246  40.858  1.00 18.38 LIG 0.28  HD
ATOM     34 H3   ASP C   1      53.800  30.005  41.613  1.00 18.38 LIG 0.28  HD
ATOM     35 H2   ASP C   1      53.679  29.973  40.166  1.00 18.38 LIG 0.28  HD
ENDBRANCH 27 32
ENDBRANCH 24 27
ENDBRANCH 10 23
ENDBRANCH 8 10
ENDBRANCH 5 6
BRANCH 5 36
ATOM     36  CB  VAL C   3      59.039  27.024  37.442  1.00 17.74 LIG 0.01  C 
ATOM     37  CG1 VAL C   3      59.206  27.464  38.881  1.00 20.72 LIG 0.01  C 
ATOM     38  CG2 VAL C   3      57.955  25.961  37.407  1.00 18.64 LIG 0.01  C 
ENDBRANCH 5 36
ENDBRANCH 1 5
BRANCH 3 39
ATOM     39  CA  TYR C   4      57.513  26.304  33.400  1.00 17.90 LIG 0.18  C 
BRANCH 39 40
ATOM     40  CB  TYR C   4      58.210  25.147  32.754  1.00 20.19 LIG 0.07  C 
BRANCH 40 41
ATOM     41  CG  TYR C   4      58.974  24.236  33.677  1.00 23.00 LIG-0.06  A 
ATOM     42  CD2 TYR C   4      60.362  24.129  33.578  1.00 26.62 LIG 0.01  A 
ATOM     43  CE2 TYR C   4      61.083  23.295  34.410  1.00 28.63 LIG 0.04  A 
ATOM     44  CZ  TYR C   4      60.422  22.558  35.344  1.00 25.42 LIG 0.07  A 
ATOM     45  CE1 TYR C   4      59.082  22.668  35.499  1.00 26.89 LIG 0.04  A 
ATOM     46  CD1 TYR C   4      58.349  23.512  34.651  1.00 24.41 LIG 0.01  A 
BRANCH 44 47
ATOM     47 OH   TYR C   4      61.137  21.740  36.169  1.00 32.39 LIG-0.36  OA
ATOM     48 HH   TYR C   4      61.694  22.196  36.602  1.00 32.39 LIG 0.22  HD
ENDBRANCH 44 47
ENDBRANCH 40 41
ENDBRANCH 39 40
BRANCH 39 49
ATOM     49  C   TYR C   4      56.066  25.937  33.836  1.00 20.63 LIG 0.24  C 
ATOM     50 O    TYR C   4      55.856  25.318  34.842  1.00 19.73 LIG-0.27  OA
ATOM     51  N   ILE C   5      55.083  26.451  33.110  1.00 22.91 LIG-0.35  N 
ATOM     52 H    ILE C   5      55.200  26.997  32.456  1.00 22.91 LIG 0.16  HD
BRANCH 51 53
ATOM     53  CA  ILE C   5      53.696  26.115  33.379  1.00 27.58 LIG 0.18  C 
BRANCH 53 54
ATOM     54  C   ILE C   5      53.511  24.602  33.298  1.00 33.14 LIG 0.24  C 
ATOM     55  N   HIS C   6      52.655  24.043  34.164  1.00 39.14 LIG-0.35  N 
ATOM     56 H    HIS C   6      52.265  24.489  34.788  1.00 39.14 LIG 0.16  HD
ATOM     57 O    ILE C   5      54.226  23.970  32.525  1.00 25.88 LIG-0.27  OA
BRANCH 55 58
ATOM     58  CA  HIS C   6      52.280  22.583  34.147  1.00 56.87 LIG 0.17  C 
BRANCH 58 59
ATOM     59  CB  HIS C   6      51.954  22.115  32.698  1.00 66.39 LIG 0.09  C 
BRANCH 59 60
ATOM     60  CG  HIS C   6      50.935  22.956  31.982  1.00 78.50 LIG 0.06  A 
ATOM     61  CD2 HIS C   6      50.677  23.089  30.657  1.00 82.71 LIG 0.14  A 
ATOM     62 NE2  HIS C   6      49.609  23.947  30.530  1.00 84.02 LIG-0.25  NA
ATOM     63  CE1 HIS C   6      49.207  24.314  31.736  1.00 85.20 LIG 0.23  A 
ATOM     64 ND1  HIS C   6      49.985  23.726  32.631  1.00 88.66 LIG-0.24  NA
ENDBRANCH 59 60
ENDBRANCH 58 59
BRANCH 58 65
ATOM     65  C   HIS C   6      53.291  21.588  34.733  1.00 59.18 LIG 0.22  C 
ATOM     66 O    HIS C   6      54.183  21.977  35.534  1.00 63.69 LIG-0.29  OA
ENDBRANCH 58 65
ENDBRANCH 55 58
ENDBRANCH 53 54
BRANCH 53 67
ATOM     67  CB  ILE C   5      52.787  26.855  32.407  1.00 28.54 LIG 0.01  C 
ATOM     68  CG2 ILE C   5      52.388  25.895  31.288  1.00 32.34 LIG 0.01  C 
BRANCH 67 69
ATOM     69  CG1 ILE C   5      51.610  27.415  33.223  1.00 30.21 LIG 0.00  C 
ATOM     70  CD1 ILE C   5      51.931  27.901  34.614  1.00 32.85 LIG 0.01  C 
ENDBRANCH 67 69
ENDBRANCH 53 67
ENDBRANCH 51 53
ENDBRANCH 39 49
ENDBRANCH 3 39
TORSDOF 26
ENDMDL
MODEL 24
USER: ADFR SOLUTION from run 59
USER: SCORE 22.761482 LL:  -5.617 LR: -17.882 RR:   0.000 FEB: -10.126
USER: RMSD 3.334063
USER: SEED 58
USER: STATUS no improvement in best in 6 clusters for 5 generations
USER: GENES 28
USER: genes 0 Translation |==|  0.68302 0.46378 0.51765
USER: genes 1 Rotation |==|  0.51360 0.52408 0.54522 0.99718
USER: genes 2 Torsion [N]-C--CA-[N] |==|  0.41666
USER: genes 3 Torsion [C]-CA--N-[C] |==|  0.79457
USER: genes 4 Torsion [N]-C--CA-[N] |==|  0.06449
USER: genes 5 Torsion [C]-CA--CB-[CG] |==|  0.44858
USER: genes 6 Torsion [CA]-CB--CG-[CD] |==|  0.78118
USER: genes 7 Torsion [CB]-CG--CD-[NE] |==|  0.43600
USER: genes 8 Torsion [CG]-CD--NE-[CZ] |==|  0.42914
USER: genes 9 Torsion [C]-CA--N-[C] |==|  0.74367
USER: genes 10 Torsion [N]-C--CA-[N] |==|  0.38247
USER: genes 11 Torsion [C]-CA--CB-[CG] |==|  0.07994
USER: genes 12 Torsion [CA]-CB--CG-[OD2] |==|  0.69065
USER: genes 13 Torsion [C]-CA--N-[H1] |==|  0.48269
USER: genes 14 Torsion [C]-CA--CB-[CG1] |==|  0.15421
USER: genes 15 Torsion [C]-N--CA-[CB] |==|  0.55004
USER: genes 16 Torsion [N]-CA--CB-[CG] |==|  0.59749
USER: genes 17 Torsion [CA]-CB--CG-[CD2] |==|  0.50332
USER: genes 18 Torsion [CE2]-CZ--OH-[HH] |==|  0.38691
USER: genes 19 Torsion [N]-CA--C-[N] |==|  0.38889
USER: genes 20 Torsion [C]-N--CA-[C] |==|  0.86208
USER: genes 21 Torsion [N]-CA--C-[N] |==|  0.37473
USER: genes 22 Torsion [C]-N--CA-[CB] |==|  0.33298
USER: genes 23 Torsion [N]-CA--CB-[CG] |==|  0.98235
USER: genes 24 Torsion [CA]-CB--CG-[CD2] |==|  0.24180
USER: genes 25 Torsion [N]-CA--C-[O] |==|  0.68881
USER: genes 26 Torsion [N]-CA--CB-[CG1] |==|  0.86588
USER: genes 27 Torsion [CA]-CB--CG1-[CD1] |==|  0.29427
ROOT
ATOM      1  C   VAL C   3      57.301  28.406  34.824  1.00 15.94 LIG 0.24  C 
ATOM      2 O    VAL C   3      56.120  28.640  34.995  1.00 17.86 LIG-0.27  OA
ATOM      3  N   TYR C   4      57.786  28.131  33.618  1.00 16.41 LIG-0.35  N 
ATOM      4 H    TYR C   4      58.611  27.943  33.463  1.00 16.41 LIG 0.16  HD
ENDROOT
BRANCH 1 5
ATOM      5  CA  VAL C   3      58.257  28.386  36.035  1.00 16.01 LIG 0.18  C 
BRANCH 5 6
ATOM      6  N   VAL C   3      57.731  29.366  37.009  1.00 15.77 LIG-0.35  N 
ATOM      7 H    VAL C   3      57.350  29.029  37.703  1.00 15.77 LIG 0.16  HD
ATOM      8  C   ARG C   2      57.870  30.660  36.772  1.00 16.54 LIG 0.24  C 
ATOM      9 O    ARG C   2      58.525  31.099  35.803  1.00 14.63 LIG-0.27  OA
BRANCH 8 10
ATOM     10  CA  ARG C   2      57.215  31.613  37.752  1.00 19.03 LIG 0.18  C 
BRANCH 10 11
ATOM     11  CB  ARG C   2      58.091  32.862  37.900  1.00 20.38 LIG 0.04  C 
BRANCH 11 12
ATOM     12  CG  ARG C   2      57.400  34.054  38.472  1.00 20.75 LIG 0.02  C 
BRANCH 12 13
ATOM     13  CD  ARG C   2      56.584  34.723  37.457  1.00 22.55 LIG 0.14  C 
BRANCH 13 14
ATOM     14  NE  ARG C   2      55.527  35.509  38.032  1.00 20.36 LIG-0.23  N 
ATOM     15  CZ  ARG C   2      54.970  36.550  37.450  1.00 23.11 LIG 0.67  C 
ATOM     16  NH1 ARG C   2      55.265  36.856  36.235  1.00 23.20 LIG-0.23  N 
ATOM     17  NH2 ARG C   2      54.017  37.228  38.101  1.00 25.55 LIG-0.23  N 
ATOM     18 1HH1 ARG C   2      55.830  36.379  35.797  1.00 23.20 LIG 0.17  HD
ATOM     19 2HH1 ARG C   2      54.896  37.538  35.862  1.00 23.20 LIG 0.17  HD
ATOM     20 2HH2 ARG C   2      53.645  37.910  37.731  1.00 25.55 LIG 0.17  HD
ATOM     21 1HH2 ARG C   2      53.776  36.982  38.889  1.00 25.55 LIG 0.17  HD
ATOM     22 HE   ARG C   2      55.239  35.283  38.810  1.00 20.36 LIG 0.18  HD
ENDBRANCH 13 14
ENDBRANCH 12 13
ENDBRANCH 11 12
ENDBRANCH 10 11
BRANCH 10 23
ATOM     23  N   ARG C   2      57.013  30.968  39.060  1.00 19.42 LIG-0.35  N 
ATOM     24  C   ASP C   1      55.868  30.354  39.323  1.00 19.51 LIG 0.25  C 
ATOM     25 O    ASP C   1      55.038  30.090  38.437  1.00 19.29 LIG-0.27  OA
ATOM     26 H    ARG C   2      57.675  31.027  39.605  1.00 19.42 LIG 0.16  HD
BRANCH 24 27
ATOM     27  CA  ASP C   1      55.567  29.991  40.767  1.00 19.04 LIG 0.28  C 
BRANCH 27 28
ATOM     28  CB  ASP C   1      55.827  28.521  40.971  1.00 21.34 LIG 0.15  C 
BRANCH 28 29
ATOM     29  CG  ASP C   1      56.922  27.983  40.014  1.00 23.67 LIG 0.17  C 
ATOM     30 OD2  ASP C   1      56.564  27.182  39.108  1.00 27.41 LIG-0.65  OA
ATOM     31 OD1  ASP C   1      58.137  28.334  40.178  1.00 20.87 LIG-0.65  OA
ENDBRANCH 28 29
ENDBRANCH 27 28
BRANCH 27 32
ATOM     32  N   ASP C   1      54.117  30.320  41.021  1.00 18.38 LIG-0.07  N 
ATOM     33 H1   ASP C   1      53.886  30.035  41.832  1.00 18.38 LIG 0.28  HD
ATOM     34 H3   ASP C   1      53.610  29.918  40.409  1.00 18.38 LIG 0.28  HD
ATOM     35 H2   ASP C   1      53.998  31.200  40.971  1.00 18.38 LIG 0.28  HD
ENDBRANCH 27 32
ENDBRANCH 24 27
ENDBRANCH 10 23
ENDBRANCH 8 10
ENDBRANCH 5 6
BRANCH 5 36
ATOM     36  CB  VAL C   3      58.278  26.974  36.576  1.00 17.74 LIG 0.01  C 
ATOM     37  CG1 VAL C   3      58.657  25.970  35.508  1.00 20.72 LIG 0.01  C 
ATOM     38  CG2 VAL C   3      59.274  26.838  37.713  1.00 18.64 LIG 0.01  C 
ENDBRANCH 5 36
ENDBRANCH 1 5
BRANCH 3 39
ATOM     39  CA  TYR C   4      56.935  28.128  32.434  1.00 17.90 LIG 0.18  C 
BRANCH 39 40
ATOM     40  CB  TYR C   4      57.589  27.385  31.310  1.00 20.19 LIG 0.07  C 
BRANCH 40 41
ATOM     41  CG  TYR C   4      57.337  27.922  29.926  1.00 23.00 LIG-0.06  A 
ATOM     42  CD2 TYR C   4      57.880  27.286  28.809  1.00 26.62 LIG 0.01  A 
ATOM     43  CE2 TYR C   4      57.667  27.765  27.532  1.00 28.63 LIG 0.04  A 
ATOM     44  CZ  TYR C   4      56.912  28.885  27.361  1.00 25.42 LIG 0.07  A 
ATOM     45  CE1 TYR C   4      56.333  29.503  28.416  1.00 26.89 LIG 0.04  A 
ATOM     46  CD1 TYR C   4      56.552  29.019  29.714  1.00 24.41 LIG 0.01  A 
BRANCH 44 47
ATOM     47 OH   TYR C   4      56.698  29.352  26.097  1.00 32.39 LIG-0.36  OA
ATOM     48 HH   TYR C   4      55.900  29.606  26.024  1.00 32.39 LIG 0.22  HD
ENDBRANCH 44 47
ENDBRANCH 40 41
ENDBRANCH 39 40
BRANCH 39 49
ATOM     49  C   TYR C   4      55.499  27.601  32.716  1.00 20.63 LIG 0.24  C 
ATOM     50 O    TYR C   4      55.299  26.739  33.527  1.00 19.73 LIG-0.27  OA
ATOM     51  N   ILE C   5      54.507  28.240  32.112  1.00 22.91 LIG-0.35  N 
ATOM     52 H    ILE C   5      54.610  28.938  31.621  1.00 22.91 LIG 0.16  HD
BRANCH 51 53
ATOM     53  CA  ILE C   5      53.133  27.789  32.243  1.00 27.58 LIG 0.18  C 
BRANCH 53 54
ATOM     54  C   ILE C   5      53.056  26.292  31.954  1.00 33.14 LIG 0.24  C 
ATOM     55  N   HIS C   6      52.327  25.543  32.793  1.00 39.14 LIG-0.35  N 
ATOM     56 H    HIS C   6      51.963  25.860  33.504  1.00 39.14 LIG 0.16  HD
ATOM     57 O    ILE C   5      53.744  25.841  31.042  1.00 25.88 LIG-0.27  OA
BRANCH 55 58
ATOM     58  CA  HIS C   6      52.064  24.073  32.589  1.00 56.87 LIG 0.17  C 
BRANCH 58 59
ATOM     59  CB  HIS C   6      52.620  23.243  33.783  1.00 66.39 LIG 0.09  C 
BRANCH 59 60
ATOM     60  CG  HIS C   6      53.413  24.036  34.783  1.00 78.50 LIG 0.06  A 
ATOM     61  CD2 HIS C   6      53.007  24.735  35.873  1.00 82.71 LIG 0.14  A 
ATOM     62 NE2  HIS C   6      54.135  25.238  36.480  1.00 84.02 LIG-0.25  NA
ATOM     63  CE1 HIS C   6      55.201  24.846  35.802  1.00 85.20 LIG 0.23  A 
ATOM     64 ND1  HIS C   6      54.795  24.113  34.776  1.00 88.66 LIG-0.24  NA
ENDBRANCH 59 60
ENDBRANCH 58 59
BRANCH 58 65
ATOM     65  C   HIS C   6      50.608  23.640  32.367  1.00 59.18 LIG 0.22  C 
ATOM     66 O    HIS C   6      50.005  22.955  33.236  1.00 63.69 LIG-0.29  OA
ENDBRANCH 58 65
ENDBRANCH 55 58
ENDBRANCH 53 54
BRANCH 53 67
ATOM     67  CB  ILE C   5      52.233  28.596  31.317  1.00 28.54 LIG 0.01  C 
ATOM     68  CG2 ILE C   5      50.780  28.227  31.609  1.00 32.34 LIG 0.01  C 
BRANCH 67 69
ATOM     69  CG1 ILE C   5      52.575  30.080  31.532  1.00 30.21 LIG 0.00  C 
ATOM     70  CD1 ILE C   5      53.367  30.750  30.437  1.00 32.85 LIG 0.01  C 
ENDBRANCH 67 69
ENDBRANCH 53 67
ENDBRANCH 51 53
ENDBRANCH 39 49
ENDBRANCH 3 39
TORSDOF 26
ENDMDL
MODEL 25
USER: ADFR SOLUTION from run 131
USER: SCORE 21.320143 LL:  -5.721 LR: -17.868 RR:   0.000 FEB: -10.112
USER: RMSD 2.740042
USER: SEED 130
USER: STATUS no improvement in best in 8 clusters for 5 generations
USER: GENES 28
USER: genes 0 Translation |==|  0.68571 0.46654 0.51674
USER: genes 1 Rotation |==|  0.50066 0.50468 0.50677 0.99993
USER: genes 2 Torsion [N]-C--CA-[N] |==|  0.43209
USER: genes 3 Torsion [C]-CA--N-[C] |==|  0.79895
USER: genes 4 Torsion [N]-C--CA-[N] |==|  0.08333
USER: genes 5 Torsion [C]-CA--CB-[CG] |==|  0.44232
USER: genes 6 Torsion [CA]-CB--CG-[CD] |==|  0.82530
USER: genes 7 Torsion [CB]-CG--CD-[NE] |==|  0.44369
USER: genes 8 Torsion [CG]-CD--NE-[CZ] |==|  0.36385
USER: genes 9 Torsion [C]-CA--N-[C] |==|  0.74408
USER: genes 10 Torsion [N]-C--CA-[N] |==|  0.41854
USER: genes 11 Torsion [C]-CA--CB-[CG] |==|  0.42479
USER: genes 12 Torsion [CA]-CB--CG-[OD2] |==|  0.49897
USER: genes 13 Torsion [C]-CA--N-[H1] |==|  0.43958
USER: genes 14 Torsion [C]-CA--CB-[CG1] |==|  0.47666
USER: genes 15 Torsion [C]-N--CA-[CB] |==|  0.42891
USER: genes 16 Torsion [N]-CA--CB-[CG] |==|  0.53815
USER: genes 17 Torsion [CA]-CB--CG-[CD2] |==|  0.10473
USER: genes 18 Torsion [CE2]-CZ--OH-[HH] |==|  0.95473
USER: genes 19 Torsion [N]-CA--C-[N] |==|  0.09842
USER: genes 20 Torsion [C]-N--CA-[C] |==|  0.77363
USER: genes 21 Torsion [N]-CA--C-[N] |==|  0.31805
USER: genes 22 Torsion [C]-N--CA-[CB] |==|  0.74753
USER: genes 23 Torsion [N]-CA--CB-[CG] |==|  0.93687
USER: genes 24 Torsion [CA]-CB--CG-[CD2] |==|  0.86484
USER: genes 25 Torsion [N]-CA--C-[O] |==|  0.75917
USER: genes 26 Torsion [N]-CA--CB-[CG1] |==|  0.76611
USER: genes 27 Torsion [CA]-CB--CG1-[CD1] |==|  0.21179
ROOT
ATOM      1  C   VAL C   3      57.348  28.477  34.800  1.00 15.94 LIG 0.24  C 
ATOM      2 O    VAL C   3      56.208  28.895  34.863  1.00 17.86 LIG-0.27  OA
ATOM      3  N   TYR C   4      57.872  28.062  33.651  1.00 16.41 LIG-0.35  N 
ATOM      4 H    TYR C   4      58.666  27.743  33.574  1.00 16.41 LIG 0.16  HD
ENDROOT
BRANCH 1 5
ATOM      5  CA  VAL C   3      58.197  28.383  36.084  1.00 16.01 LIG 0.18  C 
BRANCH 5 6
ATOM      6  N   VAL C   3      57.668  29.398  37.020  1.00 15.77 LIG-0.35  N 
ATOM      7 H    VAL C   3      57.225  29.088  37.690  1.00 15.77 LIG 0.16  HD
ATOM      8  C   ARG C   2      57.896  30.680  36.788  1.00 16.54 LIG 0.24  C 
ATOM      9 O    ARG C   2      58.635  31.074  35.861  1.00 14.63 LIG-0.27  OA
BRANCH 8 10
ATOM     10  CA  ARG C   2      57.236  31.676  37.722  1.00 19.03 LIG 0.18  C 
BRANCH 10 11
ATOM     11  CB  ARG C   2      58.092  32.946  37.788  1.00 20.38 LIG 0.04  C 
BRANCH 11 12
ATOM     12  CG  ARG C   2      57.373  34.168  38.250  1.00 20.75 LIG 0.02  C 
BRANCH 12 13
ATOM     13  CD  ARG C   2      56.299  34.527  37.322  1.00 22.55 LIG 0.14  C 
BRANCH 13 14
ATOM     14  NE  ARG C   2      55.310  35.376  37.928  1.00 20.36 LIG-0.23  N 
ATOM     15  CZ  ARG C   2      54.857  36.492  37.396  1.00 23.11 LIG 0.67  C 
ATOM     16  NH1 ARG C   2      55.195  36.831  36.202  1.00 23.20 LIG-0.23  N 
ATOM     17  NH2 ARG C   2      53.962  37.220  38.073  1.00 25.55 LIG-0.23  N 
ATOM     18 1HH1 ARG C   2      55.720  36.328  35.744  1.00 23.20 LIG 0.17  HD
ATOM     19 2HH1 ARG C   2      54.894  37.562  35.861  1.00 23.20 LIG 0.17  HD
ATOM     20 2HH2 ARG C   2      53.658  37.951  37.736  1.00 25.55 LIG 0.17  HD
ATOM     21 1HH2 ARG C   2      53.689  36.957  38.846  1.00 25.55 LIG 0.17  HD
ATOM     22 HE   ARG C   2      54.992  35.138  38.691  1.00 20.36 LIG 0.18  HD
ENDBRANCH 13 14
ENDBRANCH 12 13
ENDBRANCH 11 12
ENDBRANCH 10 11
BRANCH 10 23
ATOM     23  N   ARG C   2      57.061  31.103  39.066  1.00 19.42 LIG-0.35  N 
ATOM     24  C   ASP C   1      55.931  30.483  39.378  1.00 19.51 LIG 0.25  C 
ATOM     25 O    ASP C   1      55.098  30.153  38.518  1.00 19.29 LIG-0.27  OA
ATOM     26 H    ARG C   2      57.728  31.205  39.599  1.00 19.42 LIG 0.16  HD
BRANCH 24 27
ATOM     27  CA  ASP C   1      55.654  30.197  40.843  1.00 19.04 LIG 0.28  C 
BRANCH 27 28
ATOM     28  CB  ASP C   1      56.238  28.856  41.204  1.00 21.34 LIG 0.15  C 
BRANCH 28 29
ATOM     29  CG  ASP C   1      56.609  28.766  42.707  1.00 23.67 LIG 0.17  C 
ATOM     30 OD2  ASP C   1      57.102  27.682  43.123  1.00 27.41 LIG-0.65  OA
ATOM     31 OD1  ASP C   1      56.387  29.757  43.476  1.00 20.87 LIG-0.65  OA
ENDBRANCH 28 29
ENDBRANCH 27 28
BRANCH 27 32
ATOM     32  N   ASP C   1      54.157  30.196  41.026  1.00 18.38 LIG-0.07  N 
ATOM     33 H1   ASP C   1      53.947  29.738  41.760  1.00 18.38 LIG 0.28  HD
ATOM     34 H3   ASP C   1      53.772  29.817  40.319  1.00 18.38 LIG 0.28  HD
ATOM     35 H2   ASP C   1      53.866  31.034  41.107  1.00 18.38 LIG 0.28  HD
ENDBRANCH 27 32
ENDBRANCH 24 27
ENDBRANCH 10 23
ENDBRANCH 8 10
ENDBRANCH 5 6
BRANCH 5 36
ATOM     36  CB  VAL C   3      58.067  26.972  36.615  1.00 17.74 LIG 0.01  C 
ATOM     37  CG1 VAL C   3      59.023  26.714  37.760  1.00 20.72 LIG 0.01  C 
ATOM     38  CG2 VAL C   3      56.660  26.702  37.117  1.00 18.64 LIG 0.01  C 
ENDBRANCH 5 36
ENDBRANCH 1 5
BRANCH 3 39
ATOM     39  CA  TYR C   4      57.120  28.118  32.403  1.00 17.90 LIG 0.18  C 
BRANCH 39 40
ATOM     40  CB  TYR C   4      58.045  28.202  31.228  1.00 20.19 LIG 0.07  C 
BRANCH 40 41
ATOM     41  CG  TYR C   4      57.414  28.586  29.916  1.00 23.00 LIG-0.06  A 
ATOM     42  CD2 TYR C   4      56.392  29.536  29.872  1.00 26.62 LIG 0.01  A 
ATOM     43  CE2 TYR C   4      55.796  29.898  28.681  1.00 28.63 LIG 0.04  A 
ATOM     44  CZ  TYR C   4      56.212  29.312  27.526  1.00 25.42 LIG 0.07  A 
ATOM     45  CE1 TYR C   4      57.230  28.420  27.523  1.00 26.89 LIG 0.04  A 
ATOM     46  CD1 TYR C   4      57.834  28.049  28.733  1.00 24.41 LIG 0.01  A 
BRANCH 44 47
ATOM     47 OH   TYR C   4      55.625  29.678  26.349  1.00 32.39 LIG-0.36  OA
ATOM     48 HH   TYR C   4      54.905  30.080  26.508  1.00 32.39 LIG 0.22  HD
ENDBRANCH 44 47
ENDBRANCH 40 41
ENDBRANCH 39 40
BRANCH 39 49
ATOM     49  C   TYR C   4      56.099  26.955  32.253  1.00 20.63 LIG 0.24  C 
ATOM     50 O    TYR C   4      55.953  26.386  31.206  1.00 19.73 LIG-0.27  OA
ATOM     51  N   ILE C   5      55.501  26.548  33.363  1.00 22.91 LIG-0.35  N 
ATOM     52 H    ILE C   5      55.675  26.855  34.147  1.00 22.91 LIG 0.16  HD
BRANCH 51 53
ATOM     53  CA  ILE C   5      54.475  25.520  33.330  1.00 27.58 LIG 0.18  C 
BRANCH 53 54
ATOM     54  C   ILE C   5      53.138  26.145  32.937  1.00 33.14 LIG 0.24  C 
ATOM     55  N   HIS C   6      52.606  25.766  31.768  1.00 39.14 LIG-0.35  N 
ATOM     56 H    HIS C   6      53.012  25.244  31.217  1.00 39.14 LIG 0.16  HD
ATOM     57 O    ILE C   5      52.678  27.030  33.653  1.00 25.88 LIG-0.27  OA
BRANCH 55 58
ATOM     58  CA  HIS C   6      51.247  26.206  31.284  1.00 56.87 LIG 0.17  C 
BRANCH 58 59
ATOM     59  CB  HIS C   6      50.149  25.200  31.738  1.00 66.39 LIG 0.09  C 
BRANCH 59 60
ATOM     60  CG  HIS C   6      50.652  23.819  32.047  1.00 78.50 LIG 0.06  A 
ATOM     61  CD2 HIS C   6      51.466  22.999  31.336  1.00 82.71 LIG 0.14  A 
ATOM     62 NE2  HIS C   6      51.659  21.861  32.086  1.00 84.02 LIG-0.25  NA
ATOM     63  CE1 HIS C   6      51.005  21.984  33.230  1.00 85.20 LIG 0.23  A 
ATOM     64 ND1  HIS C   6      50.394  23.159  33.236  1.00 88.66 LIG-0.24  NA
ENDBRANCH 59 60
ENDBRANCH 58 59
BRANCH 58 65
ATOM     65  C   HIS C   6      50.776  27.611  31.684  1.00 59.18 LIG 0.22  C 
ATOM     66 O    HIS C   6      50.182  27.800  32.779  1.00 63.69 LIG-0.29  OA
ENDBRANCH 58 65
ENDBRANCH 55 58
ENDBRANCH 53 54
BRANCH 53 67
ATOM     67  CB  ILE C   5      54.402  24.818  34.679  1.00 28.54 LIG 0.01  C 
ATOM     68  CG2 ILE C   5      52.976  24.312  34.887  1.00 32.34 LIG 0.01  C 
BRANCH 67 69
ATOM     69  CG1 ILE C   5      55.479  23.721  34.678  1.00 30.21 LIG 0.00  C 
ATOM     70  CD1 ILE C   5      56.903  24.179  34.870  1.00 32.85 LIG 0.01  C 
ENDBRANCH 67 69
ENDBRANCH 53 67
ENDBRANCH 51 53
ENDBRANCH 39 49
ENDBRANCH 3 39
TORSDOF 26
ENDMDL
MODEL 26
USER: ADFR SOLUTION from run 84
USER: SCORE 22.074705 LL:  -5.383 LR: -17.844 RR:   0.000 FEB: -10.088
USER: RMSD 4.459101
USER: SEED 83
USER: STATUS searching
USER: GENES 28
USER: genes 0 Translation |==|  0.68756 0.47064 0.51170
USER: genes 1 Rotation |==|  0.49708 0.49814 0.47971 0.99958
USER: genes 2 Torsion [N]-C--CA-[N] |==|  0.44877
USER: genes 3 Torsion [C]-CA--N-[C] |==|  0.80200
USER: genes 4 Torsion [N]-C--CA-[N] |==|  0.08802
USER: genes 5 Torsion [C]-CA--CB-[CG] |==|  0.44145
USER: genes 6 Torsion [CA]-CB--CG-[CD] |==|  0.81897
USER: genes 7 Torsion [CB]-CG--CD-[NE] |==|  0.44403
USER: genes 8 Torsion [CG]-CD--NE-[CZ] |==|  0.36750
USER: genes 9 Torsion [C]-CA--N-[C] |==|  0.74694
USER: genes 10 Torsion [N]-C--CA-[N] |==|  0.38555
USER: genes 11 Torsion [C]-CA--CB-[CG] |==|  0.44346
USER: genes 12 Torsion [CA]-CB--CG-[OD2] |==|  0.48073
USER: genes 13 Torsion [C]-CA--N-[H1] |==|  0.46300
USER: genes 14 Torsion [C]-CA--CB-[CG1] |==|  0.49580
USER: genes 15 Torsion [C]-N--CA-[CB] |==|  0.54444
USER: genes 16 Torsion [N]-CA--CB-[CG] |==|  0.16968
USER: genes 17 Torsion [CA]-CB--CG-[CD2] |==|  0.34550
USER: genes 18 Torsion [CE2]-CZ--OH-[HH] |==|  0.77137
USER: genes 19 Torsion [N]-CA--C-[N] |==|  0.28852
USER: genes 20 Torsion [C]-N--CA-[C] |==|  0.62169
USER: genes 21 Torsion [N]-CA--C-[N] |==|  0.42260
USER: genes 22 Torsion [C]-N--CA-[CB] |==|  0.34556
USER: genes 23 Torsion [N]-CA--CB-[CG] |==|  0.56196
USER: genes 24 Torsion [CA]-CB--CG-[CD2] |==|  0.01010
USER: genes 25 Torsion [N]-CA--C-[O] |==|  0.67284
USER: genes 26 Torsion [N]-CA--CB-[CG1] |==|  0.12681
USER: genes 27 Torsion [CA]-CB--CG1-[CD1] |==|  0.29650
ROOT
ATOM      1  C   VAL C   3      57.379  28.581  34.668  1.00 15.94 LIG 0.24  C 
ATOM      2 O    VAL C   3      56.290  29.121  34.694  1.00 17.86 LIG-0.27  OA
ATOM      3  N   TYR C   4      57.884  28.094  33.539  1.00 16.41 LIG-0.35  N 
ATOM      4 H    TYR C   4      58.642  27.690  33.488  1.00 16.41 LIG 0.16  HD
ENDROOT
BRANCH 1 5
ATOM      5  CA  VAL C   3      58.180  28.418  35.976  1.00 16.01 LIG 0.18  C 
BRANCH 5 6
ATOM      6  N   VAL C   3      57.639  29.404  36.934  1.00 15.77 LIG-0.35  N 
ATOM      7 H    VAL C   3      57.178  29.075  37.583  1.00 15.77 LIG 0.16  HD
ATOM      8  C   ARG C   2      57.881  30.692  36.751  1.00 16.54 LIG 0.24  C 
ATOM      9 O    ARG C   2      58.643  31.111  35.855  1.00 14.63 LIG-0.27  OA
BRANCH 8 10
ATOM     10  CA  ARG C   2      57.208  31.661  37.704  1.00 19.03 LIG 0.18  C 
BRANCH 10 11
ATOM     11  CB  ARG C   2      58.050  32.937  37.799  1.00 20.38 LIG 0.04  C 
BRANCH 11 12
ATOM     12  CG  ARG C   2      57.316  34.144  38.278  1.00 20.75 LIG 0.02  C 
BRANCH 12 13
ATOM     13  CD  ARG C   2      56.280  34.541  37.323  1.00 22.55 LIG 0.14  C 
BRANCH 13 14
ATOM     14  NE  ARG C   2      55.270  35.372  37.920  1.00 20.36 LIG-0.23  N 
ATOM     15  CZ  ARG C   2      54.824  36.495  37.399  1.00 23.11 LIG 0.67  C 
ATOM     16  NH1 ARG C   2      55.191  36.861  36.220  1.00 23.20 LIG-0.23  N 
ATOM     17  NH2 ARG C   2      53.907  37.205  38.066  1.00 25.55 LIG-0.23  N 
ATOM     18 1HH1 ARG C   2      55.731  36.369  35.766  1.00 23.20 LIG 0.17  HD
ATOM     19 2HH1 ARG C   2      54.894  37.596  35.887  1.00 23.20 LIG 0.17  HD
ATOM     20 2HH2 ARG C   2      53.608  37.940  37.736  1.00 25.55 LIG 0.17  HD
ATOM     21 1HH2 ARG C   2      53.616  36.925  38.826  1.00 25.55 LIG 0.17  HD
ATOM     22 HE   ARG C   2      54.934  35.117  38.669  1.00 20.36 LIG 0.18  HD
ENDBRANCH 13 14
ENDBRANCH 12 13
ENDBRANCH 11 12
ENDBRANCH 10 11
BRANCH 10 23
ATOM     23  N   ARG C   2      57.035  31.057  39.035  1.00 19.42 LIG-0.35  N 
ATOM     24  C   ASP C   1      55.920  30.401  39.323  1.00 19.51 LIG 0.25  C 
ATOM     25 O    ASP C   1      55.104  30.066  38.449  1.00 19.29 LIG-0.27  OA
ATOM     26 H    ARG C   2      57.694  31.167  39.577  1.00 19.42 LIG 0.16  HD
BRANCH 24 27
ATOM     27  CA  ASP C   1      55.636  30.080  40.780  1.00 19.04 LIG 0.28  C 
BRANCH 27 28
ATOM     28  CB  ASP C   1      55.989  28.640  41.046  1.00 21.34 LIG 0.15  C 
BRANCH 28 29
ATOM     29  CG  ASP C   1      56.216  28.363  42.555  1.00 23.67 LIG 0.17  C 
ATOM     30 OD2  ASP C   1      56.385  27.164  42.910  1.00 27.41 LIG-0.65  OA
ATOM     31 OD1  ASP C   1      56.198  29.328  43.387  1.00 20.87 LIG-0.65  OA
ENDBRANCH 28 29
ENDBRANCH 27 28
BRANCH 27 32
ATOM     32  N   ASP C   1      54.166  30.324  41.016  1.00 18.38 LIG-0.07  N 
ATOM     33 H1   ASP C   1      53.927  29.966  41.796  1.00 18.38 LIG 0.28  HD
ATOM     34 H3   ASP C   1      53.694  29.950  40.361  1.00 18.38 LIG 0.28  HD
ATOM     35 H2   ASP C   1      54.008  31.200  41.031  1.00 18.38 LIG 0.28  HD
ENDBRANCH 27 32
ENDBRANCH 24 27
ENDBRANCH 10 23
ENDBRANCH 8 10
ENDBRANCH 5 6
BRANCH 5 36
ATOM     36  CB  VAL C   3      58.005  26.989  36.443  1.00 17.74 LIG 0.01  C 
ATOM     37  CG1 VAL C   3      58.788  26.713  37.709  1.00 20.72 LIG 0.01  C 
ATOM     38  CG2 VAL C   3      56.546  26.680  36.724  1.00 18.64 LIG 0.01  C 
ENDBRANCH 5 36
ENDBRANCH 1 5
BRANCH 3 39
ATOM     39  CA  TYR C   4      57.176  28.210  32.271  1.00 17.90 LIG 0.18  C 
BRANCH 39 40
ATOM     40  CB  TYR C   4      57.745  27.270  31.254  1.00 20.19 LIG 0.07  C 
BRANCH 40 41
ATOM     41  CG  TYR C   4      57.671  25.805  31.593  1.00 23.00 LIG-0.06  A 
ATOM     42  CD2 TYR C   4      57.054  24.906  30.721  1.00 26.62 LIG 0.01  A 
ATOM     43  CE2 TYR C   4      56.969  23.560  31.014  1.00 28.63 LIG 0.04  A 
ATOM     44  CZ  TYR C   4      57.496  23.101  32.182  1.00 25.42 LIG 0.07  A 
ATOM     45  CE1 TYR C   4      58.141  23.935  33.032  1.00 26.89 LIG 0.04  A 
ATOM     46  CD1 TYR C   4      58.224  25.303  32.736  1.00 24.41 LIG 0.01  A 
BRANCH 44 47
ATOM     47 OH   TYR C   4      57.417  21.769  32.466  1.00 32.39 LIG-0.36  OA
ATOM     48 HH   TYR C   4      56.661  21.596  32.790  1.00 32.39 LIG 0.22  HD
ENDBRANCH 44 47
ENDBRANCH 40 41
ENDBRANCH 39 40
BRANCH 39 49
ATOM     49  C   TYR C   4      55.636  28.043  32.415  1.00 20.63 LIG 0.24  C 
ATOM     50 O    TYR C   4      55.147  26.980  32.682  1.00 19.73 LIG-0.27  OA
ATOM     51  N   ILE C   5      54.913  29.152  32.354  1.00 22.91 LIG-0.35  N 
ATOM     52 H    ILE C   5      55.245  29.942  32.285  1.00 22.91 LIG 0.16  HD
BRANCH 51 53
ATOM     53  CA  ILE C   5      53.462  29.107  32.400  1.00 27.58 LIG 0.18  C 
BRANCH 53 54
ATOM     54  C   ILE C   5      52.887  30.052  31.348  1.00 33.14 LIG 0.24  C 
ATOM     55  N   HIS C   6      51.682  29.750  30.848  1.00 39.14 LIG-0.35  N 
ATOM     56 H    HIS C   6      51.260  29.027  31.049  1.00 39.14 LIG 0.16  HD
ATOM     57 O    ILE C   5      53.596  30.969  30.942  1.00 25.88 LIG-0.27  OA
BRANCH 55 58
ATOM     58  CA  HIS C   6      50.930  30.632  29.884  1.00 56.87 LIG 0.17  C 
BRANCH 58 59
ATOM     59  CB  HIS C   6      50.563  29.847  28.590  1.00 66.39 LIG 0.09  C 
BRANCH 59 60
ATOM     60  CG  HIS C   6      50.303  30.708  27.386  1.00 78.50 LIG 0.06  A 
ATOM     61  CD2 HIS C   6      50.399  32.052  27.228  1.00 82.71 LIG 0.14  A 
ATOM     62 NE2  HIS C   6      50.098  32.332  25.914  1.00 84.02 LIG-0.25  NA
ATOM     63  CE1 HIS C   6      49.847  31.199  25.279  1.00 85.20 LIG 0.23  A 
ATOM     64 ND1  HIS C   6      49.970  30.202  26.142  1.00 88.66 LIG-0.24  NA
ENDBRANCH 59 60
ENDBRANCH 58 59
BRANCH 58 65
ATOM     65  C   HIS C   6      49.647  31.303  30.393  1.00 59.18 LIG 0.22  C 
ATOM     66 O    HIS C   6      48.535  31.044  29.861  1.00 63.69 LIG-0.29  OA
ENDBRANCH 58 65
ENDBRANCH 55 58
ENDBRANCH 53 54
BRANCH 53 67
ATOM     67  CB  ILE C   5      52.978  29.451  33.802  1.00 28.54 LIG 0.01  C 
ATOM     68  CG2 ILE C   5      53.144  28.220  34.690  1.00 32.34 LIG 0.01  C 
BRANCH 67 69
ATOM     69  CG1 ILE C   5      53.767  30.688  34.263  1.00 30.21 LIG 0.00  C 
ATOM     70  CD1 ILE C   5      53.009  31.991  34.300  1.00 32.85 LIG 0.01  C 
ENDBRANCH 67 69
ENDBRANCH 53 67
ENDBRANCH 51 53
ENDBRANCH 39 49
ENDBRANCH 3 39
TORSDOF 26
ENDMDL
MODEL 27
USER: ADFR SOLUTION from run 26
USER: SCORE 22.033072 LL:  -5.303 LR: -17.835 RR:   0.000 FEB: -10.079
USER: RMSD 2.841816
USER: SEED 25
USER: STATUS searching
USER: GENES 28
USER: genes 0 Translation |==|  0.69007 0.47367 0.51514
USER: genes 1 Rotation |==|  0.50059 0.50289 0.48384 0.99973
USER: genes 2 Torsion [N]-C--CA-[N] |==|  0.44282
USER: genes 3 Torsion [C]-CA--N-[C] |==|  0.81064
USER: genes 4 Torsion [N]-C--CA-[N] |==|  0.07457
USER: genes 5 Torsion [C]-CA--CB-[CG] |==|  0.42203
USER: genes 6 Torsion [CA]-CB--CG-[CD] |==|  0.86908
USER: genes 7 Torsion [CB]-CG--CD-[NE] |==|  0.44000
USER: genes 8 Torsion [CG]-CD--NE-[CZ] |==|  0.32859
USER: genes 9 Torsion [C]-CA--N-[C] |==|  0.74442
USER: genes 10 Torsion [N]-C--CA-[N] |==|  0.41998
USER: genes 11 Torsion [C]-CA--CB-[CG] |==|  0.23087
USER: genes 12 Torsion [CA]-CB--CG-[OD2] |==|  0.25193
USER: genes 13 Torsion [C]-CA--N-[H1] |==|  0.44714
USER: genes 14 Torsion [C]-CA--CB-[CG1] |==|  0.48844
USER: genes 15 Torsion [C]-N--CA-[CB] |==|  0.55000
USER: genes 16 Torsion [N]-CA--CB-[CG] |==|  0.56293
USER: genes 17 Torsion [CA]-CB--CG-[CD2] |==|  0.52967
USER: genes 18 Torsion [CE2]-CZ--OH-[HH] |==|  0.19600
USER: genes 19 Torsion [N]-CA--C-[N] |==|  0.26181
USER: genes 20 Torsion [C]-N--CA-[C] |==|  0.72137
USER: genes 21 Torsion [N]-CA--C-[N] |==|  0.43568
USER: genes 22 Torsion [C]-N--CA-[CB] |==|  0.38019
USER: genes 23 Torsion [N]-CA--CB-[CG] |==|  0.98363
USER: genes 24 Torsion [CA]-CB--CG-[CD2] |==|  0.30905
USER: genes 25 Torsion [N]-CA--C-[O] |==|  0.62840
USER: genes 26 Torsion [N]-CA--CB-[CG1] |==|  0.57002
USER: genes 27 Torsion [CA]-CB--CG1-[CD1] |==|  0.19366
ROOT
ATOM      1  C   VAL C   3      57.423  28.659  34.758  1.00 15.94 LIG 0.24  C 
ATOM      2 O    VAL C   3      56.326  29.180  34.812  1.00 17.86 LIG-0.27  OA
ATOM      3  N   TYR C   4      57.915  28.196  33.613  1.00 16.41 LIG-0.35  N 
ATOM      4 H    TYR C   4      58.677  27.805  33.542  1.00 16.41 LIG 0.16  HD
ENDROOT
BRANCH 1 5
ATOM      5  CA  VAL C   3      58.250  28.489  36.049  1.00 16.01 LIG 0.18  C 
BRANCH 5 6
ATOM      6  N   VAL C   3      57.745  29.489  37.014  1.00 15.77 LIG-0.35  N 
ATOM      7 H    VAL C   3      57.331  29.167  37.696  1.00 15.77 LIG 0.16  HD
ATOM      8  C   ARG C   2      57.950  30.775  36.786  1.00 16.54 LIG 0.24  C 
ATOM      9 O    ARG C   2      58.649  31.188  35.836  1.00 14.63 LIG-0.27  OA
BRANCH 8 10
ATOM     10  CA  ARG C   2      57.313  31.754  37.754  1.00 19.03 LIG 0.18  C 
BRANCH 10 11
ATOM     11  CB  ARG C   2      58.198  33.001  37.861  1.00 20.38 LIG 0.04  C 
BRANCH 11 12
ATOM     12  CG  ARG C   2      57.475  34.261  38.200  1.00 20.75 LIG 0.02  C 
BRANCH 12 13
ATOM     13  CD  ARG C   2      56.278  34.418  37.372  1.00 22.55 LIG 0.14  C 
BRANCH 13 14
ATOM     14  NE  ARG C   2      55.312  35.302  37.964  1.00 20.36 LIG-0.23  N 
ATOM     15  CZ  ARG C   2      54.904  36.431  37.423  1.00 23.11 LIG 0.67  C 
ATOM     16  NH1 ARG C   2      55.266  36.755  36.232  1.00 23.20 LIG-0.23  N 
ATOM     17  NH2 ARG C   2      54.026  37.192  38.087  1.00 25.55 LIG-0.23  N 
ATOM     18 1HH1 ARG C   2      55.779  36.232  35.781  1.00 23.20 LIG 0.17  HD
ATOM     19 2HH1 ARG C   2      54.995  37.494  35.886  1.00 23.20 LIG 0.17  HD
ATOM     20 2HH2 ARG C   2      53.751  37.931  37.745  1.00 25.55 LIG 0.17  HD
ATOM     21 1HH2 ARG C   2      53.735  36.941  38.858  1.00 25.55 LIG 0.17  HD
ATOM     22 HE   ARG C   2      54.977  35.078  38.723  1.00 20.36 LIG 0.18  HD
ENDBRANCH 13 14
ENDBRANCH 12 13
ENDBRANCH 11 12
ENDBRANCH 10 11
BRANCH 10 23
ATOM     23  N   ARG C   2      57.127  31.141  39.079  1.00 19.42 LIG-0.35  N 
ATOM     24  C   ASP C   1      55.984  30.534  39.370  1.00 19.51 LIG 0.25  C 
ATOM     25 O    ASP C   1      55.144  30.251  38.501  1.00 19.29 LIG-0.27  OA
ATOM     26 H    ARG C   2      57.796  31.211  39.614  1.00 19.42 LIG 0.16  HD
BRANCH 24 27
ATOM     27  CA  ASP C   1      55.702  30.206  40.826  1.00 19.04 LIG 0.28  C 
BRANCH 27 28
ATOM     28  CB  ASP C   1      56.269  28.847  41.145  1.00 21.34 LIG 0.15  C 
BRANCH 28 29
ATOM     29  CG  ASP C   1      57.781  28.911  41.483  1.00 23.67 LIG 0.17  C 
ATOM     30 OD2  ASP C   1      58.104  29.071  42.692  1.00 27.41 LIG-0.65  OA
ATOM     31 OD1  ASP C   1      58.645  28.829  40.549  1.00 20.87 LIG-0.65  OA
ENDBRANCH 28 29
ENDBRANCH 27 28
BRANCH 27 32
ATOM     32  N   ASP C   1      54.204  30.218  41.007  1.00 18.38 LIG-0.07  N 
ATOM     33 H1   ASP C   1      53.991  29.772  41.747  1.00 18.38 LIG 0.28  HD
ATOM     34 H3   ASP C   1      53.818  29.830  40.305  1.00 18.38 LIG 0.28  HD
ATOM     35 H2   ASP C   1      53.919  31.058  41.074  1.00 18.38 LIG 0.28  HD
ENDBRANCH 27 32
ENDBRANCH 24 27
ENDBRANCH 10 23
ENDBRANCH 8 10
ENDBRANCH 5 6
BRANCH 5 36
ATOM     36  CB  VAL C   3      58.065  27.066  36.527  1.00 17.74 LIG 0.01  C 
ATOM     37  CG1 VAL C   3      58.920  26.765  37.739  1.00 20.72 LIG 0.01  C 
ATOM     38  CG2 VAL C   3      56.619  26.799  36.904  1.00 18.64 LIG 0.01  C 
ENDBRANCH 5 36
ENDBRANCH 1 5
BRANCH 3 39
ATOM     39  CA  TYR C   4      57.180  28.319  32.360  1.00 17.90 LIG 0.18  C 
BRANCH 39 40
ATOM     40  CB  TYR C   4      57.715  27.369  31.334  1.00 20.19 LIG 0.07  C 
BRANCH 40 41
ATOM     41  CG  TYR C   4      57.445  27.727  29.897  1.00 23.00 LIG-0.06  A 
ATOM     42  CD2 TYR C   4      57.701  26.808  28.877  1.00 26.62 LIG 0.01  A 
ATOM     43  CE2 TYR C   4      57.467  27.117  27.553  1.00 28.63 LIG 0.04  A 
ATOM     44  CZ  TYR C   4      56.980  28.347  27.235  1.00 25.42 LIG 0.07  A 
ATOM     45  CE1 TYR C   4      56.679  29.249  28.199  1.00 26.89 LIG 0.04  A 
ATOM     46  CD1 TYR C   4      56.920  28.936  29.544  1.00 24.41 LIG 0.01  A 
BRANCH 44 47
ATOM     47 OH   TYR C   4      56.743  28.648  25.924  1.00 32.39 LIG-0.36  OA
ATOM     48 HH   TYR C   4      56.080  28.210  25.652  1.00 32.39 LIG 0.22  HD
ENDBRANCH 44 47
ENDBRANCH 40 41
ENDBRANCH 39 40
BRANCH 39 49
ATOM     49  C   TYR C   4      55.642  28.173  32.537  1.00 20.63 LIG 0.24  C 
ATOM     50 O    TYR C   4      55.127  27.095  32.648  1.00 19.73 LIG-0.27  OA
ATOM     51  N   ILE C   5      54.956  29.297  32.686  1.00 22.91 LIG-0.35  N 
ATOM     52 H    ILE C   5      55.312  30.078  32.733  1.00 22.91 LIG 0.16  HD
BRANCH 51 53
ATOM     53  CA  ILE C   5      53.507  29.285  32.784  1.00 27.58 LIG 0.18  C 
BRANCH 53 54
ATOM     54  C   ILE C   5      52.900  29.665  31.435  1.00 33.14 LIG 0.24  C 
ATOM     55  N   HIS C   6      51.647  29.260  31.192  1.00 39.14 LIG-0.35  N 
ATOM     56 H    HIS C   6      51.207  28.753  31.730  1.00 39.14 LIG 0.16  HD
ATOM     57 O    ILE C   5      53.620  30.224  30.611  1.00 25.88 LIG-0.27  OA
BRANCH 55 58
ATOM     58  CA  HIS C   6      50.868  29.640  29.958  1.00 56.87 LIG 0.17  C 
BRANCH 58 59
ATOM     59  CB  HIS C   6      50.106  28.409  29.386  1.00 66.39 LIG 0.09  C 
BRANCH 59 60
ATOM     60  CG  HIS C   6      50.408  27.108  30.075  1.00 78.50 LIG 0.06  A 
ATOM     61  CD2 HIS C   6      49.628  26.329  30.866  1.00 82.71 LIG 0.14  A 
ATOM     62 NE2  HIS C   6      50.367  25.218  31.203  1.00 84.02 LIG-0.25  NA
ATOM     63  CE1 HIS C   6      51.553  25.297  30.622  1.00 85.20 LIG 0.23  A 
ATOM     64 ND1  HIS C   6      51.603  26.425  29.930  1.00 88.66 LIG-0.24  NA
ENDBRANCH 59 60
ENDBRANCH 58 59
BRANCH 58 65
ATOM     65  C   HIS C   6      49.856  30.787  30.088  1.00 59.18 LIG 0.22  C 
ATOM     66 O    HIS C   6      48.695  30.673  29.610  1.00 63.69 LIG-0.29  OA
ENDBRANCH 58 65
ENDBRANCH 55 58
ENDBRANCH 53 54
BRANCH 53 67
ATOM     67  CB  ILE C   5      53.055  30.221  33.897  1.00 28.54 LIG 0.01  C 
ATOM     68  CG2 ILE C   5      53.060  31.651  33.362  1.00 32.34 LIG 0.01  C 
BRANCH 67 69
ATOM     69  CG1 ILE C   5      51.684  29.721  34.381  1.00 30.21 LIG 0.00  C 
ATOM     70  CD1 ILE C   5      51.675  28.414  35.134  1.00 32.85 LIG 0.01  C 
ENDBRANCH 67 69
ENDBRANCH 53 67
ENDBRANCH 51 53
ENDBRANCH 39 49
ENDBRANCH 3 39
TORSDOF 26
ENDMDL
MODEL 28
USER: ADFR SOLUTION from run 121
USER: SCORE 21.776336 LL:  -6.034 LR: -17.826 RR:   0.000 FEB: -10.070
USER: RMSD 4.336504
USER: SEED 120
USER: STATUS searching
USER: GENES 28
USER: genes 0 Translation |==|  0.69688 0.44529 0.52483
USER: genes 1 Rotation |==|  0.53251 0.50282 0.62084 0.98408
USER: genes 2 Torsion [N]-C--CA-[N] |==|  0.36218
USER: genes 3 Torsion [C]-CA--N-[C] |==|  0.79187
USER: genes 4 Torsion [N]-C--CA-[N] |==|  0.08772
USER: genes 5 Torsion [C]-CA--CB-[CG] |==|  0.48132
USER: genes 6 Torsion [CA]-CB--CG-[CD] |==|  0.76864
USER: genes 7 Torsion [CB]-CG--CD-[NE] |==|  0.46183
USER: genes 8 Torsion [CG]-CD--NE-[CZ] |==|  0.38930
USER: genes 9 Torsion [C]-CA--N-[C] |==|  0.75268
USER: genes 10 Torsion [N]-C--CA-[N] |==|  0.36139
USER: genes 11 Torsion [C]-CA--CB-[CG] |==|  0.44400
USER: genes 12 Torsion [CA]-CB--CG-[OD2] |==|  0.47861
USER: genes 13 Torsion [C]-CA--N-[H1] |==|  0.50223
USER: genes 14 Torsion [C]-CA--CB-[CG1] |==|  0.13720
USER: genes 15 Torsion [C]-N--CA-[CB] |==|  0.43611
USER: genes 16 Torsion [N]-CA--CB-[CG] |==|  0.55337
USER: genes 17 Torsion [CA]-CB--CG-[CD2] |==|  0.64794
USER: genes 18 Torsion [CE2]-CZ--OH-[HH] |==|  0.05069
USER: genes 19 Torsion [N]-CA--C-[N] |==|  0.94422
USER: genes 20 Torsion [C]-N--CA-[C] |==|  0.77915
USER: genes 21 Torsion [N]-CA--C-[N] |==|  0.20732
USER: genes 22 Torsion [C]-N--CA-[CB] |==|  0.24214
USER: genes 23 Torsion [N]-CA--CB-[CG] |==|  0.16470
USER: genes 24 Torsion [CA]-CB--CG-[CD2] |==|  0.90897
USER: genes 25 Torsion [N]-CA--C-[O] |==|  0.45081
USER: genes 26 Torsion [N]-CA--CB-[CG1] |==|  0.92650
USER: genes 27 Torsion [CA]-CB--CG1-[CD1] |==|  0.35600
ROOT
ATOM      1  C   VAL C   3      57.540  27.935  35.013  1.00 15.94 LIG 0.24  C 
ATOM      2 O    VAL C   3      56.335  27.794  35.087  1.00 17.86 LIG-0.27  OA
ATOM      3  N   TYR C   4      58.165  27.948  33.840  1.00 16.41 LIG-0.35  N 
ATOM      4 H    TYR C   4      59.017  28.026  33.751  1.00 16.41 LIG 0.16  HD
ENDROOT
BRANCH 1 5
ATOM      5  CA  VAL C   3      58.374  28.061  36.304  1.00 16.01 LIG 0.18  C 
BRANCH 5 6
ATOM      6  N   VAL C   3      57.739  29.118  37.120  1.00 15.77 LIG-0.35  N 
ATOM      7 H    VAL C   3      57.287  28.840  37.798  1.00 15.77 LIG 0.16  HD
ATOM      8  C   ARG C   2      57.893  30.386  36.779  1.00 16.54 LIG 0.24  C 
ATOM      9 O    ARG C   2      58.645  30.745  35.848  1.00 14.63 LIG-0.27  OA
BRANCH 8 10
ATOM     10  CA  ARG C   2      57.128  31.414  37.589  1.00 19.03 LIG 0.18  C 
BRANCH 10 11
ATOM     11  CB  ARG C   2      57.875  32.752  37.537  1.00 20.38 LIG 0.04  C 
BRANCH 11 12
ATOM     12  CG  ARG C   2      57.158  33.901  38.161  1.00 20.75 LIG 0.02  C 
BRANCH 12 13
ATOM     13  CD  ARG C   2      56.198  34.489  37.226  1.00 22.55 LIG 0.14  C 
BRANCH 13 14
ATOM     14  NE  ARG C   2      55.273  35.379  37.874  1.00 20.36 LIG-0.23  N 
ATOM     15  CZ  ARG C   2      54.858  36.521  37.368  1.00 23.11 LIG 0.67  C 
ATOM     16  NH1 ARG C   2      55.170  36.856  36.165  1.00 23.20 LIG-0.23  N 
ATOM     17  NH2 ARG C   2      54.024  37.286  38.082  1.00 25.55 LIG-0.23  N 
ATOM     18 1HH1 ARG C   2      55.653  36.332  35.684  1.00 23.20 LIG 0.17  HD
ATOM     19 2HH1 ARG C   2      54.894  37.604  35.842  1.00 23.20 LIG 0.17  HD
ATOM     20 2HH2 ARG C   2      53.746  38.034  37.762  1.00 25.55 LIG 0.17  HD
ATOM     21 1HH2 ARG C   2      53.766  37.029  38.862  1.00 25.55 LIG 0.17  HD
ATOM     22 HE   ARG C   2      54.972  35.150  38.645  1.00 20.36 LIG 0.18  HD
ENDBRANCH 13 14
ENDBRANCH 12 13
ENDBRANCH 11 12
ENDBRANCH 10 11
BRANCH 10 23
ATOM     23  N   ARG C   2      56.964  30.971  38.983  1.00 19.42 LIG-0.35  N 
ATOM     24  C   ASP C   1      55.910  30.241  39.324  1.00 19.51 LIG 0.25  C 
ATOM     25 O    ASP C   1      55.170  29.711  38.479  1.00 19.29 LIG-0.27  OA
ATOM     26 H    ARG C   2      57.585  31.219  39.524  1.00 19.42 LIG 0.16  HD
BRANCH 24 27
ATOM     27  CA  ASP C   1      55.601  30.080  40.802  1.00 19.04 LIG 0.28  C 
BRANCH 27 28
ATOM     28  CB  ASP C   1      55.892  28.661  41.215  1.00 21.34 LIG 0.15  C 
BRANCH 28 29
ATOM     29  CG  ASP C   1      56.088  28.528  42.748  1.00 23.67 LIG 0.17  C 
ATOM     30 OD2  ASP C   1      56.189  27.364  43.225  1.00 27.41 LIG-0.65  OA
ATOM     31 OD1  ASP C   1      56.115  29.572  43.477  1.00 20.87 LIG-0.65  OA
ENDBRANCH 28 29
ENDBRANCH 27 28
BRANCH 27 32
ATOM     32  N   ASP C   1      54.141  30.406  40.993  1.00 18.38 LIG-0.07  N 
ATOM     33 H1   ASP C   1      53.930  30.332  41.855  1.00 18.38 LIG 0.28  HD
ATOM     34 H3   ASP C   1      53.645  29.841  40.517  1.00 18.38 LIG 0.28  HD
ATOM     35 H2   ASP C   1      53.983  31.239  40.721  1.00 18.38 LIG 0.28  HD
ENDBRANCH 27 32
ENDBRANCH 24 27
ENDBRANCH 10 23
ENDBRANCH 8 10
ENDBRANCH 5 6
BRANCH 5 36
ATOM     36  CB  VAL C   3      58.368  26.710  36.985  1.00 17.74 LIG 0.01  C 
ATOM     37  CG1 VAL C   3      58.724  25.596  36.024  1.00 20.72 LIG 0.01  C 
ATOM     38  CG2 VAL C   3      59.364  26.669  38.130  1.00 18.64 LIG 0.01  C 
ENDBRANCH 5 36
ENDBRANCH 1 5
BRANCH 3 39
ATOM     39  CA  TYR C   4      57.437  27.827  32.583  1.00 17.90 LIG 0.18  C 
BRANCH 39 40
ATOM     40  CB  TYR C   4      58.227  28.407  31.451  1.00 20.19 LIG 0.07  C 
BRANCH 40 41
ATOM     41  CG  TYR C   4      57.448  28.758  30.212  1.00 23.00 LIG-0.06  A 
ATOM     42  CD2 TYR C   4      57.838  28.265  28.966  1.00 26.62 LIG 0.01  A 
ATOM     43  CE2 TYR C   4      57.142  28.579  27.816  1.00 28.63 LIG 0.04  A 
ATOM     44  CZ  TYR C   4      56.053  29.391  27.901  1.00 25.42 LIG 0.07  A 
ATOM     45  CE1 TYR C   4      55.618  29.852  29.097  1.00 26.89 LIG 0.04  A 
ATOM     46  CD1 TYR C   4      56.327  29.536  30.265  1.00 24.41 LIG 0.01  A 
BRANCH 44 47
ATOM     47 OH   TYR C   4      55.363  29.694  26.763  1.00 32.39 LIG-0.36  OA
ATOM     48 HH   TYR C   4      55.554  29.138  26.163  1.00 32.39 LIG 0.22  HD
ENDBRANCH 44 47
ENDBRANCH 40 41
ENDBRANCH 39 40
BRANCH 39 49
ATOM     49  C   TYR C   4      56.978  26.371  32.281  1.00 20.63 LIG 0.24  C 
ATOM     50 O    TYR C   4      56.167  26.138  31.428  1.00 19.73 LIG-0.27  OA
ATOM     51  N   ILE C   5      57.619  25.405  32.923  1.00 22.91 LIG-0.35  N 
ATOM     52 H    ILE C   5      58.286  25.535  33.449  1.00 22.91 LIG 0.16  HD
BRANCH 51 53
ATOM     53  CA  ILE C   5      57.225  24.015  32.776  1.00 27.58 LIG 0.18  C 
BRANCH 53 54
ATOM     54  C   ILE C   5      56.007  23.733  33.652  1.00 33.14 LIG 0.24  C 
ATOM     55  N   HIS C   6      54.827  24.209  33.232  1.00 39.14 LIG-0.35  N 
ATOM     56 H    HIS C   6      54.746  24.708  32.535  1.00 39.14 LIG 0.16  HD
ATOM     57 O    ILE C   5      56.186  23.185  34.736  1.00 25.88 LIG-0.27  OA
BRANCH 55 58
ATOM     58  CA  HIS C   6      53.517  23.929  33.923  1.00 56.87 LIG 0.17  C 
BRANCH 58 59
ATOM     59  CB  HIS C   6      53.255  24.970  35.050  1.00 66.39 LIG 0.09  C 
BRANCH 59 60
ATOM     60  CG  HIS C   6      53.200  26.398  34.585  1.00 78.50 LIG 0.06  A 
ATOM     61  CD2 HIS C   6      53.863  27.023  33.580  1.00 82.71 LIG 0.14  A 
ATOM     62 NE2  HIS C   6      53.414  28.324  33.539  1.00 84.02 LIG-0.25  NA
ATOM     63  CE1 HIS C   6      52.490  28.489  34.471  1.00 85.20 LIG 0.23  A 
ATOM     64 ND1  HIS C   6      52.335  27.342  35.113  1.00 88.66 LIG-0.24  NA
ENDBRANCH 59 60
ENDBRANCH 58 59
BRANCH 58 65
ATOM     65  C   HIS C   6      52.256  23.872  33.050  1.00 59.18 LIG 0.22  C 
ATOM     66 O    HIS C   6      51.204  23.328  33.479  1.00 63.69 LIG-0.29  OA
ENDBRANCH 58 65
ENDBRANCH 55 58
ENDBRANCH 53 54
BRANCH 53 67
ATOM     67  CB  ILE C   5      58.397  23.106  33.118  1.00 28.54 LIG 0.01  C 
ATOM     68  CG2 ILE C   5      58.261  21.814  32.315  1.00 32.34 LIG 0.01  C 
BRANCH 67 69
ATOM     69  CG1 ILE C   5      59.684  23.901  32.843  1.00 30.21 LIG 0.00  C 
ATOM     70  CD1 ILE C   5      60.691  23.955  33.964  1.00 32.85 LIG 0.01  C 
ENDBRANCH 67 69
ENDBRANCH 53 67
ENDBRANCH 51 53
ENDBRANCH 39 49
ENDBRANCH 3 39
TORSDOF 26
ENDMDL
MODEL 29
USER: ADFR SOLUTION from run 79
USER: SCORE 21.547090 LL:  -5.900 LR: -17.634 RR:   0.000 FEB:  -9.878
USER: RMSD 4.441159
USER: SEED 78
USER: STATUS no improvement in best in 6 clusters for 5 generations
USER: GENES 28
USER: genes 0 Translation |==|  0.68148 0.46046 0.50544
USER: genes 1 Rotation |==|  0.50481 0.49337 0.55225 0.99719
USER: genes 2 Torsion [N]-C--CA-[N] |==|  0.41503
USER: genes 3 Torsion [C]-CA--N-[C] |==|  0.76130
USER: genes 4 Torsion [N]-C--CA-[N] |==|  0.13778
USER: genes 5 Torsion [C]-CA--CB-[CG] |==|  0.49153
USER: genes 6 Torsion [CA]-CB--CG-[CD] |==|  0.69386
USER: genes 7 Torsion [CB]-CG--CD-[NE] |==|  0.41993
USER: genes 8 Torsion [CG]-CD--NE-[CZ] |==|  0.47274
USER: genes 9 Torsion [C]-CA--N-[C] |==|  0.74447
USER: genes 10 Torsion [N]-C--CA-[N] |==|  0.39278
USER: genes 11 Torsion [C]-CA--CB-[CG] |==|  0.46471
USER: genes 12 Torsion [CA]-CB--CG-[OD2] |==|  0.93468
USER: genes 13 Torsion [C]-CA--N-[H1] |==|  0.74459
USER: genes 14 Torsion [C]-CA--CB-[CG1] |==|  0.48240
USER: genes 15 Torsion [C]-N--CA-[CB] |==|  0.33914
USER: genes 16 Torsion [N]-CA--CB-[CG] |==|  0.51133
USER: genes 17 Torsion [CA]-CB--CG-[CD2] |==|  0.69177
USER: genes 18 Torsion [CE2]-CZ--OH-[HH] |==|  0.86954
USER: genes 19 Torsion [N]-CA--C-[N] |==|  0.86509
USER: genes 20 Torsion [C]-N--CA-[C] |==|  0.14759
USER: genes 21 Torsion [N]-CA--C-[N] |==|  0.10867
USER: genes 22 Torsion [C]-N--CA-[CB] |==|  0.80593
USER: genes 23 Torsion [N]-CA--CB-[CG] |==|  0.79858
USER: genes 24 Torsion [CA]-CB--CG-[CD2] |==|  0.56005
USER: genes 25 Torsion [N]-CA--C-[O] |==|  0.13717
USER: genes 26 Torsion [N]-CA--CB-[CG1] |==|  0.90633
USER: genes 27 Torsion [CA]-CB--CG1-[CD1] |==|  0.80497
ROOT
ATOM      1  C   VAL C   3      57.275  28.322  34.504  1.00 15.94 LIG 0.24  C 
ATOM      2 O    VAL C   3      56.076  28.526  34.519  1.00 17.86 LIG-0.27  OA
ATOM      3  N   TYR C   4      57.914  28.035  33.375  1.00 16.41 LIG-0.35  N 
ATOM      4 H    TYR C   4      58.756  27.866  33.329  1.00 16.41 LIG 0.16  HD
ENDROOT
BRANCH 1 5
ATOM      5  CA  VAL C   3      58.070  28.353  35.825  1.00 16.01 LIG 0.18  C 
BRANCH 5 6
ATOM      6  N   VAL C   3      57.410  29.349  36.696  1.00 15.77 LIG-0.35  N 
ATOM      7 H    VAL C   3      56.826  29.032  37.242  1.00 15.77 LIG 0.16  HD
ATOM      8  C   ARG C   2      57.741  30.625  36.595  1.00 16.54 LIG 0.24  C 
ATOM      9 O    ARG C   2      58.672  31.022  35.861  1.00 14.63 LIG-0.27  OA
BRANCH 8 10
ATOM     10  CA  ARG C   2      56.953  31.609  37.436  1.00 19.03 LIG 0.18  C 
BRANCH 10 11
ATOM     11  CB  ARG C   2      57.613  32.990  37.345  1.00 20.38 LIG 0.04  C 
BRANCH 11 12
ATOM     12  CG  ARG C   2      56.899  34.080  38.071  1.00 20.75 LIG 0.02  C 
BRANCH 12 13
ATOM     13  CD  ARG C   2      56.297  35.027  37.132  1.00 22.55 LIG 0.14  C 
BRANCH 13 14
ATOM     14  NE  ARG C   2      55.120  35.658  37.665  1.00 20.36 LIG-0.23  N 
ATOM     15  CZ  ARG C   2      54.500  36.676  37.106  1.00 23.11 LIG 0.67  C 
ATOM     16  NH1 ARG C   2      54.852  37.096  35.941  1.00 23.20 LIG-0.23  N 
ATOM     17  NH2 ARG C   2      53.434  37.205  37.717  1.00 25.55 LIG-0.23  N 
ATOM     18 1HH1 ARG C   2      55.497  36.712  35.522  1.00 23.20 LIG 0.17  HD
ATOM     19 2HH1 ARG C   2      54.441  37.762  35.583  1.00 23.20 LIG 0.17  HD
ATOM     20 2HH2 ARG C   2      53.020  37.870  37.361  1.00 25.55 LIG 0.17  HD
ATOM     21 1HH2 ARG C   2      53.161  36.880  38.465  1.00 25.55 LIG 0.17  HD
ATOM     22 HE   ARG C   2      54.800  35.349  38.401  1.00 20.36 LIG 0.18  HD
ENDBRANCH 13 14
ENDBRANCH 12 13
ENDBRANCH 11 12
ENDBRANCH 10 11
BRANCH 10 23
ATOM     23  N   ARG C   2      56.880  31.165  38.838  1.00 19.42 LIG-0.35  N 
ATOM     24  C   ASP C   1      55.859  30.422  39.243  1.00 19.51 LIG 0.25  C 
ATOM     25 O    ASP C   1      55.075  29.883  38.445  1.00 19.29 LIG-0.27  OA
ATOM     26 H    ARG C   2      57.530  31.422  39.339  1.00 19.42 LIG 0.16  HD
BRANCH 24 27
ATOM     27  CA  ASP C   1      55.643  30.259  40.737  1.00 19.04 LIG 0.28  C 
BRANCH 27 28
ATOM     28  CB  ASP C   1      56.234  28.945  41.180  1.00 21.34 LIG 0.15  C 
BRANCH 28 29
ATOM     29  CG  ASP C   1      56.338  28.843  42.724  1.00 23.67 LIG 0.17  C 
ATOM     30 OD2  ASP C   1      56.380  29.920  43.379  1.00 27.41 LIG-0.65  OA
ATOM     31 OD1  ASP C   1      56.405  27.699  43.281  1.00 20.87 LIG-0.65  OA
ENDBRANCH 28 29
ENDBRANCH 27 28
BRANCH 27 32
ATOM     32  N   ASP C   1      54.155  30.288  40.982  1.00 18.38 LIG-0.07  N 
ATOM     33 H1   ASP C   1      53.899  31.123  41.154  1.00 18.38 LIG 0.28  HD
ATOM     34 H3   ASP C   1      53.959  29.768  41.677  1.00 18.38 LIG 0.28  HD
ATOM     35 H2   ASP C   1      53.729  29.990  40.260  1.00 18.38 LIG 0.28  HD
ENDBRANCH 27 32
ENDBRANCH 24 27
ENDBRANCH 10 23
ENDBRANCH 8 10
ENDBRANCH 5 6
BRANCH 5 36
ATOM     36  CB  VAL C   3      58.046  26.957  36.406  1.00 17.74 LIG 0.01  C 
ATOM     37  CG1 VAL C   3      58.930  26.843  37.629  1.00 20.72 LIG 0.01  C 
ATOM     38  CG2 VAL C   3      56.639  26.557  36.813  1.00 18.64 LIG 0.01  C 
ENDBRANCH 5 36
ENDBRANCH 1 5
BRANCH 3 39
ATOM     39  CA  TYR C   4      57.220  27.983  32.094  1.00 17.90 LIG 0.18  C 
BRANCH 39 40
ATOM     40  CB  TYR C   4      57.827  28.945  31.119  1.00 20.19 LIG 0.07  C 
BRANCH 40 41
ATOM     41  CG  TYR C   4      57.139  29.058  29.785  1.00 23.00 LIG-0.06  A 
ATOM     42  CD2 TYR C   4      57.756  28.582  28.627  1.00 26.62 LIG 0.01  A 
ATOM     43  CE2 TYR C   4      57.147  28.680  27.393  1.00 28.63 LIG 0.04  A 
ATOM     44  CZ  TYR C   4      55.918  29.258  27.304  1.00 25.42 LIG 0.07  A 
ATOM     45  CE1 TYR C   4      55.269  29.691  28.410  1.00 26.89 LIG 0.04  A 
ATOM     46  CD1 TYR C   4      55.890  29.595  29.664  1.00 24.41 LIG 0.01  A 
BRANCH 44 47
ATOM     47 OH   TYR C   4      55.314  29.348  26.083  1.00 32.39 LIG-0.36  OA
ATOM     48 HH   TYR C   4      55.865  29.639  25.520  1.00 32.39 LIG 0.22  HD
ENDBRANCH 44 47
ENDBRANCH 40 41
ENDBRANCH 39 40
BRANCH 39 49
ATOM     49  C   TYR C   4      57.129  26.546  31.506  1.00 20.63 LIG 0.24  C 
ATOM     50 O    TYR C   4      56.119  26.144  30.998  1.00 19.73 LIG-0.27  OA
ATOM     51  N   ILE C   5      58.254  25.846  31.483  1.00 22.91 LIG-0.35  N 
ATOM     52 H    ILE C   5      59.019  26.152  31.729  1.00 22.91 LIG 0.16  HD
BRANCH 51 53
ATOM     53  CA  ILE C   5      58.271  24.467  31.027  1.00 27.58 LIG 0.18  C 
BRANCH 53 54
ATOM     54  C   ILE C   5      57.629  24.378  29.644  1.00 33.14 LIG 0.24  C 
ATOM     55  N   HIS C   6      57.893  25.369  28.782  1.00 39.14 LIG-0.35  N 
ATOM     56 H    HIS C   6      58.349  26.066  28.997  1.00 39.14 LIG 0.16  HD
ATOM     57 O    ILE C   5      56.830  23.470  29.433  1.00 25.88 LIG-0.27  OA
BRANCH 55 58
ATOM     58  CA  HIS C   6      57.425  25.378  27.349  1.00 56.87 LIG 0.17  C 
BRANCH 58 59
ATOM     59  CB  HIS C   6      58.181  24.302  26.516  1.00 66.39 LIG 0.09  C 
BRANCH 59 60
ATOM     60  CG  HIS C   6      59.617  24.633  26.220  1.00 78.50 LIG 0.06  A 
ATOM     61  CD2 HIS C   6      60.443  24.173  25.247  1.00 82.71 LIG 0.14  A 
ATOM     62 NE2  HIS C   6      61.644  24.831  25.385  1.00 84.02 LIG-0.25  NA
ATOM     63  CE1 HIS C   6      61.555  25.682  26.393  1.00 85.20 LIG 0.23  A 
ATOM     64 ND1  HIS C   6      60.340  25.589  26.911  1.00 88.66 LIG-0.24  NA
ENDBRANCH 59 60
ENDBRANCH 58 59
BRANCH 58 65
ATOM     65  C   HIS C   6      55.924  25.184  27.095  1.00 59.18 LIG 0.22  C 
ATOM     66 O    HIS C   6      55.074  25.866  27.727  1.00 63.69 LIG-0.29  OA
ENDBRANCH 58 65
ENDBRANCH 55 58
ENDBRANCH 53 54
BRANCH 53 67
ATOM     67  CB  ILE C   5      57.568  23.576  32.042  1.00 28.54 LIG 0.01  C 
ATOM     68  CG2 ILE C   5      58.053  22.141  31.848  1.00 32.34 LIG 0.01  C 
BRANCH 67 69
ATOM     69  CG1 ILE C   5      57.846  24.167  33.434  1.00 30.21 LIG 0.00  C 
ATOM     70  CD1 ILE C   5      59.260  24.041  33.944  1.00 32.85 LIG 0.01  C 
ENDBRANCH 67 69
ENDBRANCH 53 67
ENDBRANCH 51 53
ENDBRANCH 39 49
ENDBRANCH 3 39
TORSDOF 26
ENDMDL
MODEL 30
USER: ADFR SOLUTION from run 168
USER: SCORE 22.108524 LL:  -5.396 LR: -17.616 RR:   0.000 FEB:  -9.860
USER: RMSD 4.481587
USER: SEED 167
USER: STATUS no improvement in best in 9 clusters for 5 generations
USER: GENES 28
USER: genes 0 Translation |==|  0.66666 0.47305 0.49025
USER: genes 1 Rotation |==|  0.50831 0.46873 0.44375 0.99577
USER: genes 2 Torsion [N]-C--CA-[N] |==|  0.45399
USER: genes 3 Torsion [C]-CA--N-[C] |==|  0.77458
USER: genes 4 Torsion [N]-C--CA-[N] |==|  0.16870
USER: genes 5 Torsion [C]-CA--CB-[CG] |==|  0.47178
USER: genes 6 Torsion [CA]-CB--CG-[CD] |==|  0.73373
USER: genes 7 Torsion [CB]-CG--CD-[NE] |==|  0.44959
USER: genes 8 Torsion [CG]-CD--NE-[CZ] |==|  0.43736
USER: genes 9 Torsion [C]-CA--N-[C] |==|  0.73895
USER: genes 10 Torsion [N]-C--CA-[N] |==|  0.42594
USER: genes 11 Torsion [C]-CA--CB-[CG] |==|  0.45573
USER: genes 12 Torsion [CA]-CB--CG-[OD2] |==|  0.56488
USER: genes 13 Torsion [C]-CA--N-[H1] |==|  0.42529
USER: genes 14 Torsion [C]-CA--CB-[CG1] |==|  0.57457
USER: genes 15 Torsion [C]-N--CA-[CB] |==|  0.58005
USER: genes 16 Torsion [N]-CA--CB-[CG] |==|  0.11730
USER: genes 17 Torsion [CA]-CB--CG-[CD2] |==|  0.74401
USER: genes 18 Torsion [CE2]-CZ--OH-[HH] |==|  0.94033
USER: genes 19 Torsion [N]-CA--C-[N] |==|  0.32856
USER: genes 20 Torsion [C]-N--CA-[C] |==|  0.74023
USER: genes 21 Torsion [N]-CA--C-[N] |==|  0.40867
USER: genes 22 Torsion [C]-N--CA-[CB] |==|  0.63697
USER: genes 23 Torsion [N]-CA--CB-[CG] |==|  0.02387
USER: genes 24 Torsion [CA]-CB--CG-[CD2] |==|  0.29878
USER: genes 25 Torsion [N]-CA--C-[O] |==|  0.62085
USER: genes 26 Torsion [N]-CA--CB-[CG1] |==|  0.67836
USER: genes 27 Torsion [CA]-CB--CG1-[CD1] |==|  0.56147
ROOT
ATOM      1  C   VAL C   3      57.019  28.643  34.105  1.00 15.94 LIG 0.24  C 
ATOM      2 O    VAL C   3      56.021  29.334  34.030  1.00 17.86 LIG-0.27  OA
ATOM      3  N   TYR C   4      57.585  28.123  33.020  1.00 16.41 LIG-0.35  N 
ATOM      4 H    TYR C   4      58.279  27.615  33.038  1.00 16.41 LIG 0.16  HD
ENDROOT
BRANCH 1 5
ATOM      5  CA  VAL C   3      57.622  28.323  35.488  1.00 16.01 LIG 0.18  C 
BRANCH 5 6
ATOM      6  N   VAL C   3      57.075  29.319  36.433  1.00 15.77 LIG-0.35  N 
ATOM      7 H    VAL C   3      56.410  29.051  36.908  1.00 15.77 LIG 0.16  HD
ATOM      8  C   ARG C   2      57.617  30.524  36.495  1.00 16.54 LIG 0.24  C 
ATOM      9 O    ARG C   2      58.648  30.832  35.861  1.00 14.63 LIG-0.27  OA
BRANCH 8 10
ATOM     10  CA  ARG C   2      56.943  31.535  37.403  1.00 19.03 LIG 0.18  C 
BRANCH 10 11
ATOM     11  CB  ARG C   2      57.672  32.878  37.288  1.00 20.38 LIG 0.04  C 
BRANCH 11 12
ATOM     12  CG  ARG C   2      56.983  34.029  37.939  1.00 20.75 LIG 0.02  C 
BRANCH 12 13
ATOM     13  CD  ARG C   2      56.183  34.778  36.968  1.00 22.55 LIG 0.14  C 
BRANCH 13 14
ATOM     14  NE  ARG C   2      55.197  35.614  37.597  1.00 20.36 LIG-0.23  N 
ATOM     15  CZ  ARG C   2      54.651  36.673  37.037  1.00 23.11 LIG 0.67  C 
ATOM     16  NH1 ARG C   2      54.886  36.957  35.804  1.00 23.20 LIG-0.23  N 
ATOM     17  NH2 ARG C   2      53.769  37.398  37.736  1.00 25.55 LIG-0.23  N 
ATOM     18 1HH1 ARG C   2      55.403  36.452  35.338  1.00 23.20 LIG 0.17  HD
ATOM     19 2HH1 ARG C   2      54.525  37.651  35.447  1.00 23.20 LIG 0.17  HD
ATOM     20 2HH2 ARG C   2      53.406  38.092  37.382  1.00 25.55 LIG 0.17  HD
ATOM     21 1HH2 ARG C   2      53.565  37.169  38.540  1.00 25.55 LIG 0.17  HD
ATOM     22 HE   ARG C   2      54.946  35.407  38.392  1.00 20.36 LIG 0.18  HD
ENDBRANCH 13 14
ENDBRANCH 12 13
ENDBRANCH 11 12
ENDBRANCH 10 11
BRANCH 10 23
ATOM     23  N   ARG C   2      56.939  31.069  38.800  1.00 19.42 LIG-0.35  N 
ATOM     24  C   ASP C   1      55.889  30.411  39.272  1.00 19.51 LIG 0.25  C 
ATOM     25 O    ASP C   1      55.001  29.960  38.531  1.00 19.29 LIG-0.27  OA
ATOM     26 H    ARG C   2      57.646  31.257  39.252  1.00 19.42 LIG 0.16  HD
BRANCH 24 27
ATOM     27  CA  ASP C   1      55.775  30.236  40.777  1.00 19.04 LIG 0.28  C 
BRANCH 27 28
ATOM     28  CB  ASP C   1      56.538  29.004  41.189  1.00 21.34 LIG 0.15  C 
BRANCH 28 29
ATOM     29  CG  ASP C   1      56.806  28.967  42.716  1.00 23.67 LIG 0.17  C 
ATOM     30 OD2  ASP C   1      57.778  28.272  43.122  1.00 27.41 LIG-0.65  OA
ATOM     31 OD1  ASP C   1      56.039  29.602  43.511  1.00 20.87 LIG-0.65  OA
ENDBRANCH 28 29
ENDBRANCH 27 28
BRANCH 27 32
ATOM     32  N   ASP C   1      54.309  30.094  41.103  1.00 18.38 LIG-0.07  N 
ATOM     33 H1   ASP C   1      54.216  29.621  41.852  1.00 18.38 LIG 0.28  HD
ATOM     34 H3   ASP C   1      53.895  29.677  40.435  1.00 18.38 LIG 0.28  HD
ATOM     35 H2   ASP C   1      53.950  30.900  41.216  1.00 18.38 LIG 0.28  HD
ENDBRANCH 27 32
ENDBRANCH 24 27
ENDBRANCH 10 23
ENDBRANCH 8 10
ENDBRANCH 5 6
BRANCH 5 36
ATOM     36  CB  VAL C   3      57.232  26.904  35.839  1.00 17.74 LIG 0.01  C 
ATOM     37  CG1 VAL C   3      57.177  26.693  37.337  1.00 20.72 LIG 0.01  C 
ATOM     38  CG2 VAL C   3      55.867  26.555  35.273  1.00 18.64 LIG 0.01  C 
ENDBRANCH 5 36
ENDBRANCH 1 5
BRANCH 3 39
ATOM     39  CA  TYR C   4      57.061  28.382  31.685  1.00 17.90 LIG 0.18  C 
BRANCH 39 40
ATOM     40  CB  TYR C   4      57.356  27.237  30.766  1.00 20.19 LIG 0.07  C 
BRANCH 40 41
ATOM     41  CG  TYR C   4      57.161  25.859  31.340  1.00 23.00 LIG-0.06  A 
ATOM     42  CD2 TYR C   4      58.223  25.187  31.946  1.00 26.62 LIG 0.01  A 
ATOM     43  CE2 TYR C   4      58.068  23.921  32.474  1.00 28.63 LIG 0.04  A 
ATOM     44  CZ  TYR C   4      56.852  23.315  32.398  1.00 25.42 LIG 0.07  A 
ATOM     45  CE1 TYR C   4      55.788  23.953  31.858  1.00 26.89 LIG 0.04  A 
ATOM     46  CD1 TYR C   4      55.946  25.238  31.318  1.00 24.41 LIG 0.01  A 
BRANCH 44 47
ATOM     47 OH   TYR C   4      56.700  22.066  32.927  1.00 32.39 LIG-0.36  OA
ATOM     48 HH   TYR C   4      57.451  21.694  32.986  1.00 32.39 LIG 0.22  HD
ENDBRANCH 44 47
ENDBRANCH 40 41
ENDBRANCH 39 40
BRANCH 39 49
ATOM     49  C   TYR C   4      55.549  28.748  31.683  1.00 20.63 LIG 0.24  C 
ATOM     50 O    TYR C   4      54.732  28.024  32.181  1.00 19.73 LIG-0.27  OA
ATOM     51  N   ILE C   5      55.234  29.950  31.223  1.00 22.91 LIG-0.35  N 
ATOM     52 H    ILE C   5      55.809  30.538  30.973  1.00 22.91 LIG 0.16  HD
BRANCH 51 53
ATOM     53  CA  ILE C   5      53.849  30.370  31.105  1.00 27.58 LIG 0.18  C 
BRANCH 53 54
ATOM     54  C   ILE C   5      53.342  30.072  29.696  1.00 33.14 LIG 0.24  C 
ATOM     55  N   HIS C   6      52.050  29.743  29.567  1.00 39.14 LIG-0.35  N 
ATOM     56 H    HIS C   6      51.526  29.637  30.241  1.00 39.14 LIG 0.16  HD
ATOM     57 O    ILE C   5      54.159  30.045  28.779  1.00 25.88 LIG-0.27  OA
BRANCH 55 58
ATOM     58  CA  HIS C   6      51.370  29.524  28.239  1.00 56.87 LIG 0.17  C 
BRANCH 58 59
ATOM     59  CB  HIS C   6      50.038  30.326  28.163  1.00 66.39 LIG 0.09  C 
BRANCH 59 60
ATOM     60  CG  HIS C   6      49.815  31.282  29.300  1.00 78.50 LIG 0.06  A 
ATOM     61  CD2 HIS C   6      49.869  32.637  29.334  1.00 82.71 LIG 0.14  A 
ATOM     62 NE2  HIS C   6      49.536  33.029  30.611  1.00 84.02 LIG-0.25  NA
ATOM     63  CE1 HIS C   6      49.264  31.955  31.333  1.00 85.20 LIG 0.23  A 
ATOM     64 ND1  HIS C   6      49.418  30.887  30.566  1.00 88.66 LIG-0.24  NA
ENDBRANCH 59 60
ENDBRANCH 58 59
BRANCH 58 65
ATOM     65  C   HIS C   6      52.174  29.847  26.972  1.00 59.18 LIG 0.22  C 
ATOM     66 O    HIS C   6      51.638  30.468  26.015  1.00 63.69 LIG-0.29  OA
ENDBRANCH 58 65
ENDBRANCH 55 58
ENDBRANCH 53 54
BRANCH 53 67
ATOM     67  CB  ILE C   5      53.723  31.847  31.456  1.00 28.54 LIG 0.01  C 
ATOM     68  CG2 ILE C   5      53.170  32.590  30.242  1.00 32.34 LIG 0.01  C 
BRANCH 67 69
ATOM     69  CG1 ILE C   5      52.852  31.940  32.719  1.00 30.21 LIG 0.00  C 
ATOM     70  CD1 ILE C   5      52.166  33.261  32.964  1.00 32.85 LIG 0.01  C 
ENDBRANCH 67 69
ENDBRANCH 53 67
ENDBRANCH 51 53
ENDBRANCH 39 49
ENDBRANCH 3 39
TORSDOF 26
ENDMDL
MODEL 31
USER: ADFR SOLUTION from run 195
USER: SCORE 23.114067 LL:  -5.744 LR: -17.613 RR:   0.000 FEB:  -9.857
USER: RMSD 4.725237
USER: SEED 194
USER: STATUS no improvement in best in 8 clusters for 5 generations
USER: GENES 28
USER: genes 0 Translation |==|  0.69204 0.44534 0.53522
USER: genes 1 Rotation |==|  0.45131 0.55064 0.53945 0.99347
USER: genes 2 Torsion [N]-C--CA-[N] |==|  0.44283
USER: genes 3 Torsion [C]-CA--N-[C] |==|  0.79783
USER: genes 4 Torsion [N]-C--CA-[N] |==|  0.03889
USER: genes 5 Torsion [C]-CA--CB-[CG] |==|  0.46517
USER: genes 6 Torsion [CA]-CB--CG-[CD] |==|  0.76625
USER: genes 7 Torsion [CB]-CG--CD-[NE] |==|  0.43751
USER: genes 8 Torsion [CG]-CD--NE-[CZ] |==|  0.42438
USER: genes 9 Torsion [C]-CA--N-[C] |==|  0.74572
USER: genes 10 Torsion [N]-C--CA-[N] |==|  0.40807
USER: genes 11 Torsion [C]-CA--CB-[CG] |==|  0.44189
USER: genes 12 Torsion [CA]-CB--CG-[OD2] |==|  0.41298
USER: genes 13 Torsion [C]-CA--N-[H1] |==|  0.46349
USER: genes 14 Torsion [C]-CA--CB-[CG1] |==|  0.57944
USER: genes 15 Torsion [C]-N--CA-[CB] |==|  0.82355
USER: genes 16 Torsion [N]-CA--CB-[CG] |==|  0.33613
USER: genes 17 Torsion [CA]-CB--CG-[CD2] |==|  0.76256
USER: genes 18 Torsion [CE2]-CZ--OH-[HH] |==|  0.82256
USER: genes 19 Torsion [N]-CA--C-[N] |==|  0.38982
USER: genes 20 Torsion [C]-N--CA-[C] |==|  0.69506
USER: genes 21 Torsion [N]-CA--C-[N] |==|  0.42869
USER: genes 22 Torsion [C]-N--CA-[CB] |==|  0.78510
USER: genes 23 Torsion [N]-CA--CB-[CG] |==|  0.67424
USER: genes 24 Torsion [CA]-CB--CG-[CD2] |==|  0.98563
USER: genes 25 Torsion [N]-CA--C-[O] |==|  0.65014
USER: genes 26 Torsion [N]-CA--CB-[CG1] |==|  0.30518
USER: genes 27 Torsion [CA]-CB--CG1-[CD1] |==|  0.63956
ROOT
ATOM      1  C   VAL C   3      57.457  27.936  35.285  1.00 15.94 LIG 0.24  C 
ATOM      2 O    VAL C   3      56.293  28.226  35.488  1.00 17.86 LIG-0.27  OA
ATOM      3  N   TYR C   4      57.839  27.353  34.153  1.00 16.41 LIG-0.35  N 
ATOM      4 H    TYR C   4      58.648  27.117  33.985  1.00 16.41 LIG 0.16  HD
ENDROOT
BRANCH 1 5
ATOM      5  CA  VAL C   3      58.511  28.209  36.377  1.00 16.01 LIG 0.18  C 
BRANCH 5 6
ATOM      6  N   VAL C   3      57.958  29.265  37.250  1.00 15.77 LIG-0.35  N 
ATOM      7 H    VAL C   3      57.698  29.004  38.028  1.00 15.77 LIG 0.16  HD
ATOM      8  C   ARG C   2      57.892  30.510  36.807  1.00 16.54 LIG 0.24  C 
ATOM      9 O    ARG C   2      58.378  30.859  35.710  1.00 14.63 LIG-0.27  OA
BRANCH 8 10
ATOM     10  CA  ARG C   2      57.215  31.526  37.706  1.00 19.03 LIG 0.18  C 
BRANCH 10 11
ATOM     11  CB  ARG C   2      58.053  32.808  37.735  1.00 20.38 LIG 0.04  C 
BRANCH 11 12
ATOM     12  CG  ARG C   2      57.375  33.993  38.336  1.00 20.75 LIG 0.02  C 
BRANCH 12 13
ATOM     13  CD  ARG C   2      56.539  34.676  37.347  1.00 22.55 LIG 0.14  C 
BRANCH 13 14
ATOM     14  NE  ARG C   2      55.501  35.464  37.953  1.00 20.36 LIG-0.23  N 
ATOM     15  CZ  ARG C   2      54.961  36.533  37.407  1.00 23.11 LIG 0.67  C 
ATOM     16  NH1 ARG C   2      55.252  36.870  36.199  1.00 23.20 LIG-0.23  N 
ATOM     17  NH2 ARG C   2      54.026  37.209  38.085  1.00 25.55 LIG-0.23  N 
ATOM     18 1HH1 ARG C   2      55.805  36.395  35.742  1.00 23.20 LIG 0.17  HD
ATOM     19 2HH1 ARG C   2      54.894  37.569  35.850  1.00 23.20 LIG 0.17  HD
ATOM     20 2HH2 ARG C   2      53.665  37.909  37.738  1.00 25.55 LIG 0.17  HD
ATOM     21 1HH2 ARG C   2      53.786  36.945  38.867  1.00 25.55 LIG 0.17  HD
ATOM     22 HE   ARG C   2      55.215  35.221  38.726  1.00 20.36 LIG 0.18  HD
ENDBRANCH 13 14
ENDBRANCH 12 13
ENDBRANCH 11 12
ENDBRANCH 10 11
BRANCH 10 23
ATOM     23  N   ARG C   2      57.041  30.993  39.067  1.00 19.42 LIG-0.35  N 
ATOM     24  C   ASP C   1      55.923  30.357  39.389  1.00 19.51 LIG 0.25  C 
ATOM     25 O    ASP C   1      55.104  29.981  38.534  1.00 19.29 LIG-0.27  OA
ATOM     26 H    ARG C   2      57.701  31.128  39.601  1.00 19.42 LIG 0.16  HD
BRANCH 24 27
ATOM     27  CA  ASP C   1      55.639  30.114  40.861  1.00 19.04 LIG 0.28  C 
BRANCH 27 28
ATOM     28  CB  ASP C   1      56.170  28.757  41.248  1.00 21.34 LIG 0.15  C 
BRANCH 28 29
ATOM     29  CG  ASP C   1      56.398  28.633  42.777  1.00 23.67 LIG 0.17  C 
ATOM     30 OD2  ASP C   1      56.246  27.496  43.300  1.00 27.41 LIG-0.65  OA
ATOM     31 OD1  ASP C   1      56.700  29.666  43.459  1.00 20.87 LIG-0.65  OA
ENDBRANCH 28 29
ENDBRANCH 27 28
BRANCH 27 32
ATOM     32  N   ASP C   1      54.144  30.177  41.048  1.00 18.38 LIG-0.07  N 
ATOM     33 H1   ASP C   1      53.931  29.854  41.849  1.00 18.38 LIG 0.28  HD
ATOM     34 H3   ASP C   1      53.745  29.693  40.417  1.00 18.38 LIG 0.28  HD
ATOM     35 H2   ASP C   1      53.872  31.023  40.988  1.00 18.38 LIG 0.28  HD
ENDBRANCH 27 32
ENDBRANCH 24 27
ENDBRANCH 10 23
ENDBRANCH 8 10
ENDBRANCH 5 6
BRANCH 5 36
ATOM     36  CB  VAL C   3      58.755  26.909  37.111  1.00 17.74 LIG 0.01  C 
ATOM     37  CG1 VAL C   3      59.178  27.146  38.546  1.00 20.72 LIG 0.01  C 
ATOM     38  CG2 VAL C   3      57.504  26.049  37.134  1.00 18.64 LIG 0.01  C 
ENDBRANCH 5 36
ENDBRANCH 1 5
BRANCH 3 39
ATOM     39  CA  TYR C   4      56.891  27.063  33.085  1.00 17.90 LIG 0.18  C 
BRANCH 39 40
ATOM     40  CB  TYR C   4      55.860  26.076  33.540  1.00 20.19 LIG 0.07  C 
BRANCH 40 41
ATOM     41  CG  TYR C   4      54.429  26.537  33.475  1.00 23.00 LIG-0.06  A 
ATOM     42  CD2 TYR C   4      53.870  27.263  34.528  1.00 26.62 LIG 0.01  A 
ATOM     43  CE2 TYR C   4      52.558  27.690  34.492  1.00 28.63 LIG 0.04  A 
ATOM     44  CZ  TYR C   4      51.792  27.392  33.407  1.00 25.42 LIG 0.07  A 
ATOM     45  CE1 TYR C   4      52.312  26.728  32.348  1.00 26.89 LIG 0.04  A 
ATOM     46  CD1 TYR C   4      53.644  26.291  32.386  1.00 24.41 LIG 0.01  A 
BRANCH 44 47
ATOM     47 OH   TYR C   4      50.497  27.822  33.371  1.00 32.39 LIG-0.36  OA
ATOM     48 HH   TYR C   4      50.064  27.455  33.990  1.00 32.39 LIG 0.22  HD
ENDBRANCH 44 47
ENDBRANCH 40 41
ENDBRANCH 39 40
BRANCH 39 49
ATOM     49  C   TYR C   4      56.240  28.340  32.481  1.00 20.63 LIG 0.24  C 
ATOM     50 O    TYR C   4      56.015  29.304  33.160  1.00 19.73 LIG-0.27  OA
ATOM     51  N   ILE C   5      56.071  28.352  31.168  1.00 22.91 LIG-0.35  N 
ATOM     52 H    ILE C   5      56.334  27.725  30.640  1.00 22.91 LIG 0.16  HD
BRANCH 51 53
ATOM     53  CA  ILE C   5      55.405  29.460  30.505  1.00 27.58 LIG 0.18  C 
BRANCH 53 54
ATOM     54  C   ILE C   5      54.042  29.004  29.991  1.00 33.14 LIG 0.24  C 
ATOM     55  N   HIS C   6      53.099  29.944  29.842  1.00 39.14 LIG-0.35  N 
ATOM     56 H    HIS C   6      53.214  30.763  30.079  1.00 39.14 LIG 0.16  HD
ATOM     57 O    ILE C   5      53.850  27.800  29.843  1.00 25.88 LIG-0.27  OA
BRANCH 55 58
ATOM     58  CA  HIS C   6      51.739  29.679  29.247  1.00 56.87 LIG 0.17  C 
BRANCH 58 59
ATOM     59  CB  HIS C   6      51.827  29.579  27.696  1.00 66.39 LIG 0.09  C 
BRANCH 59 60
ATOM     60  CG  HIS C   6      51.051  30.631  26.955  1.00 78.50 LIG 0.06  A 
ATOM     61  CD2 HIS C   6      50.214  31.595  27.414  1.00 82.71 LIG 0.14  A 
ATOM     62 NE2  HIS C   6      49.800  32.331  26.327  1.00 84.02 LIG-0.25  NA
ATOM     63  CE1 HIS C   6      50.379  31.852  25.238  1.00 85.20 LIG 0.23  A 
ATOM     64 ND1  HIS C   6      51.144  30.830  25.588  1.00 88.66 LIG-0.24  NA
ENDBRANCH 59 60
ENDBRANCH 58 59
BRANCH 58 65
ATOM     65  C   HIS C   6      50.980  28.441  29.744  1.00 59.18 LIG 0.22  C 
ATOM     66 O    HIS C   6      50.551  27.582  28.928  1.00 63.69 LIG-0.29  OA
ENDBRANCH 58 65
ENDBRANCH 55 58
ENDBRANCH 53 54
BRANCH 53 67
ATOM     67  CB  ILE C   5      56.286  29.999  29.387  1.00 28.54 LIG 0.01  C 
ATOM     68  CG2 ILE C   5      57.698  29.447  29.570  1.00 32.34 LIG 0.01  C 
BRANCH 67 69
ATOM     69  CG1 ILE C   5      55.615  29.619  28.057  1.00 30.21 LIG 0.00  C 
ATOM     70  CD1 ILE C   5      56.492  28.946  27.031  1.00 32.85 LIG 0.01  C 
ENDBRANCH 67 69
ENDBRANCH 53 67
ENDBRANCH 51 53
ENDBRANCH 39 49
ENDBRANCH 3 39
TORSDOF 26
ENDMDL
MODEL 32
USER: ADFR SOLUTION from run 139
USER: SCORE 22.648702 LL:  -5.800 LR: -17.584 RR:   0.000 FEB:  -9.828
USER: RMSD 5.551790
USER: SEED 138
USER: STATUS no improvement in best in 13 clusters for 5 generations
USER: GENES 28
USER: genes 0 Translation |==|  0.71908 0.43441 0.54174
USER: genes 1 Rotation |==|  0.44054 0.52759 0.60255 0.98496
USER: genes 2 Torsion [N]-C--CA-[N] |==|  0.42220
USER: genes 3 Torsion [C]-CA--N-[C] |==|  0.77077
USER: genes 4 Torsion [N]-C--CA-[N] |==|  0.08750
USER: genes 5 Torsion [C]-CA--CB-[CG] |==|  0.50461
USER: genes 6 Torsion [CA]-CB--CG-[CD] |==|  0.68422
USER: genes 7 Torsion [CB]-CG--CD-[NE] |==|  0.46907
USER: genes 8 Torsion [CG]-CD--NE-[CZ] |==|  0.44766
USER: genes 9 Torsion [C]-CA--N-[C] |==|  0.74597
USER: genes 10 Torsion [N]-C--CA-[N] |==|  0.39526
USER: genes 11 Torsion [C]-CA--CB-[CG] |==|  0.36957
USER: genes 12 Torsion [CA]-CB--CG-[OD2] |==|  0.07048
USER: genes 13 Torsion [C]-CA--N-[H1] |==|  0.99500
USER: genes 14 Torsion [C]-CA--CB-[CG1] |==|  0.58720
USER: genes 15 Torsion [C]-N--CA-[CB] |==|  0.78889
USER: genes 16 Torsion [N]-CA--CB-[CG] |==|  0.89218
USER: genes 17 Torsion [CA]-CB--CG-[CD2] |==|  0.90280
USER: genes 18 Torsion [CE2]-CZ--OH-[HH] |==|  0.17961
USER: genes 19 Torsion [N]-CA--C-[N] |==|  0.48104
USER: genes 20 Torsion [C]-N--CA-[C] |==|  0.76719
USER: genes 21 Torsion [N]-CA--C-[N] |==|  0.34656
USER: genes 22 Torsion [C]-N--CA-[CB] |==|  0.39549
USER: genes 23 Torsion [N]-CA--CB-[CG] |==|  0.98937
USER: genes 24 Torsion [CA]-CB--CG-[CD2] |==|  0.24085
USER: genes 25 Torsion [N]-CA--C-[O] |==|  0.39608
USER: genes 26 Torsion [N]-CA--CB-[CG1] |==|  0.72962
USER: genes 27 Torsion [CA]-CB--CG1-[CD1] |==|  0.14232
ROOT
ATOM      1  C   VAL C   3      57.923  27.657  35.457  1.00 15.94 LIG 0.24  C 
ATOM      2 O    VAL C   3      56.714  27.632  35.578  1.00 17.86 LIG-0.27  OA
ATOM      3  N   TYR C   4      58.520  27.191  34.365  1.00 16.41 LIG-0.35  N 
ATOM      4 H    TYR C   4      59.373  27.176  34.253  1.00 16.41 LIG 0.16  HD
ENDROOT
BRANCH 1 5
ATOM      5  CA  VAL C   3      58.793  28.203  36.608  1.00 16.01 LIG 0.18  C 
BRANCH 5 6
ATOM      6  N   VAL C   3      57.981  29.217  37.313  1.00 15.77 LIG-0.35  N 
ATOM      7 H    VAL C   3      57.578  28.940  38.021  1.00 15.77 LIG 0.16  HD
ATOM      8  C   ARG C   2      57.919  30.449  36.836  1.00 16.54 LIG 0.24  C 
ATOM      9 O    ARG C   2      58.606  30.829  35.864  1.00 14.63 LIG-0.27  OA
BRANCH 8 10
ATOM     10  CA  ARG C   2      56.984  31.413  37.539  1.00 19.03 LIG 0.18  C 
BRANCH 10 11
ATOM     11  CB  ARG C   2      57.493  32.844  37.338  1.00 20.38 LIG 0.04  C 
BRANCH 11 12
ATOM     12  CG  ARG C   2      56.687  33.902  38.012  1.00 20.75 LIG 0.02  C 
BRANCH 12 13
ATOM     13  CD  ARG C   2      56.031  34.767  37.030  1.00 22.55 LIG 0.14  C 
BRANCH 13 14
ATOM     14  NE  ARG C   2      55.050  35.632  37.627  1.00 20.36 LIG-0.23  N 
ATOM     15  CZ  ARG C   2      54.579  36.725  37.065  1.00 23.11 LIG 0.67  C 
ATOM     16  NH1 ARG C   2      54.889  37.024  35.852  1.00 23.20 LIG-0.23  N 
ATOM     17  NH2 ARG C   2      53.694  37.473  37.735  1.00 25.55 LIG-0.23  N 
ATOM     18 1HH1 ARG C   2      55.407  36.507  35.401  1.00 23.20 LIG 0.17  HD
ATOM     19 2HH1 ARG C   2      54.576  37.740  35.492  1.00 23.20 LIG 0.17  HD
ATOM     20 2HH2 ARG C   2      53.379  38.190  37.379  1.00 25.55 LIG 0.17  HD
ATOM     21 1HH2 ARG C   2      53.440  37.237  38.522  1.00 25.55 LIG 0.17  HD
ATOM     22 HE   ARG C   2      54.750  35.420  38.404  1.00 20.36 LIG 0.18  HD
ENDBRANCH 13 14
ENDBRANCH 12 13
ENDBRANCH 11 12
ENDBRANCH 10 11
BRANCH 10 23
ATOM     23  N   ARG C   2      56.885  31.099  38.975  1.00 19.42 LIG-0.35  N 
ATOM     24  C   ASP C   1      55.938  30.278  39.407  1.00 19.51 LIG 0.25  C 
ATOM     25 O    ASP C   1      55.269  29.572  38.635  1.00 19.29 LIG-0.27  OA
ATOM     26 H    ARG C   2      57.471  31.480  39.475  1.00 19.42 LIG 0.16  HD
BRANCH 24 27
ATOM     27  CA  ASP C   1      55.659  30.233  40.899  1.00 19.04 LIG 0.28  C 
BRANCH 27 28
ATOM     28  CB  ASP C   1      56.393  29.064  41.503  1.00 21.34 LIG 0.15  C 
BRANCH 28 29
ATOM     29  CG  ASP C   1      57.155  29.456  42.795  1.00 23.67 LIG 0.17  C 
ATOM     30 OD2  ASP C   1      56.727  30.447  43.448  1.00 27.41 LIG-0.65  OA
ATOM     31 OD1  ASP C   1      58.191  28.801  43.145  1.00 20.87 LIG-0.65  OA
ENDBRANCH 28 29
ENDBRANCH 27 28
BRANCH 27 32
ATOM     32  N   ASP C   1      54.169  30.080  41.074  1.00 18.38 LIG-0.07  N 
ATOM     33 H1   ASP C   1      53.775  30.076  40.276  1.00 18.38 LIG 0.28  HD
ATOM     34 H3   ASP C   1      53.855  30.759  41.556  1.00 18.38 LIG 0.28  HD
ATOM     35 H2   ASP C   1      53.996  29.315  41.494  1.00 18.38 LIG 0.28  HD
ENDBRANCH 27 32
ENDBRANCH 24 27
ENDBRANCH 10 23
ENDBRANCH 8 10
ENDBRANCH 5 6
BRANCH 5 36
ATOM     36  CB  VAL C   3      59.167  27.033  37.491  1.00 17.74 LIG 0.01  C 
ATOM     37  CG1 VAL C   3      59.320  27.450  38.938  1.00 20.72 LIG 0.01  C 
ATOM     38  CG2 VAL C   3      58.112  25.943  37.433  1.00 18.64 LIG 0.01  C 
ENDBRANCH 5 36
ENDBRANCH 1 5
BRANCH 3 39
ATOM     39  CA  TYR C   4      57.756  26.657  33.244  1.00 17.90 LIG 0.18  C 
BRANCH 39 40
ATOM     40  CB  TYR C   4      57.239  25.286  33.557  1.00 20.19 LIG 0.07  C 
BRANCH 40 41
ATOM     41  CG  TYR C   4      58.170  24.387  34.325  1.00 23.00 LIG-0.06  A 
ATOM     42  CD2 TYR C   4      59.548  24.445  34.111  1.00 26.62 LIG 0.01  A 
ATOM     43  CE2 TYR C   4      60.420  23.626  34.800  1.00 28.63 LIG 0.04  A 
ATOM     44  CZ  TYR C   4      59.922  22.740  35.705  1.00 25.42 LIG 0.07  A 
ATOM     45  CE1 TYR C   4      58.596  22.685  35.971  1.00 26.89 LIG 0.04  A 
ATOM     46  CD1 TYR C   4      57.710  23.515  35.269  1.00 24.41 LIG 0.01  A 
BRANCH 44 47
ATOM     47 OH   TYR C   4      60.787  21.936  36.390  1.00 32.39 LIG-0.36  OA
ATOM     48 HH   TYR C   4      61.278  22.408  36.881  1.00 32.39 LIG 0.22  HD
ENDBRANCH 44 47
ENDBRANCH 40 41
ENDBRANCH 39 40
BRANCH 39 49
ATOM     49  C   TYR C   4      56.621  27.609  32.770  1.00 20.63 LIG 0.24  C 
ATOM     50 O    TYR C   4      56.424  28.662  33.311  1.00 19.73 LIG-0.27  OA
ATOM     51  N   ILE C   5      55.975  27.255  31.669  1.00 22.91 LIG-0.35  N 
ATOM     52 H    ILE C   5      56.174  26.568  31.191  1.00 22.91 LIG 0.16  HD
BRANCH 51 53
ATOM     53  CA  ILE C   5      54.848  28.028  31.177  1.00 27.58 LIG 0.18  C 
BRANCH 53 54
ATOM     54  C   ILE C   5      53.576  27.596  31.903  1.00 33.14 LIG 0.24  C 
ATOM     55  N   HIS C   6      52.872  28.552  32.523  1.00 39.14 LIG-0.35  N 
ATOM     56 H    HIS C   6      53.138  29.368  32.577  1.00 39.14 LIG 0.16  HD
ATOM     57 O    ILE C   5      53.325  26.396  31.970  1.00 25.88 LIG-0.27  OA
BRANCH 55 58
ATOM     58  CA  HIS C   6      51.542  28.312  33.193  1.00 56.87 LIG 0.17  C 
BRANCH 58 59
ATOM     59  CB  HIS C   6      51.424  29.149  34.499  1.00 66.39 LIG 0.09  C 
BRANCH 59 60
ATOM     60  CG  HIS C   6      52.658  29.928  34.859  1.00 78.50 LIG 0.06  A 
ATOM     61  CD2 HIS C   6      53.061  31.165  34.476  1.00 82.71 LIG 0.14  A 
ATOM     62 NE2  HIS C   6      54.242  31.433  35.130  1.00 84.02 LIG-0.25  NA
ATOM     63  CE1 HIS C   6      54.546  30.406  35.906  1.00 85.20 LIG 0.23  A 
ATOM     64 ND1  HIS C   6      53.604  29.486  35.768  1.00 88.66 LIG-0.24  NA
ENDBRANCH 59 60
ENDBRANCH 58 59
BRANCH 58 65
ATOM     65  C   HIS C   6      50.277  28.573  32.364  1.00 59.18 LIG 0.22  C 
ATOM     66 O    HIS C   6      49.269  27.825  32.482  1.00 63.69 LIG-0.29  OA
ENDBRANCH 58 65
ENDBRANCH 55 58
ENDBRANCH 53 54
BRANCH 53 67
ATOM     67  CB  ILE C   5      54.727  27.864  29.668  1.00 28.54 LIG 0.01  C 
ATOM     68  CG2 ILE C   5      53.251  27.704  29.313  1.00 32.34 LIG 0.01  C 
BRANCH 67 69
ATOM     69  CG1 ILE C   5      55.416  29.079  29.023  1.00 30.21 LIG 0.00  C 
ATOM     70  CD1 ILE C   5      56.815  29.384  29.494  1.00 32.85 LIG 0.01  C 
ENDBRANCH 67 69
ENDBRANCH 53 67
ENDBRANCH 51 53
ENDBRANCH 39 49
ENDBRANCH 3 39
TORSDOF 26
ENDMDL
MODEL 33
USER: ADFR SOLUTION from run 91
USER: SCORE 21.427845 LL:  -5.508 LR: -17.517 RR:   0.000 FEB:  -9.761
USER: RMSD 5.021781
USER: SEED 90
USER: STATUS searching
USER: GENES 28
USER: genes 0 Translation |==|  0.69176 0.44816 0.51920
USER: genes 1 Rotation |==|  0.54691 0.54477 0.67149 0.96517
USER: genes 2 Torsion [N]-C--CA-[N] |==|  0.34484
USER: genes 3 Torsion [C]-CA--N-[C] |==|  0.76244
USER: genes 4 Torsion [N]-C--CA-[N] |==|  0.08849
USER: genes 5 Torsion [C]-CA--CB-[CG] |==|  0.48349
USER: genes 6 Torsion [CA]-CB--CG-[CD] |==|  0.70934
USER: genes 7 Torsion [CB]-CG--CD-[NE] |==|  0.44421
USER: genes 8 Torsion [CG]-CD--NE-[CZ] |==|  0.48483
USER: genes 9 Torsion [C]-CA--N-[C] |==|  0.72739
USER: genes 10 Torsion [N]-C--CA-[N] |==|  0.40460
USER: genes 11 Torsion [C]-CA--CB-[CG] |==|  0.46330
USER: genes 12 Torsion [CA]-CB--CG-[OD2] |==|  0.48248
USER: genes 13 Torsion [C]-CA--N-[H1] |==|  0.44540
USER: genes 14 Torsion [C]-CA--CB-[CG1] |==|  0.75215
USER: genes 15 Torsion [C]-N--CA-[CB] |==|  0.20107
USER: genes 16 Torsion [N]-CA--CB-[CG] |==|  0.75770
USER: genes 17 Torsion [CA]-CB--CG-[CD2] |==|  0.83591
USER: genes 18 Torsion [CE2]-CZ--OH-[HH] |==|  0.99125
USER: genes 19 Torsion [N]-CA--C-[N] |==|  0.40011
USER: genes 20 Torsion [C]-N--CA-[C] |==|  0.68195
USER: genes 21 Torsion [N]-CA--C-[N] |==|  0.35743
USER: genes 22 Torsion [C]-N--CA-[CB] |==|  0.83064
USER: genes 23 Torsion [N]-CA--CB-[CG] |==|  0.84967
USER: genes 24 Torsion [CA]-CB--CG-[CD2] |==|  0.74761
USER: genes 25 Torsion [N]-CA--C-[O] |==|  0.02948
USER: genes 26 Torsion [N]-CA--CB-[CG1] |==|  0.94505
USER: genes 27 Torsion [CA]-CB--CG1-[CD1] |==|  0.55928
ROOT
ATOM      1  C   VAL C   3      57.452  28.008  34.865  1.00 15.94 LIG 0.24  C 
ATOM      2 O    VAL C   3      56.337  27.600  35.125  1.00 17.86 LIG-0.27  OA
ATOM      3  N   TYR C   4      57.857  28.164  33.609  1.00 16.41 LIG-0.35  N 
ATOM      4 H    TYR C   4      58.644  28.432  33.388  1.00 16.41 LIG 0.16  HD
ENDROOT
BRANCH 1 5
ATOM      5  CA  VAL C   3      58.438  28.315  36.011  1.00 16.01 LIG 0.18  C 
BRANCH 5 6
ATOM      6  N   VAL C   3      57.785  29.318  36.878  1.00 15.77 LIG-0.35  N 
ATOM      7 H    VAL C   3      57.357  29.000  37.553  1.00 15.77 LIG 0.16  HD
ATOM      8  C   ARG C   2      57.889  30.603  36.582  1.00 16.54 LIG 0.24  C 
ATOM      9 O    ARG C   2      58.609  31.022  35.650  1.00 14.63 LIG-0.27  OA
BRANCH 8 10
ATOM     10  CA  ARG C   2      57.107  31.574  37.445  1.00 19.03 LIG 0.18  C 
BRANCH 10 11
ATOM     11  CB  ARG C   2      57.803  32.939  37.422  1.00 20.38 LIG 0.04  C 
BRANCH 11 12
ATOM     12  CG  ARG C   2      57.069  34.034  38.118  1.00 20.75 LIG 0.02  C 
BRANCH 12 13
ATOM     13  CD  ARG C   2      56.441  34.939  37.154  1.00 22.55 LIG 0.14  C 
BRANCH 13 14
ATOM     14  NE  ARG C   2      55.375  35.709  37.735  1.00 20.36 LIG-0.23  N 
ATOM     15  CZ  ARG C   2      54.719  36.665  37.112  1.00 23.11 LIG 0.67  C 
ATOM     16  NH1 ARG C   2      54.919  36.886  35.860  1.00 23.20 LIG-0.23  N 
ATOM     17  NH2 ARG C   2      53.769  37.340  37.770  1.00 25.55 LIG-0.23  N 
ATOM     18 1HH1 ARG C   2      55.484  36.408  35.423  1.00 23.20 LIG 0.17  HD
ATOM     19 2HH1 ARG C   2      54.486  37.513  35.460  1.00 23.20 LIG 0.17  HD
ATOM     20 2HH2 ARG C   2      53.334  37.966  37.373  1.00 25.55 LIG 0.17  HD
ATOM     21 1HH2 ARG C   2      53.593  37.146  38.589  1.00 25.55 LIG 0.17  HD
ATOM     22 HE   ARG C   2      55.150  35.532  38.546  1.00 20.36 LIG 0.18  HD
ENDBRANCH 13 14
ENDBRANCH 12 13
ENDBRANCH 11 12
ENDBRANCH 10 11
BRANCH 10 23
ATOM     23  N   ARG C   2      56.992  31.077  38.826  1.00 19.42 LIG-0.35  N 
ATOM     24  C   ASP C   1      55.889  30.451  39.213  1.00 19.51 LIG 0.25  C 
ATOM     25 O    ASP C   1      55.035  30.053  38.404  1.00 19.29 LIG-0.27  OA
ATOM     26 H    ARG C   2      57.675  31.226  39.328  1.00 19.42 LIG 0.16  HD
BRANCH 24 27
ATOM     27  CA  ASP C   1      55.669  30.247  40.701  1.00 19.04 LIG 0.28  C 
BRANCH 27 28
ATOM     28  CB  ASP C   1      56.189  28.888  41.095  1.00 21.34 LIG 0.15  C 
BRANCH 28 29
ATOM     29  CG  ASP C   1      56.304  28.730  42.633  1.00 23.67 LIG 0.17  C 
ATOM     30 OD2  ASP C   1      56.612  27.592  43.082  1.00 27.41 LIG-0.65  OA
ATOM     31 OD1  ASP C   1      56.062  29.723  43.393  1.00 20.87 LIG-0.65  OA
ENDBRANCH 28 29
ENDBRANCH 27 28
BRANCH 27 32
ATOM     32  N   ASP C   1      54.186  30.348  40.955  1.00 18.38 LIG-0.07  N 
ATOM     33 H1   ASP C   1      53.991  29.961  41.733  1.00 18.38 LIG 0.28  HD
ATOM     34 H3   ASP C   1      53.744  29.937  40.300  1.00 18.38 LIG 0.28  HD
ATOM     35 H2   ASP C   1      53.946  31.204  40.981  1.00 18.38 LIG 0.28  HD
ENDBRANCH 27 32
ENDBRANCH 24 27
ENDBRANCH 10 23
ENDBRANCH 8 10
ENDBRANCH 5 6
BRANCH 5 36
ATOM     36  CB  VAL C   3      58.722  27.014  36.729  1.00 17.74 LIG 0.01  C 
ATOM     37  CG1 VAL C   3      57.734  26.765  37.849  1.00 20.72 LIG 0.01  C 
ATOM     38  CG2 VAL C   3      58.648  25.835  35.776  1.00 18.64 LIG 0.01  C 
ENDBRANCH 5 36
ENDBRANCH 1 5
BRANCH 3 39
ATOM     39  CA  TYR C   4      56.977  27.886  32.481  1.00 17.90 LIG 0.18  C 
BRANCH 39 40
ATOM     40  CB  TYR C   4      55.921  28.940  32.356  1.00 20.19 LIG 0.07  C 
BRANCH 40 41
ATOM     41  CG  TYR C   4      54.669  28.721  33.162  1.00 23.00 LIG-0.06  A 
ATOM     42  CD2 TYR C   4      53.893  27.576  32.970  1.00 26.62 LIG 0.01  A 
ATOM     43  CE2 TYR C   4      52.739  27.358  33.694  1.00 28.63 LIG 0.04  A 
ATOM     44  CZ  TYR C   4      52.346  28.283  34.612  1.00 25.42 LIG 0.07  A 
ATOM     45  CE1 TYR C   4      53.095  29.383  34.857  1.00 26.89 LIG 0.04  A 
ATOM     46  CD1 TYR C   4      54.266  29.607  34.120  1.00 24.41 LIG 0.01  A 
BRANCH 44 47
ATOM     47 OH   TYR C   4      51.207  28.061  35.331  1.00 32.39 LIG-0.36  OA
ATOM     48 HH   TYR C   4      50.845  27.349  35.069  1.00 32.39 LIG 0.22  HD
ENDBRANCH 44 47
ENDBRANCH 40 41
ENDBRANCH 39 40
BRANCH 39 49
ATOM     49  C   TYR C   4      57.745  27.676  31.144  1.00 20.63 LIG 0.24  C 
ATOM     50 O    TYR C   4      58.792  28.225  30.935  1.00 19.73 LIG-0.27  OA
ATOM     51  N   ILE C   5      57.249  26.771  30.314  1.00 22.91 LIG-0.35  N 
ATOM     52 H    ILE C   5      56.568  26.275  30.490  1.00 22.91 LIG 0.16  HD
BRANCH 51 53
ATOM     53  CA  ILE C   5      57.840  26.546  29.007  1.00 27.58 LIG 0.18  C 
BRANCH 53 54
ATOM     54  C   ILE C   5      56.847  26.952  27.920  1.00 33.14 LIG 0.24  C 
ATOM     55  N   HIS C   6      57.288  27.785  26.969  1.00 39.14 LIG-0.35  N 
ATOM     56 H    HIS C   6      58.072  28.139  26.985  1.00 39.14 LIG 0.16  HD
ATOM     57 O    ILE C   5      55.681  26.583  28.032  1.00 25.88 LIG-0.27  OA
BRANCH 55 58
ATOM     58  CA  HIS C   6      56.470  28.197  25.771  1.00 56.87 LIG 0.17  C 
BRANCH 58 59
ATOM     59  CB  HIS C   6      56.095  26.958  24.908  1.00 66.39 LIG 0.09  C 
BRANCH 59 60
ATOM     60  CG  HIS C   6      57.262  26.113  24.482  1.00 78.50 LIG 0.06  A 
ATOM     61  CD2 HIS C   6      58.035  26.176  23.369  1.00 82.71 LIG 0.14  A 
ATOM     62 NE2  HIS C   6      59.003  25.205  23.486  1.00 84.02 LIG-0.25  NA
ATOM     63  CE1 HIS C   6      58.848  24.580  24.641  1.00 85.20 LIG 0.23  A 
ATOM     64 ND1  HIS C   6      57.808  25.112  25.266  1.00 88.66 LIG-0.24  NA
ENDBRANCH 59 60
ENDBRANCH 58 59
BRANCH 58 65
ATOM     65  C   HIS C   6      55.177  28.981  26.036  1.00 59.18 LIG 0.22  C 
ATOM     66 O    HIS C   6      54.925  29.433  27.185  1.00 63.69 LIG-0.29  OA
ENDBRANCH 58 65
ENDBRANCH 55 58
ENDBRANCH 53 54
BRANCH 53 67
ATOM     67  CB  ILE C   5      58.267  25.090  28.875  1.00 28.54 LIG 0.01  C 
ATOM     68  CG2 ILE C   5      59.555  25.033  28.056  1.00 32.34 LIG 0.01  C 
BRANCH 67 69
ATOM     69  CG1 ILE C   5      58.384  24.521  30.299  1.00 30.21 LIG 0.00  C 
ATOM     70  CD1 ILE C   5      59.247  23.295  30.461  1.00 32.85 LIG 0.01  C 
ENDBRANCH 67 69
ENDBRANCH 53 67
ENDBRANCH 51 53
ENDBRANCH 39 49
ENDBRANCH 3 39
TORSDOF 26
ENDMDL
MODEL 34
USER: ADFR SOLUTION from run 191
USER: SCORE 22.079478 LL:  -6.372 LR: -17.517 RR:   0.000 FEB:  -9.761
USER: RMSD 5.014472
USER: SEED 190
USER: STATUS no improvement in best in 15 clusters for 5 generations
USER: GENES 28
USER: genes 0 Translation |==|  0.69394 0.44932 0.52008
USER: genes 1 Rotation |==|  0.52637 0.49873 0.59917 0.98935
USER: genes 2 Torsion [N]-C--CA-[N] |==|  0.37840
USER: genes 3 Torsion [C]-CA--N-[C] |==|  0.78734
USER: genes 4 Torsion [N]-C--CA-[N] |==|  0.09987
USER: genes 5 Torsion [C]-CA--CB-[CG] |==|  0.48408
USER: genes 6 Torsion [CA]-CB--CG-[CD] |==|  0.74576
USER: genes 7 Torsion [CB]-CG--CD-[NE] |==|  0.46522
USER: genes 8 Torsion [CG]-CD--NE-[CZ] |==|  0.40959
USER: genes 9 Torsion [C]-CA--N-[C] |==|  0.74813
USER: genes 10 Torsion [N]-C--CA-[N] |==|  0.38439
USER: genes 11 Torsion [C]-CA--CB-[CG] |==|  0.48425
USER: genes 12 Torsion [CA]-CB--CG-[OD2] |==|  0.42160
USER: genes 13 Torsion [C]-CA--N-[H1] |==|  0.43864
USER: genes 14 Torsion [C]-CA--CB-[CG1] |==|  0.16136
USER: genes 15 Torsion [C]-N--CA-[CB] |==|  0.40943
USER: genes 16 Torsion [N]-CA--CB-[CG] |==|  0.54178
USER: genes 17 Torsion [CA]-CB--CG-[CD2] |==|  0.69411
USER: genes 18 Torsion [CE2]-CZ--OH-[HH] |==|  0.00745
USER: genes 19 Torsion [N]-CA--C-[N] |==|  0.93827
USER: genes 20 Torsion [C]-N--CA-[C] |==|  0.79038
USER: genes 21 Torsion [N]-CA--C-[N] |==|  0.94644
USER: genes 22 Torsion [C]-N--CA-[CB] |==|  0.38862
USER: genes 23 Torsion [N]-CA--CB-[CG] |==|  0.85724
USER: genes 24 Torsion [CA]-CB--CG-[CD2] |==|  0.53286
USER: genes 25 Torsion [N]-CA--C-[O] |==|  0.67063
USER: genes 26 Torsion [N]-CA--CB-[CG1] |==|  0.91910
USER: genes 27 Torsion [CA]-CB--CG1-[CD1] |==|  0.39379
ROOT
ATOM      1  C   VAL C   3      57.489  28.038  34.888  1.00 15.94 LIG 0.24  C 
ATOM      2 O    VAL C   3      56.275  28.007  34.944  1.00 17.86 LIG-0.27  OA
ATOM      3  N   TYR C   4      58.131  27.968  33.726  1.00 16.41 LIG-0.35  N 
ATOM      4 H    TYR C   4      58.988  27.967  33.650  1.00 16.41 LIG 0.16  HD
ENDROOT
BRANCH 1 5
ATOM      5  CA  VAL C   3      58.311  28.118  36.190  1.00 16.01 LIG 0.18  C 
BRANCH 5 6
ATOM      6  N   VAL C   3      57.673  29.149  37.035  1.00 15.77 LIG-0.35  N 
ATOM      7 H    VAL C   3      57.196  28.851  37.686  1.00 15.77 LIG 0.16  HD
ATOM      8  C   ARG C   2      57.862  30.428  36.756  1.00 16.54 LIG 0.24  C 
ATOM      9 O    ARG C   2      58.649  30.813  35.865  1.00 14.63 LIG-0.27  OA
BRANCH 8 10
ATOM     10  CA  ARG C   2      57.094  31.435  37.590  1.00 19.03 LIG 0.18  C 
BRANCH 10 11
ATOM     11  CB  ARG C   2      57.811  32.788  37.531  1.00 20.38 LIG 0.04  C 
BRANCH 11 12
ATOM     12  CG  ARG C   2      57.094  33.913  38.199  1.00 20.75 LIG 0.02  C 
BRANCH 12 13
ATOM     13  CD  ARG C   2      56.229  34.618  37.251  1.00 22.55 LIG 0.14  C 
BRANCH 13 14
ATOM     14  NE  ARG C   2      55.314  35.514  37.904  1.00 20.36 LIG-0.23  N 
ATOM     15  CZ  ARG C   2      54.888  36.649  37.393  1.00 23.11 LIG 0.67  C 
ATOM     16  NH1 ARG C   2      55.180  36.972  36.181  1.00 23.20 LIG-0.23  N 
ATOM     17  NH2 ARG C   2      54.064  37.420  38.112  1.00 25.55 LIG-0.23  N 
ATOM     18 1HH1 ARG C   2      55.656  36.443  35.699  1.00 23.20 LIG 0.17  HD
ATOM     19 2HH1 ARG C   2      54.897  37.715  35.855  1.00 23.20 LIG 0.17  HD
ATOM     20 2HH2 ARG C   2      53.778  38.164  37.789  1.00 25.55 LIG 0.17  HD
ATOM     21 1HH2 ARG C   2      53.819  37.171  38.898  1.00 25.55 LIG 0.17  HD
ATOM     22 HE   ARG C   2      55.025  35.292  38.683  1.00 20.36 LIG 0.18  HD
ENDBRANCH 13 14
ENDBRANCH 12 13
ENDBRANCH 11 12
ENDBRANCH 10 11
BRANCH 10 23
ATOM     23  N   ARG C   2      56.969  30.979  38.985  1.00 19.42 LIG-0.35  N 
ATOM     24  C   ASP C   1      55.922  30.252  39.350  1.00 19.51 LIG 0.25  C 
ATOM     25 O    ASP C   1      55.153  29.735  38.523  1.00 19.29 LIG-0.27  OA
ATOM     26 H    ARG C   2      57.607  31.219  39.508  1.00 19.42 LIG 0.16  HD
BRANCH 24 27
ATOM     27  CA  ASP C   1      55.657  30.079  40.835  1.00 19.04 LIG 0.28  C 
BRANCH 27 28
ATOM     28  CB  ASP C   1      56.141  28.720  41.268  1.00 21.34 LIG 0.15  C 
BRANCH 28 29
ATOM     29  CG  ASP C   1      56.033  28.522  42.802  1.00 23.67 LIG 0.17  C 
ATOM     30 OD2  ASP C   1      55.874  27.346  43.230  1.00 27.41 LIG-0.65  OA
ATOM     31 OD1  ASP C   1      56.078  29.533  43.577  1.00 20.87 LIG-0.65  OA
ENDBRANCH 28 29
ENDBRANCH 27 28
BRANCH 27 32
ATOM     32  N   ASP C   1      54.168  30.209  41.044  1.00 18.38 LIG-0.07  N 
ATOM     33 H1   ASP C   1      53.940  29.810  41.806  1.00 18.38 LIG 0.28  HD
ATOM     34 H3   ASP C   1      53.739  29.824  40.367  1.00 18.38 LIG 0.28  HD
ATOM     35 H2   ASP C   1      53.947  31.070  41.083  1.00 18.38 LIG 0.28  HD
ENDBRANCH 27 32
ENDBRANCH 24 27
ENDBRANCH 10 23
ENDBRANCH 8 10
ENDBRANCH 5 6
BRANCH 5 36
ATOM     36  CB  VAL C   3      58.293  26.745  36.827  1.00 17.74 LIG 0.01  C 
ATOM     37  CG1 VAL C   3      58.855  25.689  35.898  1.00 20.72 LIG 0.01  C 
ATOM     38  CG2 VAL C   3      59.114  26.722  38.103  1.00 18.64 LIG 0.01  C 
ENDBRANCH 5 36
ENDBRANCH 1 5
BRANCH 3 39
ATOM     39  CA  TYR C   4      57.414  27.885  32.460  1.00 17.90 LIG 0.18  C 
BRANCH 39 40
ATOM     40  CB  TYR C   4      58.174  28.576  31.370  1.00 20.19 LIG 0.07  C 
BRANCH 40 41
ATOM     41  CG  TYR C   4      57.404  28.872  30.111  1.00 23.00 LIG-0.06  A 
ATOM     42  CD2 TYR C   4      57.684  28.182  28.930  1.00 26.62 LIG 0.01  A 
ATOM     43  CE2 TYR C   4      56.994  28.442  27.763  1.00 28.63 LIG 0.04  A 
ATOM     44  CZ  TYR C   4      56.022  29.395  27.764  1.00 25.42 LIG 0.07  A 
ATOM     45  CE1 TYR C   4      55.693  30.053  28.900  1.00 26.89 LIG 0.04  A 
ATOM     46  CD1 TYR C   4      56.396  29.792  30.086  1.00 24.41 LIG 0.01  A 
BRANCH 44 47
ATOM     47 OH   TYR C   4      55.338  29.644  26.611  1.00 32.39 LIG-0.36  OA
ATOM     48 HH   TYR C   4      55.598  29.117  26.011  1.00 32.39 LIG 0.22  HD
ENDBRANCH 44 47
ENDBRANCH 40 41
ENDBRANCH 39 40
BRANCH 39 49
ATOM     49  C   TYR C   4      57.037  26.427  32.066  1.00 20.63 LIG 0.24  C 
ATOM     50 O    TYR C   4      56.215  26.203  31.222  1.00 19.73 LIG-0.27  OA
ATOM     51  N   ILE C   5      57.757  25.462  32.618  1.00 22.91 LIG-0.35  N 
ATOM     52 H    ILE C   5      58.432  25.597  33.133  1.00 22.91 LIG 0.16  HD
BRANCH 51 53
ATOM     53  CA  ILE C   5      57.446  24.064  32.382  1.00 27.58 LIG 0.18  C 
BRANCH 53 54
ATOM     54  C   ILE C   5      56.215  23.669  33.194  1.00 33.14 LIG 0.24  C 
ATOM     55  N   HIS C   6      55.887  24.456  34.228  1.00 39.14 LIG-0.35  N 
ATOM     56 H    HIS C   6      56.370  25.122  34.480  1.00 39.14 LIG 0.16  HD
ATOM     57 O    ILE C   5      55.659  22.607  32.928  1.00 25.88 LIG-0.27  OA
BRANCH 55 58
ATOM     58  CA  HIS C   6      54.645  24.267  35.063  1.00 56.87 LIG 0.17  C 
BRANCH 58 59
ATOM     59  CB  HIS C   6      54.951  24.514  36.569  1.00 66.39 LIG 0.09  C 
BRANCH 59 60
ATOM     60  CG  HIS C   6      56.126  23.745  37.105  1.00 78.50 LIG 0.06  A 
ATOM     61  CD2 HIS C   6      56.542  23.549  38.381  1.00 82.71 LIG 0.14  A 
ATOM     62 NE2  HIS C   6      57.645  22.727  38.331  1.00 84.02 LIG-0.25  NA
ATOM     63  CE1 HIS C   6      57.888  22.410  37.071  1.00 85.20 LIG 0.23  A 
ATOM     64 ND1  HIS C   6      56.983  23.005  36.309  1.00 88.66 LIG-0.24  NA
ENDBRANCH 59 60
ENDBRANCH 58 59
BRANCH 58 65
ATOM     65  C   HIS C   6      53.416  25.111  34.700  1.00 59.18 LIG 0.22  C 
ATOM     66 O    HIS C   6      52.932  25.927  35.529  1.00 63.69 LIG-0.29  OA
ENDBRANCH 58 65
ENDBRANCH 55 58
ENDBRANCH 53 54
BRANCH 53 67
ATOM     67  CB  ILE C   5      58.654  23.200  32.720  1.00 28.54 LIG 0.01  C 
ATOM     68  CG2 ILE C   5      58.582  21.918  31.893  1.00 32.34 LIG 0.01  C 
BRANCH 67 69
ATOM     69  CG1 ILE C   5      59.907  24.056  32.473  1.00 30.21 LIG 0.00  C 
ATOM     70  CD1 ILE C   5      61.039  23.886  33.455  1.00 32.85 LIG 0.01  C 
ENDBRANCH 67 69
ENDBRANCH 53 67
ENDBRANCH 51 53
ENDBRANCH 39 49
ENDBRANCH 3 39
TORSDOF 26
ENDMDL
MODEL 35
USER: ADFR SOLUTION from run 199
USER: SCORE 22.269345 LL:  -5.612 LR: -17.504 RR:   0.000 FEB:  -9.749
USER: RMSD 2.066426
USER: SEED 198
USER: STATUS no improvement in best in 13 clusters for 5 generations
USER: GENES 28
USER: genes 0 Translation |==|  0.69023 0.46690 0.51650
USER: genes 1 Rotation |==|  0.48873 0.53955 0.52709 0.99757
USER: genes 2 Torsion [N]-C--CA-[N] |==|  0.43641
USER: genes 3 Torsion [C]-CA--N-[C] |==|  0.79533
USER: genes 4 Torsion [N]-C--CA-[N] |==|  0.06111
USER: genes 5 Torsion [C]-CA--CB-[CG] |==|  0.43405
USER: genes 6 Torsion [CA]-CB--CG-[CD] |==|  0.83249
USER: genes 7 Torsion [CB]-CG--CD-[NE] |==|  0.43892
USER: genes 8 Torsion [CG]-CD--NE-[CZ] |==|  0.36468
USER: genes 9 Torsion [C]-CA--N-[C] |==|  0.73119
USER: genes 10 Torsion [N]-C--CA-[N] |==|  0.45127
USER: genes 11 Torsion [C]-CA--CB-[CG] |==|  0.75732
USER: genes 12 Torsion [CA]-CB--CG-[OD2] |==|  0.28975
USER: genes 13 Torsion [C]-CA--N-[H1] |==|  0.43071
USER: genes 14 Torsion [C]-CA--CB-[CG1] |==|  0.52962
USER: genes 15 Torsion [C]-N--CA-[CB] |==|  0.53540
USER: genes 16 Torsion [N]-CA--CB-[CG] |==|  0.59791
USER: genes 17 Torsion [CA]-CB--CG-[CD2] |==|  0.57422
USER: genes 18 Torsion [CE2]-CZ--OH-[HH] |==|  0.05749
USER: genes 19 Torsion [N]-CA--C-[N] |==|  0.27846
USER: genes 20 Torsion [C]-N--CA-[C] |==|  0.82604
USER: genes 21 Torsion [N]-CA--C-[N] |==|  0.40829
USER: genes 22 Torsion [C]-N--CA-[CB] |==|  0.77428
USER: genes 23 Torsion [N]-CA--CB-[CG] |==|  0.57750
USER: genes 24 Torsion [CA]-CB--CG-[CD2] |==|  0.26261
USER: genes 25 Torsion [N]-CA--C-[O] |==|  0.09749
USER: genes 26 Torsion [N]-CA--CB-[CG1] |==|  0.72379
USER: genes 27 Torsion [CA]-CB--CG1-[CD1] |==|  0.76789
ROOT
ATOM      1  C   VAL C   3      57.426  28.486  34.794  1.00 15.94 LIG 0.24  C 
ATOM      2 O    VAL C   3      56.273  28.816  34.998  1.00 17.86 LIG-0.27  OA
ATOM      3  N   TYR C   4      57.821  28.052  33.602  1.00 16.41 LIG-0.35  N 
ATOM      4 H    TYR C   4      58.622  27.792  33.427  1.00 16.41 LIG 0.16  HD
ENDROOT
BRANCH 1 5
ATOM      5  CA  VAL C   3      58.446  28.529  35.949  1.00 16.01 LIG 0.18  C 
BRANCH 5 6
ATOM      6  N   VAL C   3      57.946  29.521  36.924  1.00 15.77 LIG-0.35  N 
ATOM      7 H    VAL C   3      57.617  29.194  37.649  1.00 15.77 LIG 0.16  HD
ATOM      8  C   ARG C   2      58.028  30.811  36.641  1.00 16.54 LIG 0.24  C 
ATOM      9 O    ARG C   2      58.610  31.241  35.623  1.00 14.63 LIG-0.27  OA
BRANCH 8 10
ATOM     10  CA  ARG C   2      57.399  31.773  37.630  1.00 19.03 LIG 0.18  C 
BRANCH 10 11
ATOM     11  CB  ARG C   2      58.256  33.040  37.713  1.00 20.38 LIG 0.04  C 
BRANCH 11 12
ATOM     12  CG  ARG C   2      57.536  34.262  38.175  1.00 20.75 LIG 0.02  C 
BRANCH 12 13
ATOM     13  CD  ARG C   2      56.433  34.593  37.271  1.00 22.55 LIG 0.14  C 
BRANCH 13 14
ATOM     14  NE  ARG C   2      55.430  35.407  37.902  1.00 20.36 LIG-0.23  N 
ATOM     15  CZ  ARG C   2      54.929  36.509  37.384  1.00 23.11 LIG 0.67  C 
ATOM     16  NH1 ARG C   2      55.228  36.862  36.183  1.00 23.20 LIG-0.23  N 
ATOM     17  NH2 ARG C   2      54.026  37.206  38.084  1.00 25.55 LIG-0.23  N 
ATOM     18 1HH1 ARG C   2      55.759  36.377  35.712  1.00 23.20 LIG 0.17  HD
ATOM     19 2HH1 ARG C   2      54.896  37.583  35.852  1.00 23.20 LIG 0.17  HD
ATOM     20 2HH2 ARG C   2      53.691  37.927  37.756  1.00 25.55 LIG 0.17  HD
ATOM     21 1HH2 ARG C   2      53.780  36.932  38.862  1.00 25.55 LIG 0.17  HD
ATOM     22 HE   ARG C   2      55.138  35.158  38.671  1.00 20.36 LIG 0.18  HD
ENDBRANCH 13 14
ENDBRANCH 12 13
ENDBRANCH 11 12
ENDBRANCH 10 11
BRANCH 10 23
ATOM     23  N   ARG C   2      57.268  31.153  38.959  1.00 19.42 LIG-0.35  N 
ATOM     24  C   ASP C   1      56.118  30.602  39.320  1.00 19.51 LIG 0.25  C 
ATOM     25 O    ASP C   1      55.208  30.372  38.505  1.00 19.29 LIG-0.27  OA
ATOM     26 H    ARG C   2      57.974  31.183  39.450  1.00 19.42 LIG 0.16  HD
BRANCH 24 27
ATOM     27  CA  ASP C   1      55.914  30.270  40.788  1.00 19.04 LIG 0.28  C 
BRANCH 27 28
ATOM     28  CB  ASP C   1      56.671  29.009  41.119  1.00 21.34 LIG 0.15  C 
BRANCH 28 29
ATOM     29  CG  ASP C   1      55.829  27.735  40.848  1.00 23.67 LIG 0.17  C 
ATOM     30 OD2  ASP C   1      56.105  27.061  39.818  1.00 27.41 LIG-0.65  OA
ATOM     31 OD1  ASP C   1      54.881  27.421  41.639  1.00 20.87 LIG-0.65  OA
ENDBRANCH 28 29
ENDBRANCH 27 28
BRANCH 27 32
ATOM     32  N   ASP C   1      54.434  30.080  41.005  1.00 18.38 LIG-0.07  N 
ATOM     33 H1   ASP C   1      54.303  29.553  41.711  1.00 18.38 LIG 0.28  HD
ATOM     34 H3   ASP C   1      54.074  29.704  40.284  1.00 18.38 LIG 0.28  HD
ATOM     35 H2   ASP C   1      54.050  30.870  41.149  1.00 18.38 LIG 0.28  HD
ENDBRANCH 27 32
ENDBRANCH 24 27
ENDBRANCH 10 23
ENDBRANCH 8 10
ENDBRANCH 5 6
BRANCH 5 36
ATOM     36  CB  VAL C   3      58.540  27.134  36.528  1.00 17.74 LIG 0.01  C 
ATOM     37  CG1 VAL C   3      59.316  27.117  37.828  1.00 20.72 LIG 0.01  C 
ATOM     38  CG2 VAL C   3      57.162  26.562  36.805  1.00 18.64 LIG 0.01  C 
ENDBRANCH 5 36
ENDBRANCH 1 5
BRANCH 3 39
ATOM     39  CA  TYR C   4      56.905  27.981  32.470  1.00 17.90 LIG 0.18  C 
BRANCH 39 40
ATOM     40  CB  TYR C   4      57.501  27.184  31.351  1.00 20.19 LIG 0.07  C 
BRANCH 40 41
ATOM     41  CG  TYR C   4      57.169  27.648  29.958  1.00 23.00 LIG-0.06  A 
ATOM     42  CD2 TYR C   4      57.169  26.748  28.892  1.00 26.62 LIG 0.01  A 
ATOM     43  CE2 TYR C   4      56.873  27.153  27.606  1.00 28.63 LIG 0.04  A 
ATOM     44  CZ  TYR C   4      56.579  28.462  27.374  1.00 25.42 LIG 0.07  A 
ATOM     45  CE1 TYR C   4      56.527  29.355  28.389  1.00 26.89 LIG 0.04  A 
ATOM     46  CD1 TYR C   4      56.830  28.945  29.695  1.00 24.41 LIG 0.01  A 
BRANCH 44 47
ATOM     47 OH   TYR C   4      56.281  28.858  26.102  1.00 32.39 LIG-0.36  OA
ATOM     48 HH   TYR C   4      56.042  28.191  25.650  1.00 32.39 LIG 0.22  HD
ENDBRANCH 44 47
ENDBRANCH 40 41
ENDBRANCH 39 40
BRANCH 39 49
ATOM     49  C   TYR C   4      55.492  27.462  32.861  1.00 20.63 LIG 0.24  C 
ATOM     50 O    TYR C   4      55.302  26.305  33.117  1.00 19.73 LIG-0.27  OA
ATOM     51  N   ILE C   5      54.549  28.380  33.019  1.00 22.91 LIG-0.35  N 
ATOM     52 H    ILE C   5      54.685  29.227  32.961  1.00 22.91 LIG 0.16  HD
BRANCH 51 53
ATOM     53  CA  ILE C   5      53.176  28.005  33.309  1.00 27.58 LIG 0.18  C 
BRANCH 53 54
ATOM     54  C   ILE C   5      52.612  27.190  32.148  1.00 33.14 LIG 0.24  C 
ATOM     55  N   HIS C   6      51.724  26.232  32.447  1.00 39.14 LIG-0.35  N 
ATOM     56 H    HIS C   6      51.514  26.026  33.256  1.00 39.14 LIG 0.16  HD
ATOM     57 O    ILE C   5      53.075  27.379  31.027  1.00 25.88 LIG-0.27  OA
BRANCH 55 58
ATOM     58  CA  HIS C   6      50.996  25.413  31.412  1.00 56.87 LIG 0.17  C 
BRANCH 58 59
ATOM     59  CB  HIS C   6      49.776  26.197  30.847  1.00 66.39 LIG 0.09  C 
BRANCH 59 60
ATOM     60  CG  HIS C   6      48.648  25.334  30.356  1.00 78.50 LIG 0.06  A 
ATOM     61  CD2 HIS C   6      47.522  24.915  30.986  1.00 82.71 LIG 0.14  A 
ATOM     62 NE2  HIS C   6      46.791  24.185  30.077  1.00 84.02 LIG-0.25  NA
ATOM     63  CE1 HIS C   6      47.432  24.173  28.920  1.00 85.20 LIG 0.23  A 
ATOM     64 ND1  HIS C   6      48.553  24.865  29.058  1.00 88.66 LIG-0.24  NA
ENDBRANCH 59 60
ENDBRANCH 58 59
BRANCH 58 65
ATOM     65  C   HIS C   6      51.809  24.904  30.215  1.00 59.18 LIG 0.22  C 
ATOM     66 O    HIS C   6      53.014  24.562  30.357  1.00 63.69 LIG-0.29  OA
ENDBRANCH 58 65
ENDBRANCH 55 58
ENDBRANCH 53 54
BRANCH 53 67
ATOM     67  CB  ILE C   5      52.347  29.251  33.588  1.00 28.54 LIG 0.01  C 
ATOM     68  CG2 ILE C   5      51.014  29.121  32.855  1.00 32.34 LIG 0.01  C 
BRANCH 67 69
ATOM     69  CG1 ILE C   5      52.230  29.386  35.116  1.00 30.21 LIG 0.00  C 
ATOM     70  CD1 ILE C   5      51.143  28.578  35.779  1.00 32.85 LIG 0.01  C 
ENDBRANCH 67 69
ENDBRANCH 53 67
ENDBRANCH 51 53
ENDBRANCH 39 49
ENDBRANCH 3 39
TORSDOF 26
ENDMDL
MODEL 36
USER: ADFR SOLUTION from run 29
USER: SCORE 21.961404 LL:  -5.828 LR: -17.476 RR:   0.000 FEB:  -9.721
USER: RMSD 2.373064
USER: SEED 28
USER: STATUS no improvement in best in 14 clusters for 5 generations
USER: GENES 28
USER: genes 0 Translation |==|  0.68971 0.46324 0.51923
USER: genes 1 Rotation |==|  0.48322 0.52739 0.52032 0.99855
USER: genes 2 Torsion [N]-C--CA-[N] |==|  0.44441
USER: genes 3 Torsion [C]-CA--N-[C] |==|  0.78586
USER: genes 4 Torsion [N]-C--CA-[N] |==|  0.07512
USER: genes 5 Torsion [C]-CA--CB-[CG] |==|  0.44725
USER: genes 6 Torsion [CA]-CB--CG-[CD] |==|  0.80006
USER: genes 7 Torsion [CB]-CG--CD-[NE] |==|  0.45516
USER: genes 8 Torsion [CG]-CD--NE-[CZ] |==|  0.39168
USER: genes 9 Torsion [C]-CA--N-[C] |==|  0.73731
USER: genes 10 Torsion [N]-C--CA-[N] |==|  0.41650
USER: genes 11 Torsion [C]-CA--CB-[CG] |==|  0.22628
USER: genes 12 Torsion [CA]-CB--CG-[OD2] |==|  0.75708
USER: genes 13 Torsion [C]-CA--N-[H1] |==|  0.45402
USER: genes 14 Torsion [C]-CA--CB-[CG1] |==|  0.53070
USER: genes 15 Torsion [C]-N--CA-[CB] |==|  0.51162
USER: genes 16 Torsion [N]-CA--CB-[CG] |==|  0.60253
USER: genes 17 Torsion [CA]-CB--CG-[CD2] |==|  0.51233
USER: genes 18 Torsion [CE2]-CZ--OH-[HH] |==|  0.34695
USER: genes 19 Torsion [N]-CA--C-[N] |==|  0.26495
USER: genes 20 Torsion [C]-N--CA-[C] |==|  0.84734
USER: genes 21 Torsion [N]-CA--C-[N] |==|  0.39411
USER: genes 22 Torsion [C]-N--CA-[CB] |==|  0.21132
USER: genes 23 Torsion [N]-CA--CB-[CG] |==|  0.76873
USER: genes 24 Torsion [CA]-CB--CG-[CD2] |==|  0.89401
USER: genes 25 Torsion [N]-CA--C-[O] |==|  0.98831
USER: genes 26 Torsion [N]-CA--CB-[CG1] |==|  0.76141
USER: genes 27 Torsion [CA]-CB--CG1-[CD1] |==|  0.69275
ROOT
ATOM      1  C   VAL C   3      57.417  28.393  34.866  1.00 15.94 LIG 0.24  C 
ATOM      2 O    VAL C   3      56.264  28.755  35.004  1.00 17.86 LIG-0.27  OA
ATOM      3  N   TYR C   4      57.861  27.923  33.704  1.00 16.41 LIG-0.35  N 
ATOM      4 H    TYR C   4      58.663  27.640  33.576  1.00 16.41 LIG 0.16  HD
ENDROOT
BRANCH 1 5
ATOM      5  CA  VAL C   3      58.379  28.437  36.070  1.00 16.01 LIG 0.18  C 
BRANCH 5 6
ATOM      6  N   VAL C   3      57.817  29.411  37.030  1.00 15.77 LIG-0.35  N 
ATOM      7 H    VAL C   3      57.417  29.070  37.711  1.00 15.77 LIG 0.16  HD
ATOM      8  C   ARG C   2      57.954  30.706  36.799  1.00 16.54 LIG 0.24  C 
ATOM      9 O    ARG C   2      58.634  31.152  35.850  1.00 14.63 LIG-0.27  OA
BRANCH 8 10
ATOM     10  CA  ARG C   2      57.262  31.653  37.760  1.00 19.03 LIG 0.18  C 
BRANCH 10 11
ATOM     11  CB  ARG C   2      58.076  32.947  37.862  1.00 20.38 LIG 0.04  C 
BRANCH 11 12
ATOM     12  CG  ARG C   2      57.329  34.122  38.398  1.00 20.75 LIG 0.02  C 
BRANCH 12 13
ATOM     13  CD  ARG C   2      56.360  34.618  37.419  1.00 22.55 LIG 0.14  C 
BRANCH 13 14
ATOM     14  NE  ARG C   2      55.379  35.488  38.009  1.00 20.36 LIG-0.23  N 
ATOM     15  CZ  ARG C   2      54.906  36.575  37.436  1.00 23.11 LIG 0.67  C 
ATOM     16  NH1 ARG C   2      55.212  36.860  36.219  1.00 23.20 LIG-0.23  N 
ATOM     17  NH2 ARG C   2      54.021  37.329  38.099  1.00 25.55 LIG-0.23  N 
ATOM     18 1HH1 ARG C   2      55.730  36.338  35.772  1.00 23.20 LIG 0.17  HD
ATOM     19 2HH1 ARG C   2      54.898  37.572  35.852  1.00 23.20 LIG 0.17  HD
ATOM     20 2HH2 ARG C   2      53.704  38.041  37.736  1.00 25.55 LIG 0.17  HD
ATOM     21 1HH2 ARG C   2      53.769  37.101  38.890  1.00 25.55 LIG 0.17  HD
ATOM     22 HE   ARG C   2      55.082  35.285  38.789  1.00 20.36 LIG 0.18  HD
ENDBRANCH 13 14
ENDBRANCH 12 13
ENDBRANCH 11 12
ENDBRANCH 10 11
BRANCH 10 23
ATOM     23  N   ARG C   2      57.107  31.036  39.088  1.00 19.42 LIG-0.35  N 
ATOM     24  C   ASP C   1      55.979  30.413  39.398  1.00 19.51 LIG 0.25  C 
ATOM     25 O    ASP C   1      55.128  30.116  38.542  1.00 19.29 LIG-0.27  OA
ATOM     26 H    ARG C   2      57.784  31.117  39.612  1.00 19.42 LIG 0.16  HD
BRANCH 24 27
ATOM     27  CA  ASP C   1      55.725  30.080  40.858  1.00 19.04 LIG 0.28  C 
BRANCH 27 28
ATOM     28  CB  ASP C   1      56.292  28.716  41.159  1.00 21.34 LIG 0.15  C 
BRANCH 28 29
ATOM     29  CG  ASP C   1      57.819  28.764  41.425  1.00 23.67 LIG 0.17  C 
ATOM     30 OD2  ASP C   1      58.588  28.671  40.429  1.00 27.41 LIG-0.65  OA
ATOM     31 OD1  ASP C   1      58.253  28.865  42.618  1.00 20.87 LIG-0.65  OA
ENDBRANCH 28 29
ENDBRANCH 27 28
BRANCH 27 32
ATOM     32  N   ASP C   1      54.232  30.099  41.071  1.00 18.38 LIG-0.07  N 
ATOM     33 H1   ASP C   1      54.035  29.683  41.832  1.00 18.38 LIG 0.28  HD
ATOM     34 H3   ASP C   1      53.830  29.685  40.393  1.00 18.38 LIG 0.28  HD
ATOM     35 H2   ASP C   1      53.948  30.942  41.112  1.00 18.38 LIG 0.28  HD
ENDBRANCH 27 32
ENDBRANCH 24 27
ENDBRANCH 10 23
ENDBRANCH 8 10
ENDBRANCH 5 6
BRANCH 5 36
ATOM     36  CB  VAL C   3      58.464  27.037  36.638  1.00 17.74 LIG 0.01  C 
ATOM     37  CG1 VAL C   3      59.167  27.017  37.978  1.00 20.72 LIG 0.01  C 
ATOM     38  CG2 VAL C   3      57.082  26.439  36.832  1.00 18.64 LIG 0.01  C 
ENDBRANCH 5 36
ENDBRANCH 1 5
BRANCH 3 39
ATOM     39  CA  TYR C   4      57.001  27.849  32.530  1.00 17.90 LIG 0.18  C 
BRANCH 39 40
ATOM     40  CB  TYR C   4      57.714  27.193  31.388  1.00 20.19 LIG 0.07  C 
BRANCH 40 41
ATOM     41  CG  TYR C   4      57.424  27.749  30.019  1.00 23.00 LIG-0.06  A 
ATOM     42  CD2 TYR C   4      57.965  27.149  28.881  1.00 26.62 LIG 0.01  A 
ATOM     43  CE2 TYR C   4      57.718  27.645  27.617  1.00 28.63 LIG 0.04  A 
ATOM     44  CZ  TYR C   4      56.931  28.747  27.480  1.00 25.42 LIG 0.07  A 
ATOM     45  CE1 TYR C   4      56.353  29.330  28.556  1.00 26.89 LIG 0.04  A 
ATOM     46  CD1 TYR C   4      56.607  28.828  29.841  1.00 24.41 LIG 0.01  A 
BRANCH 44 47
ATOM     47 OH   TYR C   4      56.683  29.232  26.229  1.00 32.39 LIG-0.36  OA
ATOM     48 HH   TYR C   4      55.853  29.282  26.107  1.00 32.39 LIG 0.22  HD
ENDBRANCH 44 47
ENDBRANCH 40 41
ENDBRANCH 39 40
BRANCH 39 49
ATOM     49  C   TYR C   4      55.629  27.175  32.819  1.00 20.63 LIG 0.24  C 
ATOM     50 O    TYR C   4      55.526  25.983  32.901  1.00 19.73 LIG-0.27  OA
ATOM     51  N   ILE C   5      54.619  27.988  33.093  1.00 22.91 LIG-0.35  N 
ATOM     52 H    ILE C   5      54.690  28.842  33.161  1.00 22.91 LIG 0.16  HD
BRANCH 51 53
ATOM     53  CA  ILE C   5      53.277  27.474  33.304  1.00 27.58 LIG 0.18  C 
BRANCH 53 54
ATOM     54  C   ILE C   5      52.856  26.634  32.101  1.00 33.14 LIG 0.24  C 
ATOM     55  N   HIS C   6      52.140  25.529  32.346  1.00 39.14 LIG-0.35  N 
ATOM     56 H    HIS C   6      51.968  25.251  33.142  1.00 39.14 LIG 0.16  HD
ATOM     57 O    ILE C   5      53.279  26.954  30.993  1.00 25.88 LIG-0.27  OA
BRANCH 55 58
ATOM     58  CA  HIS C   6      51.558  24.651  31.267  1.00 56.87 LIG 0.17  C 
BRANCH 58 59
ATOM     59  CB  HIS C   6      52.664  23.772  30.615  1.00 66.39 LIG 0.09  C 
BRANCH 59 60
ATOM     60  CG  HIS C   6      53.452  24.455  29.533  1.00 78.50 LIG 0.06  A 
ATOM     61  CD2 HIS C   6      53.055  25.325  28.571  1.00 82.71 LIG 0.14  A 
ATOM     62 NE2  HIS C   6      54.177  25.694  27.864  1.00 84.02 LIG-0.25  NA
ATOM     63  CE1 HIS C   6      55.233  25.091  28.386  1.00 85.20 LIG 0.23  A 
ATOM     64 ND1  HIS C   6      54.825  24.342  29.399  1.00 88.66 LIG-0.24  NA
ENDBRANCH 59 60
ENDBRANCH 58 59
BRANCH 58 65
ATOM     65  C   HIS C   6      50.404  23.719  31.662  1.00 59.18 LIG 0.22  C 
ATOM     66 O    HIS C   6      50.024  23.641  32.861  1.00 63.69 LIG-0.29  OA
ENDBRANCH 58 65
ENDBRANCH 55 58
ENDBRANCH 53 54
BRANCH 53 67
ATOM     67  CB  ILE C   5      52.316  28.626  33.561  1.00 28.54 LIG 0.01  C 
ATOM     68  CG2 ILE C   5      50.934  28.231  33.044  1.00 32.34 LIG 0.01  C 
BRANCH 67 69
ATOM     69  CG1 ILE C   5      52.373  28.938  35.066  1.00 30.21 LIG 0.00  C 
ATOM     70  CD1 ILE C   5      51.144  28.594  35.869  1.00 32.85 LIG 0.01  C 
ENDBRANCH 67 69
ENDBRANCH 53 67
ENDBRANCH 51 53
ENDBRANCH 39 49
ENDBRANCH 3 39
TORSDOF 26
ENDMDL
MODEL 37
USER: ADFR SOLUTION from run 36
USER: SCORE 21.640443 LL:  -5.386 LR: -17.369 RR:   0.000 FEB:  -9.613
USER: RMSD 4.334880
USER: SEED 35
USER: STATUS no improvement in best in 9 clusters for 5 generations
USER: GENES 28
USER: genes 0 Translation |==|  0.68051 0.46826 0.50087
USER: genes 1 Rotation |==|  0.51027 0.49275 0.51181 0.99970
USER: genes 2 Torsion [N]-C--CA-[N] |==|  0.43228
USER: genes 3 Torsion [C]-CA--N-[C] |==|  0.77971
USER: genes 4 Torsion [N]-C--CA-[N] |==|  0.13000
USER: genes 5 Torsion [C]-CA--CB-[CG] |==|  0.47397
USER: genes 6 Torsion [CA]-CB--CG-[CD] |==|  0.70381
USER: genes 7 Torsion [CB]-CG--CD-[NE] |==|  0.44605
USER: genes 8 Torsion [CG]-CD--NE-[CZ] |==|  0.48984
USER: genes 9 Torsion [C]-CA--N-[C] |==|  0.74610
USER: genes 10 Torsion [N]-C--CA-[N] |==|  0.39358
USER: genes 11 Torsion [C]-CA--CB-[CG] |==|  0.24860
USER: genes 12 Torsion [CA]-CB--CG-[OD2] |==|  0.26599
USER: genes 13 Torsion [C]-CA--N-[H1] |==|  0.45047
USER: genes 14 Torsion [C]-CA--CB-[CG1] |==|  0.51601
USER: genes 15 Torsion [C]-N--CA-[CB] |==|  0.51111
USER: genes 16 Torsion [N]-CA--CB-[CG] |==|  0.52747
USER: genes 17 Torsion [CA]-CB--CG-[CD2] |==|  0.61247
USER: genes 18 Torsion [CE2]-CZ--OH-[HH] |==|  0.99358
USER: genes 19 Torsion [N]-CA--C-[N] |==|  0.44656
USER: genes 20 Torsion [C]-N--CA-[C] |==|  0.18573
USER: genes 21 Torsion [N]-CA--C-[N] |==|  0.06545
USER: genes 22 Torsion [C]-N--CA-[CB] |==|  0.83514
USER: genes 23 Torsion [N]-CA--CB-[CG] |==|  0.78692
USER: genes 24 Torsion [CA]-CB--CG-[CD2] |==|  0.47488
USER: genes 25 Torsion [N]-CA--C-[O] |==|  0.93472
USER: genes 26 Torsion [N]-CA--CB-[CG1] |==|  0.88525
USER: genes 27 Torsion [CA]-CB--CG1-[CD1] |==|  0.40153
ROOT
ATOM      1  C   VAL C   3      57.258  28.521  34.384  1.00 15.94 LIG 0.24  C 
ATOM      2 O    VAL C   3      56.108  28.914  34.408  1.00 17.86 LIG-0.27  OA
ATOM      3  N   TYR C   4      57.844  28.162  33.246  1.00 16.41 LIG-0.35  N 
ATOM      4 H    TYR C   4      58.647  27.861  33.194  1.00 16.41 LIG 0.16  HD
ENDROOT
BRANCH 1 5
ATOM      5  CA  VAL C   3      58.048  28.392  35.702  1.00 16.01 LIG 0.18  C 
BRANCH 5 6
ATOM      6  N   VAL C   3      57.454  29.357  36.651  1.00 15.77 LIG-0.35  N 
ATOM      7 H    VAL C   3      56.912  29.022  37.229  1.00 15.77 LIG 0.16  HD
ATOM      8  C   ARG C   2      57.775  30.638  36.565  1.00 16.54 LIG 0.24  C 
ATOM      9 O    ARG C   2      58.647  31.060  35.776  1.00 14.63 LIG-0.27  OA
BRANCH 8 10
ATOM     10  CA  ARG C   2      57.050  31.593  37.493  1.00 19.03 LIG 0.18  C 
BRANCH 10 11
ATOM     11  CB  ARG C   2      57.743  32.959  37.448  1.00 20.38 LIG 0.04  C 
BRANCH 11 12
ATOM     12  CG  ARG C   2      57.014  34.060  38.141  1.00 20.75 LIG 0.02  C 
BRANCH 12 13
ATOM     13  CD  ARG C   2      56.413  34.980  37.175  1.00 22.55 LIG 0.14  C 
BRANCH 13 14
ATOM     14  NE  ARG C   2      55.359  35.771  37.750  1.00 20.36 LIG-0.23  N 
ATOM     15  CZ  ARG C   2      54.706  36.720  37.113  1.00 23.11 LIG 0.67  C 
ATOM     16  NH1 ARG C   2      54.894  36.913  35.855  1.00 23.20 LIG-0.23  N 
ATOM     17  NH2 ARG C   2      53.768  37.417  37.766  1.00 25.55 LIG-0.23  N 
ATOM     18 1HH1 ARG C   2      55.450  36.420  35.422  1.00 23.20 LIG 0.17  HD
ATOM     19 2HH1 ARG C   2      54.462  37.535  35.446  1.00 23.20 LIG 0.17  HD
ATOM     20 2HH2 ARG C   2      53.335  38.039  37.361  1.00 25.55 LIG 0.17  HD
ATOM     21 1HH2 ARG C   2      53.600  37.243  38.591  1.00 25.55 LIG 0.17  HD
ATOM     22 HE   ARG C   2      55.142  35.614  38.566  1.00 20.36 LIG 0.18  HD
ENDBRANCH 13 14
ENDBRANCH 12 13
ENDBRANCH 11 12
ENDBRANCH 10 11
BRANCH 10 23
ATOM     23  N   ARG C   2      57.026  31.073  38.870  1.00 19.42 LIG-0.35  N 
ATOM     24  C   ASP C   1      56.008  30.325  39.275  1.00 19.51 LIG 0.25  C 
ATOM     25 O    ASP C   1      55.184  29.842  38.481  1.00 19.29 LIG-0.27  OA
ATOM     26 H    ARG C   2      57.699  31.291  39.357  1.00 19.42 LIG 0.16  HD
BRANCH 24 27
ATOM     27  CA  ASP C   1      55.850  30.082  40.766  1.00 19.04 LIG 0.28  C 
BRANCH 27 28
ATOM     28  CB  ASP C   1      56.440  28.740  41.113  1.00 21.34 LIG 0.15  C 
BRANCH 28 29
ATOM     29  CG  ASP C   1      57.945  28.840  41.472  1.00 23.67 LIG 0.17  C 
ATOM     30 OD2  ASP C   1      58.250  28.927  42.694  1.00 27.41 LIG-0.65  OA
ATOM     31 OD1  ASP C   1      58.819  28.860  40.545  1.00 20.87 LIG-0.65  OA
ENDBRANCH 28 29
ENDBRANCH 27 28
BRANCH 27 32
ATOM     32  N   ASP C   1      54.373  30.114  41.071  1.00 18.38 LIG-0.07  N 
ATOM     33 H1   ASP C   1      54.225  29.728  41.860  1.00 18.38 LIG 0.28  HD
ATOM     34 H3   ASP C   1      53.929  29.674  40.438  1.00 18.38 LIG 0.28  HD
ATOM     35 H2   ASP C   1      54.092  30.958  41.097  1.00 18.38 LIG 0.28  HD
ENDBRANCH 27 32
ENDBRANCH 24 27
ENDBRANCH 10 23
ENDBRANCH 8 10
ENDBRANCH 5 6
BRANCH 5 36
ATOM     36  CB  VAL C   3      57.924  26.958  36.170  1.00 17.74 LIG 0.01  C 
ATOM     37  CG1 VAL C   3      58.550  26.758  37.534  1.00 20.72 LIG 0.01  C 
ATOM     38  CG2 VAL C   3      56.469  26.535  36.262  1.00 18.64 LIG 0.01  C 
ENDBRANCH 5 36
ENDBRANCH 1 5
BRANCH 3 39
ATOM     39  CA  TYR C   4      57.150  28.254  31.967  1.00 17.90 LIG 0.18  C 
BRANCH 39 40
ATOM     40  CB  TYR C   4      57.996  27.699  30.862  1.00 20.19 LIG 0.07  C 
BRANCH 40 41
ATOM     41  CG  TYR C   4      57.498  27.942  29.462  1.00 23.00 LIG-0.06  A 
ATOM     42  CD2 TYR C   4      57.583  26.939  28.495  1.00 26.62 LIG 0.01  A 
ATOM     43  CE2 TYR C   4      57.138  27.142  27.205  1.00 28.63 LIG 0.04  A 
ATOM     44  CZ  TYR C   4      56.608  28.349  26.868  1.00 25.42 LIG 0.07  A 
ATOM     45  CE1 TYR C   4      56.468  29.331  27.789  1.00 26.89 LIG 0.04  A 
ATOM     46  CD1 TYR C   4      56.923  29.126  29.100  1.00 24.41 LIG 0.01  A 
BRANCH 44 47
ATOM     47 OH   TYR C   4      56.162  28.544  25.593  1.00 32.39 LIG-0.36  OA
ATOM     48 HH   TYR C   4      56.309  27.855  25.136  1.00 32.39 LIG 0.22  HD
ENDBRANCH 44 47
ENDBRANCH 40 41
ENDBRANCH 39 40
BRANCH 39 49
ATOM     49  C   TYR C   4      55.735  27.608  31.991  1.00 20.63 LIG 0.24  C 
ATOM     50 O    TYR C   4      55.389  26.901  32.897  1.00 19.73 LIG-0.27  OA
ATOM     51  N   ILE C   5      54.900  27.980  31.033  1.00 22.91 LIG-0.35  N 
ATOM     52 H    ILE C   5      55.080  28.577  30.440  1.00 22.91 LIG 0.16  HD
BRANCH 51 53
ATOM     53  CA  ILE C   5      53.580  27.386  30.913  1.00 27.58 LIG 0.18  C 
BRANCH 53 54
ATOM     54  C   ILE C   5      52.728  27.788  32.115  1.00 33.14 LIG 0.24  C 
ATOM     55  N   HIS C   6      53.072  28.910  32.761  1.00 39.14 LIG-0.35  N 
ATOM     56 H    HIS C   6      53.775  29.365  32.564  1.00 39.14 LIG 0.16  HD
ATOM     57 O    ILE C   5      51.849  27.016  32.487  1.00 25.88 LIG-0.27  OA
BRANCH 55 58
ATOM     58  CA  HIS C   6      52.275  29.500  33.896  1.00 56.87 LIG 0.17  C 
BRANCH 58 59
ATOM     59  CB  HIS C   6      50.827  29.837  33.436  1.00 66.39 LIG 0.09  C 
BRANCH 59 60
ATOM     60  CG  HIS C   6      50.706  31.085  32.608  1.00 78.50 LIG 0.06  A 
ATOM     61  CD2 HIS C   6      49.651  31.583  31.914  1.00 82.71 LIG 0.14  A 
ATOM     62 NE2  HIS C   6      50.049  32.781  31.367  1.00 84.02 LIG-0.25  NA
ATOM     63  CE1 HIS C   6      51.298  33.026  31.729  1.00 85.20 LIG 0.23  A 
ATOM     64 ND1  HIS C   6      51.717  32.022  32.484  1.00 88.66 LIG-0.24  NA
ENDBRANCH 59 60
ENDBRANCH 58 59
BRANCH 58 65
ATOM     65  C   HIS C   6      52.166  28.675  35.186  1.00 59.18 LIG 0.22  C 
ATOM     66 O    HIS C   6      52.319  27.425  35.161  1.00 63.69 LIG-0.29  OA
ENDBRANCH 58 65
ENDBRANCH 55 58
ENDBRANCH 53 54
BRANCH 53 67
ATOM     67  CB  ILE C   5      53.703  25.874  30.781  1.00 28.54 LIG 0.01  C 
ATOM     68  CG2 ILE C   5      52.362  25.317  30.306  1.00 32.34 LIG 0.01  C 
BRANCH 67 69
ATOM     69  CG1 ILE C   5      54.885  25.596  29.838  1.00 30.21 LIG 0.00  C 
ATOM     70  CD1 ILE C   5      55.718  24.378  30.150  1.00 32.85 LIG 0.01  C 
ENDBRANCH 67 69
ENDBRANCH 53 67
ENDBRANCH 51 53
ENDBRANCH 39 49
ENDBRANCH 3 39
TORSDOF 26
ENDMDL
MODEL 38
USER: ADFR SOLUTION from run 21
USER: SCORE 23.050186 LL:  -6.375 LR: -17.352 RR:   0.000 FEB:  -9.596
USER: RMSD 4.198091
USER: SEED 20
USER: STATUS no improvement in best in 8 clusters for 5 generations
USER: GENES 28
USER: genes 0 Translation |==|  0.68520 0.44556 0.52502
USER: genes 1 Rotation |==|  0.51003 0.53475 0.59831 0.98890
USER: genes 2 Torsion [N]-C--CA-[N] |==|  0.38819
USER: genes 3 Torsion [C]-CA--N-[C] |==|  0.77154
USER: genes 4 Torsion [N]-C--CA-[N] |==|  0.08875
USER: genes 5 Torsion [C]-CA--CB-[CG] |==|  0.46776
USER: genes 6 Torsion [CA]-CB--CG-[CD] |==|  0.78669
USER: genes 7 Torsion [CB]-CG--CD-[NE] |==|  0.45491
USER: genes 8 Torsion [CG]-CD--NE-[CZ] |==|  0.37637
USER: genes 9 Torsion [C]-CA--N-[C] |==|  0.75506
USER: genes 10 Torsion [N]-C--CA-[N] |==|  0.39258
USER: genes 11 Torsion [C]-CA--CB-[CG] |==|  0.19469
USER: genes 12 Torsion [CA]-CB--CG-[OD2] |==|  0.26521
USER: genes 13 Torsion [C]-CA--N-[H1] |==|  0.44572
USER: genes 14 Torsion [C]-CA--CB-[CG1] |==|  0.79021
USER: genes 15 Torsion [C]-N--CA-[CB] |==|  0.79269
USER: genes 16 Torsion [N]-CA--CB-[CG] |==|  0.20865
USER: genes 17 Torsion [CA]-CB--CG-[CD2] |==|  0.68579
USER: genes 18 Torsion [CE2]-CZ--OH-[HH] |==|  0.60598
USER: genes 19 Torsion [N]-CA--C-[N] |==|  0.44090
USER: genes 20 Torsion [C]-N--CA-[C] |==|  0.68739
USER: genes 21 Torsion [N]-CA--C-[N] |==|  0.04801
USER: genes 22 Torsion [C]-N--CA-[CB] |==|  0.44991
USER: genes 23 Torsion [N]-CA--CB-[CG] |==|  0.93397
USER: genes 24 Torsion [CA]-CB--CG-[CD2] |==|  0.42261
USER: genes 25 Torsion [N]-CA--C-[O] |==|  0.07925
USER: genes 26 Torsion [N]-CA--CB-[CG1] |==|  0.00479
USER: genes 27 Torsion [CA]-CB--CG1-[CD1] |==|  0.25792
ROOT
ATOM      1  C   VAL C   3      57.339  27.942  35.018  1.00 15.94 LIG 0.24  C 
ATOM      2 O    VAL C   3      56.142  27.918  35.232  1.00 17.86 LIG-0.27  OA
ATOM      3  N   TYR C   4      57.827  27.764  33.795  1.00 16.41 LIG-0.35  N 
ATOM      4 H    TYR C   4      58.667  27.755  33.610  1.00 16.41 LIG 0.16  HD
ENDROOT
BRANCH 1 5
ATOM      5  CA  VAL C   3      58.319  28.140  36.191  1.00 16.01 LIG 0.18  C 
BRANCH 5 6
ATOM      6  N   VAL C   3      57.739  29.187  37.059  1.00 15.77 LIG-0.35  N 
ATOM      7 H    VAL C   3      57.304  28.901  37.744  1.00 15.77 LIG 0.16  HD
ATOM      8  C   ARG C   2      57.914  30.461  36.749  1.00 16.54 LIG 0.24  C 
ATOM      9 O    ARG C   2      58.644  30.829  35.803  1.00 14.63 LIG-0.27  OA
BRANCH 8 10
ATOM     10  CA  ARG C   2      57.204  31.484  37.614  1.00 19.03 LIG 0.18  C 
BRANCH 10 11
ATOM     11  CB  ARG C   2      57.978  32.806  37.567  1.00 20.38 LIG 0.04  C 
BRANCH 11 12
ATOM     12  CG  ARG C   2      57.261  33.978  38.147  1.00 20.75 LIG 0.02  C 
BRANCH 12 13
ATOM     13  CD  ARG C   2      56.237  34.474  37.226  1.00 22.55 LIG 0.14  C 
BRANCH 13 14
ATOM     14  NE  ARG C   2      55.288  35.340  37.873  1.00 20.36 LIG-0.23  N 
ATOM     15  CZ  ARG C   2      54.859  36.480  37.374  1.00 23.11 LIG 0.67  C 
ATOM     16  NH1 ARG C   2      55.179  36.834  36.179  1.00 23.20 LIG-0.23  N 
ATOM     17  NH2 ARG C   2      54.002  37.221  38.087  1.00 25.55 LIG-0.23  N 
ATOM     18 1HH1 ARG C   2      55.678  36.325  35.699  1.00 23.20 LIG 0.17  HD
ATOM     19 2HH1 ARG C   2      54.894  37.581  35.861  1.00 23.20 LIG 0.17  HD
ATOM     20 2HH2 ARG C   2      53.714  37.968  37.772  1.00 25.55 LIG 0.17  HD
ATOM     21 1HH2 ARG C   2      53.739  36.951  38.860  1.00 25.55 LIG 0.17  HD
ATOM     22 HE   ARG C   2      54.981  35.096  38.637  1.00 20.36 LIG 0.18  HD
ENDBRANCH 13 14
ENDBRANCH 12 13
ENDBRANCH 11 12
ENDBRANCH 10 11
BRANCH 10 23
ATOM     23  N   ARG C   2      57.083  31.007  39.002  1.00 19.42 LIG-0.35  N 
ATOM     24  C   ASP C   1      56.037  30.277  39.360  1.00 19.51 LIG 0.25  C 
ATOM     25 O    ASP C   1      55.264  29.773  38.528  1.00 19.29 LIG-0.27  OA
ATOM     26 H    ARG C   2      57.724  31.238  39.527  1.00 19.42 LIG 0.16  HD
BRANCH 24 27
ATOM     27  CA  ASP C   1      55.776  30.082  40.844  1.00 19.04 LIG 0.28  C 
BRANCH 27 28
ATOM     28  CB  ASP C   1      56.326  28.745  41.270  1.00 21.34 LIG 0.15  C 
BRANCH 28 29
ATOM     29  CG  ASP C   1      57.876  28.721  41.262  1.00 23.67 LIG 0.17  C 
ATOM     30 OD2  ASP C   1      58.470  28.953  42.350  1.00 27.41 LIG-0.65  OA
ATOM     31 OD1  ASP C   1      58.502  28.501  40.174  1.00 20.87 LIG-0.65  OA
ENDBRANCH 28 29
ENDBRANCH 27 28
BRANCH 27 32
ATOM     32  N   ASP C   1      54.283  30.138  41.050  1.00 18.38 LIG-0.07  N 
ATOM     33 H1   ASP C   1      54.076  29.756  41.826  1.00 18.38 LIG 0.28  HD
ATOM     34 H3   ASP C   1      53.876  29.705  40.388  1.00 18.38 LIG 0.28  HD
ATOM     35 H2   ASP C   1      54.015  30.987  41.056  1.00 18.38 LIG 0.28  HD
ENDBRANCH 27 32
ENDBRANCH 24 27
ENDBRANCH 10 23
ENDBRANCH 8 10
ENDBRANCH 5 6
BRANCH 5 36
ATOM     36  CB  VAL C   3      58.464  26.809  36.896  1.00 17.74 LIG 0.01  C 
ATOM     37  CG1 VAL C   3      57.252  26.489  37.744  1.00 20.72 LIG 0.01  C 
ATOM     38  CG2 VAL C   3      58.642  25.678  35.899  1.00 18.64 LIG 0.01  C 
ENDBRANCH 5 36
ENDBRANCH 1 5
BRANCH 3 39
ATOM     39  CA  TYR C   4      56.955  27.565  32.644  1.00 17.90 LIG 0.18  C 
BRANCH 39 40
ATOM     40  CB  TYR C   4      56.371  26.186  32.650  1.00 20.19 LIG 0.07  C 
BRANCH 40 41
ATOM     41  CG  TYR C   4      55.266  25.940  33.643  1.00 23.00 LIG-0.06  A 
ATOM     42  CD2 TYR C   4      55.457  25.065  34.713  1.00 26.62 LIG 0.01  A 
ATOM     43  CE2 TYR C   4      54.456  24.820  35.632  1.00 28.63 LIG 0.04  A 
ATOM     44  CZ  TYR C   4      53.255  25.444  35.486  1.00 25.42 LIG 0.07  A 
ATOM     45  CE1 TYR C   4      53.047  26.332  34.486  1.00 26.89 LIG 0.04  A 
ATOM     46  CD1 TYR C   4      54.063  26.579  33.551  1.00 24.41 LIG 0.01  A 
BRANCH 44 47
ATOM     47 OH   TYR C   4      52.270  25.205  36.399  1.00 32.39 LIG-0.36  OA
ATOM     48 HH   TYR C   4      51.527  25.170  36.008  1.00 32.39 LIG 0.22  HD
ENDBRANCH 44 47
ENDBRANCH 40 41
ENDBRANCH 39 40
BRANCH 39 49
ATOM     49  C   TYR C   4      55.856  28.658  32.515  1.00 20.63 LIG 0.24  C 
ATOM     50 O    TYR C   4      55.597  29.392  33.428  1.00 19.73 LIG-0.27  OA
ATOM     51  N   ILE C   5      55.318  28.815  31.314  1.00 22.91 LIG-0.35  N 
ATOM     52 H    ILE C   5      55.569  28.386  30.612  1.00 22.91 LIG 0.16  HD
BRANCH 51 53
ATOM     53  CA  ILE C   5      54.231  29.753  31.095  1.00 27.58 LIG 0.18  C 
BRANCH 53 54
ATOM     54  C   ILE C   5      52.955  28.986  30.753  1.00 33.14 LIG 0.24  C 
ATOM     55  N   HIS C   6      52.927  27.681  31.052  1.00 39.14 LIG-0.35  N 
ATOM     56 H    HIS C   6      53.609  27.259  31.365  1.00 39.14 LIG 0.16  HD
ATOM     57 O    ILE C   5      52.073  29.574  30.133  1.00 25.88 LIG-0.27  OA
BRANCH 55 58
ATOM     58  CA  HIS C   6      51.711  26.808  30.878  1.00 56.87 LIG 0.17  C 
BRANCH 58 59
ATOM     59  CB  HIS C   6      52.108  25.303  30.873  1.00 66.39 LIG 0.09  C 
BRANCH 59 60
ATOM     60  CG  HIS C   6      53.533  25.032  30.478  1.00 78.50 LIG 0.06  A 
ATOM     61  CD2 HIS C   6      54.361  24.012  30.816  1.00 82.71 LIG 0.14  A 
ATOM     62 NE2  HIS C   6      55.547  24.207  30.145  1.00 84.02 LIG-0.25  NA
ATOM     63  CE1 HIS C   6      55.446  25.297  29.402  1.00 85.20 LIG 0.23  A 
ATOM     64 ND1  HIS C   6      54.239  25.811  29.579  1.00 88.66 LIG-0.24  NA
ENDBRANCH 59 60
ENDBRANCH 58 59
BRANCH 58 65
ATOM     65  C   HIS C   6      50.569  26.977  31.890  1.00 59.18 LIG 0.22  C 
ATOM     66 O    HIS C   6      50.376  28.085  32.458  1.00 63.69 LIG-0.29  OA
ENDBRANCH 58 65
ENDBRANCH 55 58
ENDBRANCH 53 54
BRANCH 53 67
ATOM     67  CB  ILE C   5      54.613  30.742  30.001  1.00 28.54 LIG 0.01  C 
ATOM     68  CG2 ILE C   5      54.515  32.156  30.569  1.00 32.34 LIG 0.01  C 
BRANCH 67 69
ATOM     69  CG1 ILE C   5      56.012  30.345  29.500  1.00 30.21 LIG 0.00  C 
ATOM     70  CD1 ILE C   5      56.060  29.417  28.312  1.00 32.85 LIG 0.01  C 
ENDBRANCH 67 69
ENDBRANCH 53 67
ENDBRANCH 51 53
ENDBRANCH 39 49
ENDBRANCH 3 39
TORSDOF 26
ENDMDL
