MODEL 1
USER: ADFR SOLUTION from run 44
USER: SCORE 20.438130 LL:  -3.005 LR: -20.758 RR:   0.000 FEB: -12.107
USER: RMSD 3.701098
USER: SEED 43
USER: STATUS no improvement in best in 8 clusters for 5 generations
USER: GENES 31
USER: genes 0 Translation |==|  0.53464 0.55937 0.46463
USER: genes 1 Rotation |==|  0.53068 0.40783 0.56649 0.98595
USER: genes 2 Torsion [N]-CA--C-[N] |==|  0.27838
USER: genes 3 Torsion [C]-N--CA-[CB] |==|  0.44779
USER: genes 4 Torsion [N]-CA--CB-[OG] |==|  0.88676
USER: genes 5 Torsion [CA]-CB--OG-[HG] |==|  0.80674
USER: genes 6 Torsion [N]-CA--C-[N] |==|  0.43635
USER: genes 7 Torsion [C]-N--CA-[CB] |==|  0.33966
USER: genes 8 Torsion [N]-CA--CB-[CG] |==|  0.55766
USER: genes 9 Torsion [CA]-CB--CG-[CD2] |==|  0.47085
USER: genes 10 Torsion [N]-CA--C-[N] |==|  0.11936
USER: genes 11 Torsion [C]-N--CA-[CB] |==|  0.32055
USER: genes 12 Torsion [N]-CA--CB-[OG] |==|  0.93741
USER: genes 13 Torsion [CA]-CB--OG-[HG] |==|  0.66797
USER: genes 14 Torsion [N]-CA--C-[O] |==|  0.87012
USER: genes 15 Torsion [C]-CA--CB-[CG] |==|  0.39089
USER: genes 16 Torsion [CA]-CB--CG-[CD] |==|  0.66369
USER: genes 17 Torsion [CB]-CG--CD-[NE] |==|  0.71399
USER: genes 18 Torsion [CG]-CD--NE-[CZ] |==|  0.28211
USER: genes 19 Torsion [C]-CA--N-[C] |==|  0.77778
USER: genes 20 Torsion [N]-C--CA-[N] |==|  0.50106
USER: genes 21 Torsion [C]-CA--CB-[CG] |==|  0.47763
USER: genes 22 Torsion [CA]-CB--CG-[CD] |==|  0.26599
USER: genes 23 Torsion [CB]-CG--CD-[CE] |==|  0.56875
USER: genes 24 Torsion [CG]-CD--CE-[NZ] |==|  0.60795
USER: genes 25 Torsion [CD]-CE--NZ-[HZ2] |==|  0.86069
USER: genes 26 Torsion [C]-CA--N-[C] |==|  0.60240
USER: genes 27 Torsion [N]-C--CA-[N] |==|  0.05861
USER: genes 28 Torsion [C]-CA--CB-[CG] |==|  0.66985
USER: genes 29 Torsion [CA]-CB--CG-[CD] |==|  0.47025
USER: genes 30 Torsion [CB]-CG--CD-[OE1] |==|  0.38740
ROOT
ATOM      1  CA  ARG C 843       1.020   5.932   8.347  1.00 48.28 LIG 0.18  C 
ENDROOT
BRANCH 1 2
ATOM      2  C   ARG C 843       0.837   4.566   9.000  1.00 51.26 LIG 0.24  C 
ATOM      3  N   SER C 844       1.387   3.517   8.365  1.00 48.21 LIG-0.34  N 
ATOM      4 H    SER C 844       1.805   3.584   7.617  1.00 48.21 LIG 0.16  HD
ATOM      5 O    ARG C 843       0.199   4.464  10.053  1.00 49.46 LIG-0.27  OA
BRANCH 3 6
ATOM      6  CA  SER C 844       1.326   2.149   8.889  1.00 48.58 LIG 0.20  C 
BRANCH 6 7
ATOM      7  CB  SER C 844       1.604   1.131   7.783  1.00 52.82 LIG 0.20  C 
BRANCH 7 8
ATOM      8 OG   SER C 844       0.980   1.477   6.555  1.00 64.87 LIG-0.40  OA
ATOM      9 HG   SER C 844       0.148   1.390   6.630  1.00 64.87 LIG 0.21  HD
ENDBRANCH 7 8
ENDBRANCH 6 7
BRANCH 6 10
ATOM     10  C   SER C 844       2.319   1.968  10.041  1.00 51.88 LIG 0.24  C 
ATOM     11  N   PHE C 845       2.066   0.975  10.913  1.00 48.65 LIG-0.35  N 
ATOM     12 H    PHE C 845       1.365   0.479  10.870  1.00 48.65 LIG 0.16  HD
ATOM     13 O    SER C 844       3.289   2.726  10.142  1.00 50.80 LIG-0.27  OA
BRANCH 11 14
ATOM     14  CA  PHE C 845       2.957   0.636  12.024  1.00 48.60 LIG 0.18  C 
BRANCH 14 15
ATOM     15  CB  PHE C 845       2.229   0.723  13.388  1.00 50.69 LIG 0.07  C 
BRANCH 15 16
ATOM     16  CG  PHE C 845       3.053   0.879  14.658  1.00 53.32 LIG-0.06  A 
ATOM     17  CD2 PHE C 845       2.440   1.177  15.869  1.00 56.28 LIG 0.01  A 
ATOM     18  CE2 PHE C 845       3.192   1.322  17.043  1.00 59.52 LIG 0.00  A 
ATOM     19  CZ  PHE C 845       4.559   1.210  17.003  1.00 57.95 LIG 0.00  A 
ATOM     20  CE1 PHE C 845       5.191   0.929  15.808  1.00 59.50 LIG 0.00  A 
ATOM     21  CD1 PHE C 845       4.440   0.781  14.633  1.00 58.05 LIG 0.01  A 
ENDBRANCH 15 16
ENDBRANCH 14 15
BRANCH 14 22
ATOM     22  C   PHE C 845       3.525  -0.760  11.739  1.00 51.55 LIG 0.24  C 
ATOM     23 O    PHE C 845       3.555  -1.624  12.624  1.00 49.31 LIG-0.27  OA
ATOM     24  N   SER C 846       3.911  -0.984  10.469  1.00 48.84 LIG-0.34  N 
ATOM     25 H    SER C 846       3.854  -0.383   9.856  1.00 48.84 LIG 0.16  HD
BRANCH 24 26
ATOM     26  CA  SER C 846       4.464  -2.248   9.983  1.00 80.27 LIG 0.19  C 
BRANCH 26 27
ATOM     27  CB  SER C 846       3.530  -2.877   8.955  1.00 83.79 LIG 0.20  C 
BRANCH 27 28
ATOM     28 OG   SER C 846       2.201  -2.400   9.102  1.00 92.96 LIG-0.40  OA
ATOM     29 HG   SER C 846       1.689  -3.045   9.270  1.00 92.96 LIG 0.21  HD
ENDBRANCH 27 28
ENDBRANCH 26 27
BRANCH 26 30
ATOM     30  C   SER C 846       5.845  -2.036   9.379  1.00107.57 LIG 0.22  C 
ATOM     31 O    SER C 846       6.032  -1.112   8.590  1.00 73.66 LIG-0.29  OA
ENDBRANCH 26 30
ENDBRANCH 24 26
ENDBRANCH 14 22
ENDBRANCH 11 14
ENDBRANCH 6 10
ENDBRANCH 3 6
ENDBRANCH 1 2
BRANCH 1 32
ATOM     32  CB  ARG C 843       1.400   6.993   9.420  1.00 50.74 LIG 0.04  C 
BRANCH 32 33
ATOM     33  CG  ARG C 843       2.455   8.011   8.960  1.00 63.97 LIG 0.02  C 
BRANCH 33 34
ATOM     34  CD  ARG C 843       3.704   8.027   9.811  1.00 82.46 LIG 0.14  C 
BRANCH 34 35
ATOM     35  NE  ARG C 843       3.698   9.177  10.711  1.00 98.18 LIG-0.23  N 
ATOM     36 HE   ARG C 843       3.910   9.943  10.383  1.00 98.18 LIG 0.18  HD
ATOM     37  CZ  ARG C 843       3.388   9.121  12.002  1.00115.63 LIG 0.67  C 
ATOM     38  NH2 ARG C 843       3.384  10.222  12.736  1.00101.74 LIG-0.23  N 
ATOM     39  NH1 ARG C 843       3.090   7.958  12.571  1.00105.44 LIG-0.23  N 
ATOM     40 1HH2 ARG C 843       3.581  10.978  12.379  1.00101.74 LIG 0.17  HD
ATOM     41 2HH2 ARG C 843       3.182  10.181  13.571  1.00101.74 LIG 0.17  HD
ATOM     42 1HH1 ARG C 843       3.096   7.236  12.104  1.00105.44 LIG 0.17  HD
ATOM     43 2HH1 ARG C 843       2.890   7.927  13.407  1.00105.44 LIG 0.17  HD
ENDBRANCH 34 35
ENDBRANCH 33 34
ENDBRANCH 32 33
ENDBRANCH 1 32
BRANCH 1 44
ATOM     44  N   ARG C 843      -0.189   6.322   7.609  1.00 47.52 LIG-0.35  N 
ATOM     45  C   LYS C 842      -0.464   5.851   6.385  1.00 51.06 LIG 0.24  C 
ATOM     46 O    LYS C 842       0.265   5.052   5.790  1.00 51.08 LIG-0.27  OA
ATOM     47 H    ARG C 843      -0.696   6.873   8.032  1.00 47.52 LIG 0.16  HD
BRANCH 45 48
ATOM     48  CA  LYS C 842      -1.737   6.345   5.718  1.00 46.69 LIG 0.18  C 
BRANCH 48 49
ATOM     49  CB  LYS C 842      -2.953   6.056   6.618  1.00 47.71 LIG 0.04  C 
BRANCH 49 50
ATOM     50  CG  LYS C 842      -4.254   6.678   6.139  1.00 50.03 LIG 0.00  C 
BRANCH 50 51
ATOM     51  CD  LYS C 842      -5.058   5.674   5.331  1.00 53.65 LIG 0.03  C 
BRANCH 51 52
ATOM     52  CE  LYS C 842      -5.990   6.372   4.376  1.00 52.95 LIG 0.23  C 
BRANCH 52 53
ATOM     53  NZ  LYS C 842      -7.303   5.694   4.273  1.00 44.67 LIG-0.08  N 
ATOM     54 HZ3  LYS C 842      -7.752   5.799   5.033  1.00 44.67 LIG 0.27  HD
ATOM     55 HZ2  LYS C 842      -7.178   4.826   4.122  1.00 44.67 LIG 0.27  HD
ATOM     56 HZ1  LYS C 842      -7.768   6.048   3.602  1.00 44.67 LIG 0.27  HD
ENDBRANCH 52 53
ENDBRANCH 51 52
ENDBRANCH 50 51
ENDBRANCH 49 50
ENDBRANCH 48 49
BRANCH 48 57
ATOM     57  N   LYS C 842      -1.876   5.723   4.403  1.00 47.24 LIG-0.35  N 
ATOM     58 H    LYS C 842      -1.608   4.906   4.388  1.00 47.24 LIG 0.16  HD
ATOM     59  C   GLN C 841      -2.368   6.338   3.317  1.00 52.93 LIG 0.26  C 
ATOM     60 O    GLN C 841      -2.804   7.493   3.330  1.00 51.68 LIG-0.27  OA
BRANCH 59 61
ATOM     61  CA  GLN C 841      -2.424   5.506   2.032  1.00 52.44 LIG 0.40  C 
ATOM     62  N   GLN C 841      -2.397   4.080   2.359  1.00 53.67 LIG 0.61  N 
BRANCH 61 63
ATOM     63  CB  GLN C 841      -3.679   5.857   1.200  1.00 53.85 LIG 0.06  C 
BRANCH 63 64
ATOM     64  CG  GLN C 841      -4.656   4.693   0.972  1.00 74.06 LIG 0.10  C 
BRANCH 64 65
ATOM     65  CD  GLN C 841      -5.997   5.090   0.381  1.00 99.82 LIG 0.21  C 
ATOM     66 OE1  GLN C 841      -6.561   4.412  -0.490  1.00 97.42 LIG-0.27  OA
ATOM     67  NE2 GLN C 841      -6.561   6.179   0.883  1.00 91.89 LIG-0.37  N 
ATOM     68 22HE GLN C 841      -7.335   6.429   0.605  1.00 91.89 LIG 0.16  HD
ATOM     69 21HE GLN C 841      -6.153   6.635   1.487  1.00 91.89 LIG 0.16  HD
ENDBRANCH 64 65
ENDBRANCH 63 64
ENDBRANCH 61 63
ENDBRANCH 59 61
ENDBRANCH 48 57
ENDBRANCH 45 48
ENDBRANCH 1 44
TORSDOF 29
ENDMDL
MODEL 2
USER: ADFR SOLUTION from run 74
USER: SCORE 21.155664 LL:  -2.643 LR: -20.597 RR:   0.000 FEB: -11.946
USER: RMSD 3.311911
USER: SEED 73
USER: STATUS no improvement in best in 6 clusters for 5 generations
USER: GENES 31
USER: genes 0 Translation |==|  0.54915 0.54230 0.46047
USER: genes 1 Rotation |==|  0.45158 0.52802 0.45709 0.99500
USER: genes 2 Torsion [N]-CA--C-[N] |==|  0.46820
USER: genes 3 Torsion [C]-N--CA-[CB] |==|  0.17028
USER: genes 4 Torsion [N]-CA--CB-[OG] |==|  0.19554
USER: genes 5 Torsion [CA]-CB--OG-[HG] |==|  0.71675
USER: genes 6 Torsion [N]-CA--C-[N] |==|  0.63028
USER: genes 7 Torsion [C]-N--CA-[CB] |==|  0.28636
USER: genes 8 Torsion [N]-CA--CB-[CG] |==|  0.91426
USER: genes 9 Torsion [CA]-CB--CG-[CD2] |==|  0.64929
USER: genes 10 Torsion [N]-CA--C-[N] |==|  0.98126
USER: genes 11 Torsion [C]-N--CA-[CB] |==|  0.49365
USER: genes 12 Torsion [N]-CA--CB-[OG] |==|  0.57020
USER: genes 13 Torsion [CA]-CB--OG-[HG] |==|  0.18443
USER: genes 14 Torsion [N]-CA--C-[O] |==|  0.32059
USER: genes 15 Torsion [C]-CA--CB-[CG] |==|  0.77217
USER: genes 16 Torsion [CA]-CB--CG-[CD] |==|  0.50042
USER: genes 17 Torsion [CB]-CG--CD-[NE] |==|  0.76743
USER: genes 18 Torsion [CG]-CD--NE-[CZ] |==|  0.76131
USER: genes 19 Torsion [C]-CA--N-[C] |==|  0.59755
USER: genes 20 Torsion [N]-C--CA-[N] |==|  0.35017
USER: genes 21 Torsion [C]-CA--CB-[CG] |==|  0.43622
USER: genes 22 Torsion [CA]-CB--CG-[CD] |==|  0.56143
USER: genes 23 Torsion [CB]-CG--CD-[CE] |==|  0.68690
USER: genes 24 Torsion [CG]-CD--CE-[NZ] |==|  0.57358
USER: genes 25 Torsion [CD]-CE--NZ-[HZ2] |==|  0.82356
USER: genes 26 Torsion [C]-CA--N-[C] |==|  0.63161
USER: genes 27 Torsion [N]-C--CA-[N] |==|  0.20596
USER: genes 28 Torsion [C]-CA--CB-[CG] |==|  0.31047
USER: genes 29 Torsion [CA]-CB--CG-[CD] |==|  0.47441
USER: genes 30 Torsion [CB]-CG--CD-[OE1] |==|  0.89718
ROOT
ATOM      1  CA  ARG C 843       1.369   5.535   8.241  1.00 48.28 LIG 0.18  C 
ENDROOT
BRANCH 1 2
ATOM      2  C   ARG C 843       1.053   4.573   9.381  1.00 51.26 LIG 0.24  C 
ATOM      3  N   SER C 844       1.964   3.617   9.631  1.00 48.21 LIG-0.34  N 
ATOM      4 H    SER C 844       2.684   3.518   9.171  1.00 48.21 LIG 0.16  HD
ATOM      5 O    ARG C 843      -0.001   4.688  10.015  1.00 49.46 LIG-0.27  OA
BRANCH 3 6
ATOM      6  CA  SER C 844       1.818   2.643  10.718  1.00 48.58 LIG 0.20  C 
BRANCH 6 7
ATOM      7  CB  SER C 844       0.563   1.792  10.519  1.00 52.82 LIG 0.20  C 
BRANCH 7 8
ATOM      8 OG   SER C 844       0.685   0.888   9.430  1.00 64.87 LIG-0.40  OA
ATOM      9 HG   SER C 844       0.269   1.191   8.767  1.00 64.87 LIG 0.21  HD
ENDBRANCH 7 8
ENDBRANCH 6 7
BRANCH 6 10
ATOM     10  C   SER C 844       3.058   1.749  10.810  1.00 51.88 LIG 0.24  C 
ATOM     11  N   PHE C 845       2.848   0.425  10.920  1.00 48.65 LIG-0.35  N 
ATOM     12 H    PHE C 845       2.063   0.077  10.979  1.00 48.65 LIG 0.16  HD
ATOM     13 O    SER C 844       4.184   2.256  10.795  1.00 50.80 LIG-0.27  OA
BRANCH 11 14
ATOM     14  CA  PHE C 845       3.930  -0.560  10.950  1.00 48.60 LIG 0.18  C 
BRANCH 14 15
ATOM     15  CB  PHE C 845       4.192  -1.079  12.386  1.00 50.69 LIG 0.07  C 
BRANCH 15 16
ATOM     16  CG  PHE C 845       3.939  -0.152  13.565  1.00 53.32 LIG-0.06  A 
ATOM     17  CD2 PHE C 845       4.932   0.085  14.508  1.00 56.28 LIG 0.01  A 
ATOM     18  CE2 PHE C 845       4.706   0.938  15.597  1.00 59.52 LIG 0.00  A 
ATOM     19  CZ  PHE C 845       3.477   1.525  15.768  1.00 57.95 LIG 0.00  A 
ATOM     20  CE1 PHE C 845       2.471   1.292  14.852  1.00 59.50 LIG 0.00  A 
ATOM     21  CD1 PHE C 845       2.696   0.441  13.760  1.00 58.05 LIG 0.01  A 
ENDBRANCH 15 16
ENDBRANCH 14 15
BRANCH 14 22
ATOM     22  C   PHE C 845       3.552  -1.679   9.972  1.00 51.55 LIG 0.24  C 
ATOM     23 O    PHE C 845       4.328  -2.617   9.751  1.00 49.31 LIG-0.27  OA
ATOM     24  N   SER C 846       2.317  -1.597   9.443  1.00 48.84 LIG-0.34  N 
ATOM     25 H    SER C 846       1.775  -0.955   9.631  1.00 48.84 LIG 0.16  HD
BRANCH 24 26
ATOM     26  CA  SER C 846       1.753  -2.566   8.503  1.00 80.27 LIG 0.19  C 
BRANCH 26 27
ATOM     27  CB  SER C 846       0.316  -2.193   8.153  1.00 83.79 LIG 0.20  C 
BRANCH 27 28
ATOM     28 OG   SER C 846      -0.431  -3.330   7.750  1.00 92.96 LIG-0.40  OA
ATOM     29 HG   SER C 846      -0.520  -3.853   8.402  1.00 92.96 LIG 0.21  HD
ENDBRANCH 27 28
ENDBRANCH 26 27
BRANCH 26 30
ATOM     30  C   SER C 846       2.598  -2.646   7.239  1.00107.57 LIG 0.22  C 
ATOM     31 O    SER C 846       3.184  -3.689   6.960  1.00 73.66 LIG-0.29  OA
ENDBRANCH 26 30
ENDBRANCH 24 26
ENDBRANCH 14 22
ENDBRANCH 11 14
ENDBRANCH 6 10
ENDBRANCH 3 6
ENDBRANCH 1 2
BRANCH 1 32
ATOM     32  CB  ARG C 843       2.584   6.431   8.615  1.00 50.74 LIG 0.04  C 
BRANCH 32 33
ATOM     33  CG  ARG C 843       2.234   7.643   9.492  1.00 63.97 LIG 0.02  C 
BRANCH 33 34
ATOM     34  CD  ARG C 843       3.422   8.507   9.845  1.00 82.46 LIG 0.14  C 
BRANCH 34 35
ATOM     35  NE  ARG C 843       4.127   7.964  11.004  1.00 98.18 LIG-0.23  N 
ATOM     36 HE   ARG C 843       4.794   7.442  10.857  1.00 98.18 LIG 0.18  HD
ATOM     37  CZ  ARG C 843       3.808   8.222  12.267  1.00115.63 LIG 0.67  C 
ATOM     38  NH2 ARG C 843       4.522   7.706  13.255  1.00101.74 LIG-0.23  N 
ATOM     39  NH1 ARG C 843       2.763   8.992  12.553  1.00105.44 LIG-0.23  N 
ATOM     40 1HH2 ARG C 843       5.196   7.201  13.081  1.00101.74 LIG 0.17  HD
ATOM     41 2HH2 ARG C 843       4.312   7.875  14.072  1.00101.74 LIG 0.17  HD
ATOM     42 1HH1 ARG C 843       2.289   9.326  11.919  1.00105.44 LIG 0.17  HD
ATOM     43 2HH1 ARG C 843       2.561   9.155  13.373  1.00105.44 LIG 0.17  HD
ENDBRANCH 34 35
ENDBRANCH 33 34
ENDBRANCH 32 33
ENDBRANCH 1 32
BRANCH 1 44
ATOM     44  N   ARG C 843       0.189   6.343   7.902  1.00 47.52 LIG-0.35  N 
ATOM     45  C   LYS C 842      -0.085   6.718   6.644  1.00 51.06 LIG 0.24  C 
ATOM     46 O    LYS C 842       0.620   6.409   5.680  1.00 51.08 LIG-0.27  OA
ATOM     47 H    ARG C 843      -0.302   6.549   8.577  1.00 47.52 LIG 0.16  HD
BRANCH 45 48
ATOM     48  CA  LYS C 842      -1.325   7.568   6.426  1.00 46.69 LIG 0.18  C 
BRANCH 48 49
ATOM     49  CB  LYS C 842      -2.400   6.757   5.678  1.00 47.71 LIG 0.04  C 
BRANCH 49 50
ATOM     50  CG  LYS C 842      -3.820   7.259   5.875  1.00 50.03 LIG 0.00  C 
BRANCH 50 51
ATOM     51  CD  LYS C 842      -4.820   6.151   5.588  1.00 53.65 LIG 0.03  C 
BRANCH 51 52
ATOM     52  CE  LYS C 842      -5.628   6.460   4.354  1.00 52.95 LIG 0.23  C 
BRANCH 52 53
ATOM     53  NZ  LYS C 842      -6.957   5.809   4.374  1.00 44.67 LIG-0.08  N 
ATOM     54 HZ3  LYS C 842      -7.397   6.052   5.108  1.00 44.67 LIG 0.27  HD
ATOM     55 HZ2  LYS C 842      -6.855   4.924   4.370  1.00 44.67 LIG 0.27  HD
ATOM     56 HZ1  LYS C 842      -7.421   6.057   3.655  1.00 44.67 LIG 0.27  HD
ENDBRANCH 52 53
ENDBRANCH 51 52
ENDBRANCH 50 51
ENDBRANCH 49 50
ENDBRANCH 48 49
BRANCH 48 57
ATOM     57  N   LYS C 842      -0.965   8.786   5.703  1.00 47.24 LIG-0.35  N 
ATOM     58 H    LYS C 842      -0.468   8.635   5.018  1.00 47.24 LIG 0.16  HD
ATOM     59  C   GLN C 841      -1.355  10.022   6.049  1.00 52.93 LIG 0.26  C 
ATOM     60 O    GLN C 841      -2.109  10.254   6.999  1.00 51.68 LIG-0.27  OA
BRANCH 59 61
ATOM     61  CA  GLN C 841      -0.862  11.165   5.157  1.00 52.44 LIG 0.40  C 
ATOM     62  N   GLN C 841      -1.596  11.163   3.891  1.00 53.67 LIG 0.61  N 
BRANCH 61 63
ATOM     63  CB  GLN C 841      -1.003  12.527   5.874  1.00 53.85 LIG 0.06  C 
BRANCH 63 64
ATOM     64  CG  GLN C 841       0.324  13.206   6.249  1.00 74.06 LIG 0.10  C 
BRANCH 64 65
ATOM     65  CD  GLN C 841       0.193  14.632   6.752  1.00 99.82 LIG 0.21  C 
ATOM     66 OE1  GLN C 841      -0.637  15.424   6.281  1.00 97.42 LIG-0.27  OA
ATOM     67  NE2 GLN C 841       0.984  14.976   7.758  1.00 91.89 LIG-0.37  N 
ATOM     68 22HE GLN C 841       0.927  15.763   8.099  1.00 91.89 LIG 0.16  HD
ATOM     69 21HE GLN C 841       1.554  14.412   8.070  1.00 91.89 LIG 0.16  HD
ENDBRANCH 64 65
ENDBRANCH 63 64
ENDBRANCH 61 63
ENDBRANCH 59 61
ENDBRANCH 48 57
ENDBRANCH 45 48
ENDBRANCH 1 44
TORSDOF 29
ENDMDL
MODEL 3
USER: ADFR SOLUTION from run 74
USER: SCORE 20.416833 LL:  -2.716 LR: -20.436 RR:   0.000 FEB: -11.786
USER: RMSD 1.952415
USER: SEED 73
USER: STATUS no improvement in best in 6 clusters for 5 generations
USER: GENES 31
USER: genes 0 Translation |==|  0.53975 0.53487 0.45085
USER: genes 1 Rotation |==|  0.49789 0.53188 0.48363 0.99871
USER: genes 2 Torsion [N]-CA--C-[N] |==|  0.36409
USER: genes 3 Torsion [C]-N--CA-[CB] |==|  0.46118
USER: genes 4 Torsion [N]-CA--CB-[OG] |==|  0.67266
USER: genes 5 Torsion [CA]-CB--OG-[HG] |==|  0.01833
USER: genes 6 Torsion [N]-CA--C-[N] |==|  0.50824
USER: genes 7 Torsion [C]-N--CA-[CB] |==|  0.27521
USER: genes 8 Torsion [N]-CA--CB-[CG] |==|  0.51663
USER: genes 9 Torsion [CA]-CB--CG-[CD2] |==|  0.48946
USER: genes 10 Torsion [N]-CA--C-[N] |==|  0.29168
USER: genes 11 Torsion [C]-N--CA-[CB] |==|  0.42362
USER: genes 12 Torsion [N]-CA--CB-[OG] |==|  0.65807
USER: genes 13 Torsion [CA]-CB--OG-[HG] |==|  0.92864
USER: genes 14 Torsion [N]-CA--C-[O] |==|  0.19613
USER: genes 15 Torsion [C]-CA--CB-[CG] |==|  0.76523
USER: genes 16 Torsion [CA]-CB--CG-[CD] |==|  0.54752
USER: genes 17 Torsion [CB]-CG--CD-[NE] |==|  0.75131
USER: genes 18 Torsion [CG]-CD--NE-[CZ] |==|  0.77366
USER: genes 19 Torsion [C]-CA--N-[C] |==|  0.63504
USER: genes 20 Torsion [N]-C--CA-[N] |==|  0.37033
USER: genes 21 Torsion [C]-CA--CB-[CG] |==|  0.52368
USER: genes 22 Torsion [CA]-CB--CG-[CD] |==|  0.51783
USER: genes 23 Torsion [CB]-CG--CD-[CE] |==|  0.69080
USER: genes 24 Torsion [CG]-CD--CE-[NZ] |==|  0.57886
USER: genes 25 Torsion [CD]-CE--NZ-[HZ2] |==|  0.82438
USER: genes 26 Torsion [C]-CA--N-[C] |==|  0.64416
USER: genes 27 Torsion [N]-C--CA-[N] |==|  0.36069
USER: genes 28 Torsion [C]-CA--CB-[CG] |==|  0.78348
USER: genes 29 Torsion [CA]-CB--CG-[CD] |==|  0.50088
USER: genes 30 Torsion [CB]-CG--CD-[OE1] |==|  0.95588
ROOT
ATOM      1  CA  ARG C 843       1.143   5.363   7.996  1.00 48.28 LIG 0.18  C 
ENDROOT
BRANCH 1 2
ATOM      2  C   ARG C 843       0.939   4.175   8.930  1.00 51.26 LIG 0.24  C 
ATOM      3  N   SER C 844       1.412   2.990   8.510  1.00 48.21 LIG-0.34  N 
ATOM      4 H    SER C 844       1.792   2.877   7.747  1.00 48.21 LIG 0.16  HD
ATOM      5 O    ARG C 843       0.354   4.329  10.008  1.00 49.46 LIG-0.27  OA
BRANCH 3 6
ATOM      6  CA  SER C 844       1.323   1.766   9.314  1.00 48.58 LIG 0.20  C 
BRANCH 6 7
ATOM      7  CB  SER C 844       1.619   0.533   8.460  1.00 52.82 LIG 0.20  C 
BRANCH 7 8
ATOM      8 OG   SER C 844       0.514  -0.355   8.384  1.00 64.87 LIG-0.40  OA
ATOM      9 HG   SER C 844      -0.153  -0.004   8.753  1.00 64.87 LIG 0.21  HD
ENDBRANCH 7 8
ENDBRANCH 6 7
BRANCH 6 10
ATOM     10  C   SER C 844       2.285   1.833  10.504  1.00 51.88 LIG 0.24  C 
ATOM     11  N   PHE C 845       2.352   0.747  11.295  1.00 48.65 LIG-0.35  N 
ATOM     12 H    PHE C 845       1.857   0.052  11.181  1.00 48.65 LIG 0.16  HD
ATOM     13 O    SER C 844       2.943   2.858  10.706  1.00 50.80 LIG-0.27  OA
BRANCH 11 14
ATOM     14  CA  PHE C 845       3.271   0.634  12.428  1.00 48.60 LIG 0.18  C 
BRANCH 14 15
ATOM     15  CB  PHE C 845       2.565   0.944  13.771  1.00 50.69 LIG 0.07  C 
BRANCH 15 16
ATOM     16  CG  PHE C 845       3.393   1.012  15.045  1.00 53.32 LIG-0.06  A 
ATOM     17  CD2 PHE C 845       2.807   1.364  16.255  1.00 56.28 LIG 0.01  A 
ATOM     18  CE2 PHE C 845       3.564   1.428  17.433  1.00 59.52 LIG 0.00  A 
ATOM     19  CZ  PHE C 845       4.913   1.179  17.399  1.00 57.95 LIG 0.00  A 
ATOM     20  CE1 PHE C 845       5.519   0.842  16.205  1.00 59.50 LIG 0.00  A 
ATOM     21  CD1 PHE C 845       4.763   0.774  15.026  1.00 58.05 LIG 0.01  A 
ENDBRANCH 15 16
ENDBRANCH 14 15
BRANCH 14 22
ATOM     22  C   PHE C 845       3.875  -0.775  12.384  1.00 51.55 LIG 0.24  C 
ATOM     23 O    PHE C 845       3.192  -1.765  12.671  1.00 49.31 LIG-0.27  OA
ATOM     24  N   SER C 846       5.148  -0.850  11.953  1.00 48.84 LIG-0.34  N 
ATOM     25 H    SER C 846       5.600  -0.154  11.725  1.00 48.84 LIG 0.16  HD
BRANCH 24 26
ATOM     26  CA  SER C 846       5.905  -2.095  11.821  1.00 80.27 LIG 0.19  C 
BRANCH 26 27
ATOM     27  CB  SER C 846       6.971  -1.957  10.738  1.00 83.79 LIG 0.20  C 
BRANCH 27 28
ATOM     28 OG   SER C 846       6.821  -2.948   9.735  1.00 92.96 LIG-0.40  OA
ATOM     29 HG   SER C 846       6.432  -3.619  10.059  1.00 92.96 LIG 0.21  HD
ENDBRANCH 27 28
ENDBRANCH 26 27
BRANCH 26 30
ATOM     30  C   SER C 846       6.548  -2.478  13.147  1.00107.57 LIG 0.22  C 
ATOM     31 O    SER C 846       5.847  -2.869  14.077  1.00 73.66 LIG-0.29  OA
ENDBRANCH 26 30
ENDBRANCH 24 26
ENDBRANCH 14 22
ENDBRANCH 11 14
ENDBRANCH 6 10
ENDBRANCH 3 6
ENDBRANCH 1 2
BRANCH 1 32
ATOM     32  CB  ARG C 843       2.277   6.282   8.535  1.00 50.74 LIG 0.04  C 
BRANCH 32 33
ATOM     33  CG  ARG C 843       1.818   7.306   9.584  1.00 63.97 LIG 0.02  C 
BRANCH 33 34
ATOM     34  CD  ARG C 843       2.794   8.440   9.800  1.00 82.46 LIG 0.14  C 
BRANCH 34 35
ATOM     35  NE  ARG C 843       3.756   8.099  10.844  1.00 98.18 LIG-0.23  N 
ATOM     36 HE   ARG C 843       4.528   7.811  10.598  1.00 98.18 LIG 0.18  HD
ATOM     37  CZ  ARG C 843       3.521   8.204  12.147  1.00115.63 LIG 0.67  C 
ATOM     38  NH2 ARG C 843       4.465   7.897  13.023  1.00101.74 LIG-0.23  N 
ATOM     39  NH1 ARG C 843       2.334   8.608  12.586  1.00105.44 LIG-0.23  N 
ATOM     40 1HH2 ARG C 843       5.235   7.629  12.750  1.00101.74 LIG 0.17  HD
ATOM     41 2HH2 ARG C 843       4.308   7.967  13.866  1.00101.74 LIG 0.17  HD
ATOM     42 1HH1 ARG C 843       1.712   8.804  12.025  1.00105.44 LIG 0.17  HD
ATOM     43 2HH1 ARG C 843       2.187   8.674  13.430  1.00105.44 LIG 0.17  HD
ENDBRANCH 34 35
ENDBRANCH 33 34
ENDBRANCH 32 33
ENDBRANCH 1 32
BRANCH 1 44
ATOM     44  N   ARG C 843      -0.113   6.104   7.817  1.00 47.52 LIG-0.35  N 
ATOM     45  C   LYS C 842      -0.571   6.456   6.607  1.00 51.06 LIG 0.24  C 
ATOM     46 O    LYS C 842       0.015   6.178   5.557  1.00 51.08 LIG-0.27  OA
ATOM     47 H    ARG C 843      -0.519   6.289   8.552  1.00 47.52 LIG 0.16  HD
BRANCH 45 48
ATOM     48  CA  LYS C 842      -1.873   7.238   6.556  1.00 46.69 LIG 0.18  C 
BRANCH 48 49
ATOM     49  CB  LYS C 842      -3.030   6.316   6.130  1.00 47.71 LIG 0.04  C 
BRANCH 49 50
ATOM     50  CG  LYS C 842      -4.339   7.034   5.849  1.00 50.03 LIG 0.00  C 
BRANCH 50 51
ATOM     51  CD  LYS C 842      -5.451   6.031   5.592  1.00 53.65 LIG 0.03  C 
BRANCH 51 52
ATOM     52  CE  LYS C 842      -5.894   6.073   4.152  1.00 52.95 LIG 0.23  C 
BRANCH 52 53
ATOM     53  NZ  LYS C 842      -7.311   5.677   3.987  1.00 44.67 LIG-0.08  N 
ATOM     54 HZ3  LYS C 842      -7.827   6.201   4.489  1.00 44.67 LIG 0.27  HD
ATOM     55 HZ2  LYS C 842      -7.415   4.830   4.242  1.00 44.67 LIG 0.27  HD
ATOM     56 HZ1  LYS C 842      -7.545   5.761   3.132  1.00 44.67 LIG 0.27  HD
ENDBRANCH 52 53
ENDBRANCH 51 52
ENDBRANCH 50 51
ENDBRANCH 49 50
ENDBRANCH 48 49
BRANCH 48 57
ATOM     57  N   LYS C 842      -1.727   8.377   5.652  1.00 47.24 LIG-0.35  N 
ATOM     58 H    LYS C 842      -1.425   8.155   4.879  1.00 47.24 LIG 0.16  HD
ATOM     59  C   GLN C 841      -2.025   9.646   5.970  1.00 52.93 LIG 0.26  C 
ATOM     60 O    GLN C 841      -2.506   9.978   7.058  1.00 51.68 LIG-0.27  OA
BRANCH 59 61
ATOM     61  CA  GLN C 841      -1.794  10.693   4.876  1.00 52.44 LIG 0.40  C 
ATOM     62  N   GLN C 841      -2.989  11.521   4.717  1.00 53.67 LIG 0.61  N 
BRANCH 61 63
ATOM     63  CB  GLN C 841      -0.558  11.564   5.196  1.00 53.85 LIG 0.06  C 
BRANCH 63 64
ATOM     64  CG  GLN C 841      -0.789  12.660   6.249  1.00 74.06 LIG 0.10  C 
BRANCH 64 65
ATOM     65  CD  GLN C 841       0.426  13.518   6.555  1.00 99.82 LIG 0.21  C 
ATOM     66 OE1  GLN C 841       1.572  13.180   6.227  1.00 97.42 LIG-0.27  OA
ATOM     67  NE2 GLN C 841       0.190  14.678   7.151  1.00 91.89 LIG-0.37  N 
ATOM     68 22HE GLN C 841       0.840  15.215   7.318  1.00 91.89 LIG 0.16  HD
ATOM     69 21HE GLN C 841      -0.613  14.894   7.371  1.00 91.89 LIG 0.16  HD
ENDBRANCH 64 65
ENDBRANCH 63 64
ENDBRANCH 61 63
ENDBRANCH 59 61
ENDBRANCH 48 57
ENDBRANCH 45 48
ENDBRANCH 1 44
TORSDOF 29
ENDMDL
MODEL 4
USER: ADFR SOLUTION from run 119
USER: SCORE 20.128539 LL:  -2.731 LR: -20.311 RR:   0.000 FEB: -11.660
USER: RMSD 2.592391
USER: SEED 118
USER: STATUS no improvement in best in 2 clusters for 5 generations
USER: GENES 31
USER: genes 0 Translation |==|  0.54544 0.56490 0.45585
USER: genes 1 Rotation |==|  0.53413 0.50900 0.49700 0.99874
USER: genes 2 Torsion [N]-CA--C-[N] |==|  0.33932
USER: genes 3 Torsion [C]-N--CA-[CB] |==|  0.46667
USER: genes 4 Torsion [N]-CA--CB-[OG] |==|  0.86756
USER: genes 5 Torsion [CA]-CB--OG-[HG] |==|  0.77355
USER: genes 6 Torsion [N]-CA--C-[N] |==|  0.45960
USER: genes 7 Torsion [C]-N--CA-[CB] |==|  0.32120
USER: genes 8 Torsion [N]-CA--CB-[CG] |==|  0.54650
USER: genes 9 Torsion [CA]-CB--CG-[CD2] |==|  0.46477
USER: genes 10 Torsion [N]-CA--C-[N] |==|  0.11930
USER: genes 11 Torsion [C]-N--CA-[CB] |==|  0.30927
USER: genes 12 Torsion [N]-CA--CB-[OG] |==|  0.91966
USER: genes 13 Torsion [CA]-CB--OG-[HG] |==|  0.55533
USER: genes 14 Torsion [N]-CA--C-[O] |==|  0.58771
USER: genes 15 Torsion [C]-CA--CB-[CG] |==|  0.84855
USER: genes 16 Torsion [CA]-CB--CG-[CD] |==|  0.58232
USER: genes 17 Torsion [CB]-CG--CD-[NE] |==|  0.63269
USER: genes 18 Torsion [CG]-CD--NE-[CZ] |==|  0.22505
USER: genes 19 Torsion [C]-CA--N-[C] |==|  0.65299
USER: genes 20 Torsion [N]-C--CA-[N] |==|  0.42365
USER: genes 21 Torsion [C]-CA--CB-[CG] |==|  0.58864
USER: genes 22 Torsion [CA]-CB--CG-[CD] |==|  0.47567
USER: genes 23 Torsion [CB]-CG--CD-[CE] |==|  0.60281
USER: genes 24 Torsion [CG]-CD--CE-[NZ] |==|  0.61482
USER: genes 25 Torsion [CD]-CE--NZ-[HZ2] |==|  0.84432
USER: genes 26 Torsion [C]-CA--N-[C] |==|  0.68764
USER: genes 27 Torsion [N]-C--CA-[N] |==|  0.91699
USER: genes 28 Torsion [C]-CA--CB-[CG] |==|  0.47469
USER: genes 29 Torsion [CA]-CB--CG-[CD] |==|  0.60410
USER: genes 30 Torsion [CB]-CG--CD-[OE1] |==|  0.06790
ROOT
ATOM      1  CA  ARG C 843       1.280   6.061   8.123  1.00 48.28 LIG 0.18  C 
ENDROOT
BRANCH 1 2
ATOM      2  C   ARG C 843       1.052   4.742   8.855  1.00 51.26 LIG 0.24  C 
ATOM      3  N   SER C 844       1.460   3.627   8.227  1.00 48.21 LIG-0.34  N 
ATOM      4 H    SER C 844       1.813   3.629   7.443  1.00 48.21 LIG 0.16  HD
ATOM      5 O    ARG C 843       0.505   4.736   9.963  1.00 49.46 LIG-0.27  OA
BRANCH 3 6
ATOM      6  CA  SER C 844       1.342   2.291   8.820  1.00 48.58 LIG 0.20  C 
BRANCH 6 7
ATOM      7  CB  SER C 844       1.608   1.208   7.773  1.00 52.82 LIG 0.20  C 
BRANCH 7 8
ATOM      8 OG   SER C 844       0.893   1.429   6.566  1.00 64.87 LIG-0.40  OA
ATOM      9 HG   SER C 844       0.105   1.153   6.653  1.00 64.87 LIG 0.21  HD
ENDBRANCH 7 8
ENDBRANCH 6 7
BRANCH 6 10
ATOM     10  C   SER C 844       2.305   2.138  10.000  1.00 51.88 LIG 0.24  C 
ATOM     11  N   PHE C 845       2.101   1.093  10.822  1.00 48.65 LIG-0.35  N 
ATOM     12 H    PHE C 845       1.442   0.546  10.732  1.00 48.65 LIG 0.16  HD
ATOM     13 O    SER C 844       3.209   2.963  10.168  1.00 50.80 LIG-0.27  OA
BRANCH 11 14
ATOM     14  CA  PHE C 845       2.976   0.776  11.952  1.00 48.60 LIG 0.18  C 
BRANCH 14 15
ATOM     15  CB  PHE C 845       2.235   0.911  13.305  1.00 50.69 LIG 0.07  C 
BRANCH 15 16
ATOM     16  CG  PHE C 845       3.047   1.002  14.588  1.00 53.32 LIG-0.06  A 
ATOM     17  CD2 PHE C 845       2.447   1.383  15.782  1.00 56.28 LIG 0.01  A 
ATOM     18  CE2 PHE C 845       3.189   1.469  16.969  1.00 59.52 LIG 0.00  A 
ATOM     19  CZ  PHE C 845       4.537   1.214  16.957  1.00 57.95 LIG 0.00  A 
ATOM     20  CE1 PHE C 845       5.158   0.848  15.779  1.00 59.50 LIG 0.00  A 
ATOM     21  CD1 PHE C 845       4.416   0.759  14.592  1.00 58.05 LIG 0.01  A 
ENDBRANCH 15 16
ENDBRANCH 14 15
BRANCH 14 22
ATOM     22  C   PHE C 845       3.530  -0.634  11.714  1.00 51.55 LIG 0.24  C 
ATOM     23 O    PHE C 845       3.542  -1.471  12.624  1.00 49.31 LIG-0.27  OA
ATOM     24  N   SER C 846       3.928  -0.898  10.455  1.00 48.84 LIG-0.34  N 
ATOM     25 H    SER C 846       3.883  -0.315   9.824  1.00 48.84 LIG 0.16  HD
BRANCH 24 26
ATOM     26  CA  SER C 846       4.471  -2.182  10.012  1.00 80.27 LIG 0.19  C 
BRANCH 26 27
ATOM     27  CB  SER C 846       3.493  -2.877   9.069  1.00 83.79 LIG 0.20  C 
BRANCH 27 28
ATOM     28 OG   SER C 846       2.152  -2.515   9.356  1.00 92.96 LIG-0.40  OA
ATOM     29 HG   SER C 846       1.631  -3.090   9.031  1.00 92.96 LIG 0.21  HD
ENDBRANCH 27 28
ENDBRANCH 26 27
BRANCH 26 30
ATOM     30  C   SER C 846       5.817  -1.990   9.326  1.00107.57 LIG 0.22  C 
ATOM     31 O    SER C 846       6.155  -2.749   8.421  1.00 73.66 LIG-0.29  OA
ENDBRANCH 26 30
ENDBRANCH 24 26
ENDBRANCH 14 22
ENDBRANCH 11 14
ENDBRANCH 6 10
ENDBRANCH 3 6
ENDBRANCH 1 2
BRANCH 1 32
ATOM     32  CB  ARG C 843       2.310   6.933   8.897  1.00 50.74 LIG 0.04  C 
BRANCH 32 33
ATOM     33  CG  ARG C 843       1.951   7.184  10.369  1.00 63.97 LIG 0.02  C 
BRANCH 33 34
ATOM     34  CD  ARG C 843       2.466   8.498  10.910  1.00 82.46 LIG 0.14  C 
BRANCH 34 35
ATOM     35  NE  ARG C 843       3.125   8.300  12.198  1.00 98.18 LIG-0.23  N 
ATOM     36 HE   ARG C 843       2.674   8.474  12.910  1.00 98.18 LIG 0.18  HD
ATOM     37  CZ  ARG C 843       4.374   7.870  12.347  1.00115.63 LIG 0.67  C 
ATOM     38  NH2 ARG C 843       4.880   7.694  13.557  1.00101.74 LIG-0.23  N 
ATOM     39  NH1 ARG C 843       5.130   7.622  11.283  1.00105.44 LIG-0.23  N 
ATOM     40 1HH2 ARG C 843       4.401   7.858  14.252  1.00101.74 LIG 0.17  HD
ATOM     41 2HH2 ARG C 843       5.689   7.416  13.648  1.00101.74 LIG 0.17  HD
ATOM     42 1HH1 ARG C 843       4.812   7.739  10.493  1.00105.44 LIG 0.17  HD
ATOM     43 2HH1 ARG C 843       5.937   7.344  11.384  1.00105.44 LIG 0.17  HD
ENDBRANCH 34 35
ENDBRANCH 33 34
ENDBRANCH 32 33
ENDBRANCH 1 32
BRANCH 1 44
ATOM     44  N   ARG C 843       0.009   6.773   7.929  1.00 47.52 LIG-0.35  N 
ATOM     45  C   LYS C 842      -0.412   7.170   6.719  1.00 51.06 LIG 0.24  C 
ATOM     46 O    LYS C 842       0.223   6.961   5.682  1.00 51.08 LIG-0.27  OA
ATOM     47 H    ARG C 843      -0.432   6.909   8.654  1.00 47.52 LIG 0.16  HD
BRANCH 45 48
ATOM     48  CA  LYS C 842      -1.734   7.915   6.653  1.00 46.69 LIG 0.18  C 
BRANCH 48 49
ATOM     49  CB  LYS C 842      -2.905   6.915   6.610  1.00 47.71 LIG 0.04  C 
BRANCH 49 50
ATOM     50  CG  LYS C 842      -4.112   7.391   5.820  1.00 50.03 LIG 0.00  C 
BRANCH 50 51
ATOM     51  CD  LYS C 842      -5.117   6.263   5.654  1.00 53.65 LIG 0.03  C 
BRANCH 51 52
ATOM     52  CE  LYS C 842      -5.770   6.317   4.297  1.00 52.95 LIG 0.23  C 
BRANCH 52 53
ATOM     53  NZ  LYS C 842      -7.223   6.037   4.360  1.00 44.67 LIG-0.08  N 
ATOM     54 HZ3  LYS C 842      -7.628   6.672   4.833  1.00 44.67 LIG 0.27  HD
ATOM     55 HZ2  LYS C 842      -7.357   5.248   4.749  1.00 44.67 LIG 0.27  HD
ATOM     56 HZ1  LYS C 842      -7.558   6.022   3.535  1.00 44.67 LIG 0.27  HD
ENDBRANCH 52 53
ENDBRANCH 51 52
ENDBRANCH 50 51
ENDBRANCH 49 50
ENDBRANCH 48 49
BRANCH 48 57
ATOM     57  N   LYS C 842      -1.739   8.805   5.493  1.00 47.24 LIG-0.35  N 
ATOM     58 H    LYS C 842      -1.742   8.381   4.745  1.00 47.24 LIG 0.16  HD
ATOM     59  C   GLN C 841      -1.738  10.145   5.561  1.00 52.93 LIG 0.26  C 
ATOM     60 O    GLN C 841      -1.783  10.771   6.624  1.00 51.68 LIG-0.27  OA
BRANCH 59 61
ATOM     61  CA  GLN C 841      -1.739  10.892   4.224  1.00 52.44 LIG 0.40  C 
ATOM     62  N   GLN C 841      -1.055  10.095   3.205  1.00 53.67 LIG 0.61  N 
BRANCH 61 63
ATOM     63  CB  GLN C 841      -3.180  11.233   3.782  1.00 53.85 LIG 0.06  C 
BRANCH 63 64
ATOM     64  CG  GLN C 841      -3.284  12.172   2.569  1.00 74.06 LIG 0.10  C 
BRANCH 64 65
ATOM     65  CD  GLN C 841      -4.418  13.179   2.635  1.00 99.82 LIG 0.21  C 
ATOM     66 OE1  GLN C 841      -4.908  13.552   3.711  1.00 97.42 LIG-0.27  OA
ATOM     67  NE2 GLN C 841      -4.828  13.679   1.478  1.00 91.89 LIG-0.37  N 
ATOM     68 22HE GLN C 841      -5.447  14.276   1.463  1.00 91.89 LIG 0.16  HD
ATOM     69 21HE GLN C 841      -4.476  13.406   0.742  1.00 91.89 LIG 0.16  HD
ENDBRANCH 64 65
ENDBRANCH 63 64
ENDBRANCH 61 63
ENDBRANCH 59 61
ENDBRANCH 48 57
ENDBRANCH 45 48
ENDBRANCH 1 44
TORSDOF 29
ENDMDL
MODEL 5
USER: ADFR SOLUTION from run 85
USER: SCORE 19.953117 LL:  -3.367 LR: -19.924 RR:   0.000 FEB: -11.273
USER: RMSD 3.186399
USER: SEED 84
USER: STATUS no improvement in best in 6 clusters for 5 generations
USER: GENES 31
USER: genes 0 Translation |==|  0.53492 0.55879 0.46131
USER: genes 1 Rotation |==|  0.52105 0.41320 0.56366 0.98782
USER: genes 2 Torsion [N]-CA--C-[N] |==|  0.28545
USER: genes 3 Torsion [C]-N--CA-[CB] |==|  0.44863
USER: genes 4 Torsion [N]-CA--CB-[OG] |==|  0.87926
USER: genes 5 Torsion [CA]-CB--OG-[HG] |==|  0.78252
USER: genes 6 Torsion [N]-CA--C-[N] |==|  0.46111
USER: genes 7 Torsion [C]-N--CA-[CB] |==|  0.31060
USER: genes 8 Torsion [N]-CA--CB-[CG] |==|  0.54484
USER: genes 9 Torsion [CA]-CB--CG-[CD2] |==|  0.97898
USER: genes 10 Torsion [N]-CA--C-[N] |==|  0.18655
USER: genes 11 Torsion [C]-N--CA-[CB] |==|  0.45513
USER: genes 12 Torsion [N]-CA--CB-[OG] |==|  0.43130
USER: genes 13 Torsion [CA]-CB--OG-[HG] |==|  0.08981
USER: genes 14 Torsion [N]-CA--C-[O] |==|  0.25793
USER: genes 15 Torsion [C]-CA--CB-[CG] |==|  0.38468
USER: genes 16 Torsion [CA]-CB--CG-[CD] |==|  0.64650
USER: genes 17 Torsion [CB]-CG--CD-[NE] |==|  0.73753
USER: genes 18 Torsion [CG]-CD--NE-[CZ] |==|  0.31156
USER: genes 19 Torsion [C]-CA--N-[C] |==|  0.77466
USER: genes 20 Torsion [N]-C--CA-[N] |==|  0.50943
USER: genes 21 Torsion [C]-CA--CB-[CG] |==|  0.43932
USER: genes 22 Torsion [CA]-CB--CG-[CD] |==|  0.32042
USER: genes 23 Torsion [CB]-CG--CD-[CE] |==|  0.61469
USER: genes 24 Torsion [CG]-CD--CE-[NZ] |==|  0.51121
USER: genes 25 Torsion [CD]-CE--NZ-[HZ2] |==|  0.90627
USER: genes 26 Torsion [C]-CA--N-[C] |==|  0.57039
USER: genes 27 Torsion [N]-C--CA-[N] |==|  0.43448
USER: genes 28 Torsion [C]-CA--CB-[CG] |==|  0.20490
USER: genes 29 Torsion [CA]-CB--CG-[CD] |==|  0.13431
USER: genes 30 Torsion [CB]-CG--CD-[OE1] |==|  0.22010
ROOT
ATOM      1  CA  ARG C 843       1.027   5.919   8.262  1.00 48.28 LIG 0.18  C 
ENDROOT
BRANCH 1 2
ATOM      2  C   ARG C 843       0.832   4.582   8.971  1.00 51.26 LIG 0.24  C 
ATOM      3  N   SER C 844       1.397   3.508   8.395  1.00 48.21 LIG-0.34  N 
ATOM      4 H    SER C 844       1.831   3.542   7.654  1.00 48.21 LIG 0.16  HD
ATOM      5 O    ARG C 843       0.172   4.525  10.013  1.00 49.46 LIG-0.27  OA
BRANCH 3 6
ATOM      6  CA  SER C 844       1.327   2.164   8.978  1.00 48.58 LIG 0.20  C 
BRANCH 6 7
ATOM      7  CB  SER C 844       1.638   1.099   7.925  1.00 52.82 LIG 0.20  C 
BRANCH 7 8
ATOM      8 OG   SER C 844       0.996   1.355   6.685  1.00 64.87 LIG-0.40  OA
ATOM      9 HG   SER C 844       0.189   1.128   6.735  1.00 64.87 LIG 0.21  HD
ENDBRANCH 7 8
ENDBRANCH 6 7
BRANCH 6 10
ATOM     10  C   SER C 844       2.290   2.039  10.162  1.00 51.88 LIG 0.24  C 
ATOM     11  N   PHE C 845       2.129   0.974  10.969  1.00 48.65 LIG-0.35  N 
ATOM     12 H    PHE C 845       1.496   0.400  10.868  1.00 48.65 LIG 0.16  HD
ATOM     13 O    SER C 844       3.154   2.901  10.346  1.00 50.80 LIG-0.27  OA
BRANCH 11 14
ATOM     14  CA  PHE C 845       3.012   0.682  12.099  1.00 48.60 LIG 0.18  C 
BRANCH 14 15
ATOM     15  CB  PHE C 845       2.282   0.857  13.454  1.00 50.69 LIG 0.07  C 
BRANCH 15 16
ATOM     16  CG  PHE C 845       3.105   0.964  14.729  1.00 53.32 LIG-0.06  A 
ATOM     17  CD2 PHE C 845       4.478   0.751  14.708  1.00 56.28 LIG 0.01  A 
ATOM     18  CE2 PHE C 845       5.243   0.848  15.879  1.00 59.52 LIG 0.00  A 
ATOM     19  CZ  PHE C 845       4.634   1.119  17.078  1.00 57.95 LIG 0.00  A 
ATOM     20  CE1 PHE C 845       3.269   1.320  17.126  1.00 59.50 LIG 0.00  A 
ATOM     21  CD1 PHE C 845       2.503   1.226  15.955  1.00 58.05 LIG 0.01  A 
ENDBRANCH 15 16
ENDBRANCH 14 15
BRANCH 14 22
ATOM     22  C   PHE C 845       3.555  -0.737  11.895  1.00 51.55 LIG 0.24  C 
ATOM     23 O    PHE C 845       3.190  -1.667  12.624  1.00 49.31 LIG-0.27  OA
ATOM     24  N   SER C 846       4.384  -0.897  10.846  1.00 48.84 LIG-0.34  N 
ATOM     25 H    SER C 846       4.604  -0.247  10.327  1.00 48.84 LIG 0.16  HD
BRANCH 24 26
ATOM     26  CA  SER C 846       5.001  -2.168  10.465  1.00 80.27 LIG 0.19  C 
BRANCH 26 27
ATOM     27  CB  SER C 846       5.542  -2.091   9.041  1.00 83.79 LIG 0.20  C 
BRANCH 27 28
ATOM     28 OG   SER C 846       6.593  -3.022   8.834  1.00 92.96 LIG-0.40  OA
ATOM     29 HG   SER C 846       6.458  -3.706   9.304  1.00 92.96 LIG 0.21  HD
ENDBRANCH 27 28
ENDBRANCH 26 27
BRANCH 26 30
ATOM     30  C   SER C 846       6.117  -2.537  11.432  1.00107.57 LIG 0.22  C 
ATOM     31 O    SER C 846       5.875  -3.252  12.402  1.00 73.66 LIG-0.29  OA
ENDBRANCH 26 30
ENDBRANCH 24 26
ENDBRANCH 14 22
ENDBRANCH 11 14
ENDBRANCH 6 10
ENDBRANCH 3 6
ENDBRANCH 1 2
BRANCH 1 32
ATOM     32  CB  ARG C 843       1.445   7.013   9.286  1.00 50.74 LIG 0.04  C 
BRANCH 32 33
ATOM     33  CG  ARG C 843       2.548   7.960   8.788  1.00 63.97 LIG 0.02  C 
BRANCH 33 34
ATOM     34  CD  ARG C 843       3.727   8.075   9.727  1.00 82.46 LIG 0.14  C 
BRANCH 34 35
ATOM     35  NE  ARG C 843       3.568   9.223  10.615  1.00 98.18 LIG-0.23  N 
ATOM     36 HE   ARG C 843       3.606  10.008  10.265  1.00 98.18 LIG 0.18  HD
ATOM     37  CZ  ARG C 843       3.368   9.139  11.925  1.00115.63 LIG 0.67  C 
ATOM     38  NH2 ARG C 843       3.207  10.236  12.649  1.00101.74 LIG-0.23  N 
ATOM     39  NH1 ARG C 843       3.337   7.954  12.526  1.00105.44 LIG-0.23  N 
ATOM     40 1HH2 ARG C 843       3.231  11.008  12.270  1.00101.74 LIG 0.17  HD
ATOM     41 2HH2 ARG C 843       3.077  10.177  13.497  1.00101.74 LIG 0.17  HD
ATOM     42 1HH1 ARG C 843       3.447   7.236  12.066  1.00105.44 LIG 0.17  HD
ATOM     43 2HH1 ARG C 843       3.207   7.905  13.374  1.00105.44 LIG 0.17  HD
ENDBRANCH 34 35
ENDBRANCH 33 34
ENDBRANCH 32 33
ENDBRANCH 1 32
BRANCH 1 44
ATOM     44  N   ARG C 843      -0.189   6.301   7.531  1.00 47.52 LIG-0.35  N 
ATOM     45  C   LYS C 842      -0.482   5.805   6.321  1.00 51.06 LIG 0.24  C 
ATOM     46 O    LYS C 842       0.233   4.988   5.736  1.00 51.08 LIG-0.27  OA
ATOM     47 H    ARG C 843      -0.686   6.866   7.948  1.00 47.52 LIG 0.16  HD
BRANCH 45 48
ATOM     48  CA  LYS C 842      -1.760   6.294   5.660  1.00 46.69 LIG 0.18  C 
BRANCH 48 49
ATOM     49  CB  LYS C 842      -2.956   6.105   6.611  1.00 47.71 LIG 0.04  C 
BRANCH 49 50
ATOM     50  CG  LYS C 842      -4.150   6.995   6.309  1.00 50.03 LIG 0.00  C 
BRANCH 50 51
ATOM     51  CD  LYS C 842      -5.346   6.156   5.893  1.00 53.65 LIG 0.03  C 
BRANCH 51 52
ATOM     52  CE  LYS C 842      -6.079   6.795   4.742  1.00 52.95 LIG 0.23  C 
BRANCH 52 53
ATOM     53  NZ  LYS C 842      -7.306   6.052   4.374  1.00 44.67 LIG-0.08  N 
ATOM     54 HZ3  LYS C 842      -7.984   6.329   4.879  1.00 44.67 LIG 0.27  HD
ATOM     55 HZ2  LYS C 842      -7.177   5.181   4.505  1.00 44.67 LIG 0.27  HD
ATOM     56 HZ1  LYS C 842      -7.496   6.199   3.516  1.00 44.67 LIG 0.27  HD
ENDBRANCH 52 53
ENDBRANCH 51 52
ENDBRANCH 50 51
ENDBRANCH 49 50
ENDBRANCH 48 49
BRANCH 48 57
ATOM     57  N   LYS C 842      -1.959   5.591   4.394  1.00 47.24 LIG-0.35  N 
ATOM     58 H    LYS C 842      -1.576   4.822   4.374  1.00 47.24 LIG 0.16  HD
ATOM     59  C   GLN C 841      -2.659   6.073   3.356  1.00 52.93 LIG 0.26  C 
ATOM     60 O    GLN C 841      -3.257   7.152   3.384  1.00 51.68 LIG-0.27  OA
BRANCH 59 61
ATOM     61  CA  GLN C 841      -2.742   5.176   2.118  1.00 52.44 LIG 0.40  C 
ATOM     62  N   GLN C 841      -3.926   5.519   1.330  1.00 53.67 LIG 0.61  N 
BRANCH 61 63
ATOM     63  CB  GLN C 841      -1.459   5.293   1.264  1.00 53.85 LIG 0.06  C 
BRANCH 63 64
ATOM     64  CG  GLN C 841      -0.221   4.594   1.849  1.00 74.06 LIG 0.10  C 
BRANCH 64 65
ATOM     65  CD  GLN C 841      -0.453   3.167   2.315  1.00 99.82 LIG 0.21  C 
ATOM     66 OE1  GLN C 841      -0.493   2.213   1.525  1.00 97.42 LIG-0.27  OA
ATOM     67  NE2 GLN C 841      -0.561   2.988   3.624  1.00 91.89 LIG-0.37  N 
ATOM     68 22HE GLN C 841      -0.662   2.195   3.942  1.00 91.89 LIG 0.16  HD
ATOM     69 21HE GLN C 841      -0.530   3.663   4.155  1.00 91.89 LIG 0.16  HD
ENDBRANCH 64 65
ENDBRANCH 63 64
ENDBRANCH 61 63
ENDBRANCH 59 61
ENDBRANCH 48 57
ENDBRANCH 45 48
ENDBRANCH 1 44
TORSDOF 29
ENDMDL
MODEL 6
USER: ADFR SOLUTION from run 193
USER: SCORE 20.232852 LL:  -2.644 LR: -19.760 RR:   0.000 FEB: -11.109
USER: RMSD 4.215951
USER: SEED 192
USER: STATUS no improvement in best in 8 clusters for 5 generations
USER: GENES 31
USER: genes 0 Translation |==|  0.55608 0.54698 0.47915
USER: genes 1 Rotation |==|  0.55634 0.45829 0.49027 0.99497
USER: genes 2 Torsion [N]-CA--C-[N] |==|  0.37516
USER: genes 3 Torsion [C]-N--CA-[CB] |==|  0.35357
USER: genes 4 Torsion [N]-CA--CB-[OG] |==|  0.55562
USER: genes 5 Torsion [CA]-CB--OG-[HG] |==|  0.21869
USER: genes 6 Torsion [N]-CA--C-[N] |==|  0.43199
USER: genes 7 Torsion [C]-N--CA-[CB] |==|  0.85330
USER: genes 8 Torsion [N]-CA--CB-[CG] |==|  0.86080
USER: genes 9 Torsion [CA]-CB--CG-[CD2] |==|  0.46664
USER: genes 10 Torsion [N]-CA--C-[N] |==|  0.35556
USER: genes 11 Torsion [C]-N--CA-[CB] |==|  0.34702
USER: genes 12 Torsion [N]-CA--CB-[OG] |==|  0.76595
USER: genes 13 Torsion [CA]-CB--OG-[HG] |==|  0.58816
USER: genes 14 Torsion [N]-CA--C-[O] |==|  0.07738
USER: genes 15 Torsion [C]-CA--CB-[CG] |==|  0.57647
USER: genes 16 Torsion [CA]-CB--CG-[CD] |==|  0.61176
USER: genes 17 Torsion [CB]-CG--CD-[NE] |==|  0.64320
USER: genes 18 Torsion [CG]-CD--NE-[CZ] |==|  0.19185
USER: genes 19 Torsion [C]-CA--N-[C] |==|  0.66644
USER: genes 20 Torsion [N]-C--CA-[N] |==|  0.37272
USER: genes 21 Torsion [C]-CA--CB-[CG] |==|  0.46166
USER: genes 22 Torsion [CA]-CB--CG-[CD] |==|  0.53602
USER: genes 23 Torsion [CB]-CG--CD-[CE] |==|  0.59237
USER: genes 24 Torsion [CG]-CD--CE-[NZ] |==|  0.52523
USER: genes 25 Torsion [CD]-CE--NZ-[HZ2] |==|  0.88885
USER: genes 26 Torsion [C]-CA--N-[C] |==|  0.60302
USER: genes 27 Torsion [N]-C--CA-[N] |==|  0.23599
USER: genes 28 Torsion [C]-CA--CB-[CG] |==|  0.30946
USER: genes 29 Torsion [CA]-CB--CG-[CD] |==|  0.49096
USER: genes 30 Torsion [CB]-CG--CD-[OE1] |==|  0.91159
ROOT
ATOM      1  CA  ARG C 843       1.535   5.644   8.717  1.00 48.28 LIG 0.18  C 
ENDROOT
BRANCH 1 2
ATOM      2  C   ARG C 843       1.121   4.283   9.265  1.00 51.26 LIG 0.24  C 
ATOM      3  N   SER C 844       1.806   3.218   8.815  1.00 48.21 LIG-0.34  N 
ATOM      4 H    SER C 844       2.435   3.274   8.232  1.00 48.21 LIG 0.16  HD
ATOM      5 O    ARG C 843       0.189   4.198  10.073  1.00 49.46 LIG-0.27  OA
BRANCH 3 6
ATOM      6  CA  SER C 844       1.548   1.851   9.278  1.00 48.58 LIG 0.20  C 
BRANCH 6 7
ATOM      7  CB  SER C 844       1.316   0.912   8.094  1.00 52.82 LIG 0.20  C 
BRANCH 7 8
ATOM      8 OG   SER C 844       0.632  -0.275   8.466  1.00 64.87 LIG-0.40  OA
ATOM      9 HG   SER C 844      -0.188  -0.113   8.544  1.00 64.87 LIG 0.21  HD
ENDBRANCH 7 8
ENDBRANCH 6 7
BRANCH 6 10
ATOM     10  C   SER C 844       2.709   1.345  10.139  1.00 51.88 LIG 0.24  C 
ATOM     11  N   PHE C 845       2.431   0.371  11.025  1.00 48.65 LIG-0.35  N 
ATOM     12 H    PHE C 845       1.638   0.062  11.149  1.00 48.65 LIG 0.16  HD
ATOM     13 O    SER C 844       3.833   1.839  10.008  1.00 50.80 LIG-0.27  OA
BRANCH 11 14
ATOM     14  CA  PHE C 845       3.447  -0.260  11.869  1.00 48.60 LIG 0.18  C 
BRANCH 14 15
ATOM     15  CB  PHE C 845       4.637  -0.791  11.031  1.00 50.69 LIG 0.07  C 
BRANCH 15 16
ATOM     16  CG  PHE C 845       4.356  -1.662   9.816  1.00 53.32 LIG-0.06  A 
ATOM     17  CD2 PHE C 845       5.362  -1.951   8.902  1.00 56.28 LIG 0.01  A 
ATOM     18  CE2 PHE C 845       5.112  -2.754   7.780  1.00 59.52 LIG 0.00  A 
ATOM     19  CZ  PHE C 845       3.848  -3.236   7.548  1.00 57.95 LIG 0.00  A 
ATOM     20  CE1 PHE C 845       2.829  -2.949   8.434  1.00 59.50 LIG 0.00  A 
ATOM     21  CD1 PHE C 845       3.079  -2.149   9.558  1.00 58.05 LIG 0.01  A 
ENDBRANCH 15 16
ENDBRANCH 14 15
BRANCH 14 22
ATOM     22  C   PHE C 845       3.871   0.774  12.918  1.00 51.55 LIG 0.24  C 
ATOM     23 O    PHE C 845       4.171   1.927  12.586  1.00 49.31 LIG-0.27  OA
ATOM     24  N   SER C 846       3.827   0.357  14.197  1.00 48.84 LIG-0.34  N 
ATOM     25 H    SER C 846       3.585  -0.439  14.416  1.00 48.84 LIG 0.16  HD
BRANCH 24 26
ATOM     26  CA  SER C 846       4.175   1.188  15.350  1.00 80.27 LIG 0.19  C 
BRANCH 26 27
ATOM     27  CB  SER C 846       3.022   1.223  16.348  1.00 83.79 LIG 0.20  C 
BRANCH 27 28
ATOM     28 OG   SER C 846       2.064   2.209  15.999  1.00 92.96 LIG-0.40  OA
ATOM     29 HG   SER C 846       1.712   2.518  16.697  1.00 92.96 LIG 0.21  HD
ENDBRANCH 27 28
ENDBRANCH 26 27
BRANCH 26 30
ATOM     30  C   SER C 846       5.438   0.671  16.025  1.00107.57 LIG 0.22  C 
ATOM     31 O    SER C 846       6.279   0.063  15.367  1.00 73.66 LIG-0.29  OA
ENDBRANCH 26 30
ENDBRANCH 24 26
ENDBRANCH 14 22
ENDBRANCH 11 14
ENDBRANCH 6 10
ENDBRANCH 3 6
ENDBRANCH 1 2
BRANCH 1 32
ATOM     32  CB  ARG C 843       2.417   6.395   9.756  1.00 50.74 LIG 0.04  C 
BRANCH 32 33
ATOM     33  CG  ARG C 843       2.347   7.927   9.658  1.00 63.97 LIG 0.02  C 
BRANCH 33 34
ATOM     34  CD  ARG C 843       3.680   8.614   9.848  1.00 82.46 LIG 0.14  C 
BRANCH 34 35
ATOM     35  NE  ARG C 843       3.579   9.663  10.859  1.00 98.18 LIG-0.23  N 
ATOM     36 HE   ARG C 843       3.643  10.479  10.598  1.00 98.18 LIG 0.18  HD
ATOM     37  CZ  ARG C 843       3.394   9.441  12.156  1.00115.63 LIG 0.67  C 
ATOM     38  NH2 ARG C 843       3.287  10.456  12.999  1.00101.74 LIG-0.23  N 
ATOM     39  NH1 ARG C 843       3.325   8.199  12.623  1.00105.44 LIG-0.23  N 
ATOM     40 1HH2 ARG C 843       3.336  11.264  12.708  1.00101.74 LIG 0.17  HD
ATOM     41 2HH2 ARG C 843       3.167  10.308  13.838  1.00101.74 LIG 0.17  HD
ATOM     42 1HH1 ARG C 843       3.400   7.533  12.085  1.00105.44 LIG 0.17  HD
ATOM     43 2HH1 ARG C 843       3.205   8.061  13.463  1.00105.44 LIG 0.17  HD
ENDBRANCH 34 35
ENDBRANCH 33 34
ENDBRANCH 32 33
ENDBRANCH 1 32
BRANCH 1 44
ATOM     44  N   ARG C 843       0.354   6.434   8.342  1.00 47.52 LIG-0.35  N 
ATOM     45  C   LYS C 842       0.153   6.870   7.090  1.00 51.06 LIG 0.24  C 
ATOM     46 O    LYS C 842       0.931   6.637   6.161  1.00 51.08 LIG-0.27  OA
ATOM     47 H    ARG C 843      -0.187   6.587   8.992  1.00 47.52 LIG 0.16  HD
BRANCH 45 48
ATOM     48  CA  LYS C 842      -1.098   7.695   6.834  1.00 46.69 LIG 0.18  C 
BRANCH 48 49
ATOM     49  CB  LYS C 842      -2.172   6.830   6.148  1.00 47.71 LIG 0.04  C 
BRANCH 49 50
ATOM     50  CG  LYS C 842      -3.563   7.440   6.140  1.00 50.03 LIG 0.00  C 
BRANCH 50 51
ATOM     51  CD  LYS C 842      -4.597   6.400   5.741  1.00 53.65 LIG 0.03  C 
BRANCH 51 52
ATOM     52  CE  LYS C 842      -5.726   7.031   4.967  1.00 52.95 LIG 0.23  C 
BRANCH 52 53
ATOM     53  NZ  LYS C 842      -6.851   6.095   4.749  1.00 44.67 LIG-0.08  N 
ATOM     54 HZ3  LYS C 842      -7.350   6.052   5.485  1.00 44.67 LIG 0.27  HD
ATOM     55 HZ2  LYS C 842      -6.533   5.285   4.561  1.00 44.67 LIG 0.27  HD
ATOM     56 HZ1  LYS C 842      -7.350   6.383   4.070  1.00 44.67 LIG 0.27  HD
ENDBRANCH 52 53
ENDBRANCH 51 52
ENDBRANCH 50 51
ENDBRANCH 49 50
ENDBRANCH 48 49
BRANCH 48 57
ATOM     57  N   LYS C 842      -0.756   8.869   6.034  1.00 47.24 LIG-0.35  N 
ATOM     58 H    LYS C 842      -0.155   8.708   5.441  1.00 47.24 LIG 0.16  HD
ATOM     59  C   GLN C 841      -1.307  10.083   6.187  1.00 52.93 LIG 0.26  C 
ATOM     60 O    GLN C 841      -2.206  10.322   6.999  1.00 51.68 LIG-0.27  OA
BRANCH 59 61
ATOM     61  CA  GLN C 841      -0.804  11.181   5.246  1.00 52.44 LIG 0.40  C 
ATOM     62  N   GLN C 841      -1.540  11.132   3.983  1.00 53.67 LIG 0.61  N 
BRANCH 61 63
ATOM     63  CB  GLN C 841      -0.930  12.574   5.904  1.00 53.85 LIG 0.06  C 
BRANCH 63 64
ATOM     64  CG  GLN C 841       0.404  13.251   6.257  1.00 74.06 LIG 0.10  C 
BRANCH 64 65
ATOM     65  CD  GLN C 841       0.279  14.651   6.831  1.00 99.82 LIG 0.21  C 
ATOM     66 OE1  GLN C 841      -0.636  15.420   6.502  1.00 97.42 LIG-0.27  OA
ATOM     67  NE2 GLN C 841       1.175  14.993   7.745  1.00 91.89 LIG-0.37  N 
ATOM     68 22HE GLN C 841       1.130  15.764   8.124  1.00 91.89 LIG 0.16  HD
ATOM     69 21HE GLN C 841       1.802  14.445   7.959  1.00 91.89 LIG 0.16  HD
ENDBRANCH 64 65
ENDBRANCH 63 64
ENDBRANCH 61 63
ENDBRANCH 59 61
ENDBRANCH 48 57
ENDBRANCH 45 48
ENDBRANCH 1 44
TORSDOF 29
ENDMDL
MODEL 7
USER: ADFR SOLUTION from run 100
USER: SCORE 20.811304 LL:  -2.831 LR: -19.659 RR:   0.000 FEB: -11.008
USER: RMSD 3.358810
USER: SEED 99
USER: STATUS searching
USER: GENES 31
USER: genes 0 Translation |==|  0.53926 0.54054 0.45445
USER: genes 1 Rotation |==|  0.42042 0.54804 0.45429 0.98915
USER: genes 2 Torsion [N]-CA--C-[N] |==|  0.45457
USER: genes 3 Torsion [C]-N--CA-[CB] |==|  0.19237
USER: genes 4 Torsion [N]-CA--CB-[OG] |==|  0.18621
USER: genes 5 Torsion [CA]-CB--OG-[HG] |==|  0.75248
USER: genes 6 Torsion [N]-CA--C-[N] |==|  0.65947
USER: genes 7 Torsion [C]-N--CA-[CB] |==|  0.25556
USER: genes 8 Torsion [N]-CA--CB-[CG] |==|  0.97510
USER: genes 9 Torsion [CA]-CB--CG-[CD2] |==|  0.61133
USER: genes 10 Torsion [N]-CA--C-[N] |==|  0.02005
USER: genes 11 Torsion [C]-N--CA-[CB] |==|  0.50216
USER: genes 12 Torsion [N]-CA--CB-[OG] |==|  0.63625
USER: genes 13 Torsion [CA]-CB--OG-[HG] |==|  0.94070
USER: genes 14 Torsion [N]-CA--C-[O] |==|  0.22410
USER: genes 15 Torsion [C]-CA--CB-[CG] |==|  0.84229
USER: genes 16 Torsion [CA]-CB--CG-[CD] |==|  0.45795
USER: genes 17 Torsion [CB]-CG--CD-[NE] |==|  0.45243
USER: genes 18 Torsion [CG]-CD--NE-[CZ] |==|  0.23391
USER: genes 19 Torsion [C]-CA--N-[C] |==|  0.62800
USER: genes 20 Torsion [N]-C--CA-[N] |==|  0.37543
USER: genes 21 Torsion [C]-CA--CB-[CG] |==|  0.52522
USER: genes 22 Torsion [CA]-CB--CG-[CD] |==|  0.47055
USER: genes 23 Torsion [CB]-CG--CD-[CE] |==|  0.63541
USER: genes 24 Torsion [CG]-CD--CE-[NZ] |==|  0.52311
USER: genes 25 Torsion [CD]-CE--NZ-[HZ2] |==|  0.83606
USER: genes 26 Torsion [C]-CA--N-[C] |==|  0.65143
USER: genes 27 Torsion [N]-C--CA-[N] |==|  0.90193
USER: genes 28 Torsion [C]-CA--CB-[CG] |==|  0.97699
USER: genes 29 Torsion [CA]-CB--CG-[CD] |==|  0.56222
USER: genes 30 Torsion [CB]-CG--CD-[OE1] |==|  0.23890
ROOT
ATOM      1  CA  ARG C 843       1.131   5.495   8.087  1.00 48.28 LIG 0.18  C 
ENDROOT
BRANCH 1 2
ATOM      2  C   ARG C 843       0.913   4.680   9.358  1.00 51.26 LIG 0.24  C 
ATOM      3  N   SER C 844       1.776   3.676   9.586  1.00 48.21 LIG-0.34  N 
ATOM      4 H    SER C 844       2.413   3.470   9.047  1.00 48.21 LIG 0.16  HD
ATOM      5 O    ARG C 843      -0.028   4.950  10.112  1.00 49.46 LIG-0.27  OA
BRANCH 3 6
ATOM      6  CA  SER C 844       1.716   2.830  10.782  1.00 48.58 LIG 0.20  C 
BRANCH 6 7
ATOM      7  CB  SER C 844       0.479   1.933  10.751  1.00 52.82 LIG 0.20  C 
BRANCH 7 8
ATOM      8 OG   SER C 844       0.536   0.961   9.717  1.00 64.87 LIG-0.40  OA
ATOM      9 HG   SER C 844       0.205   1.280   9.015  1.00 64.87 LIG 0.21  HD
ENDBRANCH 7 8
ENDBRANCH 6 7
BRANCH 6 10
ATOM     10  C   SER C 844       2.986   1.982  10.907  1.00 51.88 LIG 0.24  C 
ATOM     11  N   PHE C 845       2.824   0.648  10.959  1.00 48.65 LIG-0.35  N 
ATOM     12 H    PHE C 845       2.052   0.268  10.966  1.00 48.65 LIG 0.16  HD
ATOM     13 O    SER C 844       4.089   2.532  10.967  1.00 50.80 LIG-0.27  OA
BRANCH 11 14
ATOM     14  CA  PHE C 845       3.943  -0.295  11.009  1.00 48.60 LIG 0.18  C 
BRANCH 14 15
ATOM     15  CB  PHE C 845       4.331  -0.644  12.468  1.00 50.69 LIG 0.07  C 
BRANCH 15 16
ATOM     16  CG  PHE C 845       3.702   0.140  13.609  1.00 53.32 LIG-0.06  A 
ATOM     17  CD2 PHE C 845       4.457   0.517  14.713  1.00 56.28 LIG 0.01  A 
ATOM     18  CE2 PHE C 845       3.884   1.240  15.768  1.00 59.52 LIG 0.00  A 
ATOM     19  CZ  PHE C 845       2.548   1.554  15.742  1.00 57.95 LIG 0.00  A 
ATOM     20  CE1 PHE C 845       1.775   1.177  14.662  1.00 59.50 LIG 0.00  A 
ATOM     21  CD1 PHE C 845       2.347   0.456  13.604  1.00 58.05 LIG 0.01  A 
ENDBRANCH 15 16
ENDBRANCH 14 15
BRANCH 14 22
ATOM     22  C   PHE C 845       3.535  -1.526  10.191  1.00 51.55 LIG 0.24  C 
ATOM     23 O    PHE C 845       4.214  -2.560  10.221  1.00 49.31 LIG-0.27  OA
ATOM     24  N   SER C 846       2.377  -1.417   9.513  1.00 48.84 LIG-0.34  N 
ATOM     25 H    SER C 846       1.899  -0.702   9.527  1.00 48.84 LIG 0.16  HD
BRANCH 24 26
ATOM     26  CA  SER C 846       1.801  -2.476   8.685  1.00 80.27 LIG 0.19  C 
BRANCH 26 27
ATOM     27  CB  SER C 846       0.496  -2.004   8.049  1.00 83.79 LIG 0.20  C 
BRANCH 27 28
ATOM     28 OG   SER C 846      -0.543  -2.952   8.234  1.00 92.96 LIG-0.40  OA
ATOM     29 HG   SER C 846      -0.209  -3.707   8.391  1.00 92.96 LIG 0.21  HD
ENDBRANCH 27 28
ENDBRANCH 26 27
BRANCH 26 30
ATOM     30  C   SER C 846       2.782  -2.913   7.606  1.00107.57 LIG 0.22  C 
ATOM     31 O    SER C 846       3.686  -3.698   7.884  1.00 73.66 LIG-0.29  OA
ENDBRANCH 26 30
ENDBRANCH 24 26
ENDBRANCH 14 22
ENDBRANCH 11 14
ENDBRANCH 6 10
ENDBRANCH 3 6
ENDBRANCH 1 2
BRANCH 1 32
ATOM     32  CB  ARG C 843       2.384   6.405   8.242  1.00 50.74 LIG 0.04  C 
BRANCH 32 33
ATOM     33  CG  ARG C 843       2.330   7.359   9.445  1.00 63.97 LIG 0.02  C 
BRANCH 33 34
ATOM     34  CD  ARG C 843       3.666   7.969   9.802  1.00 82.46 LIG 0.14  C 
BRANCH 34 35
ATOM     35  NE  ARG C 843       3.485   9.139  10.658  1.00 98.18 LIG-0.23  N 
ATOM     36 HE   ARG C 843       3.472   9.912  10.281  1.00 98.18 LIG 0.18  HD
ATOM     37  CZ  ARG C 843       3.337   9.090  11.977  1.00115.63 LIG 0.67  C 
ATOM     38  NH2 ARG C 843       3.150  10.202  12.670  1.00101.74 LIG-0.23  N 
ATOM     39  NH1 ARG C 843       3.385   7.926  12.616  1.00105.44 LIG-0.23  N 
ATOM     40 1HH2 ARG C 843       3.123  10.961  12.267  1.00101.74 LIG 0.17  HD
ATOM     41 2HH2 ARG C 843       3.055  10.166  13.524  1.00101.74 LIG 0.17  HD
ATOM     42 1HH1 ARG C 843       3.513   7.199  12.176  1.00105.44 LIG 0.17  HD
ATOM     43 2HH1 ARG C 843       3.289   7.900  13.470  1.00105.44 LIG 0.17  HD
ENDBRANCH 34 35
ENDBRANCH 33 34
ENDBRANCH 32 33
ENDBRANCH 1 32
BRANCH 1 44
ATOM     44  N   ARG C 843      -0.068   6.279   7.761  1.00 47.52 LIG-0.35  N 
ATOM     45  C   LYS C 842      -0.573   6.330   6.520  1.00 51.06 LIG 0.24  C 
ATOM     46 O    LYS C 842      -0.083   5.721   5.566  1.00 51.08 LIG-0.27  OA
ATOM     47 H    ARG C 843      -0.408   6.695   8.431  1.00 47.52 LIG 0.16  HD
BRANCH 45 48
ATOM     48  CA  LYS C 842      -1.806   7.192   6.307  1.00 46.69 LIG 0.18  C 
BRANCH 48 49
ATOM     49  CB  LYS C 842      -3.067   6.310   6.246  1.00 47.71 LIG 0.04  C 
BRANCH 49 50
ATOM     50  CG  LYS C 842      -4.329   7.041   5.820  1.00 50.03 LIG 0.00  C 
BRANCH 50 51
ATOM     51  CD  LYS C 842      -5.447   6.051   5.539  1.00 53.65 LIG 0.03  C 
BRANCH 51 52
ATOM     52  CE  LYS C 842      -6.106   6.343   4.215  1.00 52.95 LIG 0.23  C 
BRANCH 52 53
ATOM     53  NZ  LYS C 842      -7.321   5.526   3.999  1.00 44.67 LIG-0.08  N 
ATOM     54 HZ3  LYS C 842      -7.917   5.705   4.635  1.00 44.67 LIG 0.27  HD
ATOM     55 HZ2  LYS C 842      -7.109   4.662   4.029  1.00 44.67 LIG 0.27  HD
ATOM     56 HZ1  LYS C 842      -7.671   5.718   3.203  1.00 44.67 LIG 0.27  HD
ENDBRANCH 52 53
ENDBRANCH 51 52
ENDBRANCH 50 51
ENDBRANCH 49 50
ENDBRANCH 48 49
BRANCH 48 57
ATOM     57  N   LYS C 842      -1.644   7.990   5.093  1.00 47.24 LIG-0.35  N 
ATOM     58 H    LYS C 842      -1.463   7.514   4.400  1.00 47.24 LIG 0.16  HD
ATOM     59  C   GLN C 841      -1.760   9.325   5.037  1.00 52.93 LIG 0.26  C 
ATOM     60 O    GLN C 841      -2.069  10.021   6.009  1.00 51.68 LIG-0.27  OA
BRANCH 59 61
ATOM     61  CA  GLN C 841      -1.547   9.968   3.663  1.00 52.44 LIG 0.40  C 
ATOM     62  N   GLN C 841      -0.516   9.239   2.924  1.00 53.67 LIG 0.61  N 
BRANCH 61 63
ATOM     63  CB  GLN C 841      -2.869  10.016   2.863  1.00 53.85 LIG 0.06  C 
BRANCH 63 64
ATOM     64  CG  GLN C 841      -4.042   9.252   3.499  1.00 74.06 LIG 0.10  C 
BRANCH 64 65
ATOM     65  CD  GLN C 841      -5.136   8.840   2.530  1.00 99.82 LIG 0.21  C 
ATOM     66 OE1  GLN C 841      -5.079   7.786   1.880  1.00 97.42 LIG-0.27  OA
ATOM     67  NE2 GLN C 841      -6.185   9.646   2.451  1.00 91.89 LIG-0.37  N 
ATOM     68 22HE GLN C 841      -6.846   9.442   1.940  1.00 91.89 LIG 0.16  HD
ATOM     69 21HE GLN C 841      -6.205  10.372   2.910  1.00 91.89 LIG 0.16  HD
ENDBRANCH 64 65
ENDBRANCH 63 64
ENDBRANCH 61 63
ENDBRANCH 59 61
ENDBRANCH 48 57
ENDBRANCH 45 48
ENDBRANCH 1 44
TORSDOF 29
ENDMDL
MODEL 8
USER: ADFR SOLUTION from run 74
USER: SCORE 19.978627 LL:  -2.728 LR: -19.564 RR:   0.000 FEB: -10.913
USER: RMSD 3.883373
USER: SEED 73
USER: STATUS no improvement in best in 6 clusters for 5 generations
USER: GENES 31
USER: genes 0 Translation |==|  0.54059 0.53354 0.45304
USER: genes 1 Rotation |==|  0.43165 0.55797 0.46753 0.99083
USER: genes 2 Torsion [N]-CA--C-[N] |==|  0.43721
USER: genes 3 Torsion [C]-N--CA-[CB] |==|  0.17392
USER: genes 4 Torsion [N]-CA--CB-[OG] |==|  0.20650
USER: genes 5 Torsion [CA]-CB--OG-[HG] |==|  0.81782
USER: genes 6 Torsion [N]-CA--C-[N] |==|  0.59513
USER: genes 7 Torsion [C]-N--CA-[CB] |==|  0.37420
USER: genes 8 Torsion [N]-CA--CB-[CG] |==|  0.57133
USER: genes 9 Torsion [CA]-CB--CG-[CD2] |==|  0.46832
USER: genes 10 Torsion [N]-CA--C-[N] |==|  0.94204
USER: genes 11 Torsion [C]-N--CA-[CB] |==|  0.48570
USER: genes 12 Torsion [N]-CA--CB-[OG] |==|  0.65425
USER: genes 13 Torsion [CA]-CB--OG-[HG] |==|  0.04291
USER: genes 14 Torsion [N]-CA--C-[O] |==|  0.33633
USER: genes 15 Torsion [C]-CA--CB-[CG] |==|  0.82478
USER: genes 16 Torsion [CA]-CB--CG-[CD] |==|  0.43770
USER: genes 17 Torsion [CB]-CG--CD-[NE] |==|  0.45227
USER: genes 18 Torsion [CG]-CD--NE-[CZ] |==|  0.27267
USER: genes 19 Torsion [C]-CA--N-[C] |==|  0.60143
USER: genes 20 Torsion [N]-C--CA-[N] |==|  0.35476
USER: genes 21 Torsion [C]-CA--CB-[CG] |==|  0.50589
USER: genes 22 Torsion [CA]-CB--CG-[CD] |==|  0.51808
USER: genes 23 Torsion [CB]-CG--CD-[CE] |==|  0.68830
USER: genes 24 Torsion [CG]-CD--CE-[NZ] |==|  0.57725
USER: genes 25 Torsion [CD]-CE--NZ-[HZ2] |==|  0.83423
USER: genes 26 Torsion [C]-CA--N-[C] |==|  0.64676
USER: genes 27 Torsion [N]-C--CA-[N] |==|  0.35396
USER: genes 28 Torsion [C]-CA--CB-[CG] |==|  0.78886
USER: genes 29 Torsion [CA]-CB--CG-[CD] |==|  0.50787
USER: genes 30 Torsion [CB]-CG--CD-[OE1] |==|  0.95588
ROOT
ATOM      1  CA  ARG C 843       1.163   5.332   8.052  1.00 48.28 LIG 0.18  C 
ENDROOT
BRANCH 1 2
ATOM      2  C   ARG C 843       1.034   4.443   9.284  1.00 51.26 LIG 0.24  C 
ATOM      3  N   SER C 844       1.863   3.388   9.356  1.00 48.21 LIG-0.34  N 
ATOM      4 H    SER C 844       2.431   3.191   8.741  1.00 48.21 LIG 0.16  HD
ATOM      5 O    ARG C 843       0.189   4.702  10.148  1.00 49.46 LIG-0.27  OA
BRANCH 3 6
ATOM      6  CA  SER C 844       1.882   2.466  10.495  1.00 48.58 LIG 0.20  C 
BRANCH 6 7
ATOM      7  CB  SER C 844       0.540   1.747  10.634  1.00 52.82 LIG 0.20  C 
BRANCH 7 8
ATOM      8 OG   SER C 844       0.355   0.743   9.647  1.00 64.87 LIG-0.40  OA
ATOM      9 HG   SER C 844       0.307   1.100   8.889  1.00 64.87 LIG 0.21  HD
ENDBRANCH 7 8
ENDBRANCH 6 7
BRANCH 6 10
ATOM     10  C   SER C 844       3.018   1.449  10.347  1.00 51.88 LIG 0.24  C 
ATOM     11  N   PHE C 845       2.791   0.209  10.818  1.00 48.65 LIG-0.35  N 
ATOM     12 H    PHE C 845       2.065  -0.013  11.224  1.00 48.65 LIG 0.16  HD
ATOM     13 O    SER C 844       4.084   1.790   9.827  1.00 50.80 LIG-0.27  OA
BRANCH 11 14
ATOM     14  CA  PHE C 845       3.752  -0.887  10.688  1.00 48.60 LIG 0.18  C 
BRANCH 14 15
ATOM     15  CB  PHE C 845       3.907  -1.672  12.014  1.00 50.69 LIG 0.07  C 
BRANCH 15 16
ATOM     16  CG  PHE C 845       5.205  -2.417  12.286  1.00 53.32 LIG-0.06  A 
ATOM     17  CD2 PHE C 845       5.478  -2.932  13.547  1.00 56.28 LIG 0.01  A 
ATOM     18  CE2 PHE C 845       6.671  -3.620  13.806  1.00 59.52 LIG 0.00  A 
ATOM     19  CZ  PHE C 845       7.611  -3.761  12.816  1.00 57.95 LIG 0.00  A 
ATOM     20  CE1 PHE C 845       7.369  -3.245  11.558  1.00 59.50 LIG 0.00  A 
ATOM     21  CD1 PHE C 845       6.174  -2.559  11.298  1.00 58.05 LIG 0.01  A 
ENDBRANCH 15 16
ENDBRANCH 14 15
BRANCH 14 22
ATOM     22  C   PHE C 845       3.279  -1.769   9.526  1.00 51.55 LIG 0.24  C 
ATOM     23 O    PHE C 845       4.050  -2.570   8.984  1.00 49.31 LIG-0.27  OA
ATOM     24  N   SER C 846       1.978  -1.654   9.200  1.00 48.84 LIG-0.34  N 
ATOM     25 H    SER C 846       1.445  -1.115   9.608  1.00 48.84 LIG 0.16  HD
BRANCH 24 26
ATOM     26  CA  SER C 846       1.322  -2.413   8.135  1.00 80.27 LIG 0.19  C 
BRANCH 26 27
ATOM     27  CB  SER C 846      -0.177  -2.127   8.124  1.00 83.79 LIG 0.20  C 
BRANCH 27 28
ATOM     28 OG   SER C 846      -0.933  -3.322   8.231  1.00 92.96 LIG-0.40  OA
ATOM     29 HG   SER C 846      -0.435  -3.947   8.492  1.00 92.96 LIG 0.21  HD
ENDBRANCH 27 28
ENDBRANCH 26 27
BRANCH 26 30
ATOM     30  C   SER C 846       1.930  -2.078   6.780  1.00107.57 LIG 0.22  C 
ATOM     31 O    SER C 846       2.434  -2.968   6.100  1.00 73.66 LIG-0.29  OA
ENDBRANCH 26 30
ENDBRANCH 24 26
ENDBRANCH 14 22
ENDBRANCH 11 14
ENDBRANCH 6 10
ENDBRANCH 3 6
ENDBRANCH 1 2
BRANCH 1 32
ATOM     32  CB  ARG C 843       2.383   6.286   8.203  1.00 50.74 LIG 0.04  C 
BRANCH 32 33
ATOM     33  CG  ARG C 843       2.272   7.277   9.371  1.00 63.97 LIG 0.02  C 
BRANCH 33 34
ATOM     34  CD  ARG C 843       3.602   7.809   9.852  1.00 82.46 LIG 0.14  C 
BRANCH 34 35
ATOM     35  NE  ARG C 843       3.415   9.014  10.655  1.00 98.18 LIG-0.23  N 
ATOM     36 HE   ARG C 843       3.311   9.760  10.240  1.00 98.18 LIG 0.18  HD
ATOM     37  CZ  ARG C 843       3.392   9.037  11.984  1.00115.63 LIG 0.67  C 
ATOM     38  NH2 ARG C 843       3.188  10.174  12.629  1.00101.74 LIG-0.23  N 
ATOM     39  NH1 ARG C 843       3.584   7.920  12.678  1.00105.44 LIG-0.23  N 
ATOM     40 1HH2 ARG C 843       3.069  10.904  12.189  1.00101.74 LIG 0.17  HD
ATOM     41 2HH2 ARG C 843       3.174  10.184  13.489  1.00101.74 LIG 0.17  HD
ATOM     42 1HH1 ARG C 843       3.724   7.178  12.269  1.00105.44 LIG 0.17  HD
ATOM     43 2HH1 ARG C 843       3.568   7.941  13.538  1.00105.44 LIG 0.17  HD
ENDBRANCH 34 35
ENDBRANCH 33 34
ENDBRANCH 32 33
ENDBRANCH 1 32
BRANCH 1 44
ATOM     44  N   ARG C 843      -0.080   6.080   7.818  1.00 47.52 LIG-0.35  N 
ATOM     45  C   LYS C 842      -0.541   6.335   6.585  1.00 51.06 LIG 0.24  C 
ATOM     46 O    LYS C 842       0.030   5.956   5.559  1.00 51.08 LIG-0.27  OA
ATOM     47 H    ARG C 843      -0.477   6.335   8.537  1.00 47.52 LIG 0.16  HD
BRANCH 45 48
ATOM     48  CA  LYS C 842      -1.828   7.135   6.476  1.00 46.69 LIG 0.18  C 
BRANCH 48 49
ATOM     49  CB  LYS C 842      -2.979   6.227   6.002  1.00 47.71 LIG 0.04  C 
BRANCH 49 50
ATOM     50  CG  LYS C 842      -4.306   6.940   5.810  1.00 50.03 LIG 0.00  C 
BRANCH 50 51
ATOM     51  CD  LYS C 842      -5.407   5.940   5.499  1.00 53.65 LIG 0.03  C 
BRANCH 51 52
ATOM     52  CE  LYS C 842      -5.901   6.101   4.085  1.00 52.95 LIG 0.23  C 
BRANCH 52 53
ATOM     53  NZ  LYS C 842      -7.311   5.677   3.929  1.00 44.67 LIG-0.08  N 
ATOM     54 HZ3  LYS C 842      -7.830   6.171   4.456  1.00 44.67 LIG 0.27  HD
ATOM     55 HZ2  LYS C 842      -7.391   4.820   4.156  1.00 44.67 LIG 0.27  HD
ATOM     56 HZ1  LYS C 842      -7.561   5.785   3.081  1.00 44.67 LIG 0.27  HD
ENDBRANCH 52 53
ENDBRANCH 51 52
ENDBRANCH 50 51
ENDBRANCH 49 50
ENDBRANCH 48 49
BRANCH 48 57
ATOM     57  N   LYS C 842      -1.627   8.269   5.575  1.00 47.24 LIG-0.35  N 
ATOM     58 H    LYS C 842      -1.307   8.038   4.812  1.00 47.24 LIG 0.16  HD
ATOM     59  C   GLN C 841      -1.904   9.545   5.883  1.00 52.93 LIG 0.26  C 
ATOM     60 O    GLN C 841      -2.409   9.890   6.955  1.00 51.68 LIG-0.27  OA
BRANCH 59 61
ATOM     61  CA  GLN C 841      -1.614  10.584   4.796  1.00 52.44 LIG 0.40  C 
ATOM     62  N   GLN C 841      -2.802  11.403   4.559  1.00 53.67 LIG 0.61  N 
BRANCH 61 63
ATOM     63  CB  GLN C 841      -0.404  11.465   5.180  1.00 53.85 LIG 0.06  C 
BRANCH 63 64
ATOM     64  CG  GLN C 841      -0.692  12.538   6.243  1.00 74.06 LIG 0.10  C 
BRANCH 64 65
ATOM     65  CD  GLN C 841       0.481  13.445   6.569  1.00 99.82 LIG 0.21  C 
ATOM     66 OE1  GLN C 841       1.644  13.162   6.249  1.00 97.42 LIG-0.27  OA
ATOM     67  NE2 GLN C 841       0.189  14.587   7.176  1.00 91.89 LIG-0.37  N 
ATOM     68 22HE GLN C 841       0.813  15.150   7.355  1.00 91.89 LIG 0.16  HD
ATOM     69 21HE GLN C 841      -0.625  14.765   7.390  1.00 91.89 LIG 0.16  HD
ENDBRANCH 64 65
ENDBRANCH 63 64
ENDBRANCH 61 63
ENDBRANCH 59 61
ENDBRANCH 48 57
ENDBRANCH 45 48
ENDBRANCH 1 44
TORSDOF 29
ENDMDL
MODEL 9
USER: ADFR SOLUTION from run 100
USER: SCORE 19.709895 LL:  -3.044 LR: -19.357 RR:   0.000 FEB: -10.706
USER: RMSD 2.130133
USER: SEED 99
USER: STATUS searching
USER: GENES 31
USER: genes 0 Translation |==|  0.54179 0.53583 0.44307
USER: genes 1 Rotation |==|  0.47637 0.55331 0.46848 0.99559
USER: genes 2 Torsion [N]-CA--C-[N] |==|  0.35562
USER: genes 3 Torsion [C]-N--CA-[CB] |==|  0.47381
USER: genes 4 Torsion [N]-CA--CB-[OG] |==|  0.91807
USER: genes 5 Torsion [CA]-CB--OG-[HG] |==|  0.75367
USER: genes 6 Torsion [N]-CA--C-[N] |==|  0.49106
USER: genes 7 Torsion [C]-N--CA-[CB] |==|  0.30341
USER: genes 8 Torsion [N]-CA--CB-[CG] |==|  0.48063
USER: genes 9 Torsion [CA]-CB--CG-[CD2] |==|  0.04326
USER: genes 10 Torsion [N]-CA--C-[N] |==|  0.30023
USER: genes 11 Torsion [C]-N--CA-[CB] |==|  0.37452
USER: genes 12 Torsion [N]-CA--CB-[OG] |==|  0.74793
USER: genes 13 Torsion [CA]-CB--OG-[HG] |==|  0.83346
USER: genes 14 Torsion [N]-CA--C-[O] |==|  0.22991
USER: genes 15 Torsion [C]-CA--CB-[CG] |==|  0.82031
USER: genes 16 Torsion [CA]-CB--CG-[CD] |==|  0.46027
USER: genes 17 Torsion [CB]-CG--CD-[NE] |==|  0.42001
USER: genes 18 Torsion [CG]-CD--NE-[CZ] |==|  0.28977
USER: genes 19 Torsion [C]-CA--N-[C] |==|  0.63250
USER: genes 20 Torsion [N]-C--CA-[N] |==|  0.37886
USER: genes 21 Torsion [C]-CA--CB-[CG] |==|  0.53167
USER: genes 22 Torsion [CA]-CB--CG-[CD] |==|  0.48540
USER: genes 23 Torsion [CB]-CG--CD-[CE] |==|  0.65544
USER: genes 24 Torsion [CG]-CD--CE-[NZ] |==|  0.51850
USER: genes 25 Torsion [CD]-CE--NZ-[HZ2] |==|  0.83467
USER: genes 26 Torsion [C]-CA--N-[C] |==|  0.63191
USER: genes 27 Torsion [N]-C--CA-[N] |==|  0.89537
USER: genes 28 Torsion [C]-CA--CB-[CG] |==|  0.94725
USER: genes 29 Torsion [CA]-CB--CG-[CD] |==|  0.56629
USER: genes 30 Torsion [CB]-CG--CD-[OE1] |==|  0.26130
ROOT
ATOM      1  CA  ARG C 843       1.192   5.385   7.797  1.00 48.28 LIG 0.18  C 
ENDROOT
BRANCH 1 2
ATOM      2  C   ARG C 843       1.013   4.295   8.848  1.00 51.26 LIG 0.24  C 
ATOM      3  N   SER C 844       1.324   3.042   8.475  1.00 48.21 LIG-0.34  N 
ATOM      4 H    SER C 844       1.590   2.837   7.684  1.00 48.21 LIG 0.16  HD
ATOM      5 O    ARG C 843       0.590   4.583   9.973  1.00 49.46 LIG-0.27  OA
BRANCH 3 6
ATOM      6  CA  SER C 844       1.238   1.895   9.386  1.00 48.58 LIG 0.20  C 
BRANCH 6 7
ATOM      7  CB  SER C 844       1.426   0.583   8.625  1.00 52.82 LIG 0.20  C 
BRANCH 7 8
ATOM      8 OG   SER C 844       0.980   0.665   7.279  1.00 64.87 LIG-0.40  OA
ATOM      9 HG   SER C 844       0.166   0.465   7.241  1.00 64.87 LIG 0.21  HD
ENDBRANCH 7 8
ENDBRANCH 6 7
BRANCH 6 10
ATOM     10  C   SER C 844       2.278   2.016  10.503  1.00 51.88 LIG 0.24  C 
ATOM     11  N   PHE C 845       2.267   1.062  11.452  1.00 48.65 LIG-0.35  N 
ATOM     12 H    PHE C 845       1.687   0.428  11.473  1.00 48.65 LIG 0.16  HD
ATOM     13 O    SER C 844       3.067   2.966  10.509  1.00 50.80 LIG-0.27  OA
BRANCH 11 14
ATOM     14  CA  PHE C 845       3.241   1.004  12.544  1.00 48.60 LIG 0.18  C 
BRANCH 14 15
ATOM     15  CB  PHE C 845       2.595   1.363  13.905  1.00 50.69 LIG 0.07  C 
BRANCH 15 16
ATOM     16  CG  PHE C 845       3.413   1.202  15.178  1.00 53.32 LIG-0.06  A 
ATOM     17  CD2 PHE C 845       4.793   1.054  15.121  1.00 56.28 LIG 0.01  A 
ATOM     18  CE2 PHE C 845       5.554   0.905  16.289  1.00 59.52 LIG 0.00  A 
ATOM     19  CZ  PHE C 845       4.934   0.864  17.512  1.00 57.95 LIG 0.00  A 
ATOM     20  CE1 PHE C 845       3.561   0.993  17.592  1.00 59.50 LIG 0.00  A 
ATOM     21  CD1 PHE C 845       2.800   1.145  16.425  1.00 58.05 LIG 0.01  A 
ENDBRANCH 15 16
ENDBRANCH 14 15
BRANCH 14 22
ATOM     22  C   PHE C 845       3.856  -0.400  12.528  1.00 51.55 LIG 0.24  C 
ATOM     23 O    PHE C 845       3.181  -1.391  12.834  1.00 49.31 LIG-0.27  OA
ATOM     24  N   SER C 846       5.130  -0.473  12.101  1.00 48.84 LIG-0.34  N 
ATOM     25 H    SER C 846       5.577   0.221  11.861  1.00 48.84 LIG 0.16  HD
BRANCH 24 26
ATOM     26  CA  SER C 846       5.898  -1.714  11.996  1.00 80.27 LIG 0.19  C 
BRANCH 26 27
ATOM     27  CB  SER C 846       6.645  -1.765  10.666  1.00 83.79 LIG 0.20  C 
BRANCH 27 28
ATOM     28 OG   SER C 846       5.868  -2.392   9.658  1.00 92.96 LIG-0.40  OA
ATOM     29 HG   SER C 846       5.686  -3.178   9.893  1.00 92.96 LIG 0.21  HD
ENDBRANCH 27 28
ENDBRANCH 26 27
BRANCH 26 30
ATOM     30  C   SER C 846       6.876  -1.844  13.154  1.00107.57 LIG 0.22  C 
ATOM     31 O    SER C 846       6.489  -2.283  14.235  1.00 73.66 LIG-0.29  OA
ENDBRANCH 26 30
ENDBRANCH 24 26
ENDBRANCH 14 22
ENDBRANCH 11 14
ENDBRANCH 6 10
ENDBRANCH 3 6
ENDBRANCH 1 2
BRANCH 1 32
ATOM     32  CB  ARG C 843       2.416   6.278   8.152  1.00 50.74 LIG 0.04  C 
BRANCH 32 33
ATOM     33  CG  ARG C 843       2.261   7.079   9.454  1.00 63.97 LIG 0.02  C 
BRANCH 33 34
ATOM     34  CD  ARG C 843       3.555   7.666   9.969  1.00 82.46 LIG 0.14  C 
BRANCH 34 35
ATOM     35  NE  ARG C 843       3.299   8.890  10.724  1.00 98.18 LIG-0.23  N 
ATOM     36 HE   ARG C 843       3.111   9.602  10.280  1.00 98.18 LIG 0.18  HD
ATOM     37  CZ  ARG C 843       3.337   8.979  12.049  1.00115.63 LIG 0.67  C 
ATOM     38  NH2 ARG C 843       3.064  10.126  12.650  1.00101.74 LIG-0.23  N 
ATOM     39  NH1 ARG C 843       3.658   7.920  12.784  1.00105.44 LIG-0.23  N 
ATOM     40 1HH2 ARG C 843       2.860  10.819  12.183  1.00101.74 LIG 0.17  HD
ATOM     41 2HH2 ARG C 843       3.089  10.179  13.508  1.00101.74 LIG 0.17  HD
ATOM     42 1HH1 ARG C 843       3.844   7.172  12.403  1.00105.44 LIG 0.17  HD
ATOM     43 2HH1 ARG C 843       3.681   7.983  13.642  1.00105.44 LIG 0.17  HD
ENDBRANCH 34 35
ENDBRANCH 33 34
ENDBRANCH 32 33
ENDBRANCH 1 32
BRANCH 1 44
ATOM     44  N   ARG C 843      -0.035   6.182   7.662  1.00 47.52 LIG-0.35  N 
ATOM     45  C   LYS C 842      -0.573   6.472   6.469  1.00 51.06 LIG 0.24  C 
ATOM     46 O    LYS C 842      -0.090   6.088   5.400  1.00 51.08 LIG-0.27  OA
ATOM     47 H    ARG C 843      -0.370   6.441   8.411  1.00 47.52 LIG 0.16  HD
BRANCH 45 48
ATOM     48  CA  LYS C 842      -1.833   7.322   6.461  1.00 46.69 LIG 0.18  C 
BRANCH 48 49
ATOM     49  CB  LYS C 842      -3.073   6.429   6.274  1.00 47.71 LIG 0.04  C 
BRANCH 49 50
ATOM     50  CG  LYS C 842      -4.357   7.186   5.980  1.00 50.03 LIG 0.00  C 
BRANCH 50 51
ATOM     51  CD  LYS C 842      -5.490   6.217   5.685  1.00 53.65 LIG 0.03  C 
BRANCH 51 52
ATOM     52  CE  LYS C 842      -6.109   6.504   4.342  1.00 52.95 LIG 0.23  C 
BRANCH 52 53
ATOM     53  NZ  LYS C 842      -7.316   5.682   4.092  1.00 44.67 LIG-0.08  N 
ATOM     54 HZ3  LYS C 842      -7.928   5.856   4.713  1.00 44.67 LIG 0.27  HD
ATOM     55 HZ2  LYS C 842      -7.099   4.819   4.122  1.00 44.67 LIG 0.27  HD
ATOM     56 HZ1  LYS C 842      -7.646   5.877   3.288  1.00 44.67 LIG 0.27  HD
ENDBRANCH 52 53
ENDBRANCH 51 52
ENDBRANCH 50 51
ENDBRANCH 49 50
ENDBRANCH 48 49
BRANCH 48 57
ATOM     57  N   LYS C 842      -1.734   8.338   5.416  1.00 47.24 LIG-0.35  N 
ATOM     58 H    LYS C 842      -1.473   8.019   4.661  1.00 47.24 LIG 0.16  HD
ATOM     59  C   GLN C 841      -2.014   9.638   5.588  1.00 52.93 LIG 0.26  C 
ATOM     60 O    GLN C 841      -2.437  10.107   6.649  1.00 51.68 LIG-0.27  OA
BRANCH 59 61
ATOM     61  CA  GLN C 841      -1.841  10.539   4.361  1.00 52.44 LIG 0.40  C 
ATOM     62  N   GLN C 841      -0.671  10.115   3.591  1.00 53.67 LIG 0.61  N 
BRANCH 61 63
ATOM     63  CB  GLN C 841      -3.112  10.527   3.482  1.00 53.85 LIG 0.06  C 
BRANCH 63 64
ATOM     64  CG  GLN C 841      -4.058   9.338   3.720  1.00 74.06 LIG 0.10  C 
BRANCH 64 65
ATOM     65  CD  GLN C 841      -4.961   8.995   2.549  1.00 99.82 LIG 0.21  C 
ATOM     66 OE1  GLN C 841      -4.655   8.136   1.709  1.00 97.42 LIG-0.27  OA
ATOM     67  NE2 GLN C 841      -6.123   9.630   2.498  1.00 91.89 LIG-0.37  N 
ATOM     68 22HE GLN C 841      -6.684   9.449   1.872  1.00 91.89 LIG 0.16  HD
ATOM     69 21HE GLN C 841      -6.316  10.222   3.090  1.00 91.89 LIG 0.16  HD
ENDBRANCH 64 65
ENDBRANCH 63 64
ENDBRANCH 61 63
ENDBRANCH 59 61
ENDBRANCH 48 57
ENDBRANCH 45 48
ENDBRANCH 1 44
TORSDOF 29
ENDMDL
MODEL 10
USER: ADFR SOLUTION from run 174
USER: SCORE 20.364473 LL:  -2.867 LR: -19.137 RR:   0.000 FEB: -10.487
USER: RMSD 4.064547
USER: SEED 173
USER: STATUS searching
USER: GENES 31
USER: genes 0 Translation |==|  0.54715 0.52356 0.47571
USER: genes 1 Rotation |==|  0.45203 0.50958 0.45482 0.99555
USER: genes 2 Torsion [N]-CA--C-[N] |==|  0.47108
USER: genes 3 Torsion [C]-N--CA-[CB] |==|  0.20442
USER: genes 4 Torsion [N]-CA--CB-[OG] |==|  0.12530
USER: genes 5 Torsion [CA]-CB--OG-[HG] |==|  0.68251
USER: genes 6 Torsion [N]-CA--C-[N] |==|  0.60257
USER: genes 7 Torsion [C]-N--CA-[CB] |==|  0.79444
USER: genes 8 Torsion [N]-CA--CB-[CG] |==|  0.83431
USER: genes 9 Torsion [CA]-CB--CG-[CD2] |==|  0.53122
USER: genes 10 Torsion [N]-CA--C-[N] |==|  0.17647
USER: genes 11 Torsion [C]-N--CA-[CB] |==|  0.46335
USER: genes 12 Torsion [N]-CA--CB-[OG] |==|  0.89016
USER: genes 13 Torsion [CA]-CB--OG-[HG] |==|  0.45788
USER: genes 14 Torsion [N]-CA--C-[O] |==|  0.07133
USER: genes 15 Torsion [C]-CA--CB-[CG] |==|  0.74111
USER: genes 16 Torsion [CA]-CB--CG-[CD] |==|  0.53970
USER: genes 17 Torsion [CB]-CG--CD-[NE] |==|  0.78638
USER: genes 18 Torsion [CG]-CD--NE-[CZ] |==|  0.80446
USER: genes 19 Torsion [C]-CA--N-[C] |==|  0.60556
USER: genes 20 Torsion [N]-C--CA-[N] |==|  0.35206
USER: genes 21 Torsion [C]-CA--CB-[CG] |==|  0.43362
USER: genes 22 Torsion [CA]-CB--CG-[CD] |==|  0.52996
USER: genes 23 Torsion [CB]-CG--CD-[CE] |==|  0.65696
USER: genes 24 Torsion [CG]-CD--CE-[NZ] |==|  0.59444
USER: genes 25 Torsion [CD]-CE--NZ-[HZ2] |==|  0.18121
USER: genes 26 Torsion [C]-CA--N-[C] |==|  0.63134
USER: genes 27 Torsion [N]-C--CA-[N] |==|  0.82051
USER: genes 28 Torsion [C]-CA--CB-[CG] |==|  0.19017
USER: genes 29 Torsion [CA]-CB--CG-[CD] |==|  0.28225
USER: genes 30 Torsion [CB]-CG--CD-[OE1] |==|  0.14935
ROOT
ATOM      1  CA  ARG C 843       1.321   5.100   8.630  1.00 48.28 LIG 0.18  C 
ENDROOT
BRANCH 1 2
ATOM      2  C   ARG C 843       0.920   4.143   9.748  1.00 51.26 LIG 0.24  C 
ATOM      3  N   SER C 844       1.816   3.200  10.084  1.00 48.21 LIG-0.34  N 
ATOM      4 H    SER C 844       2.574   3.106   9.688  1.00 48.21 LIG 0.16  HD
ATOM      5 O    ARG C 843      -0.186   4.251  10.288  1.00 49.46 LIG-0.27  OA
BRANCH 3 6
ATOM      6  CA  SER C 844       1.589   2.234  11.163  1.00 48.58 LIG 0.20  C 
BRANCH 6 7
ATOM      7  CB  SER C 844       0.569   1.177  10.739  1.00 52.82 LIG 0.20  C 
BRANCH 7 8
ATOM      8 OG   SER C 844       0.812   0.679   9.432  1.00 64.87 LIG-0.40  OA
ATOM      9 HG   SER C 844       0.181   0.901   8.925  1.00 64.87 LIG 0.21  HD
ENDBRANCH 7 8
ENDBRANCH 6 7
BRANCH 6 10
ATOM     10  C   SER C 844       2.905   1.569  11.577  1.00 51.88 LIG 0.24  C 
ATOM     11  N   PHE C 845       2.851   0.267  11.910  1.00 48.65 LIG-0.35  N 
ATOM     12 H    PHE C 845       2.117  -0.181  11.938  1.00 48.65 LIG 0.16  HD
ATOM     13 O    SER C 844       3.947   2.231  11.604  1.00 50.80 LIG-0.27  OA
BRANCH 11 14
ATOM     14  CA  PHE C 845       4.033  -0.522  12.261  1.00 48.60 LIG 0.18  C 
BRANCH 14 15
ATOM     15  CB  PHE C 845       4.887  -0.859  11.013  1.00 50.69 LIG 0.07  C 
BRANCH 15 16
ATOM     16  CG  PHE C 845       4.259  -1.654   9.879  1.00 53.32 LIG-0.06  A 
ATOM     17  CD2 PHE C 845       5.043  -2.173   8.857  1.00 56.28 LIG 0.01  A 
ATOM     18  CE2 PHE C 845       4.471  -2.908   7.808  1.00 59.52 LIG 0.00  A 
ATOM     19  CZ  PHE C 845       3.112  -3.091   7.758  1.00 57.95 LIG 0.00  A 
ATOM     20  CE1 PHE C 845       2.311  -2.571   8.755  1.00 59.50 LIG 0.00  A 
ATOM     21  CD1 PHE C 845       2.882  -1.839   9.806  1.00 58.05 LIG 0.01  A 
ENDBRANCH 15 16
ENDBRANCH 14 15
BRANCH 14 22
ATOM     22  C   PHE C 845       4.810   0.271  13.318  1.00 51.55 LIG 0.24  C 
ATOM     23 O    PHE C 845       5.926   0.740  13.065  1.00 49.31 LIG-0.27  OA
ATOM     24  N   SER C 846       4.169   0.470  14.485  1.00 48.84 LIG-0.34  N 
ATOM     25 H    SER C 846       3.379   0.165  14.636  1.00 48.84 LIG 0.16  HD
BRANCH 24 26
ATOM     26  CA  SER C 846       4.723   1.211  15.618  1.00 80.27 LIG 0.19  C 
BRANCH 26 27
ATOM     27  CB  SER C 846       3.630   1.521  16.637  1.00 83.79 LIG 0.20  C 
BRANCH 27 28
ATOM     28 OG   SER C 846       2.414   1.877  15.999  1.00 92.96 LIG-0.40  OA
ATOM     29 HG   SER C 846       1.784   1.840  16.555  1.00 92.96 LIG 0.21  HD
ENDBRANCH 27 28
ENDBRANCH 26 27
BRANCH 26 30
ATOM     30  C   SER C 846       5.849   0.427  16.277  1.00107.57 LIG 0.22  C 
ATOM     31 O    SER C 846       6.487  -0.394  15.623  1.00 73.66 LIG-0.29  OA
ENDBRANCH 26 30
ENDBRANCH 24 26
ENDBRANCH 14 22
ENDBRANCH 11 14
ENDBRANCH 6 10
ENDBRANCH 3 6
ENDBRANCH 1 2
BRANCH 1 32
ATOM     32  CB  ARG C 843       2.507   5.996   9.088  1.00 50.74 LIG 0.04  C 
BRANCH 32 33
ATOM     33  CG  ARG C 843       2.088   7.344   9.693  1.00 63.97 LIG 0.02  C 
BRANCH 33 34
ATOM     34  CD  ARG C 843       3.219   8.337   9.819  1.00 82.46 LIG 0.14  C 
BRANCH 34 35
ATOM     35  NE  ARG C 843       4.070   8.006  10.959  1.00 98.18 LIG-0.23  N 
ATOM     36 HE   ARG C 843       4.859   7.706  10.795  1.00 98.18 LIG 0.18  HD
ATOM     37  CZ  ARG C 843       3.709   8.137  12.230  1.00115.63 LIG 0.67  C 
ATOM     38  NH2 ARG C 843       4.558   7.837  13.201  1.00101.74 LIG-0.23  N 
ATOM     39  NH1 ARG C 843       2.488   8.560  12.542  1.00105.44 LIG-0.23  N 
ATOM     40 1HH2 ARG C 843       5.348   7.557  13.010  1.00101.74 LIG 0.17  HD
ATOM     41 2HH2 ARG C 843       4.319   7.924  14.023  1.00101.74 LIG 0.17  HD
ATOM     42 1HH1 ARG C 843       1.927   8.751  11.919  1.00105.44 LIG 0.17  HD
ATOM     43 2HH1 ARG C 843       2.259   8.643  13.367  1.00105.44 LIG 0.17  HD
ENDBRANCH 34 35
ENDBRANCH 33 34
ENDBRANCH 32 33
ENDBRANCH 1 32
BRANCH 1 44
ATOM     44  N   ARG C 843       0.171   5.907   8.200  1.00 47.52 LIG-0.35  N 
ATOM     45  C   LYS C 842      -0.038   6.229   6.916  1.00 51.06 LIG 0.24  C 
ATOM     46 O    LYS C 842       0.705   5.867   6.000  1.00 51.08 LIG-0.27  OA
ATOM     47 H    ARG C 843      -0.347   6.150   8.842  1.00 47.52 LIG 0.16  HD
BRANCH 45 48
ATOM     48  CA  LYS C 842      -1.254   7.086   6.602  1.00 46.69 LIG 0.18  C 
BRANCH 48 49
ATOM     49  CB  LYS C 842      -2.312   6.252   5.856  1.00 47.71 LIG 0.04  C 
BRANCH 49 50
ATOM     50  CG  LYS C 842      -3.733   6.774   5.987  1.00 50.03 LIG 0.00  C 
BRANCH 50 51
ATOM     51  CD  LYS C 842      -4.725   5.755   5.451  1.00 53.65 LIG 0.03  C 
BRANCH 51 52
ATOM     52  CE  LYS C 842      -5.584   6.356   4.368  1.00 52.95 LIG 0.23  C 
BRANCH 52 53
ATOM     53  NZ  LYS C 842      -6.961   5.811   4.374  1.00 44.67 LIG-0.08  N 
ATOM     54 HZ3  LYS C 842      -7.411   6.133   3.677  1.00 44.67 LIG 0.27  HD
ATOM     55 HZ2  LYS C 842      -7.371   6.050   5.127  1.00 44.67 LIG 0.27  HD
ATOM     56 HZ1  LYS C 842      -6.929   4.923   4.322  1.00 44.67 LIG 0.27  HD
ENDBRANCH 52 53
ENDBRANCH 51 52
ENDBRANCH 50 51
ENDBRANCH 49 50
ENDBRANCH 48 49
BRANCH 48 57
ATOM     57  N   LYS C 842      -0.843   8.257   5.829  1.00 47.24 LIG-0.35  N 
ATOM     58 H    LYS C 842      -0.321   8.060   5.175  1.00 47.24 LIG 0.16  HD
ATOM     59  C   GLN C 841      -1.226   9.515   6.092  1.00 52.93 LIG 0.26  C 
ATOM     60 O    GLN C 841      -2.014   9.811   6.995  1.00 51.68 LIG-0.27  OA
BRANCH 59 61
ATOM     61  CA  GLN C 841      -0.677  10.600   5.160  1.00 52.44 LIG 0.40  C 
ATOM     62  N   GLN C 841       0.777  10.687   5.296  1.00 53.67 LIG 0.61  N 
BRANCH 61 63
ATOM     63  CB  GLN C 841      -1.078  10.324   3.693  1.00 53.85 LIG 0.06  C 
BRANCH 63 64
ATOM     64  CG  GLN C 841      -2.577  10.476   3.388  1.00 74.06 LIG 0.10  C 
BRANCH 64 65
ATOM     65  CD  GLN C 841      -2.962  11.773   2.699  1.00 99.82 LIG 0.21  C 
ATOM     66 OE1  GLN C 841      -2.419  12.149   1.651  1.00 97.42 LIG-0.27  OA
ATOM     67  NE2 GLN C 841      -3.948  12.463   3.254  1.00 91.89 LIG-0.37  N 
ATOM     68 22HE GLN C 841      -4.225  13.188   2.886  1.00 91.89 LIG 0.16  HD
ATOM     69 21HE GLN C 841      -4.312  12.184   3.982  1.00 91.89 LIG 0.16  HD
ENDBRANCH 64 65
ENDBRANCH 63 64
ENDBRANCH 61 63
ENDBRANCH 59 61
ENDBRANCH 48 57
ENDBRANCH 45 48
ENDBRANCH 1 44
TORSDOF 29
ENDMDL
