MODEL 1
USER: ADFR SOLUTION from run 17
USER: SCORE 14.083196 LL:  -1.803 LR: -13.045 RR:   0.000 FEB: -10.361
USER: RMSD 1.220966
USER: SEED 16
USER: STATUS 1 or 2 clusters left
USER: GENES 11
USER: genes 0 Translation |==|  0.53030 0.58294 0.40931
USER: genes 1 Rotation |==|  0.52796 0.43385 0.47729 0.99429
USER: genes 2 Torsion [C]-N--CA-[CB] |==|  0.49673
USER: genes 3 Torsion [N]-CA--CB-[CG2] |==|  0.79276
USER: genes 4 Torsion [N]-CA--C-[N] |==|  0.36668
USER: genes 5 Torsion [C]-N--CA-[CB] |==|  0.29883
USER: genes 6 Torsion [N]-CA--C-[O] |==|  0.35574
USER: genes 7 Torsion [N]-C--CA-[N] |==|  0.28359
USER: genes 8 Torsion [C]-CA--N-[H2] |==|  0.81429
USER: genes 9 Torsion [C]-CA--CB-[CG] |==|  0.14074
USER: genes 10 Torsion [CA]-CB--CG-[OD2] |==|  0.77275
ROOT
ATOM      1  C   ASP B   1      12.014  -5.955  18.724  1.00 14.06 LIG 0.25  C 
ATOM      2 O    ASP B   1      12.636  -5.597  19.732  1.00 13.02 LIG-0.27  OA
ATOM      3  N   VAL B   2      11.065  -6.887  18.755  1.00 15.42 LIG-0.35  N 
ATOM      4 H    VAL B   2      10.628  -7.160  18.066  1.00 15.42 LIG 0.16  HD
ENDROOT
BRANCH 3 5
ATOM      5  CA  VAL B   2      10.693  -7.530  20.010  1.00 13.63 LIG 0.18  C 
BRANCH 5 6
ATOM      6  CB  VAL B   2       9.554  -8.556  19.815  1.00 22.00 LIG 0.01  C 
ATOM      7  CG2 VAL B   2       8.237  -7.848  19.610  1.00 31.03 LIG 0.01  C 
ATOM      8  CG1 VAL B   2       9.471  -9.497  21.006  1.00 26.65 LIG 0.01  C 
ENDBRANCH 5 6
BRANCH 5 9
ATOM      9  C   VAL B   2      11.894  -8.193  20.696  1.00 16.31 LIG 0.24  C 
ATOM     10 O    VAL B   2      12.669  -8.914  20.068  1.00 16.18 LIG-0.27  OA
ATOM     11  N   ALA B   3      12.046  -7.931  21.990  1.00 17.95 LIG-0.34  N 
ATOM     12 H    ALA B   3      11.539  -7.396  22.432  1.00 17.95 LIG 0.16  HD
BRANCH 11 13
ATOM     13  CA  ALA B   3      13.109  -8.545  22.787  1.00 23.42 LIG 0.18  C 
ATOM     14  CB  ALA B   3      14.183  -7.519  23.116  1.00 32.12 LIG 0.04  C 
BRANCH 13 15
ATOM     15  C   ALA B   3      12.537  -9.141  24.071  1.00 26.28 LIG 0.20  C 
ATOM     16 O    ALA B   3      12.755 -10.306  24.411  1.00 32.58 LIG-0.65  OA
ATOM     17 OXT  ALA B   3      11.838  -8.455  24.809  1.00 24.09 LIG-0.65  OA
ENDBRANCH 13 15
ENDBRANCH 11 13
ENDBRANCH 5 9
ENDBRANCH 3 5
BRANCH 1 18
ATOM     18  CA  ASP B   1      12.302  -5.316  17.364  1.00 13.24 LIG 0.28  C 
BRANCH 18 19
ATOM     19  N   ASP B   1      11.680  -3.999  17.288  1.00 13.44 LIG-0.07  N 
ATOM     20 H2   ASP B   1      10.794  -4.089  17.292  1.00 13.44 LIG 0.28  HD
ATOM     21 H3   ASP B   1      11.932  -3.511  17.988  1.00 13.44 LIG 0.28  HD
ATOM     22 H1   ASP B   1      11.934  -3.594  16.538  1.00 13.44 LIG 0.28  HD
ENDBRANCH 18 19
BRANCH 18 23
ATOM     23  CB  ASP B   1      13.814  -5.225  17.084  1.00 18.19 LIG 0.15  C 
BRANCH 23 24
ATOM     24  CG  ASP B   1      14.552  -6.555  17.296  1.00 31.60 LIG 0.17  C 
ATOM     25 OD2  ASP B   1      14.886  -6.886  18.465  1.00 40.27 LIG-0.65  OA
ATOM     26 OD1  ASP B   1      14.821  -7.264  16.306  1.00 39.31 LIG-0.65  OA
ENDBRANCH 23 24
ENDBRANCH 18 23
ENDBRANCH 1 18
TORSDOF 9
ENDMDL
