MODEL 1
USER: ADFR SOLUTION from run 80
USER: SCORE 18.395310 LL:  -2.196 LR: -18.727 RR:   0.000 FEB: -11.568
USER: RMSD 4.908482
USER: SEED 79
USER: STATUS no improvement in best in 9 clusters for 5 generations
USER: GENES 26
USER: genes 0 Translation |==|  0.52749 0.46586 0.46740
USER: genes 1 Rotation |==|  0.50770 0.44513 0.52782 0.99614
USER: genes 2 Torsion [CB]-CA--N-[C] |==|  0.37971
USER: genes 3 Torsion [N]-C--CA-[N] |==|  0.38578
USER: genes 4 Torsion [C]-CA--CB-[CG] |==|  0.82958
USER: genes 5 Torsion [CA]-CB--CG-[CD] |==|  0.43595
USER: genes 6 Torsion [CB]-CG--CD-[NE] |==|  0.46865
USER: genes 7 Torsion [CG]-CD--NE-[HE] |==|  0.86897
USER: genes 8 Torsion [C]-CA--N-[C] |==|  0.76756
USER: genes 9 Torsion [N]-C--CA-[N] |==|  0.36955
USER: genes 10 Torsion [C]-CA--N-[H1] |==|  0.20558
USER: genes 11 Torsion [N]-CA--CB-[CG2] |==|  0.29409
USER: genes 12 Torsion [CA]-CB--OG1-[HG1] |==|  0.72902
USER: genes 13 Torsion [N]-CA--C-[N] |==|  0.42862
USER: genes 14 Torsion [C]-N--CA-[CB] |==|  0.21198
USER: genes 15 Torsion [N]-CA--C-[N] |==|  0.80040
USER: genes 16 Torsion [C]-N--CA-[CB] |==|  0.02933
USER: genes 17 Torsion [N]-CA--CB-[CG] |==|  0.36536
USER: genes 18 Torsion [CA]-CB--CG-[CD] |==|  0.36989
USER: genes 19 Torsion [CB]-CG--CD-[OE1] |==|  0.69380
USER: genes 20 Torsion [N]-CA--C-[O] |==|  0.92574
USER: genes 21 Torsion [N]-CA--CB-[CG] |==|  0.45203
USER: genes 22 Torsion [CA]-CB--CG-[CD] |==|  0.62180
USER: genes 23 Torsion [CB]-CG--CD-[CE] |==|  0.74987
USER: genes 24 Torsion [CG]-CD--CE-[NZ] |==|  0.46055
USER: genes 25 Torsion [CD]-CE--NZ-[HZ2] |==|  0.07563
ROOT
ATOM      1  CA  THR D   3      15.705  15.953 147.751  1.00 39.79 LIG 0.20  C 
ENDROOT
BRANCH 1 2
ATOM      2  N   THR D   3      14.619  15.627 146.830  1.00 34.46 LIG-0.34  N 
ATOM      3  C   ARG D   2      14.258  14.367 146.587  1.00 39.53 LIG 0.24  C 
ATOM      4 O    ARG D   2      14.888  13.399 147.019  1.00 39.08 LIG-0.27  OA
ATOM      5 H    THR D   3      14.243  16.311 146.468  1.00 34.46 LIG 0.16  HD
BRANCH 3 6
ATOM      6  CA  ARG D   2      13.015  14.153 145.713  1.00 42.24 LIG 0.18  C 
BRANCH 6 7
ATOM      7  CB  ARG D   2      11.801  13.807 146.579  1.00 49.82 LIG 0.04  C 
BRANCH 7 8
ATOM      8  CG  ARG D   2      11.899  12.534 147.406  1.00 55.24 LIG 0.02  C 
BRANCH 8 9
ATOM      9  CD  ARG D   2      10.936  12.606 148.601  1.00 55.63 LIG 0.14  C 
BRANCH 9 10
ATOM     10  NE  ARG D   2      10.783  11.322 149.287  1.00 65.78 LIG-0.23  N 
ATOM     11 HE   ARG D   2      10.644  10.626 148.803  1.00 65.78 LIG 0.18  HD
ATOM     12  CZ  ARG D   2      10.842  11.152 150.606  1.00 70.57 LIG 0.67  C 
ATOM     13  NH1 ARG D   2      11.047  12.188 151.408  1.00 66.11 LIG-0.23  N 
ATOM     14  NH2 ARG D   2      10.691   9.942 151.129  1.00 74.94 LIG-0.23  N 
ATOM     15 1HH1 ARG D   2      11.142  12.975 151.078  1.00 66.11 LIG 0.17  HD
ATOM     16 2HH1 ARG D   2      11.084  12.072 152.260  1.00 66.11 LIG 0.17  HD
ATOM     17 2HH2 ARG D   2      10.729   9.834 151.982  1.00 74.94 LIG 0.17  HD
ATOM     18 1HH2 ARG D   2      10.554   9.266 150.616  1.00 74.94 LIG 0.17  HD
ENDBRANCH 9 10
ENDBRANCH 8 9
ENDBRANCH 7 8
ENDBRANCH 6 7
BRANCH 6 19
ATOM     19  N   ARG D   2      13.245  13.053 144.780  1.00 42.84 LIG-0.35  N 
ATOM     20  C   ALA D   1      13.872  13.222 143.628  1.00 44.74 LIG 0.25  C 
ATOM     21 O    ALA D   1      14.236  14.323 143.224  1.00 48.31 LIG-0.27  OA
ATOM     22 H    ARG D   2      12.939  12.296 145.048  1.00 42.84 LIG 0.16  HD
BRANCH 20 23
ATOM     23  CA  ALA D   1      14.113  11.956 142.804  1.00 45.19 LIG 0.27  C 
ATOM     24  CB  ALA D   1      15.564  11.537 142.895  1.00 43.32 LIG 0.05  C 
BRANCH 23 25
ATOM     25  N   ALA D   1      13.739  12.166 141.416  1.00 39.75 LIG-0.07  N 
ATOM     26 H1   ALA D   1      14.350  12.676 141.018  1.00 39.75 LIG 0.28  HD
ATOM     27 H2   ALA D   1      13.691  11.381 141.000  1.00 39.75 LIG 0.28  HD
ATOM     28 H3   ALA D   1      12.947  12.570 141.380  1.00 39.75 LIG 0.28  HD
ENDBRANCH 23 25
ENDBRANCH 20 23
ENDBRANCH 6 19
ENDBRANCH 3 6
ENDBRANCH 1 2
BRANCH 1 29
ATOM     29  CB  THR D   3      16.631  17.057 147.192  1.00 46.90 LIG 0.15  C 
ATOM     30  CG2 THR D   3      16.391  18.376 147.901  1.00 44.81 LIG 0.04  C 
BRANCH 29 31
ATOM     31 OG1  THR D   3      18.001  16.673 147.371  1.00 48.09 LIG-0.39  OA
ATOM     32 HG1  THR D   3      18.306  17.038 148.064  1.00 48.09 LIG 0.21  HD
ENDBRANCH 29 31
ENDBRANCH 1 29
BRANCH 1 33
ATOM     33  C   THR D   3      15.146  16.425 149.093  1.00 42.40 LIG 0.24  C 
ATOM     34 O    THR D   3      14.047  16.985 149.161  1.00 40.34 LIG-0.27  OA
ATOM     35  N   LYS D   4      15.887  16.272 150.157  1.00 38.45 LIG-0.35  N 
ATOM     36 H    LYS D   4      16.641  15.860 150.174  1.00 38.45 LIG 0.16  HD
BRANCH 35 37
ATOM     37  CA  LYS D   4      15.456  16.813 151.422  1.00 37.56 LIG 0.18  C 
BRANCH 37 38
ATOM     38  C   LYS D   4      16.640  16.992 152.360  1.00 44.28 LIG 0.24  C 
ATOM     39 O    LYS D   4      17.007  18.077 152.614  1.00 49.08 LIG-0.27  OA
ATOM     40  N   GLN D   5      17.171  15.888 152.856  1.00 53.59 LIG-0.35  N 
ATOM     41 H    GLN D   5      16.692  15.173 152.855  1.00 53.59 LIG 0.16  HD
BRANCH 40 42
ATOM     42  CA  GLN D   5      18.500  15.582 153.460  1.00 61.39 LIG 0.16  C 
BRANCH 42 43
ATOM     43  CB  GLN D   5      19.386  16.796 153.772  1.00 20.00 LIG 0.04  C 
BRANCH 43 44
ATOM     44  CG  GLN D   5      19.983  16.767 155.200  1.00 20.00 LIG 0.10  C 
BRANCH 44 45
ATOM     45  CD  GLN D   5      21.475  17.075 155.318  1.00 20.00 LIG 0.21  C 
ATOM     46  NE2 GLN D   5      21.829  18.337 155.106  1.00 20.00 LIG-0.37  N 
ATOM     47 21HE GLN D   5      21.234  18.920 154.895  1.00 20.00 LIG 0.16  HD
ATOM     48 22HE GLN D   5      22.653  18.570 155.180  1.00 20.00 LIG 0.16  HD
ATOM     49 OE1  GLN D   5      22.292  16.202 155.623  1.00 20.00 LIG-0.27  OA
ENDBRANCH 44 45
ENDBRANCH 43 44
ENDBRANCH 42 43
BRANCH 42 50
ATOM     50  C   GLN D   5      18.712  14.508 154.499  1.00 64.61 LIG 0.22  C 
ATOM     51 O    GLN D   5      17.825  14.173 155.229  1.00 68.60 LIG-0.29  OA
ENDBRANCH 42 50
ENDBRANCH 40 42
ENDBRANCH 37 38
BRANCH 37 52
ATOM     52  CB  LYS D   4      14.369  15.945 152.017  1.00 33.42 LIG 0.04  C 
BRANCH 52 53
ATOM     53  CG  LYS D   4      14.140  16.157 153.441  1.00 40.53 LIG 0.00  C 
BRANCH 53 54
ATOM     54  CD  LYS D   4      13.999  14.892 154.105  1.00 50.17 LIG 0.03  C 
BRANCH 54 55
ATOM     55  CE  LYS D   4      12.567  14.440 154.134  1.00 57.03 LIG 0.23  C 
BRANCH 55 56
ATOM     56  NZ  LYS D   4      12.549  13.026 154.505  1.00 52.11 LIG-0.08  N 
ATOM     57 HZ3  LYS D   4      11.814  12.852 154.975  1.00 52.11 LIG 0.27  HD
ATOM     58 HZ2  LYS D   4      13.267  12.840 154.997  1.00 52.11 LIG 0.27  HD
ATOM     59 HZ1  LYS D   4      12.556  12.526 153.769  1.00 52.11 LIG 0.27  HD
ENDBRANCH 55 56
ENDBRANCH 54 55
ENDBRANCH 53 54
ENDBRANCH 52 53
ENDBRANCH 37 52
ENDBRANCH 35 37
ENDBRANCH 1 33
TORSDOF 24
ENDMDL
MODEL 2
USER: ADFR SOLUTION from run 141
USER: SCORE 17.849803 LL:  -1.891 LR: -18.330 RR:   0.000 FEB: -11.170
USER: RMSD 5.041443
USER: SEED 140
USER: STATUS no improvement in best in 25 clusters for 5 generations
USER: GENES 26
USER: genes 0 Translation |==|  0.50340 0.45814 0.51089
USER: genes 1 Rotation |==|  0.49912 0.54857 0.56999 0.99269
USER: genes 2 Torsion [CB]-CA--N-[C] |==|  0.28568
USER: genes 3 Torsion [N]-C--CA-[N] |==|  0.47770
USER: genes 4 Torsion [C]-CA--CB-[CG] |==|  0.17875
USER: genes 5 Torsion [CA]-CB--CG-[CD] |==|  0.45361
USER: genes 6 Torsion [CB]-CG--CD-[NE] |==|  0.11253
USER: genes 7 Torsion [CG]-CD--NE-[HE] |==|  0.25587
USER: genes 8 Torsion [C]-CA--N-[C] |==|  0.75273
USER: genes 9 Torsion [N]-C--CA-[N] |==|  0.22272
USER: genes 10 Torsion [C]-CA--N-[H1] |==|  0.73082
USER: genes 11 Torsion [N]-CA--CB-[CG2] |==|  0.71461
USER: genes 12 Torsion [CA]-CB--OG1-[HG1] |==|  0.78265
USER: genes 13 Torsion [N]-CA--C-[N] |==|  0.38046
USER: genes 14 Torsion [C]-N--CA-[CB] |==|  0.24772
USER: genes 15 Torsion [N]-CA--C-[N] |==|  0.45263
USER: genes 16 Torsion [C]-N--CA-[CB] |==|  0.02725
USER: genes 17 Torsion [N]-CA--CB-[CG] |==|  0.54316
USER: genes 18 Torsion [CA]-CB--CG-[CD] |==|  0.31566
USER: genes 19 Torsion [CB]-CG--CD-[OE1] |==|  0.26540
USER: genes 20 Torsion [N]-CA--C-[O] |==|  0.00627
USER: genes 21 Torsion [N]-CA--CB-[CG] |==|  0.73738
USER: genes 22 Torsion [CA]-CB--CG-[CD] |==|  0.48721
USER: genes 23 Torsion [CB]-CG--CD-[CE] |==|  0.68371
USER: genes 24 Torsion [CG]-CD--CE-[NZ] |==|  0.43474
USER: genes 25 Torsion [CD]-CE--NZ-[HZ2] |==|  0.90598
ROOT
ATOM      1  CA  THR D   3      15.254  15.785 148.762  1.00 39.79 LIG 0.20  C 
ENDROOT
BRANCH 1 2
ATOM      2  N   THR D   3      13.974  15.200 148.367  1.00 34.46 LIG-0.34  N 
ATOM      3  C   ARG D   2      13.903  14.043 147.710  1.00 39.53 LIG 0.24  C 
ATOM      4 O    ARG D   2      14.901  13.456 147.287  1.00 39.08 LIG-0.27  OA
ATOM      5 H    THR D   3      13.286  15.666 148.595  1.00 34.46 LIG 0.16  HD
BRANCH 3 6
ATOM      6  CA  ARG D   2      12.503  13.460 147.473  1.00 42.24 LIG 0.18  C 
BRANCH 6 7
ATOM      7  CB  ARG D   2      11.877  13.009 148.795  1.00 49.82 LIG 0.04  C 
BRANCH 7 8
ATOM      8  CG  ARG D   2      11.594  14.099 149.818  1.00 55.24 LIG 0.02  C 
BRANCH 8 9
ATOM      9  CD  ARG D   2      10.613  13.582 150.882  1.00 55.63 LIG 0.14  C 
BRANCH 9 10
ATOM     10  NE  ARG D   2      10.889  12.203 151.288  1.00 65.78 LIG-0.23  N 
ATOM     11 HE   ARG D   2      11.405  12.082 151.965  1.00 65.78 LIG 0.18  HD
ATOM     12  CZ  ARG D   2      10.401  11.121 150.685  1.00 70.57 LIG 0.67  C 
ATOM     13  NH1 ARG D   2       9.606  11.240 149.631  1.00 66.11 LIG-0.23  N 
ATOM     14  NH2 ARG D   2      10.713   9.911 151.134  1.00 74.94 LIG-0.23  N 
ATOM     15 1HH1 ARG D   2       9.402  12.020 149.332  1.00 66.11 LIG 0.17  HD
ATOM     16 2HH1 ARG D   2       9.293  10.537 149.246  1.00 66.11 LIG 0.17  HD
ATOM     17 2HH2 ARG D   2      10.397   9.213 150.743  1.00 74.94 LIG 0.17  HD
ATOM     18 1HH2 ARG D   2      11.231   9.826 151.815  1.00 74.94 LIG 0.17  HD
ENDBRANCH 9 10
ENDBRANCH 8 9
ENDBRANCH 7 8
ENDBRANCH 6 7
BRANCH 6 19
ATOM     19  N   ARG D   2      12.590  12.304 146.585  1.00 42.84 LIG-0.35  N 
ATOM     20  C   ALA D   1      12.521  12.416 145.269  1.00 44.74 LIG 0.25  C 
ATOM     21 O    ALA D   1      12.304  13.485 144.704  1.00 48.31 LIG-0.27  OA
ATOM     22 H    ARG D   2      12.688  11.554 146.994  1.00 42.84 LIG 0.16  HD
BRANCH 20 23
ATOM     23  CA  ALA D   1      12.717  11.124 144.475  1.00 45.19 LIG 0.27  C 
ATOM     24  CB  ALA D   1      13.160  11.435 143.063  1.00 43.32 LIG 0.05  C 
BRANCH 23 25
ATOM     25  N   ALA D   1      11.493  10.342 144.455  1.00 39.75 LIG-0.07  N 
ATOM     26 H1   ALA D   1      11.526   9.720 145.091  1.00 39.75 LIG 0.28  HD
ATOM     27 H2   ALA D   1      10.797  10.877 144.601  1.00 39.75 LIG 0.28  HD
ATOM     28 H3   ALA D   1      11.403   9.949 143.661  1.00 39.75 LIG 0.28  HD
ENDBRANCH 23 25
ENDBRANCH 20 23
ENDBRANCH 6 19
ENDBRANCH 3 6
ENDBRANCH 1 2
BRANCH 1 29
ATOM     29  CB  THR D   3      15.673  16.949 147.836  1.00 46.90 LIG 0.15  C 
ATOM     30  CG2 THR D   3      16.742  16.504 146.856  1.00 44.81 LIG 0.04  C 
BRANCH 29 31
ATOM     31 OG1  THR D   3      14.532  17.415 147.103  1.00 48.09 LIG-0.39  OA
ATOM     32 HG1  THR D   3      14.374  16.889 146.466  1.00 48.09 LIG 0.21  HD
ENDBRANCH 29 31
ENDBRANCH 1 29
BRANCH 1 33
ATOM     33  C   THR D   3      15.183  16.310 150.196  1.00 42.40 LIG 0.24  C 
ATOM     34 O    THR D   3      14.222  16.985 150.578  1.00 40.34 LIG-0.27  OA
ATOM     35  N   LYS D   4      16.192  16.073 150.989  1.00 38.45 LIG-0.35  N 
ATOM     36 H    LYS D   4      16.868  15.581 150.788  1.00 38.45 LIG 0.16  HD
BRANCH 35 37
ATOM     37  CA  LYS D   4      16.227  16.652 152.309  1.00 37.56 LIG 0.18  C 
BRANCH 37 38
ATOM     38  C   LYS D   4      17.656  16.990 152.709  1.00 44.28 LIG 0.24  C 
ATOM     39 O    LYS D   4      18.543  16.521 152.103  1.00 49.08 LIG-0.27  OA
ATOM     40  N   GLN D   5      17.801  17.828 153.721  1.00 53.59 LIG-0.35  N 
ATOM     41 H    GLN D   5      17.136  18.334 153.926  1.00 53.59 LIG 0.16  HD
BRANCH 40 42
ATOM     42  CA  GLN D   5      18.933  18.113 154.649  1.00 61.39 LIG 0.16  C 
BRANCH 42 43
ATOM     43  CB  GLN D   5      20.276  17.467 154.280  1.00 20.00 LIG 0.04  C 
BRANCH 43 44
ATOM     44  CG  GLN D   5      21.297  17.471 155.444  1.00 20.00 LIG 0.10  C 
BRANCH 44 45
ATOM     45  CD  GLN D   5      21.681  16.105 156.014  1.00 20.00 LIG 0.21  C 
ATOM     46  NE2 GLN D   5      20.849  15.594 156.913  1.00 20.00 LIG-0.37  N 
ATOM     47 21HE GLN D   5      20.154  16.038 157.158  1.00 20.00 LIG 0.16  HD
ATOM     48 22HE GLN D   5      21.005  14.820 157.252  1.00 20.00 LIG 0.16  HD
ATOM     49 OE1  GLN D   5      22.690  15.508 155.632  1.00 20.00 LIG-0.27  OA
ENDBRANCH 44 45
ENDBRANCH 43 44
ENDBRANCH 42 43
BRANCH 42 50
ATOM     50  C   GLN D   5      19.166  19.463 155.283  1.00 64.61 LIG 0.22  C 
ATOM     51 O    GLN D   5      18.412  20.372 155.094  1.00 68.60 LIG-0.29  OA
ENDBRANCH 42 50
ENDBRANCH 40 42
ENDBRANCH 37 38
BRANCH 37 52
ATOM     52  CB  LYS D   4      15.548  15.732 153.300  1.00 33.42 LIG 0.04  C 
BRANCH 52 53
ATOM     53  CG  LYS D   4      14.143  16.034 153.539  1.00 40.53 LIG 0.00  C 
BRANCH 53 54
ATOM     54  CD  LYS D   4      13.572  15.042 154.406  1.00 50.17 LIG 0.03  C 
BRANCH 54 55
ATOM     55  CE  LYS D   4      12.530  14.225 153.697  1.00 57.03 LIG 0.23  C 
BRANCH 55 56
ATOM     56  NZ  LYS D   4      12.413  12.945 154.395  1.00 52.11 LIG-0.08  N 
ATOM     57 HZ3  LYS D   4      11.837  13.026 155.069  1.00 52.11 LIG 0.27  HD
ATOM     58 HZ2  LYS D   4      13.209  12.706 154.713  1.00 52.11 LIG 0.27  HD
ATOM     59 HZ1  LYS D   4      12.120  12.324 153.829  1.00 52.11 LIG 0.27  HD
ENDBRANCH 55 56
ENDBRANCH 54 55
ENDBRANCH 53 54
ENDBRANCH 52 53
ENDBRANCH 37 52
ENDBRANCH 35 37
ENDBRANCH 1 33
TORSDOF 24
ENDMDL
MODEL 3
USER: ADFR SOLUTION from run 139
USER: SCORE 17.998043 LL:  -2.520 LR: -18.315 RR:   0.000 FEB: -11.156
USER: RMSD 1.808362
USER: SEED 138
USER: STATUS no improvement in best in 10 clusters for 5 generations
USER: GENES 26
USER: genes 0 Translation |==|  0.53084 0.46393 0.48966
USER: genes 1 Rotation |==|  0.49072 0.56995 0.55392 0.99205
USER: genes 2 Torsion [CB]-CA--N-[C] |==|  0.29163
USER: genes 3 Torsion [N]-C--CA-[N] |==|  0.47777
USER: genes 4 Torsion [C]-CA--CB-[CG] |==|  0.55465
USER: genes 5 Torsion [CA]-CB--CG-[CD] |==|  0.54293
USER: genes 6 Torsion [CB]-CG--CD-[NE] |==|  0.70321
USER: genes 7 Torsion [CG]-CD--NE-[HE] |==|  0.30613
USER: genes 8 Torsion [C]-CA--N-[C] |==|  0.76016
USER: genes 9 Torsion [N]-C--CA-[N] |==|  0.20708
USER: genes 10 Torsion [C]-CA--N-[H1] |==|  0.17216
USER: genes 11 Torsion [N]-CA--CB-[CG2] |==|  0.12566
USER: genes 12 Torsion [CA]-CB--OG1-[HG1] |==|  0.10183
USER: genes 13 Torsion [N]-CA--C-[N] |==|  0.45893
USER: genes 14 Torsion [C]-N--CA-[CB] |==|  0.39811
USER: genes 15 Torsion [N]-CA--C-[N] |==|  0.96544
USER: genes 16 Torsion [C]-N--CA-[CB] |==|  0.65378
USER: genes 17 Torsion [N]-CA--CB-[CG] |==|  0.67284
USER: genes 18 Torsion [CA]-CB--CG-[CD] |==|  0.40220
USER: genes 19 Torsion [CB]-CG--CD-[OE1] |==|  0.16000
USER: genes 20 Torsion [N]-CA--C-[O] |==|  0.12428
USER: genes 21 Torsion [N]-CA--CB-[CG] |==|  0.71290
USER: genes 22 Torsion [CA]-CB--CG-[CD] |==|  0.56892
USER: genes 23 Torsion [CB]-CG--CD-[CE] |==|  0.57087
USER: genes 24 Torsion [CG]-CD--CE-[NZ] |==|  0.38127
USER: genes 25 Torsion [CD]-CE--NZ-[HZ2] |==|  0.01660
ROOT
ATOM      1  CA  THR D   3      15.768  15.911 148.269  1.00 39.79 LIG 0.20  C 
ENDROOT
BRANCH 1 2
ATOM      2  N   THR D   3      14.429  15.388 148.006  1.00 34.46 LIG-0.34  N 
ATOM      3  C   ARG D   2      14.238  14.188 147.459  1.00 39.53 LIG 0.24  C 
ATOM      4 O    ARG D   2      15.164  13.499 147.026  1.00 39.08 LIG-0.27  OA
ATOM      5 H    THR D   3      13.791  15.918 148.235  1.00 34.46 LIG 0.16  HD
BRANCH 3 6
ATOM      6  CA  ARG D   2      12.790  13.688 147.361  1.00 42.24 LIG 0.18  C 
BRANCH 6 7
ATOM      7  CB  ARG D   2      12.228  13.394 148.753  1.00 49.82 LIG 0.04  C 
BRANCH 7 8
ATOM      8  CG  ARG D   2      11.014  12.478 148.815  1.00 55.24 LIG 0.02  C 
BRANCH 8 9
ATOM      9  CD  ARG D   2      10.342  12.584 150.193  1.00 55.63 LIG 0.14  C 
BRANCH 9 10
ATOM     10  NE  ARG D   2      10.570  11.404 151.030  1.00 65.78 LIG-0.23  N 
ATOM     11 HE   ARG D   2      11.081  11.495 151.715  1.00 65.78 LIG 0.18  HD
ATOM     12  CZ  ARG D   2      10.045  10.201 150.808  1.00 70.57 LIG 0.67  C 
ATOM     13  NH1 ARG D   2       9.255   9.995 149.764  1.00 66.11 LIG-0.23  N 
ATOM     14  NH2 ARG D   2      10.315   9.195 151.630  1.00 74.94 LIG-0.23  N 
ATOM     15 1HH1 ARG D   2       9.078  10.641 149.224  1.00 66.11 LIG 0.17  HD
ATOM     16 2HH1 ARG D   2       8.919   9.216 149.626  1.00 66.11 LIG 0.17  HD
ATOM     17 2HH2 ARG D   2       9.975   8.418 151.485  1.00 74.94 LIG 0.17  HD
ATOM     18 1HH2 ARG D   2      10.830   9.320 152.308  1.00 74.94 LIG 0.17  HD
ENDBRANCH 9 10
ENDBRANCH 8 9
ENDBRANCH 7 8
ENDBRANCH 6 7
BRANCH 6 19
ATOM     19  N   ARG D   2      12.740  12.459 146.574  1.00 42.84 LIG-0.35  N 
ATOM     20  C   ALA D   1      12.641  12.468 145.254  1.00 44.74 LIG 0.25  C 
ATOM     21 O    ALA D   1      12.508  13.502 144.605  1.00 48.31 LIG-0.27  OA
ATOM     22 H    ARG D   2      12.780  11.740 147.042  1.00 42.84 LIG 0.16  HD
BRANCH 20 23
ATOM     23  CA  ALA D   1      12.691  11.101 144.570  1.00 45.19 LIG 0.27  C 
ATOM     24  CB  ALA D   1      12.981  11.261 143.094  1.00 43.32 LIG 0.05  C 
BRANCH 23 25
ATOM     25  N   ALA D   1      11.440  10.386 144.759  1.00 39.75 LIG-0.07  N 
ATOM     26 H1   ALA D   1      10.776  10.845 144.384  1.00 39.75 LIG 0.28  HD
ATOM     27 H2   ALA D   1      11.497   9.583 144.379  1.00 39.75 LIG 0.28  HD
ATOM     28 H3   ALA D   1      11.280  10.291 145.629  1.00 39.75 LIG 0.28  HD
ENDBRANCH 23 25
ENDBRANCH 20 23
ENDBRANCH 6 19
ENDBRANCH 3 6
ENDBRANCH 1 2
BRANCH 1 29
ATOM     29  CB  THR D   3      16.177  17.000 147.251  1.00 46.90 LIG 0.15  C 
ATOM     30  CG2 THR D   3      15.048  17.990 147.034  1.00 44.81 LIG 0.04  C 
BRANCH 29 31
ATOM     31 OG1  THR D   3      17.327  17.705 147.737  1.00 48.09 LIG-0.39  OA
ATOM     32 HG1  THR D   3      17.838  17.169 148.134  1.00 48.09 LIG 0.21  HD
ENDBRANCH 29 31
ENDBRANCH 1 29
BRANCH 1 33
ATOM     33  C   THR D   3      15.845  16.508 149.673  1.00 42.40 LIG 0.24  C 
ATOM     34 O    THR D   3      14.819  16.804 150.294  1.00 40.34 LIG-0.27  OA
ATOM     35  N   LYS D   4      17.025  16.750 150.176  1.00 38.45 LIG-0.35  N 
ATOM     36 H    LYS D   4      17.769  16.533 149.805  1.00 38.45 LIG 0.16  HD
BRANCH 35 37
ATOM     37  CA  LYS D   4      17.146  17.426 151.444  1.00 37.56 LIG 0.18  C 
BRANCH 37 38
ATOM     38  C   LYS D   4      17.260  18.930 151.241  1.00 44.28 LIG 0.24  C 
ATOM     39 O    LYS D   4      17.167  19.638 152.171  1.00 49.08 LIG-0.27  OA
ATOM     40  N   GLN D   5      17.486  19.342 150.006  1.00 53.59 LIG-0.35  N 
ATOM     41 H    GLN D   5      17.814  18.779 149.445  1.00 53.59 LIG 0.16  HD
BRANCH 40 42
ATOM     42  CA  GLN D   5      17.287  20.652 149.320  1.00 61.39 LIG 0.16  C 
BRANCH 42 43
ATOM     43  CB  GLN D   5      16.428  20.615 148.048  1.00 20.00 LIG 0.04  C 
BRANCH 43 44
ATOM     44  CG  GLN D   5      17.197  21.048 146.777  1.00 20.00 LIG 0.10  C 
BRANCH 44 45
ATOM     45  CD  GLN D   5      16.828  20.324 145.482  1.00 20.00 LIG 0.21  C 
ATOM     46  NE2 GLN D   5      17.815  19.675 144.876  1.00 20.00 LIG-0.37  N 
ATOM     47 21HE GLN D   5      18.609  19.697 145.204  1.00 20.00 LIG 0.16  HD
ATOM     48 22HE GLN D   5      17.660  19.234 144.155  1.00 20.00 LIG 0.16  HD
ATOM     49 OE1  GLN D   5      15.673  20.324 145.049  1.00 20.00 LIG-0.27  OA
ENDBRANCH 44 45
ENDBRANCH 43 44
ENDBRANCH 42 43
BRANCH 42 50
ATOM     50  C   GLN D   5      17.061  21.948 150.058  1.00 64.61 LIG 0.22  C 
ATOM     51 O    GLN D   5      17.724  22.241 151.010  1.00 68.60 LIG-0.29  OA
ENDBRANCH 42 50
ENDBRANCH 40 42
ENDBRANCH 37 38
BRANCH 37 52
ATOM     52  CB  LYS D   4      18.307  16.856 152.229  1.00 33.42 LIG 0.04  C 
BRANCH 52 53
ATOM     53  CG  LYS D   4      17.921  15.957 153.310  1.00 40.53 LIG 0.00  C 
BRANCH 53 54
ATOM     54  CD  LYS D   4      18.948  15.933 154.313  1.00 50.17 LIG 0.03  C 
BRANCH 54 55
ATOM     55  CE  LYS D   4      18.930  14.647 155.089  1.00 57.03 LIG 0.23  C 
BRANCH 55 56
ATOM     56  NZ  LYS D   4      20.314  14.206 155.259  1.00 52.11 LIG-0.08  N 
ATOM     57 HZ3  LYS D   4      20.478  14.071 156.123  1.00 52.11 LIG 0.27  HD
ATOM     58 HZ2  LYS D   4      20.865  14.831 154.946  1.00 52.11 LIG 0.27  HD
ATOM     59 HZ1  LYS D   4      20.441  13.448 154.811  1.00 52.11 LIG 0.27  HD
ENDBRANCH 55 56
ENDBRANCH 54 55
ENDBRANCH 53 54
ENDBRANCH 52 53
ENDBRANCH 37 52
ENDBRANCH 35 37
ENDBRANCH 1 33
TORSDOF 24
ENDMDL
MODEL 4
USER: ADFR SOLUTION from run 152
USER: SCORE 18.084079 LL:  -2.581 LR: -18.312 RR:   0.000 FEB: -11.153
USER: RMSD 2.484654
USER: SEED 151
USER: STATUS no improvement in best in 16 clusters for 5 generations
USER: GENES 26
USER: genes 0 Translation |==|  0.53591 0.46360 0.50116
USER: genes 1 Rotation |==|  0.50465 0.56624 0.53973 0.99398
USER: genes 2 Torsion [CB]-CA--N-[C] |==|  0.27947
USER: genes 3 Torsion [N]-C--CA-[N] |==|  0.50426
USER: genes 4 Torsion [C]-CA--CB-[CG] |==|  0.61952
USER: genes 5 Torsion [CA]-CB--CG-[CD] |==|  0.53113
USER: genes 6 Torsion [CB]-CG--CD-[NE] |==|  0.64729
USER: genes 7 Torsion [CG]-CD--NE-[HE] |==|  0.30272
USER: genes 8 Torsion [C]-CA--N-[C] |==|  0.75967
USER: genes 9 Torsion [N]-C--CA-[N] |==|  0.22437
USER: genes 10 Torsion [C]-CA--N-[H1] |==|  0.41483
USER: genes 11 Torsion [N]-CA--CB-[CG2] |==|  0.69012
USER: genes 12 Torsion [CA]-CB--OG1-[HG1] |==|  0.50256
USER: genes 13 Torsion [N]-CA--C-[N] |==|  0.47660
USER: genes 14 Torsion [C]-N--CA-[CB] |==|  0.40993
USER: genes 15 Torsion [N]-CA--C-[N] |==|  0.94577
USER: genes 16 Torsion [C]-N--CA-[CB] |==|  0.21361
USER: genes 17 Torsion [N]-CA--CB-[CG] |==|  0.28568
USER: genes 18 Torsion [CA]-CB--CG-[CD] |==|  0.53630
USER: genes 19 Torsion [CB]-CG--CD-[OE1] |==|  0.84614
USER: genes 20 Torsion [N]-CA--C-[O] |==|  0.89064
USER: genes 21 Torsion [N]-CA--CB-[CG] |==|  0.53457
USER: genes 22 Torsion [CA]-CB--CG-[CD] |==|  0.47187
USER: genes 23 Torsion [CB]-CG--CD-[CE] |==|  0.72702
USER: genes 24 Torsion [CG]-CD--CE-[NZ] |==|  0.44506
USER: genes 25 Torsion [CD]-CE--NZ-[HZ2] |==|  0.70748
ROOT
ATOM      1  CA  THR D   3      15.863  15.903 148.536  1.00 39.79 LIG 0.20  C 
ENDROOT
BRANCH 1 2
ATOM      2  N   THR D   3      14.496  15.481 148.236  1.00 34.46 LIG-0.34  N 
ATOM      3  C   ARG D   2      14.239  14.366 147.553  1.00 39.53 LIG 0.24  C 
ATOM      4 O    ARG D   2      15.125  13.689 147.026  1.00 39.08 LIG-0.27  OA
ATOM      5 H    THR D   3      13.888  16.010 148.537  1.00 34.46 LIG 0.16  HD
BRANCH 3 6
ATOM      6  CA  ARG D   2      12.767  13.952 147.421  1.00 42.24 LIG 0.18  C 
BRANCH 6 7
ATOM      7  CB  ARG D   2      12.140  13.749 148.802  1.00 49.82 LIG 0.04  C 
BRANCH 7 8
ATOM      8  CG  ARG D   2      11.248  12.527 148.969  1.00 55.24 LIG 0.02  C 
BRANCH 8 9
ATOM      9  CD  ARG D   2      10.481  12.611 150.298  1.00 55.63 LIG 0.14  C 
BRANCH 9 10
ATOM     10  NE  ARG D   2      10.643  11.414 151.125  1.00 65.78 LIG-0.23  N 
ATOM     11 HE   ARG D   2      11.118  11.483 151.838  1.00 65.78 LIG 0.18  HD
ATOM     12  CZ  ARG D   2      10.108  10.225 150.854  1.00 70.57 LIG 0.67  C 
ATOM     13  NH1 ARG D   2       9.371  10.051 149.766  1.00 66.11 LIG-0.23  N 
ATOM     14  NH2 ARG D   2      10.315   9.201 151.673  1.00 74.94 LIG-0.23  N 
ATOM     15 1HH1 ARG D   2       9.236  10.709 149.229  1.00 66.11 LIG 0.17  HD
ATOM     16 2HH1 ARG D   2       9.029   9.281 149.597  1.00 66.11 LIG 0.17  HD
ATOM     17 2HH2 ARG D   2       9.970   8.433 151.496  1.00 74.94 LIG 0.17  HD
ATOM     18 1HH2 ARG D   2      10.796   9.304 152.379  1.00 74.94 LIG 0.17  HD
ENDBRANCH 9 10
ENDBRANCH 8 9
ENDBRANCH 7 8
ENDBRANCH 6 7
BRANCH 6 19
ATOM     19  N   ARG D   2      12.668  12.698 146.680  1.00 42.84 LIG-0.35  N 
ATOM     20  C   ALA D   1      12.612  12.660 145.358  1.00 44.74 LIG 0.25  C 
ATOM     21 O    ALA D   1      12.562  13.674 144.666  1.00 48.31 LIG-0.27  OA
ATOM     22 H    ARG D   2      12.649  11.997 147.176  1.00 42.84 LIG 0.16  HD
BRANCH 20 23
ATOM     23  CA  ALA D   1      12.599  11.267 144.728  1.00 45.19 LIG 0.27  C 
ATOM     24  CB  ALA D   1      13.093  11.331 143.300  1.00 43.32 LIG 0.05  C 
BRANCH 23 25
ATOM     25  N   ALA D   1      11.265  10.695 144.771  1.00 39.75 LIG-0.07  N 
ATOM     26 H1   ALA D   1      11.149  10.156 144.073  1.00 39.75 LIG 0.28  HD
ATOM     27 H2   ALA D   1      11.165  10.230 145.524  1.00 39.75 LIG 0.28  HD
ATOM     28 H3   ALA D   1      10.660  11.347 144.745  1.00 39.75 LIG 0.28  HD
ENDBRANCH 23 25
ENDBRANCH 20 23
ENDBRANCH 6 19
ENDBRANCH 3 6
ENDBRANCH 1 2
BRANCH 1 29
ATOM     29  CB  THR D   3      16.353  17.012 147.577  1.00 46.90 LIG 0.15  C 
ATOM     30  CG2 THR D   3      17.448  16.493 146.663  1.00 44.81 LIG 0.04  C 
BRANCH 29 31
ATOM     31 OG1  THR D   3      15.258  17.475 146.777  1.00 48.09 LIG-0.39  OA
ATOM     32 HG1  THR D   3      15.528  18.069 146.247  1.00 48.09 LIG 0.21  HD
ENDBRANCH 29 31
ENDBRANCH 1 29
BRANCH 1 33
ATOM     33  C   THR D   3      15.960  16.426 149.969  1.00 42.40 LIG 0.24  C 
ATOM     34 O    THR D   3      14.944  16.647 150.634  1.00 40.34 LIG-0.27  OA
ATOM     35  N   LYS D   4      17.145  16.687 150.450  1.00 38.45 LIG-0.35  N 
ATOM     36 H    LYS D   4      17.886  16.520 150.046  1.00 38.45 LIG 0.16  HD
BRANCH 35 37
ATOM     37  CA  LYS D   4      17.280  17.298 151.749  1.00 37.56 LIG 0.18  C 
BRANCH 37 38
ATOM     38  C   LYS D   4      17.225  18.814 151.638  1.00 44.28 LIG 0.24  C 
ATOM     39 O    LYS D   4      16.997  19.447 152.598  1.00 49.08 LIG-0.27  OA
ATOM     40  N   GLN D   5      17.470  19.326 150.444  1.00 53.59 LIG-0.35  N 
ATOM     41 H    GLN D   5      17.893  18.840 149.874  1.00 53.59 LIG 0.16  HD
BRANCH 40 42
ATOM     42  CA  GLN D   5      17.155  20.644 149.820  1.00 61.39 LIG 0.16  C 
BRANCH 42 43
ATOM     43  CB  GLN D   5      18.044  21.817 150.257  1.00 20.00 LIG 0.04  C 
BRANCH 43 44
ATOM     44  CG  GLN D   5      19.114  22.198 149.206  1.00 20.00 LIG 0.10  C 
BRANCH 44 45
ATOM     45  CD  GLN D   5      20.226  23.135 149.678  1.00 20.00 LIG 0.21  C 
ATOM     46  NE2 GLN D   5      21.468  22.712 149.480  1.00 20.00 LIG-0.37  N 
ATOM     47 21HE GLN D   5      21.609  21.942 149.124  1.00 20.00 LIG 0.16  HD
ATOM     48 22HE GLN D   5      22.132  23.208 149.708  1.00 20.00 LIG 0.16  HD
ATOM     49 OE1  GLN D   5      19.974  24.231 150.185  1.00 20.00 LIG-0.27  OA
ENDBRANCH 44 45
ENDBRANCH 43 44
ENDBRANCH 42 43
BRANCH 42 50
ATOM     50  C   GLN D   5      16.765  20.804 148.371  1.00 64.61 LIG 0.22  C 
ATOM     51 O    GLN D   5      17.297  20.160 147.514  1.00 68.60 LIG-0.29  OA
ENDBRANCH 42 50
ENDBRANCH 40 42
ENDBRANCH 37 38
BRANCH 37 52
ATOM     52  CB  LYS D   4      18.543  16.810 152.425  1.00 33.42 LIG 0.04  C 
BRANCH 52 53
ATOM     53  CG  LYS D   4      18.633  17.137 153.843  1.00 40.53 LIG 0.00  C 
BRANCH 53 54
ATOM     54  CD  LYS D   4      19.737  16.436 154.435  1.00 50.17 LIG 0.03  C 
BRANCH 54 55
ATOM     55  CE  LYS D   4      19.284  15.188 155.139  1.00 57.03 LIG 0.23  C 
BRANCH 55 56
ATOM     56  NZ  LYS D   4      20.444  14.312 155.290  1.00 52.11 LIG-0.08  N 
ATOM     57 HZ3  LYS D   4      21.189  14.775 155.136  1.00 52.11 LIG 0.27  HD
ATOM     58 HZ2  LYS D   4      20.388  13.641 154.708  1.00 52.11 LIG 0.27  HD
ATOM     59 HZ1  LYS D   4      20.464  13.986 156.118  1.00 52.11 LIG 0.27  HD
ENDBRANCH 55 56
ENDBRANCH 54 55
ENDBRANCH 53 54
ENDBRANCH 52 53
ENDBRANCH 37 52
ENDBRANCH 35 37
ENDBRANCH 1 33
TORSDOF 24
ENDMDL
MODEL 5
USER: ADFR SOLUTION from run 198
USER: SCORE 17.702136 LL:  -2.930 LR: -17.968 RR:   0.000 FEB: -10.808
USER: RMSD 2.351358
USER: SEED 197
USER: STATUS no improvement in best in 4 clusters for 5 generations
USER: GENES 26
USER: genes 0 Translation |==|  0.53700 0.46719 0.48563
USER: genes 1 Rotation |==|  0.52267 0.57970 0.54953 0.99059
USER: genes 2 Torsion [CB]-CA--N-[C] |==|  0.32262
USER: genes 3 Torsion [N]-C--CA-[N] |==|  0.47036
USER: genes 4 Torsion [C]-CA--CB-[CG] |==|  0.60854
USER: genes 5 Torsion [CA]-CB--CG-[CD] |==|  0.53571
USER: genes 6 Torsion [CB]-CG--CD-[NE] |==|  0.65663
USER: genes 7 Torsion [CG]-CD--NE-[HE] |==|  0.30147
USER: genes 8 Torsion [C]-CA--N-[C] |==|  0.77866
USER: genes 9 Torsion [N]-C--CA-[N] |==|  0.19591
USER: genes 10 Torsion [C]-CA--N-[H1] |==|  0.44143
USER: genes 11 Torsion [N]-CA--CB-[CG2] |==|  0.19334
USER: genes 12 Torsion [CA]-CB--OG1-[HG1] |==|  0.82659
USER: genes 13 Torsion [N]-CA--C-[N] |==|  0.43249
USER: genes 14 Torsion [C]-N--CA-[CB] |==|  0.44911
USER: genes 15 Torsion [N]-CA--C-[N] |==|  0.97221
USER: genes 16 Torsion [C]-N--CA-[CB] |==|  0.89289
USER: genes 17 Torsion [N]-CA--CB-[CG] |==|  0.83525
USER: genes 18 Torsion [CA]-CB--CG-[CD] |==|  0.33920
USER: genes 19 Torsion [CB]-CG--CD-[OE1] |==|  0.79605
USER: genes 20 Torsion [N]-CA--C-[O] |==|  0.94994
USER: genes 21 Torsion [N]-CA--CB-[CG] |==|  0.62871
USER: genes 22 Torsion [CA]-CB--CG-[CD] |==|  0.65984
USER: genes 23 Torsion [CB]-CG--CD-[CE] |==|  0.53873
USER: genes 24 Torsion [CG]-CD--CE-[NZ] |==|  0.17928
USER: genes 25 Torsion [CD]-CE--NZ-[HZ2] |==|  0.85977
ROOT
ATOM      1  CA  THR D   3      15.884  15.981 148.175  1.00 39.79 LIG 0.20  C 
ENDROOT
BRANCH 1 2
ATOM      2  N   THR D   3      14.514  15.537 147.927  1.00 34.46 LIG-0.34  N 
ATOM      3  C   ARG D   2      14.245  14.322 147.450  1.00 39.53 LIG 0.24  C 
ATOM      4 O    ARG D   2      15.125  13.545 147.074  1.00 39.08 LIG-0.27  OA
ATOM      5 H    THR D   3      13.912  16.123 148.114  1.00 34.46 LIG 0.16  HD
BRANCH 3 6
ATOM      6  CA  ARG D   2      12.767  13.917 147.363  1.00 42.24 LIG 0.18  C 
BRANCH 6 7
ATOM      7  CB  ARG D   2      12.190  13.685 148.762  1.00 49.82 LIG 0.04  C 
BRANCH 7 8
ATOM      8  CG  ARG D   2      11.225  12.518 148.912  1.00 55.24 LIG 0.02  C 
BRANCH 8 9
ATOM      9  CD  ARG D   2      10.495  12.607 150.262  1.00 55.63 LIG 0.14  C 
BRANCH 9 10
ATOM     10  NE  ARG D   2      10.663  11.404 151.079  1.00 65.78 LIG-0.23  N 
ATOM     11 HE   ARG D   2      11.163  11.463 151.776  1.00 65.78 LIG 0.18  HD
ATOM     12  CZ  ARG D   2      10.099  10.226 150.824  1.00 70.57 LIG 0.67  C 
ATOM     13  NH1 ARG D   2       9.323  10.069 149.761  1.00 66.11 LIG-0.23  N 
ATOM     14  NH2 ARG D   2      10.315   9.195 151.631  1.00 74.94 LIG-0.23  N 
ATOM     15 1HH1 ARG D   2       9.181  10.731 149.230  1.00 66.11 LIG 0.17  HD
ATOM     16 2HH1 ARG D   2       8.961   9.306 149.601  1.00 66.11 LIG 0.17  HD
ATOM     17 2HH2 ARG D   2       9.950   8.434 151.464  1.00 74.94 LIG 0.17  HD
ATOM     18 1HH2 ARG D   2      10.821   9.288 152.321  1.00 74.94 LIG 0.17  HD
ENDBRANCH 9 10
ENDBRANCH 8 9
ENDBRANCH 7 8
ENDBRANCH 6 7
BRANCH 6 19
ATOM     19  N   ARG D   2      12.633  12.681 146.597  1.00 42.84 LIG-0.35  N 
ATOM     20  C   ALA D   1      12.661  12.662 145.275  1.00 44.74 LIG 0.25  C 
ATOM     21 O    ALA D   1      12.724  13.684 144.597  1.00 48.31 LIG-0.27  OA
ATOM     22 H    ARG D   2      12.536  11.978 147.081  1.00 42.84 LIG 0.16  HD
BRANCH 20 23
ATOM     23  CA  ALA D   1      12.598  11.280 144.623  1.00 45.19 LIG 0.27  C 
ATOM     24  CB  ALA D   1      12.950  11.373 143.155  1.00 43.32 LIG 0.05  C 
BRANCH 23 25
ATOM     25  N   ALA D   1      11.278  10.695 144.786  1.00 39.75 LIG-0.07  N 
ATOM     26 H1   ALA D   1      11.155  10.065 144.170  1.00 39.75 LIG 0.28  HD
ATOM     27 H2   ALA D   1      11.212  10.334 145.596  1.00 39.75 LIG 0.28  HD
ATOM     28 H3   ALA D   1      10.659  11.327 144.691  1.00 39.75 LIG 0.28  HD
ENDBRANCH 23 25
ENDBRANCH 20 23
ENDBRANCH 6 19
ENDBRANCH 3 6
ENDBRANCH 1 2
BRANCH 1 29
ATOM     29  CB  THR D   3      16.282  17.171 147.272  1.00 46.90 LIG 0.15  C 
ATOM     30  CG2 THR D   3      15.532  18.428 147.670  1.00 44.81 LIG 0.04  C 
BRANCH 29 31
ATOM     31 OG1  THR D   3      17.691  17.413 147.388  1.00 48.09 LIG-0.39  OA
ATOM     32 HG1  THR D   3      17.875  17.625 148.180  1.00 48.09 LIG 0.21  HD
ENDBRANCH 29 31
ENDBRANCH 1 29
BRANCH 1 33
ATOM     33  C   THR D   3      16.054  16.404 149.634  1.00 42.40 LIG 0.24  C 
ATOM     34 O    THR D   3      15.094  16.823 150.289  1.00 40.34 LIG-0.27  OA
ATOM     35  N   LYS D   4      17.251  16.363 150.151  1.00 38.45 LIG-0.35  N 
ATOM     36 H    LYS D   4      17.946  16.049 149.754  1.00 38.45 LIG 0.16  HD
BRANCH 35 37
ATOM     37  CA  LYS D   4      17.482  16.868 151.482  1.00 37.56 LIG 0.18  C 
BRANCH 37 38
ATOM     38  C   LYS D   4      17.434  18.389 151.495  1.00 44.28 LIG 0.24  C 
ATOM     39 O    LYS D   4      17.449  18.950 152.524  1.00 49.08 LIG-0.27  OA
ATOM     40  N   GLN D   5      17.404  18.987 150.316  1.00 53.59 LIG-0.35  N 
ATOM     41 H    GLN D   5      17.673  18.544 149.630  1.00 53.59 LIG 0.16  HD
BRANCH 40 42
ATOM     42  CA  GLN D   5      16.980  20.349 149.879  1.00 61.39 LIG 0.16  C 
BRANCH 42 43
ATOM     43  CB  GLN D   5      15.737  20.917 150.578  1.00 20.00 LIG 0.04  C 
BRANCH 43 44
ATOM     44  CG  GLN D   5      14.475  20.040 150.392  1.00 20.00 LIG 0.10  C 
BRANCH 44 45
ATOM     45  CD  GLN D   5      13.806  19.534 151.670  1.00 20.00 LIG 0.21  C 
ATOM     46  NE2 GLN D   5      12.644  20.095 151.980  1.00 20.00 LIG-0.37  N 
ATOM     47 21HE GLN D   5      12.322  20.720 151.484  1.00 20.00 LIG 0.16  HD
ATOM     48 22HE GLN D   5      12.213  19.835 152.677  1.00 20.00 LIG 0.16  HD
ATOM     49 OE1  GLN D   5      14.308  18.636 152.349  1.00 20.00 LIG-0.27  OA
ENDBRANCH 44 45
ENDBRANCH 43 44
ENDBRANCH 42 43
BRANCH 42 50
ATOM     50  C   GLN D   5      17.953  21.461 149.572  1.00 64.61 LIG 0.22  C 
ATOM     51 O    GLN D   5      19.083  21.417 149.961  1.00 68.60 LIG-0.29  OA
ENDBRANCH 42 50
ENDBRANCH 40 42
ENDBRANCH 37 38
BRANCH 37 52
ATOM     52  CB  LYS D   4      18.784  16.324 152.027  1.00 33.42 LIG 0.04  C 
BRANCH 52 53
ATOM     53  CG  LYS D   4      18.702  15.816 153.391  1.00 40.53 LIG 0.00  C 
BRANCH 53 54
ATOM     54  CD  LYS D   4      19.643  16.508 154.226  1.00 50.17 LIG 0.03  C 
BRANCH 54 55
ATOM     55  CE  LYS D   4      19.836  15.805 155.539  1.00 57.03 LIG 0.23  C 
BRANCH 55 56
ATOM     56  NZ  LYS D   4      20.440  14.502 155.265  1.00 52.11 LIG-0.08  N 
ATOM     57 HZ3  LYS D   4      21.278  14.615 154.987  1.00 52.11 LIG 0.27  HD
ATOM     58 HZ2  LYS D   4      19.972  14.085 154.634  1.00 52.11 LIG 0.27  HD
ATOM     59 HZ1  LYS D   4      20.438  14.012 156.008  1.00 52.11 LIG 0.27  HD
ENDBRANCH 55 56
ENDBRANCH 54 55
ENDBRANCH 53 54
ENDBRANCH 52 53
ENDBRANCH 37 52
ENDBRANCH 35 37
ENDBRANCH 1 33
TORSDOF 24
ENDMDL
MODEL 6
USER: ADFR SOLUTION from run 67
USER: SCORE 18.234384 LL:  -2.373 LR: -17.928 RR:   0.000 FEB: -10.768
USER: RMSD 5.164295
USER: SEED 66
USER: STATUS no improvement in best in 4 clusters for 5 generations
USER: GENES 26
USER: genes 0 Translation |==|  0.52846 0.43954 0.47090
USER: genes 1 Rotation |==|  0.45424 0.49481 0.54569 0.99577
USER: genes 2 Torsion [CB]-CA--N-[C] |==|  0.26518
USER: genes 3 Torsion [N]-C--CA-[N] |==|  0.41386
USER: genes 4 Torsion [C]-CA--CB-[CG] |==|  0.25254
USER: genes 5 Torsion [CA]-CB--CG-[CD] |==|  0.19635
USER: genes 6 Torsion [CB]-CG--CD-[NE] |==|  0.15857
USER: genes 7 Torsion [CG]-CD--NE-[HE] |==|  0.19403
USER: genes 8 Torsion [C]-CA--N-[C] |==|  0.81750
USER: genes 9 Torsion [N]-C--CA-[N] |==|  0.40945
USER: genes 10 Torsion [C]-CA--N-[H1] |==|  0.48923
USER: genes 11 Torsion [N]-CA--CB-[CG2] |==|  0.07498
USER: genes 12 Torsion [CA]-CB--OG1-[HG1] |==|  0.23180
USER: genes 13 Torsion [N]-CA--C-[N] |==|  0.37438
USER: genes 14 Torsion [C]-N--CA-[CB] |==|  0.17023
USER: genes 15 Torsion [N]-CA--C-[N] |==|  0.49444
USER: genes 16 Torsion [C]-N--CA-[CB] |==|  0.05531
USER: genes 17 Torsion [N]-CA--CB-[CG] |==|  0.24731
USER: genes 18 Torsion [CA]-CB--CG-[CD] |==|  0.36773
USER: genes 19 Torsion [CB]-CG--CD-[OE1] |==|  0.48344
USER: genes 20 Torsion [N]-CA--C-[O] |==|  0.99599
USER: genes 21 Torsion [N]-CA--CB-[CG] |==|  0.28766
USER: genes 22 Torsion [CA]-CB--CG-[CD] |==|  0.59017
USER: genes 23 Torsion [CB]-CG--CD-[CE] |==|  0.54309
USER: genes 24 Torsion [CG]-CD--CE-[NZ] |==|  0.59702
USER: genes 25 Torsion [CD]-CE--NZ-[HZ2] |==|  0.57463
ROOT
ATOM      1  CA  THR D   3      15.724  15.380 147.832  1.00 39.79 LIG 0.20  C 
ENDROOT
BRANCH 1 2
ATOM      2  N   THR D   3      14.518  14.817 147.228  1.00 34.46 LIG-0.34  N 
ATOM      3  C   ARG D   2      14.525  13.631 146.620  1.00 39.53 LIG 0.24  C 
ATOM      4 O    ARG D   2      15.560  12.993 146.418  1.00 39.08 LIG-0.27  OA
ATOM      5 H    THR D   3      13.819  15.314 147.302  1.00 34.46 LIG 0.16  HD
BRANCH 3 6
ATOM      6  CA  ARG D   2      13.172  13.081 146.148  1.00 42.24 LIG 0.18  C 
BRANCH 6 7
ATOM      7  CB  ARG D   2      12.536  12.212 147.236  1.00 49.82 LIG 0.04  C 
BRANCH 7 8
ATOM      8  CG  ARG D   2      11.613  12.920 148.216  1.00 55.24 LIG 0.02  C 
BRANCH 8 9
ATOM      9  CD  ARG D   2      10.310  13.330 147.512  1.00 55.63 LIG 0.14  C 
BRANCH 9 10
ATOM     10  NE  ARG D   2       9.609  12.196 146.906  1.00 65.78 LIG-0.23  N 
ATOM     11 HE   ARG D   2       9.246  11.623 147.434  1.00 65.78 LIG 0.18  HD
ATOM     12  CZ  ARG D   2       9.494  11.985 145.596  1.00 70.57 LIG 0.67  C 
ATOM     13  NH1 ARG D   2      10.038  12.826 144.729  1.00 66.11 LIG-0.23  N 
ATOM     14  NH2 ARG D   2       8.835  10.923 145.149  1.00 74.94 LIG-0.23  N 
ATOM     15 1HH1 ARG D   2      10.470  13.515 145.011  1.00 66.11 LIG 0.17  HD
ATOM     16 2HH1 ARG D   2       9.961  12.685 143.885  1.00 66.11 LIG 0.17  HD
ATOM     17 2HH2 ARG D   2       8.762  10.787 144.303  1.00 74.94 LIG 0.17  HD
ATOM     18 1HH2 ARG D   2       8.483  10.369 145.705  1.00 74.94 LIG 0.17  HD
ENDBRANCH 9 10
ENDBRANCH 8 9
ENDBRANCH 7 8
ENDBRANCH 6 7
BRANCH 6 19
ATOM     19  N   ARG D   2      13.357  12.263 144.953  1.00 42.84 LIG-0.35  N 
ATOM     20  C   ALA D   1      13.768  12.773 143.803  1.00 44.74 LIG 0.25  C 
ATOM     21 O    ALA D   1      13.948  13.976 143.637  1.00 48.31 LIG-0.27  OA
ATOM     22 H    ARG D   2      13.177  11.430 145.066  1.00 42.84 LIG 0.16  HD
BRANCH 20 23
ATOM     23  CA  ALA D   1      13.997  11.772 142.670  1.00 45.19 LIG 0.27  C 
ATOM     24  CB  ALA D   1      15.427  11.277 142.686  1.00 43.32 LIG 0.05  C 
BRANCH 23 25
ATOM     25  N   ALA D   1      13.690  12.372 141.383  1.00 39.75 LIG-0.07  N 
ATOM     26 H1   ALA D   1      13.883  11.796 140.733  1.00 39.75 LIG 0.28  HD
ATOM     27 H2   ALA D   1      12.825  12.577 141.351  1.00 39.75 LIG 0.28  HD
ATOM     28 H3   ALA D   1      14.174  13.111 141.277  1.00 39.75 LIG 0.28  HD
ENDBRANCH 23 25
ENDBRANCH 20 23
ENDBRANCH 6 19
ENDBRANCH 3 6
ENDBRANCH 1 2
BRANCH 1 29
ATOM     29  CB  THR D   3      16.455  16.349 146.876  1.00 46.90 LIG 0.15  C 
ATOM     30  CG2 THR D   3      15.484  16.976 145.893  1.00 44.81 LIG 0.04  C 
BRANCH 29 31
ATOM     31 OG1  THR D   3      17.086  17.389 147.635  1.00 48.09 LIG-0.39  OA
ATOM     32 HG1  THR D   3      17.831  17.119 147.916  1.00 48.09 LIG 0.21  HD
ENDBRANCH 29 31
ENDBRANCH 1 29
BRANCH 1 33
ATOM     33  C   THR D   3      15.377  16.136 149.114  1.00 42.40 LIG 0.24  C 
ATOM     34 O    THR D   3      14.450  16.952 149.140  1.00 40.34 LIG-0.27  OA
ATOM     35  N   LYS D   4      16.124  15.939 150.167  1.00 38.45 LIG-0.35  N 
ATOM     36 H    LYS D   4      16.758  15.360 150.216  1.00 38.45 LIG 0.16  HD
BRANCH 35 37
ATOM     37  CA  LYS D   4      15.914  16.720 151.360  1.00 37.56 LIG 0.18  C 
BRANCH 37 38
ATOM     38  C   LYS D   4      16.994  16.427 152.391  1.00 44.28 LIG 0.24  C 
ATOM     39 O    LYS D   4      17.825  15.640 152.136  1.00 49.08 LIG-0.27  OA
ATOM     40  N   GLN D   5      16.934  17.115 153.518  1.00 53.59 LIG-0.35  N 
ATOM     41 H    GLN D   5      16.486  17.848 153.521  1.00 53.59 LIG 0.16  HD
BRANCH 40 42
ATOM     42  CA  GLN D   5      17.508  16.890 154.876  1.00 61.39 LIG 0.16  C 
BRANCH 42 43
ATOM     43  CB  GLN D   5      18.697  15.921 154.946  1.00 20.00 LIG 0.04  C 
BRANCH 43 44
ATOM     44  CG  GLN D   5      20.066  16.617 154.751  1.00 20.00 LIG 0.10  C 
BRANCH 44 45
ATOM     45  CD  GLN D   5      21.158  16.260 155.760  1.00 20.00 LIG 0.21  C 
ATOM     46  NE2 GLN D   5      20.794  15.459 156.754  1.00 20.00 LIG-0.37  N 
ATOM     47 21HE GLN D   5      19.980  15.189 156.813  1.00 20.00 LIG 0.16  HD
ATOM     48 22HE GLN D   5      21.373  15.209 157.338  1.00 20.00 LIG 0.16  HD
ATOM     49 OE1  GLN D   5      22.313  16.673 155.633  1.00 20.00 LIG-0.27  OA
ENDBRANCH 44 45
ENDBRANCH 43 44
ENDBRANCH 42 43
BRANCH 42 50
ATOM     50  C   GLN D   5      17.678  17.988 155.897  1.00 64.61 LIG 0.22  C 
ATOM     51 O    GLN D   5      17.375  19.118 155.644  1.00 68.60 LIG-0.29  OA
ENDBRANCH 42 50
ENDBRANCH 40 42
ENDBRANCH 37 38
BRANCH 37 52
ATOM     52  CB  LYS D   4      14.519  16.485 151.898  1.00 33.42 LIG 0.04  C 
BRANCH 52 53
ATOM     53  CG  LYS D   4      14.461  15.611 153.063  1.00 40.53 LIG 0.00  C 
BRANCH 53 54
ATOM     54  CD  LYS D   4      13.237  14.860 153.048  1.00 50.17 LIG 0.03  C 
BRANCH 54 55
ATOM     55  CE  LYS D   4      12.956  14.238 154.386  1.00 57.03 LIG 0.23  C 
BRANCH 55 56
ATOM     56  NZ  LYS D   4      12.314  12.945 154.154  1.00 52.11 LIG-0.08  N 
ATOM     57 HZ3  LYS D   4      11.811  12.991 153.421  1.00 52.11 LIG 0.27  HD
ATOM     58 HZ2  LYS D   4      11.802  12.738 154.852  1.00 52.11 LIG 0.27  HD
ATOM     59 HZ1  LYS D   4      12.937  12.319 154.047  1.00 52.11 LIG 0.27  HD
ENDBRANCH 55 56
ENDBRANCH 54 55
ENDBRANCH 53 54
ENDBRANCH 52 53
ENDBRANCH 37 52
ENDBRANCH 35 37
ENDBRANCH 1 33
TORSDOF 24
ENDMDL
MODEL 7
USER: ADFR SOLUTION from run 4
USER: SCORE 17.679096 LL:  -2.229 LR: -17.897 RR:   0.000 FEB: -10.738
USER: RMSD 5.209566
USER: SEED 749876
USER: STATUS no improvement in best in 12 clusters for 5 generations
USER: GENES 26
USER: genes 0 Translation |==|  0.52619 0.46424 0.49149
USER: genes 1 Rotation |==|  0.55543 0.53803 0.51524 0.99523
USER: genes 2 Torsion [CB]-CA--N-[C] |==|  0.39739
USER: genes 3 Torsion [N]-C--CA-[N] |==|  0.44887
USER: genes 4 Torsion [C]-CA--CB-[CG] |==|  0.91611
USER: genes 5 Torsion [CA]-CB--CG-[CD] |==|  0.59607
USER: genes 6 Torsion [CB]-CG--CD-[NE] |==|  0.33941
USER: genes 7 Torsion [CG]-CD--NE-[HE] |==|  0.25978
USER: genes 8 Torsion [C]-CA--N-[C] |==|  0.82159
USER: genes 9 Torsion [N]-C--CA-[N] |==|  0.13150
USER: genes 10 Torsion [C]-CA--N-[H1] |==|  0.13860
USER: genes 11 Torsion [N]-CA--CB-[CG2] |==|  0.22405
USER: genes 12 Torsion [CA]-CB--OG1-[HG1] |==|  0.57503
USER: genes 13 Torsion [N]-CA--C-[N] |==|  0.88821
USER: genes 14 Torsion [C]-N--CA-[CB] |==|  0.78889
USER: genes 15 Torsion [N]-CA--C-[N] |==|  0.69509
USER: genes 16 Torsion [C]-N--CA-[CB] |==|  0.49032
USER: genes 17 Torsion [N]-CA--CB-[CG] |==|  0.75062
USER: genes 18 Torsion [CA]-CB--CG-[CD] |==|  0.34246
USER: genes 19 Torsion [CB]-CG--CD-[OE1] |==|  0.86751
USER: genes 20 Torsion [N]-CA--C-[O] |==|  0.00638
USER: genes 21 Torsion [N]-CA--CB-[CG] |==|  0.56740
USER: genes 22 Torsion [CA]-CB--CG-[CD] |==|  0.54480
USER: genes 23 Torsion [CB]-CG--CD-[CE] |==|  0.70763
USER: genes 24 Torsion [CG]-CD--CE-[NZ] |==|  0.45070
USER: genes 25 Torsion [CD]-CE--NZ-[HZ2] |==|  0.99154
ROOT
ATOM      1  CA  THR D   3      15.681  15.917 148.311  1.00 39.79 LIG 0.20  C 
ENDROOT
BRANCH 1 2
ATOM      2  N   THR D   3      14.315  15.746 147.822  1.00 34.46 LIG-0.34  N 
ATOM      3  C   ARG D   2      13.778  14.539 147.644  1.00 39.53 LIG 0.24  C 
ATOM      4 O    ARG D   2      14.429  13.498 147.759  1.00 39.08 LIG-0.27  OA
ATOM      5 H    THR D   3      13.900  16.483 147.663  1.00 34.46 LIG 0.16  HD
BRANCH 3 6
ATOM      6  CA  ARG D   2      12.293  14.484 147.262  1.00 42.24 LIG 0.18  C 
BRANCH 6 7
ATOM      7  CB  ARG D   2      11.412  14.700 148.495  1.00 49.82 LIG 0.04  C 
BRANCH 7 8
ATOM      8  CG  ARG D   2      11.980  14.227 149.825  1.00 55.24 LIG 0.02  C 
BRANCH 8 9
ATOM      9  CD  ARG D   2      10.850  13.698 150.723  1.00 55.63 LIG 0.14  C 
BRANCH 9 10
ATOM     10  NE  ARG D   2      11.055  12.309 151.137  1.00 65.78 LIG-0.23  N 
ATOM     11 HE   ARG D   2      11.448  12.171 151.889  1.00 65.78 LIG 0.18  HD
ATOM     12  CZ  ARG D   2      10.679  11.242 150.435  1.00 70.57 LIG 0.67  C 
ATOM     13  NH1 ARG D   2      10.075  11.388 149.264  1.00 66.11 LIG-0.23  N 
ATOM     14  NH2 ARG D   2      10.912  10.022 150.902  1.00 74.94 LIG-0.23  N 
ATOM     15 1HH1 ARG D   2       9.924  12.175 148.952  1.00 66.11 LIG 0.17  HD
ATOM     16 2HH1 ARG D   2       9.835  10.695 148.815  1.00 66.11 LIG 0.17  HD
ATOM     17 2HH2 ARG D   2      10.669   9.334 150.447  1.00 74.94 LIG 0.17  HD
ATOM     18 1HH2 ARG D   2      11.307   9.919 151.659  1.00 74.94 LIG 0.17  HD
ENDBRANCH 9 10
ENDBRANCH 8 9
ENDBRANCH 7 8
ENDBRANCH 6 7
BRANCH 6 19
ATOM     19  N   ARG D   2      11.974  13.179 146.689  1.00 42.84 LIG-0.35  N 
ATOM     20  C   ALA D   1      12.505  12.757 145.553  1.00 44.74 LIG 0.25  C 
ATOM     21 O    ALA D   1      13.241  13.457 144.862  1.00 48.31 LIG-0.27  OA
ATOM     22 H    ARG D   2      11.417  12.719 147.153  1.00 42.84 LIG 0.16  HD
BRANCH 20 23
ATOM     23  CA  ALA D   1      12.140  11.333 145.132  1.00 45.19 LIG 0.27  C 
ATOM     24  CB  ALA D   1      12.595  11.070 143.714  1.00 43.32 LIG 0.05  C 
BRANCH 23 25
ATOM     25  N   ALA D   1      10.708  11.114 145.245  1.00 39.75 LIG-0.07  N 
ATOM     26 H1   ALA D   1      10.273  11.776 144.839  1.00 39.75 LIG 0.28  HD
ATOM     27 H2   ALA D   1      10.494  10.340 144.862  1.00 39.75 LIG 0.28  HD
ATOM     28 H3   ALA D   1      10.477  11.093 146.105  1.00 39.75 LIG 0.28  HD
ENDBRANCH 23 25
ENDBRANCH 20 23
ENDBRANCH 6 19
ENDBRANCH 3 6
ENDBRANCH 1 2
BRANCH 1 29
ATOM     29  CB  THR D   3      16.395  17.112 147.638  1.00 46.90 LIG 0.15  C 
ATOM     30  CG2 THR D   3      15.988  18.421 148.288  1.00 44.81 LIG 0.04  C 
BRANCH 29 31
ATOM     31 OG1  THR D   3      17.814  16.953 147.757  1.00 48.09 LIG-0.39  OA
ATOM     32 HG1  THR D   3      18.183  17.708 147.745  1.00 48.09 LIG 0.21  HD
ENDBRANCH 29 31
ENDBRANCH 1 29
BRANCH 1 33
ATOM     33  C   THR D   3      15.684  16.142 149.823  1.00 42.40 LIG 0.24  C 
ATOM     34 O    THR D   3      16.509  15.576 150.547  1.00 40.34 LIG-0.27  OA
ATOM     35  N   LYS D   4      14.756  16.905 150.334  1.00 38.45 LIG-0.35  N 
ATOM     36 H    LYS D   4      14.181  17.351 149.876  1.00 38.45 LIG 0.16  HD
BRANCH 35 37
ATOM     37  CA  LYS D   4      14.643  17.048 151.764  1.00 37.56 LIG 0.18  C 
BRANCH 37 38
ATOM     38  C   LYS D   4      15.998  17.365 152.381  1.00 44.28 LIG 0.24  C 
ATOM     39 O    LYS D   4      16.468  18.425 152.208  1.00 49.08 LIG-0.27  OA
ATOM     40  N   GLN D   5      16.552  16.409 153.107  1.00 53.59 LIG-0.35  N 
ATOM     41 H    GLN D   5      16.043  15.788 153.415  1.00 53.59 LIG 0.16  HD
BRANCH 40 42
ATOM     42  CA  GLN D   5      17.955  16.148 153.541  1.00 61.39 LIG 0.16  C 
BRANCH 42 43
ATOM     43  CB  GLN D   5      18.152  14.939 154.467  1.00 20.00 LIG 0.04  C 
BRANCH 43 44
ATOM     44  CG  GLN D   5      18.030  15.291 155.969  1.00 20.00 LIG 0.10  C 
BRANCH 44 45
ATOM     45  CD  GLN D   5      16.983  14.512 156.765  1.00 20.00 LIG 0.21  C 
ATOM     46  NE2 GLN D   5      17.379  14.036 157.939  1.00 20.00 LIG-0.37  N 
ATOM     47 21HE GLN D   5      18.190  14.156 158.200  1.00 20.00 LIG 0.16  HD
ATOM     48 22HE GLN D   5      16.826  13.608 158.438  1.00 20.00 LIG 0.16  HD
ATOM     49 OE1  GLN D   5      15.832  14.366 156.347  1.00 20.00 LIG-0.27  OA
ENDBRANCH 44 45
ENDBRANCH 43 44
ENDBRANCH 42 43
BRANCH 42 50
ATOM     50  C   GLN D   5      19.148  16.300 152.629  1.00 64.61 LIG 0.22  C 
ATOM     51 O    GLN D   5      19.018  16.683 151.503  1.00 68.60 LIG-0.29  OA
ENDBRANCH 42 50
ENDBRANCH 40 42
ENDBRANCH 37 38
BRANCH 37 52
ATOM     52  CB  LYS D   4      14.007  15.812 152.362  1.00 33.42 LIG 0.04  C 
BRANCH 52 53
ATOM     53  CG  LYS D   4      13.346  16.034 153.642  1.00 40.53 LIG 0.00  C 
BRANCH 53 54
ATOM     54  CD  LYS D   4      13.114  14.776 154.294  1.00 50.17 LIG 0.03  C 
BRANCH 54 55
ATOM     55  CE  LYS D   4      11.667  14.377 154.223  1.00 57.03 LIG 0.23  C 
BRANCH 55 56
ATOM     56  NZ  LYS D   4      11.582  12.945 154.508  1.00 52.11 LIG-0.08  N 
ATOM     57 HZ3  LYS D   4      11.110  12.818 155.252  1.00 52.11 LIG 0.27  HD
ATOM     58 HZ2  LYS D   4      12.402  12.615 154.618  1.00 52.11 LIG 0.27  HD
ATOM     59 HZ1  LYS D   4      11.184  12.530 153.830  1.00 52.11 LIG 0.27  HD
ENDBRANCH 55 56
ENDBRANCH 54 55
ENDBRANCH 53 54
ENDBRANCH 52 53
ENDBRANCH 37 52
ENDBRANCH 35 37
ENDBRANCH 1 33
TORSDOF 24
ENDMDL
MODEL 8
USER: ADFR SOLUTION from run 4
USER: SCORE 17.492021 LL:  -2.627 LR: -17.356 RR:   0.000 FEB: -10.197
USER: RMSD 4.618385
USER: SEED 749876
USER: STATUS no improvement in best in 12 clusters for 5 generations
USER: GENES 26
USER: genes 0 Translation |==|  0.51366 0.45409 0.45617
USER: genes 1 Rotation |==|  0.51791 0.50409 0.58343 0.99265
USER: genes 2 Torsion [CB]-CA--N-[C] |==|  0.36234
USER: genes 3 Torsion [N]-C--CA-[N] |==|  0.38072
USER: genes 4 Torsion [C]-CA--CB-[CG] |==|  0.12780
USER: genes 5 Torsion [CA]-CB--CG-[CD] |==|  0.38099
USER: genes 6 Torsion [CB]-CG--CD-[NE] |==|  0.16655
USER: genes 7 Torsion [CG]-CD--NE-[HE] |==|  0.72409
USER: genes 8 Torsion [C]-CA--N-[C] |==|  0.83518
USER: genes 9 Torsion [N]-C--CA-[N] |==|  0.37618
USER: genes 10 Torsion [C]-CA--N-[H1] |==|  0.20111
USER: genes 11 Torsion [N]-CA--CB-[CG2] |==|  0.58070
USER: genes 12 Torsion [CA]-CB--OG1-[HG1] |==|  0.40764
USER: genes 13 Torsion [N]-CA--C-[N] |==|  0.86322
USER: genes 14 Torsion [C]-N--CA-[CB] |==|  0.80977
USER: genes 15 Torsion [N]-CA--C-[N] |==|  0.72975
USER: genes 16 Torsion [C]-N--CA-[CB] |==|  0.61759
USER: genes 17 Torsion [N]-CA--CB-[CG] |==|  0.55825
USER: genes 18 Torsion [CA]-CB--CG-[CD] |==|  0.27998
USER: genes 19 Torsion [CB]-CG--CD-[OE1] |==|  0.88905
USER: genes 20 Torsion [N]-CA--C-[O] |==|  0.86601
USER: genes 21 Torsion [N]-CA--CB-[CG] |==|  0.50553
USER: genes 22 Torsion [CA]-CB--CG-[CD] |==|  0.57916
USER: genes 23 Torsion [CB]-CG--CD-[CE] |==|  0.60427
USER: genes 24 Torsion [CG]-CD--CE-[NZ] |==|  0.41232
USER: genes 25 Torsion [CD]-CE--NZ-[HZ2] |==|  0.73768
ROOT
ATOM      1  CA  THR D   3      15.446  15.696 147.490  1.00 39.79 LIG 0.20  C 
ENDROOT
BRANCH 1 2
ATOM      2  N   THR D   3      14.280  15.111 146.831  1.00 34.46 LIG-0.34  N 
ATOM      3  C   ARG D   2      14.222  13.814 146.530  1.00 39.53 LIG 0.24  C 
ATOM      4 O    ARG D   2      15.182  13.054 146.670  1.00 39.08 LIG-0.27  OA
ATOM      5 H    THR D   3      13.650  15.672 146.661  1.00 34.46 LIG 0.16  HD
BRANCH 3 6
ATOM      6  CA  ARG D   2      12.894  13.287 145.968  1.00 42.24 LIG 0.18  C 
BRANCH 6 7
ATOM      7  CB  ARG D   2      12.122  12.520 147.045  1.00 49.82 LIG 0.04  C 
BRANCH 7 8
ATOM      8  CG  ARG D   2      12.031  13.179 148.413  1.00 55.24 LIG 0.02  C 
BRANCH 8 9
ATOM      9  CD  ARG D   2      10.606  13.038 148.973  1.00 55.63 LIG 0.14  C 
BRANCH 9 10
ATOM     10  NE  ARG D   2      10.192  11.643 149.129  1.00 65.78 LIG-0.23  N 
ATOM     11 HE   ARG D   2       9.694  11.304 148.515  1.00 65.78 LIG 0.18  HD
ATOM     12  CZ  ARG D   2      10.527  10.860 150.152  1.00 70.57 LIG 0.67  C 
ATOM     13  NH1 ARG D   2      11.286  11.325 151.134  1.00 66.11 LIG-0.23  N 
ATOM     14  NH2 ARG D   2      10.098   9.604 150.198  1.00 74.94 LIG-0.23  N 
ATOM     15 1HH1 ARG D   2      11.565  12.138 151.114  1.00 66.11 LIG 0.17  HD
ATOM     16 2HH1 ARG D   2      11.499  10.814 151.792  1.00 66.11 LIG 0.17  HD
ATOM     17 2HH2 ARG D   2      10.315   9.100 150.859  1.00 74.94 LIG 0.17  HD
ATOM     18 1HH2 ARG D   2       9.602   9.296 149.566  1.00 74.94 LIG 0.17  HD
ENDBRANCH 9 10
ENDBRANCH 8 9
ENDBRANCH 7 8
ENDBRANCH 6 7
BRANCH 6 19
ATOM     19  N   ARG D   2      13.149  12.383 144.851  1.00 42.84 LIG-0.35  N 
ATOM     20  C   ALA D   1      13.797  12.769 143.763  1.00 44.74 LIG 0.25  C 
ATOM     21 O    ALA D   1      14.161  13.928 143.582  1.00 48.31 LIG-0.27  OA
ATOM     22 H    ARG D   2      12.844  11.588 144.965  1.00 42.84 LIG 0.16  HD
BRANCH 20 23
ATOM     23  CA  ALA D   1      14.063  11.681 142.721  1.00 45.19 LIG 0.27  C 
ATOM     24  CB  ALA D   1      15.499  11.216 142.800  1.00 43.32 LIG 0.05  C 
BRANCH 23 25
ATOM     25  N   ALA D   1      13.766  12.167 141.384  1.00 39.75 LIG-0.07  N 
ATOM     26 H1   ALA D   1      14.394  12.747 141.133  1.00 39.75 LIG 0.28  HD
ATOM     27 H2   ALA D   1      13.752  11.482 140.816  1.00 39.75 LIG 0.28  HD
ATOM     28 H3   ALA D   1      12.973  12.570 141.383  1.00 39.75 LIG 0.28  HD
ENDBRANCH 23 25
ENDBRANCH 20 23
ENDBRANCH 6 19
ENDBRANCH 3 6
ENDBRANCH 1 2
BRANCH 1 29
ATOM     29  CB  THR D   3      15.945  16.968 146.767  1.00 46.90 LIG 0.15  C 
ATOM     30  CG2 THR D   3      17.439  17.151 146.961  1.00 44.81 LIG 0.04  C 
BRANCH 29 31
ATOM     31 OG1  THR D   3      15.665  16.866 145.365  1.00 48.09 LIG-0.39  OA
ATOM     32 HG1  THR D   3      15.497  17.629 145.056  1.00 48.09 LIG 0.21  HD
ENDBRANCH 29 31
ENDBRANCH 1 29
BRANCH 1 33
ATOM     33  C   THR D   3      15.117  16.061 148.937  1.00 42.40 LIG 0.24  C 
ATOM     34 O    THR D   3      15.829  15.673 149.868  1.00 40.34 LIG-0.27  OA
ATOM     35  N   LYS D   4      14.030  16.748 149.167  1.00 38.45 LIG-0.35  N 
ATOM     36 H    LYS D   4      13.518  17.073 148.558  1.00 38.45 LIG 0.16  HD
BRANCH 35 37
ATOM     37  CA  LYS D   4      13.613  17.009 150.522  1.00 37.56 LIG 0.18  C 
BRANCH 37 38
ATOM     38  C   LYS D   4      14.714  17.718 151.296  1.00 44.28 LIG 0.24  C 
ATOM     39 O    LYS D   4      14.812  18.883 151.208  1.00 49.08 LIG-0.27  OA
ATOM     40  N   GLN D   5      15.487  16.957 152.051  1.00 53.59 LIG-0.35  N 
ATOM     41 H    GLN D   5      15.191  16.183 152.282  1.00 53.59 LIG 0.16  HD
BRANCH 40 42
ATOM     42  CA  GLN D   5      16.846  17.151 152.633  1.00 61.39 LIG 0.16  C 
BRANCH 42 43
ATOM     43  CB  GLN D   5      17.784  15.938 152.556  1.00 20.00 LIG 0.04  C 
BRANCH 43 44
ATOM     44  CG  GLN D   5      18.940  15.991 153.584  1.00 20.00 LIG 0.10  C 
BRANCH 44 45
ATOM     45  CD  GLN D   5      18.768  15.141 154.843  1.00 20.00 LIG 0.21  C 
ATOM     46  NE2 GLN D   5      19.862  14.541 155.295  1.00 20.00 LIG-0.37  N 
ATOM     47 21HE GLN D   5      20.606  14.626 154.871  1.00 20.00 LIG 0.16  HD
ATOM     48 22HE GLN D   5      19.828  14.067 156.011  1.00 20.00 LIG 0.16  HD
ATOM     49 OE1  GLN D   5      17.680  15.049 155.416  1.00 20.00 LIG-0.27  OA
ENDBRANCH 44 45
ENDBRANCH 43 44
ENDBRANCH 42 43
BRANCH 42 50
ATOM     50  C   GLN D   5      17.640  18.426 152.480  1.00 64.61 LIG 0.22  C 
ATOM     51 O    GLN D   5      17.768  18.948 151.412  1.00 68.60 LIG-0.29  OA
ENDBRANCH 42 50
ENDBRANCH 40 42
ENDBRANCH 37 38
BRANCH 37 52
ATOM     52  CB  LYS D   4      13.169  15.725 151.188  1.00 33.42 LIG 0.04  C 
BRANCH 52 53
ATOM     53  CG  LYS D   4      12.683  15.889 152.552  1.00 40.53 LIG 0.00  C 
BRANCH 53 54
ATOM     54  CD  LYS D   4      12.915  14.686 153.300  1.00 50.17 LIG 0.03  C 
BRANCH 54 55
ATOM     55  CE  LYS D   4      11.784  14.397 154.245  1.00 57.03 LIG 0.23  C 
BRANCH 55 56
ATOM     56  NZ  LYS D   4      11.671  12.945 154.378  1.00 52.11 LIG-0.08  N 
ATOM     57 HZ3  LYS D   4      12.459  12.569 154.206  1.00 52.11 LIG 0.27  HD
ATOM     58 HZ2  LYS D   4      11.065  12.640 153.802  1.00 52.11 LIG 0.27  HD
ATOM     59 HZ1  LYS D   4      11.421  12.742 155.208  1.00 52.11 LIG 0.27  HD
ENDBRANCH 55 56
ENDBRANCH 54 55
ENDBRANCH 53 54
ENDBRANCH 52 53
ENDBRANCH 37 52
ENDBRANCH 35 37
ENDBRANCH 1 33
TORSDOF 24
ENDMDL
MODEL 9
USER: ADFR SOLUTION from run 79
USER: SCORE 17.925491 LL:  -2.975 LR: -17.298 RR:   0.000 FEB: -10.138
USER: RMSD 3.542755
USER: SEED 78
USER: STATUS no improvement in best in 14 clusters for 5 generations
USER: GENES 26
USER: genes 0 Translation |==|  0.52923 0.46177 0.50069
USER: genes 1 Rotation |==|  0.47002 0.57675 0.50344 0.99315
USER: genes 2 Torsion [CB]-CA--N-[C] |==|  0.27752
USER: genes 3 Torsion [N]-C--CA-[N] |==|  0.49176
USER: genes 4 Torsion [C]-CA--CB-[CG] |==|  0.55023
USER: genes 5 Torsion [CA]-CB--CG-[CD] |==|  0.46226
USER: genes 6 Torsion [CB]-CG--CD-[NE] |==|  0.74114
USER: genes 7 Torsion [CG]-CD--NE-[HE] |==|  0.35325
USER: genes 8 Torsion [C]-CA--N-[C] |==|  0.77076
USER: genes 9 Torsion [N]-C--CA-[N] |==|  0.25656
USER: genes 10 Torsion [C]-CA--N-[H1] |==|  0.80391
USER: genes 11 Torsion [N]-CA--CB-[CG2] |==|  0.17162
USER: genes 12 Torsion [CA]-CB--OG1-[HG1] |==|  0.79636
USER: genes 13 Torsion [N]-CA--C-[N] |==|  0.44373
USER: genes 14 Torsion [C]-N--CA-[CB] |==|  0.45855
USER: genes 15 Torsion [N]-CA--C-[N] |==|  0.46203
USER: genes 16 Torsion [C]-N--CA-[CB] |==|  0.62119
USER: genes 17 Torsion [N]-CA--CB-[CG] |==|  0.87928
USER: genes 18 Torsion [CA]-CB--CG-[CD] |==|  0.25301
USER: genes 19 Torsion [CB]-CG--CD-[OE1] |==|  0.07004
USER: genes 20 Torsion [N]-CA--C-[O] |==|  0.94691
USER: genes 21 Torsion [N]-CA--CB-[CG] |==|  0.75874
USER: genes 22 Torsion [CA]-CB--CG-[CD] |==|  0.64800
USER: genes 23 Torsion [CB]-CG--CD-[CE] |==|  0.50354
USER: genes 24 Torsion [CG]-CD--CE-[NZ] |==|  0.28669
USER: genes 25 Torsion [CD]-CE--NZ-[HZ2] |==|  0.72726
ROOT
ATOM      1  CA  THR D   3      15.738  15.864 148.525  1.00 39.79 LIG 0.20  C 
ENDROOT
BRANCH 1 2
ATOM      2  N   THR D   3      14.319  15.576 148.328  1.00 34.46 LIG-0.34  N 
ATOM      3  C   ARG D   2      13.901  14.415 147.825  1.00 39.53 LIG 0.24  C 
ATOM      4 O    ARG D   2      14.675  13.564 147.382  1.00 39.08 LIG-0.27  OA
ATOM      5 H    THR D   3      13.792  16.215 148.562  1.00 34.46 LIG 0.16  HD
BRANCH 3 6
ATOM      6  CA  ARG D   2      12.385  14.172 147.795  1.00 42.24 LIG 0.18  C 
BRANCH 6 7
ATOM      7  CB  ARG D   2      11.818  14.140 149.216  1.00 49.82 LIG 0.04  C 
BRANCH 7 8
ATOM      8  CG  ARG D   2      10.447  13.500 149.384  1.00 55.24 LIG 0.02  C 
BRANCH 8 9
ATOM      9  CD  ARG D   2      10.166  13.238 150.872  1.00 55.63 LIG 0.14  C 
BRANCH 9 10
ATOM     10  NE  ARG D   2      10.552  11.891 151.296  1.00 65.78 LIG-0.23  N 
ATOM     11 HE   ARG D   2      11.069  11.821 151.979  1.00 65.78 LIG 0.18  HD
ATOM     12  CZ  ARG D   2      10.162  10.766 150.701  1.00 70.57 LIG 0.67  C 
ATOM     13  NH1 ARG D   2       9.371  10.807 149.638  1.00 66.11 LIG-0.23  N 
ATOM     14  NH2 ARG D   2      10.570   9.591 151.166  1.00 74.94 LIG-0.23  N 
ATOM     15 1HH1 ARG D   2       9.106  11.564 149.329  1.00 66.11 LIG 0.17  HD
ATOM     16 2HH1 ARG D   2       9.122  10.076 149.258  1.00 66.11 LIG 0.17  HD
ATOM     17 2HH2 ARG D   2      10.317   8.865 150.780  1.00 74.94 LIG 0.17  HD
ATOM     18 1HH2 ARG D   2      11.086   9.556 151.853  1.00 74.94 LIG 0.17  HD
ENDBRANCH 9 10
ENDBRANCH 8 9
ENDBRANCH 7 8
ENDBRANCH 6 7
BRANCH 6 19
ATOM     19  N   ARG D   2      12.099  12.892 147.154  1.00 42.84 LIG-0.35  N 
ATOM     20  C   ALA D   1      12.041  12.756 145.839  1.00 44.74 LIG 0.25  C 
ATOM     21 O    ALA D   1      12.147  13.706 145.068  1.00 48.31 LIG-0.27  OA
ATOM     22 H    ARG D   2      11.973  12.244 147.705  1.00 42.84 LIG 0.16  HD
BRANCH 20 23
ATOM     23  CA  ALA D   1      11.819  11.334 145.322  1.00 45.19 LIG 0.27  C 
ATOM     24  CB  ALA D   1      12.565  11.124 144.023  1.00 43.32 LIG 0.05  C 
BRANCH 23 25
ATOM     25  N   ALA D   1      10.403  11.070 145.134  1.00 39.75 LIG-0.07  N 
ATOM     26 H1   ALA D   1      10.004  11.011 145.928  1.00 39.75 LIG 0.28  HD
ATOM     27 H2   ALA D   1      10.037  11.734 144.668  1.00 39.75 LIG 0.28  HD
ATOM     28 H3   ALA D   1      10.299  10.305 144.692  1.00 39.75 LIG 0.28  HD
ENDBRANCH 23 25
ENDBRANCH 20 23
ENDBRANCH 6 19
ENDBRANCH 3 6
ENDBRANCH 1 2
BRANCH 1 29
ATOM     29  CB  THR D   3      16.318  16.738 147.390  1.00 46.90 LIG 0.15  C 
ATOM     30  CG2 THR D   3      15.623  18.086 147.335  1.00 44.81 LIG 0.04  C 
BRANCH 29 31
ATOM     31 OG1  THR D   3      17.720  16.944 147.610  1.00 48.09 LIG-0.39  OA
ATOM     32 HG1  THR D   3      17.828  17.484 148.244  1.00 48.09 LIG 0.21  HD
ENDBRANCH 29 31
ENDBRANCH 1 29
BRANCH 1 33
ATOM     33  C   THR D   3      15.958  16.588 149.853  1.00 42.40 LIG 0.24  C 
ATOM     34 O    THR D   3      15.044  17.223 150.389  1.00 40.34 LIG-0.27  OA
ATOM     35  N   LYS D   4      17.153  16.565 150.376  1.00 38.45 LIG-0.35  N 
ATOM     36 H    LYS D   4      17.815  16.112 150.067  1.00 38.45 LIG 0.16  HD
BRANCH 35 37
ATOM     37  CA  LYS D   4      17.440  17.335 151.561  1.00 37.56 LIG 0.18  C 
BRANCH 37 38
ATOM     38  C   LYS D   4      17.436  18.824 151.247  1.00 44.28 LIG 0.24  C 
ATOM     39 O    LYS D   4      17.436  19.169 150.127  1.00 49.08 LIG-0.27  OA
ATOM     40  N   GLN D   5      17.407  19.644 152.283  1.00 53.59 LIG-0.35  N 
ATOM     41 H    GLN D   5      17.130  19.334 153.036  1.00 53.59 LIG 0.16  HD
BRANCH 40 42
ATOM     42  CA  GLN D   5      17.769  21.081 152.451  1.00 61.39 LIG 0.16  C 
BRANCH 42 43
ATOM     43  CB  GLN D   5      18.567  21.424 153.717  1.00 20.00 LIG 0.04  C 
BRANCH 43 44
ATOM     44  CG  GLN D   5      18.031  20.722 154.988  1.00 20.00 LIG 0.10  C 
BRANCH 44 45
ATOM     45  CD  GLN D   5      18.645  19.363 155.323  1.00 20.00 LIG 0.21  C 
ATOM     46  NE2 GLN D   5      17.878  18.531 156.016  1.00 20.00 LIG-0.37  N 
ATOM     47 21HE GLN D   5      17.093  18.778 156.267  1.00 20.00 LIG 0.16  HD
ATOM     48 22HE GLN D   5      18.165  17.745 156.215  1.00 20.00 LIG 0.16  HD
ATOM     49 OE1  GLN D   5      19.777  19.055 154.941  1.00 20.00 LIG-0.27  OA
ENDBRANCH 44 45
ENDBRANCH 43 44
ENDBRANCH 42 43
BRANCH 42 50
ATOM     50  C   GLN D   5      18.209  21.965 151.309  1.00 64.61 LIG 0.22  C 
ATOM     51 O    GLN D   5      18.612  21.495 150.286  1.00 68.60 LIG-0.29  OA
ENDBRANCH 42 50
ENDBRANCH 40 42
ENDBRANCH 37 38
BRANCH 37 52
ATOM     52  CB  LYS D   4      18.741  16.875 152.180  1.00 33.42 LIG 0.04  C 
BRANCH 52 53
ATOM     53  CG  LYS D   4      18.607  15.759 153.108  1.00 40.53 LIG 0.00  C 
BRANCH 53 54
ATOM     54  CD  LYS D   4      19.217  16.094 154.363  1.00 50.17 LIG 0.03  C 
BRANCH 54 55
ATOM     55  CE  LYS D   4      19.128  14.956 155.340  1.00 57.03 LIG 0.23  C 
BRANCH 55 56
ATOM     56  NZ  LYS D   4      20.440  14.313 155.401  1.00 52.11 LIG-0.08  N 
ATOM     57 HZ3  LYS D   4      21.063  14.883 155.123  1.00 52.11 LIG 0.27  HD
ATOM     58 HZ2  LYS D   4      20.442  13.593 154.878  1.00 52.11 LIG 0.27  HD
ATOM     59 HZ1  LYS D   4      20.613  14.070 156.240  1.00 52.11 LIG 0.27  HD
ENDBRANCH 55 56
ENDBRANCH 54 55
ENDBRANCH 53 54
ENDBRANCH 52 53
ENDBRANCH 37 52
ENDBRANCH 35 37
ENDBRANCH 1 33
TORSDOF 24
ENDMDL
MODEL 10
USER: ADFR SOLUTION from run 30
USER: SCORE 18.243092 LL:  -2.391 LR: -17.249 RR:   0.000 FEB: -10.090
USER: RMSD 4.262748
USER: SEED 29
USER: STATUS searching
USER: GENES 26
USER: genes 0 Translation |==|  0.54484 0.48737 0.46650
USER: genes 1 Rotation |==|  0.60944 0.53481 0.59740 0.97679
USER: genes 2 Torsion [CB]-CA--N-[C] |==|  0.48890
USER: genes 3 Torsion [N]-C--CA-[N] |==|  0.41186
USER: genes 4 Torsion [C]-CA--CB-[CG] |==|  0.79085
USER: genes 5 Torsion [CA]-CB--CG-[CD] |==|  0.67313
USER: genes 6 Torsion [CB]-CG--CD-[NE] |==|  0.45683
USER: genes 7 Torsion [CG]-CD--NE-[HE] |==|  0.67469
USER: genes 8 Torsion [C]-CA--N-[C] |==|  0.64382
USER: genes 9 Torsion [N]-C--CA-[N] |==|  0.25368
USER: genes 10 Torsion [C]-CA--N-[H1] |==|  0.44267
USER: genes 11 Torsion [N]-CA--CB-[CG2] |==|  0.25195
USER: genes 12 Torsion [CA]-CB--OG1-[HG1] |==|  0.83424
USER: genes 13 Torsion [N]-CA--C-[N] |==|  0.46453
USER: genes 14 Torsion [C]-N--CA-[CB] |==|  0.50702
USER: genes 15 Torsion [N]-CA--C-[N] |==|  0.37118
USER: genes 16 Torsion [C]-N--CA-[CB] |==|  0.50503
USER: genes 17 Torsion [N]-CA--CB-[CG] |==|  0.84814
USER: genes 18 Torsion [CA]-CB--CG-[CD] |==|  0.34455
USER: genes 19 Torsion [CB]-CG--CD-[OE1] |==|  0.01554
USER: genes 20 Torsion [N]-CA--C-[O] |==|  0.19868
USER: genes 21 Torsion [N]-CA--CB-[CG] |==|  0.65344
USER: genes 22 Torsion [CA]-CB--CG-[CD] |==|  0.74334
USER: genes 23 Torsion [CB]-CG--CD-[CE] |==|  0.46845
USER: genes 24 Torsion [CG]-CD--CE-[NZ] |==|  0.20071
USER: genes 25 Torsion [CD]-CE--NZ-[HZ2] |==|  0.69178
ROOT
ATOM      1  CA  THR D   3      16.031  16.420 147.730  1.00 39.79 LIG 0.20  C 
ENDROOT
BRANCH 1 2
ATOM      2  N   THR D   3      14.783  15.975 147.114  1.00 34.46 LIG-0.34  N 
ATOM      3  C   ARG D   2      14.371  14.710 147.196  1.00 39.53 LIG 0.24  C 
ATOM      4 O    ARG D   2      15.065  13.815 147.682  1.00 39.08 LIG-0.27  OA
ATOM      5 H    THR D   3      14.350  16.595 146.702  1.00 34.46 LIG 0.16  HD
BRANCH 3 6
ATOM      6  CA  ARG D   2      12.979  14.391 146.632  1.00 42.24 LIG 0.18  C 
BRANCH 6 7
ATOM      7  CB  ARG D   2      11.917  14.503 147.728  1.00 49.82 LIG 0.04  C 
BRANCH 7 8
ATOM      8  CG  ARG D   2      11.862  13.366 148.738  1.00 55.24 LIG 0.02  C 
BRANCH 8 9
ATOM      9  CD  ARG D   2      10.503  12.654 148.659  1.00 55.63 LIG 0.14  C 
BRANCH 9 10
ATOM     10  NE  ARG D   2      10.503  11.350 149.324  1.00 65.78 LIG-0.23  N 
ATOM     11 HE   ARG D   2      10.359  10.656 148.839  1.00 65.78 LIG 0.18  HD
ATOM     12  CZ  ARG D   2      10.710  11.161 150.626  1.00 70.57 LIG 0.67  C 
ATOM     13  NH1 ARG D   2      10.931  12.192 151.428  1.00 66.11 LIG-0.23  N 
ATOM     14  NH2 ARG D   2      10.691   9.934 151.131  1.00 74.94 LIG-0.23  N 
ATOM     15 1HH1 ARG D   2      10.941  12.991 151.109  1.00 66.11 LIG 0.17  HD
ATOM     16 2HH1 ARG D   2      11.064  12.064 152.268  1.00 66.11 LIG 0.17  HD
ATOM     17 2HH2 ARG D   2      10.824   9.813 151.972  1.00 74.94 LIG 0.17  HD
ATOM     18 1HH2 ARG D   2      10.544   9.259 150.617  1.00 74.94 LIG 0.17  HD
ENDBRANCH 9 10
ENDBRANCH 8 9
ENDBRANCH 7 8
ENDBRANCH 6 7
BRANCH 6 19
ATOM     19  N   ARG D   2      12.956  13.030 146.103  1.00 42.84 LIG-0.35  N 
ATOM     20  C   ALA D   1      12.532  12.753 144.881  1.00 44.74 LIG 0.25  C 
ATOM     21 O    ALA D   1      12.056  13.604 144.134  1.00 48.31 LIG-0.27  OA
ATOM     22 H    ARG D   2      13.241  12.435 146.654  1.00 42.84 LIG 0.16  HD
BRANCH 20 23
ATOM     23  CA  ALA D   1      12.653  11.293 144.445  1.00 45.19 LIG 0.27  C 
ATOM     24  CB  ALA D   1      12.944  11.208 142.963  1.00 43.32 LIG 0.05  C 
BRANCH 23 25
ATOM     25  N   ALA D   1      11.439  10.559 144.759  1.00 39.75 LIG-0.07  N 
ATOM     26 H1   ALA D   1      11.395   9.827 144.254  1.00 39.75 LIG 0.28  HD
ATOM     27 H2   ALA D   1      11.447  10.326 145.618  1.00 39.75 LIG 0.28  HD
ATOM     28 H3   ALA D   1      10.731  11.073 144.597  1.00 39.75 LIG 0.28  HD
ENDBRANCH 23 25
ENDBRANCH 20 23
ENDBRANCH 6 19
ENDBRANCH 3 6
ENDBRANCH 1 2
BRANCH 1 29
ATOM     29  CB  THR D   3      16.340  17.901 147.415  1.00 46.90 LIG 0.15  C 
ATOM     30  CG2 THR D   3      15.749  18.815 148.472  1.00 44.81 LIG 0.04  C 
BRANCH 29 31
ATOM     31 OG1  THR D   3      17.759  18.098 147.369  1.00 48.09 LIG-0.39  OA
ATOM     32 HG1  THR D   3      18.096  17.891 148.110  1.00 48.09 LIG 0.21  HD
ENDBRANCH 29 31
ENDBRANCH 1 29
BRANCH 1 33
ATOM     33  C   THR D   3      15.968  16.253 149.248  1.00 42.40 LIG 0.24  C 
ATOM     34 O    THR D   3      14.889  16.074 149.823  1.00 40.34 LIG-0.27  OA
ATOM     35  N   LYS D   4      17.078  16.362 149.926  1.00 38.45 LIG-0.35  N 
ATOM     36 H    LYS D   4      17.858  16.451 149.577  1.00 38.45 LIG 0.16  HD
BRANCH 35 37
ATOM     37  CA  LYS D   4      17.050  16.335 151.368  1.00 37.56 LIG 0.18  C 
BRANCH 37 38
ATOM     38  C   LYS D   4      16.055  17.353 151.904  1.00 44.28 LIG 0.24  C 
ATOM     39 O    LYS D   4      16.043  18.433 151.448  1.00 49.08 LIG-0.27  OA
ATOM     40  N   GLN D   5      15.237  16.932 152.853  1.00 53.59 LIG-0.35  N 
ATOM     41 H    GLN D   5      15.114  16.085 152.936  1.00 53.59 LIG 0.16  HD
BRANCH 40 42
ATOM     42  CA  GLN D   5      14.424  17.644 153.882  1.00 61.39 LIG 0.16  C 
BRANCH 42 43
ATOM     43  CB  GLN D   5      13.626  16.747 154.839  1.00 20.00 LIG 0.04  C 
BRANCH 43 44
ATOM     44  CG  GLN D   5      12.698  15.746 154.108  1.00 20.00 LIG 0.10  C 
BRANCH 44 45
ATOM     45  CD  GLN D   5      12.894  14.268 154.446  1.00 20.00 LIG 0.21  C 
ATOM     46  NE2 GLN D   5      12.201  13.406 153.713  1.00 20.00 LIG-0.37  N 
ATOM     47 21HE GLN D   5      11.665  13.692 153.105  1.00 20.00 LIG 0.16  HD
ATOM     48 22HE GLN D   5      12.288  12.561 153.846  1.00 20.00 LIG 0.16  HD
ATOM     49 OE1  GLN D   5      13.674  13.906 155.330  1.00 20.00 LIG-0.27  OA
ENDBRANCH 44 45
ENDBRANCH 43 44
ENDBRANCH 42 43
BRANCH 42 50
ATOM     50  C   GLN D   5      14.901  18.877 154.609  1.00 64.61 LIG 0.22  C 
ATOM     51 O    GLN D   5      14.988  19.930 154.048  1.00 68.60 LIG-0.29  OA
ENDBRANCH 42 50
ENDBRANCH 40 42
ENDBRANCH 37 38
BRANCH 37 52
ATOM     52  CB  LYS D   4      18.445  16.539 151.919  1.00 33.42 LIG 0.04  C 
BRANCH 52 53
ATOM     53  CG  LYS D   4      18.894  15.491 152.826  1.00 40.53 LIG 0.00  C 
BRANCH 53 54
ATOM     54  CD  LYS D   4      18.581  15.852 154.180  1.00 50.17 LIG 0.03  C 
BRANCH 54 55
ATOM     55  CE  LYS D   4      18.773  14.694 155.118  1.00 57.03 LIG 0.23  C 
BRANCH 55 56
ATOM     56  NZ  LYS D   4      20.211  14.471 155.266  1.00 52.11 LIG-0.08  N 
ATOM     57 HZ3  LYS D   4      20.656  15.139 154.882  1.00 52.11 LIG 0.27  HD
ATOM     58 HZ2  LYS D   4      20.434  13.703 154.875  1.00 52.11 LIG 0.27  HD
ATOM     59 HZ1  LYS D   4      20.418  14.435 156.130  1.00 52.11 LIG 0.27  HD
ENDBRANCH 55 56
ENDBRANCH 54 55
ENDBRANCH 53 54
ENDBRANCH 52 53
ENDBRANCH 37 52
ENDBRANCH 35 37
ENDBRANCH 1 33
TORSDOF 24
ENDMDL
MODEL 11
USER: ADFR SOLUTION from run 141
USER: SCORE 17.367325 LL:  -3.311 LR: -17.176 RR:   0.000 FEB: -10.017
USER: RMSD 1.991064
USER: SEED 140
USER: STATUS no improvement in best in 25 clusters for 5 generations
USER: GENES 26
USER: genes 0 Translation |==|  0.56000 0.45239 0.45656
USER: genes 1 Rotation |==|  0.48546 0.45717 0.43554 0.99376
USER: genes 2 Torsion [CB]-CA--N-[C] |==|  0.36635
USER: genes 3 Torsion [N]-C--CA-[N] |==|  0.37888
USER: genes 4 Torsion [C]-CA--CB-[CG] |==|  0.94322
USER: genes 5 Torsion [CA]-CB--CG-[CD] |==|  0.69702
USER: genes 6 Torsion [CB]-CG--CD-[NE] |==|  0.24249
USER: genes 7 Torsion [CG]-CD--NE-[HE] |==|  0.19138
USER: genes 8 Torsion [C]-CA--N-[C] |==|  0.83317
USER: genes 9 Torsion [N]-C--CA-[N] |==|  0.32347
USER: genes 10 Torsion [C]-CA--N-[H1] |==|  0.74738
USER: genes 11 Torsion [N]-CA--CB-[CG2] |==|  0.92265
USER: genes 12 Torsion [CA]-CB--OG1-[HG1] |==|  0.31126
USER: genes 13 Torsion [N]-CA--C-[N] |==|  0.49744
USER: genes 14 Torsion [C]-N--CA-[CB] |==|  0.48008
USER: genes 15 Torsion [N]-CA--C-[N] |==|  0.93233
USER: genes 16 Torsion [C]-N--CA-[CB] |==|  0.76279
USER: genes 17 Torsion [N]-CA--CB-[CG] |==|  0.63065
USER: genes 18 Torsion [CA]-CB--CG-[CD] |==|  0.26841
USER: genes 19 Torsion [CB]-CG--CD-[OE1] |==|  0.22290
USER: genes 20 Torsion [N]-CA--C-[O] |==|  0.13383
USER: genes 21 Torsion [N]-CA--CB-[CG] |==|  0.72756
USER: genes 22 Torsion [CA]-CB--CG-[CD] |==|  0.51531
USER: genes 23 Torsion [CB]-CG--CD-[CE] |==|  0.53547
USER: genes 24 Torsion [CG]-CD--CE-[NZ] |==|  0.43046
USER: genes 25 Torsion [CD]-CE--NZ-[HZ2] |==|  0.02279
ROOT
ATOM      1  CA  THR D   3      16.315  15.659 147.499  1.00 39.79 LIG 0.20  C 
ENDROOT
BRANCH 1 2
ATOM      2  N   THR D   3      15.135  15.721 146.639  1.00 34.46 LIG-0.34  N 
ATOM      3  C   ARG D   2      14.377  14.649 146.409  1.00 39.53 LIG 0.24  C 
ATOM      4 O    ARG D   2      14.685  13.520 146.799  1.00 39.08 LIG-0.27  OA
ATOM      5 H    THR D   3      14.980  16.498 146.304  1.00 34.46 LIG 0.16  HD
BRANCH 3 6
ATOM      6  CA  ARG D   2      13.087  14.865 145.606  1.00 42.24 LIG 0.18  C 
BRANCH 6 7
ATOM      7  CB  ARG D   2      11.868  14.843 146.531  1.00 49.82 LIG 0.04  C 
BRANCH 7 8
ATOM      8  CG  ARG D   2      12.053  14.164 147.880  1.00 55.24 LIG 0.02  C 
BRANCH 8 9
ATOM      9  CD  ARG D   2      11.277  12.838 147.914  1.00 55.63 LIG 0.14  C 
BRANCH 9 10
ATOM     10  NE  ARG D   2      12.054  11.711 147.395  1.00 65.78 LIG-0.23  N 
ATOM     11 HE   ARG D   2      12.727  11.443 147.858  1.00 65.78 LIG 0.18  HD
ATOM     12  CZ  ARG D   2      11.797  11.070 146.256  1.00 70.57 LIG 0.67  C 
ATOM     13  NH1 ARG D   2      10.778  11.440 145.493  1.00 66.11 LIG-0.23  N 
ATOM     14  NH2 ARG D   2      12.565  10.057 145.875  1.00 74.94 LIG-0.23  N 
ATOM     15 1HH1 ARG D   2      10.279  12.097 145.731  1.00 66.11 LIG 0.17  HD
ATOM     16 2HH1 ARG D   2      10.617  11.022 144.759  1.00 66.11 LIG 0.17  HD
ATOM     17 2HH2 ARG D   2      12.397   9.644 145.139  1.00 74.94 LIG 0.17  HD
ATOM     18 1HH2 ARG D   2      13.230   9.814 146.362  1.00 74.94 LIG 0.17  HD
ENDBRANCH 9 10
ENDBRANCH 8 9
ENDBRANCH 7 8
ENDBRANCH 6 7
BRANCH 6 19
ATOM     19  N   ARG D   2      12.934  13.803 144.615  1.00 42.84 LIG-0.35  N 
ATOM     20  C   ALA D   1      13.828  13.590 143.663  1.00 44.74 LIG 0.25  C 
ATOM     21 O    ALA D   1      14.808  14.313 143.497  1.00 48.31 LIG-0.27  OA
ATOM     22 H    ARG D   2      12.218  13.337 144.707  1.00 42.84 LIG 0.16  HD
BRANCH 20 23
ATOM     23  CA  ALA D   1      13.569  12.385 142.758  1.00 45.19 LIG 0.27  C 
ATOM     24  CB  ALA D   1      14.729  11.418 142.823  1.00 43.32 LIG 0.05  C 
BRANCH 23 25
ATOM     25  N   ALA D   1      13.349  12.811 141.386  1.00 39.75 LIG-0.07  N 
ATOM     26 H1   ALA D   1      12.479  12.948 141.253  1.00 39.75 LIG 0.28  HD
ATOM     27 H2   ALA D   1      13.794  13.566 141.235  1.00 39.75 LIG 0.28  HD
ATOM     28 H3   ALA D   1      13.637  12.180 140.829  1.00 39.75 LIG 0.28  HD
ENDBRANCH 23 25
ENDBRANCH 20 23
ENDBRANCH 6 19
ENDBRANCH 3 6
ENDBRANCH 1 2
BRANCH 1 29
ATOM     29  CB  THR D   3      17.548  16.320 146.842  1.00 46.90 LIG 0.15  C 
ATOM     30  CG2 THR D   3      17.461  16.246 145.329  1.00 44.81 LIG 0.04  C 
BRANCH 29 31
ATOM     31 OG1  THR D   3      17.625  17.696 147.237  1.00 48.09 LIG-0.39  OA
ATOM     32 HG1  THR D   3      18.296  17.810 147.730  1.00 48.09 LIG 0.21  HD
ENDBRANCH 29 31
ENDBRANCH 1 29
BRANCH 1 33
ATOM     33  C   THR D   3      16.044  16.359 148.830  1.00 42.40 LIG 0.24  C 
ATOM     34 O    THR D   3      14.973  16.938 149.038  1.00 40.34 LIG-0.27  OA
ATOM     35  N   LYS D   4      16.998  16.377 149.722  1.00 38.45 LIG-0.35  N 
ATOM     36 H    LYS D   4      17.747  15.962 149.646  1.00 38.45 LIG 0.16  HD
BRANCH 35 37
ATOM     37  CA  LYS D   4      16.835  17.129 150.941  1.00 37.56 LIG 0.18  C 
BRANCH 37 38
ATOM     38  C   LYS D   4      16.668  18.611 150.639  1.00 44.28 LIG 0.24  C 
ATOM     39 O    LYS D   4      16.133  19.295 151.427  1.00 49.08 LIG-0.27  OA
ATOM     40  N   GLN D   5      17.173  19.039 149.495  1.00 53.59 LIG-0.35  N 
ATOM     41 H    GLN D   5      17.778  18.560 149.115  1.00 53.59 LIG 0.16  HD
BRANCH 40 42
ATOM     42  CA  GLN D   5      16.914  20.247 148.660  1.00 61.39 LIG 0.16  C 
BRANCH 42 43
ATOM     43  CB  GLN D   5      15.744  20.135 147.671  1.00 20.00 LIG 0.04  C 
BRANCH 43 44
ATOM     44  CG  GLN D   5      16.096  20.632 146.248  1.00 20.00 LIG 0.10  C 
BRANCH 44 45
ATOM     45  CD  GLN D   5      16.509  19.562 145.238  1.00 20.00 LIG 0.21  C 
ATOM     46  NE2 GLN D   5      17.815  19.403 145.059  1.00 20.00 LIG-0.37  N 
ATOM     47 21HE GLN D   5      18.371  19.902 145.483  1.00 20.00 LIG 0.16  HD
ATOM     48 22HE GLN D   5      18.104  18.801 144.517  1.00 20.00 LIG 0.16  HD
ATOM     49 OE1  GLN D   5      15.673  18.871 144.652  1.00 20.00 LIG-0.27  OA
ENDBRANCH 44 45
ENDBRANCH 43 44
ENDBRANCH 42 43
BRANCH 42 50
ATOM     50  C   GLN D   5      17.009  21.657 149.189  1.00 64.61 LIG 0.22  C 
ATOM     51 O    GLN D   5      17.956  22.015 149.826  1.00 68.60 LIG-0.29  OA
ENDBRANCH 42 50
ENDBRANCH 40 42
ENDBRANCH 37 38
BRANCH 37 52
ATOM     52  CB  LYS D   4      17.988  16.853 151.881  1.00 33.42 LIG 0.04  C 
BRANCH 52 53
ATOM     53  CG  LYS D   4      17.704  15.860 152.909  1.00 40.53 LIG 0.00  C 
BRANCH 53 54
ATOM     54  CD  LYS D   4      18.812  15.769 153.818  1.00 50.17 LIG 0.03  C 
BRANCH 54 55
ATOM     55  CE  LYS D   4      18.703  14.559 154.701  1.00 57.03 LIG 0.23  C 
BRANCH 55 56
ATOM     56  NZ  LYS D   4      20.052  14.197 155.134  1.00 52.11 LIG-0.08  N 
ATOM     57 HZ3  LYS D   4      20.068  14.116 156.021  1.00 52.11 LIG 0.27  HD
ATOM     58 HZ2  LYS D   4      20.624  14.831 154.885  1.00 52.11 LIG 0.27  HD
ATOM     59 HZ1  LYS D   4      20.286  13.423 154.762  1.00 52.11 LIG 0.27  HD
ENDBRANCH 55 56
ENDBRANCH 54 55
ENDBRANCH 53 54
ENDBRANCH 52 53
ENDBRANCH 37 52
ENDBRANCH 35 37
ENDBRANCH 1 33
TORSDOF 24
ENDMDL
MODEL 12
USER: ADFR SOLUTION from run 141
USER: SCORE 16.986439 LL:  -2.943 LR: -17.066 RR:   0.000 FEB:  -9.907
USER: RMSD 2.548035
USER: SEED 140
USER: STATUS no improvement in best in 25 clusters for 5 generations
USER: GENES 26
USER: genes 0 Translation |==|  0.56000 0.45401 0.46052
USER: genes 1 Rotation |==|  0.48479 0.46036 0.43671 0.99416
USER: genes 2 Torsion [CB]-CA--N-[C] |==|  0.35654
USER: genes 3 Torsion [N]-C--CA-[N] |==|  0.38855
USER: genes 4 Torsion [C]-CA--CB-[CG] |==|  0.93660
USER: genes 5 Torsion [CA]-CB--CG-[CD] |==|  0.70034
USER: genes 6 Torsion [CB]-CG--CD-[NE] |==|  0.24062
USER: genes 7 Torsion [CG]-CD--NE-[HE] |==|  0.18895
USER: genes 8 Torsion [C]-CA--N-[C] |==|  0.81382
USER: genes 9 Torsion [N]-C--CA-[N] |==|  0.35381
USER: genes 10 Torsion [C]-CA--N-[H1] |==|  0.75243
USER: genes 11 Torsion [N]-CA--CB-[CG2] |==|  0.92190
USER: genes 12 Torsion [CA]-CB--OG1-[HG1] |==|  0.32634
USER: genes 13 Torsion [N]-CA--C-[N] |==|  0.53295
USER: genes 14 Torsion [C]-N--CA-[CB] |==|  0.44196
USER: genes 15 Torsion [N]-CA--C-[N] |==|  0.94953
USER: genes 16 Torsion [C]-N--CA-[CB] |==|  0.20883
USER: genes 17 Torsion [N]-CA--CB-[CG] |==|  0.07300
USER: genes 18 Torsion [CA]-CB--CG-[CD] |==|  0.44628
USER: genes 19 Torsion [CB]-CG--CD-[OE1] |==|  0.17052
USER: genes 20 Torsion [N]-CA--C-[O] |==|  0.13492
USER: genes 21 Torsion [N]-CA--CB-[CG] |==|  0.72972
USER: genes 22 Torsion [CA]-CB--CG-[CD] |==|  0.51669
USER: genes 23 Torsion [CB]-CG--CD-[CE] |==|  0.53270
USER: genes 24 Torsion [CG]-CD--CE-[NZ] |==|  0.43223
USER: genes 25 Torsion [CD]-CE--NZ-[HZ2] |==|  0.02126
ROOT
ATOM      1  CA  THR D   3      16.315  15.695 147.591  1.00 39.79 LIG 0.20  C 
ENDROOT
BRANCH 1 2
ATOM      2  N   THR D   3      15.123  15.750 146.747  1.00 34.46 LIG-0.34  N 
ATOM      3  C   ARG D   2      14.406  14.660 146.472  1.00 39.53 LIG 0.24  C 
ATOM      4 O    ARG D   2      14.764  13.527 146.803  1.00 39.08 LIG-0.27  OA
ATOM      5 H    THR D   3      14.934  16.535 146.452  1.00 34.46 LIG 0.16  HD
BRANCH 3 6
ATOM      6  CA  ARG D   2      13.099  14.863 145.693  1.00 42.24 LIG 0.18  C 
BRANCH 6 7
ATOM      7  CB  ARG D   2      11.898  14.832 146.641  1.00 49.82 LIG 0.04  C 
BRANCH 7 8
ATOM      8  CG  ARG D   2      12.098  14.111 147.966  1.00 55.24 LIG 0.02  C 
BRANCH 8 9
ATOM      9  CD  ARG D   2      11.325  12.782 147.964  1.00 55.63 LIG 0.14  C 
BRANCH 9 10
ATOM     10  NE  ARG D   2      12.092  11.678 147.386  1.00 65.78 LIG-0.23  N 
ATOM     11 HE   ARG D   2      12.781  11.401 147.819  1.00 65.78 LIG 0.18  HD
ATOM     12  CZ  ARG D   2      11.803  11.070 146.237  1.00 70.57 LIG 0.67  C 
ATOM     13  NH1 ARG D   2      10.758  11.455 145.518  1.00 66.11 LIG-0.23  N 
ATOM     14  NH2 ARG D   2      12.565  10.075 145.800  1.00 74.94 LIG-0.23  N 
ATOM     15 1HH1 ARG D   2      10.262  12.101 145.792  1.00 66.11 LIG 0.17  HD
ATOM     16 2HH1 ARG D   2      10.576  11.059 144.777  1.00 66.11 LIG 0.17  HD
ATOM     17 2HH2 ARG D   2      12.377   9.684 145.058  1.00 74.94 LIG 0.17  HD
ATOM     18 1HH2 ARG D   2      13.247   9.822 146.259  1.00 74.94 LIG 0.17  HD
ENDBRANCH 9 10
ENDBRANCH 8 9
ENDBRANCH 7 8
ENDBRANCH 6 7
BRANCH 6 19
ATOM     19  N   ARG D   2      12.937  13.797 144.708  1.00 42.84 LIG-0.35  N 
ATOM     20  C   ALA D   1      13.739  13.672 143.663  1.00 44.74 LIG 0.25  C 
ATOM     21 O    ALA D   1      14.625  14.482 143.405  1.00 48.31 LIG-0.27  OA
ATOM     22 H    ARG D   2      12.280  13.267 144.869  1.00 42.84 LIG 0.16  HD
BRANCH 20 23
ATOM     23  CA  ALA D   1      13.493  12.453 142.772  1.00 45.19 LIG 0.27  C 
ATOM     24  CB  ALA D   1      14.629  11.464 142.909  1.00 43.32 LIG 0.05  C 
BRANCH 23 25
ATOM     25  N   ALA D   1      13.342  12.853 141.384  1.00 39.75 LIG-0.07  N 
ATOM     26 H1   ALA D   1      12.486  13.031 141.218  1.00 39.75 LIG 0.28  HD
ATOM     27 H2   ALA D   1      13.830  13.581 141.230  1.00 39.75 LIG 0.28  HD
ATOM     28 H3   ALA D   1      13.616  12.194 140.853  1.00 39.75 LIG 0.28  HD
ENDBRANCH 23 25
ENDBRANCH 20 23
ENDBRANCH 6 19
ENDBRANCH 3 6
ENDBRANCH 1 2
BRANCH 1 29
ATOM     29  CB  THR D   3      17.536  16.360 146.917  1.00 46.90 LIG 0.15  C 
ATOM     30  CG2 THR D   3      17.433  16.277 145.405  1.00 44.81 LIG 0.04  C 
BRANCH 29 31
ATOM     31 OG1  THR D   3      17.609  17.738 147.304  1.00 48.09 LIG-0.39  OA
ATOM     32 HG1  THR D   3      18.323  17.874 147.726  1.00 48.09 LIG 0.21  HD
ENDBRANCH 29 31
ENDBRANCH 1 29
BRANCH 1 33
ATOM     33  C   THR D   3      16.059  16.395 148.925  1.00 42.40 LIG 0.24  C 
ATOM     34 O    THR D   3      14.923  16.764 149.241  1.00 40.34 LIG-0.27  OA
ATOM     35  N   LYS D   4      17.082  16.643 149.697  1.00 38.45 LIG-0.35  N 
ATOM     36 H    LYS D   4      17.886  16.379 149.544  1.00 38.45 LIG 0.16  HD
BRANCH 35 37
ATOM     37  CA  LYS D   4      16.909  17.410 150.905  1.00 37.56 LIG 0.18  C 
BRANCH 37 38
ATOM     38  C   LYS D   4      16.749  18.889 150.584  1.00 44.28 LIG 0.24  C 
ATOM     39 O    LYS D   4      16.307  19.605 151.401  1.00 49.08 LIG-0.27  OA
ATOM     40  N   GLN D   5      17.154  19.278 149.387  1.00 53.59 LIG-0.35  N 
ATOM     41 H    GLN D   5      17.708  18.775 148.964  1.00 53.59 LIG 0.16  HD
BRANCH 40 42
ATOM     42  CA  GLN D   5      16.845  20.474 148.550  1.00 61.39 LIG 0.16  C 
BRANCH 42 43
ATOM     43  CB  GLN D   5      17.514  21.785 148.987  1.00 20.00 LIG 0.04  C 
BRANCH 43 44
ATOM     44  CG  GLN D   5      18.835  21.569 149.764  1.00 20.00 LIG 0.10  C 
BRANCH 44 45
ATOM     45  CD  GLN D   5      19.783  22.766 149.836  1.00 20.00 LIG 0.21  C 
ATOM     46  NE2 GLN D   5      20.968  22.606 149.259  1.00 20.00 LIG-0.37  N 
ATOM     47 21HE GLN D   5      21.171  21.855 148.893  1.00 20.00 LIG 0.16  HD
ATOM     48 22HE GLN D   5      21.533  23.254 149.252  1.00 20.00 LIG 0.16  HD
ATOM     49 OE1  GLN D   5      19.447  23.823 150.374  1.00 20.00 LIG-0.27  OA
ENDBRANCH 44 45
ENDBRANCH 43 44
ENDBRANCH 42 43
BRANCH 42 50
ATOM     50  C   GLN D   5      16.738  20.427 147.045  1.00 64.61 LIG 0.22  C 
ATOM     51 O    GLN D   5      16.079  19.590 146.500  1.00 68.60 LIG-0.29  OA
ENDBRANCH 42 50
ENDBRANCH 40 42
ENDBRANCH 37 38
BRANCH 37 52
ATOM     52  CB  LYS D   4      18.050  17.143 151.861  1.00 33.42 LIG 0.04  C 
BRANCH 52 53
ATOM     53  CG  LYS D   4      17.759  16.149 152.886  1.00 40.53 LIG 0.00  C 
BRANCH 53 54
ATOM     54  CD  LYS D   4      18.850  16.075 153.817  1.00 50.17 LIG 0.03  C 
BRANCH 54 55
ATOM     55  CE  LYS D   4      18.726  14.879 154.718  1.00 57.03 LIG 0.23  C 
BRANCH 55 56
ATOM     56  NZ  LYS D   4      20.065  14.535 155.193  1.00 52.11 LIG-0.08  N 
ATOM     57 HZ3  LYS D   4      20.059  14.478 156.082  1.00 52.11 LIG 0.27  HD
ATOM     58 HZ2  LYS D   4      20.640  15.165 154.941  1.00 52.11 LIG 0.27  HD
ATOM     59 HZ1  LYS D   4      20.311  13.753 154.848  1.00 52.11 LIG 0.27  HD
ENDBRANCH 55 56
ENDBRANCH 54 55
ENDBRANCH 53 54
ENDBRANCH 52 53
ENDBRANCH 37 52
ENDBRANCH 35 37
ENDBRANCH 1 33
TORSDOF 24
ENDMDL
MODEL 13
USER: ADFR SOLUTION from run 80
USER: SCORE 17.600584 LL:  -2.766 LR: -17.059 RR:   0.000 FEB:  -9.900
USER: RMSD 4.296597
USER: SEED 79
USER: STATUS no improvement in best in 9 clusters for 5 generations
USER: GENES 26
USER: genes 0 Translation |==|  0.55831 0.45522 0.44544
USER: genes 1 Rotation |==|  0.47474 0.43559 0.45939 0.99352
USER: genes 2 Torsion [CB]-CA--N-[C] |==|  0.39170
USER: genes 3 Torsion [N]-C--CA-[N] |==|  0.35860
USER: genes 4 Torsion [C]-CA--CB-[CG] |==|  0.97072
USER: genes 5 Torsion [CA]-CB--CG-[CD] |==|  0.68196
USER: genes 6 Torsion [CB]-CG--CD-[NE] |==|  0.20216
USER: genes 7 Torsion [CG]-CD--NE-[HE] |==|  0.22112
USER: genes 8 Torsion [C]-CA--N-[C] |==|  0.85839
USER: genes 9 Torsion [N]-C--CA-[N] |==|  0.26439
USER: genes 10 Torsion [C]-CA--N-[H1] |==|  0.82750
USER: genes 11 Torsion [N]-CA--CB-[CG2] |==|  0.81061
USER: genes 12 Torsion [CA]-CB--OG1-[HG1] |==|  0.50053
USER: genes 13 Torsion [N]-CA--C-[N] |==|  0.13450
USER: genes 14 Torsion [C]-N--CA-[CB] |==|  0.52241
USER: genes 15 Torsion [N]-CA--C-[N] |==|  0.40256
USER: genes 16 Torsion [C]-N--CA-[CB] |==|  0.93752
USER: genes 17 Torsion [N]-CA--CB-[CG] |==|  0.18688
USER: genes 18 Torsion [CA]-CB--CG-[CD] |==|  0.10805
USER: genes 19 Torsion [CB]-CG--CD-[OE1] |==|  0.21413
USER: genes 20 Torsion [N]-CA--C-[O] |==|  0.06167
USER: genes 21 Torsion [N]-CA--CB-[CG] |==|  0.39644
USER: genes 22 Torsion [CA]-CB--CG-[CD] |==|  0.64001
USER: genes 23 Torsion [CB]-CG--CD-[CE] |==|  0.59787
USER: genes 24 Torsion [CG]-CD--CE-[NZ] |==|  0.48513
USER: genes 25 Torsion [CD]-CE--NZ-[HZ2] |==|  0.07482
ROOT
ATOM      1  CA  THR D   3      16.283  15.721 147.240  1.00 39.79 LIG 0.20  C 
ENDROOT
BRANCH 1 2
ATOM      2  N   THR D   3      15.175  15.620 146.294  1.00 34.46 LIG-0.34  N 
ATOM      3  C   ARG D   2      14.423  14.522 146.207  1.00 39.53 LIG 0.24  C 
ATOM      4 O    ARG D   2      14.685  13.486 146.822  1.00 39.08 LIG-0.27  OA
ATOM      5 H    THR D   3      15.057  16.321 145.809  1.00 34.46 LIG 0.16  HD
BRANCH 3 6
ATOM      6  CA  ARG D   2      13.203  14.584 145.278  1.00 42.24 LIG 0.18  C 
BRANCH 6 7
ATOM      7  CB  ARG D   2      11.906  14.550 146.091  1.00 49.82 LIG 0.04  C 
BRANCH 7 8
ATOM      8  CG  ARG D   2      12.042  14.217 147.570  1.00 55.24 LIG 0.02  C 
BRANCH 8 9
ATOM      9  CD  ARG D   2      11.358  12.875 147.874  1.00 55.63 LIG 0.14  C 
BRANCH 9 10
ATOM     10  NE  ARG D   2      12.106  11.726 147.362  1.00 65.78 LIG-0.23  N 
ATOM     11 HE   ARG D   2      12.780  11.454 147.821  1.00 65.78 LIG 0.18  HD
ATOM     12  CZ  ARG D   2      11.821  11.071 146.239  1.00 70.57 LIG 0.67  C 
ATOM     13  NH1 ARG D   2      10.798  11.446 145.484  1.00 66.11 LIG-0.23  N 
ATOM     14  NH2 ARG D   2      12.565  10.038 145.864  1.00 74.94 LIG-0.23  N 
ATOM     15 1HH1 ARG D   2      10.314  12.117 145.718  1.00 66.11 LIG 0.17  HD
ATOM     16 2HH1 ARG D   2      10.619  11.019 144.759  1.00 66.11 LIG 0.17  HD
ATOM     17 2HH2 ARG D   2      12.379   9.616 145.137  1.00 74.94 LIG 0.17  HD
ATOM     18 1HH2 ARG D   2      13.232   9.790 146.346  1.00 74.94 LIG 0.17  HD
ENDBRANCH 9 10
ENDBRANCH 8 9
ENDBRANCH 7 8
ENDBRANCH 6 7
BRANCH 6 19
ATOM     19  N   ARG D   2      13.210  13.439 144.371  1.00 42.84 LIG-0.35  N 
ATOM     20  C   ALA D   1      14.271  13.114 143.651  1.00 44.74 LIG 0.25  C 
ATOM     21 O    ALA D   1      15.295  13.791 143.634  1.00 48.31 LIG-0.27  OA
ATOM     22 H    ARG D   2      12.469  13.003 144.350  1.00 42.84 LIG 0.16  HD
BRANCH 20 23
ATOM     23  CA  ALA D   1      14.149  11.837 142.817  1.00 45.19 LIG 0.27  C 
ATOM     24  CB  ALA D   1      15.462  11.088 142.807  1.00 43.32 LIG 0.05  C 
BRANCH 23 25
ATOM     25  N   ALA D   1      13.739  12.148 141.458  1.00 39.75 LIG-0.07  N 
ATOM     26 H1   ALA D   1      12.936  12.531 141.470  1.00 39.75 LIG 0.28  HD
ATOM     27 H2   ALA D   1      14.328  12.706 141.091  1.00 39.75 LIG 0.28  HD
ATOM     28 H3   ALA D   1      13.703  11.399 140.980  1.00 39.75 LIG 0.28  HD
ENDBRANCH 23 25
ENDBRANCH 20 23
ENDBRANCH 6 19
ENDBRANCH 3 6
ENDBRANCH 1 2
BRANCH 1 29
ATOM     29  CB  THR D   3      17.500  16.457 146.635  1.00 46.90 LIG 0.15  C 
ATOM     30  CG2 THR D   3      18.141  15.631 145.535  1.00 44.81 LIG 0.04  C 
BRANCH 29 31
ATOM     31 OG1  THR D   3      17.080  17.714 146.089  1.00 48.09 LIG-0.39  OA
ATOM     32 HG1  THR D   3      17.742  18.112 145.758  1.00 48.09 LIG 0.21  HD
ENDBRANCH 29 31
ENDBRANCH 1 29
BRANCH 1 33
ATOM     33  C   THR D   3      15.845  16.468 148.500  1.00 42.40 LIG 0.24  C 
ATOM     34 O    THR D   3      16.553  17.353 148.992  1.00 40.34 LIG-0.27  OA
ATOM     35  N   LYS D   4      14.730  16.107 149.074  1.00 38.45 LIG-0.35  N 
ATOM     36 H    LYS D   4      14.183  15.524 148.757  1.00 38.45 LIG 0.16  HD
BRANCH 35 37
ATOM     37  CA  LYS D   4      14.338  16.696 150.330  1.00 37.56 LIG 0.18  C 
BRANCH 37 38
ATOM     38  C   LYS D   4      15.506  16.708 151.304  1.00 44.28 LIG 0.24  C 
ATOM     39 O    LYS D   4      16.282  15.830 151.274  1.00 49.08 LIG-0.27  OA
ATOM     40  N   GLN D   5      15.582  17.746 152.120  1.00 53.59 LIG-0.35  N 
ATOM     41 H    GLN D   5      15.160  18.463 151.902  1.00 53.59 LIG 0.16  HD
BRANCH 40 42
ATOM     42  CA  GLN D   5      16.282  17.968 153.418  1.00 61.39 LIG 0.16  C 
BRANCH 42 43
ATOM     43  CB  GLN D   5      16.624  16.702 154.216  1.00 20.00 LIG 0.04  C 
BRANCH 43 44
ATOM     44  CG  GLN D   5      17.691  15.816 153.530  1.00 20.00 LIG 0.10  C 
BRANCH 44 45
ATOM     45  CD  GLN D   5      18.838  16.550 152.836  1.00 20.00 LIG 0.21  C 
ATOM     46  NE2 GLN D   5      18.751  16.650 151.515  1.00 20.00 LIG-0.37  N 
ATOM     47 21HE GLN D   5      18.089  16.293 151.099  1.00 20.00 LIG 0.16  HD
ATOM     48 22HE GLN D   5      19.358  17.070 151.075  1.00 20.00 LIG 0.16  HD
ATOM     49 OE1  GLN D   5      19.770  17.044 153.476  1.00 20.00 LIG-0.27  OA
ENDBRANCH 44 45
ENDBRANCH 43 44
ENDBRANCH 42 43
BRANCH 42 50
ATOM     50  C   GLN D   5      17.359  19.008 153.613  1.00 64.61 LIG 0.22  C 
ATOM     51 O    GLN D   5      17.443  19.953 152.884  1.00 68.60 LIG-0.29  OA
ENDBRANCH 42 50
ENDBRANCH 40 42
ENDBRANCH 37 38
BRANCH 37 52
ATOM     52  CB  LYS D   4      13.126  15.982 150.885  1.00 33.42 LIG 0.04  C 
BRANCH 52 53
ATOM     53  CG  LYS D   4      13.128  15.827 152.334  1.00 40.53 LIG 0.00  C 
BRANCH 53 54
ATOM     54  CD  LYS D   4      12.862  14.459 152.678  1.00 50.17 LIG 0.03  C 
BRANCH 54 55
ATOM     55  CE  LYS D   4      12.048  14.355 153.936  1.00 57.03 LIG 0.23  C 
BRANCH 55 56
ATOM     56  NZ  LYS D   4      11.716  12.945 154.141  1.00 52.11 LIG-0.08  N 
ATOM     57 HZ3  LYS D   4      11.683  12.771 155.013  1.00 52.11 LIG 0.27  HD
ATOM     58 HZ2  LYS D   4      12.339  12.436 153.761  1.00 52.11 LIG 0.27  HD
ATOM     59 HZ1  LYS D   4      10.925  12.770 153.774  1.00 52.11 LIG 0.27  HD
ENDBRANCH 55 56
ENDBRANCH 54 55
ENDBRANCH 53 54
ENDBRANCH 52 53
ENDBRANCH 37 52
ENDBRANCH 35 37
ENDBRANCH 1 33
TORSDOF 24
ENDMDL
MODEL 14
USER: ADFR SOLUTION from run 166
USER: SCORE 17.928091 LL:  -3.480 LR: -16.917 RR:   0.000 FEB:  -9.758
USER: RMSD 1.949859
USER: SEED 165
USER: STATUS no improvement in best in 6 clusters for 5 generations
USER: GENES 26
USER: genes 0 Translation |==|  0.54000 0.43669 0.46882
USER: genes 1 Rotation |==|  0.46631 0.50429 0.52353 0.99829
USER: genes 2 Torsion [CB]-CA--N-[C] |==|  0.27349
USER: genes 3 Torsion [N]-C--CA-[N] |==|  0.41398
USER: genes 4 Torsion [C]-CA--CB-[CG] |==|  0.22378
USER: genes 5 Torsion [CA]-CB--CG-[CD] |==|  0.38431
USER: genes 6 Torsion [CB]-CG--CD-[NE] |==|  0.18700
USER: genes 7 Torsion [CG]-CD--NE-[HE] |==|  0.72091
USER: genes 8 Torsion [C]-CA--N-[C] |==|  0.83255
USER: genes 9 Torsion [N]-C--CA-[N] |==|  0.40071
USER: genes 10 Torsion [C]-CA--N-[H1] |==|  0.81752
USER: genes 11 Torsion [N]-CA--CB-[CG2] |==|  0.05611
USER: genes 12 Torsion [CA]-CB--OG1-[HG1] |==|  0.27378
USER: genes 13 Torsion [N]-CA--C-[N] |==|  0.44103
USER: genes 14 Torsion [C]-N--CA-[CB] |==|  0.49337
USER: genes 15 Torsion [N]-CA--C-[N] |==|  0.89506
USER: genes 16 Torsion [C]-N--CA-[CB] |==|  0.33963
USER: genes 17 Torsion [N]-CA--CB-[CG] |==|  0.81047
USER: genes 18 Torsion [CA]-CB--CG-[CD] |==|  0.84222
USER: genes 19 Torsion [CB]-CG--CD-[OE1] |==|  0.70028
USER: genes 20 Torsion [N]-CA--C-[O] |==|  0.12337
USER: genes 21 Torsion [N]-CA--CB-[CG] |==|  0.72200
USER: genes 22 Torsion [CA]-CB--CG-[CD] |==|  0.51757
USER: genes 23 Torsion [CB]-CG--CD-[CE] |==|  0.51580
USER: genes 24 Torsion [CG]-CD--CE-[NZ] |==|  0.41395
USER: genes 25 Torsion [CD]-CE--NZ-[HZ2] |==|  0.04524
ROOT
ATOM      1  CA  THR D   3      15.940  15.318 147.784  1.00 39.79 LIG 0.20  C 
ENDROOT
BRANCH 1 2
ATOM      2  N   THR D   3      14.669  14.896 147.199  1.00 34.46 LIG-0.34  N 
ATOM      3  C   ARG D   2      14.532  13.719 146.590  1.00 39.53 LIG 0.24  C 
ATOM      4 O    ARG D   2      15.485  12.969 146.370  1.00 39.08 LIG-0.27  OA
ATOM      5 H    THR D   3      14.032  15.469 147.285  1.00 34.46 LIG 0.16  HD
BRANCH 3 6
ATOM      6  CA  ARG D   2      13.118  13.326 146.140  1.00 42.24 LIG 0.18  C 
BRANCH 6 7
ATOM      7  CB  ARG D   2      12.406  12.532 147.238  1.00 49.82 LIG 0.04  C 
BRANCH 7 8
ATOM      8  CG  ARG D   2      11.789  13.342 148.369  1.00 55.24 LIG 0.02  C 
BRANCH 8 9
ATOM      9  CD  ARG D   2      10.410  12.771 148.735  1.00 55.63 LIG 0.14  C 
BRANCH 9 10
ATOM     10  NE  ARG D   2      10.487  11.439 149.337  1.00 65.78 LIG-0.23  N 
ATOM     11 HE   ARG D   2      10.317  10.764 148.832  1.00 65.78 LIG 0.18  HD
ATOM     12  CZ  ARG D   2      10.799  11.195 150.608  1.00 70.57 LIG 0.67  C 
ATOM     13  NH1 ARG D   2      11.063  12.193 151.438  1.00 66.11 LIG-0.23  N 
ATOM     14  NH2 ARG D   2      10.842   9.946 151.054  1.00 74.94 LIG-0.23  N 
ATOM     15 1HH1 ARG D   2      11.034  13.005 151.157  1.00 66.11 LIG 0.17  HD
ATOM     16 2HH1 ARG D   2      11.264  12.029 152.258  1.00 66.11 LIG 0.17  HD
ATOM     17 2HH2 ARG D   2      11.043   9.790 151.876  1.00 74.94 LIG 0.17  HD
ATOM     18 1HH2 ARG D   2      10.668   9.292 150.523  1.00 74.94 LIG 0.17  HD
ENDBRANCH 9 10
ENDBRANCH 8 9
ENDBRANCH 7 8
ENDBRANCH 6 7
BRANCH 6 19
ATOM     19  N   ARG D   2      13.190  12.495 144.942  1.00 42.84 LIG-0.35  N 
ATOM     20  C   ALA D   1      13.733  12.925 143.814  1.00 44.74 LIG 0.25  C 
ATOM     21 O    ALA D   1      14.145  14.073 143.670  1.00 48.31 LIG-0.27  OA
ATOM     22 H    ARG D   2      12.851  11.711 145.037  1.00 42.84 LIG 0.16  HD
BRANCH 20 23
ATOM     23  CA  ALA D   1      13.813  11.905 142.677  1.00 45.19 LIG 0.27  C 
ATOM     24  CB  ALA D   1      15.152  11.203 142.692  1.00 43.32 LIG 0.05  C 
BRANCH 23 25
ATOM     25  N   ALA D   1      13.600  12.550 141.393  1.00 39.75 LIG-0.07  N 
ATOM     26 H1   ALA D   1      12.767  12.860 141.350  1.00 39.75 LIG 0.28  HD
ATOM     27 H2   ALA D   1      14.172  13.225 141.302  1.00 39.75 LIG 0.28  HD
ATOM     28 H3   ALA D   1      13.731  11.961 140.739  1.00 39.75 LIG 0.28  HD
ENDBRANCH 23 25
ENDBRANCH 20 23
ENDBRANCH 6 19
ENDBRANCH 3 6
ENDBRANCH 1 2
BRANCH 1 29
ATOM     29  CB  THR D   3      16.727  16.261 146.846  1.00 46.90 LIG 0.15  C 
ATOM     30  CG2 THR D   3      15.808  16.894 145.818  1.00 44.81 LIG 0.04  C 
BRANCH 29 31
ATOM     31 OG1  THR D   3      17.348  17.298 147.618  1.00 48.09 LIG-0.39  OA
ATOM     32 HG1  THR D   3      18.153  17.101 147.757  1.00 48.09 LIG 0.21  HD
ENDBRANCH 29 31
ENDBRANCH 1 29
BRANCH 1 33
ATOM     33  C   THR D   3      15.706  16.041 149.110  1.00 42.40 LIG 0.24  C 
ATOM     34 O    THR D   3      14.627  16.590 149.352  1.00 40.34 LIG-0.27  OA
ATOM     35  N   LYS D   4      16.697  16.109 149.957  1.00 38.45 LIG-0.35  N 
ATOM     36 H    LYS D   4      17.455  15.717 149.857  1.00 38.45 LIG 0.16  HD
BRANCH 35 37
ATOM     37  CA  LYS D   4      16.564  16.885 151.165  1.00 37.56 LIG 0.18  C 
BRANCH 37 38
ATOM     38  C   LYS D   4      16.220  18.331 150.840  1.00 44.28 LIG 0.24  C 
ATOM     39 O    LYS D   4      15.486  18.914 151.544  1.00 49.08 LIG-0.27  OA
ATOM     40  N   GLN D   5      16.805  18.850 149.774  1.00 53.59 LIG-0.35  N 
ATOM     41 H    GLN D   5      17.520  18.472 149.482  1.00 53.59 LIG 0.16  HD
BRANCH 40 42
ATOM     42  CA  GLN D   5      16.483  20.020 148.908  1.00 61.39 LIG 0.16  C 
BRANCH 42 43
ATOM     43  CB  GLN D   5      17.579  21.089 148.797  1.00 20.00 LIG 0.04  C 
BRANCH 43 44
ATOM     44  CG  GLN D   5      17.815  21.864 150.116  1.00 20.00 LIG 0.10  C 
BRANCH 44 45
ATOM     45  CD  GLN D   5      16.598  22.570 150.714  1.00 20.00 LIG 0.21  C 
ATOM     46  NE2 GLN D   5      15.693  21.786 151.287  1.00 20.00 LIG-0.37  N 
ATOM     47 21HE GLN D   5      15.801  20.933 151.287  1.00 20.00 LIG 0.16  HD
ATOM     48 22HE GLN D   5      14.998  22.131 151.658  1.00 20.00 LIG 0.16  HD
ATOM     49 OE1  GLN D   5      16.487  23.798 150.688  1.00 20.00 LIG-0.27  OA
ENDBRANCH 44 45
ENDBRANCH 43 44
ENDBRANCH 42 43
BRANCH 42 50
ATOM     50  C   GLN D   5      15.742  19.903 147.598  1.00 64.61 LIG 0.22  C 
ATOM     51 O    GLN D   5      14.769  19.215 147.499  1.00 68.60 LIG-0.29  OA
ENDBRANCH 42 50
ENDBRANCH 40 42
ENDBRANCH 37 38
BRANCH 37 52
ATOM     52  CB  LYS D   4      17.816  16.761 152.005  1.00 33.42 LIG 0.04  C 
BRANCH 52 53
ATOM     53  CG  LYS D   4      17.712  15.815 153.109  1.00 40.53 LIG 0.00  C 
BRANCH 53 54
ATOM     54  CD  LYS D   4      18.892  15.883 153.923  1.00 50.17 LIG 0.03  C 
BRANCH 54 55
ATOM     55  CE  LYS D   4      18.886  14.828 154.992  1.00 57.03 LIG 0.23  C 
BRANCH 55 56
ATOM     56  NZ  LYS D   4      20.274  14.452 155.259  1.00 52.11 LIG-0.08  N 
ATOM     57 HZ3  LYS D   4      20.401  14.391 156.138  1.00 52.11 LIG 0.27  HD
ATOM     58 HZ2  LYS D   4      20.819  15.070 154.923  1.00 52.11 LIG 0.27  HD
ATOM     59 HZ1  LYS D   4      20.447  13.666 154.879  1.00 52.11 LIG 0.27  HD
ENDBRANCH 55 56
ENDBRANCH 54 55
ENDBRANCH 53 54
ENDBRANCH 52 53
ENDBRANCH 37 52
ENDBRANCH 35 37
ENDBRANCH 1 33
TORSDOF 24
ENDMDL
MODEL 15
USER: ADFR SOLUTION from run 152
USER: SCORE 17.729589 LL:  -2.410 LR: -16.896 RR:   0.000 FEB:  -9.737
USER: RMSD 3.000310
USER: SEED 151
USER: STATUS no improvement in best in 16 clusters for 5 generations
USER: GENES 26
USER: genes 0 Translation |==|  0.53458 0.46406 0.50206
USER: genes 1 Rotation |==|  0.48259 0.56158 0.53347 0.99476
USER: genes 2 Torsion [CB]-CA--N-[C] |==|  0.27490
USER: genes 3 Torsion [N]-C--CA-[N] |==|  0.49304
USER: genes 4 Torsion [C]-CA--CB-[CG] |==|  0.57723
USER: genes 5 Torsion [CA]-CB--CG-[CD] |==|  0.51617
USER: genes 6 Torsion [CB]-CG--CD-[NE] |==|  0.68771
USER: genes 7 Torsion [CG]-CD--NE-[HE] |==|  0.31327
USER: genes 8 Torsion [C]-CA--N-[C] |==|  0.77676
USER: genes 9 Torsion [N]-C--CA-[N] |==|  0.21189
USER: genes 10 Torsion [C]-CA--N-[H1] |==|  0.46433
USER: genes 11 Torsion [N]-CA--CB-[CG2] |==|  0.09722
USER: genes 12 Torsion [CA]-CB--OG1-[HG1] |==|  0.22435
USER: genes 13 Torsion [N]-CA--C-[N] |==|  0.96673
USER: genes 14 Torsion [C]-N--CA-[CB] |==|  0.79444
USER: genes 15 Torsion [N]-CA--C-[N] |==|  0.23423
USER: genes 16 Torsion [C]-N--CA-[CB] |==|  0.06564
USER: genes 17 Torsion [N]-CA--CB-[CG] |==|  0.28942
USER: genes 18 Torsion [CA]-CB--CG-[CD] |==|  0.82942
USER: genes 19 Torsion [CB]-CG--CD-[OE1] |==|  0.44677
USER: genes 20 Torsion [N]-CA--C-[O] |==|  0.96593
USER: genes 21 Torsion [N]-CA--CB-[CG] |==|  0.64140
USER: genes 22 Torsion [CA]-CB--CG-[CD] |==|  0.38791
USER: genes 23 Torsion [CB]-CG--CD-[CE] |==|  0.66029
USER: genes 24 Torsion [CG]-CD--CE-[NZ] |==|  0.50830
USER: genes 25 Torsion [CD]-CE--NZ-[HZ2] |==|  0.73465
ROOT
ATOM      1  CA  THR D   3      15.838  15.913 148.557  1.00 39.79 LIG 0.20  C 
ENDROOT
BRANCH 1 2
ATOM      2  N   THR D   3      14.473  15.483 148.260  1.00 34.46 LIG-0.34  N 
ATOM      3  C   ARG D   2      14.219  14.330 147.643  1.00 39.53 LIG 0.24  C 
ATOM      4 O    ARG D   2      15.108  13.615 147.175  1.00 39.08 LIG-0.27  OA
ATOM      5 H    THR D   3      13.864  16.034 148.517  1.00 34.46 LIG 0.16  HD
BRANCH 3 6
ATOM      6  CA  ARG D   2      12.746  13.919 147.511  1.00 42.24 LIG 0.18  C 
BRANCH 6 7
ATOM      7  CB  ARG D   2      12.121  13.709 148.893  1.00 49.82 LIG 0.04  C 
BRANCH 7 8
ATOM      8  CG  ARG D   2      10.965  12.722 148.971  1.00 55.24 LIG 0.02  C 
BRANCH 8 9
ATOM      9  CD  ARG D   2      10.358  12.732 150.383  1.00 55.63 LIG 0.14  C 
BRANCH 9 10
ATOM     10  NE  ARG D   2      10.582  11.480 151.108  1.00 65.78 LIG-0.23  N 
ATOM     11 HE   ARG D   2      11.099  11.506 151.795  1.00 65.78 LIG 0.18  HD
ATOM     12  CZ  ARG D   2      10.047  10.306 150.783  1.00 70.57 LIG 0.67  C 
ATOM     13  NH1 ARG D   2       9.248  10.200 149.731  1.00 66.11 LIG-0.23  N 
ATOM     14  NH2 ARG D   2      10.315   9.228 151.510  1.00 74.94 LIG-0.23  N 
ATOM     15 1HH1 ARG D   2       9.073  10.892 149.253  1.00 66.11 LIG 0.17  HD
ATOM     16 2HH1 ARG D   2       8.905   9.438 149.526  1.00 66.11 LIG 0.17  HD
ATOM     17 2HH2 ARG D   2       9.969   8.470 151.299  1.00 74.94 LIG 0.17  HD
ATOM     18 1HH2 ARG D   2      10.836   9.288 152.192  1.00 74.94 LIG 0.17  HD
ENDBRANCH 9 10
ENDBRANCH 8 9
ENDBRANCH 7 8
ENDBRANCH 6 7
BRANCH 6 19
ATOM     19  N   ARG D   2      12.643  12.669 146.763  1.00 42.84 LIG-0.35  N 
ATOM     20  C   ALA D   1      12.705  12.628 145.442  1.00 44.74 LIG 0.25  C 
ATOM     21 O    ALA D   1      12.775  13.639 144.749  1.00 48.31 LIG-0.27  OA
ATOM     22 H    ARG D   2      12.540  11.972 147.256  1.00 42.84 LIG 0.16  HD
BRANCH 20 23
ATOM     23  CA  ALA D   1      12.670  11.235 144.813  1.00 45.19 LIG 0.27  C 
ATOM     24  CB  ALA D   1      13.192  11.285 143.394  1.00 43.32 LIG 0.05  C 
BRANCH 23 25
ATOM     25  N   ALA D   1      11.322  10.695 144.831  1.00 39.75 LIG-0.07  N 
ATOM     26 H1   ALA D   1      11.281   9.979 144.304  1.00 39.75 LIG 0.28  HD
ATOM     27 H2   ALA D   1      11.106  10.463 145.663  1.00 39.75 LIG 0.28  HD
ATOM     28 H3   ALA D   1      10.751  11.311 144.538  1.00 39.75 LIG 0.28  HD
ENDBRANCH 23 25
ENDBRANCH 20 23
ENDBRANCH 6 19
ENDBRANCH 3 6
ENDBRANCH 1 2
BRANCH 1 29
ATOM     29  CB  THR D   3      16.368  16.926 147.517  1.00 46.90 LIG 0.15  C 
ATOM     30  CG2 THR D   3      15.255  17.834 147.029  1.00 44.81 LIG 0.04  C 
BRANCH 29 31
ATOM     31 OG1  THR D   3      17.399  17.728 148.108  1.00 48.09 LIG-0.39  OA
ATOM     32 HG1  THR D   3      18.124  17.304 148.101  1.00 48.09 LIG 0.21  HD
ENDBRANCH 29 31
ENDBRANCH 1 29
BRANCH 1 33
ATOM     33  C   THR D   3      15.907  16.561 149.939  1.00 42.40 LIG 0.24  C 
ATOM     34 O    THR D   3      16.992  16.748 150.500  1.00 40.34 LIG-0.27  OA
ATOM     35  N   LYS D   4      14.785  16.860 150.536  1.00 38.45 LIG-0.35  N 
ATOM     36 H    LYS D   4      14.006  16.785 150.181  1.00 38.45 LIG 0.16  HD
BRANCH 35 37
ATOM     37  CA  LYS D   4      14.795  17.357 151.889  1.00 37.56 LIG 0.18  C 
BRANCH 37 38
ATOM     38  C   LYS D   4      15.764  18.522 152.026  1.00 44.28 LIG 0.24  C 
ATOM     39 O    LYS D   4      16.860  18.312 152.387  1.00 49.08 LIG-0.27  OA
ATOM     40  N   GLN D   5      15.300  19.715 151.696  1.00 53.59 LIG-0.35  N 
ATOM     41 H    GLN D   5      14.607  19.754 151.189  1.00 53.59 LIG 0.16  HD
BRANCH 40 42
ATOM     42  CA  GLN D   5      15.738  21.102 152.027  1.00 61.39 LIG 0.16  C 
BRANCH 42 43
ATOM     43  CB  GLN D   5      17.213  21.260 152.421  1.00 20.00 LIG 0.04  C 
BRANCH 43 44
ATOM     44  CG  GLN D   5      18.084  21.876 151.299  1.00 20.00 LIG 0.10  C 
BRANCH 44 45
ATOM     45  CD  GLN D   5      18.170  21.085 149.994  1.00 20.00 LIG 0.21  C 
ATOM     46  NE2 GLN D   5      17.808  19.809 150.061  1.00 20.00 LIG-0.37  N 
ATOM     47 21HE GLN D   5      17.565  19.470 150.813  1.00 20.00 LIG 0.16  HD
ATOM     48 22HE GLN D   5      17.817  19.322 149.353  1.00 20.00 LIG 0.16  HD
ATOM     49 OE1  GLN D   5      18.526  21.616 148.940  1.00 20.00 LIG-0.27  OA
ENDBRANCH 44 45
ENDBRANCH 43 44
ENDBRANCH 42 43
BRANCH 42 50
ATOM     50  C   GLN D   5      15.274  22.322 151.268  1.00 64.61 LIG 0.22  C 
ATOM     51 O    GLN D   5      14.699  22.217 150.224  1.00 68.60 LIG-0.29  OA
ENDBRANCH 42 50
ENDBRANCH 40 42
ENDBRANCH 37 38
BRANCH 37 52
ATOM     52  CB  LYS D   4      15.099  16.233 152.855  1.00 33.42 LIG 0.04  C 
BRANCH 52 53
ATOM     53  CG  LYS D   4      14.159  16.118 153.963  1.00 40.53 LIG 0.00  C 
BRANCH 53 54
ATOM     54  CD  LYS D   4      13.880  14.734 154.223  1.00 50.17 LIG 0.03  C 
BRANCH 54 55
ATOM     55  CE  LYS D   4      12.411  14.438 154.116  1.00 57.03 LIG 0.23  C 
BRANCH 55 56
ATOM     56  NZ  LYS D   4      12.209  13.032 154.464  1.00 52.11 LIG-0.08  N 
ATOM     57 HZ3  LYS D   4      12.877  12.757 154.985  1.00 52.11 LIG 0.27  HD
ATOM     58 HZ2  LYS D   4      12.191  12.542 153.722  1.00 52.11 LIG 0.27  HD
ATOM     59 HZ1  LYS D   4      11.438  12.942 154.899  1.00 52.11 LIG 0.27  HD
ENDBRANCH 55 56
ENDBRANCH 54 55
ENDBRANCH 53 54
ENDBRANCH 52 53
ENDBRANCH 37 52
ENDBRANCH 35 37
ENDBRANCH 1 33
TORSDOF 24
ENDMDL
MODEL 16
USER: ADFR SOLUTION from run 30
USER: SCORE 17.670637 LL:  -2.980 LR: -16.871 RR:   0.000 FEB:  -9.712
USER: RMSD 2.344703
USER: SEED 29
USER: STATUS searching
USER: GENES 26
USER: genes 0 Translation |==|  0.54778 0.47631 0.45137
USER: genes 1 Rotation |==|  0.54503 0.53112 0.55352 0.99411
USER: genes 2 Torsion [CB]-CA--N-[C] |==|  0.47000
USER: genes 3 Torsion [N]-C--CA-[N] |==|  0.38282
USER: genes 4 Torsion [C]-CA--CB-[CG] |==|  0.79880
USER: genes 5 Torsion [CA]-CB--CG-[CD] |==|  0.67926
USER: genes 6 Torsion [CB]-CG--CD-[NE] |==|  0.44452
USER: genes 7 Torsion [CG]-CD--NE-[HE] |==|  0.67874
USER: genes 8 Torsion [C]-CA--N-[C] |==|  0.71972
USER: genes 9 Torsion [N]-C--CA-[N] |==|  0.18406
USER: genes 10 Torsion [C]-CA--N-[H1] |==|  0.09259
USER: genes 11 Torsion [N]-CA--CB-[CG2] |==|  0.15736
USER: genes 12 Torsion [CA]-CB--OG1-[HG1] |==|  0.88914
USER: genes 13 Torsion [N]-CA--C-[N] |==|  0.43232
USER: genes 14 Torsion [C]-N--CA-[CB] |==|  0.43921
USER: genes 15 Torsion [N]-CA--C-[N] |==|  0.47748
USER: genes 16 Torsion [C]-N--CA-[CB] |==|  0.12464
USER: genes 17 Torsion [N]-CA--CB-[CG] |==|  0.71956
USER: genes 18 Torsion [CA]-CB--CG-[CD] |==|  0.32026
USER: genes 19 Torsion [CB]-CG--CD-[OE1] |==|  0.02526
USER: genes 20 Torsion [N]-CA--C-[O] |==|  0.13168
USER: genes 21 Torsion [N]-CA--CB-[CG] |==|  0.59182
USER: genes 22 Torsion [CA]-CB--CG-[CD] |==|  0.66360
USER: genes 23 Torsion [CB]-CG--CD-[CE] |==|  0.56240
USER: genes 24 Torsion [CG]-CD--CE-[NZ] |==|  0.26122
USER: genes 25 Torsion [CD]-CE--NZ-[HZ2] |==|  0.79676
ROOT
ATOM      1  CA  THR D   3      16.086  16.180 147.378  1.00 39.79 LIG 0.20  C 
ENDROOT
BRANCH 1 2
ATOM      2  N   THR D   3      14.785  15.791 146.836  1.00 34.46 LIG-0.34  N 
ATOM      3  C   ARG D   2      14.227  14.615 147.125  1.00 39.53 LIG 0.24  C 
ATOM      4 O    ARG D   2      14.816  13.737 147.759  1.00 39.08 LIG-0.27  OA
ATOM      5 H    THR D   3      14.424  16.380 146.325  1.00 34.46 LIG 0.16  HD
BRANCH 3 6
ATOM      6  CA  ARG D   2      12.800  14.376 146.613  1.00 42.24 LIG 0.18  C 
BRANCH 6 7
ATOM      7  CB  ARG D   2      11.787  14.546 147.747  1.00 49.82 LIG 0.04  C 
BRANCH 7 8
ATOM      8  CG  ARG D   2      11.753  13.445 148.797  1.00 55.24 LIG 0.02  C 
BRANCH 8 9
ATOM      9  CD  ARG D   2      10.397  12.722 148.761  1.00 55.63 LIG 0.14  C 
BRANCH 9 10
ATOM     10  NE  ARG D   2      10.441  11.397 149.382  1.00 65.78 LIG-0.23  N 
ATOM     11 HE   ARG D   2      10.298  10.716 148.878  1.00 65.78 LIG 0.18  HD
ATOM     12  CZ  ARG D   2      10.686  11.169 150.670  1.00 70.57 LIG 0.67  C 
ATOM     13  NH1 ARG D   2      10.908  12.177 151.501  1.00 66.11 LIG-0.23  N 
ATOM     14  NH2 ARG D   2      10.705   9.925 151.134  1.00 74.94 LIG-0.23  N 
ATOM     15 1HH1 ARG D   2      10.894  12.986 151.210  1.00 66.11 LIG 0.17  HD
ATOM     16 2HH1 ARG D   2      11.066  12.023 152.333  1.00 66.11 LIG 0.17  HD
ATOM     17 2HH2 ARG D   2      10.863   9.779 151.967  1.00 74.94 LIG 0.17  HD
ATOM     18 1HH2 ARG D   2      10.558   9.265 150.602  1.00 74.94 LIG 0.17  HD
ENDBRANCH 9 10
ENDBRANCH 8 9
ENDBRANCH 7 8
ENDBRANCH 6 7
BRANCH 6 19
ATOM     19  N   ARG D   2      12.682  13.019 146.087  1.00 42.84 LIG-0.35  N 
ATOM     20  C   ALA D   1      12.717  12.757 144.791  1.00 44.74 LIG 0.25  C 
ATOM     21 O    ALA D   1      12.775  13.637 143.937  1.00 48.31 LIG-0.27  OA
ATOM     22 H    ARG D   2      12.588  12.415 146.692  1.00 42.84 LIG 0.16  HD
BRANCH 20 23
ATOM     23  CA  ALA D   1      12.670  11.278 144.405  1.00 45.19 LIG 0.27  C 
ATOM     24  CB  ALA D   1      12.926  11.112 142.923  1.00 43.32 LIG 0.05  C 
BRANCH 23 25
ATOM     25  N   ALA D   1      11.387  10.695 144.759  1.00 39.75 LIG-0.07  N 
ATOM     26 H1   ALA D   1      10.747  11.308 144.671  1.00 39.75 LIG 0.28  HD
ATOM     27 H2   ALA D   1      11.214  10.008 144.221  1.00 39.75 LIG 0.28  HD
ATOM     28 H3   ALA D   1      11.411  10.412 145.602  1.00 39.75 LIG 0.28  HD
ENDBRANCH 23 25
ENDBRANCH 20 23
ENDBRANCH 6 19
ENDBRANCH 3 6
ENDBRANCH 1 2
BRANCH 1 29
ATOM     29  CB  THR D   3      16.642  17.452 146.699  1.00 46.90 LIG 0.15  C 
ATOM     30  CG2 THR D   3      15.663  18.605 146.824  1.00 44.81 LIG 0.04  C 
BRANCH 29 31
ATOM     31 OG1  THR D   3      17.881  17.824 147.316  1.00 48.09 LIG-0.39  OA
ATOM     32 HG1  THR D   3      17.827  17.711 148.147  1.00 48.09 LIG 0.21  HD
ENDBRANCH 29 31
ENDBRANCH 1 29
BRANCH 1 33
ATOM     33  C   THR D   3      15.984  16.440 148.881  1.00 42.40 LIG 0.24  C 
ATOM     34 O    THR D   3      14.920  16.805 149.391  1.00 40.34 LIG-0.27  OA
ATOM     35  N   LYS D   4      17.065  16.320 149.602  1.00 38.45 LIG-0.35  N 
ATOM     36 H    LYS D   4      17.821  16.036 149.307  1.00 38.45 LIG 0.16  HD
BRANCH 35 37
ATOM     37  CA  LYS D   4      17.047  16.675 150.999  1.00 37.56 LIG 0.18  C 
BRANCH 37 38
ATOM     38  C   LYS D   4      17.085  18.186 151.170  1.00 44.28 LIG 0.24  C 
ATOM     39 O    LYS D   4      17.245  18.862 150.225  1.00 49.08 LIG-0.27  OA
ATOM     40  N   GLN D   5      16.906  18.644 152.397  1.00 53.59 LIG-0.35  N 
ATOM     41 H    GLN D   5      16.525  18.129 152.970  1.00 53.59 LIG 0.16  HD
BRANCH 40 42
ATOM     42  CA  GLN D   5      17.237  19.942 153.054  1.00 61.39 LIG 0.16  C 
BRANCH 42 43
ATOM     43  CB  GLN D   5      16.898  21.204 152.249  1.00 20.00 LIG 0.04  C 
BRANCH 43 44
ATOM     44  CG  GLN D   5      18.127  21.831 151.548  1.00 20.00 LIG 0.10  C 
BRANCH 44 45
ATOM     45  CD  GLN D   5      18.109  21.831 150.019  1.00 20.00 LIG 0.21  C 
ATOM     46  NE2 GLN D   5      19.248  22.164 149.423  1.00 20.00 LIG-0.37  N 
ATOM     47 21HE GLN D   5      19.932  22.384 149.895  1.00 20.00 LIG 0.16  HD
ATOM     48 22HE GLN D   5      19.301  22.161 148.565  1.00 20.00 LIG 0.16  HD
ATOM     49 OE1  GLN D   5      17.101  21.510 149.386  1.00 20.00 LIG-0.27  OA
ENDBRANCH 44 45
ENDBRANCH 43 44
ENDBRANCH 42 43
BRANCH 42 50
ATOM     50  C   GLN D   5      17.034  20.200 154.528  1.00 64.61 LIG 0.22  C 
ATOM     51 O    GLN D   5      17.403  19.412 155.349  1.00 68.60 LIG-0.29  OA
ENDBRANCH 42 50
ENDBRANCH 40 42
ENDBRANCH 37 38
BRANCH 37 52
ATOM     52  CB  LYS D   4      18.175  15.979 151.728  1.00 33.42 LIG 0.04  C 
BRANCH 52 53
ATOM     53  CG  LYS D   4      17.871  15.618 153.107  1.00 40.53 LIG 0.00  C 
BRANCH 53 54
ATOM     54  CD  LYS D   4      18.808  16.248 153.994  1.00 50.17 LIG 0.03  C 
BRANCH 54 55
ATOM     55  CE  LYS D   4      18.899  15.521 155.306  1.00 57.03 LIG 0.23  C 
BRANCH 55 56
ATOM     56  NZ  LYS D   4      20.010  14.574 155.218  1.00 52.11 LIG-0.08  N 
ATOM     57 HZ3  LYS D   4      20.722  14.983 154.873  1.00 52.11 LIG 0.27  HD
ATOM     58 HZ2  LYS D   4      19.778  13.892 154.696  1.00 52.11 LIG 0.27  HD
ATOM     59 HZ1  LYS D   4      20.207  14.272 156.031  1.00 52.11 LIG 0.27  HD
ENDBRANCH 55 56
ENDBRANCH 54 55
ENDBRANCH 53 54
ENDBRANCH 52 53
ENDBRANCH 37 52
ENDBRANCH 35 37
ENDBRANCH 1 33
TORSDOF 24
ENDMDL
MODEL 17
USER: ADFR SOLUTION from run 141
USER: SCORE 17.811450 LL:  -3.271 LR: -16.835 RR:   0.000 FEB:  -9.676
USER: RMSD 4.859964
USER: SEED 140
USER: STATUS no improvement in best in 25 clusters for 5 generations
USER: GENES 26
USER: genes 0 Translation |==|  0.55984 0.44902 0.44730
USER: genes 1 Rotation |==|  0.47758 0.45860 0.49398 0.99774
USER: genes 2 Torsion [CB]-CA--N-[C] |==|  0.42838
USER: genes 3 Torsion [N]-C--CA-[N] |==|  0.31181
USER: genes 4 Torsion [C]-CA--CB-[CG] |==|  0.83154
USER: genes 5 Torsion [CA]-CB--CG-[CD] |==|  0.45551
USER: genes 6 Torsion [CB]-CG--CD-[NE] |==|  0.48138
USER: genes 7 Torsion [CG]-CD--NE-[HE] |==|  0.84875
USER: genes 8 Torsion [C]-CA--N-[C] |==|  0.77678
USER: genes 9 Torsion [N]-C--CA-[N] |==|  0.37449
USER: genes 10 Torsion [C]-CA--N-[H1] |==|  0.51408
USER: genes 11 Torsion [N]-CA--CB-[CG2] |==|  0.99222
USER: genes 12 Torsion [CA]-CB--OG1-[HG1] |==|  0.22096
USER: genes 13 Torsion [N]-CA--C-[N] |==|  0.43320
USER: genes 14 Torsion [C]-N--CA-[CB] |==|  0.19048
USER: genes 15 Torsion [N]-CA--C-[N] |==|  0.46104
USER: genes 16 Torsion [C]-N--CA-[CB] |==|  0.08410
USER: genes 17 Torsion [N]-CA--CB-[CG] |==|  0.48651
USER: genes 18 Torsion [CA]-CB--CG-[CD] |==|  0.40205
USER: genes 19 Torsion [CB]-CG--CD-[OE1] |==|  0.25468
USER: genes 20 Torsion [N]-CA--C-[O] |==|  0.99973
USER: genes 21 Torsion [N]-CA--CB-[CG] |==|  0.66856
USER: genes 22 Torsion [CA]-CB--CG-[CD] |==|  0.93846
USER: genes 23 Torsion [CB]-CG--CD-[CE] |==|  0.71459
USER: genes 24 Torsion [CG]-CD--CE-[NZ] |==|  0.45284
USER: genes 25 Torsion [CD]-CE--NZ-[HZ2] |==|  0.99416
ROOT
ATOM      1  CA  THR D   3      16.312  15.586 147.284  1.00 39.79 LIG 0.20  C 
ENDROOT
BRANCH 1 2
ATOM      2  N   THR D   3      15.139  15.332 146.450  1.00 34.46 LIG-0.34  N 
ATOM      3  C   ARG D   2      14.383  14.246 146.613  1.00 39.53 LIG 0.24  C 
ATOM      4 O    ARG D   2      14.689  13.332 147.382  1.00 39.08 LIG-0.27  OA
ATOM      5 H    THR D   3      14.987  15.938 145.858  1.00 34.46 LIG 0.16  HD
BRANCH 3 6
ATOM      6  CA  ARG D   2      13.100  14.157 145.775  1.00 42.24 LIG 0.18  C 
BRANCH 6 7
ATOM      7  CB  ARG D   2      11.894  13.864 146.671  1.00 49.82 LIG 0.04  C 
BRANCH 7 8
ATOM      8  CG  ARG D   2      11.933  12.563 147.459  1.00 55.24 LIG 0.02  C 
BRANCH 8 9
ATOM      9  CD  ARG D   2      10.886  12.595 148.583  1.00 55.63 LIG 0.14  C 
BRANCH 9 10
ATOM     10  NE  ARG D   2      10.762  11.314 149.282  1.00 65.78 LIG-0.23  N 
ATOM     11 HE   ARG D   2      10.604  10.616 148.808  1.00 65.78 LIG 0.18  HD
ATOM     12  CZ  ARG D   2      10.877  11.153 150.598  1.00 70.57 LIG 0.67  C 
ATOM     13  NH1 ARG D   2      11.114  12.192 151.385  1.00 66.11 LIG-0.23  N 
ATOM     14  NH2 ARG D   2      10.748   9.945 151.134  1.00 74.94 LIG-0.23  N 
ATOM     15 1HH1 ARG D   2      11.195  12.979 151.046  1.00 66.11 LIG 0.17  HD
ATOM     16 2HH1 ARG D   2      11.186  12.082 152.235  1.00 66.11 LIG 0.17  HD
ATOM     17 2HH2 ARG D   2      10.821   9.842 151.985  1.00 74.94 LIG 0.17  HD
ATOM     18 1HH2 ARG D   2      10.590   9.266 150.631  1.00 74.94 LIG 0.17  HD
ENDBRANCH 9 10
ENDBRANCH 8 9
ENDBRANCH 7 8
ENDBRANCH 6 7
BRANCH 6 19
ATOM     19  N   ARG D   2      13.219  13.081 144.795  1.00 42.84 LIG-0.35  N 
ATOM     20  C   ALA D   1      13.874  13.232 143.656  1.00 44.74 LIG 0.25  C 
ATOM     21 O    ALA D   1      14.361  14.304 143.306  1.00 48.31 LIG-0.27  OA
ATOM     22 H    ARG D   2      12.829  12.351 145.026  1.00 42.84 LIG 0.16  HD
BRANCH 20 23
ATOM     23  CA  ALA D   1      13.984  11.986 142.776  1.00 45.19 LIG 0.27  C 
ATOM     24  CB  ALA D   1      15.366  11.381 142.891  1.00 43.32 LIG 0.05  C 
BRANCH 23 25
ATOM     25  N   ALA D   1      13.692  12.307 141.390  1.00 39.75 LIG-0.07  N 
ATOM     26 H1   ALA D   1      13.689  11.560 140.906  1.00 39.75 LIG 0.28  HD
ATOM     27 H2   ALA D   1      12.894  12.697 141.338  1.00 39.75 LIG 0.28  HD
ATOM     28 H3   ALA D   1      14.314  12.861 141.075  1.00 39.75 LIG 0.28  HD
ENDBRANCH 23 25
ENDBRANCH 20 23
ENDBRANCH 6 19
ENDBRANCH 3 6
ENDBRANCH 1 2
BRANCH 1 29
ATOM     29  CB  THR D   3      17.353  16.476 146.567  1.00 46.90 LIG 0.15  C 
ATOM     30  CG2 THR D   3      16.910  16.797 145.152  1.00 44.81 LIG 0.04  C 
BRANCH 29 31
ATOM     31 OG1  THR D   3      17.520  17.701 147.293  1.00 48.09 LIG-0.39  OA
ATOM     32 HG1  THR D   3      18.024  17.571 147.952  1.00 48.09 LIG 0.21  HD
ENDBRANCH 29 31
ENDBRANCH 1 29
BRANCH 1 33
ATOM     33  C   THR D   3      15.904  16.274 148.586  1.00 42.40 LIG 0.24  C 
ATOM     34 O    THR D   3      14.886  16.970 148.645  1.00 40.34 LIG-0.27  OA
ATOM     35  N   LYS D   4      16.692  16.150 149.620  1.00 38.45 LIG-0.35  N 
ATOM     36 H    LYS D   4      17.391  15.651 149.647  1.00 38.45 LIG 0.16  HD
BRANCH 35 37
ATOM     37  CA  LYS D   4      16.414  16.880 150.832  1.00 37.56 LIG 0.18  C 
BRANCH 37 38
ATOM     38  C   LYS D   4      17.617  16.851 151.764  1.00 44.28 LIG 0.24  C 
ATOM     39 O    LYS D   4      18.492  16.103 151.540  1.00 49.08 LIG-0.27  OA
ATOM     40  N   GLN D   5      17.604  17.709 152.769  1.00 53.59 LIG-0.35  N 
ATOM     41 H    GLN D   5      17.088  18.394 152.710  1.00 53.59 LIG 0.16  HD
BRANCH 40 42
ATOM     42  CA  GLN D   5      18.332  17.760 154.070  1.00 61.39 LIG 0.16  C 
BRANCH 42 43
ATOM     43  CB  GLN D   5      19.729  17.124 154.078  1.00 20.00 LIG 0.04  C 
BRANCH 43 44
ATOM     44  CG  GLN D   5      20.480  17.313 155.418  1.00 20.00 LIG 0.10  C 
BRANCH 44 45
ATOM     45  CD  GLN D   5      21.374  16.156 155.864  1.00 20.00 LIG 0.21  C 
ATOM     46  NE2 GLN D   5      20.780  15.195 156.561  1.00 20.00 LIG-0.37  N 
ATOM     47 21HE GLN D   5      19.945  15.258 156.754  1.00 20.00 LIG 0.16  HD
ATOM     48 22HE GLN D   5      21.231  14.511 156.820  1.00 20.00 LIG 0.16  HD
ATOM     49 OE1  GLN D   5      22.569  16.111 155.563  1.00 20.00 LIG-0.27  OA
ENDBRANCH 44 45
ENDBRANCH 43 44
ENDBRANCH 42 43
BRANCH 42 50
ATOM     50  C   GLN D   5      18.305  18.958 154.989  1.00 64.61 LIG 0.22  C 
ATOM     51 O    GLN D   5      17.685  19.940 154.704  1.00 68.60 LIG-0.29  OA
ENDBRANCH 42 50
ENDBRANCH 40 42
ENDBRANCH 37 38
BRANCH 37 52
ATOM     52  CB  LYS D   4      15.159  16.345 151.487  1.00 33.42 LIG 0.04  C 
BRANCH 52 53
ATOM     53  CG  LYS D   4      14.087  17.322 151.626  1.00 40.53 LIG 0.00  C 
BRANCH 53 54
ATOM     54  CD  LYS D   4      14.631  18.650 151.589  1.00 50.17 LIG 0.03  C 
BRANCH 54 55
ATOM     55  CE  LYS D   4      14.710  19.253 152.962  1.00 57.03 LIG 0.23  C 
BRANCH 55 56
ATOM     56  NZ  LYS D   4      15.622  20.394 152.900  1.00 52.11 LIG-0.08  N 
ATOM     57 HZ3  LYS D   4      15.180  21.139 153.107  1.00 52.11 LIG 0.27  HD
ATOM     58 HZ2  LYS D   4      15.953  20.465 152.077  1.00 52.11 LIG 0.27  HD
ATOM     59 HZ1  LYS D   4      16.288  20.274 153.479  1.00 52.11 LIG 0.27  HD
ENDBRANCH 55 56
ENDBRANCH 54 55
ENDBRANCH 53 54
ENDBRANCH 52 53
ENDBRANCH 37 52
ENDBRANCH 35 37
ENDBRANCH 1 33
TORSDOF 24
ENDMDL
MODEL 18
USER: ADFR SOLUTION from run 89
USER: SCORE 18.084260 LL:  -2.237 LR: -16.779 RR:   0.000 FEB:  -9.620
USER: RMSD 2.890835
USER: SEED 88
USER: STATUS searching
USER: GENES 26
USER: genes 0 Translation |==|  0.51036 0.42602 0.48226
USER: genes 1 Rotation |==|  0.43616 0.47099 0.51059 0.99495
USER: genes 2 Torsion [CB]-CA--N-[C] |==|  0.23167
USER: genes 3 Torsion [N]-C--CA-[N] |==|  0.43476
USER: genes 4 Torsion [C]-CA--CB-[CG] |==|  0.38304
USER: genes 5 Torsion [CA]-CB--CG-[CD] |==|  0.61716
USER: genes 6 Torsion [CB]-CG--CD-[NE] |==|  0.81913
USER: genes 7 Torsion [CG]-CD--NE-[HE] |==|  0.88497
USER: genes 8 Torsion [C]-CA--N-[C] |==|  0.82606
USER: genes 9 Torsion [N]-C--CA-[N] |==|  0.39877
USER: genes 10 Torsion [C]-CA--N-[H1] |==|  0.53638
USER: genes 11 Torsion [N]-CA--CB-[CG2] |==|  0.10292
USER: genes 12 Torsion [CA]-CB--OG1-[HG1] |==|  0.15941
USER: genes 13 Torsion [N]-CA--C-[N] |==|  0.94320
USER: genes 14 Torsion [C]-N--CA-[CB] |==|  0.86111
USER: genes 15 Torsion [N]-CA--C-[N] |==|  0.88173
USER: genes 16 Torsion [C]-N--CA-[CB] |==|  0.88462
USER: genes 17 Torsion [N]-CA--CB-[CG] |==|  0.78679
USER: genes 18 Torsion [CA]-CB--CG-[CD] |==|  0.75498
USER: genes 19 Torsion [CB]-CG--CD-[OE1] |==|  0.87555
USER: genes 20 Torsion [N]-CA--C-[O] |==|  0.00184
USER: genes 21 Torsion [N]-CA--CB-[CG] |==|  0.70375
USER: genes 22 Torsion [CA]-CB--CG-[CD] |==|  0.44659
USER: genes 23 Torsion [CB]-CG--CD-[CE] |==|  0.48666
USER: genes 24 Torsion [CG]-CD--CE-[NZ] |==|  0.44350
USER: genes 25 Torsion [CD]-CE--NZ-[HZ2] |==|  0.95434
ROOT
ATOM      1  CA  THR D   3      15.384  15.086 148.096  1.00 39.79 LIG 0.20  C 
ENDROOT
BRANCH 1 2
ATOM      2  N   THR D   3      14.187  14.640 147.386  1.00 34.46 LIG-0.34  N 
ATOM      3  C   ARG D   2      14.180  13.529 146.650  1.00 39.53 LIG 0.24  C 
ATOM      4 O    ARG D   2      15.201  12.878 146.418  1.00 39.08 LIG-0.27  OA
ATOM      5 H    THR D   3      13.504  15.153 147.487  1.00 34.46 LIG 0.16  HD
BRANCH 3 6
ATOM      6  CA  ARG D   2      12.831  13.087 146.066  1.00 42.24 LIG 0.18  C 
BRANCH 6 7
ATOM      7  CB  ARG D   2      12.038  12.281 147.097  1.00 49.82 LIG 0.04  C 
BRANCH 7 8
ATOM      8  CG  ARG D   2      10.550  12.582 147.194  1.00 55.24 LIG 0.02  C 
BRANCH 8 9
ATOM      9  CD  ARG D   2      10.116  12.629 148.668  1.00 55.63 LIG 0.14  C 
BRANCH 9 10
ATOM     10  NE  ARG D   2      10.243  11.335 149.341  1.00 65.78 LIG-0.23  N 
ATOM     11 HE   ARG D   2      10.002  10.634 148.905  1.00 65.78 LIG 0.18  HD
ATOM     12  CZ  ARG D   2      10.703  11.163 150.578  1.00 70.57 LIG 0.67  C 
ATOM     13  NH1 ARG D   2      11.083  12.204 151.304  1.00 66.11 LIG-0.23  N 
ATOM     14  NH2 ARG D   2      10.779   9.943 151.096  1.00 74.94 LIG-0.23  N 
ATOM     15 1HH1 ARG D   2      11.033  12.998 150.978  1.00 66.11 LIG 0.17  HD
ATOM     16 2HH1 ARG D   2      11.379  12.086 152.103  1.00 66.11 LIG 0.17  HD
ATOM     17 2HH2 ARG D   2      11.076   9.833 151.895  1.00 74.94 LIG 0.17  HD
ATOM     18 1HH2 ARG D   2      10.531   9.262 150.632  1.00 74.94 LIG 0.17  HD
ENDBRANCH 9 10
ENDBRANCH 8 9
ENDBRANCH 7 8
ENDBRANCH 6 7
BRANCH 6 19
ATOM     19  N   ARG D   2      13.048  12.248 144.891  1.00 42.84 LIG-0.35  N 
ATOM     20  C   ALA D   1      13.648  12.698 143.801  1.00 44.74 LIG 0.25  C 
ATOM     21 O    ALA D   1      13.994  13.869 143.669  1.00 48.31 LIG-0.27  OA
ATOM     22 H    ARG D   2      12.754  11.444 144.974  1.00 42.84 LIG 0.16  HD
BRANCH 20 23
ATOM     23  CA  ALA D   1      13.879  11.672 142.691  1.00 45.19 LIG 0.27  C 
ATOM     24  CB  ALA D   1      15.262  11.071 142.810  1.00 43.32 LIG 0.05  C 
BRANCH 23 25
ATOM     25  N   ALA D   1      13.709  12.281 141.384  1.00 39.75 LIG-0.07  N 
ATOM     26 H1   ALA D   1      13.658  11.645 140.763  1.00 39.75 LIG 0.28  HD
ATOM     27 H2   ALA D   1      12.961  12.763 141.376  1.00 39.75 LIG 0.28  HD
ATOM     28 H3   ALA D   1      14.403  12.810 141.209  1.00 39.75 LIG 0.28  HD
ENDBRANCH 23 25
ENDBRANCH 20 23
ENDBRANCH 6 19
ENDBRANCH 3 6
ENDBRANCH 1 2
BRANCH 1 29
ATOM     29  CB  THR D   3      16.339  15.886 147.182  1.00 46.90 LIG 0.15  C 
ATOM     30  CG2 THR D   3      15.560  16.756 146.213  1.00 44.81 LIG 0.04  C 
BRANCH 29 31
ATOM     31 OG1  THR D   3      17.184  16.722 147.983  1.00 48.09 LIG-0.39  OA
ATOM     32 HG1  THR D   3      17.609  16.249 148.532  1.00 48.09 LIG 0.21  HD
ENDBRANCH 29 31
ENDBRANCH 1 29
BRANCH 1 33
ATOM     33  C   THR D   3      15.004  15.967 149.286  1.00 42.40 LIG 0.24  C 
ATOM     34 O    THR D   3      15.769  16.101 150.247  1.00 40.34 LIG-0.27  OA
ATOM     35  N   LYS D   4      13.826  16.529 149.285  1.00 38.45 LIG-0.35  N 
ATOM     36 H    LYS D   4      13.270  16.499 148.630  1.00 38.45 LIG 0.16  HD
BRANCH 35 37
ATOM     37  CA  LYS D   4      13.375  17.266 150.438  1.00 37.56 LIG 0.18  C 
BRANCH 37 38
ATOM     38  C   LYS D   4      14.071  18.617 150.518  1.00 44.28 LIG 0.24  C 
ATOM     39 O    LYS D   4      13.446  19.562 150.821  1.00 49.08 LIG-0.27  OA
ATOM     40  N   GLN D   5      15.367  18.628 150.259  1.00 53.59 LIG-0.35  N 
ATOM     41 H    GLN D   5      15.798  17.886 150.321  1.00 53.59 LIG 0.16  HD
BRANCH 40 42
ATOM     42  CA  GLN D   5      16.313  19.708 149.855  1.00 61.39 LIG 0.16  C 
BRANCH 42 43
ATOM     43  CB  GLN D   5      15.785  20.700 148.809  1.00 20.00 LIG 0.04  C 
BRANCH 43 44
ATOM     44  CG  GLN D   5      15.781  20.129 147.371  1.00 20.00 LIG 0.10  C 
BRANCH 44 45
ATOM     45  CD  GLN D   5      17.065  20.315 146.563  1.00 20.00 LIG 0.21  C 
ATOM     46  NE2 GLN D   5      17.472  19.262 145.864  1.00 20.00 LIG-0.37  N 
ATOM     47 21HE GLN D   5      17.030  18.525 145.900  1.00 20.00 LIG 0.16  HD
ATOM     48 22HE GLN D   5      18.177  19.317 145.376  1.00 20.00 LIG 0.16  HD
ATOM     49 OE1  GLN D   5      17.665  21.392 146.545  1.00 20.00 LIG-0.27  OA
ENDBRANCH 44 45
ENDBRANCH 43 44
ENDBRANCH 42 43
BRANCH 42 50
ATOM     50  C   GLN D   5      17.223  20.419 150.827  1.00 64.61 LIG 0.22  C 
ATOM     51 O    GLN D   5      17.232  20.130 151.988  1.00 68.60 LIG-0.29  OA
ENDBRANCH 42 50
ENDBRANCH 40 42
ENDBRANCH 37 38
BRANCH 37 52
ATOM     52  CB  LYS D   4      13.564  16.440 151.692  1.00 33.42 LIG 0.04  C 
BRANCH 52 53
ATOM     53  CG  LYS D   4      12.331  15.907 152.256  1.00 40.53 LIG 0.00  C 
BRANCH 53 54
ATOM     54  CD  LYS D   4      12.630  14.810 153.132  1.00 50.17 LIG 0.03  C 
BRANCH 54 55
ATOM     55  CE  LYS D   4      11.396  14.306 153.825  1.00 57.03 LIG 0.23  C 
BRANCH 55 56
ATOM     56  NZ  LYS D   4      11.666  12.945 154.288  1.00 52.11 LIG-0.08  N 
ATOM     57 HZ3  LYS D   4      11.816  12.954 155.165  1.00 52.11 LIG 0.27  HD
ATOM     58 HZ2  LYS D   4      12.383  12.626 153.868  1.00 52.11 LIG 0.27  HD
ATOM     59 HZ1  LYS D   4      10.964  12.427 154.112  1.00 52.11 LIG 0.27  HD
ENDBRANCH 55 56
ENDBRANCH 54 55
ENDBRANCH 53 54
ENDBRANCH 52 53
ENDBRANCH 37 52
ENDBRANCH 35 37
ENDBRANCH 1 33
TORSDOF 24
ENDMDL
