MODEL 1
USER: ADFR SOLUTION from run 7
USER: SCORE 19.347432 LL:  -3.544 LR: -16.372 RR:   0.000 FEB:  -9.511
USER: RMSD 3.098660
USER: SEED 507825
USER: STATUS no improvement in best in 6 clusters for 5 generations
USER: GENES 25
USER: genes 0 Translation |==|  0.36616 0.59954 0.66580
USER: genes 1 Rotation |==|  0.43600 0.53928 0.56566 0.98995
USER: genes 2 Torsion [C]-N--CA-[C] |==|  0.79622
USER: genes 3 Torsion [N]-CA--C-[N] |==|  0.47041
USER: genes 4 Torsion [C]-N--CA-[C] |==|  0.85539
USER: genes 5 Torsion [N]-CA--C-[N] |==|  0.87353
USER: genes 6 Torsion [C]-N--CA-[C] |==|  0.76675
USER: genes 7 Torsion [N]-CA--CB-[CG] |==|  0.77965
USER: genes 8 Torsion [CA]-CB--CG-[CD] |==|  0.26273
USER: genes 9 Torsion [CB]-CG--CD-[OE1] |==|  0.47827
USER: genes 10 Torsion [N]-CA--C-[OXT] |==|  0.67885
USER: genes 11 Torsion [N]-CA--CB-[CG1] |==|  0.69601
USER: genes 12 Torsion [N]-CA--CB-[CG] |==|  0.56440
USER: genes 13 Torsion [CA]-CB--CG-[OD1] |==|  0.16375
USER: genes 14 Torsion [N]-C--CA-[N] |==|  0.94321
USER: genes 15 Torsion [C]-CA--N-[C] |==|  0.70656
USER: genes 16 Torsion [N]-C--CA-[N] |==|  0.05616
USER: genes 17 Torsion [C]-CA--N-[C] |==|  0.17618
USER: genes 18 Torsion [N]-C--CA-[N] |==|  0.32113
USER: genes 19 Torsion [C]-CA--N-[H3] |==|  0.31087
USER: genes 20 Torsion [C]-CA--CB-[CG] |==|  0.35260
USER: genes 21 Torsion [CA]-CB--CG-[CD] |==|  0.83447
USER: genes 22 Torsion [CB]-CG--CD-[OE2] |==|  0.27587
USER: genes 23 Torsion [C]-CA--CB-[CG] |==|  0.68944
USER: genes 24 Torsion [CA]-CB--CG-[OD1] |==|  0.63559
ROOT
ATOM      1  C   ASP D   3      25.479 -11.121  28.798  1.00 34.79 LIG 0.24  C 
ATOM      2 O    ASP D   3      25.667 -10.001  29.282  1.00 37.58 LIG-0.27  OA
ATOM      3  N   ASP D   4      26.457 -11.866  28.287  1.00 33.46 LIG-0.34  N 
ATOM      4 H    ASP D   4      26.347 -12.673  28.014  1.00 33.46 LIG 0.16  HD
ENDROOT
BRANCH 3 5
ATOM      5  CA  ASP D   4      27.811 -11.373  28.145  1.00 24.32 LIG 0.19  C 
BRANCH 5 6
ATOM      6  C   ASP D   4      27.784 -10.382  26.982  1.00 29.08 LIG 0.24  C 
ATOM      7  N   VAL D   5      28.871  -9.647  26.816  1.00 26.12 LIG-0.35  N 
ATOM      8 H    VAL D   5      29.555  -9.669  27.337  1.00 26.12 LIG 0.16  HD
ATOM      9 O    ASP D   4      26.794 -10.288  26.247  1.00 25.35 LIG-0.27  OA
BRANCH 7 10
ATOM     10  CA  VAL D   5      28.984  -8.718  25.700  1.00 27.68 LIG 0.18  C 
BRANCH 10 11
ATOM     11  C   VAL D   5      28.672  -9.459  24.395  1.00 28.81 LIG 0.24  C 
ATOM     12  N   GLU D   6      29.245 -10.647  24.239  1.00 27.30 LIG-0.34  N 
ATOM     13 H    GLU D   6      29.749 -11.016  24.830  1.00 27.30 LIG 0.16  HD
ATOM     14 O    VAL D   5      27.954  -8.944  23.534  1.00 31.14 LIG-0.27  OA
BRANCH 12 15
ATOM     15  CA  GLU D   6      29.064 -11.442  23.024  1.00 31.22 LIG 0.19  C 
BRANCH 15 16
ATOM     16  CB  GLU D   6      30.219 -12.424  22.842  1.00 26.83 LIG 0.05  C 
BRANCH 16 17
ATOM     17  CG  GLU D   6      31.482 -11.823  22.274  1.00 32.75 LIG 0.12  C 
BRANCH 17 18
ATOM     18  CD  GLU D   6      32.454 -11.412  23.367  1.00 37.41 LIG 0.17  C 
ATOM     19 OE1  GLU D   6      33.598 -11.038  23.041  1.00 40.07 LIG-0.65  OA
ATOM     20 OE2  GLU D   6      32.077 -11.464  24.555  1.00 32.49 LIG-0.65  OA
ENDBRANCH 17 18
ENDBRANCH 16 17
ENDBRANCH 15 16
BRANCH 15 21
ATOM     21  C   GLU D   6      27.780 -12.241  23.108  1.00 32.10 LIG 0.20  C 
ATOM     22 OXT  GLU D   6      27.816 -13.472  23.130  1.00 29.11 LIG-0.65  OA
ATOM     23 O    GLU D   6      26.691 -11.671  23.194  1.00 24.06 LIG-0.65  OA
ENDBRANCH 15 21
ENDBRANCH 12 15
ENDBRANCH 10 11
BRANCH 10 24
ATOM     24  CB  VAL D   5      30.375  -8.066  25.674  1.00 24.95 LIG 0.01  C 
ATOM     25  CG1 VAL D   5      30.261  -6.594  26.066  1.00 19.21 LIG 0.01  C 
ATOM     26  CG2 VAL D   5      31.324  -8.800  26.623  1.00 24.99 LIG 0.01  C 
ENDBRANCH 10 24
ENDBRANCH 7 10
ENDBRANCH 5 6
BRANCH 5 27
ATOM     27  CB  ASP D   4      28.768 -12.532  27.841  1.00 34.66 LIG 0.15  C 
BRANCH 27 28
ATOM     28  CG  ASP D   4      30.223 -12.230  28.225  1.00 38.29 LIG 0.17  C 
ATOM     29 OD2  ASP D   4      31.088 -12.270  27.324  1.00 38.65 LIG-0.65  OA
ATOM     30 OD1  ASP D   4      30.510 -11.948  29.407  1.00 35.40 LIG-0.65  OA
ENDBRANCH 27 28
ENDBRANCH 5 27
ENDBRANCH 3 5
BRANCH 1 31
ATOM     31  CA  ASP D   3      24.079 -11.745  28.741  1.00 30.73 LIG 0.19  C 
BRANCH 31 32
ATOM     32  N   ASP D   3      23.998 -12.801  27.732  1.00 30.00 LIG-0.35  N 
ATOM     33  C   GLU D   2      23.361 -12.587  26.581  1.00 37.22 LIG 0.24  C 
ATOM     34 O    GLU D   2      22.786 -11.530  26.323  1.00 35.26 LIG-0.27  OA
ATOM     35 H    ASP D   3      24.384 -13.539  27.947  1.00 30.00 LIG 0.16  HD
BRANCH 33 36
ATOM     36  CA  GLU D   2      23.383 -13.717  25.556  1.00 39.45 LIG 0.18  C 
BRANCH 36 37
ATOM     37  N   GLU D   2      23.689 -15.008  26.157  1.00 40.85 LIG-0.35  N 
ATOM     38  C   ALA D   1      22.878 -15.559  27.054  1.00 38.03 LIG 0.25  C 
ATOM     39 O    ALA D   1      21.822 -15.038  27.412  1.00 37.20 LIG-0.27  OA
ATOM     40 H    GLU D   2      24.421 -15.366  25.883  1.00 40.85 LIG 0.16  HD
BRANCH 38 41
ATOM     41  CA  ALA D   1      23.330 -16.897  27.635  1.00 41.40 LIG 0.27  C 
ATOM     42  CB  ALA D   1      22.288 -17.982  27.364  1.00 39.88 LIG 0.05  C 
BRANCH 41 43
ATOM     43  N   ALA D   1      23.591 -16.777  29.067  1.00 41.88 LIG-0.07  N 
ATOM     44 H2   ALA D   1      23.550 -15.922  29.306  1.00 41.88 LIG 0.28  HD
ATOM     45 H3   ALA D   1      22.981 -17.241  29.521  1.00 41.88 LIG 0.28  HD
ATOM     46 H1   ALA D   1      24.401 -17.098  29.249  1.00 41.88 LIG 0.28  HD
ENDBRANCH 41 43
ENDBRANCH 38 41
ENDBRANCH 36 37
BRANCH 36 47
ATOM     47  CB  GLU D   2      22.072 -13.782  24.777  1.00 37.20 LIG 0.04  C 
BRANCH 47 48
ATOM     48  CG  GLU D   2      22.289 -13.758  23.281  1.00 39.39 LIG 0.12  C 
BRANCH 48 49
ATOM     49  CD  GLU D   2      23.007 -12.501  22.840  1.00 42.36 LIG 0.17  C 
ATOM     50 OE2  GLU D   2      24.241 -12.538  22.621  1.00 45.25 LIG-0.65  OA
ATOM     51 OE1  GLU D   2      22.326 -11.469  22.710  1.00 37.51 LIG-0.65  OA
ENDBRANCH 48 49
ENDBRANCH 47 48
ENDBRANCH 36 47
ENDBRANCH 33 36
ENDBRANCH 31 32
BRANCH 31 52
ATOM     52  CB  ASP D   3      23.585 -12.220  30.120  1.00 35.86 LIG 0.15  C 
BRANCH 52 53
ATOM     53  CG  ASP D   3      23.477 -13.732  30.230  1.00 46.33 LIG 0.17  C 
ATOM     54 OD1  ASP D   3      22.431 -14.242  30.686  1.00 38.55 LIG-0.65  OA
ATOM     55 OD2  ASP D   3      24.459 -14.413  29.863  1.00 55.15 LIG-0.65  OA
ENDBRANCH 52 53
ENDBRANCH 31 52
ENDBRANCH 1 31
TORSDOF 23
ENDMDL
MODEL 2
USER: ADFR SOLUTION from run 131
USER: SCORE 19.847495 LL:  -4.373 LR: -16.102 RR:   0.000 FEB:  -9.241
USER: RMSD 2.220311
USER: SEED 130
USER: STATUS no improvement in best in 4 clusters for 5 generations
USER: GENES 25
USER: genes 0 Translation |==|  0.36875 0.61599 0.63855
USER: genes 1 Rotation |==|  0.50641 0.47400 0.52145 0.99882
USER: genes 2 Torsion [C]-N--CA-[C] |==|  0.70278
USER: genes 3 Torsion [N]-CA--C-[N] |==|  0.46201
USER: genes 4 Torsion [C]-N--CA-[C] |==|  0.78681
USER: genes 5 Torsion [N]-CA--C-[N] |==|  0.30590
USER: genes 6 Torsion [C]-N--CA-[C] |==|  0.76198
USER: genes 7 Torsion [N]-CA--CB-[CG] |==|  0.03459
USER: genes 8 Torsion [CA]-CB--CG-[CD] |==|  0.73368
USER: genes 9 Torsion [CB]-CG--CD-[OE1] |==|  0.41726
USER: genes 10 Torsion [N]-CA--C-[OXT] |==|  0.62350
USER: genes 11 Torsion [N]-CA--CB-[CG1] |==|  0.76648
USER: genes 12 Torsion [N]-CA--CB-[CG] |==|  0.48269
USER: genes 13 Torsion [CA]-CB--CG-[OD1] |==|  0.15249
USER: genes 14 Torsion [N]-C--CA-[N] |==|  0.02262
USER: genes 15 Torsion [C]-CA--N-[C] |==|  0.66667
USER: genes 16 Torsion [N]-C--CA-[N] |==|  0.08958
USER: genes 17 Torsion [C]-CA--N-[C] |==|  0.15512
USER: genes 18 Torsion [N]-C--CA-[N] |==|  0.33726
USER: genes 19 Torsion [C]-CA--N-[H3] |==|  0.97432
USER: genes 20 Torsion [C]-CA--CB-[CG] |==|  0.58928
USER: genes 21 Torsion [CA]-CB--CG-[CD] |==|  0.81390
USER: genes 22 Torsion [CB]-CG--CD-[OE2] |==|  0.21898
USER: genes 23 Torsion [C]-CA--CB-[CG] |==|  0.68079
USER: genes 24 Torsion [CA]-CB--CG-[OD1] |==|  0.15534
ROOT
ATOM      1  C   ASP D   3      25.534 -10.825  28.226  1.00 34.79 LIG 0.24  C 
ATOM      2 O    ASP D   3      25.727  -9.942  29.066  1.00 37.58 LIG-0.27  OA
ATOM      3  N   ASP D   4      26.510 -11.581  27.728  1.00 33.46 LIG-0.34  N 
ATOM      4 H    ASP D   4      26.375 -12.244  27.198  1.00 33.46 LIG 0.16  HD
ENDROOT
BRANCH 3 5
ATOM      5  CA  ASP D   4      27.904 -11.348  28.041  1.00 24.32 LIG 0.19  C 
BRANCH 5 6
ATOM      6  C   ASP D   4      28.530 -10.751  26.782  1.00 29.08 LIG 0.24  C 
ATOM      7  N   VAL D   5      29.724 -10.203  26.927  1.00 26.12 LIG-0.35  N 
ATOM      8 H    VAL D   5      30.137 -10.133  27.678  1.00 26.12 LIG 0.16  HD
ATOM      9 O    ASP D   4      27.938 -10.788  25.697  1.00 25.35 LIG-0.27  OA
BRANCH 7 10
ATOM     10  CA  VAL D   5      30.446  -9.663  25.783  1.00 27.68 LIG 0.18  C 
BRANCH 10 11
ATOM     11  C   VAL D   5      31.046 -10.819  24.975  1.00 28.81 LIG 0.24  C 
ATOM     12  N   GLU D   6      30.505 -11.053  23.785  1.00 27.30 LIG-0.34  N 
ATOM     13 H    GLU D   6      29.868 -10.582  23.449  1.00 27.30 LIG 0.16  HD
ATOM     14 O    VAL D   5      31.958 -11.507  25.442  1.00 31.14 LIG-0.27  OA
BRANCH 12 15
ATOM     15  CA  GLU D   6      30.955 -12.151  22.930  1.00 31.22 LIG 0.19  C 
BRANCH 15 16
ATOM     16  CB  GLU D   6      29.844 -12.586  21.976  1.00 26.83 LIG 0.05  C 
BRANCH 16 17
ATOM     17  CG  GLU D   6      28.668 -11.643  21.898  1.00 32.75 LIG 0.12  C 
BRANCH 17 18
ATOM     18  CD  GLU D   6      27.538 -12.071  22.819  1.00 37.41 LIG 0.17  C 
ATOM     19 OE1  GLU D   6      26.791 -11.195  23.298  1.00 40.07 LIG-0.65  OA
ATOM     20 OE2  GLU D   6      27.394 -13.285  23.066  1.00 32.49 LIG-0.65  OA
ENDBRANCH 17 18
ENDBRANCH 16 17
ENDBRANCH 15 16
BRANCH 15 21
ATOM     21  C   GLU D   6      32.141 -11.712  22.096  1.00 32.10 LIG 0.20  C 
ATOM     22 OXT  GLU D   6      32.195 -11.992  20.898  1.00 29.11 LIG-0.65  OA
ATOM     23 O    GLU D   6      33.044 -11.040  22.596  1.00 24.06 LIG-0.65  OA
ENDBRANCH 15 21
ENDBRANCH 12 15
ENDBRANCH 10 11
BRANCH 10 24
ATOM     24  CB  VAL D   5      31.518  -8.662  26.239  1.00 24.95 LIG 0.01  C 
ATOM     25  CG1 VAL D   5      30.887  -7.285  26.436  1.00 19.21 LIG 0.01  C 
ATOM     26  CG2 VAL D   5      32.174  -9.139  27.536  1.00 24.99 LIG 0.01  C 
ENDBRANCH 10 24
ENDBRANCH 7 10
ENDBRANCH 5 6
BRANCH 5 27
ATOM     27  CB  ASP D   4      28.592 -12.669  28.408  1.00 34.66 LIG 0.15  C 
BRANCH 27 28
ATOM     28  CG  ASP D   4      30.107 -12.526  28.605  1.00 38.29 LIG 0.17  C 
ATOM     29 OD2  ASP D   4      30.860 -13.261  27.930  1.00 38.65 LIG-0.65  OA
ATOM     30 OD1  ASP D   4      30.554 -11.688  29.416  1.00 35.40 LIG-0.65  OA
ENDBRANCH 27 28
ENDBRANCH 5 27
ENDBRANCH 3 5
BRANCH 1 31
ATOM     31  CA  ASP D   3      24.131 -11.117  27.678  1.00 30.73 LIG 0.19  C 
BRANCH 31 32
ATOM     32  N   ASP D   3      24.116 -12.316  26.840  1.00 30.00 LIG-0.35  N 
ATOM     33  C   GLU D   2      23.743 -12.242  25.562  1.00 37.22 LIG 0.24  C 
ATOM     34 O    GLU D   2      23.363 -11.195  25.038  1.00 35.26 LIG-0.27  OA
ATOM     35 H    ASP D   3      24.361 -13.039  27.236  1.00 30.00 LIG 0.16  HD
BRANCH 33 36
ATOM     36  CA  GLU D   2      23.823 -13.525  24.741  1.00 39.45 LIG 0.18  C 
BRANCH 36 37
ATOM     37  N   GLU D   2      23.567 -14.714  25.541  1.00 40.85 LIG-0.35  N 
ATOM     38  C   ALA D   1      22.446 -14.845  26.242  1.00 38.03 LIG 0.25  C 
ATOM     39 O    ALA D   1      21.553 -13.997  26.241  1.00 37.20 LIG-0.27  OA
ATOM     40 H    GLU D   2      24.192 -15.304  25.516  1.00 40.85 LIG 0.16  HD
BRANCH 38 41
ATOM     41  CA  ALA D   1      22.314 -16.123  27.067  1.00 41.40 LIG 0.27  C 
ATOM     42  CB  ALA D   1      21.158 -16.981  26.552  1.00 39.88 LIG 0.05  C 
BRANCH 41 43
ATOM     43  N   ALA D   1      22.134 -15.809  28.482  1.00 41.88 LIG-0.07  N 
ATOM     44 H2   ALA D   1      22.717 -16.274  28.966  1.00 41.88 LIG 0.28  HD
ATOM     45 H3   ALA D   1      22.269 -14.938  28.613  1.00 41.88 LIG 0.28  HD
ATOM     46 H1   ALA D   1      21.306 -16.020  28.731  1.00 41.88 LIG 0.28  HD
ENDBRANCH 41 43
ENDBRANCH 38 41
ENDBRANCH 36 37
BRANCH 36 47
ATOM     47  CB  GLU D   2      22.883 -13.471  23.539  1.00 37.20 LIG 0.04  C 
BRANCH 47 48
ATOM     48  CG  GLU D   2      22.336 -14.832  23.175  1.00 39.39 LIG 0.12  C 
BRANCH 48 49
ATOM     49  CD  GLU D   2      23.421 -15.753  22.660  1.00 42.36 LIG 0.17  C 
ATOM     50 OE2  GLU D   2      24.191 -16.316  23.474  1.00 45.25 LIG-0.65  OA
ATOM     51 OE1  GLU D   2      23.499 -15.912  21.430  1.00 37.51 LIG-0.65  OA
ENDBRANCH 48 49
ENDBRANCH 47 48
ENDBRANCH 36 47
ENDBRANCH 33 36
ENDBRANCH 31 32
BRANCH 31 52
ATOM     52  CB  ASP D   3      23.061 -11.169  28.784  1.00 35.86 LIG 0.15  C 
BRANCH 52 53
ATOM     53  CG  ASP D   3      22.436 -12.544  28.950  1.00 46.33 LIG 0.17  C 
ATOM     54 OD1  ASP D   3      23.170 -13.531  29.172  1.00 38.55 LIG-0.65  OA
ATOM     55 OD2  ASP D   3      21.194 -12.633  28.845  1.00 55.15 LIG-0.65  OA
ENDBRANCH 52 53
ENDBRANCH 31 52
ENDBRANCH 1 31
TORSDOF 23
ENDMDL
MODEL 3
USER: ADFR SOLUTION from run 156
USER: SCORE 19.492367 LL:  -4.348 LR: -15.942 RR:   0.000 FEB:  -9.081
USER: RMSD 2.919257
USER: SEED 155
USER: STATUS no improvement in best in 3 clusters for 5 generations
USER: GENES 25
USER: genes 0 Translation |==|  0.37707 0.61775 0.67523
USER: genes 1 Rotation |==|  0.50005 0.49930 0.49880 1.00000
USER: genes 2 Torsion [C]-N--CA-[C] |==|  0.78625
USER: genes 3 Torsion [N]-CA--C-[N] |==|  0.52221
USER: genes 4 Torsion [C]-N--CA-[C] |==|  0.85714
USER: genes 5 Torsion [N]-CA--C-[N] |==|  0.89331
USER: genes 6 Torsion [C]-N--CA-[C] |==|  0.74287
USER: genes 7 Torsion [N]-CA--CB-[CG] |==|  0.12632
USER: genes 8 Torsion [CA]-CB--CG-[CD] |==|  0.42564
USER: genes 9 Torsion [CB]-CG--CD-[OE1] |==|  0.11550
USER: genes 10 Torsion [N]-CA--C-[OXT] |==|  0.51941
USER: genes 11 Torsion [N]-CA--CB-[CG1] |==|  0.84153
USER: genes 12 Torsion [N]-CA--CB-[CG] |==|  0.52205
USER: genes 13 Torsion [CA]-CB--CG-[OD1] |==|  0.07115
USER: genes 14 Torsion [N]-C--CA-[N] |==|  0.00278
USER: genes 15 Torsion [C]-CA--N-[C] |==|  0.74939
USER: genes 16 Torsion [N]-C--CA-[N] |==|  0.87964
USER: genes 17 Torsion [C]-CA--N-[C] |==|  0.72235
USER: genes 18 Torsion [N]-C--CA-[N] |==|  0.63236
USER: genes 19 Torsion [C]-CA--N-[H3] |==|  0.02521
USER: genes 20 Torsion [C]-CA--CB-[CG] |==|  0.36173
USER: genes 21 Torsion [CA]-CB--CG-[CD] |==|  0.96292
USER: genes 22 Torsion [CB]-CG--CD-[OE2] |==|  0.21878
USER: genes 23 Torsion [C]-CA--CB-[CG] |==|  0.36565
USER: genes 24 Torsion [CA]-CB--CG-[OD1] |==|  0.41955
ROOT
ATOM      1  C   ASP D   3      25.708 -10.794  28.996  1.00 34.79 LIG 0.24  C 
ATOM      2 O    ASP D   3      26.064  -9.914  29.786  1.00 37.58 LIG-0.27  OA
ATOM      3  N   ASP D   4      26.557 -11.646  28.426  1.00 33.46 LIG-0.34  N 
ATOM      4 H    ASP D   4      26.310 -12.304  27.932  1.00 33.46 LIG 0.16  HD
ENDROOT
BRANCH 3 5
ATOM      5  CA  ASP D   4      27.991 -11.535  28.591  1.00 24.32 LIG 0.19  C 
BRANCH 5 6
ATOM      6  C   ASP D   4      28.440 -10.396  27.677  1.00 29.08 LIG 0.24  C 
ATOM      7  N   VAL D   5      29.745 -10.230  27.548  1.00 26.12 LIG-0.35  N 
ATOM      8 H    VAL D   5      30.336 -10.691  27.971  1.00 26.12 LIG 0.16  HD
ATOM      9 O    ASP D   4      27.614  -9.681  27.098  1.00 25.35 LIG-0.27  OA
BRANCH 7 10
ATOM     10  CA  VAL D   5      30.288  -9.219  26.651  1.00 27.68 LIG 0.18  C 
BRANCH 10 11
ATOM     11  C   VAL D   5      29.650  -9.381  25.267  1.00 28.81 LIG 0.24  C 
ATOM     12  N   GLU D   6      29.443 -10.626  24.853  1.00 27.30 LIG-0.34  N 
ATOM     13 H    GLU D   6      29.625 -11.322  25.325  1.00 27.30 LIG 0.16  HD
ATOM     14 O    VAL D   5      29.385  -8.394  24.576  1.00 31.14 LIG-0.27  OA
BRANCH 12 15
ATOM     15  CA  GLU D   6      28.879 -10.923  23.537  1.00 31.22 LIG 0.19  C 
BRANCH 15 16
ATOM     16  CB  GLU D   6      29.436 -12.236  22.992  1.00 26.83 LIG 0.05  C 
BRANCH 16 17
ATOM     17  CG  GLU D   6      29.465 -13.375  23.983  1.00 32.75 LIG 0.12  C 
BRANCH 17 18
ATOM     18  CD  GLU D   6      29.387 -14.727  23.294  1.00 37.41 LIG 0.17  C 
ATOM     19 OE1  GLU D   6      30.048 -14.907  22.252  1.00 40.07 LIG-0.65  OA
ATOM     20 OE2  GLU D   6      28.664 -15.612  23.793  1.00 32.49 LIG-0.65  OA
ENDBRANCH 17 18
ENDBRANCH 16 17
ENDBRANCH 15 16
BRANCH 15 21
ATOM     21  C   GLU D   6      27.373 -11.058  23.631  1.00 32.10 LIG 0.20  C 
ATOM     22 OXT  GLU D   6      26.722 -11.434  22.656  1.00 29.11 LIG-0.65  OA
ATOM     23 O    GLU D   6      26.788 -10.832  24.692  1.00 24.06 LIG-0.65  OA
ENDBRANCH 15 21
ENDBRANCH 12 15
ENDBRANCH 10 11
BRANCH 10 24
ATOM     24  CB  VAL D   5      31.820  -9.308  26.594  1.00 24.95 LIG 0.01  C 
ATOM     25  CG1 VAL D   5      32.397  -9.161  28.000  1.00 19.21 LIG 0.01  C 
ATOM     26  CG2 VAL D   5      32.252 -10.639  25.975  1.00 24.99 LIG 0.01  C 
ENDBRANCH 10 24
ENDBRANCH 7 10
ENDBRANCH 5 6
BRANCH 5 27
ATOM     27  CB  ASP D   4      28.673 -12.848  28.187  1.00 34.66 LIG 0.15  C 
BRANCH 27 28
ATOM     28  CG  ASP D   4      30.172 -12.876  28.516  1.00 38.29 LIG 0.17  C 
ATOM     29 OD2  ASP D   4      30.910 -13.617  27.832  1.00 38.65 LIG-0.65  OA
ATOM     30 OD1  ASP D   4      30.621 -12.166  29.441  1.00 35.40 LIG-0.65  OA
ENDBRANCH 27 28
ENDBRANCH 5 27
ENDBRANCH 3 5
BRANCH 1 31
ATOM     31  CA  ASP D   3      24.237 -10.966  28.600  1.00 30.73 LIG 0.19  C 
BRANCH 31 32
ATOM     32  N   ASP D   3      24.054 -12.079  27.667  1.00 30.00 LIG-0.35  N 
ATOM     33  C   GLU D   2      24.120 -11.874  26.352  1.00 37.22 LIG 0.24  C 
ATOM     34 O    GLU D   2      24.295 -10.760  25.858  1.00 35.26 LIG-0.27  OA
ATOM     35 H    ASP D   3      23.907 -12.842  28.036  1.00 30.00 LIG 0.16  HD
BRANCH 33 36
ATOM     36  CA  GLU D   2      23.989 -13.099  25.452  1.00 39.45 LIG 0.18  C 
BRANCH 36 37
ATOM     37  N   GLU D   2      24.761 -14.233  25.942  1.00 40.85 LIG-0.35  N 
ATOM     38  C   ALA D   1      25.947 -14.534  25.425  1.00 38.03 LIG 0.25  C 
ATOM     39 O    ALA D   1      26.477 -13.871  24.533  1.00 37.20 LIG-0.27  OA
ATOM     40 H    GLU D   2      24.385 -14.674  26.577  1.00 40.85 LIG 0.16  HD
BRANCH 38 41
ATOM     41  CA  ALA D   1      26.638 -15.768  26.002  1.00 41.40 LIG 0.27  C 
ATOM     42  CB  ALA D   1      25.892 -16.277  27.235  1.00 39.88 LIG 0.05  C 
BRANCH 41 43
ATOM     43  N   ALA D   1      28.032 -15.476  26.325  1.00 41.88 LIG-0.07  N 
ATOM     44 H2   ALA D   1      28.565 -15.916  25.765  1.00 41.88 LIG 0.28  HD
ATOM     45 H3   ALA D   1      28.179 -14.602  26.247  1.00 41.88 LIG 0.28  HD
ATOM     46 H1   ALA D   1      28.204 -15.732  27.160  1.00 41.88 LIG 0.28  HD
ENDBRANCH 41 43
ENDBRANCH 38 41
ENDBRANCH 36 37
BRANCH 36 47
ATOM     47  CB  GLU D   2      22.526 -13.487  25.255  1.00 37.20 LIG 0.04  C 
BRANCH 47 48
ATOM     48  CG  GLU D   2      22.174 -13.686  23.799  1.00 39.39 LIG 0.12  C 
BRANCH 48 49
ATOM     49  CD  GLU D   2      23.251 -13.145  22.884  1.00 42.36 LIG 0.17  C 
ATOM     50 OE2  GLU D   2      24.293 -13.816  22.691  1.00 45.25 LIG-0.65  OA
ATOM     51 OE1  GLU D   2      23.048 -12.040  22.353  1.00 37.51 LIG-0.65  OA
ENDBRANCH 48 49
ENDBRANCH 47 48
ENDBRANCH 36 47
ENDBRANCH 33 36
ENDBRANCH 31 32
BRANCH 31 52
ATOM     52  CB  ASP D   3      23.303 -11.073  29.819  1.00 35.86 LIG 0.15  C 
BRANCH 52 53
ATOM     53  CG  ASP D   3      22.088 -10.165  29.726  1.00 46.33 LIG 0.17  C 
ATOM     54 OD1  ASP D   3      21.026 -10.498  30.295  1.00 38.55 LIG-0.65  OA
ATOM     55 OD2  ASP D   3      22.201  -9.110  29.066  1.00 55.15 LIG-0.65  OA
ENDBRANCH 52 53
ENDBRANCH 31 52
ENDBRANCH 1 31
TORSDOF 23
ENDMDL
MODEL 4
USER: ADFR SOLUTION from run 7
USER: SCORE 19.133323 LL:  -3.592 LR: -15.921 RR:   0.000 FEB:  -9.060
USER: RMSD 3.194454
USER: SEED 507825
USER: STATUS no improvement in best in 6 clusters for 5 generations
USER: GENES 25
USER: genes 0 Translation |==|  0.37696 0.62221 0.66268
USER: genes 1 Rotation |==|  0.54417 0.48984 0.50342 0.99793
USER: genes 2 Torsion [C]-N--CA-[C] |==|  0.65305
USER: genes 3 Torsion [N]-CA--C-[N] |==|  0.38043
USER: genes 4 Torsion [C]-N--CA-[C] |==|  0.81217
USER: genes 5 Torsion [N]-CA--C-[N] |==|  0.40253
USER: genes 6 Torsion [C]-N--CA-[C] |==|  0.63400
USER: genes 7 Torsion [N]-CA--CB-[CG] |==|  0.81821
USER: genes 8 Torsion [CA]-CB--CG-[CD] |==|  0.52122
USER: genes 9 Torsion [CB]-CG--CD-[OE1] |==|  0.01678
USER: genes 10 Torsion [N]-CA--C-[OXT] |==|  0.17961
USER: genes 11 Torsion [N]-CA--CB-[CG1] |==|  0.80776
USER: genes 12 Torsion [N]-CA--CB-[CG] |==|  0.47524
USER: genes 13 Torsion [CA]-CB--CG-[OD1] |==|  0.19967
USER: genes 14 Torsion [N]-C--CA-[N] |==|  0.06111
USER: genes 15 Torsion [C]-CA--N-[C] |==|  0.69446
USER: genes 16 Torsion [N]-C--CA-[N] |==|  0.45276
USER: genes 17 Torsion [C]-CA--N-[C] |==|  0.55241
USER: genes 18 Torsion [N]-C--CA-[N] |==|  0.03493
USER: genes 19 Torsion [C]-CA--N-[H3] |==|  0.19507
USER: genes 20 Torsion [C]-CA--CB-[CG] |==|  0.88732
USER: genes 21 Torsion [CA]-CB--CG-[CD] |==|  0.81848
USER: genes 22 Torsion [CB]-CG--CD-[OE2] |==|  0.41233
USER: genes 23 Torsion [C]-CA--CB-[CG] |==|  0.41301
USER: genes 24 Torsion [CA]-CB--CG-[OD1] |==|  0.80860
ROOT
ATOM      1  C   ASP D   3      25.706 -10.713  28.732  1.00 34.79 LIG 0.24  C 
ATOM      2 O    ASP D   3      26.014  -9.982  29.678  1.00 37.58 LIG-0.27  OA
ATOM      3  N   ASP D   4      26.593 -11.439  28.056  1.00 33.46 LIG-0.34  N 
ATOM      4 H    ASP D   4      26.379 -12.004  27.445  1.00 33.46 LIG 0.16  HD
ENDROOT
BRANCH 3 5
ATOM      5  CA  ASP D   4      28.018 -11.337  28.295  1.00 24.32 LIG 0.19  C 
BRANCH 5 6
ATOM      6  C   ASP D   4      28.655 -11.018  26.944  1.00 29.08 LIG 0.24  C 
ATOM      7  N   VAL D   5      29.601 -10.094  26.948  1.00 26.12 LIG-0.35  N 
ATOM      8 H    VAL D   5      29.841  -9.649  27.644  1.00 26.12 LIG 0.16  HD
ATOM      9 O    ASP D   4      28.295 -11.602  25.915  1.00 25.35 LIG-0.27  OA
BRANCH 7 10
ATOM     10  CA  VAL D   5      30.325  -9.756  25.730  1.00 27.68 LIG 0.18  C 
BRANCH 10 11
ATOM     11  C   VAL D   5      31.193 -10.949  25.314  1.00 28.81 LIG 0.24  C 
ATOM     12  N   GLU D   6      31.333 -11.153  24.009  1.00 27.30 LIG-0.34  N 
ATOM     13 H    GLU D   6      30.987 -10.646  23.407  1.00 27.30 LIG 0.16  HD
ATOM     14 O    VAL D   5      31.695 -11.688  26.164  1.00 31.14 LIG-0.27  OA
BRANCH 12 15
ATOM     15  CA  GLU D   6      32.101 -12.278  23.477  1.00 31.22 LIG 0.19  C 
BRANCH 15 16
ATOM     16  CB  GLU D   6      31.175 -13.319  22.851  1.00 26.83 LIG 0.05  C 
BRANCH 16 17
ATOM     17  CG  GLU D   6      30.249 -14.011  23.820  1.00 32.75 LIG 0.12  C 
BRANCH 17 18
ATOM     18  CD  GLU D   6      29.495 -15.155  23.164  1.00 37.41 LIG 0.17  C 
ATOM     19 OE1  GLU D   6      29.785 -15.470  21.993  1.00 40.07 LIG-0.65  OA
ATOM     20 OE2  GLU D   6      28.609 -15.742  23.817  1.00 32.49 LIG-0.65  OA
ENDBRANCH 17 18
ENDBRANCH 16 17
ENDBRANCH 15 16
BRANCH 15 21
ATOM     21  C   GLU D   6      33.058 -11.799  22.405  1.00 32.10 LIG 0.20  C 
ATOM     22 OXT  GLU D   6      33.976 -11.030  22.692  1.00 29.11 LIG-0.65  OA
ATOM     23 O    GLU D   6      32.952 -12.201  21.245  1.00 24.06 LIG-0.65  OA
ENDBRANCH 15 21
ENDBRANCH 12 15
ENDBRANCH 10 11
BRANCH 10 24
ATOM     24  CB  VAL D   5      31.156  -8.479  25.927  1.00 24.95 LIG 0.01  C 
ATOM     25  CG1 VAL D   5      30.226  -7.275  26.062  1.00 19.21 LIG 0.01  C 
ATOM     26  CG2 VAL D   5      32.044  -8.610  27.166  1.00 24.99 LIG 0.01  C 
ENDBRANCH 10 24
ENDBRANCH 7 10
ENDBRANCH 5 6
BRANCH 5 27
ATOM     27  CB  ASP D   4      28.559 -12.663  28.843  1.00 34.66 LIG 0.15  C 
BRANCH 27 28
ATOM     28  CG  ASP D   4      30.091 -12.706  28.917  1.00 38.29 LIG 0.17  C 
ATOM     29 OD2  ASP D   4      30.699 -13.424  28.094  1.00 38.65 LIG-0.65  OA
ATOM     30 OD1  ASP D   4      30.693 -12.031  29.778  1.00 35.40 LIG-0.65  OA
ENDBRANCH 27 28
ENDBRANCH 5 27
ENDBRANCH 3 5
BRANCH 1 31
ATOM     31  CA  ASP D   3      24.254 -10.836  28.254  1.00 30.73 LIG 0.19  C 
BRANCH 31 32
ATOM     32  N   ASP D   3      24.032 -12.076  27.510  1.00 30.00 LIG-0.35  N 
ATOM     33  C   GLU D   2      23.814 -12.045  26.196  1.00 37.22 LIG 0.24  C 
ATOM     34 O    GLU D   2      23.749 -10.997  25.555  1.00 35.26 LIG-0.27  OA
ATOM     35 H    ASP D   3      24.056 -12.794  27.985  1.00 30.00 LIG 0.16  HD
BRANCH 33 36
ATOM     36  CA  GLU D   2      23.663 -13.387  25.486  1.00 39.45 LIG 0.18  C 
BRANCH 36 37
ATOM     37  N   GLU D   2      23.047 -13.255  24.173  1.00 40.85 LIG-0.35  N 
ATOM     38  C   ALA D   1      22.496 -14.298  23.562  1.00 38.03 LIG 0.25  C 
ATOM     39 O    ALA D   1      22.447 -15.420  24.066  1.00 37.20 LIG-0.27  OA
ATOM     40 H    GLU D   2      23.074 -12.461  23.843  1.00 40.85 LIG 0.16  HD
BRANCH 38 41
ATOM     41  CA  ALA D   1      21.916 -14.035  22.174  1.00 41.40 LIG 0.27  C 
ATOM     42  CB  ALA D   1      22.310 -15.150  21.205  1.00 39.88 LIG 0.05  C 
BRANCH 41 43
ATOM     43  N   ALA D   1      22.350 -12.734  21.670  1.00 41.88 LIG-0.07  N 
ATOM     44 H2   ALA D   1      22.206 -12.113  22.290  1.00 41.88 LIG 0.28  HD
ATOM     45 H3   ALA D   1      23.218 -12.764  21.477  1.00 41.88 LIG 0.28  HD
ATOM     46 H1   ALA D   1      21.891 -12.533  20.935  1.00 41.88 LIG 0.28  HD
ENDBRANCH 41 43
ENDBRANCH 38 41
ENDBRANCH 36 37
BRANCH 36 47
ATOM     47  CB  GLU D   2      25.002 -14.112  25.383  1.00 37.20 LIG 0.04  C 
BRANCH 47 48
ATOM     48  CG  GLU D   2      26.139 -13.174  25.048  1.00 39.39 LIG 0.12  C 
BRANCH 48 49
ATOM     49  CD  GLU D   2      25.982 -12.575  23.667  1.00 42.36 LIG 0.17  C 
ATOM     50 OE2  GLU D   2      26.415 -11.419  23.442  1.00 45.25 LIG-0.65  OA
ATOM     51 OE1  GLU D   2      25.421 -13.269  22.803  1.00 37.51 LIG-0.65  OA
ENDBRANCH 48 49
ENDBRANCH 47 48
ENDBRANCH 36 47
ENDBRANCH 33 36
ENDBRANCH 31 32
BRANCH 31 52
ATOM     52  CB  ASP D   3      23.236 -10.654  29.395  1.00 35.86 LIG 0.15  C 
BRANCH 52 53
ATOM     53  CG  ASP D   3      21.927 -10.032  28.938  1.00 46.33 LIG 0.17  C 
ATOM     54 OD1  ASP D   3      21.909  -8.836  28.573  1.00 38.55 LIG-0.65  OA
ATOM     55 OD2  ASP D   3      20.905 -10.750  28.956  1.00 55.15 LIG-0.65  OA
ENDBRANCH 52 53
ENDBRANCH 31 52
ENDBRANCH 1 31
TORSDOF 23
ENDMDL
MODEL 5
USER: ADFR SOLUTION from run 7
USER: SCORE 20.406792 LL:  -5.239 LR: -15.706 RR:   0.000 FEB:  -8.845
USER: RMSD 2.122542
USER: SEED 507825
USER: STATUS no improvement in best in 6 clusters for 5 generations
USER: GENES 25
USER: genes 0 Translation |==|  0.36460 0.62084 0.61707
USER: genes 1 Rotation |==|  0.52281 0.45445 0.52306 0.99686
USER: genes 2 Torsion [C]-N--CA-[C] |==|  0.66773
USER: genes 3 Torsion [N]-CA--C-[N] |==|  0.40946
USER: genes 4 Torsion [C]-N--CA-[C] |==|  0.81129
USER: genes 5 Torsion [N]-CA--C-[N] |==|  0.36854
USER: genes 6 Torsion [C]-N--CA-[C] |==|  0.67036
USER: genes 7 Torsion [N]-CA--CB-[CG] |==|  0.68853
USER: genes 8 Torsion [CA]-CB--CG-[CD] |==|  0.36841
USER: genes 9 Torsion [CB]-CG--CD-[OE1] |==|  0.42848
USER: genes 10 Torsion [N]-CA--C-[OXT] |==|  0.16926
USER: genes 11 Torsion [N]-CA--CB-[CG1] |==|  0.80508
USER: genes 12 Torsion [N]-CA--CB-[CG] |==|  0.44594
USER: genes 13 Torsion [CA]-CB--CG-[OD1] |==|  0.19961
USER: genes 14 Torsion [N]-C--CA-[N] |==|  0.06279
USER: genes 15 Torsion [C]-CA--N-[C] |==|  0.62225
USER: genes 16 Torsion [N]-C--CA-[N] |==|  0.92858
USER: genes 17 Torsion [C]-CA--N-[C] |==|  0.80844
USER: genes 18 Torsion [N]-C--CA-[N] |==|  0.58185
USER: genes 19 Torsion [C]-CA--N-[H3] |==|  0.58065
USER: genes 20 Torsion [C]-CA--CB-[CG] |==|  0.39741
USER: genes 21 Torsion [CA]-CB--CG-[CD] |==|  0.96949
USER: genes 22 Torsion [CB]-CG--CD-[OE2] |==|  0.28144
USER: genes 23 Torsion [C]-CA--CB-[CG] |==|  0.33971
USER: genes 24 Torsion [CA]-CB--CG-[OD1] |==|  0.64139
ROOT
ATOM      1  C   ASP D   3      25.447 -10.738  27.775  1.00 34.79 LIG 0.24  C 
ATOM      2 O    ASP D   3      25.566  -9.913  28.685  1.00 37.58 LIG-0.27  OA
ATOM      3  N   ASP D   4      26.466 -11.451  27.302  1.00 33.46 LIG-0.34  N 
ATOM      4 H    ASP D   4      26.379 -12.077  26.720  1.00 33.46 LIG 0.16  HD
ENDROOT
BRANCH 3 5
ATOM      5  CA  ASP D   4      27.830 -11.232  27.735  1.00 24.32 LIG 0.19  C 
BRANCH 5 6
ATOM      6  C   ASP D   4      28.618 -10.846  26.485  1.00 29.08 LIG 0.24  C 
ATOM      7  N   VAL D   5      29.617  -9.998  26.661  1.00 26.12 LIG-0.35  N 
ATOM      8 H    VAL D   5      29.815  -9.634  27.415  1.00 26.12 LIG 0.16  HD
ATOM      9 O    ASP D   4      28.324 -11.311  25.377  1.00 25.35 LIG-0.27  OA
BRANCH 7 10
ATOM     10  CA  VAL D   5      30.479  -9.612  25.552  1.00 27.68 LIG 0.18  C 
BRANCH 10 11
ATOM     11  C   VAL D   5      31.310 -10.824  25.116  1.00 28.81 LIG 0.24  C 
ATOM     12  N   GLU D   6      31.357 -11.071  23.812  1.00 27.30 LIG-0.34  N 
ATOM     13 H    GLU D   6      30.972 -10.581  23.220  1.00 27.30 LIG 0.16  HD
ATOM     14 O    VAL D   5      31.866 -11.540  25.953  1.00 31.14 LIG-0.27  OA
BRANCH 12 15
ATOM     15  CA  GLU D   6      32.080 -12.218  23.265  1.00 31.22 LIG 0.19  C 
BRANCH 15 16
ATOM     16  CB  GLU D   6      31.144 -13.114  22.457  1.00 26.83 LIG 0.05  C 
BRANCH 16 17
ATOM     17  CG  GLU D   6      30.881 -14.470  23.063  1.00 32.75 LIG 0.12  C 
BRANCH 17 18
ATOM     18  CD  GLU D   6      29.400 -14.811  23.068  1.00 37.41 LIG 0.17  C 
ATOM     19 OE1  GLU D   6      29.061 -16.011  23.066  1.00 40.07 LIG-0.65  OA
ATOM     20 OE2  GLU D   6      28.572 -13.879  23.072  1.00 32.49 LIG-0.65  OA
ENDBRANCH 17 18
ENDBRANCH 16 17
ENDBRANCH 15 16
BRANCH 15 21
ATOM     21  C   GLU D   6      33.188 -11.748  22.345  1.00 32.10 LIG 0.20  C 
ATOM     22 OXT  GLU D   6      34.095 -11.038  22.778  1.00 29.11 LIG-0.65  OA
ATOM     23 O    GLU D   6      33.215 -12.102  21.165  1.00 24.06 LIG-0.65  OA
ENDBRANCH 15 21
ENDBRANCH 12 15
ENDBRANCH 10 11
BRANCH 10 24
ATOM     24  CB  VAL D   5      31.363  -8.417  25.941  1.00 24.95 LIG 0.01  C 
ATOM     25  CG1 VAL D   5      30.503  -7.161  26.070  1.00 19.21 LIG 0.01  C 
ATOM     26  CG2 VAL D   5      32.094  -8.701  27.254  1.00 24.99 LIG 0.01  C 
ENDBRANCH 10 24
ENDBRANCH 7 10
ENDBRANCH 5 6
BRANCH 5 27
ATOM     27  CB  ASP D   4      28.401 -12.512  28.356  1.00 34.66 LIG 0.15  C 
BRANCH 27 28
ATOM     28  CG  ASP D   4      29.935 -12.527  28.404  1.00 38.29 LIG 0.17  C 
ATOM     29 OD2  ASP D   4      30.540 -13.287  27.617  1.00 38.65 LIG-0.65  OA
ATOM     30 OD1  ASP D   4      30.542 -11.789  29.209  1.00 35.40 LIG-0.65  OA
ENDBRANCH 27 28
ENDBRANCH 5 27
ENDBRANCH 3 5
BRANCH 1 31
ATOM     31  CA  ASP D   3      24.093 -11.000  27.103  1.00 30.73 LIG 0.19  C 
BRANCH 31 32
ATOM     32  N   ASP D   3      24.052 -12.315  26.462  1.00 30.00 LIG-0.35  N 
ATOM     33  C   GLU D   2      23.531 -12.455  25.243  1.00 37.22 LIG 0.24  C 
ATOM     34 O    GLU D   2      23.032 -11.519  24.619  1.00 35.26 LIG-0.27  OA
ATOM     35 H    ASP D   3      24.383 -12.957  26.929  1.00 30.00 LIG 0.16  HD
BRANCH 33 36
ATOM     36  CA  GLU D   2      23.592 -13.846  24.619  1.00 39.45 LIG 0.18  C 
BRANCH 36 37
ATOM     37  N   GLU D   2      24.691 -14.644  25.147  1.00 40.85 LIG-0.35  N 
ATOM     38  C   ALA D   1      25.955 -14.341  24.875  1.00 38.03 LIG 0.25  C 
ATOM     39 O    ALA D   1      26.279 -13.369  24.193  1.00 37.20 LIG-0.27  OA
ATOM     40 H    GLU D   2      24.447 -15.309  25.636  1.00 40.85 LIG 0.16  HD
BRANCH 38 41
ATOM     41  CA  ALA D   1      27.011 -15.277  25.459  1.00 41.40 LIG 0.27  C 
ATOM     42  CB  ALA D   1      26.496 -15.942  26.735  1.00 39.88 LIG 0.05  C 
BRANCH 41 43
ATOM     43  N   ALA D   1      28.255 -14.556  25.718  1.00 41.88 LIG-0.07  N 
ATOM     44 H2   ALA D   1      28.236 -14.216  26.539  1.00 41.88 LIG 0.28  HD
ATOM     45 H3   ALA D   1      28.943 -15.116  25.645  1.00 41.88 LIG 0.28  HD
ATOM     46 H1   ALA D   1      28.346 -13.898  25.126  1.00 41.88 LIG 0.28  HD
ENDBRANCH 41 43
ENDBRANCH 38 41
ENDBRANCH 36 37
BRANCH 36 47
ATOM     47  CB  GLU D   2      22.265 -14.583  24.779  1.00 37.20 LIG 0.04  C 
BRANCH 47 48
ATOM     48  CG  GLU D   2      21.926 -15.426  23.573  1.00 39.39 LIG 0.12  C 
BRANCH 48 49
ATOM     49  CD  GLU D   2      22.842 -15.128  22.405  1.00 42.36 LIG 0.17  C 
ATOM     50 OE2  GLU D   2      23.790 -15.908  22.148  1.00 45.25 LIG-0.65  OA
ATOM     51 OE1  GLU D   2      22.607 -14.104  21.741  1.00 37.51 LIG-0.65  OA
ENDBRANCH 48 49
ENDBRANCH 47 48
ENDBRANCH 36 47
ENDBRANCH 33 36
ENDBRANCH 31 32
BRANCH 31 52
ATOM     52  CB  ASP D   3      22.905 -10.785  28.059  1.00 35.86 LIG 0.15  C 
BRANCH 52 53
ATOM     53  CG  ASP D   3      21.912  -9.750  27.558  1.00 46.33 LIG 0.17  C 
ATOM     54 OD1  ASP D   3      21.557  -8.820  28.314  1.00 38.55 LIG-0.65  OA
ATOM     55 OD2  ASP D   3      21.475  -9.880  26.394  1.00 55.15 LIG-0.65  OA
ENDBRANCH 52 53
ENDBRANCH 31 52
ENDBRANCH 1 31
TORSDOF 23
ENDMDL
MODEL 6
USER: ADFR SOLUTION from run 196
USER: SCORE 19.560747 LL:  -4.381 LR: -15.490 RR:   0.000 FEB:  -8.629
USER: RMSD 2.056517
USER: SEED 195
USER: STATUS no improvement in best in 5 clusters for 5 generations
USER: GENES 25
USER: genes 0 Translation |==|  0.37450 0.60994 0.66562
USER: genes 1 Rotation |==|  0.46035 0.49510 0.51888 0.99804
USER: genes 2 Torsion [C]-N--CA-[C] |==|  0.72725
USER: genes 3 Torsion [N]-CA--C-[N] |==|  0.46667
USER: genes 4 Torsion [C]-N--CA-[C] |==|  0.78900
USER: genes 5 Torsion [N]-CA--C-[N] |==|  0.38238
USER: genes 6 Torsion [C]-N--CA-[C] |==|  0.70225
USER: genes 7 Torsion [N]-CA--CB-[CG] |==|  0.02415
USER: genes 8 Torsion [CA]-CB--CG-[CD] |==|  0.73894
USER: genes 9 Torsion [CB]-CG--CD-[OE1] |==|  0.40675
USER: genes 10 Torsion [N]-CA--C-[OXT] |==|  0.09258
USER: genes 11 Torsion [N]-CA--CB-[CG1] |==|  0.75273
USER: genes 12 Torsion [N]-CA--CB-[CG] |==|  0.46919
USER: genes 13 Torsion [CA]-CB--CG-[OD1] |==|  0.65577
USER: genes 14 Torsion [N]-C--CA-[N] |==|  0.96598
USER: genes 15 Torsion [C]-CA--N-[C] |==|  0.72734
USER: genes 16 Torsion [N]-C--CA-[N] |==|  0.92710
USER: genes 17 Torsion [C]-CA--N-[C] |==|  0.83181
USER: genes 18 Torsion [N]-C--CA-[N] |==|  0.46136
USER: genes 19 Torsion [C]-CA--N-[H3] |==|  0.27602
USER: genes 20 Torsion [C]-CA--CB-[CG] |==|  0.32799
USER: genes 21 Torsion [CA]-CB--CG-[CD] |==|  0.87617
USER: genes 22 Torsion [CB]-CG--CD-[OE2] |==|  0.31647
USER: genes 23 Torsion [C]-CA--CB-[CG] |==|  0.81097
USER: genes 24 Torsion [CA]-CB--CG-[OD1] |==|  0.93189
ROOT
ATOM      1  C   ASP D   3      25.655 -10.934  28.794  1.00 34.79 LIG 0.24  C 
ATOM      2 O    ASP D   3      25.922  -9.915  29.438  1.00 37.58 LIG-0.27  OA
ATOM      3  N   ASP D   4      26.580 -11.794  28.375  1.00 33.46 LIG-0.34  N 
ATOM      4 H    ASP D   4      26.397 -12.540  27.990  1.00 33.46 LIG 0.16  HD
ENDROOT
BRANCH 3 5
ATOM      5  CA  ASP D   4      27.997 -11.543  28.535  1.00 24.32 LIG 0.19  C 
BRANCH 5 6
ATOM      6  C   ASP D   4      28.486 -10.991  27.198  1.00 29.08 LIG 0.24  C 
ATOM      7  N   VAL D   5      29.699 -10.463  27.191  1.00 26.12 LIG-0.35  N 
ATOM      8 H    VAL D   5      30.195 -10.382  27.889  1.00 26.12 LIG 0.16  HD
ATOM      9 O    ASP D   4      27.775 -11.044  26.187  1.00 25.35 LIG-0.27  OA
BRANCH 7 10
ATOM     10  CA  VAL D   5      30.295  -9.967  25.958  1.00 27.68 LIG 0.18  C 
BRANCH 10 11
ATOM     11  C   VAL D   5      30.762 -11.157  25.112  1.00 28.81 LIG 0.24  C 
ATOM     12  N   GLU D   6      30.513 -11.090  23.809  1.00 27.30 LIG-0.34  N 
ATOM     13 H    GLU D   6      30.135 -10.417  23.429  1.00 27.30 LIG 0.16  HD
ATOM     14 O    VAL D   5      31.304 -12.131  25.640  1.00 31.14 LIG-0.27  OA
BRANCH 12 15
ATOM     15  CA  GLU D   6      30.870 -12.174  22.894  1.00 31.22 LIG 0.19  C 
BRANCH 15 16
ATOM     16  CB  GLU D   6      29.707 -12.498  21.958  1.00 26.83 LIG 0.05  C 
BRANCH 16 17
ATOM     17  CG  GLU D   6      28.551 -11.530  22.023  1.00 32.75 LIG 0.12  C 
BRANCH 17 18
ATOM     18  CD  GLU D   6      27.474 -11.998  22.988  1.00 37.41 LIG 0.17  C 
ATOM     19 OE1  GLU D   6      26.831 -11.143  23.627  1.00 40.07 LIG-0.65  OA
ATOM     20 OE2  GLU D   6      27.271 -13.222  23.110  1.00 32.49 LIG-0.65  OA
ENDBRANCH 17 18
ENDBRANCH 16 17
ENDBRANCH 15 16
BRANCH 15 21
ATOM     21  C   GLU D   6      32.057 -11.772  22.043  1.00 32.10 LIG 0.20  C 
ATOM     22 OXT  GLU D   6      32.931 -11.038  22.504  1.00 29.11 LIG-0.65  OA
ATOM     23 O    GLU D   6      32.180 -12.204  20.895  1.00 24.06 LIG-0.65  OA
ENDBRANCH 15 21
ENDBRANCH 12 15
ENDBRANCH 10 11
BRANCH 10 24
ATOM     24  CB  VAL D   5      31.442  -8.991  26.262  1.00 24.95 LIG 0.01  C 
ATOM     25  CG1 VAL D   5      30.891  -7.571  26.380  1.00 19.21 LIG 0.01  C 
ATOM     26  CG2 VAL D   5      32.156  -9.396  27.553  1.00 24.99 LIG 0.01  C 
ENDBRANCH 10 24
ENDBRANCH 7 10
ENDBRANCH 5 6
BRANCH 5 27
ATOM     27  CB  ASP D   4      28.730 -12.845  28.879  1.00 34.66 LIG 0.15  C 
BRANCH 27 28
ATOM     28  CG  ASP D   4      30.257 -12.718  28.798  1.00 38.29 LIG 0.17  C 
ATOM     29 OD2  ASP D   4      30.811 -11.836  29.490  1.00 38.65 LIG-0.65  OA
ATOM     30 OD1  ASP D   4      30.909 -13.488  28.062  1.00 35.40 LIG-0.65  OA
ENDBRANCH 27 28
ENDBRANCH 5 27
ENDBRANCH 3 5
BRANCH 1 31
ATOM     31  CA  ASP D   3      24.210 -11.286  28.416  1.00 30.73 LIG 0.19  C 
BRANCH 31 32
ATOM     32  N   ASP D   3      24.157 -12.355  27.419  1.00 30.00 LIG-0.35  N 
ATOM     33  C   GLU D   2      23.999 -12.067  26.127  1.00 37.22 LIG 0.24  C 
ATOM     34 O    GLU D   2      23.855 -10.917  25.714  1.00 35.26 LIG-0.27  OA
ATOM     35 H    ASP D   3      24.235 -13.152  27.735  1.00 30.00 LIG 0.16  HD
BRANCH 33 36
ATOM     36  CA  GLU D   2      24.026 -13.236  25.147  1.00 39.45 LIG 0.18  C 
BRANCH 36 37
ATOM     37  N   GLU D   2      24.796 -14.365  25.650  1.00 40.85 LIG-0.35  N 
ATOM     38  C   ALA D   1      26.088 -14.246  25.936  1.00 38.03 LIG 0.25  C 
ATOM     39 O    ALA D   1      26.703 -13.185  25.823  1.00 37.20 LIG-0.27  OA
ATOM     40 H    GLU D   2      24.346 -15.093  25.740  1.00 40.85 LIG 0.16  HD
BRANCH 38 41
ATOM     41  CA  ALA D   1      26.788 -15.512  26.421  1.00 41.40 LIG 0.27  C 
ATOM     42  CB  ALA D   1      26.319 -15.884  27.828  1.00 39.88 LIG 0.05  C 
BRANCH 41 43
ATOM     43  N   ALA D   1      28.239 -15.346  26.387  1.00 41.88 LIG-0.07  N 
ATOM     44 H2   ALA D   1      28.450 -14.685  25.830  1.00 41.88 LIG 0.28  HD
ATOM     45 H3   ALA D   1      28.535 -15.151  27.204  1.00 41.88 LIG 0.28  HD
ATOM     46 H1   ALA D   1      28.618 -16.102  26.108  1.00 41.88 LIG 0.28  HD
ENDBRANCH 41 43
ENDBRANCH 38 41
ENDBRANCH 36 37
BRANCH 36 47
ATOM     47  CB  GLU D   2      22.612 -13.672  24.770  1.00 37.20 LIG 0.04  C 
BRANCH 47 48
ATOM     48  CG  GLU D   2      22.336 -13.512  23.293  1.00 39.39 LIG 0.12  C 
BRANCH 48 49
ATOM     49  CD  GLU D   2      22.834 -12.182  22.771  1.00 42.36 LIG 0.17  C 
ATOM     50 OE2  GLU D   2      23.776 -12.156  21.943  1.00 45.25 LIG-0.65  OA
ATOM     51 OE1  GLU D   2      22.276 -11.155  23.195  1.00 37.51 LIG-0.65  OA
ENDBRANCH 48 49
ENDBRANCH 47 48
ENDBRANCH 36 47
ENDBRANCH 33 36
ENDBRANCH 31 32
BRANCH 31 52
ATOM     52  CB  ASP D   3      23.334 -11.593  29.644  1.00 35.86 LIG 0.15  C 
BRANCH 52 53
ATOM     53  CG  ASP D   3      23.726 -12.878  30.355  1.00 46.33 LIG 0.17  C 
ATOM     54 OD1  ASP D   3      24.324 -13.775  29.721  1.00 38.55 LIG-0.65  OA
ATOM     55 OD2  ASP D   3      23.422 -12.990  31.562  1.00 55.15 LIG-0.65  OA
ENDBRANCH 52 53
ENDBRANCH 31 52
ENDBRANCH 1 31
TORSDOF 23
ENDMDL
MODEL 7
USER: ADFR SOLUTION from run 51
USER: SCORE 20.252655 LL:  -5.497 LR: -15.160 RR:   0.000 FEB:  -8.299
USER: RMSD 3.311450
USER: SEED 50
USER: STATUS no improvement in best in 2 clusters for 5 generations
USER: GENES 25
USER: genes 0 Translation |==|  0.37343 0.59657 0.67587
USER: genes 1 Rotation |==|  0.42920 0.53777 0.59396 0.98449
USER: genes 2 Torsion [C]-N--CA-[C] |==|  0.78964
USER: genes 3 Torsion [N]-CA--C-[N] |==|  0.49360
USER: genes 4 Torsion [C]-N--CA-[C] |==|  0.84864
USER: genes 5 Torsion [N]-CA--C-[N] |==|  0.90001
USER: genes 6 Torsion [C]-N--CA-[C] |==|  0.76675
USER: genes 7 Torsion [N]-CA--CB-[CG] |==|  0.99656
USER: genes 8 Torsion [CA]-CB--CG-[CD] |==|  0.32528
USER: genes 9 Torsion [CB]-CG--CD-[OE1] |==|  0.12525
USER: genes 10 Torsion [N]-CA--C-[OXT] |==|  0.17170
USER: genes 11 Torsion [N]-CA--CB-[CG1] |==|  0.72722
USER: genes 12 Torsion [N]-CA--CB-[CG] |==|  0.60694
USER: genes 13 Torsion [CA]-CB--CG-[OD1] |==|  0.23028
USER: genes 14 Torsion [N]-C--CA-[N] |==|  0.90095
USER: genes 15 Torsion [C]-CA--N-[C] |==|  0.81315
USER: genes 16 Torsion [N]-C--CA-[N] |==|  0.90204
USER: genes 17 Torsion [C]-CA--N-[C] |==|  0.85530
USER: genes 18 Torsion [N]-C--CA-[N] |==|  0.45149
USER: genes 19 Torsion [C]-CA--N-[H3] |==|  0.89746
USER: genes 20 Torsion [C]-CA--CB-[CG] |==|  0.37626
USER: genes 21 Torsion [CA]-CB--CG-[CD] |==|  0.85650
USER: genes 22 Torsion [CB]-CG--CD-[OE2] |==|  0.86010
USER: genes 23 Torsion [C]-CA--CB-[CG] |==|  0.77270
USER: genes 24 Torsion [CA]-CB--CG-[OD1] |==|  0.04738
ROOT
ATOM      1  C   ASP D   3      25.632 -11.175  29.009  1.00 34.79 LIG 0.24  C 
ATOM      2 O    ASP D   3      25.691 -10.031  29.470  1.00 37.58 LIG-0.27  OA
ATOM      3  N   ASP D   4      26.687 -11.810  28.506  1.00 33.46 LIG-0.34  N 
ATOM      4 H    ASP D   4      26.670 -12.630  28.249  1.00 33.46 LIG 0.16  HD
ENDROOT
BRANCH 3 5
ATOM      5  CA  ASP D   4      27.973 -11.166  28.343  1.00 24.32 LIG 0.19  C 
BRANCH 5 6
ATOM      6  C   ASP D   4      27.843 -10.254  27.125  1.00 29.08 LIG 0.24  C 
ATOM      7  N   VAL D   5      28.904  -9.526  26.823  1.00 26.12 LIG-0.35  N 
ATOM      8 H    VAL D   5      29.629  -9.511  27.287  1.00 26.12 LIG 0.16  HD
ATOM      9 O    ASP D   4      26.796 -10.212  26.468  1.00 25.35 LIG-0.27  OA
BRANCH 7 10
ATOM     10  CA  VAL D   5      28.918  -8.670  25.644  1.00 27.68 LIG 0.18  C 
BRANCH 10 11
ATOM     11  C   VAL D   5      28.569  -9.510  24.411  1.00 28.81 LIG 0.24  C 
ATOM     12  N   GLU D   6      29.026 -10.757  24.395  1.00 27.30 LIG-0.34  N 
ATOM     13 H    GLU D   6      29.475 -11.109  25.038  1.00 27.30 LIG 0.16  HD
ATOM     14 O    VAL D   5      27.927  -9.021  23.477  1.00 31.14 LIG-0.27  OA
BRANCH 12 15
ATOM     15  CA  GLU D   6      28.799 -11.653  23.261  1.00 31.22 LIG 0.19  C 
BRANCH 15 16
ATOM     16  CB  GLU D   6      29.856 -12.755  23.221  1.00 26.83 LIG 0.05  C 
BRANCH 16 17
ATOM     17  CG  GLU D   6      30.899 -12.674  24.308  1.00 32.75 LIG 0.12  C 
BRANCH 17 18
ATOM     18  CD  GLU D   6      30.858 -13.887  25.223  1.00 37.41 LIG 0.17  C 
ATOM     19 OE1  GLU D   6      30.764 -15.020  24.712  1.00 40.07 LIG-0.65  OA
ATOM     20 OE2  GLU D   6      30.918 -13.708  26.456  1.00 32.49 LIG-0.65  OA
ENDBRANCH 17 18
ENDBRANCH 16 17
ENDBRANCH 15 16
BRANCH 15 21
ATOM     21  C   GLU D   6      27.440 -12.313  23.380  1.00 32.10 LIG 0.20  C 
ATOM     22 OXT  GLU D   6      26.416 -11.630  23.377  1.00 29.11 LIG-0.65  OA
ATOM     23 O    GLU D   6      27.343 -13.540  23.441  1.00 24.06 LIG-0.65  OA
ENDBRANCH 15 21
ENDBRANCH 12 15
ENDBRANCH 10 11
BRANCH 10 24
ATOM     24  CB  VAL D   5      30.276  -7.968  25.497  1.00 24.95 LIG 0.01  C 
ATOM     25  CG1 VAL D   5      30.187  -6.552  26.061  1.00 19.21 LIG 0.01  C 
ATOM     26  CG2 VAL D   5      31.367  -8.763  26.218  1.00 24.99 LIG 0.01  C 
ENDBRANCH 10 24
ENDBRANCH 7 10
ENDBRANCH 5 6
BRANCH 5 27
ATOM     27  CB  ASP D   4      29.066 -12.216  28.113  1.00 34.66 LIG 0.15  C 
BRANCH 27 28
ATOM     28  CG  ASP D   4      30.387 -11.878  28.818  1.00 38.29 LIG 0.17  C 
ATOM     29 OD2  ASP D   4      31.281 -11.312  28.151  1.00 38.65 LIG-0.65  OA
ATOM     30 OD1  ASP D   4      30.540 -12.162  30.025  1.00 35.40 LIG-0.65  OA
ENDBRANCH 27 28
ENDBRANCH 5 27
ENDBRANCH 3 5
BRANCH 1 31
ATOM     31  CA  ASP D   3      24.314 -11.958  28.976  1.00 30.73 LIG 0.19  C 
BRANCH 31 32
ATOM     32  N   ASP D   3      24.207 -12.786  27.774  1.00 30.00 LIG-0.35  N 
ATOM     33  C   GLU D   2      24.091 -12.220  26.573  1.00 37.22 LIG 0.24  C 
ATOM     34 O    GLU D   2      24.030 -11.001  26.413  1.00 35.26 LIG-0.27  OA
ATOM     35 H    ASP D   3      24.225 -13.634  27.914  1.00 30.00 LIG 0.16  HD
BRANCH 33 36
ATOM     36  CA  GLU D   2      24.056 -13.153  25.367  1.00 39.45 LIG 0.18  C 
BRANCH 36 37
ATOM     37  N   GLU D   2      24.912 -14.319  25.541  1.00 40.85 LIG-0.35  N 
ATOM     38  C   ALA D   1      26.188 -14.191  25.888  1.00 38.03 LIG 0.25  C 
ATOM     39 O    ALA D   1      26.716 -13.100  26.108  1.00 37.20 LIG-0.27  OA
ATOM     40 H    GLU D   2      24.522 -15.073  25.402  1.00 40.85 LIG 0.16  HD
BRANCH 38 41
ATOM     41  CA  ALA D   1      26.986 -15.487  26.004  1.00 41.40 LIG 0.27  C 
ATOM     42  CB  ALA D   1      26.601 -16.247  27.273  1.00 39.88 LIG 0.05  C 
BRANCH 41 43
ATOM     43  N   ALA D   1      28.421 -15.215  25.979  1.00 41.88 LIG-0.07  N 
ATOM     44 H2   ALA D   1      28.857 -15.944  25.713  1.00 41.88 LIG 0.28  HD
ATOM     45 H3   ALA D   1      28.588 -14.548  25.413  1.00 41.88 LIG 0.28  HD
ATOM     46 H1   ALA D   1      28.694 -14.987  26.795  1.00 41.88 LIG 0.28  HD
ENDBRANCH 41 43
ENDBRANCH 38 41
ENDBRANCH 36 37
BRANCH 36 47
ATOM     47  CB  GLU D   2      22.627 -13.578  25.038  1.00 37.20 LIG 0.04  C 
BRANCH 47 48
ATOM     48  CG  GLU D   2      22.333 -13.511  23.557  1.00 39.39 LIG 0.12  C 
BRANCH 48 49
ATOM     49  CD  GLU D   2      22.700 -12.164  22.974  1.00 42.36 LIG 0.17  C 
ATOM     50 OE2  GLU D   2      22.290 -11.117  23.529  1.00 45.25 LIG-0.65  OA
ATOM     51 OE1  GLU D   2      23.407 -12.157  21.951  1.00 37.51 LIG-0.65  OA
ENDBRANCH 48 49
ENDBRANCH 47 48
ENDBRANCH 36 47
ENDBRANCH 33 36
ENDBRANCH 31 32
BRANCH 31 52
ATOM     52  CB  ASP D   3      24.073 -12.769  30.262  1.00 35.86 LIG 0.15  C 
BRANCH 52 53
ATOM     53  CG  ASP D   3      24.807 -14.100  30.279  1.00 46.33 LIG 0.17  C 
ATOM     54 OD1  ASP D   3      25.750 -14.293  29.481  1.00 38.55 LIG-0.65  OA
ATOM     55 OD2  ASP D   3      24.425 -14.964  31.097  1.00 55.15 LIG-0.65  OA
ENDBRANCH 52 53
ENDBRANCH 31 52
ENDBRANCH 1 31
TORSDOF 23
ENDMDL
MODEL 8
USER: ADFR SOLUTION from run 158
USER: SCORE 19.457970 LL:  -5.020 LR: -14.871 RR:   0.000 FEB:  -8.010
USER: RMSD 3.122525
USER: SEED 157
USER: STATUS 1 or 2 clusters left
USER: GENES 25
USER: genes 0 Translation |==|  0.36335 0.61728 0.62057
USER: genes 1 Rotation |==|  0.50189 0.45044 0.53320 0.99643
USER: genes 2 Torsion [C]-N--CA-[C] |==|  0.66802
USER: genes 3 Torsion [N]-CA--C-[N] |==|  0.39873
USER: genes 4 Torsion [C]-N--CA-[C] |==|  0.81720
USER: genes 5 Torsion [N]-CA--C-[N] |==|  0.40059
USER: genes 6 Torsion [C]-N--CA-[C] |==|  0.21580
USER: genes 7 Torsion [N]-CA--CB-[CG] |==|  0.51043
USER: genes 8 Torsion [CA]-CB--CG-[CD] |==|  0.56057
USER: genes 9 Torsion [CB]-CG--CD-[OE1] |==|  0.27385
USER: genes 10 Torsion [N]-CA--C-[OXT] |==|  0.97606
USER: genes 11 Torsion [N]-CA--CB-[CG1] |==|  0.82243
USER: genes 12 Torsion [N]-CA--CB-[CG] |==|  0.43632
USER: genes 13 Torsion [CA]-CB--CG-[OD1] |==|  0.19706
USER: genes 14 Torsion [N]-C--CA-[N] |==|  0.05305
USER: genes 15 Torsion [C]-CA--N-[C] |==|  0.64726
USER: genes 16 Torsion [N]-C--CA-[N] |==|  0.89523
USER: genes 17 Torsion [C]-CA--N-[C] |==|  0.81391
USER: genes 18 Torsion [N]-C--CA-[N] |==|  0.57273
USER: genes 19 Torsion [C]-CA--N-[H3] |==|  0.98833
USER: genes 20 Torsion [C]-CA--CB-[CG] |==|  0.34313
USER: genes 21 Torsion [CA]-CB--CG-[CD] |==|  0.01715
USER: genes 22 Torsion [CB]-CG--CD-[OE2] |==|  0.26613
USER: genes 23 Torsion [C]-CA--CB-[CG] |==|  0.32326
USER: genes 24 Torsion [CA]-CB--CG-[OD1] |==|  0.69437
ROOT
ATOM      1  C   ASP D   3      25.420 -10.802  27.848  1.00 34.79 LIG 0.24  C 
ATOM      2 O    ASP D   3      25.492  -9.899  28.686  1.00 37.58 LIG-0.27  OA
ATOM      3  N   ASP D   4      26.472 -11.519  27.460  1.00 33.46 LIG-0.34  N 
ATOM      4 H    ASP D   4      26.418 -12.195  26.932  1.00 33.46 LIG 0.16  HD
ENDROOT
BRANCH 3 5
ATOM      5  CA  ASP D   4      27.818 -11.218  27.900  1.00 24.32 LIG 0.19  C 
BRANCH 5 6
ATOM      6  C   ASP D   4      28.622 -10.913  26.637  1.00 29.08 LIG 0.24  C 
ATOM      7  N   VAL D   5      29.536  -9.964  26.742  1.00 26.12 LIG-0.35  N 
ATOM      8 H    VAL D   5      29.671  -9.497  27.452  1.00 26.12 LIG 0.16  HD
ATOM      9 O    ASP D   4      28.415 -11.530  25.585  1.00 25.35 LIG-0.27  OA
BRANCH 7 10
ATOM     10  CA  VAL D   5      30.407  -9.635  25.622  1.00 27.68 LIG 0.18  C 
BRANCH 10 11
ATOM     11  C   VAL D   5      31.320 -10.830  25.327  1.00 28.81 LIG 0.24  C 
ATOM     12  N   GLU D   6      31.611 -11.052  24.050  1.00 27.30 LIG-0.34  N 
ATOM     13 H    GLU D   6      31.336 -10.555  23.405  1.00 27.30 LIG 0.16  HD
ATOM     14 O    VAL D   5      31.722 -11.556  26.241  1.00 31.14 LIG-0.27  OA
BRANCH 12 15
ATOM     15  CA  GLU D   6      32.438 -12.182  23.628  1.00 31.22 LIG 0.19  C 
BRANCH 15 16
ATOM     16  CB  GLU D   6      33.625 -12.367  24.570  1.00 26.83 LIG 0.05  C 
BRANCH 16 17
ATOM     17  CG  GLU D   6      34.591 -13.455  24.170  1.00 32.75 LIG 0.12  C 
BRANCH 17 18
ATOM     18  CD  GLU D   6      35.411 -13.947  25.351  1.00 37.41 LIG 0.17  C 
ATOM     19 OE1  GLU D   6      35.058 -14.994  25.931  1.00 40.07 LIG-0.65  OA
ATOM     20 OE2  GLU D   6      36.409 -13.288  25.704  1.00 32.49 LIG-0.65  OA
ENDBRANCH 17 18
ENDBRANCH 16 17
ENDBRANCH 15 16
BRANCH 15 21
ATOM     21  C   GLU D   6      31.625 -13.461  23.644  1.00 32.10 LIG 0.20  C 
ATOM     22 OXT  GLU D   6      30.493 -13.470  24.130  1.00 29.11 LIG-0.65  OA
ATOM     23 O    GLU D   6      32.069 -14.492  23.138  1.00 24.06 LIG-0.65  OA
ENDBRANCH 15 21
ENDBRANCH 12 15
ENDBRANCH 10 11
BRANCH 10 24
ATOM     24  CB  VAL D   5      31.208  -8.356  25.913  1.00 24.95 LIG 0.01  C 
ATOM     25  CG1 VAL D   5      30.254  -7.172  26.050  1.00 19.21 LIG 0.01  C 
ATOM     26  CG2 VAL D   5      32.036  -8.526  27.188  1.00 24.99 LIG 0.01  C 
ENDBRANCH 10 24
ENDBRANCH 7 10
ENDBRANCH 5 6
BRANCH 5 27
ATOM     27  CB  ASP D   4      28.415 -12.422  28.638  1.00 34.66 LIG 0.15  C 
BRANCH 27 28
ATOM     28  CG  ASP D   4      29.950 -12.426  28.645  1.00 38.29 LIG 0.17  C 
ATOM     29 OD2  ASP D   4      30.539 -13.275  27.940  1.00 38.65 LIG-0.65  OA
ATOM     30 OD1  ASP D   4      30.573 -11.592  29.336  1.00 35.40 LIG-0.65  OA
ENDBRANCH 27 28
ENDBRANCH 5 27
ENDBRANCH 3 5
BRANCH 1 31
ATOM     31  CA  ASP D   3      24.091 -11.165  27.174  1.00 30.73 LIG 0.19  C 
BRANCH 31 32
ATOM     32  N   ASP D   3      24.135 -12.500  26.576  1.00 30.00 LIG-0.35  N 
ATOM     33  C   GLU D   2      23.802 -12.677  25.298  1.00 37.22 LIG 0.24  C 
ATOM     34 O    GLU D   2      23.412 -11.760  24.576  1.00 35.26 LIG-0.27  OA
ATOM     35 H    ASP D   3      24.385 -13.128  27.107  1.00 30.00 LIG 0.16  HD
BRANCH 33 36
ATOM     36  CA  GLU D   2      23.942 -14.088  24.734  1.00 39.45 LIG 0.18  C 
BRANCH 36 37
ATOM     37  N   GLU D   2      25.117 -14.778  25.250  1.00 40.85 LIG-0.35  N 
ATOM     38  C   ALA D   1      26.344 -14.373  24.942  1.00 38.03 LIG 0.25  C 
ATOM     39 O    ALA D   1      26.567 -13.390  24.235  1.00 37.20 LIG-0.27  OA
ATOM     40 H    GLU D   2      24.943 -15.451  25.756  1.00 40.85 LIG 0.16  HD
BRANCH 38 41
ATOM     41  CA  ALA D   1      27.489 -15.203  25.517  1.00 41.40 LIG 0.27  C 
ATOM     42  CB  ALA D   1      27.089 -15.818  26.858  1.00 39.88 LIG 0.05  C 
BRANCH 41 43
ATOM     43  N   ALA D   1      28.695 -14.391  25.660  1.00 41.88 LIG-0.07  N 
ATOM     44 H2   ALA D   1      29.366 -14.775  25.220  1.00 41.88 LIG 0.28  HD
ATOM     45 H3   ALA D   1      28.549 -13.579  25.326  1.00 41.88 LIG 0.28  HD
ATOM     46 H1   ALA D   1      28.907 -14.322  26.522  1.00 41.88 LIG 0.28  HD
ENDBRANCH 41 43
ENDBRANCH 38 41
ENDBRANCH 36 37
BRANCH 36 47
ATOM     47  CB  GLU D   2      22.681 -14.911  24.983  1.00 37.20 LIG 0.04  C 
BRANCH 47 48
ATOM     48  CG  GLU D   2      22.092 -15.462  23.705  1.00 39.39 LIG 0.12  C 
BRANCH 48 49
ATOM     49  CD  GLU D   2      22.982 -15.186  22.513  1.00 42.36 LIG 0.17  C 
ATOM     50 OE2  GLU D   2      23.790 -16.065  22.128  1.00 45.25 LIG-0.65  OA
ATOM     51 OE1  GLU D   2      22.869 -14.079  21.959  1.00 37.51 LIG-0.65  OA
ENDBRANCH 48 49
ENDBRANCH 47 48
ENDBRANCH 36 47
ENDBRANCH 33 36
ENDBRANCH 31 32
BRANCH 31 52
ATOM     52  CB  ASP D   3      22.883 -10.989  28.113  1.00 35.86 LIG 0.15  C 
BRANCH 52 53
ATOM     53  CG  ASP D   3      21.905  -9.927  27.639  1.00 46.33 LIG 0.17  C 
ATOM     54 OD1  ASP D   3      21.808  -8.854  28.273  1.00 38.55 LIG-0.65  OA
ATOM     55 OD2  ASP D   3      21.220 -10.178  26.625  1.00 55.15 LIG-0.65  OA
ENDBRANCH 52 53
ENDBRANCH 31 52
ENDBRANCH 1 31
TORSDOF 23
ENDMDL
MODEL 9
USER: ADFR SOLUTION from run 136
USER: SCORE 17.913464 LL:  -4.061 LR: -14.526 RR:   0.000 FEB:  -7.665
USER: RMSD 1.886789
USER: SEED 135
USER: STATUS no improvement in best in 3 clusters for 5 generations
USER: GENES 25
USER: genes 0 Translation |==|  0.38619 0.61795 0.67268
USER: genes 1 Rotation |==|  0.49841 0.51190 0.49405 0.99982
USER: genes 2 Torsion [C]-N--CA-[C] |==|  0.70826
USER: genes 3 Torsion [N]-CA--C-[N] |==|  0.45606
USER: genes 4 Torsion [C]-N--CA-[C] |==|  0.73849
USER: genes 5 Torsion [N]-CA--C-[N] |==|  0.43223
USER: genes 6 Torsion [C]-N--CA-[C] |==|  0.72552
USER: genes 7 Torsion [N]-CA--CB-[CG] |==|  0.96244
USER: genes 8 Torsion [CA]-CB--CG-[CD] |==|  0.43991
USER: genes 9 Torsion [CB]-CG--CD-[OE1] |==|  0.07911
USER: genes 10 Torsion [N]-CA--C-[OXT] |==|  0.47868
USER: genes 11 Torsion [N]-CA--CB-[CG1] |==|  0.77495
USER: genes 12 Torsion [N]-CA--CB-[CG] |==|  0.50351
USER: genes 13 Torsion [CA]-CB--CG-[OD1] |==|  0.10650
USER: genes 14 Torsion [N]-C--CA-[N] |==|  0.99859
USER: genes 15 Torsion [C]-CA--N-[C] |==|  0.76913
USER: genes 16 Torsion [N]-C--CA-[N] |==|  0.07219
USER: genes 17 Torsion [C]-CA--N-[C] |==|  0.74807
USER: genes 18 Torsion [N]-C--CA-[N] |==|  0.73176
USER: genes 19 Torsion [C]-CA--N-[H3] |==|  0.26693
USER: genes 20 Torsion [C]-CA--CB-[CG] |==|  0.31691
USER: genes 21 Torsion [CA]-CB--CG-[CD] |==|  0.90008
USER: genes 22 Torsion [CB]-CG--CD-[OE2] |==|  0.27100
USER: genes 23 Torsion [C]-CA--CB-[CG] |==|  0.73145
USER: genes 24 Torsion [CA]-CB--CG-[OD1] |==|  0.82398
ROOT
ATOM      1  C   ASP D   3      25.900 -10.790  28.942  1.00 34.79 LIG 0.24  C 
ATOM      2 O    ASP D   3      26.312  -9.913  29.707  1.00 37.58 LIG-0.27  OA
ATOM      3  N   ASP D   4      26.703 -11.661  28.336  1.00 33.46 LIG-0.34  N 
ATOM      4 H    ASP D   4      26.419 -12.318  27.860  1.00 33.46 LIG 0.16  HD
ENDROOT
BRANCH 3 5
ATOM      5  CA  ASP D   4      28.145 -11.578  28.428  1.00 24.32 LIG 0.19  C 
BRANCH 5 6
ATOM      6  C   ASP D   4      28.628 -11.037  27.083  1.00 29.08 LIG 0.24  C 
ATOM      7  N   VAL D   5      29.867 -10.577  27.049  1.00 26.12 LIG-0.35  N 
ATOM      8 H    VAL D   5      30.386 -10.532  27.734  1.00 26.12 LIG 0.16  HD
ATOM      9 O    ASP D   4      27.888 -11.038  26.093  1.00 25.35 LIG-0.27  OA
BRANCH 7 10
ATOM     10  CA  VAL D   5      30.456 -10.100  25.805  1.00 27.68 LIG 0.18  C 
BRANCH 10 11
ATOM     11  C   VAL D   5      31.234 -11.244  25.146  1.00 28.81 LIG 0.24  C 
ATOM     12  N   GLU D   6      31.403 -11.164  23.831  1.00 27.30 LIG-0.34  N 
ATOM     13 H    GLU D   6      31.123 -10.507  23.353  1.00 27.30 LIG 0.16  HD
ATOM     14 O    VAL D   5      31.641 -12.197  25.817  1.00 31.14 LIG-0.27  OA
BRANCH 12 15
ATOM     15  CA  GLU D   6      32.092 -12.208  23.073  1.00 31.22 LIG 0.19  C 
BRANCH 15 16
ATOM     16  CB  GLU D   6      31.415 -12.432  21.722  1.00 26.83 LIG 0.05  C 
BRANCH 16 17
ATOM     17  CG  GLU D   6      30.050 -11.804  21.583  1.00 32.75 LIG 0.12  C 
BRANCH 17 18
ATOM     18  CD  GLU D   6      29.667 -11.598  20.126  1.00 37.41 LIG 0.17  C 
ATOM     19 OE1  GLU D   6      30.140 -12.370  19.268  1.00 40.07 LIG-0.65  OA
ATOM     20 OE2  GLU D   6      28.895 -10.663  19.837  1.00 32.49 LIG-0.65  OA
ENDBRANCH 17 18
ENDBRANCH 16 17
ENDBRANCH 15 16
BRANCH 15 21
ATOM     21  C   GLU D   6      33.529 -11.806  22.814  1.00 32.10 LIG 0.20  C 
ATOM     22 OXT  GLU D   6      34.317 -12.608  22.314  1.00 29.11 LIG-0.65  OA
ATOM     23 O    GLU D   6      33.915 -10.663  23.065  1.00 24.06 LIG-0.65  OA
ENDBRANCH 15 21
ENDBRANCH 12 15
ENDBRANCH 10 11
BRANCH 10 24
ATOM     24  CB  VAL D   5      31.343  -8.871  26.060  1.00 24.95 LIG 0.01  C 
ATOM     25  CG1 VAL D   5      30.473  -7.620  26.161  1.00 19.21 LIG 0.01  C 
ATOM     26  CG2 VAL D   5      32.158  -9.060  27.341  1.00 24.99 LIG 0.01  C 
ENDBRANCH 10 24
ENDBRANCH 7 10
ENDBRANCH 5 6
BRANCH 5 27
ATOM     27  CB  ASP D   4      28.740 -12.966  28.693  1.00 34.66 LIG 0.15  C 
BRANCH 27 28
ATOM     28  CG  ASP D   4      30.269 -12.951  28.834  1.00 38.29 LIG 0.17  C 
ATOM     29 OD2  ASP D   4      30.914 -13.899  28.337  1.00 38.65 LIG-0.65  OA
ATOM     30 OD1  ASP D   4      30.831 -12.005  29.426  1.00 35.40 LIG-0.65  OA
ENDBRANCH 27 28
ENDBRANCH 5 27
ENDBRANCH 3 5
BRANCH 1 31
ATOM     31  CA  ASP D   3      24.407 -10.937  28.622  1.00 30.73 LIG 0.19  C 
BRANCH 31 32
ATOM     32  N   ASP D   3      24.161 -12.028  27.679  1.00 30.00 LIG-0.35  N 
ATOM     33  C   GLU D   2      24.298 -11.832  26.368  1.00 37.22 LIG 0.24  C 
ATOM     34 O    GLU D   2      24.595 -10.740  25.885  1.00 35.26 LIG-0.27  OA
ATOM     35 H    ASP D   3      23.929 -12.775  28.040  1.00 30.00 LIG 0.16  HD
BRANCH 33 36
ATOM     36  CA  GLU D   2      24.091 -13.040  25.461  1.00 39.45 LIG 0.18  C 
BRANCH 36 37
ATOM     37  N   GLU D   2      23.218 -14.042  26.058  1.00 40.85 LIG-0.35  N 
ATOM     38  C   ALA D   1      23.709 -15.030  26.799  1.00 38.03 LIG 0.25  C 
ATOM     39 O    ALA D   1      24.909 -15.149  27.046  1.00 37.20 LIG-0.27  OA
ATOM     40 H    GLU D   2      22.382 -13.933  25.890  1.00 40.85 LIG 0.16  HD
BRANCH 38 41
ATOM     41  CA  ALA D   1      22.692 -16.033  27.338  1.00 41.40 LIG 0.27  C 
ATOM     42  CB  ALA D   1      21.464 -16.099  26.430  1.00 39.88 LIG 0.05  C 
BRANCH 41 43
ATOM     43  N   ALA D   1      22.306 -15.695  28.706  1.00 41.88 LIG-0.07  N 
ATOM     44 H2   ALA D   1      22.950 -15.212  29.085  1.00 41.88 LIG 0.28  HD
ATOM     45 H3   ALA D   1      21.551 -15.224  28.694  1.00 41.88 LIG 0.28  HD
ATOM     46 H1   ALA D   1      22.182 -16.442  29.173  1.00 41.88 LIG 0.28  HD
ENDBRANCH 41 43
ENDBRANCH 38 41
ENDBRANCH 36 37
BRANCH 36 47
ATOM     47  CB  GLU D   2      23.569 -12.619  24.090  1.00 37.20 LIG 0.04  C 
BRANCH 47 48
ATOM     48  CG  GLU D   2      24.563 -12.893  22.985  1.00 39.39 LIG 0.12  C 
BRANCH 48 49
ATOM     49  CD  GLU D   2      25.987 -12.669  23.446  1.00 42.36 LIG 0.17  C 
ATOM     50 OE2  GLU D   2      26.679 -13.647  23.816  1.00 45.25 LIG-0.65  OA
ATOM     51 OE1  GLU D   2      26.415 -11.502  23.434  1.00 37.51 LIG-0.65  OA
ENDBRANCH 48 49
ENDBRANCH 47 48
ENDBRANCH 36 47
ENDBRANCH 33 36
ENDBRANCH 31 32
BRANCH 31 52
ATOM     52  CB  ASP D   3      23.538 -11.056  29.887  1.00 35.86 LIG 0.15  C 
BRANCH 52 53
ATOM     53  CG  ASP D   3      23.209 -12.493  30.256  1.00 46.33 LIG 0.17  C 
ATOM     54 OD1  ASP D   3      22.527 -13.189  29.473  1.00 38.55 LIG-0.65  OA
ATOM     55 OD2  ASP D   3      23.632 -12.923  31.351  1.00 55.15 LIG-0.65  OA
ENDBRANCH 52 53
ENDBRANCH 31 52
ENDBRANCH 1 31
TORSDOF 23
ENDMDL
