MODEL 1
USER: ADFR SOLUTION from run 140
USER: SCORE 13.726874 LL:  -2.743 LR: -11.946 RR:   0.000 FEB:  -7.770
USER: RMSD 2.565844
USER: SEED 139
USER: STATUS no improvement in best in 2 clusters for 5 generations
USER: GENES 16
USER: genes 0 Translation |==|  0.56477 0.48268 0.53225
USER: genes 1 Rotation |==|  0.46238 0.48221 0.47180 0.99747
USER: genes 2 Torsion [C]-CA--N-[C] |==|  0.75586
USER: genes 3 Torsion [N]-C--CA-[N] |==|  0.48333
USER: genes 4 Torsion [C]-CA--CB-[CG] |==|  0.54704
USER: genes 5 Torsion [CA]-CB--CG-[CD2] |==|  0.38073
USER: genes 6 Torsion [C]-CA--N-[C] |==|  0.67194
USER: genes 7 Torsion [N]-CA--C-[N] |==|  0.34495
USER: genes 8 Torsion [C]-N--CA-[CB] |==|  0.52814
USER: genes 9 Torsion [N]-CA--CB-[CG2] |==|  0.44015
USER: genes 10 Torsion [CA]-CB--OG1-[HG1] |==|  0.64528
USER: genes 11 Torsion [N]-CA--C-[N] |==|  0.39141
USER: genes 12 Torsion [C]-N--CA-[C] |==|  0.56624
USER: genes 13 Torsion [N]-CA--C-[N] |==|  0.46537
USER: genes 14 Torsion [N]-CA--CB-[CG] |==|  0.09239
USER: genes 15 Torsion [CA]-CB--CG-[ND1] |==|  0.78985
ROOT
ATOM      1  CA  HIS C   2      26.040   2.301  43.580  1.00 11.69 LIG 0.18  C 
ENDROOT
BRANCH 1 2
ATOM      2  N   HIS C   2      26.010   1.760  42.222  1.00 10.87 LIG-0.35  N 
ATOM      3 H    HIS C   2      26.083   2.347  41.597  1.00 10.87 LIG 0.16  HD
ATOM      4  C   PHE C   1      25.878   0.455  42.014  1.00 11.47 LIG 0.24  C 
ATOM      5 O    PHE C   1      25.904  -0.382  42.934  1.00 12.97 LIG-0.27  OA
BRANCH 4 6
ATOM      6  CA  PHE C   1      25.736   0.024  40.552  1.00 11.05 LIG 0.18  C 
BRANCH 6 7
ATOM      7  CB  PHE C   1      24.449   0.599  39.952  1.00 10.09 LIG 0.07  C 
BRANCH 7 8
ATOM      8  CG  PHE C   1      24.025  -0.080  38.686  1.00  8.73 LIG-0.06  A 
ATOM      9  CD2 PHE C   1      22.705  -0.400  38.467  1.00  8.91 LIG 0.01  A 
ATOM     10  CE2 PHE C   1      22.328  -1.035  37.302  1.00  8.44 LIG 0.00  A 
ATOM     11  CZ  PHE C   1      23.278  -1.365  36.355  1.00  8.32 LIG 0.00  A 
ATOM     12  CE1 PHE C   1      24.600  -1.038  36.563  1.00  8.07 LIG 0.00  A 
ATOM     13  CD1 PHE C   1      24.967  -0.413  37.729  1.00  8.33 LIG 0.01  A 
ENDBRANCH 7 8
ENDBRANCH 6 7
BRANCH 6 14
ATOM     14  N   PHE C   1      25.740  -1.417  40.433  1.00 11.54 LIG-0.35  N 
ATOM     15 H    PHE C   1      25.085  -1.792  40.843  1.00 11.54 LIG 0.16  HD
ATOM     16  C   ACE C   0      26.652  -2.104  39.764  1.00 13.21 LIG 0.21  C 
ATOM     17  CH3 ACE C   0      26.653  -3.601  39.881  1.00 13.47 LIG 0.12  C 
ATOM     18 O    ACE C   0      27.573  -1.462  39.261  1.00 14.75 LIG-0.27  OA
ENDBRANCH 6 14
ENDBRANCH 4 6
ENDBRANCH 1 2
BRANCH 1 19
ATOM     19  C   HIS C   2      24.624   2.574  44.007  1.00 11.19 LIG 0.24  C 
ATOM     20  N   THR C   3      24.224   1.990  45.129  1.00 11.67 LIG-0.34  N 
ATOM     21 H    THR C   3      24.702   1.445  45.592  1.00 11.67 LIG 0.16  HD
ATOM     22 O    HIS C   2      23.907   3.337  43.366  1.00 11.10 LIG-0.27  OA
BRANCH 20 23
ATOM     23  CA  THR C   3      22.902   2.249  45.659  1.00 11.71 LIG 0.20  C 
BRANCH 23 24
ATOM     24  CB  THR C   3      22.726   1.675  47.090  1.00 13.34 LIG 0.15  C 
ATOM     25  CG2 THR C   3      21.605   2.359  47.834  1.00 14.42 LIG 0.04  C 
BRANCH 24 26
ATOM     26 OG1  THR C   3      22.433   0.285  46.990  1.00 13.01 LIG-0.39  OA
ATOM     27 HG1  THR C   3      21.739   0.112  47.430  1.00 13.01 LIG 0.21  HD
ENDBRANCH 24 26
ENDBRANCH 23 24
BRANCH 23 28
ATOM     28  C   THR C   3      22.591   3.753  45.615  1.00 11.33 LIG 0.24  C 
ATOM     29  N   ALA C   4      21.348   4.095  45.281  1.00 10.31 LIG-0.35  N 
ATOM     30 H    ALA C   4      20.756   3.548  44.983  1.00 10.31 LIG 0.16  HD
ATOM     31 O    THR C   3      23.464   4.590  45.878  1.00 11.88 LIG-0.27  OA
BRANCH 29 32
ATOM     32  CA  ALA C   4      20.900   5.477  45.408  1.00 10.35 LIG 0.18  C 
ATOM     33  CB  ALA C   4      21.391   6.316  44.219  1.00 10.31 LIG 0.04  C 
BRANCH 32 34
ATOM     34  C   ALA C   4      19.359   5.554  45.551  1.00 10.99 LIG 0.28  C 
ATOM     35 O    ALA C   4      18.659   4.571  45.330  0.79 11.43 LIG-0.27  OA
ATOM     36  N   NH2 C   5      18.844   6.720  45.927  0.91 10.97 LIG-0.11  N 
ENDBRANCH 32 34
ENDBRANCH 29 32
ENDBRANCH 23 28
ENDBRANCH 20 23
ENDBRANCH 1 19
BRANCH 1 37
ATOM     37  CB  HIS C   2      26.788   3.624  43.652  1.00 14.08 LIG 0.10  C 
BRANCH 37 38
ATOM     38  CG  HIS C   2      26.652   4.464  42.433  1.00 15.42 LIG 0.06  A 
ATOM     39  CD2 HIS C   2      25.914   5.571  42.213  1.00 15.59 LIG 0.14  A 
ATOM     40 NE2  HIS C   2      26.143   5.962  40.915  1.00 17.02 LIG-0.25  NA
ATOM     41  CE1 HIS C   2      26.998   5.123  40.361  1.00 16.99 LIG 0.23  A 
ATOM     42 ND1  HIS C   2      27.320   4.206  41.255  0.48 15.92 LIG-0.24  NA
ENDBRANCH 37 38
ENDBRANCH 1 37
TORSDOF 14
ENDMDL
MODEL 2
USER: ADFR SOLUTION from run 77
USER: SCORE 13.574836 LL:  -2.764 LR: -11.620 RR:   0.000 FEB:  -7.444
USER: RMSD 1.884087
USER: SEED 76
USER: STATUS 1 or 2 clusters left
USER: GENES 16
USER: genes 0 Translation |==|  0.53557 0.49743 0.56693
USER: genes 1 Rotation |==|  0.51096 0.49248 0.48752 0.99967
USER: genes 2 Torsion [C]-CA--N-[C] |==|  0.71618
USER: genes 3 Torsion [N]-C--CA-[N] |==|  0.30202
USER: genes 4 Torsion [C]-CA--CB-[CG] |==|  0.48935
USER: genes 5 Torsion [CA]-CB--CG-[CD2] |==|  0.20900
USER: genes 6 Torsion [C]-CA--N-[C] |==|  0.75635
USER: genes 7 Torsion [N]-CA--C-[N] |==|  0.43388
USER: genes 8 Torsion [C]-N--CA-[CB] |==|  0.51667
USER: genes 9 Torsion [N]-CA--CB-[CG2] |==|  0.43959
USER: genes 10 Torsion [CA]-CB--OG1-[HG1] |==|  0.75131
USER: genes 11 Torsion [N]-CA--C-[N] |==|  0.41846
USER: genes 12 Torsion [C]-N--CA-[C] |==|  0.79449
USER: genes 13 Torsion [N]-CA--C-[N] |==|  0.91181
USER: genes 14 Torsion [N]-CA--CB-[CG] |==|  0.13162
USER: genes 15 Torsion [CA]-CB--CG-[ND1] |==|  0.76010
ROOT
ATOM      1  CA  HIS C   2      25.471   2.545  44.282  1.00 11.69 LIG 0.18  C 
ENDROOT
BRANCH 1 2
ATOM      2  N   HIS C   2      25.419   2.274  42.846  1.00 10.87 LIG-0.35  N 
ATOM      3 H    HIS C   2      25.236   2.956  42.356  1.00 10.87 LIG 0.16  HD
ATOM      4  C   PHE C   1      25.643   1.051  42.378  1.00 11.47 LIG 0.24  C 
ATOM      5 O    PHE C   1      26.032   0.113  43.097  1.00 12.97 LIG-0.27  OA
BRANCH 4 6
ATOM      6  CA  PHE C   1      25.440   0.867  40.872  1.00 11.05 LIG 0.18  C 
BRANCH 6 7
ATOM      7  CB  PHE C   1      24.526  -0.332  40.603  1.00 10.09 LIG 0.07  C 
BRANCH 7 8
ATOM      8  CG  PHE C   1      24.205  -0.525  39.152  1.00  8.73 LIG-0.06  A 
ATOM      9  CD2 PHE C   1      25.138  -1.048  38.288  1.00  8.91 LIG 0.01  A 
ATOM     10  CE2 PHE C   1      24.835  -1.211  36.952  1.00  8.44 LIG 0.00  A 
ATOM     11  CZ  PHE C   1      23.594  -0.835  36.474  1.00  8.32 LIG 0.00  A 
ATOM     12  CE1 PHE C   1      22.651  -0.320  37.336  1.00  8.07 LIG 0.00  A 
ATOM     13  CD1 PHE C   1      22.965  -0.155  38.662  1.00  8.33 LIG 0.01  A 
ENDBRANCH 7 8
ENDBRANCH 6 7
BRANCH 6 14
ATOM     14  N   PHE C   1      26.706   0.690  40.195  1.00 11.54 LIG-0.35  N 
ATOM     15 H    PHE C   1      26.932  -0.135  40.112  1.00 11.54 LIG 0.16  HD
ATOM     16  C   ACE C   0      27.453   1.684  39.744  1.00 13.21 LIG 0.21  C 
ATOM     17  CH3 ACE C   0      28.832   1.376  39.237  1.00 13.47 LIG 0.12  C 
ATOM     18 O    ACE C   0      27.052   2.826  39.967  1.00 14.75 LIG-0.27  OA
ENDBRANCH 6 14
ENDBRANCH 4 6
ENDBRANCH 1 2
BRANCH 1 19
ATOM     19  C   HIS C   2      24.059   2.631  44.794  1.00 11.19 LIG 0.24  C 
ATOM     20  N   THR C   3      23.885   2.384  46.085  1.00 11.67 LIG-0.34  N 
ATOM     21 H    THR C   3      24.510   2.144  46.625  1.00 11.67 LIG 0.16  HD
ATOM     22 O    HIS C   2      23.137   2.960  44.052  1.00 11.10 LIG-0.27  OA
BRANCH 20 23
ATOM     23  CA  THR C   3      22.573   2.513  46.685  1.00 11.71 LIG 0.20  C 
BRANCH 23 24
ATOM     24  CB  THR C   3      22.616   2.327  48.226  1.00 13.34 LIG 0.15  C 
ATOM     25  CG2 THR C   3      21.423   2.956  48.901  1.00 14.42 LIG 0.04  C 
BRANCH 24 26
ATOM     26 OG1  THR C   3      22.627   0.932  48.514  1.00 13.01 LIG-0.39  OA
ATOM     27 HG1  THR C   3      21.838   0.654  48.587  1.00 13.01 LIG 0.21  HD
ENDBRANCH 24 26
ENDBRANCH 23 24
BRANCH 23 28
ATOM     28  C   THR C   3      21.936   3.857  46.301  1.00 11.33 LIG 0.24  C 
ATOM     29  N   ALA C   4      20.607   3.890  46.236  1.00 10.31 LIG-0.35  N 
ATOM     30 H    ALA C   4      20.100   3.197  46.281  1.00 10.31 LIG 0.16  HD
ATOM     31 O    THR C   3      22.638   4.849  46.065  1.00 11.88 LIG-0.27  OA
BRANCH 29 32
ATOM     32  CA  ALA C   4      19.903   5.158  46.081  1.00 10.35 LIG 0.18  C 
ATOM     33  CB  ALA C   4      18.467   4.923  45.590  1.00 10.31 LIG 0.04  C 
BRANCH 32 34
ATOM     34  C   ALA C   4      19.919   5.971  47.400  1.00 10.99 LIG 0.28  C 
ATOM     35 O    ALA C   4      19.924   7.197  47.380  0.79 11.43 LIG-0.27  OA
ATOM     36  N   NH2 C   5      19.918   5.281  48.536  0.91 10.97 LIG-0.11  N 
ENDBRANCH 32 34
ENDBRANCH 29 32
ENDBRANCH 23 28
ENDBRANCH 20 23
ENDBRANCH 1 19
BRANCH 1 37
ATOM     37  CB  HIS C   2      26.136   3.878  44.589  1.00 14.08 LIG 0.10  C 
BRANCH 37 38
ATOM     38  CG  HIS C   2      25.641   5.007  43.758  1.00 15.42 LIG 0.06  A 
ATOM     39  CD2 HIS C   2      24.669   5.911  44.002  1.00 15.59 LIG 0.14  A 
ATOM     40 NE2  HIS C   2      24.605   6.743  42.910  1.00 17.02 LIG-0.25  NA
ATOM     41  CE1 HIS C   2      25.511   6.364  42.029  1.00 16.99 LIG 0.23  A 
ATOM     42 ND1  HIS C   2      26.150   5.315  42.515  0.48 15.92 LIG-0.24  NA
ENDBRANCH 37 38
ENDBRANCH 1 37
TORSDOF 14
ENDMDL
MODEL 3
USER: ADFR SOLUTION from run 4
USER: SCORE 13.675632 LL:  -2.767 LR: -11.356 RR:   0.000 FEB:  -7.180
USER: RMSD 3.009544
USER: SEED 463245
USER: STATUS no improvement in best in 4 clusters for 5 generations
USER: GENES 16
USER: genes 0 Translation |==|  0.62300 0.54849 0.45175
USER: genes 1 Rotation |==|  0.41582 0.62613 0.61497 0.96237
USER: genes 2 Torsion [C]-CA--N-[C] |==|  0.78300
USER: genes 3 Torsion [N]-C--CA-[N] |==|  0.46630
USER: genes 4 Torsion [C]-CA--CB-[CG] |==|  0.44642
USER: genes 5 Torsion [CA]-CB--CG-[CD2] |==|  0.57200
USER: genes 6 Torsion [C]-CA--N-[C] |==|  0.68328
USER: genes 7 Torsion [N]-CA--C-[N] |==|  0.95324
USER: genes 8 Torsion [C]-N--CA-[CB] |==|  0.86030
USER: genes 9 Torsion [N]-CA--CB-[CG2] |==|  0.53687
USER: genes 10 Torsion [CA]-CB--OG1-[HG1] |==|  0.36084
USER: genes 11 Torsion [N]-CA--C-[N] |==|  0.37148
USER: genes 12 Torsion [C]-N--CA-[C] |==|  0.71114
USER: genes 13 Torsion [N]-CA--C-[N] |==|  0.98202
USER: genes 14 Torsion [N]-CA--CB-[CG] |==|  0.90079
USER: genes 15 Torsion [CA]-CB--CG-[ND1] |==|  0.92978
ROOT
ATOM      1  CA  HIS C   2      27.176   3.387  41.950  1.00 11.69 LIG 0.18  C 
ENDROOT
BRANCH 1 2
ATOM      2  N   HIS C   2      26.733   2.470  40.900  1.00 10.87 LIG-0.35  N 
ATOM      3 H    HIS C   2      26.256   2.831  40.282  1.00 10.87 LIG 0.16  HD
ATOM      4  C   PHE C   1      27.067   1.185  40.937  1.00 11.47 LIG 0.24  C 
ATOM      5 O    PHE C   1      27.863   0.717  41.770  1.00 12.97 LIG-0.27  OA
BRANCH 4 6
ATOM      6  CA  PHE C   1      26.444   0.304  39.851  1.00 11.05 LIG 0.18  C 
BRANCH 6 7
ATOM      7  CB  PHE C   1      24.940   0.144  40.096  1.00 10.09 LIG 0.07  C 
BRANCH 7 8
ATOM      8  CG  PHE C   1      24.180  -0.295  38.882  1.00  8.73 LIG-0.06  A 
ATOM      9  CD2 PHE C   1      22.845   0.007  38.740  1.00  8.91 LIG 0.01  A 
ATOM     10  CE2 PHE C   1      22.153  -0.413  37.623  1.00  8.44 LIG 0.00  A 
ATOM     11  CZ  PHE C   1      22.795  -1.152  36.648  1.00  8.32 LIG 0.00  A 
ATOM     12  CE1 PHE C   1      24.134  -1.449  36.779  1.00  8.07 LIG 0.00  A 
ATOM     13  CD1 PHE C   1      24.813  -1.034  37.898  1.00  8.33 LIG 0.01  A 
ENDBRANCH 7 8
ENDBRANCH 6 7
BRANCH 6 14
ATOM     14  N   PHE C   1      27.081  -0.993  39.806  1.00 11.54 LIG-0.35  N 
ATOM     15 H    PHE C   1      26.946  -1.461  40.514  1.00 11.54 LIG 0.16  HD
ATOM     16  C   ACE C   0      27.801  -1.432  38.786  1.00 13.21 LIG 0.21  C 
ATOM     17  CH3 ACE C   0      28.568  -2.713  38.945  1.00 13.47 LIG 0.12  C 
ATOM     18 O    ACE C   0      27.969  -0.653  37.848  1.00 14.75 LIG-0.27  OA
ENDBRANCH 6 14
ENDBRANCH 4 6
ENDBRANCH 1 2
BRANCH 1 19
ATOM     19  C   HIS C   2      26.297   3.179  43.153  1.00 11.19 LIG 0.24  C 
ATOM     20  N   THR C   3      25.156   2.535  42.945  1.00 11.67 LIG-0.34  N 
ATOM     21 H    THR C   3      24.877   2.273  42.174  1.00 11.67 LIG 0.16  HD
ATOM     22 O    HIS C   2      26.655   3.548  44.268  1.00 11.10 LIG-0.27  OA
BRANCH 20 23
ATOM     23  CA  THR C   3      24.277   2.224  44.052  1.00 11.71 LIG 0.20  C 
BRANCH 23 24
ATOM     24  CB  THR C   3      25.033   1.533  45.219  1.00 13.34 LIG 0.15  C 
ATOM     25  CG2 THR C   3      24.083   0.925  46.221  1.00 14.42 LIG 0.04  C 
BRANCH 24 26
ATOM     26 OG1  THR C   3      25.856   0.503  44.680  1.00 13.01 LIG-0.39  OA
ATOM     27 HG1  THR C   3      26.636   0.582  44.981  1.00 13.01 LIG 0.21  HD
ENDBRANCH 24 26
ENDBRANCH 23 24
BRANCH 23 28
ATOM     28  C   THR C   3      23.546   3.488  44.529  1.00 11.33 LIG 0.24  C 
ATOM     29  N   ALA C   4      22.236   3.377  44.738  1.00 10.31 LIG-0.35  N 
ATOM     30 H    ALA C   4      21.764   2.692  44.518  1.00 10.31 LIG 0.16  HD
ATOM     31 O    THR C   3      24.159   4.549  44.704  1.00 11.88 LIG-0.27  OA
BRANCH 29 32
ATOM     32  CA  ALA C   4      21.492   4.454  45.381  1.00 10.35 LIG 0.18  C 
ATOM     33  CB  ALA C   4      20.218   4.779  44.588  1.00 10.31 LIG 0.04  C 
BRANCH 32 34
ATOM     34  C   ALA C   4      21.163   4.103  46.854  1.00 10.99 LIG 0.28  C 
ATOM     35 O    ALA C   4      20.639   4.930  47.593  0.79 11.43 LIG-0.27  OA
ATOM     36  N   NH2 C   5      21.466   2.877  47.267  0.91 10.97 LIG-0.11  N 
ENDBRANCH 32 34
ENDBRANCH 29 32
ENDBRANCH 23 28
ENDBRANCH 20 23
ENDBRANCH 1 19
BRANCH 1 37
ATOM     37  CB  HIS C   2      27.026   4.844  41.537  1.00 14.08 LIG 0.10  C 
BRANCH 37 38
ATOM     38  CG  HIS C   2      27.297   5.096  40.097  1.00 15.42 LIG 0.06  A 
ATOM     39  CD2 HIS C   2      26.858   6.079  39.285  1.00 15.59 LIG 0.14  A 
ATOM     40 NE2  HIS C   2      27.402   5.854  38.043  1.00 17.02 LIG-0.25  NA
ATOM     41  CE1 HIS C   2      28.153   4.770  38.096  1.00 16.99 LIG 0.23  A 
ATOM     42 ND1  HIS C   2      28.105   4.290  39.325  0.48 15.92 LIG-0.24  NA
ENDBRANCH 37 38
ENDBRANCH 1 37
TORSDOF 14
ENDMDL
MODEL 4
USER: ADFR SOLUTION from run 169
USER: SCORE 12.177027 LL:  -3.054 LR: -10.998 RR:   0.000 FEB:  -6.821
USER: RMSD 2.535338
USER: SEED 168
USER: STATUS no improvement in best in 2 clusters for 5 generations
USER: GENES 16
USER: genes 0 Translation |==|  0.59981 0.52555 0.46597
USER: genes 1 Rotation |==|  0.48684 0.52304 0.61394 0.98612
USER: genes 2 Torsion [C]-CA--N-[C] |==|  0.67755
USER: genes 3 Torsion [N]-C--CA-[N] |==|  0.37067
USER: genes 4 Torsion [C]-CA--CB-[CG] |==|  0.31233
USER: genes 5 Torsion [CA]-CB--CG-[CD2] |==|  0.29752
USER: genes 6 Torsion [C]-CA--N-[C] |==|  0.74088
USER: genes 7 Torsion [N]-CA--C-[N] |==|  0.60810
USER: genes 8 Torsion [C]-N--CA-[CB] |==|  0.24430
USER: genes 9 Torsion [N]-CA--CB-[CG2] |==|  0.21571
USER: genes 10 Torsion [CA]-CB--OG1-[HG1] |==|  0.97979
USER: genes 11 Torsion [N]-CA--C-[N] |==|  0.41881
USER: genes 12 Torsion [C]-N--CA-[C] |==|  0.75182
USER: genes 13 Torsion [N]-CA--C-[N] |==|  0.01038
USER: genes 14 Torsion [N]-CA--CB-[CG] |==|  0.98888
USER: genes 15 Torsion [CA]-CB--CG-[ND1] |==|  0.83921
ROOT
ATOM      1  CA  HIS C   2      26.723   3.009  42.238  1.00 11.69 LIG 0.18  C 
ENDROOT
BRANCH 1 2
ATOM      2  N   HIS C   2      26.692   2.569  40.843  1.00 10.87 LIG-0.35  N 
ATOM      3 H    HIS C   2      26.034   2.875  40.382  1.00 10.87 LIG 0.16  HD
ATOM      4  C   PHE C   1      27.629   1.758  40.367  1.00 11.47 LIG 0.24  C 
ATOM      5 O    PHE C   1      28.639   1.435  41.018  1.00 12.97 LIG-0.27  OA
BRANCH 4 6
ATOM      6  CA  PHE C   1      27.421   1.272  38.930  1.00 11.05 LIG 0.18  C 
BRANCH 6 7
ATOM      7  CB  PHE C   1      26.940  -0.182  38.927  1.00 10.09 LIG 0.07  C 
BRANCH 7 8
ATOM      8  CG  PHE C   1      25.532  -0.345  38.442  1.00  8.73 LIG-0.06  A 
ATOM      9  CD2 PHE C   1      25.273  -0.888  37.205  1.00  8.91 LIG 0.01  A 
ATOM     10  CE2 PHE C   1      23.973  -1.023  36.763  1.00  8.44 LIG 0.00  A 
ATOM     11  CZ  PHE C   1      22.925  -0.599  37.557  1.00  8.32 LIG 0.00  A 
ATOM     12  CE1 PHE C   1      23.177  -0.063  38.801  1.00  8.07 LIG 0.00  A 
ATOM     13  CD1 PHE C   1      24.474   0.074  39.229  1.00  8.33 LIG 0.01  A 
ENDBRANCH 7 8
ENDBRANCH 6 7
BRANCH 6 14
ATOM     14  N   PHE C   1      28.638   1.394  38.159  1.00 11.54 LIG-0.35  N 
ATOM     15 H    PHE C   1      29.155   0.711  38.231  1.00 11.54 LIG 0.16  HD
ATOM     16  C   ACE C   0      28.943   2.444  37.413  1.00 13.21 LIG 0.21  C 
ATOM     17  CH3 ACE C   0      30.320   2.530  36.821  1.00 13.47 LIG 0.12  C 
ATOM     18 O    ACE C   0      28.151   3.385  37.429  1.00 14.75 LIG-0.27  OA
ENDBRANCH 6 14
ENDBRANCH 4 6
ENDBRANCH 1 2
BRANCH 1 19
ATOM     19  C   HIS C   2      25.501   2.467  42.927  1.00 11.19 LIG 0.24  C 
ATOM     20  N   THR C   3      24.912   3.273  43.800  1.00 11.67 LIG-0.34  N 
ATOM     21 H    THR C   3      25.204   4.051  44.020  1.00 11.67 LIG 0.16  HD
ATOM     22 O    HIS C   2      25.059   1.356  42.647  1.00 11.10 LIG-0.27  OA
BRANCH 20 23
ATOM     23  CA  THR C   3      23.688   2.868  44.460  1.00 11.71 LIG 0.20  C 
BRANCH 23 24
ATOM     24  CB  THR C   3      23.965   2.072  45.763  1.00 13.34 LIG 0.15  C 
ATOM     25  CG2 THR C   3      24.359   2.979  46.902  1.00 14.42 LIG 0.04  C 
BRANCH 24 26
ATOM     26 OG1  THR C   3      22.781   1.365  46.124  1.00 13.01 LIG-0.39  OA
ATOM     27 HG1  THR C   3      22.151   1.599  45.620  1.00 13.01 LIG 0.21  HD
ENDBRANCH 24 26
ENDBRANCH 23 24
BRANCH 23 28
ATOM     28  C   THR C   3      22.795   4.089  44.729  1.00 11.33 LIG 0.24  C 
ATOM     29  N   ALA C   4      21.481   3.873  44.753  1.00 10.31 LIG-0.35  N 
ATOM     30 H    ALA C   4      21.104   3.137  44.520  1.00 10.31 LIG 0.16  HD
ATOM     31 O    THR C   3      23.288   5.210  44.910  1.00 11.88 LIG-0.27  OA
BRANCH 29 32
ATOM     32  CA  ALA C   4      20.566   4.917  45.198  1.00 10.35 LIG 0.18  C 
ATOM     33  CB  ALA C   4      19.238   4.837  44.430  1.00 10.31 LIG 0.04  C 
BRANCH 32 34
ATOM     34  C   ALA C   4      20.333   4.842  46.729  1.00 10.99 LIG 0.28  C 
ATOM     35 O    ALA C   4      19.534   5.592  47.279  0.79 11.43 LIG-0.27  OA
ATOM     36  N   NH2 C   5      21.029   3.931  47.402  0.91 10.97 LIG-0.11  N 
ENDBRANCH 32 34
ENDBRANCH 29 32
ENDBRANCH 23 28
ENDBRANCH 20 23
ENDBRANCH 1 19
BRANCH 1 37
ATOM     37  CB  HIS C   2      26.668   4.524  42.362  1.00 14.08 LIG 0.10  C 
BRANCH 37 38
ATOM     38  CG  HIS C   2      26.689   5.238  41.058  1.00 15.42 LIG 0.06  A 
ATOM     39  CD2 HIS C   2      25.807   6.109  40.524  1.00 15.59 LIG 0.14  A 
ATOM     40 NE2  HIS C   2      26.295   6.479  39.294  1.00 17.02 LIG-0.25  NA
ATOM     41  CE1 HIS C   2      27.440   5.859  39.084  1.00 16.99 LIG 0.23  A 
ATOM     42 ND1  HIS C   2      27.702   5.100  40.133  0.48 15.92 LIG-0.24  NA
ENDBRANCH 37 38
ENDBRANCH 1 37
TORSDOF 14
ENDMDL
MODEL 5
USER: ADFR SOLUTION from run 1
USER: SCORE 12.892863 LL:  -2.903 LR: -10.918 RR:   0.000 FEB:  -6.742
USER: RMSD 2.334382
USER: SEED 932877
USER: STATUS 1 or 2 clusters left
USER: GENES 16
USER: genes 0 Translation |==|  0.52818 0.50202 0.56855
USER: genes 1 Rotation |==|  0.51448 0.50601 0.49905 0.99975
USER: genes 2 Torsion [C]-CA--N-[C] |==|  0.66477
USER: genes 3 Torsion [N]-C--CA-[N] |==|  0.35048
USER: genes 4 Torsion [C]-CA--CB-[CG] |==|  0.48585
USER: genes 5 Torsion [CA]-CB--CG-[CD2] |==|  0.72575
USER: genes 6 Torsion [C]-CA--N-[C] |==|  0.77248
USER: genes 7 Torsion [N]-CA--C-[N] |==|  0.43177
USER: genes 8 Torsion [C]-N--CA-[CB] |==|  0.51667
USER: genes 9 Torsion [N]-CA--CB-[CG2] |==|  0.40003
USER: genes 10 Torsion [CA]-CB--OG1-[HG1] |==|  0.72214
USER: genes 11 Torsion [N]-CA--C-[N] |==|  0.42225
USER: genes 12 Torsion [C]-N--CA-[C] |==|  0.18494
USER: genes 13 Torsion [N]-CA--C-[N] |==|  0.12650
USER: genes 14 Torsion [N]-CA--CB-[CG] |==|  0.48541
USER: genes 15 Torsion [CA]-CB--CG-[ND1] |==|  0.67442
ROOT
ATOM      1  CA  HIS C   2      25.327   2.620  44.315  1.00 11.69 LIG 0.18  C 
ENDROOT
BRANCH 1 2
ATOM      2  N   HIS C   2      25.211   2.367  42.879  1.00 10.87 LIG-0.35  N 
ATOM      3 H    HIS C   2      24.744   2.944  42.446  1.00 10.87 LIG 0.16  HD
ATOM      4  C   PHE C   1      25.799   1.312  42.328  1.00 11.47 LIG 0.24  C 
ATOM      5 O    PHE C   1      26.574   0.565  42.953  1.00 12.97 LIG-0.27  OA
BRANCH 4 6
ATOM      6  CA  PHE C   1      25.505   1.086  40.843  1.00 11.05 LIG 0.18  C 
BRANCH 6 7
ATOM      7  CB  PHE C   1      24.658  -0.177  40.656  1.00 10.09 LIG 0.07  C 
BRANCH 7 8
ATOM      8  CG  PHE C   1      24.225  -0.402  39.239  1.00  8.73 LIG-0.06  A 
ATOM      9  CD2 PHE C   1      22.966  -0.036  38.822  1.00  8.91 LIG 0.01  A 
ATOM     10  CE2 PHE C   1      22.574  -0.258  37.519  1.00  8.44 LIG 0.00  A 
ATOM     11  CZ  PHE C   1      23.441  -0.863  36.629  1.00  8.32 LIG 0.00  A 
ATOM     12  CE1 PHE C   1      24.706  -1.223  37.038  1.00  8.07 LIG 0.00  A 
ATOM     13  CD1 PHE C   1      25.085  -1.005  38.339  1.00  8.33 LIG 0.01  A 
ENDBRANCH 7 8
ENDBRANCH 6 7
BRANCH 6 14
ATOM     14  N   PHE C   1      26.730   0.980  40.081  1.00 11.54 LIG-0.35  N 
ATOM     15 H    PHE C   1      26.963   0.167  39.926  1.00 11.54 LIG 0.16  HD
ATOM     16  C   ACE C   0      27.434   2.017  39.657  1.00 13.21 LIG 0.21  C 
ATOM     17  CH3 ACE C   0      28.784   1.771  39.049  1.00 13.47 LIG 0.12  C 
ATOM     18 O    ACE C   0      27.030   3.133  39.985  1.00 14.75 LIG-0.27  OA
ENDBRANCH 6 14
ENDBRANCH 4 6
ENDBRANCH 1 2
BRANCH 1 19
ATOM     19  C   HIS C   2      23.941   2.632  44.901  1.00 11.19 LIG 0.24  C 
ATOM     20  N   THR C   3      23.846   2.345  46.192  1.00 11.67 LIG-0.34  N 
ATOM     21 H    THR C   3      24.509   2.118  46.692  1.00 11.67 LIG 0.16  HD
ATOM     22 O    HIS C   2      22.969   2.940  44.217  1.00 11.10 LIG-0.27  OA
BRANCH 20 23
ATOM     23  CA  THR C   3      22.564   2.401  46.863  1.00 11.71 LIG 0.20  C 
BRANCH 23 24
ATOM     24  CB  THR C   3      22.696   2.177  48.393  1.00 13.34 LIG 0.15  C 
ATOM     25  CG2 THR C   3      21.715   3.019  49.170  1.00 14.42 LIG 0.04  C 
BRANCH 24 26
ATOM     26 OG1  THR C   3      22.449   0.802  48.674  1.00 13.01 LIG-0.39  OA
ATOM     27 HG1  THR C   3      21.661   0.711  48.952  1.00 13.01 LIG 0.21  HD
ENDBRANCH 24 26
ENDBRANCH 23 24
BRANCH 23 28
ATOM     28  C   THR C   3      21.852   3.726  46.549  1.00 11.33 LIG 0.24  C 
ATOM     29  N   ALA C   4      20.521   3.710  46.583  1.00 10.31 LIG-0.35  N 
ATOM     30 H    ALA C   4      20.044   2.998  46.651  1.00 10.31 LIG 0.16  HD
ATOM     31 O    THR C   3      22.498   4.747  46.282  1.00 11.88 LIG-0.27  OA
BRANCH 29 32
ATOM     32  CA  ALA C   4      19.762   4.952  46.501  1.00 10.35 LIG 0.18  C 
ATOM     33  CB  ALA C   4      20.168   5.909  47.631  1.00 10.31 LIG 0.04  C 
BRANCH 32 34
ATOM     34  C   ALA C   4      19.930   5.620  45.112  1.00 10.99 LIG 0.28  C 
ATOM     35 O    ALA C   4      20.157   6.821  45.018  0.79 11.43 LIG-0.27  OA
ATOM     36  N   NH2 C   5      19.823   4.833  44.047  0.91 10.97 LIG-0.11  N 
ENDBRANCH 32 34
ENDBRANCH 29 32
ENDBRANCH 23 28
ENDBRANCH 20 23
ENDBRANCH 1 19
BRANCH 1 37
ATOM     37  CB  HIS C   2      25.944   3.980  44.608  1.00 14.08 LIG 0.10  C 
BRANCH 37 38
ATOM     38  CG  HIS C   2      25.969   4.335  46.051  1.00 15.42 LIG 0.06  A 
ATOM     39  CD2 HIS C   2      26.602   3.743  47.085  1.00 15.59 LIG 0.14  A 
ATOM     40 NE2  HIS C   2      26.298   4.465  48.215  1.00 17.02 LIG-0.25  NA
ATOM     41  CE1 HIS C   2      25.509   5.469  47.881  1.00 16.99 LIG 0.23  A 
ATOM     42 ND1  HIS C   2      25.291   5.412  46.579  0.48 15.92 LIG-0.24  NA
ENDBRANCH 37 38
ENDBRANCH 1 37
TORSDOF 14
ENDMDL
MODEL 6
USER: ADFR SOLUTION from run 74
USER: SCORE 12.722032 LL:  -3.004 LR: -10.722 RR:   0.000 FEB:  -6.545
USER: RMSD 2.231905
USER: SEED 73
USER: STATUS no improvement in best in 2 clusters for 5 generations
USER: GENES 16
USER: genes 0 Translation |==|  0.55860 0.47953 0.54139
USER: genes 1 Rotation |==|  0.46328 0.50029 0.49657 0.99864
USER: genes 2 Torsion [C]-CA--N-[C] |==|  0.73854
USER: genes 3 Torsion [N]-C--CA-[N] |==|  0.48815
USER: genes 4 Torsion [C]-CA--CB-[CG] |==|  0.51234
USER: genes 5 Torsion [CA]-CB--CG-[CD2] |==|  0.93140
USER: genes 6 Torsion [C]-CA--N-[C] |==|  0.67930
USER: genes 7 Torsion [N]-CA--C-[N] |==|  0.35814
USER: genes 8 Torsion [C]-N--CA-[CB] |==|  0.51141
USER: genes 9 Torsion [N]-CA--CB-[CG2] |==|  0.16118
USER: genes 10 Torsion [CA]-CB--OG1-[HG1] |==|  0.37509
USER: genes 11 Torsion [N]-CA--C-[N] |==|  0.41667
USER: genes 12 Torsion [C]-N--CA-[C] |==|  0.74246
USER: genes 13 Torsion [N]-CA--C-[N] |==|  0.01044
USER: genes 14 Torsion [N]-CA--CB-[CG] |==|  0.47507
USER: genes 15 Torsion [CA]-CB--CG-[ND1] |==|  0.64857
ROOT
ATOM      1  CA  HIS C   2      25.920   2.249  43.765  1.00 11.69 LIG 0.18  C 
ENDROOT
BRANCH 1 2
ATOM      2  N   HIS C   2      25.832   1.709  42.409  1.00 10.87 LIG-0.35  N 
ATOM      3 H    HIS C   2      25.716   2.296  41.792  1.00 10.87 LIG 0.16  HD
ATOM      4  C   PHE C   1      25.930   0.403  42.192  1.00 11.47 LIG 0.24  C 
ATOM      5 O    PHE C   1      26.226  -0.411  43.085  1.00 12.97 LIG-0.27  OA
BRANCH 4 6
ATOM      6  CA  PHE C   1      25.701  -0.052  40.748  1.00 11.05 LIG 0.18  C 
BRANCH 6 7
ATOM      7  CB  PHE C   1      24.278   0.300  40.301  1.00 10.09 LIG 0.07  C 
BRANCH 7 8
ATOM      8  CG  PHE C   1      23.939  -0.206  38.932  1.00  8.73 LIG-0.06  A 
ATOM      9  CD2 PHE C   1      24.928  -0.449  38.007  1.00  8.91 LIG 0.01  A 
ATOM     10  CE2 PHE C   1      24.604  -0.905  36.747  1.00  8.44 LIG 0.00  A 
ATOM     11  CZ  PHE C   1      23.281  -1.105  36.403  1.00  8.32 LIG 0.00  A 
ATOM     12  CE1 PHE C   1      22.286  -0.873  37.327  1.00  8.07 LIG 0.00  A 
ATOM     13  CD1 PHE C   1      22.618  -0.413  38.577  1.00  8.33 LIG 0.01  A 
ENDBRANCH 7 8
ENDBRANCH 6 7
BRANCH 6 14
ATOM     14  N   PHE C   1      25.928  -1.473  40.608  1.00 11.54 LIG-0.35  N 
ATOM     15 H    PHE C   1      25.370  -1.951  41.054  1.00 11.54 LIG 0.16  HD
ATOM     16  C   ACE C   0      26.893  -2.002  39.873  1.00 13.21 LIG 0.21  C 
ATOM     17  CH3 ACE C   0      27.142  -3.479  39.968  1.00 13.47 LIG 0.12  C 
ATOM     18 O    ACE C   0      27.664  -1.218  39.321  1.00 14.75 LIG-0.27  OA
ENDBRANCH 6 14
ENDBRANCH 4 6
ENDBRANCH 1 2
BRANCH 1 19
ATOM     19  C   HIS C   2      24.523   2.388  44.305  1.00 11.19 LIG 0.24  C 
ATOM     20  N   THR C   3      24.296   1.851  45.496  1.00 11.67 LIG-0.34  N 
ATOM     21 H    THR C   3      24.875   1.403  45.948  1.00 11.67 LIG 0.16  HD
ATOM     22 O    HIS C   2      23.665   3.010  43.684  1.00 11.10 LIG-0.27  OA
BRANCH 20 23
ATOM     23  CA  THR C   3      23.002   1.995  46.130  1.00 11.71 LIG 0.20  C 
BRANCH 23 24
ATOM     24  CB  THR C   3      22.981   1.382  47.556  1.00 13.34 LIG 0.15  C 
ATOM     25  CG2 THR C   3      24.023   2.008  48.451  1.00 14.42 LIG 0.04  C 
BRANCH 24 26
ATOM     26 OG1  THR C   3      21.694   1.600  48.125  1.00 13.01 LIG-0.39  OA
ATOM     27 HG1  THR C   3      21.427   0.894  48.493  1.00 13.01 LIG 0.21  HD
ENDBRANCH 24 26
ENDBRANCH 23 24
BRANCH 23 28
ATOM     28  C   THR C   3      22.574   3.470  46.147  1.00 11.33 LIG 0.24  C 
ATOM     29  N   ALA C   4      21.265   3.712  46.104  1.00 10.31 LIG-0.35  N 
ATOM     30 H    ALA C   4      20.665   3.115  45.954  1.00 10.31 LIG 0.16  HD
ATOM     31 O    THR C   3      23.416   4.376  46.198  1.00 11.88 LIG-0.27  OA
BRANCH 29 32
ATOM     32  CA  ALA C   4      20.752   5.060  46.319  1.00 10.35 LIG 0.18  C 
ATOM     33  CB  ALA C   4      19.544   5.330  45.411  1.00 10.31 LIG 0.04  C 
BRANCH 32 34
ATOM     34  C   ALA C   4      20.397   5.291  47.810  1.00 10.99 LIG 0.28  C 
ATOM     35 O    ALA C   4      19.879   6.341  48.176  0.79 11.43 LIG-0.27  OA
ATOM     36  N   NH2 C   5      20.671   4.304  48.657  0.91 10.97 LIG-0.11  N 
ENDBRANCH 32 34
ENDBRANCH 29 32
ENDBRANCH 23 28
ENDBRANCH 20 23
ENDBRANCH 1 19
BRANCH 1 37
ATOM     37  CB  HIS C   2      26.545   3.636  43.789  1.00 14.08 LIG 0.10  C 
BRANCH 37 38
ATOM     38  CG  HIS C   2      26.465   4.313  45.110  1.00 15.42 LIG 0.06  A 
ATOM     39  CD2 HIS C   2      26.855   3.894  46.332  1.00 15.59 LIG 0.14  A 
ATOM     40 NE2  HIS C   2      26.556   4.898  47.221  1.00 17.02 LIG-0.25  NA
ATOM     41  CE1 HIS C   2      26.006   5.901  46.563  1.00 16.99 LIG 0.23  A 
ATOM     42 ND1  HIS C   2      25.935   5.574  45.286  0.48 15.92 LIG-0.24  NA
ENDBRANCH 37 38
ENDBRANCH 1 37
TORSDOF 14
ENDMDL
MODEL 7
USER: ADFR SOLUTION from run 151
USER: SCORE 11.706058 LL:  -3.072 LR: -10.442 RR:   0.000 FEB:  -6.266
USER: RMSD 2.537370
USER: SEED 150
USER: STATUS no improvement in best in 2 clusters for 5 generations
USER: GENES 16
USER: genes 0 Translation |==|  0.52640 0.49394 0.56768
USER: genes 1 Rotation |==|  0.51477 0.49447 0.57994 0.99332
USER: genes 2 Torsion [C]-CA--N-[C] |==|  0.77222
USER: genes 3 Torsion [N]-C--CA-[N] |==|  0.29666
USER: genes 4 Torsion [C]-CA--CB-[CG] |==|  0.46997
USER: genes 5 Torsion [CA]-CB--CG-[CD2] |==|  0.73081
USER: genes 6 Torsion [C]-CA--N-[C] |==|  0.74849
USER: genes 7 Torsion [N]-CA--C-[N] |==|  0.32652
USER: genes 8 Torsion [C]-N--CA-[CB] |==|  0.45082
USER: genes 9 Torsion [N]-CA--CB-[CG2] |==|  0.28170
USER: genes 10 Torsion [CA]-CB--OG1-[HG1] |==|  0.79677
USER: genes 11 Torsion [N]-CA--C-[N] |==|  0.91049
USER: genes 12 Torsion [C]-N--CA-[C] |==|  0.18158
USER: genes 13 Torsion [N]-CA--C-[N] |==|  0.09361
USER: genes 14 Torsion [N]-CA--CB-[CG] |==|  0.00973
USER: genes 15 Torsion [CA]-CB--CG-[ND1] |==|  0.80421
ROOT
ATOM      1  CA  HIS C   2      25.292   2.487  44.298  1.00 11.69 LIG 0.18  C 
ENDROOT
BRANCH 1 2
ATOM      2  N   HIS C   2      25.340   2.230  42.858  1.00 10.87 LIG-0.35  N 
ATOM      3 H    HIS C   2      25.172   2.913  42.363  1.00 10.87 LIG 0.16  HD
ATOM      4  C   PHE C   1      25.625   1.019  42.395  1.00 11.47 LIG 0.24  C 
ATOM      5 O    PHE C   1      25.990   0.083  43.129  1.00 12.97 LIG-0.27  OA
BRANCH 4 6
ATOM      6  CA  PHE C   1      25.526   0.847  40.877  1.00 11.05 LIG 0.18  C 
BRANCH 6 7
ATOM      7  CB  PHE C   1      24.702  -0.400  40.538  1.00 10.09 LIG 0.07  C 
BRANCH 7 8
ATOM      8  CG  PHE C   1      24.340  -0.501  39.088  1.00  8.73 LIG-0.06  A 
ATOM      9  CD2 PHE C   1      23.112  -0.073  38.638  1.00  8.91 LIG 0.01  A 
ATOM     10  CE2 PHE C   1      22.786  -0.181  37.302  1.00  8.44 LIG 0.00  A 
ATOM     11  CZ  PHE C   1      23.686  -0.734  36.413  1.00  8.32 LIG 0.00  A 
ATOM     12  CE1 PHE C   1      24.921  -1.155  36.855  1.00  8.07 LIG 0.00  A 
ATOM     13  CD1 PHE C   1      25.234  -1.051  38.187  1.00  8.33 LIG 0.01  A 
ENDBRANCH 7 8
ENDBRANCH 6 7
BRANCH 6 14
ATOM     14  N   PHE C   1      26.838   0.753  40.278  1.00 11.54 LIG-0.35  N 
ATOM     15 H    PHE C   1      27.134  -0.053  40.234  1.00 11.54 LIG 0.16  HD
ATOM     16  C   ACE C   0      27.529   1.792  39.835  1.00 13.21 LIG 0.21  C 
ATOM     17  CH3 ACE C   0      28.955   1.581  39.416  1.00 13.47 LIG 0.12  C 
ATOM     18 O    ACE C   0      27.027   2.903  39.999  1.00 14.75 LIG-0.27  OA
ENDBRANCH 6 14
ENDBRANCH 4 6
ENDBRANCH 1 2
BRANCH 1 19
ATOM     19  C   HIS C   2      23.945   2.049  44.806  1.00 11.19 LIG 0.24  C 
ATOM     20  N   THR C   3      23.944   1.068  45.698  1.00 11.67 LIG-0.34  N 
ATOM     21 H    THR C   3      24.646   0.649  45.965  1.00 11.67 LIG 0.16  HD
ATOM     22 O    HIS C   2      22.918   2.615  44.441  1.00 11.10 LIG-0.27  OA
BRANCH 20 23
ATOM     23  CA  THR C   3      22.703   0.626  46.299  1.00 11.71 LIG 0.20  C 
BRANCH 23 24
ATOM     24  CB  THR C   3      22.839  -0.774  46.954  1.00 13.34 LIG 0.15  C 
ATOM     25  CG2 THR C   3      22.986  -0.681  48.453  1.00 14.42 LIG 0.04  C 
BRANCH 24 26
ATOM     26 OG1  THR C   3      21.671  -1.532  46.651  1.00 13.01 LIG-0.39  OA
ATOM     27 HG1  THR C   3      21.024  -1.242  47.102  1.00 13.01 LIG 0.21  HD
ENDBRANCH 24 26
ENDBRANCH 23 24
BRANCH 23 28
ATOM     28  C   THR C   3      22.193   1.669  47.306  1.00 11.33 LIG 0.24  C 
ATOM     29  N   ALA C   4      23.118   2.370  47.959  1.00 10.31 LIG-0.35  N 
ATOM     30 H    ALA C   4      23.961   2.200  47.940  1.00 10.31 LIG 0.16  HD
ATOM     31 O    THR C   3      20.980   1.837  47.488  1.00 11.88 LIG-0.27  OA
BRANCH 29 32
ATOM     32  CA  ALA C   4      22.741   3.515  48.778  1.00 10.35 LIG 0.18  C 
ATOM     33  CB  ALA C   4      22.011   4.569  47.932  1.00 10.31 LIG 0.04  C 
BRANCH 32 34
ATOM     34  C   ALA C   4      21.880   3.076  49.990  1.00 10.99 LIG 0.28  C 
ATOM     35 O    ALA C   4      20.988   3.798  50.420  0.79 11.43 LIG-0.27  OA
ATOM     36  N   NH2 C   5      22.152   1.890  50.526  0.91 10.97 LIG-0.11  N 
ENDBRANCH 32 34
ENDBRANCH 29 32
ENDBRANCH 23 28
ENDBRANCH 20 23
ENDBRANCH 1 19
BRANCH 1 37
ATOM     37  CB  HIS C   2      25.428   3.968  44.619  1.00 14.08 LIG 0.10  C 
BRANCH 37 38
ATOM     38  CG  HIS C   2      25.498   4.844  43.420  1.00 15.42 LIG 0.06  A 
ATOM     39  CD2 HIS C   2      24.601   5.722  42.927  1.00 15.59 LIG 0.14  A 
ATOM     40 NE2  HIS C   2      25.152   6.275  41.796  1.00 17.02 LIG-0.25  NA
ATOM     41  CE1 HIS C   2      26.350   5.755  41.607  1.00 16.99 LIG 0.23  A 
ATOM     42 ND1  HIS C   2      26.584   4.884  42.572  0.48 15.92 LIG-0.24  NA
ENDBRANCH 37 38
ENDBRANCH 1 37
TORSDOF 14
ENDMDL
MODEL 8
USER: ADFR SOLUTION from run 191
USER: SCORE 12.447417 LL:  -3.109 LR: -10.423 RR:   0.000 FEB:  -6.247
USER: RMSD 3.230715
USER: SEED 190
USER: STATUS no improvement in best in 6 clusters for 5 generations
USER: GENES 16
USER: genes 0 Translation |==|  0.46906 0.49653 0.57028
USER: genes 1 Rotation |==|  0.54629 0.34169 0.28279 0.91906
USER: genes 2 Torsion [C]-CA--N-[C] |==|  0.58903
USER: genes 3 Torsion [N]-C--CA-[N] |==|  0.25167
USER: genes 4 Torsion [C]-CA--CB-[CG] |==|  0.37058
USER: genes 5 Torsion [CA]-CB--CG-[CD2] |==|  0.28962
USER: genes 6 Torsion [C]-CA--N-[C] |==|  0.75688
USER: genes 7 Torsion [N]-CA--C-[N] |==|  0.39575
USER: genes 8 Torsion [C]-N--CA-[CB] |==|  0.53009
USER: genes 9 Torsion [N]-CA--CB-[CG2] |==|  0.69655
USER: genes 10 Torsion [CA]-CB--OG1-[HG1] |==|  0.75222
USER: genes 11 Torsion [N]-CA--C-[N] |==|  0.36727
USER: genes 12 Torsion [C]-N--CA-[C] |==|  0.56466
USER: genes 13 Torsion [N]-CA--C-[N] |==|  0.44030
USER: genes 14 Torsion [N]-CA--CB-[CG] |==|  0.12317
USER: genes 15 Torsion [CA]-CB--CG-[ND1] |==|  0.76348
ROOT
ATOM      1  CA  HIS C   2      24.174   2.530  44.350  1.00 11.69 LIG 0.18  C 
ENDROOT
BRANCH 1 2
ATOM      2  N   HIS C   2      24.783   2.218  43.057  1.00 10.87 LIG-0.35  N 
ATOM      3 H    HIS C   2      24.922   2.898  42.550  1.00 10.87 LIG 0.16  HD
ATOM      4  C   PHE C   1      25.081   0.966  42.733  1.00 11.47 LIG 0.24  C 
ATOM      5 O    PHE C   1      24.987   0.019  43.534  1.00 12.97 LIG-0.27  OA
BRANCH 4 6
ATOM      6  CA  PHE C   1      25.600   0.753  41.308  1.00 11.05 LIG 0.18  C 
BRANCH 6 7
ATOM      7  CB  PHE C   1      25.151  -0.613  40.780  1.00 10.09 LIG 0.07  C 
BRANCH 7 8
ATOM      8  CG  PHE C   1      24.588  -0.562  39.392  1.00  8.73 LIG-0.06  A 
ATOM      9  CD2 PHE C   1      25.324  -1.002  38.317  1.00  8.91 LIG 0.01  A 
ATOM     10  CE2 PHE C   1      24.800  -0.939  37.043  1.00  8.44 LIG 0.00  A 
ATOM     11  CZ  PHE C   1      23.536  -0.420  36.840  1.00  8.32 LIG 0.00  A 
ATOM     12  CE1 PHE C   1      22.789   0.013  37.913  1.00  8.07 LIG 0.00  A 
ATOM     13  CD1 PHE C   1      23.322  -0.046  39.177  1.00  8.33 LIG 0.01  A 
ENDBRANCH 7 8
ENDBRANCH 6 7
BRANCH 6 14
ATOM     14  N   PHE C   1      27.041   0.855  41.260  1.00 11.54 LIG-0.35  N 
ATOM     15 H    PHE C   1      27.438   0.098  41.353  1.00 11.54 LIG 0.16  HD
ATOM     16  C   ACE C   0      27.700   1.990  41.091  1.00 13.21 LIG 0.21  C 
ATOM     17  CH3 ACE C   0      29.192   1.987  41.255  1.00 13.47 LIG 0.12  C 
ATOM     18 O    ACE C   0      27.027   3.018  41.022  1.00 14.75 LIG-0.27  OA
ENDBRANCH 6 14
ENDBRANCH 4 6
ENDBRANCH 1 2
BRANCH 1 19
ATOM     19  C   HIS C   2      23.273   3.720  44.168  1.00 11.19 LIG 0.24  C 
ATOM     20  N   THR C   3      22.139   3.711  44.857  1.00 11.67 LIG-0.34  N 
ATOM     21 H    THR C   3      21.877   3.062  45.357  1.00 11.67 LIG 0.16  HD
ATOM     22 O    HIS C   2      23.607   4.662  43.455  1.00 11.10 LIG-0.27  OA
BRANCH 20 23
ATOM     23  CA  THR C   3      21.240   4.845  44.803  1.00 11.71 LIG 0.20  C 
BRANCH 23 24
ATOM     24  CB  THR C   3      20.121   4.752  45.874  1.00 13.34 LIG 0.15  C 
ATOM     25  CG2 THR C   3      18.774   4.470  45.255  1.00 14.42 LIG 0.04  C 
BRANCH 24 26
ATOM     26 OG1  THR C   3      20.443   3.699  46.778  1.00 13.01 LIG-0.39  OA
ATOM     27 HG1  THR C   3      20.121   2.977  46.493  1.00 13.01 LIG 0.21  HD
ENDBRANCH 24 26
ENDBRANCH 23 24
BRANCH 23 28
ATOM     28  C   THR C   3      22.026   6.160  44.926  1.00 11.33 LIG 0.24  C 
ATOM     29  N   ALA C   4      21.738   7.112  44.042  1.00 10.31 LIG-0.35  N 
ATOM     30 H    ALA C   4      21.237   7.001  43.352  1.00 10.31 LIG 0.16  HD
ATOM     31 O    THR C   3      22.882   6.308  45.809  1.00 11.88 LIG-0.27  OA
BRANCH 29 32
ATOM     32  CA  ALA C   4      22.278   8.458  44.198  1.00 10.35 LIG 0.18  C 
ATOM     33  CB  ALA C   4      23.735   8.515  43.719  1.00 10.31 LIG 0.04  C 
BRANCH 32 34
ATOM     34  C   ALA C   4      21.402   9.501  43.458  1.00 10.99 LIG 0.28  C 
ATOM     35 O    ALA C   4      20.652   9.158  42.551  0.79 11.43 LIG-0.27  OA
ATOM     36  N   NH2 C   5      21.499  10.764  43.857  0.91 10.97 LIG-0.11  N 
ENDBRANCH 32 34
ENDBRANCH 29 32
ENDBRANCH 23 28
ENDBRANCH 20 23
ENDBRANCH 1 19
BRANCH 1 37
ATOM     37  CB  HIS C   2      25.212   2.914  45.394  1.00 14.08 LIG 0.10  C 
BRANCH 37 38
ATOM     38  CG  HIS C   2      26.251   3.853  44.896  1.00 15.42 LIG 0.06  A 
ATOM     39  CD2 HIS C   2      26.319   5.199  44.969  1.00 15.59 LIG 0.14  A 
ATOM     40 NE2  HIS C   2      27.487   5.581  44.353  1.00 17.02 LIG-0.25  NA
ATOM     41  CE1 HIS C   2      28.115   4.503  43.923  1.00 16.99 LIG 0.23  A 
ATOM     42 ND1  HIS C   2      27.389   3.445  44.235  0.48 15.92 LIG-0.24  NA
ENDBRANCH 37 38
ENDBRANCH 1 37
TORSDOF 14
ENDMDL
MODEL 9
USER: ADFR SOLUTION from run 191
USER: SCORE 12.138891 LL:  -2.886 LR: -10.102 RR:   0.000 FEB:  -5.926
USER: RMSD 3.869357
USER: SEED 190
USER: STATUS no improvement in best in 6 clusters for 5 generations
USER: GENES 16
USER: genes 0 Translation |==|  0.46399 0.48934 0.56264
USER: genes 1 Rotation |==|  0.59549 0.32385 0.26871 0.89542
USER: genes 2 Torsion [C]-CA--N-[C] |==|  0.58717
USER: genes 3 Torsion [N]-C--CA-[N] |==|  0.21815
USER: genes 4 Torsion [C]-CA--CB-[CG] |==|  0.29789
USER: genes 5 Torsion [CA]-CB--CG-[CD2] |==|  0.35376
USER: genes 6 Torsion [C]-CA--N-[C] |==|  0.76625
USER: genes 7 Torsion [N]-CA--C-[N] |==|  0.42362
USER: genes 8 Torsion [C]-N--CA-[CB] |==|  0.53889
USER: genes 9 Torsion [N]-CA--CB-[CG2] |==|  0.70096
USER: genes 10 Torsion [CA]-CB--OG1-[HG1] |==|  0.78005
USER: genes 11 Torsion [N]-CA--C-[N] |==|  0.38347
USER: genes 12 Torsion [C]-N--CA-[C] |==|  0.78869
USER: genes 13 Torsion [N]-CA--C-[N] |==|  0.98461
USER: genes 14 Torsion [N]-CA--CB-[CG] |==|  0.49341
USER: genes 15 Torsion [CA]-CB--CG-[ND1] |==|  0.70009
ROOT
ATOM      1  CA  HIS C   2      24.075   2.411  44.196  1.00 11.69 LIG 0.18  C 
ENDROOT
BRANCH 1 2
ATOM      2  N   HIS C   2      24.891   2.278  42.989  1.00 10.87 LIG-0.35  N 
ATOM      3 H    HIS C   2      25.120   3.022  42.624  1.00 10.87 LIG 0.16  HD
ATOM      4  C   PHE C   1      25.227   1.080  42.527  1.00 11.47 LIG 0.24  C 
ATOM      5 O    PHE C   1      24.991   0.026  43.144  1.00 12.97 LIG-0.27  OA
BRANCH 4 6
ATOM      6  CA  PHE C   1      25.978   1.067  41.192  1.00 11.05 LIG 0.18  C 
BRANCH 6 7
ATOM      7  CB  PHE C   1      25.853  -0.307  40.527  1.00 10.09 LIG 0.07  C 
BRANCH 7 8
ATOM      8  CG  PHE C   1      24.940  -0.315  39.339  1.00  8.73 LIG-0.06  A 
ATOM      9  CD2 PHE C   1      25.365  -0.814  38.129  1.00  8.91 LIG 0.01  A 
ATOM     10  CE2 PHE C   1      24.520  -0.806  37.039  1.00  8.44 LIG 0.00  A 
ATOM     11  CZ  PHE C   1      23.247  -0.283  37.154  1.00  8.32 LIG 0.00  A 
ATOM     12  CE1 PHE C   1      22.811   0.209  38.365  1.00  8.07 LIG 0.00  A 
ATOM     13  CD1 PHE C   1      23.662   0.204  39.443  1.00  8.33 LIG 0.01  A 
ENDBRANCH 7 8
ENDBRANCH 6 7
BRANCH 6 14
ATOM     14  N   PHE C   1      27.371   1.405  41.377  1.00 11.54 LIG-0.35  N 
ATOM     15 H    PHE C   1      27.881   0.716  41.444  1.00 11.54 LIG 0.16  HD
ATOM     16  C   ACE C   0      27.833   2.644  41.439  1.00 13.21 LIG 0.21  C 
ATOM     17  CH3 ACE C   0      29.268   2.858  41.828  1.00 13.47 LIG 0.12  C 
ATOM     18 O    ACE C   0      27.003   3.550  41.383  1.00 14.75 LIG-0.27  OA
ENDBRANCH 6 14
ENDBRANCH 4 6
ENDBRANCH 1 2
BRANCH 1 19
ATOM     19  C   HIS C   2      23.241   3.656  44.062  1.00 11.19 LIG 0.24  C 
ATOM     20  N   THR C   3      22.088   3.665  44.718  1.00 11.67 LIG-0.34  N 
ATOM     21 H    THR C   3      21.778   3.002  45.170  1.00 11.67 LIG 0.16  HD
ATOM     22 O    HIS C   2      23.643   4.619  43.416  1.00 11.10 LIG-0.27  OA
BRANCH 20 23
ATOM     23  CA  THR C   3      21.249   4.845  44.709  1.00 11.71 LIG 0.20  C 
BRANCH 23 24
ATOM     24  CB  THR C   3      20.143   4.782  45.795  1.00 13.34 LIG 0.15  C 
ATOM     25  CG2 THR C   3      18.779   4.549  45.194  1.00 14.42 LIG 0.04  C 
BRANCH 24 26
ATOM     26 OG1  THR C   3      20.442   3.712  46.687  1.00 13.01 LIG-0.39  OA
ATOM     27 HG1  THR C   3      20.213   2.984  46.337  1.00 13.01 LIG 0.21  HD
ENDBRANCH 24 26
ENDBRANCH 23 24
BRANCH 23 28
ATOM     28  C   THR C   3      22.105   6.113  44.854  1.00 11.33 LIG 0.24  C 
ATOM     29  N   ALA C   4      21.776   7.146  44.081  1.00 10.31 LIG-0.35  N 
ATOM     30 H    ALA C   4      21.205   7.112  43.440  1.00 10.31 LIG 0.16  HD
ATOM     31 O    THR C   3      23.050   6.154  45.653  1.00 11.88 LIG-0.27  OA
BRANCH 29 32
ATOM     32  CA  ALA C   4      22.392   8.452  44.287  1.00 10.35 LIG 0.18  C 
ATOM     33  CB  ALA C   4      22.258   9.318  43.026  1.00 10.31 LIG 0.04  C 
BRANCH 32 34
ATOM     34  C   ALA C   4      21.790   9.165  45.524  1.00 10.99 LIG 0.28  C 
ATOM     35 O    ALA C   4      22.246  10.235  45.915  0.79 11.43 LIG-0.27  OA
ATOM     36  N   NH2 C   5      20.765   8.570  46.126  0.91 10.97 LIG-0.11  N 
ENDBRANCH 32 34
ENDBRANCH 29 32
ENDBRANCH 23 28
ENDBRANCH 20 23
ENDBRANCH 1 19
BRANCH 1 37
ATOM     37  CB  HIS C   2      24.926   2.579  45.446  1.00 14.08 LIG 0.10  C 
BRANCH 37 38
ATOM     38  CG  HIS C   2      24.139   2.774  46.692  1.00 15.42 LIG 0.06  A 
ATOM     39  CD2 HIS C   2      23.392   1.900  47.399  1.00 15.59 LIG 0.14  A 
ATOM     40 NE2  HIS C   2      22.871   2.585  48.471  1.00 17.02 LIG-0.25  NA
ATOM     41  CE1 HIS C   2      23.290   3.835  48.424  1.00 16.99 LIG 0.23  A 
ATOM     42 ND1  HIS C   2      24.056   3.978  47.357  0.48 15.92 LIG-0.24  NA
ENDBRANCH 37 38
ENDBRANCH 1 37
TORSDOF 14
ENDMDL
