MODEL 1
USER: ADFR SOLUTION from run 114
USER: SCORE 21.858921 LL:  -1.096 LR: -21.961 RR:   0.000 FEB: -13.310
USER: RMSD 3.543139
USER: SEED 113
USER: STATUS no improvement in best in 2 clusters for 5 generations
USER: GENES 31
USER: genes 0 Translation |==|  0.55392 0.56704 0.54612
USER: genes 1 Rotation |==|  0.49958 0.48532 0.48996 0.99968
USER: genes 2 Torsion [CB]-CA--N-[C] |==|  0.49692
USER: genes 3 Torsion [N]-C--CA-[N] |==|  0.45000
USER: genes 4 Torsion [C]-CA--CB-[CG] |==|  0.46450
USER: genes 5 Torsion [CA]-CB--CG-[CD] |==|  0.27882
USER: genes 6 Torsion [CB]-CG--CD-[CE] |==|  0.51614
USER: genes 7 Torsion [CG]-CD--CE-[NZ] |==|  0.52527
USER: genes 8 Torsion [CD]-CE--NZ-[HZ3] |==|  0.56523
USER: genes 9 Torsion [C]-CA--N-[C] |==|  0.59254
USER: genes 10 Torsion [N]-C--CA-[N] |==|  0.08880
USER: genes 11 Torsion [C]-CA--CB-[CG] |==|  0.82381
USER: genes 12 Torsion [CA]-CB--CG-[CD] |==|  0.42510
USER: genes 13 Torsion [CB]-CG--CD-[CE] |==|  0.82251
USER: genes 14 Torsion [CG]-CD--CE-[NZ] |==|  0.59222
USER: genes 15 Torsion [CD]-CE--NZ-[HZ3] |==|  0.50818
USER: genes 16 Torsion [N]-CA--CB-[CG] |==|  0.92278
USER: genes 17 Torsion [CA]-CB--CG-[CD] |==|  0.42947
USER: genes 18 Torsion [CB]-CG--CD-[NE] |==|  0.10120
USER: genes 19 Torsion [CG]-CD--NE-[HE] |==|  0.06827
USER: genes 20 Torsion [N]-CA--C-[N] |==|  0.26318
USER: genes 21 Torsion [C]-N--CA-[C] |==|  0.83423
USER: genes 22 Torsion [N]-CA--CB-[CG] |==|  0.52222
USER: genes 23 Torsion [CA]-CB--CG-[CD] |==|  0.08911
USER: genes 24 Torsion [CB]-CG--CD-[CE] |==|  0.34088
USER: genes 25 Torsion [CG]-CD--CE-[NZ] |==|  0.86905
USER: genes 26 Torsion [CD]-CE--NZ-[HZ1] |==|  0.50505
USER: genes 27 Torsion [N]-CA--C-[N] |==|  0.38535
USER: genes 28 Torsion [C]-N--CA-[C] |==|  0.10900
USER: genes 29 Torsion [N]-CA--C-[O] |==|  0.30065
USER: genes 30 Torsion [N]-CA--CB-[CG2] |==|  0.66315
ROOT
ATOM      1  CA  ARG C 130      23.624   4.781  15.049  1.00 44.25 LIG 0.18  C 
ENDROOT
BRANCH 1 2
ATOM      2  N   ARG C 130      22.295   4.248  14.809  1.00 44.77 LIG-0.35  N 
ATOM      3  C   LYS C 129      21.561   4.624  13.771  1.00 47.82 LIG 0.24  C 
ATOM      4 O    LYS C 129      21.973   5.386  12.894  1.00 51.43 LIG-0.27  OA
ATOM      5 H    ARG C 130      22.034   3.675  15.396  1.00 44.77 LIG 0.16  HD
BRANCH 3 6
ATOM      6  CA  LYS C 129      20.145   4.062  13.722  1.00 47.52 LIG 0.18  C 
BRANCH 6 7
ATOM      7  CB  LYS C 129      20.175   2.602  13.296  1.00 47.19 LIG 0.04  C 
BRANCH 7 8
ATOM      8  CG  LYS C 129      18.872   1.880  13.510  1.00 46.82 LIG 0.00  C 
BRANCH 8 9
ATOM      9  CD  LYS C 129      18.069   1.753  12.238  1.00 42.25 LIG 0.03  C 
BRANCH 9 10
ATOM     10  CE  LYS C 129      16.712   1.148  12.546  1.00 38.25 LIG 0.23  C 
BRANCH 10 11
ATOM     11  NZ  LYS C 129      15.914   0.778  11.334  1.00 36.45 LIG-0.08  N 
ATOM     12 HZ3  LYS C 129      15.049   0.759  11.542  1.00 36.45 LIG 0.27  HD
ATOM     13 HZ2  LYS C 129      16.168  -0.025  11.046  1.00 36.45 LIG 0.27  HD
ATOM     14 HZ1  LYS C 129      16.051   1.380  10.693  1.00 36.45 LIG 0.27  HD
ENDBRANCH 10 11
ENDBRANCH 9 10
ENDBRANCH 8 9
ENDBRANCH 7 8
ENDBRANCH 6 7
BRANCH 6 15
ATOM     15  N   LYS C 129      19.335   4.862  12.809  1.00 50.72 LIG-0.35  N 
ATOM     16 H    LYS C 129      19.766   5.184  12.137  1.00 50.72 LIG 0.16  HD
ATOM     17  C   LYS C 128      18.034   5.059  13.029  1.00 53.52 LIG 0.26  C 
ATOM     18 O    LYS C 128      17.395   4.484  13.930  1.00 51.22 LIG-0.27  OA
BRANCH 17 19
ATOM     19  CA  LYS C 128      17.325   6.027  12.074  1.00 56.35 LIG 0.40  C 
ATOM     20  N   LYS C 128      17.893   6.006  10.726  1.00 59.98 LIG 0.61  N 
BRANCH 19 21
ATOM     21  CB  LYS C 128      15.847   5.679  12.029  1.00 54.38 LIG 0.05  C 
BRANCH 21 22
ATOM     22  CG  LYS C 128      15.586   4.311  11.472  1.00 63.27 LIG 0.00  C 
BRANCH 22 23
ATOM     23  CD  LYS C 128      14.305   3.719  11.999  1.00 66.98 LIG 0.03  C 
BRANCH 23 24
ATOM     24  CE  LYS C 128      14.346   3.486  13.506  1.00 66.03 LIG 0.23  C 
BRANCH 24 25
ATOM     25  NZ  LYS C 128      13.546   2.277  13.868  1.00 67.41 LIG-0.08  N 
ATOM     26 HZ3  LYS C 128      13.543   2.178  14.753  1.00 67.41 LIG 0.27  HD
ATOM     27 HZ2  LYS C 128      13.908   1.557  13.490  1.00 67.41 LIG 0.27  HD
ATOM     28 HZ1  LYS C 128      12.710   2.376  13.578  1.00 67.41 LIG 0.27  HD
ENDBRANCH 24 25
ENDBRANCH 23 24
ENDBRANCH 22 23
ENDBRANCH 21 22
ENDBRANCH 19 21
ENDBRANCH 17 19
ENDBRANCH 6 15
ENDBRANCH 3 6
ENDBRANCH 1 2
BRANCH 1 29
ATOM     29  CB  ARG C 130      24.188   4.173  16.329  1.00 44.07 LIG 0.04  C 
BRANCH 29 30
ATOM     30  CG  ARG C 130      23.132   3.763  17.338  1.00 48.13 LIG 0.02  C 
BRANCH 30 31
ATOM     31  CD  ARG C 130      23.666   2.658  18.235  1.00 53.98 LIG 0.14  C 
BRANCH 31 32
ATOM     32  NE  ARG C 130      25.074   2.860  18.518  1.00 57.03 LIG-0.23  N 
ATOM     33  CZ  ARG C 130      25.932   1.904  18.853  1.00 53.36 LIG 0.67  C 
ATOM     34  NH1 ARG C 130      25.543   0.642  18.973  1.00 46.68 LIG-0.23  N 
ATOM     35  NH2 ARG C 130      27.197   2.225  19.079  1.00 54.86 LIG-0.23  N 
ATOM     36 1HH1 ARG C 130      24.721   0.430  18.833  1.00 46.68 LIG 0.17  HD
ATOM     37 2HH1 ARG C 130      26.113   0.036  19.191  1.00 46.68 LIG 0.17  HD
ATOM     38 1HH2 ARG C 130      27.453   3.043  19.008  1.00 54.86 LIG 0.17  HD
ATOM     39 2HH2 ARG C 130      27.763   1.615  19.297  1.00 54.86 LIG 0.17  HD
ATOM     40 HE   ARG C 130      25.377   3.663  18.464  1.00 57.03 LIG 0.18  HD
ENDBRANCH 31 32
ENDBRANCH 30 31
ENDBRANCH 29 30
ENDBRANCH 1 29
BRANCH 1 41
ATOM     41  C   ARG C 130      24.540   4.427  13.903  1.00 43.16 LIG 0.24  C 
ATOM     42  N   LYS C 131      24.667   5.348  12.944  1.00 46.51 LIG-0.35  N 
ATOM     43 H    LYS C 131      24.236   6.092  12.950  1.00 46.51 LIG 0.16  HD
ATOM     44 O    ARG C 130      25.130   3.350  13.911  1.00 41.50 LIG-0.27  OA
BRANCH 42 45
ATOM     45  CA  LYS C 131      25.547   5.193  11.784  1.00 53.22 LIG 0.18  C 
BRANCH 45 46
ATOM     46  CB  LYS C 131      25.476   6.433  10.880  1.00 55.01 LIG 0.04  C 
BRANCH 46 47
ATOM     47  CG  LYS C 131      26.198   6.309   9.553  1.00 52.38 LIG 0.00  C 
BRANCH 47 48
ATOM     48  CD  LYS C 131      26.170   4.888   9.034  1.00 48.84 LIG 0.03  C 
BRANCH 48 49
ATOM     49  CE  LYS C 131      25.546   4.818   7.666  1.00 46.73 LIG 0.23  C 
BRANCH 49 50
ATOM     50  NZ  LYS C 131      24.292   5.600   7.671  1.00 43.41 LIG-0.08  N 
ATOM     51 HZ1  LYS C 131      23.903   5.542   6.873  1.00 43.41 LIG 0.27  HD
ATOM     52 HZ3  LYS C 131      24.474   6.453   7.851  1.00 43.41 LIG 0.27  HD
ATOM     53 HZ2  LYS C 131      23.743   5.277   8.293  1.00 43.41 LIG 0.27  HD
ENDBRANCH 49 50
ENDBRANCH 48 49
ENDBRANCH 47 48
ENDBRANCH 46 47
ENDBRANCH 45 46
BRANCH 45 54
ATOM     54  C   LYS C 131      26.992   5.016  12.216  1.00 59.91 LIG 0.24  C 
ATOM     55  N   VAL C 132      27.676   4.100  11.533  1.00 72.80 LIG-0.35  N 
ATOM     56 H    VAL C 132      27.292   3.547  10.997  1.00 72.80 LIG 0.16  HD
ATOM     57 O    LYS C 131      27.451   5.682  13.137  1.00 55.62 LIG-0.27  OA
BRANCH 55 58
ATOM     58  CA  VAL C 132      29.129   3.913  11.599  1.00 46.38 LIG 0.17  C 
BRANCH 58 59
ATOM     59  C   VAL C 132      29.666   4.084  13.021  1.00 55.18 LIG 0.22  C 
ATOM     60 O    VAL C 132      30.059   3.095  13.657  1.00 55.70 LIG-0.29  OA
ENDBRANCH 58 59
BRANCH 58 61
ATOM     61  CB  VAL C 132      29.898   4.779  10.561  1.00 53.16 LIG 0.01  C 
ATOM     62  CG2 VAL C 132      30.705   3.870   9.663  1.00 49.68 LIG 0.01  C 
ATOM     63  CG1 VAL C 132      30.776   5.832  11.222  1.00 55.70 LIG 0.01  C 
ENDBRANCH 58 61
ENDBRANCH 55 58
ENDBRANCH 45 54
ENDBRANCH 42 45
ENDBRANCH 1 41
TORSDOF 29
ENDMDL
MODEL 2
USER: ADFR SOLUTION from run 89
USER: SCORE 21.398061 LL:  -1.066 LR: -21.347 RR:   0.000 FEB: -12.696
USER: RMSD 4.932981
USER: SEED 88
USER: STATUS no improvement in best in 3 clusters for 5 generations
USER: GENES 31
USER: genes 0 Translation |==|  0.56034 0.55250 0.55064
USER: genes 1 Rotation |==|  0.52837 0.47897 0.45374 0.99660
USER: genes 2 Torsion [CB]-CA--N-[C] |==|  0.51667
USER: genes 3 Torsion [N]-C--CA-[N] |==|  0.46573
USER: genes 4 Torsion [C]-CA--CB-[CG] |==|  0.44193
USER: genes 5 Torsion [CA]-CB--CG-[CD] |==|  0.26681
USER: genes 6 Torsion [CB]-CG--CD-[CE] |==|  0.43832
USER: genes 7 Torsion [CG]-CD--CE-[NZ] |==|  0.52849
USER: genes 8 Torsion [CD]-CE--NZ-[HZ3] |==|  0.27862
USER: genes 9 Torsion [C]-CA--N-[C] |==|  0.64239
USER: genes 10 Torsion [N]-C--CA-[N] |==|  0.54937
USER: genes 11 Torsion [C]-CA--CB-[CG] |==|  0.46671
USER: genes 12 Torsion [CA]-CB--CG-[CD] |==|  0.58240
USER: genes 13 Torsion [CB]-CG--CD-[CE] |==|  0.03431
USER: genes 14 Torsion [CG]-CD--CE-[NZ] |==|  0.35816
USER: genes 15 Torsion [CD]-CE--NZ-[HZ3] |==|  0.24342
USER: genes 16 Torsion [N]-CA--CB-[CG] |==|  0.89370
USER: genes 17 Torsion [CA]-CB--CG-[CD] |==|  0.48840
USER: genes 18 Torsion [CB]-CG--CD-[NE] |==|  0.10055
USER: genes 19 Torsion [CG]-CD--NE-[HE] |==|  0.11174
USER: genes 20 Torsion [N]-CA--C-[N] |==|  0.25615
USER: genes 21 Torsion [C]-N--CA-[C] |==|  0.80636
USER: genes 22 Torsion [N]-CA--CB-[CG] |==|  0.64799
USER: genes 23 Torsion [CA]-CB--CG-[CD] |==|  0.91146
USER: genes 24 Torsion [CB]-CG--CD-[CE] |==|  0.56495
USER: genes 25 Torsion [CG]-CD--CE-[NZ] |==|  0.84280
USER: genes 26 Torsion [CD]-CE--NZ-[HZ1] |==|  0.56786
USER: genes 27 Torsion [N]-CA--C-[N] |==|  0.42547
USER: genes 28 Torsion [C]-N--CA-[C] |==|  0.79720
USER: genes 29 Torsion [N]-CA--C-[O] |==|  0.03549
USER: genes 30 Torsion [N]-CA--CB-[CG2] |==|  0.63951
ROOT
ATOM      1  CA  ARG C 130      23.797   4.552  15.147  1.00 44.25 LIG 0.18  C 
ENDROOT
BRANCH 1 2
ATOM      2  N   ARG C 130      22.417   4.245  14.819  1.00 44.77 LIG-0.35  N 
ATOM      3  C   LYS C 129      21.823   4.735  13.739  1.00 47.82 LIG 0.24  C 
ATOM      4 O    LYS C 129      22.412   5.416  12.897  1.00 51.43 LIG-0.27  OA
ATOM      5 H    ARG C 130      22.028   3.725  15.383  1.00 44.77 LIG 0.16  HD
BRANCH 3 6
ATOM      6  CA  LYS C 129      20.340   4.415  13.595  1.00 47.52 LIG 0.18  C 
BRANCH 6 7
ATOM      7  CB  LYS C 129      20.150   2.935  13.298  1.00 47.19 LIG 0.04  C 
BRANCH 7 8
ATOM      8  CG  LYS C 129      18.773   2.423  13.624  1.00 46.82 LIG 0.00  C 
BRANCH 8 9
ATOM      9  CD  LYS C 129      17.864   2.405  12.418  1.00 42.25 LIG 0.03  C 
BRANCH 9 10
ATOM     10  CE  LYS C 129      16.736   1.416  12.641  1.00 38.25 LIG 0.23  C 
BRANCH 10 11
ATOM     11  NZ  LYS C 129      15.913   1.137  11.421  1.00 36.45 LIG-0.08  N 
ATOM     12 HZ3  LYS C 129      16.170   0.365  11.060  1.00 36.45 LIG 0.27  HD
ATOM     13 HZ2  LYS C 129      16.026   1.794  10.831  1.00 36.45 LIG 0.27  HD
ATOM     14 HZ1  LYS C 129      15.054   1.086  11.647  1.00 36.45 LIG 0.27  HD
ENDBRANCH 10 11
ENDBRANCH 9 10
ENDBRANCH 8 9
ENDBRANCH 7 8
ENDBRANCH 6 7
BRANCH 6 15
ATOM     15  N   LYS C 129      19.763   5.244  12.543  1.00 50.72 LIG-0.35  N 
ATOM     16 H    LYS C 129      20.191   5.225  11.797  1.00 50.72 LIG 0.16  HD
ATOM     17  C   LYS C 128      18.659   5.963  12.754  1.00 53.52 LIG 0.26  C 
ATOM     18 O    LYS C 128      17.977   5.884  13.793  1.00 51.22 LIG-0.27  OA
BRANCH 17 19
ATOM     19  CA  LYS C 128      18.230   6.896  11.616  1.00 56.35 LIG 0.40  C 
ATOM     20  N   LYS C 128      17.292   7.929  12.057  1.00 59.98 LIG 0.61  N 
BRANCH 19 21
ATOM     21  CB  LYS C 128      19.469   7.534  11.009  1.00 54.38 LIG 0.05  C 
BRANCH 21 22
ATOM     22  CG  LYS C 128      19.189   8.236   9.714  1.00 63.27 LIG 0.00  C 
BRANCH 22 23
ATOM     23  CD  LYS C 128      20.383   8.230   8.796  1.00 66.98 LIG 0.03  C 
BRANCH 23 24
ATOM     24  CE  LYS C 128      21.473   7.270   9.262  1.00 66.03 LIG 0.23  C 
BRANCH 24 25
ATOM     25  NZ  LYS C 128      21.886   6.369   8.144  1.00 67.41 LIG-0.08  N 
ATOM     26 HZ3  LYS C 128      22.532   6.759   7.672  1.00 67.41 LIG 0.27  HD
ATOM     27 HZ2  LYS C 128      21.187   6.210   7.617  1.00 67.41 LIG 0.27  HD
ATOM     28 HZ1  LYS C 128      22.187   5.600   8.478  1.00 67.41 LIG 0.27  HD
ENDBRANCH 24 25
ENDBRANCH 23 24
ENDBRANCH 22 23
ENDBRANCH 21 22
ENDBRANCH 19 21
ENDBRANCH 17 19
ENDBRANCH 6 15
ENDBRANCH 3 6
ENDBRANCH 1 2
BRANCH 1 29
ATOM     29  CB  ARG C 130      24.224   3.725  16.356  1.00 44.07 LIG 0.04  C 
BRANCH 29 30
ATOM     30  CG  ARG C 130      23.145   3.567  17.410  1.00 48.13 LIG 0.02  C 
BRANCH 30 31
ATOM     31  CD  ARG C 130      23.628   2.647  18.520  1.00 53.98 LIG 0.14  C 
BRANCH 31 32
ATOM     32  NE  ARG C 130      25.043   2.846  18.774  1.00 57.03 LIG-0.23  N 
ATOM     33  CZ  ARG C 130      25.917   1.880  19.026  1.00 53.36 LIG 0.67  C 
ATOM     34  NH1 ARG C 130      25.543   0.609  19.080  1.00 46.68 LIG-0.23  N 
ATOM     35  NH2 ARG C 130      27.186   2.199  19.234  1.00 54.86 LIG-0.23  N 
ATOM     36 1HH1 ARG C 130      24.719   0.398  18.951  1.00 46.68 LIG 0.17  HD
ATOM     37 2HH1 ARG C 130      26.124  -0.003  19.244  1.00 46.68 LIG 0.17  HD
ATOM     38 1HH2 ARG C 130      27.433   3.023  19.205  1.00 54.86 LIG 0.17  HD
ATOM     39 2HH2 ARG C 130      27.763   1.583  19.398  1.00 54.86 LIG 0.17  HD
ATOM     40 HE   ARG C 130      25.337   3.654  18.761  1.00 57.03 LIG 0.18  HD
ENDBRANCH 31 32
ENDBRANCH 30 31
ENDBRANCH 29 30
ENDBRANCH 1 29
BRANCH 1 41
ATOM     41  C   ARG C 130      24.697   4.207  13.985  1.00 43.16 LIG 0.24  C 
ATOM     42  N   LYS C 131      24.943   5.192  13.118  1.00 46.51 LIG-0.35  N 
ATOM     43 H    LYS C 131      24.594   5.975  13.188  1.00 46.51 LIG 0.16  HD
ATOM     44 O    ARG C 130      25.168   3.076  13.901  1.00 41.50 LIG-0.27  OA
BRANCH 42 45
ATOM     45  CA  LYS C 131      25.828   5.049  11.960  1.00 53.22 LIG 0.18  C 
BRANCH 45 46
ATOM     46  CB  LYS C 131      25.719   6.274  11.040  1.00 55.01 LIG 0.04  C 
BRANCH 46 47
ATOM     47  CG  LYS C 131      25.415   5.967   9.587  1.00 52.38 LIG 0.00  C 
BRANCH 47 48
ATOM     48  CD  LYS C 131      26.012   4.643   9.161  1.00 48.84 LIG 0.03  C 
BRANCH 48 49
ATOM     49  CE  LYS C 131      26.217   4.591   7.671  1.00 46.73 LIG 0.23  C 
BRANCH 49 50
ATOM     50  NZ  LYS C 131      24.924   4.845   7.000  1.00 43.41 LIG-0.08  N 
ATOM     51 HZ1  LYS C 131      24.936   4.482   6.188  1.00 43.41 LIG 0.27  HD
ATOM     52 HZ3  LYS C 131      24.793   5.722   6.931  1.00 43.41 LIG 0.27  HD
ATOM     53 HZ2  LYS C 131      24.266   4.483   7.478  1.00 43.41 LIG 0.27  HD
ENDBRANCH 49 50
ENDBRANCH 48 49
ENDBRANCH 47 48
ENDBRANCH 46 47
ENDBRANCH 45 46
BRANCH 45 54
ATOM     54  C   LYS C 131      27.277   4.922  12.394  1.00 59.91 LIG 0.24  C 
ATOM     55  N   VAL C 132      28.062   4.255  11.550  1.00 72.80 LIG-0.35  N 
ATOM     56 H    VAL C 132      27.746   3.803  10.890  1.00 72.80 LIG 0.16  HD
ATOM     57 O    LYS C 131      27.652   5.403  13.457  1.00 55.62 LIG-0.27  OA
BRANCH 55 58
ATOM     58  CA  VAL C 132      29.526   4.203  11.625  1.00 46.38 LIG 0.17  C 
BRANCH 58 59
ATOM     59  C   VAL C 132      30.171   5.522  11.200  1.00 55.18 LIG 0.22  C 
ATOM     60 O    VAL C 132      29.474   6.540  11.075  1.00 55.70 LIG-0.29  OA
ENDBRANCH 58 59
BRANCH 58 61
ATOM     61  CB  VAL C 132      30.127   2.975  10.883  1.00 53.16 LIG 0.01  C 
ATOM     62  CG2 VAL C 132      31.089   2.264  11.805  1.00 49.68 LIG 0.01  C 
ATOM     63  CG1 VAL C 132      30.795   3.362   9.572  1.00 55.70 LIG 0.01  C 
ENDBRANCH 58 61
ENDBRANCH 55 58
ENDBRANCH 45 54
ENDBRANCH 42 45
ENDBRANCH 1 41
TORSDOF 29
ENDMDL
MODEL 3
USER: ADFR SOLUTION from run 57
USER: SCORE 20.940417 LL:  -1.346 LR: -20.938 RR:   0.000 FEB: -12.288
USER: RMSD 3.644185
USER: SEED 56
USER: STATUS no improvement in best in 4 clusters for 5 generations
USER: GENES 31
USER: genes 0 Translation |==|  0.50974 0.57362 0.54838
USER: genes 1 Rotation |==|  0.56936 0.57559 0.54089 0.98765
USER: genes 2 Torsion [CB]-CA--N-[C] |==|  0.49151
USER: genes 3 Torsion [N]-C--CA-[N] |==|  0.40796
USER: genes 4 Torsion [C]-CA--CB-[CG] |==|  0.54756
USER: genes 5 Torsion [CA]-CB--CG-[CD] |==|  0.48010
USER: genes 6 Torsion [CB]-CG--CD-[CE] |==|  0.41484
USER: genes 7 Torsion [CG]-CD--CE-[NZ] |==|  0.32659
USER: genes 8 Torsion [CD]-CE--NZ-[HZ3] |==|  0.10818
USER: genes 9 Torsion [C]-CA--N-[C] |==|  0.70131
USER: genes 10 Torsion [N]-C--CA-[N] |==|  0.78403
USER: genes 11 Torsion [C]-CA--CB-[CG] |==|  0.13075
USER: genes 12 Torsion [CA]-CB--CG-[CD] |==|  0.42247
USER: genes 13 Torsion [CB]-CG--CD-[CE] |==|  0.67450
USER: genes 14 Torsion [CG]-CD--CE-[NZ] |==|  0.63462
USER: genes 15 Torsion [CD]-CE--NZ-[HZ3] |==|  0.45311
USER: genes 16 Torsion [N]-CA--CB-[CG] |==|  0.80758
USER: genes 17 Torsion [CA]-CB--CG-[CD] |==|  0.40488
USER: genes 18 Torsion [CB]-CG--CD-[NE] |==|  0.25253
USER: genes 19 Torsion [CG]-CD--NE-[HE] |==|  0.01537
USER: genes 20 Torsion [N]-CA--C-[N] |==|  0.22593
USER: genes 21 Torsion [C]-N--CA-[C] |==|  0.86111
USER: genes 22 Torsion [N]-CA--CB-[CG] |==|  0.73911
USER: genes 23 Torsion [CA]-CB--CG-[CD] |==|  0.68463
USER: genes 24 Torsion [CB]-CG--CD-[CE] |==|  0.08834
USER: genes 25 Torsion [CG]-CD--CE-[NZ] |==|  0.24878
USER: genes 26 Torsion [CD]-CE--NZ-[HZ1] |==|  0.38794
USER: genes 27 Torsion [N]-CA--C-[N] |==|  0.38120
USER: genes 28 Torsion [C]-N--CA-[C] |==|  0.76027
USER: genes 29 Torsion [N]-CA--C-[O] |==|  0.42875
USER: genes 30 Torsion [N]-CA--CB-[CG2] |==|  0.16986
ROOT
ATOM      1  CA  ARG C 130      22.431   4.884  15.098  1.00 44.25 LIG 0.18  C 
ENDROOT
BRANCH 1 2
ATOM      2  N   ARG C 130      21.208   4.103  15.135  1.00 44.77 LIG-0.35  N 
ATOM      3  C   LYS C 129      20.081   4.531  14.580  1.00 47.82 LIG 0.24  C 
ATOM      4 O    LYS C 129      20.004   5.575  13.931  1.00 51.43 LIG-0.27  OA
ATOM      5 H    ARG C 130      21.283   3.350  15.544  1.00 44.77 LIG 0.16  HD
BRANCH 3 6
ATOM      6  CA  LYS C 129      18.857   3.650  14.804  1.00 47.52 LIG 0.18  C 
BRANCH 6 7
ATOM      7  CB  LYS C 129      18.738   2.626  13.686  1.00 47.19 LIG 0.04  C 
BRANCH 7 8
ATOM      8  CG  LYS C 129      17.376   1.993  13.587  1.00 46.82 LIG 0.00  C 
BRANCH 8 9
ATOM      9  CD  LYS C 129      17.237   1.113  12.367  1.00 42.25 LIG 0.03  C 
BRANCH 9 10
ATOM     10  CE  LYS C 129      16.272  -0.020  12.659  1.00 38.25 LIG 0.23  C 
BRANCH 10 11
ATOM     11  NZ  LYS C 129      15.043  -0.016  11.802  1.00 36.45 LIG-0.08  N 
ATOM     12 HZ3  LYS C 129      15.261   0.218  10.972  1.00 36.45 LIG 0.27  HD
ATOM     13 HZ2  LYS C 129      14.455   0.566  12.130  1.00 36.45 LIG 0.27  HD
ATOM     14 HZ1  LYS C 129      14.683  -0.830  11.796  1.00 36.45 LIG 0.27  HD
ENDBRANCH 10 11
ENDBRANCH 9 10
ENDBRANCH 8 9
ENDBRANCH 7 8
ENDBRANCH 6 7
BRANCH 6 15
ATOM     15  N   LYS C 129      17.664   4.487  14.885  1.00 50.72 LIG-0.35  N 
ATOM     16 H    LYS C 129      17.413   4.824  14.134  1.00 50.72 LIG 0.16  HD
ATOM     17  C   LYS C 128      17.039   4.691  16.045  1.00 53.52 LIG 0.26  C 
ATOM     18 O    LYS C 128      17.335   4.097  17.099  1.00 51.22 LIG-0.27  OA
BRANCH 17 19
ATOM     19  CA  LYS C 128      15.881   5.696  16.022  1.00 56.35 LIG 0.40  C 
ATOM     20  N   LYS C 128      16.341   7.085  16.016  1.00 59.98 LIG 0.61  N 
BRANCH 19 21
ATOM     21  CB  LYS C 128      15.015   5.420  14.805  1.00 54.38 LIG 0.05  C 
BRANCH 21 22
ATOM     22  CG  LYS C 128      14.686   3.966  14.640  1.00 63.27 LIG 0.00  C 
BRANCH 22 23
ATOM     23  CD  LYS C 128      13.376   3.759  13.926  1.00 66.98 LIG 0.03  C 
BRANCH 23 24
ATOM     24  CE  LYS C 128      12.341   3.053  14.796  1.00 66.03 LIG 0.23  C 
BRANCH 24 25
ATOM     25  NZ  LYS C 128      11.713   1.924  14.046  1.00 67.41 LIG-0.08  N 
ATOM     26 HZ3  LYS C 128      11.305   1.378  14.619  1.00 67.41 LIG 0.27  HD
ATOM     27 HZ2  LYS C 128      12.342   1.475  13.604  1.00 67.41 LIG 0.27  HD
ATOM     28 HZ1  LYS C 128      11.117   2.246  13.468  1.00 67.41 LIG 0.27  HD
ENDBRANCH 24 25
ENDBRANCH 23 24
ENDBRANCH 22 23
ENDBRANCH 21 22
ENDBRANCH 19 21
ENDBRANCH 17 19
ENDBRANCH 6 15
ENDBRANCH 3 6
ENDBRANCH 1 2
BRANCH 1 29
ATOM     29  CB  ARG C 130      23.517   4.158  15.884  1.00 44.07 LIG 0.04  C 
BRANCH 29 30
ATOM     30  CG  ARG C 130      23.280   4.121  17.381  1.00 48.13 LIG 0.02  C 
BRANCH 30 31
ATOM     31  CD  ARG C 130      23.799   2.815  17.962  1.00 53.98 LIG 0.14  C 
BRANCH 31 32
ATOM     32  NE  ARG C 130      25.180   2.953  18.384  1.00 57.03 LIG-0.23  N 
ATOM     33  CZ  ARG C 130      25.943   1.965  18.834  1.00 53.36 LIG 0.67  C 
ATOM     34  NH1 ARG C 130      25.474   0.729  18.949  1.00 46.68 LIG-0.23  N 
ATOM     35  NH2 ARG C 130      27.195   2.225  19.182  1.00 54.86 LIG-0.23  N 
ATOM     36 1HH1 ARG C 130      24.660   0.556  18.731  1.00 46.68 LIG 0.17  HD
ATOM     37 2HH1 ARG C 130      25.984   0.102  19.243  1.00 46.68 LIG 0.17  HD
ATOM     38 1HH2 ARG C 130      27.502   3.026  19.114  1.00 54.86 LIG 0.17  HD
ATOM     39 2HH2 ARG C 130      27.700   1.594  19.475  1.00 54.86 LIG 0.17  HD
ATOM     40 HE   ARG C 130      25.531   3.736  18.340  1.00 57.03 LIG 0.18  HD
ENDBRANCH 31 32
ENDBRANCH 30 31
ENDBRANCH 29 30
ENDBRANCH 1 29
BRANCH 1 41
ATOM     41  C   ARG C 130      22.898   5.053  13.672  1.00 43.16 LIG 0.24  C 
ATOM     42  N   LYS C 131      22.300   6.017  12.967  1.00 46.51 LIG-0.35  N 
ATOM     43 H    LYS C 131      21.665   6.503  13.283  1.00 46.51 LIG 0.16  HD
ATOM     44 O    ARG C 130      23.795   4.334  13.241  1.00 41.50 LIG-0.27  OA
BRANCH 42 45
ATOM     45  CA  LYS C 131      22.658   6.351  11.587  1.00 53.22 LIG 0.18  C 
BRANCH 45 46
ATOM     46  CB  LYS C 131      21.976   7.656  11.150  1.00 55.01 LIG 0.04  C 
BRANCH 46 47
ATOM     47  CG  LYS C 131      20.652   7.485  10.431  1.00 52.38 LIG 0.00  C 
BRANCH 47 48
ATOM     48  CD  LYS C 131      20.743   7.927   8.986  1.00 48.84 LIG 0.03  C 
BRANCH 48 49
ATOM     49  CE  LYS C 131      22.118   7.684   8.426  1.00 46.73 LIG 0.23  C 
BRANCH 49 50
ATOM     50  NZ  LYS C 131      22.165   6.327   7.842  1.00 43.41 LIG-0.08  N 
ATOM     51 HZ1  LYS C 131      22.626   6.347   7.081  1.00 43.41 LIG 0.27  HD
ATOM     52 HZ3  LYS C 131      21.337   6.044   7.679  1.00 43.41 LIG 0.27  HD
ATOM     53 HZ2  LYS C 131      22.561   5.771   8.414  1.00 43.41 LIG 0.27  HD
ENDBRANCH 49 50
ENDBRANCH 48 49
ENDBRANCH 47 48
ENDBRANCH 46 47
ENDBRANCH 45 46
BRANCH 45 54
ATOM     54  C   LYS C 131      24.158   6.540  11.443  1.00 59.91 LIG 0.24  C 
ATOM     55  N   VAL C 132      24.694   5.987  10.357  1.00 72.80 LIG-0.35  N 
ATOM     56 H    VAL C 132      24.257   5.439   9.858  1.00 72.80 LIG 0.16  HD
ATOM     57 O    LYS C 131      24.790   7.155  12.294  1.00 55.62 LIG-0.27  OA
BRANCH 55 58
ATOM     58  CA  VAL C 132      26.058   6.229   9.877  1.00 46.38 LIG 0.17  C 
BRANCH 58 59
ATOM     59  C   VAL C 132      26.141   7.462   8.977  1.00 55.18 LIG 0.22  C 
ATOM     60 O    VAL C 132      27.209   8.083   8.874  1.00 55.70 LIG-0.29  OA
ENDBRANCH 58 59
BRANCH 58 61
ATOM     61  CB  VAL C 132      26.704   4.971   9.228  1.00 53.16 LIG 0.01  C 
ATOM     62  CG2 VAL C 132      25.880   4.555   8.032  1.00 49.68 LIG 0.01  C 
ATOM     63  CG1 VAL C 132      26.863   3.827  10.219  1.00 55.70 LIG 0.01  C 
ENDBRANCH 58 61
ENDBRANCH 55 58
ENDBRANCH 45 54
ENDBRANCH 42 45
ENDBRANCH 1 41
TORSDOF 29
ENDMDL
MODEL 4
USER: ADFR SOLUTION from run 180
USER: SCORE 20.425826 LL:  -1.260 LR: -20.814 RR:   0.000 FEB: -12.163
USER: RMSD 2.453300
USER: SEED 179
USER: STATUS no improvement in best in 3 clusters for 5 generations
USER: GENES 31
USER: genes 0 Translation |==|  0.55242 0.56629 0.56357
USER: genes 1 Rotation |==|  0.48176 0.49402 0.51379 0.99944
USER: genes 2 Torsion [CB]-CA--N-[C] |==|  0.46145
USER: genes 3 Torsion [N]-C--CA-[N] |==|  0.34185
USER: genes 4 Torsion [C]-CA--CB-[CG] |==|  0.59385
USER: genes 5 Torsion [CA]-CB--CG-[CD] |==|  0.65397
USER: genes 6 Torsion [CB]-CG--CD-[CE] |==|  0.44908
USER: genes 7 Torsion [CG]-CD--CE-[NZ] |==|  0.33183
USER: genes 8 Torsion [CD]-CE--NZ-[HZ3] |==|  0.13025
USER: genes 9 Torsion [C]-CA--N-[C] |==|  0.74016
USER: genes 10 Torsion [N]-C--CA-[N] |==|  0.81623
USER: genes 11 Torsion [C]-CA--CB-[CG] |==|  0.15771
USER: genes 12 Torsion [CA]-CB--CG-[CD] |==|  0.58726
USER: genes 13 Torsion [CB]-CG--CD-[CE] |==|  0.67855
USER: genes 14 Torsion [CG]-CD--CE-[NZ] |==|  0.64758
USER: genes 15 Torsion [CD]-CE--NZ-[HZ3] |==|  0.58335
USER: genes 16 Torsion [N]-CA--CB-[CG] |==|  0.90531
USER: genes 17 Torsion [CA]-CB--CG-[CD] |==|  0.38419
USER: genes 18 Torsion [CB]-CG--CD-[NE] |==|  0.15676
USER: genes 19 Torsion [CG]-CD--NE-[HE] |==|  0.08886
USER: genes 20 Torsion [N]-CA--C-[N] |==|  0.27565
USER: genes 21 Torsion [C]-N--CA-[C] |==|  0.83323
USER: genes 22 Torsion [N]-CA--CB-[CG] |==|  0.86799
USER: genes 23 Torsion [CA]-CB--CG-[CD] |==|  0.65555
USER: genes 24 Torsion [CB]-CG--CD-[CE] |==|  0.46417
USER: genes 25 Torsion [CG]-CD--CE-[NZ] |==|  0.62181
USER: genes 26 Torsion [CD]-CE--NZ-[HZ1] |==|  0.43706
USER: genes 27 Torsion [N]-CA--C-[N] |==|  0.45384
USER: genes 28 Torsion [C]-N--CA-[C] |==|  0.76385
USER: genes 29 Torsion [N]-CA--C-[O] |==|  0.28921
USER: genes 30 Torsion [N]-CA--CB-[CG2] |==|  0.65440
ROOT
ATOM      1  CA  ARG C 130      23.583   4.769  15.429  1.00 44.25 LIG 0.18  C 
ENDROOT
BRANCH 1 2
ATOM      2  N   ARG C 130      22.304   4.100  15.280  1.00 44.77 LIG-0.35  N 
ATOM      3  C   LYS C 129      21.398   4.498  14.397  1.00 47.82 LIG 0.24  C 
ATOM      4 O    LYS C 129      21.598   5.406  13.588  1.00 51.43 LIG-0.27  OA
ATOM      5 H    ARG C 130      22.191   3.433  15.812  1.00 44.77 LIG 0.16  HD
BRANCH 3 6
ATOM      6  CA  LYS C 129      20.061   3.766  14.443  1.00 47.52 LIG 0.18  C 
BRANCH 6 7
ATOM      7  CB  LYS C 129      19.854   2.973  13.162  1.00 47.19 LIG 0.04  C 
BRANCH 7 8
ATOM      8  CG  LYS C 129      18.417   2.897  12.722  1.00 46.82 LIG 0.00  C 
BRANCH 8 9
ATOM      9  CD  LYS C 129      17.944   1.474  12.543  1.00 42.25 LIG 0.03  C 
BRANCH 9 10
ATOM     10  CE  LYS C 129      16.428   1.433  12.549  1.00 38.25 LIG 0.23  C 
BRANCH 10 11
ATOM     11  NZ  LYS C 129      15.823   0.902  11.286  1.00 36.45 LIG-0.08  N 
ATOM     12 HZ3  LYS C 129      16.243   0.155  11.046  1.00 36.45 LIG 0.27  HD
ATOM     13 HZ2  LYS C 129      15.904   1.508  10.640  1.00 36.45 LIG 0.27  HD
ATOM     14 HZ1  LYS C 129      14.961   0.726  11.421  1.00 36.45 LIG 0.27  HD
ENDBRANCH 10 11
ENDBRANCH 9 10
ENDBRANCH 8 9
ENDBRANCH 7 8
ENDBRANCH 6 7
BRANCH 6 15
ATOM     15  N   LYS C 129      18.986   4.731  14.648  1.00 50.72 LIG-0.35  N 
ATOM     16 H    LYS C 129      18.682   5.087  13.926  1.00 50.72 LIG 0.16  HD
ATOM     17  C   LYS C 128      18.534   5.015  15.870  1.00 53.52 LIG 0.26  C 
ATOM     18 O    LYS C 128      18.890   4.402  16.894  1.00 51.22 LIG-0.27  OA
BRANCH 17 19
ATOM     19  CA  LYS C 128      17.498   6.142  15.965  1.00 56.35 LIG 0.40  C 
ATOM     20  N   LYS C 128      18.051   7.447  15.603  1.00 59.98 LIG 0.61  N 
BRANCH 19 21
ATOM     21  CB  LYS C 128      16.318   5.801  15.069  1.00 54.38 LIG 0.05  C 
BRANCH 21 22
ATOM     22  CG  LYS C 128      15.693   4.480  15.405  1.00 63.27 LIG 0.00  C 
BRANCH 22 23
ATOM     23  CD  LYS C 128      15.113   3.803  14.190  1.00 66.98 LIG 0.03  C 
BRANCH 23 24
ATOM     24  CE  LYS C 128      13.598   3.649  14.275  1.00 66.03 LIG 0.23  C 
BRANCH 24 25
ATOM     25  NZ  LYS C 128      13.205   2.226  14.046  1.00 67.41 LIG-0.08  N 
ATOM     26 HZ3  LYS C 128      12.397   2.197  13.673  1.00 67.41 LIG 0.27  HD
ATOM     27 HZ2  LYS C 128      13.188   1.793  14.824  1.00 67.41 LIG 0.27  HD
ATOM     28 HZ1  LYS C 128      13.795   1.838  13.504  1.00 67.41 LIG 0.27  HD
ENDBRANCH 24 25
ENDBRANCH 23 24
ENDBRANCH 22 23
ENDBRANCH 21 22
ENDBRANCH 19 21
ENDBRANCH 17 19
ENDBRANCH 6 15
ENDBRANCH 3 6
ENDBRANCH 1 2
BRANCH 1 29
ATOM     29  CB  ARG C 130      24.244   4.313  16.726  1.00 44.07 LIG 0.04  C 
BRANCH 29 30
ATOM     30  CG  ARG C 130      23.268   4.028  17.851  1.00 48.13 LIG 0.02  C 
BRANCH 30 31
ATOM     31  CD  ARG C 130      23.679   2.767  18.594  1.00 53.98 LIG 0.14  C 
BRANCH 31 32
ATOM     32  NE  ARG C 130      25.037   2.883  19.091  1.00 57.03 LIG-0.23  N 
ATOM     33  CZ  ARG C 130      25.890   1.875  19.225  1.00 53.36 LIG 0.67  C 
ATOM     34  NH1 ARG C 130      25.543   0.633  18.913  1.00 46.68 LIG-0.23  N 
ATOM     35  NH2 ARG C 130      27.107   2.119  19.686  1.00 54.86 LIG-0.23  N 
ATOM     36 1HH1 ARG C 130      24.752   0.469  18.619  1.00 46.68 LIG 0.17  HD
ATOM     37 2HH1 ARG C 130      26.109  -0.007  19.006  1.00 46.68 LIG 0.17  HD
ATOM     38 1HH2 ARG C 130      27.336   2.922  19.894  1.00 54.86 LIG 0.17  HD
ATOM     39 2HH2 ARG C 130      27.670   1.475  19.777  1.00 54.86 LIG 0.17  HD
ATOM     40 HE   ARG C 130      25.310   3.666  19.318  1.00 57.03 LIG 0.18  HD
ENDBRANCH 31 32
ENDBRANCH 30 31
ENDBRANCH 29 30
ENDBRANCH 1 29
BRANCH 1 41
ATOM     41  C   ARG C 130      24.491   4.416  14.275  1.00 43.16 LIG 0.24  C 
ATOM     42  N   LYS C 131      24.570   5.315  13.291  1.00 46.51 LIG-0.35  N 
ATOM     43 H    LYS C 131      24.114   6.045  13.286  1.00 46.51 LIG 0.16  HD
ATOM     44 O    ARG C 130      25.117   3.360  14.300  1.00 41.50 LIG-0.27  OA
BRANCH 42 45
ATOM     45  CA  LYS C 131      25.434   5.159  12.119  1.00 53.22 LIG 0.18  C 
BRANCH 45 46
ATOM     46  CB  LYS C 131      25.298   6.368  11.181  1.00 55.01 LIG 0.04  C 
BRANCH 46 47
ATOM     47  CG  LYS C 131      23.875   6.791  10.872  1.00 52.38 LIG 0.00  C 
BRANCH 47 48
ATOM     48  CD  LYS C 131      23.611   6.811   9.382  1.00 48.84 LIG 0.03  C 
BRANCH 48 49
ATOM     49  CE  LYS C 131      22.139   6.921   9.090  1.00 46.73 LIG 0.23  C 
BRANCH 49 50
ATOM     50  NZ  LYS C 131      21.793   5.976   8.008  1.00 43.41 LIG-0.08  N 
ATOM     51 HZ1  LYS C 131      20.924   5.787   8.046  1.00 43.41 LIG 0.27  HD
ATOM     52 HZ3  LYS C 131      22.263   5.227   8.106  1.00 43.41 LIG 0.27  HD
ATOM     53 HZ2  LYS C 131      21.983   6.344   7.220  1.00 43.41 LIG 0.27  HD
ENDBRANCH 49 50
ENDBRANCH 48 49
ENDBRANCH 47 48
ENDBRANCH 46 47
ENDBRANCH 45 46
BRANCH 45 54
ATOM     54  C   LYS C 131      26.892   5.051  12.528  1.00 59.91 LIG 0.24  C 
ATOM     55  N   VAL C 132      27.706   4.567  11.591  1.00 72.80 LIG-0.35  N 
ATOM     56 H    VAL C 132      27.410   4.204  10.870  1.00 72.80 LIG 0.16  HD
ATOM     57 O    LYS C 131      27.249   5.385  13.652  1.00 55.62 LIG-0.27  OA
BRANCH 55 58
ATOM     58  CA  VAL C 132      29.171   4.588  11.658  1.00 46.38 LIG 0.17  C 
BRANCH 58 59
ATOM     59  C   VAL C 132      29.750   5.910  11.154  1.00 55.18 LIG 0.22  C 
ATOM     60 O    VAL C 132      30.177   6.747  11.963  1.00 55.70 LIG-0.29  OA
ENDBRANCH 58 59
BRANCH 58 61
ATOM     61  CB  VAL C 132      29.825   3.350  10.979  1.00 53.16 LIG 0.01  C 
ATOM     62  CG2 VAL C 132      30.726   2.660  11.977  1.00 49.68 LIG 0.01  C 
ATOM     63  CG1 VAL C 132      30.578   3.718   9.709  1.00 55.70 LIG 0.01  C 
ENDBRANCH 58 61
ENDBRANCH 55 58
ENDBRANCH 45 54
ENDBRANCH 42 45
ENDBRANCH 1 41
TORSDOF 29
ENDMDL
MODEL 5
USER: ADFR SOLUTION from run 77
USER: SCORE 20.982495 LL:  -1.227 LR: -20.789 RR:   0.000 FEB: -12.138
USER: RMSD 3.582630
USER: SEED 76
USER: STATUS no improvement in best in 6 clusters for 5 generations
USER: GENES 31
USER: genes 0 Translation |==|  0.53877 0.56744 0.56292
USER: genes 1 Rotation |==|  0.49388 0.47180 0.49368 0.99913
USER: genes 2 Torsion [CB]-CA--N-[C] |==|  0.51111
USER: genes 3 Torsion [N]-C--CA-[N] |==|  0.43375
USER: genes 4 Torsion [C]-CA--CB-[CG] |==|  0.59880
USER: genes 5 Torsion [CA]-CB--CG-[CD] |==|  0.76786
USER: genes 6 Torsion [CB]-CG--CD-[CE] |==|  0.57096
USER: genes 7 Torsion [CG]-CD--CE-[NZ] |==|  0.78010
USER: genes 8 Torsion [CD]-CE--NZ-[HZ3] |==|  0.02351
USER: genes 9 Torsion [C]-CA--N-[C] |==|  0.63095
USER: genes 10 Torsion [N]-C--CA-[N] |==|  0.97121
USER: genes 11 Torsion [C]-CA--CB-[CG] |==|  0.20431
USER: genes 12 Torsion [CA]-CB--CG-[CD] |==|  0.67389
USER: genes 13 Torsion [CB]-CG--CD-[CE] |==|  0.52393
USER: genes 14 Torsion [CG]-CD--CE-[NZ] |==|  0.54164
USER: genes 15 Torsion [CD]-CE--NZ-[HZ3] |==|  0.22156
USER: genes 16 Torsion [N]-CA--CB-[CG] |==|  0.98894
USER: genes 17 Torsion [CA]-CB--CG-[CD] |==|  0.40512
USER: genes 18 Torsion [CB]-CG--CD-[NE] |==|  0.07174
USER: genes 19 Torsion [CG]-CD--NE-[HE] |==|  0.04158
USER: genes 20 Torsion [N]-CA--C-[N] |==|  0.25863
USER: genes 21 Torsion [C]-N--CA-[C] |==|  0.83176
USER: genes 22 Torsion [N]-CA--CB-[CG] |==|  0.85770
USER: genes 23 Torsion [CA]-CB--CG-[CD] |==|  0.61814
USER: genes 24 Torsion [CB]-CG--CD-[CE] |==|  0.47229
USER: genes 25 Torsion [CG]-CD--CE-[NZ] |==|  0.66222
USER: genes 26 Torsion [CD]-CE--NZ-[HZ1] |==|  0.46349
USER: genes 27 Torsion [N]-CA--C-[N] |==|  0.92937
USER: genes 28 Torsion [C]-N--CA-[C] |==|  0.15867
USER: genes 29 Torsion [N]-CA--C-[O] |==|  0.11682
USER: genes 30 Torsion [N]-CA--CB-[CG2] |==|  0.74629
ROOT
ATOM      1  CA  ARG C 130      23.215   4.787  15.414  1.00 44.25 LIG 0.18  C 
ENDROOT
BRANCH 1 2
ATOM      2  N   ARG C 130      21.908   4.229  15.117  1.00 44.77 LIG-0.35  N 
ATOM      3  C   LYS C 129      21.270   4.492  13.985  1.00 47.82 LIG 0.24  C 
ATOM      4 O    LYS C 129      21.762   5.159  13.073  1.00 51.43 LIG-0.27  OA
ATOM      5 H    ARG C 130      21.594   3.720  15.736  1.00 44.77 LIG 0.16  HD
BRANCH 3 6
ATOM      6  CA  LYS C 129      19.859   3.925  13.872  1.00 47.52 LIG 0.18  C 
BRANCH 6 7
ATOM      7  CB  LYS C 129      19.915   2.460  13.464  1.00 47.19 LIG 0.04  C 
BRANCH 7 8
ATOM      8  CG  LYS C 129      18.794   2.042  12.552  1.00 46.82 LIG 0.00  C 
BRANCH 8 9
ATOM      9  CD  LYS C 129      17.535   1.691  13.309  1.00 42.25 LIG 0.03  C 
BRANCH 9 10
ATOM     10  CE  LYS C 129      16.700   0.722  12.493  1.00 38.25 LIG 0.23  C 
BRANCH 10 11
ATOM     11  NZ  LYS C 129      15.903   1.367  11.401  1.00 36.45 LIG-0.08  N 
ATOM     12 HZ3  LYS C 129      16.142   2.221  11.324  1.00 36.45 LIG 0.27  HD
ATOM     13 HZ2  LYS C 129      15.036   1.319  11.598  1.00 36.45 LIG 0.27  HD
ATOM     14 HZ1  LYS C 129      16.057   0.946  10.633  1.00 36.45 LIG 0.27  HD
ENDBRANCH 10 11
ENDBRANCH 9 10
ENDBRANCH 8 9
ENDBRANCH 7 8
ENDBRANCH 6 7
BRANCH 6 15
ATOM     15  N   LYS C 129      19.093   4.712  12.912  1.00 50.72 LIG-0.35  N 
ATOM     16 H    LYS C 129      19.502   4.870  12.172  1.00 50.72 LIG 0.16  HD
ATOM     17  C   LYS C 128      17.860   5.138  13.192  1.00 53.52 LIG 0.26  C 
ATOM     18 O    LYS C 128      17.231   4.796  14.211  1.00 51.22 LIG-0.27  OA
BRANCH 17 19
ATOM     19  CA  LYS C 128      17.214   6.069  12.159  1.00 56.35 LIG 0.40  C 
ATOM     20  N   LYS C 128      18.162   6.528  11.144  1.00 59.98 LIG 0.61  N 
BRANCH 19 21
ATOM     21  CB  LYS C 128      16.050   5.344  11.505  1.00 54.38 LIG 0.05  C 
BRANCH 21 22
ATOM     22  CG  LYS C 128      14.858   5.220  12.408  1.00 63.27 LIG 0.00  C 
BRANCH 22 23
ATOM     23  CD  LYS C 128      14.524   3.782  12.709  1.00 66.98 LIG 0.03  C 
BRANCH 23 24
ATOM     24  CE  LYS C 128      13.199   3.633  13.450  1.00 66.03 LIG 0.23  C 
BRANCH 24 25
ATOM     25  NZ  LYS C 128      13.082   2.266  14.040  1.00 67.41 LIG-0.08  N 
ATOM     26 HZ3  LYS C 128      13.551   2.228  14.796  1.00 67.41 LIG 0.27  HD
ATOM     27 HZ2  LYS C 128      13.400   1.666  13.464  1.00 67.41 LIG 0.27  HD
ATOM     28 HZ1  LYS C 128      12.227   2.088  14.212  1.00 67.41 LIG 0.27  HD
ENDBRANCH 24 25
ENDBRANCH 23 24
ENDBRANCH 22 23
ENDBRANCH 21 22
ENDBRANCH 19 21
ENDBRANCH 17 19
ENDBRANCH 6 15
ENDBRANCH 3 6
ENDBRANCH 1 2
BRANCH 1 29
ATOM     29  CB  ARG C 130      23.717   4.219  16.737  1.00 44.07 LIG 0.04  C 
BRANCH 29 30
ATOM     30  CG  ARG C 130      22.722   3.317  17.443  1.00 48.13 LIG 0.02  C 
BRANCH 30 31
ATOM     31  CD  ARG C 130      23.452   2.204  18.176  1.00 53.98 LIG 0.14  C 
BRANCH 31 32
ATOM     32  NE  ARG C 130      24.801   2.612  18.519  1.00 57.03 LIG-0.23  N 
ATOM     33  CZ  ARG C 130      25.773   1.793  18.902  1.00 53.36 LIG 0.67  C 
ATOM     34  NH1 ARG C 130      25.568   0.488  19.019  1.00 46.68 LIG-0.23  N 
ATOM     35  NH2 ARG C 130      26.966   2.296  19.180  1.00 54.86 LIG-0.23  N 
ATOM     36 1HH1 ARG C 130      24.793   0.157  18.846  1.00 46.68 LIG 0.17  HD
ATOM     37 2HH1 ARG C 130      26.209  -0.027  19.269  1.00 46.68 LIG 0.17  HD
ATOM     38 1HH2 ARG C 130      27.103   3.143  19.111  1.00 54.86 LIG 0.17  HD
ATOM     39 2HH2 ARG C 130      27.605   1.777  19.429  1.00 54.86 LIG 0.17  HD
ATOM     40 HE   ARG C 130      24.986   3.450  18.469  1.00 57.03 LIG 0.18  HD
ENDBRANCH 31 32
ENDBRANCH 30 31
ENDBRANCH 29 30
ENDBRANCH 1 29
BRANCH 1 41
ATOM     41  C   ARG C 130      24.196   4.420  14.328  1.00 43.16 LIG 0.24  C 
ATOM     42  N   LYS C 131      24.337   5.304  13.337  1.00 46.51 LIG-0.35  N 
ATOM     43 H    LYS C 131      23.881   6.032  13.291  1.00 46.51 LIG 0.16  HD
ATOM     44 O    ARG C 130      24.822   3.367  14.410  1.00 41.50 LIG-0.27  OA
BRANCH 42 45
ATOM     45  CA  LYS C 131      25.276   5.134  12.226  1.00 53.22 LIG 0.18  C 
BRANCH 45 46
ATOM     46  CB  LYS C 131      25.189   6.321  11.256  1.00 55.01 LIG 0.04  C 
BRANCH 46 47
ATOM     47  CG  LYS C 131      23.792   6.667  10.780  1.00 52.38 LIG 0.00  C 
BRANCH 47 48
ATOM     48  CD  LYS C 131      23.769   6.975   9.298  1.00 48.84 LIG 0.03  C 
BRANCH 48 49
ATOM     49  CE  LYS C 131      22.358   7.078   8.784  1.00 46.73 LIG 0.23  C 
BRANCH 49 50
ATOM     50  NZ  LYS C 131      22.167   6.086   7.705  1.00 43.41 LIG-0.08  N 
ATOM     51 HZ1  LYS C 131      21.299   6.005   7.527  1.00 43.41 LIG 0.27  HD
ATOM     52 HZ3  LYS C 131      22.490   5.298   7.965  1.00 43.41 LIG 0.27  HD
ATOM     53 HZ2  LYS C 131      22.597   6.355   6.974  1.00 43.41 LIG 0.27  HD
ENDBRANCH 49 50
ENDBRANCH 48 49
ENDBRANCH 47 48
ENDBRANCH 46 47
ENDBRANCH 45 46
BRANCH 45 54
ATOM     54  C   LYS C 131      26.706   5.049  12.730  1.00 59.91 LIG 0.24  C 
ATOM     55  N   VAL C 132      26.927   5.645  13.900  1.00 72.80 LIG-0.35  N 
ATOM     56 H    VAL C 132      26.347   6.165  14.266  1.00 72.80 LIG 0.16  HD
ATOM     57 O    LYS C 131      27.564   4.474  12.071  1.00 55.62 LIG-0.27  OA
BRANCH 55 58
ATOM     58  CA  VAL C 132      28.148   5.502  14.699  1.00 46.38 LIG 0.17  C 
BRANCH 58 59
ATOM     59  C   VAL C 132      29.398   5.905  13.915  1.00 55.18 LIG 0.22  C 
ATOM     60 O    VAL C 132      29.378   6.914  13.196  1.00 55.70 LIG-0.29  OA
ENDBRANCH 58 59
BRANCH 58 61
ATOM     61  CB  VAL C 132      28.280   4.099  15.358  1.00 53.16 LIG 0.01  C 
ATOM     62  CG2 VAL C 132      27.653   4.138  16.731  1.00 49.68 LIG 0.01  C 
ATOM     63  CG1 VAL C 132      29.724   3.622  15.418  1.00 55.70 LIG 0.01  C 
ENDBRANCH 58 61
ENDBRANCH 55 58
ENDBRANCH 45 54
ENDBRANCH 42 45
ENDBRANCH 1 41
TORSDOF 29
ENDMDL
MODEL 6
USER: ADFR SOLUTION from run 60
USER: SCORE 20.977648 LL:  -2.249 LR: -20.760 RR:   0.000 FEB: -12.109
USER: RMSD 2.579458
USER: SEED 59
USER: STATUS no improvement in best in 4 clusters for 5 generations
USER: GENES 31
USER: genes 0 Translation |==|  0.51866 0.57372 0.55113
USER: genes 1 Rotation |==|  0.57882 0.57854 0.53009 0.98653
USER: genes 2 Torsion [CB]-CA--N-[C] |==|  0.34894
USER: genes 3 Torsion [N]-C--CA-[N] |==|  0.40529
USER: genes 4 Torsion [C]-CA--CB-[CG] |==|  0.45781
USER: genes 5 Torsion [CA]-CB--CG-[CD] |==|  0.67831
USER: genes 6 Torsion [CB]-CG--CD-[CE] |==|  0.55960
USER: genes 7 Torsion [CG]-CD--CE-[NZ] |==|  0.29912
USER: genes 8 Torsion [CD]-CE--NZ-[HZ3] |==|  0.24462
USER: genes 9 Torsion [C]-CA--N-[C] |==|  0.80740
USER: genes 10 Torsion [N]-C--CA-[N] |==|  0.83858
USER: genes 11 Torsion [C]-CA--CB-[CG] |==|  0.38259
USER: genes 12 Torsion [CA]-CB--CG-[CD] |==|  0.61727
USER: genes 13 Torsion [CB]-CG--CD-[CE] |==|  0.84352
USER: genes 14 Torsion [CG]-CD--CE-[NZ] |==|  0.46081
USER: genes 15 Torsion [CD]-CE--NZ-[HZ3] |==|  0.46163
USER: genes 16 Torsion [N]-CA--CB-[CG] |==|  0.89840
USER: genes 17 Torsion [CA]-CB--CG-[CD] |==|  0.57905
USER: genes 18 Torsion [CB]-CG--CD-[NE] |==|  0.64269
USER: genes 19 Torsion [CG]-CD--NE-[HE] |==|  0.92043
USER: genes 20 Torsion [N]-CA--C-[N] |==|  0.20944
USER: genes 21 Torsion [C]-N--CA-[C] |==|  0.88333
USER: genes 22 Torsion [N]-CA--CB-[CG] |==|  0.73958
USER: genes 23 Torsion [CA]-CB--CG-[CD] |==|  0.80833
USER: genes 24 Torsion [CB]-CG--CD-[CE] |==|  0.95726
USER: genes 25 Torsion [CG]-CD--CE-[NZ] |==|  0.43543
USER: genes 26 Torsion [CD]-CE--NZ-[HZ1] |==|  0.50394
USER: genes 27 Torsion [N]-CA--C-[N] |==|  0.37008
USER: genes 28 Torsion [C]-N--CA-[C] |==|  0.54306
USER: genes 29 Torsion [N]-CA--C-[O] |==|  0.08064
USER: genes 30 Torsion [N]-CA--CB-[CG2] |==|  0.62565
ROOT
ATOM      1  CA  ARG C 130      22.672   4.886  15.158  1.00 44.25 LIG 0.18  C 
ENDROOT
BRANCH 1 2
ATOM      2  N   ARG C 130      21.415   4.161  15.198  1.00 44.77 LIG-0.35  N 
ATOM      3  C   LYS C 129      20.297   4.711  15.653  1.00 47.82 LIG 0.24  C 
ATOM      4 O    LYS C 129      20.220   5.891  15.999  1.00 51.43 LIG-0.27  OA
ATOM      5 H    ARG C 130      21.465   3.354  14.904  1.00 44.77 LIG 0.16  HD
BRANCH 3 6
ATOM      6  CA  LYS C 129      19.089   3.784  15.739  1.00 47.52 LIG 0.18  C 
BRANCH 6 7
ATOM      7  CB  LYS C 129      18.288   3.849  14.448  1.00 47.19 LIG 0.04  C 
BRANCH 7 8
ATOM      8  CG  LYS C 129      17.301   2.724  14.290  1.00 46.82 LIG 0.00  C 
BRANCH 8 9
ATOM      9  CD  LYS C 129      17.625   1.833  13.115  1.00 42.25 LIG 0.03  C 
BRANCH 9 10
ATOM     10  CE  LYS C 129      16.381   1.080  12.683  1.00 38.25 LIG 0.23  C 
BRANCH 10 11
ATOM     11  NZ  LYS C 129      15.793   1.556  11.391  1.00 36.45 LIG-0.08  N 
ATOM     12 HZ3  LYS C 129      16.174   1.123  10.713  1.00 36.45 LIG 0.27  HD
ATOM     13 HZ2  LYS C 129      15.938   2.430  11.303  1.00 36.45 LIG 0.27  HD
ATOM     14 HZ1  LYS C 129      14.917   1.400  11.388  1.00 36.45 LIG 0.27  HD
ENDBRANCH 10 11
ENDBRANCH 9 10
ENDBRANCH 8 9
ENDBRANCH 7 8
ENDBRANCH 6 7
BRANCH 6 15
ATOM     15  N   LYS C 129      18.272   4.156  16.889  1.00 50.72 LIG-0.35  N 
ATOM     16 H    LYS C 129      17.511   4.505  16.689  1.00 50.72 LIG 0.16  HD
ATOM     17  C   LYS C 128      18.701   3.958  18.136  1.00 53.52 LIG 0.26  C 
ATOM     18 O    LYS C 128      19.744   3.337  18.413  1.00 51.22 LIG-0.27  OA
BRANCH 17 19
ATOM     19  CA  LYS C 128      17.811   4.513  19.254  1.00 56.35 LIG 0.40  C 
ATOM     20  N   LYS C 128      17.597   5.956  19.139  1.00 59.98 LIG 0.61  N 
BRANCH 19 21
ATOM     21  CB  LYS C 128      16.481   3.779  19.235  1.00 54.38 LIG 0.05  C 
BRANCH 21 22
ATOM     22  CG  LYS C 128      15.991   3.424  20.608  1.00 63.27 LIG 0.00  C 
BRANCH 22 23
ATOM     23  CD  LYS C 128      15.420   2.031  20.662  1.00 66.98 LIG 0.03  C 
BRANCH 23 24
ATOM     24  CE  LYS C 128      14.294   1.822  19.655  1.00 66.03 LIG 0.23  C 
BRANCH 24 25
ATOM     25  NZ  LYS C 128      13.994   0.366  19.503  1.00 67.41 LIG-0.08  N 
ATOM     26 HZ3  LYS C 128      13.219   0.265  19.077  1.00 67.41 LIG 0.27  HD
ATOM     27 HZ2  LYS C 128      13.943  -0.012  20.307  1.00 67.41 LIG 0.27  HD
ATOM     28 HZ1  LYS C 128      14.642  -0.024  19.033  1.00 67.41 LIG 0.27  HD
ENDBRANCH 24 25
ENDBRANCH 23 24
ENDBRANCH 22 23
ENDBRANCH 21 22
ENDBRANCH 19 21
ENDBRANCH 17 19
ENDBRANCH 6 15
ENDBRANCH 3 6
ENDBRANCH 1 2
BRANCH 1 29
ATOM     29  CB  ARG C 130      23.740   4.087  15.898  1.00 44.07 LIG 0.04  C 
BRANCH 29 30
ATOM     30  CG  ARG C 130      23.227   3.353  17.122  1.00 48.13 LIG 0.02  C 
BRANCH 30 31
ATOM     31  CD  ARG C 130      24.343   3.194  18.143  1.00 53.98 LIG 0.14  C 
BRANCH 31 32
ATOM     32  NE  ARG C 130      24.458   1.812  18.567  1.00 57.03 LIG-0.23  N 
ATOM     33  CZ  ARG C 130      25.577   1.231  18.984  1.00 53.36 LIG 0.67  C 
ATOM     34  NH1 ARG C 130      26.722   1.898  19.031  1.00 46.68 LIG-0.23  N 
ATOM     35  NH2 ARG C 130      25.543  -0.041  19.351  1.00 54.86 LIG-0.23  N 
ATOM     36 1HH1 ARG C 130      26.750   2.722  18.789  1.00 46.68 LIG 0.17  HD
ATOM     37 2HH1 ARG C 130      27.437   1.505  19.304  1.00 46.68 LIG 0.17  HD
ATOM     38 1HH2 ARG C 130      24.804  -0.480  19.317  1.00 54.86 LIG 0.17  HD
ATOM     39 2HH2 ARG C 130      26.261  -0.429  19.623  1.00 54.86 LIG 0.17  HD
ATOM     40 HE   ARG C 130      23.746   1.330  18.546  1.00 57.03 LIG 0.18  HD
ENDBRANCH 31 32
ENDBRANCH 30 31
ENDBRANCH 29 30
ENDBRANCH 1 29
BRANCH 1 41
ATOM     41  C   ARG C 130      23.116   5.077  13.728  1.00 43.16 LIG 0.24  C 
ATOM     42  N   LYS C 131      22.463   6.007  13.027  1.00 46.51 LIG-0.35  N 
ATOM     43 H    LYS C 131      21.806   6.460  13.349  1.00 46.51 LIG 0.16  HD
ATOM     44 O    ARG C 130      24.046   4.405  13.289  1.00 41.50 LIG-0.27  OA
BRANCH 42 45
ATOM     45  CA  LYS C 131      22.791   6.357  11.643  1.00 53.22 LIG 0.18  C 
BRANCH 45 46
ATOM     46  CB  LYS C 131      22.198   7.726  11.275  1.00 55.01 LIG 0.04  C 
BRANCH 46 47
ATOM     47  CG  LYS C 131      20.836   7.683  10.612  1.00 52.38 LIG 0.00  C 
BRANCH 47 48
ATOM     48  CD  LYS C 131      20.913   7.097   9.219  1.00 48.84 LIG 0.03  C 
BRANCH 48 49
ATOM     49  CE  LYS C 131      22.333   7.059   8.720  1.00 46.73 LIG 0.23  C 
BRANCH 49 50
ATOM     50  NZ  LYS C 131      22.445   6.021   7.674  1.00 43.41 LIG-0.08  N 
ATOM     51 HZ1  LYS C 131      23.287   5.978   7.388  1.00 43.41 LIG 0.27  HD
ATOM     52 HZ3  LYS C 131      21.911   6.227   6.992  1.00 43.41 LIG 0.27  HD
ATOM     53 HZ2  LYS C 131      22.205   5.232   8.010  1.00 43.41 LIG 0.27  HD
ENDBRANCH 49 50
ENDBRANCH 48 49
ENDBRANCH 47 48
ENDBRANCH 46 47
ENDBRANCH 45 46
BRANCH 45 54
ATOM     54  C   LYS C 131      24.294   6.432  11.441  1.00 59.91 LIG 0.24  C 
ATOM     55  N   VAL C 132      24.749   5.803  10.360  1.00 72.80 LIG-0.35  N 
ATOM     56 H    VAL C 132      24.256   5.270   9.898  1.00 72.80 LIG 0.16  HD
ATOM     57 O    LYS C 131      24.999   7.030  12.246  1.00 55.62 LIG-0.27  OA
BRANCH 55 58
ATOM     58  CA  VAL C 132      26.109   5.927   9.825  1.00 46.38 LIG 0.17  C 
BRANCH 58 59
ATOM     59  C   VAL C 132      26.214   5.397   8.394  1.00 55.18 LIG 0.22  C 
ATOM     60 O    VAL C 132      25.227   5.439   7.645  1.00 55.70 LIG-0.29  OA
ENDBRANCH 58 59
BRANCH 58 61
ATOM     61  CB  VAL C 132      27.189   5.324  10.768  1.00 53.16 LIG 0.01  C 
ATOM     62  CG2 VAL C 132      28.347   6.287  10.871  1.00 49.68 LIG 0.01  C 
ATOM     63  CG1 VAL C 132      27.649   3.946  10.313  1.00 55.70 LIG 0.01  C 
ENDBRANCH 58 61
ENDBRANCH 55 58
ENDBRANCH 45 54
ENDBRANCH 42 45
ENDBRANCH 1 41
TORSDOF 29
ENDMDL
MODEL 7
USER: ADFR SOLUTION from run 36
USER: SCORE 21.298221 LL:  -1.899 LR: -20.748 RR:   0.000 FEB: -12.097
USER: RMSD 2.006911
USER: SEED 35
USER: STATUS no improvement in best in 4 clusters for 5 generations
USER: GENES 31
USER: genes 0 Translation |==|  0.54267 0.57721 0.59407
USER: genes 1 Rotation |==|  0.42767 0.44901 0.52466 0.99149
USER: genes 2 Torsion [CB]-CA--N-[C] |==|  0.25420
USER: genes 3 Torsion [N]-C--CA-[N] |==|  0.37875
USER: genes 4 Torsion [C]-CA--CB-[CG] |==|  0.40568
USER: genes 5 Torsion [CA]-CB--CG-[CD] |==|  0.46135
USER: genes 6 Torsion [CB]-CG--CD-[CE] |==|  0.59938
USER: genes 7 Torsion [CG]-CD--CE-[NZ] |==|  0.52690
USER: genes 8 Torsion [CD]-CE--NZ-[HZ3] |==|  0.24915
USER: genes 9 Torsion [C]-CA--N-[C] |==|  0.81138
USER: genes 10 Torsion [N]-C--CA-[N] |==|  0.80252
USER: genes 11 Torsion [C]-CA--CB-[CG] |==|  0.40677
USER: genes 12 Torsion [CA]-CB--CG-[CD] |==|  0.68597
USER: genes 13 Torsion [CB]-CG--CD-[CE] |==|  0.68764
USER: genes 14 Torsion [CG]-CD--CE-[NZ] |==|  0.41293
USER: genes 15 Torsion [CD]-CE--NZ-[HZ3] |==|  0.57345
USER: genes 16 Torsion [N]-CA--CB-[CG] |==|  0.00466
USER: genes 17 Torsion [CA]-CB--CG-[CD] |==|  0.29609
USER: genes 18 Torsion [CB]-CG--CD-[NE] |==|  0.11107
USER: genes 19 Torsion [CG]-CD--NE-[HE] |==|  0.02242
USER: genes 20 Torsion [N]-CA--C-[N] |==|  0.29946
USER: genes 21 Torsion [C]-N--CA-[C] |==|  0.78003
USER: genes 22 Torsion [N]-CA--CB-[CG] |==|  0.59603
USER: genes 23 Torsion [CA]-CB--CG-[CD] |==|  0.46303
USER: genes 24 Torsion [CB]-CG--CD-[CE] |==|  0.51335
USER: genes 25 Torsion [CG]-CD--CE-[NZ] |==|  0.38513
USER: genes 26 Torsion [CD]-CE--NZ-[HZ1] |==|  0.49756
USER: genes 27 Torsion [N]-CA--C-[N] |==|  0.30556
USER: genes 28 Torsion [C]-N--CA-[C] |==|  0.71046
USER: genes 29 Torsion [N]-CA--C-[O] |==|  0.95546
USER: genes 30 Torsion [N]-CA--CB-[CG2] |==|  0.25957
ROOT
ATOM      1  CA  ARG C 130      23.320   4.941  16.092  1.00 44.25 LIG 0.18  C 
ENDROOT
BRANCH 1 2
ATOM      2  N   ARG C 130      22.110   4.171  15.866  1.00 44.77 LIG-0.35  N 
ATOM      3  C   LYS C 129      20.902   4.704  15.987  1.00 47.82 LIG 0.24  C 
ATOM      4 O    LYS C 129      20.713   5.899  16.221  1.00 51.43 LIG-0.27  OA
ATOM      5 H    ARG C 130      22.251   3.350  15.651  1.00 44.77 LIG 0.16  HD
BRANCH 3 6
ATOM      6  CA  LYS C 129      19.733   3.738  15.832  1.00 47.52 LIG 0.18  C 
BRANCH 6 7
ATOM      7  CB  LYS C 129      19.130   3.866  14.441  1.00 47.19 LIG 0.04  C 
BRANCH 7 8
ATOM      8  CG  LYS C 129      18.604   2.569  13.888  1.00 46.82 LIG 0.00  C 
BRANCH 8 9
ATOM      9  CD  LYS C 129      17.725   2.774  12.678  1.00 42.25 LIG 0.03  C 
BRANCH 9 10
ATOM     10  CE  LYS C 129      16.598   1.758  12.684  1.00 38.25 LIG 0.23  C 
BRANCH 10 11
ATOM     11  NZ  LYS C 129      15.798   1.719  11.419  1.00 36.45 LIG-0.08  N 
ATOM     12 HZ3  LYS C 129      16.163   1.135  10.855  1.00 36.45 LIG 0.27  HD
ATOM     13 HZ2  LYS C 129      15.793   2.527  11.046  1.00 36.45 LIG 0.27  HD
ATOM     14 HZ1  LYS C 129      14.963   1.472  11.602  1.00 36.45 LIG 0.27  HD
ENDBRANCH 10 11
ENDBRANCH 9 10
ENDBRANCH 8 9
ENDBRANCH 7 8
ENDBRANCH 6 7
BRANCH 6 15
ATOM     15  N   LYS C 129      18.739   4.007  16.866  1.00 50.72 LIG-0.35  N 
ATOM     16 H    LYS C 129      17.996   4.327  16.574  1.00 50.72 LIG 0.16  HD
ATOM     17  C   LYS C 128      18.995   3.764  18.153  1.00 53.52 LIG 0.26  C 
ATOM     18 O    LYS C 128      20.022   3.182  18.550  1.00 51.22 LIG-0.27  OA
BRANCH 17 19
ATOM     19  CA  LYS C 128      17.924   4.214  19.153  1.00 56.35 LIG 0.40  C 
ATOM     20  N   LYS C 128      17.859   5.669  19.292  1.00 59.98 LIG 0.61  N 
BRANCH 19 21
ATOM     21  CB  LYS C 128      16.578   3.665  18.712  1.00 54.38 LIG 0.05  C 
BRANCH 21 22
ATOM     22  CG  LYS C 128      15.681   3.324  19.866  1.00 63.27 LIG 0.00  C 
BRANCH 22 23
ATOM     23  CD  LYS C 128      15.435   1.841  19.971  1.00 66.98 LIG 0.03  C 
BRANCH 23 24
ATOM     24  CE  LYS C 128      13.987   1.467  19.670  1.00 66.03 LIG 0.23  C 
BRANCH 24 25
ATOM     25  NZ  LYS C 128      13.918   0.109  19.051  1.00 67.41 LIG-0.08  N 
ATOM     26 HZ3  LYS C 128      13.187   0.050  18.546  1.00 67.41 LIG 0.27  HD
ATOM     27 HZ2  LYS C 128      13.886  -0.508  19.692  1.00 67.41 LIG 0.27  HD
ATOM     28 HZ1  LYS C 128      14.639  -0.025  18.546  1.00 67.41 LIG 0.27  HD
ENDBRANCH 24 25
ENDBRANCH 23 24
ENDBRANCH 22 23
ENDBRANCH 21 22
ENDBRANCH 19 21
ENDBRANCH 17 19
ENDBRANCH 6 15
ENDBRANCH 3 6
ENDBRANCH 1 2
BRANCH 1 29
ATOM     29  CB  ARG C 130      23.738   4.808  17.553  1.00 44.07 LIG 0.04  C 
BRANCH 29 30
ATOM     30  CG  ARG C 130      22.841   3.902  18.374  1.00 48.13 LIG 0.02  C 
BRANCH 30 31
ATOM     31  CD  ARG C 130      23.548   2.587  18.664  1.00 53.98 LIG 0.14  C 
BRANCH 31 32
ATOM     32  NE  ARG C 130      24.948   2.813  18.968  1.00 57.03 LIG-0.23  N 
ATOM     33  CZ  ARG C 130      25.861   1.861  19.115  1.00 53.36 LIG 0.67  C 
ATOM     34  NH1 ARG C 130      25.543   0.579  19.004  1.00 46.68 LIG-0.23  N 
ATOM     35  NH2 ARG C 130      27.111   2.205  19.387  1.00 54.86 LIG-0.23  N 
ATOM     36 1HH1 ARG C 130      24.732   0.350  18.834  1.00 46.68 LIG 0.17  HD
ATOM     37 2HH1 ARG C 130      26.148  -0.024  19.102  1.00 46.68 LIG 0.17  HD
ATOM     38 1HH2 ARG C 130      27.322   3.036  19.465  1.00 54.86 LIG 0.17  HD
ATOM     39 2HH2 ARG C 130      27.713   1.599  19.484  1.00 54.86 LIG 0.17  HD
ATOM     40 HE   ARG C 130      25.206   3.628  19.061  1.00 57.03 LIG 0.18  HD
ENDBRANCH 31 32
ENDBRANCH 30 31
ENDBRANCH 29 30
ENDBRANCH 1 29
BRANCH 1 41
ATOM     41  C   ARG C 130      24.438   4.420  15.222  1.00 43.16 LIG 0.24  C 
ATOM     42  N   LYS C 131      24.793   5.194  14.193  1.00 46.51 LIG-0.35  N 
ATOM     43 H    LYS C 131      24.399   5.935  14.007  1.00 46.51 LIG 0.16  HD
ATOM     44 O    ARG C 130      24.972   3.350  15.500  1.00 41.50 LIG-0.27  OA
BRANCH 42 45
ATOM     45  CA  LYS C 131      25.886   4.867  13.274  1.00 53.22 LIG 0.18  C 
BRANCH 45 46
ATOM     46  CB  LYS C 131      25.753   5.667  11.969  1.00 55.01 LIG 0.04  C 
BRANCH 46 47
ATOM     47  CG  LYS C 131      26.206   4.941  10.717  1.00 52.38 LIG 0.00  C 
BRANCH 47 48
ATOM     48  CD  LYS C 131      25.748   5.655   9.463  1.00 48.84 LIG 0.03  C 
BRANCH 48 49
ATOM     49  CE  LYS C 131      26.099   4.869   8.228  1.00 46.73 LIG 0.23  C 
BRANCH 49 50
ATOM     50  NZ  LYS C 131      24.963   4.927   7.285  1.00 43.41 LIG-0.08  N 
ATOM     51 HZ1  LYS C 131      25.168   4.475   6.546  1.00 43.41 LIG 0.27  HD
ATOM     52 HZ3  LYS C 131      24.793   5.775   7.076  1.00 43.41 LIG 0.27  HD
ATOM     53 HZ2  LYS C 131      24.243   4.565   7.664  1.00 43.41 LIG 0.27  HD
ENDBRANCH 49 50
ENDBRANCH 48 49
ENDBRANCH 47 48
ENDBRANCH 46 47
ENDBRANCH 45 46
BRANCH 45 54
ATOM     54  C   LYS C 131      27.233   5.203  13.888  1.00 59.91 LIG 0.24  C 
ATOM     55  N   VAL C 132      27.981   4.151  14.215  1.00 72.80 LIG-0.35  N 
ATOM     56 H    VAL C 132      27.668   3.350  14.220  1.00 72.80 LIG 0.16  HD
ATOM     57 O    LYS C 131      27.563   6.370  14.063  1.00 55.62 LIG-0.27  OA
BRANCH 55 58
ATOM     58  CA  VAL C 132      29.395   4.211  14.598  1.00 46.38 LIG 0.17  C 
BRANCH 58 59
ATOM     59  C   VAL C 132      30.316   3.737  13.472  1.00 55.18 LIG 0.22  C 
ATOM     60 O    VAL C 132      29.849   3.093  12.522  1.00 55.70 LIG-0.29  OA
ENDBRANCH 58 59
BRANCH 58 61
ATOM     61  CB  VAL C 132      29.688   3.499  15.950  1.00 53.16 LIG 0.01  C 
ATOM     62  CG2 VAL C 132      30.103   2.073  15.677  1.00 49.68 LIG 0.01  C 
ATOM     63  CG1 VAL C 132      28.504   3.562  16.905  1.00 55.70 LIG 0.01  C 
ENDBRANCH 58 61
ENDBRANCH 55 58
ENDBRANCH 45 54
ENDBRANCH 42 45
ENDBRANCH 1 41
TORSDOF 29
ENDMDL
MODEL 8
USER: ADFR SOLUTION from run 13
USER: SCORE 20.572633 LL:  -1.483 LR: -20.397 RR:   0.000 FEB: -11.746
USER: RMSD 1.386507
USER: SEED 72031
USER: STATUS no improvement in best in 2 clusters for 5 generations
USER: GENES 31
USER: genes 0 Translation |==|  0.55463 0.56946 0.56816
USER: genes 1 Rotation |==|  0.47517 0.49273 0.51076 0.99921
USER: genes 2 Torsion [CB]-CA--N-[C] |==|  0.27104
USER: genes 3 Torsion [N]-C--CA-[N] |==|  0.37823
USER: genes 4 Torsion [C]-CA--CB-[CG] |==|  0.46842
USER: genes 5 Torsion [CA]-CB--CG-[CD] |==|  0.74631
USER: genes 6 Torsion [CB]-CG--CD-[CE] |==|  0.57974
USER: genes 7 Torsion [CG]-CD--CE-[NZ] |==|  0.56209
USER: genes 8 Torsion [CD]-CE--NZ-[HZ3] |==|  0.19383
USER: genes 9 Torsion [C]-CA--N-[C] |==|  0.80874
USER: genes 10 Torsion [N]-C--CA-[N] |==|  0.80665
USER: genes 11 Torsion [C]-CA--CB-[CG] |==|  0.44361
USER: genes 12 Torsion [CA]-CB--CG-[CD] |==|  0.68220
USER: genes 13 Torsion [CB]-CG--CD-[CE] |==|  0.76785
USER: genes 14 Torsion [CG]-CD--CE-[NZ] |==|  0.46771
USER: genes 15 Torsion [CD]-CE--NZ-[HZ3] |==|  0.27697
USER: genes 16 Torsion [N]-CA--CB-[CG] |==|  0.90800
USER: genes 17 Torsion [CA]-CB--CG-[CD] |==|  0.38524
USER: genes 18 Torsion [CB]-CG--CD-[NE] |==|  0.14206
USER: genes 19 Torsion [CG]-CD--NE-[HE] |==|  0.09991
USER: genes 20 Torsion [N]-CA--C-[N] |==|  0.27970
USER: genes 21 Torsion [C]-N--CA-[C] |==|  0.82221
USER: genes 22 Torsion [N]-CA--CB-[CG] |==|  0.84899
USER: genes 23 Torsion [CA]-CB--CG-[CD] |==|  0.61980
USER: genes 24 Torsion [CB]-CG--CD-[CE] |==|  0.49614
USER: genes 25 Torsion [CG]-CD--CE-[NZ] |==|  0.65279
USER: genes 26 Torsion [CD]-CE--NZ-[HZ1] |==|  0.45756
USER: genes 27 Torsion [N]-CA--C-[N] |==|  0.44926
USER: genes 28 Torsion [C]-N--CA-[C] |==|  0.74847
USER: genes 29 Torsion [N]-CA--C-[O] |==|  0.28691
USER: genes 30 Torsion [N]-CA--CB-[CG2] |==|  0.66733
ROOT
ATOM      1  CA  ARG C 130      23.643   4.819  15.529  1.00 44.25 LIG 0.18  C 
ENDROOT
BRANCH 1 2
ATOM      2  N   ARG C 130      22.356   4.162  15.389  1.00 44.77 LIG-0.35  N 
ATOM      3  C   LYS C 129      21.219   4.762  15.713  1.00 47.82 LIG 0.24  C 
ATOM      4 O    LYS C 129      21.157   5.938  16.079  1.00 51.43 LIG-0.27  OA
ATOM      5 H    ARG C 130      22.402   3.359  15.083  1.00 44.77 LIG 0.16  HD
BRANCH 3 6
ATOM      6  CA  LYS C 129      19.964   3.901  15.620  1.00 47.52 LIG 0.18  C 
BRANCH 6 7
ATOM      7  CB  LYS C 129      19.208   4.214  14.338  1.00 47.19 LIG 0.04  C 
BRANCH 7 8
ATOM      8  CG  LYS C 129      18.111   3.232  14.026  1.00 46.82 LIG 0.00  C 
BRANCH 8 9
ATOM      9  CD  LYS C 129      18.587   2.093  13.157  1.00 42.25 LIG 0.03  C 
BRANCH 9 10
ATOM     10  CE  LYS C 129      17.435   1.573  12.318  1.00 38.25 LIG 0.23  C 
BRANCH 10 11
ATOM     11  NZ  LYS C 129      17.615   0.167  11.832  1.00 36.45 LIG-0.08  N 
ATOM     12 HZ3  LYS C 129      17.556  -0.394  12.520  1.00 36.45 LIG 0.27  HD
ATOM     13 HZ2  LYS C 129      18.415   0.086  11.450  1.00 36.45 LIG 0.27  HD
ATOM     14 HZ1  LYS C 129      16.982  -0.025  11.237  1.00 36.45 LIG 0.27  HD
ENDBRANCH 10 11
ENDBRANCH 9 10
ENDBRANCH 8 9
ENDBRANCH 7 8
ENDBRANCH 6 7
BRANCH 6 15
ATOM     15  N   LYS C 129      19.130   4.128  16.795  1.00 50.72 LIG-0.35  N 
ATOM     16 H    LYS C 129      18.391   4.539  16.635  1.00 50.72 LIG 0.16  HD
ATOM     17  C   LYS C 128      19.513   3.718  18.006  1.00 53.52 LIG 0.26  C 
ATOM     18 O    LYS C 128      20.520   3.013  18.206  1.00 51.22 LIG-0.27  OA
BRANCH 17 19
ATOM     19  CA  LYS C 128      18.615   4.135  19.177  1.00 56.35 LIG 0.40  C 
ATOM     20  N   LYS C 128      18.678   5.571  19.452  1.00 59.98 LIG 0.61  N 
BRANCH 19 21
ATOM     21  CB  LYS C 128      17.186   3.718  18.873  1.00 54.38 LIG 0.05  C 
BRANCH 21 22
ATOM     22  CG  LYS C 128      16.331   3.629  20.103  1.00 63.27 LIG 0.00  C 
BRANCH 22 23
ATOM     23  CD  LYS C 128      15.885   2.217  20.381  1.00 66.98 LIG 0.03  C 
BRANCH 23 24
ATOM     24  CE  LYS C 128      14.646   1.828  19.581  1.00 66.03 LIG 0.23  C 
BRANCH 24 25
ATOM     25  NZ  LYS C 128      14.409   0.356  19.671  1.00 67.41 LIG-0.08  N 
ATOM     26 HZ3  LYS C 128      13.778   0.193  20.277  1.00 67.41 LIG 0.27  HD
ATOM     27 HZ2  LYS C 128      15.163  -0.052  19.911  1.00 67.41 LIG 0.27  HD
ATOM     28 HZ1  LYS C 128      14.145   0.048  18.879  1.00 67.41 LIG 0.27  HD
ENDBRANCH 24 25
ENDBRANCH 23 24
ENDBRANCH 22 23
ENDBRANCH 21 22
ENDBRANCH 19 21
ENDBRANCH 17 19
ENDBRANCH 6 15
ENDBRANCH 3 6
ENDBRANCH 1 2
BRANCH 1 29
ATOM     29  CB  ARG C 130      24.290   4.389  16.841  1.00 44.07 LIG 0.04  C 
BRANCH 29 30
ATOM     30  CG  ARG C 130      23.302   4.123  17.961  1.00 48.13 LIG 0.02  C 
BRANCH 30 31
ATOM     31  CD  ARG C 130      23.712   2.883  18.738  1.00 53.98 LIG 0.14  C 
BRANCH 31 32
ATOM     32  NE  ARG C 130      25.102   2.966  19.143  1.00 57.03 LIG-0.23  N 
ATOM     33  CZ  ARG C 130      25.944   1.942  19.200  1.00 53.36 LIG 0.67  C 
ATOM     34  NH1 ARG C 130      25.555   0.712  18.892  1.00 46.68 LIG-0.23  N 
ATOM     35  NH2 ARG C 130      27.195   2.157  19.581  1.00 54.86 LIG-0.23  N 
ATOM     36 1HH1 ARG C 130      24.743   0.567  18.650  1.00 46.68 LIG 0.17  HD
ATOM     37 2HH1 ARG C 130      26.115   0.061  18.935  1.00 46.68 LIG 0.17  HD
ATOM     38 1HH2 ARG C 130      27.451   2.952  19.787  1.00 54.86 LIG 0.17  HD
ATOM     39 2HH2 ARG C 130      27.750   1.502  19.623  1.00 54.86 LIG 0.17  HD
ATOM     40 HE   ARG C 130      25.405   3.740  19.363  1.00 57.03 LIG 0.18  HD
ENDBRANCH 31 32
ENDBRANCH 30 31
ENDBRANCH 29 30
ENDBRANCH 1 29
BRANCH 1 41
ATOM     41  C   ARG C 130      24.553   4.425  14.391  1.00 43.16 LIG 0.24  C 
ATOM     42  N   LYS C 131      24.673   5.310  13.398  1.00 46.51 LIG-0.35  N 
ATOM     43 H    LYS C 131      24.240   6.054  13.379  1.00 46.51 LIG 0.16  HD
ATOM     44 O    ARG C 130      25.145   3.350  14.435  1.00 41.50 LIG-0.27  OA
BRANCH 42 45
ATOM     45  CA  LYS C 131      25.547   5.114  12.239  1.00 53.22 LIG 0.18  C 
BRANCH 45 46
ATOM     46  CB  LYS C 131      25.387   6.269  11.239  1.00 55.01 LIG 0.04  C 
BRANCH 46 47
ATOM     47  CG  LYS C 131      23.967   6.536  10.779  1.00 52.38 LIG 0.00  C 
BRANCH 47 48
ATOM     48  CD  LYS C 131      23.902   6.787   9.288  1.00 48.84 LIG 0.03  C 
BRANCH 48 49
ATOM     49  CE  LYS C 131      22.486   7.017   8.834  1.00 46.73 LIG 0.23  C 
BRANCH 49 50
ATOM     50  NZ  LYS C 131      22.168   6.062   7.752  1.00 43.41 LIG-0.08  N 
ATOM     51 HZ1  LYS C 131      21.287   6.034   7.630  1.00 43.41 LIG 0.27  HD
ATOM     52 HZ3  LYS C 131      22.461   5.251   7.975  1.00 43.41 LIG 0.27  HD
ATOM     53 HZ2  LYS C 131      22.564   6.323   6.999  1.00 43.41 LIG 0.27  HD
ENDBRANCH 49 50
ENDBRANCH 48 49
ENDBRANCH 47 48
ENDBRANCH 46 47
ENDBRANCH 45 46
BRANCH 45 54
ATOM     54  C   LYS C 131      27.005   5.062  12.659  1.00 59.91 LIG 0.24  C 
ATOM     55  N   VAL C 132      27.829   4.519  11.765  1.00 72.80 LIG-0.35  N 
ATOM     56 H    VAL C 132      27.541   4.094  11.074  1.00 72.80 LIG 0.16  HD
ATOM     57 O    LYS C 131      27.352   5.490  13.753  1.00 55.62 LIG-0.27  OA
BRANCH 55 58
ATOM     58  CA  VAL C 132      29.293   4.567  11.833  1.00 46.38 LIG 0.17  C 
BRANCH 58 59
ATOM     59  C   VAL C 132      29.861   5.788  11.107  1.00 55.18 LIG 0.22  C 
ATOM     60 O    VAL C 132      30.260   6.764  11.758  1.00 55.70 LIG-0.29  OA
ENDBRANCH 58 59
BRANCH 58 61
ATOM     61  CB  VAL C 132      29.965   3.238  11.384  1.00 53.16 LIG 0.01  C 
ATOM     62  CG2 VAL C 132      30.776   2.684  12.531  1.00 49.68 LIG 0.01  C 
ATOM     63  CG1 VAL C 132      30.814   3.412  10.134  1.00 55.70 LIG 0.01  C 
ENDBRANCH 58 61
ENDBRANCH 55 58
ENDBRANCH 45 54
ENDBRANCH 42 45
ENDBRANCH 1 41
TORSDOF 29
ENDMDL
MODEL 9
USER: ADFR SOLUTION from run 175
USER: SCORE 20.797570 LL:  -1.750 LR: -20.368 RR:   0.000 FEB: -11.718
USER: RMSD 4.382754
USER: SEED 174
USER: STATUS no improvement in best in 3 clusters for 5 generations
USER: GENES 31
USER: genes 0 Translation |==|  0.58837 0.57325 0.57248
USER: genes 1 Rotation |==|  0.49745 0.60027 0.48643 0.98965
USER: genes 2 Torsion [CB]-CA--N-[C] |==|  0.22977
USER: genes 3 Torsion [N]-C--CA-[N] |==|  0.89268
USER: genes 4 Torsion [C]-CA--CB-[CG] |==|  0.03903
USER: genes 5 Torsion [CA]-CB--CG-[CD] |==|  0.68259
USER: genes 6 Torsion [CB]-CG--CD-[CE] |==|  0.49672
USER: genes 7 Torsion [CG]-CD--CE-[NZ] |==|  0.43017
USER: genes 8 Torsion [CD]-CE--NZ-[HZ3] |==|  0.96454
USER: genes 9 Torsion [C]-CA--N-[C] |==|  0.80728
USER: genes 10 Torsion [N]-C--CA-[N] |==|  0.75400
USER: genes 11 Torsion [C]-CA--CB-[CG] |==|  0.49449
USER: genes 12 Torsion [CA]-CB--CG-[CD] |==|  0.63663
USER: genes 13 Torsion [CB]-CG--CD-[CE] |==|  0.53406
USER: genes 14 Torsion [CG]-CD--CE-[NZ] |==|  0.70329
USER: genes 15 Torsion [CD]-CE--NZ-[HZ3] |==|  0.24853
USER: genes 16 Torsion [N]-CA--CB-[CG] |==|  0.66006
USER: genes 17 Torsion [CA]-CB--CG-[CD] |==|  0.46544
USER: genes 18 Torsion [CB]-CG--CD-[NE] |==|  0.16877
USER: genes 19 Torsion [CG]-CD--NE-[HE] |==|  0.03105
USER: genes 20 Torsion [N]-CA--C-[N] |==|  0.30328
USER: genes 21 Torsion [C]-N--CA-[C] |==|  0.84079
USER: genes 22 Torsion [N]-CA--CB-[CG] |==|  0.80129
USER: genes 23 Torsion [CA]-CB--CG-[CD] |==|  0.84307
USER: genes 24 Torsion [CB]-CG--CD-[CE] |==|  0.64836
USER: genes 25 Torsion [CG]-CD--CE-[NZ] |==|  0.39145
USER: genes 26 Torsion [CD]-CE--NZ-[HZ1] |==|  0.69006
USER: genes 27 Torsion [N]-CA--C-[N] |==|  0.86111
USER: genes 28 Torsion [C]-N--CA-[C] |==|  0.11824
USER: genes 29 Torsion [N]-CA--C-[O] |==|  0.36780
USER: genes 30 Torsion [N]-CA--CB-[CG2] |==|  0.77926
ROOT
ATOM      1  CA  ARG C 130      24.554   4.879  15.622  1.00 44.25 LIG 0.18  C 
ENDROOT
BRANCH 1 2
ATOM      2  N   ARG C 130      23.250   4.366  16.002  1.00 44.77 LIG-0.35  N 
ATOM      3  C   LYS C 129      22.558   4.877  17.012  1.00 47.82 LIG 0.24  C 
ATOM      4 O    LYS C 129      22.927   5.864  17.651  1.00 51.43 LIG-0.27  OA
ATOM      5 H    ARG C 130      22.974   3.711  15.518  1.00 44.77 LIG 0.16  HD
BRANCH 3 6
ATOM      6  CA  LYS C 129      21.261   4.155  17.359  1.00 47.52 LIG 0.18  C 
BRANCH 6 7
ATOM      7  CB  LYS C 129      21.547   2.975  18.274  1.00 47.19 LIG 0.04  C 
BRANCH 7 8
ATOM      8  CG  LYS C 129      22.926   2.996  18.876  1.00 46.82 LIG 0.00  C 
BRANCH 8 9
ATOM      9  CD  LYS C 129      23.785   1.852  18.391  1.00 42.25 LIG 0.03  C 
BRANCH 9 10
ATOM     10  CE  LYS C 129      25.166   1.948  19.011  1.00 38.25 LIG 0.23  C 
BRANCH 10 11
ATOM     11  NZ  LYS C 129      25.889   0.640  19.105  1.00 36.45 LIG-0.08  N 
ATOM     12 HZ3  LYS C 129      25.320  -0.026  18.948  1.00 36.45 LIG 0.27  HD
ATOM     13 HZ2  LYS C 129      26.234   0.550  19.920  1.00 36.45 LIG 0.27  HD
ATOM     14 HZ1  LYS C 129      26.544   0.618  18.502  1.00 36.45 LIG 0.27  HD
ENDBRANCH 10 11
ENDBRANCH 9 10
ENDBRANCH 8 9
ENDBRANCH 7 8
ENDBRANCH 6 7
BRANCH 6 15
ATOM     15  N   LYS C 129      20.600   3.725  16.131  1.00 50.72 LIG-0.35  N 
ATOM     16 H    LYS C 129      20.595   2.874  16.007  1.00 50.72 LIG 0.16  HD
ATOM     17  C   LYS C 128      20.058   4.608  15.290  1.00 53.52 LIG 0.26  C 
ATOM     18 O    LYS C 128      19.958   5.823  15.542  1.00 51.22 LIG-0.27  OA
BRANCH 17 19
ATOM     19  CA  LYS C 128      19.515   4.042  13.973  1.00 56.35 LIG 0.40  C 
ATOM     20  N   LYS C 128      20.530   3.993  12.920  1.00 59.98 LIG 0.61  N 
BRANCH 19 21
ATOM     21  CB  LYS C 128      18.951   2.655  14.228  1.00 54.38 LIG 0.05  C 
BRANCH 21 22
ATOM     22  CG  LYS C 128      18.350   2.035  13.001  1.00 63.27 LIG 0.00  C 
BRANCH 22 23
ATOM     23  CD  LYS C 128      16.974   1.480  13.264  1.00 66.98 LIG 0.03  C 
BRANCH 23 24
ATOM     24  CE  LYS C 128      16.476   0.593  12.128  1.00 66.03 LIG 0.23  C 
BRANCH 24 25
ATOM     25  NZ  LYS C 128      15.415   1.295  11.345  1.00 67.41 LIG-0.08  N 
ATOM     26 HZ3  LYS C 128      15.792   1.761  10.686  1.00 67.41 LIG 0.27  HD
ATOM     27 HZ2  LYS C 128      14.967   1.848  11.880  1.00 67.41 LIG 0.27  HD
ATOM     28 HZ1  LYS C 128      14.854   0.696  11.000  1.00 67.41 LIG 0.27  HD
ENDBRANCH 24 25
ENDBRANCH 23 24
ENDBRANCH 22 23
ENDBRANCH 21 22
ENDBRANCH 19 21
ENDBRANCH 17 19
ENDBRANCH 6 15
ENDBRANCH 3 6
ENDBRANCH 1 2
BRANCH 1 29
ATOM     29  CB  ARG C 130      25.620   4.257  16.518  1.00 44.07 LIG 0.04  C 
BRANCH 29 30
ATOM     30  CG  ARG C 130      26.453   5.267  17.283  1.00 48.13 LIG 0.02  C 
BRANCH 30 31
ATOM     31  CD  ARG C 130      27.265   4.568  18.362  1.00 53.98 LIG 0.14  C 
BRANCH 31 32
ATOM     32  NE  ARG C 130      28.171   3.598  17.776  1.00 57.03 LIG-0.23  N 
ATOM     33  CZ  ARG C 130      28.856   2.686  18.454  1.00 53.36 LIG 0.67  C 
ATOM     34  NH1 ARG C 130      28.769   2.600  19.774  1.00 46.68 LIG-0.23  N 
ATOM     35  NH2 ARG C 130      29.646   1.852  17.793  1.00 54.86 LIG-0.23  N 
ATOM     36 1HH1 ARG C 130      28.262   3.143  20.208  1.00 46.68 LIG 0.17  HD
ATOM     37 2HH1 ARG C 130      29.221   2.002  20.197  1.00 46.68 LIG 0.17  HD
ATOM     38 1HH2 ARG C 130      29.710   1.907  16.937  1.00 54.86 LIG 0.17  HD
ATOM     39 2HH2 ARG C 130      30.095   1.256  18.220  1.00 54.86 LIG 0.17  HD
ATOM     40 HE   ARG C 130      28.272   3.616  16.922  1.00 57.03 LIG 0.18  HD
ENDBRANCH 31 32
ENDBRANCH 30 31
ENDBRANCH 29 30
ENDBRANCH 1 29
BRANCH 1 41
ATOM     41  C   ARG C 130      24.857   4.517  14.189  1.00 43.16 LIG 0.24  C 
ATOM     42  N   LYS C 131      24.843   5.523  13.311  1.00 46.51 LIG-0.35  N 
ATOM     43 H    LYS C 131      24.647   6.332  13.530  1.00 46.51 LIG 0.16  HD
ATOM     44 O    ARG C 130      25.118   3.352  13.902  1.00 41.50 LIG-0.27  OA
BRANCH 42 45
ATOM     45  CA  LYS C 131      25.159   5.363  11.890  1.00 53.22 LIG 0.18  C 
BRANCH 45 46
ATOM     46  CB  LYS C 131      25.126   6.721  11.171  1.00 55.01 LIG 0.04  C 
BRANCH 46 47
ATOM     47  CG  LYS C 131      23.745   7.318  10.981  1.00 52.38 LIG 0.00  C 
BRANCH 47 48
ATOM     48  CD  LYS C 131      22.828   6.374  10.235  1.00 48.84 LIG 0.03  C 
BRANCH 48 49
ATOM     49  CE  LYS C 131      22.209   7.046   9.039  1.00 46.73 LIG 0.23  C 
BRANCH 49 50
ATOM     50  NZ  LYS C 131      22.157   6.081   7.921  1.00 43.41 LIG-0.08  N 
ATOM     51 HZ1  LYS C 131      22.722   6.335   7.283  1.00 43.41 LIG 0.27  HD
ATOM     52 HZ3  LYS C 131      21.330   6.053   7.590  1.00 43.41 LIG 0.27  HD
ATOM     53 HZ2  LYS C 131      22.385   5.272   8.215  1.00 43.41 LIG 0.27  HD
ENDBRANCH 49 50
ENDBRANCH 48 49
ENDBRANCH 47 48
ENDBRANCH 46 47
ENDBRANCH 45 46
BRANCH 45 54
ATOM     54  C   LYS C 131      26.545   4.772  11.703  1.00 59.91 LIG 0.24  C 
ATOM     55  N   VAL C 132      27.513   5.379  12.387  1.00 72.80 LIG-0.35  N 
ATOM     56 H    VAL C 132      27.391   6.134  12.781  1.00 72.80 LIG 0.16  HD
ATOM     57 O    LYS C 131      26.716   3.814  10.958  1.00 55.62 LIG-0.27  OA
BRANCH 55 58
ATOM     58  CA  VAL C 132      28.874   4.860  12.558  1.00 46.38 LIG 0.17  C 
BRANCH 58 59
ATOM     59  C   VAL C 132      29.433   4.277  11.260  1.00 55.18 LIG 0.22  C 
ATOM     60 O    VAL C 132      30.573   4.587  10.883  1.00 55.70 LIG-0.29  OA
ENDBRANCH 58 59
BRANCH 58 61
ATOM     61  CB  VAL C 132      29.002   3.880  13.759  1.00 53.16 LIG 0.01  C 
ATOM     62  CG2 VAL C 132      29.093   4.678  15.039  1.00 49.68 LIG 0.01  C 
ATOM     63  CG1 VAL C 132      30.182   2.932  13.609  1.00 55.70 LIG 0.01  C 
ENDBRANCH 58 61
ENDBRANCH 55 58
ENDBRANCH 45 54
ENDBRANCH 42 45
ENDBRANCH 1 41
TORSDOF 29
ENDMDL
MODEL 10
USER: ADFR SOLUTION from run 173
USER: SCORE 20.937877 LL:  -1.952 LR: -20.335 RR:   0.000 FEB: -11.685
USER: RMSD 2.460489
USER: SEED 172
USER: STATUS searching
USER: GENES 31
USER: genes 0 Translation |==|  0.54669 0.57962 0.56797
USER: genes 1 Rotation |==|  0.45668 0.49394 0.53667 0.99673
USER: genes 2 Torsion [CB]-CA--N-[C] |==|  0.28821
USER: genes 3 Torsion [N]-C--CA-[N] |==|  0.37465
USER: genes 4 Torsion [C]-CA--CB-[CG] |==|  0.41521
USER: genes 5 Torsion [CA]-CB--CG-[CD] |==|  0.47988
USER: genes 6 Torsion [CB]-CG--CD-[CE] |==|  0.58326
USER: genes 7 Torsion [CG]-CD--CE-[NZ] |==|  0.46527
USER: genes 8 Torsion [CD]-CE--NZ-[HZ3] |==|  0.08864
USER: genes 9 Torsion [C]-CA--N-[C] |==|  0.79859
USER: genes 10 Torsion [N]-C--CA-[N] |==|  0.25285
USER: genes 11 Torsion [C]-CA--CB-[CG] |==|  0.38200
USER: genes 12 Torsion [CA]-CB--CG-[CD] |==|  0.38284
USER: genes 13 Torsion [CB]-CG--CD-[CE] |==|  0.48034
USER: genes 14 Torsion [CG]-CD--CE-[NZ] |==|  0.50314
USER: genes 15 Torsion [CD]-CE--NZ-[HZ3] |==|  0.50223
USER: genes 16 Torsion [N]-CA--CB-[CG] |==|  0.93509
USER: genes 17 Torsion [CA]-CB--CG-[CD] |==|  0.34779
USER: genes 18 Torsion [CB]-CG--CD-[NE] |==|  0.13122
USER: genes 19 Torsion [CG]-CD--NE-[HE] |==|  0.05258
USER: genes 20 Torsion [N]-CA--C-[N] |==|  0.29511
USER: genes 21 Torsion [C]-N--CA-[C] |==|  0.82650
USER: genes 22 Torsion [N]-CA--CB-[CG] |==|  0.63458
USER: genes 23 Torsion [CA]-CB--CG-[CD] |==|  0.88710
USER: genes 24 Torsion [CB]-CG--CD-[CE] |==|  0.57101
USER: genes 25 Torsion [CG]-CD--CE-[NZ] |==|  0.85811
USER: genes 26 Torsion [CD]-CE--NZ-[HZ1] |==|  0.25007
USER: genes 27 Torsion [N]-CA--C-[N] |==|  0.41959
USER: genes 28 Torsion [C]-N--CA-[C] |==|  0.82504
USER: genes 29 Torsion [N]-CA--C-[O] |==|  0.92753
USER: genes 30 Torsion [N]-CA--CB-[CG2] |==|  0.63320
ROOT
ATOM      1  CA  ARG C 130      23.429   4.979  15.524  1.00 44.25 LIG 0.18  C 
ENDROOT
BRANCH 1 2
ATOM      2  N   ARG C 130      22.215   4.186  15.451  1.00 44.77 LIG-0.35  N 
ATOM      3  C   LYS C 129      21.013   4.718  15.625  1.00 47.82 LIG 0.24  C 
ATOM      4 O    LYS C 129      20.827   5.926  15.782  1.00 51.43 LIG-0.27  OA
ATOM      5 H    ARG C 130      22.349   3.352  15.287  1.00 44.77 LIG 0.16  HD
BRANCH 3 6
ATOM      6  CA  LYS C 129      19.848   3.734  15.632  1.00 47.52 LIG 0.18  C 
BRANCH 6 7
ATOM      7  CB  LYS C 129      19.117   3.779  14.299  1.00 47.19 LIG 0.04  C 
BRANCH 7 8
ATOM      8  CG  LYS C 129      18.490   2.467  13.908  1.00 46.82 LIG 0.00  C 
BRANCH 8 9
ATOM      9  CD  LYS C 129      17.629   2.586  12.674  1.00 42.25 LIG 0.03  C 
BRANCH 9 10
ATOM     10  CE  LYS C 129      16.504   1.570  12.732  1.00 38.25 LIG 0.23  C 
BRANCH 10 11
ATOM     11  NZ  LYS C 129      15.425   1.788  11.718  1.00 36.45 LIG-0.08  N 
ATOM     12 HZ3  LYS C 129      15.777   2.144  10.981  1.00 36.45 LIG 0.27  HD
ATOM     13 HZ2  LYS C 129      14.812   2.341  12.051  1.00 36.45 LIG 0.27  HD
ATOM     14 HZ1  LYS C 129      15.044   1.009  11.517  1.00 36.45 LIG 0.27  HD
ENDBRANCH 10 11
ENDBRANCH 9 10
ENDBRANCH 8 9
ENDBRANCH 7 8
ENDBRANCH 6 7
BRANCH 6 15
ATOM     15  N   LYS C 129      18.951   4.052  16.738  1.00 50.72 LIG-0.35  N 
ATOM     16 H    LYS C 129      18.203   4.407  16.502  1.00 50.72 LIG 0.16  HD
ATOM     17  C   LYS C 128      19.294   3.799  18.003  1.00 53.52 LIG 0.26  C 
ATOM     18 O    LYS C 128      20.319   3.170  18.323  1.00 51.22 LIG-0.27  OA
BRANCH 17 19
ATOM     19  CA  LYS C 128      18.325   4.302  19.080  1.00 56.35 LIG 0.40  C 
ATOM     20  N   LYS C 128      17.316   3.305  19.440  1.00 59.98 LIG 0.61  N 
BRANCH 19 21
ATOM     21  CB  LYS C 128      19.124   4.711  20.307  1.00 54.38 LIG 0.05  C 
BRANCH 21 22
ATOM     22  CG  LYS C 128      18.641   5.994  20.915  1.00 63.27 LIG 0.00  C 
BRANCH 22 23
ATOM     23  CD  LYS C 128      18.598   5.926  22.420  1.00 66.98 LIG 0.03  C 
BRANCH 23 24
ATOM     24  CE  LYS C 128      18.276   7.274  23.056  1.00 66.03 LIG 0.23  C 
BRANCH 24 25
ATOM     25  NZ  LYS C 128      18.272   7.159  24.546  1.00 67.41 LIG-0.08  N 
ATOM     26 HZ3  LYS C 128      18.071   7.949  24.904  1.00 67.41 LIG 0.27  HD
ATOM     27 HZ2  LYS C 128      19.077   6.903  24.826  1.00 67.41 LIG 0.27  HD
ATOM     28 HZ1  LYS C 128      17.666   6.558  24.797  1.00 67.41 LIG 0.27  HD
ENDBRANCH 24 25
ENDBRANCH 23 24
ENDBRANCH 22 23
ENDBRANCH 21 22
ENDBRANCH 19 21
ENDBRANCH 17 19
ENDBRANCH 6 15
ENDBRANCH 3 6
ENDBRANCH 1 2
BRANCH 1 29
ATOM     29  CB  ARG C 130      24.122   4.719  16.858  1.00 44.07 LIG 0.04  C 
BRANCH 29 30
ATOM     30  CG  ARG C 130      23.197   4.213  17.948  1.00 48.13 LIG 0.02  C 
BRANCH 30 31
ATOM     31  CD  ARG C 130      23.728   2.909  18.522  1.00 53.98 LIG 0.14  C 
BRANCH 31 32
ATOM     32  NE  ARG C 130      25.144   3.015  18.816  1.00 57.03 LIG-0.23  N 
ATOM     33  CZ  ARG C 130      25.969   1.988  18.982  1.00 53.36 LIG 0.67  C 
ATOM     34  NH1 ARG C 130      25.537   0.737  18.902  1.00 46.68 LIG-0.23  N 
ATOM     35  NH2 ARG C 130      27.247   2.225  19.241  1.00 54.86 LIG-0.23  N 
ATOM     36 1HH1 ARG C 130      24.707   0.579  18.739  1.00 46.68 LIG 0.17  HD
ATOM     37 2HH1 ARG C 130      26.086   0.085  19.012  1.00 46.68 LIG 0.17  HD
ATOM     38 1HH2 ARG C 130      27.531   3.035  19.300  1.00 54.86 LIG 0.17  HD
ATOM     39 2HH2 ARG C 130      27.791   1.569  19.351  1.00 54.86 LIG 0.17  HD
ATOM     40 HE   ARG C 130      25.475   3.805  18.890  1.00 57.03 LIG 0.18  HD
ENDBRANCH 31 32
ENDBRANCH 30 31
ENDBRANCH 29 30
ENDBRANCH 1 29
BRANCH 1 41
ATOM     41  C   ARG C 130      24.370   4.594  14.409  1.00 43.16 LIG 0.24  C 
ATOM     42  N   LYS C 131      24.479   5.466  13.403  1.00 46.51 LIG-0.35  N 
ATOM     43 H    LYS C 131      24.025   6.196  13.365  1.00 46.51 LIG 0.16  HD
ATOM     44 O    ARG C 130      24.993   3.539  14.481  1.00 41.50 LIG-0.27  OA
BRANCH 42 45
ATOM     45  CA  LYS C 131      25.378   5.278  12.262  1.00 53.22 LIG 0.18  C 
BRANCH 45 46
ATOM     46  CB  LYS C 131      25.229   6.431  11.258  1.00 55.01 LIG 0.04  C 
BRANCH 46 47
ATOM     47  CG  LYS C 131      25.062   6.012   9.811  1.00 52.38 LIG 0.00  C 
BRANCH 47 48
ATOM     48  CD  LYS C 131      25.970   4.853   9.460  1.00 48.84 LIG 0.03  C 
BRANCH 48 49
ATOM     49  CE  LYS C 131      26.282   4.831   7.987  1.00 46.73 LIG 0.23  C 
BRANCH 49 50
ATOM     50  NZ  LYS C 131      25.016   4.911   7.228  1.00 43.41 LIG-0.08  N 
ATOM     51 HZ1  LYS C 131      24.816   5.764   7.074  1.00 43.41 LIG 0.27  HD
ATOM     52 HZ3  LYS C 131      24.362   4.534   7.700  1.00 43.41 LIG 0.27  HD
ATOM     53 HZ2  LYS C 131      25.107   4.483   6.453  1.00 43.41 LIG 0.27  HD
ENDBRANCH 49 50
ENDBRANCH 48 49
ENDBRANCH 47 48
ENDBRANCH 46 47
ENDBRANCH 45 46
BRANCH 45 54
ATOM     54  C   LYS C 131      26.828   5.239  12.711  1.00 59.91 LIG 0.24  C 
ATOM     55  N   VAL C 132      27.636   4.510  11.944  1.00 72.80 LIG-0.35  N 
ATOM     56 H    VAL C 132      27.336   3.983  11.334  1.00 72.80 LIG 0.16  HD
ATOM     57 O    LYS C 131      27.183   5.839  13.719  1.00 55.62 LIG-0.27  OA
BRANCH 55 58
ATOM     58  CA  VAL C 132      29.100   4.507  12.029  1.00 46.38 LIG 0.17  C 
BRANCH 58 59
ATOM     59  C   VAL C 132      29.697   5.877  11.701  1.00 55.18 LIG 0.22  C 
ATOM     60 O    VAL C 132      29.078   6.662  10.968  1.00 55.70 LIG-0.29  OA
ENDBRANCH 58 59
BRANCH 58 61
ATOM     61  CB  VAL C 132      29.752   3.358  11.208  1.00 53.16 LIG 0.01  C 
ATOM     62  CG2 VAL C 132      30.775   2.656  12.070  1.00 49.68 LIG 0.01  C 
ATOM     63  CG1 VAL C 132      30.365   3.852   9.906  1.00 55.70 LIG 0.01  C 
ENDBRANCH 58 61
ENDBRANCH 55 58
ENDBRANCH 45 54
ENDBRANCH 42 45
ENDBRANCH 1 41
TORSDOF 29
ENDMDL
MODEL 11
USER: ADFR SOLUTION from run 181
USER: SCORE 19.882210 LL:  -1.670 LR: -20.210 RR:   0.000 FEB: -11.559
USER: RMSD 3.371007
USER: SEED 180
USER: STATUS no improvement in best in 6 clusters for 5 generations
USER: GENES 31
USER: genes 0 Translation |==|  0.54457 0.58735 0.57994
USER: genes 1 Rotation |==|  0.47892 0.48006 0.54408 0.99721
USER: genes 2 Torsion [CB]-CA--N-[C] |==|  0.26667
USER: genes 3 Torsion [N]-C--CA-[N] |==|  0.40733
USER: genes 4 Torsion [C]-CA--CB-[CG] |==|  0.44431
USER: genes 5 Torsion [CA]-CB--CG-[CD] |==|  0.42340
USER: genes 6 Torsion [CB]-CG--CD-[CE] |==|  0.54476
USER: genes 7 Torsion [CG]-CD--CE-[NZ] |==|  0.51530
USER: genes 8 Torsion [CD]-CE--NZ-[HZ3] |==|  0.09465
USER: genes 9 Torsion [C]-CA--N-[C] |==|  0.82408
USER: genes 10 Torsion [N]-C--CA-[N] |==|  0.78856
USER: genes 11 Torsion [C]-CA--CB-[CG] |==|  0.42440
USER: genes 12 Torsion [CA]-CB--CG-[CD] |==|  0.68082
USER: genes 13 Torsion [CB]-CG--CD-[CE] |==|  0.68006
USER: genes 14 Torsion [CG]-CD--CE-[NZ] |==|  0.41320
USER: genes 15 Torsion [CD]-CE--NZ-[HZ3] |==|  0.90715
USER: genes 16 Torsion [N]-CA--CB-[CG] |==|  0.93986
USER: genes 17 Torsion [CA]-CB--CG-[CD] |==|  0.35361
USER: genes 18 Torsion [CB]-CG--CD-[NE] |==|  0.10555
USER: genes 19 Torsion [CG]-CD--NE-[HE] |==|  0.03700
USER: genes 20 Torsion [N]-CA--C-[N] |==|  0.40741
USER: genes 21 Torsion [C]-N--CA-[C] |==|  0.22480
USER: genes 22 Torsion [N]-CA--CB-[CG] |==|  0.60804
USER: genes 23 Torsion [CA]-CB--CG-[CD] |==|  0.76356
USER: genes 24 Torsion [CB]-CG--CD-[CE] |==|  0.39319
USER: genes 25 Torsion [CG]-CD--CE-[NZ] |==|  0.56574
USER: genes 26 Torsion [CD]-CE--NZ-[HZ1] |==|  0.58277
USER: genes 27 Torsion [N]-CA--C-[N] |==|  0.43511
USER: genes 28 Torsion [C]-N--CA-[C] |==|  0.21914
USER: genes 29 Torsion [N]-CA--C-[O] |==|  0.22063
USER: genes 30 Torsion [N]-CA--CB-[CG2] |==|  0.85697
ROOT
ATOM      1  CA  ARG C 130      23.371   5.101  15.785  1.00 44.25 LIG 0.18  C 
ENDROOT
BRANCH 1 2
ATOM      2  N   ARG C 130      22.193   4.278  15.581  1.00 44.77 LIG-0.35  N 
ATOM      3  C   LYS C 129      20.975   4.702  15.889  1.00 47.82 LIG 0.24  C 
ATOM      4 O    LYS C 129      20.740   5.843  16.293  1.00 51.43 LIG-0.27  OA
ATOM      5 H    ARG C 130      22.358   3.502  15.248  1.00 44.77 LIG 0.16  HD
BRANCH 3 6
ATOM      6  CA  LYS C 129      19.855   3.680  15.726  1.00 47.52 LIG 0.18  C 
BRANCH 6 7
ATOM      7  CB  LYS C 129      19.267   3.767  14.326  1.00 47.19 LIG 0.04  C 
BRANCH 7 8
ATOM      8  CG  LYS C 129      18.518   2.532  13.905  1.00 46.82 LIG 0.00  C 
BRANCH 8 9
ATOM      9  CD  LYS C 129      17.435   2.830  12.896  1.00 42.25 LIG 0.03  C 
BRANCH 9 10
ATOM     10  CE  LYS C 129      16.476   1.658  12.811  1.00 38.25 LIG 0.23  C 
BRANCH 10 11
ATOM     11  NZ  LYS C 129      15.433   1.794  11.745  1.00 36.45 LIG-0.08  N 
ATOM     12 HZ3  LYS C 129      15.777   2.226  11.046  1.00 36.45 LIG 0.27  HD
ATOM     13 HZ2  LYS C 129      14.739   2.251  12.064  1.00 36.45 LIG 0.27  HD
ATOM     14 HZ1  LYS C 129      15.163   0.985  11.489  1.00 36.45 LIG 0.27  HD
ENDBRANCH 10 11
ENDBRANCH 9 10
ENDBRANCH 8 9
ENDBRANCH 7 8
ENDBRANCH 6 7
BRANCH 6 15
ATOM     15  N   LYS C 129      18.836   3.908  16.743  1.00 50.72 LIG-0.35  N 
ATOM     16 H    LYS C 129      18.064   4.130  16.434  1.00 50.72 LIG 0.16  HD
ATOM     17  C   LYS C 128      19.111   3.775  18.042  1.00 53.52 LIG 0.26  C 
ATOM     18 O    LYS C 128      20.191   3.329  18.473  1.00 51.22 LIG-0.27  OA
BRANCH 17 19
ATOM     19  CA  LYS C 128      17.995   4.173  19.015  1.00 56.35 LIG 0.40  C 
ATOM     20  N   LYS C 128      17.857   5.623  19.150  1.00 59.98 LIG 0.61  N 
BRANCH 19 21
ATOM     21  CB  LYS C 128      16.688   3.560  18.542  1.00 54.38 LIG 0.05  C 
BRANCH 21 22
ATOM     22  CG  LYS C 128      15.720   3.316  19.661  1.00 63.27 LIG 0.00  C 
BRANCH 22 23
ATOM     23  CD  LYS C 128      15.449   1.848  19.865  1.00 66.98 LIG 0.03  C 
BRANCH 23 24
ATOM     24  CE  LYS C 128      14.000   1.474  19.569  1.00 66.03 LIG 0.23  C 
BRANCH 24 25
ATOM     25  NZ  LYS C 128      13.918   0.077  19.047  1.00 67.41 LIG-0.08  N 
ATOM     26 HZ3  LYS C 128      14.645  -0.102  18.565  1.00 67.41 LIG 0.27  HD
ATOM     27 HZ2  LYS C 128      13.195  -0.006  18.535  1.00 67.41 LIG 0.27  HD
ATOM     28 HZ1  LYS C 128      13.866  -0.493  19.729  1.00 67.41 LIG 0.27  HD
ENDBRANCH 24 25
ENDBRANCH 23 24
ENDBRANCH 22 23
ENDBRANCH 21 22
ENDBRANCH 19 21
ENDBRANCH 17 19
ENDBRANCH 6 15
ENDBRANCH 3 6
ENDBRANCH 1 2
BRANCH 1 29
ATOM     29  CB  ARG C 130      24.014   4.741  17.120  1.00 44.07 LIG 0.04  C 
BRANCH 29 30
ATOM     30  CG  ARG C 130      23.072   4.068  18.100  1.00 48.13 LIG 0.02  C 
BRANCH 30 31
ATOM     31  CD  ARG C 130      23.679   2.768  18.603  1.00 53.98 LIG 0.14  C 
BRANCH 31 32
ATOM     32  NE  ARG C 130      25.109   2.911  18.798  1.00 57.03 LIG-0.23  N 
ATOM     33  CZ  ARG C 130      25.959   1.908  18.985  1.00 53.36 LIG 0.67  C 
ATOM     34  NH1 ARG C 130      25.541   0.650  19.024  1.00 46.68 LIG-0.23  N 
ATOM     35  NH2 ARG C 130      27.246   2.177  19.144  1.00 54.86 LIG-0.23  N 
ATOM     36 1HH1 ARG C 130      24.706   0.471  18.927  1.00 46.68 LIG 0.17  HD
ATOM     37 2HH1 ARG C 130      26.106   0.014  19.147  1.00 46.68 LIG 0.17  HD
ATOM     38 1HH2 ARG C 130      27.521   2.991  19.126  1.00 54.86 LIG 0.17  HD
ATOM     39 2HH2 ARG C 130      27.807   1.536  19.267  1.00 54.86 LIG 0.17  HD
ATOM     40 HE   ARG C 130      25.432   3.708  18.792  1.00 57.03 LIG 0.18  HD
ENDBRANCH 31 32
ENDBRANCH 30 31
ENDBRANCH 29 30
ENDBRANCH 1 29
BRANCH 1 41
ATOM     41  C   ARG C 130      24.375   4.853  14.684  1.00 43.16 LIG 0.24  C 
ATOM     42  N   LYS C 131      25.114   5.901  14.314  1.00 46.51 LIG-0.35  N 
ATOM     43 H    LYS C 131      25.017   6.685  14.653  1.00 46.51 LIG 0.16  HD
ATOM     44 O    ARG C 130      24.481   3.726  14.207  1.00 41.50 LIG-0.27  OA
BRANCH 42 45
ATOM     45  CA  LYS C 131      26.166   5.831  13.296  1.00 53.22 LIG 0.18  C 
BRANCH 45 46
ATOM     46  CB  LYS C 131      26.946   4.513  13.413  1.00 55.01 LIG 0.04  C 
BRANCH 46 47
ATOM     47  CG  LYS C 131      28.441   4.624  13.184  1.00 52.38 LIG 0.00  C 
BRANCH 47 48
ATOM     48  CD  LYS C 131      28.785   4.547  11.712  1.00 48.84 LIG 0.03  C 
BRANCH 48 49
ATOM     49  CE  LYS C 131      29.901   5.494  11.362  1.00 46.73 LIG 0.23  C 
BRANCH 49 50
ATOM     50  NZ  LYS C 131      29.823   5.815   9.921  1.00 43.41 LIG-0.08  N 
ATOM     51 HZ1  LYS C 131      30.639   5.985   9.611  1.00 43.41 LIG 0.27  HD
ATOM     52 HZ3  LYS C 131      29.306   6.529   9.803  1.00 43.41 LIG 0.27  HD
ATOM     53 HZ2  LYS C 131      29.477   5.123   9.481  1.00 43.41 LIG 0.27  HD
ENDBRANCH 49 50
ENDBRANCH 48 49
ENDBRANCH 47 48
ENDBRANCH 46 47
ENDBRANCH 45 46
BRANCH 45 54
ATOM     54  C   LYS C 131      25.576   5.900  11.899  1.00 59.91 LIG 0.24  C 
ATOM     55  N   VAL C 132      26.413   6.326  10.955  1.00 72.80 LIG-0.35  N 
ATOM     56 H    VAL C 132      27.175   6.679  11.143  1.00 72.80 LIG 0.16  HD
ATOM     57 O    LYS C 131      24.408   5.586  11.701  1.00 55.62 LIG-0.27  OA
BRANCH 55 58
ATOM     58  CA  VAL C 132      26.160   6.256   9.512  1.00 46.38 LIG 0.17  C 
BRANCH 58 59
ATOM     59  C   VAL C 132      25.225   7.370   9.038  1.00 55.18 LIG 0.22  C 
ATOM     60 O    VAL C 132      25.669   8.513   8.854  1.00 55.70 LIG-0.29  OA
ENDBRANCH 58 59
BRANCH 58 61
ATOM     61  CB  VAL C 132      25.696   4.846   9.047  1.00 53.16 LIG 0.01  C 
ATOM     62  CG2 VAL C 132      26.667   3.812   9.564  1.00 49.68 LIG 0.01  C 
ATOM     63  CG1 VAL C 132      25.540   4.758   7.536  1.00 55.70 LIG 0.01  C 
ENDBRANCH 58 61
ENDBRANCH 55 58
ENDBRANCH 45 54
ENDBRANCH 42 45
ENDBRANCH 1 41
TORSDOF 29
ENDMDL
