MODEL 1
USER: ADFR SOLUTION from run 166
USER: SCORE 22.132954 LL:  -2.264 LR: -23.044 RR:   0.000 FEB: -14.095
USER: RMSD 1.911124
USER: SEED 165
USER: STATUS no improvement in best in 9 clusters for 5 generations
USER: GENES 32
USER: genes 0 Translation |==|  0.61010 0.51996 0.38831
USER: genes 1 Rotation |==|  0.54860 0.47889 0.50181 0.99718
USER: genes 2 Torsion [N]-CA--C-[N] |==|  0.38333
USER: genes 3 Torsion [C]-N--CA-[CB] |==|  0.37991
USER: genes 4 Torsion [N]-CA--CB-[CG] |==|  0.34421
USER: genes 5 Torsion [CA]-CB--CG-[CD] |==|  0.72614
USER: genes 6 Torsion [CB]-CG--CD-[CE] |==|  0.56535
USER: genes 7 Torsion [CG]-CD--CE-[NZ] |==|  0.50400
USER: genes 8 Torsion [CD]-CE--NZ-[HZ1] |==|  0.67253
USER: genes 9 Torsion [N]-CA--C-[N] |==|  0.37491
USER: genes 10 Torsion [C]-N--CA-[C] |==|  0.74634
USER: genes 11 Torsion [N]-CA--CB-[CG] |==|  0.52043
USER: genes 12 Torsion [CA]-CB--CG-[CD2] |==|  0.50172
USER: genes 13 Torsion [CE2]-CZ--OH-[HH] |==|  0.03232
USER: genes 14 Torsion [N]-CA--C-[O] |==|  0.80092
USER: genes 15 Torsion [C]-CA--CB-[CG] |==|  0.55507
USER: genes 16 Torsion [CA]-CB--CG-[CD] |==|  0.50171
USER: genes 17 Torsion [CB]-CG--CD-[NE] |==|  0.43717
USER: genes 18 Torsion [CG]-CD--NE-[HE] |==|  0.93161
USER: genes 19 Torsion [C]-CA--N-[C] |==|  0.69029
USER: genes 20 Torsion [N]-C--CA-[N] |==|  0.33129
USER: genes 21 Torsion [C]-CA--N-[C] |==|  0.56706
USER: genes 22 Torsion [N]-C--CA-[N] |==|  0.81739
USER: genes 23 Torsion [C]-CA--N-[C] |==|  0.40593
USER: genes 24 Torsion [N]-C--CA-[N] |==|  0.33602
USER: genes 25 Torsion [C]-CA--CB-[CG] |==|  0.26362
USER: genes 26 Torsion [CA]-CB--CG-[CD1] |==|  0.46253
USER: genes 27 Torsion [C]-CA--CB-[CG] |==|  0.41959
USER: genes 28 Torsion [CA]-CB--CG-[CD] |==|  0.51297
USER: genes 29 Torsion [CB]-CG--CD-[CE] |==|  0.61208
USER: genes 30 Torsion [CG]-CD--CE-[NZ] |==|  0.53574
USER: genes 31 Torsion [CD]-CE--NZ-[HZ2] |==|  0.95123
ROOT
ATOM      1  CA  ARG B   9       1.442   5.661   8.342  1.00 39.43 LIG 0.18  C 
ENDROOT
BRANCH 1 2
ATOM      2  C   ARG B   9       1.085   4.293   8.889  1.00 41.90 LIG 0.24  C 
ATOM      3  N   LYS B  10       1.811   3.272   8.434  1.00 39.13 LIG-0.35  N 
ATOM      4 H    LYS B  10       2.405   3.350   7.818  1.00 39.13 LIG 0.16  HD
ATOM      5 O    ARG B   9       0.171   4.163   9.715  1.00 39.79 LIG-0.27  OA
BRANCH 3 6
ATOM      6  CA  LYS B  10       1.661   1.911   8.945  1.00 38.99 LIG 0.18  C 
BRANCH 6 7
ATOM      7  CB  LYS B  10       1.663   0.868   7.804  1.00 41.38 LIG 0.04  C 
BRANCH 7 8
ATOM      8  CG  LYS B  10       2.717  -0.245   7.908  1.00 61.81 LIG 0.00  C 
BRANCH 8 9
ATOM      9  CD  LYS B  10       3.965   0.031   7.043  1.00 75.86 LIG 0.03  C 
BRANCH 9 10
ATOM     10  CE  LYS B  10       4.749  -1.212   6.659  1.00 87.18 LIG 0.23  C 
BRANCH 10 11
ATOM     11  NZ  LYS B  10       5.957  -0.879   5.858  1.00 91.96 LIG-0.08  N 
ATOM     12 HZ1  LYS B  10       5.892  -1.252   5.052  1.00 91.96 LIG 0.27  HD
ATOM     13 HZ2  LYS B  10       6.022   0.004   5.771  1.00 91.96 LIG 0.27  HD
ATOM     14 HZ3  LYS B  10       6.682  -1.190   6.269  1.00 91.96 LIG 0.27  HD
ENDBRANCH 10 11
ENDBRANCH 9 10
ENDBRANCH 8 9
ENDBRANCH 7 8
ENDBRANCH 6 7
BRANCH 6 15
ATOM     15  C   LYS B  10       2.786   1.672   9.981  1.00 41.93 LIG 0.24  C 
ATOM     16  N   TYR B  11       2.449   1.078  11.143  1.00 37.73 LIG-0.35  N 
ATOM     17 H    TYR B  11       1.641   0.843  11.319  1.00 37.73 LIG 0.16  HD
ATOM     18 O    LYS B  10       3.929   2.067   9.734  1.00 40.97 LIG-0.27  OA
BRANCH 16 19
ATOM     19  CA  TYR B  11       3.380   0.761  12.231  1.00 60.51 LIG 0.17  C 
BRANCH 19 20
ATOM     20  CB  TYR B  11       2.649   0.924  13.585  1.00 61.89 LIG 0.07  C 
BRANCH 20 21
ATOM     21  CG  TYR B  11       3.449   0.815  14.876  1.00 64.48 LIG-0.06  A 
ATOM     22  CD2 TYR B  11       2.827   0.942  16.113  1.00 66.36 LIG 0.01  A 
ATOM     23  CE2 TYR B  11       3.546   0.839  17.303  1.00 66.48 LIG 0.04  A 
ATOM     24  CZ  TYR B  11       4.913   0.645  17.267  1.00 73.62 LIG 0.07  A 
ATOM     25  CE1 TYR B  11       5.561   0.532  16.046  1.00 67.05 LIG 0.04  A 
ATOM     26  CD1 TYR B  11       4.830   0.637  14.859  1.00 65.84 LIG 0.01  A 
BRANCH 24 27
ATOM     27 OH   TYR B  11       5.603   0.556  18.452  1.00 74.96 LIG-0.36  OA
ATOM     28 HH   TYR B  11       5.060   0.476  19.088  1.00 74.96 LIG 0.22  HD
ENDBRANCH 24 27
ENDBRANCH 20 21
ENDBRANCH 19 20
BRANCH 19 29
ATOM     29  C   TYR B  11       3.933  -0.658  12.045  1.00 76.68 LIG 0.22  C 
ATOM     30 O    TYR B  11       3.214  -1.638  12.237  1.00 42.66 LIG-0.29  OA
ENDBRANCH 19 29
ENDBRANCH 16 19
ENDBRANCH 6 15
ENDBRANCH 3 6
ENDBRANCH 1 2
BRANCH 1 31
ATOM     31  CB  ARG B   9       2.365   6.392   9.364  1.00 41.96 LIG 0.04  C 
BRANCH 31 32
ATOM     32  CG  ARG B   9       2.474   7.924   9.260  1.00 54.96 LIG 0.02  C 
BRANCH 32 33
ATOM     33  CD  ARG B   9       3.406   8.538  10.288  1.00 74.30 LIG 0.14  C 
BRANCH 33 34
ATOM     34  NE  ARG B   9       3.903   9.851   9.861  1.00 92.04 LIG-0.23  N 
ATOM     35 HE   ARG B   9       3.922  10.017   9.018  1.00 92.04 LIG 0.18  HD
ATOM     36  CZ  ARG B   9       4.327  10.805  10.689  1.00114.26 LIG 0.67  C 
ATOM     37  NH2 ARG B   9       4.766  11.962  10.209  1.00103.12 LIG-0.23  N 
ATOM     38  NH1 ARG B   9       4.309  10.613  12.004  1.00104.54 LIG-0.23  N 
ATOM     39 1HH2 ARG B   9       4.777  12.099   9.360  1.00103.12 LIG 0.17  HD
ATOM     40 2HH2 ARG B   9       5.038  12.576  10.747  1.00103.12 LIG 0.17  HD
ATOM     41 1HH1 ARG B   9       4.022   9.868  12.326  1.00104.54 LIG 0.17  HD
ATOM     42 2HH1 ARG B   9       4.584  11.232  12.533  1.00104.54 LIG 0.17  HD
ENDBRANCH 33 34
ENDBRANCH 32 33
ENDBRANCH 31 32
ENDBRANCH 1 31
BRANCH 1 43
ATOM     43  N   ARG B   9       0.227   6.423   8.038  1.00 39.07 LIG-0.35  N 
ATOM     44 H    ARG B   9      -0.220   6.652   8.738  1.00 39.07 LIG 0.16  HD
ATOM     45  C   LYS B   8      -0.154   6.734   6.794  1.00 42.99 LIG 0.24  C 
ATOM     46 O    LYS B   8       0.500   6.431   5.789  1.00 42.25 LIG-0.27  OA
BRANCH 45 47
ATOM     47  CA  LYS B   8      -1.446   7.529   6.657  1.00 40.35 LIG 0.18  C 
BRANCH 47 48
ATOM     48  N   LYS B   8      -1.176   8.810   6.009  1.00 42.07 LIG-0.35  N 
ATOM     49 H    LYS B   8      -0.465   8.789   5.526  1.00 42.07 LIG 0.16  HD
ATOM     50  C   GLY B   7      -1.915   9.912   6.122  1.00 50.14 LIG 0.24  C 
ATOM     51 O    GLY B   7      -2.918   9.996   6.839  1.00 49.17 LIG-0.27  OA
BRANCH 50 52
ATOM     52  CA  GLY B   7      -1.435  11.095   5.316  1.00 52.80 LIG 0.23  C 
BRANCH 52 53
ATOM     53  N   GLY B   7      -0.146  11.559   5.807  1.00 55.58 LIG-0.35  N 
ATOM     54  C   LEU B   6       0.824  12.076   5.060  1.00 62.88 LIG 0.26  C 
ATOM     55 O    LEU B   6       0.746  12.226   3.835  1.00 62.93 LIG-0.27  OA
ATOM     56 H    GLY B   7      -0.065  11.467   6.659  1.00 55.58 LIG 0.16  HD
BRANCH 54 57
ATOM     57  CA  LEU B   6       2.075  12.513   5.856  1.00 62.75 LIG 0.40  C 
ATOM     58  N   LEU B   6       3.247  11.786   5.367  1.00 63.15 LIG 0.61  N 
BRANCH 57 59
ATOM     59  CB  LEU B   6       2.295  14.046   5.812  1.00 63.26 LIG 0.06  C 
BRANCH 59 60
ATOM     60  CG  LEU B   6       1.721  14.873   6.989  1.00 68.65 LIG-0.02  C 
ATOM     61  CD1 LEU B   6       2.285  16.288   6.991  1.00 69.18 LIG 0.01  C 
ATOM     62  CD2 LEU B   6       0.186  14.901   6.981  1.00 70.70 LIG 0.01  C 
ENDBRANCH 59 60
ENDBRANCH 57 59
ENDBRANCH 54 57
ENDBRANCH 52 53
ENDBRANCH 50 52
ENDBRANCH 47 48
BRANCH 47 63
ATOM     63  CB  LYS B   8      -2.484   6.717   5.857  1.00 41.14 LIG 0.04  C 
BRANCH 63 64
ATOM     64  CG  LYS B   8      -3.934   7.020   6.212  1.00 42.09 LIG 0.00  C 
BRANCH 64 65
ATOM     65  CD  LYS B   8      -4.873   6.094   5.460  1.00 43.68 LIG 0.03  C 
BRANCH 65 66
ATOM     66  CE  LYS B   8      -6.091   6.839   4.974  1.00 41.10 LIG 0.23  C 
BRANCH 66 67
ATOM     67  NZ  LYS B   8      -7.171   5.929   4.505  1.00 37.84 LIG-0.08  N 
ATOM     68 HZ3  LYS B   8      -7.803   5.872   5.129  1.00 37.84 LIG 0.27  HD
ATOM     69 HZ2  LYS B   8      -6.833   5.121   4.351  1.00 37.84 LIG 0.27  HD
ATOM     70 HZ1  LYS B   8      -7.525   6.251   3.754  1.00 37.84 LIG 0.27  HD
ENDBRANCH 66 67
ENDBRANCH 65 66
ENDBRANCH 64 65
ENDBRANCH 63 64
ENDBRANCH 47 63
ENDBRANCH 45 47
ENDBRANCH 1 43
TORSDOF 30
ENDMDL
MODEL 2
USER: ADFR SOLUTION from run 119
USER: SCORE 22.645606 LL:  -2.896 LR: -21.867 RR:   0.000 FEB: -12.918
USER: RMSD 4.291021
USER: SEED 118
USER: STATUS searching
USER: GENES 32
USER: genes 0 Translation |==|  0.59436 0.50331 0.36709
USER: genes 1 Rotation |==|  0.51164 0.53964 0.49544 0.99827
USER: genes 2 Torsion [N]-CA--C-[N] |==|  0.39116
USER: genes 3 Torsion [C]-N--CA-[CB] |==|  0.43141
USER: genes 4 Torsion [N]-CA--CB-[CG] |==|  0.09390
USER: genes 5 Torsion [CA]-CB--CG-[CD] |==|  0.36341
USER: genes 6 Torsion [CB]-CG--CD-[CE] |==|  0.62443
USER: genes 7 Torsion [CG]-CD--CE-[NZ] |==|  0.55834
USER: genes 8 Torsion [CD]-CE--NZ-[HZ1] |==|  0.19118
USER: genes 9 Torsion [N]-CA--C-[N] |==|  0.46414
USER: genes 10 Torsion [C]-N--CA-[C] |==|  0.63596
USER: genes 11 Torsion [N]-CA--CB-[CG] |==|  0.47228
USER: genes 12 Torsion [CA]-CB--CG-[CD2] |==|  0.57348
USER: genes 13 Torsion [CE2]-CZ--OH-[HH] |==|  0.57784
USER: genes 14 Torsion [N]-CA--C-[O] |==|  0.87370
USER: genes 15 Torsion [C]-CA--CB-[CG] |==|  0.70758
USER: genes 16 Torsion [CA]-CB--CG-[CD] |==|  0.35566
USER: genes 17 Torsion [CB]-CG--CD-[NE] |==|  0.39147
USER: genes 18 Torsion [CG]-CD--NE-[HE] |==|  0.07134
USER: genes 19 Torsion [C]-CA--N-[C] |==|  0.65844
USER: genes 20 Torsion [N]-C--CA-[N] |==|  0.38333
USER: genes 21 Torsion [C]-CA--N-[C] |==|  0.65777
USER: genes 22 Torsion [N]-C--CA-[N] |==|  0.20149
USER: genes 23 Torsion [C]-CA--N-[C] |==|  0.78327
USER: genes 24 Torsion [N]-C--CA-[N] |==|  0.13888
USER: genes 25 Torsion [C]-CA--CB-[CG] |==|  0.38766
USER: genes 26 Torsion [CA]-CB--CG-[CD1] |==|  0.21279
USER: genes 27 Torsion [C]-CA--CB-[CG] |==|  0.57632
USER: genes 28 Torsion [CA]-CB--CG-[CD] |==|  0.38296
USER: genes 29 Torsion [CB]-CG--CD-[CE] |==|  0.43048
USER: genes 30 Torsion [CG]-CD--CE-[NZ] |==|  0.51208
USER: genes 31 Torsion [CD]-CE--NZ-[HZ2] |==|  0.96745
ROOT
ATOM      1  CA  ARG B   9       1.099   5.211   7.816  1.00 39.43 LIG 0.18  C 
ENDROOT
BRANCH 1 2
ATOM      2  C   ARG B   9       0.899   3.947   8.629  1.00 41.90 LIG 0.24  C 
ATOM      3  N   LYS B  10       1.550   2.866   8.200  1.00 39.13 LIG-0.35  N 
ATOM      4 H    LYS B  10       2.008   2.846   7.472  1.00 39.13 LIG 0.16  HD
ATOM      5 O    ARG B   9       0.172   3.950   9.631  1.00 39.79 LIG-0.27  OA
BRANCH 3 6
ATOM      6  CA  LYS B  10       1.546   1.602   8.934  1.00 38.99 LIG 0.18  C 
BRANCH 6 7
ATOM      7  CB  LYS B  10       1.815   0.398   8.001  1.00 41.38 LIG 0.04  C 
BRANCH 7 8
ATOM      8  CG  LYS B  10       2.770   0.655   6.825  1.00 61.81 LIG 0.00  C 
BRANCH 8 9
ATOM      9  CD  LYS B  10       3.874  -0.416   6.706  1.00 75.86 LIG 0.03  C 
BRANCH 9 10
ATOM     10  CE  LYS B  10       5.265   0.141   6.457  1.00 87.18 LIG 0.23  C 
BRANCH 10 11
ATOM     11  NZ  LYS B  10       6.172  -0.878   5.865  1.00 91.96 LIG-0.08  N 
ATOM     12 HZ1  LYS B  10       5.911  -1.062   5.034  1.00 91.96 LIG 0.27  HD
ATOM     13 HZ2  LYS B  10       7.004  -0.563   5.851  1.00 91.96 LIG 0.27  HD
ATOM     14 HZ3  LYS B  10       6.144  -1.621   6.355  1.00 91.96 LIG 0.27  HD
ENDBRANCH 10 11
ENDBRANCH 9 10
ENDBRANCH 8 9
ENDBRANCH 7 8
ENDBRANCH 6 7
BRANCH 6 15
ATOM     15  C   LYS B  10       2.580   1.720  10.078  1.00 41.93 LIG 0.24  C 
ATOM     16  N   TYR B  11       2.557   0.778  11.042  1.00 37.73 LIG-0.35  N 
ATOM     17 H    TYR B  11       1.987   0.134  11.037  1.00 37.73 LIG 0.16  HD
ATOM     18 O    LYS B  10       3.353   2.683  10.098  1.00 40.97 LIG-0.27  OA
BRANCH 16 19
ATOM     19  CA  TYR B  11       3.466   0.721  12.191  1.00 60.51 LIG 0.17  C 
BRANCH 19 20
ATOM     20  CB  TYR B  11       2.700   1.154  13.464  1.00 61.89 LIG 0.07  C 
BRANCH 20 21
ATOM     21  CG  TYR B  11       3.355   0.962  14.824  1.00 64.48 LIG-0.06  A 
ATOM     22  CD2 TYR B  11       2.586   0.805  15.971  1.00 66.36 LIG 0.01  A 
ATOM     23  CE2 TYR B  11       3.172   0.623  17.222  1.00 66.48 LIG 0.04  A 
ATOM     24  CZ  TYR B  11       4.548   0.635  17.346  1.00 73.62 LIG 0.07  A 
ATOM     25  CE1 TYR B  11       5.340   0.807  16.220  1.00 67.05 LIG 0.04  A 
ATOM     26  CD1 TYR B  11       4.741   0.989  14.970  1.00 65.84 LIG 0.01  A 
BRANCH 24 27
ATOM     27 OH   TYR B  11       5.105   0.462  18.590  1.00 74.96 LIG-0.36  OA
ATOM     28 HH   TYR B  11       5.850   0.851  18.620  1.00 74.96 LIG 0.22  HD
ENDBRANCH 24 27
ENDBRANCH 20 21
ENDBRANCH 19 20
BRANCH 19 29
ATOM     29  C   TYR B  11       4.046  -0.694  12.325  1.00 76.68 LIG 0.22  C 
ATOM     30 O    TYR B  11       3.316  -1.679  12.231  1.00 42.66 LIG-0.29  OA
ENDBRANCH 19 29
ENDBRANCH 16 19
ENDBRANCH 6 15
ENDBRANCH 3 6
ENDBRANCH 1 2
BRANCH 1 31
ATOM     31  CB  ARG B   9       2.235   6.058   8.468  1.00 41.96 LIG 0.04  C 
BRANCH 31 32
ATOM     32  CG  ARG B   9       1.826   7.316   9.257  1.00 54.96 LIG 0.02  C 
BRANCH 32 33
ATOM     33  CD  ARG B   9       2.411   7.373  10.656  1.00 74.30 LIG 0.14  C 
BRANCH 33 34
ATOM     34  NE  ARG B   9       2.824   8.731  11.022  1.00 92.04 LIG-0.23  N 
ATOM     35 HE   ARG B   9       2.430   9.388  10.632  1.00 92.04 LIG 0.18  HD
ATOM     36  CZ  ARG B   9       3.768   9.020  11.917  1.00114.26 LIG 0.67  C 
ATOM     37  NH2 ARG B   9       4.080  10.283  12.179  1.00103.12 LIG-0.23  N 
ATOM     38  NH1 ARG B   9       4.404   8.047  12.563  1.00104.54 LIG-0.23  N 
ATOM     39 1HH2 ARG B   9       3.671  10.920  11.771  1.00103.12 LIG 0.17  HD
ATOM     40 2HH2 ARG B   9       4.690  10.465  12.758  1.00103.12 LIG 0.17  HD
ATOM     41 1HH1 ARG B   9       4.206   7.225  12.404  1.00104.54 LIG 0.17  HD
ATOM     42 2HH1 ARG B   9       5.012   8.240  13.139  1.00104.54 LIG 0.17  HD
ENDBRANCH 33 34
ENDBRANCH 32 33
ENDBRANCH 31 32
ENDBRANCH 1 31
BRANCH 1 43
ATOM     43  N   ARG B   9      -0.161   5.953   7.706  1.00 39.07 LIG-0.35  N 
ATOM     44 H    ARG B   9      -0.507   6.158   8.466  1.00 39.07 LIG 0.16  HD
ATOM     45  C   LYS B   8      -0.720   6.281   6.535  1.00 42.99 LIG 0.24  C 
ATOM     46 O    LYS B   8      -0.210   6.012   5.441  1.00 42.25 LIG-0.27  OA
BRANCH 45 47
ATOM     47  CA  LYS B   8      -2.033   7.050   6.601  1.00 40.35 LIG 0.18  C 
BRANCH 47 48
ATOM     48  N   LYS B   8      -2.035   8.116   5.603  1.00 42.07 LIG-0.35  N 
ATOM     49 H    LYS B   8      -1.904   7.820   4.807  1.00 42.07 LIG 0.16  HD
ATOM     50  C   GLY B   7      -2.217   9.413   5.848  1.00 50.14 LIG 0.24  C 
ATOM     51 O    GLY B   7      -2.366   9.884   6.981  1.00 49.17 LIG-0.27  OA
BRANCH 50 52
ATOM     52  CA  GLY B   7      -2.211  10.305   4.630  1.00 52.80 LIG 0.23  C 
BRANCH 52 53
ATOM     53  N   GLY B   7      -3.432  10.124   3.859  1.00 55.58 LIG-0.35  N 
ATOM     54  C   LEU B   6      -3.683   9.108   3.039  1.00 62.88 LIG 0.26  C 
ATOM     55 O    LEU B   6      -2.895   8.179   2.830  1.00 62.93 LIG-0.27  OA
ATOM     56 H    GLY B   7      -4.000  10.758   3.986  1.00 55.58 LIG 0.16  HD
BRANCH 54 57
ATOM     57  CA  LEU B   6      -5.077   9.159   2.373  1.00 62.75 LIG 0.40  C 
ATOM     58  N   LEU B   6      -5.290  10.482   1.783  1.00 63.15 LIG 0.61  N 
BRANCH 57 59
ATOM     59  CB  LEU B   6      -5.272   8.031   1.329  1.00 63.26 LIG 0.06  C 
BRANCH 59 60
ATOM     60  CG  LEU B   6      -6.656   7.336   1.296  1.00 68.65 LIG-0.02  C 
ATOM     61  CD1 LEU B   6      -7.694   8.213   0.608  1.00 69.18 LIG 0.01  C 
ATOM     62  CD2 LEU B   6      -6.591   5.952   0.633  1.00 70.70 LIG 0.01  C 
ENDBRANCH 59 60
ENDBRANCH 57 59
ENDBRANCH 54 57
ENDBRANCH 52 53
ENDBRANCH 50 52
ENDBRANCH 47 48
BRANCH 47 63
ATOM     63  CB  LYS B   8      -3.220   6.090   6.383  1.00 41.14 LIG 0.04  C 
BRANCH 63 64
ATOM     64  CG  LYS B   8      -4.459   6.742   5.784  1.00 42.09 LIG 0.00  C 
BRANCH 64 65
ATOM     65  CD  LYS B   8      -5.074   5.846   4.724  1.00 43.68 LIG 0.03  C 
BRANCH 65 66
ATOM     66  CE  LYS B   8      -6.545   6.133   4.561  1.00 41.10 LIG 0.23  C 
BRANCH 66 67
ATOM     67  NZ  LYS B   8      -7.209   5.206   3.604  1.00 37.84 LIG-0.08  N 
ATOM     68 HZ3  LYS B   8      -7.733   4.644   4.052  1.00 37.84 LIG 0.27  HD
ATOM     69 HZ2  LYS B   8      -6.591   4.745   3.161  1.00 37.84 LIG 0.27  HD
ATOM     70 HZ1  LYS B   8      -7.699   5.675   3.029  1.00 37.84 LIG 0.27  HD
ENDBRANCH 66 67
ENDBRANCH 65 66
ENDBRANCH 64 65
ENDBRANCH 63 64
ENDBRANCH 47 63
ENDBRANCH 45 47
ENDBRANCH 1 43
TORSDOF 30
ENDMDL
MODEL 3
USER: ADFR SOLUTION from run 104
USER: SCORE 21.398678 LL:  -2.348 LR: -21.705 RR:   0.000 FEB: -12.756
USER: RMSD 3.242085
USER: SEED 103
USER: STATUS no improvement in best in 9 clusters for 5 generations
USER: GENES 32
USER: genes 0 Translation |==|  0.60896 0.52499 0.39321
USER: genes 1 Rotation |==|  0.55098 0.46066 0.51455 0.99562
USER: genes 2 Torsion [N]-CA--C-[N] |==|  0.38508
USER: genes 3 Torsion [C]-N--CA-[CB] |==|  0.37485
USER: genes 4 Torsion [N]-CA--CB-[CG] |==|  0.33709
USER: genes 5 Torsion [CA]-CB--CG-[CD] |==|  0.71738
USER: genes 6 Torsion [CB]-CG--CD-[CE] |==|  0.64876
USER: genes 7 Torsion [CG]-CD--CE-[NZ] |==|  0.56708
USER: genes 8 Torsion [CD]-CE--NZ-[HZ1] |==|  0.61086
USER: genes 9 Torsion [N]-CA--C-[N] |==|  0.41504
USER: genes 10 Torsion [C]-N--CA-[C] |==|  0.69534
USER: genes 11 Torsion [N]-CA--CB-[CG] |==|  0.52530
USER: genes 12 Torsion [CA]-CB--CG-[CD2] |==|  0.50998
USER: genes 13 Torsion [CE2]-CZ--OH-[HH] |==|  0.85101
USER: genes 14 Torsion [N]-CA--C-[O] |==|  0.81222
USER: genes 15 Torsion [C]-CA--CB-[CG] |==|  0.52948
USER: genes 16 Torsion [CA]-CB--CG-[CD] |==|  0.59003
USER: genes 17 Torsion [CB]-CG--CD-[NE] |==|  0.49620
USER: genes 18 Torsion [CG]-CD--NE-[HE] |==|  0.90335
USER: genes 19 Torsion [C]-CA--N-[C] |==|  0.73511
USER: genes 20 Torsion [N]-C--CA-[N] |==|  0.31671
USER: genes 21 Torsion [C]-CA--N-[C] |==|  0.62981
USER: genes 22 Torsion [N]-C--CA-[N] |==|  0.22314
USER: genes 23 Torsion [C]-CA--N-[C] |==|  0.28161
USER: genes 24 Torsion [N]-C--CA-[N] |==|  0.19873
USER: genes 25 Torsion [C]-CA--CB-[CG] |==|  0.30842
USER: genes 26 Torsion [CA]-CB--CG-[CD1] |==|  0.61281
USER: genes 27 Torsion [C]-CA--CB-[CG] |==|  0.46475
USER: genes 28 Torsion [CA]-CB--CG-[CD] |==|  0.51576
USER: genes 29 Torsion [CB]-CG--CD-[CE] |==|  0.61764
USER: genes 30 Torsion [CG]-CD--CE-[NZ] |==|  0.56708
USER: genes 31 Torsion [CD]-CE--NZ-[HZ2] |==|  0.85224
ROOT
ATOM      1  CA  ARG B   9       1.417   5.797   8.463  1.00 39.43 LIG 0.18  C 
ENDROOT
BRANCH 1 2
ATOM      2  C   ARG B   9       1.079   4.409   8.972  1.00 41.90 LIG 0.24  C 
ATOM      3  N   LYS B  10       1.890   3.427   8.579  1.00 39.13 LIG-0.35  N 
ATOM      4 H    LYS B  10       2.532   3.539   8.017  1.00 39.13 LIG 0.16  HD
ATOM      5 O    ARG B   9       0.104   4.230   9.715  1.00 39.79 LIG-0.27  OA
BRANCH 3 6
ATOM      6  CA  LYS B  10       1.762   2.057   9.070  1.00 38.99 LIG 0.18  C 
BRANCH 6 7
ATOM      7  CB  LYS B  10       1.869   1.026   7.922  1.00 41.38 LIG 0.04  C 
BRANCH 7 8
ATOM      8  CG  LYS B  10       2.995  -0.012   8.049  1.00 61.81 LIG 0.00  C 
BRANCH 8 9
ATOM      9  CD  LYS B  10       4.214   0.317   7.162  1.00 75.86 LIG 0.03  C 
BRANCH 9 10
ATOM     10  CE  LYS B  10       4.643  -0.811   6.241  1.00 87.18 LIG 0.23  C 
BRANCH 10 11
ATOM     11  NZ  LYS B  10       6.076  -0.700   5.858  1.00 91.96 LIG-0.08  N 
ATOM     12 HZ1  LYS B  10       6.172  -0.916   5.000  1.00 91.96 LIG 0.27  HD
ATOM     13 HZ2  LYS B  10       6.353   0.136   5.986  1.00 91.96 LIG 0.27  HD
ATOM     14 HZ3  LYS B  10       6.561  -1.254   6.359  1.00 91.96 LIG 0.27  HD
ENDBRANCH 10 11
ENDBRANCH 9 10
ENDBRANCH 8 9
ENDBRANCH 7 8
ENDBRANCH 6 7
BRANCH 6 15
ATOM     15  C   LYS B  10       2.833   1.849  10.167  1.00 41.93 LIG 0.24  C 
ATOM     16  N   TYR B  11       2.549   0.985  11.162  1.00 37.73 LIG-0.35  N 
ATOM     17 H    TYR B  11       1.800   0.565  11.202  1.00 37.73 LIG 0.16  HD
ATOM     18 O    LYS B  10       3.879   2.504  10.123  1.00 40.97 LIG-0.27  OA
BRANCH 16 19
ATOM     19  CA  TYR B  11       3.444   0.654  12.275  1.00 60.51 LIG 0.17  C 
BRANCH 19 20
ATOM     20  CB  TYR B  11       2.688   0.854  13.610  1.00 61.89 LIG 0.07  C 
BRANCH 20 21
ATOM     21  CG  TYR B  11       3.461   0.778  14.919  1.00 64.48 LIG-0.06  A 
ATOM     22  CD2 TYR B  11       2.807   0.878  16.141  1.00 66.36 LIG 0.01  A 
ATOM     23  CE2 TYR B  11       3.502   0.804  17.347  1.00 66.48 LIG 0.04  A 
ATOM     24  CZ  TYR B  11       4.876   0.666  17.343  1.00 73.62 LIG 0.07  A 
ATOM     25  CE1 TYR B  11       5.557   0.580  16.137  1.00 67.05 LIG 0.04  A 
ATOM     26  CD1 TYR B  11       4.850   0.656  14.933  1.00 65.84 LIG 0.01  A 
BRANCH 24 27
ATOM     27 OH   TYR B  11       5.543   0.604  18.543  1.00 74.96 LIG-0.36  OA
ATOM     28 HH   TYR B  11       5.334   1.268  19.014  1.00 74.96 LIG 0.22  HD
ENDBRANCH 24 27
ENDBRANCH 20 21
ENDBRANCH 19 20
BRANCH 19 29
ATOM     29  C   TYR B  11       3.959  -0.784  12.119  1.00 76.68 LIG 0.22  C 
ATOM     30 O    TYR B  11       3.190  -1.737  12.231  1.00 42.66 LIG-0.29  OA
ENDBRANCH 19 29
ENDBRANCH 16 19
ENDBRANCH 6 15
ENDBRANCH 3 6
ENDBRANCH 1 2
BRANCH 1 31
ATOM     31  CB  ARG B   9       2.225   6.557   9.559  1.00 41.96 LIG 0.04  C 
BRANCH 31 32
ATOM     32  CG  ARG B   9       2.457   8.066   9.357  1.00 54.96 LIG 0.02  C 
BRANCH 32 33
ATOM     33  CD  ARG B   9       3.776   8.559   9.924  1.00 74.30 LIG 0.14  C 
BRANCH 33 34
ATOM     34  NE  ARG B   9       3.974   9.992   9.684  1.00 92.04 LIG-0.23  N 
ATOM     35 HE   ARG B   9       3.672  10.320   8.948  1.00 92.04 LIG 0.18  HD
ATOM     36  CZ  ARG B   9       4.588  10.823  10.525  1.00114.26 LIG 0.67  C 
ATOM     37  NH2 ARG B   9       4.726  12.107  10.218  1.00103.12 LIG-0.23  N 
ATOM     38  NH1 ARG B   9       5.064  10.378  11.683  1.00104.54 LIG-0.23  N 
ATOM     39 1HH2 ARG B   9       4.417  12.407   9.473  1.00103.12 LIG 0.17  HD
ATOM     40 2HH2 ARG B   9       5.123  12.640  10.764  1.00103.12 LIG 0.17  HD
ATOM     41 1HH1 ARG B   9       4.976   9.548  11.894  1.00104.54 LIG 0.17  HD
ATOM     42 2HH1 ARG B   9       5.460  10.919  12.222  1.00104.54 LIG 0.17  HD
ENDBRANCH 33 34
ENDBRANCH 32 33
ENDBRANCH 31 32
ENDBRANCH 1 31
BRANCH 1 43
ATOM     43  N   ARG B   9       0.197   6.508   8.071  1.00 39.07 LIG-0.35  N 
ATOM     44 H    ARG B   9      -0.199   6.900   8.727  1.00 39.07 LIG 0.16  HD
ATOM     45  C   LYS B   8      -0.261   6.545   6.814  1.00 42.99 LIG 0.24  C 
ATOM     46 O    LYS B   8       0.320   6.006   5.865  1.00 42.25 LIG-0.27  OA
BRANCH 45 47
ATOM     47  CA  LYS B   8      -1.547   7.328   6.581  1.00 40.35 LIG 0.18  C 
BRANCH 47 48
ATOM     48  N   LYS B   8      -1.274   8.495   5.747  1.00 42.07 LIG-0.35  N 
ATOM     49 H    LYS B   8      -0.792   8.303   5.061  1.00 42.07 LIG 0.16  HD
ATOM     50  C   GLY B   7      -1.700   9.736   5.979  1.00 50.14 LIG 0.24  C 
ATOM     51 O    GLY B   7      -2.357  10.062   6.974  1.00 49.17 LIG-0.27  OA
BRANCH 50 52
ATOM     52  CA  GLY B   7      -1.309  10.756   4.938  1.00 52.80 LIG 0.23  C 
BRANCH 52 53
ATOM     53  N   GLY B   7      -2.196  10.679   3.787  1.00 55.58 LIG-0.35  N 
ATOM     54  C   LEU B   6      -3.207  11.506   3.535  1.00 62.88 LIG 0.26  C 
ATOM     55 O    LEU B   6      -3.518  12.457   4.261  1.00 62.93 LIG-0.27  OA
ATOM     56 H    GLY B   7      -2.002  10.024   3.264  1.00 55.58 LIG 0.16  HD
BRANCH 54 57
ATOM     57  CA  LEU B   6      -3.962  11.202   2.222  1.00 62.75 LIG 0.40  C 
ATOM     58  N   LEU B   6      -4.747   9.976   2.379  1.00 63.15 LIG 0.61  N 
BRANCH 57 59
ATOM     59  CB  LEU B   6      -4.846  12.389   1.762  1.00 63.26 LIG 0.06  C 
BRANCH 59 60
ATOM     60  CG  LEU B   6      -4.405  13.139   0.481  1.00 68.65 LIG-0.02  C 
ATOM     61  CD1 LEU B   6      -4.586  14.644   0.637  1.00 69.18 LIG 0.01  C 
ATOM     62  CD2 LEU B   6      -2.959  12.807   0.086  1.00 70.70 LIG 0.01  C 
ENDBRANCH 59 60
ENDBRANCH 57 59
ENDBRANCH 54 57
ENDBRANCH 52 53
ENDBRANCH 50 52
ENDBRANCH 47 48
BRANCH 47 63
ATOM     63  CB  LYS B   8      -2.607   6.420   5.927  1.00 41.14 LIG 0.04  C 
BRANCH 63 64
ATOM     64  CG  LYS B   8      -4.018   6.996   5.923  1.00 42.09 LIG 0.00  C 
BRANCH 64 65
ATOM     65  CD  LYS B   8      -5.009   5.978   5.388  1.00 43.68 LIG 0.03  C 
BRANCH 65 66
ATOM     66  CE  LYS B   8      -5.998   6.626   4.453  1.00 41.10 LIG 0.23  C 
BRANCH 66 67
ATOM     67  NZ  LYS B   8      -7.276   5.872   4.356  1.00 37.84 LIG-0.08  N 
ATOM     68 HZ3  LYS B   8      -7.701   5.905   5.137  1.00 37.84 LIG 0.27  HD
ATOM     69 HZ2  LYS B   8      -7.105   5.023   4.149  1.00 37.84 LIG 0.27  HD
ATOM     70 HZ1  LYS B   8      -7.788   6.234   3.724  1.00 37.84 LIG 0.27  HD
ENDBRANCH 66 67
ENDBRANCH 65 66
ENDBRANCH 64 65
ENDBRANCH 63 64
ENDBRANCH 47 63
ENDBRANCH 45 47
ENDBRANCH 1 43
TORSDOF 30
ENDMDL
MODEL 4
USER: ADFR SOLUTION from run 166
USER: SCORE 21.785634 LL:  -3.450 LR: -21.472 RR:   0.000 FEB: -12.523
USER: RMSD 2.426019
USER: SEED 165
USER: STATUS no improvement in best in 9 clusters for 5 generations
USER: GENES 32
USER: genes 0 Translation |==|  0.60924 0.51921 0.39593
USER: genes 1 Rotation |==|  0.54336 0.46000 0.51400 0.99631
USER: genes 2 Torsion [N]-CA--C-[N] |==|  0.38305
USER: genes 3 Torsion [C]-N--CA-[CB] |==|  0.37059
USER: genes 4 Torsion [N]-CA--CB-[CG] |==|  0.33121
USER: genes 5 Torsion [CA]-CB--CG-[CD] |==|  0.70059
USER: genes 6 Torsion [CB]-CG--CD-[CE] |==|  0.56568
USER: genes 7 Torsion [CG]-CD--CE-[NZ] |==|  0.51439
USER: genes 8 Torsion [CD]-CE--NZ-[HZ1] |==|  0.67822
USER: genes 9 Torsion [N]-CA--C-[N] |==|  0.39568
USER: genes 10 Torsion [C]-N--CA-[C] |==|  0.71768
USER: genes 11 Torsion [N]-CA--CB-[CG] |==|  0.51318
USER: genes 12 Torsion [CA]-CB--CG-[CD2] |==|  0.53698
USER: genes 13 Torsion [CE2]-CZ--OH-[HH] |==|  0.01704
USER: genes 14 Torsion [N]-CA--C-[O] |==|  0.85608
USER: genes 15 Torsion [C]-CA--CB-[CG] |==|  0.33652
USER: genes 16 Torsion [CA]-CB--CG-[CD] |==|  0.70926
USER: genes 17 Torsion [CB]-CG--CD-[NE] |==|  0.17673
USER: genes 18 Torsion [CG]-CD--NE-[HE] |==|  0.71028
USER: genes 19 Torsion [C]-CA--N-[C] |==|  0.65618
USER: genes 20 Torsion [N]-C--CA-[N] |==|  0.36232
USER: genes 21 Torsion [C]-CA--N-[C] |==|  0.59126
USER: genes 22 Torsion [N]-C--CA-[N] |==|  0.80882
USER: genes 23 Torsion [C]-CA--N-[C] |==|  0.40006
USER: genes 24 Torsion [N]-C--CA-[N] |==|  0.34501
USER: genes 25 Torsion [C]-CA--CB-[CG] |==|  0.26765
USER: genes 26 Torsion [CA]-CB--CG-[CD1] |==|  0.45936
USER: genes 27 Torsion [C]-CA--CB-[CG] |==|  0.41867
USER: genes 28 Torsion [CA]-CB--CG-[CD] |==|  0.49399
USER: genes 29 Torsion [CB]-CG--CD-[CE] |==|  0.55834
USER: genes 30 Torsion [CG]-CD--CE-[NZ] |==|  0.51723
USER: genes 31 Torsion [CD]-CE--NZ-[HZ2] |==|  0.94264
ROOT
ATOM      1  CA  ARG B   9       1.423   5.641   8.530  1.00 39.43 LIG 0.18  C 
ENDROOT
BRANCH 1 2
ATOM      2  C   ARG B   9       1.077   4.271   9.080  1.00 41.90 LIG 0.24  C 
ATOM      3  N   LYS B  10       1.876   3.270   8.707  1.00 39.13 LIG-0.35  N 
ATOM      4 H    LYS B  10       2.514   3.361   8.138  1.00 39.13 LIG 0.16  HD
ATOM      5 O    ARG B   9       0.107   4.121   9.835  1.00 39.79 LIG-0.27  OA
BRANCH 3 6
ATOM      6  CA  LYS B  10       1.739   1.915   9.237  1.00 38.99 LIG 0.18  C 
BRANCH 6 7
ATOM      7  CB  LYS B  10       1.788   0.855   8.113  1.00 41.38 LIG 0.04  C 
BRANCH 7 8
ATOM      8  CG  LYS B  10       2.929  -0.170   8.201  1.00 61.81 LIG 0.00  C 
BRANCH 8 9
ATOM      9  CD  LYS B  10       4.021   0.058   7.135  1.00 75.86 LIG 0.03  C 
BRANCH 9 10
ATOM     10  CE  LYS B  10       4.837  -1.178   6.798  1.00 87.18 LIG 0.23  C 
BRANCH 10 11
ATOM     11  NZ  LYS B  10       5.950  -0.869   5.861  1.00 91.96 LIG-0.08  N 
ATOM     12 HZ1  LYS B  10       5.819  -1.299   5.092  1.00 91.96 LIG 0.27  HD
ATOM     13 HZ2  LYS B  10       5.976   0.007   5.709  1.00 91.96 LIG 0.27  HD
ATOM     14 HZ3  LYS B  10       6.721  -1.132   6.219  1.00 91.96 LIG 0.27  HD
ENDBRANCH 10 11
ENDBRANCH 9 10
ENDBRANCH 8 9
ENDBRANCH 7 8
ENDBRANCH 6 7
BRANCH 6 15
ATOM     15  C   LYS B  10       2.843   1.715  10.303  1.00 41.93 LIG 0.24  C 
ATOM     16  N   TYR B  11       2.528   0.998  11.400  1.00 37.73 LIG-0.35  N 
ATOM     17 H    TYR B  11       1.744   0.666  11.520  1.00 37.73 LIG 0.16  HD
ATOM     18 O    LYS B  10       3.945   2.246  10.140  1.00 40.97 LIG-0.27  OA
BRANCH 16 19
ATOM     19  CA  TYR B  11       3.445   0.695  12.504  1.00 60.51 LIG 0.17  C 
BRANCH 19 20
ATOM     20  CB  TYR B  11       2.714   0.925  13.847  1.00 61.89 LIG 0.07  C 
BRANCH 20 21
ATOM     21  CG  TYR B  11       3.492   0.782  15.148  1.00 64.48 LIG-0.06  A 
ATOM     22  CD2 TYR B  11       2.832   0.708  16.369  1.00 66.36 LIG 0.01  A 
ATOM     23  CE2 TYR B  11       3.531   0.571  17.567  1.00 66.48 LIG 0.04  A 
ATOM     24  CZ  TYR B  11       4.912   0.546  17.560  1.00 73.62 LIG 0.07  A 
ATOM     25  CE1 TYR B  11       5.597   0.636  16.357  1.00 67.05 LIG 0.04  A 
ATOM     26  CD1 TYR B  11       4.885   0.773  15.161  1.00 65.84 LIG 0.01  A 
BRANCH 24 27
ATOM     27 OH   TYR B  11       5.581   0.420  18.753  1.00 74.96 LIG-0.36  OA
ATOM     28 HH   TYR B  11       5.029   0.286  19.372  1.00 74.96 LIG 0.22  HD
ENDBRANCH 24 27
ENDBRANCH 20 21
ENDBRANCH 19 20
BRANCH 19 29
ATOM     29  C   TYR B  11       3.960  -0.745  12.371  1.00 76.68 LIG 0.22  C 
ATOM     30 O    TYR B  11       3.172  -1.678  12.231  1.00 42.66 LIG-0.29  OA
ENDBRANCH 19 29
ENDBRANCH 16 19
ENDBRANCH 6 15
ENDBRANCH 3 6
ENDBRANCH 1 2
BRANCH 1 31
ATOM     31  CB  ARG B   9       2.232   6.430   9.605  1.00 41.96 LIG 0.04  C 
BRANCH 31 32
ATOM     32  CG  ARG B   9       3.642   6.916   9.223  1.00 54.96 LIG 0.02  C 
BRANCH 32 33
ATOM     33  CD  ARG B   9       4.757   6.097   9.847  1.00 74.30 LIG 0.14  C 
BRANCH 33 34
ATOM     34  NE  ARG B   9       4.745   4.707   9.378  1.00 92.04 LIG-0.23  N 
ATOM     35 HE   ARG B   9       4.444   4.107   9.916  1.00 92.04 LIG 0.18  HD
ATOM     36  CZ  ARG B   9       5.166   4.309   8.179  1.00114.26 LIG 0.67  C 
ATOM     37  NH2 ARG B   9       5.122   3.025   7.845  1.00103.12 LIG-0.23  N 
ATOM     38  NH1 ARG B   9       5.629   5.193   7.300  1.00104.54 LIG-0.23  N 
ATOM     39 1HH2 ARG B   9       4.820   2.446   8.404  1.00103.12 LIG 0.17  HD
ATOM     40 2HH2 ARG B   9       5.395   2.773   7.069  1.00103.12 LIG 0.17  HD
ATOM     41 1HH1 ARG B   9       5.657   6.028   7.505  1.00104.54 LIG 0.17  HD
ATOM     42 2HH1 ARG B   9       5.900   4.930   6.528  1.00104.54 LIG 0.17  HD
ENDBRANCH 33 34
ENDBRANCH 32 33
ENDBRANCH 31 32
ENDBRANCH 1 31
BRANCH 1 43
ATOM     43  N   ARG B   9       0.207   6.346   8.113  1.00 39.07 LIG-0.35  N 
ATOM     44 H    ARG B   9      -0.378   6.423   8.739  1.00 39.07 LIG 0.16  HD
ATOM     45  C   LYS B   8       0.023   6.825   6.877  1.00 42.99 LIG 0.24  C 
ATOM     46 O    LYS B   8       0.874   6.740   5.984  1.00 42.25 LIG-0.27  OA
BRANCH 45 47
ATOM     47  CA  LYS B   8      -1.301   7.529   6.611  1.00 40.35 LIG 0.18  C 
BRANCH 47 48
ATOM     48  N   LYS B   8      -1.058   8.819   5.972  1.00 42.07 LIG-0.35  N 
ATOM     49 H    LYS B   8      -0.368   8.806   5.459  1.00 42.07 LIG 0.16  HD
ATOM     50  C   GLY B   7      -1.792   9.920   6.132  1.00 50.14 LIG 0.24  C 
ATOM     51 O    GLY B   7      -2.763   9.992   6.892  1.00 49.17 LIG-0.27  OA
BRANCH 50 52
ATOM     52  CA  GLY B   7      -1.346  11.114   5.323  1.00 52.80 LIG 0.23  C 
BRANCH 52 53
ATOM     53  N   GLY B   7      -0.072  11.617   5.814  1.00 55.58 LIG-0.35  N 
ATOM     54  C   LEU B   6       0.899  12.124   5.060  1.00 62.88 LIG 0.26  C 
ATOM     55 O    LEU B   6       0.834  12.230   3.830  1.00 62.93 LIG-0.27  OA
ATOM     56 H    GLY B   7       0.000  11.555   6.669  1.00 55.58 LIG 0.16  HD
BRANCH 54 57
ATOM     57  CA  LEU B   6       2.132  12.609   5.856  1.00 62.75 LIG 0.40  C 
ATOM     58  N   LEU B   6       3.334  11.941   5.353  1.00 63.15 LIG 0.61  N 
BRANCH 57 59
ATOM     59  CB  LEU B   6       2.282  14.151   5.828  1.00 63.26 LIG 0.06  C 
BRANCH 59 60
ATOM     60  CG  LEU B   6       1.707  14.935   7.034  1.00 68.65 LIG-0.02  C 
ATOM     61  CD1 LEU B   6       2.229  16.366   7.056  1.00 69.18 LIG 0.01  C 
ATOM     62  CD2 LEU B   6       0.172  14.917   7.056  1.00 70.70 LIG 0.01  C 
ENDBRANCH 59 60
ENDBRANCH 57 59
ENDBRANCH 54 57
ENDBRANCH 52 53
ENDBRANCH 50 52
ENDBRANCH 47 48
BRANCH 47 63
ATOM     63  CB  LYS B   8      -2.205   6.642   5.733  1.00 41.14 LIG 0.04  C 
BRANCH 63 64
ATOM     64  CG  LYS B   8      -3.699   6.843   5.956  1.00 42.09 LIG 0.00  C 
BRANCH 64 65
ATOM     65  CD  LYS B   8      -4.503   5.967   5.013  1.00 43.68 LIG 0.03  C 
BRANCH 65 66
ATOM     66  CE  LYS B   8      -5.905   6.496   4.847  1.00 41.10 LIG 0.23  C 
BRANCH 66 67
ATOM     67  NZ  LYS B   8      -6.771   5.588   4.048  1.00 37.84 LIG-0.08  N 
ATOM     68 HZ3  LYS B   8      -7.277   5.103   4.596  1.00 37.84 LIG 0.27  HD
ATOM     69 HZ2  LYS B   8      -6.262   5.047   3.558  1.00 37.84 LIG 0.27  HD
ATOM     70 HZ1  LYS B   8      -7.292   6.071   3.512  1.00 37.84 LIG 0.27  HD
ENDBRANCH 66 67
ENDBRANCH 65 66
ENDBRANCH 64 65
ENDBRANCH 63 64
ENDBRANCH 47 63
ENDBRANCH 45 47
ENDBRANCH 1 43
TORSDOF 30
ENDMDL
