MODEL 1
USER: ADFR SOLUTION from run 42
USER: SCORE 24.038266 LL:  -5.903 LR: -19.534 RR:   0.000 FEB: -11.779
USER: RMSD 3.837636
USER: SEED 41
USER: STATUS no improvement in best in 11 clusters for 5 generations
USER: GENES 28
USER: genes 0 Translation |==|  0.46249 0.52260 0.41640
USER: genes 1 Rotation |==|  0.51287 0.53658 0.62987 0.98128
USER: genes 2 Torsion [N]-CA--C-[O] |==|  0.77416
USER: genes 3 Torsion [C]-N--CA-[CB] |==|  0.52778
USER: genes 4 Torsion [N]-CA--C-[N] |==|  0.32975
USER: genes 5 Torsion [C]-N--CA-[C] |==|  0.66333
USER: genes 6 Torsion [N]-CA--CB-[CG] |==|  0.88013
USER: genes 7 Torsion [CA]-CB--CG-[CD1] |==|  0.85484
USER: genes 8 Torsion [N]-CA--C-[N] |==|  0.24763
USER: genes 9 Torsion [C]-N--CA-[C] |==|  0.88753
USER: genes 10 Torsion [N]-CA--CB-[CG] |==|  0.72589
USER: genes 11 Torsion [CA]-CB--CG-[OD1] |==|  0.30960
USER: genes 12 Torsion [N]-CA--C-[O] |==|  0.82007
USER: genes 13 Torsion [N]-CA--CB-[CG2] |==|  0.44730
USER: genes 14 Torsion [CA]-CB--CG1-[CD1] |==|  0.72259
USER: genes 15 Torsion [N]-C--CA-[N] |==|  0.40423
USER: genes 16 Torsion [C]-CA--N-[C] |==|  0.85490
USER: genes 17 Torsion [N]-C--CA-[N] |==|  0.08281
USER: genes 18 Torsion [C]-CA--N-[C] |==|  0.65121
USER: genes 19 Torsion [N]-C--CA-[N] |==|  0.41072
USER: genes 20 Torsion [C]-CA--CB-[CG1] |==|  0.13524
USER: genes 21 Torsion [CA]-CB--CG1-[CD1] |==|  0.56617
USER: genes 22 Torsion [C]-CA--CB-[CG] |==|  0.30345
USER: genes 23 Torsion [CA]-CB--CG-[CD] |==|  0.20150
USER: genes 24 Torsion [CB]-CG--CD-[NE] |==|  0.71198
USER: genes 25 Torsion [CG]-CD--NE-[CZ] |==|  0.44081
USER: genes 26 Torsion [C]-CA--CB-[CG1] |==|  0.35891
USER: genes 27 Torsion [CA]-CB--CG1-[CD1] |==|  0.75792
ROOT
ATOM      1  C   ILE E1023     -48.919  25.555  -1.924  1.00 40.02 LIG 0.24  C 
ATOM      2 O    ILE E1023     -49.523  26.629  -2.065  1.00 38.38 LIG-0.27  OA
ATOM      3  N   PRO E1024     -49.284  24.614  -1.018  1.00 37.38 LIG-0.34  N 
ATOM      4  CA  PRO E1024     -50.355  24.916  -0.057  1.00 36.67 LIG 0.18  C 
ATOM      5  CB  PRO E1024     -50.717  23.548   0.514  1.00 38.74 LIG 0.04  C 
ATOM      6  CG  PRO E1024     -49.475  22.748   0.404  1.00 43.33 LIG 0.02  C 
ATOM      7  CD  PRO E1024     -48.666  23.298  -0.736  1.00 39.42 LIG 0.13  C 
ENDROOT
BRANCH 4 8
ATOM      8  C   PRO E1024     -49.808  25.853   1.012  1.00 39.60 LIG 0.24  C 
ATOM      9 O    PRO E1024     -49.158  25.383   1.945  1.00 37.18 LIG-0.27  OA
ATOM     10  N   ILE E1025     -50.045  27.171   0.847  1.00 37.20 LIG-0.35  N 
ATOM     11 H    ILE E1025     -50.496  27.465   0.177  1.00 37.20 LIG 0.16  HD
BRANCH 10 12
ATOM     12  CA  ILE E1025     -49.599  28.257   1.731  1.00 37.42 LIG 0.18  C 
BRANCH 12 13
ATOM     13  C   ILE E1025     -50.055  28.009   3.167  1.00 40.88 LIG 0.24  C 
ATOM     14 O    ILE E1025     -51.248  28.138   3.443  1.00 40.29 LIG-0.27  OA
ATOM     15  N   PHE E1026     -49.106  27.874   4.115  1.00 36.23 LIG-0.35  N 
ATOM     16 H    PHE E1026     -48.269  27.768   3.950  1.00 36.23 LIG 0.16  HD
BRANCH 15 17
ATOM     17  CA  PHE E1026     -49.453  27.900   5.542  1.00 36.58 LIG 0.18  C 
BRANCH 17 18
ATOM     18  CB  PHE E1026     -49.156  26.564   6.217  1.00 38.58 LIG 0.07  C 
BRANCH 18 19
ATOM     19  CG  PHE E1026     -49.585  25.392   5.384  1.00 40.24 LIG-0.06  A 
ATOM     20  CD1 PHE E1026     -50.869  25.315   4.887  1.00 42.20 LIG 0.01  A 
ATOM     21  CE1 PHE E1026     -51.266  24.227   4.129  1.00 42.54 LIG 0.00  A 
ATOM     22  CZ  PHE E1026     -50.384  23.213   3.862  1.00 41.81 LIG 0.00  A 
ATOM     23  CE2 PHE E1026     -49.106  23.266   4.352  1.00 44.36 LIG 0.00  A 
ATOM     24  CD2 PHE E1026     -48.706  24.350   5.117  1.00 42.30 LIG 0.01  A 
ENDBRANCH 18 19
ENDBRANCH 17 18
BRANCH 17 25
ATOM     25  C   PHE E1026     -48.718  29.019   6.256  1.00 38.60 LIG 0.24  C 
ATOM     26  N   ASN E1027     -49.345  30.221   6.283  1.00 38.80 LIG-0.35  N 
ATOM     27 H    ASN E1027     -50.103  30.354   5.898  1.00 38.80 LIG 0.16  HD
ATOM     28 O    PHE E1026     -47.650  28.787   6.819  1.00 31.59 LIG-0.27  OA
BRANCH 26 29
ATOM     29  CA  ASN E1027     -48.826  31.419   6.954  1.00 74.37 LIG 0.17  C 
BRANCH 29 30
ATOM     30  CB  ASN E1027     -49.948  32.427   7.183  1.00 75.17 LIG 0.14  C 
BRANCH 30 31
ATOM     31  CG  ASN E1027     -49.987  33.519   6.144  1.00 99.64 LIG 0.22  C 
ATOM     32  ND2 ASN E1027     -48.994  34.405   6.143  1.00 92.55 LIG-0.37  N 
ATOM     33 22HD ASN E1027     -48.358  34.338   6.718  1.00 92.55 LIG 0.16  HD
ATOM     34 21HD ASN E1027     -48.989  35.045   5.569  1.00 92.55 LIG 0.16  HD
ATOM     35 OD1  ASN E1027     -50.913  33.589   5.333  1.00 94.01 LIG-0.27  OA
ENDBRANCH 30 31
ENDBRANCH 29 30
BRANCH 29 36
ATOM     36  C   ASN E1027     -48.201  31.042   8.295  1.00103.37 LIG 0.22  C 
ATOM     37 O    ASN E1027     -48.895  30.582   9.197  1.00 69.20 LIG-0.29  OA
ENDBRANCH 29 36
ENDBRANCH 26 29
ENDBRANCH 17 25
ENDBRANCH 15 17
ENDBRANCH 12 13
BRANCH 12 38
ATOM     38  CB  ILE E1025     -50.328  29.599   1.282  1.00 40.50 LIG 0.01  C 
ATOM     39  CG2 ILE E1025     -50.302  30.659   2.392  1.00 43.95 LIG 0.01  C 
BRANCH 38 40
ATOM     40  CG1 ILE E1025     -49.786  30.170  -0.028  1.00 41.58 LIG 0.00  C 
ATOM     41  CD1 ILE E1025     -48.739  31.390   0.203  1.00 52.05 LIG 0.01  C 
ENDBRANCH 38 40
ENDBRANCH 12 38
ENDBRANCH 10 12
ENDBRANCH 4 8
BRANCH 1 42
ATOM     42  CA  ILE E1023     -47.780  25.238  -2.878  1.00 36.06 LIG 0.18  C 
BRANCH 42 43
ATOM     43  N   ILE E1023     -48.102  25.898  -4.158  1.00 37.96 LIG-0.35  N 
ATOM     44  C   ARG E1022     -49.284  25.736  -4.790  1.00 45.42 LIG 0.24  C 
ATOM     45 O    ARG E1022     -50.158  24.965  -4.394  1.00 45.23 LIG-0.27  OA
ATOM     46 H    ILE E1023     -47.469  26.395  -4.461  1.00 37.96 LIG 0.16  HD
BRANCH 44 47
ATOM     47  CA  ARG E1022     -49.518  26.489  -6.100  1.00 45.59 LIG 0.18  C 
BRANCH 47 48
ATOM     48  N   ARG E1022     -48.280  26.730  -6.859  1.00 48.30 LIG-0.35  N 
ATOM     49 H    ARG E1022     -47.820  26.023  -7.023  1.00 48.30 LIG 0.16  HD
ATOM     50  C   ILE E1021     -47.919  27.972  -7.253  1.00 57.51 LIG 0.26  C 
ATOM     51 O    ILE E1021     -48.600  28.976  -7.008  1.00 59.03 LIG-0.27  OA
BRANCH 50 52
ATOM     52  CA  ILE E1021     -46.614  28.129  -8.050  1.00 57.59 LIG 0.40  C 
ATOM     53  N   ILE E1021     -46.766  29.241  -8.983  1.00 58.96 LIG 0.61  N 
BRANCH 52 54
ATOM     54  CB  ILE E1021     -45.392  28.454  -7.145  1.00 60.58 LIG 0.03  C 
ATOM     55  CG2 ILE E1021     -45.376  29.905  -6.671  1.00 61.37 LIG 0.01  C 
BRANCH 54 56
ATOM     56  CG1 ILE E1021     -45.332  27.482  -5.941  1.00 60.59 LIG 0.00  C 
ATOM     57  CD1 ILE E1021     -44.589  28.044  -4.787  1.00 60.15 LIG 0.01  C 
ENDBRANCH 54 56
ENDBRANCH 52 54
ENDBRANCH 50 52
ENDBRANCH 47 48
BRANCH 47 58
ATOM     58  CB  ARG E1022     -50.556  25.721  -6.927  1.00 44.33 LIG 0.04  C 
BRANCH 58 59
ATOM     59  CG  ARG E1022     -51.901  26.433  -7.011  1.00 47.73 LIG 0.02  C 
BRANCH 59 60
ATOM     60  CD  ARG E1022     -51.872  27.655  -7.905  1.00 47.87 LIG 0.14  C 
BRANCH 60 61
ATOM     61  NE  ARG E1022     -51.841  28.879  -7.105  1.00 55.98 LIG-0.23  N 
ATOM     62  CZ  ARG E1022     -51.423  30.074  -7.512  1.00 56.00 LIG 0.67  C 
ATOM     63  NH1 ARG E1022     -51.000  30.254  -8.759  1.00 48.69 LIG-0.23  N 
ATOM     64  NH2 ARG E1022     -51.453  31.108  -6.685  1.00 32.20 LIG-0.23  N 
ATOM     65 1HH1 ARG E1022     -50.996  29.595  -9.311  1.00 48.69 LIG 0.17  HD
ATOM     66 2HH1 ARG E1022     -50.731  31.030  -9.014  1.00 48.69 LIG 0.17  HD
ATOM     67 2HH2 ARG E1022     -51.182  31.880  -6.951  1.00 32.20 LIG 0.17  HD
ATOM     68 1HH2 ARG E1022     -51.745  31.008  -5.882  1.00 32.20 LIG 0.17  HD
ATOM     69 HE   ARG E1022     -52.122  28.820  -6.294  1.00 55.98 LIG 0.18  HD
ENDBRANCH 60 61
ENDBRANCH 59 60
ENDBRANCH 58 59
ENDBRANCH 47 58
ENDBRANCH 44 47
ENDBRANCH 42 43
BRANCH 42 70
ATOM     70  CB  ILE E1023     -46.430  25.727  -2.257  1.00 38.78 LIG 0.01  C 
ATOM     71  CG2 ILE E1023     -46.657  26.300  -0.850  1.00 39.01 LIG 0.01  C 
BRANCH 70 72
ATOM     72  CG1 ILE E1023     -45.320  24.634  -2.252  1.00 39.61 LIG 0.00  C 
ATOM     73  CD1 ILE E1023     -45.274  23.697  -1.072  1.00 43.21 LIG 0.01  C 
ENDBRANCH 70 72
ENDBRANCH 42 70
ENDBRANCH 1 42
TORSDOF 26
ENDMDL
MODEL 2
USER: ADFR SOLUTION from run 119
USER: SCORE 23.416171 LL:  -5.690 LR: -19.282 RR:   0.000 FEB: -11.526
USER: RMSD 2.868293
USER: SEED 118
USER: STATUS no improvement in best in 3 clusters for 5 generations
USER: GENES 28
USER: genes 0 Translation |==|  0.55558 0.45986 0.38760
USER: genes 1 Rotation |==|  0.40454 0.47783 0.48522 0.99008
USER: genes 2 Torsion [N]-CA--C-[O] |==|  0.05623
USER: genes 3 Torsion [C]-N--CA-[CB] |==|  0.28703
USER: genes 4 Torsion [N]-CA--C-[N] |==|  0.31416
USER: genes 5 Torsion [C]-N--CA-[C] |==|  0.67472
USER: genes 6 Torsion [N]-CA--CB-[CG] |==|  0.96348
USER: genes 7 Torsion [CA]-CB--CG-[CD1] |==|  0.80000
USER: genes 8 Torsion [N]-CA--C-[N] |==|  0.34724
USER: genes 9 Torsion [C]-N--CA-[C] |==|  0.86185
USER: genes 10 Torsion [N]-CA--CB-[CG] |==|  0.74402
USER: genes 11 Torsion [CA]-CB--CG-[OD1] |==|  0.30478
USER: genes 12 Torsion [N]-CA--C-[O] |==|  0.25476
USER: genes 13 Torsion [N]-CA--CB-[CG2] |==|  0.11023
USER: genes 14 Torsion [CA]-CB--CG1-[CD1] |==|  0.48679
USER: genes 15 Torsion [N]-C--CA-[N] |==|  0.40562
USER: genes 16 Torsion [C]-CA--N-[C] |==|  0.78459
USER: genes 17 Torsion [N]-C--CA-[N] |==|  0.89506
USER: genes 18 Torsion [C]-CA--N-[C] |==|  0.84781
USER: genes 19 Torsion [N]-C--CA-[N] |==|  0.38570
USER: genes 20 Torsion [C]-CA--CB-[CG1] |==|  0.00779
USER: genes 21 Torsion [CA]-CB--CG1-[CD1] |==|  0.37571
USER: genes 22 Torsion [C]-CA--CB-[CG] |==|  0.30286
USER: genes 23 Torsion [CA]-CB--CG-[CD] |==|  0.61777
USER: genes 24 Torsion [CB]-CG--CD-[NE] |==|  0.79372
USER: genes 25 Torsion [CG]-CD--NE-[CZ] |==|  0.51442
USER: genes 26 Torsion [C]-CA--CB-[CG1] |==|  0.45150
USER: genes 27 Torsion [CA]-CB--CG1-[CD1] |==|  0.03087
ROOT
ATOM      1  C   ILE E1023     -47.522  24.097  -2.745  1.00 40.02 LIG 0.24  C 
ATOM      2 O    ILE E1023     -47.370  25.127  -3.418  1.00 38.38 LIG-0.27  OA
ATOM      3  N   PRO E1024     -48.525  23.943  -1.844  1.00 37.38 LIG-0.34  N 
ATOM      4  CA  PRO E1024     -49.398  25.085  -1.536  1.00 36.67 LIG 0.18  C 
ATOM      5  CB  PRO E1024     -50.575  24.445  -0.803  1.00 38.74 LIG 0.04  C 
ATOM      6  CG  PRO E1024     -50.012  23.234  -0.163  1.00 43.33 LIG 0.02  C 
ATOM      7  CD  PRO E1024     -48.831  22.784  -0.974  1.00 39.42 LIG 0.13  C 
ENDROOT
BRANCH 4 8
ATOM      8  C   PRO E1024     -48.638  26.062  -0.648  1.00 39.60 LIG 0.24  C 
ATOM      9 O    PRO E1024     -47.409  26.017  -0.625  1.00 37.18 LIG-0.27  OA
ATOM     10  N   ILE E1025     -49.373  26.958   0.042  1.00 37.20 LIG-0.35  N 
ATOM     11 H    ILE E1025     -50.232  26.965  -0.006  1.00 37.20 LIG 0.16  HD
BRANCH 10 12
ATOM     12  CA  ILE E1025     -48.862  28.005   0.937  1.00 37.42 LIG 0.18  C 
BRANCH 12 13
ATOM     13  C   ILE E1025     -49.763  28.160   2.159  1.00 40.88 LIG 0.24  C 
ATOM     14 O    ILE E1025     -50.826  28.773   2.042  1.00 40.29 LIG-0.27  OA
ATOM     15  N   PHE E1026     -49.259  27.815   3.361  1.00 36.23 LIG-0.35  N 
ATOM     16 H    PHE E1026     -48.528  27.376   3.471  1.00 36.23 LIG 0.16  HD
BRANCH 15 17
ATOM     17  CA  PHE E1026     -49.952  28.178   4.604  1.00 36.58 LIG 0.18  C 
BRANCH 17 18
ATOM     18  CB  PHE E1026     -50.338  26.944   5.415  1.00 38.58 LIG 0.07  C 
BRANCH 18 19
ATOM     19  CG  PHE E1026     -50.211  25.676   4.624  1.00 40.24 LIG-0.06  A 
ATOM     20  CD1 PHE E1026     -51.106  25.381   3.618  1.00 42.20 LIG 0.01  A 
ATOM     21  CE1 PHE E1026     -50.995  24.205   2.896  1.00 42.54 LIG 0.00  A 
ATOM     22  CZ  PHE E1026     -49.988  23.319   3.176  1.00 41.81 LIG 0.00  A 
ATOM     23  CE2 PHE E1026     -49.092  23.587   4.176  1.00 44.36 LIG 0.00  A 
ATOM     24  CD2 PHE E1026     -49.204  24.761   4.904  1.00 42.30 LIG 0.01  A 
ENDBRANCH 18 19
ENDBRANCH 17 18
BRANCH 17 25
ATOM     25  C   PHE E1026     -49.098  29.107   5.447  1.00 38.60 LIG 0.24  C 
ATOM     26  N   ASN E1027     -49.672  30.282   5.806  1.00 38.80 LIG-0.35  N 
ATOM     27 H    ASN E1027     -50.464  30.504   5.553  1.00 38.80 LIG 0.16  HD
ATOM     28 O    PHE E1026     -47.981  28.747   5.813  1.00 31.59 LIG-0.27  OA
BRANCH 26 29
ATOM     29  CA  ASN E1027     -49.035  31.300   6.649  1.00 74.37 LIG 0.17  C 
BRANCH 29 30
ATOM     30  CB  ASN E1027     -50.044  32.376   7.037  1.00 75.17 LIG 0.14  C 
BRANCH 30 31
ATOM     31  CG  ASN E1027     -50.061  33.545   6.084  1.00 99.64 LIG 0.22  C 
ATOM     32  ND2 ASN E1027     -49.013  34.364   6.093  1.00 92.55 LIG-0.37  N 
ATOM     33 22HD ASN E1027     -48.354  34.212   6.625  1.00 92.55 LIG 0.16  HD
ATOM     34 21HD ASN E1027     -48.993  35.044   5.568  1.00 92.55 LIG 0.16  HD
ATOM     35 OD1  ASN E1027     -51.020  33.736   5.333  1.00 94.01 LIG-0.27  OA
ENDBRANCH 30 31
ENDBRANCH 29 30
BRANCH 29 36
ATOM     36  C   ASN E1027     -48.468  30.658   7.914  1.00103.37 LIG 0.22  C 
ATOM     37 O    ASN E1027     -47.306  30.260   7.941  1.00 69.20 LIG-0.29  OA
ENDBRANCH 29 36
ENDBRANCH 26 29
ENDBRANCH 17 25
ENDBRANCH 15 17
ENDBRANCH 12 13
BRANCH 12 38
ATOM     38  CB  ILE E1025     -48.942  29.399   0.173  1.00 40.50 LIG 0.01  C 
ATOM     39  CG2 ILE E1025     -50.231  29.523  -0.652  1.00 43.95 LIG 0.01  C 
BRANCH 38 40
ATOM     40  CG1 ILE E1025     -48.770  30.604   1.097  1.00 41.58 LIG 0.00  C 
ATOM     41  CD1 ILE E1025     -48.731  32.014   0.290  1.00 52.05 LIG 0.01  C 
ENDBRANCH 38 40
ENDBRANCH 12 38
ENDBRANCH 10 12
ENDBRANCH 4 8
BRANCH 1 42
ATOM     42  CA  ILE E1023     -46.605  22.917  -3.015  1.00 36.06 LIG 0.18  C 
BRANCH 42 43
ATOM     43  N   ILE E1023     -46.229  22.989  -4.440  1.00 37.96 LIG-0.35  N 
ATOM     44  C   ARG E1022     -47.055  22.605  -5.437  1.00 45.42 LIG 0.24  C 
ATOM     45 O    ARG E1022     -48.157  22.092  -5.238  1.00 45.23 LIG-0.27  OA
ATOM     46 H    ILE E1023     -45.438  23.298  -4.575  1.00 37.96 LIG 0.16  HD
BRANCH 44 47
ATOM     47  CA  ARG E1022     -46.570  22.747  -6.880  1.00 45.59 LIG 0.18  C 
BRANCH 47 48
ATOM     48  N   ARG E1022     -45.775  23.965  -7.107  1.00 48.30 LIG-0.35  N 
ATOM     49 H    ARG E1022     -44.998  23.825  -7.447  1.00 48.30 LIG 0.16  HD
ATOM     50  C   ILE E1021     -46.252  25.191  -6.797  1.00 57.51 LIG 0.26  C 
ATOM     51 O    ILE E1021     -47.376  25.369  -6.311  1.00 59.03 LIG-0.27  OA
BRANCH 50 52
ATOM     52  CA  ILE E1021     -45.356  26.410  -7.077  1.00 57.59 LIG 0.40  C 
ATOM     53  N   ILE E1021     -46.182  27.482  -7.624  1.00 58.96 LIG 0.61  N 
BRANCH 52 54
ATOM     54  CB  ILE E1021     -44.676  26.964  -5.793  1.00 60.58 LIG 0.03  C 
ATOM     55  CG2 ILE E1021     -45.015  28.428  -5.529  1.00 61.37 LIG 0.01  C 
BRANCH 54 56
ATOM     56  CG1 ILE E1021     -45.032  26.088  -4.567  1.00 60.59 LIG 0.00  C 
ATOM     57  CD1 ILE E1021     -43.855  25.789  -3.715  1.00 60.15 LIG 0.01  C 
ENDBRANCH 54 56
ENDBRANCH 52 54
ENDBRANCH 50 52
ENDBRANCH 47 48
BRANCH 47 58
ATOM     58  CB  ARG E1022     -45.795  21.479  -7.261  1.00 44.33 LIG 0.04  C 
BRANCH 58 59
ATOM     59  CG  ARG E1022     -46.539  20.600  -8.259  1.00 47.73 LIG 0.02  C 
BRANCH 59 60
ATOM     60  CD  ARG E1022     -46.456  19.124  -7.929  1.00 47.87 LIG 0.14  C 
BRANCH 60 61
ATOM     61  NE  ARG E1022     -45.129  18.598  -8.244  1.00 55.98 LIG-0.23  N 
ATOM     62  CZ  ARG E1022     -44.748  17.326  -8.167  1.00 56.00 LIG 0.67  C 
ATOM     63  NH1 ARG E1022     -45.610  16.383  -7.801  1.00 48.69 LIG-0.23  N 
ATOM     64  NH2 ARG E1022     -43.511  16.979  -8.489  1.00 32.20 LIG-0.23  N 
ATOM     65 1HH1 ARG E1022     -46.422  16.594  -7.611  1.00 48.69 LIG 0.17  HD
ATOM     66 2HH1 ARG E1022     -45.356  15.564  -7.754  1.00 48.69 LIG 0.17  HD
ATOM     67 2HH2 ARG E1022     -43.268  16.156  -8.438  1.00 32.20 LIG 0.17  HD
ATOM     68 1HH2 ARG E1022     -42.950  17.578  -8.749  1.00 32.20 LIG 0.17  HD
ATOM     69 HE   ARG E1022     -44.537  19.166  -8.504  1.00 55.98 LIG 0.18  HD
ENDBRANCH 60 61
ENDBRANCH 59 60
ENDBRANCH 58 59
ENDBRANCH 47 58
ENDBRANCH 44 47
ENDBRANCH 42 43
BRANCH 42 70
ATOM     70  CB  ILE E1023     -45.374  22.985  -2.052  1.00 38.78 LIG 0.01  C 
ATOM     71  CG2 ILE E1023     -45.795  23.511  -0.671  1.00 39.01 LIG 0.01  C 
BRANCH 70 72
ATOM     72  CG1 ILE E1023     -44.606  21.634  -1.933  1.00 39.61 LIG 0.00  C 
ATOM     73  CD1 ILE E1023     -44.959  20.547  -2.917  1.00 43.21 LIG 0.01  C 
ENDBRANCH 70 72
ENDBRANCH 42 70
ENDBRANCH 1 42
TORSDOF 26
ENDMDL
MODEL 3
USER: ADFR SOLUTION from run 82
USER: SCORE 24.683727 LL:  -6.305 LR: -19.253 RR:   0.000 FEB: -11.498
USER: RMSD 2.815538
USER: SEED 81
USER: STATUS searching
USER: GENES 28
USER: genes 0 Translation |==|  0.49686 0.50279 0.41883
USER: genes 1 Rotation |==|  0.48021 0.48514 0.57971 0.99299
USER: genes 2 Torsion [N]-CA--C-[O] |==|  0.80039
USER: genes 3 Torsion [C]-N--CA-[CB] |==|  0.55015
USER: genes 4 Torsion [N]-CA--C-[N] |==|  0.32385
USER: genes 5 Torsion [C]-N--CA-[C] |==|  0.67390
USER: genes 6 Torsion [N]-CA--CB-[CG] |==|  0.86878
USER: genes 7 Torsion [CA]-CB--CG-[CD1] |==|  0.86112
USER: genes 8 Torsion [N]-CA--C-[N] |==|  0.26111
USER: genes 9 Torsion [C]-N--CA-[C] |==|  0.87315
USER: genes 10 Torsion [N]-CA--CB-[CG] |==|  0.70227
USER: genes 11 Torsion [CA]-CB--CG-[OD1] |==|  0.34121
USER: genes 12 Torsion [N]-CA--C-[O] |==|  0.23694
USER: genes 13 Torsion [N]-CA--CB-[CG2] |==|  0.44049
USER: genes 14 Torsion [CA]-CB--CG1-[CD1] |==|  0.70837
USER: genes 15 Torsion [N]-C--CA-[N] |==|  0.36755
USER: genes 16 Torsion [C]-CA--N-[C] |==|  0.83714
USER: genes 17 Torsion [N]-C--CA-[N] |==|  0.99456
USER: genes 18 Torsion [C]-CA--N-[C] |==|  0.73589
USER: genes 19 Torsion [N]-C--CA-[N] |==|  0.46845
USER: genes 20 Torsion [C]-CA--CB-[CG1] |==|  0.12184
USER: genes 21 Torsion [CA]-CB--CG1-[CD1] |==|  0.53632
USER: genes 22 Torsion [C]-CA--CB-[CG] |==|  0.81662
USER: genes 23 Torsion [CA]-CB--CG-[CD] |==|  0.22247
USER: genes 24 Torsion [CB]-CG--CD-[NE] |==|  0.51893
USER: genes 25 Torsion [CG]-CD--NE-[CZ] |==|  0.19405
USER: genes 26 Torsion [C]-CA--CB-[CG1] |==|  0.34196
USER: genes 27 Torsion [CA]-CB--CG1-[CD1] |==|  0.06877
ROOT
ATOM      1  C   ILE E1023     -48.403  25.095  -1.855  1.00 40.02 LIG 0.24  C 
ATOM      2 O    ILE E1023     -48.724  26.241  -2.203  1.00 38.38 LIG-0.27  OA
ATOM      3  N   PRO E1024     -49.146  24.345  -1.003  1.00 37.38 LIG-0.34  N 
ATOM      4  CA  PRO E1024     -50.313  24.947  -0.343  1.00 36.67 LIG 0.18  C 
ATOM      5  CB  PRO E1024     -51.069  23.743   0.213  1.00 38.74 LIG 0.04  C 
ATOM      6  CG  PRO E1024     -50.027  22.717   0.450  1.00 43.33 LIG 0.02  C 
ATOM      7  CD  PRO E1024     -48.893  22.975  -0.499  1.00 39.42 LIG 0.13  C 
ENDROOT
BRANCH 4 8
ATOM      8  C   PRO E1024     -49.830  25.877   0.763  1.00 39.60 LIG 0.24  C 
ATOM      9 O    PRO E1024     -49.349  25.391   1.785  1.00 37.18 LIG-0.27  OA
ATOM     10  N   ILE E1025     -49.930  27.202   0.533  1.00 37.20 LIG-0.35  N 
ATOM     11 H    ILE E1025     -50.264  27.506  -0.199  1.00 37.20 LIG 0.16  HD
BRANCH 10 12
ATOM     12  CA  ILE E1025     -49.510  28.281   1.437  1.00 37.42 LIG 0.18  C 
BRANCH 12 13
ATOM     13  C   ILE E1025     -50.004  28.019   2.858  1.00 40.88 LIG 0.24  C 
ATOM     14 O    ILE E1025     -51.198  28.183   3.113  1.00 40.29 LIG-0.27  OA
ATOM     15  N   PHE E1026     -49.080  27.834   3.822  1.00 36.23 LIG-0.35  N 
ATOM     16 H    PHE E1026     -48.244  27.704   3.672  1.00 36.23 LIG 0.16  HD
BRANCH 15 17
ATOM     17  CA  PHE E1026     -49.456  27.843   5.242  1.00 36.58 LIG 0.18  C 
BRANCH 17 18
ATOM     18  CB  PHE E1026     -49.131  26.515   5.919  1.00 38.58 LIG 0.07  C 
BRANCH 18 19
ATOM     19  CG  PHE E1026     -49.596  25.334   5.117  1.00 40.24 LIG-0.06  A 
ATOM     20  CD1 PHE E1026     -50.886  25.274   4.636  1.00 42.20 LIG 0.01  A 
ATOM     21  CE1 PHE E1026     -51.316  24.179   3.907  1.00 42.54 LIG 0.00  A 
ATOM     22  CZ  PHE E1026     -50.459  23.140   3.653  1.00 41.81 LIG 0.00  A 
ATOM     23  CE2 PHE E1026     -49.174  23.175   4.127  1.00 44.36 LIG 0.00  A 
ATOM     24  CD2 PHE E1026     -48.742  24.267   4.863  1.00 42.30 LIG 0.01  A 
ENDBRANCH 18 19
ENDBRANCH 17 18
BRANCH 17 25
ATOM     25  C   PHE E1026     -48.771  28.981   5.975  1.00 38.60 LIG 0.24  C 
ATOM     26  N   ASN E1027     -49.480  30.133   6.082  1.00 38.80 LIG-0.35  N 
ATOM     27 H    ASN E1027     -50.262  30.226   5.735  1.00 38.80 LIG 0.16  HD
ATOM     28 O    PHE E1026     -47.665  28.804   6.482  1.00 31.59 LIG-0.27  OA
BRANCH 26 29
ATOM     29  CA  ASN E1027     -49.017  31.336   6.784  1.00 74.37 LIG 0.17  C 
BRANCH 29 30
ATOM     30  CB  ASN E1027     -50.175  32.307   6.992  1.00 75.17 LIG 0.14  C 
BRANCH 30 31
ATOM     31  CG  ASN E1027     -50.100  33.520   6.098  1.00 99.64 LIG 0.22  C 
ATOM     32  ND2 ASN E1027     -49.008  34.276   6.176  1.00 92.55 LIG-0.37  N 
ATOM     33 22HD ASN E1027     -48.375  34.062   6.716  1.00 92.55 LIG 0.16  HD
ATOM     34 21HD ASN E1027     -48.935  34.979   5.686  1.00 92.55 LIG 0.16  HD
ATOM     35 OD1  ASN E1027     -51.025  33.801   5.333  1.00 94.01 LIG-0.27  OA
ENDBRANCH 30 31
ENDBRANCH 29 30
BRANCH 29 36
ATOM     36  C   ASN E1027     -48.422  30.959   8.140  1.00103.37 LIG 0.22  C 
ATOM     37 O    ASN E1027     -47.246  30.618   8.228  1.00 69.20 LIG-0.29  OA
ENDBRANCH 29 36
ENDBRANCH 26 29
ENDBRANCH 17 25
ENDBRANCH 15 17
ENDBRANCH 12 13
BRANCH 12 38
ATOM     38  CB  ILE E1025     -50.228  29.625   0.981  1.00 40.50 LIG 0.01  C 
ATOM     39  CG2 ILE E1025     -50.288  30.654   2.119  1.00 43.95 LIG 0.01  C 
BRANCH 38 40
ATOM     40  CG1 ILE E1025     -49.614  30.241  -0.276  1.00 41.58 LIG 0.00  C 
ATOM     41  CD1 ILE E1025     -48.706  31.550   0.044  1.00 52.05 LIG 0.01  C 
ENDBRANCH 38 40
ENDBRANCH 12 38
ENDBRANCH 10 12
ENDBRANCH 4 8
BRANCH 1 42
ATOM     42  CA  ILE E1023     -47.176  24.465  -2.491  1.00 36.06 LIG 0.18  C 
BRANCH 42 43
ATOM     43  N   ILE E1023     -47.242  24.770  -3.933  1.00 37.96 LIG-0.35  N 
ATOM     44  C   ARG E1022     -48.278  24.396  -4.715  1.00 45.42 LIG 0.24  C 
ATOM     45 O    ARG E1022     -49.213  23.706  -4.309  1.00 45.23 LIG-0.27  OA
ATOM     46 H    ILE E1023     -46.562  25.206  -4.227  1.00 37.96 LIG 0.16  HD
BRANCH 44 47
ATOM     47  CA  ARG E1022     -48.251  24.788  -6.193  1.00 45.59 LIG 0.18  C 
BRANCH 47 48
ATOM     48  N   ARG E1022     -47.071  25.588  -6.560  1.00 48.30 LIG-0.35  N 
ATOM     49 H    ARG E1022     -46.373  25.125  -6.749  1.00 48.30 LIG 0.16  HD
ATOM     50  C   ILE E1021     -47.111  26.939  -6.589  1.00 57.51 LIG 0.26  C 
ATOM     51 O    ILE E1021     -48.131  27.584  -6.316  1.00 59.03 LIG-0.27  OA
BRANCH 50 52
ATOM     52  CA  ILE E1021     -45.834  27.693  -6.993  1.00 57.59 LIG 0.40  C 
ATOM     53  N   ILE E1021     -46.170  29.095  -7.219  1.00 58.96 LIG 0.61  N 
BRANCH 52 54
ATOM     54  CB  ILE E1021     -44.740  27.657  -5.888  1.00 60.58 LIG 0.03  C 
ATOM     55  CG2 ILE E1021     -44.974  28.689  -4.789  1.00 61.37 LIG 0.01  C 
BRANCH 54 56
ATOM     56  CG1 ILE E1021     -44.617  26.234  -5.290  1.00 60.59 LIG 0.00  C 
ATOM     57  CD1 ILE E1021     -43.823  26.205  -4.038  1.00 60.15 LIG 0.01  C 
ENDBRANCH 54 56
ENDBRANCH 52 54
ENDBRANCH 50 52
ENDBRANCH 47 48
BRANCH 47 58
ATOM     58  CB  ARG E1022     -48.364  23.513  -7.038  1.00 44.33 LIG 0.04  C 
BRANCH 58 59
ATOM     59  CG  ARG E1022     -47.157  22.593  -6.899  1.00 47.73 LIG 0.02  C 
BRANCH 59 60
ATOM     60  CD  ARG E1022     -47.195  21.748  -5.643  1.00 47.87 LIG 0.14  C 
BRANCH 60 61
ATOM     61  NE  ARG E1022     -45.944  21.008  -5.481  1.00 55.98 LIG-0.23  N 
ATOM     62  CZ  ARG E1022     -44.758  21.527  -5.177  1.00 56.00 LIG 0.67  C 
ATOM     63  NH1 ARG E1022     -44.625  22.831  -4.963  1.00 48.69 LIG-0.23  N 
ATOM     64  NH2 ARG E1022     -43.699  20.741  -5.052  1.00 32.20 LIG-0.23  N 
ATOM     65 1HH1 ARG E1022     -45.310  23.348  -5.020  1.00 48.69 LIG 0.17  HD
ATOM     66 2HH1 ARG E1022     -43.854  23.158  -4.767  1.00 48.69 LIG 0.17  HD
ATOM     67 2HH2 ARG E1022     -42.933  21.080  -4.856  1.00 32.20 LIG 0.17  HD
ATOM     68 1HH2 ARG E1022     -43.777  19.892  -5.167  1.00 32.20 LIG 0.17  HD
ATOM     69 HE   ARG E1022     -45.979  20.155  -5.591  1.00 55.98 LIG 0.18  HD
ENDBRANCH 60 61
ENDBRANCH 59 60
ENDBRANCH 58 59
ENDBRANCH 47 58
ENDBRANCH 44 47
ENDBRANCH 42 43
BRANCH 42 70
ATOM     70  CB  ILE E1023     -45.888  25.028  -1.803  1.00 38.78 LIG 0.01  C 
ATOM     71  CG2 ILE E1023     -46.254  26.087  -0.753  1.00 39.01 LIG 0.01  C 
BRANCH 70 72
ATOM     72  CG1 ILE E1023     -44.977  23.919  -1.196  1.00 39.61 LIG 0.00  C 
ATOM     73  CD1 ILE E1023     -45.077  22.536  -1.790  1.00 43.21 LIG 0.01  C 
ENDBRANCH 70 72
ENDBRANCH 42 70
ENDBRANCH 1 42
TORSDOF 26
ENDMDL
MODEL 4
USER: ADFR SOLUTION from run 133
USER: SCORE 22.723009 LL:  -5.859 LR: -19.096 RR:   0.000 FEB: -11.341
USER: RMSD 4.444252
USER: SEED 132
USER: STATUS searching
USER: GENES 28
USER: genes 0 Translation |==|  0.50675 0.49710 0.41969
USER: genes 1 Rotation |==|  0.47233 0.47107 0.56003 0.99477
USER: genes 2 Torsion [N]-CA--C-[O] |==|  0.82297
USER: genes 3 Torsion [C]-N--CA-[CB] |==|  0.54516
USER: genes 4 Torsion [N]-CA--C-[N] |==|  0.33123
USER: genes 5 Torsion [C]-N--CA-[C] |==|  0.66265
USER: genes 6 Torsion [N]-CA--CB-[CG] |==|  0.86788
USER: genes 7 Torsion [CA]-CB--CG-[CD1] |==|  0.85363
USER: genes 8 Torsion [N]-CA--C-[N] |==|  0.26208
USER: genes 9 Torsion [C]-N--CA-[C] |==|  0.87282
USER: genes 10 Torsion [N]-CA--CB-[CG] |==|  0.71599
USER: genes 11 Torsion [CA]-CB--CG-[OD1] |==|  0.32476
USER: genes 12 Torsion [N]-CA--C-[O] |==|  0.23429
USER: genes 13 Torsion [N]-CA--CB-[CG2] |==|  0.43788
USER: genes 14 Torsion [CA]-CB--CG1-[CD1] |==|  0.70664
USER: genes 15 Torsion [N]-C--CA-[N] |==|  0.36707
USER: genes 16 Torsion [C]-CA--N-[C] |==|  0.23217
USER: genes 17 Torsion [N]-C--CA-[N] |==|  0.85000
USER: genes 18 Torsion [C]-CA--N-[C] |==|  0.85555
USER: genes 19 Torsion [N]-C--CA-[N] |==|  0.41416
USER: genes 20 Torsion [C]-CA--CB-[CG1] |==|  0.97501
USER: genes 21 Torsion [CA]-CB--CG1-[CD1] |==|  0.33523
USER: genes 22 Torsion [C]-CA--CB-[CG] |==|  0.29116
USER: genes 23 Torsion [CA]-CB--CG-[CD] |==|  0.55899
USER: genes 24 Torsion [CB]-CG--CD-[NE] |==|  0.61285
USER: genes 25 Torsion [CG]-CD--NE-[CZ] |==|  0.59138
USER: genes 26 Torsion [C]-CA--CB-[CG1] |==|  0.34885
USER: genes 27 Torsion [CA]-CB--CG1-[CD1] |==|  0.09045
ROOT
ATOM      1  C   ILE E1023     -48.255  24.962  -1.831  1.00 40.02 LIG 0.24  C 
ATOM      2 O    ILE E1023     -48.463  26.122  -2.217  1.00 38.38 LIG-0.27  OA
ATOM      3  N   PRO E1024     -49.106  24.291  -1.015  1.00 37.38 LIG-0.34  N 
ATOM      4  CA  PRO E1024     -50.262  24.995  -0.442  1.00 36.67 LIG 0.18  C 
ATOM      5  CB  PRO E1024     -51.142  23.865   0.085  1.00 38.74 LIG 0.04  C 
ATOM      6  CG  PRO E1024     -50.201  22.767   0.406  1.00 43.33 LIG 0.02  C 
ATOM      7  CD  PRO E1024     -48.992  22.917  -0.473  1.00 39.42 LIG 0.13  C 
ENDROOT
BRANCH 4 8
ATOM      8  C   PRO E1024     -49.778  25.909   0.677  1.00 39.60 LIG 0.24  C 
ATOM      9 O    PRO E1024     -49.261  25.410   1.676  1.00 37.18 LIG-0.27  OA
ATOM     10  N   ILE E1025     -49.917  27.237   0.483  1.00 37.20 LIG-0.35  N 
ATOM     11 H    ILE E1025     -50.275  27.550  -0.233  1.00 37.20 LIG 0.16  HD
BRANCH 10 12
ATOM     12  CA  ILE E1025     -49.504  28.303   1.406  1.00 37.42 LIG 0.18  C 
BRANCH 12 13
ATOM     13  C   ILE E1025     -49.997  28.014   2.822  1.00 40.88 LIG 0.24  C 
ATOM     14 O    ILE E1025     -51.200  28.118   3.067  1.00 40.29 LIG-0.27  OA
ATOM     15  N   PHE E1026     -49.074  27.874   3.794  1.00 36.23 LIG-0.35  N 
ATOM     16 H    PHE E1026     -48.231  27.785   3.651  1.00 36.23 LIG 0.16  HD
BRANCH 15 17
ATOM     17  CA  PHE E1026     -49.462  27.861   5.210  1.00 36.58 LIG 0.18  C 
BRANCH 17 18
ATOM     18  CB  PHE E1026     -49.168  26.514   5.863  1.00 38.58 LIG 0.07  C 
BRANCH 18 19
ATOM     19  CG  PHE E1026     -49.654  25.359   5.038  1.00 40.24 LIG-0.06  A 
ATOM     20  CD1 PHE E1026     -50.959  25.308   4.597  1.00 42.20 LIG 0.01  A 
ATOM     21  CE1 PHE E1026     -51.409  24.236   3.846  1.00 42.54 LIG 0.00  A 
ATOM     22  CZ  PHE E1026     -50.556  23.211   3.529  1.00 41.81 LIG 0.00  A 
ATOM     23  CE2 PHE E1026     -49.257  23.236   3.962  1.00 44.36 LIG 0.00  A 
ATOM     24  CD2 PHE E1026     -48.806  24.305   4.720  1.00 42.30 LIG 0.01  A 
ENDBRANCH 18 19
ENDBRANCH 17 18
BRANCH 17 25
ATOM     25  C   PHE E1026     -48.763  28.972   5.972  1.00 38.60 LIG 0.24  C 
ATOM     26  N   ASN E1027     -49.454  30.132   6.103  1.00 38.80 LIG-0.35  N 
ATOM     27 H    ASN E1027     -50.233  30.245   5.755  1.00 38.80 LIG 0.16  HD
ATOM     28 O    PHE E1026     -47.662  28.766   6.480  1.00 31.59 LIG-0.27  OA
BRANCH 26 29
ATOM     29  CA  ASN E1027     -48.976  31.311   6.834  1.00 74.37 LIG 0.17  C 
BRANCH 29 30
ATOM     30  CB  ASN E1027     -50.118  32.297   7.056  1.00 75.17 LIG 0.14  C 
BRANCH 30 31
ATOM     31  CG  ASN E1027     -50.084  33.470   6.109  1.00 99.64 LIG 0.22  C 
ATOM     32  ND2 ASN E1027     -49.040  34.292   6.184  1.00 92.55 LIG-0.37  N 
ATOM     33 22HD ASN E1027     -48.414  34.140   6.754  1.00 92.55 LIG 0.16  HD
ATOM     34 21HD ASN E1027     -48.992  34.975   5.664  1.00 92.55 LIG 0.16  HD
ATOM     35 OD1  ASN E1027     -50.997  33.660   5.303  1.00 94.01 LIG-0.27  OA
ENDBRANCH 30 31
ENDBRANCH 29 30
BRANCH 29 36
ATOM     36  C   ASN E1027     -48.395  30.894   8.184  1.00103.37 LIG 0.22  C 
ATOM     37 O    ASN E1027     -47.231  30.515   8.268  1.00 69.20 LIG-0.29  OA
ENDBRANCH 29 36
ENDBRANCH 26 29
ENDBRANCH 17 25
ENDBRANCH 15 17
ENDBRANCH 12 13
BRANCH 12 38
ATOM     38  CB  ILE E1025     -50.231  29.650   0.972  1.00 40.50 LIG 0.01  C 
ATOM     39  CG2 ILE E1025     -50.319  30.650   2.133  1.00 43.95 LIG 0.01  C 
BRANCH 38 40
ATOM     40  CG1 ILE E1025     -49.606  30.302  -0.262  1.00 41.58 LIG 0.00  C 
ATOM     41  CD1 ILE E1025     -48.731  31.623   0.102  1.00 52.05 LIG 0.01  C 
ENDBRANCH 38 40
ENDBRANCH 12 38
ENDBRANCH 10 12
ENDBRANCH 4 8
BRANCH 1 42
ATOM     42  CA  ILE E1023     -47.043  24.227  -2.375  1.00 36.06 LIG 0.18  C 
BRANCH 42 43
ATOM     43  N   ILE E1023     -46.997  24.501  -3.825  1.00 37.96 LIG-0.35  N 
ATOM     44  C   ARG E1022     -46.441  25.616  -4.343  1.00 45.42 LIG 0.24  C 
ATOM     45 O    ARG E1022     -45.997  26.531  -3.649  1.00 45.23 LIG-0.27  OA
ATOM     46 H    ILE E1023     -47.357  23.885  -4.306  1.00 37.96 LIG 0.16  HD
BRANCH 44 47
ATOM     47  CA  ARG E1022     -46.429  25.784  -5.863  1.00 45.59 LIG 0.18  C 
BRANCH 47 48
ATOM     48  N   ARG E1022     -45.823  24.642  -6.567  1.00 48.30 LIG-0.35  N 
ATOM     49 H    ARG E1022     -46.310  24.312  -7.195  1.00 48.30 LIG 0.16  HD
ATOM     50  C   ILE E1021     -44.600  24.171  -6.235  1.00 57.51 LIG 0.26  C 
ATOM     51 O    ILE E1021     -43.916  24.665  -5.330  1.00 59.03 LIG-0.27  OA
BRANCH 50 52
ATOM     52  CA  ILE E1021     -44.042  22.979  -7.032  1.00 57.59 LIG 0.40  C 
ATOM     53  N   ILE E1021     -42.587  23.088  -7.077  1.00 58.96 LIG 0.61  N 
BRANCH 52 54
ATOM     54  CB  ILE E1021     -44.379  21.609  -6.379  1.00 60.58 LIG 0.03  C 
ATOM     55  CG2 ILE E1021     -43.175  20.674  -6.309  1.00 61.37 LIG 0.01  C 
BRANCH 54 56
ATOM     56  CG1 ILE E1021     -44.999  21.813  -4.974  1.00 60.59 LIG 0.00  C 
ATOM     57  CD1 ILE E1021     -46.359  21.232  -4.858  1.00 60.15 LIG 0.01  C 
ENDBRANCH 54 56
ENDBRANCH 52 54
ENDBRANCH 50 52
ENDBRANCH 47 48
BRANCH 47 58
ATOM     58  CB  ARG E1022     -47.862  26.055  -6.337  1.00 44.33 LIG 0.04  C 
BRANCH 58 59
ATOM     59  CG  ARG E1022     -48.105  27.511  -6.711  1.00 47.73 LIG 0.02  C 
BRANCH 59 60
ATOM     60  CD  ARG E1022     -49.570  27.896  -6.682  1.00 47.87 LIG 0.14  C 
BRANCH 60 61
ATOM     61  NE  ARG E1022     -49.899  28.761  -7.814  1.00 55.98 LIG-0.23  N 
ATOM     62  CZ  ARG E1022     -50.801  29.739  -7.821  1.00 56.00 LIG 0.67  C 
ATOM     63  NH1 ARG E1022     -51.489  30.031  -6.722  1.00 48.69 LIG-0.23  N 
ATOM     64  NH2 ARG E1022     -51.000  30.455  -8.917  1.00 32.20 LIG-0.23  N 
ATOM     65 1HH1 ARG E1022     -51.353  29.587  -5.999  1.00 48.69 LIG 0.17  HD
ATOM     66 2HH1 ARG E1022     -52.070  30.665  -6.735  1.00 48.69 LIG 0.17  HD
ATOM     67 2HH2 ARG E1022     -51.584  31.086  -8.918  1.00 32.20 LIG 0.17  HD
ATOM     68 1HH2 ARG E1022     -50.544  30.289  -9.628  1.00 32.20 LIG 0.17  HD
ATOM     69 HE   ARG E1022     -49.468  28.624  -8.546  1.00 55.98 LIG 0.18  HD
ENDBRANCH 60 61
ENDBRANCH 59 60
ENDBRANCH 58 59
ENDBRANCH 47 58
ENDBRANCH 44 47
ENDBRANCH 42 43
BRANCH 42 70
ATOM     70  CB  ILE E1023     -45.760  24.707  -1.619  1.00 38.78 LIG 0.01  C 
ATOM     71  CG2 ILE E1023     -46.116  25.773  -0.572  1.00 39.01 LIG 0.01  C 
BRANCH 70 72
ATOM     72  CG1 ILE E1023     -44.943  23.541  -0.987  1.00 39.61 LIG 0.00  C 
ATOM     73  CD1 ILE E1023     -44.949  22.217  -1.709  1.00 43.21 LIG 0.01  C 
ENDBRANCH 70 72
ENDBRANCH 42 70
ENDBRANCH 1 42
TORSDOF 26
ENDMDL
MODEL 5
USER: ADFR SOLUTION from run 21
USER: SCORE 23.078155 LL:  -5.456 LR: -18.894 RR:   0.000 FEB: -11.138
USER: RMSD 3.838693
USER: SEED 20
USER: STATUS no improvement in best in 11 clusters for 5 generations
USER: GENES 28
USER: genes 0 Translation |==|  0.50725 0.45761 0.42285
USER: genes 1 Rotation |==|  0.44769 0.44651 0.50618 0.99433
USER: genes 2 Torsion [N]-CA--C-[O] |==|  0.87050
USER: genes 3 Torsion [C]-N--CA-[CB] |==|  0.52746
USER: genes 4 Torsion [N]-CA--C-[N] |==|  0.36165
USER: genes 5 Torsion [C]-N--CA-[C] |==|  0.66518
USER: genes 6 Torsion [N]-CA--CB-[CG] |==|  0.85395
USER: genes 7 Torsion [CA]-CB--CG-[CD1] |==|  0.87376
USER: genes 8 Torsion [N]-CA--C-[N] |==|  0.28637
USER: genes 9 Torsion [C]-N--CA-[C] |==|  0.60282
USER: genes 10 Torsion [N]-CA--CB-[CG] |==|  0.39092
USER: genes 11 Torsion [CA]-CB--CG-[OD1] |==|  0.77768
USER: genes 12 Torsion [N]-CA--C-[O] |==|  0.01021
USER: genes 13 Torsion [N]-CA--CB-[CG2] |==|  0.41162
USER: genes 14 Torsion [CA]-CB--CG1-[CD1] |==|  0.67186
USER: genes 15 Torsion [N]-C--CA-[N] |==|  0.33815
USER: genes 16 Torsion [C]-CA--N-[C] |==|  0.58333
USER: genes 17 Torsion [N]-C--CA-[N] |==|  0.36536
USER: genes 18 Torsion [C]-CA--N-[C] |==|  0.81940
USER: genes 19 Torsion [N]-C--CA-[N] |==|  0.51556
USER: genes 20 Torsion [C]-CA--CB-[CG1] |==|  0.59905
USER: genes 21 Torsion [CA]-CB--CG1-[CD1] |==|  0.44805
USER: genes 22 Torsion [C]-CA--CB-[CG] |==|  0.60832
USER: genes 23 Torsion [CA]-CB--CG-[CD] |==|  0.52605
USER: genes 24 Torsion [CB]-CG--CD-[NE] |==|  0.76904
USER: genes 25 Torsion [CG]-CD--NE-[CZ] |==|  0.38034
USER: genes 26 Torsion [C]-CA--CB-[CG1] |==|  0.83256
USER: genes 27 Torsion [CA]-CB--CG1-[CD1] |==|  0.73036
ROOT
ATOM      1  C   ILE E1023     -48.247  24.044  -1.741  1.00 40.02 LIG 0.24  C 
ATOM      2 O    ILE E1023     -48.156  25.185  -2.219  1.00 38.38 LIG-0.27  OA
ATOM      3  N   PRO E1024     -49.309  23.636  -1.002  1.00 37.38 LIG-0.34  N 
ATOM      4  CA  PRO E1024     -50.343  24.611  -0.624  1.00 36.67 LIG 0.18  C 
ATOM      5  CB  PRO E1024     -51.500  23.737  -0.148  1.00 38.74 LIG 0.04  C 
ATOM      6  CG  PRO E1024     -50.860  22.499   0.356  1.00 43.33 LIG 0.02  C 
ATOM      7  CD  PRO E1024     -49.557  22.320  -0.368  1.00 39.42 LIG 0.13  C 
ENDROOT
BRANCH 4 8
ATOM      8  C   PRO E1024     -49.802  25.497   0.491  1.00 39.60 LIG 0.24  C 
ATOM      9 O    PRO E1024     -49.228  24.975   1.445  1.00 37.18 LIG-0.27  OA
ATOM     10  N   ILE E1025     -49.957  26.829   0.341  1.00 37.20 LIG-0.35  N 
ATOM     11 H    ILE E1025     -50.356  27.159  -0.346  1.00 37.20 LIG 0.16  HD
BRANCH 10 12
ATOM     12  CA  ILE E1025     -49.498  27.872   1.268  1.00 37.42 LIG 0.18  C 
BRANCH 12 13
ATOM     13  C   ILE E1025     -50.043  27.626   2.673  1.00 40.88 LIG 0.24  C 
ATOM     14 O    ILE E1025     -51.263  27.609   2.844  1.00 40.29 LIG-0.27  OA
ATOM     15  N   PHE E1026     -49.172  27.656   3.701  1.00 36.23 LIG-0.35  N 
ATOM     16 H    PHE E1026     -48.317  27.654   3.611  1.00 36.23 LIG 0.16  HD
BRANCH 15 17
ATOM     17  CA  PHE E1026     -49.644  27.696   5.091  1.00 36.58 LIG 0.18  C 
BRANCH 17 18
ATOM     18  CB  PHE E1026     -49.226  26.447   5.863  1.00 38.58 LIG 0.07  C 
BRANCH 18 19
ATOM     19  CG  PHE E1026     -49.620  25.181   5.161  1.00 40.24 LIG-0.06  A 
ATOM     20  CD1 PHE E1026     -50.881  25.037   4.624  1.00 42.20 LIG 0.01  A 
ATOM     21  CE1 PHE E1026     -51.247  23.864   3.987  1.00 42.54 LIG 0.00  A 
ATOM     22  CZ  PHE E1026     -50.355  22.830   3.883  1.00 41.81 LIG 0.00  A 
ATOM     23  CE2 PHE E1026     -49.099  22.947   4.416  1.00 44.36 LIG 0.00  A 
ATOM     24  CD2 PHE E1026     -48.731  24.118   5.059  1.00 42.30 LIG 0.01  A 
ENDBRANCH 18 19
ENDBRANCH 17 18
BRANCH 17 25
ATOM     25  C   PHE E1026     -49.136  28.938   5.799  1.00 38.60 LIG 0.24  C 
ATOM     26  N   ASN E1027     -50.037  29.940   5.962  1.00 38.80 LIG-0.35  N 
ATOM     27 H    ASN E1027     -50.842  29.889   5.662  1.00 38.80 LIG 0.16  HD
ATOM     28 O    PHE E1026     -47.989  28.966   6.239  1.00 31.59 LIG-0.27  OA
BRANCH 26 29
ATOM     29  CA  ASN E1027     -49.762  31.206   6.652  1.00 74.37 LIG 0.17  C 
BRANCH 29 30
ATOM     30  CB  ASN E1027     -49.383  32.287   5.646  1.00 75.17 LIG 0.14  C 
BRANCH 30 31
ATOM     31  CG  ASN E1027     -49.965  33.639   5.979  1.00 99.64 LIG 0.22  C 
ATOM     32  ND2 ASN E1027     -49.172  34.518   6.585  1.00 92.55 LIG-0.37  N 
ATOM     33 22HD ASN E1027     -48.357  34.309   6.766  1.00 92.55 LIG 0.16  HD
ATOM     34 21HD ASN E1027     -49.473  35.296   6.795  1.00 92.55 LIG 0.16  HD
ATOM     35 OD1  ASN E1027     -51.136  33.909   5.706  1.00 94.01 LIG-0.27  OA
ENDBRANCH 30 31
ENDBRANCH 29 30
BRANCH 29 36
ATOM     36  C   ASN E1027     -50.991  31.654   7.441  1.00103.37 LIG 0.22  C 
ATOM     37 O    ASN E1027     -51.992  30.945   7.487  1.00 69.20 LIG-0.29  OA
ENDBRANCH 29 36
ENDBRANCH 26 29
ENDBRANCH 17 25
ENDBRANCH 15 17
ENDBRANCH 12 13
BRANCH 12 38
ATOM     38  CB  ILE E1025     -50.126  29.260   0.809  1.00 40.50 LIG 0.01  C 
ATOM     39  CG2 ILE E1025     -50.392  30.188   2.003  1.00 43.95 LIG 0.01  C 
BRANCH 38 40
ATOM     40  CG1 ILE E1025     -49.296  29.973  -0.259  1.00 41.58 LIG 0.00  C 
ATOM     41  CD1 ILE E1025     -48.740  31.418   0.238  1.00 52.05 LIG 0.01  C 
ENDBRANCH 38 40
ENDBRANCH 12 38
ENDBRANCH 10 12
ENDBRANCH 4 8
BRANCH 1 42
ATOM     42  CA  ILE E1023     -47.170  23.030  -2.081  1.00 36.06 LIG 0.18  C 
BRANCH 42 43
ATOM     43  N   ILE E1023     -47.083  22.982  -3.553  1.00 37.96 LIG-0.35  N 
ATOM     44  C   ARG E1022     -46.720  21.871  -4.231  1.00 45.42 LIG 0.24  C 
ATOM     45 O    ARG E1022     -46.358  20.834  -3.676  1.00 45.23 LIG-0.27  OA
ATOM     46 H    ILE E1023     -47.284  23.724  -3.937  1.00 37.96 LIG 0.16  HD
BRANCH 44 47
ATOM     47  CA  ARG E1022     -46.687  21.929  -5.758  1.00 45.59 LIG 0.18  C 
BRANCH 47 48
ATOM     48  N   ARG E1022     -45.443  21.391  -6.332  1.00 48.30 LIG-0.35  N 
ATOM     49 H    ARG E1022     -45.547  20.682  -6.806  1.00 48.30 LIG 0.16  HD
ATOM     50  C   ILE E1021     -44.247  21.984  -6.117  1.00 57.51 LIG 0.26  C 
ATOM     51 O    ILE E1021     -44.122  23.008  -5.434  1.00 59.03 LIG-0.27  OA
BRANCH 50 52
ATOM     52  CA  ILE E1021     -43.001  21.358  -6.763  1.00 57.59 LIG 0.40  C 
ATOM     53  N   ILE E1021     -41.819  22.075  -6.293  1.00 58.96 LIG 0.61  N 
BRANCH 52 54
ATOM     54  CB  ILE E1021     -42.812  19.863  -6.382  1.00 60.58 LIG 0.03  C 
ATOM     55  CG2 ILE E1021     -43.491  18.911  -7.363  1.00 61.37 LIG 0.01  C 
BRANCH 54 56
ATOM     56  CG1 ILE E1021     -41.308  19.523  -6.237  1.00 60.59 LIG 0.00  C 
ATOM     57  CD1 ILE E1021     -41.073  18.279  -5.464  1.00 60.15 LIG 0.01  C 
ENDBRANCH 54 56
ENDBRANCH 52 54
ENDBRANCH 50 52
ENDBRANCH 47 48
BRANCH 47 58
ATOM     58  CB  ARG E1022     -47.927  21.208  -6.301  1.00 44.33 LIG 0.04  C 
BRANCH 58 59
ATOM     59  CG  ARG E1022     -47.642  20.384  -7.551  1.00 47.73 LIG 0.02  C 
BRANCH 59 60
ATOM     60  CD  ARG E1022     -48.897  19.858  -8.215  1.00 47.87 LIG 0.14  C 
BRANCH 60 61
ATOM     61  NE  ARG E1022     -49.346  18.626  -7.569  1.00 55.98 LIG-0.23  N 
ATOM     62  CZ  ARG E1022     -50.601  18.313  -7.255  1.00 56.00 LIG 0.67  C 
ATOM     63  NH1 ARG E1022     -51.597  19.142  -7.550  1.00 48.69 LIG-0.23  N 
ATOM     64  NH2 ARG E1022     -50.875  17.155  -6.674  1.00 32.20 LIG-0.23  N 
ATOM     65 1HH1 ARG E1022     -51.433  19.887  -7.947  1.00 48.69 LIG 0.17  HD
ATOM     66 2HH1 ARG E1022     -52.405  18.932  -7.345  1.00 48.69 LIG 0.17  HD
ATOM     67 2HH2 ARG E1022     -51.687  16.957  -6.473  1.00 32.20 LIG 0.17  HD
ATOM     68 1HH2 ARG E1022     -50.240  16.602  -6.498  1.00 32.20 LIG 0.17  HD
ATOM     69 HE   ARG E1022     -48.741  18.047  -7.372  1.00 55.98 LIG 0.18  HD
ENDBRANCH 60 61
ENDBRANCH 59 60
ENDBRANCH 58 59
ENDBRANCH 47 58
ENDBRANCH 44 47
ENDBRANCH 42 43
BRANCH 42 70
ATOM     70  CB  ILE E1023     -45.826  23.452  -1.400  1.00 38.78 LIG 0.01  C 
ATOM     71  CG2 ILE E1023     -44.755  22.368  -1.597  1.00 39.01 LIG 0.01  C 
BRANCH 70 72
ATOM     72  CG1 ILE E1023     -45.310  24.848  -1.862  1.00 39.61 LIG 0.00  C 
ATOM     73  CD1 ILE E1023     -44.270  24.877  -2.954  1.00 43.21 LIG 0.01  C 
ENDBRANCH 70 72
ENDBRANCH 42 70
ENDBRANCH 1 42
TORSDOF 26
ENDMDL
MODEL 6
USER: ADFR SOLUTION from run 48
USER: SCORE 23.693657 LL:  -5.928 LR: -18.884 RR:   0.000 FEB: -11.129
USER: RMSD 2.818964
USER: SEED 47
USER: STATUS no improvement in best in 7 clusters for 5 generations
USER: GENES 28
USER: genes 0 Translation |==|  0.48116 0.48517 0.42734
USER: genes 1 Rotation |==|  0.46767 0.47233 0.55295 0.99536
USER: genes 2 Torsion [N]-CA--C-[O] |==|  0.79670
USER: genes 3 Torsion [C]-N--CA-[CB] |==|  0.57110
USER: genes 4 Torsion [N]-CA--C-[N] |==|  0.34015
USER: genes 5 Torsion [C]-N--CA-[C] |==|  0.66225
USER: genes 6 Torsion [N]-CA--CB-[CG] |==|  0.86251
USER: genes 7 Torsion [CA]-CB--CG-[CD1] |==|  0.34400
USER: genes 8 Torsion [N]-CA--C-[N] |==|  0.27175
USER: genes 9 Torsion [C]-N--CA-[C] |==|  0.86439
USER: genes 10 Torsion [N]-CA--CB-[CG] |==|  0.71057
USER: genes 11 Torsion [CA]-CB--CG-[OD1] |==|  0.33046
USER: genes 12 Torsion [N]-CA--C-[O] |==|  0.24041
USER: genes 13 Torsion [N]-CA--CB-[CG2] |==|  0.43717
USER: genes 14 Torsion [CA]-CB--CG1-[CD1] |==|  0.69654
USER: genes 15 Torsion [N]-C--CA-[N] |==|  0.29508
USER: genes 16 Torsion [C]-CA--N-[C] |==|  0.63399
USER: genes 17 Torsion [N]-C--CA-[N] |==|  0.01905
USER: genes 18 Torsion [C]-CA--N-[C] |==|  0.75801
USER: genes 19 Torsion [N]-C--CA-[N] |==|  0.42471
USER: genes 20 Torsion [C]-CA--CB-[CG1] |==|  0.92036
USER: genes 21 Torsion [CA]-CB--CG1-[CD1] |==|  0.66728
USER: genes 22 Torsion [C]-CA--CB-[CG] |==|  0.32511
USER: genes 23 Torsion [CA]-CB--CG-[CD] |==|  0.44899
USER: genes 24 Torsion [CB]-CG--CD-[NE] |==|  0.44473
USER: genes 25 Torsion [CG]-CD--NE-[CZ] |==|  0.62899
USER: genes 26 Torsion [C]-CA--CB-[CG1] |==|  0.43916
USER: genes 27 Torsion [CA]-CB--CG1-[CD1] |==|  0.92590
ROOT
ATOM      1  C   ILE E1023     -48.639  24.685  -1.613  1.00 40.02 LIG 0.24  C 
ATOM      2 O    ILE E1023     -48.813  25.844  -2.019  1.00 38.38 LIG-0.27  OA
ATOM      3  N   PRO E1024     -49.508  24.053  -0.785  1.00 37.38 LIG-0.34  N 
ATOM      4  CA  PRO E1024     -50.641  24.801  -0.222  1.00 36.67 LIG 0.18  C 
ATOM      5  CB  PRO E1024     -51.554  23.707   0.324  1.00 38.74 LIG 0.04  C 
ATOM      6  CG  PRO E1024     -50.645  22.587   0.664  1.00 43.33 LIG 0.02  C 
ATOM      7  CD  PRO E1024     -49.434  22.686  -0.219  1.00 39.42 LIG 0.13  C 
ENDROOT
BRANCH 4 8
ATOM      8  C   PRO E1024     -50.129  25.720   0.880  1.00 39.60 LIG 0.24  C 
ATOM      9 O    PRO E1024     -49.788  25.230   1.956  1.00 37.18 LIG-0.27  OA
ATOM     10  N   ILE E1025     -50.045  27.034   0.589  1.00 37.20 LIG-0.35  N 
ATOM     11 H    ILE E1025     -50.284  27.340  -0.179  1.00 37.20 LIG 0.16  HD
BRANCH 10 12
ATOM     12  CA  ILE E1025     -49.561  28.098   1.480  1.00 37.42 LIG 0.18  C 
BRANCH 12 13
ATOM     13  C   ILE E1025     -50.038  27.864   2.911  1.00 40.88 LIG 0.24  C 
ATOM     14 O    ILE E1025     -51.239  27.974   3.164  1.00 40.29 LIG-0.27  OA
ATOM     15  N   PHE E1026     -49.104  27.764   3.878  1.00 36.23 LIG-0.35  N 
ATOM     16 H    PHE E1026     -48.262  27.672   3.730  1.00 36.23 LIG 0.16  HD
BRANCH 15 17
ATOM     17  CA  PHE E1026     -49.477  27.806   5.298  1.00 36.58 LIG 0.18  C 
BRANCH 17 18
ATOM     18  CB  PHE E1026     -49.176  26.485   5.999  1.00 38.58 LIG 0.07  C 
BRANCH 18 19
ATOM     19  CG  PHE E1026     -49.710  25.302   5.247  1.00 40.24 LIG-0.06  A 
ATOM     20  CD1 PHE E1026     -48.874  24.275   4.864  1.00 42.20 LIG 0.01  A 
ATOM     21  CE1 PHE E1026     -49.366  23.189   4.161  1.00 42.54 LIG 0.00  A 
ATOM     22  CZ  PHE E1026     -50.696  23.124   3.837  1.00 41.81 LIG 0.00  A 
ATOM     23  CE2 PHE E1026     -51.544  24.136   4.200  1.00 44.36 LIG 0.00  A 
ATOM     24  CD2 PHE E1026     -51.053  25.227   4.899  1.00 42.30 LIG 0.01  A 
ENDBRANCH 18 19
ENDBRANCH 17 18
BRANCH 17 25
ATOM     25  C   PHE E1026     -48.771  28.945   6.009  1.00 38.60 LIG 0.24  C 
ATOM     26  N   ASN E1027     -49.488  30.086   6.166  1.00 38.80 LIG-0.35  N 
ATOM     27 H    ASN E1027     -50.288  30.172   5.861  1.00 38.80 LIG 0.16  HD
ATOM     28 O    PHE E1026     -47.638  28.778   6.456  1.00 31.59 LIG-0.27  OA
BRANCH 26 29
ATOM     29  CA  ASN E1027     -49.006  31.287   6.858  1.00 74.37 LIG 0.17  C 
BRANCH 29 30
ATOM     30  CB  ASN E1027     -50.150  32.274   7.067  1.00 75.17 LIG 0.14  C 
BRANCH 30 31
ATOM     31  CG  ASN E1027     -50.106  33.445   6.118  1.00 99.64 LIG 0.22  C 
ATOM     32  ND2 ASN E1027     -49.043  34.242   6.173  1.00 92.55 LIG-0.37  N 
ATOM     33 22HD ASN E1027     -48.410  34.077   6.731  1.00 92.55 LIG 0.16  HD
ATOM     34 21HD ASN E1027     -48.988  34.923   5.650  1.00 92.55 LIG 0.16  HD
ATOM     35 OD1  ASN E1027     -51.029  33.655   5.329  1.00 94.01 LIG-0.27  OA
ENDBRANCH 30 31
ENDBRANCH 29 30
BRANCH 29 36
ATOM     36  C   ASN E1027     -48.407  30.911   8.211  1.00103.37 LIG 0.22  C 
ATOM     37 O    ASN E1027     -47.228  30.577   8.297  1.00 69.20 LIG-0.29  OA
ENDBRANCH 29 36
ENDBRANCH 26 29
ENDBRANCH 17 25
ENDBRANCH 15 17
ENDBRANCH 12 13
BRANCH 12 38
ATOM     38  CB  ILE E1025     -50.230  29.470   1.030  1.00 40.50 LIG 0.01  C 
ATOM     39  CG2 ILE E1025     -50.250  30.495   2.172  1.00 43.95 LIG 0.01  C 
BRANCH 38 40
ATOM     40  CG1 ILE E1025     -49.596  30.067  -0.226  1.00 41.58 LIG 0.00  C 
ATOM     41  CD1 ILE E1025     -48.728  31.406   0.085  1.00 52.05 LIG 0.01  C 
ENDBRANCH 38 40
ENDBRANCH 12 38
ENDBRANCH 10 12
ENDBRANCH 4 8
BRANCH 1 42
ATOM     42  CA  ILE E1023     -47.450  23.904  -2.146  1.00 36.06 LIG 0.18  C 
BRANCH 42 43
ATOM     43  N   ILE E1023     -47.735  23.616  -3.565  1.00 37.96 LIG-0.35  N 
ATOM     44  C   ARG E1022     -47.592  22.387  -4.106  1.00 45.42 LIG 0.24  C 
ATOM     45 O    ARG E1022     -47.139  21.426  -3.484  1.00 45.23 LIG-0.27  OA
ATOM     46 H    ILE E1023     -48.000  24.300  -4.012  1.00 37.96 LIG 0.16  HD
BRANCH 44 47
ATOM     47  CA  ARG E1022     -47.939  22.198  -5.583  1.00 45.59 LIG 0.18  C 
BRANCH 47 48
ATOM     48  N   ARG E1022     -48.246  23.462  -6.273  1.00 48.30 LIG-0.35  N 
ATOM     49 H    ARG E1022     -47.572  23.828  -6.661  1.00 48.30 LIG 0.16  HD
ATOM     50  C   ILE E1021     -49.493  23.982  -6.280  1.00 57.51 LIG 0.26  C 
ATOM     51 O    ILE E1021     -50.450  23.435  -5.717  1.00 59.03 LIG-0.27  OA
BRANCH 50 52
ATOM     52  CA  ILE E1021     -49.724  25.303  -7.034  1.00 57.59 LIG 0.40  C 
ATOM     53  N   ILE E1021     -51.115  25.354  -7.473  1.00 58.96 LIG 0.61  N 
BRANCH 52 54
ATOM     54  CB  ILE E1021     -49.478  26.553  -6.145  1.00 60.58 LIG 0.03  C 
ATOM     55  CG2 ILE E1021     -50.277  27.771  -6.600  1.00 61.37 LIG 0.01  C 
BRANCH 54 56
ATOM     56  CG1 ILE E1021     -49.768  26.231  -4.658  1.00 60.59 LIG 0.00  C 
ATOM     57  CD1 ILE E1021     -50.844  27.077  -4.087  1.00 60.15 LIG 0.01  C 
ENDBRANCH 54 56
ENDBRANCH 52 54
ENDBRANCH 50 52
ENDBRANCH 47 48
BRANCH 47 58
ATOM     58  CB  ARG E1022     -46.792  21.439  -6.262  1.00 44.33 LIG 0.04  C 
BRANCH 58 59
ATOM     59  CG  ARG E1022     -47.214  20.082  -6.812  1.00 47.73 LIG 0.02  C 
BRANCH 59 60
ATOM     60  CD  ARG E1022     -46.249  19.532  -7.842  1.00 47.87 LIG 0.14  C 
BRANCH 60 61
ATOM     61  NE  ARG E1022     -46.416  18.087  -7.987  1.00 55.98 LIG-0.23  N 
ATOM     62  CZ  ARG E1022     -45.442  17.182  -8.017  1.00 56.00 LIG 0.67  C 
ATOM     63  NH1 ARG E1022     -44.173  17.550  -7.884  1.00 48.69 LIG-0.23  N 
ATOM     64  NH2 ARG E1022     -45.731  15.895  -8.147  1.00 32.20 LIG-0.23  N 
ATOM     65 1HH1 ARG E1022     -43.975  18.380  -7.777  1.00 48.69 LIG 0.17  HD
ATOM     66 2HH1 ARG E1022     -43.549  16.958  -7.904  1.00 48.69 LIG 0.17  HD
ATOM     67 2HH2 ARG E1022     -45.099  15.313  -8.166  1.00 32.20 LIG 0.17  HD
ATOM     68 1HH2 ARG E1022     -46.551  15.643  -8.212  1.00 32.20 LIG 0.17  HD
ATOM     69 HE   ARG E1022     -47.222  17.794  -8.059  1.00 55.98 LIG 0.18  HD
ENDBRANCH 60 61
ENDBRANCH 59 60
ENDBRANCH 58 59
ENDBRANCH 47 58
ENDBRANCH 44 47
ENDBRANCH 42 43
BRANCH 42 70
ATOM     70  CB  ILE E1023     -46.144  24.741  -1.940  1.00 38.78 LIG 0.01  C 
ATOM     71  CG2 ILE E1023     -46.246  25.602  -0.672  1.00 39.01 LIG 0.01  C 
BRANCH 70 72
ATOM     72  CG1 ILE E1023     -44.849  23.875  -1.935  1.00 39.61 LIG 0.00  C 
ATOM     73  CD1 ILE E1023     -44.980  22.434  -1.507  1.00 43.21 LIG 0.01  C 
ENDBRANCH 70 72
ENDBRANCH 42 70
ENDBRANCH 1 42
TORSDOF 26
ENDMDL
MODEL 7
USER: ADFR SOLUTION from run 161
USER: SCORE 23.259174 LL:  -5.675 LR: -18.712 RR:   0.000 FEB: -10.956
USER: RMSD 2.145190
USER: SEED 160
USER: STATUS no improvement in best in 6 clusters for 5 generations
USER: GENES 28
USER: genes 0 Translation |==|  0.51516 0.47882 0.41235
USER: genes 1 Rotation |==|  0.46123 0.45782 0.51865 0.99636
USER: genes 2 Torsion [N]-CA--C-[O] |==|  0.87320
USER: genes 3 Torsion [C]-N--CA-[CB] |==|  0.51766
USER: genes 4 Torsion [N]-CA--C-[N] |==|  0.36189
USER: genes 5 Torsion [C]-N--CA-[C] |==|  0.63924
USER: genes 6 Torsion [N]-CA--CB-[CG] |==|  0.87180
USER: genes 7 Torsion [CA]-CB--CG-[CD1] |==|  0.83995
USER: genes 8 Torsion [N]-CA--C-[N] |==|  0.25724
USER: genes 9 Torsion [C]-N--CA-[C] |==|  0.88739
USER: genes 10 Torsion [N]-CA--CB-[CG] |==|  0.70820
USER: genes 11 Torsion [CA]-CB--CG-[OD1] |==|  0.34336
USER: genes 12 Torsion [N]-CA--C-[O] |==|  0.25891
USER: genes 13 Torsion [N]-CA--CB-[CG2] |==|  0.41660
USER: genes 14 Torsion [CA]-CB--CG1-[CD1] |==|  0.68097
USER: genes 15 Torsion [N]-C--CA-[N] |==|  0.34152
USER: genes 16 Torsion [C]-CA--N-[C] |==|  0.79864
USER: genes 17 Torsion [N]-C--CA-[N] |==|  0.96366
USER: genes 18 Torsion [C]-CA--N-[C] |==|  0.81111
USER: genes 19 Torsion [N]-C--CA-[N] |==|  0.30710
USER: genes 20 Torsion [C]-CA--CB-[CG1] |==|  0.52981
USER: genes 21 Torsion [CA]-CB--CG1-[CD1] |==|  0.27290
USER: genes 22 Torsion [C]-CA--CB-[CG] |==|  0.23053
USER: genes 23 Torsion [CA]-CB--CG-[CD] |==|  0.45151
USER: genes 24 Torsion [CB]-CG--CD-[NE] |==|  0.37001
USER: genes 25 Torsion [CG]-CD--NE-[CZ] |==|  0.18885
USER: genes 26 Torsion [C]-CA--CB-[CG1] |==|  0.39302
USER: genes 27 Torsion [CA]-CB--CG1-[CD1] |==|  0.08895
ROOT
ATOM      1  C   ILE E1023     -48.129  24.538  -2.040  1.00 40.02 LIG 0.24  C 
ATOM      2 O    ILE E1023     -48.118  25.702  -2.465  1.00 38.38 LIG-0.27  OA
ATOM      3  N   PRO E1024     -49.129  24.041  -1.270  1.00 37.38 LIG-0.34  N 
ATOM      4  CA  PRO E1024     -50.188  24.942  -0.793  1.00 36.67 LIG 0.18  C 
ATOM      5  CB  PRO E1024     -51.274  23.988  -0.303  1.00 38.74 LIG 0.04  C 
ATOM      6  CG  PRO E1024     -50.548  22.763   0.106  1.00 43.33 LIG 0.02  C 
ATOM      7  CD  PRO E1024     -49.278  22.685  -0.691  1.00 39.42 LIG 0.13  C 
ENDROOT
BRANCH 4 8
ATOM      8  C   PRO E1024     -49.633  25.801   0.336  1.00 39.60 LIG 0.24  C 
ATOM      9 O    PRO E1024     -48.969  25.268   1.224  1.00 37.18 LIG-0.27  OA
ATOM     10  N   ILE E1025     -49.878  27.126   0.271  1.00 37.20 LIG-0.35  N 
ATOM     11 H    ILE E1025     -50.339  27.466  -0.370  1.00 37.20 LIG 0.16  HD
BRANCH 10 12
ATOM     12  CA  ILE E1025     -49.426  28.147   1.227  1.00 37.42 LIG 0.18  C 
BRANCH 12 13
ATOM     13  C   ILE E1025     -49.940  27.838   2.631  1.00 40.88 LIG 0.24  C 
ATOM     14 O    ILE E1025     -51.156  27.785   2.823  1.00 40.29 LIG-0.27  OA
ATOM     15  N   PHE E1026     -49.051  27.855   3.645  1.00 36.23 LIG-0.35  N 
ATOM     16 H    PHE E1026     -48.198  27.877   3.540  1.00 36.23 LIG 0.16  HD
BRANCH 15 17
ATOM     17  CA  PHE E1026     -49.498  27.834   5.044  1.00 36.58 LIG 0.18  C 
BRANCH 17 18
ATOM     18  CB  PHE E1026     -49.238  26.480   5.697  1.00 38.58 LIG 0.07  C 
BRANCH 18 19
ATOM     19  CG  PHE E1026     -49.664  25.333   4.829  1.00 40.24 LIG-0.06  A 
ATOM     20  CD1 PHE E1026     -50.966  25.228   4.389  1.00 42.20 LIG 0.01  A 
ATOM     21  CE1 PHE E1026     -51.360  24.163   3.598  1.00 42.54 LIG 0.00  A 
ATOM     22  CZ  PHE E1026     -50.454  23.198   3.241  1.00 41.81 LIG 0.00  A 
ATOM     23  CE2 PHE E1026     -49.157  23.277   3.673  1.00 44.36 LIG 0.00  A 
ATOM     24  CD2 PHE E1026     -48.761  24.340   4.470  1.00 42.30 LIG 0.01  A 
ENDBRANCH 18 19
ENDBRANCH 17 18
BRANCH 17 25
ATOM     25  C   PHE E1026     -48.825  28.935   5.843  1.00 38.60 LIG 0.24  C 
ATOM     26  N   ASN E1027     -49.499  30.110   5.922  1.00 38.80 LIG-0.35  N 
ATOM     27 H    ASN E1027     -50.252  30.236   5.524  1.00 38.80 LIG 0.16  HD
ATOM     28 O    PHE E1026     -47.764  28.710   6.420  1.00 31.59 LIG-0.27  OA
BRANCH 26 29
ATOM     29  CA  ASN E1027     -49.044  31.284   6.676  1.00 74.37 LIG 0.17  C 
BRANCH 29 30
ATOM     30  CB  ASN E1027     -50.209  32.234   6.931  1.00 75.17 LIG 0.14  C 
BRANCH 30 31
ATOM     31  CG  ASN E1027     -50.176  33.463   6.057  1.00 99.64 LIG 0.22  C 
ATOM     32  ND2 ASN E1027     -49.087  34.225   6.105  1.00 92.55 LIG-0.37  N 
ATOM     33 22HD ASN E1027     -48.432  34.006   6.617  1.00 92.55 LIG 0.16  HD
ATOM     34 21HD ASN E1027     -49.038  34.936   5.625  1.00 92.55 LIG 0.16  HD
ATOM     35 OD1  ASN E1027     -51.132  33.751   5.333  1.00 94.01 LIG-0.27  OA
ENDBRANCH 30 31
ENDBRANCH 29 30
BRANCH 29 36
ATOM     36  C   ASN E1027     -48.440  30.852   8.010  1.00103.37 LIG 0.22  C 
ATOM     37 O    ASN E1027     -47.232  30.657   8.110  1.00 69.20 LIG-0.29  OA
ENDBRANCH 29 36
ENDBRANCH 26 29
ENDBRANCH 17 25
ENDBRANCH 15 17
ENDBRANCH 12 13
BRANCH 12 38
ATOM     38  CB  ILE E1025     -50.094  29.535   0.829  1.00 40.50 LIG 0.01  C 
ATOM     39  CG2 ILE E1025     -50.319  30.432   2.055  1.00 43.95 LIG 0.01  C 
BRANCH 38 40
ATOM     40  CG1 ILE E1025     -49.324  30.285  -0.259  1.00 41.58 LIG 0.00  C 
ATOM     41  CD1 ILE E1025     -48.694  31.687   0.270  1.00 52.05 LIG 0.01  C 
ENDBRANCH 38 40
ENDBRANCH 12 38
ENDBRANCH 10 12
ENDBRANCH 4 8
BRANCH 1 42
ATOM     42  CA  ILE E1023     -47.022  23.597  -2.484  1.00 36.06 LIG 0.18  C 
BRANCH 42 43
ATOM     43  N   ILE E1023     -46.991  23.646  -3.958  1.00 37.96 LIG-0.35  N 
ATOM     44  C   ARG E1022     -47.942  23.079  -4.731  1.00 45.42 LIG 0.24  C 
ATOM     45 O    ARG E1022     -48.870  22.411  -4.274  1.00 45.23 LIG-0.27  OA
ATOM     46 H    ILE E1023     -46.313  24.067  -4.278  1.00 37.96 LIG 0.16  HD
BRANCH 44 47
ATOM     47  CA  ARG E1022     -47.821  23.212  -6.250  1.00 45.59 LIG 0.18  C 
BRANCH 47 48
ATOM     48  N   ARG E1022     -46.825  24.213  -6.666  1.00 48.30 LIG-0.35  N 
ATOM     49 H    ARG E1022     -46.131  23.885  -7.052  1.00 48.30 LIG 0.16  HD
ATOM     50  C   ILE E1021     -47.012  25.534  -6.447  1.00 57.51 LIG 0.26  C 
ATOM     51 O    ILE E1021     -48.023  25.984  -5.892  1.00 59.03 LIG-0.27  OA
BRANCH 50 52
ATOM     52  CA  ILE E1021     -45.923  26.509  -6.924  1.00 57.59 LIG 0.40  C 
ATOM     53  N   ILE E1021     -46.447  27.284  -8.045  1.00 58.96 LIG 0.61  N 
BRANCH 52 54
ATOM     54  CB  ILE E1021     -45.500  27.523  -5.824  1.00 60.58 LIG 0.03  C 
ATOM     55  CG2 ILE E1021     -44.806  26.856  -4.640  1.00 61.37 LIG 0.01  C 
BRANCH 54 56
ATOM     56  CG1 ILE E1021     -44.611  28.639  -6.424  1.00 60.59 LIG 0.00  C 
ATOM     57  CD1 ILE E1021     -45.370  29.876  -6.727  1.00 60.15 LIG 0.01  C 
ENDBRANCH 54 56
ENDBRANCH 52 54
ENDBRANCH 50 52
ENDBRANCH 47 48
BRANCH 47 58
ATOM     58  CB  ARG E1022     -47.523  21.828  -6.839  1.00 44.33 LIG 0.04  C 
BRANCH 58 59
ATOM     59  CG  ARG E1022     -48.773  20.981  -7.043  1.00 47.73 LIG 0.02  C 
BRANCH 59 60
ATOM     60  CD  ARG E1022     -48.555  19.818  -7.988  1.00 47.87 LIG 0.14  C 
BRANCH 60 61
ATOM     61  NE  ARG E1022     -49.108  18.586  -7.427  1.00 55.98 LIG-0.23  N 
ATOM     62  CZ  ARG E1022     -50.397  18.318  -7.237  1.00 56.00 LIG 0.67  C 
ATOM     63  NH1 ARG E1022     -51.330  19.197  -7.590  1.00 48.69 LIG-0.23  N 
ATOM     64  NH2 ARG E1022     -50.768  17.155  -6.724  1.00 32.20 LIG-0.23  N 
ATOM     65 1HH1 ARG E1022     -51.101  19.947  -7.944  1.00 48.69 LIG 0.17  HD
ATOM     66 2HH1 ARG E1022     -52.160  19.016  -7.463  1.00 48.69 LIG 0.17  HD
ATOM     67 2HH2 ARG E1022     -51.602  16.985  -6.602  1.00 32.20 LIG 0.17  HD
ATOM     68 1HH2 ARG E1022     -50.175  16.570  -6.512  1.00 32.20 LIG 0.17  HD
ATOM     69 HE   ARG E1022     -48.547  17.976  -7.199  1.00 55.98 LIG 0.18  HD
ENDBRANCH 60 61
ENDBRANCH 59 60
ENDBRANCH 58 59
ENDBRANCH 47 58
ENDBRANCH 44 47
ENDBRANCH 42 43
BRANCH 42 70
ATOM     70  CB  ILE E1023     -45.672  24.037  -1.827  1.00 38.78 LIG 0.01  C 
ATOM     71  CG2 ILE E1023     -45.926  25.006  -0.663  1.00 39.01 LIG 0.01  C 
BRANCH 70 72
ATOM     72  CG1 ILE E1023     -44.782  22.838  -1.382  1.00 39.61 LIG 0.00  C 
ATOM     73  CD1 ILE E1023     -44.860  21.573  -2.201  1.00 43.21 LIG 0.01  C 
ENDBRANCH 70 72
ENDBRANCH 42 70
ENDBRANCH 1 42
TORSDOF 26
ENDMDL
MODEL 8
USER: ADFR SOLUTION from run 145
USER: SCORE 23.428319 LL:  -5.994 LR: -18.570 RR:   0.000 FEB: -10.814
USER: RMSD 3.232558
USER: SEED 144
USER: STATUS searching
USER: GENES 28
USER: genes 0 Translation |==|  0.50155 0.49871 0.41051
USER: genes 1 Rotation |==|  0.48428 0.49110 0.57369 0.99421
USER: genes 2 Torsion [N]-CA--C-[O] |==|  0.81538
USER: genes 3 Torsion [C]-N--CA-[CB] |==|  0.52241
USER: genes 4 Torsion [N]-CA--C-[N] |==|  0.34480
USER: genes 5 Torsion [C]-N--CA-[C] |==|  0.64960
USER: genes 6 Torsion [N]-CA--CB-[CG] |==|  0.88399
USER: genes 7 Torsion [CA]-CB--CG-[CD1] |==|  0.84379
USER: genes 8 Torsion [N]-CA--C-[N] |==|  0.27972
USER: genes 9 Torsion [C]-N--CA-[C] |==|  0.87115
USER: genes 10 Torsion [N]-CA--CB-[CG] |==|  0.72073
USER: genes 11 Torsion [CA]-CB--CG-[OD1] |==|  0.31065
USER: genes 12 Torsion [N]-CA--C-[O] |==|  0.24741
USER: genes 13 Torsion [N]-CA--CB-[CG2] |==|  0.41960
USER: genes 14 Torsion [CA]-CB--CG1-[CD1] |==|  0.65405
USER: genes 15 Torsion [N]-C--CA-[N] |==|  0.35912
USER: genes 16 Torsion [C]-CA--N-[C] |==|  0.65921
USER: genes 17 Torsion [N]-C--CA-[N] |==|  0.97875
USER: genes 18 Torsion [C]-CA--N-[C] |==|  0.75233
USER: genes 19 Torsion [N]-C--CA-[N] |==|  0.24677
USER: genes 20 Torsion [C]-CA--CB-[CG1] |==|  0.49333
USER: genes 21 Torsion [CA]-CB--CG1-[CD1] |==|  0.28350
USER: genes 22 Torsion [C]-CA--CB-[CG] |==|  0.81253
USER: genes 23 Torsion [CA]-CB--CG-[CD] |==|  0.37806
USER: genes 24 Torsion [CB]-CG--CD-[NE] |==|  0.79061
USER: genes 25 Torsion [CG]-CD--NE-[CZ] |==|  0.25347
USER: genes 26 Torsion [C]-CA--CB-[CG1] |==|  0.59290
USER: genes 27 Torsion [CA]-CB--CG1-[CD1] |==|  0.26445
ROOT
ATOM      1  C   ILE E1023     -48.333  25.000  -2.092  1.00 40.02 LIG 0.24  C 
ATOM      2 O    ILE E1023     -48.633  26.158  -2.417  1.00 38.38 LIG-0.27  OA
ATOM      3  N   PRO E1024     -49.073  24.258  -1.231  1.00 37.38 LIG-0.34  N 
ATOM      4  CA  PRO E1024     -50.208  24.879  -0.534  1.00 36.67 LIG 0.18  C 
ATOM      5  CB  PRO E1024     -50.979  23.687   0.025  1.00 38.74 LIG 0.04  C 
ATOM      6  CG  PRO E1024     -49.958  22.632   0.223  1.00 43.33 LIG 0.02  C 
ATOM      7  CD  PRO E1024     -48.842  22.875  -0.752  1.00 39.42 LIG 0.13  C 
ENDROOT
BRANCH 4 8
ATOM      8  C   PRO E1024     -49.674  25.782   0.571  1.00 39.60 LIG 0.24  C 
ATOM      9 O    PRO E1024     -49.089  25.275   1.528  1.00 37.18 LIG-0.27  OA
ATOM     10  N   ILE E1025     -49.847  27.110   0.411  1.00 37.20 LIG-0.35  N 
ATOM     11 H    ILE E1025     -50.253  27.430  -0.276  1.00 37.20 LIG 0.16  HD
BRANCH 10 12
ATOM     12  CA  ILE E1025     -49.398  28.167   1.328  1.00 37.42 LIG 0.18  C 
BRANCH 12 13
ATOM     13  C   ILE E1025     -49.971  27.950   2.727  1.00 40.88 LIG 0.24  C 
ATOM     14 O    ILE E1025     -51.187  28.056   2.896  1.00 40.29 LIG-0.27  OA
ATOM     15  N   PHE E1026     -49.105  27.868   3.756  1.00 36.23 LIG-0.35  N 
ATOM     16 H    PHE E1026     -48.254  27.780   3.667  1.00 36.23 LIG 0.16  HD
BRANCH 15 17
ATOM     17  CA  PHE E1026     -49.575  27.928   5.147  1.00 36.58 LIG 0.18  C 
BRANCH 17 18
ATOM     18  CB  PHE E1026     -49.417  26.584   5.852  1.00 38.58 LIG 0.07  C 
BRANCH 18 19
ATOM     19  CG  PHE E1026     -49.807  25.428   4.978  1.00 40.24 LIG-0.06  A 
ATOM     20  CD1 PHE E1026     -51.060  25.368   4.408  1.00 42.20 LIG 0.01  A 
ATOM     21  CE1 PHE E1026     -51.422  24.296   3.611  1.00 42.54 LIG 0.00  A 
ATOM     22  CZ  PHE E1026     -50.533  23.279   3.379  1.00 41.81 LIG 0.00  A 
ATOM     23  CE2 PHE E1026     -49.284  23.314   3.940  1.00 44.36 LIG 0.00  A 
ATOM     24  CD2 PHE E1026     -48.921  24.384   4.743  1.00 42.30 LIG 0.01  A 
ENDBRANCH 18 19
ENDBRANCH 17 18
BRANCH 17 25
ATOM     25  C   PHE E1026     -48.842  29.009   5.919  1.00 38.60 LIG 0.24  C 
ATOM     26  N   ASN E1027     -49.513  30.176   6.090  1.00 38.80 LIG-0.35  N 
ATOM     27 H    ASN E1027     -50.297  30.309   5.761  1.00 38.80 LIG 0.16  HD
ATOM     28 O    PHE E1026     -47.735  28.775   6.398  1.00 31.59 LIG-0.27  OA
BRANCH 26 29
ATOM     29  CA  ASN E1027     -49.001  31.331   6.838  1.00 74.37 LIG 0.17  C 
BRANCH 29 30
ATOM     30  CB  ASN E1027     -50.120  32.335   7.094  1.00 75.17 LIG 0.14  C 
BRANCH 30 31
ATOM     31  CG  ASN E1027     -50.097  33.506   6.143  1.00 99.64 LIG 0.22  C 
ATOM     32  ND2 ASN E1027     -49.091  34.369   6.252  1.00 92.55 LIG-0.37  N 
ATOM     33 22HD ASN E1027     -48.481  34.245   6.846  1.00 92.55 LIG 0.16  HD
ATOM     34 21HD ASN E1027     -49.050  35.051   5.731  1.00 92.55 LIG 0.16  HD
ATOM     35 OD1  ASN E1027     -50.986  33.657   5.303  1.00 94.01 LIG-0.27  OA
ENDBRANCH 30 31
ENDBRANCH 29 30
BRANCH 29 36
ATOM     36  C   ASN E1027     -48.413  30.876   8.172  1.00103.37 LIG 0.22  C 
ATOM     37 O    ASN E1027     -47.231  30.553   8.251  1.00 69.20 LIG-0.29  OA
ENDBRANCH 29 36
ENDBRANCH 26 29
ENDBRANCH 17 25
ENDBRANCH 15 17
ENDBRANCH 12 13
BRANCH 12 38
ATOM     38  CB  ILE E1025     -50.008  29.551   0.832  1.00 40.50 LIG 0.01  C 
ATOM     39  CG2 ILE E1025     -50.223  30.528   1.997  1.00 43.95 LIG 0.01  C 
BRANCH 38 40
ATOM     40  CG1 ILE E1025     -49.190  30.205  -0.282  1.00 41.58 LIG 0.00  C 
ATOM     41  CD1 ILE E1025     -48.731  31.721   0.083  1.00 52.05 LIG 0.01  C 
ENDBRANCH 38 40
ENDBRANCH 12 38
ENDBRANCH 10 12
ENDBRANCH 4 8
BRANCH 1 42
ATOM     42  CA  ILE E1023     -47.138  24.349  -2.767  1.00 36.06 LIG 0.18  C 
BRANCH 42 43
ATOM     43  N   ILE E1023     -47.273  24.612  -4.213  1.00 37.96 LIG-0.35  N 
ATOM     44  C   ARG E1022     -47.317  23.627  -5.136  1.00 45.42 LIG 0.24  C 
ATOM     45 O    ARG E1022     -47.173  22.437  -4.858  1.00 45.23 LIG-0.27  OA
ATOM     46 H    ILE E1023     -47.319  25.447  -4.411  1.00 37.96 LIG 0.16  HD
BRANCH 44 47
ATOM     47  CA  ARG E1022     -47.483  24.016  -6.606  1.00 45.59 LIG 0.18  C 
BRANCH 47 48
ATOM     48  N   ARG E1022     -47.752  25.450  -6.799  1.00 48.30 LIG-0.35  N 
ATOM     49 H    ARG E1022     -47.049  25.933  -6.908  1.00 48.30 LIG 0.16  HD
ATOM     50  C   ILE E1021     -49.012  25.941  -6.802  1.00 57.51 LIG 0.26  C 
ATOM     51 O    ILE E1021     -50.010  25.226  -6.648  1.00 59.03 LIG-0.27  OA
BRANCH 50 52
ATOM     52  CA  ILE E1021     -49.200  27.452  -7.021  1.00 57.59 LIG 0.40  C 
ATOM     53  N   ILE E1021     -49.307  27.707  -8.454  1.00 58.96 LIG 0.61  N 
BRANCH 52 54
ATOM     54  CB  ILE E1021     -50.497  27.998  -6.360  1.00 60.58 LIG 0.03  C 
ATOM     55  CG2 ILE E1021     -50.606  27.635  -4.882  1.00 61.37 LIG 0.01  C 
BRANCH 54 56
ATOM     56  CG1 ILE E1021     -50.606  29.530  -6.559  1.00 60.59 LIG 0.00  C 
ATOM     57  CD1 ILE E1021     -51.559  29.902  -7.632  1.00 60.15 LIG 0.01  C 
ENDBRANCH 54 56
ENDBRANCH 52 54
ENDBRANCH 50 52
ENDBRANCH 47 48
BRANCH 47 58
ATOM     58  CB  ARG E1022     -46.238  23.558  -7.375  1.00 44.33 LIG 0.04  C 
BRANCH 58 59
ATOM     59  CG  ARG E1022     -44.978  24.322  -6.985  1.00 47.73 LIG 0.02  C 
BRANCH 59 60
ATOM     60  CD  ARG E1022     -43.771  23.424  -6.805  1.00 47.87 LIG 0.14  C 
BRANCH 60 61
ATOM     61  NE  ARG E1022     -43.856  22.691  -5.543  1.00 55.98 LIG-0.23  N 
ATOM     62  CZ  ARG E1022     -44.400  21.490  -5.366  1.00 56.00 LIG 0.67  C 
ATOM     63  NH1 ARG E1022     -44.912  20.822  -6.394  1.00 48.69 LIG-0.23  N 
ATOM     64  NH2 ARG E1022     -44.407  20.932  -4.165  1.00 32.20 LIG-0.23  N 
ATOM     65 1HH1 ARG E1022     -44.893  21.165  -7.182  1.00 48.69 LIG 0.17  HD
ATOM     66 2HH1 ARG E1022     -45.261  20.046  -6.271  1.00 48.69 LIG 0.17  HD
ATOM     67 2HH2 ARG E1022     -44.759  20.155  -4.054  1.00 32.20 LIG 0.17  HD
ATOM     68 1HH2 ARG E1022     -44.059  21.346  -3.496  1.00 32.20 LIG 0.17  HD
ATOM     69 HE   ARG E1022     -43.523  23.073  -4.848  1.00 55.98 LIG 0.18  HD
ENDBRANCH 60 61
ENDBRANCH 59 60
ENDBRANCH 58 59
ENDBRANCH 47 58
ENDBRANCH 44 47
ENDBRANCH 42 43
BRANCH 42 70
ATOM     70  CB  ILE E1023     -45.818  24.927  -2.158  1.00 38.78 LIG 0.01  C 
ATOM     71  CG2 ILE E1023     -45.398  24.128  -0.916  1.00 39.01 LIG 0.01  C 
BRANCH 70 72
ATOM     72  CG1 ILE E1023     -44.654  25.027  -3.189  1.00 39.61 LIG 0.00  C 
ATOM     73  CD1 ILE E1023     -44.454  26.351  -3.885  1.00 43.21 LIG 0.01  C 
ENDBRANCH 70 72
ENDBRANCH 42 70
ENDBRANCH 1 42
TORSDOF 26
ENDMDL
MODEL 9
USER: ADFR SOLUTION from run 162
USER: SCORE 23.144790 LL:  -5.493 LR: -18.528 RR:   0.000 FEB: -10.772
USER: RMSD 4.517492
USER: SEED 161
USER: STATUS searching
USER: GENES 28
USER: genes 0 Translation |==|  0.48173 0.50708 0.42000
USER: genes 1 Rotation |==|  0.48758 0.50187 0.59520 0.99069
USER: genes 2 Torsion [N]-CA--C-[O] |==|  0.78156
USER: genes 3 Torsion [C]-N--CA-[CB] |==|  0.55020
USER: genes 4 Torsion [N]-CA--C-[N] |==|  0.31985
USER: genes 5 Torsion [C]-N--CA-[C] |==|  0.68052
USER: genes 6 Torsion [N]-CA--CB-[CG] |==|  0.87322
USER: genes 7 Torsion [CA]-CB--CG-[CD1] |==|  0.85447
USER: genes 8 Torsion [N]-CA--C-[N] |==|  0.26935
USER: genes 9 Torsion [C]-N--CA-[C] |==|  0.86304
USER: genes 10 Torsion [N]-CA--CB-[CG] |==|  0.70255
USER: genes 11 Torsion [CA]-CB--CG-[OD1] |==|  0.34041
USER: genes 12 Torsion [N]-CA--C-[O] |==|  0.23445
USER: genes 13 Torsion [N]-CA--CB-[CG2] |==|  0.43623
USER: genes 14 Torsion [CA]-CB--CG1-[CD1] |==|  0.68577
USER: genes 15 Torsion [N]-C--CA-[N] |==|  0.35770
USER: genes 16 Torsion [C]-CA--N-[C] |==|  0.81271
USER: genes 17 Torsion [N]-C--CA-[N] |==|  0.38368
USER: genes 18 Torsion [C]-CA--N-[C] |==|  0.82330
USER: genes 19 Torsion [N]-C--CA-[N] |==|  0.30154
USER: genes 20 Torsion [C]-CA--CB-[CG1] |==|  0.75941
USER: genes 21 Torsion [CA]-CB--CG1-[CD1] |==|  0.66902
USER: genes 22 Torsion [C]-CA--CB-[CG] |==|  0.20876
USER: genes 23 Torsion [CA]-CB--CG-[CD] |==|  0.50231
USER: genes 24 Torsion [CB]-CG--CD-[NE] |==|  0.75888
USER: genes 25 Torsion [CG]-CD--NE-[CZ] |==|  0.58456
USER: genes 26 Torsion [C]-CA--CB-[CG1] |==|  0.38083
USER: genes 27 Torsion [CA]-CB--CG1-[CD1] |==|  0.85116
ROOT
ATOM      1  C   ILE E1023     -48.630  25.195  -1.822  1.00 40.02 LIG 0.24  C 
ATOM      2 O    ILE E1023     -49.044  26.324  -2.124  1.00 38.38 LIG-0.27  OA
ATOM      3  N   PRO E1024     -49.262  24.389  -0.932  1.00 37.38 LIG-0.34  N 
ATOM      4  CA  PRO E1024     -50.412  24.909  -0.178  1.00 36.67 LIG 0.18  C 
ATOM      5  CB  PRO E1024     -51.052  23.653   0.408  1.00 38.74 LIG 0.04  C 
ATOM      6  CG  PRO E1024     -49.935  22.689   0.551  1.00 43.33 LIG 0.02  C 
ATOM      7  CD  PRO E1024     -48.891  23.030  -0.473  1.00 39.42 LIG 0.13  C 
ENDROOT
BRANCH 4 8
ATOM      8  C   PRO E1024     -49.906  25.851   0.907  1.00 39.60 LIG 0.24  C 
ATOM      9 O    PRO E1024     -49.436  25.376   1.940  1.00 37.18 LIG-0.27  OA
ATOM     10  N   ILE E1025     -49.974  27.173   0.647  1.00 37.20 LIG-0.35  N 
ATOM     11 H    ILE E1025     -50.301  27.469  -0.091  1.00 37.20 LIG 0.16  HD
BRANCH 10 12
ATOM     12  CA  ILE E1025     -49.527  28.261   1.527  1.00 37.42 LIG 0.18  C 
BRANCH 12 13
ATOM     13  C   ILE E1025     -50.026  28.043   2.954  1.00 40.88 LIG 0.24  C 
ATOM     14 O    ILE E1025     -51.210  28.267   3.211  1.00 40.29 LIG-0.27  OA
ATOM     15  N   PHE E1026     -49.108  27.827   3.917  1.00 36.23 LIG-0.35  N 
ATOM     16 H    PHE E1026     -48.279  27.655   3.765  1.00 36.23 LIG 0.16  HD
BRANCH 15 17
ATOM     17  CA  PHE E1026     -49.476  27.874   5.338  1.00 36.58 LIG 0.18  C 
BRANCH 17 18
ATOM     18  CB  PHE E1026     -49.157  26.560   6.045  1.00 38.58 LIG 0.07  C 
BRANCH 18 19
ATOM     19  CG  PHE E1026     -49.600  25.363   5.257  1.00 40.24 LIG-0.06  A 
ATOM     20  CD1 PHE E1026     -50.895  25.264   4.795  1.00 42.20 LIG 0.01  A 
ATOM     21  CE1 PHE E1026     -51.305  24.153   4.078  1.00 42.54 LIG 0.00  A 
ATOM     22  CZ  PHE E1026     -50.423  23.137   3.819  1.00 41.81 LIG 0.00  A 
ATOM     23  CE2 PHE E1026     -49.134  23.210   4.274  1.00 44.36 LIG 0.00  A 
ATOM     24  CD2 PHE E1026     -48.722  24.318   4.997  1.00 42.30 LIG 0.01  A 
ENDBRANCH 18 19
ENDBRANCH 17 18
BRANCH 17 25
ATOM     25  C   PHE E1026     -48.779  29.025   6.039  1.00 38.60 LIG 0.24  C 
ATOM     26  N   ASN E1027     -49.502  30.164   6.177  1.00 38.80 LIG-0.35  N 
ATOM     27 H    ASN E1027     -50.300  30.244   5.865  1.00 38.80 LIG 0.16  HD
ATOM     28 O    PHE E1026     -47.649  28.867   6.497  1.00 31.59 LIG-0.27  OA
BRANCH 26 29
ATOM     29  CA  ASN E1027     -49.030  31.376   6.857  1.00 74.37 LIG 0.17  C 
BRANCH 29 30
ATOM     30  CB  ASN E1027     -50.176  32.366   7.034  1.00 75.17 LIG 0.14  C 
BRANCH 30 31
ATOM     31  CG  ASN E1027     -50.080  33.558   6.115  1.00 99.64 LIG 0.22  C 
ATOM     32  ND2 ASN E1027     -48.981  34.304   6.187  1.00 92.55 LIG-0.37  N 
ATOM     33 22HD ASN E1027     -48.356  34.097   6.739  1.00 92.55 LIG 0.16  HD
ATOM     34 21HD ASN E1027     -48.897  34.995   5.682  1.00 92.55 LIG 0.16  HD
ATOM     35 OD1  ASN E1027     -50.993  33.830   5.333  1.00 94.01 LIG-0.27  OA
ENDBRANCH 30 31
ENDBRANCH 29 30
BRANCH 29 36
ATOM     36  C   ASN E1027     -48.450  31.021   8.225  1.00103.37 LIG 0.22  C 
ATOM     37 O    ASN E1027     -47.284  30.650   8.328  1.00 69.20 LIG-0.29  OA
ENDBRANCH 29 36
ENDBRANCH 26 29
ENDBRANCH 17 25
ENDBRANCH 15 17
ENDBRANCH 12 13
BRANCH 12 38
ATOM     38  CB  ILE E1025     -50.213  29.612   1.042  1.00 40.50 LIG 0.01  C 
ATOM     39  CG2 ILE E1025     -50.281  30.653   2.167  1.00 43.95 LIG 0.01  C 
BRANCH 38 40
ATOM     40  CG1 ILE E1025     -49.561  30.204  -0.208  1.00 41.58 LIG 0.00  C 
ATOM     41  CD1 ILE E1025     -48.814  31.618   0.083  1.00 52.05 LIG 0.01  C 
ENDBRANCH 38 40
ENDBRANCH 12 38
ENDBRANCH 10 12
ENDBRANCH 4 8
BRANCH 1 42
ATOM     42  CA  ILE E1023     -47.417  24.650  -2.556  1.00 36.06 LIG 0.18  C 
BRANCH 42 43
ATOM     43  N   ILE E1023     -47.647  24.893  -3.993  1.00 37.96 LIG-0.35  N 
ATOM     44  C   ARG E1022     -48.613  24.266  -4.698  1.00 45.42 LIG 0.24  C 
ATOM     45 O    ARG E1022     -49.330  23.386  -4.221  1.00 45.23 LIG-0.27  OA
ATOM     46 H    ILE E1023     -47.110  25.469  -4.338  1.00 37.96 LIG 0.16  HD
BRANCH 44 47
ATOM     47  CA  ARG E1022     -48.777  24.614  -6.178  1.00 45.59 LIG 0.18  C 
BRANCH 47 48
ATOM     48  N   ARG E1022     -49.016  23.436  -7.027  1.00 48.30 LIG-0.35  N 
ATOM     49 H    ARG E1022     -49.781  23.430  -7.419  1.00 48.30 LIG 0.16  HD
ATOM     50  C   ILE E1021     -48.093  22.458  -7.162  1.00 57.51 LIG 0.26  C 
ATOM     51 O    ILE E1021     -46.996  22.491  -6.590  1.00 59.03 LIG-0.27  OA
BRANCH 50 52
ATOM     52  CA  ILE E1021     -48.425  21.268  -8.077  1.00 57.59 LIG 0.40  C 
ATOM     53  N   ILE E1021     -47.609  21.364  -9.284  1.00 58.96 LIG 0.61  N 
BRANCH 52 54
ATOM     54  CB  ILE E1021     -48.109  19.896  -7.418  1.00 60.58 LIG 0.03  C 
ATOM     55  CG2 ILE E1021     -49.049  18.787  -7.880  1.00 61.37 LIG 0.01  C 
BRANCH 54 56
ATOM     56  CG1 ILE E1021     -46.631  19.502  -7.663  1.00 60.59 LIG 0.00  C 
ATOM     57  CD1 ILE E1021     -46.494  18.234  -8.420  1.00 60.15 LIG 0.01  C 
ENDBRANCH 54 56
ENDBRANCH 52 54
ENDBRANCH 50 52
ENDBRANCH 47 48
BRANCH 47 58
ATOM     58  CB  ARG E1022     -49.894  25.655  -6.314  1.00 44.33 LIG 0.04  C 
BRANCH 58 59
ATOM     59  CG  ARG E1022     -49.469  27.052  -5.879  1.00 47.73 LIG 0.02  C 
BRANCH 59 60
ATOM     60  CD  ARG E1022     -50.579  28.075  -5.996  1.00 47.87 LIG 0.14  C 
BRANCH 60 61
ATOM     61  NE  ARG E1022     -50.614  28.650  -7.340  1.00 55.98 LIG-0.23  N 
ATOM     62  CZ  ARG E1022     -51.006  29.880  -7.660  1.00 56.00 LIG 0.67  C 
ATOM     63  NH1 ARG E1022     -51.393  30.733  -6.717  1.00 48.69 LIG-0.23  N 
ATOM     64  NH2 ARG E1022     -50.982  30.280  -8.922  1.00 32.20 LIG-0.23  N 
ATOM     65 1HH1 ARG E1022     -51.392  30.491  -5.892  1.00 48.69 LIG 0.17  HD
ATOM     66 2HH1 ARG E1022     -51.645  31.526  -6.933  1.00 48.69 LIG 0.17  HD
ATOM     67 2HH2 ARG E1022     -51.236  31.076  -9.126  1.00 32.20 LIG 0.17  HD
ATOM     68 1HH2 ARG E1022     -50.712  29.744  -9.538  1.00 32.20 LIG 0.17  HD
ATOM     69 HE   ARG E1022     -50.355  28.143  -7.986  1.00 55.98 LIG 0.18  HD
ENDBRANCH 60 61
ENDBRANCH 59 60
ENDBRANCH 58 59
ENDBRANCH 47 58
ENDBRANCH 44 47
ENDBRANCH 42 43
BRANCH 42 70
ATOM     70  CB  ILE E1023     -46.126  25.348  -2.014  1.00 38.78 LIG 0.01  C 
ATOM     71  CG2 ILE E1023     -46.436  26.147  -0.740  1.00 39.01 LIG 0.01  C 
BRANCH 70 72
ATOM     72  CG1 ILE E1023     -44.938  24.364  -1.792  1.00 39.61 LIG 0.00  C 
ATOM     73  CD1 ILE E1023     -45.194  23.151  -0.932  1.00 43.21 LIG 0.01  C 
ENDBRANCH 70 72
ENDBRANCH 42 70
ENDBRANCH 1 42
TORSDOF 26
ENDMDL
MODEL 10
USER: ADFR SOLUTION from run 28
USER: SCORE 23.657053 LL:  -6.252 LR: -18.516 RR:   0.000 FEB: -10.760
USER: RMSD 4.349019
USER: SEED 27
USER: STATUS no improvement in best in 3 clusters for 5 generations
USER: GENES 28
USER: genes 0 Translation |==|  0.48861 0.48867 0.41959
USER: genes 1 Rotation |==|  0.47498 0.48981 0.56298 0.99528
USER: genes 2 Torsion [N]-CA--C-[O] |==|  0.81389
USER: genes 3 Torsion [C]-N--CA-[CB] |==|  0.53354
USER: genes 4 Torsion [N]-CA--C-[N] |==|  0.33987
USER: genes 5 Torsion [C]-N--CA-[C] |==|  0.66522
USER: genes 6 Torsion [N]-CA--CB-[CG] |==|  0.87952
USER: genes 7 Torsion [CA]-CB--CG-[CD1] |==|  0.84616
USER: genes 8 Torsion [N]-CA--C-[N] |==|  0.27587
USER: genes 9 Torsion [C]-N--CA-[C] |==|  0.86434
USER: genes 10 Torsion [N]-CA--CB-[CG] |==|  0.69634
USER: genes 11 Torsion [CA]-CB--CG-[OD1] |==|  0.34507
USER: genes 12 Torsion [N]-CA--C-[O] |==|  0.23365
USER: genes 13 Torsion [N]-CA--CB-[CG2] |==|  0.42549
USER: genes 14 Torsion [CA]-CB--CG1-[CD1] |==|  0.66591
USER: genes 15 Torsion [N]-C--CA-[N] |==|  0.45282
USER: genes 16 Torsion [C]-CA--N-[C] |==|  0.56791
USER: genes 17 Torsion [N]-C--CA-[N] |==|  0.87784
USER: genes 18 Torsion [C]-CA--N-[C] |==|  0.82852
USER: genes 19 Torsion [N]-C--CA-[N] |==|  0.49148
USER: genes 20 Torsion [C]-CA--CB-[CG1] |==|  0.76211
USER: genes 21 Torsion [CA]-CB--CG1-[CD1] |==|  0.41331
USER: genes 22 Torsion [C]-CA--CB-[CG] |==|  0.81884
USER: genes 23 Torsion [CA]-CB--CG-[CD] |==|  0.71006
USER: genes 24 Torsion [CB]-CG--CD-[NE] |==|  0.92050
USER: genes 25 Torsion [CG]-CD--NE-[CZ] |==|  0.33491
USER: genes 26 Torsion [C]-CA--CB-[CG1] |==|  0.78244
USER: genes 27 Torsion [CA]-CB--CG1-[CD1] |==|  0.17468
ROOT
ATOM      1  C   ILE E1023     -48.527  24.766  -1.834  1.00 40.02 LIG 0.24  C 
ATOM      2 O    ILE E1023     -48.773  25.925  -2.202  1.00 38.38 LIG-0.27  OA
ATOM      3  N   PRO E1024     -49.308  24.088  -0.956  1.00 37.38 LIG-0.34  N 
ATOM      4  CA  PRO E1024     -50.422  24.782  -0.296  1.00 36.67 LIG 0.18  C 
ATOM      5  CB  PRO E1024     -51.252  23.645   0.295  1.00 38.74 LIG 0.04  C 
ATOM      6  CG  PRO E1024     -50.279  22.554   0.542  1.00 43.33 LIG 0.02  C 
ATOM      7  CD  PRO E1024     -49.143  22.714  -0.426  1.00 39.42 LIG 0.13  C 
ENDROOT
BRANCH 4 8
ATOM      8  C   PRO E1024     -49.862  25.699   0.784  1.00 39.60 LIG 0.24  C 
ATOM      9 O    PRO E1024     -49.320  25.201   1.770  1.00 37.18 LIG-0.27  OA
ATOM     10  N   ILE E1025     -49.965  27.027   0.571  1.00 37.20 LIG-0.35  N 
ATOM     11 H    ILE E1025     -50.343  27.340  -0.136  1.00 37.20 LIG 0.16  HD
BRANCH 10 12
ATOM     12  CA  ILE E1025     -49.479  28.095   1.454  1.00 37.42 LIG 0.18  C 
BRANCH 12 13
ATOM     13  C   ILE E1025     -50.006  27.905   2.875  1.00 40.88 LIG 0.24  C 
ATOM     14 O    ILE E1025     -51.210  28.056   3.088  1.00 40.29 LIG-0.27  OA
ATOM     15  N   PHE E1026     -49.106  27.797   3.872  1.00 36.23 LIG-0.35  N 
ATOM     16 H    PHE E1026     -48.263  27.677   3.752  1.00 36.23 LIG 0.16  HD
BRANCH 15 17
ATOM     17  CA  PHE E1026     -49.521  27.879   5.278  1.00 36.58 LIG 0.18  C 
BRANCH 17 18
ATOM     18  CB  PHE E1026     -49.257  26.573   6.021  1.00 38.58 LIG 0.07  C 
BRANCH 18 19
ATOM     19  CG  PHE E1026     -49.650  25.368   5.218  1.00 40.24 LIG-0.06  A 
ATOM     20  CD1 PHE E1026     -50.929  25.239   4.722  1.00 42.20 LIG 0.01  A 
ATOM     21  CE1 PHE E1026     -51.293  24.121   3.991  1.00 42.54 LIG 0.00  A 
ATOM     22  CZ  PHE E1026     -50.381  23.127   3.752  1.00 41.81 LIG 0.00  A 
ATOM     23  CE2 PHE E1026     -49.106  23.230   4.242  1.00 44.36 LIG 0.00  A 
ATOM     24  CD2 PHE E1026     -48.740  24.345   4.978  1.00 42.30 LIG 0.01  A 
ENDBRANCH 18 19
ENDBRANCH 17 18
BRANCH 17 25
ATOM     25  C   PHE E1026     -48.822  29.028   5.982  1.00 38.60 LIG 0.24  C 
ATOM     26  N   ASN E1027     -49.542  30.170   6.117  1.00 38.80 LIG-0.35  N 
ATOM     27 H    ASN E1027     -50.338  30.252   5.802  1.00 38.80 LIG 0.16  HD
ATOM     28 O    PHE E1026     -47.694  28.866   6.443  1.00 31.59 LIG-0.27  OA
BRANCH 26 29
ATOM     29  CA  ASN E1027     -49.067  31.380   6.798  1.00 74.37 LIG 0.17  C 
BRANCH 29 30
ATOM     30  CB  ASN E1027     -50.213  32.370   6.982  1.00 75.17 LIG 0.14  C 
BRANCH 30 31
ATOM     31  CG  ASN E1027     -50.092  33.589   6.103  1.00 99.64 LIG 0.22  C 
ATOM     32  ND2 ASN E1027     -48.977  34.309   6.198  1.00 92.55 LIG-0.37  N 
ATOM     33 22HD ASN E1027     -48.356  34.069   6.742  1.00 92.55 LIG 0.16  HD
ATOM     34 21HD ASN E1027     -48.878  35.015   5.716  1.00 92.55 LIG 0.16  HD
ATOM     35 OD1  ASN E1027     -51.001  33.907   5.333  1.00 94.01 LIG-0.27  OA
ENDBRANCH 30 31
ENDBRANCH 29 30
BRANCH 29 36
ATOM     36  C   ASN E1027     -48.482  31.022   8.163  1.00103.37 LIG 0.22  C 
ATOM     37 O    ASN E1027     -47.317  30.646   8.260  1.00 69.20 LIG-0.29  OA
ENDBRANCH 29 36
ENDBRANCH 26 29
ENDBRANCH 17 25
ENDBRANCH 15 17
ENDBRANCH 12 13
BRANCH 12 38
ATOM     38  CB  ILE E1025     -50.094  29.476   0.957  1.00 40.50 LIG 0.01  C 
ATOM     39  CG2 ILE E1025     -50.216  30.491   2.102  1.00 43.95 LIG 0.01  C 
BRANCH 38 40
ATOM     40  CG1 ILE E1025     -49.340  30.080  -0.228  1.00 41.58 LIG 0.00  C 
ATOM     41  CD1 ILE E1025     -48.736  31.553   0.098  1.00 52.05 LIG 0.01  C 
ENDBRANCH 38 40
ENDBRANCH 12 38
ENDBRANCH 10 12
ENDBRANCH 4 8
BRANCH 1 42
ATOM     42  CA  ILE E1023     -47.354  24.041  -2.470  1.00 36.06 LIG 0.18  C 
BRANCH 42 43
ATOM     43  N   ILE E1023     -46.951  24.836  -3.646  1.00 37.96 LIG-0.35  N 
ATOM     44  C   ARG E1022     -46.301  24.305  -4.703  1.00 45.42 LIG 0.24  C 
ATOM     45 O    ARG E1022     -45.923  23.134  -4.741  1.00 45.23 LIG-0.27  OA
ATOM     46 H    ILE E1023     -47.169  25.666  -3.594  1.00 37.96 LIG 0.16  HD
BRANCH 44 47
ATOM     47  CA  ARG E1022     -45.953  25.219  -5.878  1.00 45.59 LIG 0.18  C 
BRANCH 47 48
ATOM     48  N   ARG E1022     -47.059  26.111  -6.265  1.00 48.30 LIG-0.35  N 
ATOM     49 H    ARG E1022     -46.883  26.949  -6.187  1.00 48.30 LIG 0.16  HD
ATOM     50  C   ILE E1021     -48.241  25.626  -6.704  1.00 57.51 LIG 0.26  C 
ATOM     51 O    ILE E1021     -48.470  24.415  -6.812  1.00 59.03 LIG-0.27  OA
BRANCH 50 52
ATOM     52  CA  ILE E1021     -49.337  26.632  -7.095  1.00 57.59 LIG 0.40  C 
ATOM     53  N   ILE E1021     -50.489  25.895  -7.604  1.00 58.96 LIG 0.61  N 
BRANCH 52 54
ATOM     54  CB  ILE E1021     -49.832  27.481  -5.890  1.00 60.58 LIG 0.03  C 
ATOM     55  CG2 ILE E1021     -50.298  28.875  -6.300  1.00 61.37 LIG 0.01  C 
BRANCH 54 56
ATOM     56  CG1 ILE E1021     -50.947  26.733  -5.119  1.00 60.59 LIG 0.00  C 
ATOM     57  CD1 ILE E1021     -50.952  27.048  -3.670  1.00 60.15 LIG 0.01  C 
ENDBRANCH 54 56
ENDBRANCH 52 54
ENDBRANCH 50 52
ENDBRANCH 47 48
BRANCH 47 58
ATOM     58  CB  ARG E1022     -44.681  26.002  -5.529  1.00 44.33 LIG 0.04  C 
BRANCH 58 59
ATOM     59  CG  ARG E1022     -44.870  26.962  -4.361  1.00 47.73 LIG 0.02  C 
BRANCH 59 60
ATOM     60  CD  ARG E1022     -44.976  28.410  -4.794  1.00 47.87 LIG 0.14  C 
BRANCH 60 61
ATOM     61  NE  ARG E1022     -44.237  28.634  -6.035  1.00 55.98 LIG-0.23  N 
ATOM     62  CZ  ARG E1022     -44.742  29.079  -7.183  1.00 56.00 LIG 0.67  C 
ATOM     63  NH1 ARG E1022     -46.030  29.394  -7.277  1.00 48.69 LIG-0.23  N 
ATOM     64  NH2 ARG E1022     -43.958  29.244  -8.237  1.00 32.20 LIG-0.23  N 
ATOM     65 1HH1 ARG E1022     -46.544  29.311  -6.593  1.00 48.69 LIG 0.17  HD
ATOM     66 2HH1 ARG E1022     -46.348  29.680  -8.023  1.00 48.69 LIG 0.17  HD
ATOM     67 2HH2 ARG E1022     -44.288  29.532  -8.977  1.00 32.20 LIG 0.17  HD
ATOM     68 1HH2 ARG E1022     -43.119  29.064  -8.181  1.00 32.20 LIG 0.17  HD
ATOM     69 HE   ARG E1022     -43.394  28.462  -6.022  1.00 55.98 LIG 0.18  HD
ENDBRANCH 60 61
ENDBRANCH 59 60
ENDBRANCH 58 59
ENDBRANCH 47 58
ENDBRANCH 44 47
ENDBRANCH 42 43
BRANCH 42 70
ATOM     70  CB  ILE E1023     -46.209  23.880  -1.416  1.00 38.78 LIG 0.01  C 
ATOM     71  CG2 ILE E1023     -45.306  22.690  -1.775  1.00 39.01 LIG 0.01  C 
BRANCH 70 72
ATOM     72  CG1 ILE E1023     -45.377  25.180  -1.204  1.00 39.61 LIG 0.00  C 
ATOM     73  CD1 ILE E1023     -46.101  26.385  -0.657  1.00 43.21 LIG 0.01  C 
ENDBRANCH 70 72
ENDBRANCH 42 70
ENDBRANCH 1 42
TORSDOF 26
ENDMDL
MODEL 11
USER: ADFR SOLUTION from run 52
USER: SCORE 23.527882 LL:  -6.108 LR: -18.415 RR:   0.000 FEB: -10.659
USER: RMSD 4.412514
USER: SEED 51
USER: STATUS no improvement in best in 15 clusters for 5 generations
USER: GENES 28
USER: genes 0 Translation |==|  0.49798 0.47189 0.42467
USER: genes 1 Rotation |==|  0.45643 0.46244 0.52709 0.99594
USER: genes 2 Torsion [N]-CA--C-[O] |==|  0.83851
USER: genes 3 Torsion [C]-N--CA-[CB] |==|  0.53918
USER: genes 4 Torsion [N]-CA--C-[N] |==|  0.35432
USER: genes 5 Torsion [C]-N--CA-[C] |==|  0.64375
USER: genes 6 Torsion [N]-CA--CB-[CG] |==|  0.87392
USER: genes 7 Torsion [CA]-CB--CG-[CD1] |==|  0.83323
USER: genes 8 Torsion [N]-CA--C-[N] |==|  0.28405
USER: genes 9 Torsion [C]-N--CA-[C] |==|  0.86384
USER: genes 10 Torsion [N]-CA--CB-[CG] |==|  0.71951
USER: genes 11 Torsion [CA]-CB--CG-[OD1] |==|  0.32037
USER: genes 12 Torsion [N]-CA--C-[O] |==|  0.24338
USER: genes 13 Torsion [N]-CA--CB-[CG2] |==|  0.42090
USER: genes 14 Torsion [CA]-CB--CG1-[CD1] |==|  0.65888
USER: genes 15 Torsion [N]-C--CA-[N] |==|  0.35037
USER: genes 16 Torsion [C]-CA--N-[C] |==|  0.63835
USER: genes 17 Torsion [N]-C--CA-[N] |==|  0.40179
USER: genes 18 Torsion [C]-CA--N-[C] |==|  0.82602
USER: genes 19 Torsion [N]-C--CA-[N] |==|  0.62128
USER: genes 20 Torsion [C]-CA--CB-[CG1] |==|  0.57335
USER: genes 21 Torsion [CA]-CB--CG1-[CD1] |==|  0.45923
USER: genes 22 Torsion [C]-CA--CB-[CG] |==|  0.07134
USER: genes 23 Torsion [CA]-CB--CG-[CD] |==|  0.29455
USER: genes 24 Torsion [CB]-CG--CD-[NE] |==|  0.60794
USER: genes 25 Torsion [CG]-CD--NE-[CZ] |==|  0.54533
USER: genes 26 Torsion [C]-CA--CB-[CG1] |==|  0.78886
USER: genes 27 Torsion [CA]-CB--CG1-[CD1] |==|  0.76555
ROOT
ATOM      1  C   ILE E1023     -48.386  24.376  -1.689  1.00 40.02 LIG 0.24  C 
ATOM      2 O    ILE E1023     -48.420  25.531  -2.140  1.00 38.38 LIG-0.27  OA
ATOM      3  N   PRO E1024     -49.355  23.867  -0.887  1.00 37.38 LIG-0.34  N 
ATOM      4  CA  PRO E1024     -50.432  24.747  -0.409  1.00 36.67 LIG 0.18  C 
ATOM      5  CB  PRO E1024     -51.479  23.772   0.124  1.00 38.74 LIG 0.04  C 
ATOM      6  CG  PRO E1024     -50.707  22.579   0.546  1.00 43.33 LIG 0.02  C 
ATOM      7  CD  PRO E1024     -49.451  22.522  -0.276  1.00 39.42 LIG 0.13  C 
ENDROOT
BRANCH 4 8
ATOM      8  C   PRO E1024     -49.881  25.648   0.689  1.00 39.60 LIG 0.24  C 
ATOM      9 O    PRO E1024     -49.386  25.136   1.691  1.00 37.18 LIG-0.27  OA
ATOM     10  N   ILE E1025     -49.940  26.978   0.472  1.00 37.20 LIG-0.35  N 
ATOM     11 H    ILE E1025     -50.286  27.301  -0.246  1.00 37.20 LIG 0.16  HD
BRANCH 10 12
ATOM     12  CA  ILE E1025     -49.453  28.033   1.372  1.00 37.42 LIG 0.18  C 
BRANCH 12 13
ATOM     13  C   ILE E1025     -49.992  27.830   2.786  1.00 40.88 LIG 0.24  C 
ATOM     14 O    ILE E1025     -51.208  27.891   2.974  1.00 40.29 LIG-0.27  OA
ATOM     15  N   PHE E1026     -49.106  27.812   3.801  1.00 36.23 LIG-0.35  N 
ATOM     16 H    PHE E1026     -48.254  27.756   3.699  1.00 36.23 LIG 0.16  HD
BRANCH 15 17
ATOM     17  CA  PHE E1026     -49.554  27.889   5.198  1.00 36.58 LIG 0.18  C 
BRANCH 17 18
ATOM     18  CB  PHE E1026     -49.376  26.557   5.920  1.00 38.58 LIG 0.07  C 
BRANCH 18 19
ATOM     19  CG  PHE E1026     -49.853  25.393   5.103  1.00 40.24 LIG-0.06  A 
ATOM     20  CD1 PHE E1026     -51.166  25.313   4.691  1.00 42.20 LIG 0.01  A 
ATOM     21  CE1 PHE E1026     -51.607  24.233   3.946  1.00 42.54 LIG 0.00  A 
ATOM     22  CZ  PHE E1026     -50.739  23.228   3.609  1.00 41.81 LIG 0.00  A 
ATOM     23  CE2 PHE E1026     -49.432  23.283   4.013  1.00 44.36 LIG 0.00  A 
ATOM     24  CD2 PHE E1026     -48.988  24.360   4.763  1.00 42.30 LIG 0.01  A 
ENDBRANCH 18 19
ENDBRANCH 17 18
BRANCH 17 25
ATOM     25  C   PHE E1026     -48.816  28.987   5.942  1.00 38.60 LIG 0.24  C 
ATOM     26  N   ASN E1027     -49.503  30.141   6.135  1.00 38.80 LIG-0.35  N 
ATOM     27 H    ASN E1027     -50.301  30.257   5.834  1.00 38.80 LIG 0.16  HD
ATOM     28 O    PHE E1026     -47.688  28.776   6.382  1.00 31.59 LIG-0.27  OA
BRANCH 26 29
ATOM     29  CA  ASN E1027     -48.989  31.307   6.863  1.00 74.37 LIG 0.17  C 
BRANCH 29 30
ATOM     30  CB  ASN E1027     -50.105  32.319   7.100  1.00 75.17 LIG 0.14  C 
BRANCH 30 31
ATOM     31  CG  ASN E1027     -50.071  33.478   6.135  1.00 99.64 LIG 0.22  C 
ATOM     32  ND2 ASN E1027     -49.025  34.297   6.193  1.00 92.55 LIG-0.37  N 
ATOM     33 22HD ASN E1027     -48.396  34.153   6.762  1.00 92.55 LIG 0.16  HD
ATOM     34 21HD ASN E1027     -48.977  34.972   5.661  1.00 92.55 LIG 0.16  HD
ATOM     35 OD1  ASN E1027     -50.987  33.659   5.330  1.00 94.01 LIG-0.27  OA
ENDBRANCH 30 31
ENDBRANCH 29 30
BRANCH 29 36
ATOM     36  C   ASN E1027     -48.403  30.874   8.205  1.00103.37 LIG 0.22  C 
ATOM     37 O    ASN E1027     -47.229  30.523   8.286  1.00 69.20 LIG-0.29  OA
ENDBRANCH 29 36
ENDBRANCH 26 29
ENDBRANCH 17 25
ENDBRANCH 15 17
ENDBRANCH 12 13
BRANCH 12 38
ATOM     38  CB  ILE E1025     -50.056  29.423   0.885  1.00 40.50 LIG 0.01  C 
ATOM     39  CG2 ILE E1025     -50.217  30.412   2.048  1.00 43.95 LIG 0.01  C 
BRANCH 38 40
ATOM     40  CG1 ILE E1025     -49.265  30.055  -0.260  1.00 41.58 LIG 0.00  C 
ATOM     41  CD1 ILE E1025     -48.731  31.549   0.094  1.00 52.05 LIG 0.01  C 
ENDBRANCH 38 40
ENDBRANCH 12 38
ENDBRANCH 10 12
ENDBRANCH 4 8
BRANCH 1 42
ATOM     42  CA  ILE E1023     -47.260  23.460  -2.134  1.00 36.06 LIG 0.18  C 
BRANCH 42 43
ATOM     43  N   ILE E1023     -47.210  23.536  -3.607  1.00 37.96 LIG-0.35  N 
ATOM     44  C   ARG E1022     -47.184  22.441  -4.397  1.00 45.42 LIG 0.24  C 
ATOM     45 O    ARG E1022     -47.123  21.294  -3.955  1.00 45.23 LIG-0.27  OA
ATOM     46 H    ILE E1023     -47.198  24.339  -3.913  1.00 37.96 LIG 0.16  HD
BRANCH 44 47
ATOM     47  CA  ARG E1022     -47.156  22.639  -5.913  1.00 45.59 LIG 0.18  C 
BRANCH 47 48
ATOM     48  N   ARG E1022     -46.349  21.627  -6.615  1.00 48.30 LIG-0.35  N 
ATOM     49 H    ARG E1022     -46.794  21.135  -7.163  1.00 48.30 LIG 0.16  HD
ATOM     50  C   ILE E1021     -45.021  21.503  -6.398  1.00 57.51 LIG 0.26  C 
ATOM     51 O    ILE E1021     -44.402  22.226  -5.607  1.00 59.03 LIG-0.27  OA
BRANCH 50 52
ATOM     52  CA  ILE E1021     -44.256  20.424  -7.183  1.00 57.59 LIG 0.40  C 
ATOM     53  N   ILE E1021     -43.347  19.737  -6.270  1.00 58.96 LIG 0.61  N 
BRANCH 52 54
ATOM     54  CB  ILE E1021     -45.195  19.345  -7.792  1.00 60.58 LIG 0.03  C 
ATOM     55  CG2 ILE E1021     -45.833  19.788  -9.105  1.00 61.37 LIG 0.01  C 
BRANCH 54 56
ATOM     56  CG1 ILE E1021     -44.440  18.005  -7.973  1.00 60.59 LIG 0.00  C 
ATOM     57  CD1 ILE E1021     -45.352  16.861  -8.217  1.00 60.15 LIG 0.01  C 
ENDBRANCH 54 56
ENDBRANCH 52 54
ENDBRANCH 50 52
ENDBRANCH 47 48
BRANCH 47 58
ATOM     58  CB  ARG E1022     -48.600  22.678  -6.428  1.00 44.33 LIG 0.04  C 
BRANCH 58 59
ATOM     59  CG  ARG E1022     -49.601  23.133  -5.373  1.00 47.73 LIG 0.02  C 
BRANCH 59 60
ATOM     60  CD  ARG E1022     -50.105  24.543  -5.601  1.00 47.87 LIG 0.14  C 
BRANCH 60 61
ATOM     61  NE  ARG E1022     -50.243  25.254  -4.332  1.00 55.98 LIG-0.23  N 
ATOM     62  CZ  ARG E1022     -50.931  26.374  -4.128  1.00 56.00 LIG 0.67  C 
ATOM     63  NH1 ARG E1022     -51.604  26.945  -5.122  1.00 48.69 LIG-0.23  N 
ATOM     64  NH2 ARG E1022     -50.981  26.917  -2.921  1.00 32.20 LIG-0.23  N 
ATOM     65 1HH1 ARG E1022     -51.596  26.589  -5.906  1.00 48.69 LIG 0.17  HD
ATOM     66 2HH1 ARG E1022     -52.046  27.668  -4.982  1.00 48.69 LIG 0.17  HD
ATOM     67 2HH2 ARG E1022     -51.427  27.641  -2.793  1.00 32.20 LIG 0.17  HD
ATOM     68 1HH2 ARG E1022     -50.567  26.545  -2.265  1.00 32.20 LIG 0.17  HD
ATOM     69 HE   ARG E1022     -49.840  24.916  -3.651  1.00 55.98 LIG 0.18  HD
ENDBRANCH 60 61
ENDBRANCH 59 60
ENDBRANCH 58 59
ENDBRANCH 47 58
ENDBRANCH 44 47
ENDBRANCH 42 43
BRANCH 42 70
ATOM     70  CB  ILE E1023     -45.926  23.906  -1.450  1.00 38.78 LIG 0.01  C 
ATOM     71  CG2 ILE E1023     -44.918  22.748  -1.420  1.00 39.01 LIG 0.01  C 
BRANCH 70 72
ATOM     72  CG1 ILE E1023     -45.302  25.184  -2.088  1.00 39.61 LIG 0.00  C 
ATOM     73  CD1 ILE E1023     -44.432  24.997  -3.307  1.00 43.21 LIG 0.01  C 
ENDBRANCH 70 72
ENDBRANCH 42 70
ENDBRANCH 1 42
TORSDOF 26
ENDMDL
MODEL 12
USER: ADFR SOLUTION from run 85
USER: SCORE 23.627289 LL:  -6.545 LR: -18.405 RR:   0.000 FEB: -10.649
USER: RMSD 4.259533
USER: SEED 84
USER: STATUS no improvement in best in 2 clusters for 5 generations
USER: GENES 28
USER: genes 0 Translation |==|  0.50338 0.48336 0.41444
USER: genes 1 Rotation |==|  0.46073 0.49550 0.53816 0.99697
USER: genes 2 Torsion [N]-CA--C-[O] |==|  0.86646
USER: genes 3 Torsion [C]-N--CA-[CB] |==|  0.50030
USER: genes 4 Torsion [N]-CA--C-[N] |==|  0.38896
USER: genes 5 Torsion [C]-N--CA-[C] |==|  0.18887
USER: genes 6 Torsion [N]-CA--CB-[CG] |==|  0.73590
USER: genes 7 Torsion [CA]-CB--CG-[CD1] |==|  0.36340
USER: genes 8 Torsion [N]-CA--C-[N] |==|  0.18263
USER: genes 9 Torsion [C]-N--CA-[C] |==|  0.50360
USER: genes 10 Torsion [N]-CA--CB-[CG] |==|  0.12798
USER: genes 11 Torsion [CA]-CB--CG-[OD1] |==|  0.69397
USER: genes 12 Torsion [N]-CA--C-[O] |==|  0.35066
USER: genes 13 Torsion [N]-CA--CB-[CG2] |==|  0.41434
USER: genes 14 Torsion [CA]-CB--CG1-[CD1] |==|  0.65058
USER: genes 15 Torsion [N]-C--CA-[N] |==|  0.36993
USER: genes 16 Torsion [C]-CA--N-[C] |==|  0.83835
USER: genes 17 Torsion [N]-C--CA-[N] |==|  0.94229
USER: genes 18 Torsion [C]-CA--N-[C] |==|  0.80789
USER: genes 19 Torsion [N]-C--CA-[N] |==|  0.40620
USER: genes 20 Torsion [C]-CA--CB-[CG1] |==|  0.04337
USER: genes 21 Torsion [CA]-CB--CG1-[CD1] |==|  0.39601
USER: genes 22 Torsion [C]-CA--CB-[CG] |==|  0.90262
USER: genes 23 Torsion [CA]-CB--CG-[CD] |==|  0.82369
USER: genes 24 Torsion [CB]-CG--CD-[NE] |==|  0.56634
USER: genes 25 Torsion [CG]-CD--NE-[CZ] |==|  0.50008
USER: genes 26 Torsion [C]-CA--CB-[CG1] |==|  0.38183
USER: genes 27 Torsion [CA]-CB--CG1-[CD1] |==|  0.09782
ROOT
ATOM      1  C   ILE E1023     -48.305  24.643  -1.980  1.00 40.02 LIG 0.24  C 
ATOM      2 O    ILE E1023     -48.438  25.798  -2.412  1.00 38.38 LIG-0.27  OA
ATOM      3  N   PRO E1024     -49.139  24.098  -1.059  1.00 37.38 LIG-0.34  N 
ATOM      4  CA  PRO E1024     -50.169  24.938  -0.431  1.00 36.67 LIG 0.18  C 
ATOM      5  CB  PRO E1024     -51.101  23.926   0.230  1.00 38.74 LIG 0.04  C 
ATOM      6  CG  PRO E1024     -50.240  22.758   0.532  1.00 43.33 LIG 0.02  C 
ATOM      7  CD  PRO E1024     -49.106  22.747  -0.453  1.00 39.42 LIG 0.13  C 
ENDROOT
BRANCH 4 8
ATOM      8  C   PRO E1024     -49.504  25.853   0.590  1.00 39.60 LIG 0.24  C 
ATOM      9 O    PRO E1024     -48.711  25.371   1.397  1.00 37.18 LIG-0.27  OA
ATOM     10  N   ILE E1025     -49.805  27.166   0.520  1.00 37.20 LIG-0.35  N 
ATOM     11 H    ILE E1025     -50.358  27.469  -0.065  1.00 37.20 LIG 0.16  HD
BRANCH 10 12
ATOM     12  CA  ILE E1025     -49.272  28.232   1.378  1.00 37.42 LIG 0.18  C 
BRANCH 12 13
ATOM     13  C   ILE E1025     -49.716  28.036   2.825  1.00 40.88 LIG 0.24  C 
ATOM     14 O    ILE E1025     -50.912  27.854   3.062  1.00 40.29 LIG-0.27  OA
ATOM     15  N   PHE E1026     -48.819  28.287   3.800  1.00 36.23 LIG-0.35  N 
ATOM     16 H    PHE E1026     -47.978  28.403   3.665  1.00 36.23 LIG 0.16  HD
BRANCH 15 17
ATOM     17  CA  PHE E1026     -49.235  28.381   5.205  1.00 36.58 LIG 0.18  C 
BRANCH 17 18
ATOM     18  CB  PHE E1026     -50.341  29.414   5.397  1.00 38.58 LIG 0.07  C 
BRANCH 18 19
ATOM     19  CG  PHE E1026     -49.809  30.756   5.805  1.00 40.24 LIG-0.06  A 
ATOM     20  CD1 PHE E1026     -50.212  31.901   5.151  1.00 42.20 LIG 0.01  A 
ATOM     21  CE1 PHE E1026     -49.711  33.137   5.521  1.00 42.54 LIG 0.00  A 
ATOM     22  CZ  PHE E1026     -48.807  33.235   6.546  1.00 41.81 LIG 0.00  A 
ATOM     23  CE2 PHE E1026     -48.386  32.111   7.205  1.00 44.36 LIG 0.00  A 
ATOM     24  CD2 PHE E1026     -48.882  30.871   6.833  1.00 42.30 LIG 0.01  A 
ENDBRANCH 18 19
ENDBRANCH 17 18
BRANCH 17 25
ATOM     25  C   PHE E1026     -49.689  27.030   5.726  1.00 38.60 LIG 0.24  C 
ATOM     26  N   ASN E1027     -48.732  26.071   5.806  1.00 38.80 LIG-0.35  N 
ATOM     27 H    ASN E1027     -47.921  26.208   5.554  1.00 38.80 LIG 0.16  HD
ATOM     28 O    PHE E1026     -50.849  26.878   6.103  1.00 31.59 LIG-0.27  OA
BRANCH 26 29
ATOM     29  CA  ASN E1027     -48.952  24.713   6.318  1.00 74.37 LIG 0.17  C 
BRANCH 29 30
ATOM     30  CB  ASN E1027     -50.002  23.993   5.478  1.00 75.17 LIG 0.14  C 
BRANCH 30 31
ATOM     31  CG  ASN E1027     -49.784  24.149   3.993  1.00 99.64 LIG 0.22  C 
ATOM     32  ND2 ASN E1027     -48.731  23.536   3.458  1.00 92.55 LIG-0.37  N 
ATOM     33 22HD ASN E1027     -48.208  23.068   3.954  1.00 92.55 LIG 0.16  HD
ATOM     34 21HD ASN E1027     -48.573  23.610   2.616  1.00 92.55 LIG 0.16  HD
ATOM     35 OD1  ASN E1027     -50.551  24.828   3.309  1.00 94.01 LIG-0.27  OA
ENDBRANCH 30 31
ENDBRANCH 29 30
BRANCH 29 36
ATOM     36  C   ASN E1027     -47.647  23.920   6.289  1.00103.37 LIG 0.22  C 
ATOM     37 O    ASN E1027     -47.232  23.369   7.305  1.00 69.20 LIG-0.29  OA
ENDBRANCH 29 36
ENDBRANCH 26 29
ENDBRANCH 17 25
ENDBRANCH 15 17
ENDBRANCH 12 13
BRANCH 12 38
ATOM     38  CB  ILE E1025     -49.918  29.613   0.921  1.00 40.50 LIG 0.01  C 
ATOM     39  CG2 ILE E1025     -50.067  30.589   2.097  1.00 43.95 LIG 0.01  C 
BRANCH 38 40
ATOM     40  CG1 ILE E1025     -49.175  30.271  -0.241  1.00 41.58 LIG 0.00  C 
ATOM     41  CD1 ILE E1025     -48.731  31.801   0.083  1.00 52.05 LIG 0.01  C 
ENDBRANCH 38 40
ENDBRANCH 12 38
ENDBRANCH 10 12
ENDBRANCH 4 8
BRANCH 1 42
ATOM     42  CA  ILE E1023     -47.221  23.767  -2.583  1.00 36.06 LIG 0.18  C 
BRANCH 42 43
ATOM     43  N   ILE E1023     -47.262  23.985  -4.042  1.00 37.96 LIG-0.35  N 
ATOM     44  C   ARG E1022     -48.366  23.758  -4.786  1.00 45.42 LIG 0.24  C 
ATOM     45 O    ARG E1022     -49.402  23.279  -4.324  1.00 45.23 LIG-0.27  OA
ATOM     46 H    ILE E1023     -46.521  24.268  -4.372  1.00 37.96 LIG 0.16  HD
BRANCH 44 47
ATOM     47  CA  ARG E1022     -48.302  24.041  -6.287  1.00 45.59 LIG 0.18  C 
BRANCH 47 48
ATOM     48  N   ARG E1022     -47.219  24.967  -6.657  1.00 48.30 LIG-0.35  N 
ATOM     49 H    ARG E1022     -46.578  24.606  -7.101  1.00 48.30 LIG 0.16  HD
ATOM     50  C   ILE E1021     -47.255  26.274  -6.313  1.00 57.51 LIG 0.26  C 
ATOM     51 O    ILE E1021     -48.191  26.773  -5.676  1.00 59.03 LIG-0.27  OA
BRANCH 50 52
ATOM     52  CA  ILE E1021     -46.084  27.171  -6.750  1.00 57.59 LIG 0.40  C 
ATOM     53  N   ILE E1021     -46.598  28.507  -7.032  1.00 58.96 LIG 0.61  N 
BRANCH 52 54
ATOM     54  CB  ILE E1021     -44.998  27.320  -5.647  1.00 60.58 LIG 0.03  C 
ATOM     55  CG2 ILE E1021     -44.975  28.714  -5.025  1.00 61.37 LIG 0.01  C 
BRANCH 54 56
ATOM     56  CG1 ILE E1021     -45.175  26.235  -4.557  1.00 60.59 LIG 0.00  C 
ATOM     57  CD1 ILE E1021     -43.882  25.722  -4.043  1.00 60.15 LIG 0.01  C 
ENDBRANCH 54 56
ENDBRANCH 52 54
ENDBRANCH 50 52
ENDBRANCH 47 48
BRANCH 47 58
ATOM     58  CB  ARG E1022     -48.191  22.705  -7.032  1.00 44.33 LIG 0.04  C 
BRANCH 58 59
ATOM     59  CG  ARG E1022     -47.369  21.665  -6.281  1.00 47.73 LIG 0.02  C 
BRANCH 59 60
ATOM     60  CD  ARG E1022     -45.921  22.071  -6.098  1.00 47.87 LIG 0.14  C 
BRANCH 60 61
ATOM     61  NE  ARG E1022     -45.074  20.895  -5.909  1.00 55.98 LIG-0.23  N 
ATOM     62  CZ  ARG E1022     -43.758  20.895  -5.721  1.00 56.00 LIG 0.67  C 
ATOM     63  NH1 ARG E1022     -43.083  22.039  -5.664  1.00 48.69 LIG-0.23  N 
ATOM     64  NH2 ARG E1022     -43.107  19.753  -5.556  1.00 32.20 LIG-0.23  N 
ATOM     65 1HH1 ARG E1022     -43.499  22.787  -5.748  1.00 48.69 LIG 0.17  HD
ATOM     66 2HH1 ARG E1022     -42.232  22.030  -5.542  1.00 48.69 LIG 0.17  HD
ATOM     67 2HH2 ARG E1022     -42.256  19.757  -5.435  1.00 32.20 LIG 0.17  HD
ATOM     68 1HH2 ARG E1022     -43.536  19.008  -5.570  1.00 32.20 LIG 0.17  HD
ATOM     69 HE   ARG E1022     -45.465  20.128  -5.921  1.00 55.98 LIG 0.18  HD
ENDBRANCH 60 61
ENDBRANCH 59 60
ENDBRANCH 58 59
ENDBRANCH 47 58
ENDBRANCH 44 47
ENDBRANCH 42 43
BRANCH 42 70
ATOM     70  CB  ILE E1023     -45.841  24.138  -1.946  1.00 38.78 LIG 0.01  C 
ATOM     71  CG2 ILE E1023     -46.034  25.049  -0.725  1.00 39.01 LIG 0.01  C 
BRANCH 70 72
ATOM     72  CG1 ILE E1023     -44.969  22.895  -1.594  1.00 39.61 LIG 0.00  C 
ATOM     73  CD1 ILE E1023     -45.050  21.706  -2.518  1.00 43.21 LIG 0.01  C 
ENDBRANCH 70 72
ENDBRANCH 42 70
ENDBRANCH 1 42
TORSDOF 26
ENDMDL
MODEL 13
USER: ADFR SOLUTION from run 52
USER: SCORE 23.146564 LL:  -5.901 LR: -18.268 RR:   0.000 FEB: -10.512
USER: RMSD 4.180106
USER: SEED 51
USER: STATUS no improvement in best in 15 clusters for 5 generations
USER: GENES 28
USER: genes 0 Translation |==|  0.50303 0.46430 0.42818
USER: genes 1 Rotation |==|  0.44141 0.43944 0.49346 0.99281
USER: genes 2 Torsion [N]-CA--C-[O] |==|  0.86368
USER: genes 3 Torsion [C]-N--CA-[CB] |==|  0.53889
USER: genes 4 Torsion [N]-CA--C-[N] |==|  0.34807
USER: genes 5 Torsion [C]-N--CA-[C] |==|  0.65146
USER: genes 6 Torsion [N]-CA--CB-[CG] |==|  0.87337
USER: genes 7 Torsion [CA]-CB--CG-[CD1] |==|  0.83901
USER: genes 8 Torsion [N]-CA--C-[N] |==|  0.28621
USER: genes 9 Torsion [C]-N--CA-[C] |==|  0.86423
USER: genes 10 Torsion [N]-CA--CB-[CG] |==|  0.71831
USER: genes 11 Torsion [CA]-CB--CG-[OD1] |==|  0.31979
USER: genes 12 Torsion [N]-CA--C-[O] |==|  0.24429
USER: genes 13 Torsion [N]-CA--CB-[CG2] |==|  0.41306
USER: genes 14 Torsion [CA]-CB--CG1-[CD1] |==|  0.64362
USER: genes 15 Torsion [N]-C--CA-[N] |==|  0.34046
USER: genes 16 Torsion [C]-CA--N-[C] |==|  0.83614
USER: genes 17 Torsion [N]-C--CA-[N] |==|  0.46087
USER: genes 18 Torsion [C]-CA--N-[C] |==|  0.63427
USER: genes 19 Torsion [N]-C--CA-[N] |==|  0.54373
USER: genes 20 Torsion [C]-CA--CB-[CG1] |==|  0.63757
USER: genes 21 Torsion [CA]-CB--CG1-[CD1] |==|  0.34744
USER: genes 22 Torsion [C]-CA--CB-[CG] |==|  0.21836
USER: genes 23 Torsion [CA]-CB--CG-[CD] |==|  0.16329
USER: genes 24 Torsion [CB]-CG--CD-[NE] |==|  0.70990
USER: genes 25 Torsion [CG]-CD--NE-[CZ] |==|  0.29346
USER: genes 26 Torsion [C]-CA--CB-[CG1] |==|  0.84216
USER: genes 27 Torsion [CA]-CB--CG1-[CD1] |==|  0.77378
ROOT
ATOM      1  C   ILE E1023     -48.311  24.200  -1.589  1.00 40.02 LIG 0.24  C 
ATOM      2 O    ILE E1023     -48.146  25.324  -2.085  1.00 38.38 LIG-0.27  OA
ATOM      3  N   PRO E1024     -49.416  23.860  -0.880  1.00 37.38 LIG-0.34  N 
ATOM      4  CA  PRO E1024     -50.411  24.892  -0.556  1.00 36.67 LIG 0.18  C 
ATOM      5  CB  PRO E1024     -51.627  24.087  -0.105  1.00 38.74 LIG 0.04  C 
ATOM      6  CG  PRO E1024     -51.067  22.830   0.445  1.00 43.33 LIG 0.02  C 
ATOM      7  CD  PRO E1024     -49.750  22.571  -0.231  1.00 39.42 LIG 0.13  C 
ENDROOT
BRANCH 4 8
ATOM      8  C   PRO E1024     -49.864  25.773   0.560  1.00 39.60 LIG 0.24  C 
ATOM      9 O    PRO E1024     -49.391  25.243   1.563  1.00 37.18 LIG-0.27  OA
ATOM     10  N   ILE E1025     -49.901  27.107   0.357  1.00 37.20 LIG-0.35  N 
ATOM     11 H    ILE E1025     -50.231  27.442  -0.362  1.00 37.20 LIG 0.16  HD
BRANCH 10 12
ATOM     12  CA  ILE E1025     -49.412  28.144   1.276  1.00 37.42 LIG 0.18  C 
BRANCH 12 13
ATOM     13  C   ILE E1025     -49.977  27.934   2.679  1.00 40.88 LIG 0.24  C 
ATOM     14 O    ILE E1025     -51.190  28.054   2.857  1.00 40.29 LIG-0.27  OA
ATOM     15  N   PHE E1026     -49.104  27.845   3.703  1.00 36.23 LIG-0.35  N 
ATOM     16 H    PHE E1026     -48.255  27.747   3.608  1.00 36.23 LIG 0.16  HD
BRANCH 15 17
ATOM     17  CA  PHE E1026     -49.564  27.911   5.096  1.00 36.58 LIG 0.18  C 
BRANCH 17 18
ATOM     18  CB  PHE E1026     -49.400  26.571   5.807  1.00 38.58 LIG 0.07  C 
BRANCH 18 19
ATOM     19  CG  PHE E1026     -49.881  25.418   4.975  1.00 40.24 LIG-0.06  A 
ATOM     20  CD1 PHE E1026     -51.181  25.373   4.520  1.00 42.20 LIG 0.01  A 
ATOM     21  CE1 PHE E1026     -51.627  24.304   3.763  1.00 42.54 LIG 0.00  A 
ATOM     22  CZ  PHE E1026     -50.776  23.275   3.456  1.00 41.81 LIG 0.00  A 
ATOM     23  CE2 PHE E1026     -49.482  23.294   3.904  1.00 44.36 LIG 0.00  A 
ATOM     24  CD2 PHE E1026     -49.034  24.361   4.667  1.00 42.30 LIG 0.01  A 
ENDBRANCH 18 19
ENDBRANCH 17 18
BRANCH 17 25
ATOM     25  C   PHE E1026     -48.826  28.997   5.858  1.00 38.60 LIG 0.24  C 
ATOM     26  N   ASN E1027     -49.514  30.147   6.071  1.00 38.80 LIG-0.35  N 
ATOM     27 H    ASN E1027     -50.312  30.268   5.773  1.00 38.80 LIG 0.16  HD
ATOM     28 O    PHE E1026     -47.697  28.779   6.292  1.00 31.59 LIG-0.27  OA
BRANCH 26 29
ATOM     29  CA  ASN E1027     -48.999  31.301   6.817  1.00 74.37 LIG 0.17  C 
BRANCH 29 30
ATOM     30  CB  ASN E1027     -50.116  32.306   7.075  1.00 75.17 LIG 0.14  C 
BRANCH 30 31
ATOM     31  CG  ASN E1027     -50.082  33.487   6.137  1.00 99.64 LIG 0.22  C 
ATOM     32  ND2 ASN E1027     -49.038  34.308   6.219  1.00 92.55 LIG-0.37  N 
ATOM     33 22HD ASN E1027     -48.412  34.153   6.787  1.00 92.55 LIG 0.16  HD
ATOM     34 21HD ASN E1027     -48.990  34.995   5.703  1.00 92.55 LIG 0.16  HD
ATOM     35 OD1  ASN E1027     -50.995  33.684   5.333  1.00 94.01 LIG-0.27  OA
ENDBRANCH 30 31
ENDBRANCH 29 30
BRANCH 29 36
ATOM     36  C   ASN E1027     -48.407  30.846   8.150  1.00103.37 LIG 0.22  C 
ATOM     37 O    ASN E1027     -47.231  30.502   8.222  1.00 69.20 LIG-0.29  OA
ENDBRANCH 29 36
ENDBRANCH 26 29
ENDBRANCH 17 25
ENDBRANCH 15 17
ENDBRANCH 12 13
BRANCH 12 38
ATOM     38  CB  ILE E1025     -49.985  29.548   0.795  1.00 40.50 LIG 0.01  C 
ATOM     39  CG2 ILE E1025     -50.215  30.504   1.975  1.00 43.95 LIG 0.01  C 
BRANCH 38 40
ATOM     40  CG1 ILE E1025     -49.128  30.212  -0.283  1.00 41.58 LIG 0.00  C 
ATOM     41  CD1 ILE E1025     -48.734  31.746   0.084  1.00 52.05 LIG 0.01  C 
ENDBRANCH 38 40
ENDBRANCH 12 38
ENDBRANCH 10 12
ENDBRANCH 4 8
BRANCH 1 42
ATOM     42  CA  ILE E1023     -47.274  23.127  -1.872  1.00 36.06 LIG 0.18  C 
BRANCH 42 43
ATOM     43  N   ILE E1023     -47.126  23.058  -3.339  1.00 37.96 LIG-0.35  N 
ATOM     44  C   ARG E1022     -48.154  22.778  -4.168  1.00 45.42 LIG 0.24  C 
ATOM     45 O    ARG E1022     -49.280  22.482  -3.768  1.00 45.23 LIG-0.27  OA
ATOM     46 H    ILE E1023     -46.326  23.212  -3.614  1.00 37.96 LIG 0.16  HD
BRANCH 44 47
ATOM     47  CA  ARG E1022     -47.889  22.757  -5.674  1.00 45.59 LIG 0.18  C 
BRANCH 47 48
ATOM     48  N   ARG E1022     -48.975  22.129  -6.445  1.00 48.30 LIG-0.35  N 
ATOM     49 H    ARG E1022     -49.762  22.410  -6.244  1.00 48.30 LIG 0.16  HD
ATOM     50  C   ILE E1021     -48.727  21.191  -7.385  1.00 57.51 LIG 0.26  C 
ATOM     51 O    ILE E1021     -47.583  20.805  -7.660  1.00 59.03 LIG-0.27  OA
BRANCH 50 52
ATOM     52  CA  ILE E1021     -49.922  20.595  -8.148  1.00 57.59 LIG 0.40  C 
ATOM     53  N   ILE E1021     -49.487  19.373  -8.818  1.00 58.96 LIG 0.61  N 
BRANCH 52 54
ATOM     54  CB  ILE E1021     -51.101  20.210  -7.212  1.00 60.58 LIG 0.03  C 
ATOM     55  CG2 ILE E1021     -52.264  21.195  -7.288  1.00 61.37 LIG 0.01  C 
BRANCH 54 56
ATOM     56  CG1 ILE E1021     -51.582  18.768  -7.506  1.00 60.59 LIG 0.00  C 
ATOM     57  CD1 ILE E1021     -51.579  17.905  -6.300  1.00 60.15 LIG 0.01  C 
ENDBRANCH 54 56
ENDBRANCH 52 54
ENDBRANCH 50 52
ENDBRANCH 47 48
BRANCH 47 58
ATOM     58  CB  ARG E1022     -47.611  24.191  -6.141  1.00 44.33 LIG 0.04  C 
BRANCH 58 59
ATOM     59  CG  ARG E1022     -46.195  24.660  -5.827  1.00 47.73 LIG 0.02  C 
BRANCH 59 60
ATOM     60  CD  ARG E1022     -45.127  23.788  -6.454  1.00 47.87 LIG 0.14  C 
BRANCH 60 61
ATOM     61  NE  ARG E1022     -44.509  22.925  -5.449  1.00 55.98 LIG-0.23  N 
ATOM     62  CZ  ARG E1022     -44.711  21.619  -5.302  1.00 56.00 LIG 0.67  C 
ATOM     63  NH1 ARG E1022     -45.520  20.963  -6.127  1.00 48.69 LIG-0.23  N 
ATOM     64  NH2 ARG E1022     -44.080  20.949  -4.349  1.00 32.20 LIG-0.23  N 
ATOM     65 1HH1 ARG E1022     -45.919  21.384  -6.763  1.00 48.69 LIG 0.17  HD
ATOM     66 2HH1 ARG E1022     -45.645  20.119  -6.025  1.00 48.69 LIG 0.17  HD
ATOM     67 2HH2 ARG E1022     -44.213  20.104  -4.257  1.00 32.20 LIG 0.17  HD
ATOM     68 1HH2 ARG E1022     -43.537  21.359  -3.823  1.00 32.20 LIG 0.17  HD
ATOM     69 HE   ARG E1022     -43.961  23.298  -4.900  1.00 55.98 LIG 0.18  HD
ENDBRANCH 60 61
ENDBRANCH 59 60
ENDBRANCH 58 59
ENDBRANCH 47 58
ENDBRANCH 44 47
ENDBRANCH 42 43
BRANCH 42 70
ATOM     70  CB  ILE E1023     -45.941  23.484  -1.136  1.00 38.78 LIG 0.01  C 
ATOM     71  CG2 ILE E1023     -44.892  22.382  -1.348  1.00 39.01 LIG 0.01  C 
BRANCH 70 72
ATOM     72  CG1 ILE E1023     -45.378  24.885  -1.524  1.00 39.61 LIG 0.00  C 
ATOM     73  CD1 ILE E1023     -44.589  24.985  -2.805  1.00 43.21 LIG 0.01  C 
ENDBRANCH 70 72
ENDBRANCH 42 70
ENDBRANCH 1 42
TORSDOF 26
ENDMDL
MODEL 14
USER: ADFR SOLUTION from run 115
USER: SCORE 22.698401 LL:  -5.840 LR: -18.177 RR:   0.000 FEB: -10.421
USER: RMSD 3.918769
USER: SEED 114
USER: STATUS no improvement in best in 19 clusters for 5 generations
USER: GENES 28
USER: genes 0 Translation |==|  0.46112 0.52514 0.41101
USER: genes 1 Rotation |==|  0.52194 0.52579 0.63789 0.97942
USER: genes 2 Torsion [N]-CA--C-[O] |==|  0.73695
USER: genes 3 Torsion [C]-N--CA-[CB] |==|  0.52548
USER: genes 4 Torsion [N]-CA--C-[N] |==|  0.32821
USER: genes 5 Torsion [C]-N--CA-[C] |==|  0.59236
USER: genes 6 Torsion [N]-CA--CB-[CG] |==|  0.20990
USER: genes 7 Torsion [CA]-CB--CG-[CD1] |==|  0.77383
USER: genes 8 Torsion [N]-CA--C-[N] |==|  0.46880
USER: genes 9 Torsion [C]-N--CA-[C] |==|  0.16896
USER: genes 10 Torsion [N]-CA--CB-[CG] |==|  0.68240
USER: genes 11 Torsion [CA]-CB--CG-[OD1] |==|  0.02795
USER: genes 12 Torsion [N]-CA--C-[O] |==|  0.04641
USER: genes 13 Torsion [N]-CA--CB-[CG2] |==|  0.45219
USER: genes 14 Torsion [CA]-CB--CG1-[CD1] |==|  0.90333
USER: genes 15 Torsion [N]-C--CA-[N] |==|  0.41299
USER: genes 16 Torsion [C]-CA--N-[C] |==|  0.83889
USER: genes 17 Torsion [N]-C--CA-[N] |==|  0.11301
USER: genes 18 Torsion [C]-CA--N-[C] |==|  0.61304
USER: genes 19 Torsion [N]-C--CA-[N] |==|  0.39851
USER: genes 20 Torsion [C]-CA--CB-[CG1] |==|  0.05861
USER: genes 21 Torsion [CA]-CB--CG1-[CD1] |==|  0.35500
USER: genes 22 Torsion [C]-CA--CB-[CG] |==|  0.48072
USER: genes 23 Torsion [CA]-CB--CG-[CD] |==|  0.70443
USER: genes 24 Torsion [CB]-CG--CD-[NE] |==|  0.22165
USER: genes 25 Torsion [CG]-CD--NE-[CZ] |==|  0.22703
USER: genes 26 Torsion [C]-CA--CB-[CG1] |==|  0.35551
USER: genes 27 Torsion [CA]-CB--CG1-[CD1] |==|  0.74774
ROOT
ATOM      1  C   ILE E1023     -48.939  25.615  -2.078  1.00 40.02 LIG 0.24  C 
ATOM      2 O    ILE E1023     -49.570  26.677  -2.186  1.00 38.38 LIG-0.27  OA
ATOM      3  N   PRO E1024     -49.305  24.620  -1.231  1.00 37.38 LIG-0.34  N 
ATOM      4  CA  PRO E1024     -50.414  24.844  -0.292  1.00 36.67 LIG 0.18  C 
ATOM      5  CB  PRO E1024     -50.753  23.439   0.200  1.00 38.74 LIG 0.04  C 
ATOM      6  CG  PRO E1024     -49.485  22.682   0.092  1.00 43.33 LIG 0.02  C 
ATOM      7  CD  PRO E1024     -48.657  23.310  -0.992  1.00 39.42 LIG 0.13  C 
ENDROOT
BRANCH 4 8
ATOM      8  C   PRO E1024     -49.930  25.743   0.839  1.00 39.60 LIG 0.24  C 
ATOM      9 O    PRO E1024     -49.521  25.228   1.878  1.00 37.18 LIG-0.27  OA
ATOM     10  N   ILE E1025     -49.946  27.072   0.611  1.00 37.20 LIG-0.35  N 
ATOM     11 H    ILE E1025     -50.231  27.396  -0.133  1.00 37.20 LIG 0.16  HD
BRANCH 10 12
ATOM     12  CA  ILE E1025     -49.508  28.124   1.538  1.00 37.42 LIG 0.18  C 
BRANCH 12 13
ATOM     13  C   ILE E1025     -50.246  28.013   2.870  1.00 40.88 LIG 0.24  C 
ATOM     14 O    ILE E1025     -51.434  28.337   2.922  1.00 40.29 LIG-0.27  OA
ATOM     15  N   PHE E1026     -49.515  27.778   3.978  1.00 36.23 LIG-0.35  N 
ATOM     16 H    PHE E1026     -48.689  27.537   3.971  1.00 36.23 LIG 0.16  HD
BRANCH 15 17
ATOM     17  CA  PHE E1026     -50.102  27.921   5.317  1.00 36.58 LIG 0.18  C 
BRANCH 17 18
ATOM     18  CB  PHE E1026     -50.720  26.614   5.803  1.00 38.58 LIG 0.07  C 
BRANCH 18 19
ATOM     19  CG  PHE E1026     -49.685  25.619   6.243  1.00 40.24 LIG-0.06  A 
ATOM     20  CD1 PHE E1026     -49.022  24.839   5.320  1.00 42.20 LIG 0.01  A 
ATOM     21  CE1 PHE E1026     -48.076  23.915   5.728  1.00 42.54 LIG 0.00  A 
ATOM     22  CZ  PHE E1026     -47.788  23.766   7.060  1.00 41.81 LIG 0.00  A 
ATOM     23  CE2 PHE E1026     -48.440  24.525   7.995  1.00 44.36 LIG 0.00  A 
ATOM     24  CD2 PHE E1026     -49.391  25.448   7.590  1.00 42.30 LIG 0.01  A 
ENDBRANCH 18 19
ENDBRANCH 17 18
BRANCH 17 25
ATOM     25  C   PHE E1026     -49.066  28.409   6.312  1.00 38.60 LIG 0.24  C 
ATOM     26  N   ASN E1027     -49.540  28.803   7.520  1.00 38.80 LIG-0.35  N 
ATOM     27 H    ASN E1027     -50.380  28.802   7.708  1.00 38.80 LIG 0.16  HD
ATOM     28 O    PHE E1026     -47.872  28.370   6.020  1.00 31.59 LIG-0.27  OA
BRANCH 26 29
ATOM     29  CA  ASN E1027     -48.705  29.270   8.633  1.00 74.37 LIG 0.17  C 
BRANCH 29 30
ATOM     30  CB  ASN E1027     -47.725  28.180   9.054  1.00 75.17 LIG 0.14  C 
BRANCH 30 31
ATOM     31  CG  ASN E1027     -47.981  27.655  10.445  1.00 99.64 LIG 0.22  C 
ATOM     32  ND2 ASN E1027     -47.068  26.846  10.976  1.00 92.55 LIG-0.37  N 
ATOM     33 22HD ASN E1027     -46.360  26.646  10.531  1.00 92.55 LIG 0.16  HD
ATOM     34 21HD ASN E1027     -47.186  26.524  11.765  1.00 92.55 LIG 0.16  HD
ATOM     35 OD1  ASN E1027     -49.005  27.961  11.059  1.00 94.01 LIG-0.27  OA
ENDBRANCH 30 31
ENDBRANCH 29 30
BRANCH 29 36
ATOM     36  C   ASN E1027     -47.928  30.519   8.222  1.00103.37 LIG 0.22  C 
ATOM     37 O    ASN E1027     -48.267  31.163   7.233  1.00 69.20 LIG-0.29  OA
ENDBRANCH 29 36
ENDBRANCH 26 29
ENDBRANCH 17 25
ENDBRANCH 15 17
ENDBRANCH 12 13
BRANCH 12 38
ATOM     38  CB  ILE E1025     -49.934  29.533   0.935  1.00 40.50 LIG 0.01  C 
ATOM     39  CG2 ILE E1025     -49.906  30.640   1.998  1.00 43.95 LIG 0.01  C 
BRANCH 38 40
ATOM     40  CG1 ILE E1025     -49.114  29.937  -0.291  1.00 41.58 LIG 0.00  C 
ATOM     41  CD1 ILE E1025     -47.568  29.445  -0.203  1.00 52.05 LIG 0.01  C 
ENDBRANCH 38 40
ENDBRANCH 12 38
ENDBRANCH 10 12
ENDBRANCH 4 8
BRANCH 1 42
ATOM     42  CA  ILE E1023     -47.762  25.376  -3.008  1.00 36.06 LIG 0.18  C 
BRANCH 42 43
ATOM     43  N   ILE E1023     -48.027  26.152  -4.235  1.00 37.96 LIG-0.35  N 
ATOM     44  C   ARG E1022     -49.132  25.974  -4.991  1.00 45.42 LIG 0.24  C 
ATOM     45 O    ARG E1022     -49.968  25.100  -4.764  1.00 45.23 LIG-0.27  OA
ATOM     46 H    ILE E1023     -47.415  26.726  -4.422  1.00 37.96 LIG 0.16  HD
BRANCH 44 47
ATOM     47  CA  ARG E1022     -49.315  26.852  -6.229  1.00 45.59 LIG 0.18  C 
BRANCH 47 48
ATOM     48  N   ARG E1022     -48.066  27.060  -6.982  1.00 48.30 LIG-0.35  N 
ATOM     49 H    ARG E1022     -47.572  26.361  -7.050  1.00 48.30 LIG 0.16  HD
ATOM     50  C   ILE E1021     -47.749  28.263  -7.511  1.00 57.51 LIG 0.26  C 
ATOM     51 O    ILE E1021     -48.479  29.256  -7.402  1.00 59.03 LIG-0.27  OA
BRANCH 50 52
ATOM     52  CA  ILE E1021     -46.428  28.386  -8.290  1.00 57.59 LIG 0.40  C 
ATOM     53  N   ILE E1021     -46.632  29.294  -9.414  1.00 58.96 LIG 0.61  N 
BRANCH 52 54
ATOM     54  CB  ILE E1021     -45.276  28.975  -7.428  1.00 60.58 LIG 0.03  C 
ATOM     55  CG2 ILE E1021     -44.981  30.436  -7.753  1.00 61.37 LIG 0.01  C 
BRANCH 54 56
ATOM     56  CG1 ILE E1021     -45.576  28.796  -5.920  1.00 60.59 LIG 0.00  C 
ATOM     57  CD1 ILE E1021     -44.463  28.147  -5.186  1.00 60.15 LIG 0.01  C 
ENDBRANCH 54 56
ENDBRANCH 52 54
ENDBRANCH 50 52
ENDBRANCH 47 48
BRANCH 47 58
ATOM     58  CB  ARG E1022     -50.415  26.240  -7.105  1.00 44.33 LIG 0.04  C 
BRANCH 58 59
ATOM     59  CG  ARG E1022     -50.802  27.121  -8.286  1.00 47.73 LIG 0.02  C 
BRANCH 59 60
ATOM     60  CD  ARG E1022     -52.147  27.795  -8.110  1.00 47.87 LIG 0.14  C 
BRANCH 60 61
ATOM     61  NE  ARG E1022     -52.027  28.969  -7.247  1.00 55.98 LIG-0.23  N 
ATOM     62  CZ  ARG E1022     -51.619  30.180  -7.618  1.00 56.00 LIG 0.67  C 
ATOM     63  NH1 ARG E1022     -51.297  30.426  -8.884  1.00 48.69 LIG-0.23  N 
ATOM     64  NH2 ARG E1022     -51.562  31.164  -6.734  1.00 32.20 LIG-0.23  N 
ATOM     65 1HH1 ARG E1022     -51.351  29.800  -9.471  1.00 48.69 LIG 0.17  HD
ATOM     66 2HH1 ARG E1022     -51.035  31.211  -9.115  1.00 48.69 LIG 0.17  HD
ATOM     67 2HH2 ARG E1022     -51.298  31.946  -6.978  1.00 32.20 LIG 0.17  HD
ATOM     68 1HH2 ARG E1022     -51.789  31.022  -5.917  1.00 32.20 LIG 0.17  HD
ATOM     69 HE   ARG E1022     -52.241  28.867  -6.420  1.00 55.98 LIG 0.18  HD
ENDBRANCH 60 61
ENDBRANCH 59 60
ENDBRANCH 58 59
ENDBRANCH 47 58
ENDBRANCH 44 47
ENDBRANCH 42 43
BRANCH 42 70
ATOM     70  CB  ILE E1023     -46.439  25.798  -2.289  1.00 38.78 LIG 0.01  C 
ATOM     71  CG2 ILE E1023     -46.727  26.271  -0.856  1.00 39.01 LIG 0.01  C 
BRANCH 70 72
ATOM     72  CG1 ILE E1023     -45.343  24.690  -2.310  1.00 39.61 LIG 0.00  C 
ATOM     73  CD1 ILE E1023     -45.315  23.720  -1.155  1.00 43.21 LIG 0.01  C 
ENDBRANCH 70 72
ENDBRANCH 42 70
ENDBRANCH 1 42
TORSDOF 26
ENDMDL
MODEL 15
USER: ADFR SOLUTION from run 98
USER: SCORE 22.427423 LL:  -5.054 LR: -18.150 RR:   0.000 FEB: -10.394
USER: RMSD 2.618752
USER: SEED 97
USER: STATUS no improvement in best in 10 clusters for 5 generations
USER: GENES 28
USER: genes 0 Translation |==|  0.48846 0.49619 0.41492
USER: genes 1 Rotation |==|  0.48412 0.49989 0.59068 0.99145
USER: genes 2 Torsion [N]-CA--C-[O] |==|  0.78457
USER: genes 3 Torsion [C]-N--CA-[CB] |==|  0.54291
USER: genes 4 Torsion [N]-CA--C-[N] |==|  0.36521
USER: genes 5 Torsion [C]-N--CA-[C] |==|  0.62603
USER: genes 6 Torsion [N]-CA--CB-[CG] |==|  0.44177
USER: genes 7 Torsion [CA]-CB--CG-[CD1] |==|  0.68328
USER: genes 8 Torsion [N]-CA--C-[N] |==|  0.30386
USER: genes 9 Torsion [C]-N--CA-[C] |==|  0.85646
USER: genes 10 Torsion [N]-CA--CB-[CG] |==|  0.71421
USER: genes 11 Torsion [CA]-CB--CG-[OD1] |==|  0.35487
USER: genes 12 Torsion [N]-CA--C-[O] |==|  0.22799
USER: genes 13 Torsion [N]-CA--CB-[CG2] |==|  0.41237
USER: genes 14 Torsion [CA]-CB--CG1-[CD1] |==|  0.66170
USER: genes 15 Torsion [N]-C--CA-[N] |==|  0.37742
USER: genes 16 Torsion [C]-CA--N-[C] |==|  0.82976
USER: genes 17 Torsion [N]-C--CA-[N] |==|  0.02555
USER: genes 18 Torsion [C]-CA--N-[C] |==|  0.73119
USER: genes 19 Torsion [N]-C--CA-[N] |==|  0.27013
USER: genes 20 Torsion [C]-CA--CB-[CG1] |==|  0.58112
USER: genes 21 Torsion [CA]-CB--CG1-[CD1] |==|  0.29419
USER: genes 22 Torsion [C]-CA--CB-[CG] |==|  0.70176
USER: genes 23 Torsion [CA]-CB--CG-[CD] |==|  0.24965
USER: genes 24 Torsion [CB]-CG--CD-[NE] |==|  0.75021
USER: genes 25 Torsion [CG]-CD--NE-[CZ] |==|  0.43780
USER: genes 26 Torsion [C]-CA--CB-[CG1] |==|  0.38703
USER: genes 27 Torsion [CA]-CB--CG1-[CD1] |==|  0.77398
ROOT
ATOM      1  C   ILE E1023     -48.529  24.941  -1.967  1.00 40.02 LIG 0.24  C 
ATOM      2 O    ILE E1023     -48.919  26.074  -2.287  1.00 38.38 LIG-0.27  OA
ATOM      3  N   PRO E1024     -49.185  24.158  -1.074  1.00 37.38 LIG-0.34  N 
ATOM      4  CA  PRO E1024     -50.334  24.708  -0.339  1.00 36.67 LIG 0.18  C 
ATOM      5  CB  PRO E1024     -51.002  23.471   0.255  1.00 38.74 LIG 0.04  C 
ATOM      6  CG  PRO E1024     -49.905  22.489   0.422  1.00 43.33 LIG 0.02  C 
ATOM      7  CD  PRO E1024     -48.844  22.799  -0.595  1.00 39.42 LIG 0.13  C 
ENDROOT
BRANCH 4 8
ATOM      8  C   PRO E1024     -49.822  25.654   0.740  1.00 39.60 LIG 0.24  C 
ATOM      9 O    PRO E1024     -49.353  25.183   1.775  1.00 37.18 LIG-0.27  OA
ATOM     10  N   ILE E1025     -49.884  26.975   0.472  1.00 37.20 LIG-0.35  N 
ATOM     11 H    ILE E1025     -50.210  27.268  -0.267  1.00 37.20 LIG 0.16  HD
BRANCH 10 12
ATOM     12  CA  ILE E1025     -49.431  28.066   1.346  1.00 37.42 LIG 0.18  C 
BRANCH 12 13
ATOM     13  C   ILE E1025     -49.984  27.892   2.759  1.00 40.88 LIG 0.24  C 
ATOM     14 O    ILE E1025     -51.205  27.859   2.921  1.00 40.29 LIG-0.27  OA
ATOM     15  N   PHE E1026     -49.123  28.004   3.790  1.00 36.23 LIG-0.35  N 
ATOM     16 H    PHE E1026     -48.267  28.015   3.707  1.00 36.23 LIG 0.16  HD
BRANCH 15 17
ATOM     17  CA  PHE E1026     -49.608  28.116   5.172  1.00 36.58 LIG 0.18  C 
BRANCH 17 18
ATOM     18  CB  PHE E1026     -49.478  26.795   5.924  1.00 38.58 LIG 0.07  C 
BRANCH 18 19
ATOM     19  CG  PHE E1026     -49.478  26.980   7.413  1.00 40.24 LIG-0.06  A 
ATOM     20  CD1 PHE E1026     -48.355  26.688   8.158  1.00 42.20 LIG 0.01  A 
ATOM     21  CE1 PHE E1026     -48.360  26.848   9.532  1.00 42.54 LIG 0.00  A 
ATOM     22  CZ  PHE E1026     -49.486  27.301  10.169  1.00 41.81 LIG 0.00  A 
ATOM     23  CE2 PHE E1026     -50.615  27.590   9.450  1.00 44.36 LIG 0.00  A 
ATOM     24  CD2 PHE E1026     -50.615  27.425   8.074  1.00 42.30 LIG 0.01  A 
ENDBRANCH 18 19
ENDBRANCH 17 18
BRANCH 17 25
ATOM     25  C   PHE E1026     -48.869  29.213   5.917  1.00 38.60 LIG 0.24  C 
ATOM     26  N   ASN E1027     -49.587  30.328   6.201  1.00 38.80 LIG-0.35  N 
ATOM     27 H    ASN E1027     -50.406  30.423   5.955  1.00 38.80 LIG 0.16  HD
ATOM     28 O    PHE E1026     -47.708  29.031   6.277  1.00 31.59 LIG-0.27  OA
BRANCH 26 29
ATOM     29  CA  ASN E1027     -49.074  31.484   6.945  1.00 74.37 LIG 0.17  C 
BRANCH 29 30
ATOM     30  CB  ASN E1027     -50.201  32.470   7.237  1.00 75.17 LIG 0.14  C 
BRANCH 30 31
ATOM     31  CG  ASN E1027     -50.184  33.676   6.331  1.00 99.64 LIG 0.22  C 
ATOM     32  ND2 ASN E1027     -49.048  34.362   6.239  1.00 92.55 LIG-0.37  N 
ATOM     33 22HD ASN E1027     -48.356  34.108   6.683  1.00 92.55 LIG 0.16  HD
ATOM     34 21HD ASN E1027     -49.005  35.059   5.737  1.00 92.55 LIG 0.16  HD
ATOM     35 OD1  ASN E1027     -51.192  34.014   5.708  1.00 94.01 LIG-0.27  OA
ENDBRANCH 30 31
ENDBRANCH 29 30
BRANCH 29 36
ATOM     36  C   ASN E1027     -48.447  31.028   8.261  1.00103.37 LIG 0.22  C 
ATOM     37 O    ASN E1027     -47.296  30.600   8.285  1.00 69.20 LIG-0.29  OA
ENDBRANCH 29 36
ENDBRANCH 26 29
ENDBRANCH 17 25
ENDBRANCH 15 17
ENDBRANCH 12 13
BRANCH 12 38
ATOM     38  CB  ILE E1025     -50.057  29.428   0.812  1.00 40.50 LIG 0.01  C 
ATOM     39  CG2 ILE E1025     -50.325  30.418   1.953  1.00 43.95 LIG 0.01  C 
BRANCH 38 40
ATOM     40  CG1 ILE E1025     -49.226  30.081  -0.292  1.00 41.58 LIG 0.00  C 
ATOM     41  CD1 ILE E1025     -48.749  31.588   0.089  1.00 52.05 LIG 0.01  C 
ENDBRANCH 38 40
ENDBRANCH 12 38
ENDBRANCH 10 12
ENDBRANCH 4 8
BRANCH 1 42
ATOM     42  CA  ILE E1023     -47.318  24.366  -2.681  1.00 36.06 LIG 0.18  C 
BRANCH 42 43
ATOM     43  N   ILE E1023     -47.444  24.747  -4.101  1.00 37.96 LIG-0.35  N 
ATOM     44  C   ARG E1022     -48.477  24.357  -4.877  1.00 45.42 LIG 0.24  C 
ATOM     45 O    ARG E1022     -49.358  23.589  -4.488  1.00 45.23 LIG-0.27  OA
ATOM     46 H    ILE E1023     -46.799  25.240  -4.386  1.00 37.96 LIG 0.16  HD
BRANCH 44 47
ATOM     47  CA  ARG E1022     -48.516  24.831  -6.330  1.00 45.59 LIG 0.18  C 
BRANCH 47 48
ATOM     48  N   ARG E1022     -47.275  25.500  -6.755  1.00 48.30 LIG-0.35  N 
ATOM     49 H    ARG E1022     -46.651  24.965  -7.005  1.00 48.30 LIG 0.16  HD
ATOM     50  C   ILE E1021     -47.155  26.846  -6.743  1.00 57.51 LIG 0.26  C 
ATOM     51 O    ILE E1021     -48.070  27.597  -6.382  1.00 59.03 LIG-0.27  OA
BRANCH 50 52
ATOM     52  CA  ILE E1021     -45.825  27.459  -7.213  1.00 57.59 LIG 0.40  C 
ATOM     53  N   ILE E1021     -45.962  27.859  -8.610  1.00 58.96 LIG 0.61  N 
BRANCH 52 54
ATOM     54  CB  ILE E1021     -45.432  28.730  -6.409  1.00 60.58 LIG 0.03  C 
ATOM     55  CG2 ILE E1021     -44.702  28.406  -5.108  1.00 61.37 LIG 0.01  C 
BRANCH 54 56
ATOM     56  CG1 ILE E1021     -44.591  29.691  -7.285  1.00 60.59 LIG 0.00  C 
ATOM     57  CD1 ILE E1021     -45.356  30.883  -7.726  1.00 60.15 LIG 0.01  C 
ENDBRANCH 54 56
ENDBRANCH 52 54
ENDBRANCH 50 52
ENDBRANCH 47 48
BRANCH 47 58
ATOM     58  CB  ARG E1022     -48.857  23.635  -7.226  1.00 44.33 LIG 0.04  C 
BRANCH 58 59
ATOM     59  CG  ARG E1022     -47.669  23.136  -8.039  1.00 47.73 LIG 0.02  C 
BRANCH 59 60
ATOM     60  CD  ARG E1022     -46.862  22.074  -7.322  1.00 47.87 LIG 0.14  C 
BRANCH 60 61
ATOM     61  NE  ARG E1022     -45.801  22.683  -6.522  1.00 55.98 LIG-0.23  N 
ATOM     62  CZ  ARG E1022     -45.191  22.133  -5.475  1.00 56.00 LIG 0.67  C 
ATOM     63  NH1 ARG E1022     -45.507  20.905  -5.077  1.00 48.69 LIG-0.23  N 
ATOM     64  NH2 ARG E1022     -44.236  22.792  -4.837  1.00 32.20 LIG-0.23  N 
ATOM     65 1HH1 ARG E1022     -46.111  20.459  -5.497  1.00 48.69 LIG 0.17  HD
ATOM     66 2HH1 ARG E1022     -45.109  20.557  -4.399  1.00 48.69 LIG 0.17  HD
ATOM     67 2HH2 ARG E1022     -43.844  22.434  -4.161  1.00 32.20 LIG 0.17  HD
ATOM     68 1HH2 ARG E1022     -44.008  23.579  -5.100  1.00 32.20 LIG 0.17  HD
ATOM     69 HE   ARG E1022     -45.547  23.472  -6.749  1.00 55.98 LIG 0.18  HD
ENDBRANCH 60 61
ENDBRANCH 59 60
ENDBRANCH 58 59
ENDBRANCH 47 58
ENDBRANCH 44 47
ENDBRANCH 42 43
BRANCH 42 70
ATOM     70  CB  ILE E1023     -46.014  24.912  -2.012  1.00 38.78 LIG 0.01  C 
ATOM     71  CG2 ILE E1023     -46.332  25.573  -0.663  1.00 39.01 LIG 0.01  C 
BRANCH 70 72
ATOM     72  CG1 ILE E1023     -44.897  23.834  -1.865  1.00 39.61 LIG 0.00  C 
ATOM     73  CD1 ILE E1023     -44.995  22.889  -0.693  1.00 43.21 LIG 0.01  C 
ENDBRANCH 70 72
ENDBRANCH 42 70
ENDBRANCH 1 42
TORSDOF 26
ENDMDL
MODEL 16
USER: ADFR SOLUTION from run 116
USER: SCORE 23.592388 LL:  -6.240 LR: -18.017 RR:   0.000 FEB: -10.261
USER: RMSD 2.794552
USER: SEED 115
USER: STATUS searching
USER: GENES 28
USER: genes 0 Translation |==|  0.49700 0.49463 0.41904
USER: genes 1 Rotation |==|  0.47665 0.47847 0.57507 0.99331
USER: genes 2 Torsion [N]-CA--C-[O] |==|  0.79692
USER: genes 3 Torsion [C]-N--CA-[CB] |==|  0.53341
USER: genes 4 Torsion [N]-CA--C-[N] |==|  0.35866
USER: genes 5 Torsion [C]-N--CA-[C] |==|  0.54596
USER: genes 6 Torsion [N]-CA--CB-[CG] |==|  0.16819
USER: genes 7 Torsion [CA]-CB--CG-[CD1] |==|  0.73516
USER: genes 8 Torsion [N]-CA--C-[N] |==|  0.45392
USER: genes 9 Torsion [C]-N--CA-[C] |==|  0.18988
USER: genes 10 Torsion [N]-CA--CB-[CG] |==|  0.75933
USER: genes 11 Torsion [CA]-CB--CG-[OD1] |==|  0.06814
USER: genes 12 Torsion [N]-CA--C-[O] |==|  0.08492
USER: genes 13 Torsion [N]-CA--CB-[CG2] |==|  0.41210
USER: genes 14 Torsion [CA]-CB--CG1-[CD1] |==|  0.64184
USER: genes 15 Torsion [N]-C--CA-[N] |==|  0.37036
USER: genes 16 Torsion [C]-CA--N-[C] |==|  0.83292
USER: genes 17 Torsion [N]-C--CA-[N] |==|  0.01480
USER: genes 18 Torsion [C]-CA--N-[C] |==|  0.72939
USER: genes 19 Torsion [N]-C--CA-[N] |==|  0.33507
USER: genes 20 Torsion [C]-CA--CB-[CG1] |==|  0.12123
USER: genes 21 Torsion [CA]-CB--CG1-[CD1] |==|  0.19651
USER: genes 22 Torsion [C]-CA--CB-[CG] |==|  0.80117
USER: genes 23 Torsion [CA]-CB--CG-[CD] |==|  0.20580
USER: genes 24 Torsion [CB]-CG--CD-[NE] |==|  0.54193
USER: genes 25 Torsion [CG]-CD--NE-[CZ] |==|  0.21309
USER: genes 26 Torsion [C]-CA--CB-[CG1] |==|  0.34101
USER: genes 27 Torsion [CA]-CB--CG1-[CD1] |==|  0.09496
ROOT
ATOM      1  C   ILE E1023     -48.401  24.905  -1.849  1.00 40.02 LIG 0.24  C 
ATOM      2 O    ILE E1023     -48.691  26.054  -2.216  1.00 38.38 LIG-0.27  OA
ATOM      3  N   PRO E1024     -49.182  24.177  -1.012  1.00 37.38 LIG-0.34  N 
ATOM      4  CA  PRO E1024     -50.357  24.806  -0.392  1.00 36.67 LIG 0.18  C 
ATOM      5  CB  PRO E1024     -51.150  23.620   0.151  1.00 38.74 LIG 0.04  C 
ATOM      6  CG  PRO E1024     -50.134  22.578   0.429  1.00 43.33 LIG 0.02  C 
ATOM      7  CD  PRO E1024     -48.968  22.807  -0.489  1.00 39.42 LIG 0.13  C 
ENDROOT
BRANCH 4 8
ATOM      8  C   PRO E1024     -49.890  25.737   0.719  1.00 39.60 LIG 0.24  C 
ATOM      9 O    PRO E1024     -49.469  25.252   1.768  1.00 37.18 LIG-0.27  OA
ATOM     10  N   ILE E1025     -49.935  27.061   0.464  1.00 37.20 LIG-0.35  N 
ATOM     11 H    ILE E1025     -50.227  27.364  -0.286  1.00 37.20 LIG 0.16  HD
BRANCH 10 12
ATOM     12  CA  ILE E1025     -49.516  28.140   1.369  1.00 37.42 LIG 0.18  C 
BRANCH 12 13
ATOM     13  C   ILE E1025     -50.197  28.000   2.729  1.00 40.88 LIG 0.24  C 
ATOM     14 O    ILE E1025     -51.426  28.061   2.789  1.00 40.29 LIG-0.27  OA
ATOM     15  N   PHE E1026     -49.420  28.037   3.829  1.00 36.23 LIG-0.35  N 
ATOM     16 H    PHE E1026     -48.562  27.982   3.818  1.00 36.23 LIG 0.16  HD
BRANCH 15 17
ATOM     17  CA  PHE E1026     -50.009  28.177   5.168  1.00 36.58 LIG 0.18  C 
BRANCH 17 18
ATOM     18  CB  PHE E1026     -50.688  26.889   5.622  1.00 38.58 LIG 0.07  C 
BRANCH 18 19
ATOM     19  CG  PHE E1026     -49.733  25.734   5.700  1.00 40.24 LIG-0.06  A 
ATOM     20  CD1 PHE E1026     -49.604  24.855   4.646  1.00 42.20 LIG 0.01  A 
ATOM     21  CE1 PHE E1026     -48.731  23.784   4.724  1.00 42.54 LIG 0.00  A 
ATOM     22  CZ  PHE E1026     -47.983  23.586   5.855  1.00 41.81 LIG 0.00  A 
ATOM     23  CE2 PHE E1026     -48.100  24.442   6.917  1.00 44.36 LIG 0.00  A 
ATOM     24  CD2 PHE E1026     -48.977  25.513   6.844  1.00 42.30 LIG 0.01  A 
ENDBRANCH 18 19
ENDBRANCH 17 18
BRANCH 17 25
ATOM     25  C   PHE E1026     -48.958  28.596   6.180  1.00 38.60 LIG 0.24  C 
ATOM     26  N   ASN E1027     -49.426  29.091   7.353  1.00 38.80 LIG-0.35  N 
ATOM     27 H    ASN E1027     -50.266  29.188   7.510  1.00 38.80 LIG 0.16  HD
ATOM     28 O    PHE E1026     -47.767  28.418   5.933  1.00 31.59 LIG-0.27  OA
BRANCH 26 29
ATOM     29  CA  ASN E1027     -48.581  29.515   8.476  1.00 74.37 LIG 0.17  C 
BRANCH 29 30
ATOM     30  CB  ASN E1027     -47.606  28.405   8.855  1.00 75.17 LIG 0.14  C 
BRANCH 30 31
ATOM     31  CG  ASN E1027     -48.185  27.415   9.835  1.00 99.64 LIG 0.22  C 
ATOM     32  ND2 ASN E1027     -47.333  26.728  10.591  1.00 92.55 LIG-0.37  N 
ATOM     33 22HD ASN E1027     -46.487  26.861  10.516  1.00 92.55 LIG 0.16  HD
ATOM     34 21HD ASN E1027     -47.629  26.150  11.156  1.00 92.55 LIG 0.16  HD
ATOM     35 OD1  ASN E1027     -49.403  27.247   9.920  1.00 94.01 LIG-0.27  OA
ENDBRANCH 30 31
ENDBRANCH 29 30
BRANCH 29 36
ATOM     36  C   ASN E1027     -47.797  30.772   8.101  1.00103.37 LIG 0.22  C 
ATOM     37 O    ASN E1027     -48.269  31.584   7.310  1.00 69.20 LIG-0.29  OA
ENDBRANCH 29 36
ENDBRANCH 26 29
ENDBRANCH 17 25
ENDBRANCH 15 17
ENDBRANCH 12 13
BRANCH 12 38
ATOM     38  CB  ILE E1025     -50.037  29.521   0.776  1.00 40.50 LIG 0.01  C 
ATOM     39  CG2 ILE E1025     -50.366  30.530   1.885  1.00 43.95 LIG 0.01  C 
BRANCH 38 40
ATOM     40  CG1 ILE E1025     -49.086  30.134  -0.252  1.00 41.58 LIG 0.00  C 
ATOM     41  CD1 ILE E1025     -48.731  31.687   0.068  1.00 52.05 LIG 0.01  C 
ENDBRANCH 38 40
ENDBRANCH 12 38
ENDBRANCH 10 12
ENDBRANCH 4 8
BRANCH 1 42
ATOM     42  CA  ILE E1023     -47.167  24.248  -2.443  1.00 36.06 LIG 0.18  C 
BRANCH 42 43
ATOM     43  N   ILE E1023     -47.173  24.561  -3.885  1.00 37.96 LIG-0.35  N 
ATOM     44  C   ARG E1022     -48.174  24.191  -4.712  1.00 45.42 LIG 0.24  C 
ATOM     45 O    ARG E1022     -49.124  23.498  -4.350  1.00 45.23 LIG-0.27  OA
ATOM     46 H    ILE E1023     -46.481  24.999  -4.148  1.00 37.96 LIG 0.16  HD
BRANCH 44 47
ATOM     47  CA  ARG E1022     -48.086  24.591  -6.185  1.00 45.59 LIG 0.18  C 
BRANCH 47 48
ATOM     48  N   ARG E1022     -46.814  25.245  -6.533  1.00 48.30 LIG-0.35  N 
ATOM     49 H    ARG E1022     -46.166  24.703  -6.691  1.00 48.30 LIG 0.16  HD
ATOM     50  C   ILE E1021     -46.701  26.591  -6.593  1.00 57.51 LIG 0.26  C 
ATOM     51 O    ILE E1021     -47.650  27.353  -6.365  1.00 59.03 LIG-0.27  OA
BRANCH 50 52
ATOM     52  CA  ILE E1021     -45.336  27.188  -6.973  1.00 57.59 LIG 0.40  C 
ATOM     53  N   ILE E1021     -45.498  27.993  -8.180  1.00 58.96 LIG 0.61  N 
BRANCH 52 54
ATOM     54  CB  ILE E1021     -44.761  28.122  -5.872  1.00 60.58 LIG 0.03  C 
ATOM     55  CG2 ILE E1021     -45.356  29.527  -5.917  1.00 61.37 LIG 0.01  C 
BRANCH 54 56
ATOM     56  CG1 ILE E1021     -44.946  27.491  -4.470  1.00 60.59 LIG 0.00  C 
ATOM     57  CD1 ILE E1021     -44.065  26.320  -4.248  1.00 60.15 LIG 0.01  C 
ENDBRANCH 54 56
ENDBRANCH 52 54
ENDBRANCH 50 52
ENDBRANCH 47 48
BRANCH 47 58
ATOM     58  CB  ARG E1022     -48.344  23.347  -7.045  1.00 44.33 LIG 0.04  C 
BRANCH 58 59
ATOM     59  CG  ARG E1022     -47.196  22.346  -7.011  1.00 47.73 LIG 0.02  C 
BRANCH 59 60
ATOM     60  CD  ARG E1022     -47.118  21.574  -5.710  1.00 47.87 LIG 0.14  C 
BRANCH 60 61
ATOM     61  NE  ARG E1022     -45.825  20.905  -5.583  1.00 55.98 LIG-0.23  N 
ATOM     62  CZ  ARG E1022     -44.671  21.480  -5.255  1.00 56.00 LIG 0.67  C 
ATOM     63  NH1 ARG E1022     -44.616  22.778  -4.980  1.00 48.69 LIG-0.23  N 
ATOM     64  NH2 ARG E1022     -43.566  20.754  -5.168  1.00 32.20 LIG-0.23  N 
ATOM     65 1HH1 ARG E1022     -45.332  23.255  -5.013  1.00 48.69 LIG 0.17  HD
ATOM     66 2HH1 ARG E1022     -43.866  23.142  -4.769  1.00 48.69 LIG 0.17  HD
ATOM     67 2HH2 ARG E1022     -42.821  21.129  -4.956  1.00 32.20 LIG 0.17  HD
ATOM     68 1HH2 ARG E1022     -43.593  19.909  -5.322  1.00 32.20 LIG 0.17  HD
ATOM     69 HE   ARG E1022     -45.809  20.058  -5.733  1.00 55.98 LIG 0.18  HD
ENDBRANCH 60 61
ENDBRANCH 59 60
ENDBRANCH 58 59
ENDBRANCH 47 58
ENDBRANCH 44 47
ENDBRANCH 42 43
BRANCH 42 70
ATOM     70  CB  ILE E1023     -45.892  24.775  -1.705  1.00 38.78 LIG 0.01  C 
ATOM     71  CG2 ILE E1023     -46.269  25.844  -0.669  1.00 39.01 LIG 0.01  C 
BRANCH 70 72
ATOM     72  CG1 ILE E1023     -45.036  23.642  -1.064  1.00 39.61 LIG 0.00  C 
ATOM     73  CD1 ILE E1023     -44.981  22.319  -1.788  1.00 43.21 LIG 0.01  C 
ENDBRANCH 70 72
ENDBRANCH 42 70
ENDBRANCH 1 42
TORSDOF 26
ENDMDL
MODEL 17
USER: ADFR SOLUTION from run 136
USER: SCORE 22.708294 LL:  -5.668 LR: -17.947 RR:   0.000 FEB: -10.191
USER: RMSD 2.781592
USER: SEED 135
USER: STATUS no improvement in best in 6 clusters for 5 generations
USER: GENES 28
USER: genes 0 Translation |==|  0.51095 0.44498 0.40409
USER: genes 1 Rotation |==|  0.45188 0.44843 0.48238 0.99469
USER: genes 2 Torsion [N]-CA--C-[O] |==|  0.89862
USER: genes 3 Torsion [C]-N--CA-[CB] |==|  0.50069
USER: genes 4 Torsion [N]-CA--C-[N] |==|  0.39884
USER: genes 5 Torsion [C]-N--CA-[C] |==|  0.62002
USER: genes 6 Torsion [N]-CA--CB-[CG] |==|  0.87407
USER: genes 7 Torsion [CA]-CB--CG-[CD1] |==|  0.80529
USER: genes 8 Torsion [N]-CA--C-[N] |==|  0.35655
USER: genes 9 Torsion [C]-N--CA-[C] |==|  0.25295
USER: genes 10 Torsion [N]-CA--CB-[CG] |==|  0.82564
USER: genes 11 Torsion [CA]-CB--CG-[OD1] |==|  0.89413
USER: genes 12 Torsion [N]-CA--C-[O] |==|  0.19200
USER: genes 13 Torsion [N]-CA--CB-[CG2] |==|  0.37882
USER: genes 14 Torsion [CA]-CB--CG1-[CD1] |==|  0.59687
USER: genes 15 Torsion [N]-C--CA-[N] |==|  0.37189
USER: genes 16 Torsion [C]-CA--N-[C] |==|  0.83772
USER: genes 17 Torsion [N]-C--CA-[N] |==|  0.91331
USER: genes 18 Torsion [C]-CA--N-[C] |==|  0.83442
USER: genes 19 Torsion [N]-C--CA-[N] |==|  0.20922
USER: genes 20 Torsion [C]-CA--CB-[CG1] |==|  0.66504
USER: genes 21 Torsion [CA]-CB--CG1-[CD1] |==|  0.25587
USER: genes 22 Torsion [C]-CA--CB-[CG] |==|  0.78450
USER: genes 23 Torsion [CA]-CB--CG-[CD] |==|  0.63335
USER: genes 24 Torsion [CB]-CG--CD-[NE] |==|  0.67529
USER: genes 25 Torsion [CG]-CD--NE-[CZ] |==|  0.18545
USER: genes 26 Torsion [C]-CA--CB-[CG1] |==|  0.86413
USER: genes 27 Torsion [CA]-CB--CG1-[CD1] |==|  0.79417
ROOT
ATOM      1  C   ILE E1023     -48.192  23.751  -2.275  1.00 40.02 LIG 0.24  C 
ATOM      2 O    ILE E1023     -47.993  24.890  -2.723  1.00 38.38 LIG-0.27  OA
ATOM      3  N   PRO E1024     -49.290  23.423  -1.548  1.00 37.38 LIG-0.34  N 
ATOM      4  CA  PRO E1024     -50.229  24.480  -1.146  1.00 36.67 LIG 0.18  C 
ATOM      5  CB  PRO E1024     -51.464  23.705  -0.694  1.00 38.74 LIG 0.04  C 
ATOM      6  CG  PRO E1024     -50.943  22.400  -0.223  1.00 43.33 LIG 0.02  C 
ATOM      7  CD  PRO E1024     -49.660  22.120  -0.951  1.00 39.42 LIG 0.13  C 
ENDROOT
BRANCH 4 8
ATOM      8  C   PRO E1024     -49.612  25.282  -0.007  1.00 39.60 LIG 0.24  C 
ATOM      9 O    PRO E1024     -48.931  24.698   0.835  1.00 37.18 LIG-0.27  OA
ATOM     10  N   ILE E1025     -49.825  26.614  -0.014  1.00 37.20 LIG-0.35  N 
ATOM     11 H    ILE E1025     -50.299  26.989  -0.625  1.00 37.20 LIG 0.16  HD
BRANCH 10 12
ATOM     12  CA  ILE E1025     -49.313  27.586   0.962  1.00 37.42 LIG 0.18  C 
BRANCH 12 13
ATOM     13  C   ILE E1025     -49.903  27.326   2.346  1.00 40.88 LIG 0.24  C 
ATOM     14 O    ILE E1025     -51.117  27.143   2.451  1.00 40.29 LIG-0.27  OA
ATOM     15  N   PHE E1026     -49.109  27.526   3.417  1.00 36.23 LIG-0.35  N 
ATOM     16 H    PHE E1026     -48.258  27.643   3.374  1.00 36.23 LIG 0.16  HD
BRANCH 15 17
ATOM     17  CA  PHE E1026     -49.666  27.559   4.775  1.00 36.58 LIG 0.18  C 
BRANCH 17 18
ATOM     18  CB  PHE E1026     -49.457  26.234   5.502  1.00 38.58 LIG 0.07  C 
BRANCH 18 19
ATOM     19  CG  PHE E1026     -49.791  25.050   4.643  1.00 40.24 LIG-0.06  A 
ATOM     20  CD1 PHE E1026     -51.098  24.776   4.301  1.00 42.20 LIG 0.01  A 
ATOM     21  CE1 PHE E1026     -51.406  23.677   3.518  1.00 42.54 LIG 0.00  A 
ATOM     22  CZ  PHE E1026     -50.411  22.848   3.072  1.00 41.81 LIG 0.00  A 
ATOM     23  CE2 PHE E1026     -49.106  23.096   3.405  1.00 44.36 LIG 0.00  A 
ATOM     24  CD2 PHE E1026     -48.794  24.193   4.194  1.00 42.30 LIG 0.01  A 
ENDBRANCH 18 19
ENDBRANCH 17 18
BRANCH 17 25
ATOM     25  C   PHE E1026     -49.061  28.695   5.580  1.00 38.60 LIG 0.24  C 
ATOM     26  N   ASN E1027     -49.941  29.525   6.193  1.00 38.80 LIG-0.35  N 
ATOM     27 H    ASN E1027     -50.793  29.433   6.113  1.00 38.80 LIG 0.16  HD
ATOM     28 O    PHE E1026     -47.840  28.779   5.696  1.00 31.59 LIG-0.27  OA
BRANCH 26 29
ATOM     29  CA  ASN E1027     -49.564  30.657   7.048  1.00 74.37 LIG 0.17  C 
BRANCH 29 30
ATOM     30  CB  ASN E1027     -48.237  30.377   7.744  1.00 75.17 LIG 0.14  C 
BRANCH 30 31
ATOM     31  CG  ASN E1027     -48.292  29.191   8.674  1.00 99.64 LIG 0.22  C 
ATOM     32  ND2 ASN E1027     -47.231  28.390   8.715  1.00 92.55 LIG-0.37  N 
ATOM     33 22HD ASN E1027     -46.544  28.562   8.227  1.00 92.55 LIG 0.16  HD
ATOM     34 21HD ASN E1027     -47.232  27.700   9.229  1.00 92.55 LIG 0.16  HD
ATOM     35 OD1  ASN E1027     -49.292  28.971   9.362  1.00 94.01 LIG-0.27  OA
ENDBRANCH 30 31
ENDBRANCH 29 30
BRANCH 29 36
ATOM     36  C   ASN E1027     -49.440  31.930   6.212  1.00103.37 LIG 0.22  C 
ATOM     37 O    ASN E1027     -50.438  32.451   5.722  1.00 69.20 LIG-0.29  OA
ENDBRANCH 29 36
ENDBRANCH 26 29
ENDBRANCH 17 25
ENDBRANCH 15 17
ENDBRANCH 12 13
BRANCH 12 38
ATOM     38  CB  ILE E1025     -49.830  29.032   0.546  1.00 40.50 LIG 0.01  C 
ATOM     39  CG2 ILE E1025     -50.330  29.829   1.759  1.00 43.95 LIG 0.01  C 
BRANCH 38 40
ATOM     40  CG1 ILE E1025     -48.800  29.837  -0.246  1.00 41.58 LIG 0.00  C 
ATOM     41  CD1 ILE E1025     -48.857  31.427   0.083  1.00 52.05 LIG 0.01  C 
ENDBRANCH 38 40
ENDBRANCH 12 38
ENDBRANCH 10 12
ENDBRANCH 4 8
BRANCH 1 42
ATOM     42  CA  ILE E1023     -47.212  22.650  -2.642  1.00 36.06 LIG 0.18  C 
BRANCH 42 43
ATOM     43  N   ILE E1023     -46.897  22.822  -4.073  1.00 37.96 LIG-0.35  N 
ATOM     44  C   ARG E1022     -47.840  22.799  -5.040  1.00 45.42 LIG 0.24  C 
ATOM     45 O    ARG E1022     -49.026  22.556  -4.816  1.00 45.23 LIG-0.27  OA
ATOM     46 H    ILE E1023     -46.061  22.938  -4.233  1.00 37.96 LIG 0.16  HD
BRANCH 44 47
ATOM     47  CA  ARG E1022     -47.402  23.012  -6.489  1.00 45.59 LIG 0.18  C 
BRANCH 47 48
ATOM     48  N   ARG E1022     -46.230  23.895  -6.616  1.00 48.30 LIG-0.35  N 
ATOM     49 H    ARG E1022     -45.550  23.530  -6.996  1.00 48.30 LIG 0.16  HD
ATOM     50  C   ILE E1021     -46.248  25.168  -6.164  1.00 57.51 LIG 0.26  C 
ATOM     51 O    ILE E1021     -47.241  25.672  -5.623  1.00 59.03 LIG-0.27  OA
BRANCH 50 52
ATOM     52  CA  ILE E1021     -44.982  26.021  -6.348  1.00 57.59 LIG 0.40  C 
ATOM     53  N   ILE E1021     -44.888  26.424  -7.747  1.00 58.96 LIG 0.61  N 
BRANCH 52 54
ATOM     54  CB  ILE E1021     -45.003  27.321  -5.496  1.00 60.58 LIG 0.03  C 
ATOM     55  CG2 ILE E1021     -43.924  27.341  -4.417  1.00 61.37 LIG 0.01  C 
BRANCH 54 56
ATOM     56  CG1 ILE E1021     -44.894  28.570  -6.405  1.00 60.59 LIG 0.00  C 
ATOM     57  CD1 ILE E1021     -46.218  29.107  -6.804  1.00 60.15 LIG 0.01  C 
ENDBRANCH 54 56
ENDBRANCH 52 54
ENDBRANCH 50 52
ENDBRANCH 47 48
BRANCH 47 58
ATOM     58  CB  ARG E1022     -47.159  21.642  -7.133  1.00 44.33 LIG 0.04  C 
BRANCH 58 59
ATOM     59  CG  ARG E1022     -45.833  21.014  -6.725  1.00 47.73 LIG 0.02  C 
BRANCH 59 60
ATOM     60  CD  ARG E1022     -45.037  20.487  -7.901  1.00 47.87 LIG 0.14  C 
BRANCH 60 61
ATOM     61  NE  ARG E1022     -44.867  19.038  -7.803  1.00 55.98 LIG-0.23  N 
ATOM     62  CZ  ARG E1022     -45.830  18.125  -7.893  1.00 56.00 LIG 0.67  C 
ATOM     63  NH1 ARG E1022     -47.088  18.489  -8.119  1.00 48.69 LIG-0.23  N 
ATOM     64  NH2 ARG E1022     -45.540  16.837  -7.792  1.00 32.20 LIG-0.23  N 
ATOM     65 1HH1 ARG E1022     -47.285  19.322  -8.208  1.00 48.69 LIG 0.17  HD
ATOM     66 2HH1 ARG E1022     -47.705  17.893  -8.176  1.00 48.69 LIG 0.17  HD
ATOM     67 2HH2 ARG E1022     -46.165  16.249  -7.851  1.00 32.20 LIG 0.17  HD
ATOM     68 1HH2 ARG E1022     -44.726  16.588  -7.668  1.00 32.20 LIG 0.17  HD
ATOM     69 HE   ARG E1022     -44.067  18.748  -7.674  1.00 55.98 LIG 0.18  HD
ENDBRANCH 60 61
ENDBRANCH 59 60
ENDBRANCH 58 59
ENDBRANCH 47 58
ENDBRANCH 44 47
ENDBRANCH 42 43
BRANCH 42 70
ATOM     70  CB  ILE E1023     -45.952  22.748  -1.720  1.00 38.78 LIG 0.01  C 
ATOM     71  CG2 ILE E1023     -44.885  21.730  -2.150  1.00 39.01 LIG 0.01  C 
BRANCH 70 72
ATOM     72  CG1 ILE E1023     -45.359  24.187  -1.634  1.00 39.61 LIG 0.00  C 
ATOM     73  CD1 ILE E1023     -44.599  24.697  -2.833  1.00 43.21 LIG 0.01  C 
ENDBRANCH 70 72
ENDBRANCH 42 70
ENDBRANCH 1 42
TORSDOF 26
ENDMDL
MODEL 18
USER: ADFR SOLUTION from run 99
USER: SCORE 22.730162 LL:  -6.476 LR: -17.892 RR:   0.000 FEB: -10.136
USER: RMSD 4.594878
USER: SEED 98
USER: STATUS no improvement in best in 9 clusters for 5 generations
USER: GENES 28
USER: genes 0 Translation |==|  0.45204 0.52440 0.40915
USER: genes 1 Rotation |==|  0.51971 0.54353 0.63802 0.97819
USER: genes 2 Torsion [N]-CA--C-[O] |==|  0.75919
USER: genes 3 Torsion [C]-N--CA-[CB] |==|  0.53100
USER: genes 4 Torsion [N]-CA--C-[N] |==|  0.32521
USER: genes 5 Torsion [C]-N--CA-[C] |==|  0.67304
USER: genes 6 Torsion [N]-CA--CB-[CG] |==|  0.87874
USER: genes 7 Torsion [CA]-CB--CG-[CD1] |==|  0.85426
USER: genes 8 Torsion [N]-CA--C-[N] |==|  0.26937
USER: genes 9 Torsion [C]-N--CA-[C] |==|  0.86454
USER: genes 10 Torsion [N]-CA--CB-[CG] |==|  0.71123
USER: genes 11 Torsion [CA]-CB--CG-[OD1] |==|  0.32453
USER: genes 12 Torsion [N]-CA--C-[O] |==|  0.22899
USER: genes 13 Torsion [N]-CA--CB-[CG2] |==|  0.45452
USER: genes 14 Torsion [CA]-CB--CG1-[CD1] |==|  0.83436
USER: genes 15 Torsion [N]-C--CA-[N] |==|  0.36719
USER: genes 16 Torsion [C]-CA--N-[C] |==|  0.51668
USER: genes 17 Torsion [N]-C--CA-[N] |==|  0.89779
USER: genes 18 Torsion [C]-CA--N-[C] |==|  0.86098
USER: genes 19 Torsion [N]-C--CA-[N] |==|  0.40763
USER: genes 20 Torsion [C]-CA--CB-[CG1] |==|  0.04968
USER: genes 21 Torsion [CA]-CB--CG1-[CD1] |==|  0.23226
USER: genes 22 Torsion [C]-CA--CB-[CG] |==|  0.74811
USER: genes 23 Torsion [CA]-CB--CG-[CD] |==|  0.70472
USER: genes 24 Torsion [CB]-CG--CD-[NE] |==|  0.46883
USER: genes 25 Torsion [CG]-CD--NE-[CZ] |==|  0.44720
USER: genes 26 Torsion [C]-CA--CB-[CG1] |==|  0.37658
USER: genes 27 Torsion [CA]-CB--CG1-[CD1] |==|  0.79860
ROOT
ATOM      1  C   ILE E1023     -49.075  25.597  -2.131  1.00 40.02 LIG 0.24  C 
ATOM      2 O    ILE E1023     -49.719  26.653  -2.227  1.00 38.38 LIG-0.27  OA
ATOM      3  N   PRO E1024     -49.378  24.625  -1.234  1.00 37.38 LIG-0.34  N 
ATOM      4  CA  PRO E1024     -50.425  24.870  -0.231  1.00 36.67 LIG 0.18  C 
ATOM      5  CB  PRO E1024     -50.722  23.479   0.321  1.00 38.74 LIG 0.04  C 
ATOM      6  CG  PRO E1024     -49.458  22.724   0.151  1.00 43.33 LIG 0.02  C 
ATOM      7  CD  PRO E1024     -48.708  23.325  -1.003  1.00 39.42 LIG 0.13  C 
ENDROOT
BRANCH 4 8
ATOM      8  C   PRO E1024     -49.873  25.803   0.840  1.00 39.60 LIG 0.24  C 
ATOM      9 O    PRO E1024     -49.261  25.323   1.793  1.00 37.18 LIG-0.27  OA
ATOM     10  N   ILE E1025     -50.062  27.125   0.654  1.00 37.20 LIG-0.35  N 
ATOM     11 H    ILE E1025     -50.487  27.425  -0.031  1.00 37.20 LIG 0.16  HD
BRANCH 10 12
ATOM     12  CA  ILE E1025     -49.602  28.207   1.535  1.00 37.42 LIG 0.18  C 
BRANCH 12 13
ATOM     13  C   ILE E1025     -50.075  27.976   2.968  1.00 40.88 LIG 0.24  C 
ATOM     14 O    ILE E1025     -51.262  28.162   3.240  1.00 40.29 LIG-0.27  OA
ATOM     15  N   PHE E1026     -49.138  27.794   3.919  1.00 36.23 LIG-0.35  N 
ATOM     16 H    PHE E1026     -48.306  27.649   3.758  1.00 36.23 LIG 0.16  HD
BRANCH 15 17
ATOM     17  CA  PHE E1026     -49.490  27.833   5.345  1.00 36.58 LIG 0.18  C 
BRANCH 17 18
ATOM     18  CB  PHE E1026     -49.180  26.509   6.037  1.00 38.58 LIG 0.07  C 
BRANCH 18 19
ATOM     19  CG  PHE E1026     -49.603  25.323   5.222  1.00 40.24 LIG-0.06  A 
ATOM     20  CD1 PHE E1026     -50.889  25.226   4.736  1.00 42.20 LIG 0.01  A 
ATOM     21  CE1 PHE E1026     -51.281  24.125   3.994  1.00 42.54 LIG 0.00  A 
ATOM     22  CZ  PHE E1026     -50.391  23.117   3.733  1.00 41.81 LIG 0.00  A 
ATOM     23  CE2 PHE E1026     -49.110  23.188   4.212  1.00 44.36 LIG 0.00  A 
ATOM     24  CD2 PHE E1026     -48.715  24.286   4.961  1.00 42.30 LIG 0.01  A 
ENDBRANCH 18 19
ENDBRANCH 17 18
BRANCH 17 25
ATOM     25  C   PHE E1026     -48.770  28.969   6.049  1.00 38.60 LIG 0.24  C 
ATOM     26  N   ASN E1027     -49.478  30.116   6.204  1.00 38.80 LIG-0.35  N 
ATOM     27 H    ASN E1027     -50.278  30.207   5.902  1.00 38.80 LIG 0.16  HD
ATOM     28 O    PHE E1026     -47.638  28.793   6.492  1.00 31.59 LIG-0.27  OA
BRANCH 26 29
ATOM     29  CA  ASN E1027     -48.983  31.315   6.890  1.00 74.37 LIG 0.17  C 
BRANCH 29 30
ATOM     30  CB  ASN E1027     -50.118  32.312   7.101  1.00 75.17 LIG 0.14  C 
BRANCH 30 31
ATOM     31  CG  ASN E1027     -50.072  33.477   6.143  1.00 99.64 LIG 0.22  C 
ATOM     32  ND2 ASN E1027     -49.023  34.292   6.215  1.00 92.55 LIG-0.37  N 
ATOM     33 22HD ASN E1027     -48.400  34.141   6.787  1.00 92.55 LIG 0.16  HD
ATOM     34 21HD ASN E1027     -48.968  34.969   5.688  1.00 92.55 LIG 0.16  HD
ATOM     35 OD1  ASN E1027     -50.981  33.666   5.333  1.00 94.01 LIG-0.27  OA
ENDBRANCH 30 31
ENDBRANCH 29 30
BRANCH 29 36
ATOM     36  C   ASN E1027     -48.380  30.939   8.242  1.00103.37 LIG 0.22  C 
ATOM     37 O    ASN E1027     -47.227  30.524   8.313  1.00 69.20 LIG-0.29  OA
ENDBRANCH 29 36
ENDBRANCH 26 29
ENDBRANCH 17 25
ENDBRANCH 15 17
ENDBRANCH 12 13
BRANCH 12 38
ATOM     38  CB  ILE E1025     -50.299  29.561   1.072  1.00 40.50 LIG 0.01  C 
ATOM     39  CG2 ILE E1025     -50.204  30.648   2.151  1.00 43.95 LIG 0.01  C 
BRANCH 38 40
ATOM     40  CG1 ILE E1025     -49.778  30.079  -0.269  1.00 41.58 LIG 0.00  C 
ATOM     41  CD1 ILE E1025     -48.181  30.381  -0.248  1.00 52.05 LIG 0.01  C 
ENDBRANCH 38 40
ENDBRANCH 12 38
ENDBRANCH 10 12
ENDBRANCH 4 8
BRANCH 1 42
ATOM     42  CA  ILE E1023     -47.961  25.338  -3.130  1.00 36.06 LIG 0.18  C 
BRANCH 42 43
ATOM     43  N   ILE E1023     -48.481  25.724  -4.455  1.00 37.96 LIG-0.35  N 
ATOM     44  C   ARG E1022     -47.797  25.516  -5.601  1.00 45.42 LIG 0.24  C 
ATOM     45 O    ARG E1022     -46.653  25.060  -5.628  1.00 45.23 LIG-0.27  OA
ATOM     46 H    ILE E1023     -49.257  26.092  -4.430  1.00 37.96 LIG 0.16  HD
BRANCH 44 47
ATOM     47  CA  ARG E1022     -48.444  25.935  -6.921  1.00 45.59 LIG 0.18  C 
BRANCH 47 48
ATOM     48  N   ARG E1022     -49.899  25.709  -6.950  1.00 48.30 LIG-0.35  N 
ATOM     49 H    ARG E1022     -50.359  26.389  -7.207  1.00 48.30 LIG 0.16  HD
ATOM     50  C   ILE E1021     -50.440  24.522  -6.599  1.00 57.51 LIG 0.26  C 
ATOM     51 O    ILE E1021     -49.756  23.556  -6.236  1.00 59.03 LIG-0.27  OA
BRANCH 50 52
ATOM     52  CA  ILE E1021     -51.969  24.373  -6.669  1.00 57.59 LIG 0.40  C 
ATOM     53  N   ILE E1021     -52.289  22.997  -7.038  1.00 58.96 LIG 0.61  N 
BRANCH 52 54
ATOM     54  CB  ILE E1021     -52.663  24.655  -5.307  1.00 60.58 LIG 0.03  C 
ATOM     55  CG2 ILE E1021     -53.179  23.387  -4.631  1.00 61.37 LIG 0.01  C 
BRANCH 54 56
ATOM     56  CG1 ILE E1021     -51.715  25.433  -4.362  1.00 60.59 LIG 0.00  C 
ATOM     57  CD1 ILE E1021     -51.735  26.896  -4.607  1.00 60.15 LIG 0.01  C 
ENDBRANCH 54 56
ENDBRANCH 52 54
ENDBRANCH 50 52
ENDBRANCH 47 48
BRANCH 47 58
ATOM     58  CB  ARG E1022     -48.086  27.400  -7.198  1.00 44.33 LIG 0.04  C 
BRANCH 58 59
ATOM     59  CG  ARG E1022     -49.101  28.383  -6.628  1.00 47.73 LIG 0.02  C 
BRANCH 59 60
ATOM     60  CD  ARG E1022     -49.976  29.017  -7.690  1.00 47.87 LIG 0.14  C 
BRANCH 60 61
ATOM     61  NE  ARG E1022     -51.091  29.737  -7.078  1.00 55.98 LIG-0.23  N 
ATOM     62  CZ  ARG E1022     -51.831  30.680  -7.656  1.00 56.00 LIG 0.67  C 
ATOM     63  NH1 ARG E1022     -51.608  31.035  -8.917  1.00 48.69 LIG-0.23  N 
ATOM     64  NH2 ARG E1022     -52.822  31.252  -6.990  1.00 32.20 LIG-0.23  N 
ATOM     65 1HH1 ARG E1022     -50.981  30.655  -9.366  1.00 48.69 LIG 0.17  HD
ATOM     66 2HH1 ARG E1022     -52.091  31.645  -9.283  1.00 48.69 LIG 0.17  HD
ATOM     67 2HH2 ARG E1022     -53.298  31.861  -7.366  1.00 32.20 LIG 0.17  HD
ATOM     68 1HH2 ARG E1022     -52.990  31.015  -6.180  1.00 32.20 LIG 0.17  HD
ATOM     69 HE   ARG E1022     -51.289  29.531  -6.266  1.00 55.98 LIG 0.18  HD
ENDBRANCH 60 61
ENDBRANCH 59 60
ENDBRANCH 58 59
ENDBRANCH 47 58
ENDBRANCH 44 47
ENDBRANCH 42 43
BRANCH 42 70
ATOM     70  CB  ILE E1023     -46.689  26.148  -2.710  1.00 38.78 LIG 0.01  C 
ATOM     71  CG2 ILE E1023     -46.871  26.755  -1.311  1.00 39.01 LIG 0.01  C 
BRANCH 70 72
ATOM     72  CG1 ILE E1023     -45.372  25.321  -2.802  1.00 39.61 LIG 0.00  C 
ATOM     73  CD1 ILE E1023     -45.149  24.251  -1.762  1.00 43.21 LIG 0.01  C 
ENDBRANCH 70 72
ENDBRANCH 42 70
ENDBRANCH 1 42
TORSDOF 26
ENDMDL
MODEL 19
USER: ADFR SOLUTION from run 102
USER: SCORE 22.626846 LL:  -5.573 LR: -17.833 RR:   0.000 FEB: -10.077
USER: RMSD 2.245619
USER: SEED 101
USER: STATUS no improvement in best in 11 clusters for 5 generations
USER: GENES 28
USER: genes 0 Translation |==|  0.50130 0.46060 0.42671
USER: genes 1 Rotation |==|  0.44753 0.44950 0.50944 0.99458
USER: genes 2 Torsion [N]-CA--C-[O] |==|  0.85021
USER: genes 3 Torsion [C]-N--CA-[CB] |==|  0.52222
USER: genes 4 Torsion [N]-CA--C-[N] |==|  0.37372
USER: genes 5 Torsion [C]-N--CA-[C] |==|  0.53925
USER: genes 6 Torsion [N]-CA--CB-[CG] |==|  0.20014
USER: genes 7 Torsion [CA]-CB--CG-[CD1] |==|  0.76492
USER: genes 8 Torsion [N]-CA--C-[N] |==|  0.47479
USER: genes 9 Torsion [C]-N--CA-[C] |==|  0.15919
USER: genes 10 Torsion [N]-CA--CB-[CG] |==|  0.71123
USER: genes 11 Torsion [CA]-CB--CG-[OD1] |==|  0.05659
USER: genes 12 Torsion [N]-CA--C-[O] |==|  0.15100
USER: genes 13 Torsion [N]-CA--CB-[CG2] |==|  0.39238
USER: genes 14 Torsion [CA]-CB--CG1-[CD1] |==|  0.60242
USER: genes 15 Torsion [N]-C--CA-[N] |==|  0.35732
USER: genes 16 Torsion [C]-CA--N-[C] |==|  0.82406
USER: genes 17 Torsion [N]-C--CA-[N] |==|  0.94929
USER: genes 18 Torsion [C]-CA--N-[C] |==|  0.81195
USER: genes 19 Torsion [N]-C--CA-[N] |==|  0.27178
USER: genes 20 Torsion [C]-CA--CB-[CG1] |==|  0.60230
USER: genes 21 Torsion [CA]-CB--CG1-[CD1] |==|  0.25563
USER: genes 22 Torsion [C]-CA--CB-[CG] |==|  0.26220
USER: genes 23 Torsion [CA]-CB--CG-[CD] |==|  0.45205
USER: genes 24 Torsion [CB]-CG--CD-[NE] |==|  0.31203
USER: genes 25 Torsion [CG]-CD--NE-[CZ] |==|  0.20046
USER: genes 26 Torsion [C]-CA--CB-[CG1] |==|  0.83931
USER: genes 27 Torsion [CA]-CB--CG1-[CD1] |==|  0.24307
ROOT
ATOM      1  C   ILE E1023     -48.336  24.114  -1.631  1.00 40.02 LIG 0.24  C 
ATOM      2 O    ILE E1023     -48.264  25.254  -2.113  1.00 38.38 LIG-0.27  OA
ATOM      3  N   PRO E1024     -49.384  23.695  -0.877  1.00 37.38 LIG-0.34  N 
ATOM      4  CA  PRO E1024     -50.423  24.658  -0.487  1.00 36.67 LIG 0.18  C 
ATOM      5  CB  PRO E1024     -51.564  23.772   0.006  1.00 38.74 LIG 0.04  C 
ATOM      6  CG  PRO E1024     -50.903  22.543   0.504  1.00 43.33 LIG 0.02  C 
ATOM      7  CD  PRO E1024     -49.607  22.377  -0.238  1.00 39.42 LIG 0.13  C 
ENDROOT
BRANCH 4 8
ATOM      8  C   PRO E1024     -49.878  25.553   0.618  1.00 39.60 LIG 0.24  C 
ATOM      9 O    PRO E1024     -49.407  25.035   1.630  1.00 37.18 LIG-0.27  OA
ATOM     10  N   ILE E1025     -49.913  26.884   0.399  1.00 37.20 LIG-0.35  N 
ATOM     11 H    ILE E1025     -50.242  27.210  -0.325  1.00 37.20 LIG 0.16  HD
BRANCH 10 12
ATOM     12  CA  ILE E1025     -49.426  27.932   1.306  1.00 37.42 LIG 0.18  C 
BRANCH 12 13
ATOM     13  C   ILE E1025     -50.106  27.829   2.668  1.00 40.88 LIG 0.24  C 
ATOM     14 O    ILE E1025     -51.336  27.863   2.724  1.00 40.29 LIG-0.27  OA
ATOM     15  N   PHE E1026     -49.332  27.927   3.768  1.00 36.23 LIG-0.35  N 
ATOM     16 H    PHE E1026     -48.473  27.893   3.760  1.00 36.23 LIG 0.16  HD
BRANCH 15 17
ATOM     17  CA  PHE E1026     -49.928  28.105   5.099  1.00 36.58 LIG 0.18  C 
BRANCH 17 18
ATOM     18  CB  PHE E1026     -50.628  26.836   5.576  1.00 38.58 LIG 0.07  C 
BRANCH 18 19
ATOM     19  CG  PHE E1026     -49.660  25.752   5.949  1.00 40.24 LIG-0.06  A 
ATOM     20  CD1 PHE E1026     -49.146  24.907   4.989  1.00 42.20 LIG 0.01  A 
ATOM     21  CE1 PHE E1026     -48.261  23.901   5.337  1.00 42.54 LIG 0.00  A 
ATOM     22  CZ  PHE E1026     -47.886  23.734   6.644  1.00 41.81 LIG 0.00  A 
ATOM     23  CE2 PHE E1026     -48.389  24.558   7.616  1.00 44.36 LIG 0.00  A 
ATOM     24  CD2 PHE E1026     -49.279  25.563   7.272  1.00 42.30 LIG 0.01  A 
ENDBRANCH 18 19
ENDBRANCH 17 18
BRANCH 17 25
ATOM     25  C   PHE E1026     -48.877  28.530   6.108  1.00 38.60 LIG 0.24  C 
ATOM     26  N   ASN E1027     -49.341  28.909   7.326  1.00 38.80 LIG-0.35  N 
ATOM     27 H    ASN E1027     -50.180  28.932   7.512  1.00 38.80 LIG 0.16  HD
ATOM     28 O    PHE E1026     -47.685  28.458   5.817  1.00 31.59 LIG-0.27  OA
BRANCH 26 29
ATOM     29  CA  ASN E1027     -48.492  29.317   8.452  1.00 74.37 LIG 0.17  C 
BRANCH 29 30
ATOM     30  CB  ASN E1027     -47.613  28.155   8.902  1.00 75.17 LIG 0.14  C 
BRANCH 30 31
ATOM     31  CG  ASN E1027     -48.092  27.506  10.176  1.00 99.64 LIG 0.22  C 
ATOM     32  ND2 ASN E1027     -47.215  26.780  10.864  1.00 92.55 LIG-0.37  N 
ATOM     33 22HD ASN E1027     -46.407  26.700  10.582  1.00 92.55 LIG 0.16  HD
ATOM     34 21HD ASN E1027     -47.457  26.390  11.592  1.00 92.55 LIG 0.16  HD
ATOM     35 OD1  ASN E1027     -49.257  27.639  10.555  1.00 94.01 LIG-0.27  OA
ENDBRANCH 30 31
ENDBRANCH 29 30
BRANCH 29 36
ATOM     36  C   ASN E1027     -47.608  30.495   8.046  1.00103.37 LIG 0.22  C 
ATOM     37 O    ASN E1027     -48.108  31.514   7.578  1.00 69.20 LIG-0.29  OA
ENDBRANCH 29 36
ENDBRANCH 26 29
ENDBRANCH 17 25
ENDBRANCH 15 17
ENDBRANCH 12 13
BRANCH 12 38
ATOM     38  CB  ILE E1025     -49.866  29.345   0.719  1.00 40.50 LIG 0.01  C 
ATOM     39  CG2 ILE E1025     -50.294  30.314   1.830  1.00 43.95 LIG 0.01  C 
BRANCH 38 40
ATOM     40  CG1 ILE E1025     -48.806  29.982  -0.179  1.00 41.58 LIG 0.00  C 
ATOM     41  CD1 ILE E1025     -48.728  31.597  -0.011  1.00 52.05 LIG 0.01  C 
ENDBRANCH 38 40
ENDBRANCH 12 38
ENDBRANCH 10 12
ENDBRANCH 4 8
BRANCH 1 42
ATOM     42  CA  ILE E1023     -47.252  23.111  -1.983  1.00 36.06 LIG 0.18  C 
BRANCH 42 43
ATOM     43  N   ILE E1023     -47.067  23.184  -3.445  1.00 37.96 LIG-0.35  N 
ATOM     44  C   ARG E1022     -48.039  22.860  -4.325  1.00 45.42 LIG 0.24  C 
ATOM     45 O    ARG E1022     -49.131  22.406  -3.983  1.00 45.23 LIG-0.27  OA
ATOM     46 H    ILE E1023     -46.285  23.450  -3.684  1.00 37.96 LIG 0.16  HD
BRANCH 44 47
ATOM     47  CA  ARG E1022     -47.743  22.996  -5.819  1.00 45.59 LIG 0.18  C 
BRANCH 47 48
ATOM     48  N   ARG E1022     -46.585  23.859  -6.104  1.00 48.30 LIG-0.35  N 
ATOM     49 H    ARG E1022     -45.906  23.446  -6.430  1.00 48.30 LIG 0.16  HD
ATOM     50  C   ILE E1021     -46.616  25.189  -5.864  1.00 57.51 LIG 0.26  C 
ATOM     51 O    ILE E1021     -47.608  25.763  -5.398  1.00 59.03 LIG-0.27  OA
BRANCH 50 52
ATOM     52  CA  ILE E1021     -45.363  26.015  -6.202  1.00 57.59 LIG 0.40  C 
ATOM     53  N   ILE E1021     -45.552  26.640  -7.508  1.00 58.96 LIG 0.61  N 
BRANCH 52 54
ATOM     54  CB  ILE E1021     -45.103  27.158  -5.181  1.00 60.58 LIG 0.03  C 
ATOM     55  CG2 ILE E1021     -44.179  26.736  -4.042  1.00 61.37 LIG 0.01  C 
BRANCH 54 56
ATOM     56  CG1 ILE E1021     -44.553  28.415  -5.898  1.00 60.59 LIG 0.00  C 
ATOM     57  CD1 ILE E1021     -45.623  29.358  -6.305  1.00 60.15 LIG 0.01  C 
ENDBRANCH 54 56
ENDBRANCH 52 54
ENDBRANCH 50 52
ENDBRANCH 47 48
BRANCH 47 58
ATOM     58  CB  ARG E1022     -47.571  21.593  -6.413  1.00 44.33 LIG 0.04  C 
BRANCH 58 59
ATOM     59  CG  ARG E1022     -48.855  21.036  -7.017  1.00 47.73 LIG 0.02  C 
BRANCH 59 60
ATOM     60  CD  ARG E1022     -48.614  19.869  -7.952  1.00 47.87 LIG 0.14  C 
BRANCH 60 61
ATOM     61  NE  ARG E1022     -49.153  18.634  -7.386  1.00 55.98 LIG-0.23  N 
ATOM     62  CZ  ARG E1022     -50.440  18.316  -7.273  1.00 56.00 LIG 0.67  C 
ATOM     63  NH1 ARG E1022     -51.381  19.141  -7.718  1.00 48.69 LIG-0.23  N 
ATOM     64  NH2 ARG E1022     -50.796  17.155  -6.744  1.00 32.20 LIG-0.23  N 
ATOM     65 1HH1 ARG E1022     -51.161  19.888  -8.083  1.00 48.69 LIG 0.17  HD
ATOM     66 2HH1 ARG E1022     -52.211  18.928  -7.641  1.00 48.69 LIG 0.17  HD
ATOM     67 2HH2 ARG E1022     -51.629  16.953  -6.673  1.00 32.20 LIG 0.17  HD
ATOM     68 1HH2 ARG E1022     -50.194  16.604  -6.472  1.00 32.20 LIG 0.17  HD
ATOM     69 HE   ARG E1022     -48.583  18.057  -7.099  1.00 55.98 LIG 0.18  HD
ENDBRANCH 60 61
ENDBRANCH 59 60
ENDBRANCH 58 59
ENDBRANCH 47 58
ENDBRANCH 44 47
ENDBRANCH 42 43
BRANCH 42 70
ATOM     70  CB  ILE E1023     -45.951  23.450  -1.183  1.00 38.78 LIG 0.01  C 
ATOM     71  CG2 ILE E1023     -44.863  22.399  -1.446  1.00 39.01 LIG 0.01  C 
BRANCH 70 72
ATOM     72  CG1 ILE E1023     -45.421  24.892  -1.445  1.00 39.61 LIG 0.00  C 
ATOM     73  CD1 ILE E1023     -45.973  26.001  -0.585  1.00 43.21 LIG 0.01  C 
ENDBRANCH 70 72
ENDBRANCH 42 70
ENDBRANCH 1 42
TORSDOF 26
ENDMDL
MODEL 20
USER: ADFR SOLUTION from run 157
USER: SCORE 23.572528 LL:  -6.980 LR: -17.689 RR:   0.000 FEB:  -9.933
USER: RMSD 3.794721
USER: SEED 156
USER: STATUS searching
USER: GENES 28
USER: genes 0 Translation |==|  0.49942 0.47530 0.42849
USER: genes 1 Rotation |==|  0.44993 0.45060 0.51156 0.99489
USER: genes 2 Torsion [N]-CA--C-[O] |==|  0.85502
USER: genes 3 Torsion [C]-N--CA-[CB] |==|  0.54454
USER: genes 4 Torsion [N]-CA--C-[N] |==|  0.33504
USER: genes 5 Torsion [C]-N--CA-[C] |==|  0.66781
USER: genes 6 Torsion [N]-CA--CB-[CG] |==|  0.87044
USER: genes 7 Torsion [CA]-CB--CG-[CD1] |==|  0.85626
USER: genes 8 Torsion [N]-CA--C-[N] |==|  0.27337
USER: genes 9 Torsion [C]-N--CA-[C] |==|  0.85896
USER: genes 10 Torsion [N]-CA--CB-[CG] |==|  0.71342
USER: genes 11 Torsion [CA]-CB--CG-[OD1] |==|  0.33111
USER: genes 12 Torsion [N]-CA--C-[O] |==|  0.22289
USER: genes 13 Torsion [N]-CA--CB-[CG2] |==|  0.43687
USER: genes 14 Torsion [CA]-CB--CG1-[CD1] |==|  0.68813
USER: genes 15 Torsion [N]-C--CA-[N] |==|  0.31871
USER: genes 16 Torsion [C]-CA--N-[C] |==|  0.62866
USER: genes 17 Torsion [N]-C--CA-[N] |==|  0.93463
USER: genes 18 Torsion [C]-CA--N-[C] |==|  0.83029
USER: genes 19 Torsion [N]-C--CA-[N] |==|  0.41131
USER: genes 20 Torsion [C]-CA--CB-[CG1] |==|  0.85582
USER: genes 21 Torsion [CA]-CB--CG1-[CD1] |==|  0.55677
USER: genes 22 Torsion [C]-CA--CB-[CG] |==|  0.91875
USER: genes 23 Torsion [CA]-CB--CG-[CD] |==|  0.74014
USER: genes 24 Torsion [CB]-CG--CD-[NE] |==|  0.27453
USER: genes 25 Torsion [CG]-CD--NE-[CZ] |==|  0.33136
USER: genes 26 Torsion [C]-CA--CB-[CG1] |==|  0.39000
USER: genes 27 Torsion [CA]-CB--CG1-[CD1] |==|  0.16319
ROOT
ATOM      1  C   ILE E1023     -48.365  24.456  -1.580  1.00 40.02 LIG 0.24  C 
ATOM      2 O    ILE E1023     -48.305  25.601  -2.053  1.00 38.38 LIG-0.27  OA
ATOM      3  N   PRO E1024     -49.404  24.021  -0.824  1.00 37.38 LIG-0.34  N 
ATOM      4  CA  PRO E1024     -50.450  24.972  -0.421  1.00 36.67 LIG 0.18  C 
ATOM      5  CB  PRO E1024     -51.580  24.071   0.071  1.00 38.74 LIG 0.04  C 
ATOM      6  CG  PRO E1024     -50.905  22.844   0.555  1.00 43.33 LIG 0.02  C 
ATOM      7  CD  PRO E1024     -49.612  22.696  -0.195  1.00 39.42 LIG 0.13  C 
ENDROOT
BRANCH 4 8
ATOM      8  C   PRO E1024     -49.906  25.862   0.690  1.00 39.60 LIG 0.24  C 
ATOM      9 O    PRO E1024     -49.396  25.339   1.679  1.00 37.18 LIG-0.27  OA
ATOM     10  N   ILE E1025     -49.988  27.194   0.498  1.00 37.20 LIG-0.35  N 
ATOM     11 H    ILE E1025     -50.343  27.525  -0.212  1.00 37.20 LIG 0.16  HD
BRANCH 10 12
ATOM     12  CA  ILE E1025     -49.511  28.240   1.414  1.00 37.42 LIG 0.18  C 
BRANCH 12 13
ATOM     13  C   ILE E1025     -49.997  27.977   2.837  1.00 40.88 LIG 0.24  C 
ATOM     14 O    ILE E1025     -51.195  28.114   3.092  1.00 40.29 LIG-0.27  OA
ATOM     15  N   PHE E1026     -49.069  27.820   3.801  1.00 36.23 LIG-0.35  N 
ATOM     16 H    PHE E1026     -48.230  27.708   3.651  1.00 36.23 LIG 0.16  HD
BRANCH 15 17
ATOM     17  CA  PHE E1026     -49.444  27.830   5.221  1.00 36.58 LIG 0.18  C 
BRANCH 17 18
ATOM     18  CB  PHE E1026     -49.136  26.495   5.894  1.00 38.58 LIG 0.07  C 
BRANCH 18 19
ATOM     19  CG  PHE E1026     -49.604  25.323   5.082  1.00 40.24 LIG-0.06  A 
ATOM     20  CD1 PHE E1026     -50.901  25.259   4.621  1.00 42.20 LIG 0.01  A 
ATOM     21  CE1 PHE E1026     -51.334  24.172   3.882  1.00 42.54 LIG 0.00  A 
ATOM     22  CZ  PHE E1026     -50.473  23.144   3.600  1.00 41.81 LIG 0.00  A 
ATOM     23  CE2 PHE E1026     -49.182  23.182   4.054  1.00 44.36 LIG 0.00  A 
ATOM     24  CD2 PHE E1026     -48.746  24.267   4.799  1.00 42.30 LIG 0.01  A 
ENDBRANCH 18 19
ENDBRANCH 17 18
BRANCH 17 25
ATOM     25  C   PHE E1026     -48.743  28.957   5.957  1.00 38.60 LIG 0.24  C 
ATOM     26  N   ASN E1027     -49.471  30.086   6.149  1.00 38.80 LIG-0.35  N 
ATOM     27 H    ASN E1027     -50.273  30.172   5.852  1.00 38.80 LIG 0.16  HD
ATOM     28 O    PHE E1026     -47.606  28.789   6.393  1.00 31.59 LIG-0.27  OA
BRANCH 26 29
ATOM     29  CA  ASN E1027     -48.996  31.273   6.870  1.00 74.37 LIG 0.17  C 
BRANCH 29 30
ATOM     30  CB  ASN E1027     -50.137  32.264   7.070  1.00 75.17 LIG 0.14  C 
BRANCH 30 31
ATOM     31  CG  ASN E1027     -50.079  33.437   6.123  1.00 99.64 LIG 0.22  C 
ATOM     32  ND2 ASN E1027     -49.011  34.227   6.186  1.00 92.55 LIG-0.37  N 
ATOM     33 22HD ASN E1027     -48.383  34.056   6.748  1.00 92.55 LIG 0.16  HD
ATOM     34 21HD ASN E1027     -48.948  34.908   5.665  1.00 92.55 LIG 0.16  HD
ATOM     35 OD1  ASN E1027     -50.996  33.655   5.328  1.00 94.01 LIG-0.27  OA
ENDBRANCH 30 31
ENDBRANCH 29 30
BRANCH 29 36
ATOM     36  C   ASN E1027     -48.428  30.872   8.230  1.00103.37 LIG 0.22  C 
ATOM     37 O    ASN E1027     -47.290  30.419   8.318  1.00 69.20 LIG-0.29  OA
ENDBRANCH 29 36
ENDBRANCH 26 29
ENDBRANCH 17 25
ENDBRANCH 15 17
ENDBRANCH 12 13
BRANCH 12 38
ATOM     38  CB  ILE E1025     -50.179  29.620   0.988  1.00 40.50 LIG 0.01  C 
ATOM     39  CG2 ILE E1025     -50.210  30.621   2.151  1.00 43.95 LIG 0.01  C 
BRANCH 38 40
ATOM     40  CG1 ILE E1025     -49.535  30.245  -0.250  1.00 41.58 LIG 0.00  C 
ATOM     41  CD1 ILE E1025     -48.737  31.622   0.084  1.00 52.05 LIG 0.01  C 
ENDBRANCH 38 40
ENDBRANCH 12 38
ENDBRANCH 10 12
ENDBRANCH 4 8
BRANCH 1 42
ATOM     42  CA  ILE E1023     -47.273  23.466  -1.947  1.00 36.06 LIG 0.18  C 
BRANCH 42 43
ATOM     43  N   ILE E1023     -47.327  23.300  -3.413  1.00 37.96 LIG-0.35  N 
ATOM     44  C   ARG E1022     -47.289  22.092  -4.016  1.00 45.42 LIG 0.24  C 
ATOM     45 O    ARG E1022     -47.128  21.038  -3.401  1.00 45.23 LIG-0.27  OA
ATOM     46 H    ILE E1023     -47.385  24.041  -3.844  1.00 37.96 LIG 0.16  HD
BRANCH 44 47
ATOM     47  CA  ARG E1022     -47.376  22.038  -5.541  1.00 45.59 LIG 0.18  C 
BRANCH 47 48
ATOM     48  N   ARG E1022     -48.026  23.222  -6.127  1.00 48.30 LIG-0.35  N 
ATOM     49 H    ARG E1022     -47.526  23.675  -6.661  1.00 48.30 LIG 0.16  HD
ATOM     50  C   ILE E1021     -49.304  23.548  -5.833  1.00 57.51 LIG 0.26  C 
ATOM     51 O    ILE E1021     -50.006  22.879  -5.064  1.00 59.03 LIG-0.27  OA
BRANCH 50 52
ATOM     52  CA  ILE E1021     -49.905  24.798  -6.499  1.00 57.59 LIG 0.40  C 
ATOM     53  N   ILE E1021     -51.334  24.580  -6.700  1.00 58.96 LIG 0.61  N 
BRANCH 52 54
ATOM     54  CB  ILE E1021     -49.754  26.075  -5.626  1.00 60.58 LIG 0.03  C 
ATOM     55  CG2 ILE E1021     -50.422  27.299  -6.247  1.00 61.37 LIG 0.01  C 
BRANCH 54 56
ATOM     56  CG1 ILE E1021     -50.291  25.824  -4.195  1.00 60.59 LIG 0.00  C 
ATOM     57  CD1 ILE E1021     -50.624  27.079  -3.479  1.00 60.15 LIG 0.01  C 
ENDBRANCH 54 56
ENDBRANCH 52 54
ENDBRANCH 50 52
ENDBRANCH 47 48
BRANCH 47 58
ATOM     58  CB  ARG E1022     -45.966  21.822  -6.104  1.00 44.33 LIG 0.04  C 
BRANCH 58 59
ATOM     59  CG  ARG E1022     -44.871  22.402  -5.218  1.00 47.73 LIG 0.02  C 
BRANCH 59 60
ATOM     60  CD  ARG E1022     -44.471  23.809  -5.611  1.00 47.87 LIG 0.14  C 
BRANCH 60 61
ATOM     61  NE  ARG E1022     -45.134  24.793  -4.756  1.00 55.98 LIG-0.23  N 
ATOM     62  CZ  ARG E1022     -44.535  25.673  -3.959  1.00 56.00 LIG 0.67  C 
ATOM     63  NH1 ARG E1022     -43.209  25.740  -3.901  1.00 48.69 LIG-0.23  N 
ATOM     64  NH2 ARG E1022     -45.255  26.518  -3.237  1.00 32.20 LIG-0.23  N 
ATOM     65 1HH1 ARG E1022     -42.731  25.211  -4.382  1.00 48.69 LIG 0.17  HD
ATOM     66 2HH1 ARG E1022     -42.829  26.311  -3.383  1.00 48.69 LIG 0.17  HD
ATOM     67 2HH2 ARG E1022     -44.865  27.085  -2.723  1.00 32.20 LIG 0.17  HD
ATOM     68 1HH2 ARG E1022     -46.114  26.498  -3.283  1.00 32.20 LIG 0.17  HD
ATOM     69 HE   ARG E1022     -45.994  24.803  -4.770  1.00 55.98 LIG 0.18  HD
ENDBRANCH 60 61
ENDBRANCH 59 60
ENDBRANCH 58 59
ENDBRANCH 47 58
ENDBRANCH 44 47
ENDBRANCH 42 43
BRANCH 42 70
ATOM     70  CB  ILE E1023     -45.894  24.002  -1.441  1.00 38.78 LIG 0.01  C 
ATOM     71  CG2 ILE E1023     -46.093  25.147  -0.437  1.00 39.01 LIG 0.01  C 
BRANCH 70 72
ATOM     72  CG1 ILE E1023     -44.974  22.889  -0.855  1.00 39.61 LIG 0.00  C 
ATOM     73  CD1 ILE E1023     -44.606  21.743  -1.765  1.00 43.21 LIG 0.01  C 
ENDBRANCH 70 72
ENDBRANCH 42 70
ENDBRANCH 1 42
TORSDOF 26
ENDMDL
MODEL 21
USER: ADFR SOLUTION from run 142
USER: SCORE 22.613889 LL:  -5.983 LR: -17.632 RR:   0.000 FEB:  -9.876
USER: RMSD 3.247004
USER: SEED 141
USER: STATUS searching
USER: GENES 28
USER: genes 0 Translation |==|  0.48651 0.49123 0.41969
USER: genes 1 Rotation |==|  0.47594 0.48919 0.57668 0.99338
USER: genes 2 Torsion [N]-CA--C-[O] |==|  0.78985
USER: genes 3 Torsion [C]-N--CA-[CB] |==|  0.55233
USER: genes 4 Torsion [N]-CA--C-[N] |==|  0.35672
USER: genes 5 Torsion [C]-N--CA-[C] |==|  0.63101
USER: genes 6 Torsion [N]-CA--CB-[CG] |==|  0.44423
USER: genes 7 Torsion [CA]-CB--CG-[CD1] |==|  0.66907
USER: genes 8 Torsion [N]-CA--C-[N] |==|  0.29228
USER: genes 9 Torsion [C]-N--CA-[C] |==|  0.85705
USER: genes 10 Torsion [N]-CA--CB-[CG] |==|  0.73718
USER: genes 11 Torsion [CA]-CB--CG-[OD1] |==|  0.31203
USER: genes 12 Torsion [N]-CA--C-[O] |==|  0.22871
USER: genes 13 Torsion [N]-CA--CB-[CG2] |==|  0.41901
USER: genes 14 Torsion [CA]-CB--CG1-[CD1] |==|  0.67529
USER: genes 15 Torsion [N]-C--CA-[N] |==|  0.30575
USER: genes 16 Torsion [C]-CA--N-[C] |==|  0.68441
USER: genes 17 Torsion [N]-C--CA-[N] |==|  0.97017
USER: genes 18 Torsion [C]-CA--N-[C] |==|  0.81035
USER: genes 19 Torsion [N]-C--CA-[N] |==|  0.40658
USER: genes 20 Torsion [C]-CA--CB-[CG1] |==|  0.73708
USER: genes 21 Torsion [CA]-CB--CG1-[CD1] |==|  0.21478
USER: genes 22 Torsion [C]-CA--CB-[CG] |==|  0.81922
USER: genes 23 Torsion [CA]-CB--CG-[CD] |==|  0.36068
USER: genes 24 Torsion [CB]-CG--CD-[NE] |==|  0.72971
USER: genes 25 Torsion [CG]-CD--NE-[CZ] |==|  0.24755
USER: genes 26 Torsion [C]-CA--CB-[CG1] |==|  0.60732
USER: genes 27 Torsion [CA]-CB--CG1-[CD1] |==|  0.35706
ROOT
ATOM      1  C   ILE E1023     -48.558  24.826  -1.831  1.00 40.02 LIG 0.24  C 
ATOM      2 O    ILE E1023     -48.869  25.970  -2.196  1.00 38.38 LIG-0.27  OA
ATOM      3  N   PRO E1024     -49.300  24.103  -0.955  1.00 37.38 LIG-0.34  N 
ATOM      4  CA  PRO E1024     -50.451  24.733  -0.292  1.00 36.67 LIG 0.18  C 
ATOM      5  CB  PRO E1024     -51.215  23.550   0.296  1.00 38.74 LIG 0.04  C 
ATOM      6  CG  PRO E1024     -50.184  22.514   0.540  1.00 43.33 LIG 0.02  C 
ATOM      7  CD  PRO E1024     -49.058  22.739  -0.428  1.00 39.42 LIG 0.13  C 
ENDROOT
BRANCH 4 8
ATOM      8  C   PRO E1024     -49.941  25.677   0.790  1.00 39.60 LIG 0.24  C 
ATOM      9 O    PRO E1024     -49.517  25.205   1.844  1.00 37.18 LIG-0.27  OA
ATOM     10  N   ILE E1025     -49.953  26.995   0.505  1.00 37.20 LIG-0.35  N 
ATOM     11 H    ILE E1025     -50.248  27.288  -0.248  1.00 37.20 LIG 0.16  HD
BRANCH 10 12
ATOM     12  CA  ILE E1025     -49.491  28.083   1.378  1.00 37.42 LIG 0.18  C 
BRANCH 12 13
ATOM     13  C   ILE E1025     -50.022  27.900   2.797  1.00 40.88 LIG 0.24  C 
ATOM     14 O    ILE E1025     -51.240  27.918   2.985  1.00 40.29 LIG-0.27  OA
ATOM     15  N   PHE E1026     -49.137  27.947   3.812  1.00 36.23 LIG-0.35  N 
ATOM     16 H    PHE E1026     -48.283  27.921   3.711  1.00 36.23 LIG 0.16  HD
BRANCH 15 17
ATOM     17  CA  PHE E1026     -49.588  28.047   5.206  1.00 36.58 LIG 0.18  C 
BRANCH 17 18
ATOM     18  CB  PHE E1026     -49.462  26.713   5.936  1.00 38.58 LIG 0.07  C 
BRANCH 18 19
ATOM     19  CG  PHE E1026     -49.446  26.874   7.428  1.00 40.24 LIG-0.06  A 
ATOM     20  CD1 PHE E1026     -48.358  26.464   8.168  1.00 42.20 LIG 0.01  A 
ATOM     21  CE1 PHE E1026     -48.349  26.603   9.545  1.00 42.54 LIG 0.00  A 
ATOM     22  CZ  PHE E1026     -49.426  27.153  10.189  1.00 41.81 LIG 0.00  A 
ATOM     23  CE2 PHE E1026     -50.521  27.561   9.475  1.00 44.36 LIG 0.00  A 
ATOM     24  CD2 PHE E1026     -50.536  27.418   8.096  1.00 42.30 LIG 0.01  A 
ENDBRANCH 18 19
ENDBRANCH 17 18
BRANCH 17 25
ATOM     25  C   PHE E1026     -48.814  29.120   5.949  1.00 38.60 LIG 0.24  C 
ATOM     26  N   ASN E1027     -49.481  30.277   6.189  1.00 38.80 LIG-0.35  N 
ATOM     27 H    ASN E1027     -50.286  30.409   5.916  1.00 38.80 LIG 0.16  HD
ATOM     28 O    PHE E1026     -47.675  28.888   6.347  1.00 31.59 LIG-0.27  OA
BRANCH 26 29
ATOM     29  CA  ASN E1027     -48.930  31.422   6.923  1.00 74.37 LIG 0.17  C 
BRANCH 29 30
ATOM     30  CB  ASN E1027     -50.012  32.468   7.165  1.00 75.17 LIG 0.14  C 
BRANCH 30 31
ATOM     31  CG  ASN E1027     -50.036  33.552   6.116  1.00 99.64 LIG 0.22  C 
ATOM     32  ND2 ASN E1027     -49.006  34.393   6.075  1.00 92.55 LIG-0.37  N 
ATOM     33 22HD ASN E1027     -48.356  34.303   6.631  1.00 92.55 LIG 0.16  HD
ATOM     34 21HD ASN E1027     -48.991  35.027   5.494  1.00 92.55 LIG 0.16  HD
ATOM     35 OD1  ASN E1027     -50.983  33.655   5.333  1.00 94.01 LIG-0.27  OA
ENDBRANCH 30 31
ENDBRANCH 29 30
BRANCH 29 36
ATOM     36  C   ASN E1027     -48.360  30.963   8.264  1.00103.37 LIG 0.22  C 
ATOM     37 O    ASN E1027     -47.231  30.484   8.327  1.00 69.20 LIG-0.29  OA
ENDBRANCH 29 36
ENDBRANCH 26 29
ENDBRANCH 17 25
ENDBRANCH 15 17
ENDBRANCH 12 13
BRANCH 12 38
ATOM     38  CB  ILE E1025     -50.130  29.445   0.860  1.00 40.50 LIG 0.01  C 
ATOM     39  CG2 ILE E1025     -50.330  30.451   2.002  1.00 43.95 LIG 0.01  C 
BRANCH 38 40
ATOM     40  CG1 ILE E1025     -49.349  30.078  -0.292  1.00 41.58 LIG 0.00  C 
ATOM     41  CD1 ILE E1025     -48.731  31.532   0.092  1.00 52.05 LIG 0.01  C 
ENDBRANCH 38 40
ENDBRANCH 12 38
ENDBRANCH 10 12
ENDBRANCH 4 8
BRANCH 1 42
ATOM     42  CA  ILE E1023     -47.348  24.168  -2.470  1.00 36.06 LIG 0.18  C 
BRANCH 42 43
ATOM     43  N   ILE E1023     -47.679  23.962  -3.893  1.00 37.96 LIG-0.35  N 
ATOM     44  C   ARG E1022     -47.825  22.738  -4.442  1.00 45.42 LIG 0.24  C 
ATOM     45 O    ARG E1022     -47.619  21.694  -3.823  1.00 45.23 LIG-0.27  OA
ATOM     46 H    ILE E1023     -47.770  24.693  -4.337  1.00 37.96 LIG 0.16  HD
BRANCH 44 47
ATOM     47  CA  ARG E1022     -48.193  22.644  -5.924  1.00 45.59 LIG 0.18  C 
BRANCH 47 48
ATOM     48  N   ARG E1022     -48.587  23.938  -6.506  1.00 48.30 LIG-0.35  N 
ATOM     49 H    ARG E1022     -48.033  24.252  -7.083  1.00 48.30 LIG 0.16  HD
ATOM     50  C   ILE E1021     -49.732  24.559  -6.145  1.00 57.51 LIG 0.26  C 
ATOM     51 O    ILE E1021     -50.517  24.086  -5.314  1.00 59.03 LIG-0.27  OA
BRANCH 50 52
ATOM     52  CA  ILE E1021     -50.068  25.904  -6.812  1.00 57.59 LIG 0.40  C 
ATOM     53  N   ILE E1021     -51.517  26.005  -6.955  1.00 58.96 LIG 0.61  N 
BRANCH 52 54
ATOM     54  CB  ILE E1021     -49.604  27.125  -5.970  1.00 60.58 LIG 0.03  C 
ATOM     55  CG2 ILE E1021     -49.033  28.252  -6.826  1.00 61.37 LIG 0.01  C 
BRANCH 54 56
ATOM     56  CG1 ILE E1021     -50.759  27.643  -5.078  1.00 60.59 LIG 0.00  C 
ATOM     57  CD1 ILE E1021     -50.981  26.800  -3.879  1.00 60.15 LIG 0.01  C 
ENDBRANCH 54 56
ENDBRANCH 52 54
ENDBRANCH 50 52
ENDBRANCH 47 48
BRANCH 47 58
ATOM     58  CB  ARG E1022     -47.019  22.010  -6.680  1.00 44.33 LIG 0.04  C 
BRANCH 58 59
ATOM     59  CG  ARG E1022     -45.762  22.871  -6.666  1.00 47.73 LIG 0.02  C 
BRANCH 59 60
ATOM     60  CD  ARG E1022     -44.524  22.108  -6.243  1.00 47.87 LIG 0.14  C 
BRANCH 60 61
ATOM     61  NE  ARG E1022     -44.246  22.321  -4.824  1.00 55.98 LIG-0.23  N 
ATOM     62  CZ  ARG E1022     -44.717  21.597  -3.812  1.00 56.00 LIG 0.67  C 
ATOM     63  NH1 ARG E1022     -45.501  20.548  -4.039  1.00 48.69 LIG-0.23  N 
ATOM     64  NH2 ARG E1022     -44.381  21.894  -2.566  1.00 32.20 LIG-0.23  N 
ATOM     65 1HH1 ARG E1022     -45.708  20.333  -4.846  1.00 48.69 LIG 0.17  HD
ATOM     66 2HH1 ARG E1022     -45.801  20.086  -3.380  1.00 48.69 LIG 0.17  HD
ATOM     67 2HH2 ARG E1022     -44.687  21.423  -1.915  1.00 32.20 LIG 0.17  HD
ATOM     68 1HH2 ARG E1022     -43.856  22.557  -2.408  1.00 32.20 LIG 0.17  HD
ATOM     69 HE   ARG E1022     -43.727  22.978  -4.623  1.00 55.98 LIG 0.18  HD
ENDBRANCH 60 61
ENDBRANCH 59 60
ENDBRANCH 58 59
ENDBRANCH 47 58
ENDBRANCH 44 47
ENDBRANCH 42 43
BRANCH 42 70
ATOM     70  CB  ILE E1023     -46.091  25.075  -2.257  1.00 38.78 LIG 0.01  C 
ATOM     71  CG2 ILE E1023     -45.335  24.664  -0.984  1.00 39.01 LIG 0.01  C 
BRANCH 70 72
ATOM     72  CG1 ILE E1023     -45.141  25.115  -3.492  1.00 39.61 LIG 0.00  C 
ATOM     73  CD1 ILE E1023     -44.736  26.471  -4.012  1.00 43.21 LIG 0.01  C 
ENDBRANCH 70 72
ENDBRANCH 42 70
ENDBRANCH 1 42
TORSDOF 26
ENDMDL
MODEL 22
USER: ADFR SOLUTION from run 102
USER: SCORE 22.529441 LL:  -6.071 LR: -17.630 RR:   0.000 FEB:  -9.874
USER: RMSD 2.887590
USER: SEED 101
USER: STATUS no improvement in best in 11 clusters for 5 generations
USER: GENES 28
USER: genes 0 Translation |==|  0.51453 0.46871 0.42106
USER: genes 1 Rotation |==|  0.45289 0.45898 0.52567 0.99542
USER: genes 2 Torsion [N]-CA--C-[O] |==|  0.85655
USER: genes 3 Torsion [C]-N--CA-[CB] |==|  0.50558
USER: genes 4 Torsion [N]-CA--C-[N] |==|  0.37438
USER: genes 5 Torsion [C]-N--CA-[C] |==|  0.53333
USER: genes 6 Torsion [N]-CA--CB-[CG] |==|  0.16018
USER: genes 7 Torsion [CA]-CB--CG-[CD1] |==|  0.23973
USER: genes 8 Torsion [N]-CA--C-[N] |==|  0.45216
USER: genes 9 Torsion [C]-N--CA-[C] |==|  0.18112
USER: genes 10 Torsion [N]-CA--CB-[CG] |==|  0.80881
USER: genes 11 Torsion [CA]-CB--CG-[OD1] |==|  0.02022
USER: genes 12 Torsion [N]-CA--C-[O] |==|  0.14170
USER: genes 13 Torsion [N]-CA--CB-[CG2] |==|  0.39594
USER: genes 14 Torsion [CA]-CB--CG1-[CD1] |==|  0.60841
USER: genes 15 Torsion [N]-C--CA-[N] |==|  0.31194
USER: genes 16 Torsion [C]-CA--N-[C] |==|  0.64426
USER: genes 17 Torsion [N]-C--CA-[N] |==|  0.97369
USER: genes 18 Torsion [C]-CA--N-[C] |==|  0.80437
USER: genes 19 Torsion [N]-C--CA-[N] |==|  0.40916
USER: genes 20 Torsion [C]-CA--CB-[CG1] |==|  0.71395
USER: genes 21 Torsion [CA]-CB--CG1-[CD1] |==|  0.29440
USER: genes 22 Torsion [C]-CA--CB-[CG] |==|  0.44982
USER: genes 23 Torsion [CA]-CB--CG-[CD] |==|  0.70609
USER: genes 24 Torsion [CB]-CG--CD-[NE] |==|  0.72768
USER: genes 25 Torsion [CG]-CD--NE-[CZ] |==|  0.47685
USER: genes 26 Torsion [C]-CA--CB-[CG1] |==|  0.65795
USER: genes 27 Torsion [CA]-CB--CG1-[CD1] |==|  0.26722
ROOT
ATOM      1  C   ILE E1023     -48.138  24.302  -1.792  1.00 40.02 LIG 0.24  C 
ATOM      2 O    ILE E1023     -48.159  25.451  -2.259  1.00 38.38 LIG-0.27  OA
ATOM      3  N   PRO E1024     -49.122  23.809  -0.998  1.00 37.38 LIG-0.34  N 
ATOM      4  CA  PRO E1024     -50.201  24.700  -0.548  1.00 36.67 LIG 0.18  C 
ATOM      5  CB  PRO E1024     -51.261  23.738  -0.019  1.00 38.74 LIG 0.04  C 
ATOM      6  CG  PRO E1024     -50.502  22.547   0.430  1.00 43.33 LIG 0.02  C 
ATOM      7  CD  PRO E1024     -49.234  22.472  -0.371  1.00 39.42 LIG 0.13  C 
ENDROOT
BRANCH 4 8
ATOM      8  C   PRO E1024     -49.662  25.613   0.546  1.00 39.60 LIG 0.24  C 
ATOM      9 O    PRO E1024     -49.077  25.115   1.507  1.00 37.18 LIG-0.27  OA
ATOM     10  N   ILE E1025     -49.832  26.940   0.372  1.00 37.20 LIG-0.35  N 
ATOM     11 H    ILE E1025     -50.239  27.253  -0.318  1.00 37.20 LIG 0.16  HD
BRANCH 10 12
ATOM     12  CA  ILE E1025     -49.379  28.006   1.276  1.00 37.42 LIG 0.18  C 
BRANCH 12 13
ATOM     13  C   ILE E1025     -50.065  27.891   2.635  1.00 40.88 LIG 0.24  C 
ATOM     14 O    ILE E1025     -51.296  27.888   2.682  1.00 40.29 LIG-0.27  OA
ATOM     15  N   PHE E1026     -49.302  28.020   3.739  1.00 36.23 LIG-0.35  N 
ATOM     16 H    PHE E1026     -48.442  28.012   3.737  1.00 36.23 LIG 0.16  HD
BRANCH 15 17
ATOM     17  CA  PHE E1026     -49.912  28.188   5.065  1.00 36.58 LIG 0.18  C 
BRANCH 17 18
ATOM     18  CB  PHE E1026     -50.621  26.918   5.524  1.00 38.58 LIG 0.07  C 
BRANCH 18 19
ATOM     19  CG  PHE E1026     -49.703  25.732   5.567  1.00 40.24 LIG-0.06  A 
ATOM     20  CD1 PHE E1026     -48.942  25.473   6.687  1.00 42.20 LIG 0.01  A 
ATOM     21  CE1 PHE E1026     -48.087  24.385   6.721  1.00 42.54 LIG 0.00  A 
ATOM     22  CZ  PHE E1026     -47.989  23.551   5.638  1.00 41.81 LIG 0.00  A 
ATOM     23  CE2 PHE E1026     -48.731  23.793   4.513  1.00 44.36 LIG 0.00  A 
ATOM     24  CD2 PHE E1026     -49.584  24.885   4.473  1.00 42.30 LIG 0.01  A 
ENDBRANCH 18 19
ENDBRANCH 17 18
BRANCH 17 25
ATOM     25  C   PHE E1026     -48.872  28.602   6.089  1.00 38.60 LIG 0.24  C 
ATOM     26  N   ASN E1027     -49.350  29.134   7.242  1.00 38.80 LIG-0.35  N 
ATOM     27 H    ASN E1027     -50.191  29.254   7.379  1.00 38.80 LIG 0.16  HD
ATOM     28 O    PHE E1026     -47.681  28.390   5.871  1.00 31.59 LIG-0.27  OA
BRANCH 26 29
ATOM     29  CA  ASN E1027     -48.518  29.560   8.373  1.00 74.37 LIG 0.17  C 
BRANCH 29 30
ATOM     30  CB  ASN E1027     -47.635  28.410   8.845  1.00 75.17 LIG 0.14  C 
BRANCH 30 31
ATOM     31  CG  ASN E1027     -48.411  27.293   9.497  1.00 99.64 LIG 0.22  C 
ATOM     32  ND2 ASN E1027     -47.718  26.310  10.065  1.00 92.55 LIG-0.37  N 
ATOM     33 22HD ASN E1027     -46.858  26.330  10.057  1.00 92.55 LIG 0.16  HD
ATOM     34 21HD ASN E1027     -48.129  25.654  10.440  1.00 92.55 LIG 0.16  HD
ATOM     35 OD1  ASN E1027     -49.644  27.292   9.493  1.00 94.01 LIG-0.27  OA
ENDBRANCH 30 31
ENDBRANCH 29 30
BRANCH 29 36
ATOM     36  C   ASN E1027     -47.638  30.740   7.965  1.00103.37 LIG 0.22  C 
ATOM     37 O    ASN E1027     -48.133  31.725   7.424  1.00 69.20 LIG-0.29  OA
ENDBRANCH 29 36
ENDBRANCH 26 29
ENDBRANCH 17 25
ENDBRANCH 15 17
ENDBRANCH 12 13
BRANCH 12 38
ATOM     38  CB  ILE E1025     -49.852  29.403   0.680  1.00 40.50 LIG 0.01  C 
ATOM     39  CG2 ILE E1025     -50.284  30.377   1.785  1.00 43.95 LIG 0.01  C 
BRANCH 38 40
ATOM     40  CG1 ILE E1025     -48.816  30.049  -0.239  1.00 41.58 LIG 0.00  C 
ATOM     41  CD1 ILE E1025     -48.727  31.661  -0.050  1.00 52.05 LIG 0.01  C 
ENDBRANCH 38 40
ENDBRANCH 12 38
ENDBRANCH 10 12
ENDBRANCH 4 8
BRANCH 1 42
ATOM     42  CA  ILE E1023     -47.011  23.374  -2.208  1.00 36.06 LIG 0.18  C 
BRANCH 42 43
ATOM     43  N   ILE E1023     -47.149  23.165  -3.662  1.00 37.96 LIG-0.35  N 
ATOM     44  C   ARG E1022     -47.182  21.938  -4.227  1.00 45.42 LIG 0.24  C 
ATOM     45 O    ARG E1022     -47.021  20.899  -3.587  1.00 45.23 LIG-0.27  OA
ATOM     46 H    ILE E1023     -47.207  23.894  -4.114  1.00 37.96 LIG 0.16  HD
BRANCH 44 47
ATOM     47  CA  ARG E1022     -47.353  21.840  -5.743  1.00 45.59 LIG 0.18  C 
BRANCH 47 48
ATOM     48  N   ARG E1022     -47.683  23.129  -6.374  1.00 48.30 LIG-0.35  N 
ATOM     49 H    ARG E1022     -47.052  23.463  -6.851  1.00 48.30 LIG 0.16  HD
ATOM     50  C   ILE E1021     -48.889  23.715  -6.200  1.00 57.51 LIG 0.26  C 
ATOM     51 O    ILE E1021     -49.785  23.212  -5.510  1.00 59.03 LIG-0.27  OA
BRANCH 50 52
ATOM     52  CA  ILE E1021     -49.150  25.057  -6.905  1.00 57.59 LIG 0.40  C 
ATOM     53  N   ILE E1021     -50.564  25.131  -7.261  1.00 58.96 LIG 0.61  N 
BRANCH 52 54
ATOM     54  CB  ILE E1021     -48.841  26.282  -5.999  1.00 60.58 LIG 0.03  C 
ATOM     55  CG2 ILE E1021     -47.996  27.340  -6.702  1.00 61.37 LIG 0.01  C 
BRANCH 54 56
ATOM     56  CG1 ILE E1021     -50.152  26.899  -5.452  1.00 60.59 LIG 0.00  C 
ATOM     57  CD1 ILE E1021     -50.373  26.597  -4.017  1.00 60.15 LIG 0.01  C 
ENDBRANCH 54 56
ENDBRANCH 52 54
ENDBRANCH 50 52
ENDBRANCH 47 48
BRANCH 47 58
ATOM     58  CB  ARG E1022     -46.083  21.220  -6.339  1.00 44.33 LIG 0.04  C 
BRANCH 58 59
ATOM     59  CG  ARG E1022     -46.287  20.672  -7.746  1.00 47.73 LIG 0.02  C 
BRANCH 59 60
ATOM     60  CD  ARG E1022     -46.344  19.159  -7.792  1.00 47.87 LIG 0.14  C 
BRANCH 60 61
ATOM     61  NE  ARG E1022     -45.047  18.605  -8.175  1.00 55.98 LIG-0.23  N 
ATOM     62  CZ  ARG E1022     -44.705  17.319  -8.160  1.00 56.00 LIG 0.67  C 
ATOM     63  NH1 ARG E1022     -45.584  16.390  -7.799  1.00 48.69 LIG-0.23  N 
ATOM     64  NH2 ARG E1022     -43.492  16.947  -8.539  1.00 32.20 LIG-0.23  N 
ATOM     65 1HH1 ARG E1022     -46.382  16.618  -7.572  1.00 48.69 LIG 0.17  HD
ATOM     66 2HH1 ARG E1022     -45.356  15.561  -7.793  1.00 48.69 LIG 0.17  HD
ATOM     67 2HH2 ARG E1022     -43.275  16.115  -8.529  1.00 32.20 LIG 0.17  HD
ATOM     68 1HH2 ARG E1022     -42.922  17.537  -8.796  1.00 32.20 LIG 0.17  HD
ATOM     69 HE   ARG E1022     -44.446  19.163  -8.434  1.00 55.98 LIG 0.18  HD
ENDBRANCH 60 61
ENDBRANCH 59 60
ENDBRANCH 58 59
ENDBRANCH 47 58
ENDBRANCH 44 47
ENDBRANCH 42 43
BRANCH 42 70
ATOM     70  CB  ILE E1023     -45.639  24.011  -1.808  1.00 38.78 LIG 0.01  C 
ATOM     71  CG2 ILE E1023     -44.981  23.213  -0.672  1.00 39.01 LIG 0.01  C 
BRANCH 70 72
ATOM     72  CG1 ILE E1023     -44.666  24.190  -3.012  1.00 39.61 LIG 0.00  C 
ATOM     73  CD1 ILE E1023     -44.632  25.542  -3.682  1.00 43.21 LIG 0.01  C 
ENDBRANCH 70 72
ENDBRANCH 42 70
ENDBRANCH 1 42
TORSDOF 26
ENDMDL
