MODEL 1
USER: ADFR SOLUTION from run 122
USER: SCORE 13.296663 LL:  -2.083 LR: -12.959 RR:   0.000 FEB:  -9.677
USER: RMSD 3.685851
USER: SEED 121
USER: STATUS no improvement in best in 4 clusters for 5 generations
USER: GENES 13
USER: genes 0 Translation |==|  0.50535 0.37950 0.53260
USER: genes 1 Rotation |==|  0.63226 0.69476 0.06874 0.59267
USER: genes 2 Torsion [C]-N--CA-[CB] |==|  0.18476
USER: genes 3 Torsion [N]-CA--C-[N] |==|  0.53893
USER: genes 4 Torsion [C]-N--CA-[CB] |==|  0.80740
USER: genes 5 Torsion [N]-CA--C-[N] |==|  0.22524
USER: genes 6 Torsion [C]-N--CA-[CB] |==|  0.37703
USER: genes 7 Torsion [N]-CA--C-[O] |==|  0.13072
USER: genes 8 Torsion [N]-C--CA-[N] |==|  0.38696
USER: genes 9 Torsion [C]-CA--N-[C] |==|  0.71990
USER: genes 10 Torsion [N]-C--CA-[N] |==|  0.34320
USER: genes 11 Torsion [C]-CA--N-[C] |==|  0.63323
USER: genes 12 Torsion [N]-C--CA-[N] |==|  0.34592
ROOT
ATOM      1  C   ALA Q  12      70.676  62.073  29.081  1.00 25.44 LIG 0.24  C 
ATOM      2 O    ALA Q  12      70.280  61.086  28.478  1.00 27.01 LIG-0.27  OA
ATOM      3  N   ALA Q  13      71.074  62.058  30.348  1.00 26.02 LIG-0.35  N 
ATOM      4 H    ALA Q  13      71.450  62.718  30.751  1.00 26.02 LIG 0.16  HD
ENDROOT
BRANCH 3 5
ATOM      5  CA  ALA Q  13      70.882  60.849  31.170  1.00 27.66 LIG 0.17  C 
ATOM      6  CB  ALA Q  13      71.759  59.722  30.626  1.00 60.60 LIG 0.04  C 
BRANCH 5 7
ATOM      7  C   ALA Q  13      71.166  61.056  32.647  1.00 27.27 LIG 0.24  C 
ATOM      8 O    ALA Q  13      71.323  62.182  33.110  1.00 28.73 LIG-0.27  OA
ATOM      9  N   ALA Q  14      71.289  59.925  33.373  1.00 28.35 LIG-0.35  N 
ATOM     10 H    ALA Q  14      71.105  59.145  33.061  1.00 28.35 LIG 0.16  HD
BRANCH 9 11
ATOM     11  CA  ALA Q  14      71.742  59.909  34.754  1.00 39.95 LIG 0.17  C 
ATOM     12  CB  ALA Q  14      73.241  60.281  34.822  1.00 41.42 LIG 0.04  C 
BRANCH 11 13
ATOM     13  C   ALA Q  14      70.904  60.947  35.524  1.00 39.71 LIG 0.24  C 
ATOM     14  N   ALA Q  15      69.692  60.598  35.933  1.00 43.67 LIG-0.35  N 
ATOM     15 H    ALA Q  15      69.164  61.129  36.355  1.00 43.67 LIG 0.16  HD
ATOM     16 O    ALA Q  14      71.338  62.065  35.718  1.00 40.63 LIG-0.27  OA
BRANCH 14 17
ATOM     17  CA  ALA Q  15      69.139  59.285  35.708  1.00 45.40 LIG 0.16  C 
ATOM     18  CB  ALA Q  15      68.474  58.796  36.956  1.00 35.52 LIG 0.04  C 
BRANCH 17 19
ATOM     19  C   ALA Q  15      68.154  59.311  34.533  1.00 34.39 LIG 0.22  C 
ATOM     20 O    ALA Q  15      68.448  59.867  33.468  1.00 56.10 LIG-0.29  OA
ENDBRANCH 17 19
ENDBRANCH 14 17
ENDBRANCH 11 13
ENDBRANCH 9 11
ENDBRANCH 5 7
ENDBRANCH 3 5
BRANCH 1 21
ATOM     21  CA  ALA Q  12      70.810  63.398  28.361  1.00 23.65 LIG 0.17  C 
ATOM     22  CB  ALA Q  12      69.485  64.111  28.273  1.00 43.19 LIG 0.04  C 
BRANCH 21 23
ATOM     23  N   ALA Q  12      71.284  63.071  27.038  1.00 32.95 LIG-0.35  N 
ATOM     24  C   ALA Q  11      72.567  63.221  26.747  1.00 38.70 LIG 0.24  C 
ATOM     25 O    ALA Q  11      73.374  63.672  27.550  1.00 30.98 LIG-0.27  OA
ATOM     26 H    ALA Q  12      70.684  62.786  26.491  1.00 32.95 LIG 0.16  HD
BRANCH 24 27
ATOM     27  CA  ALA Q  11      72.989  62.829  25.339  1.00 33.56 LIG 0.17  C 
ATOM     28  CB  ALA Q  11      73.897  61.620  25.416  1.00 29.51 LIG 0.04  C 
BRANCH 27 29
ATOM     29  N   ALA Q  11      73.649  63.941  24.635  1.00 33.00 LIG-0.35  N 
ATOM     30  C   ALA Q  10      73.306  64.286  23.392  1.00 40.76 LIG 0.26  C 
ATOM     31 O    ALA Q  10      72.474  63.674  22.725  1.00 37.65 LIG-0.27  OA
ATOM     32 H    ALA Q  11      74.261  64.337  25.092  1.00 33.00 LIG 0.16  HD
BRANCH 30 33
ATOM     33  CA  ALA Q  10      74.003  65.499  22.793  1.00 39.75 LIG 0.40  C 
ATOM     34  CB  ALA Q  10      73.003  66.628  22.608  1.00 33.57 LIG 0.06  C 
ATOM     35  N   ALA Q  10      74.649  65.173  21.531  1.00 55.55 LIG 0.61  N 
ENDBRANCH 30 33
ENDBRANCH 27 29
ENDBRANCH 24 27
ENDBRANCH 21 23
ENDBRANCH 1 21
TORSDOF 11
ENDMDL
MODEL 2
USER: ADFR SOLUTION from run 4
USER: SCORE 10.645400 LL:  -2.367 LR: -12.087 RR:   0.000 FEB:  -8.806
USER: RMSD 2.834269
USER: SEED 543985
USER: STATUS no improvement in best in 6 clusters for 5 generations
USER: GENES 13
USER: genes 0 Translation |==|  0.61270 0.41673 0.44089
USER: genes 1 Rotation |==|  0.49181 0.42628 0.46081 0.99291
USER: genes 2 Torsion [C]-N--CA-[CB] |==|  0.38410
USER: genes 3 Torsion [N]-CA--C-[N] |==|  0.31772
USER: genes 4 Torsion [C]-N--CA-[CB] |==|  0.35578
USER: genes 5 Torsion [N]-CA--C-[N] |==|  0.26125
USER: genes 6 Torsion [C]-N--CA-[CB] |==|  0.32961
USER: genes 7 Torsion [N]-CA--C-[O] |==|  0.31567
USER: genes 8 Torsion [N]-C--CA-[N] |==|  0.34452
USER: genes 9 Torsion [C]-CA--N-[C] |==|  0.81160
USER: genes 10 Torsion [N]-C--CA-[N] |==|  0.13585
USER: genes 11 Torsion [C]-CA--N-[C] |==|  0.13314
USER: genes 12 Torsion [N]-C--CA-[N] |==|  0.32925
ROOT
ATOM      1  C   ALA Q  12      72.448  62.799  27.224  1.00 25.44 LIG 0.24  C 
ATOM      2 O    ALA Q  12      73.154  63.460  27.972  1.00 27.01 LIG-0.27  OA
ATOM      3  N   ALA Q  13      71.182  62.491  27.481  1.00 26.02 LIG-0.35  N 
ATOM      4 H    ALA Q  13      70.645  62.119  26.921  1.00 26.02 LIG 0.16  HD
ENDROOT
BRANCH 3 5
ATOM      5  CA  ALA Q  13      70.601  62.786  28.803  1.00 27.66 LIG 0.17  C 
ATOM      6  CB  ALA Q  13      69.188  63.338  28.624  1.00 60.60 LIG 0.04  C 
BRANCH 5 7
ATOM      7  C   ALA Q  13      70.573  61.593  29.744  1.00 27.27 LIG 0.24  C 
ATOM      8 O    ALA Q  13      69.838  60.634  29.528  1.00 28.73 LIG-0.27  OA
ATOM      9  N   ALA Q  14      71.357  61.705  30.836  1.00 28.35 LIG-0.35  N 
ATOM     10 H    ALA Q  14      71.924  62.343  30.945  1.00 28.35 LIG 0.16  HD
BRANCH 9 11
ATOM     11  CA  ALA Q  14      71.325  60.758  31.940  1.00 39.95 LIG 0.17  C 
ATOM     12  CB  ALA Q  14      72.755  60.258  32.247  1.00 41.42 LIG 0.04  C 
BRANCH 11 13
ATOM     13  C   ALA Q  14      70.749  61.499  33.162  1.00 39.71 LIG 0.24  C 
ATOM     14  N   ALA Q  15      69.448  61.408  33.395  1.00 43.67 LIG-0.35  N 
ATOM     15 H    ALA Q  15      69.056  61.805  34.050  1.00 43.67 LIG 0.16  HD
ATOM     16 O    ALA Q  14      71.472  62.173  33.869  1.00 40.63 LIG-0.27  OA
BRANCH 14 17
ATOM     17  CA  ALA Q  15      68.557  60.629  32.570  1.00 45.40 LIG 0.16  C 
ATOM     18  CB  ALA Q  15      67.923  59.549  33.390  1.00 35.52 LIG 0.04  C 
BRANCH 17 19
ATOM     19  C   ALA Q  15      67.495  61.529  31.927  1.00 34.39 LIG 0.22  C 
ATOM     20 O    ALA Q  15      67.468  61.706  30.704  1.00 56.10 LIG-0.29  OA
ENDBRANCH 17 19
ENDBRANCH 14 17
ENDBRANCH 11 13
ENDBRANCH 9 11
ENDBRANCH 5 7
ENDBRANCH 3 5
BRANCH 1 21
ATOM     21  CA  ALA Q  12      72.980  62.348  25.880  1.00 23.65 LIG 0.17  C 
ATOM     22  CB  ALA Q  12      74.100  61.352  26.040  1.00 43.19 LIG 0.04  C 
BRANCH 21 23
ATOM     23  N   ALA Q  12      73.470  63.544  25.239  1.00 32.95 LIG-0.35  N 
ATOM     24  C   ALA Q  11      72.613  64.481  24.861  1.00 38.70 LIG 0.24  C 
ATOM     25 O    ALA Q  11      71.403  64.356  24.995  1.00 30.98 LIG-0.27  OA
ATOM     26 H    ALA Q  12      74.323  63.584  25.134  1.00 32.95 LIG 0.16  HD
BRANCH 24 27
ATOM     27  CA  ALA Q  11      73.213  65.722  24.216  1.00 33.56 LIG 0.17  C 
ATOM     28  CB  ALA Q  11      72.093  66.584  23.675  1.00 29.51 LIG 0.04  C 
BRANCH 27 29
ATOM     29  N   ALA Q  11      74.174  65.378  23.156  1.00 33.00 LIG-0.35  N 
ATOM     30  C   ALA Q  10      73.885  64.481  22.211  1.00 40.76 LIG 0.26  C 
ATOM     31 O    ALA Q  10      72.838  63.835  22.189  1.00 37.65 LIG-0.27  OA
ATOM     32 H    ALA Q  11      74.921  65.802  23.204  1.00 33.00 LIG 0.16  HD
BRANCH 30 33
ATOM     33  CA  ALA Q  10      74.925  64.262  21.122  1.00 39.75 LIG 0.40  C 
ATOM     34  CB  ALA Q  10      74.338  64.625  19.768  1.00 33.57 LIG 0.06  C 
ATOM     35  N   ALA Q  10      75.412  62.891  21.119  1.00 55.55 LIG 0.61  N 
ENDBRANCH 30 33
ENDBRANCH 27 29
ENDBRANCH 24 27
ENDBRANCH 21 23
ENDBRANCH 1 21
TORSDOF 11
ENDMDL
MODEL 3
USER: ADFR SOLUTION from run 91
USER: SCORE 12.119532 LL:  -2.214 LR: -12.006 RR:   0.000 FEB:  -8.725
USER: RMSD 3.541672
USER: SEED 90
USER: STATUS no improvement in best in 8 clusters for 5 generations
USER: GENES 13
USER: genes 0 Translation |==|  0.59514 0.40836 0.45570
USER: genes 1 Rotation |==|  0.51709 0.44108 0.48262 0.99592
USER: genes 2 Torsion [C]-N--CA-[CB] |==|  0.43919
USER: genes 3 Torsion [N]-CA--C-[N] |==|  0.35884
USER: genes 4 Torsion [C]-N--CA-[CB] |==|  0.53333
USER: genes 5 Torsion [N]-CA--C-[N] |==|  0.33738
USER: genes 6 Torsion [C]-N--CA-[CB] |==|  0.32369
USER: genes 7 Torsion [N]-CA--C-[O] |==|  0.88272
USER: genes 8 Torsion [N]-C--CA-[N] |==|  0.34953
USER: genes 9 Torsion [C]-CA--N-[C] |==|  0.79087
USER: genes 10 Torsion [N]-C--CA-[N] |==|  0.13909
USER: genes 11 Torsion [C]-CA--N-[C] |==|  0.12784
USER: genes 12 Torsion [N]-C--CA-[N] |==|  0.29051
ROOT
ATOM      1  C   ALA Q  12      72.158  62.636  27.524  1.00 25.44 LIG 0.24  C 
ATOM      2 O    ALA Q  12      72.839  63.297  28.295  1.00 27.01 LIG-0.27  OA
ATOM      3  N   ALA Q  13      70.945  62.178  27.812  1.00 26.02 LIG-0.35  N 
ATOM      4 H    ALA Q  13      70.416  61.803  27.247  1.00 26.02 LIG 0.16  HD
ENDROOT
BRANCH 3 5
ATOM      5  CA  ALA Q  13      70.417  62.292  29.183  1.00 27.66 LIG 0.17  C 
ATOM      6  CB  ALA Q  13      68.891  62.217  29.145  1.00 60.60 LIG 0.04  C 
BRANCH 5 7
ATOM      7  C   ALA Q  13      70.961  61.248  30.143  1.00 27.27 LIG 0.24  C 
ATOM      8 O    ALA Q  13      70.892  60.051  29.881  1.00 28.73 LIG-0.27  OA
ATOM      9  N   ALA Q  14      71.454  61.734  31.301  1.00 28.35 LIG-0.35  N 
ATOM     10 H    ALA Q  14      71.567  62.574  31.448  1.00 28.35 LIG 0.16  HD
BRANCH 9 11
ATOM     11  CA  ALA Q  14      71.845  60.889  32.418  1.00 39.95 LIG 0.17  C 
ATOM     12  CB  ALA Q  14      72.078  61.753  33.678  1.00 41.42 LIG 0.04  C 
BRANCH 11 13
ATOM     13  C   ALA Q  14      70.695  59.893  32.663  1.00 39.71 LIG 0.24  C 
ATOM     14  N   ALA Q  15      70.961  58.597  32.590  1.00 43.67 LIG-0.35  N 
ATOM     15 H    ALA Q  15      70.367  57.986  32.702  1.00 43.67 LIG 0.16  HD
ATOM     16 O    ALA Q  14      69.571  60.296  32.887  1.00 40.63 LIG-0.27  OA
BRANCH 14 17
ATOM     17  CA  ALA Q  15      72.280  58.082  32.313  1.00 45.40 LIG 0.16  C 
ATOM     18  CB  ALA Q  15      72.772  57.296  33.487  1.00 35.52 LIG 0.04  C 
BRANCH 17 19
ATOM     19  C   ALA Q  15      72.267  57.226  31.041  1.00 34.39 LIG 0.22  C 
ATOM     20 O    ALA Q  15      71.349  56.427  30.822  1.00 56.10 LIG-0.29  OA
ENDBRANCH 17 19
ENDBRANCH 14 17
ENDBRANCH 11 13
ENDBRANCH 9 11
ENDBRANCH 5 7
ENDBRANCH 3 5
BRANCH 1 21
ATOM     21  CA  ALA Q  12      72.653  62.363  26.119  1.00 23.65 LIG 0.17  C 
ATOM     22  CB  ALA Q  12      73.847  61.443  26.128  1.00 43.19 LIG 0.04  C 
BRANCH 21 23
ATOM     23  N   ALA Q  12      73.025  63.651  25.586  1.00 32.95 LIG-0.35  N 
ATOM     24  C   ALA Q  11      72.082  64.499  25.204  1.00 38.70 LIG 0.24  C 
ATOM     25 O    ALA Q  11      70.891  64.217  25.246  1.00 30.98 LIG-0.27  OA
ATOM     26 H    ALA Q  12      73.872  63.802  25.543  1.00 32.95 LIG 0.16  HD
BRANCH 24 27
ATOM     27  CA  ALA Q  11      72.558  65.844  24.677  1.00 33.56 LIG 0.17  C 
ATOM     28  CB  ALA Q  11      71.368  66.609  24.137  1.00 29.51 LIG 0.04  C 
BRANCH 27 29
ATOM     29  N   ALA Q  11      73.599  65.693  23.649  1.00 33.00 LIG-0.35  N 
ATOM     30  C   ALA Q  10      73.478  64.812  22.652  1.00 40.76 LIG 0.26  C 
ATOM     31 O    ALA Q  10      72.536  64.029  22.552  1.00 37.65 LIG-0.27  OA
ATOM     32 H    ALA Q  11      74.277  66.214  23.750  1.00 33.00 LIG 0.16  HD
BRANCH 30 33
ATOM     33  CA  ALA Q  10      74.581  64.797  21.604  1.00 39.75 LIG 0.40  C 
ATOM     34  CB  ALA Q  10      73.970  64.798  20.213  1.00 33.57 LIG 0.06  C 
ATOM     35  N   ALA Q  10      75.463  63.652  21.776  1.00 55.55 LIG 0.61  N 
ENDBRANCH 30 33
ENDBRANCH 27 29
ENDBRANCH 24 27
ENDBRANCH 21 23
ENDBRANCH 1 21
TORSDOF 11
ENDMDL
MODEL 4
USER: ADFR SOLUTION from run 54
USER: SCORE 12.394649 LL:  -2.076 LR: -11.979 RR:   0.000 FEB:  -8.698
USER: RMSD 3.224438
USER: SEED 53
USER: STATUS no improvement in best in 4 clusters for 5 generations
USER: GENES 13
USER: genes 0 Translation |==|  0.67697 0.36463 0.39573
USER: genes 1 Rotation |==|  0.39752 0.48014 0.48365 0.98871
USER: genes 2 Torsion [C]-N--CA-[CB] |==|  0.23340
USER: genes 3 Torsion [N]-CA--C-[N] |==|  0.41148
USER: genes 4 Torsion [C]-N--CA-[CB] |==|  0.85554
USER: genes 5 Torsion [N]-CA--C-[N] |==|  0.44945
USER: genes 6 Torsion [C]-N--CA-[CB] |==|  0.43644
USER: genes 7 Torsion [N]-CA--C-[O] |==|  0.24861
USER: genes 8 Torsion [N]-C--CA-[N] |==|  0.40615
USER: genes 9 Torsion [C]-CA--N-[C] |==|  0.55000
USER: genes 10 Torsion [N]-C--CA-[N] |==|  0.89366
USER: genes 11 Torsion [C]-CA--N-[C] |==|  0.84743
USER: genes 12 Torsion [N]-C--CA-[N] |==|  0.32995
ROOT
ATOM      1  C   ALA Q  12      73.508  61.783  26.309  1.00 25.44 LIG 0.24  C 
ATOM      2 O    ALA Q  12      74.317  62.659  26.580  1.00 27.01 LIG-0.27  OA
ATOM      3  N   ALA Q  13      72.361  61.609  26.955  1.00 26.02 LIG-0.35  N 
ATOM      4 H    ALA Q  13      71.739  61.068  26.712  1.00 26.02 LIG 0.16  HD
ENDROOT
BRANCH 3 5
ATOM      5  CA  ALA Q  13      72.080  62.373  28.184  1.00 27.66 LIG 0.17  C 
ATOM      6  CB  ALA Q  13      71.518  63.744  27.811  1.00 60.60 LIG 0.04  C 
BRANCH 5 7
ATOM      7  C   ALA Q  13      71.133  61.672  29.143  1.00 27.27 LIG 0.24  C 
ATOM      8 O    ALA Q  13      70.213  60.974  28.727  1.00 28.73 LIG-0.27  OA
ATOM      9  N   ALA Q  14      71.349  61.926  30.451  1.00 28.35 LIG-0.35  N 
ATOM     10 H    ALA Q  14      72.036  62.354  30.739  1.00 28.35 LIG 0.16  HD
BRANCH 9 11
ATOM     11  CA  ALA Q  14      70.441  61.502  31.505  1.00 39.95 LIG 0.17  C 
ATOM     12  CB  ALA Q  14      69.002  61.963  31.179  1.00 41.42 LIG 0.04  C 
BRANCH 11 13
ATOM     13  C   ALA Q  14      70.502  59.964  31.572  1.00 39.71 LIG 0.24  C 
ATOM     14  N   ALA Q  15      70.060  59.365  32.668  1.00 43.67 LIG-0.35  N 
ATOM     15 H    ALA Q  15      70.076  58.512  32.780  1.00 43.67 LIG 0.16  HD
ATOM     16 O    ALA Q  14      70.975  59.328  30.651  1.00 40.63 LIG-0.27  OA
BRANCH 14 17
ATOM     17  CA  ALA Q  15      69.505  60.088  33.786  1.00 45.40 LIG 0.16  C 
ATOM     18  CB  ALA Q  15      68.619  59.184  34.583  1.00 35.52 LIG 0.04  C 
BRANCH 17 19
ATOM     19  C   ALA Q  15      70.624  60.672  34.657  1.00 34.39 LIG 0.22  C 
ATOM     20 O    ALA Q  15      71.083  61.798  34.432  1.00 56.10 LIG-0.29  OA
ENDBRANCH 17 19
ENDBRANCH 14 17
ENDBRANCH 11 13
ENDBRANCH 9 11
ENDBRANCH 5 7
ENDBRANCH 3 5
BRANCH 1 21
ATOM     21  CA  ALA Q  12      73.749  60.867  25.129  1.00 23.65 LIG 0.17  C 
ATOM     22  CB  ALA Q  12      74.551  59.655  25.530  1.00 43.19 LIG 0.04  C 
BRANCH 21 23
ATOM     23  N   ALA Q  12      74.490  61.656  24.174  1.00 32.95 LIG-0.35  N 
ATOM     24  C   ALA Q  11      74.546  61.268  22.909  1.00 38.70 LIG 0.24  C 
ATOM     25 O    ALA Q  11      74.024  60.233  22.516  1.00 30.98 LIG-0.27  OA
ATOM     26 H    ALA Q  12      74.869  62.360  24.492  1.00 32.95 LIG 0.16  HD
BRANCH 24 27
ATOM     27  CA  ALA Q  11      75.326  62.168  21.963  1.00 33.56 LIG 0.17  C 
ATOM     28  CB  ALA Q  11      76.793  61.802  22.032  1.00 29.51 LIG 0.04  C 
BRANCH 27 29
ATOM     29  N   ALA Q  11      75.123  63.593  22.269  1.00 33.00 LIG-0.35  N 
ATOM     30  C   ALA Q  10      73.902  64.131  22.329  1.00 40.76 LIG 0.26  C 
ATOM     31 O    ALA Q  10      72.875  63.506  22.074  1.00 37.65 LIG-0.27  OA
ATOM     32 H    ALA Q  11      75.850  64.034  22.404  1.00 33.00 LIG 0.16  HD
BRANCH 30 33
ATOM     33  CA  ALA Q  10      73.810  65.596  22.729  1.00 39.75 LIG 0.40  C 
ATOM     34  CB  ALA Q  10      73.016  65.729  24.018  1.00 33.57 LIG 0.06  C 
ATOM     35  N   ALA Q  10      73.213  66.400  21.674  1.00 55.55 LIG 0.61  N 
ENDBRANCH 30 33
ENDBRANCH 27 29
ENDBRANCH 24 27
ENDBRANCH 21 23
ENDBRANCH 1 21
TORSDOF 11
ENDMDL
MODEL 5
USER: ADFR SOLUTION from run 91
USER: SCORE 12.169757 LL:  -1.866 LR: -11.927 RR:   0.000 FEB:  -8.646
USER: RMSD 3.369637
USER: SEED 90
USER: STATUS no improvement in best in 8 clusters for 5 generations
USER: GENES 13
USER: genes 0 Translation |==|  0.61812 0.42098 0.43377
USER: genes 1 Rotation |==|  0.44336 0.46179 0.49823 0.99531
USER: genes 2 Torsion [C]-N--CA-[CB] |==|  0.24892
USER: genes 3 Torsion [N]-CA--C-[N] |==|  0.42191
USER: genes 4 Torsion [C]-N--CA-[CB] |==|  0.87288
USER: genes 5 Torsion [N]-CA--C-[N] |==|  0.38887
USER: genes 6 Torsion [C]-N--CA-[CB] |==|  0.42390
USER: genes 7 Torsion [N]-CA--C-[O] |==|  0.19285
USER: genes 8 Torsion [N]-C--CA-[N] |==|  0.39899
USER: genes 9 Torsion [C]-CA--N-[C] |==|  0.82907
USER: genes 10 Torsion [N]-C--CA-[N] |==|  0.15263
USER: genes 11 Torsion [C]-CA--N-[C] |==|  0.12959
USER: genes 12 Torsion [N]-C--CA-[N] |==|  0.84605
ROOT
ATOM      1  C   ALA Q  12      72.537  62.882  27.080  1.00 25.44 LIG 0.24  C 
ATOM      2 O    ALA Q  12      73.252  63.752  27.558  1.00 27.01 LIG-0.27  OA
ATOM      3  N   ALA Q  13      71.374  62.510  27.601  1.00 26.02 LIG-0.35  N 
ATOM      4 H    ALA Q  13      70.816  61.976  27.222  1.00 26.02 LIG 0.16  HD
ENDROOT
BRANCH 3 5
ATOM      5  CA  ALA Q  13      70.959  63.014  28.922  1.00 27.66 LIG 0.17  C 
ATOM      6  CB  ALA Q  13      70.181  64.318  28.744  1.00 60.60 LIG 0.04  C 
BRANCH 5 7
ATOM      7  C   ALA Q  13      70.132  62.027  29.728  1.00 27.27 LIG 0.24  C 
ATOM      8 O    ALA Q  13      69.395  61.217  29.173  1.00 28.73 LIG-0.27  OA
ATOM      9  N   ALA Q  14      70.230  62.156  31.068  1.00 28.35 LIG-0.35  N 
ATOM     10 H    ALA Q  14      70.801  62.673  31.450  1.00 28.35 LIG 0.16  HD
BRANCH 9 11
ATOM     11  CA  ALA Q  14      69.380  61.434  32.001  1.00 39.95 LIG 0.17  C 
ATOM     12  CB  ALA Q  14      67.907  61.507  31.539  1.00 41.42 LIG 0.04  C 
BRANCH 11 13
ATOM     13  C   ALA Q  14      69.858  59.969  32.018  1.00 39.71 LIG 0.24  C 
ATOM     14  N   ALA Q  15      69.894  59.334  33.181  1.00 43.67 LIG-0.35  N 
ATOM     15 H    ALA Q  15      70.162  58.522  33.268  1.00 43.67 LIG 0.16  HD
ATOM     16 O    ALA Q  14      70.220  59.430  30.992  1.00 40.63 LIG-0.27  OA
BRANCH 14 17
ATOM     17  CA  ALA Q  15      69.485  59.947  34.421  1.00 45.40 LIG 0.16  C 
ATOM     18  CB  ALA Q  15      69.006  58.895  35.371  1.00 35.52 LIG 0.04  C 
BRANCH 17 19
ATOM     19  C   ALA Q  15      70.639  60.754  35.028  1.00 34.39 LIG 0.22  C 
ATOM     20 O    ALA Q  15      71.034  61.798  34.496  1.00 56.10 LIG-0.29  OA
ENDBRANCH 17 19
ENDBRANCH 14 17
ENDBRANCH 11 13
ENDBRANCH 9 11
ENDBRANCH 5 7
ENDBRANCH 3 5
BRANCH 1 21
ATOM     21  CA  ALA Q  12      72.923  62.216  25.776  1.00 23.65 LIG 0.17  C 
ATOM     22  CB  ALA Q  12      73.851  61.051  26.009  1.00 43.19 LIG 0.04  C 
BRANCH 21 23
ATOM     23  N   ALA Q  12      73.593  63.235  25.006  1.00 32.95 LIG-0.35  N 
ATOM     24  C   ALA Q  11      72.936  64.333  24.663  1.00 38.70 LIG 0.24  C 
ATOM     25 O    ALA Q  11      71.755  64.504  24.937  1.00 30.98 LIG-0.27  OA
ATOM     26 H    ALA Q  12      74.413  63.067  24.806  1.00 32.95 LIG 0.16  HD
BRANCH 24 27
ATOM     27  CA  ALA Q  11      73.722  65.369  23.874  1.00 33.56 LIG 0.17  C 
ATOM     28  CB  ALA Q  11      72.806  66.524  23.530  1.00 29.51 LIG 0.04  C 
BRANCH 27 29
ATOM     29  N   ALA Q  11      74.324  64.794  22.660  1.00 33.00 LIG-0.35  N 
ATOM     30  C   ALA Q  10      73.624  64.015  21.832  1.00 40.76 LIG 0.26  C 
ATOM     31 O    ALA Q  10      72.463  63.671  22.046  1.00 37.65 LIG-0.27  OA
ATOM     32 H    ALA Q  11      75.150  65.004  22.540  1.00 33.00 LIG 0.16  HD
BRANCH 30 33
ATOM     33  CA  ALA Q  10      74.327  63.540  20.569  1.00 39.75 LIG 0.40  C 
ATOM     34  CB  ALA Q  10      75.445  62.577  20.933  1.00 33.57 LIG 0.06  C 
ATOM     35  N   ALA Q  10      74.844  64.658  19.794  1.00 55.55 LIG 0.61  N 
ENDBRANCH 30 33
ENDBRANCH 27 29
ENDBRANCH 24 27
ENDBRANCH 21 23
ENDBRANCH 1 21
TORSDOF 11
ENDMDL
MODEL 6
USER: ADFR SOLUTION from run 5
USER: SCORE 11.106140 LL:  -2.052 LR: -11.763 RR:   0.000 FEB:  -8.482
USER: RMSD 1.058880
USER: SEED 717992
USER: STATUS no improvement in best in 4 clusters for 5 generations
USER: GENES 13
USER: genes 0 Translation |==|  0.61361 0.43753 0.40491
USER: genes 1 Rotation |==|  0.48233 0.51298 0.52222 0.99902
USER: genes 2 Torsion [C]-N--CA-[CB] |==|  0.25618
USER: genes 3 Torsion [N]-CA--C-[N] |==|  0.45005
USER: genes 4 Torsion [C]-N--CA-[CB] |==|  0.19782
USER: genes 5 Torsion [N]-CA--C-[N] |==|  0.42329
USER: genes 6 Torsion [C]-N--CA-[CB] |==|  0.33976
USER: genes 7 Torsion [N]-CA--C-[O] |==|  0.74955
USER: genes 8 Torsion [N]-C--CA-[N] |==|  0.42616
USER: genes 9 Torsion [C]-CA--N-[C] |==|  0.56951
USER: genes 10 Torsion [N]-C--CA-[N] |==|  0.91757
USER: genes 11 Torsion [C]-CA--N-[C] |==|  0.72803
USER: genes 12 Torsion [N]-C--CA-[N] |==|  0.79679
ROOT
ATOM      1  C   ALA Q  12      72.463  63.205  26.495  1.00 25.44 LIG 0.24  C 
ATOM      2 O    ALA Q  12      73.204  64.066  26.946  1.00 27.01 LIG-0.27  OA
ATOM      3  N   ALA Q  13      71.469  62.650  27.180  1.00 26.02 LIG-0.35  N 
ATOM      4 H    ALA Q  13      70.878  62.122  26.845  1.00 26.02 LIG 0.16  HD
ENDROOT
BRANCH 3 5
ATOM      5  CA  ALA Q  13      71.320  62.923  28.621  1.00 27.66 LIG 0.17  C 
ATOM      6  CB  ALA Q  13      70.384  64.115  28.816  1.00 60.60 LIG 0.04  C 
BRANCH 5 7
ATOM      7  C   ALA Q  13      70.817  61.736  29.424  1.00 27.27 LIG 0.24  C 
ATOM      8 O    ALA Q  13      70.219  60.812  28.881  1.00 28.73 LIG-0.27  OA
ATOM      9  N   ALA Q  14      71.024  61.814  30.755  1.00 28.35 LIG-0.35  N 
ATOM     10 H    ALA Q  14      71.507  62.425  31.120  1.00 28.35 LIG 0.16  HD
BRANCH 9 11
ATOM     11  CA  ALA Q  14      70.454  60.874  31.707  1.00 39.95 LIG 0.17  C 
ATOM     12  CB  ALA Q  14      71.152  59.501  31.575  1.00 41.42 LIG 0.04  C 
BRANCH 11 13
ATOM     13  C   ALA Q  14      70.685  61.452  33.116  1.00 39.71 LIG 0.24  C 
ATOM     14  N   ALA Q  15      69.831  61.126  34.076  1.00 43.67 LIG-0.35  N 
ATOM     15 H    ALA Q  15      69.891  61.421  34.882  1.00 43.67 LIG 0.16  HD
ATOM     16 O    ALA Q  14      71.609  62.213  33.324  1.00 40.63 LIG-0.27  OA
BRANCH 14 17
ATOM     17  CA  ALA Q  15      68.715  60.238  33.863  1.00 45.40 LIG 0.16  C 
ATOM     18  CB  ALA Q  15      68.808  59.075  34.801  1.00 35.52 LIG 0.04  C 
BRANCH 17 19
ATOM     19  C   ALA Q  15      67.390  60.987  34.042  1.00 34.39 LIG 0.22  C 
ATOM     20 O    ALA Q  15      66.838  61.048  35.147  1.00 56.10 LIG-0.29  OA
ENDBRANCH 17 19
ENDBRANCH 14 17
ENDBRANCH 11 13
ENDBRANCH 9 11
ENDBRANCH 5 7
ENDBRANCH 3 5
BRANCH 1 21
ATOM     21  CA  ALA Q  12      72.598  62.768  25.052  1.00 23.65 LIG 0.17  C 
ATOM     22  CB  ALA Q  12      73.448  61.528  24.932  1.00 43.19 LIG 0.04  C 
BRANCH 21 23
ATOM     23  N   ALA Q  12      73.234  63.871  24.374  1.00 32.95 LIG-0.35  N 
ATOM     24  C   ALA Q  11      73.055  64.028  23.071  1.00 38.70 LIG 0.24  C 
ATOM     25 O    ALA Q  11      72.398  63.244  22.399  1.00 30.98 LIG-0.27  OA
ATOM     26 H    ALA Q  12      73.713  64.384  24.872  1.00 32.95 LIG 0.16  HD
BRANCH 24 27
ATOM     27  CA  ALA Q  11      73.740  65.230  22.437  1.00 33.56 LIG 0.17  C 
ATOM     28  CB  ALA Q  11      75.088  64.801  21.900  1.00 29.51 LIG 0.04  C 
BRANCH 27 29
ATOM     29  N   ALA Q  11      73.881  66.345  23.387  1.00 33.00 LIG-0.35  N 
ATOM     30  C   ALA Q  10      73.017  67.363  23.408  1.00 40.76 LIG 0.26  C 
ATOM     31 O    ALA Q  10      72.090  67.479  22.608  1.00 37.65 LIG-0.27  OA
ATOM     32 H    ALA Q  11      74.557  66.278  23.915  1.00 33.00 LIG 0.16  HD
BRANCH 30 33
ATOM     33  CA  ALA Q  10      73.217  68.420  24.483  1.00 39.75 LIG 0.40  C 
ATOM     34  CB  ALA Q  10      74.666  68.881  24.489  1.00 33.57 LIG 0.06  C 
ATOM     35  N   ALA Q  10      72.831  67.925  25.796  1.00 55.55 LIG 0.61  N 
ENDBRANCH 30 33
ENDBRANCH 27 29
ENDBRANCH 24 27
ENDBRANCH 21 23
ENDBRANCH 1 21
TORSDOF 11
ENDMDL
MODEL 7
USER: ADFR SOLUTION from run 123
USER: SCORE 11.167751 LL:  -2.142 LR: -11.416 RR:   0.000 FEB:  -8.135
USER: RMSD 2.344691
USER: SEED 122
USER: STATUS no improvement in best in 4 clusters for 5 generations
USER: GENES 13
USER: genes 0 Translation |==|  0.58680 0.43209 0.41704
USER: genes 1 Rotation |==|  0.50132 0.50179 0.49114 0.99992
USER: genes 2 Torsion [C]-N--CA-[CB] |==|  0.37262
USER: genes 3 Torsion [N]-CA--C-[N] |==|  0.38348
USER: genes 4 Torsion [C]-N--CA-[CB] |==|  0.52780
USER: genes 5 Torsion [N]-CA--C-[N] |==|  0.40804
USER: genes 6 Torsion [C]-N--CA-[CB] |==|  0.34919
USER: genes 7 Torsion [N]-CA--C-[O] |==|  0.26793
USER: genes 8 Torsion [N]-C--CA-[N] |==|  0.40095
USER: genes 9 Torsion [C]-CA--N-[C] |==|  0.55945
USER: genes 10 Torsion [N]-C--CA-[N] |==|  0.91647
USER: genes 11 Torsion [C]-CA--N-[C] |==|  0.72865
USER: genes 12 Torsion [N]-C--CA-[N] |==|  0.78317
ROOT
ATOM      1  C   ALA Q  12      72.020  63.099  26.741  1.00 25.44 LIG 0.24  C 
ATOM      2 O    ALA Q  12      72.839  63.825  27.287  1.00 27.01 LIG-0.27  OA
ATOM      3  N   ALA Q  13      70.933  62.626  27.339  1.00 26.02 LIG-0.35  N 
ATOM      4 H    ALA Q  13      70.300  62.202  26.940  1.00 26.02 LIG 0.16  HD
ENDROOT
BRANCH 3 5
ATOM      5  CA  ALA Q  13      70.746  62.811  28.790  1.00 27.66 LIG 0.17  C 
ATOM      6  CB  ALA Q  13      69.318  63.284  29.059  1.00 60.60 LIG 0.04  C 
BRANCH 5 7
ATOM      7  C   ALA Q  13      71.043  61.570  29.613  1.00 27.27 LIG 0.24  C 
ATOM      8 O    ALA Q  13      70.627  60.467  29.269  1.00 28.73 LIG-0.27  OA
ATOM      9  N   ALA Q  14      71.729  61.788  30.754  1.00 28.35 LIG-0.35  N 
ATOM     10 H    ALA Q  14      72.080  62.548  30.953  1.00 28.35 LIG 0.16  HD
BRANCH 9 11
ATOM     11  CA  ALA Q  14      71.945  60.764  31.763  1.00 39.95 LIG 0.17  C 
ATOM     12  CB  ALA Q  14      72.540  61.398  33.041  1.00 41.42 LIG 0.04  C 
BRANCH 11 13
ATOM     13  C   ALA Q  14      70.575  60.131  32.074  1.00 39.71 LIG 0.24  C 
ATOM     14  N   ALA Q  15      70.535  58.845  32.391  1.00 43.67 LIG-0.35  N 
ATOM     15 H    ALA Q  15      69.805  58.423  32.563  1.00 43.67 LIG 0.16  HD
ATOM     16 O    ALA Q  14      69.560  60.795  31.998  1.00 40.63 LIG-0.27  OA
BRANCH 14 17
ATOM     17  CA  ALA Q  15      71.716  58.022  32.478  1.00 45.40 LIG 0.16  C 
ATOM     18  CB  ALA Q  15      71.771  57.356  33.817  1.00 35.52 LIG 0.04  C 
BRANCH 17 19
ATOM     19  C   ALA Q  15      71.736  56.988  31.346  1.00 34.39 LIG 0.22  C 
ATOM     20 O    ALA Q  15      72.367  57.198  30.303  1.00 56.10 LIG-0.29  OA
ENDBRANCH 17 19
ENDBRANCH 14 17
ENDBRANCH 11 13
ENDBRANCH 9 11
ENDBRANCH 5 7
ENDBRANCH 3 5
BRANCH 1 21
ATOM     21  CA  ALA Q  12      72.173  62.753  25.275  1.00 23.65 LIG 0.17  C 
ATOM     22  CB  ALA Q  12      73.058  61.546  25.086  1.00 43.19 LIG 0.04  C 
BRANCH 21 23
ATOM     23  N   ALA Q  12      72.782  63.911  24.667  1.00 32.95 LIG-0.35  N 
ATOM     24  C   ALA Q  11      72.664  64.103  23.362  1.00 38.70 LIG 0.24  C 
ATOM     25 O    ALA Q  11      72.089  63.307  22.631  1.00 30.98 LIG-0.27  OA
ATOM     26 H    ALA Q  12      73.203  64.433  25.207  1.00 32.95 LIG 0.16  HD
BRANCH 24 27
ATOM     27  CA  ALA Q  11      73.312  65.361  22.805  1.00 33.56 LIG 0.17  C 
ATOM     28  CB  ALA Q  11      74.713  65.027  22.339  1.00 29.51 LIG 0.04  C 
BRANCH 27 29
ATOM     29  N   ALA Q  11      73.331  66.452  23.792  1.00 33.00 LIG-0.35  N 
ATOM     30  C   ALA Q  10      72.405  67.415  23.791  1.00 40.76 LIG 0.26  C 
ATOM     31 O    ALA Q  10      71.520  67.500  22.942  1.00 37.65 LIG-0.27  OA
ATOM     32 H    ALA Q  11      73.979  66.410  24.356  1.00 33.00 LIG 0.16  HD
BRANCH 30 33
ATOM     33  CA  ALA Q  10      72.480  68.448  24.905  1.00 39.75 LIG 0.40  C 
ATOM     34  CB  ALA Q  10      73.917  68.906  25.089  1.00 33.57 LIG 0.06  C 
ATOM     35  N   ALA Q  10      71.944  67.926  26.153  1.00 55.55 LIG 0.61  N 
ENDBRANCH 30 33
ENDBRANCH 27 29
ENDBRANCH 24 27
ENDBRANCH 21 23
ENDBRANCH 1 21
TORSDOF 11
ENDMDL
MODEL 8
USER: ADFR SOLUTION from run 101
USER: SCORE 10.529250 LL:  -1.809 LR: -11.380 RR:   0.000 FEB:  -8.099
USER: RMSD 2.998374
USER: SEED 100
USER: STATUS 1 or 2 clusters left
USER: GENES 13
USER: genes 0 Translation |==|  0.62056 0.41878 0.39404
USER: genes 1 Rotation |==|  0.47873 0.54702 0.49334 0.99729
USER: genes 2 Torsion [C]-N--CA-[CB] |==|  0.23562
USER: genes 3 Torsion [N]-CA--C-[N] |==|  0.46213
USER: genes 4 Torsion [C]-N--CA-[CB] |==|  0.16394
USER: genes 5 Torsion [N]-CA--C-[N] |==|  0.82979
USER: genes 6 Torsion [C]-N--CA-[CB] |==|  0.37098
USER: genes 7 Torsion [N]-CA--C-[O] |==|  0.80311
USER: genes 8 Torsion [N]-C--CA-[N] |==|  0.46457
USER: genes 9 Torsion [C]-CA--N-[C] |==|  0.57569
USER: genes 10 Torsion [N]-C--CA-[N] |==|  0.86728
USER: genes 11 Torsion [C]-CA--N-[C] |==|  0.81122
USER: genes 12 Torsion [N]-C--CA-[N] |==|  0.30195
ROOT
ATOM      1  C   ALA Q  12      72.577  62.839  26.275  1.00 25.44 LIG 0.24  C 
ATOM      2 O    ALA Q  12      73.468  63.612  26.599  1.00 27.01 LIG-0.27  OA
ATOM      3  N   ALA Q  13      71.625  62.419  27.100  1.00 26.02 LIG-0.35  N 
ATOM      4 H    ALA Q  13      70.937  61.961  26.860  1.00 26.02 LIG 0.16  HD
ENDROOT
BRANCH 3 5
ATOM      5  CA  ALA Q  13      71.700  62.730  28.538  1.00 27.66 LIG 0.17  C 
ATOM      6  CB  ALA Q  13      71.108  64.116  28.788  1.00 60.60 LIG 0.04  C 
BRANCH 5 7
ATOM      7  C   ALA Q  13      71.013  61.708  29.427  1.00 27.27 LIG 0.24  C 
ATOM      8 O    ALA Q  13      70.213  60.901  28.963  1.00 28.73 LIG-0.27  OA
ATOM      9  N   ALA Q  14      71.305  61.802  30.742  1.00 28.35 LIG-0.35  N 
ATOM     10 H    ALA Q  14      71.919  62.318  31.051  1.00 28.35 LIG 0.16  HD
BRANCH 9 11
ATOM     11  CA  ALA Q  14      70.610  61.042  31.768  1.00 39.95 LIG 0.17  C 
ATOM     12  CB  ALA Q  14      70.762  59.528  31.497  1.00 41.42 LIG 0.04  C 
BRANCH 11 13
ATOM     13  C   ALA Q  14      71.252  61.405  33.121  1.00 39.71 LIG 0.24  C 
ATOM     14  N   ALA Q  15      72.537  61.137  33.298  1.00 43.67 LIG-0.35  N 
ATOM     15 H    ALA Q  15      72.957  61.300  34.031  1.00 43.67 LIG 0.16  HD
ATOM     16 O    ALA Q  14      70.580  61.896  34.007  1.00 40.63 LIG-0.27  OA
BRANCH 14 17
ATOM     17  CA  ALA Q  15      73.361  60.543  32.275  1.00 45.40 LIG 0.16  C 
ATOM     18  CB  ALA Q  15      74.655  61.289  32.171  1.00 35.52 LIG 0.04  C 
BRANCH 17 19
ATOM     19  C   ALA Q  15      73.603  59.058  32.574  1.00 34.39 LIG 0.22  C 
ATOM     20 O    ALA Q  15      74.333  58.708  33.508  1.00 56.10 LIG-0.29  OA
ENDBRANCH 17 19
ENDBRANCH 14 17
ENDBRANCH 11 13
ENDBRANCH 9 11
ENDBRANCH 5 7
ENDBRANCH 3 5
BRANCH 1 21
ATOM     21  CA  ALA Q  12      72.468  62.366  24.841  1.00 23.65 LIG 0.17  C 
ATOM     22  CB  ALA Q  12      72.835  60.909  24.715  1.00 43.19 LIG 0.04  C 
BRANCH 21 23
ATOM     23  N   ALA Q  12      73.402  63.177  24.097  1.00 32.95 LIG-0.35  N 
ATOM     24  C   ALA Q  11      73.185  63.409  22.811  1.00 38.70 LIG 0.24  C 
ATOM     25 O    ALA Q  11      72.237  62.923  22.207  1.00 30.98 LIG-0.27  OA
ATOM     26 H    ALA Q  12      74.071  63.476  24.546  1.00 32.95 LIG 0.16  HD
BRANCH 24 27
ATOM     27  CA  ALA Q  11      74.202  64.293  22.105  1.00 33.56 LIG 0.17  C 
ATOM     28  CB  ALA Q  11      75.463  63.493  21.859  1.00 29.51 LIG 0.04  C 
BRANCH 27 29
ATOM     29  N   ALA Q  11      74.494  65.514  22.873  1.00 33.00 LIG-0.35  N 
ATOM     30  C   ALA Q  10      73.578  66.471  23.043  1.00 40.76 LIG 0.26  C 
ATOM     31 O    ALA Q  10      72.463  66.439  22.528  1.00 37.65 LIG-0.27  OA
ATOM     32 H    ALA Q  11      75.291  65.549  23.194  1.00 33.00 LIG 0.16  HD
BRANCH 30 33
ATOM     33  CA  ALA Q  10      73.967  67.652  23.920  1.00 39.75 LIG 0.40  C 
ATOM     34  CB  ALA Q  10      72.905  67.876  24.984  1.00 33.57 LIG 0.06  C 
ATOM     35  N   ALA Q  10      74.164  68.859  23.131  1.00 55.55 LIG 0.61  N 
ENDBRANCH 30 33
ENDBRANCH 27 29
ENDBRANCH 24 27
ENDBRANCH 21 23
ENDBRANCH 1 21
TORSDOF 11
ENDMDL
MODEL 9
USER: ADFR SOLUTION from run 72
USER: SCORE 10.079753 LL:  -2.061 LR: -11.279 RR:   0.000 FEB:  -7.998
USER: RMSD 3.521489
USER: SEED 71
USER: STATUS no improvement in best in 6 clusters for 5 generations
USER: GENES 13
USER: genes 0 Translation |==|  0.59942 0.42735 0.44549
USER: genes 1 Rotation |==|  0.49207 0.43918 0.50928 0.99614
USER: genes 2 Torsion [C]-N--CA-[CB] |==|  0.36694
USER: genes 3 Torsion [N]-CA--C-[N] |==|  0.29950
USER: genes 4 Torsion [C]-N--CA-[CB] |==|  0.15783
USER: genes 5 Torsion [N]-CA--C-[N] |==|  0.45603
USER: genes 6 Torsion [C]-N--CA-[CB] |==|  0.37789
USER: genes 7 Torsion [N]-CA--C-[O] |==|  0.02955
USER: genes 8 Torsion [N]-C--CA-[N] |==|  0.36806
USER: genes 9 Torsion [C]-CA--N-[C] |==|  0.67843
USER: genes 10 Torsion [N]-C--CA-[N] |==|  0.35256
USER: genes 11 Torsion [C]-CA--N-[C] |==|  0.83864
USER: genes 12 Torsion [N]-C--CA-[N] |==|  0.65838
ROOT
ATOM      1  C   ALA Q  12      72.228  63.006  27.317  1.00 25.44 LIG 0.24  C 
ATOM      2 O    ALA Q  12      72.835  63.810  28.011  1.00 27.01 LIG-0.27  OA
ATOM      3  N   ALA Q  13      71.060  62.471  27.652  1.00 26.02 LIG-0.35  N 
ATOM      4 H    ALA Q  13      70.576  61.988  27.131  1.00 26.02 LIG 0.16  HD
ENDROOT
BRANCH 3 5
ATOM      5  CA  ALA Q  13      70.506  62.688  29.001  1.00 27.66 LIG 0.17  C 
ATOM      6  CB  ALA Q  13      69.041  63.108  28.884  1.00 60.60 LIG 0.04  C 
BRANCH 5 7
ATOM      7  C   ALA Q  13      70.625  61.482  29.917  1.00 27.27 LIG 0.24  C 
ATOM      8 O    ALA Q  13      69.890  60.508  29.781  1.00 28.73 LIG-0.27  OA
ATOM      9  N   ALA Q  14      71.540  61.599  30.903  1.00 28.35 LIG-0.35  N 
ATOM     10 H    ALA Q  14      72.101  62.249  30.949  1.00 28.35 LIG 0.16  HD
BRANCH 9 11
ATOM     11  CA  ALA Q  14      71.671  60.638  31.986  1.00 39.95 LIG 0.17  C 
ATOM     12  CB  ALA Q  14      71.916  59.224  31.411  1.00 41.42 LIG 0.04  C 
BRANCH 11 13
ATOM     13  C   ALA Q  14      72.872  61.076  32.845  1.00 39.71 LIG 0.24  C 
ATOM     14  N   ALA Q  15      73.001  60.554  34.056  1.00 43.67 LIG-0.35  N 
ATOM     15 H    ALA Q  15      73.639  60.763  34.595  1.00 43.67 LIG 0.16  HD
ATOM     16 O    ALA Q  14      73.658  61.902  32.425  1.00 40.63 LIG-0.27  OA
BRANCH 14 17
ATOM     17  CA  ALA Q  15      72.081  59.582  34.592  1.00 45.40 LIG 0.16  C 
ATOM     18  CB  ALA Q  15      72.842  58.487  35.272  1.00 35.52 LIG 0.04  C 
BRANCH 17 19
ATOM     19  C   ALA Q  15      71.095  60.250  35.558  1.00 34.39 LIG 0.22  C 
ATOM     20 O    ALA Q  15      71.023  61.482  35.643  1.00 56.10 LIG-0.29  OA
ENDBRANCH 17 19
ENDBRANCH 14 17
ENDBRANCH 11 13
ENDBRANCH 9 11
ENDBRANCH 5 7
ENDBRANCH 3 5
BRANCH 1 21
ATOM     21  CA  ALA Q  12      72.765  62.626  25.953  1.00 23.65 LIG 0.17  C 
ATOM     22  CB  ALA Q  12      73.945  61.695  26.068  1.00 43.19 LIG 0.04  C 
BRANCH 21 23
ATOM     23  N   ALA Q  12      73.172  63.868  25.340  1.00 32.95 LIG-0.35  N 
ATOM     24  C   ALA Q  11      72.553  64.292  24.250  1.00 38.70 LIG 0.24  C 
ATOM     25 O    ALA Q  11      71.665  63.648  23.706  1.00 30.98 LIG-0.27  OA
ATOM     26 H    ALA Q  12      73.819  64.278  25.733  1.00 32.95 LIG 0.16  HD
BRANCH 24 27
ATOM     27  CA  ALA Q  11      73.026  65.622  23.681  1.00 33.56 LIG 0.17  C 
ATOM     28  CB  ALA Q  11      71.948  66.662  23.902  1.00 29.51 LIG 0.04  C 
BRANCH 27 29
ATOM     29  N   ALA Q  11      73.373  65.516  22.255  1.00 33.00 LIG-0.35  N 
ATOM     30  C   ALA Q  10      74.302  64.661  21.821  1.00 40.76 LIG 0.26  C 
ATOM     31 O    ALA Q  10      74.974  63.955  22.570  1.00 37.65 LIG-0.27  OA
ATOM     32 H    ALA Q  11      72.929  66.045  21.741  1.00 33.00 LIG 0.16  HD
BRANCH 30 33
ATOM     33  CA  ALA Q  10      74.524  64.583  20.318  1.00 39.75 LIG 0.40  C 
ATOM     34  CB  ALA Q  10      73.588  65.548  19.608  1.00 33.57 LIG 0.06  C 
ATOM     35  N   ALA Q  10      74.337  63.228  19.821  1.00 55.55 LIG 0.61  N 
ENDBRANCH 30 33
ENDBRANCH 27 29
ENDBRANCH 24 27
ENDBRANCH 21 23
ENDBRANCH 1 21
TORSDOF 11
ENDMDL
MODEL 10
USER: ADFR SOLUTION from run 180
USER: SCORE 11.290728 LL:  -2.685 LR: -11.185 RR:   0.000 FEB:  -7.904
USER: RMSD 3.484193
USER: SEED 179
USER: STATUS searching
USER: GENES 13
USER: genes 0 Translation |==|  0.61977 0.43285 0.41431
USER: genes 1 Rotation |==|  0.36784 0.36168 0.39949 0.95089
USER: genes 2 Torsion [C]-N--CA-[CB] |==|  0.33633
USER: genes 3 Torsion [N]-CA--C-[N] |==|  0.27234
USER: genes 4 Torsion [C]-N--CA-[CB] |==|  0.80527
USER: genes 5 Torsion [N]-CA--C-[N] |==|  0.20347
USER: genes 6 Torsion [C]-N--CA-[CB] |==|  0.39118
USER: genes 7 Torsion [N]-CA--C-[O] |==|  0.01893
USER: genes 8 Torsion [N]-C--CA-[N] |==|  0.31403
USER: genes 9 Torsion [C]-CA--N-[C] |==|  0.55561
USER: genes 10 Torsion [N]-C--CA-[N] |==|  0.92786
USER: genes 11 Torsion [C]-CA--N-[C] |==|  0.84207
USER: genes 12 Torsion [N]-C--CA-[N] |==|  0.35095
ROOT
ATOM      1  C   ALA Q  12      72.564  63.114  26.686  1.00 25.44 LIG 0.24  C 
ATOM      2 O    ALA Q  12      73.338  63.856  27.273  1.00 27.01 LIG-0.27  OA
ATOM      3  N   ALA Q  13      71.250  63.299  26.641  1.00 26.02 LIG-0.35  N 
ATOM      4 H    ALA Q  13      70.708  62.847  26.149  1.00 26.02 LIG 0.16  HD
ENDROOT
BRANCH 3 5
ATOM      5  CA  ALA Q  13      70.620  64.339  27.473  1.00 27.66 LIG 0.17  C 
ATOM      6  CB  ALA Q  13      69.883  65.330  26.573  1.00 60.60 LIG 0.04  C 
BRANCH 5 7
ATOM      7  C   ALA Q  13      69.670  63.795  28.527  1.00 27.27 LIG 0.24  C 
ATOM      8 O    ALA Q  13      68.500  63.544  28.255  1.00 28.73 LIG-0.27  OA
ATOM      9  N   ALA Q  14      70.194  63.673  29.764  1.00 28.35 LIG-0.35  N 
ATOM     10 H    ALA Q  14      71.031  63.779  29.933  1.00 28.35 LIG 0.16  HD
BRANCH 9 11
ATOM     11  CA  ALA Q  14      69.399  63.351  30.938  1.00 39.95 LIG 0.17  C 
ATOM     12  CB  ALA Q  14      68.490  64.546  31.304  1.00 41.42 LIG 0.04  C 
BRANCH 11 13
ATOM     13  C   ALA Q  14      68.540  62.121  30.586  1.00 39.71 LIG 0.24  C 
ATOM     14  N   ALA Q  15      69.138  60.941  30.501  1.00 43.67 LIG-0.35  N 
ATOM     15 H    ALA Q  15      68.724  60.216  30.296  1.00 43.67 LIG 0.16  HD
ATOM     16 O    ALA Q  14      67.352  62.245  30.363  1.00 40.63 LIG-0.27  OA
BRANCH 14 17
ATOM     17  CA  ALA Q  15      70.547  60.758  30.745  1.00 45.40 LIG 0.16  C 
ATOM     18  CB  ALA Q  15      70.769  59.479  31.489  1.00 35.52 LIG 0.04  C 
BRANCH 17 19
ATOM     19  C   ALA Q  15      71.327  60.772  29.425  1.00 34.39 LIG 0.22  C 
ATOM     20 O    ALA Q  15      70.768  61.048  28.358  1.00 56.10 LIG-0.29  OA
ENDBRANCH 17 19
ENDBRANCH 14 17
ENDBRANCH 11 13
ENDBRANCH 9 11
ENDBRANCH 5 7
ENDBRANCH 3 5
BRANCH 1 21
ATOM     21  CA  ALA Q  12      73.096  61.944  25.885  1.00 23.65 LIG 0.17  C 
ATOM     22  CB  ALA Q  12      73.963  61.048  26.733  1.00 43.19 LIG 0.04  C 
BRANCH 21 23
ATOM     23  N   ALA Q  12      73.880  62.529  24.824  1.00 32.95 LIG-0.35  N 
ATOM     24  C   ALA Q  11      74.147  61.817  23.740  1.00 38.70 LIG 0.24  C 
ATOM     25 O    ALA Q  11      73.789  60.653  23.614  1.00 30.98 LIG-0.27  OA
ATOM     26 H    ALA Q  12      74.140  63.338  24.960  1.00 32.95 LIG 0.16  HD
BRANCH 24 27
ATOM     27  CA  ALA Q  11      74.956  62.515  22.657  1.00 33.56 LIG 0.17  C 
ATOM     28  CB  ALA Q  11      76.413  62.130  22.807  1.00 29.51 LIG 0.04  C 
BRANCH 27 29
ATOM     29  N   ALA Q  11      74.789  63.977  22.704  1.00 33.00 LIG-0.35  N 
ATOM     30  C   ALA Q  10      73.586  64.548  22.616  1.00 40.76 LIG 0.26  C 
ATOM     31 O    ALA Q  10      72.549  63.915  22.427  1.00 37.65 LIG-0.27  OA
ATOM     32 H    ALA Q  11      75.524  64.415  22.793  1.00 33.00 LIG 0.16  HD
BRANCH 30 33
ATOM     33  CA  ALA Q  10      73.527  66.062  22.753  1.00 39.75 LIG 0.40  C 
ATOM     34  CB  ALA Q  10      72.849  66.435  24.062  1.00 33.57 LIG 0.06  C 
ATOM     35  N   ALA Q  10      72.838  66.673  21.627  1.00 55.55 LIG 0.61  N 
ENDBRANCH 30 33
ENDBRANCH 27 29
ENDBRANCH 24 27
ENDBRANCH 21 23
ENDBRANCH 1 21
TORSDOF 11
ENDMDL
