MODEL 1
USER: ADFR SOLUTION from run 68
USER: SCORE 12.760849 LL:  -3.318 LR: -10.826 RR:   0.000 FEB:  -7.545
USER: RMSD 3.245501
USER: SEED 67
USER: STATUS no improvement in best in 4 clusters for 5 generations
USER: GENES 13
USER: genes 0 Translation |==|  0.42959 0.38355 0.40525
USER: genes 1 Rotation |==|  0.59249 0.41747 0.56342 0.98022
USER: genes 2 Torsion [C]-N--CA-[CB] |==|  0.44457
USER: genes 3 Torsion [N]-CA--C-[N] |==|  0.45928
USER: genes 4 Torsion [N]-CA--C-[N] |==|  0.91303
USER: genes 5 Torsion [C]-N--CA-[CB] |==|  0.24877
USER: genes 6 Torsion [N]-CA--C-[OXT] |==|  0.42158
USER: genes 7 Torsion [N]-CA--CB-[CG] |==|  0.07023
USER: genes 8 Torsion [CA]-CB--CG-[CD2] |==|  0.61009
USER: genes 9 Torsion [O]-C--CA-[CB] |==|  0.19139
USER: genes 10 Torsion [N]-C--CA-[N] |==|  0.46172
USER: genes 11 Torsion [C]-CA--N-[C] |==|  0.41078
USER: genes 12 Torsion [N]-C--CA-[CB] |==|  0.75470
ROOT
ATOM      1  C   PRO B  88      15.999   2.060  17.138  1.00 31.41 LIG 0.24  C 
ATOM      2 O    PRO B  88      16.159   3.286  17.100  1.00 30.85 LIG-0.27  OA
ATOM      3  N   LEU B  89      16.415   1.290  18.138  1.00 29.89 LIG-0.35  N 
ATOM      4 H    LEU B  89      16.318   0.436  18.160  1.00 29.89 LIG 0.16  HD
ENDROOT
BRANCH 3 5
ATOM      5  CA  LEU B  89      17.084   1.850  19.304  1.00 30.22 LIG 0.18  C 
BRANCH 5 6
ATOM      6  C   LEU B  89      18.547   2.150  18.975  1.00 29.45 LIG 0.24  C 
ATOM      7 O    LEU B  89      19.063   1.672  17.969  1.00 27.07 LIG-0.27  OA
ATOM      8  N   PRO B  90      19.218   2.939  19.829  1.00 31.27 LIG-0.34  N 
ATOM      9  CD  PRO B  90      18.668   3.629  21.015  1.00 32.01 LIG 0.13  C 
ATOM     10  CA  PRO B  90      20.631   3.297  19.597  1.00 32.16 LIG 0.18  C 
ATOM     11  CG  PRO B  90      19.878   4.270  21.637  1.00 32.17 LIG 0.02  C 
ATOM     12  CB  PRO B  90      20.830   4.505  20.509  1.00 32.36 LIG 0.04  C 
BRANCH 10 13
ATOM     13  C   PRO B  90      21.636   2.189  19.944  1.00 32.74 LIG 0.24  C 
ATOM     14  N   ALA B  91      21.319   1.354  20.938  1.00 33.34 LIG-0.34  N 
ATOM     15 H    ALA B  91      20.608   1.431  21.415  1.00 33.34 LIG 0.16  HD
ATOM     16 O    PRO B  90      22.685   2.106  19.303  1.00 32.61 LIG-0.27  OA
BRANCH 14 17
ATOM     17  CA  ALA B  91      22.170   0.211  21.310  1.00 34.79 LIG 0.18  C 
ATOM     18  CB  ALA B  91      23.209   0.630  22.373  1.00 34.67 LIG 0.04  C 
BRANCH 17 19
ATOM     19  C   ALA B  91      21.324  -0.960  21.820  1.00 35.98 LIG 0.20  C 
ATOM     20 OXT  ALA B  91      21.708  -2.135  21.701  1.00 36.84 LIG-0.65  OA
ATOM     21 O    ALA B  91      20.226  -0.747  22.346  1.00 37.03 LIG-0.65  OA
ENDBRANCH 17 19
ENDBRANCH 14 17
ENDBRANCH 10 13
ENDBRANCH 5 6
BRANCH 5 22
ATOM     22  CB  LEU B  89      17.018   0.883  20.489  1.00 30.14 LIG 0.04  C 
BRANCH 22 23
ATOM     23  CG  LEU B  89      16.861  -0.610  20.188  1.00 30.45 LIG-0.02  C 
ATOM     24  CD1 LEU B  89      18.238  -1.269  20.201  1.00 30.38 LIG 0.01  C 
ATOM     25  CD2 LEU B  89      15.903  -1.269  21.183  1.00 30.79 LIG 0.01  C 
ENDBRANCH 22 23
ENDBRANCH 5 22
ENDBRANCH 3 5
BRANCH 1 26
ATOM     26  CA  PRO B  88      15.263   1.350  16.008  1.00 32.64 LIG 0.18  C 
ATOM     27  CB  PRO B  88      16.090   1.373  14.706  1.00 32.64 LIG 0.04  C 
ATOM     28  CG  PRO B  88      15.431   2.403  13.832  1.00 32.93 LIG 0.02  C 
ATOM     29  CD  PRO B  88      13.974   2.322  14.202  1.00 33.68 LIG 0.13  C 
ATOM     30  N   PRO B  88      14.020   2.044  15.648  1.00 34.22 LIG-0.34  N 
ATOM     31  C   GLY B  87      13.154   2.362  16.653  1.00 37.83 LIG 0.24  C 
ATOM     32 O    GLY B  87      13.389   2.119  17.840  1.00 36.70 LIG-0.27  OA
BRANCH 31 33
ATOM     33  CA  GLY B  87      11.846   3.052  16.282  1.00 40.95 LIG 0.23  C 
BRANCH 33 34
ATOM     34  N   GLY B  87      10.871   3.046  17.395  1.00 44.01 LIG-0.35  N 
ATOM     35 H    GLY B  87      10.918   2.357  17.907  1.00 44.01 LIG 0.16  HD
ATOM     36  C   PRO B  86      10.000   4.045  17.565  1.00 46.81 LIG 0.25  C 
ATOM     37 O    PRO B  86       9.967   5.027  16.826  1.00 48.58 LIG-0.27  OA
BRANCH 36 38
ATOM     38  CA  PRO B  86       9.013   3.981  18.743  1.00 48.28 LIG 0.35  C 
ATOM     39  N   PRO B  86       8.515   5.266  19.257  1.00 49.47 LIG 0.32  N 
ATOM     40  CD  PRO B  86       7.061   5.238  19.486  1.00 50.15 LIG 0.32  C 
ATOM     41  CG  PRO B  86       6.593   4.206  18.508  1.00 49.89 LIG 0.04  C 
ATOM     42  CB  PRO B  86       7.734   3.232  18.325  1.00 49.17 LIG 0.05  C 
ENDBRANCH 36 38
ENDBRANCH 33 34
ENDBRANCH 31 33
ENDBRANCH 1 26
TORSDOF 11
ENDMDL
MODEL 2
USER: ADFR SOLUTION from run 200
USER: SCORE 12.990386 LL:  -3.576 LR:  -9.842 RR:   0.000 FEB:  -6.561
USER: RMSD 3.019557
USER: SEED 199
USER: STATUS searching
USER: GENES 13
USER: genes 0 Translation |==|  0.41337 0.37031 0.39871
USER: genes 1 Rotation |==|  0.83819 0.72197 0.79342 0.51614
USER: genes 2 Torsion [C]-N--CA-[CB] |==|  0.84850
USER: genes 3 Torsion [N]-CA--C-[N] |==|  0.35597
USER: genes 4 Torsion [N]-CA--C-[N] |==|  0.19542
USER: genes 5 Torsion [C]-N--CA-[CB] |==|  0.21453
USER: genes 6 Torsion [N]-CA--C-[OXT] |==|  0.68206
USER: genes 7 Torsion [N]-CA--CB-[CG] |==|  0.90179
USER: genes 8 Torsion [CA]-CB--CG-[CD2] |==|  0.83122
USER: genes 9 Torsion [O]-C--CA-[CB] |==|  0.62500
USER: genes 10 Torsion [N]-C--CA-[N] |==|  0.55783
USER: genes 11 Torsion [C]-CA--N-[C] |==|  0.36519
USER: genes 12 Torsion [N]-C--CA-[CB] |==|  0.22349
ROOT
ATOM      1  C   PRO B  88      15.634   1.841  17.030  1.00 31.41 LIG 0.24  C 
ATOM      2 O    PRO B  88      15.728   1.171  18.065  1.00 30.85 LIG-0.27  OA
ATOM      3  N   LEU B  89      16.181   3.043  16.876  1.00 29.89 LIG-0.35  N 
ATOM      4 H    LEU B  89      16.105   3.517  16.162  1.00 29.89 LIG 0.16  HD
ENDROOT
BRANCH 3 5
ATOM      5  CA  LEU B  89      16.970   3.663  17.931  1.00 30.22 LIG 0.18  C 
BRANCH 5 6
ATOM      6  C   LEU B  89      18.259   2.874  18.155  1.00 29.45 LIG 0.24  C 
ATOM      7 O    LEU B  89      18.214   1.662  18.350  1.00 27.07 LIG-0.27  OA
ATOM      8  N   PRO B  90      19.412   3.562  18.135  1.00 31.27 LIG-0.34  N 
ATOM      9  CD  PRO B  90      19.579   4.998  17.827  1.00 32.01 LIG 0.13  C 
ATOM     10  CA  PRO B  90      20.712   2.892  18.331  1.00 32.16 LIG 0.18  C 
ATOM     11  CG  PRO B  90      21.046   5.235  18.055  1.00 32.17 LIG 0.02  C 
ATOM     12  CB  PRO B  90      21.707   3.919  17.798  1.00 32.36 LIG 0.04  C 
BRANCH 10 13
ATOM     13  C   PRO B  90      21.034   2.536  19.790  1.00 32.74 LIG 0.24  C 
ATOM     14  N   ALA B  91      20.325   1.557  20.359  1.00 33.34 LIG-0.34  N 
ATOM     15 H    ALA B  91      19.677   1.150  19.968  1.00 33.34 LIG 0.16  HD
ATOM     16 O    PRO B  90      21.922   3.155  20.377  1.00 32.61 LIG-0.27  OA
BRANCH 14 17
ATOM     17  CA  ALA B  91      20.594   1.081  21.727  1.00 34.79 LIG 0.18  C 
ATOM     18  CB  ALA B  91      20.025   2.069  22.768  1.00 34.67 LIG 0.04  C 
BRANCH 17 19
ATOM     19  C   ALA B  91      20.013  -0.320  21.943  1.00 35.98 LIG 0.20  C 
ATOM     20 OXT  ALA B  91      19.087  -0.519  22.747  1.00 36.84 LIG-0.65  OA
ATOM     21 O    ALA B  91      20.477  -1.285  21.326  1.00 37.03 LIG-0.65  OA
ENDBRANCH 17 19
ENDBRANCH 14 17
ENDBRANCH 10 13
ENDBRANCH 5 6
BRANCH 5 22
ATOM     22  CB  LEU B  89      16.177   3.726  19.239  1.00 30.14 LIG 0.04  C 
BRANCH 22 23
ATOM     23  CG  LEU B  89      14.668   3.972  19.153  1.00 30.45 LIG-0.02  C 
ATOM     24  CD1 LEU B  89      14.069   3.886  20.555  1.00 30.38 LIG 0.01  C 
ATOM     25  CD2 LEU B  89      14.372   5.316  18.486  1.00 30.79 LIG 0.01  C 
ENDBRANCH 22 23
ENDBRANCH 5 22
ENDBRANCH 3 5
BRANCH 1 26
ATOM     26  CA  PRO B  88      14.883   1.287  15.826  1.00 32.64 LIG 0.18  C 
ATOM     27  CB  PRO B  88      15.674   1.522  14.522  1.00 32.64 LIG 0.04  C 
ATOM     28  CG  PRO B  88      14.969   2.652  13.826  1.00 32.93 LIG 0.02  C 
ATOM     29  CD  PRO B  88      13.525   2.481  14.213  1.00 33.68 LIG 0.13  C 
ATOM     30  N   PRO B  88      13.617   1.995  15.601  1.00 34.22 LIG-0.34  N 
ATOM     31  C   GLY B  87      12.771   2.140  16.662  1.00 37.83 LIG 0.24  C 
ATOM     32 O    GLY B  87      13.043   1.731  17.795  1.00 36.70 LIG-0.27  OA
BRANCH 31 33
ATOM     33  CA  GLY B  87      11.439   2.844  16.429  1.00 40.95 LIG 0.23  C 
BRANCH 33 34
ATOM     34  N   GLY B  87      10.852   3.369  17.681  1.00 44.01 LIG-0.35  N 
ATOM     35 H    GLY B  87      10.833   2.805  18.330  1.00 44.01 LIG 0.16  HD
ATOM     36  C   PRO B  86      10.397   4.622  17.767  1.00 46.81 LIG 0.25  C 
ATOM     37 O    PRO B  86      10.452   5.411  16.826  1.00 48.58 LIG-0.27  OA
BRANCH 36 38
ATOM     38  CA  PRO B  86       9.800   5.109  19.098  1.00 48.28 LIG 0.35  C 
ATOM     39  N   PRO B  86       9.001   4.135  19.858  1.00 49.47 LIG 0.32  N 
ATOM     40  CD  PRO B  86       9.343   4.145  21.290  1.00 50.15 LIG 0.32  C 
ATOM     41  CG  PRO B  86      10.764   4.616  21.286  1.00 49.89 LIG 0.04  C 
ATOM     42  CB  PRO B  86      10.925   5.503  20.073  1.00 49.17 LIG 0.05  C 
ENDBRANCH 36 38
ENDBRANCH 33 34
ENDBRANCH 31 33
ENDBRANCH 1 26
TORSDOF 11
ENDMDL
MODEL 3
USER: ADFR SOLUTION from run 199
USER: SCORE 12.005132 LL:  -3.515 LR:  -9.792 RR:   0.000 FEB:  -6.511
USER: RMSD 3.978319
USER: SEED 198
USER: STATUS no improvement in best in 3 clusters for 5 generations
USER: GENES 13
USER: genes 0 Translation |==|  0.44461 0.44723 0.33044
USER: genes 1 Rotation |==|  0.54323 0.52379 0.58532 0.99019
USER: genes 2 Torsion [C]-N--CA-[CB] |==|  0.23662
USER: genes 3 Torsion [N]-CA--C-[N] |==|  0.45344
USER: genes 4 Torsion [N]-CA--C-[N] |==|  0.18075
USER: genes 5 Torsion [C]-N--CA-[CB] |==|  0.22583
USER: genes 6 Torsion [N]-CA--C-[OXT] |==|  0.19667
USER: genes 7 Torsion [N]-CA--CB-[CG] |==|  0.73634
USER: genes 8 Torsion [CA]-CB--CG-[CD2] |==|  0.26907
USER: genes 9 Torsion [O]-C--CA-[CB] |==|  0.11617
USER: genes 10 Torsion [N]-C--CA-[N] |==|  0.40732
USER: genes 11 Torsion [C]-CA--N-[C] |==|  0.21667
USER: genes 12 Torsion [N]-C--CA-[CB] |==|  0.33453
ROOT
ATOM      1  C   PRO B  88      16.337   3.110  15.903  1.00 31.41 LIG 0.24  C 
ATOM      2 O    PRO B  88      16.262   4.285  15.522  1.00 30.85 LIG-0.27  OA
ATOM      3  N   LEU B  89      17.199   2.685  16.821  1.00 29.89 LIG-0.35  N 
ATOM      4 H    LEU B  89      17.263   1.866  17.078  1.00 29.89 LIG 0.16  HD
ENDROOT
BRANCH 3 5
ATOM      5  CA  LEU B  89      18.125   3.597  17.479  1.00 30.22 LIG 0.18  C 
BRANCH 5 6
ATOM      6  C   LEU B  89      19.367   2.837  17.945  1.00 29.45 LIG 0.24  C 
ATOM      7 O    LEU B  89      19.344   1.613  18.032  1.00 27.07 LIG-0.27  OA
ATOM      8  N   PRO B  90      20.452   3.566  18.252  1.00 31.27 LIG-0.34  N 
ATOM      9  CD  PRO B  90      20.607   5.028  18.101  1.00 32.01 LIG 0.13  C 
ATOM     10  CA  PRO B  90      21.705   2.928  18.702  1.00 32.16 LIG 0.18  C 
ATOM     11  CG  PRO B  90      21.965   5.296  18.690  1.00 32.17 LIG 0.02  C 
ATOM     12  CB  PRO B  90      22.740   4.031  18.500  1.00 32.36 LIG 0.04  C 
BRANCH 10 13
ATOM     13  C   PRO B  90      21.694   2.460  20.164  1.00 32.74 LIG 0.24  C 
ATOM     14  N   ALA B  91      20.846   1.482  20.496  1.00 33.34 LIG-0.34  N 
ATOM     15 H    ALA B  91      20.283   1.134  19.946  1.00 33.34 LIG 0.16  HD
ATOM     16 O    PRO B  90      22.457   2.993  20.972  1.00 32.61 LIG-0.27  OA
BRANCH 14 17
ATOM     17  CA  ALA B  91      20.799   0.903  21.849  1.00 34.79 LIG 0.18  C 
ATOM     18  CB  ALA B  91      19.968   1.797  22.794  1.00 34.67 LIG 0.04  C 
BRANCH 17 19
ATOM     19  C   ALA B  91      20.230  -0.519  21.817  1.00 35.98 LIG 0.20  C 
ATOM     20 OXT  ALA B  91      20.876  -1.463  21.333  1.00 36.84 LIG-0.65  OA
ATOM     21 O    ALA B  91      19.099  -0.744  22.263  1.00 37.03 LIG-0.65  OA
ENDBRANCH 17 19
ENDBRANCH 14 17
ENDBRANCH 10 13
ENDBRANCH 5 6
BRANCH 5 22
ATOM     22  CB  LEU B  89      17.461   4.273  18.682  1.00 30.14 LIG 0.04  C 
BRANCH 22 23
ATOM     23  CG  LEU B  89      16.828   5.651  18.470  1.00 30.45 LIG-0.02  C 
ATOM     24  CD1 LEU B  89      17.535   6.353  17.314  1.00 30.38 LIG 0.01  C 
ATOM     25  CD2 LEU B  89      15.322   5.526  18.227  1.00 30.79 LIG 0.01  C 
ENDBRANCH 22 23
ENDBRANCH 5 22
ENDBRANCH 3 5
BRANCH 1 26
ATOM     26  CA  PRO B  88      15.388   2.061  15.338  1.00 32.64 LIG 0.18  C 
ATOM     27  CB  PRO B  88      15.206   2.240  13.816  1.00 32.64 LIG 0.04  C 
ATOM     28  CG  PRO B  88      13.846   2.855  13.646  1.00 32.93 LIG 0.02  C 
ATOM     29  CD  PRO B  88      13.040   2.290  14.785  1.00 33.68 LIG 0.13  C 
ATOM     30  N   PRO B  88      14.029   2.210  15.874  1.00 34.22 LIG-0.34  N 
ATOM     31  C   GLY B  87      13.885   2.300  17.228  1.00 37.83 LIG 0.24  C 
ATOM     32 O    GLY B  87      14.845   2.293  18.005  1.00 36.70 LIG-0.27  OA
BRANCH 31 33
ATOM     33  CA  GLY B  87      12.475   2.421  17.794  1.00 40.95 LIG 0.23  C 
BRANCH 33 34
ATOM     34  N   GLY B  87      12.335   1.753  19.106  1.00 44.01 LIG-0.35  N 
ATOM     35 H    GLY B  87      11.948   0.986  19.077  1.00 44.01 LIG 0.16  HD
ATOM     36  C   PRO B  86      12.784   2.320  20.230  1.00 46.81 LIG 0.25  C 
ATOM     37 O    PRO B  86      13.349   3.412  20.239  1.00 48.58 LIG-0.27  OA
BRANCH 36 38
ATOM     38  CA  PRO B  86      12.610   1.573  21.563  1.00 48.28 LIG 0.35  C 
ATOM     39  N   PRO B  86      11.999   0.237  21.496  1.00 49.47 LIG 0.32  N 
ATOM     40  CD  PRO B  86      12.726  -0.741  22.323  1.00 50.15 LIG 0.32  C 
ATOM     41  CG  PRO B  86      14.114  -0.182  22.349  1.00 49.89 LIG 0.04  C 
ATOM     42  CB  PRO B  86      13.983   1.317  22.213  1.00 49.17 LIG 0.05  C 
ENDBRANCH 36 38
ENDBRANCH 33 34
ENDBRANCH 31 33
ENDBRANCH 1 26
TORSDOF 11
ENDMDL
MODEL 4
USER: ADFR SOLUTION from run 199
USER: SCORE 11.864980 LL:  -3.245 LR:  -9.594 RR:   0.000 FEB:  -6.312
USER: RMSD 3.405958
USER: SEED 198
USER: STATUS no improvement in best in 3 clusters for 5 generations
USER: GENES 13
USER: genes 0 Translation |==|  0.43712 0.43990 0.33842
USER: genes 1 Rotation |==|  0.55093 0.56713 0.60363 0.98183
USER: genes 2 Torsion [C]-N--CA-[CB] |==|  0.20542
USER: genes 3 Torsion [N]-CA--C-[N] |==|  0.47082
USER: genes 4 Torsion [N]-CA--C-[N] |==|  0.19770
USER: genes 5 Torsion [C]-N--CA-[CB] |==|  0.19574
USER: genes 6 Torsion [N]-CA--C-[OXT] |==|  0.16092
USER: genes 7 Torsion [N]-CA--CB-[CG] |==|  0.71522
USER: genes 8 Torsion [CA]-CB--CG-[CD2] |==|  0.29896
USER: genes 9 Torsion [O]-C--CA-[CB] |==|  0.09712
USER: genes 10 Torsion [N]-C--CA-[N] |==|  0.90775
USER: genes 11 Torsion [C]-CA--N-[C] |==|  0.81280
USER: genes 12 Torsion [N]-C--CA-[CB] |==|  0.26261
ROOT
ATOM      1  C   PRO B  88      16.168   2.989  16.035  1.00 31.41 LIG 0.24  C 
ATOM      2 O    PRO B  88      15.924   4.152  15.689  1.00 30.85 LIG-0.27  OA
ATOM      3  N   LEU B  89      17.209   2.645  16.787  1.00 29.89 LIG-0.35  N 
ATOM      4 H    LEU B  89      17.389   1.836  17.017  1.00 29.89 LIG 0.16  HD
ENDROOT
BRANCH 3 5
ATOM      5  CA  LEU B  89      18.147   3.638  17.292  1.00 30.22 LIG 0.18  C 
BRANCH 5 6
ATOM      6  C   LEU B  89      19.419   2.952  17.790  1.00 29.45 LIG 0.24  C 
ATOM      7 O    LEU B  89      19.453   1.731  17.913  1.00 27.07 LIG-0.27  OA
ATOM      8  N   PRO B  90      20.465   3.740  18.085  1.00 31.27 LIG-0.34  N 
ATOM      9  CD  PRO B  90      20.553   5.203  17.893  1.00 32.01 LIG 0.13  C 
ATOM     10  CA  PRO B  90      21.742   3.175  18.565  1.00 32.16 LIG 0.18  C 
ATOM     11  CG  PRO B  90      21.891   5.552  18.486  1.00 32.17 LIG 0.02  C 
ATOM     12  CB  PRO B  90      22.726   4.320  18.340  1.00 32.36 LIG 0.04  C 
BRANCH 10 13
ATOM     13  C   PRO B  90      21.739   2.750  20.040  1.00 32.74 LIG 0.24  C 
ATOM     14  N   ALA B  91      21.032   1.665  20.371  1.00 33.34 LIG-0.34  N 
ATOM     15 H    ALA B  91      20.550   1.223  19.812  1.00 33.34 LIG 0.16  HD
ATOM     16 O    PRO B  90      22.380   3.411  20.858  1.00 32.61 LIG-0.27  OA
BRANCH 14 17
ATOM     17  CA  ALA B  91      21.013   1.121  21.739  1.00 34.79 LIG 0.18  C 
ATOM     18  CB  ALA B  91      20.236   2.060  22.686  1.00 34.67 LIG 0.04  C 
BRANCH 17 19
ATOM     19  C   ALA B  91      20.408  -0.285  21.762  1.00 35.98 LIG 0.20  C 
ATOM     20 OXT  ALA B  91      20.891  -1.208  21.085  1.00 36.84 LIG-0.65  OA
ATOM     21 O    ALA B  91      19.408  -0.519  22.450  1.00 37.03 LIG-0.65  OA
ENDBRANCH 17 19
ENDBRANCH 14 17
ENDBRANCH 10 13
ENDBRANCH 5 6
BRANCH 5 22
ATOM     22  CB  LEU B  89      17.524   4.446  18.433  1.00 30.14 LIG 0.04  C 
BRANCH 22 23
ATOM     23  CG  LEU B  89      17.020   5.858  18.121  1.00 30.45 LIG-0.02  C 
ATOM     24  CD1 LEU B  89      17.611   6.315  16.790  1.00 30.38 LIG 0.01  C 
ATOM     25  CD2 LEU B  89      15.491   5.901  18.112  1.00 30.79 LIG 0.01  C 
ENDBRANCH 22 23
ENDBRANCH 5 22
ENDBRANCH 3 5
BRANCH 1 26
ATOM     26  CA  PRO B  88      15.235   1.857  15.623  1.00 32.64 LIG 0.18  C 
ATOM     27  CB  PRO B  88      14.648   2.106  14.218  1.00 32.64 LIG 0.04  C 
ATOM     28  CG  PRO B  88      13.227   2.537  14.450  1.00 32.93 LIG 0.02  C 
ATOM     29  CD  PRO B  88      12.815   1.795  15.693  1.00 33.68 LIG 0.13  C 
ATOM     30  N   PRO B  88      14.053   1.784  16.491  1.00 34.22 LIG-0.34  N 
ATOM     31  C   GLY B  87      14.254   1.766  17.840  1.00 37.83 LIG 0.24  C 
ATOM     32 O    GLY B  87      15.375   1.842  18.351  1.00 36.70 LIG-0.27  OA
BRANCH 31 33
ATOM     33  CA  GLY B  87      13.033   1.655  18.746  1.00 40.95 LIG 0.23  C 
BRANCH 33 34
ATOM     34  N   GLY B  87      11.846   2.333  18.179  1.00 44.01 LIG-0.35  N 
ATOM     35 H    GLY B  87      11.208   1.804  17.951  1.00 44.01 LIG 0.16  HD
ATOM     36  C   PRO B  86      11.799   3.662  18.045  1.00 46.81 LIG 0.25  C 
ATOM     37 O    PRO B  86      12.721   4.395  18.395  1.00 48.58 LIG-0.27  OA
BRANCH 36 38
ATOM     38  CA  PRO B  86      10.535   4.306  17.450  1.00 48.28 LIG 0.35  C 
ATOM     39  N   PRO B  86       9.697   3.451  16.596  1.00 49.47 LIG 0.32  N 
ATOM     40  CD  PRO B  86       8.267   3.590  16.916  1.00 50.15 LIG 0.32  C 
ATOM     41  CG  PRO B  86       8.290   3.995  18.357  1.00 49.89 LIG 0.04  C 
ATOM     42  CB  PRO B  86       9.582   4.747  18.577  1.00 49.17 LIG 0.05  C 
ENDBRANCH 36 38
ENDBRANCH 33 34
ENDBRANCH 31 33
ENDBRANCH 1 26
TORSDOF 11
ENDMDL
MODEL 5
USER: ADFR SOLUTION from run 196
USER: SCORE 13.253095 LL:  -4.384 LR:  -9.577 RR:   0.000 FEB:  -6.296
USER: RMSD 3.606348
USER: SEED 195
USER: STATUS no improvement in best in 3 clusters for 5 generations
USER: GENES 13
USER: genes 0 Translation |==|  0.45770 0.41312 0.36826
USER: genes 1 Rotation |==|  0.30198 0.43119 0.13270 0.76672
USER: genes 2 Torsion [C]-N--CA-[CB] |==|  0.83666
USER: genes 3 Torsion [N]-CA--C-[N] |==|  0.30021
USER: genes 4 Torsion [N]-CA--C-[N] |==|  0.95269
USER: genes 5 Torsion [C]-N--CA-[CB] |==|  0.24473
USER: genes 6 Torsion [N]-CA--C-[OXT] |==|  0.38334
USER: genes 7 Torsion [N]-CA--CB-[CG] |==|  0.53296
USER: genes 8 Torsion [CA]-CB--CG-[CD2] |==|  0.44071
USER: genes 9 Torsion [O]-C--CA-[CB] |==|  0.67760
USER: genes 10 Torsion [N]-C--CA-[N] |==|  0.64740
USER: genes 11 Torsion [C]-CA--N-[C] |==|  0.13337
USER: genes 12 Torsion [N]-C--CA-[CB] |==|  0.50069
ROOT
ATOM      1  C   PRO B  88      16.631   2.548  16.527  1.00 31.41 LIG 0.24  C 
ATOM      2 O    PRO B  88      17.275   1.545  16.193  1.00 30.85 LIG-0.27  OA
ATOM      3  N   LEU B  89      16.576   3.008  17.773  1.00 29.89 LIG-0.35  N 
ATOM      4 H    LEU B  89      16.117   3.696  18.011  1.00 29.89 LIG 0.16  HD
ENDROOT
BRANCH 3 5
ATOM      5  CA  LEU B  89      17.305   2.365  18.857  1.00 30.22 LIG 0.18  C 
BRANCH 5 6
ATOM      6  C   LEU B  89      18.809   2.431  18.589  1.00 29.45 LIG 0.24  C 
ATOM      7 O    LEU B  89      19.310   1.731  17.714  1.00 27.07 LIG-0.27  OA
ATOM      8  N   PRO B  90      19.532   3.269  19.349  1.00 31.27 LIG-0.34  N 
ATOM      9  CD  PRO B  90      19.015   4.210  20.365  1.00 32.01 LIG 0.13  C 
ATOM     10  CA  PRO B  90      20.988   3.414  19.164  1.00 32.16 LIG 0.18  C 
ATOM     11  CG  PRO B  90      20.264   4.801  20.960  1.00 32.17 LIG 0.02  C 
ATOM     12  CB  PRO B  90      21.294   4.727  19.879  1.00 32.36 LIG 0.04  C 
BRANCH 10 13
ATOM     13  C   PRO B  90      21.825   2.270  19.756  1.00 32.74 LIG 0.24  C 
ATOM     14  N   ALA B  91      21.237   1.472  20.653  1.00 33.34 LIG-0.34  N 
ATOM     15 H    ALA B  91      20.436   1.591  20.942  1.00 33.34 LIG 0.16  HD
ATOM     16 O    PRO B  90      22.992   2.127  19.390  1.00 32.61 LIG-0.27  OA
BRANCH 14 17
ATOM     17  CA  ALA B  91      21.916   0.302  21.233  1.00 34.79 LIG 0.18  C 
ATOM     18  CB  ALA B  91      22.715   0.705  22.491  1.00 34.67 LIG 0.04  C 
BRANCH 17 19
ATOM     19  C   ALA B  91      20.911  -0.805  21.568  1.00 35.98 LIG 0.20  C 
ATOM     20 OXT  ALA B  91      21.159  -1.998  21.326  1.00 36.84 LIG-0.65  OA
ATOM     21 O    ALA B  91      19.819  -0.519  22.073  1.00 37.03 LIG-0.65  OA
ENDBRANCH 17 19
ENDBRANCH 14 17
ENDBRANCH 10 13
ENDBRANCH 5 6
BRANCH 5 22
ATOM     22  CB  LEU B  89      16.879   0.902  19.010  1.00 30.14 LIG 0.04  C 
BRANCH 22 23
ATOM     23  CG  LEU B  89      17.331   0.151  20.265  1.00 30.45 LIG-0.02  C 
ATOM     24  CD1 LEU B  89      17.348   1.118  21.446  1.00 30.38 LIG 0.01  C 
ATOM     25  CD2 LEU B  89      16.431  -1.058  20.529  1.00 30.79 LIG 0.01  C 
ENDBRANCH 22 23
ENDBRANCH 5 22
ENDBRANCH 3 5
BRANCH 1 26
ATOM     26  CA  PRO B  88      15.866   3.349  15.482  1.00 32.64 LIG 0.18  C 
ATOM     27  CB  PRO B  88      16.435   4.777  15.352  1.00 32.64 LIG 0.04  C 
ATOM     28  CG  PRO B  88      15.445   5.667  16.050  1.00 32.93 LIG 0.02  C 
ATOM     29  CD  PRO B  88      14.119   4.993  15.822  1.00 33.68 LIG 0.13  C 
ATOM     30  N   PRO B  88      14.468   3.562  15.876  1.00 34.22 LIG-0.34  N 
ATOM     31  C   GLY B  87      13.743   2.474  16.264  1.00 37.83 LIG 0.24  C 
ATOM     32 O    GLY B  87      14.222   1.338  16.326  1.00 36.70 LIG-0.27  OA
BRANCH 31 33
ATOM     33  CA  GLY B  87      12.281   2.682  16.642  1.00 40.95 LIG 0.23  C 
BRANCH 33 34
ATOM     34  N   GLY B  87      11.959   2.131  17.976  1.00 44.01 LIG-0.35  N 
ATOM     35 H    GLY B  87      11.249   1.645  18.000  1.00 44.01 LIG 0.16  HD
ATOM     36  C   PRO B  86      12.727   2.383  19.040  1.00 46.81 LIG 0.25  C 
ATOM     37 O    PRO B  86      13.745   3.068  18.972  1.00 48.58 LIG-0.27  OA
BRANCH 36 38
ATOM     38  CA  PRO B  86      12.340   1.777  20.400  1.00 48.28 LIG 0.35  C 
ATOM     39  N   PRO B  86      12.325   0.309  20.488  1.00 49.47 LIG 0.32  N 
ATOM     40  CD  PRO B  86      12.980  -0.173  21.715  1.00 50.15 LIG 0.32  C 
ATOM     41  CG  PRO B  86      13.952   0.924  22.022  1.00 49.89 LIG 0.04  C 
ATOM     42  CB  PRO B  86      13.354   2.201  21.479  1.00 49.17 LIG 0.05  C 
ENDBRANCH 36 38
ENDBRANCH 33 34
ENDBRANCH 31 33
ENDBRANCH 1 26
TORSDOF 11
ENDMDL
MODEL 6
USER: ADFR SOLUTION from run 7
USER: SCORE 11.220215 LL:  -3.080 LR:  -9.256 RR:   0.000 FEB:  -5.974
USER: RMSD 3.401091
USER: SEED 732126
USER: STATUS no improvement in best in 3 clusters for 5 generations
USER: GENES 13
USER: genes 0 Translation |==|  0.43902 0.37844 0.39124
USER: genes 1 Rotation |==|  0.55383 0.42389 0.50368 0.99122
USER: genes 2 Torsion [C]-N--CA-[CB] |==|  0.52222
USER: genes 3 Torsion [N]-CA--C-[N] |==|  0.40660
USER: genes 4 Torsion [N]-CA--C-[N] |==|  0.48289
USER: genes 5 Torsion [C]-N--CA-[CB] |==|  0.38847
USER: genes 6 Torsion [N]-CA--C-[OXT] |==|  0.44215
USER: genes 7 Torsion [N]-CA--CB-[CG] |==|  0.33183
USER: genes 8 Torsion [CA]-CB--CG-[CD2] |==|  0.62815
USER: genes 9 Torsion [O]-C--CA-[CB] |==|  0.16955
USER: genes 10 Torsion [N]-C--CA-[N] |==|  0.34505
USER: genes 11 Torsion [C]-CA--N-[C] |==|  0.46463
USER: genes 12 Torsion [N]-C--CA-[CB] |==|  0.73883
ROOT
ATOM      1  C   PRO B  88      16.211   1.975  16.907  1.00 31.41 LIG 0.24  C 
ATOM      2 O    PRO B  88      16.670   3.107  16.708  1.00 30.85 LIG-0.27  OA
ATOM      3  N   LEU B  89      16.492   1.242  17.979  1.00 29.89 LIG-0.35  N 
ATOM      4 H    LEU B  89      16.186   0.449  18.113  1.00 29.89 LIG 0.16  HD
ENDROOT
BRANCH 3 5
ATOM      5  CA  LEU B  89      17.362   1.738  19.036  1.00 30.22 LIG 0.18  C 
BRANCH 5 6
ATOM      6  C   LEU B  89      18.666   2.266  18.438  1.00 29.45 LIG 0.24  C 
ATOM      7 O    LEU B  89      19.149   1.732  17.444  1.00 27.07 LIG-0.27  OA
ATOM      8  N   PRO B  90      19.241   3.314  19.050  1.00 31.27 LIG-0.34  N 
ATOM      9  CD  PRO B  90      18.699   4.077  20.194  1.00 32.01 LIG 0.13  C 
ATOM     10  CA  PRO B  90      20.496   3.905  18.546  1.00 32.16 LIG 0.18  C 
ATOM     11  CG  PRO B  90      19.799   5.051  20.515  1.00 32.17 LIG 0.02  C 
ATOM     12  CB  PRO B  90      20.526   5.271  19.227  1.00 32.36 LIG 0.04  C 
BRANCH 10 13
ATOM     13  C   PRO B  90      21.761   3.104  18.887  1.00 32.74 LIG 0.24  C 
ATOM     14  N   ALA B  91      22.916   3.515  18.355  1.00 33.34 LIG-0.34  N 
ATOM     15 H    ALA B  91      22.979   4.172  17.804  1.00 33.34 LIG 0.16  HD
ATOM     16 O    PRO B  90      21.671   2.126  19.630  1.00 32.61 LIG-0.27  OA
BRANCH 14 17
ATOM     17  CA  ALA B  91      24.203   2.870  18.668  1.00 34.79 LIG 0.18  C 
ATOM     18  CB  ALA B  91      25.076   2.755  17.400  1.00 34.67 LIG 0.04  C 
BRANCH 17 19
ATOM     19  C   ALA B  91      24.948   3.638  19.765  1.00 35.98 LIG 0.20  C 
ATOM     20 OXT  ALA B  91      25.835   3.096  20.444  1.00 36.84 LIG-0.65  OA
ATOM     21 O    ALA B  91      24.659   4.816  20.002  1.00 37.03 LIG-0.65  OA
ENDBRANCH 17 19
ENDBRANCH 14 17
ENDBRANCH 10 13
ENDBRANCH 5 6
BRANCH 5 22
ATOM     22  CB  LEU B  89      17.677   0.633  20.048  1.00 30.14 LIG 0.04  C 
BRANCH 22 23
ATOM     23  CG  LEU B  89      19.142   0.232  20.239  1.00 30.45 LIG-0.02  C 
ATOM     24  CD1 LEU B  89      19.665   0.856  21.530  1.00 30.38 LIG 0.01  C 
ATOM     25  CD2 LEU B  89      19.294  -1.291  20.239  1.00 30.79 LIG 0.01  C 
ENDBRANCH 22 23
ENDBRANCH 5 22
ENDBRANCH 3 5
BRANCH 1 26
ATOM     26  CA  PRO B  88      15.242   1.356  15.906  1.00 32.64 LIG 0.18  C 
ATOM     27  CB  PRO B  88      15.901   1.201  14.520  1.00 32.64 LIG 0.04  C 
ATOM     28  CG  PRO B  88      15.311   2.294  13.673  1.00 32.93 LIG 0.02  C 
ATOM     29  CD  PRO B  88      13.915   2.462  14.209  1.00 33.68 LIG 0.13  C 
ATOM     30  N   PRO B  88      14.090   2.230  15.653  1.00 34.22 LIG-0.34  N 
ATOM     31  C   GLY B  87      13.412   2.718  16.731  1.00 37.83 LIG 0.24  C 
ATOM     32 O    GLY B  87      13.746   2.481  17.896  1.00 36.70 LIG-0.27  OA
BRANCH 31 33
ATOM     33  CA  GLY B  87      12.193   3.598  16.475  1.00 40.95 LIG 0.23  C 
BRANCH 33 34
ATOM     34  N   GLY B  87      10.975   3.081  17.137  1.00 44.01 LIG-0.35  N 
ATOM     35 H    GLY B  87      11.045   2.277  17.435  1.00 44.01 LIG 0.16  HD
ATOM     36  C   PRO B  86       9.871   3.826  17.248  1.00 46.81 LIG 0.25  C 
ATOM     37 O    PRO B  86       9.806   4.978  16.826  1.00 48.58 LIG-0.27  OA
BRANCH 36 38
ATOM     38  CA  PRO B  86       8.638   3.231  17.949  1.00 48.28 LIG 0.35  C 
ATOM     39  N   PRO B  86       7.779   4.172  18.684  1.00 49.47 LIG 0.32  N 
ATOM     40  CD  PRO B  86       6.352   3.940  18.410  1.00 50.15 LIG 0.32  C 
ATOM     41  CG  PRO B  86       6.373   3.331  17.043  1.00 49.89 LIG 0.04  C 
ATOM     42  CB  PRO B  86       7.689   2.600  16.913  1.00 49.17 LIG 0.05  C 
ENDBRANCH 36 38
ENDBRANCH 33 34
ENDBRANCH 31 33
ENDBRANCH 1 26
TORSDOF 11
ENDMDL
