MODEL 1
USER: ADFR SOLUTION from run 144
USER: SCORE 17.987451 LL:  -4.995 LR: -14.742 RR:   0.000 FEB:  -7.583
USER: RMSD 2.051704
USER: SEED 143
USER: STATUS searching
USER: GENES 26
USER: genes 0 Translation |==|  0.40437 0.57762 0.57478
USER: genes 1 Rotation |==|  0.52119 0.48457 0.50479 0.99929
USER: genes 2 Torsion [C]-CA--N-[C] |==|  0.80194
USER: genes 3 Torsion [N]-C--CA-[N] |==|  0.88584
USER: genes 4 Torsion [C]-CA--N-[C] |==|  0.84783
USER: genes 5 Torsion [N]-C--CA-[N] |==|  0.38631
USER: genes 6 Torsion [C]-CA--N-[C] |==|  0.62910
USER: genes 7 Torsion [N]-C--CA-[N] |==|  0.82863
USER: genes 8 Torsion [C]-CA--CB-[SG] |==|  0.96546
USER: genes 9 Torsion [CA]-CB--SG-[HG] |==|  0.19379
USER: genes 10 Torsion [N]-CA--C-[N] |==|  0.95307
USER: genes 11 Torsion [C]-N--CA-[C] |==|  0.81829
USER: genes 12 Torsion [N]-CA--C-[N] |==|  0.90029
USER: genes 13 Torsion [C]-N--CA-[CB] |==|  0.36464
USER: genes 14 Torsion [N]-CA--C-[N] |==|  0.96642
USER: genes 15 Torsion [C]-N--CA-[C] |==|  0.56432
USER: genes 16 Torsion [N]-CA--C-[O] |==|  0.17111
USER: genes 17 Torsion [N]-CA--CB-[CG] |==|  0.67422
USER: genes 18 Torsion [CA]-CB--CG-[CD] |==|  0.76024
USER: genes 19 Torsion [CB]-CG--CD-[OE2] |==|  0.46358
USER: genes 20 Torsion [N]-CA--CB-[OG] |==|  0.20010
USER: genes 21 Torsion [CA]-CB--OG-[HG] |==|  0.84516
USER: genes 22 Torsion [N]-CA--CB-[CG] |==|  0.52852
USER: genes 23 Torsion [CA]-CB--CG-[CD] |==|  0.46128
USER: genes 24 Torsion [CB]-CG--CD-[NE] |==|  0.72804
USER: genes 25 Torsion [CG]-CD--NE-[CZ] |==|  0.32583
ROOT
ATOM      1  CA  ARG C1705     -15.132 -26.056  -6.909  1.00 19.53 LIG 0.18  C 
ENDROOT
BRANCH 1 2
ATOM      2  N   ARG C1705     -13.764 -26.562  -6.775  1.00 19.64 LIG-0.35  N 
ATOM      3 H    ARG C1705     -13.140 -26.009  -6.987  1.00 19.64 LIG 0.16  HD
ATOM      4  C   ALA C1704     -13.575 -27.806  -6.348  1.00 22.93 LIG 0.24  C 
ATOM      5 O    ALA C1704     -14.519 -28.573  -6.118  1.00 21.24 LIG-0.27  OA
BRANCH 4 6
ATOM      6  CA  ALA C1704     -12.133 -28.277  -6.163  1.00 20.87 LIG 0.17  C 
ATOM      7  CB  ALA C1704     -11.587 -27.861  -4.811  1.00 18.21 LIG 0.04  C 
BRANCH 6 8
ATOM      8  N   ALA C1704     -11.251 -27.831  -7.232  1.00 22.42 LIG-0.35  N 
ATOM      9  C   CYS C1703     -11.536 -28.093  -8.503  1.00 22.90 LIG 0.24  C 
ATOM     10 O    CYS C1703     -12.577 -28.641  -8.858  1.00 23.45 LIG-0.27  OA
ATOM     11 H    ALA C1704     -10.555 -27.399  -6.968  1.00 22.42 LIG 0.16  HD
BRANCH 9 12
ATOM     12  CA  CYS C1703     -10.493 -27.670  -9.530  1.00 24.41 LIG 0.18  C 
BRANCH 12 13
ATOM     13  N   CYS C1703     -10.336 -28.693 -10.563  1.00 24.32 LIG-0.34  N 
ATOM     14  C   GLY C1702      -9.120 -29.084 -10.943  1.00 24.70 LIG 0.25  C 
ATOM     15 O    GLY C1702      -8.093 -28.563 -10.505  1.00 27.37 LIG-0.27  OA
ATOM     16 H    CYS C1703     -11.072 -29.001 -10.885  1.00 24.32 LIG 0.16  HD
BRANCH 14 17
ATOM     17  CA  GLY C1702      -9.040 -30.213 -11.954  1.00 25.50 LIG 0.47  C 
ATOM     18  N   GLY C1702      -9.625 -31.447 -11.454  1.00 32.41 LIG 0.61  N 
ENDBRANCH 14 17
ENDBRANCH 12 13
BRANCH 12 19
ATOM     19  CB  CYS C1703     -10.850 -26.302 -10.138  1.00 19.88 LIG 0.10  C 
BRANCH 19 20
ATOM     20 SG   CYS C1703     -12.519 -25.706  -9.791  1.00 23.51 LIG-0.18  SA
ATOM     21 HG   CYS C1703     -12.606 -25.415  -8.630  1.00 23.51 LIG 0.10  HD
ENDBRANCH 19 20
ENDBRANCH 12 19
ENDBRANCH 9 12
ENDBRANCH 6 8
ENDBRANCH 4 6
ENDBRANCH 1 2
BRANCH 1 22
ATOM     22  C   ARG C1705     -15.917 -26.672  -8.080  1.00 20.76 LIG 0.24  C 
ATOM     23 O    ARG C1705     -17.148 -26.574  -8.128  1.00 22.20 LIG-0.27  OA
ATOM     24  N   SER C1706     -15.216 -27.297  -9.023  1.00 20.62 LIG-0.34  N 
ATOM     25 H    SER C1706     -14.361 -27.388  -9.013  1.00 20.62 LIG 0.16  HD
BRANCH 24 26
ATOM     26  CA  SER C1706     -15.882 -27.889 -10.179  1.00 20.36 LIG 0.20  C 
BRANCH 26 27
ATOM     27  C   SER C1706     -16.785 -29.046  -9.765  1.00 23.85 LIG 0.24  C 
ATOM     28 O    SER C1706     -17.858 -29.240 -10.336  1.00 24.92 LIG-0.27  OA
ATOM     29  N   GLU C1707     -16.353 -29.804  -8.764  1.00 21.35 LIG-0.35  N 
ATOM     30 H    GLU C1707     -15.593 -29.700  -8.375  1.00 21.35 LIG 0.16  HD
BRANCH 29 31
ATOM     31  CA  GLU C1707     -17.161 -30.902  -8.235  1.00 28.80 LIG 0.18  C 
BRANCH 31 32
ATOM     32  C   GLU C1707     -17.721 -30.535  -6.869  1.00 29.29 LIG 0.24  C 
ATOM     33 O    GLU C1707     -18.604 -31.219  -6.347  1.00 32.31 LIG-0.27  OA
ATOM     34  N   GLY C1708     -17.203 -29.451  -6.298  1.00 26.36 LIG-0.35  N 
ATOM     35 H    GLY C1708     -16.607 -28.954  -6.669  1.00 26.36 LIG 0.16  HD
BRANCH 34 36
ATOM     36  CA  GLY C1708     -17.610 -29.011  -4.978  1.00 26.05 LIG 0.21  C 
BRANCH 36 37
ATOM     37  C   GLY C1708     -17.360 -27.537  -4.740  1.00 34.75 LIG 0.21  C 
ATOM     38 O    GLY C1708     -17.911 -26.684  -5.427  1.00 36.48 LIG-0.29  OA
ENDBRANCH 36 37
ENDBRANCH 34 36
ENDBRANCH 31 32
BRANCH 31 39
ATOM     39  CB  GLU C1707     -16.342 -32.191  -8.113  1.00 30.33 LIG 0.04  C 
BRANCH 39 40
ATOM     40  CG  GLU C1707     -16.840 -33.334  -8.981  1.00 34.25 LIG 0.12  C 
BRANCH 40 41
ATOM     41  CD  GLU C1707     -17.930 -34.153  -8.306  1.00 39.35 LIG 0.17  C 
ATOM     42 OE2  GLU C1707     -18.587 -34.955  -9.005  1.00 42.40 LIG-0.65  OA
ATOM     43 OE1  GLU C1707     -18.129 -33.992  -7.081  1.00 45.84 LIG-0.65  OA
ENDBRANCH 40 41
ENDBRANCH 39 40
ENDBRANCH 31 39
ENDBRANCH 29 31
ENDBRANCH 26 27
BRANCH 26 44
ATOM     44  CB  SER C1706     -14.867 -28.347 -11.231  1.00 19.38 LIG 0.20  C 
BRANCH 44 45
ATOM     45 OG   SER C1706     -14.159 -29.505 -10.805  1.00 20.52 LIG-0.40  OA
ATOM     46 HG   SER C1706     -13.793 -29.354 -10.065  1.00 20.52 LIG 0.21  HD
ENDBRANCH 44 45
ENDBRANCH 26 44
ENDBRANCH 24 26
ENDBRANCH 1 22
BRANCH 1 47
ATOM     47  CB  ARG C1705     -15.160 -24.523  -6.977  1.00 21.30 LIG 0.04  C 
BRANCH 47 48
ATOM     48  CG  ARG C1705     -16.575 -23.951  -6.865  1.00 23.17 LIG 0.02  C 
BRANCH 48 49
ATOM     49  CD  ARG C1705     -16.590 -22.446  -6.592  1.00 21.38 LIG 0.14  C 
BRANCH 49 50
ATOM     50  NE  ARG C1705     -16.773 -22.135  -5.172  1.00 20.43 LIG-0.23  N 
ATOM     51  CZ  ARG C1705     -15.888 -21.498  -4.407  1.00 19.01 LIG 0.67  C 
ATOM     52  NH1 ARG C1705     -14.724 -21.080  -4.908  1.00 20.29 LIG-0.23  N 
ATOM     53  NH2 ARG C1705     -16.166 -21.280  -3.129  1.00 19.46 LIG-0.23  N 
ATOM     54 1HH1 ARG C1705     -14.536 -21.221  -5.736  1.00 20.29 LIG 0.17  HD
ATOM     55 2HH1 ARG C1705     -14.161 -20.670  -4.403  1.00 20.29 LIG 0.17  HD
ATOM     56 2HH2 ARG C1705     -15.599 -20.869  -2.630  1.00 19.46 LIG 0.17  HD
ATOM     57 1HH2 ARG C1705     -16.913 -21.550  -2.799  1.00 19.46 LIG 0.17  HD
ATOM     58 HE   ARG C1705     -17.509 -22.383  -4.803  1.00 20.43 LIG 0.18  HD
ENDBRANCH 49 50
ENDBRANCH 48 49
ENDBRANCH 47 48
ENDBRANCH 1 47
TORSDOF 24
ENDMDL
MODEL 2
USER: ADFR SOLUTION from run 10
USER: SCORE 16.606994 LL:  -4.129 LR: -14.323 RR:   0.000 FEB:  -7.163
USER: RMSD 3.097597
USER: SEED 963900
USER: STATUS no improvement in best in 2 clusters for 5 generations
USER: GENES 26
USER: genes 0 Translation |==|  0.40607 0.57892 0.57123
USER: genes 1 Rotation |==|  0.52383 0.48644 0.50251 0.99924
USER: genes 2 Torsion [C]-CA--N-[C] |==|  0.79593
USER: genes 3 Torsion [N]-C--CA-[N] |==|  0.88667
USER: genes 4 Torsion [C]-CA--N-[C] |==|  0.85082
USER: genes 5 Torsion [N]-C--CA-[N] |==|  0.41956
USER: genes 6 Torsion [C]-CA--N-[C] |==|  0.62868
USER: genes 7 Torsion [N]-C--CA-[N] |==|  0.74935
USER: genes 8 Torsion [C]-CA--CB-[SG] |==|  0.87373
USER: genes 9 Torsion [CA]-CB--SG-[HG] |==|  0.48599
USER: genes 10 Torsion [N]-CA--C-[N] |==|  0.89625
USER: genes 11 Torsion [C]-N--CA-[C] |==|  0.70002
USER: genes 12 Torsion [N]-CA--C-[N] |==|  0.27606
USER: genes 13 Torsion [C]-N--CA-[CB] |==|  0.37135
USER: genes 14 Torsion [N]-CA--C-[N] |==|  0.90232
USER: genes 15 Torsion [C]-N--CA-[C] |==|  0.76085
USER: genes 16 Torsion [N]-CA--C-[O] |==|  0.00458
USER: genes 17 Torsion [N]-CA--CB-[CG] |==|  0.42332
USER: genes 18 Torsion [CA]-CB--CG-[CD] |==|  0.65825
USER: genes 19 Torsion [CB]-CG--CD-[OE2] |==|  0.48208
USER: genes 20 Torsion [N]-CA--CB-[OG] |==|  0.13548
USER: genes 21 Torsion [CA]-CB--OG-[HG] |==|  0.12996
USER: genes 22 Torsion [N]-CA--CB-[CG] |==|  0.52770
USER: genes 23 Torsion [CA]-CB--CG-[CD] |==|  0.46169
USER: genes 24 Torsion [CB]-CG--CD-[NE] |==|  0.72373
USER: genes 25 Torsion [CG]-CD--NE-[CZ] |==|  0.33011
ROOT
ATOM      1  CA  ARG C1705     -15.102 -26.026  -6.973  1.00 19.53 LIG 0.18  C 
ENDROOT
BRANCH 1 2
ATOM      2  N   ARG C1705     -13.736 -26.546  -6.855  1.00 19.64 LIG-0.35  N 
ATOM      3 H    ARG C1705     -13.111 -26.006  -7.094  1.00 19.64 LIG 0.16  HD
ATOM      4  C   ALA C1704     -13.553 -27.781  -6.402  1.00 22.93 LIG 0.24  C 
ATOM      5 O    ALA C1704     -14.501 -28.531  -6.134  1.00 21.24 LIG-0.27  OA
BRANCH 4 6
ATOM      6  CA  ALA C1704     -12.113 -28.265  -6.236  1.00 20.87 LIG 0.17  C 
ATOM      7  CB  ALA C1704     -11.536 -27.828  -4.903  1.00 18.21 LIG 0.04  C 
BRANCH 6 8
ATOM      8  N   ALA C1704     -11.247 -27.850  -7.330  1.00 22.42 LIG-0.35  N 
ATOM      9  C   CYS C1703     -11.570 -28.114  -8.591  1.00 22.90 LIG 0.24  C 
ATOM     10 O    CYS C1703     -12.633 -28.639  -8.916  1.00 23.45 LIG-0.27  OA
ATOM     11 H    ALA C1704     -10.534 -27.434  -7.088  1.00 22.42 LIG 0.16  HD
BRANCH 9 12
ATOM     12  CA  CYS C1703     -10.544 -27.726  -9.647  1.00 24.41 LIG 0.18  C 
BRANCH 12 13
ATOM     13  N   CYS C1703     -10.636 -28.607 -10.812  1.00 24.32 LIG-0.34  N 
ATOM     14  C   GLY C1702      -9.534 -29.129 -11.348  1.00 24.70 LIG 0.25  C 
ATOM     15 O    GLY C1702      -8.405 -28.844 -10.945  1.00 27.37 LIG-0.27  OA
ATOM     16 H    CYS C1703     -11.434 -28.746 -11.100  1.00 24.32 LIG 0.16  HD
BRANCH 14 17
ATOM     17  CA  GLY C1702      -9.718 -30.105 -12.497  1.00 25.50 LIG 0.47  C 
ATOM     18  N   GLY C1702      -9.837 -31.481 -12.040  1.00 32.41 LIG 0.61  N 
ENDBRANCH 14 17
ENDBRANCH 12 13
BRANCH 12 19
ATOM     19  CB  CYS C1703     -10.702 -26.247 -10.044  1.00 19.88 LIG 0.10  C 
BRANCH 19 20
ATOM     20 SG   CYS C1703     -12.395 -25.697 -10.346  1.00 23.51 LIG-0.18  SA
ATOM     21 HG   CYS C1703     -12.401 -24.515 -10.549  1.00 23.51 LIG 0.10  HD
ENDBRANCH 19 20
ENDBRANCH 12 19
ENDBRANCH 9 12
ENDBRANCH 6 8
ENDBRANCH 4 6
ENDBRANCH 1 2
BRANCH 1 22
ATOM     22  C   ARG C1705     -15.900 -26.623  -8.144  1.00 20.76 LIG 0.24  C 
ATOM     23 O    ARG C1705     -17.108 -26.857  -8.023  1.00 22.20 LIG-0.27  OA
ATOM     24  N   SER C1706     -15.240 -26.863  -9.275  1.00 20.62 LIG-0.34  N 
ATOM     25 H    SER C1706     -14.400 -26.719  -9.386  1.00 20.62 LIG 0.16  HD
BRANCH 24 26
ATOM     26  CA  SER C1706     -15.930 -27.407 -10.440  1.00 20.36 LIG 0.20  C 
BRANCH 26 27
ATOM     27  C   SER C1706     -15.543 -28.863 -10.683  1.00 23.85 LIG 0.24  C 
ATOM     28 O    SER C1706     -14.497 -29.144 -11.267  1.00 24.92 LIG-0.27  OA
ATOM     29  N   GLU C1707     -16.394 -29.781 -10.245  1.00 21.35 LIG-0.35  N 
ATOM     30 H    GLU C1707     -17.114 -29.602  -9.808  1.00 21.35 LIG 0.16  HD
BRANCH 29 31
ATOM     31  CA  GLU C1707     -16.165 -31.207 -10.478  1.00 28.80 LIG 0.18  C 
BRANCH 31 32
ATOM     32  C   GLU C1707     -17.093 -31.719 -11.569  1.00 29.29 LIG 0.24  C 
ATOM     33 O    GLU C1707     -16.714 -32.585 -12.361  1.00 32.31 LIG-0.27  OA
ATOM     34  N   GLY C1708     -18.306 -31.176 -11.606  1.00 26.36 LIG-0.35  N 
ATOM     35 H    GLY C1708     -18.567 -30.552 -11.076  1.00 26.36 LIG 0.16  HD
BRANCH 34 36
ATOM     36  CA  GLY C1708     -19.307 -31.600 -12.565  1.00 26.05 LIG 0.21  C 
BRANCH 36 37
ATOM     37  C   GLY C1708     -19.201 -30.881 -13.893  1.00 34.75 LIG 0.21  C 
ATOM     38 O    GLY C1708     -18.317 -30.055 -14.095  1.00 36.48 LIG-0.29  OA
ENDBRANCH 36 37
ENDBRANCH 34 36
ENDBRANCH 31 32
BRANCH 31 39
ATOM     39  CB  GLU C1707     -16.390 -32.026  -9.203  1.00 30.33 LIG 0.04  C 
BRANCH 39 40
ATOM     40  CG  GLU C1707     -16.822 -33.461  -9.448  1.00 34.25 LIG 0.12  C 
BRANCH 40 41
ATOM     41  CD  GLU C1707     -18.141 -33.802  -8.772  1.00 39.35 LIG 0.17  C 
ATOM     42 OE2  GLU C1707     -18.657 -34.917  -9.005  1.00 42.40 LIG-0.65  OA
ATOM     43 OE1  GLU C1707     -18.661 -32.955  -8.011  1.00 45.84 LIG-0.65  OA
ENDBRANCH 40 41
ENDBRANCH 39 40
ENDBRANCH 31 39
ENDBRANCH 29 31
ENDBRANCH 26 27
BRANCH 26 44
ATOM     44  CB  SER C1706     -15.660 -26.562 -11.690  1.00 19.38 LIG 0.20  C 
BRANCH 44 45
ATOM     45 OG   SER C1706     -14.271 -26.300 -11.854  1.00 20.52 LIG-0.40  OA
ATOM     46 HG   SER C1706     -13.837 -27.011 -11.749  1.00 20.52 LIG 0.21  HD
ENDBRANCH 44 45
ENDBRANCH 26 44
ENDBRANCH 24 26
ENDBRANCH 1 22
BRANCH 1 47
ATOM     47  CB  ARG C1705     -15.117 -24.493  -7.025  1.00 21.30 LIG 0.04  C 
BRANCH 47 48
ATOM     48  CG  ARG C1705     -16.527 -23.911  -6.902  1.00 23.17 LIG 0.02  C 
BRANCH 48 49
ATOM     49  CD  ARG C1705     -16.528 -22.408  -6.617  1.00 21.38 LIG 0.14  C 
BRANCH 49 50
ATOM     50  NE  ARG C1705     -16.740 -22.106  -5.198  1.00 20.43 LIG-0.23  N 
ATOM     51  CZ  ARG C1705     -15.877 -21.462  -4.415  1.00 19.01 LIG 0.67  C 
ATOM     52  NH1 ARG C1705     -14.709 -21.026  -4.894  1.00 20.29 LIG-0.23  N 
ATOM     53  NH2 ARG C1705     -16.179 -21.254  -3.141  1.00 19.46 LIG-0.23  N 
ATOM     54 1HH1 ARG C1705     -14.506 -21.160  -5.719  1.00 20.29 LIG 0.17  HD
ATOM     55 2HH1 ARG C1705     -14.161 -20.612  -4.377  1.00 20.29 LIG 0.17  HD
ATOM     56 2HH2 ARG C1705     -15.626 -20.839  -2.630  1.00 19.46 LIG 0.17  HD
ATOM     57 1HH2 ARG C1705     -16.928 -21.535  -2.825  1.00 19.46 LIG 0.17  HD
ATOM     58 HE   ARG C1705     -17.479 -22.366  -4.844  1.00 20.43 LIG 0.18  HD
ENDBRANCH 49 50
ENDBRANCH 48 49
ENDBRANCH 47 48
ENDBRANCH 1 47
TORSDOF 24
ENDMDL
MODEL 3
USER: ADFR SOLUTION from run 120
USER: SCORE 17.171875 LL:  -4.515 LR: -14.008 RR:   0.000 FEB:  -6.849
USER: RMSD 3.132854
USER: SEED 119
USER: STATUS no improvement in best in 5 clusters for 5 generations
USER: GENES 26
USER: genes 0 Translation |==|  0.31474 0.54686 0.58533
USER: genes 1 Rotation |==|  0.49461 0.34888 0.44383 0.97326
USER: genes 2 Torsion [C]-CA--N-[C] |==|  0.75034
USER: genes 3 Torsion [N]-C--CA-[N] |==|  0.97277
USER: genes 4 Torsion [C]-CA--N-[C] |==|  0.82909
USER: genes 5 Torsion [N]-C--CA-[N] |==|  0.67800
USER: genes 6 Torsion [C]-CA--N-[C] |==|  0.72274
USER: genes 7 Torsion [N]-C--CA-[N] |==|  0.23537
USER: genes 8 Torsion [C]-CA--CB-[SG] |==|  0.65474
USER: genes 9 Torsion [CA]-CB--SG-[HG] |==|  0.81183
USER: genes 10 Torsion [N]-CA--C-[N] |==|  0.99198
USER: genes 11 Torsion [C]-N--CA-[C] |==|  0.65712
USER: genes 12 Torsion [N]-CA--C-[N] |==|  0.01813
USER: genes 13 Torsion [C]-N--CA-[CB] |==|  0.18859
USER: genes 14 Torsion [N]-CA--C-[N] |==|  0.07866
USER: genes 15 Torsion [C]-N--CA-[C] |==|  0.20048
USER: genes 16 Torsion [N]-CA--C-[O] |==|  0.94867
USER: genes 17 Torsion [N]-CA--CB-[CG] |==|  0.66295
USER: genes 18 Torsion [CA]-CB--CG-[CD] |==|  0.85657
USER: genes 19 Torsion [CB]-CG--CD-[OE2] |==|  0.33266
USER: genes 20 Torsion [N]-CA--CB-[OG] |==|  0.12656
USER: genes 21 Torsion [CA]-CB--OG-[HG] |==|  0.96117
USER: genes 22 Torsion [N]-CA--CB-[CG] |==|  0.57574
USER: genes 23 Torsion [CA]-CB--CG-[CD] |==|  0.53740
USER: genes 24 Torsion [CB]-CG--CD-[NE] |==|  0.87808
USER: genes 25 Torsion [CG]-CD--NE-[CZ] |==|  0.78680
ROOT
ATOM      1  CA  ARG C1705     -16.746 -26.748  -6.719  1.00 19.53 LIG 0.18  C 
ENDROOT
BRANCH 1 2
ATOM      2  N   ARG C1705     -15.831 -27.531  -5.883  1.00 19.64 LIG-0.35  N 
ATOM      3 H    ARG C1705     -15.000 -27.320  -5.942  1.00 19.64 LIG 0.16  HD
ATOM      4  C   ALA C1704     -16.327 -28.490  -5.109  1.00 22.93 LIG 0.24  C 
ATOM      5 O    ALA C1704     -17.529 -28.785  -5.116  1.00 21.24 LIG-0.27  OA
BRANCH 4 6
ATOM      6  CA  ALA C1704     -15.351 -29.243  -4.206  1.00 20.87 LIG 0.17  C 
ATOM      7  CB  ALA C1704     -15.653 -28.996  -2.741  1.00 18.21 LIG 0.04  C 
BRANCH 6 8
ATOM      8  N   ALA C1704     -13.958 -28.938  -4.500  1.00 22.42 LIG-0.35  N 
ATOM      9  C   CYS C1703     -13.439 -29.212  -5.692  1.00 22.90 LIG 0.24  C 
ATOM     10 O    CYS C1703     -14.103 -29.654  -6.628  1.00 23.45 LIG-0.27  OA
ATOM     11 H    ALA C1704     -13.523 -28.577  -3.852  1.00 22.42 LIG 0.16  HD
BRANCH 9 12
ATOM     12  CA  CYS C1703     -11.948 -28.947  -5.857  1.00 24.41 LIG 0.18  C 
BRANCH 12 13
ATOM     13  N   CYS C1703     -11.713 -27.898  -6.850  1.00 24.32 LIG-0.34  N 
ATOM     14  C   GLY C1702     -11.363 -28.219  -8.095  1.00 24.70 LIG 0.25  C 
ATOM     15 O    GLY C1702     -11.152 -29.382  -8.443  1.00 27.37 LIG-0.27  OA
ATOM     16 H    CYS C1703     -11.819 -27.095  -6.564  1.00 24.32 LIG 0.16  HD
BRANCH 14 17
ATOM     17  CA  GLY C1702     -11.226 -27.081  -9.091  1.00 25.50 LIG 0.47  C 
ATOM     18  N   GLY C1702      -9.915 -26.452  -9.037  1.00 32.41 LIG 0.61  N 
ENDBRANCH 14 17
ENDBRANCH 12 13
BRANCH 12 19
ATOM     19  CB  CYS C1703     -11.303 -28.597  -4.504  1.00 19.88 LIG 0.10  C 
BRANCH 19 20
ATOM     20 SG   CYS C1703     -10.418 -27.024  -4.446  1.00 23.51 LIG-0.18  SA
ATOM     21 HG   CYS C1703      -9.440 -27.090  -5.138  1.00 23.51 LIG 0.10  HD
ENDBRANCH 19 20
ENDBRANCH 12 19
ENDBRANCH 9 12
ENDBRANCH 6 8
ENDBRANCH 4 6
ENDBRANCH 1 2
BRANCH 1 22
ATOM     22  C   ARG C1705     -16.978 -27.340  -8.119  1.00 20.76 LIG 0.24  C 
ATOM     23 O    ARG C1705     -17.764 -26.800  -8.905  1.00 22.20 LIG-0.27  OA
ATOM     24  N   SER C1706     -16.296 -28.439  -8.438  1.00 20.62 LIG-0.34  N 
ATOM     25 H    SER C1706     -15.749 -28.842  -7.911  1.00 20.62 LIG 0.16  HD
BRANCH 24 26
ATOM     26  CA  SER C1706     -16.442 -29.051  -9.755  1.00 20.36 LIG 0.20  C 
BRANCH 26 27
ATOM     27  C   SER C1706     -16.873 -30.509  -9.643  1.00 23.85 LIG 0.24  C 
ATOM     28 O    SER C1706     -16.943 -31.221 -10.645  1.00 24.92 LIG-0.27  OA
ATOM     29  N   GLU C1707     -17.173 -30.946  -8.426  1.00 21.35 LIG-0.35  N 
ATOM     30 H    GLU C1707     -17.101 -30.470  -7.713  1.00 21.35 LIG 0.16  HD
BRANCH 29 31
ATOM     31  CA  GLU C1707     -17.662 -32.306  -8.202  1.00 28.80 LIG 0.18  C 
BRANCH 31 32
ATOM     32  C   GLU C1707     -18.140 -32.465  -6.767  1.00 29.29 LIG 0.24  C 
ATOM     33 O    GLU C1707     -18.102 -33.565  -6.210  1.00 32.31 LIG-0.27  OA
ATOM     34  N   GLY C1708     -18.591 -31.362  -6.176  1.00 26.36 LIG-0.35  N 
ATOM     35 H    GLY C1708     -18.646 -30.599  -6.567  1.00 26.36 LIG 0.16  HD
BRANCH 34 36
ATOM     36  CA  GLY C1708     -19.036 -31.359  -4.796  1.00 26.05 LIG 0.21  C 
BRANCH 36 37
ATOM     37  C   GLY C1708     -17.899 -31.482  -3.804  1.00 34.75 LIG 0.21  C 
ATOM     38 O    GLY C1708     -16.801 -31.903  -4.152  1.00 36.48 LIG-0.29  OA
ENDBRANCH 36 37
ENDBRANCH 34 36
ENDBRANCH 31 32
BRANCH 31 39
ATOM     39  CB  GLU C1707     -16.575 -33.346  -8.488  1.00 30.33 LIG 0.04  C 
BRANCH 39 40
ATOM     40  CG  GLU C1707     -16.941 -34.357  -9.561  1.00 34.25 LIG 0.12  C 
BRANCH 40 41
ATOM     41  CD  GLU C1707     -18.286 -35.022  -9.307  1.00 39.35 LIG 0.17  C 
ATOM     42 OE2  GLU C1707     -19.185 -34.887 -10.165  1.00 42.40 LIG-0.65  OA
ATOM     43 OE1  GLU C1707     -18.442 -35.675  -8.251  1.00 45.84 LIG-0.65  OA
ENDBRANCH 40 41
ENDBRANCH 39 40
ENDBRANCH 31 39
ENDBRANCH 29 31
ENDBRANCH 26 27
BRANCH 26 44
ATOM     44  CB  SER C1706     -15.149 -28.932 -10.569  1.00 19.38 LIG 0.20  C 
BRANCH 44 45
ATOM     45 OG   SER C1706     -14.008 -29.272  -9.791  1.00 20.52 LIG-0.40  OA
ATOM     46 HG   SER C1706     -14.219 -29.293  -8.979  1.00 20.52 LIG 0.21  HD
ENDBRANCH 44 45
ENDBRANCH 26 44
ENDBRANCH 24 26
ENDBRANCH 1 22
BRANCH 1 47
ATOM     47  CB  ARG C1705     -16.305 -25.280  -6.812  1.00 21.30 LIG 0.04  C 
BRANCH 47 48
ATOM     48  CG  ARG C1705     -17.474 -24.327  -7.066  1.00 23.17 LIG 0.02  C 
BRANCH 48 49
ATOM     49  CD  ARG C1705     -17.021 -22.926  -7.482  1.00 21.38 LIG 0.14  C 
BRANCH 49 50
ATOM     50  NE  ARG C1705     -15.904 -22.433  -6.671  1.00 20.43 LIG-0.23  N 
ATOM     51  CZ  ARG C1705     -16.010 -21.962  -5.430  1.00 19.01 LIG 0.67  C 
ATOM     52  NH1 ARG C1705     -17.194 -21.907  -4.815  1.00 20.29 LIG-0.23  N 
ATOM     53  NH2 ARG C1705     -14.925 -21.536  -4.797  1.00 19.46 LIG-0.23  N 
ATOM     54 1HH1 ARG C1705     -17.902 -22.178  -5.221  1.00 20.29 LIG 0.17  HD
ATOM     55 2HH1 ARG C1705     -17.248 -21.600  -4.013  1.00 20.29 LIG 0.17  HD
ATOM     56 2HH2 ARG C1705     -14.987 -21.231  -3.996  1.00 19.46 LIG 0.17  HD
ATOM     57 1HH2 ARG C1705     -14.160 -21.566  -5.189  1.00 19.46 LIG 0.17  HD
ATOM     58 HE   ARG C1705     -15.120 -22.450  -7.023  1.00 20.43 LIG 0.18  HD
ENDBRANCH 49 50
ENDBRANCH 48 49
ENDBRANCH 47 48
ENDBRANCH 1 47
TORSDOF 24
ENDMDL
MODEL 4
USER: ADFR SOLUTION from run 152
USER: SCORE 17.986811 LL:  -5.082 LR: -13.955 RR:   0.000 FEB:  -6.795
USER: RMSD 2.812886
USER: SEED 151
USER: STATUS no improvement in best in 2 clusters for 5 generations
USER: GENES 26
USER: genes 0 Translation |==|  0.38481 0.53703 0.55446
USER: genes 1 Rotation |==|  0.48118 0.47137 0.49246 0.99877
USER: genes 2 Torsion [C]-CA--N-[C] |==|  0.77489
USER: genes 3 Torsion [N]-C--CA-[N] |==|  0.84535
USER: genes 4 Torsion [C]-CA--N-[C] |==|  0.85654
USER: genes 5 Torsion [N]-C--CA-[N] |==|  0.91208
USER: genes 6 Torsion [C]-CA--N-[C] |==|  0.83835
USER: genes 7 Torsion [N]-C--CA-[N] |==|  0.74386
USER: genes 8 Torsion [C]-CA--CB-[SG] |==|  0.85563
USER: genes 9 Torsion [CA]-CB--SG-[HG] |==|  0.88535
USER: genes 10 Torsion [N]-CA--C-[N] |==|  0.96332
USER: genes 11 Torsion [C]-N--CA-[C] |==|  0.77817
USER: genes 12 Torsion [N]-CA--C-[N] |==|  0.00495
USER: genes 13 Torsion [C]-N--CA-[CB] |==|  0.25494
USER: genes 14 Torsion [N]-CA--C-[N] |==|  0.99193
USER: genes 15 Torsion [C]-N--CA-[C] |==|  0.51723
USER: genes 16 Torsion [N]-CA--C-[O] |==|  0.10088
USER: genes 17 Torsion [N]-CA--CB-[CG] |==|  0.75038
USER: genes 18 Torsion [CA]-CB--CG-[CD] |==|  0.79652
USER: genes 19 Torsion [CB]-CG--CD-[OE2] |==|  0.32006
USER: genes 20 Torsion [N]-CA--CB-[OG] |==|  0.05576
USER: genes 21 Torsion [CA]-CB--OG-[HG] |==|  0.81509
USER: genes 22 Torsion [N]-CA--CB-[CG] |==|  0.52715
USER: genes 23 Torsion [CA]-CB--CG-[CD] |==|  0.45158
USER: genes 24 Torsion [CB]-CG--CD-[NE] |==|  0.92121
USER: genes 25 Torsion [CG]-CD--NE-[CZ] |==|  0.70353
ROOT
ATOM      1  CA  ARG C1705     -15.484 -26.969  -7.275  1.00 19.53 LIG 0.18  C 
ENDROOT
BRANCH 1 2
ATOM      2  N   ARG C1705     -14.157 -27.518  -6.987  1.00 19.64 LIG-0.35  N 
ATOM      3 H    ARG C1705     -13.496 -27.110  -7.357  1.00 19.64 LIG 0.16  HD
ATOM      4  C   ALA C1704     -14.056 -28.581  -6.195  1.00 22.93 LIG 0.24  C 
ATOM      5 O    ALA C1704     -15.052 -29.160  -5.743  1.00 21.24 LIG-0.27  OA
BRANCH 4 6
ATOM      6  CA  ALA C1704     -12.652 -29.087  -5.869  1.00 20.87 LIG 0.17  C 
ATOM      7  CB  ALA C1704     -11.911 -28.115  -4.973  1.00 18.21 LIG 0.04  C 
BRANCH 6 8
ATOM      8  N   ALA C1704     -11.867 -29.386  -7.059  1.00 22.42 LIG-0.35  N 
ATOM      9  C   CYS C1703     -12.353 -30.174  -8.012  1.00 22.90 LIG 0.24  C 
ATOM     10 O    CYS C1703     -13.496 -30.624  -7.994  1.00 23.45 LIG-0.27  OA
ATOM     11 H    ALA C1704     -11.091 -29.017  -7.081  1.00 22.42 LIG 0.16  HD
BRANCH 9 12
ATOM     12  CA  CYS C1703     -11.409 -30.502  -9.162  1.00 24.41 LIG 0.18  C 
BRANCH 12 13
ATOM     13  N   CYS C1703     -10.490 -29.392  -9.414  1.00 24.32 LIG-0.34  N 
ATOM     14  C   GLY C1702     -10.964 -28.183  -9.714  1.00 24.70 LIG 0.25  C 
ATOM     15 O    GLY C1702     -12.167 -27.963  -9.861  1.00 27.37 LIG-0.27  OA
ATOM     16 H    CYS C1703      -9.656 -29.589  -9.353  1.00 24.32 LIG 0.16  HD
BRANCH 14 17
ATOM     17  CA  GLY C1702      -9.952 -27.062  -9.872  1.00 25.50 LIG 0.47  C 
ATOM     18  N   GLY C1702      -9.729 -26.338  -8.630  1.00 32.41 LIG 0.61  N 
ENDBRANCH 14 17
ENDBRANCH 12 13
BRANCH 12 19
ATOM     19  CB  CYS C1703     -10.649 -31.812  -8.888  1.00 19.88 LIG 0.10  C 
BRANCH 19 20
ATOM     20 SG   CYS C1703      -9.807 -31.906  -7.294  1.00 23.51 LIG-0.18  SA
ATOM     21 HG   CYS C1703      -9.282 -30.854  -7.056  1.00 23.51 LIG 0.10  HD
ENDBRANCH 19 20
ENDBRANCH 12 19
ENDBRANCH 9 12
ENDBRANCH 6 8
ENDBRANCH 4 6
ENDBRANCH 1 2
BRANCH 1 22
ATOM     22  C   ARG C1705     -16.248 -27.721  -8.378  1.00 20.76 LIG 0.24  C 
ATOM     23 O    ARG C1705     -17.454 -27.517  -8.554  1.00 22.20 LIG-0.27  OA
ATOM     24  N   SER C1706     -15.556 -28.581  -9.123  1.00 20.62 LIG-0.34  N 
ATOM     25 H    SER C1706     -14.719 -28.750  -9.019  1.00 20.62 LIG 0.16  HD
BRANCH 24 26
ATOM     26  CA  SER C1706     -16.201 -29.317 -10.205  1.00 20.36 LIG 0.20  C 
BRANCH 26 27
ATOM     27  C   SER C1706     -16.982 -30.514  -9.671  1.00 23.85 LIG 0.24  C 
ATOM     28 O    SER C1706     -17.576 -31.268 -10.441  1.00 24.92 LIG-0.27  OA
ATOM     29  N   GLU C1707     -16.988 -30.676  -8.354  1.00 21.35 LIG-0.35  N 
ATOM     30 H    GLU C1707     -16.554 -30.176  -7.805  1.00 21.35 LIG 0.16  HD
BRANCH 29 31
ATOM     31  CA  GLU C1707     -17.756 -31.748  -7.721  1.00 28.80 LIG 0.18  C 
BRANCH 31 32
ATOM     32  C   GLU C1707     -18.273 -31.296  -6.363  1.00 29.29 LIG 0.24  C 
ATOM     33 O    GLU C1707     -18.994 -32.033  -5.688  1.00 32.31 LIG-0.27  OA
ATOM     34  N   GLY C1708     -17.903 -30.080  -5.974  1.00 26.36 LIG-0.35  N 
ATOM     35 H    GLY C1708     -17.424 -29.549  -6.452  1.00 26.36 LIG 0.16  HD
BRANCH 34 36
ATOM     36  CA  GLY C1708     -18.285 -29.538  -4.684  1.00 26.05 LIG 0.21  C 
BRANCH 36 37
ATOM     37  C   GLY C1708     -17.885 -28.089  -4.505  1.00 34.75 LIG 0.21  C 
ATOM     38 O    GLY C1708     -17.926 -27.303  -5.445  1.00 36.48 LIG-0.29  OA
ENDBRANCH 36 37
ENDBRANCH 34 36
ENDBRANCH 31 32
BRANCH 31 39
ATOM     39  CB  GLU C1707     -16.910 -33.012  -7.541  1.00 30.33 LIG 0.04  C 
BRANCH 39 40
ATOM     40  CG  GLU C1707     -16.963 -33.974  -8.714  1.00 34.25 LIG 0.12  C 
BRANCH 40 41
ATOM     41  CD  GLU C1707     -18.286 -34.721  -8.803  1.00 39.35 LIG 0.17  C 
ATOM     42 OE2  GLU C1707     -19.018 -34.515  -9.795  1.00 42.40 LIG-0.65  OA
ATOM     43 OE1  GLU C1707     -18.592 -35.510  -7.880  1.00 45.84 LIG-0.65  OA
ENDBRANCH 40 41
ENDBRANCH 39 40
ENDBRANCH 31 39
ENDBRANCH 29 31
ENDBRANCH 26 27
BRANCH 26 44
ATOM     44  CB  SER C1706     -15.181 -29.766 -11.257  1.00 19.38 LIG 0.20  C 
BRANCH 44 45
ATOM     45 OG   SER C1706     -13.858 -29.775 -10.732  1.00 20.52 LIG-0.40  OA
ATOM     46 HG   SER C1706     -13.620 -28.989 -10.560  1.00 20.52 LIG 0.21  HD
ENDBRANCH 44 45
ENDBRANCH 26 44
ENDBRANCH 24 26
ENDBRANCH 1 22
BRANCH 1 47
ATOM     47  CB  ARG C1705     -15.417 -25.467  -7.582  1.00 21.30 LIG 0.04  C 
BRANCH 47 48
ATOM     48  CG  ARG C1705     -16.799 -24.815  -7.653  1.00 23.17 LIG 0.02  C 
BRANCH 48 49
ATOM     49  CD  ARG C1705     -16.744 -23.290  -7.533  1.00 21.38 LIG 0.14  C 
BRANCH 49 50
ATOM     50  NE  ARG C1705     -15.593 -22.829  -6.751  1.00 20.43 LIG-0.23  N 
ATOM     51  CZ  ARG C1705     -15.655 -22.339  -5.515  1.00 19.01 LIG 0.67  C 
ATOM     52  NH1 ARG C1705     -16.822 -22.233  -4.876  1.00 20.29 LIG-0.23  N 
ATOM     53  NH2 ARG C1705     -14.541 -21.947  -4.911  1.00 19.46 LIG-0.23  N 
ATOM     54 1HH1 ARG C1705     -17.549 -22.483  -5.263  1.00 20.29 LIG 0.17  HD
ATOM     55 2HH1 ARG C1705     -16.848 -21.914  -4.077  1.00 20.29 LIG 0.17  HD
ATOM     56 2HH2 ARG C1705     -14.574 -21.630  -4.112  1.00 19.46 LIG 0.17  HD
ATOM     57 1HH2 ARG C1705     -13.786 -22.009  -5.318  1.00 19.46 LIG 0.17  HD
ATOM     58 HE   ARG C1705     -14.818 -22.879  -7.120  1.00 20.43 LIG 0.18  HD
ENDBRANCH 49 50
ENDBRANCH 48 49
ENDBRANCH 47 48
ENDBRANCH 1 47
TORSDOF 24
ENDMDL
MODEL 5
USER: ADFR SOLUTION from run 132
USER: SCORE 17.102351 LL:  -6.208 LR: -13.030 RR:   0.000 FEB:  -5.871
USER: RMSD 1.719808
USER: SEED 131
USER: STATUS 1 or 2 clusters left
USER: GENES 26
USER: genes 0 Translation |==|  0.40139 0.58560 0.57875
USER: genes 1 Rotation |==|  0.53712 0.49470 0.49122 0.99851
USER: genes 2 Torsion [C]-CA--N-[C] |==|  0.78891
USER: genes 3 Torsion [N]-C--CA-[N] |==|  0.89553
USER: genes 4 Torsion [C]-CA--N-[C] |==|  0.87217
USER: genes 5 Torsion [N]-C--CA-[N] |==|  0.38673
USER: genes 6 Torsion [C]-CA--N-[C] |==|  0.65039
USER: genes 7 Torsion [N]-C--CA-[N] |==|  0.78382
USER: genes 8 Torsion [C]-CA--CB-[SG] |==|  0.79667
USER: genes 9 Torsion [CA]-CB--SG-[HG] |==|  0.48687
USER: genes 10 Torsion [N]-CA--C-[N] |==|  0.88890
USER: genes 11 Torsion [C]-N--CA-[C] |==|  0.80690
USER: genes 12 Torsion [N]-CA--C-[N] |==|  0.96872
USER: genes 13 Torsion [C]-N--CA-[CB] |==|  0.34080
USER: genes 14 Torsion [N]-CA--C-[N] |==|  0.02448
USER: genes 15 Torsion [C]-N--CA-[C] |==|  0.42528
USER: genes 16 Torsion [N]-CA--C-[O] |==|  0.16121
USER: genes 17 Torsion [N]-CA--CB-[CG] |==|  0.99742
USER: genes 18 Torsion [CA]-CB--CG-[CD] |==|  0.70893
USER: genes 19 Torsion [CB]-CG--CD-[OE2] |==|  0.37961
USER: genes 20 Torsion [N]-CA--CB-[OG] |==|  0.78852
USER: genes 21 Torsion [CA]-CB--OG-[HG] |==|  0.78696
USER: genes 22 Torsion [N]-CA--CB-[CG] |==|  0.47897
USER: genes 23 Torsion [CA]-CB--CG-[CD] |==|  0.46444
USER: genes 24 Torsion [CB]-CG--CD-[NE] |==|  0.76632
USER: genes 25 Torsion [CG]-CD--NE-[CZ] |==|  0.31725
ROOT
ATOM      1  CA  ARG C1705     -15.186 -25.876  -6.837  1.00 19.53 LIG 0.18  C 
ENDROOT
BRANCH 1 2
ATOM      2  N   ARG C1705     -13.841 -26.457  -6.798  1.00 19.64 LIG-0.35  N 
ATOM      3 H    ARG C1705     -13.205 -25.941  -7.062  1.00 19.64 LIG 0.16  HD
ATOM      4  C   ALA C1704     -13.690 -27.705  -6.370  1.00 22.93 LIG 0.24  C 
ATOM      5 O    ALA C1704     -14.655 -28.416  -6.062  1.00 21.24 LIG-0.27  OA
BRANCH 4 6
ATOM      6  CA  ALA C1704     -12.266 -28.255  -6.285  1.00 20.87 LIG 0.17  C 
ATOM      7  CB  ALA C1704     -11.630 -27.930  -4.948  1.00 18.21 LIG 0.04  C 
BRANCH 6 8
ATOM      8  N   ALA C1704     -11.419 -27.802  -7.379  1.00 22.42 LIG-0.35  N 
ATOM      9  C   CYS C1703     -11.855 -27.830  -8.633  1.00 22.90 LIG 0.24  C 
ATOM     10 O    CYS C1703     -13.001 -28.153  -8.938  1.00 23.45 LIG-0.27  OA
ATOM     11 H    ALA C1704     -10.640 -27.526  -7.141  1.00 22.42 LIG 0.16  HD
BRANCH 9 12
ATOM     12  CA  CYS C1703     -10.851 -27.430  -9.707  1.00 24.41 LIG 0.18  C 
BRANCH 12 13
ATOM     13  N   CYS C1703     -10.964 -28.303 -10.875  1.00 24.32 LIG-0.34  N 
ATOM     14  C   GLY C1702      -9.891 -28.941 -11.343  1.00 24.70 LIG 0.25  C 
ATOM     15 O    GLY C1702      -8.766 -28.775 -10.870  1.00 27.37 LIG-0.27  OA
ATOM     16 H    CYS C1703     -11.752 -28.360 -11.213  1.00 24.32 LIG 0.16  HD
BRANCH 14 17
ATOM     17  CA  GLY C1702     -10.105 -29.899 -12.501  1.00 25.50 LIG 0.47  C 
ATOM     18  N   GLY C1702     -10.674 -31.168 -12.073  1.00 32.41 LIG 0.61  N 
ENDBRANCH 14 17
ENDBRANCH 12 13
BRANCH 12 19
ATOM     19  CB  CYS C1703     -11.022 -25.949 -10.090  1.00 19.88 LIG 0.10  C 
BRANCH 19 20
ATOM     20 SG   CYS C1703     -12.482 -25.564 -11.079  1.00 23.51 LIG-0.18  SA
ATOM     21 HG   CYS C1703     -12.557 -24.376 -11.236  1.00 23.51 LIG 0.10  HD
ENDBRANCH 19 20
ENDBRANCH 12 19
ENDBRANCH 9 12
ENDBRANCH 6 8
ENDBRANCH 4 6
ENDBRANCH 1 2
BRANCH 1 22
ATOM     22  C   ARG C1705     -16.049 -26.374  -8.009  1.00 20.76 LIG 0.24  C 
ATOM     23 O    ARG C1705     -17.251 -26.611  -7.844  1.00 22.20 LIG-0.27  OA
ATOM     24  N   SER C1706     -15.450 -26.527  -9.188  1.00 20.62 LIG-0.34  N 
ATOM     25 H    SER C1706     -14.615 -26.378  -9.332  1.00 20.62 LIG 0.16  HD
BRANCH 24 26
ATOM     26  CA  SER C1706     -16.203 -26.974 -10.355  1.00 20.36 LIG 0.20  C 
BRANCH 26 27
ATOM     27  C   SER C1706     -16.625 -28.433 -10.217  1.00 23.85 LIG 0.24  C 
ATOM     28 O    SER C1706     -17.446 -28.924 -10.991  1.00 24.92 LIG-0.27  OA
ATOM     29  N   GLU C1707     -16.070 -29.117  -9.224  1.00 21.35 LIG-0.35  N 
ATOM     30 H    GLU C1707     -15.473 -28.797  -8.694  1.00 21.35 LIG 0.16  HD
BRANCH 29 31
ATOM     31  CA  GLU C1707     -16.444 -30.504  -8.951  1.00 28.80 LIG 0.18  C 
BRANCH 31 32
ATOM     32  C   GLU C1707     -17.098 -30.615  -7.582  1.00 29.29 LIG 0.24  C 
ATOM     33 O    GLU C1707     -17.345 -31.718  -7.090  1.00 32.31 LIG-0.27  OA
ATOM     34  N   GLY C1708     -17.379 -29.465  -6.975  1.00 26.36 LIG-0.35  N 
ATOM     35 H    GLY C1708     -17.235 -28.692  -7.324  1.00 26.36 LIG 0.16  HD
BRANCH 34 36
ATOM     36  CA  GLY C1708     -17.962 -29.420  -5.648  1.00 26.05 LIG 0.21  C 
BRANCH 36 37
ATOM     37  C   GLY C1708     -17.622 -28.155  -4.891  1.00 34.75 LIG 0.21  C 
ATOM     38 O    GLY C1708     -17.911 -27.052  -5.343  1.00 36.48 LIG-0.29  OA
ENDBRANCH 36 37
ENDBRANCH 34 36
ENDBRANCH 31 32
BRANCH 31 39
ATOM     39  CB  GLU C1707     -15.227 -31.433  -9.002  1.00 30.33 LIG 0.04  C 
BRANCH 39 40
ATOM     40  CG  GLU C1707     -13.921 -30.735  -9.341  1.00 34.25 LIG 0.12  C 
BRANCH 40 41
ATOM     41  CD  GLU C1707     -13.466 -30.998 -10.768  1.00 39.35 LIG 0.17  C 
ATOM     42 OE2  GLU C1707     -13.028 -30.038 -11.438  1.00 42.40 LIG-0.65  OA
ATOM     43 OE1  GLU C1707     -13.550 -32.163 -11.218  1.00 45.84 LIG-0.65  OA
ENDBRANCH 40 41
ENDBRANCH 39 40
ENDBRANCH 31 39
ENDBRANCH 29 31
ENDBRANCH 26 27
BRANCH 26 44
ATOM     44  CB  SER C1706     -15.404 -26.763 -11.646  1.00 19.38 LIG 0.20  C 
BRANCH 44 45
ATOM     45 OG   SER C1706     -15.398 -25.397 -12.041  1.00 20.52 LIG-0.40  OA
ATOM     46 HG   SER C1706     -16.137 -25.202 -12.388  1.00 20.52 LIG 0.21  HD
ENDBRANCH 44 45
ENDBRANCH 26 44
ENDBRANCH 24 26
ENDBRANCH 1 22
BRANCH 1 47
ATOM     47  CB  ARG C1705     -15.137 -24.342  -6.807  1.00 21.30 LIG 0.04  C 
BRANCH 47 48
ATOM     48  CG  ARG C1705     -16.508 -23.702  -7.032  1.00 23.17 LIG 0.02  C 
BRANCH 48 49
ATOM     49  CD  ARG C1705     -16.531 -22.209  -6.697  1.00 21.38 LIG 0.14  C 
BRANCH 49 50
ATOM     50  NE  ARG C1705     -16.750 -21.958  -5.270  1.00 20.43 LIG-0.23  N 
ATOM     51  CZ  ARG C1705     -15.862 -21.406  -4.445  1.00 19.01 LIG 0.67  C 
ATOM     52  NH1 ARG C1705     -14.660 -21.026  -4.885  1.00 20.29 LIG-0.23  N 
ATOM     53  NH2 ARG C1705     -16.174 -21.236  -3.168  1.00 19.46 LIG-0.23  N 
ATOM     54 1HH1 ARG C1705     -14.450 -21.137  -5.712  1.00 20.29 LIG 0.17  HD
ATOM     55 2HH1 ARG C1705     -14.096 -20.671  -4.341  1.00 20.29 LIG 0.17  HD
ATOM     56 2HH2 ARG C1705     -15.606 -20.880  -2.630  1.00 19.46 LIG 0.17  HD
ATOM     57 1HH2 ARG C1705     -16.946 -21.481  -2.877  1.00 19.46 LIG 0.17  HD
ATOM     58 HE   ARG C1705     -17.511 -22.184  -4.939  1.00 20.43 LIG 0.18  HD
ENDBRANCH 49 50
ENDBRANCH 48 49
ENDBRANCH 47 48
ENDBRANCH 1 47
TORSDOF 24
ENDMDL
MODEL 6
USER: ADFR SOLUTION from run 68
USER: SCORE 17.662113 LL:  -5.409 LR: -12.780 RR:   0.000 FEB:  -5.621
USER: RMSD 2.515403
USER: SEED 67
USER: STATUS no improvement in best in 3 clusters for 5 generations
USER: GENES 26
USER: genes 0 Translation |==|  0.40218 0.57701 0.57495
USER: genes 1 Rotation |==|  0.51854 0.49843 0.50446 0.99963
USER: genes 2 Torsion [C]-CA--N-[C] |==|  0.79791
USER: genes 3 Torsion [N]-C--CA-[N] |==|  0.89023
USER: genes 4 Torsion [C]-CA--N-[C] |==|  0.85466
USER: genes 5 Torsion [N]-C--CA-[N] |==|  0.35740
USER: genes 6 Torsion [C]-CA--N-[C] |==|  0.64457
USER: genes 7 Torsion [N]-C--CA-[N] |==|  0.74857
USER: genes 8 Torsion [C]-CA--CB-[SG] |==|  0.02320
USER: genes 9 Torsion [CA]-CB--SG-[HG] |==|  0.18141
USER: genes 10 Torsion [N]-CA--C-[N] |==|  0.91274
USER: genes 11 Torsion [C]-N--CA-[C] |==|  0.80130
USER: genes 12 Torsion [N]-CA--C-[N] |==|  0.87821
USER: genes 13 Torsion [C]-N--CA-[CB] |==|  0.17368
USER: genes 14 Torsion [N]-CA--C-[N] |==|  0.07900
USER: genes 15 Torsion [C]-N--CA-[C] |==|  0.26001
USER: genes 16 Torsion [N]-CA--C-[O] |==|  0.96892
USER: genes 17 Torsion [N]-CA--CB-[CG] |==|  0.68360
USER: genes 18 Torsion [CA]-CB--CG-[CD] |==|  0.82964
USER: genes 19 Torsion [CB]-CG--CD-[OE2] |==|  0.17709
USER: genes 20 Torsion [N]-CA--CB-[OG] |==|  0.10434
USER: genes 21 Torsion [CA]-CB--OG-[HG] |==|  0.04936
USER: genes 22 Torsion [N]-CA--CB-[CG] |==|  0.53368
USER: genes 23 Torsion [CA]-CB--CG-[CD] |==|  0.46757
USER: genes 24 Torsion [CB]-CG--CD-[NE] |==|  0.70777
USER: genes 25 Torsion [CG]-CD--NE-[CZ] |==|  0.32149
ROOT
ATOM      1  CA  ARG C1705     -15.172 -26.069  -6.906  1.00 19.53 LIG 0.18  C 
ENDROOT
BRANCH 1 2
ATOM      2  N   ARG C1705     -13.797 -26.574  -6.842  1.00 19.64 LIG-0.35  N 
ATOM      3 H    ARG C1705     -13.188 -26.030  -7.113  1.00 19.64 LIG 0.16  HD
ATOM      4  C   ALA C1704     -13.582 -27.802  -6.386  1.00 22.93 LIG 0.24  C 
ATOM      5 O    ALA C1704     -14.509 -28.559  -6.069  1.00 21.24 LIG-0.27  OA
BRANCH 4 6
ATOM      6  CA  ALA C1704     -12.131 -28.270  -6.277  1.00 20.87 LIG 0.17  C 
ATOM      7  CB  ALA C1704     -11.511 -27.841  -4.961  1.00 18.21 LIG 0.04  C 
BRANCH 6 8
ATOM      8  N   ALA C1704     -11.310 -27.832  -7.396  1.00 22.42 LIG-0.35  N 
ATOM      9  C   CYS C1703     -11.689 -28.063  -8.649  1.00 22.90 LIG 0.24  C 
ATOM     10 O    CYS C1703     -12.768 -28.573  -8.940  1.00 23.45 LIG-0.27  OA
ATOM     11 H    ALA C1704     -10.585 -27.426  -7.175  1.00 22.42 LIG 0.16  HD
BRANCH 9 12
ATOM     12  CA  CYS C1703     -10.706 -27.654  -9.738  1.00 24.41 LIG 0.18  C 
BRANCH 12 13
ATOM     13  N   CYS C1703     -10.466 -28.760 -10.665  1.00 24.32 LIG-0.34  N 
ATOM     14  C   GLY C1702      -9.221 -29.143 -10.944  1.00 24.70 LIG 0.25  C 
ATOM     15 O    GLY C1702      -8.234 -28.552 -10.505  1.00 27.37 LIG-0.27  OA
ATOM     16 H    CYS C1703     -11.174 -29.120 -10.994  1.00 24.32 LIG 0.16  HD
BRANCH 14 17
ATOM     17  CA  GLY C1702      -9.055 -30.356 -11.843  1.00 25.50 LIG 0.47  C 
ATOM     18  N   GLY C1702      -8.986 -31.598 -11.088  1.00 32.41 LIG 0.61  N 
ENDBRANCH 14 17
ENDBRANCH 12 13
BRANCH 12 19
ATOM     19  CB  CYS C1703     -11.202 -26.397 -10.476  1.00 19.88 LIG 0.10  C 
BRANCH 19 20
ATOM     20 SG   CYS C1703     -12.646 -25.588  -9.755  1.00 23.51 LIG-0.18  SA
ATOM     21 HG   CYS C1703     -12.363 -25.152  -8.674  1.00 23.51 LIG 0.10  HD
ENDBRANCH 19 20
ENDBRANCH 12 19
ENDBRANCH 9 12
ENDBRANCH 6 8
ENDBRANCH 4 6
ENDBRANCH 1 2
BRANCH 1 22
ATOM     22  C   ARG C1705     -16.019 -26.698  -8.024  1.00 20.76 LIG 0.24  C 
ATOM     23 O    ARG C1705     -17.239 -26.840  -7.881  1.00 22.20 LIG-0.27  OA
ATOM     24  N   SER C1706     -15.386 -27.069  -9.136  1.00 20.62 LIG-0.34  N 
ATOM     25 H    SER C1706     -14.539 -26.991  -9.261  1.00 20.62 LIG 0.16  HD
BRANCH 24 26
ATOM     26  CA  SER C1706     -16.121 -27.653 -10.253  1.00 20.36 LIG 0.20  C 
BRANCH 26 27
ATOM     27  C   SER C1706     -16.594 -29.066  -9.927  1.00 23.85 LIG 0.24  C 
ATOM     28 O    SER C1706     -17.739 -29.424 -10.205  1.00 24.92 LIG-0.27  OA
ATOM     29  N   GLU C1707     -15.715 -29.860  -9.328  1.00 21.35 LIG-0.35  N 
ATOM     30 H    GLU C1707     -14.903 -29.635  -9.154  1.00 21.35 LIG 0.16  HD
BRANCH 29 31
ATOM     31  CA  GLU C1707     -16.073 -31.214  -8.906  1.00 28.80 LIG 0.18  C 
BRANCH 31 32
ATOM     32  C   GLU C1707     -14.913 -31.860  -8.165  1.00 29.29 LIG 0.24  C 
ATOM     33 O    GLU C1707     -14.765 -33.084  -8.174  1.00 32.31 LIG-0.27  OA
ATOM     34  N   GLY C1708     -14.096 -31.030  -7.522  1.00 26.36 LIG-0.35  N 
ATOM     35 H    GLY C1708     -14.209 -30.178  -7.488  1.00 26.36 LIG 0.16  HD
BRANCH 34 36
ATOM     36  CA  GLY C1708     -12.925 -31.504  -6.812  1.00 26.05 LIG 0.21  C 
BRANCH 36 37
ATOM     37  C   GLY C1708     -11.665 -31.470  -7.651  1.00 34.75 LIG 0.21  C 
ATOM     38 O    GLY C1708     -11.718 -31.269  -8.860  1.00 36.48 LIG-0.29  OA
ENDBRANCH 36 37
ENDBRANCH 34 36
ENDBRANCH 31 32
BRANCH 31 39
ATOM     39  CB  GLU C1707     -16.455 -32.090 -10.103  1.00 30.33 LIG 0.04  C 
BRANCH 39 40
ATOM     40  CG  GLU C1707     -17.911 -32.522 -10.124  1.00 34.25 LIG 0.12  C 
BRANCH 40 41
ATOM     41  CD  GLU C1707     -18.293 -33.361  -8.914  1.00 39.35 LIG 0.17  C 
ATOM     42 OE2  GLU C1707     -18.238 -32.831  -7.783  1.00 42.40 LIG-0.65  OA
ATOM     43 OE1  GLU C1707     -18.645 -34.548  -9.095  1.00 45.84 LIG-0.65  OA
ENDBRANCH 40 41
ENDBRANCH 39 40
ENDBRANCH 31 39
ENDBRANCH 29 31
ENDBRANCH 26 27
BRANCH 26 44
ATOM     44  CB  SER C1706     -15.280 -27.649 -11.534  1.00 19.38 LIG 0.20  C 
BRANCH 44 45
ATOM     45 OG   SER C1706     -13.910 -27.923 -11.262  1.00 20.52 LIG-0.40  OA
ATOM     46 HG   SER C1706     -13.841 -28.274 -10.502  1.00 20.52 LIG 0.21  HD
ENDBRANCH 44 45
ENDBRANCH 26 44
ENDBRANCH 24 26
ENDBRANCH 1 22
BRANCH 1 47
ATOM     47  CB  ARG C1705     -15.205 -24.537  -6.990  1.00 21.30 LIG 0.04  C 
BRANCH 47 48
ATOM     48  CG  ARG C1705     -16.604 -23.963  -6.761  1.00 23.17 LIG 0.02  C 
BRANCH 48 49
ATOM     49  CD  ARG C1705     -16.600 -22.446  -6.560  1.00 21.38 LIG 0.14  C 
BRANCH 49 50
ATOM     50  NE  ARG C1705     -16.811 -22.064  -5.161  1.00 20.43 LIG-0.23  N 
ATOM     51  CZ  ARG C1705     -15.921 -21.431  -4.398  1.00 19.01 LIG 0.67  C 
ATOM     52  NH1 ARG C1705     -14.726 -21.085  -4.880  1.00 20.29 LIG-0.23  N 
ATOM     53  NH2 ARG C1705     -16.226 -21.145  -3.139  1.00 19.46 LIG-0.23  N 
ATOM     54 1HH1 ARG C1705     -14.521 -21.270  -5.695  1.00 20.29 LIG 0.17  HD
ATOM     55 2HH1 ARG C1705     -14.161 -20.677  -4.376  1.00 20.29 LIG 0.17  HD
ATOM     56 2HH2 ARG C1705     -15.657 -20.737  -2.641  1.00 19.46 LIG 0.17  HD
ATOM     57 1HH2 ARG C1705     -16.993 -21.369  -2.821  1.00 19.46 LIG 0.17  HD
ATOM     58 HE   ARG C1705     -17.567 -22.265  -4.805  1.00 20.43 LIG 0.18  HD
ENDBRANCH 49 50
ENDBRANCH 48 49
ENDBRANCH 47 48
ENDBRANCH 1 47
TORSDOF 24
ENDMDL
