MODEL 1
USER: ADFR SOLUTION from run 54
USER: SCORE 20.474275 LL:  -2.644 LR: -18.567 RR:   0.000 FEB: -12.601
USER: RMSD 2.427362
USER: SEED 53
USER: STATUS 1 or 2 clusters left
USER: GENES 22
USER: genes 0 Translation |==|  0.62083 0.46578 0.54192
USER: genes 1 Rotation |==|  0.52419 0.53574 0.49838 0.99813
USER: genes 2 Torsion [N]-C--CA-[N] |==|  0.44314
USER: genes 3 Torsion [C]-CA--N-[C] |==|  0.82080
USER: genes 4 Torsion [N]-C--CA-[N] |==|  0.32164
USER: genes 5 Torsion [C]-CA--CB-[CG] |==|  0.33614
USER: genes 6 Torsion [CA]-CB--CG-[CD1] |==|  0.07755
USER: genes 7 Torsion [CE1]-CZ--OH-[HH] |==|  0.75831
USER: genes 8 Torsion [C]-CA--N-[C] |==|  0.62621
USER: genes 9 Torsion [N]-C--CA-[N] |==|  0.17132
USER: genes 10 Torsion [C]-CA--CB-[OG] |==|  0.35222
USER: genes 11 Torsion [CA]-CB--OG-[HG] |==|  0.57856
USER: genes 12 Torsion [C]-CA--CB-[CG] |==|  0.43029
USER: genes 13 Torsion [CA]-CB--CG-[CD2] |==|  0.72454
USER: genes 14 Torsion [N]-CA--C-[O] |==|  0.95765
USER: genes 15 Torsion [C]-N--CA-[CB] |==|  0.51111
USER: genes 16 Torsion [N]-CA--C-[N] |==|  0.47179
USER: genes 17 Torsion [N]-CA--C-[O] |==|  0.51969
USER: genes 18 Torsion [N]-CA--CB-[CG] |==|  0.75422
USER: genes 19 Torsion [CA]-CB--CG-[CD] |==|  0.46090
USER: genes 20 Torsion [CB]-CG--CD-[NE] |==|  0.34237
USER: genes 21 Torsion [CG]-CD--NE-[HE] |==|  0.19861
ROOT
ATOM      1  C   LEU C   7      -0.675 -33.354  -8.972  1.00 32.10 LIG 0.24  C 
ATOM      2 O    LEU C   7      -1.708 -32.781  -9.375  1.00 36.06 LIG-0.27  OA
ATOM      3  N   PRO C   8       0.496 -33.320  -9.653  1.00 34.15 LIG-0.34  N 
ATOM      4  CA  PRO C   8       0.428 -32.593 -10.905  1.00 36.52 LIG 0.18  C 
ATOM      5  CB  PRO C   8       1.863 -32.686 -11.479  1.00 33.63 LIG 0.04  C 
ATOM      6  CG  PRO C   8       2.731 -32.831 -10.277  1.00 36.13 LIG 0.02  C 
ATOM      7  CD  PRO C   8       1.898 -33.641  -9.279  1.00 34.25 LIG 0.13  C 
ENDROOT
BRANCH 1 8
ATOM      8  CA  LEU C   7      -0.692 -34.041  -7.593  1.00 27.99 LIG 0.18  C 
BRANCH 8 9
ATOM      9  N   LEU C   7      -1.809 -33.657  -6.706  1.00 26.55 LIG-0.35  N 
ATOM     10 H    LEU C   7      -2.369 -34.275  -6.503  1.00 26.55 LIG 0.16  HD
ATOM     11  C   TYR C   6      -1.850 -32.417  -6.308  1.00 27.48 LIG 0.24  C 
ATOM     12 O    TYR C   6      -0.929 -31.613  -6.633  1.00 27.70 LIG-0.27  OA
BRANCH 11 13
ATOM     13  CA  TYR C   6      -3.069 -32.005  -5.529  1.00 25.37 LIG 0.18  C 
BRANCH 13 14
ATOM     14  CB  TYR C   6      -3.787 -30.849  -6.251  1.00 25.99 LIG 0.07  C 
BRANCH 14 15
ATOM     15  CG  TYR C   6      -5.234 -31.117  -6.652  1.00 32.28 LIG-0.06  A 
ATOM     16  CD1 TYR C   6      -6.025 -32.015  -5.930  1.00 32.91 LIG 0.01  A 
ATOM     17  CE1 TYR C   6      -7.339 -32.260  -6.282  1.00 37.22 LIG 0.04  A 
ATOM     18  CZ  TYR C   6      -7.878 -31.613  -7.385  1.00 40.59 LIG 0.07  A 
ATOM     19  CE2 TYR C   6      -7.111 -30.725  -8.139  1.00 40.82 LIG 0.04  A 
ATOM     20  CD2 TYR C   6      -5.789 -30.491  -7.773  1.00 36.01 LIG 0.01  A 
BRANCH 18 21
ATOM     21 OH   TYR C   6      -9.194 -31.869  -7.713  1.00 45.73 LIG-0.36  OA
ATOM     22 HH   TYR C   6      -9.232 -32.544  -8.211  1.00 45.73 LIG 0.22  HD
ENDBRANCH 18 21
ENDBRANCH 14 15
ENDBRANCH 13 14
BRANCH 13 23
ATOM     23  N   TYR C   6      -2.782 -31.627  -4.188  1.00 26.32 LIG-0.34  N 
ATOM     24 H    TYR C   6      -2.105 -31.106  -4.089  1.00 26.32 LIG 0.16  HD
ATOM     25  C   SER C   5      -3.530 -32.075  -3.216  1.00 29.69 LIG 0.26  C 
ATOM     26 O    SER C   5      -4.454 -32.924  -3.420  1.00 27.24 LIG-0.27  OA
BRANCH 25 27
ATOM     27  CA  SER C   5      -3.250 -31.415  -1.821  1.00 35.45 LIG 0.42  C 
ATOM     28  N   SER C   5      -3.521 -29.955  -1.878  1.00 39.53 LIG 0.62  N 
BRANCH 27 29
ATOM     29  CB  SER C   5      -4.034 -32.057  -0.679  1.00 42.03 LIG 0.21  C 
BRANCH 29 30
ATOM     30 OG   SER C   5      -3.212 -32.459   0.395  1.00 42.36 LIG-0.40  OA
ATOM     31 HG   SER C   5      -3.566 -33.110   0.791  1.00 42.36 LIG 0.21  HD
ENDBRANCH 29 30
ENDBRANCH 27 29
ENDBRANCH 25 27
ENDBRANCH 13 23
ENDBRANCH 11 13
ENDBRANCH 8 9
BRANCH 8 32
ATOM     32  CB  LEU C   7      -0.619 -35.519  -7.709  1.00 26.58 LIG 0.04  C 
BRANCH 32 33
ATOM     33  CG  LEU C   7      -0.010 -35.967  -6.366  1.00 24.49 LIG-0.02  C 
ATOM     34  CD2 LEU C   7       1.450 -36.202  -6.618  1.00 27.30 LIG 0.01  C 
ATOM     35  CD1 LEU C   7      -0.649 -37.307  -6.034  1.00 29.65 LIG 0.01  C 
ENDBRANCH 32 33
ENDBRANCH 8 32
ENDBRANCH 1 8
BRANCH 4 36
ATOM     36  C   PRO C   8      -0.655 -33.196 -11.813  1.00 40.02 LIG 0.24  C 
ATOM     37 O    PRO C   8      -1.129 -34.303 -11.588  1.00 40.33 LIG-0.27  OA
ATOM     38  N   ARG C   9      -1.092 -32.390 -12.767  1.00 39.93 LIG-0.35  N 
ATOM     39 H    ARG C   9      -0.801 -31.586 -12.857  1.00 39.93 LIG 0.16  HD
BRANCH 38 40
ATOM     40  CA  ARG C   9      -2.091 -32.740 -13.764  1.00 44.47 LIG 0.18  C 
BRANCH 40 41
ATOM     41  C   ARG C   9      -1.649 -34.061 -14.462  1.00 44.78 LIG 0.24  C 
ATOM     42  N   PRO C  10      -2.535 -34.684 -15.280  1.00 46.18 LIG-0.34  N 
ATOM     43  CA  PRO C  10      -2.250 -35.980 -15.972  1.00 48.25 LIG 0.17  C 
ATOM     44  CD  PRO C  10      -3.930 -34.238 -15.487  1.00 48.73 LIG 0.13  C 
ATOM     45  CB  PRO C  10      -3.554 -36.289 -16.735  1.00 49.47 LIG 0.04  C 
ATOM     46  CG  PRO C  10      -4.608 -35.435 -16.104  1.00 52.76 LIG 0.02  C 
ATOM     47 O    ARG C   9      -0.535 -34.531 -14.216  1.00 45.76 LIG-0.27  OA
BRANCH 43 48
ATOM     48  C   PRO C  10      -1.092 -35.982 -16.983  1.00 47.63 LIG 0.22  C 
ATOM     49 O    PRO C  10      -0.879 -36.968 -17.685  1.00 46.26 LIG-0.29  OA
ENDBRANCH 43 48
ENDBRANCH 40 41
BRANCH 40 50
ATOM     50  CB  ARG C   9      -2.240 -31.542 -14.758  1.00 49.80 LIG 0.04  C 
BRANCH 50 51
ATOM     51  CG  ARG C   9      -3.278 -30.481 -14.336  1.00 51.68 LIG 0.02  C 
BRANCH 51 52
ATOM     52  CD  ARG C   9      -3.168 -29.143 -15.139  1.00 46.90 LIG 0.14  C 
BRANCH 52 53
ATOM     53  NE  ARG C   9      -4.446 -28.848 -15.779  1.00 50.11 LIG-0.23  N 
ATOM     54 HE   ARG C   9      -5.086 -28.602 -15.260  1.00 50.11 LIG 0.18  HD
ATOM     55  CZ  ARG C   9      -4.732 -28.916 -17.076  1.00 44.95 LIG 0.67  C 
ATOM     56  NH1 ARG C   9      -5.942 -28.609 -17.459  1.00 55.49 LIG-0.23  N 
ATOM     57  NH2 ARG C   9      -3.851 -29.266 -17.971  1.00 40.08 LIG-0.23  N 
ATOM     58 1HH1 ARG C   9      -6.530 -28.372 -16.878  1.00 55.49 LIG 0.17  HD
ATOM     59 2HH1 ARG C   9      -6.152 -28.646 -18.293  1.00 55.49 LIG 0.17  HD
ATOM     60 1HH2 ARG C   9      -3.050 -29.464 -17.730  1.00 40.08 LIG 0.17  HD
ATOM     61 2HH2 ARG C   9      -4.072 -29.299 -18.801  1.00 40.08 LIG 0.17  HD
ENDBRANCH 52 53
ENDBRANCH 51 52
ENDBRANCH 50 51
ENDBRANCH 40 50
ENDBRANCH 38 40
ENDBRANCH 4 36
TORSDOF 20
ENDMDL
MODEL 2
USER: ADFR SOLUTION from run 19
USER: SCORE 20.145152 LL:  -2.630 LR: -18.225 RR:   0.000 FEB: -12.259
USER: RMSD 3.537333
USER: SEED 18
USER: STATUS no improvement in best in 4 clusters for 5 generations
USER: GENES 22
USER: genes 0 Translation |==|  0.60697 0.46570 0.54754
USER: genes 1 Rotation |==|  0.52531 0.51226 0.50837 0.99914
USER: genes 2 Torsion [N]-C--CA-[N] |==|  0.39897
USER: genes 3 Torsion [C]-CA--N-[C] |==|  0.83815
USER: genes 4 Torsion [N]-C--CA-[N] |==|  0.27778
USER: genes 5 Torsion [C]-CA--CB-[CG] |==|  0.79212
USER: genes 6 Torsion [CA]-CB--CG-[CD1] |==|  0.34684
USER: genes 7 Torsion [CE1]-CZ--OH-[HH] |==|  0.74412
USER: genes 8 Torsion [C]-CA--N-[C] |==|  0.65585
USER: genes 9 Torsion [N]-C--CA-[N] |==|  0.15540
USER: genes 10 Torsion [C]-CA--CB-[OG] |==|  0.45383
USER: genes 11 Torsion [CA]-CB--OG-[HG] |==|  0.65056
USER: genes 12 Torsion [C]-CA--CB-[CG] |==|  0.42762
USER: genes 13 Torsion [CA]-CB--CG-[CD2] |==|  0.71655
USER: genes 14 Torsion [N]-CA--C-[O] |==|  0.95018
USER: genes 15 Torsion [C]-N--CA-[CB] |==|  0.51700
USER: genes 16 Torsion [N]-CA--C-[N] |==|  0.46559
USER: genes 17 Torsion [N]-CA--C-[O] |==|  0.78775
USER: genes 18 Torsion [N]-CA--CB-[CG] |==|  0.72939
USER: genes 19 Torsion [CA]-CB--CG-[CD] |==|  0.44444
USER: genes 20 Torsion [CB]-CG--CD-[NE] |==|  0.37938
USER: genes 21 Torsion [CG]-CD--NE-[HE] |==|  0.21588
ROOT
ATOM      1  C   LEU C   7      -0.966 -33.355  -8.833  1.00 32.10 LIG 0.24  C 
ATOM      2 O    LEU C   7      -1.975 -32.815  -9.330  1.00 36.06 LIG-0.27  OA
ATOM      3  N   PRO C   8       0.263 -33.275  -9.398  1.00 34.15 LIG-0.34  N 
ATOM      4  CA  PRO C   8       0.290 -32.540 -10.648  1.00 36.52 LIG 0.18  C 
ATOM      5  CB  PRO C   8       1.775 -32.579 -11.082  1.00 33.63 LIG 0.04  C 
ATOM      6  CG  PRO C   8       2.528 -32.704  -9.803  1.00 36.13 LIG 0.02  C 
ATOM      7  CD  PRO C   8       1.633 -33.551  -8.894  1.00 34.25 LIG 0.13  C 
ENDROOT
BRANCH 1 8
ATOM      8  CA  LEU C   7      -1.090 -34.055  -7.466  1.00 27.99 LIG 0.18  C 
BRANCH 8 9
ATOM      9  N   LEU C   7      -2.076 -33.463  -6.538  1.00 26.55 LIG-0.35  N 
ATOM     10 H    LEU C   7      -2.704 -33.981  -6.263  1.00 26.55 LIG 0.16  HD
ATOM     11  C   TYR C   6      -1.913 -32.211  -6.218  1.00 27.48 LIG 0.24  C 
ATOM     12 O    TYR C   6      -0.911 -31.570  -6.648  1.00 27.70 LIG-0.27  OA
BRANCH 11 13
ATOM     13  CA  TYR C   6      -3.003 -31.584  -5.393  1.00 25.37 LIG 0.18  C 
BRANCH 13 14
ATOM     14  CB  TYR C   6      -3.324 -30.177  -5.931  1.00 25.99 LIG 0.07  C 
BRANCH 14 15
ATOM     15  CG  TYR C   6      -2.299 -29.095  -5.605  1.00 32.28 LIG-0.06  A 
ATOM     16  CD1 TYR C   6      -1.713 -28.332  -6.617  1.00 32.91 LIG 0.01  A 
ATOM     17  CE1 TYR C   6      -0.789 -27.344  -6.331  1.00 37.22 LIG 0.04  A 
ATOM     18  CZ  TYR C   6      -0.423 -27.119  -5.012  1.00 40.59 LIG 0.07  A 
ATOM     19  CE2 TYR C   6      -0.975 -27.876  -3.978  1.00 40.82 LIG 0.04  A 
ATOM     20  CD2 TYR C   6      -1.902 -28.867  -4.283  1.00 36.01 LIG 0.01  A 
BRANCH 18 21
ATOM     21 OH   TYR C   6       0.498 -26.124  -4.750  1.00 45.73 LIG-0.36  OA
ATOM     22 HH   TYR C   6       1.270 -26.453  -4.742  1.00 45.73 LIG 0.22  HD
ENDBRANCH 18 21
ENDBRANCH 14 15
ENDBRANCH 13 14
BRANCH 13 23
ATOM     23  N   TYR C   6      -2.691 -31.507  -4.007  1.00 26.32 LIG-0.34  N 
ATOM     24 H    TYR C   6      -1.961 -31.094  -3.817  1.00 26.32 LIG 0.16  HD
ATOM     25  C   SER C   5      -3.496 -32.048  -3.132  1.00 29.69 LIG 0.26  C 
ATOM     26 O    SER C   5      -4.506 -32.733  -3.487  1.00 27.24 LIG-0.27  OA
BRANCH 25 27
ATOM     27  CA  SER C   5      -3.160 -31.706  -1.639  1.00 35.45 LIG 0.42  C 
ATOM     28  N   SER C   5      -3.130 -30.233  -1.442  1.00 39.53 LIG 0.62  N 
BRANCH 27 29
ATOM     29  CB  SER C   5      -4.112 -32.356  -0.639  1.00 42.03 LIG 0.21  C 
BRANCH 29 30
ATOM     30 OG   SER C   5      -3.607 -32.363   0.678  1.00 42.36 LIG-0.40  OA
ATOM     31 HG   SER C   5      -3.615 -33.148   0.978  1.00 42.36 LIG 0.21  HD
ENDBRANCH 29 30
ENDBRANCH 27 29
ENDBRANCH 25 27
ENDBRANCH 13 23
ENDBRANCH 11 13
ENDBRANCH 8 9
BRANCH 8 32
ATOM     32  CB  LEU C   7      -1.334 -35.512  -7.607  1.00 26.58 LIG 0.04  C 
BRANCH 32 33
ATOM     33  CG  LEU C   7      -0.775 -36.110  -6.303  1.00 24.49 LIG-0.02  C 
ATOM     34  CD2 LEU C   7       0.561 -36.702  -6.643  1.00 27.30 LIG 0.01  C 
ATOM     35  CD1 LEU C   7      -1.709 -37.250  -5.923  1.00 29.65 LIG 0.01  C 
ENDBRANCH 32 33
ENDBRANCH 8 32
ENDBRANCH 1 8
BRANCH 4 36
ATOM     36  C   PRO C   8      -0.680 -33.173 -11.658  1.00 40.02 LIG 0.24  C 
ATOM     37 O    PRO C   8      -1.096 -34.315 -11.511  1.00 40.33 LIG-0.27  OA
ATOM     38  N   ARG C   9      -1.096 -32.358 -12.615  1.00 39.93 LIG-0.35  N 
ATOM     39 H    ARG C   9      -0.852 -31.534 -12.652  1.00 39.93 LIG 0.16  HD
BRANCH 38 40
ATOM     40  CA  ARG C   9      -1.992 -32.729 -13.698  1.00 44.47 LIG 0.18  C 
BRANCH 40 41
ATOM     41  C   ARG C   9      -1.441 -34.021 -14.372  1.00 44.78 LIG 0.24  C 
ATOM     42  N   PRO C  10      -2.246 -34.690 -15.236  1.00 46.18 LIG-0.34  N 
ATOM     43  CA  PRO C  10      -1.854 -35.966 -15.912  1.00 48.25 LIG 0.17  C 
ATOM     44  CD  PRO C  10      -3.651 -34.320 -15.517  1.00 48.73 LIG 0.13  C 
ATOM     45  CB  PRO C  10      -3.097 -36.344 -16.743  1.00 49.47 LIG 0.04  C 
ATOM     46  CG  PRO C  10      -4.228 -35.551 -16.169  1.00 52.76 LIG 0.02  C 
ATOM     47 O    ARG C   9      -0.317 -34.431 -14.066  1.00 45.76 LIG-0.27  OA
BRANCH 43 48
ATOM     48  C   PRO C  10      -0.646 -35.902 -16.859  1.00 47.63 LIG 0.22  C 
ATOM     49 O    PRO C  10      -0.757 -35.409 -17.980  1.00 46.26 LIG-0.29  OA
ENDBRANCH 43 48
ENDBRANCH 40 41
BRANCH 40 50
ATOM     50  CB  ARG C   9      -2.101 -31.522 -14.686  1.00 49.80 LIG 0.04  C 
BRANCH 50 51
ATOM     51  CG  ARG C   9      -3.339 -30.626 -14.473  1.00 51.68 LIG 0.02  C 
BRANCH 51 52
ATOM     52  CD  ARG C   9      -3.194 -29.199 -15.097  1.00 46.90 LIG 0.14  C 
BRANCH 52 53
ATOM     53  NE  ARG C   9      -4.431 -28.832 -15.779  1.00 50.11 LIG-0.23  N 
ATOM     54 HE   ARG C   9      -5.082 -28.575 -15.278  1.00 50.11 LIG 0.18  HD
ATOM     55  CZ  ARG C   9      -4.665 -28.850 -17.087  1.00 44.95 LIG 0.67  C 
ATOM     56  NH1 ARG C   9      -5.845 -28.483 -17.510  1.00 55.49 LIG-0.23  N 
ATOM     57  NH2 ARG C   9      -3.762 -29.210 -17.956  1.00 40.08 LIG-0.23  N 
ATOM     58 1HH1 ARG C   9      -6.446 -28.238 -16.946  1.00 55.49 LIG 0.17  HD
ATOM     59 2HH1 ARG C   9      -6.021 -28.486 -18.352  1.00 55.49 LIG 0.17  HD
ATOM     60 1HH2 ARG C   9      -2.980 -29.448 -17.690  1.00 40.08 LIG 0.17  HD
ATOM     61 2HH2 ARG C   9      -3.949 -29.210 -18.796  1.00 40.08 LIG 0.17  HD
ENDBRANCH 52 53
ENDBRANCH 51 52
ENDBRANCH 50 51
ENDBRANCH 40 50
ENDBRANCH 38 40
ENDBRANCH 4 36
TORSDOF 20
ENDMDL
MODEL 3
USER: ADFR SOLUTION from run 47
USER: SCORE 19.552156 LL:  -2.874 LR: -18.070 RR:   0.000 FEB: -12.104
USER: RMSD 4.052054
USER: SEED 46
USER: STATUS searching
USER: GENES 22
USER: genes 0 Translation |==|  0.61217 0.48711 0.54254
USER: genes 1 Rotation |==|  0.48696 0.50093 0.45157 0.99748
USER: genes 2 Torsion [N]-C--CA-[N] |==|  0.49190
USER: genes 3 Torsion [C]-CA--N-[C] |==|  0.79883
USER: genes 4 Torsion [N]-C--CA-[N] |==|  0.76755
USER: genes 5 Torsion [C]-CA--CB-[CG] |==|  0.23342
USER: genes 6 Torsion [CA]-CB--CG-[CD1] |==|  0.93268
USER: genes 7 Torsion [CE1]-CZ--OH-[HH] |==|  0.59545
USER: genes 8 Torsion [C]-CA--N-[C] |==|  0.59677
USER: genes 9 Torsion [N]-C--CA-[N] |==|  0.29137
USER: genes 10 Torsion [C]-CA--CB-[OG] |==|  0.45234
USER: genes 11 Torsion [CA]-CB--OG-[HG] |==|  0.86998
USER: genes 12 Torsion [C]-CA--CB-[CG] |==|  0.40123
USER: genes 13 Torsion [CA]-CB--CG-[CD2] |==|  0.94353
USER: genes 14 Torsion [N]-CA--C-[O] |==|  0.90804
USER: genes 15 Torsion [C]-N--CA-[CB] |==|  0.51667
USER: genes 16 Torsion [N]-CA--C-[N] |==|  0.46283
USER: genes 17 Torsion [N]-CA--C-[O] |==|  0.92311
USER: genes 18 Torsion [N]-CA--CB-[CG] |==|  0.73033
USER: genes 19 Torsion [CA]-CB--CG-[CD] |==|  0.47118
USER: genes 20 Torsion [CB]-CG--CD-[NE] |==|  0.36579
USER: genes 21 Torsion [CG]-CD--NE-[HE] |==|  0.18059
ROOT
ATOM      1  C   LEU C   7      -0.857 -32.970  -8.957  1.00 32.10 LIG 0.24  C 
ATOM      2 O    LEU C   7      -1.709 -32.307  -9.584  1.00 36.06 LIG-0.27  OA
ATOM      3  N   PRO C   8       0.368 -33.254  -9.461  1.00 34.15 LIG-0.34  N 
ATOM      4  CA  PRO C   8       0.583 -32.752 -10.805  1.00 36.52 LIG 0.18  C 
ATOM      5  CB  PRO C   8       2.029 -33.187 -11.147  1.00 33.63 LIG 0.04  C 
ATOM      6  CG  PRO C   8       2.711 -33.268  -9.826  1.00 36.13 LIG 0.02  C 
ATOM      7  CD  PRO C   8       1.632 -33.740  -8.848  1.00 34.25 LIG 0.13  C 
ENDROOT
BRANCH 1 8
ATOM      8  CA  LEU C   7      -1.160 -33.396  -7.508  1.00 27.99 LIG 0.18  C 
BRANCH 8 9
ATOM      9  N   LEU C   7      -2.488 -32.999  -6.995  1.00 26.55 LIG-0.35  N 
ATOM     10 H    LEU C   7      -3.068 -33.626  -6.902  1.00 26.55 LIG 0.16  HD
ATOM     11  C   TYR C   6      -2.666 -31.737  -6.727  1.00 27.48 LIG 0.24  C 
ATOM     12 O    TYR C   6      -1.711 -30.918  -6.853  1.00 27.70 LIG-0.27  OA
BRANCH 11 13
ATOM     13  CA  TYR C   6      -4.062 -31.325  -6.347  1.00 25.37 LIG 0.18  C 
BRANCH 13 14
ATOM     14  CB  TYR C   6      -4.699 -32.400  -5.445  1.00 25.99 LIG 0.07  C 
BRANCH 14 15
ATOM     15  CG  TYR C   6      -4.364 -32.301  -3.961  1.00 32.28 LIG-0.06  A 
ATOM     16  CD1 TYR C   6      -3.197 -31.664  -3.528  1.00 32.91 LIG 0.01  A 
ATOM     17  CE1 TYR C   6      -2.888 -31.563  -2.185  1.00 37.22 LIG 0.04  A 
ATOM     18  CZ  TYR C   6      -3.746 -32.121  -1.247  1.00 40.59 LIG 0.07  A 
ATOM     19  CE2 TYR C   6      -4.909 -32.780  -1.646  1.00 40.82 LIG 0.04  A 
ATOM     20  CD2 TYR C   6      -5.205 -32.874  -3.002  1.00 36.01 LIG 0.01  A 
BRANCH 18 21
ATOM     21 OH   TYR C   6      -3.419 -32.002   0.089  1.00 45.73 LIG-0.36  OA
ATOM     22 HH   TYR C   6      -3.668 -32.691   0.500  1.00 45.73 LIG 0.22  HD
ENDBRANCH 18 21
ENDBRANCH 14 15
ENDBRANCH 13 14
BRANCH 13 23
ATOM     23  N   TYR C   6      -4.904 -31.080  -7.467  1.00 26.32 LIG-0.34  N 
ATOM     24 H    TYR C   6      -4.765 -31.585  -8.149  1.00 26.32 LIG 0.16  HD
ATOM     25  C   SER C   5      -5.807 -30.138  -7.403  1.00 29.69 LIG 0.26  C 
ATOM     26 O    SER C   5      -5.892 -29.361  -6.402  1.00 27.24 LIG-0.27  OA
BRANCH 25 27
ATOM     27  CA  SER C   5      -6.810 -30.115  -8.609  1.00 35.45 LIG 0.42  C 
ATOM     28  N   SER C   5      -8.129 -30.659  -8.192  1.00 39.53 LIG 0.62  N 
BRANCH 27 29
ATOM     29  CB  SER C   5      -6.978 -28.731  -9.230  1.00 42.03 LIG 0.21  C 
BRANCH 29 30
ATOM     30 OG   SER C   5      -7.556 -28.772 -10.516  1.00 42.36 LIG-0.40  OA
ATOM     31 HG   SER C   5      -7.175 -29.362 -10.977  1.00 42.36 LIG 0.21  HD
ENDBRANCH 29 30
ENDBRANCH 27 29
ENDBRANCH 25 27
ENDBRANCH 13 23
ENDBRANCH 11 13
ENDBRANCH 8 9
BRANCH 8 32
ATOM     32  CB  LEU C   7      -0.949 -34.851  -7.301  1.00 26.58 LIG 0.04  C 
BRANCH 32 33
ATOM     33  CG  LEU C   7      -0.397 -34.945  -5.866  1.00 24.49 LIG-0.02  C 
ATOM     34  CD2 LEU C   7       0.144 -33.587  -5.528  1.00 27.30 LIG 0.01  C 
ATOM     35  CD1 LEU C   7       0.775 -35.914  -5.924  1.00 29.65 LIG 0.01  C 
ENDBRANCH 32 33
ENDBRANCH 8 32
ENDBRANCH 1 8
BRANCH 4 36
ATOM     36  C   PRO C   8      -0.486 -33.310 -11.758  1.00 40.02 LIG 0.24  C 
ATOM     37 O    PRO C   8      -0.957 -34.430 -11.601  1.00 40.33 LIG-0.27  OA
ATOM     38  N   ARG C   9      -0.917 -32.454 -12.671  1.00 39.93 LIG-0.35  N 
ATOM     39 H    ARG C   9      -0.630 -31.645 -12.711  1.00 39.93 LIG 0.16  HD
BRANCH 38 40
ATOM     40  CA  ARG C   9      -1.902 -32.753 -13.697  1.00 44.47 LIG 0.18  C 
BRANCH 40 41
ATOM     41  C   ARG C   9      -1.471 -34.059 -14.429  1.00 44.78 LIG 0.24  C 
ATOM     42  N   PRO C  10      -2.375 -34.675 -15.232  1.00 46.18 LIG-0.34  N 
ATOM     43  CA  PRO C  10      -2.101 -35.958 -15.953  1.00 48.25 LIG 0.17  C 
ATOM     44  CD  PRO C  10      -3.779 -34.236 -15.392  1.00 48.73 LIG 0.13  C 
ATOM     45  CB  PRO C  10      -3.423 -36.263 -16.684  1.00 49.47 LIG 0.04  C 
ATOM     46  CG  PRO C  10      -4.465 -35.428 -16.010  1.00 52.76 LIG 0.02  C 
ATOM     47 O    ARG C   9      -0.347 -34.525 -14.221  1.00 45.76 LIG-0.27  OA
BRANCH 43 48
ATOM     48  C   PRO C  10      -0.971 -35.935 -16.995  1.00 47.63 LIG 0.22  C 
ATOM     49 O    PRO C  10      -0.683 -34.893 -17.580  1.00 46.26 LIG-0.29  OA
ENDBRANCH 43 48
ENDBRANCH 40 41
BRANCH 40 50
ATOM     50  CB  ARG C   9      -2.009 -31.521 -14.655  1.00 49.80 LIG 0.04  C 
BRANCH 50 51
ATOM     51  CG  ARG C   9      -3.174 -30.559 -14.338  1.00 51.68 LIG 0.02  C 
BRANCH 51 52
ATOM     52  CD  ARG C   9      -3.110 -29.215 -15.135  1.00 46.90 LIG 0.14  C 
BRANCH 52 53
ATOM     53  NE  ARG C   9      -4.412 -28.935 -15.732  1.00 50.11 LIG-0.23  N 
ATOM     54 HE   ARG C   9      -5.060 -28.787 -15.186  1.00 50.11 LIG 0.18  HD
ATOM     55  CZ  ARG C   9      -4.711 -28.884 -17.027  1.00 44.95 LIG 0.67  C 
ATOM     56  NH1 ARG C   9      -5.943 -28.616 -17.368  1.00 55.49 LIG-0.23  N 
ATOM     57  NH2 ARG C   9      -3.822 -29.081 -17.960  1.00 40.08 LIG-0.23  N 
ATOM     58 1HH1 ARG C   9      -6.537 -28.479 -16.760  1.00 55.49 LIG 0.17  HD
ATOM     59 2HH1 ARG C   9      -6.161 -28.578 -18.199  1.00 55.49 LIG 0.17  HD
ATOM     60 1HH2 ARG C   9      -3.007 -29.252 -17.747  1.00 40.08 LIG 0.17  HD
ATOM     61 2HH2 ARG C   9      -4.051 -29.040 -18.788  1.00 40.08 LIG 0.17  HD
ENDBRANCH 52 53
ENDBRANCH 51 52
ENDBRANCH 50 51
ENDBRANCH 40 50
ENDBRANCH 38 40
ENDBRANCH 4 36
TORSDOF 20
ENDMDL
MODEL 4
USER: ADFR SOLUTION from run 150
USER: SCORE 19.615434 LL:  -2.826 LR: -17.989 RR:   0.000 FEB: -12.023
USER: RMSD 2.727029
USER: SEED 149
USER: STATUS no improvement in best in 3 clusters for 5 generations
USER: GENES 22
USER: genes 0 Translation |==|  0.60399 0.46509 0.54741
USER: genes 1 Rotation |==|  0.52915 0.52782 0.52102 0.99793
USER: genes 2 Torsion [N]-C--CA-[N] |==|  0.39213
USER: genes 3 Torsion [C]-CA--N-[C] |==|  0.83885
USER: genes 4 Torsion [N]-C--CA-[N] |==|  0.57651
USER: genes 5 Torsion [C]-CA--CB-[CG] |==|  0.74649
USER: genes 6 Torsion [CA]-CB--CG-[CD1] |==|  0.58358
USER: genes 7 Torsion [CE1]-CZ--OH-[HH] |==|  0.60741
USER: genes 8 Torsion [C]-CA--N-[C] |==|  0.75541
USER: genes 9 Torsion [N]-C--CA-[N] |==|  0.33315
USER: genes 10 Torsion [C]-CA--CB-[OG] |==|  0.13078
USER: genes 11 Torsion [CA]-CB--OG-[HG] |==|  0.48988
USER: genes 12 Torsion [C]-CA--CB-[CG] |==|  0.48088
USER: genes 13 Torsion [CA]-CB--CG-[CD2] |==|  0.76901
USER: genes 14 Torsion [N]-CA--C-[O] |==|  0.97383
USER: genes 15 Torsion [C]-N--CA-[CB] |==|  0.50596
USER: genes 16 Torsion [N]-CA--C-[N] |==|  0.47379
USER: genes 17 Torsion [N]-CA--C-[O] |==|  0.87452
USER: genes 18 Torsion [N]-CA--CB-[CG] |==|  0.76535
USER: genes 19 Torsion [CA]-CB--CG-[CD] |==|  0.44812
USER: genes 20 Torsion [CB]-CG--CD-[NE] |==|  0.35182
USER: genes 21 Torsion [CG]-CD--NE-[HE] |==|  0.20282
ROOT
ATOM      1  C   LEU C   7      -1.028 -33.366  -8.837  1.00 32.10 LIG 0.24  C 
ATOM      2 O    LEU C   7      -2.093 -32.874  -9.263  1.00 36.06 LIG-0.27  OA
ATOM      3  N   PRO C   8       0.158 -33.212  -9.472  1.00 34.15 LIG-0.34  N 
ATOM      4  CA  PRO C   8       0.070 -32.459 -10.708  1.00 36.52 LIG 0.18  C 
ATOM      5  CB  PRO C   8       1.527 -32.412 -11.230  1.00 33.63 LIG 0.04  C 
ATOM      6  CG  PRO C   8       2.362 -32.514 -10.001  1.00 36.13 LIG 0.02  C 
ATOM      7  CD  PRO C   8       1.569 -33.421  -9.055  1.00 34.25 LIG 0.13  C 
ENDROOT
BRANCH 1 8
ATOM      8  CA  LEU C   7      -1.033 -34.091  -7.476  1.00 27.99 LIG 0.18  C 
BRANCH 8 9
ATOM      9  N   LEU C   7      -1.951 -33.531  -6.463  1.00 26.55 LIG-0.35  N 
ATOM     10 H    LEU C   7      -2.544 -34.064  -6.145  1.00 26.55 LIG 0.16  HD
ATOM     11  C   TYR C   6      -1.783 -32.281  -6.137  1.00 27.48 LIG 0.24  C 
ATOM     12 O    TYR C   6      -0.831 -31.615  -6.638  1.00 27.70 LIG-0.27  OA
BRANCH 11 13
ATOM     13  CA  TYR C   6      -2.813 -31.686  -5.217  1.00 25.37 LIG 0.18  C 
BRANCH 13 14
ATOM     14  CB  TYR C   6      -4.170 -32.385  -5.426  1.00 25.99 LIG 0.07  C 
BRANCH 14 15
ATOM     15  CG  TYR C   6      -5.092 -31.745  -6.458  1.00 32.28 LIG-0.06  A 
ATOM     16  CD1 TYR C   6      -6.481 -31.832  -6.332  1.00 32.91 LIG 0.01  A 
ATOM     17  CE1 TYR C   6      -7.325 -31.249  -7.259  1.00 37.22 LIG 0.04  A 
ATOM     18  CZ  TYR C   6      -6.781 -30.577  -8.345  1.00 40.59 LIG 0.07  A 
ATOM     19  CE2 TYR C   6      -5.399 -30.488  -8.510  1.00 40.82 LIG 0.04  A 
ATOM     20  CD2 TYR C   6      -4.563 -31.082  -7.570  1.00 36.01 LIG 0.01  A 
BRANCH 18 21
ATOM     21 OH   TYR C   6      -7.644 -29.999  -9.254  1.00 45.73 LIG-0.36  OA
ATOM     22 HH   TYR C   6      -7.342 -30.101 -10.031  1.00 45.73 LIG 0.22  HD
ENDBRANCH 18 21
ENDBRANCH 14 15
ENDBRANCH 13 14
BRANCH 13 23
ATOM     23  N   TYR C   6      -2.970 -30.281  -5.377  1.00 26.32 LIG-0.34  N 
ATOM     24 H    TYR C   6      -3.577 -30.039  -5.935  1.00 26.32 LIG 0.16  HD
ATOM     25  C   SER C   5      -2.212 -29.464  -4.694  1.00 29.69 LIG 0.26  C 
ATOM     26 O    SER C   5      -1.264 -29.887  -3.961  1.00 27.24 LIG-0.27  OA
BRANCH 25 27
ATOM     27  CA  SER C   5      -2.629 -27.955  -4.791  1.00 35.45 LIG 0.42  C 
ATOM     28  N   SER C   5      -2.956 -27.425  -3.442  1.00 39.53 LIG 0.62  N 
BRANCH 27 29
ATOM     29  CB  SER C   5      -1.578 -27.078  -5.466  1.00 42.03 LIG 0.21  C 
BRANCH 29 30
ATOM     30 OG   SER C   5      -1.084 -27.635  -6.665  1.00 42.36 LIG-0.40  OA
ATOM     31 HG   SER C   5      -0.549 -27.097  -7.025  1.00 42.36 LIG 0.21  HD
ENDBRANCH 29 30
ENDBRANCH 27 29
ENDBRANCH 25 27
ENDBRANCH 13 23
ENDBRANCH 11 13
ENDBRANCH 8 9
BRANCH 8 32
ATOM     32  CB  LEU C   7      -1.266 -35.549  -7.625  1.00 26.58 LIG 0.04  C 
BRANCH 32 33
ATOM     33  CG  LEU C   7      -1.059 -36.104  -6.203  1.00 24.49 LIG-0.02  C 
ATOM     34  CD2 LEU C   7       0.420 -36.294  -6.031  1.00 27.30 LIG 0.01  C 
ATOM     35  CD1 LEU C   7      -1.712 -37.478  -6.183  1.00 29.65 LIG 0.01  C 
ENDBRANCH 32 33
ENDBRANCH 8 32
ENDBRANCH 1 8
BRANCH 4 36
ATOM     36  C   PRO C   8      -0.924 -33.129 -11.670  1.00 40.02 LIG 0.24  C 
ATOM     37 O    PRO C   8      -1.388 -34.237 -11.434  1.00 40.33 LIG-0.27  OA
ATOM     38  N   ARG C   9      -1.304 -32.376 -12.689  1.00 39.93 LIG-0.35  N 
ATOM     39 H    ARG C   9      -1.026 -31.568 -12.791  1.00 39.93 LIG 0.16  HD
BRANCH 38 40
ATOM     40  CA  ARG C   9      -2.213 -32.794 -13.744  1.00 44.47 LIG 0.18  C 
BRANCH 40 41
ATOM     41  C   ARG C   9      -1.661 -34.104 -14.380  1.00 44.78 LIG 0.24  C 
ATOM     42  N   PRO C  10      -2.451 -34.778 -15.253  1.00 46.18 LIG-0.34  N 
ATOM     43  CA  PRO C  10      -2.057 -36.071 -15.896  1.00 48.25 LIG 0.17  C 
ATOM     44  CD  PRO C  10      -3.843 -34.396 -15.579  1.00 48.73 LIG 0.13  C 
ATOM     45  CB  PRO C  10      -3.281 -36.448 -16.754  1.00 49.47 LIG 0.04  C 
ATOM     46  CG  PRO C  10      -4.418 -35.631 -16.225  1.00 52.76 LIG 0.02  C 
ATOM     47 O    ARG C   9      -0.551 -34.522 -14.036  1.00 45.76 LIG-0.27  OA
BRANCH 43 48
ATOM     48  C   PRO C  10      -0.823 -36.039 -16.811  1.00 47.63 LIG 0.22  C 
ATOM     49 O    PRO C  10      -0.680 -35.138 -17.634  1.00 46.26 LIG-0.29  OA
ENDBRANCH 43 48
ENDBRANCH 40 41
BRANCH 40 50
ATOM     50  CB  ARG C   9      -2.348 -31.624 -14.774  1.00 49.80 LIG 0.04  C 
BRANCH 50 51
ATOM     51  CG  ARG C   9      -3.396 -30.555 -14.398  1.00 51.68 LIG 0.02  C 
BRANCH 51 52
ATOM     52  CD  ARG C   9      -3.206 -29.199 -15.155  1.00 46.90 LIG 0.14  C 
BRANCH 52 53
ATOM     53  NE  ARG C   9      -4.455 -28.823 -15.811  1.00 50.11 LIG-0.23  N 
ATOM     54 HE   ARG C   9      -5.087 -28.544 -15.298  1.00 50.11 LIG 0.18  HD
ATOM     55  CZ  ARG C   9      -4.724 -28.862 -17.112  1.00 44.95 LIG 0.67  C 
ATOM     56  NH1 ARG C   9      -5.909 -28.481 -17.510  1.00 55.49 LIG-0.23  N 
ATOM     57  NH2 ARG C   9      -3.852 -29.256 -17.997  1.00 40.08 LIG-0.23  N 
ATOM     58 1HH1 ARG C   9      -6.490 -28.214 -16.935  1.00 55.49 LIG 0.17  HD
ATOM     59 2HH1 ARG C   9      -6.107 -28.498 -18.347  1.00 55.49 LIG 0.17  HD
ATOM     60 1HH2 ARG C   9      -3.068 -29.504 -17.747  1.00 40.08 LIG 0.17  HD
ATOM     61 2HH2 ARG C   9      -4.062 -29.269 -18.831  1.00 40.08 LIG 0.17  HD
ENDBRANCH 52 53
ENDBRANCH 51 52
ENDBRANCH 50 51
ENDBRANCH 40 50
ENDBRANCH 38 40
ENDBRANCH 4 36
TORSDOF 20
ENDMDL
MODEL 5
USER: ADFR SOLUTION from run 6
USER: SCORE 19.457047 LL:  -2.952 LR: -17.894 RR:   0.000 FEB: -11.928
USER: RMSD 2.690601
USER: SEED 858930
USER: STATUS no improvement in best in 4 clusters for 5 generations
USER: GENES 22
USER: genes 0 Translation |==|  0.62486 0.45975 0.54209
USER: genes 1 Rotation |==|  0.50435 0.50209 0.54278 0.99814
USER: genes 2 Torsion [N]-C--CA-[N] |==|  0.41451
USER: genes 3 Torsion [C]-CA--N-[C] |==|  0.81235
USER: genes 4 Torsion [N]-C--CA-[N] |==|  0.33350
USER: genes 5 Torsion [C]-CA--CB-[CG] |==|  0.36962
USER: genes 6 Torsion [CA]-CB--CG-[CD1] |==|  0.03799
USER: genes 7 Torsion [CE1]-CZ--OH-[HH] |==|  0.34358
USER: genes 8 Torsion [C]-CA--N-[C] |==|  0.66112
USER: genes 9 Torsion [N]-C--CA-[N] |==|  0.16806
USER: genes 10 Torsion [C]-CA--CB-[OG] |==|  0.32525
USER: genes 11 Torsion [CA]-CB--OG-[HG] |==|  0.64308
USER: genes 12 Torsion [C]-CA--CB-[CG] |==|  0.48294
USER: genes 13 Torsion [CA]-CB--CG-[CD2] |==|  0.72731
USER: genes 14 Torsion [N]-CA--C-[O] |==|  0.97517
USER: genes 15 Torsion [C]-N--CA-[CB] |==|  0.52066
USER: genes 16 Torsion [N]-CA--C-[N] |==|  0.87712
USER: genes 17 Torsion [N]-CA--C-[O] |==|  0.89027
USER: genes 18 Torsion [N]-CA--CB-[CG] |==|  0.76702
USER: genes 19 Torsion [CA]-CB--CG-[CD] |==|  0.23772
USER: genes 20 Torsion [CB]-CG--CD-[NE] |==|  0.59824
USER: genes 21 Torsion [CG]-CD--NE-[HE] |==|  0.32805
ROOT
ATOM      1  C   LEU C   7      -0.590 -33.462  -8.968  1.00 32.10 LIG 0.24  C 
ATOM      2 O    LEU C   7      -1.635 -33.107  -9.551  1.00 36.06 LIG-0.27  OA
ATOM      3  N   PRO C   8       0.645 -33.256  -9.484  1.00 34.15 LIG-0.34  N 
ATOM      4  CA  PRO C   8       0.640 -32.621 -10.788  1.00 36.52 LIG 0.18  C 
ATOM      5  CB  PRO C   8       2.139 -32.486 -11.152  1.00 33.63 LIG 0.04  C 
ATOM      6  CG  PRO C   8       2.831 -32.407  -9.836  1.00 36.13 LIG 0.02  C 
ATOM      7  CD  PRO C   8       2.011 -33.299  -8.900  1.00 34.25 LIG 0.13  C 
ENDROOT
BRANCH 1 8
ATOM      8  CA  LEU C   7      -0.693 -34.066  -7.554  1.00 27.99 LIG 0.18  C 
BRANCH 8 9
ATOM      9  N   LEU C   7      -1.872 -33.646  -6.769  1.00 26.55 LIG-0.35  N 
ATOM     10 H    LEU C   7      -2.458 -34.252  -6.601  1.00 26.55 LIG 0.16  HD
ATOM     11  C   TYR C   6      -1.924 -32.399  -6.399  1.00 27.48 LIG 0.24  C 
ATOM     12 O    TYR C   6      -0.965 -31.616  -6.661  1.00 27.70 LIG-0.27  OA
BRANCH 11 13
ATOM     13  CA  TYR C   6      -3.194 -31.952  -5.730  1.00 25.37 LIG 0.18  C 
BRANCH 13 14
ATOM     14  CB  TYR C   6      -3.886 -30.873  -6.584  1.00 25.99 LIG 0.07  C 
BRANCH 14 15
ATOM     15  CG  TYR C   6      -5.382 -31.066  -6.808  1.00 32.28 LIG-0.06  A 
ATOM     16  CD1 TYR C   6      -6.111 -31.982  -6.045  1.00 32.91 LIG 0.01  A 
ATOM     17  CE1 TYR C   6      -7.468 -32.159  -6.235  1.00 37.22 LIG 0.04  A 
ATOM     18  CZ  TYR C   6      -8.118 -31.423  -7.217  1.00 40.59 LIG 0.07  A 
ATOM     19  CE2 TYR C   6      -7.417 -30.514  -8.009  1.00 40.82 LIG 0.04  A 
ATOM     20  CD2 TYR C   6      -6.050 -30.349  -7.806  1.00 36.01 LIG 0.01  A 
BRANCH 18 21
ATOM     21 OH   TYR C   6      -9.474 -31.613  -7.385  1.00 45.73 LIG-0.36  OA
ATOM     22 HH   TYR C   6      -9.872 -30.878  -7.305  1.00 45.73 LIG 0.22  HD
ENDBRANCH 18 21
ENDBRANCH 14 15
ENDBRANCH 13 14
BRANCH 13 23
ATOM     23  N   TYR C   6      -2.996 -31.462  -4.409  1.00 26.32 LIG-0.34  N 
ATOM     24 H    TYR C   6      -2.452 -30.800  -4.340  1.00 26.32 LIG 0.16  HD
ATOM     25  C   SER C   5      -3.625 -32.023  -3.410  1.00 29.69 LIG 0.26  C 
ATOM     26 O    SER C   5      -4.337 -33.064  -3.568  1.00 27.24 LIG-0.27  OA
BRANCH 25 27
ATOM     27  CA  SER C   5      -3.496 -31.258  -2.047  1.00 35.45 LIG 0.42  C 
ATOM     28  N   SER C   5      -4.060 -29.888  -2.171  1.00 39.53 LIG 0.62  N 
BRANCH 27 29
ATOM     29  CB  SER C   5      -4.141 -31.994  -0.876  1.00 42.03 LIG 0.21  C 
BRANCH 29 30
ATOM     30 OG   SER C   5      -3.212 -32.363   0.120  1.00 42.36 LIG-0.40  OA
ATOM     31 HG   SER C   5      -3.296 -33.181   0.294  1.00 42.36 LIG 0.21  HD
ENDBRANCH 29 30
ENDBRANCH 27 29
ENDBRANCH 25 27
ENDBRANCH 13 23
ENDBRANCH 11 13
ENDBRANCH 8 9
BRANCH 8 32
ATOM     32  CB  LEU C   7      -0.596 -35.547  -7.575  1.00 26.58 LIG 0.04  C 
BRANCH 32 33
ATOM     33  CG  LEU C   7      -0.559 -35.937  -6.085  1.00 24.49 LIG-0.02  C 
ATOM     34  CD2 LEU C   7       0.885 -36.150  -5.736  1.00 27.30 LIG 0.01  C 
ATOM     35  CD1 LEU C   7      -1.268 -37.279  -5.978  1.00 29.65 LIG 0.01  C 
ENDBRANCH 32 33
ENDBRANCH 8 32
ENDBRANCH 1 8
BRANCH 4 36
ATOM     36  C   PRO C   8      -0.179 -33.456 -11.784  1.00 40.02 LIG 0.24  C 
ATOM     37 O    PRO C   8      -0.584 -34.575 -11.493  1.00 40.33 LIG-0.27  OA
ATOM     38  N   ARG C   9      -0.490 -32.833 -12.909  1.00 39.93 LIG-0.35  N 
ATOM     39 H    ARG C   9      -0.263 -32.017 -13.058  1.00 39.93 LIG 0.16  HD
BRANCH 38 40
ATOM     40  CA  ARG C   9      -1.233 -33.421 -14.011  1.00 44.47 LIG 0.18  C 
BRANCH 40 41
ATOM     41  C   ARG C   9      -0.592 -34.797 -14.360  1.00 44.78 LIG 0.24  C 
ATOM     42  N   PRO C  10       0.761 -34.879 -14.426  1.00 46.18 LIG-0.34  N 
ATOM     43  CA  PRO C  10       1.496 -36.129 -14.796  1.00 48.25 LIG 0.17  C 
ATOM     44  CD  PRO C  10       1.671 -33.722 -14.274  1.00 48.73 LIG 0.13  C 
ATOM     45  CB  PRO C  10       2.980 -35.709 -14.771  1.00 49.47 LIG 0.04  C 
ATOM     46  CG  PRO C  10       2.982 -34.214 -14.833  1.00 52.76 LIG 0.02  C 
ATOM     47 O    ARG C   9      -1.325 -35.757 -14.617  1.00 45.76 LIG-0.27  OA
BRANCH 43 48
ATOM     48  C   PRO C  10       1.323 -37.334 -13.858  1.00 47.63 LIG 0.22  C 
ATOM     49 O    PRO C  10       1.288 -37.176 -12.640  1.00 46.26 LIG-0.29  OA
ENDBRANCH 43 48
ENDBRANCH 40 41
BRANCH 40 50
ATOM     50  CB  ARG C   9      -1.216 -32.417 -15.211  1.00 49.80 LIG 0.04  C 
BRANCH 50 51
ATOM     51  CG  ARG C   9      -2.300 -31.319 -15.147  1.00 51.68 LIG 0.02  C 
BRANCH 51 52
ATOM     52  CD  ARG C   9      -1.878 -30.071 -14.305  1.00 46.90 LIG 0.14  C 
BRANCH 52 53
ATOM     53  NE  ARG C   9      -3.039 -29.538 -13.600  1.00 50.11 LIG-0.23  N 
ATOM     54 HE   ARG C   9      -3.000 -29.541 -12.741  1.00 50.11 LIG 0.18  HD
ATOM     55  CZ  ARG C   9      -4.152 -29.047 -14.137  1.00 44.95 LIG 0.67  C 
ATOM     56  NH1 ARG C   9      -5.087 -28.613 -13.335  1.00 55.49 LIG-0.23  N 
ATOM     57  NH2 ARG C   9      -4.337 -28.976 -15.425  1.00 40.08 LIG-0.23  N 
ATOM     58 1HH1 ARG C   9      -4.974 -28.650 -12.483  1.00 55.49 LIG 0.17  HD
ATOM     59 2HH1 ARG C   9      -5.816 -28.292 -13.658  1.00 55.49 LIG 0.17  HD
ATOM     60 1HH2 ARG C   9      -3.726 -29.254 -15.963  1.00 40.08 LIG 0.17  HD
ATOM     61 2HH2 ARG C   9      -5.070 -28.653 -15.738  1.00 40.08 LIG 0.17  HD
ENDBRANCH 52 53
ENDBRANCH 51 52
ENDBRANCH 50 51
ENDBRANCH 40 50
ENDBRANCH 38 40
ENDBRANCH 4 36
TORSDOF 20
ENDMDL
MODEL 6
USER: ADFR SOLUTION from run 6
USER: SCORE 19.039898 LL:  -3.230 LR: -17.146 RR:   0.000 FEB: -11.180
USER: RMSD 3.628263
USER: SEED 858930
USER: STATUS no improvement in best in 4 clusters for 5 generations
USER: GENES 22
USER: genes 0 Translation |==|  0.61616 0.45851 0.54207
USER: genes 1 Rotation |==|  0.50257 0.48106 0.52287 0.99911
USER: genes 2 Torsion [N]-C--CA-[N] |==|  0.38227
USER: genes 3 Torsion [C]-CA--N-[C] |==|  0.82194
USER: genes 4 Torsion [N]-C--CA-[N] |==|  0.30720
USER: genes 5 Torsion [C]-CA--CB-[CG] |==|  0.72312
USER: genes 6 Torsion [CA]-CB--CG-[CD1] |==|  0.74882
USER: genes 7 Torsion [CE1]-CZ--OH-[HH] |==|  0.53743
USER: genes 8 Torsion [C]-CA--N-[C] |==|  0.71693
USER: genes 9 Torsion [N]-C--CA-[N] |==|  0.13050
USER: genes 10 Torsion [C]-CA--CB-[OG] |==|  0.38238
USER: genes 11 Torsion [CA]-CB--OG-[HG] |==|  0.59538
USER: genes 12 Torsion [C]-CA--CB-[CG] |==|  0.43305
USER: genes 13 Torsion [CA]-CB--CG-[CD2] |==|  0.82905
USER: genes 14 Torsion [N]-CA--C-[O] |==|  0.96973
USER: genes 15 Torsion [C]-N--CA-[CB] |==|  0.51816
USER: genes 16 Torsion [N]-CA--C-[N] |==|  0.87222
USER: genes 17 Torsion [N]-CA--C-[O] |==|  0.89246
USER: genes 18 Torsion [N]-CA--CB-[CG] |==|  0.75116
USER: genes 19 Torsion [CA]-CB--CG-[CD] |==|  0.22989
USER: genes 20 Torsion [CB]-CG--CD-[NE] |==|  0.64025
USER: genes 21 Torsion [CG]-CD--NE-[HE] |==|  0.30079
ROOT
ATOM      1  C   LEU C   7      -0.773 -33.485  -8.969  1.00 32.10 LIG 0.24  C 
ATOM      2 O    LEU C   7      -1.733 -33.048  -9.636  1.00 36.06 LIG-0.27  OA
ATOM      3  N   PRO C   8       0.514 -33.379  -9.379  1.00 34.15 LIG-0.34  N 
ATOM      4  CA  PRO C   8       0.669 -32.751 -10.676  1.00 36.52 LIG 0.18  C 
ATOM      5  CB  PRO C   8       2.198 -32.738 -10.914  1.00 33.63 LIG 0.04  C 
ATOM      6  CG  PRO C   8       2.783 -32.710  -9.545  1.00 36.13 LIG 0.02  C 
ATOM      7  CD  PRO C   8       1.818 -33.530  -8.683  1.00 34.25 LIG 0.13  C 
ENDROOT
BRANCH 1 8
ATOM      8  CA  LEU C   7      -1.041 -34.073  -7.570  1.00 27.99 LIG 0.18  C 
BRANCH 8 9
ATOM      9  N   LEU C   7      -2.075 -33.377  -6.777  1.00 26.55 LIG-0.35  N 
ATOM     10 H    LEU C   7      -2.782 -33.827  -6.586  1.00 26.55 LIG 0.16  HD
ATOM     11  C   TYR C   6      -1.830 -32.145  -6.434  1.00 27.48 LIG 0.24  C 
ATOM     12 O    TYR C   6      -0.722 -31.610  -6.730  1.00 27.70 LIG-0.27  OA
BRANCH 11 13
ATOM     13  CA  TYR C   6      -2.949 -31.404  -5.757  1.00 25.37 LIG 0.18  C 
BRANCH 13 14
ATOM     14  CB  TYR C   6      -3.231 -30.084  -6.500  1.00 25.99 LIG 0.07  C 
BRANCH 14 15
ATOM     15  CG  TYR C   6      -2.620 -28.832  -5.878  1.00 32.28 LIG-0.06  A 
ATOM     16  CD1 TYR C   6      -3.327 -28.080  -4.936  1.00 32.91 LIG 0.01  A 
ATOM     17  CE1 TYR C   6      -2.779 -26.948  -4.362  1.00 37.22 LIG 0.04  A 
ATOM     18  CZ  TYR C   6      -1.508 -26.541  -4.742  1.00 40.59 LIG 0.07  A 
ATOM     19  CE2 TYR C   6      -0.783 -27.258  -5.694  1.00 40.82 LIG 0.04  A 
ATOM     20  CD2 TYR C   6      -1.349 -28.394  -6.264  1.00 36.01 LIG 0.01  A 
BRANCH 18 21
ATOM     21 OH   TYR C   6      -0.980 -25.411  -4.151  1.00 45.73 LIG-0.36  OA
ATOM     22 HH   TYR C   6      -0.304 -25.160  -4.582  1.00 45.73 LIG 0.22  HD
ENDBRANCH 18 21
ENDBRANCH 14 15
ENDBRANCH 13 14
BRANCH 13 23
ATOM     23  N   TYR C   6      -2.699 -31.135  -4.382  1.00 26.32 LIG-0.34  N 
ATOM     24 H    TYR C   6      -2.167 -30.477  -4.227  1.00 26.32 LIG 0.16  HD
ATOM     25  C   SER C   5      -3.265 -31.872  -3.465  1.00 29.69 LIG 0.26  C 
ATOM     26 O    SER C   5      -3.960 -32.894  -3.764  1.00 27.24 LIG-0.27  OA
BRANCH 25 27
ATOM     27  CA  SER C   5      -3.088 -31.341  -2.000  1.00 35.45 LIG 0.42  C 
ATOM     28  N   SER C   5      -3.385 -29.886  -1.941  1.00 39.53 LIG 0.62  N 
BRANCH 27 29
ATOM     29  CB  SER C   5      -3.930 -32.097  -0.975  1.00 42.03 LIG 0.21  C 
BRANCH 29 30
ATOM     30 OG   SER C   5      -3.229 -32.373   0.217  1.00 42.36 LIG-0.40  OA
ATOM     31 HG   SER C   5      -3.479 -33.114   0.525  1.00 42.36 LIG 0.21  HD
ENDBRANCH 29 30
ENDBRANCH 27 29
ENDBRANCH 25 27
ENDBRANCH 13 23
ENDBRANCH 11 13
ENDBRANCH 8 9
BRANCH 8 32
ATOM     32  CB  LEU C   7      -1.336 -35.527  -7.627  1.00 26.58 LIG 0.04  C 
BRANCH 32 33
ATOM     33  CG  LEU C   7      -0.962 -36.036  -6.222  1.00 24.49 LIG-0.02  C 
ATOM     34  CD2 LEU C   7       0.503 -35.766  -6.047  1.00 27.30 LIG 0.01  C 
ATOM     35  CD1 LEU C   7      -1.159 -37.545  -6.250  1.00 29.65 LIG 0.01  C 
ENDBRANCH 32 33
ENDBRANCH 8 32
ENDBRANCH 1 8
BRANCH 4 36
ATOM     36  C   PRO C   8      -0.129 -33.522 -11.740  1.00 40.02 LIG 0.24  C 
ATOM     37 O    PRO C   8      -0.615 -34.620 -11.498  1.00 40.33 LIG-0.27  OA
ATOM     38  N   ARG C   9      -0.329 -32.864 -12.870  1.00 39.93 LIG-0.35  N 
ATOM     39 H    ARG C   9      -0.046 -32.060 -12.988  1.00 39.93 LIG 0.16  HD
BRANCH 38 40
ATOM     40  CA  ARG C   9      -1.029 -33.390 -14.031  1.00 44.47 LIG 0.18  C 
BRANCH 40 41
ATOM     41  C   ARG C   9      -0.430 -34.785 -14.377  1.00 44.78 LIG 0.24  C 
ATOM     42  N   PRO C  10       0.920 -34.918 -14.401  1.00 46.18 LIG-0.34  N 
ATOM     43  CA  PRO C  10       1.620 -36.191 -14.765  1.00 48.25 LIG 0.17  C 
ATOM     44  CD  PRO C  10       1.869 -33.800 -14.204  1.00 48.73 LIG 0.13  C 
ATOM     45  CB  PRO C  10       3.116 -35.829 -14.685  1.00 49.47 LIG 0.04  C 
ATOM     46  CG  PRO C  10       3.177 -34.335 -14.727  1.00 52.76 LIG 0.02  C 
ATOM     47 O    ARG C   9      -1.190 -35.713 -14.671  1.00 45.76 LIG-0.27  OA
BRANCH 43 48
ATOM     48  C   PRO C  10       1.370 -37.400 -13.849  1.00 47.63 LIG 0.22  C 
ATOM     49 O    PRO C  10       1.286 -37.254 -12.632  1.00 46.26 LIG-0.29  OA
ENDBRANCH 43 48
ENDBRANCH 40 41
BRANCH 40 50
ATOM     50  CB  ARG C   9      -0.895 -32.359 -15.199  1.00 49.80 LIG 0.04  C 
BRANCH 50 51
ATOM     51  CG  ARG C   9      -2.012 -31.295 -15.250  1.00 51.68 LIG 0.02  C 
BRANCH 51 52
ATOM     52  CD  ARG C   9      -1.771 -30.087 -14.287  1.00 46.90 LIG 0.14  C 
BRANCH 52 53
ATOM     53  NE  ARG C   9      -2.966 -29.855 -13.481  1.00 50.11 LIG-0.23  N 
ATOM     54 HE   ARG C   9      -2.913 -30.068 -12.649  1.00 50.11 LIG 0.18  HD
ATOM     55  CZ  ARG C   9      -4.127 -29.351 -13.888  1.00 44.95 LIG 0.67  C 
ATOM     56  NH1 ARG C   9      -5.085 -29.219 -13.011  1.00 55.49 LIG-0.23  N 
ATOM     57  NH2 ARG C   9      -4.337 -28.981 -15.120  1.00 40.08 LIG-0.23  N 
ATOM     58 1HH1 ARG C   9      -4.956 -29.455 -12.194  1.00 55.49 LIG 0.17  HD
ATOM     59 2HH1 ARG C   9      -5.845 -28.896 -13.250  1.00 55.49 LIG 0.17  HD
ATOM     60 1HH2 ARG C   9      -3.712 -29.059 -15.705  1.00 40.08 LIG 0.17  HD
ATOM     61 2HH2 ARG C   9      -5.101 -28.660 -15.348  1.00 40.08 LIG 0.17  HD
ENDBRANCH 52 53
ENDBRANCH 51 52
ENDBRANCH 50 51
ENDBRANCH 40 50
ENDBRANCH 38 40
ENDBRANCH 4 36
TORSDOF 20
ENDMDL
MODEL 7
USER: ADFR SOLUTION from run 122
USER: SCORE 19.079190 LL:  -2.954 LR: -16.890 RR:   0.000 FEB: -10.924
USER: RMSD 1.860842
USER: SEED 121
USER: STATUS no improvement in best in 2 clusters for 5 generations
USER: GENES 22
USER: genes 0 Translation |==|  0.64106 0.43782 0.56562
USER: genes 1 Rotation |==|  0.54556 0.50859 0.43780 0.99395
USER: genes 2 Torsion [N]-C--CA-[N] |==|  0.46004
USER: genes 3 Torsion [C]-CA--N-[C] |==|  0.82142
USER: genes 4 Torsion [N]-C--CA-[N] |==|  0.34846
USER: genes 5 Torsion [C]-CA--CB-[CG] |==|  0.34390
USER: genes 6 Torsion [CA]-CB--CG-[CD1] |==|  0.04448
USER: genes 7 Torsion [CE1]-CZ--OH-[HH] |==|  0.81841
USER: genes 8 Torsion [C]-CA--N-[C] |==|  0.62232
USER: genes 9 Torsion [N]-C--CA-[N] |==|  0.18035
USER: genes 10 Torsion [C]-CA--CB-[OG] |==|  0.33047
USER: genes 11 Torsion [CA]-CB--OG-[HG] |==|  0.64317
USER: genes 12 Torsion [C]-CA--CB-[CG] |==|  0.44804
USER: genes 13 Torsion [CA]-CB--CG-[CD2] |==|  0.80370
USER: genes 14 Torsion [N]-CA--C-[O] |==|  0.94427
USER: genes 15 Torsion [C]-N--CA-[CB] |==|  0.51423
USER: genes 16 Torsion [N]-CA--C-[N] |==|  0.45617
USER: genes 17 Torsion [N]-CA--C-[O] |==|  0.94135
USER: genes 18 Torsion [N]-CA--CB-[CG] |==|  0.95117
USER: genes 19 Torsion [CA]-CB--CG-[CD] |==|  0.24517
USER: genes 20 Torsion [CB]-CG--CD-[NE] |==|  0.62896
USER: genes 21 Torsion [CG]-CD--NE-[HE] |==|  0.02925
ROOT
ATOM      1  C   LEU C   7      -0.250 -33.857  -8.386  1.00 32.10 LIG 0.24  C 
ATOM      2 O    LEU C   7      -1.062 -33.019  -8.829  1.00 36.06 LIG-0.27  OA
ATOM      3  N   PRO C   8       0.957 -34.084  -8.958  1.00 34.15 LIG-0.34  N 
ATOM      4  CA  PRO C   8       1.201 -33.294 -10.150  1.00 36.52 LIG 0.18  C 
ATOM      5  CB  PRO C   8       2.619 -33.717 -10.603  1.00 33.63 LIG 0.04  C 
ATOM      6  CG  PRO C   8       3.295 -34.143  -9.347  1.00 36.13 LIG 0.02  C 
ATOM      7  CD  PRO C   8       2.190 -34.770  -8.492  1.00 34.25 LIG 0.13  C 
ENDROOT
BRANCH 1 8
ATOM      8  CA  LEU C   7      -0.578 -34.593  -7.072  1.00 27.99 LIG 0.18  C 
BRANCH 8 9
ATOM      9  N   LEU C   7      -1.742 -34.071  -6.327  1.00 26.55 LIG-0.35  N 
ATOM     10 H    LEU C   7      -2.414 -34.600  -6.244  1.00 26.55 LIG 0.16  HD
ATOM     11  C   TYR C   6      -1.651 -32.859  -5.859  1.00 27.48 LIG 0.24  C 
ATOM     12 O    TYR C   6      -0.580 -32.201  -6.000  1.00 27.70 LIG-0.27  OA
BRANCH 11 13
ATOM     13  CA  TYR C   6      -2.894 -32.290  -5.232  1.00 25.37 LIG 0.18  C 
BRANCH 13 14
ATOM     14  CB  TYR C   6      -3.449 -31.151  -6.108  1.00 25.99 LIG 0.07  C 
BRANCH 14 15
ATOM     15  CG  TYR C   6      -4.896 -31.312  -6.564  1.00 32.28 LIG-0.06  A 
ATOM     16  CD1 TYR C   6      -5.745 -32.234  -5.946  1.00 32.91 LIG 0.01  A 
ATOM     17  CE1 TYR C   6      -7.059 -32.383  -6.346  1.00 37.22 LIG 0.04  A 
ATOM     18  CZ  TYR C   6      -7.540 -31.613  -7.396  1.00 40.59 LIG 0.07  A 
ATOM     19  CE2 TYR C   6      -6.714 -30.697  -8.048  1.00 40.82 LIG 0.04  A 
ATOM     20  CD2 TYR C   6      -5.393 -30.561  -7.634  1.00 36.01 LIG 0.01  A 
BRANCH 18 21
ATOM     21 OH   TYR C   6      -8.858 -31.776  -7.775  1.00 45.73 LIG-0.36  OA
ATOM     22 HH   TYR C   6      -8.967 -32.549  -8.083  1.00 45.73 LIG 0.22  HD
ENDBRANCH 18 21
ENDBRANCH 14 15
ENDBRANCH 13 14
BRANCH 13 23
ATOM     23  N   TYR C   6      -2.693 -31.818  -3.905  1.00 26.32 LIG-0.34  N 
ATOM     24 H    TYR C   6      -1.976 -31.358  -3.783  1.00 26.32 LIG 0.16  HD
ATOM     25  C   SER C   5      -3.571 -32.097  -2.979  1.00 29.69 LIG 0.26  C 
ATOM     26 O    SER C   5      -4.557 -32.867  -3.204  1.00 27.24 LIG-0.27  OA
BRANCH 25 27
ATOM     27  CA  SER C   5      -3.351 -31.340  -1.623  1.00 35.45 LIG 0.42  C 
ATOM     28  N   SER C   5      -3.536 -29.878  -1.814  1.00 39.53 LIG 0.62  N 
BRANCH 27 29
ATOM     29  CB  SER C   5      -4.246 -31.846  -0.495  1.00 42.03 LIG 0.21  C 
BRANCH 29 30
ATOM     30 OG   SER C   5      -3.517 -32.363   0.596  1.00 42.36 LIG-0.40  OA
ATOM     31 HG   SER C   5      -3.803 -33.130   0.787  1.00 42.36 LIG 0.21  HD
ENDBRANCH 29 30
ENDBRANCH 27 29
ENDBRANCH 25 27
ENDBRANCH 13 23
ENDBRANCH 11 13
ENDBRANCH 8 9
BRANCH 8 32
ATOM     32  CB  LEU C   7      -0.719 -36.057  -7.277  1.00 26.58 LIG 0.04  C 
BRANCH 32 33
ATOM     33  CG  LEU C   7      -0.557 -36.646  -5.862  1.00 24.49 LIG-0.02  C 
ATOM     34  CD2 LEU C   7       0.886 -36.472  -5.491  1.00 27.30 LIG 0.01  C 
ATOM     35  CD1 LEU C   7      -0.831 -38.137  -5.988  1.00 29.65 LIG 0.01  C 
ENDBRANCH 32 33
ENDBRANCH 8 32
ENDBRANCH 1 8
BRANCH 4 36
ATOM     36  C   PRO C   8       0.101 -33.552 -11.193  1.00 40.02 LIG 0.24  C 
ATOM     37 O    PRO C   8      -0.595 -34.558 -11.147  1.00 40.33 LIG-0.27  OA
ATOM     38  N   ARG C   9      -0.090 -32.565 -12.054  1.00 39.93 LIG-0.35  N 
ATOM     39 H    ARG C   9       0.358 -31.832 -12.016  1.00 39.93 LIG 0.16  HD
BRANCH 38 40
ATOM     40  CA  ARG C   9      -1.050 -32.583 -13.145  1.00 44.47 LIG 0.18  C 
BRANCH 40 41
ATOM     41  C   ARG C   9      -0.833 -33.886 -13.971  1.00 44.78 LIG 0.24  C 
ATOM     42  N   PRO C  10      -1.811 -34.274 -14.829  1.00 46.18 LIG-0.34  N 
ATOM     43  CA  PRO C  10      -1.745 -35.527 -15.644  1.00 48.25 LIG 0.17  C 
ATOM     44  CD  PRO C  10      -3.113 -33.586 -14.970  1.00 48.73 LIG 0.13  C 
ATOM     45  CB  PRO C  10      -3.082 -35.543 -16.411  1.00 49.47 LIG 0.04  C 
ATOM     46  CG  PRO C  10      -3.980 -34.591 -15.685  1.00 52.76 LIG 0.02  C 
ATOM     47 O    ARG C   9       0.188 -34.555 -13.788  1.00 45.76 LIG-0.27  OA
BRANCH 43 48
ATOM     48  C   PRO C  10      -0.604 -35.624 -16.669  1.00 47.63 LIG 0.22  C 
ATOM     49 O    PRO C  10      -0.045 -34.609 -17.078  1.00 46.26 LIG-0.29  OA
ENDBRANCH 43 48
ENDBRANCH 40 41
BRANCH 40 50
ATOM     50  CB  ARG C   9      -0.861 -31.282 -13.993  1.00 49.80 LIG 0.04  C 
BRANCH 50 51
ATOM     51  CG  ARG C   9      -0.079 -30.158 -13.280  1.00 51.68 LIG 0.02  C 
BRANCH 51 52
ATOM     52  CD  ARG C   9       1.469 -30.247 -13.481  1.00 46.90 LIG 0.14  C 
BRANCH 52 53
ATOM     53  NE  ARG C   9       2.142 -30.066 -12.198  1.00 50.11 LIG-0.23  N 
ATOM     54 HE   ARG C   9       1.642 -30.078 -11.499  1.00 50.11 LIG 0.18  HD
ATOM     55  CZ  ARG C   9       3.443 -29.885 -11.990  1.00 44.95 LIG 0.67  C 
ATOM     56  NH1 ARG C   9       3.858 -29.741 -10.760  1.00 55.49 LIG-0.23  N 
ATOM     57  NH2 ARG C   9       4.311 -29.855 -12.962  1.00 40.08 LIG-0.23  N 
ATOM     58 1HH1 ARG C   9       3.294 -29.764 -10.111  1.00 55.49 LIG 0.17  HD
ATOM     59 2HH1 ARG C   9       4.694 -29.622 -10.600  1.00 55.49 LIG 0.17  HD
ATOM     60 1HH2 ARG C   9       4.050 -29.954 -13.775  1.00 40.08 LIG 0.17  HD
ATOM     61 2HH2 ARG C   9       5.145 -29.735 -12.790  1.00 40.08 LIG 0.17  HD
ENDBRANCH 52 53
ENDBRANCH 51 52
ENDBRANCH 50 51
ENDBRANCH 40 50
ENDBRANCH 38 40
ENDBRANCH 4 36
TORSDOF 20
ENDMDL
