MODEL 1
USER: ADFR SOLUTION from run 34
USER: SCORE 23.212589 LL:  -4.343 LR: -20.461 RR:   0.000 FEB: -13.898
USER: RMSD 3.853514
USER: SEED 33
USER: STATUS no improvement in best in 16 clusters for 5 generations
USER: GENES 24
USER: genes 0 Translation |==|  0.47108 0.49555 0.57958
USER: genes 1 Rotation |==|  0.51410 0.51914 0.44803 0.99672
USER: genes 2 Torsion [N]-CA--C-[O] |==|  0.82006
USER: genes 3 Torsion [C]-N--CA-[CB] |==|  0.47780
USER: genes 4 Torsion [N]-CA--CB-[CG2] |==|  0.29815
USER: genes 5 Torsion [CA]-CB--CG1-[CD1] |==|  0.77206
USER: genes 6 Torsion [N]-CA--C-[N] |==|  0.48143
USER: genes 7 Torsion [C]-N--CA-[C] |==|  0.20132
USER: genes 8 Torsion [N]-CA--C-[N] |==|  0.18307
USER: genes 9 Torsion [C]-N--CA-[CB] |==|  0.50533
USER: genes 10 Torsion [N]-CA--CB-[CG] |==|  0.83752
USER: genes 11 Torsion [CA]-CB--CG-[ND2] |==|  0.73925
USER: genes 12 Torsion [N]-CA--C-[O] |==|  0.26326
USER: genes 13 Torsion [N]-CA--CB-[CG] |==|  0.77241
USER: genes 14 Torsion [CA]-CB--CG-[CD2] |==|  0.50544
USER: genes 15 Torsion [CE2]-CZ--OH-[HH] |==|  0.78398
USER: genes 16 Torsion [N]-C--CA-[N] |==|  0.44846
USER: genes 17 Torsion [C]-CA--N-[C] |==|  0.78769
USER: genes 18 Torsion [N]-C--CA-[N] |==|  0.47319
USER: genes 19 Torsion [N]-C--CA-[CB] |==|  0.60613
USER: genes 20 Torsion [C]-CA--CB-[CG] |==|  0.43397
USER: genes 21 Torsion [CA]-CB--CG-[CD] |==|  0.94332
USER: genes 22 Torsion [CB]-CG--CD-[NE] |==|  0.50340
USER: genes 23 Torsion [CG]-CD--NE-[CZ] |==|  0.65401
ROOT
ATOM      1  C   ARG B  14     -10.100 -28.729  -9.725  1.00 32.92 LIG 0.24  C 
ATOM      2 O    ARG B  14      -9.544 -29.823  -9.838  1.00 37.82 LIG-0.27  OA
ATOM      3  N   PRO B  15     -10.489 -27.996 -10.771  1.00 31.88 LIG-0.34  N 
ATOM      4  CA  PRO B  15     -10.299 -28.501 -12.134  1.00 30.79 LIG 0.18  C 
ATOM      5  CB  PRO B  15     -10.936 -27.425 -12.989  1.00 31.22 LIG 0.04  C 
ATOM      6  CG  PRO B  15     -12.002 -26.869 -12.099  1.00 29.82 LIG 0.02  C 
ATOM      7  CD  PRO B  15     -11.349 -26.800 -10.756  1.00 31.43 LIG 0.13  C 
ENDROOT
BRANCH 4 8
ATOM      8  C   PRO B  15      -8.827 -28.589 -12.444  1.00 33.68 LIG 0.24  C 
ATOM      9  N   ILE B  16      -8.333 -29.803 -12.594  1.00 35.41 LIG-0.35  N 
ATOM     10 H    ILE B  16      -8.779 -30.528 -12.464  1.00 35.41 LIG 0.16  HD
ATOM     11 O    PRO B  15      -8.143 -27.578 -12.494  1.00 34.05 LIG-0.27  OA
BRANCH 9 12
ATOM     12  CA  ILE B  16      -6.999 -29.995 -12.988  1.00 37.77 LIG 0.18  C 
BRANCH 12 13
ATOM     13  CB  ILE B  16      -6.597 -31.459 -12.906  1.00 42.27 LIG 0.01  C 
ATOM     14  CG2 ILE B  16      -6.479 -32.035 -14.288  1.00 44.80 LIG 0.01  C 
BRANCH 13 15
ATOM     15  CG1 ILE B  16      -5.279 -31.559 -12.117  1.00 47.53 LIG 0.00  C 
ATOM     16  CD1 ILE B  16      -4.007 -31.285 -12.911  1.00 51.74 LIG 0.01  C 
ENDBRANCH 13 15
ENDBRANCH 12 13
BRANCH 12 17
ATOM     17  C   ILE B  16      -6.913 -29.435 -14.371  1.00 42.33 LIG 0.24  C 
ATOM     18 O    ILE B  16      -7.887 -29.017 -14.934  1.00 39.29 LIG-0.27  OA
ATOM     19  N   TYR B  17      -5.696 -29.391 -14.881  1.00 46.96 LIG-0.35  N 
ATOM     20 H    TYR B  17      -5.023 -29.787 -14.521  1.00 46.96 LIG 0.16  HD
BRANCH 19 21
ATOM     21  CA  TYR B  17      -5.368 -28.681 -16.085  1.00 51.19 LIG 0.18  C 
BRANCH 21 22
ATOM     22  C   TYR B  17      -5.393 -27.216 -15.831  1.00 56.10 LIG 0.24  C 
ATOM     23  N   ASN B  18      -4.489 -26.725 -15.007  1.00 65.39 LIG-0.35  N 
ATOM     24 H    ASN B  18      -3.803 -27.162 -14.728  1.00 65.39 LIG 0.16  HD
ATOM     25 O    TYR B  17      -6.185 -26.518 -16.437  1.00 61.36 LIG-0.27  OA
BRANCH 23 26
ATOM     26  CA  ASN B  18      -4.592 -25.351 -14.489  1.00 70.74 LIG 0.17  C 
BRANCH 26 27
ATOM     27  CB  ASN B  18      -3.375 -25.056 -13.599  1.00 84.74 LIG 0.14  C 
BRANCH 27 28
ATOM     28  CG  ASN B  18      -3.257 -26.033 -12.422  1.00 96.34 LIG 0.22  C 
ATOM     29 OD1  ASN B  18      -2.688 -27.128 -12.556  1.00 99.44 LIG-0.27  OA
ATOM     30  ND2 ASN B  18      -3.811 -25.649 -11.265  1.00 94.73 LIG-0.37  N 
ATOM     31 21HD ASN B  18      -3.781 -26.169 -10.581  1.00 94.73 LIG 0.16  HD
ATOM     32 22HD ASN B  18      -4.199 -24.883 -11.207  1.00 94.73 LIG 0.16  HD
ENDBRANCH 27 28
ENDBRANCH 26 27
BRANCH 26 33
ATOM     33  C   ASN B  18      -4.851 -24.209 -15.502  1.00 72.97 LIG 0.22  C 
ATOM     34 O    ASN B  18      -5.987 -23.781 -15.752  1.00 74.17 LIG-0.29  OA
ENDBRANCH 26 33
ENDBRANCH 23 26
ENDBRANCH 21 22
BRANCH 21 35
ATOM     35  CB  TYR B  17      -6.448 -28.974 -17.113  1.00 54.83 LIG 0.07  C 
BRANCH 35 36
ATOM     36  CG  TYR B  17      -6.210 -30.268 -17.791  1.00 56.96 LIG-0.06  A 
ATOM     37  CD2 TYR B  17      -7.074 -30.700 -18.804  1.00 61.26 LIG 0.01  A 
ATOM     38  CE2 TYR B  17      -6.879 -31.905 -19.438  1.00 70.21 LIG 0.04  A 
ATOM     39  CZ  TYR B  17      -5.814 -32.697 -19.044  1.00 76.40 LIG 0.07  A 
ATOM     40  CE1 TYR B  17      -4.948 -32.294 -18.035  1.00 67.10 LIG 0.04  A 
ATOM     41  CD1 TYR B  17      -5.161 -31.078 -17.411  1.00 57.92 LIG 0.01  A 
BRANCH 39 42
ATOM     42 OH   TYR B  17      -5.623 -33.896 -19.666  1.00 89.25 LIG-0.36  OA
ATOM     43 HH   TYR B  17      -6.170 -34.458 -19.364  1.00 89.25 LIG 0.22  HD
ENDBRANCH 39 42
ENDBRANCH 35 36
ENDBRANCH 21 35
ENDBRANCH 19 21
ENDBRANCH 12 17
ENDBRANCH 9 12
ENDBRANCH 4 8
BRANCH 1 44
ATOM     44  CA  ARG B  14     -10.315 -28.158  -8.355  1.00 32.45 LIG 0.18  C 
BRANCH 44 45
ATOM     45  N   ARG B  14     -10.228 -29.317  -7.495  1.00 38.19 LIG-0.35  N 
ATOM     46 H    ARG B  14      -9.482 -29.377  -7.070  1.00 38.19 LIG 0.16  HD
ATOM     47  C   PRO B  13     -11.212 -30.212  -7.373  1.00 38.91 LIG 0.24  C 
ATOM     48 O    PRO B  13     -12.272 -30.123  -7.959  1.00 32.88 LIG-0.27  OA
BRANCH 47 49
ATOM     49  CA  PRO B  13     -10.959 -31.376  -6.393  1.00 38.31 LIG 0.18  C 
ATOM     50  N   PRO B  13     -12.127 -32.189  -6.131  1.00 38.88 LIG-0.34  N 
ATOM     51  CD  PRO B  13     -11.838 -33.620  -6.300  1.00 43.50 LIG 0.13  C 
ATOM     52  C   PRO B  12     -13.321 -31.704  -5.753  1.00 40.77 LIG 0.26  C 
ATOM     53  CG  PRO B  13     -10.350 -33.671  -6.362  1.00 43.53 LIG 0.02  C 
ATOM     54  CB  PRO B  13      -9.959 -32.376  -6.975  1.00 39.91 LIG 0.04  C 
ATOM     55 O    PRO B  12     -13.532 -30.503  -5.524  1.00 44.45 LIG-0.27  OA
BRANCH 52 56
ATOM     56  CA  PRO B  12     -14.450 -32.693  -5.607  1.00 38.46 LIG 0.35  C 
ATOM     57  CB  PRO B  12     -15.742 -32.049  -6.114  1.00 43.42 LIG 0.05  C 
ATOM     58  CG  PRO B  12     -16.781 -32.481  -5.163  1.00 41.12 LIG 0.04  C 
ATOM     59  CD  PRO B  12     -16.090 -32.584  -3.836  1.00 39.74 LIG 0.32  C 
ATOM     60  N   PRO B  12     -14.710 -32.911  -4.204  1.00 38.12 LIG 0.32  N 
ENDBRANCH 52 56
ENDBRANCH 47 49
ENDBRANCH 44 45
BRANCH 44 61
ATOM     61  CB  ARG B  14      -9.148 -27.224  -8.017  1.00 34.42 LIG 0.04  C 
BRANCH 61 62
ATOM     62  CG  ARG B  14      -9.462 -26.157  -6.969  1.00 32.66 LIG 0.02  C 
BRANCH 62 63
ATOM     63  CD  ARG B  14     -10.962 -25.963  -6.887  1.00 35.24 LIG 0.14  C 
BRANCH 63 64
ATOM     64  NE  ARG B  14     -11.355 -24.926  -5.917  1.00 42.22 LIG-0.23  N 
ATOM     65  CZ  ARG B  14     -12.198 -25.086  -4.894  1.00 44.72 LIG 0.67  C 
ATOM     66  NH2 ARG B  14     -12.798 -26.239  -4.665  1.00 43.48 LIG-0.23  N 
ATOM     67  NH1 ARG B  14     -12.457 -24.066  -4.096  1.00 46.51 LIG-0.23  N 
ATOM     68 1HH2 ARG B  14     -12.649 -26.911  -5.181  1.00 43.48 LIG 0.17  HD
ATOM     69 2HH2 ARG B  14     -13.337 -26.318  -3.999  1.00 43.48 LIG 0.17  HD
ATOM     70 2HH1 ARG B  14     -12.999 -24.163  -3.436  1.00 46.51 LIG 0.17  HD
ATOM     71 1HH1 ARG B  14     -12.083 -23.305  -4.236  1.00 46.51 LIG 0.17  HD
ATOM     72 HE   ARG B  14     -11.009 -24.145  -6.018  1.00 42.22 LIG 0.18  HD
ENDBRANCH 63 64
ENDBRANCH 62 63
ENDBRANCH 61 62
ENDBRANCH 44 61
ENDBRANCH 1 44
TORSDOF 22
ENDMDL
MODEL 2
USER: ADFR SOLUTION from run 75
USER: SCORE 23.605943 LL:  -4.362 LR: -20.279 RR:   0.000 FEB: -13.717
USER: RMSD 5.266124
USER: SEED 74
USER: STATUS no improvement in best in 11 clusters for 5 generations
USER: GENES 24
USER: genes 0 Translation |==|  0.46556 0.47539 0.59430
USER: genes 1 Rotation |==|  0.53571 0.48183 0.34805 0.97466
USER: genes 2 Torsion [N]-CA--C-[O] |==|  0.03183
USER: genes 3 Torsion [C]-N--CA-[CB] |==|  0.49192
USER: genes 4 Torsion [N]-CA--CB-[CG2] |==|  0.24626
USER: genes 5 Torsion [CA]-CB--CG1-[CD1] |==|  0.53145
USER: genes 6 Torsion [N]-CA--C-[N] |==|  0.48109
USER: genes 7 Torsion [C]-N--CA-[C] |==|  0.81079
USER: genes 8 Torsion [N]-CA--C-[N] |==|  0.35624
USER: genes 9 Torsion [C]-N--CA-[CB] |==|  0.71198
USER: genes 10 Torsion [N]-CA--CB-[CG] |==|  0.95566
USER: genes 11 Torsion [CA]-CB--CG-[ND2] |==|  0.84604
USER: genes 12 Torsion [N]-CA--C-[O] |==|  0.30889
USER: genes 13 Torsion [N]-CA--CB-[CG] |==|  0.90603
USER: genes 14 Torsion [CA]-CB--CG-[CD2] |==|  0.78619
USER: genes 15 Torsion [CE2]-CZ--OH-[HH] |==|  0.00840
USER: genes 16 Torsion [N]-C--CA-[N] |==|  0.51013
USER: genes 17 Torsion [C]-CA--N-[C] |==|  0.79233
USER: genes 18 Torsion [N]-C--CA-[N] |==|  0.45121
USER: genes 19 Torsion [N]-C--CA-[CB] |==|  0.69009
USER: genes 20 Torsion [C]-CA--CB-[CG] |==|  0.39439
USER: genes 21 Torsion [CA]-CB--CG-[CD] |==|  0.98640
USER: genes 22 Torsion [CB]-CG--CD-[NE] |==|  0.48119
USER: genes 23 Torsion [CG]-CD--NE-[CZ] |==|  0.64182
ROOT
ATOM      1  C   ARG B  14     -10.224 -29.107  -9.316  1.00 32.92 LIG 0.24  C 
ATOM      2 O    ARG B  14     -10.142 -30.329  -9.451  1.00 37.82 LIG-0.27  OA
ATOM      3  N   PRO B  15     -10.125 -28.251 -10.337  1.00 31.88 LIG-0.34  N 
ATOM      4  CA  PRO B  15      -9.949 -28.753 -11.703  1.00 30.79 LIG 0.18  C 
ATOM      5  CB  PRO B  15      -9.966 -27.489 -12.537  1.00 31.22 LIG 0.04  C 
ATOM      6  CG  PRO B  15     -10.842 -26.571 -11.745  1.00 29.82 LIG 0.02  C 
ATOM      7  CD  PRO B  15     -10.427 -26.810 -10.329  1.00 31.43 LIG 0.13  C 
ENDROOT
BRANCH 4 8
ATOM      8  C   PRO B  15      -8.606 -29.426 -11.830  1.00 33.68 LIG 0.24  C 
ATOM      9  N   ILE B  16      -8.238 -29.771 -13.049  1.00 35.41 LIG-0.35  N 
ATOM     10 H    ILE B  16      -8.736 -29.693 -13.746  1.00 35.41 LIG 0.16  HD
ATOM     11 O    PRO B  15      -7.942 -29.675 -10.835  1.00 34.05 LIG-0.27  OA
BRANCH 9 12
ATOM     12  CA  ILE B  16      -6.964 -30.307 -13.293  1.00 37.77 LIG 0.18  C 
BRANCH 12 13
ATOM     13  CB  ILE B  16      -6.789 -30.694 -14.753  1.00 42.27 LIG 0.01  C 
ATOM     14  CG2 ILE B  16      -6.273 -29.521 -15.534  1.00 44.80 LIG 0.01  C 
BRANCH 13 15
ATOM     15  CG1 ILE B  16      -5.845 -31.907 -14.825  1.00 47.53 LIG 0.00  C 
ATOM     16  CD1 ILE B  16      -5.338 -32.272 -16.216  1.00 51.74 LIG 0.01  C 
ENDBRANCH 13 15
ENDBRANCH 12 13
BRANCH 12 17
ATOM     17  C   ILE B  16      -6.002 -29.256 -12.840  1.00 42.33 LIG 0.24  C 
ATOM     18 O    ILE B  16      -6.386 -28.187 -12.453  1.00 39.29 LIG-0.27  OA
ATOM     19  N   TYR B  17      -4.733 -29.618 -12.854  1.00 46.96 LIG-0.35  N 
ATOM     20 H    TYR B  17      -4.455 -30.339 -13.231  1.00 46.96 LIG 0.16  HD
BRANCH 19 21
ATOM     21  CA  TYR B  17      -3.684 -28.851 -12.243  1.00 51.19 LIG 0.18  C 
BRANCH 21 22
ATOM     22  C   TYR B  17      -3.491 -27.577 -12.986  1.00 56.10 LIG 0.24  C 
ATOM     23  N   ASN B  18      -3.501 -26.458 -12.289  1.00 65.39 LIG-0.35  N 
ATOM     24 H    ASN B  18      -3.461 -26.423 -11.431  1.00 65.39 LIG 0.16  HD
ATOM     25 O    TYR B  17      -3.261 -27.611 -14.180  1.00 61.36 LIG-0.27  OA
BRANCH 23 26
ATOM     26  CA  ASN B  18      -3.582 -25.146 -12.952  1.00 70.74 LIG 0.17  C 
BRANCH 26 27
ATOM     27  CB  ASN B  18      -2.194 -24.489 -12.939  1.00 84.74 LIG 0.14  C 
BRANCH 27 28
ATOM     28  CG  ASN B  18      -1.238 -25.152 -11.939  1.00 96.34 LIG 0.22  C 
ATOM     29 OD1  ASN B  18      -0.145 -25.609 -12.308  1.00 99.44 LIG-0.27  OA
ATOM     30  ND2 ASN B  18      -1.654 -25.226 -10.669  1.00 94.73 LIG-0.37  N 
ATOM     31 21HD ASN B  18      -1.158 -25.600 -10.075  1.00 94.73 LIG 0.16  HD
ATOM     32 22HD ASN B  18      -2.418 -24.899 -10.446  1.00 94.73 LIG 0.16  HD
ENDBRANCH 27 28
ENDBRANCH 26 27
BRANCH 26 33
ATOM     33  C   ASN B  18      -4.236 -25.077 -14.353  1.00 72.97 LIG 0.22  C 
ATOM     34 O    ASN B  18      -5.325 -24.521 -14.557  1.00 74.17 LIG-0.29  OA
ENDBRANCH 26 33
ENDBRANCH 23 26
ENDBRANCH 21 22
BRANCH 21 35
ATOM     35  CB  TYR B  17      -2.391 -29.639 -12.366  1.00 54.83 LIG 0.07  C 
BRANCH 35 36
ATOM     36  CG  TYR B  17      -2.638 -31.096 -12.279  1.00 56.96 LIG-0.06  A 
ATOM     37  CD2 TYR B  17      -2.883 -31.694 -11.037  1.00 61.26 LIG 0.01  A 
ATOM     38  CE2 TYR B  17      -3.103 -33.048 -10.932  1.00 70.21 LIG 0.04  A 
ATOM     39  CZ  TYR B  17      -3.062 -33.818 -12.082  1.00 76.40 LIG 0.07  A 
ATOM     40  CE1 TYR B  17      -2.812 -33.248 -13.325  1.00 67.10 LIG 0.04  A 
ATOM     41  CD1 TYR B  17      -2.596 -31.885 -13.409  1.00 57.92 LIG 0.01  A 
BRANCH 39 42
ATOM     42 OH   TYR B  17      -3.272 -35.162 -11.979  1.00 89.25 LIG-0.36  OA
ATOM     43 HH   TYR B  17      -3.449 -35.358 -11.182  1.00 89.25 LIG 0.22  HD
ENDBRANCH 39 42
ENDBRANCH 35 36
ENDBRANCH 21 35
ENDBRANCH 19 21
ENDBRANCH 12 17
ENDBRANCH 9 12
ENDBRANCH 4 8
BRANCH 1 44
ATOM     44  CA  ARG B  14     -10.397 -28.535  -7.941  1.00 32.45 LIG 0.18  C 
BRANCH 44 45
ATOM     45  N   ARG B  14     -10.379 -29.704  -7.091  1.00 38.19 LIG-0.35  N 
ATOM     46 H    ARG B  14      -9.646 -29.801  -6.652  1.00 38.19 LIG 0.16  HD
ATOM     47  C   PRO B  13     -11.405 -30.554  -6.995  1.00 38.91 LIG 0.24  C 
ATOM     48 O    PRO B  13     -12.449 -30.411  -7.600  1.00 32.88 LIG-0.27  OA
BRANCH 47 49
ATOM     49  CA  PRO B  13     -11.225 -31.736  -6.022  1.00 38.31 LIG 0.18  C 
ATOM     50  N   PRO B  13     -12.463 -32.385  -5.648  1.00 38.88 LIG-0.34  N 
ATOM     51  CD  PRO B  13     -12.381 -33.843  -5.818  1.00 43.50 LIG 0.13  C 
ATOM     52  C   PRO B  12     -13.545 -31.743  -5.178  1.00 40.77 LIG 0.26  C 
ATOM     53  CG  PRO B  13     -10.924 -34.092  -6.005  1.00 43.53 LIG 0.02  C 
ATOM     54  CB  PRO B  13     -10.420 -32.863  -6.670  1.00 39.91 LIG 0.04  C 
ATOM     55 O    PRO B  12     -13.575 -30.524  -4.951  1.00 44.45 LIG-0.27  OA
BRANCH 52 56
ATOM     56  CA  PRO B  12     -14.778 -32.573  -4.920  1.00 38.46 LIG 0.35  C 
ATOM     57  CB  PRO B  12     -15.857 -32.186  -5.933  1.00 43.42 LIG 0.05  C 
ATOM     58  CG  PRO B  12     -17.115 -32.176  -5.166  1.00 41.12 LIG 0.04  C 
ATOM     59  CD  PRO B  12     -16.736 -31.726  -3.785  1.00 39.74 LIG 0.32  C 
ATOM     60  N   PRO B  12     -15.352 -32.188  -3.653  1.00 38.12 LIG 0.32  N 
ENDBRANCH 52 56
ENDBRANCH 47 49
ENDBRANCH 44 45
BRANCH 44 61
ATOM     61  CB  ARG B  14      -9.172 -27.679  -7.601  1.00 34.42 LIG 0.04  C 
BRANCH 61 62
ATOM     62  CG  ARG B  14      -9.477 -26.403  -6.817  1.00 32.66 LIG 0.02  C 
BRANCH 62 63
ATOM     63  CD  ARG B  14     -10.978 -26.251  -6.674  1.00 35.24 LIG 0.14  C 
BRANCH 63 64
ATOM     64  NE  ARG B  14     -11.360 -25.132  -5.795  1.00 42.22 LIG-0.23  N 
ATOM     65  CZ  ARG B  14     -12.209 -25.196  -4.766  1.00 44.72 LIG 0.67  C 
ATOM     66  NH2 ARG B  14     -12.824 -26.318  -4.444  1.00 43.48 LIG-0.23  N 
ATOM     67  NH1 ARG B  14     -12.457 -24.110  -4.057  1.00 46.51 LIG-0.23  N 
ATOM     68 1HH2 ARG B  14     -12.682 -27.033  -4.902  1.00 43.48 LIG 0.17  HD
ATOM     69 2HH2 ARG B  14     -13.366 -26.335  -3.777  1.00 43.48 LIG 0.17  HD
ATOM     70 2HH1 ARG B  14     -13.003 -24.145  -3.394  1.00 46.51 LIG 0.17  HD
ATOM     71 1HH1 ARG B  14     -12.073 -23.368  -4.259  1.00 46.51 LIG 0.17  HD
ATOM     72 HE   ARG B  14     -11.004 -24.366  -5.960  1.00 42.22 LIG 0.18  HD
ENDBRANCH 63 64
ENDBRANCH 62 63
ENDBRANCH 61 62
ENDBRANCH 44 61
ENDBRANCH 1 44
TORSDOF 22
ENDMDL
MODEL 3
USER: ADFR SOLUTION from run 84
USER: SCORE 23.685236 LL:  -4.261 LR: -20.216 RR:   0.000 FEB: -13.653
USER: RMSD 3.262322
USER: SEED 83
USER: STATUS no improvement in best in 10 clusters for 5 generations
USER: GENES 24
USER: genes 0 Translation |==|  0.47612 0.49511 0.59072
USER: genes 1 Rotation |==|  0.52438 0.51443 0.44615 0.99628
USER: genes 2 Torsion [N]-CA--C-[O] |==|  0.94950
USER: genes 3 Torsion [C]-N--CA-[CB] |==|  0.49761
USER: genes 4 Torsion [N]-CA--CB-[CG2] |==|  0.27688
USER: genes 5 Torsion [CA]-CB--CG1-[CD1] |==|  0.16297
USER: genes 6 Torsion [N]-CA--C-[N] |==|  0.42398
USER: genes 7 Torsion [C]-N--CA-[C] |==|  0.85545
USER: genes 8 Torsion [N]-CA--C-[N] |==|  0.88316
USER: genes 9 Torsion [C]-N--CA-[CB] |==|  0.62407
USER: genes 10 Torsion [N]-CA--CB-[CG] |==|  0.80463
USER: genes 11 Torsion [CA]-CB--CG-[ND2] |==|  0.55581
USER: genes 12 Torsion [N]-CA--C-[O] |==|  0.66891
USER: genes 13 Torsion [N]-CA--CB-[CG] |==|  0.55524
USER: genes 14 Torsion [CA]-CB--CG-[CD2] |==|  0.80965
USER: genes 15 Torsion [CE2]-CZ--OH-[HH] |==|  0.94971
USER: genes 16 Torsion [N]-C--CA-[N] |==|  0.44405
USER: genes 17 Torsion [C]-CA--N-[C] |==|  0.79163
USER: genes 18 Torsion [N]-C--CA-[N] |==|  0.46492
USER: genes 19 Torsion [N]-C--CA-[CB] |==|  0.59281
USER: genes 20 Torsion [C]-CA--CB-[CG] |==|  0.38186
USER: genes 21 Torsion [CA]-CB--CG-[CD] |==|  0.01932
USER: genes 22 Torsion [CB]-CG--CD-[NE] |==|  0.47577
USER: genes 23 Torsion [CG]-CD--NE-[CZ] |==|  0.61636
ROOT
ATOM      1  C   ARG B  14      -9.986 -28.738  -9.416  1.00 32.92 LIG 0.24  C 
ATOM      2 O    ARG B  14      -9.438 -29.832  -9.559  1.00 37.82 LIG-0.27  OA
ATOM      3  N   PRO B  15     -10.345 -27.960 -10.441  1.00 31.88 LIG-0.34  N 
ATOM      4  CA  PRO B  15     -10.129 -28.414 -11.818  1.00 30.79 LIG 0.18  C 
ATOM      5  CB  PRO B  15     -10.736 -27.300 -12.645  1.00 31.22 LIG 0.04  C 
ATOM      6  CG  PRO B  15     -11.816 -26.768 -11.758  1.00 29.82 LIG 0.02  C 
ATOM      7  CD  PRO B  15     -11.193 -26.758 -10.400  1.00 31.43 LIG 0.13  C 
ENDROOT
BRANCH 4 8
ATOM      8  C   PRO B  15      -8.650 -28.506 -12.098  1.00 33.68 LIG 0.24  C 
ATOM      9  N   ILE B  16      -8.293 -29.284 -13.102  1.00 35.41 LIG-0.35  N 
ATOM     10 H    ILE B  16      -8.836 -29.777 -13.551  1.00 35.41 LIG 0.16  HD
ATOM     11 O    PRO B  15      -7.848 -27.924 -11.384  1.00 34.05 LIG-0.27  OA
BRANCH 9 12
ATOM     12  CA  ILE B  16      -6.953 -29.357 -13.515  1.00 37.77 LIG 0.18  C 
BRANCH 12 13
ATOM     13  CB  ILE B  16      -6.776 -30.330 -14.671  1.00 42.27 LIG 0.01  C 
ATOM     14  CG2 ILE B  16      -6.706 -29.575 -15.967  1.00 44.80 LIG 0.01  C 
BRANCH 13 15
ATOM     15  CG1 ILE B  16      -5.512 -31.168 -14.413  1.00 47.53 LIG 0.00  C 
ATOM     16  CD1 ILE B  16      -5.501 -31.974 -13.118  1.00 51.74 LIG 0.01  C 
ENDBRANCH 13 15
ENDBRANCH 12 13
BRANCH 12 17
ATOM     17  C   ILE B  16      -6.569 -27.954 -13.859  1.00 42.33 LIG 0.24  C 
ATOM     18 O    ILE B  16      -7.394 -27.146 -14.182  1.00 39.29 LIG-0.27  OA
ATOM     19  N   TYR B  17      -5.285 -27.679 -13.726  1.00 46.96 LIG-0.35  N 
ATOM     20 H    TYR B  17      -4.687 -28.283 -13.601  1.00 46.96 LIG 0.16  HD
BRANCH 19 21
ATOM     21  CA  TYR B  17      -4.753 -26.346 -13.777  1.00 51.19 LIG 0.18  C 
BRANCH 21 22
ATOM     22  C   TYR B  17      -5.224 -25.660 -15.009  1.00 56.10 LIG 0.24  C 
ATOM     23  N   ASN B  18      -5.233 -26.355 -16.129  1.00 65.39 LIG-0.35  N 
ATOM     24 H    ASN B  18      -5.129 -27.208 -16.168  1.00 65.39 LIG 0.16  HD
ATOM     25 O    TYR B  17      -5.650 -24.522 -14.934  1.00 61.36 LIG-0.27  OA
BRANCH 23 26
ATOM     26  CA  ASN B  18      -5.427 -25.702 -17.434  1.00 70.74 LIG 0.17  C 
BRANCH 26 27
ATOM     27  CB  ASN B  18      -6.426 -26.522 -18.263  1.00 84.74 LIG 0.14  C 
BRANCH 27 28
ATOM     28  CG  ASN B  18      -5.845 -27.862 -18.730  1.00 96.34 LIG 0.22  C 
ATOM     29 OD1  ASN B  18      -4.853 -28.357 -18.172  1.00 99.44 LIG-0.27  OA
ATOM     30  ND2 ASN B  18      -6.449 -28.449 -19.771  1.00 94.73 LIG-0.37  N 
ATOM     31 21HD ASN B  18      -6.152 -29.195 -20.076  1.00 94.73 LIG 0.16  HD
ATOM     32 22HD ASN B  18      -7.135 -28.078 -20.135  1.00 94.73 LIG 0.16  HD
ENDBRANCH 27 28
ENDBRANCH 26 27
BRANCH 26 33
ATOM     33  C   ASN B  18      -5.771 -24.193 -17.448  1.00 72.97 LIG 0.22  C 
ATOM     34 O    ASN B  18      -6.823 -23.751 -17.933  1.00 74.17 LIG-0.29  OA
ENDBRANCH 26 33
ENDBRANCH 23 26
ENDBRANCH 21 22
BRANCH 21 35
ATOM     35  CB  TYR B  17      -3.240 -26.447 -13.875  1.00 54.83 LIG 0.07  C 
BRANCH 35 36
ATOM     36  CG  TYR B  17      -2.588 -25.184 -13.463  1.00 56.96 LIG-0.06  A 
ATOM     37  CD2 TYR B  17      -2.720 -24.035 -14.252  1.00 61.26 LIG 0.01  A 
ATOM     38  CE2 TYR B  17      -2.112 -22.854 -13.894  1.00 70.21 LIG 0.04  A 
ATOM     39  CZ  TYR B  17      -1.349 -22.824 -12.740  1.00 76.40 LIG 0.07  A 
ATOM     40  CE1 TYR B  17      -1.196 -23.954 -11.945  1.00 67.10 LIG 0.04  A 
ATOM     41  CD1 TYR B  17      -1.816 -25.131 -12.321  1.00 57.92 LIG 0.01  A 
BRANCH 39 42
ATOM     42 OH   TYR B  17      -0.739 -21.656 -12.387  1.00 89.25 LIG-0.36  OA
ATOM     43 HH   TYR B  17      -0.703 -21.146 -13.054  1.00 89.25 LIG 0.22  HD
ENDBRANCH 39 42
ENDBRANCH 35 36
ENDBRANCH 21 35
ENDBRANCH 19 21
ENDBRANCH 12 17
ENDBRANCH 9 12
ENDBRANCH 4 8
BRANCH 1 44
ATOM     44  CA  ARG B  14     -10.228 -28.217  -8.030  1.00 32.45 LIG 0.18  C 
BRANCH 44 45
ATOM     45  N   ARG B  14     -10.209 -29.414  -7.219  1.00 38.19 LIG-0.35  N 
ATOM     46 H    ARG B  14      -9.489 -29.508  -6.758  1.00 38.19 LIG 0.16  HD
ATOM     47  C   PRO B  13     -11.216 -30.292  -7.188  1.00 38.91 LIG 0.24  C 
ATOM     48 O    PRO B  13     -12.241 -30.154  -7.824  1.00 32.88 LIG-0.27  OA
BRANCH 47 49
ATOM     49  CA  PRO B  13     -11.039 -31.502  -6.249  1.00 38.31 LIG 0.18  C 
ATOM     50  N   PRO B  13     -12.252 -32.260  -6.031  1.00 38.88 LIG-0.34  N 
ATOM     51  CD  PRO B  13     -12.036 -33.698  -6.249  1.00 43.50 LIG 0.13  C 
ATOM     52  C   PRO B  12     -13.424 -31.726  -5.650  1.00 40.77 LIG 0.26  C 
ATOM     53  CG  PRO B  13     -10.552 -33.826  -6.295  1.00 43.53 LIG 0.02  C 
ATOM     54  CB  PRO B  13     -10.086 -32.532  -6.855  1.00 39.91 LIG 0.04  C 
ATOM     55 O    PRO B  12     -13.574 -30.525  -5.379  1.00 44.45 LIG-0.27  OA
BRANCH 52 56
ATOM     56  CA  PRO B  12     -14.605 -32.658  -5.553  1.00 38.46 LIG 0.35  C 
ATOM     57  CB  PRO B  12     -15.873 -31.893  -5.938  1.00 43.42 LIG 0.05  C 
ATOM     58  CG  PRO B  12     -16.901 -32.358  -4.991  1.00 41.12 LIG 0.04  C 
ATOM     59  CD  PRO B  12     -16.168 -32.635  -3.711  1.00 39.74 LIG 0.32  C 
ATOM     60  N   PRO B  12     -14.826 -33.002  -4.169  1.00 38.12 LIG 0.32  N 
ENDBRANCH 52 56
ENDBRANCH 47 49
ENDBRANCH 44 45
BRANCH 44 61
ATOM     61  CB  ARG B  14      -9.041 -27.341  -7.615  1.00 34.42 LIG 0.04  C 
BRANCH 61 62
ATOM     62  CG  ARG B  14      -9.419 -26.047  -6.895  1.00 32.66 LIG 0.02  C 
BRANCH 62 63
ATOM     63  CD  ARG B  14     -10.909 -26.044  -6.621  1.00 35.24 LIG 0.14  C 
BRANCH 63 64
ATOM     64  NE  ARG B  14     -11.331 -24.932  -5.751  1.00 42.22 LIG-0.23  N 
ATOM     65  CZ  ARG B  14     -12.211 -25.008  -4.750  1.00 44.72 LIG 0.67  C 
ATOM     66  NH2 ARG B  14     -12.824 -26.138  -4.451  1.00 43.48 LIG-0.23  N 
ATOM     67  NH1 ARG B  14     -12.493 -23.927  -4.046  1.00 46.51 LIG-0.23  N 
ATOM     68 1HH2 ARG B  14     -12.660 -26.849  -4.906  1.00 43.48 LIG 0.17  HD
ATOM     69 2HH2 ARG B  14     -13.387 -26.162  -3.801  1.00 43.48 LIG 0.17  HD
ATOM     70 2HH1 ARG B  14     -13.059 -23.970  -3.400  1.00 46.51 LIG 0.17  HD
ATOM     71 1HH1 ARG B  14     -12.110 -23.181  -4.233  1.00 46.51 LIG 0.17  HD
ATOM     72 HE   ARG B  14     -10.978 -24.162  -5.903  1.00 42.22 LIG 0.18  HD
ENDBRANCH 63 64
ENDBRANCH 62 63
ENDBRANCH 61 62
ENDBRANCH 44 61
ENDBRANCH 1 44
TORSDOF 22
ENDMDL
MODEL 4
USER: ADFR SOLUTION from run 108
USER: SCORE 23.378186 LL:  -4.560 LR: -20.162 RR:   0.000 FEB: -13.599
USER: RMSD 2.576219
USER: SEED 107
USER: STATUS no improvement in best in 20 clusters for 5 generations
USER: GENES 24
USER: genes 0 Translation |==|  0.47778 0.50141 0.58679
USER: genes 1 Rotation |==|  0.51696 0.51540 0.46825 0.99847
USER: genes 2 Torsion [N]-CA--C-[O] |==|  0.93614
USER: genes 3 Torsion [C]-N--CA-[CB] |==|  0.29333
USER: genes 4 Torsion [N]-CA--CB-[CG2] |==|  0.01964
USER: genes 5 Torsion [CA]-CB--CG1-[CD1] |==|  0.70248
USER: genes 6 Torsion [N]-CA--C-[N] |==|  0.35232
USER: genes 7 Torsion [C]-N--CA-[C] |==|  0.84816
USER: genes 8 Torsion [N]-CA--C-[N] |==|  0.36473
USER: genes 9 Torsion [C]-N--CA-[CB] |==|  0.46055
USER: genes 10 Torsion [N]-CA--CB-[CG] |==|  0.60838
USER: genes 11 Torsion [CA]-CB--CG-[ND2] |==|  0.40098
USER: genes 12 Torsion [N]-CA--C-[O] |==|  0.94201
USER: genes 13 Torsion [N]-CA--CB-[CG] |==|  0.94896
USER: genes 14 Torsion [CA]-CB--CG-[CD2] |==|  0.26603
USER: genes 15 Torsion [CE2]-CZ--OH-[HH] |==|  0.58548
USER: genes 16 Torsion [N]-C--CA-[N] |==|  0.43636
USER: genes 17 Torsion [C]-CA--N-[C] |==|  0.78377
USER: genes 18 Torsion [N]-C--CA-[N] |==|  0.47799
USER: genes 19 Torsion [N]-C--CA-[CB] |==|  0.57071
USER: genes 20 Torsion [C]-CA--CB-[CG] |==|  0.42079
USER: genes 21 Torsion [CA]-CB--CG-[CD] |==|  0.96190
USER: genes 22 Torsion [CB]-CG--CD-[NE] |==|  0.49995
USER: genes 23 Torsion [CG]-CD--NE-[CZ] |==|  0.65723
ROOT
ATOM      1  C   ARG B  14      -9.949 -28.620  -9.525  1.00 32.92 LIG 0.24  C 
ATOM      2 O    ARG B  14      -9.305 -29.664  -9.641  1.00 37.82 LIG-0.27  OA
ATOM      3  N   PRO B  15     -10.377 -27.905 -10.570  1.00 31.88 LIG-0.34  N 
ATOM      4  CA  PRO B  15     -10.123 -28.375 -11.934  1.00 30.79 LIG 0.18  C 
ATOM      5  CB  PRO B  15     -10.828 -27.342 -12.789  1.00 31.22 LIG 0.04  C 
ATOM      6  CG  PRO B  15     -11.951 -26.886 -11.912  1.00 29.82 LIG 0.02  C 
ATOM      7  CD  PRO B  15     -11.330 -26.783 -10.557  1.00 31.43 LIG 0.13  C 
ENDROOT
BRANCH 4 8
ATOM      8  C   PRO B  15      -8.642 -28.341 -12.218  1.00 33.68 LIG 0.24  C 
ATOM      9  N   ILE B  16      -8.203 -29.182 -13.134  1.00 35.41 LIG-0.35  N 
ATOM     10 H    ILE B  16      -8.691 -29.776 -13.522  1.00 35.41 LIG 0.16  HD
ATOM     11 O    PRO B  15      -7.907 -27.604 -11.579  1.00 34.05 LIG-0.27  OA
BRANCH 9 12
ATOM     12  CA  ILE B  16      -6.863 -29.160 -13.550  1.00 37.77 LIG 0.18  C 
BRANCH 12 13
ATOM     13  CB  ILE B  16      -6.081 -30.333 -12.982  1.00 42.27 LIG 0.01  C 
ATOM     14  CG2 ILE B  16      -7.014 -31.276 -12.276  1.00 44.80 LIG 0.01  C 
BRANCH 13 15
ATOM     15  CG1 ILE B  16      -5.321 -31.016 -14.133  1.00 47.53 LIG 0.00  C 
ATOM     16  CD1 ILE B  16      -5.868 -32.367 -14.582  1.00 51.74 LIG 0.01  C 
ENDBRANCH 13 15
ENDBRANCH 12 13
BRANCH 12 17
ATOM     17  C   ILE B  16      -6.914 -29.151 -15.044  1.00 42.33 LIG 0.24  C 
ATOM     18 O    ILE B  16      -7.574 -29.950 -15.648  1.00 39.29 LIG-0.27  OA
ATOM     19  N   TYR B  17      -6.230 -28.180 -15.620  1.00 46.96 LIG-0.35  N 
ATOM     20 H    TYR B  17      -5.676 -27.680 -15.193  1.00 46.96 LIG 0.16  HD
BRANCH 19 21
ATOM     21  CA  TYR B  17      -6.339 -27.855 -17.014  1.00 51.19 LIG 0.18  C 
BRANCH 21 22
ATOM     22  C   TYR B  17      -6.077 -29.066 -17.837  1.00 56.10 LIG 0.24  C 
ATOM     23  N   ASN B  18      -6.937 -29.348 -18.797  1.00 65.39 LIG-0.35  N 
ATOM     24 H    ASN B  18      -7.545 -28.808 -19.073  1.00 65.39 LIG 0.16  HD
ATOM     25 O    TYR B  17      -5.059 -29.706 -17.652  1.00 61.36 LIG-0.27  OA
BRANCH 23 26
ATOM     26  CA  ASN B  18      -6.914 -30.649 -19.485  1.00 70.74 LIG 0.17  C 
BRANCH 26 27
ATOM     27  CB  ASN B  18      -8.219 -30.821 -20.277  1.00 84.74 LIG 0.14  C 
BRANCH 27 28
ATOM     28  CG  ASN B  18      -8.759 -32.256 -20.218  1.00 96.34 LIG 0.22  C 
ATOM     29 OD1  ASN B  18      -7.988 -33.229 -20.221  1.00 99.44 LIG-0.27  OA
ATOM     30  ND2 ASN B  18     -10.090 -32.396 -20.183  1.00 94.73 LIG-0.37  N 
ATOM     31 21HD ASN B  18     -10.440 -33.181 -20.162  1.00 94.73 LIG 0.16  HD
ATOM     32 22HD ASN B  18     -10.596 -31.700 -20.182  1.00 94.73 LIG 0.16  HD
ENDBRANCH 27 28
ENDBRANCH 26 27
BRANCH 26 33
ATOM     33  C   ASN B  18      -5.674 -30.999 -20.342  1.00 72.97 LIG 0.22  C 
ATOM     34 O    ASN B  18      -4.899 -30.136 -20.781  1.00 74.17 LIG-0.29  OA
ENDBRANCH 26 33
ENDBRANCH 23 26
ENDBRANCH 21 22
BRANCH 21 35
ATOM     35  CB  TYR B  17      -5.253 -26.846 -17.349  1.00 54.83 LIG 0.07  C 
BRANCH 35 36
ATOM     36  CG  TYR B  17      -4.731 -26.192 -16.127  1.00 56.96 LIG-0.06  A 
ATOM     37  CD2 TYR B  17      -3.573 -26.679 -15.510  1.00 61.26 LIG 0.01  A 
ATOM     38  CE2 TYR B  17      -3.078 -26.094 -14.367  1.00 70.21 LIG 0.04  A 
ATOM     39  CZ  TYR B  17      -3.759 -25.017 -13.825  1.00 76.40 LIG 0.07  A 
ATOM     40  CE1 TYR B  17      -4.915 -24.522 -14.415  1.00 67.10 LIG 0.04  A 
ATOM     41  CD1 TYR B  17      -5.395 -25.123 -15.564  1.00 57.92 LIG 0.01  A 
BRANCH 39 42
ATOM     42 OH   TYR B  17      -3.274 -24.441 -12.688  1.00 89.25 LIG-0.36  OA
ATOM     43 HH   TYR B  17      -3.912 -24.130 -12.237  1.00 89.25 LIG 0.22  HD
ENDBRANCH 39 42
ENDBRANCH 35 36
ENDBRANCH 21 35
ENDBRANCH 19 21
ENDBRANCH 12 17
ENDBRANCH 9 12
ENDBRANCH 4 8
BRANCH 1 44
ATOM     44  CA  ARG B  14     -10.234 -28.086  -8.152  1.00 32.45 LIG 0.18  C 
BRANCH 44 45
ATOM     45  N   ARG B  14     -10.174 -29.265  -7.319  1.00 38.19 LIG-0.35  N 
ATOM     46 H    ARG B  14      -9.440 -29.338  -6.876  1.00 38.19 LIG 0.16  HD
ATOM     47  C   PRO B  13     -11.164 -30.159  -7.245  1.00 38.91 LIG 0.24  C 
ATOM     48 O    PRO B  13     -12.208 -30.051  -7.856  1.00 32.88 LIG-0.27  OA
BRANCH 47 49
ATOM     49  CA  PRO B  13     -10.941 -31.347  -6.287  1.00 38.31 LIG 0.18  C 
ATOM     50  N   PRO B  13     -12.108 -32.184  -6.107  1.00 38.88 LIG-0.34  N 
ATOM     51  CD  PRO B  13     -11.788 -33.606  -6.302  1.00 43.50 LIG 0.13  C 
ATOM     52  C   PRO B  12     -13.327 -31.728  -5.775  1.00 40.77 LIG 0.26  C 
ATOM     53  CG  PRO B  13     -10.298 -33.634  -6.291  1.00 43.53 LIG 0.02  C 
ATOM     54  CB  PRO B  13      -9.898 -32.315  -6.847  1.00 39.91 LIG 0.04  C 
ATOM     55 O    PRO B  12     -13.568 -30.537  -5.523  1.00 44.45 LIG-0.27  OA
BRANCH 52 56
ATOM     56  CA  PRO B  12     -14.446 -32.737  -5.714  1.00 38.46 LIG 0.35  C 
ATOM     57  CB  PRO B  12     -15.774 -32.020  -5.959  1.00 43.42 LIG 0.05  C 
ATOM     58  CG  PRO B  12     -16.721 -32.636  -5.013  1.00 41.12 LIG 0.04  C 
ATOM     59  CD  PRO B  12     -15.904 -32.988  -3.804  1.00 39.74 LIG 0.32  C 
ATOM     60  N   PRO B  12     -14.570 -33.224  -4.361  1.00 38.12 LIG 0.32  N 
ENDBRANCH 52 56
ENDBRANCH 47 49
ENDBRANCH 44 45
BRANCH 44 61
ATOM     61  CB  ARG B  14      -9.095 -27.149  -7.737  1.00 34.42 LIG 0.04  C 
BRANCH 61 62
ATOM     62  CG  ARG B  14      -9.496 -26.041  -6.764  1.00 32.66 LIG 0.02  C 
BRANCH 62 63
ATOM     63  CD  ARG B  14     -11.008 -25.944  -6.713  1.00 35.24 LIG 0.14  C 
BRANCH 63 64
ATOM     64  NE  ARG B  14     -11.485 -24.896  -5.794  1.00 42.22 LIG-0.23  N 
ATOM     65  CZ  ARG B  14     -12.316 -25.073  -4.765  1.00 44.72 LIG 0.67  C 
ATOM     66  NH2 ARG B  14     -12.824 -26.257  -4.479  1.00 43.48 LIG-0.23  N 
ATOM     67  NH1 ARG B  14     -12.658 -24.039  -4.018  1.00 46.51 LIG-0.23  N 
ATOM     68 1HH2 ARG B  14     -12.620 -26.939  -4.962  1.00 43.48 LIG 0.17  HD
ATOM     69 2HH2 ARG B  14     -13.357 -26.346  -3.811  1.00 43.48 LIG 0.17  HD
ATOM     70 2HH1 ARG B  14     -13.194 -24.147  -3.353  1.00 46.51 LIG 0.17  HD
ATOM     71 1HH1 ARG B  14     -12.345 -23.258  -4.195  1.00 46.51 LIG 0.17  HD
ATOM     72 HE   ARG B  14     -11.201 -24.095  -5.934  1.00 42.22 LIG 0.18  HD
ENDBRANCH 63 64
ENDBRANCH 62 63
ENDBRANCH 61 62
ENDBRANCH 44 61
ENDBRANCH 1 44
TORSDOF 22
ENDMDL
MODEL 5
USER: ADFR SOLUTION from run 84
USER: SCORE 23.012047 LL:  -4.467 LR: -20.037 RR:   0.000 FEB: -13.475
USER: RMSD 4.211921
USER: SEED 83
USER: STATUS no improvement in best in 10 clusters for 5 generations
USER: GENES 24
USER: genes 0 Translation |==|  0.47825 0.49596 0.57962
USER: genes 1 Rotation |==|  0.50784 0.50725 0.47110 0.99905
USER: genes 2 Torsion [N]-CA--C-[O] |==|  0.91746
USER: genes 3 Torsion [C]-N--CA-[CB] |==|  0.16274
USER: genes 4 Torsion [N]-CA--CB-[CG2] |==|  0.18605
USER: genes 5 Torsion [CA]-CB--CG1-[CD1] |==|  0.28061
USER: genes 6 Torsion [N]-CA--C-[N] |==|  0.33621
USER: genes 7 Torsion [C]-N--CA-[C] |==|  0.75728
USER: genes 8 Torsion [N]-CA--C-[N] |==|  0.24152
USER: genes 9 Torsion [C]-N--CA-[CB] |==|  0.28885
USER: genes 10 Torsion [N]-CA--CB-[CG] |==|  0.32811
USER: genes 11 Torsion [CA]-CB--CG-[ND2] |==|  0.76736
USER: genes 12 Torsion [N]-CA--C-[O] |==|  0.16871
USER: genes 13 Torsion [N]-CA--CB-[CG] |==|  0.59940
USER: genes 14 Torsion [CA]-CB--CG-[CD2] |==|  0.84344
USER: genes 15 Torsion [CE2]-CZ--OH-[HH] |==|  0.96607
USER: genes 16 Torsion [N]-C--CA-[N] |==|  0.43917
USER: genes 17 Torsion [C]-CA--N-[C] |==|  0.78387
USER: genes 18 Torsion [N]-C--CA-[N] |==|  0.47339
USER: genes 19 Torsion [N]-C--CA-[CB] |==|  0.55740
USER: genes 20 Torsion [C]-CA--CB-[CG] |==|  0.46443
USER: genes 21 Torsion [CA]-CB--CG-[CD] |==|  0.90648
USER: genes 22 Torsion [CB]-CG--CD-[NE] |==|  0.52785
USER: genes 23 Torsion [CG]-CD--NE-[CZ] |==|  0.67135
ROOT
ATOM      1  C   ARG B  14      -9.938 -28.722  -9.723  1.00 32.92 LIG 0.24  C 
ATOM      2 O    ARG B  14      -9.280 -29.762  -9.780  1.00 37.82 LIG-0.27  OA
ATOM      3  N   PRO B  15     -10.342 -28.053 -10.807  1.00 31.88 LIG-0.34  N 
ATOM      4  CA  PRO B  15     -10.040 -28.571 -12.145  1.00 30.79 LIG 0.18  C 
ATOM      5  CB  PRO B  15     -10.730 -27.580 -13.059  1.00 31.22 LIG 0.04  C 
ATOM      6  CG  PRO B  15     -11.885 -27.104 -12.236  1.00 29.82 LIG 0.02  C 
ATOM      7  CD  PRO B  15     -11.307 -26.943 -10.867  1.00 31.43 LIG 0.13  C 
ENDROOT
BRANCH 4 8
ATOM      8  C   PRO B  15      -8.552 -28.530 -12.384  1.00 33.68 LIG 0.24  C 
ATOM      9  N   ILE B  16      -8.057 -29.486 -13.147  1.00 35.41 LIG-0.35  N 
ATOM     10 H    ILE B  16      -8.513 -30.148 -13.453  1.00 35.41 LIG 0.16  HD
ATOM     11 O    PRO B  15      -7.862 -27.679 -11.844  1.00 34.05 LIG-0.27  OA
BRANCH 9 12
ATOM     12  CA  ILE B  16      -6.703 -29.481 -13.519  1.00 37.77 LIG 0.18  C 
BRANCH 12 13
ATOM     13  CB  ILE B  16      -5.788 -29.499 -12.305  1.00 42.27 LIG 0.01  C 
ATOM     14  CG2 ILE B  16      -5.922 -30.809 -11.583  1.00 44.80 LIG 0.01  C 
BRANCH 13 15
ATOM     15  CG1 ILE B  16      -4.347 -29.236 -12.777  1.00 47.53 LIG 0.00  C 
ATOM     16  CD1 ILE B  16      -3.829 -27.817 -12.572  1.00 51.74 LIG 0.01  C 
ENDBRANCH 13 15
ENDBRANCH 12 13
BRANCH 12 17
ATOM     17  C   ILE B  16      -6.534 -30.674 -14.405  1.00 42.33 LIG 0.24  C 
ATOM     18 O    ILE B  16      -6.825 -31.774 -14.027  1.00 39.29 LIG-0.27  OA
ATOM     19  N   TYR B  17      -6.101 -30.407 -15.623  1.00 46.96 LIG-0.35  N 
ATOM     20 H    TYR B  17      -5.793 -29.638 -15.853  1.00 46.96 LIG 0.16  HD
BRANCH 19 21
ATOM     21  CA  TYR B  17      -6.097 -31.369 -16.689  1.00 51.19 LIG 0.18  C 
BRANCH 21 22
ATOM     22  C   TYR B  17      -4.835 -32.155 -16.656  1.00 56.10 LIG 0.24  C 
ATOM     23  N   ASN B  18      -4.804 -33.227 -15.889  1.00 65.39 LIG-0.35  N 
ATOM     24 H    ASN B  18      -5.500 -33.582 -15.529  1.00 65.39 LIG 0.16  HD
ATOM     25 O    TYR B  17      -3.911 -31.833 -17.380  1.00 61.36 LIG-0.27  OA
BRANCH 23 26
ATOM     26  CA  ASN B  18      -3.538 -33.913 -15.584  1.00 70.74 LIG 0.17  C 
BRANCH 26 27
ATOM     27  CB  ASN B  18      -3.110 -33.565 -14.151  1.00 84.74 LIG 0.14  C 
BRANCH 27 28
ATOM     28  CG  ASN B  18      -3.041 -34.799 -13.241  1.00 96.34 LIG 0.22  C 
ATOM     29 OD1  ASN B  18      -1.969 -35.396 -13.056  1.00 99.44 LIG-0.27  OA
ATOM     30  ND2 ASN B  18      -4.190 -35.199 -12.683  1.00 94.73 LIG-0.37  N 
ATOM     31 21HD ASN B  18      -4.203 -35.892 -12.175  1.00 94.73 LIG 0.16  HD
ATOM     32 22HD ASN B  18      -4.916 -34.762 -12.833  1.00 94.73 LIG 0.16  HD
ENDBRANCH 27 28
ENDBRANCH 26 27
BRANCH 26 33
ATOM     33  C   ASN B  18      -3.452 -35.435 -15.855  1.00 72.97 LIG 0.22  C 
ATOM     34 O    ASN B  18      -3.603 -35.924 -16.984  1.00 74.17 LIG-0.29  OA
ENDBRANCH 26 33
ENDBRANCH 23 26
ENDBRANCH 21 22
BRANCH 21 35
ATOM     35  CB  TYR B  17      -6.115 -30.611 -18.006  1.00 54.83 LIG 0.07  C 
BRANCH 35 36
ATOM     36  CG  TYR B  17      -6.921 -31.322 -19.025  1.00 56.96 LIG-0.06  A 
ATOM     37  CD2 TYR B  17      -6.614 -32.646 -19.364  1.00 61.26 LIG 0.01  A 
ATOM     38  CE2 TYR B  17      -7.341 -33.321 -20.317  1.00 70.21 LIG 0.04  A 
ATOM     39  CZ  TYR B  17      -8.379 -32.660 -20.951  1.00 76.40 LIG 0.07  A 
ATOM     40  CE1 TYR B  17      -8.697 -31.344 -20.637  1.00 67.10 LIG 0.04  A 
ATOM     41  CD1 TYR B  17      -7.955 -30.684 -19.675  1.00 57.92 LIG 0.01  A 
BRANCH 39 42
ATOM     42 OH   TYR B  17      -9.096 -33.326 -21.902  1.00 89.25 LIG-0.36  OA
ATOM     43 HH   TYR B  17      -8.698 -34.037 -22.106  1.00 89.25 LIG 0.22  HD
ENDBRANCH 39 42
ENDBRANCH 35 36
ENDBRANCH 21 35
ENDBRANCH 19 21
ENDBRANCH 12 17
ENDBRANCH 9 12
ENDBRANCH 4 8
BRANCH 1 44
ATOM     44  CA  ARG B  14     -10.272 -28.140  -8.382  1.00 32.45 LIG 0.18  C 
BRANCH 44 45
ATOM     45  N   ARG B  14     -10.200 -29.282  -7.499  1.00 38.19 LIG-0.35  N 
ATOM     46 H    ARG B  14      -9.476 -29.315  -7.035  1.00 38.19 LIG 0.16  HD
ATOM     47  C   PRO B  13     -11.167 -30.199  -7.411  1.00 38.91 LIG 0.24  C 
ATOM     48 O    PRO B  13     -12.198 -30.147  -8.051  1.00 32.88 LIG-0.27  OA
BRANCH 47 49
ATOM     49  CA  PRO B  13     -10.936 -31.340  -6.399  1.00 38.31 LIG 0.18  C 
ATOM     50  N   PRO B  13     -12.096 -32.179  -6.183  1.00 38.88 LIG-0.34  N 
ATOM     51  CD  PRO B  13     -11.761 -33.605  -6.311  1.00 43.50 LIG 0.13  C 
ATOM     52  C   PRO B  12     -13.319 -31.719  -5.876  1.00 40.77 LIG 0.26  C 
ATOM     53  CG  PRO B  13     -10.271 -33.618  -6.295  1.00 43.53 LIG 0.02  C 
ATOM     54  CB  PRO B  13      -9.882 -32.322  -6.910  1.00 39.91 LIG 0.04  C 
ATOM     55 O    PRO B  12     -13.572 -30.521  -5.679  1.00 44.45 LIG-0.27  OA
BRANCH 52 56
ATOM     56  CA  PRO B  12     -14.429 -32.735  -5.770  1.00 38.46 LIG 0.35  C 
ATOM     57  CB  PRO B  12     -15.772 -32.021  -5.933  1.00 43.42 LIG 0.05  C 
ATOM     58  CG  PRO B  12     -16.664 -32.657  -4.948  1.00 41.12 LIG 0.04  C 
ATOM     59  CD  PRO B  12     -15.782 -33.023  -3.790  1.00 39.74 LIG 0.32  C 
ATOM     60  N   PRO B  12     -14.479 -33.244  -4.421  1.00 38.12 LIG 0.32  N 
ENDBRANCH 52 56
ENDBRANCH 47 49
ENDBRANCH 44 45
BRANCH 44 61
ATOM     61  CB  ARG B  14      -9.169 -27.155  -7.980  1.00 34.42 LIG 0.04  C 
BRANCH 61 62
ATOM     62  CG  ARG B  14      -9.511 -26.257  -6.791  1.00 32.66 LIG 0.02  C 
BRANCH 62 63
ATOM     63  CD  ARG B  14     -10.993 -25.942  -6.814  1.00 35.24 LIG 0.14  C 
BRANCH 63 64
ATOM     64  NE  ARG B  14     -11.372 -24.897  -5.846  1.00 42.22 LIG-0.23  N 
ATOM     65  CZ  ARG B  14     -12.214 -25.044  -4.821  1.00 44.72 LIG 0.67  C 
ATOM     66  NH2 ARG B  14     -12.824 -26.190  -4.584  1.00 43.48 LIG-0.23  N 
ATOM     67  NH1 ARG B  14     -12.459 -24.018  -4.027  1.00 46.51 LIG-0.23  N 
ATOM     68 1HH2 ARG B  14     -12.683 -26.866  -5.098  1.00 43.48 LIG 0.17  HD
ATOM     69 2HH2 ARG B  14     -13.362 -26.260  -3.917  1.00 43.48 LIG 0.17  HD
ATOM     70 2HH1 ARG B  14     -13.001 -24.107  -3.364  1.00 46.51 LIG 0.17  HD
ATOM     71 1HH1 ARG B  14     -12.078 -23.262  -4.171  1.00 46.51 LIG 0.17  HD
ATOM     72 HE   ARG B  14     -11.018 -24.120  -5.953  1.00 42.22 LIG 0.18  HD
ENDBRANCH 63 64
ENDBRANCH 62 63
ENDBRANCH 61 62
ENDBRANCH 44 61
ENDBRANCH 1 44
TORSDOF 22
ENDMDL
MODEL 6
USER: ADFR SOLUTION from run 108
USER: SCORE 22.901879 LL:  -4.487 LR: -19.737 RR:   0.000 FEB: -13.174
USER: RMSD 1.899061
USER: SEED 107
USER: STATUS no improvement in best in 20 clusters for 5 generations
USER: GENES 24
USER: genes 0 Translation |==|  0.47805 0.50021 0.58888
USER: genes 1 Rotation |==|  0.51632 0.51680 0.47085 0.99860
USER: genes 2 Torsion [N]-CA--C-[O] |==|  0.93896
USER: genes 3 Torsion [C]-N--CA-[CB] |==|  0.29444
USER: genes 4 Torsion [N]-CA--CB-[CG2] |==|  0.01682
USER: genes 5 Torsion [CA]-CB--CG1-[CD1] |==|  0.70074
USER: genes 6 Torsion [N]-CA--C-[N] |==|  0.34802
USER: genes 7 Torsion [C]-N--CA-[C] |==|  0.84334
USER: genes 8 Torsion [N]-CA--C-[N] |==|  0.36429
USER: genes 9 Torsion [C]-N--CA-[CB] |==|  0.45929
USER: genes 10 Torsion [N]-CA--CB-[CG] |==|  0.61555
USER: genes 11 Torsion [CA]-CB--CG-[ND2] |==|  0.40176
USER: genes 12 Torsion [N]-CA--C-[O] |==|  0.74018
USER: genes 13 Torsion [N]-CA--CB-[CG] |==|  0.53041
USER: genes 14 Torsion [CA]-CB--CG-[CD2] |==|  0.54161
USER: genes 15 Torsion [CE2]-CZ--OH-[HH] |==|  0.89374
USER: genes 16 Torsion [N]-C--CA-[N] |==|  0.43239
USER: genes 17 Torsion [C]-CA--N-[C] |==|  0.79651
USER: genes 18 Torsion [N]-C--CA-[N] |==|  0.46536
USER: genes 19 Torsion [N]-C--CA-[CB] |==|  0.56919
USER: genes 20 Torsion [C]-CA--CB-[CG] |==|  0.41778
USER: genes 21 Torsion [CA]-CB--CG-[CD] |==|  0.97202
USER: genes 22 Torsion [CB]-CG--CD-[NE] |==|  0.50701
USER: genes 23 Torsion [CG]-CD--NE-[CZ] |==|  0.64757
ROOT
ATOM      1  C   ARG B  14      -9.943 -28.642  -9.467  1.00 32.92 LIG 0.24  C 
ATOM      2 O    ARG B  14      -9.289 -29.680  -9.584  1.00 37.82 LIG-0.27  OA
ATOM      3  N   PRO B  15     -10.384 -27.935 -10.510  1.00 31.88 LIG-0.34  N 
ATOM      4  CA  PRO B  15     -10.132 -28.404 -11.876  1.00 30.79 LIG 0.18  C 
ATOM      5  CB  PRO B  15     -10.853 -27.380 -12.728  1.00 31.22 LIG 0.04  C 
ATOM      6  CG  PRO B  15     -11.976 -26.934 -11.847  1.00 29.82 LIG 0.02  C 
ATOM      7  CD  PRO B  15     -11.349 -26.822 -10.495  1.00 31.43 LIG 0.13  C 
ENDROOT
BRANCH 4 8
ATOM      8  C   PRO B  15      -8.654 -28.355 -12.167  1.00 33.68 LIG 0.24  C 
ATOM      9  N   ILE B  16      -8.214 -29.179 -13.099  1.00 35.41 LIG-0.35  N 
ATOM     10 H    ILE B  16      -8.700 -29.770 -13.493  1.00 35.41 LIG 0.16  HD
ATOM     11 O    PRO B  15      -7.920 -27.622 -11.521  1.00 34.05 LIG-0.27  OA
BRANCH 9 12
ATOM     12  CA  ILE B  16      -6.876 -29.140 -13.522  1.00 37.77 LIG 0.18  C 
BRANCH 12 13
ATOM     13  CB  ILE B  16      -6.084 -30.322 -12.985  1.00 42.27 LIG 0.01  C 
ATOM     14  CG2 ILE B  16      -7.005 -31.272 -12.273  1.00 44.80 LIG 0.01  C 
BRANCH 13 15
ATOM     15  CG1 ILE B  16      -5.349 -30.990 -14.159  1.00 47.53 LIG 0.00  C 
ATOM     16  CD1 ILE B  16      -5.897 -32.341 -14.605  1.00 51.74 LIG 0.01  C 
ENDBRANCH 13 15
ENDBRANCH 12 13
BRANCH 12 17
ATOM     17  C   ILE B  16      -6.936 -29.098 -15.015  1.00 42.33 LIG 0.24  C 
ATOM     18 O    ILE B  16      -7.574 -29.904 -15.634  1.00 39.29 LIG-0.27  OA
ATOM     19  N   TYR B  17      -6.288 -28.092 -15.572  1.00 46.96 LIG-0.35  N 
ATOM     20 H    TYR B  17      -5.747 -27.585 -15.137  1.00 46.96 LIG 0.16  HD
BRANCH 19 21
ATOM     21  CA  TYR B  17      -6.415 -27.739 -16.958  1.00 51.19 LIG 0.18  C 
BRANCH 21 22
ATOM     22  C   TYR B  17      -6.079 -28.910 -17.811  1.00 56.10 LIG 0.24  C 
ATOM     23  N   ASN B  18      -6.920 -29.222 -18.777  1.00 65.39 LIG-0.35  N 
ATOM     24 H    ASN B  18      -7.562 -28.714 -19.040  1.00 65.39 LIG 0.16  HD
ATOM     25 O    TYR B  17      -5.022 -29.489 -17.641  1.00 61.36 LIG-0.27  OA
BRANCH 23 26
ATOM     26  CA  ASN B  18      -6.817 -30.501 -19.498  1.00 70.74 LIG 0.17  C 
BRANCH 26 27
ATOM     27  CB  ASN B  18      -8.114 -30.741 -20.285  1.00 84.74 LIG 0.14  C 
BRANCH 27 28
ATOM     28  CG  ASN B  18      -8.590 -32.197 -20.206  1.00 96.34 LIG 0.22  C 
ATOM     29 OD1  ASN B  18      -7.778 -33.135 -20.192  1.00 99.44 LIG-0.27  OA
ATOM     30  ND2 ASN B  18      -9.914 -32.394 -20.173  1.00 94.73 LIG-0.37  N 
ATOM     31 21HD ASN B  18     -10.229 -33.194 -20.140  1.00 94.73 LIG 0.16  HD
ATOM     32 22HD ASN B  18     -10.450 -31.722 -20.184  1.00 94.73 LIG 0.16  HD
ENDBRANCH 27 28
ENDBRANCH 26 27
BRANCH 26 33
ATOM     33  C   ASN B  18      -5.563 -30.746 -20.372  1.00 72.97 LIG 0.22  C 
ATOM     34 O    ASN B  18      -5.531 -30.488 -21.584  1.00 74.17 LIG-0.29  OA
ENDBRANCH 26 33
ENDBRANCH 23 26
ENDBRANCH 21 22
BRANCH 21 35
ATOM     35  CB  TYR B  17      -5.393 -26.658 -17.264  1.00 54.83 LIG 0.07  C 
BRANCH 35 36
ATOM     36  CG  TYR B  17      -5.629 -26.054 -18.595  1.00 56.96 LIG-0.06  A 
ATOM     37  CD2 TYR B  17      -4.635 -25.274 -19.198  1.00 61.26 LIG 0.01  A 
ATOM     38  CE2 TYR B  17      -4.838 -24.693 -20.429  1.00 70.21 LIG 0.04  A 
ATOM     39  CZ  TYR B  17      -6.056 -24.882 -21.059  1.00 76.40 LIG 0.07  A 
ATOM     40  CE1 TYR B  17      -7.061 -25.646 -20.475  1.00 67.10 LIG 0.04  A 
ATOM     41  CD1 TYR B  17      -6.836 -26.222 -19.239  1.00 57.92 LIG 0.01  A 
BRANCH 39 42
ATOM     42 OH   TYR B  17      -6.263 -24.301 -22.275  1.00 89.25 LIG-0.36  OA
ATOM     43 HH   TYR B  17      -5.909 -23.540 -22.286  1.00 89.25 LIG 0.22  HD
ENDBRANCH 39 42
ENDBRANCH 35 36
ENDBRANCH 21 35
ENDBRANCH 19 21
ENDBRANCH 12 17
ENDBRANCH 9 12
ENDBRANCH 4 8
BRANCH 1 44
ATOM     44  CA  ARG B  14     -10.226 -28.109  -8.094  1.00 32.45 LIG 0.18  C 
BRANCH 44 45
ATOM     45  N   ARG B  14     -10.183 -29.291  -7.264  1.00 38.19 LIG-0.35  N 
ATOM     46 H    ARG B  14      -9.480 -29.342  -6.771  1.00 38.19 LIG 0.16  HD
ATOM     47  C   PRO B  13     -11.145 -30.219  -7.262  1.00 38.91 LIG 0.24  C 
ATOM     48 O    PRO B  13     -12.147 -30.142  -7.944  1.00 32.88 LIG-0.27  OA
BRANCH 47 49
ATOM     49  CA  PRO B  13     -10.948 -31.405  -6.297  1.00 38.31 LIG 0.18  C 
ATOM     50  N   PRO B  13     -12.130 -32.223  -6.121  1.00 38.88 LIG-0.34  N 
ATOM     51  CD  PRO B  13     -11.830 -33.650  -6.306  1.00 43.50 LIG 0.13  C 
ATOM     52  C   PRO B  12     -13.344 -31.745  -5.802  1.00 40.77 LIG 0.26  C 
ATOM     53  CG  PRO B  13     -10.341 -33.701  -6.283  1.00 43.53 LIG 0.02  C 
ATOM     54  CB  PRO B  13      -9.916 -32.391  -6.843  1.00 39.91 LIG 0.04  C 
ATOM     55 O    PRO B  12     -13.568 -30.550  -5.557  1.00 44.45 LIG-0.27  OA
BRANCH 52 56
ATOM     56  CA  PRO B  12     -14.478 -32.737  -5.744  1.00 38.46 LIG 0.35  C 
ATOM     57  CB  PRO B  12     -15.795 -31.998  -5.990  1.00 43.42 LIG 0.05  C 
ATOM     58  CG  PRO B  12     -16.753 -32.602  -5.047  1.00 41.12 LIG 0.04  C 
ATOM     59  CD  PRO B  12     -15.944 -32.968  -3.837  1.00 39.74 LIG 0.32  C 
ATOM     60  N   PRO B  12     -14.613 -33.225  -4.392  1.00 38.12 LIG 0.32  N 
ENDBRANCH 52 56
ENDBRANCH 47 49
ENDBRANCH 44 45
BRANCH 44 61
ATOM     61  CB  ARG B  14      -9.077 -27.187  -7.672  1.00 34.42 LIG 0.04  C 
BRANCH 61 62
ATOM     62  CG  ARG B  14      -9.474 -26.061  -6.717  1.00 32.66 LIG 0.02  C 
BRANCH 62 63
ATOM     63  CD  ARG B  14     -10.984 -25.997  -6.621  1.00 35.24 LIG 0.14  C 
BRANCH 63 64
ATOM     64  NE  ARG B  14     -11.458 -24.896  -5.763  1.00 42.22 LIG-0.23  N 
ATOM     65  CZ  ARG B  14     -12.303 -25.009  -4.735  1.00 44.72 LIG 0.67  C 
ATOM     66  NH2 ARG B  14     -12.827 -26.171  -4.394  1.00 43.48 LIG-0.23  N 
ATOM     67  NH1 ARG B  14     -12.640 -23.934  -4.047  1.00 46.51 LIG-0.23  N 
ATOM     68 1HH2 ARG B  14     -12.626 -26.880  -4.837  1.00 43.48 LIG 0.17  HD
ATOM     69 2HH2 ARG B  14     -13.368 -26.219  -3.727  1.00 43.48 LIG 0.17  HD
ATOM     70 2HH1 ARG B  14     -13.183 -24.000  -3.384  1.00 46.51 LIG 0.17  HD
ATOM     71 1HH1 ARG B  14     -12.316 -23.167  -4.262  1.00 46.51 LIG 0.17  HD
ATOM     72 HE   ARG B  14     -11.164 -24.107  -5.942  1.00 42.22 LIG 0.18  HD
ENDBRANCH 63 64
ENDBRANCH 62 63
ENDBRANCH 61 62
ENDBRANCH 44 61
ENDBRANCH 1 44
TORSDOF 22
ENDMDL
MODEL 7
USER: ADFR SOLUTION from run 87
USER: SCORE 24.077068 LL:  -4.675 LR: -19.721 RR:   0.000 FEB: -13.159
USER: RMSD 5.178968
USER: SEED 86
USER: STATUS no improvement in best in 14 clusters for 5 generations
USER: GENES 24
USER: genes 0 Translation |==|  0.47940 0.49669 0.57660
USER: genes 1 Rotation |==|  0.49789 0.53014 0.49585 0.99907
USER: genes 2 Torsion [N]-CA--C-[O] |==|  0.94514
USER: genes 3 Torsion [C]-N--CA-[CB] |==|  0.86111
USER: genes 4 Torsion [N]-CA--CB-[CG2] |==|  0.32888
USER: genes 5 Torsion [CA]-CB--CG1-[CD1] |==|  0.97539
USER: genes 6 Torsion [N]-CA--C-[N] |==|  0.39773
USER: genes 7 Torsion [C]-N--CA-[C] |==|  0.55571
USER: genes 8 Torsion [N]-CA--C-[N] |==|  0.45397
USER: genes 9 Torsion [C]-N--CA-[CB] |==|  0.73700
USER: genes 10 Torsion [N]-CA--CB-[CG] |==|  0.84866
USER: genes 11 Torsion [CA]-CB--CG-[ND2] |==|  0.89013
USER: genes 12 Torsion [N]-CA--C-[O] |==|  0.03384
USER: genes 13 Torsion [N]-CA--CB-[CG] |==|  0.22822
USER: genes 14 Torsion [CA]-CB--CG-[CD2] |==|  0.31237
USER: genes 15 Torsion [CE2]-CZ--OH-[HH] |==|  0.01237
USER: genes 16 Torsion [N]-C--CA-[N] |==|  0.41972
USER: genes 17 Torsion [C]-CA--N-[C] |==|  0.78640
USER: genes 18 Torsion [N]-C--CA-[N] |==|  0.45069
USER: genes 19 Torsion [N]-C--CA-[CB] |==|  0.68371
USER: genes 20 Torsion [C]-CA--CB-[CG] |==|  0.44325
USER: genes 21 Torsion [CA]-CB--CG-[CD] |==|  0.93199
USER: genes 22 Torsion [CB]-CG--CD-[NE] |==|  0.50183
USER: genes 23 Torsion [CG]-CD--NE-[CZ] |==|  0.66496
ROOT
ATOM      1  C   ARG B  14      -9.912 -28.708  -9.807  1.00 32.92 LIG 0.24  C 
ATOM      2 O    ARG B  14      -9.159 -29.679  -9.895  1.00 37.82 LIG-0.27  OA
ATOM      3  N   PRO B  15     -10.478 -28.124 -10.867  1.00 31.88 LIG-0.34  N 
ATOM      4  CA  PRO B  15     -10.247 -28.659 -12.212  1.00 30.79 LIG 0.18  C 
ATOM      5  CB  PRO B  15     -11.115 -27.776 -13.085  1.00 31.22 LIG 0.04  C 
ATOM      6  CG  PRO B  15     -12.232 -27.387 -12.171  1.00 29.82 LIG 0.02  C 
ATOM      7  CD  PRO B  15     -11.553 -27.117 -10.867  1.00 31.43 LIG 0.13  C 
ENDROOT
BRANCH 4 8
ATOM      8  C   PRO B  15      -8.799 -28.480 -12.590  1.00 33.68 LIG 0.24  C 
ATOM      9  N   ILE B  16      -8.335 -29.288 -13.524  1.00 35.41 LIG-0.35  N 
ATOM     10 H    ILE B  16      -8.783 -29.935 -13.873  1.00 35.41 LIG 0.16  HD
ATOM     11 O    PRO B  15      -8.104 -27.661 -12.009  1.00 34.05 LIG-0.27  OA
BRANCH 9 12
ATOM     12  CA  ILE B  16      -7.032 -29.137 -14.026  1.00 37.77 LIG 0.18  C 
BRANCH 12 13
ATOM     13  CB  ILE B  16      -6.754 -27.699 -14.435  1.00 42.27 LIG 0.01  C 
ATOM     14  CG2 ILE B  16      -5.626 -27.143 -13.614  1.00 44.80 LIG 0.01  C 
BRANCH 13 15
ATOM     15  CG1 ILE B  16      -6.447 -27.673 -15.943  1.00 47.53 LIG 0.00  C 
ATOM     16  CD1 ILE B  16      -6.281 -29.034 -16.611  1.00 51.74 LIG 0.01  C 
ENDBRANCH 13 15
ENDBRANCH 12 13
BRANCH 12 17
ATOM     17  C   ILE B  16      -6.132 -29.627 -12.938  1.00 42.33 LIG 0.24  C 
ATOM     18 O    ILE B  16      -6.411 -29.468 -11.782  1.00 39.29 LIG-0.27  OA
ATOM     19  N   TYR B  17      -5.061 -30.279 -13.351  1.00 46.96 LIG-0.35  N 
ATOM     20 H    TYR B  17      -4.811 -30.295 -14.174  1.00 46.96 LIG 0.16  HD
BRANCH 19 21
ATOM     21  CA  TYR B  17      -4.203 -31.026 -12.476  1.00 51.19 LIG 0.18  C 
BRANCH 21 22
ATOM     22  C   TYR B  17      -2.876 -31.224 -13.116  1.00 56.10 LIG 0.24  C 
ATOM     23  N   ASN B  18      -1.873 -31.587 -12.341  1.00 65.39 LIG-0.35  N 
ATOM     24 H    ASN B  18      -1.964 -31.859 -11.531  1.00 65.39 LIG 0.16  HD
ATOM     25 O    TYR B  17      -2.773 -31.118 -14.325  1.00 61.36 LIG-0.27  OA
BRANCH 23 26
ATOM     26  CA  ASN B  18      -0.482 -31.551 -12.822  1.00 70.74 LIG 0.17  C 
BRANCH 26 27
ATOM     27  CB  ASN B  18      -0.098 -32.940 -13.353  1.00 84.74 LIG 0.14  C 
BRANCH 27 28
ATOM     28  CG  ASN B  18      -0.332 -34.051 -12.320  1.00 96.34 LIG 0.22  C 
ATOM     29 OD1  ASN B  18      -0.801 -35.148 -12.658  1.00 99.44 LIG-0.27  OA
ATOM     30  ND2 ASN B  18      -0.022 -33.763 -11.050  1.00 94.73 LIG-0.37  N 
ATOM     31 21HD ASN B  18      -0.147 -34.349 -10.434  1.00 94.73 LIG 0.16  HD
ATOM     32 22HD ASN B  18       0.301 -32.991 -10.850  1.00 94.73 LIG 0.16  HD
ENDBRANCH 27 28
ENDBRANCH 26 27
BRANCH 26 33
ATOM     33  C   ASN B  18      -0.082 -30.429 -13.811  1.00 72.97 LIG 0.22  C 
ATOM     34 O    ASN B  18      -0.805 -29.449 -14.039  1.00 74.17 LIG-0.29  OA
ENDBRANCH 26 33
ENDBRANCH 23 26
ENDBRANCH 21 22
BRANCH 21 35
ATOM     35  CB  TYR B  17      -4.814 -32.404 -12.282  1.00 54.83 LIG 0.07  C 
BRANCH 35 36
ATOM     36  CG  TYR B  17      -4.474 -33.307 -13.406  1.00 56.96 LIG-0.06  A 
ATOM     37  CD2 TYR B  17      -3.633 -34.406 -13.194  1.00 61.26 LIG 0.01  A 
ATOM     38  CE2 TYR B  17      -3.294 -35.250 -14.226  1.00 70.21 LIG 0.04  A 
ATOM     39  CZ  TYR B  17      -3.789 -34.983 -15.491  1.00 76.40 LIG 0.07  A 
ATOM     40  CE1 TYR B  17      -4.618 -33.893 -15.727  1.00 67.10 LIG 0.04  A 
ATOM     41  CD1 TYR B  17      -4.949 -33.058 -14.676  1.00 57.92 LIG 0.01  A 
BRANCH 39 42
ATOM     42 OH   TYR B  17      -3.448 -35.814 -16.517  1.00 89.25 LIG-0.36  OA
ATOM     43 HH   TYR B  17      -2.997 -36.457 -16.220  1.00 89.25 LIG 0.22  HD
ENDBRANCH 39 42
ENDBRANCH 35 36
ENDBRANCH 21 35
ENDBRANCH 19 21
ENDBRANCH 12 17
ENDBRANCH 9 12
ENDBRANCH 4 8
BRANCH 1 44
ATOM     44  CA  ARG B  14     -10.181 -28.112  -8.458  1.00 32.45 LIG 0.18  C 
BRANCH 44 45
ATOM     45  N   ARG B  14     -10.080 -29.247  -7.568  1.00 38.19 LIG-0.35  N 
ATOM     46 H    ARG B  14      -9.342 -29.276  -7.128  1.00 38.19 LIG 0.16  HD
ATOM     47  C   PRO B  13     -11.043 -30.165  -7.443  1.00 38.91 LIG 0.24  C 
ATOM     48 O    PRO B  13     -12.093 -30.118  -8.050  1.00 32.88 LIG-0.27  OA
BRANCH 47 49
ATOM     49  CA  PRO B  13     -10.778 -31.298  -6.430  1.00 38.31 LIG 0.18  C 
ATOM     50  N   PRO B  13     -11.968 -32.018  -6.029  1.00 38.88 LIG-0.34  N 
ATOM     51  CD  PRO B  13     -11.785 -33.471  -6.149  1.00 43.50 LIG 0.13  C 
ATOM     52  C   PRO B  12     -13.092 -31.437  -5.577  1.00 40.77 LIG 0.26  C 
ATOM     53  CG  PRO B  13     -10.314 -33.625  -6.334  1.00 43.53 LIG 0.02  C 
ATOM     54  CB  PRO B  13      -9.898 -32.387  -7.043  1.00 39.91 LIG 0.04  C 
ATOM     55 O    PRO B  12     -13.206 -30.216  -5.392  1.00 44.45 LIG-0.27  OA
BRANCH 52 56
ATOM     56  CA  PRO B  12     -14.263 -32.341  -5.286  1.00 38.46 LIG 0.35  C 
ATOM     57  CB  PRO B  12     -15.390 -32.025  -6.271  1.00 43.42 LIG 0.05  C 
ATOM     58  CG  PRO B  12     -16.625 -32.091  -5.472  1.00 41.12 LIG 0.04  C 
ATOM     59  CD  PRO B  12     -16.240 -31.614  -4.102  1.00 39.74 LIG 0.32  C 
ATOM     60  N   PRO B  12     -14.827 -31.988  -4.005  1.00 38.12 LIG 0.32  N 
ENDBRANCH 52 56
ENDBRANCH 47 49
ENDBRANCH 44 45
BRANCH 44 61
ATOM     61  CB  ARG B  14      -9.053 -27.134  -8.113  1.00 34.42 LIG 0.04  C 
BRANCH 61 62
ATOM     62  CG  ARG B  14      -9.402 -26.102  -7.041  1.00 32.66 LIG 0.02  C 
BRANCH 62 63
ATOM     63  CD  ARG B  14     -10.903 -25.902  -7.009  1.00 35.24 LIG 0.14  C 
BRANCH 63 64
ATOM     64  NE  ARG B  14     -11.329 -24.908  -6.009  1.00 42.22 LIG-0.23  N 
ATOM     65  CZ  ARG B  14     -12.156 -25.128  -4.985  1.00 44.72 LIG 0.67  C 
ATOM     66  NH2 ARG B  14     -12.707 -26.310  -4.781  1.00 43.48 LIG-0.23  N 
ATOM     67  NH1 ARG B  14     -12.449 -24.141  -4.159  1.00 46.51 LIG-0.23  N 
ATOM     68 1HH2 ARG B  14     -12.535 -26.962  -5.315  1.00 43.48 LIG 0.17  HD
ATOM     69 2HH2 ARG B  14     -13.237 -26.428  -4.114  1.00 43.48 LIG 0.17  HD
ATOM     70 2HH1 ARG B  14     -12.982 -24.277  -3.497  1.00 46.51 LIG 0.17  HD
ATOM     71 1HH1 ARG B  14     -12.107 -23.362  -4.282  1.00 46.51 LIG 0.17  HD
ATOM     72 HE   ARG B  14     -11.015 -24.111  -6.093  1.00 42.22 LIG 0.18  HD
ENDBRANCH 63 64
ENDBRANCH 62 63
ENDBRANCH 61 62
ENDBRANCH 44 61
ENDBRANCH 1 44
TORSDOF 22
ENDMDL
MODEL 8
USER: ADFR SOLUTION from run 15
USER: SCORE 23.265097 LL:  -4.693 LR: -19.695 RR:   0.000 FEB: -13.132
USER: RMSD 5.230615
USER: SEED 939053
USER: STATUS no improvement in best in 10 clusters for 5 generations
USER: GENES 24
USER: genes 0 Translation |==|  0.48220 0.49167 0.56148
USER: genes 1 Rotation |==|  0.46883 0.55466 0.55824 0.99259
USER: genes 2 Torsion [N]-CA--C-[O] |==|  0.85061
USER: genes 3 Torsion [C]-N--CA-[CB] |==|  0.86596
USER: genes 4 Torsion [N]-CA--CB-[CG2] |==|  0.34242
USER: genes 5 Torsion [CA]-CB--CG1-[CD1] |==|  0.58474
USER: genes 6 Torsion [N]-CA--C-[N] |==|  0.46326
USER: genes 7 Torsion [C]-N--CA-[C] |==|  0.59151
USER: genes 8 Torsion [N]-CA--C-[N] |==|  0.38529
USER: genes 9 Torsion [C]-N--CA-[CB] |==|  0.35964
USER: genes 10 Torsion [N]-CA--CB-[CG] |==|  0.39281
USER: genes 11 Torsion [CA]-CB--CG-[ND2] |==|  0.32308
USER: genes 12 Torsion [N]-CA--C-[O] |==|  0.11507
USER: genes 13 Torsion [N]-CA--CB-[CG] |==|  0.01931
USER: genes 14 Torsion [CA]-CB--CG-[CD2] |==|  0.20760
USER: genes 15 Torsion [CE2]-CZ--OH-[HH] |==|  0.62838
USER: genes 16 Torsion [N]-C--CA-[N] |==|  0.38106
USER: genes 17 Torsion [C]-CA--N-[C] |==|  0.76695
USER: genes 18 Torsion [N]-C--CA-[N] |==|  0.47920
USER: genes 19 Torsion [N]-C--CA-[CB] |==|  0.63821
USER: genes 20 Torsion [C]-CA--CB-[CG] |==|  0.46962
USER: genes 21 Torsion [CA]-CB--CG-[CD] |==|  0.89694
USER: genes 22 Torsion [CB]-CG--CD-[NE] |==|  0.49211
USER: genes 23 Torsion [CG]-CD--NE-[CZ] |==|  0.69424
ROOT
ATOM      1  C   ARG B  14      -9.849 -28.802 -10.227  1.00 32.92 LIG 0.24  C 
ATOM      2 O    ARG B  14      -8.882 -29.560 -10.316  1.00 37.82 LIG-0.27  OA
ATOM      3  N   PRO B  15     -10.637 -28.499 -11.263  1.00 31.88 LIG-0.34  N 
ATOM      4  CA  PRO B  15     -10.395 -29.108 -12.573  1.00 30.79 LIG 0.18  C 
ATOM      5  CB  PRO B  15     -11.533 -28.571 -13.416  1.00 31.22 LIG 0.04  C 
ATOM      6  CG  PRO B  15     -12.629 -28.370 -12.418  1.00 29.82 LIG 0.02  C 
ATOM      7  CD  PRO B  15     -11.931 -27.797 -11.228  1.00 31.43 LIG 0.13  C 
ENDROOT
BRANCH 4 8
ATOM      8  C   PRO B  15      -9.081 -28.619 -13.127  1.00 33.68 LIG 0.24  C 
ATOM      9  N   ILE B  16      -8.196 -29.547 -13.438  1.00 35.41 LIG-0.35  N 
ATOM     10 H    ILE B  16      -8.301 -30.388 -13.286  1.00 35.41 LIG 0.16  HD
ATOM     11 O    PRO B  15      -8.855 -27.422 -13.221  1.00 34.05 LIG-0.27  OA
BRANCH 9 12
ATOM     12  CA  ILE B  16      -6.983 -29.208 -14.059  1.00 37.77 LIG 0.18  C 
BRANCH 12 13
ATOM     13  CB  ILE B  16      -7.201 -28.280 -15.243  1.00 42.27 LIG 0.01  C 
ATOM     14  CG2 ILE B  16      -6.407 -27.019 -15.057  1.00 44.80 LIG 0.01  C 
BRANCH 13 15
ATOM     15  CG1 ILE B  16      -6.813 -29.032 -16.529  1.00 47.53 LIG 0.00  C 
ATOM     16  CD1 ILE B  16      -6.270 -28.171 -17.664  1.00 51.74 LIG 0.01  C 
ENDBRANCH 13 15
ENDBRANCH 12 13
BRANCH 12 17
ATOM     17  C   ILE B  16      -6.144 -28.603 -12.980  1.00 42.33 LIG 0.24  C 
ATOM     18 O    ILE B  16      -6.613 -28.321 -11.912  1.00 39.29 LIG-0.27  OA
ATOM     19  N   TYR B  17      -4.867 -28.462 -13.280  1.00 46.96 LIG-0.35  N 
ATOM     20 H    TYR B  17      -4.558 -28.563 -14.076  1.00 46.96 LIG 0.16  HD
BRANCH 19 21
ATOM     21  CA  TYR B  17      -3.859 -28.126 -12.313  1.00 51.19 LIG 0.18  C 
BRANCH 21 22
ATOM     22  C   TYR B  17      -2.801 -27.300 -12.952  1.00 56.10 LIG 0.24  C 
ATOM     23  N   ASN B  18      -2.328 -26.278 -12.265  1.00 65.39 LIG-0.35  N 
ATOM     24 H    ASN B  18      -2.478 -26.149 -11.429  1.00 65.39 LIG 0.16  HD
ATOM     25 O    TYR B  17      -2.360 -27.628 -14.038  1.00 61.36 LIG-0.27  OA
BRANCH 23 26
ATOM     26  CA  ASN B  18      -1.482 -25.255 -12.902  1.00 70.74 LIG 0.17  C 
BRANCH 26 27
ATOM     27  CB  ASN B  18      -2.041 -23.863 -12.571  1.00 84.74 LIG 0.14  C 
BRANCH 27 28
ATOM     28  CG  ASN B  18      -0.936 -22.832 -12.309  1.00 96.34 LIG 0.22  C 
ATOM     29 OD1  ASN B  18      -0.170 -22.949 -11.341  1.00 99.44 LIG-0.27  OA
ATOM     30  ND2 ASN B  18      -0.861 -21.803 -13.164  1.00 94.73 LIG-0.37  N 
ATOM     31 21HD ASN B  18      -0.266 -21.194 -13.051  1.00 94.73 LIG 0.16  HD
ATOM     32 22HD ASN B  18      -1.409 -21.753 -13.825  1.00 94.73 LIG 0.16  HD
ENDBRANCH 27 28
ENDBRANCH 26 27
BRANCH 26 33
ATOM     33  C   ASN B  18       0.047 -25.328 -12.670  1.00 72.97 LIG 0.22  C 
ATOM     34 O    ASN B  18       0.676 -26.396 -12.683  1.00 74.17 LIG-0.29  OA
ENDBRANCH 26 33
ENDBRANCH 23 26
ENDBRANCH 21 22
BRANCH 21 35
ATOM     35  CB  TYR B  17      -3.200 -29.415 -11.852  1.00 54.83 LIG 0.07  C 
BRANCH 35 36
ATOM     36  CG  TYR B  17      -3.670 -30.574 -12.646  1.00 56.96 LIG-0.06  A 
ATOM     37  CD2 TYR B  17      -3.214 -30.759 -13.956  1.00 61.26 LIG 0.01  A 
ATOM     38  CE2 TYR B  17      -3.647 -31.822 -14.715  1.00 70.21 LIG 0.04  A 
ATOM     39  CZ  TYR B  17      -4.561 -32.702 -14.163  1.00 76.40 LIG 0.07  A 
ATOM     40  CE1 TYR B  17      -5.035 -32.534 -12.867  1.00 67.10 LIG 0.04  A 
ATOM     41  CD1 TYR B  17      -4.586 -31.460 -12.120  1.00 57.92 LIG 0.01  A 
BRANCH 39 42
ATOM     42 OH   TYR B  17      -4.999 -33.752 -14.917  1.00 89.25 LIG-0.36  OA
ATOM     43 HH   TYR B  17      -5.834 -33.812 -14.855  1.00 89.25 LIG 0.22  HD
ENDBRANCH 39 42
ENDBRANCH 35 36
ENDBRANCH 21 35
ENDBRANCH 19 21
ENDBRANCH 12 17
ENDBRANCH 9 12
ENDBRANCH 4 8
BRANCH 1 44
ATOM     44  CA  ARG B  14     -10.143 -28.144  -8.912  1.00 32.45 LIG 0.18  C 
BRANCH 44 45
ATOM     45  N   ARG B  14      -9.997 -29.223  -7.961  1.00 38.19 LIG-0.35  N 
ATOM     46 H    ARG B  14      -9.222 -29.254  -7.590  1.00 38.19 LIG 0.16  HD
ATOM     47  C   PRO B  13     -10.975 -30.091  -7.686  1.00 38.91 LIG 0.24  C 
ATOM     48 O    PRO B  13     -12.076 -30.041  -8.196  1.00 32.88 LIG-0.27  OA
BRANCH 47 49
ATOM     49  CA  PRO B  13     -10.655 -31.167  -6.628  1.00 38.31 LIG 0.18  C 
ATOM     50  N   PRO B  13     -11.795 -31.971  -6.243  1.00 38.88 LIG-0.34  N 
ATOM     51  CD  PRO B  13     -11.488 -33.407  -6.308  1.00 43.50 LIG 0.13  C 
ATOM     52  C   PRO B  12     -12.978 -31.473  -5.848  1.00 40.77 LIG 0.26  C 
ATOM     53  CG  PRO B  13     -10.004 -33.443  -6.439  1.00 43.53 LIG 0.02  C 
ATOM     54  CB  PRO B  13      -9.667 -32.197  -7.174  1.00 39.91 LIG 0.04  C 
ATOM     55 O    PRO B  12     -13.199 -30.260  -5.708  1.00 44.45 LIG-0.27  OA
BRANCH 52 56
ATOM     56  CA  PRO B  12     -14.080 -32.462  -5.567  1.00 38.46 LIG 0.35  C 
ATOM     57  CB  PRO B  12     -15.344 -32.021  -6.308  1.00 43.42 LIG 0.05  C 
ATOM     58  CG  PRO B  12     -16.448 -32.281  -5.368  1.00 41.12 LIG 0.04  C 
ATOM     59  CD  PRO B  12     -15.874 -32.043  -4.002  1.00 39.74 LIG 0.32  C 
ATOM     60  N   PRO B  12     -14.456 -32.369  -4.176  1.00 38.12 LIG 0.32  N 
ENDBRANCH 52 56
ENDBRANCH 47 49
ENDBRANCH 44 45
BRANCH 44 61
ATOM     61  CB  ARG B  14      -9.056 -27.103  -8.623  1.00 34.42 LIG 0.04  C 
BRANCH 61 62
ATOM     62  CG  ARG B  14      -9.356 -26.168  -7.452  1.00 32.66 LIG 0.02  C 
BRANCH 62 63
ATOM     63  CD  ARG B  14     -10.835 -25.841  -7.440  1.00 35.24 LIG 0.14  C 
BRANCH 63 64
ATOM     64  NE  ARG B  14     -11.226 -24.994  -6.299  1.00 42.22 LIG-0.23  N 
ATOM     65  CZ  ARG B  14     -11.965 -25.376  -5.255  1.00 44.72 LIG 0.67  C 
ATOM     66  NH2 ARG B  14     -12.449 -26.599  -5.159  1.00 43.48 LIG-0.23  N 
ATOM     67  NH1 ARG B  14     -12.236 -24.509  -4.296  1.00 46.51 LIG-0.23  N 
ATOM     68 1HH2 ARG B  14     -12.291 -27.174  -5.779  1.00 43.48 LIG 0.17  HD
ATOM     69 2HH2 ARG B  14     -12.922 -26.822  -4.476  1.00 43.48 LIG 0.17  HD
ATOM     70 2HH1 ARG B  14     -12.712 -24.749  -3.621  1.00 46.51 LIG 0.17  HD
ATOM     71 1HH1 ARG B  14     -11.937 -23.705  -4.347  1.00 46.51 LIG 0.17  HD
ATOM     72 HE   ARG B  14     -10.953 -24.178  -6.307  1.00 42.22 LIG 0.18  HD
ENDBRANCH 63 64
ENDBRANCH 62 63
ENDBRANCH 61 62
ENDBRANCH 44 61
ENDBRANCH 1 44
TORSDOF 22
ENDMDL
MODEL 9
USER: ADFR SOLUTION from run 37
USER: SCORE 23.909061 LL:  -4.812 LR: -19.616 RR:   0.000 FEB: -13.053
USER: RMSD 4.403144
USER: SEED 36
USER: STATUS no improvement in best in 10 clusters for 5 generations
USER: GENES 24
USER: genes 0 Translation |==|  0.47753 0.49349 0.58315
USER: genes 1 Rotation |==|  0.52013 0.50307 0.43480 0.99531
USER: genes 2 Torsion [N]-CA--C-[O] |==|  0.97016
USER: genes 3 Torsion [C]-N--CA-[CB] |==|  0.52778
USER: genes 4 Torsion [N]-CA--CB-[CG2] |==|  0.35369
USER: genes 5 Torsion [CA]-CB--CG1-[CD1] |==|  0.99319
USER: genes 6 Torsion [N]-CA--C-[N] |==|  0.38471
USER: genes 7 Torsion [C]-N--CA-[C] |==|  0.81619
USER: genes 8 Torsion [N]-CA--C-[N] |==|  0.41456
USER: genes 9 Torsion [C]-N--CA-[CB] |==|  0.72936
USER: genes 10 Torsion [N]-CA--CB-[CG] |==|  0.72257
USER: genes 11 Torsion [CA]-CB--CG-[ND2] |==|  0.42940
USER: genes 12 Torsion [N]-CA--C-[O] |==|  0.23146
USER: genes 13 Torsion [N]-CA--CB-[CG] |==|  0.40220
USER: genes 14 Torsion [CA]-CB--CG-[CD2] |==|  0.23262
USER: genes 15 Torsion [CE2]-CZ--OH-[HH] |==|  0.17547
USER: genes 16 Torsion [N]-C--CA-[N] |==|  0.45738
USER: genes 17 Torsion [C]-CA--N-[C] |==|  0.78518
USER: genes 18 Torsion [N]-C--CA-[N] |==|  0.47476
USER: genes 19 Torsion [N]-C--CA-[CB] |==|  0.57618
USER: genes 20 Torsion [C]-CA--CB-[CG] |==|  0.44107
USER: genes 21 Torsion [CA]-CB--CG-[CD] |==|  0.94513
USER: genes 22 Torsion [CB]-CG--CD-[NE] |==|  0.51947
USER: genes 23 Torsion [CG]-CD--NE-[CZ] |==|  0.64584
ROOT
ATOM      1  C   ARG B  14      -9.955 -28.768  -9.626  1.00 32.92 LIG 0.24  C 
ATOM      2 O    ARG B  14      -9.454 -29.890  -9.722  1.00 37.82 LIG-0.27  OA
ATOM      3  N   PRO B  15     -10.234 -27.999 -10.682  1.00 31.88 LIG-0.34  N 
ATOM      4  CA  PRO B  15      -9.984 -28.496 -12.038  1.00 30.79 LIG 0.18  C 
ATOM      5  CB  PRO B  15     -10.503 -27.374 -12.914  1.00 31.22 LIG 0.04  C 
ATOM      6  CG  PRO B  15     -11.592 -26.771 -12.085  1.00 29.82 LIG 0.02  C 
ATOM      7  CD  PRO B  15     -11.025 -26.758 -10.702  1.00 31.43 LIG 0.13  C 
ENDROOT
BRANCH 4 8
ATOM      8  C   PRO B  15      -8.501 -28.663 -12.255  1.00 33.68 LIG 0.24  C 
ATOM      9  N   ILE B  16      -8.141 -29.357 -13.317  1.00 35.41 LIG-0.35  N 
ATOM     10 H    ILE B  16      -8.690 -29.762 -13.842  1.00 35.41 LIG 0.16  HD
ATOM     11 O    PRO B  15      -7.703 -28.215 -11.445  1.00 34.05 LIG-0.27  OA
BRANCH 9 12
ATOM     12  CA  ILE B  16      -6.788 -29.483 -13.671  1.00 37.77 LIG 0.18  C 
BRANCH 12 13
ATOM     13  CB  ILE B  16      -6.625 -30.110 -15.046  1.00 42.27 LIG 0.01  C 
ATOM     14  CG2 ILE B  16      -5.746 -29.243 -15.902  1.00 44.80 LIG 0.01  C 
BRANCH 13 15
ATOM     15  CG1 ILE B  16      -6.054 -31.528 -14.870  1.00 47.53 LIG 0.00  C 
ATOM     16  CD1 ILE B  16      -5.738 -31.944 -13.438  1.00 51.74 LIG 0.01  C 
ENDBRANCH 13 15
ENDBRANCH 12 13
BRANCH 12 17
ATOM     17  C   ILE B  16      -6.227 -28.100 -13.581  1.00 42.33 LIG 0.24  C 
ATOM     18 O    ILE B  16      -6.861 -27.148 -13.940  1.00 39.29 LIG-0.27  OA
ATOM     19  N   TYR B  17      -5.028 -28.019 -13.035  1.00 46.96 LIG-0.35  N 
ATOM     20 H    TYR B  17      -4.536 -28.707 -12.881  1.00 46.96 LIG 0.16  HD
BRANCH 19 21
ATOM     21  CA  TYR B  17      -4.419 -26.779 -12.645  1.00 51.19 LIG 0.18  C 
BRANCH 21 22
ATOM     22  C   TYR B  17      -4.140 -25.951 -13.848  1.00 56.10 LIG 0.24  C 
ATOM     23  N   ASN B  18      -4.181 -24.641 -13.710  1.00 65.39 LIG-0.35  N 
ATOM     24 H    ASN B  18      -4.209 -24.237 -12.951  1.00 65.39 LIG 0.16  HD
ATOM     25 O    TYR B  17      -3.816 -26.497 -14.887  1.00 61.36 LIG-0.27  OA
BRANCH 23 26
ATOM     26  CA  ASN B  18      -4.182 -23.748 -14.880  1.00 70.74 LIG 0.17  C 
BRANCH 26 27
ATOM     27  CB  ASN B  18      -2.750 -23.251 -15.134  1.00 84.74 LIG 0.14  C 
BRANCH 27 28
ATOM     28  CG  ASN B  18      -2.511 -21.838 -14.587  1.00 96.34 LIG 0.22  C 
ATOM     29 OD1  ASN B  18      -3.449 -21.036 -14.460  1.00 99.44 LIG-0.27  OA
ATOM     30  ND2 ASN B  18      -1.248 -21.521 -14.278  1.00 94.73 LIG-0.37  N 
ATOM     31 21HD ASN B  18      -1.063 -20.736 -13.979  1.00 94.73 LIG 0.16  HD
ATOM     32 22HD ASN B  18      -0.621 -22.101 -14.379  1.00 94.73 LIG 0.16  HD
ENDBRANCH 27 28
ENDBRANCH 26 27
BRANCH 26 33
ATOM     33  C   ASN B  18      -4.853 -24.252 -16.180  1.00 72.97 LIG 0.22  C 
ATOM     34 O    ASN B  18      -6.074 -24.170 -16.378  1.00 74.17 LIG-0.29  OA
ENDBRANCH 26 33
ENDBRANCH 23 26
ENDBRANCH 21 22
BRANCH 21 35
ATOM     35  CB  TYR B  17      -3.079 -27.095 -12.001  1.00 54.83 LIG 0.07  C 
BRANCH 35 36
ATOM     36  CG  TYR B  17      -2.071 -26.057 -12.317  1.00 56.96 LIG-0.06  A 
ATOM     37  CD2 TYR B  17      -2.010 -24.884 -11.556  1.00 61.26 LIG 0.01  A 
ATOM     38  CE2 TYR B  17      -1.090 -23.900 -11.839  1.00 70.21 LIG 0.04  A 
ATOM     39  CZ  TYR B  17      -0.230 -24.085 -12.908  1.00 76.40 LIG 0.07  A 
ATOM     40  CE1 TYR B  17      -0.278 -25.238 -13.683  1.00 67.10 LIG 0.04  A 
ATOM     41  CD1 TYR B  17      -1.209 -26.215 -13.381  1.00 57.92 LIG 0.01  A 
BRANCH 39 42
ATOM     42 OH   TYR B  17       0.677 -23.108 -13.196  1.00 89.25 LIG-0.36  OA
ATOM     43 HH   TYR B  17       1.209 -23.021 -12.552  1.00 89.25 LIG 0.22  HD
ENDBRANCH 39 42
ENDBRANCH 35 36
ENDBRANCH 21 35
ENDBRANCH 19 21
ENDBRANCH 12 17
ENDBRANCH 9 12
ENDBRANCH 4 8
BRANCH 1 44
ATOM     44  CA  ARG B  14     -10.227 -28.204  -8.263  1.00 32.45 LIG 0.18  C 
BRANCH 44 45
ATOM     45  N   ARG B  14     -10.182 -29.369  -7.408  1.00 38.19 LIG-0.35  N 
ATOM     46 H    ARG B  14      -9.451 -29.441  -6.960  1.00 38.19 LIG 0.16  HD
ATOM     47  C   PRO B  13     -11.182 -30.251  -7.321  1.00 38.91 LIG 0.24  C 
ATOM     48 O    PRO B  13     -12.222 -30.143  -7.939  1.00 32.88 LIG-0.27  OA
BRANCH 47 49
ATOM     49  CA  PRO B  13     -10.976 -31.423  -6.341  1.00 38.31 LIG 0.18  C 
ATOM     50  N   PRO B  13     -12.160 -32.228  -6.129  1.00 38.88 LIG-0.34  N 
ATOM     51  CD  PRO B  13     -11.875 -33.661  -6.297  1.00 43.50 LIG 0.13  C 
ATOM     52  C   PRO B  12     -13.364 -31.736  -5.794  1.00 40.77 LIG 0.26  C 
ATOM     53  CG  PRO B  13     -10.386 -33.723  -6.303  1.00 43.53 LIG 0.02  C 
ATOM     54  CB  PRO B  13      -9.963 -32.426  -6.891  1.00 39.91 LIG 0.04  C 
ATOM     55 O    PRO B  12     -13.574 -30.535  -5.564  1.00 44.45 LIG-0.27  OA
BRANCH 52 56
ATOM     56  CA  PRO B  12     -14.505 -32.717  -5.698  1.00 38.46 LIG 0.35  C 
ATOM     57  CB  PRO B  12     -15.815 -31.984  -5.992  1.00 43.42 LIG 0.05  C 
ATOM     58  CG  PRO B  12     -16.785 -32.535  -5.029  1.00 41.12 LIG 0.04  C 
ATOM     59  CD  PRO B  12     -15.989 -32.846  -3.796  1.00 39.74 LIG 0.32  C 
ATOM     60  N   PRO B  12     -14.654 -33.137  -4.326  1.00 38.12 LIG 0.32  N 
ENDBRANCH 52 56
ENDBRANCH 47 49
ENDBRANCH 44 45
BRANCH 44 61
ATOM     61  CB  ARG B  14      -9.071 -27.278  -7.869  1.00 34.42 LIG 0.04  C 
BRANCH 61 62
ATOM     62  CG  ARG B  14      -9.408 -26.256  -6.784  1.00 32.66 LIG 0.02  C 
BRANCH 62 63
ATOM     63  CD  ARG B  14     -10.912 -26.085  -6.708  1.00 35.24 LIG 0.14  C 
BRANCH 63 64
ATOM     64  NE  ARG B  14     -11.321 -24.997  -5.802  1.00 42.22 LIG-0.23  N 
ATOM     65  CZ  ARG B  14     -12.200 -25.096  -4.803  1.00 44.72 LIG 0.67  C 
ATOM     66  NH2 ARG B  14     -12.824 -26.229  -4.539  1.00 43.48 LIG-0.23  N 
ATOM     67  NH1 ARG B  14     -12.470 -24.036  -4.064  1.00 46.51 LIG-0.23  N 
ATOM     68 1HH2 ARG B  14     -12.668 -26.927  -5.016  1.00 43.48 LIG 0.17  HD
ATOM     69 2HH2 ARG B  14     -13.386 -26.269  -3.889  1.00 43.48 LIG 0.17  HD
ATOM     70 2HH1 ARG B  14     -13.036 -24.094  -3.419  1.00 46.51 LIG 0.17  HD
ATOM     71 1HH1 ARG B  14     -12.081 -23.287  -4.228  1.00 46.51 LIG 0.17  HD
ATOM     72 HE   ARG B  14     -10.961 -24.226  -5.930  1.00 42.22 LIG 0.18  HD
ENDBRANCH 63 64
ENDBRANCH 62 63
ENDBRANCH 61 62
ENDBRANCH 44 61
ENDBRANCH 1 44
TORSDOF 22
ENDMDL
MODEL 10
USER: ADFR SOLUTION from run 143
USER: SCORE 22.568830 LL:  -4.444 LR: -19.579 RR:   0.000 FEB: -13.017
USER: RMSD 3.872934
USER: SEED 142
USER: STATUS no improvement in best in 15 clusters for 5 generations
USER: GENES 24
USER: genes 0 Translation |==|  0.49548 0.47894 0.58472
USER: genes 1 Rotation |==|  0.53153 0.45896 0.38037 0.98271
USER: genes 2 Torsion [N]-CA--C-[O] |==|  0.88995
USER: genes 3 Torsion [C]-N--CA-[CB] |==|  0.51332
USER: genes 4 Torsion [N]-CA--CB-[CG2] |==|  0.19105
USER: genes 5 Torsion [CA]-CB--CG1-[CD1] |==|  0.10282
USER: genes 6 Torsion [N]-CA--C-[N] |==|  0.43429
USER: genes 7 Torsion [C]-N--CA-[C] |==|  0.55001
USER: genes 8 Torsion [N]-CA--C-[N] |==|  0.03744
USER: genes 9 Torsion [C]-N--CA-[CB] |==|  0.52576
USER: genes 10 Torsion [N]-CA--CB-[CG] |==|  0.75845
USER: genes 11 Torsion [CA]-CB--CG-[ND2] |==|  0.86273
USER: genes 12 Torsion [N]-CA--C-[O] |==|  0.65428
USER: genes 13 Torsion [N]-CA--CB-[CG] |==|  0.61723
USER: genes 14 Torsion [CA]-CB--CG-[CD2] |==|  0.14384
USER: genes 15 Torsion [CE2]-CZ--OH-[HH] |==|  0.18664
USER: genes 16 Torsion [N]-C--CA-[N] |==|  0.49270
USER: genes 17 Torsion [C]-CA--N-[C] |==|  0.76716
USER: genes 18 Torsion [N]-C--CA-[N] |==|  0.48983
USER: genes 19 Torsion [N]-C--CA-[CB] |==|  0.55109
USER: genes 20 Torsion [C]-CA--CB-[CG] |==|  0.42355
USER: genes 21 Torsion [CA]-CB--CG-[CD] |==|  0.99895
USER: genes 22 Torsion [CB]-CG--CD-[NE] |==|  0.51586
USER: genes 23 Torsion [CG]-CD--NE-[CZ] |==|  0.62281
ROOT
ATOM      1  C   ARG B  14      -9.551 -29.041  -9.582  1.00 32.92 LIG 0.24  C 
ATOM      2 O    ARG B  14      -9.307 -30.247  -9.641  1.00 37.82 LIG-0.27  OA
ATOM      3  N   PRO B  15      -9.463 -28.226 -10.637  1.00 31.88 LIG-0.34  N 
ATOM      4  CA  PRO B  15      -9.102 -28.762 -11.952  1.00 30.79 LIG 0.18  C 
ATOM      5  CB  PRO B  15      -9.196 -27.549 -12.854  1.00 31.22 LIG 0.04  C 
ATOM      6  CG  PRO B  15     -10.247 -26.715 -12.194  1.00 29.82 LIG 0.02  C 
ATOM      7  CD  PRO B  15      -9.939 -26.836 -10.736  1.00 31.43 LIG 0.13  C 
ENDROOT
BRANCH 4 8
ATOM      8  C   PRO B  15      -7.680 -29.264 -11.925  1.00 33.68 LIG 0.24  C 
ATOM      9  N   ILE B  16      -7.455 -30.415 -12.528  1.00 35.41 LIG-0.35  N 
ATOM     10 H    ILE B  16      -8.069 -30.911 -12.871  1.00 35.41 LIG 0.16  HD
ATOM     11 O    PRO B  15      -6.817 -28.644 -11.322  1.00 34.05 LIG-0.27  OA
BRANCH 9 12
ATOM     12  CA  ILE B  16      -6.151 -30.920 -12.654  1.00 37.77 LIG 0.18  C 
BRANCH 12 13
ATOM     13  CB  ILE B  16      -6.122 -32.194 -13.483  1.00 42.27 LIG 0.01  C 
ATOM     14  CG2 ILE B  16      -6.447 -31.880 -14.915  1.00 44.80 LIG 0.01  C 
BRANCH 13 15
ATOM     15  CG1 ILE B  16      -4.736 -32.845 -13.327  1.00 47.53 LIG 0.00  C 
ATOM     16  CD1 ILE B  16      -4.106 -32.742 -11.943  1.00 51.74 LIG 0.01  C 
ENDBRANCH 13 15
ENDBRANCH 12 13
BRANCH 12 17
ATOM     17  C   ILE B  16      -5.353 -29.807 -13.252  1.00 42.33 LIG 0.24  C 
ATOM     18 O    ILE B  16      -5.884 -28.916 -13.855  1.00 39.29 LIG-0.27  OA
ATOM     19  N   TYR B  17      -4.056 -29.862 -13.018  1.00 46.96 LIG-0.35  N 
ATOM     20 H    TYR B  17      -3.669 -30.552 -12.681  1.00 46.96 LIG 0.16  HD
BRANCH 19 21
ATOM     21  CA  TYR B  17      -3.155 -28.779 -13.298  1.00 51.19 LIG 0.18  C 
BRANCH 21 22
ATOM     22  C   TYR B  17      -1.756 -29.283 -13.339  1.00 56.10 LIG 0.24  C 
ATOM     23  N   ASN B  18      -1.581 -30.589 -13.399  1.00 65.39 LIG-0.35  N 
ATOM     24 H    ASN B  18      -2.208 -31.152 -13.565  1.00 65.39 LIG 0.16  HD
ATOM     25 O    TYR B  17      -0.836 -28.489 -13.390  1.00 61.36 LIG-0.27  OA
BRANCH 23 26
ATOM     26  CA  ASN B  18      -0.256 -31.193 -13.179  1.00 70.74 LIG 0.17  C 
BRANCH 26 27
ATOM     27  CB  ASN B  18      -0.319 -32.685 -13.539  1.00 84.74 LIG 0.14  C 
BRANCH 27 28
ATOM     28  CG  ASN B  18      -0.776 -33.556 -12.361  1.00 96.34 LIG 0.22  C 
ATOM     29 OD1  ASN B  18      -1.691 -34.383 -12.497  1.00 99.44 LIG-0.27  OA
ATOM     30  ND2 ASN B  18      -0.153 -33.360 -11.193  1.00 94.73 LIG-0.37  N 
ATOM     31 21HD ASN B  18      -0.383 -33.817 -10.501  1.00 94.73 LIG 0.16  HD
ATOM     32 22HD ASN B  18       0.478 -32.778 -11.133  1.00 94.73 LIG 0.16  HD
ENDBRANCH 27 28
ENDBRANCH 26 27
BRANCH 26 33
ATOM     33  C   ASN B  18       0.974 -30.502 -13.814  1.00 72.97 LIG 0.22  C 
ATOM     34 O    ASN B  18       1.758 -31.093 -14.570  1.00 74.17 LIG-0.29  OA
ENDBRANCH 26 33
ENDBRANCH 23 26
ENDBRANCH 21 22
BRANCH 21 35
ATOM     35  CB  TYR B  17      -3.237 -27.789 -12.148  1.00 54.83 LIG 0.07  C 
BRANCH 35 36
ATOM     36  CG  TYR B  17      -3.254 -26.393 -12.640  1.00 56.96 LIG-0.06  A 
ATOM     37  CD2 TYR B  17      -4.171 -26.006 -13.624  1.00 61.26 LIG 0.01  A 
ATOM     38  CE2 TYR B  17      -4.196 -24.717 -14.105  1.00 70.21 LIG 0.04  A 
ATOM     39  CZ  TYR B  17      -3.281 -23.806 -13.607  1.00 76.40 LIG 0.07  A 
ATOM     40  CE1 TYR B  17      -2.355 -24.169 -12.636  1.00 67.10 LIG 0.04  A 
ATOM     41  CD1 TYR B  17      -2.348 -25.469 -12.164  1.00 57.92 LIG 0.01  A 
BRANCH 39 42
ATOM     42 OH   TYR B  17      -3.297 -22.530 -14.088  1.00 89.25 LIG-0.36  OA
ATOM     43 HH   TYR B  17      -4.008 -22.150 -13.850  1.00 89.25 LIG 0.22  HD
ENDBRANCH 39 42
ENDBRANCH 35 36
ENDBRANCH 21 35
ENDBRANCH 19 21
ENDBRANCH 12 17
ENDBRANCH 9 12
ENDBRANCH 4 8
BRANCH 1 44
ATOM     44  CA  ARG B  14      -9.920 -28.434  -8.261  1.00 32.45 LIG 0.18  C 
BRANCH 44 45
ATOM     45  N   ARG B  14      -9.986 -29.576  -7.379  1.00 38.19 LIG-0.35  N 
ATOM     46 H    ARG B  14      -9.264 -29.711  -6.932  1.00 38.19 LIG 0.16  HD
ATOM     47  C   PRO B  13     -11.069 -30.352  -7.267  1.00 38.91 LIG 0.24  C 
ATOM     48 O    PRO B  13     -12.096 -30.156  -7.884  1.00 32.88 LIG-0.27  OA
BRANCH 47 49
ATOM     49  CA  PRO B  13     -10.974 -31.516  -6.260  1.00 38.31 LIG 0.18  C 
ATOM     50  N   PRO B  13     -12.200 -32.271  -6.118  1.00 38.88 LIG-0.34  N 
ATOM     51  CD  PRO B  13     -11.962 -33.716  -6.247  1.00 43.50 LIG 0.13  C 
ATOM     52  C   PRO B  12     -13.404 -31.728  -5.871  1.00 40.77 LIG 0.26  C 
ATOM     53  CG  PRO B  13     -10.479 -33.836  -6.151  1.00 43.53 LIG 0.02  C 
ATOM     54  CB  PRO B  13      -9.967 -32.565  -6.727  1.00 39.91 LIG 0.04  C 
ATOM     55 O    PRO B  12     -13.582 -30.517  -5.672  1.00 44.45 LIG-0.27  OA
BRANCH 52 56
ATOM     56  CA  PRO B  12     -14.586 -32.664  -5.839  1.00 38.46 LIG 0.35  C 
ATOM     57  CB  PRO B  12     -15.869 -31.847  -6.007  1.00 43.42 LIG 0.05  C 
ATOM     58  CG  PRO B  12     -16.833 -32.456  -5.075  1.00 41.12 LIG 0.04  C 
ATOM     59  CD  PRO B  12     -16.016 -32.932  -3.910  1.00 39.74 LIG 0.32  C 
ATOM     60  N   PRO B  12     -14.713 -33.222  -4.514  1.00 38.12 LIG 0.32  N 
ENDBRANCH 52 56
ENDBRANCH 47 49
ENDBRANCH 44 45
BRANCH 44 61
ATOM     61  CB  ARG B  14      -8.772 -27.533  -7.791  1.00 34.42 LIG 0.04  C 
BRANCH 61 62
ATOM     62  CG  ARG B  14      -9.193 -26.379  -6.881  1.00 32.66 LIG 0.02  C 
BRANCH 62 63
ATOM     63  CD  ARG B  14     -10.694 -26.422  -6.681  1.00 35.24 LIG 0.14  C 
BRANCH 63 64
ATOM     64  NE  ARG B  14     -11.205 -25.266  -5.924  1.00 42.22 LIG-0.23  N 
ATOM     65  CZ  ARG B  14     -12.100 -25.308  -4.934  1.00 44.72 LIG 0.67  C 
ATOM     66  NH2 ARG B  14     -12.646 -26.444  -4.542  1.00 43.48 LIG-0.23  N 
ATOM     67  NH1 ARG B  14     -12.466 -24.189  -4.338  1.00 46.51 LIG-0.23  N 
ATOM     68 1HH2 ARG B  14     -12.426 -27.182  -4.926  1.00 43.48 LIG 0.17  HD
ATOM     69 2HH2 ARG B  14     -13.220 -26.446  -3.902  1.00 43.48 LIG 0.17  HD
ATOM     70 2HH1 ARG B  14     -13.043 -24.210  -3.700  1.00 46.51 LIG 0.17  HD
ATOM     71 1HH1 ARG B  14     -12.129 -23.439  -4.587  1.00 46.51 LIG 0.17  HD
ATOM     72 HE   ARG B  14     -10.899 -24.491  -6.140  1.00 42.22 LIG 0.18  HD
ENDBRANCH 63 64
ENDBRANCH 62 63
ENDBRANCH 61 62
ENDBRANCH 44 61
ENDBRANCH 1 44
TORSDOF 22
ENDMDL
MODEL 11
USER: ADFR SOLUTION from run 38
USER: SCORE 21.756506 LL:  -4.560 LR: -19.573 RR:   0.000 FEB: -13.011
USER: RMSD 3.012251
USER: SEED 37
USER: STATUS no improvement in best in 23 clusters for 5 generations
USER: GENES 24
USER: genes 0 Translation |==|  0.47695 0.49542 0.58031
USER: genes 1 Rotation |==|  0.51163 0.50401 0.45338 0.99767
USER: genes 2 Torsion [N]-CA--C-[O] |==|  0.84905
USER: genes 3 Torsion [C]-N--CA-[CB] |==|  0.45000
USER: genes 4 Torsion [N]-CA--CB-[CG2] |==|  0.28597
USER: genes 5 Torsion [CA]-CB--CG1-[CD1] |==|  0.56340
USER: genes 6 Torsion [N]-CA--C-[N] |==|  0.41539
USER: genes 7 Torsion [C]-N--CA-[C] |==|  0.48568
USER: genes 8 Torsion [N]-CA--C-[N] |==|  0.86390
USER: genes 9 Torsion [C]-N--CA-[CB] |==|  0.38999
USER: genes 10 Torsion [N]-CA--CB-[CG] |==|  0.22609
USER: genes 11 Torsion [CA]-CB--CG-[ND2] |==|  0.71382
USER: genes 12 Torsion [N]-CA--C-[O] |==|  0.89667
USER: genes 13 Torsion [N]-CA--CB-[CG] |==|  0.53071
USER: genes 14 Torsion [CA]-CB--CG-[CD2] |==|  0.66729
USER: genes 15 Torsion [CE2]-CZ--OH-[HH] |==|  0.00527
USER: genes 16 Torsion [N]-C--CA-[N] |==|  0.44932
USER: genes 17 Torsion [C]-CA--N-[C] |==|  0.79202
USER: genes 18 Torsion [N]-C--CA-[N] |==|  0.46762
USER: genes 19 Torsion [N]-C--CA-[CB] |==|  0.55818
USER: genes 20 Torsion [C]-CA--CB-[CG] |==|  0.46347
USER: genes 21 Torsion [CA]-CB--CG-[CD] |==|  0.92829
USER: genes 22 Torsion [CB]-CG--CD-[NE] |==|  0.53581
USER: genes 23 Torsion [CG]-CD--NE-[CZ] |==|  0.64797
ROOT
ATOM      1  C   ARG B  14      -9.968 -28.732  -9.704  1.00 32.92 LIG 0.24  C 
ATOM      2 O    ARG B  14      -9.384 -29.816  -9.767  1.00 37.82 LIG-0.27  OA
ATOM      3  N   PRO B  15     -10.308 -28.022 -10.784  1.00 31.88 LIG-0.34  N 
ATOM      4  CA  PRO B  15     -10.027 -28.543 -12.125  1.00 30.79 LIG 0.18  C 
ATOM      5  CB  PRO B  15     -10.632 -27.493 -13.033  1.00 31.22 LIG 0.04  C 
ATOM      6  CG  PRO B  15     -11.760 -26.947 -12.217  1.00 29.82 LIG 0.02  C 
ATOM      7  CD  PRO B  15     -11.190 -26.845 -10.839  1.00 31.43 LIG 0.13  C 
ENDROOT
BRANCH 4 8
ATOM      8  C   PRO B  15      -8.537 -28.605 -12.345  1.00 33.68 LIG 0.24  C 
ATOM      9  N   ILE B  16      -8.041 -29.788 -12.657  1.00 35.41 LIG-0.35  N 
ATOM     10 H    ILE B  16      -8.499 -30.516 -12.678  1.00 35.41 LIG 0.16  HD
ATOM     11 O    PRO B  15      -7.845 -27.611 -12.183  1.00 34.05 LIG-0.27  OA
BRANCH 9 12
ATOM     12  CA  ILE B  16      -6.685 -29.936 -12.987  1.00 37.77 LIG 0.18  C 
BRANCH 12 13
ATOM     13  CB  ILE B  16      -6.238 -31.386 -12.879  1.00 42.27 LIG 0.01  C 
ATOM     14  CG2 ILE B  16      -6.138 -31.993 -14.249  1.00 44.80 LIG 0.01  C 
BRANCH 13 15
ATOM     15  CG1 ILE B  16      -4.899 -31.428 -12.122  1.00 47.53 LIG 0.00  C 
ATOM     16  CD1 ILE B  16      -4.034 -32.659 -12.369  1.00 51.74 LIG 0.01  C 
ENDBRANCH 13 15
ENDBRANCH 12 13
BRANCH 12 17
ATOM     17  C   ILE B  16      -6.551 -29.377 -14.367  1.00 42.33 LIG 0.24  C 
ATOM     18 O    ILE B  16      -7.474 -29.386 -15.132  1.00 39.29 LIG-0.27  OA
ATOM     19  N   TYR B  17      -5.377 -28.839 -14.639  1.00 46.96 LIG-0.35  N 
ATOM     20 H    TYR B  17      -4.690 -28.931 -14.131  1.00 46.96 LIG 0.16  HD
BRANCH 19 21
ATOM     21  CA  TYR B  17      -5.123 -28.047 -15.810  1.00 51.19 LIG 0.18  C 
BRANCH 21 22
ATOM     22  C   TYR B  17      -3.744 -27.492 -15.754  1.00 56.10 LIG 0.24  C 
ATOM     23  N   ASN B  18      -3.372 -26.896 -14.639  1.00 65.39 LIG-0.35  N 
ATOM     24 H    ASN B  18      -3.810 -26.938 -13.900  1.00 65.39 LIG 0.16  HD
ATOM     25 O    TYR B  17      -2.992 -27.665 -16.695  1.00 61.36 LIG-0.27  OA
BRANCH 23 26
ATOM     26  CA  ASN B  18      -2.140 -26.092 -14.576  1.00 70.74 LIG 0.17  C 
BRANCH 26 27
ATOM     27  CB  ASN B  18      -2.398 -24.844 -13.718  1.00 84.74 LIG 0.14  C 
BRANCH 27 28
ATOM     28  CG  ASN B  18      -2.296 -25.131 -12.215  1.00 96.34 LIG 0.22  C 
ATOM     29 OD1  ASN B  18      -1.193 -25.271 -11.665  1.00 99.44 LIG-0.27  OA
ATOM     30  ND2 ASN B  18      -3.451 -25.240 -11.545  1.00 94.73 LIG-0.37  N 
ATOM     31 21HD ASN B  18      -3.445 -25.412 -10.703  1.00 94.73 LIG 0.16  HD
ATOM     32 22HD ASN B  18      -4.199 -25.138 -11.957  1.00 94.73 LIG 0.16  HD
ENDBRANCH 27 28
ENDBRANCH 26 27
BRANCH 26 33
ATOM     33  C   ASN B  18      -0.826 -26.803 -14.172  1.00 72.97 LIG 0.22  C 
ATOM     34 O    ASN B  18      -0.785 -27.698 -13.316  1.00 74.17 LIG-0.29  OA
ENDBRANCH 26 33
ENDBRANCH 23 26
ENDBRANCH 21 22
BRANCH 21 35
ATOM     35  CB  TYR B  17      -6.079 -26.866 -15.796  1.00 54.83 LIG 0.07  C 
BRANCH 35 36
ATOM     36  CG  TYR B  17      -6.066 -26.147 -17.090  1.00 56.96 LIG-0.06  A 
ATOM     37  CD2 TYR B  17      -5.697 -24.798 -17.139  1.00 61.26 LIG 0.01  A 
ATOM     38  CE2 TYR B  17      -5.690 -24.107 -18.329  1.00 70.21 LIG 0.04  A 
ATOM     39  CZ  TYR B  17      -6.072 -24.769 -19.483  1.00 76.40 LIG 0.07  A 
ATOM     40  CE1 TYR B  17      -6.450 -26.106 -19.457  1.00 67.10 LIG 0.04  A 
ATOM     41  CD1 TYR B  17      -6.449 -26.783 -18.251  1.00 57.92 LIG 0.01  A 
BRANCH 39 42
ATOM     42 OH   TYR B  17      -6.073 -24.084 -20.662  1.00 89.25 LIG-0.36  OA
ATOM     43 HH   TYR B  17      -5.800 -23.300 -20.531  1.00 89.25 LIG 0.22  HD
ENDBRANCH 39 42
ENDBRANCH 35 36
ENDBRANCH 21 35
ENDBRANCH 19 21
ENDBRANCH 12 17
ENDBRANCH 9 12
ENDBRANCH 4 8
BRANCH 1 44
ATOM     44  CA  ARG B  14     -10.276 -28.145  -8.359  1.00 32.45 LIG 0.18  C 
BRANCH 44 45
ATOM     45  N   ARG B  14     -10.210 -29.288  -7.476  1.00 38.19 LIG-0.35  N 
ATOM     46 H    ARG B  14      -9.499 -29.310  -6.992  1.00 38.19 LIG 0.16  HD
ATOM     47  C   PRO B  13     -11.163 -30.222  -7.417  1.00 38.91 LIG 0.24  C 
ATOM     48 O    PRO B  13     -12.176 -30.185  -8.086  1.00 32.88 LIG-0.27  OA
BRANCH 47 49
ATOM     49  CA  PRO B  13     -10.941 -31.361  -6.401  1.00 38.31 LIG 0.18  C 
ATOM     50  N   PRO B  13     -12.107 -32.191  -6.185  1.00 38.88 LIG-0.34  N 
ATOM     51  CD  PRO B  13     -11.783 -33.619  -6.308  1.00 43.50 LIG 0.13  C 
ATOM     52  C   PRO B  12     -13.328 -31.722  -5.881  1.00 40.77 LIG 0.26  C 
ATOM     53  CG  PRO B  13     -10.293 -33.643  -6.290  1.00 43.53 LIG 0.02  C 
ATOM     54  CB  PRO B  13      -9.894 -32.352  -6.909  1.00 39.91 LIG 0.04  C 
ATOM     55 O    PRO B  12     -13.573 -30.521  -5.688  1.00 44.45 LIG-0.27  OA
BRANCH 52 56
ATOM     56  CA  PRO B  12     -14.445 -32.729  -5.774  1.00 38.46 LIG 0.35  C 
ATOM     57  CB  PRO B  12     -15.783 -32.008  -5.948  1.00 43.42 LIG 0.05  C 
ATOM     58  CG  PRO B  12     -16.683 -32.632  -4.963  1.00 41.12 LIG 0.04  C 
ATOM     59  CD  PRO B  12     -15.810 -32.995  -3.798  1.00 39.74 LIG 0.32  C 
ATOM     60  N   PRO B  12     -14.504 -33.229  -4.422  1.00 38.12 LIG 0.32  N 
ENDBRANCH 52 56
ENDBRANCH 47 49
ENDBRANCH 44 45
BRANCH 44 61
ATOM     61  CB  ARG B  14      -9.154 -27.176  -7.971  1.00 34.42 LIG 0.04  C 
BRANCH 61 62
ATOM     62  CG  ARG B  14      -9.472 -26.267  -6.783  1.00 32.66 LIG 0.02  C 
BRANCH 62 63
ATOM     63  CD  ARG B  14     -10.973 -26.086  -6.681  1.00 35.24 LIG 0.14  C 
BRANCH 63 64
ATOM     64  NE  ARG B  14     -11.358 -24.997  -5.766  1.00 42.22 LIG-0.23  N 
ATOM     65  CZ  ARG B  14     -12.209 -25.096  -4.742  1.00 44.72 LIG 0.67  C 
ATOM     66  NH2 ARG B  14     -12.824 -26.229  -4.459  1.00 43.48 LIG-0.23  N 
ATOM     67  NH1 ARG B  14     -12.459 -24.035  -3.998  1.00 46.51 LIG-0.23  N 
ATOM     68 1HH2 ARG B  14     -12.680 -26.928  -4.940  1.00 43.48 LIG 0.17  HD
ATOM     69 2HH2 ARG B  14     -13.368 -26.268  -3.794  1.00 43.48 LIG 0.17  HD
ATOM     70 2HH1 ARG B  14     -13.007 -24.092  -3.337  1.00 46.51 LIG 0.17  HD
ATOM     71 1HH1 ARG B  14     -12.075 -23.286  -4.173  1.00 46.51 LIG 0.17  HD
ATOM     72 HE   ARG B  14     -11.001 -24.226  -5.904  1.00 42.22 LIG 0.18  HD
ENDBRANCH 63 64
ENDBRANCH 62 63
ENDBRANCH 61 62
ENDBRANCH 44 61
ENDBRANCH 1 44
TORSDOF 22
ENDMDL
MODEL 12
USER: ADFR SOLUTION from run 83
USER: SCORE 22.542588 LL:  -4.547 LR: -19.523 RR:   0.000 FEB: -12.961
USER: RMSD 3.321481
USER: SEED 82
USER: STATUS no improvement in best in 15 clusters for 5 generations
USER: GENES 24
USER: genes 0 Translation |==|  0.45839 0.45764 0.57358
USER: genes 1 Rotation |==|  0.59716 0.50380 0.45747 0.98861
USER: genes 2 Torsion [N]-CA--C-[O] |==|  0.88672
USER: genes 3 Torsion [C]-N--CA-[CB] |==|  0.29415
USER: genes 4 Torsion [N]-CA--CB-[CG2] |==|  0.97684
USER: genes 5 Torsion [CA]-CB--CG1-[CD1] |==|  0.47445
USER: genes 6 Torsion [N]-CA--C-[N] |==|  0.35022
USER: genes 7 Torsion [C]-N--CA-[C] |==|  0.86098
USER: genes 8 Torsion [N]-CA--C-[N] |==|  0.36724
USER: genes 9 Torsion [C]-N--CA-[CB] |==|  0.43288
USER: genes 10 Torsion [N]-CA--CB-[CG] |==|  0.59449
USER: genes 11 Torsion [CA]-CB--CG-[ND2] |==|  0.42554
USER: genes 12 Torsion [N]-CA--C-[O] |==|  0.96560
USER: genes 13 Torsion [N]-CA--CB-[CG] |==|  0.55782
USER: genes 14 Torsion [CA]-CB--CG-[CD2] |==|  0.25814
USER: genes 15 Torsion [CE2]-CZ--OH-[HH] |==|  0.09332
USER: genes 16 Torsion [N]-C--CA-[N] |==|  0.39915
USER: genes 17 Torsion [C]-CA--N-[C] |==|  0.59502
USER: genes 18 Torsion [N]-C--CA-[N] |==|  0.18747
USER: genes 19 Torsion [N]-C--CA-[CB] |==|  0.75006
USER: genes 20 Torsion [C]-CA--CB-[CG] |==|  0.40490
USER: genes 21 Torsion [CA]-CB--CG-[CD] |==|  0.00322
USER: genes 22 Torsion [CB]-CG--CD-[NE] |==|  0.79734
USER: genes 23 Torsion [CG]-CD--NE-[CZ] |==|  0.77789
ROOT
ATOM      1  C   ARG B  14     -10.385 -29.440  -9.891  1.00 32.92 LIG 0.24  C 
ATOM      2 O    ARG B  14      -9.784 -30.437 -10.295  1.00 37.82 LIG-0.27  OA
ATOM      3  N   PRO B  15     -10.703 -28.410 -10.680  1.00 31.88 LIG-0.34  N 
ATOM      4  CA  PRO B  15     -10.373 -28.448 -12.108  1.00 30.79 LIG 0.18  C 
ATOM      5  CB  PRO B  15     -10.967 -27.156 -12.631  1.00 31.22 LIG 0.04  C 
ATOM      6  CG  PRO B  15     -12.128 -26.922 -11.717  1.00 29.82 LIG 0.02  C 
ATOM      7  CD  PRO B  15     -11.602 -27.287 -10.367  1.00 31.43 LIG 0.13  C 
ENDROOT
BRANCH 4 8
ATOM      8  C   PRO B  15      -8.876 -28.426 -12.285  1.00 33.68 LIG 0.24  C 
ATOM      9  N   ILE B  16      -8.382 -29.262 -13.178  1.00 35.41 LIG-0.35  N 
ATOM     10 H    ILE B  16      -8.847 -29.846 -13.606  1.00 35.41 LIG 0.16  HD
ATOM     11 O    PRO B  15      -8.181 -27.703 -11.588  1.00 34.05 LIG-0.27  OA
BRANCH 9 12
ATOM     12  CA  ILE B  16      -7.015 -29.248 -13.498  1.00 37.77 LIG 0.18  C 
BRANCH 12 13
ATOM     13  CB  ILE B  16      -6.287 -30.440 -12.896  1.00 42.27 LIG 0.01  C 
ATOM     14  CG2 ILE B  16      -7.203 -31.179 -11.963  1.00 44.80 LIG 0.01  C 
BRANCH 13 15
ATOM     15  CG1 ILE B  16      -5.778 -31.330 -14.043  1.00 47.53 LIG 0.00  C 
ATOM     16  CD1 ILE B  16      -4.836 -32.460 -13.640  1.00 51.74 LIG 0.01  C 
ENDBRANCH 13 15
ENDBRANCH 12 13
BRANCH 12 17
ATOM     17  C   ILE B  16      -6.960 -29.215 -14.992  1.00 42.33 LIG 0.24  C 
ATOM     18 O    ILE B  16      -7.574 -30.005 -15.654  1.00 39.29 LIG-0.27  OA
ATOM     19  N   TYR B  17      -6.240 -28.233 -15.502  1.00 46.96 LIG-0.35  N 
ATOM     20 H    TYR B  17      -5.718 -27.740 -15.029  1.00 46.96 LIG 0.16  HD
BRANCH 19 21
ATOM     21  CA  TYR B  17      -6.251 -27.886 -16.895  1.00 51.19 LIG 0.18  C 
BRANCH 21 22
ATOM     22  C   TYR B  17      -6.039 -29.104 -17.722  1.00 56.10 LIG 0.24  C 
ATOM     23  N   ASN B  18      -6.855 -29.300 -18.739  1.00 65.39 LIG-0.35  N 
ATOM     24 H    ASN B  18      -7.396 -28.705 -19.044  1.00 65.39 LIG 0.16  HD
ATOM     25 O    TYR B  17      -5.092 -29.831 -17.483  1.00 61.36 LIG-0.27  OA
BRANCH 23 26
ATOM     26  CA  ASN B  18      -6.897 -30.589 -19.448  1.00 70.74 LIG 0.17  C 
BRANCH 26 27
ATOM     27  CB  ASN B  18      -8.268 -30.745 -20.125  1.00 84.74 LIG 0.14  C 
BRANCH 27 28
ATOM     28  CG  ASN B  18      -8.749 -32.202 -20.151  1.00 96.34 LIG 0.22  C 
ATOM     29 OD1  ASN B  18      -7.938 -33.142 -20.156  1.00 99.44 LIG-0.27  OA
ATOM     30  ND2 ASN B  18     -10.073 -32.396 -20.187  1.00 94.73 LIG-0.37  N 
ATOM     31 21HD ASN B  18     -10.390 -33.195 -20.214  1.00 94.73 LIG 0.16  HD
ATOM     32 22HD ASN B  18     -10.607 -31.722 -20.182  1.00 94.73 LIG 0.16  HD
ENDBRANCH 27 28
ENDBRANCH 26 27
BRANCH 26 33
ATOM     33  C   ASN B  18      -5.738 -30.926 -20.417  1.00 72.97 LIG 0.22  C 
ATOM     34 O    ASN B  18      -4.909 -30.082 -20.788  1.00 74.17 LIG-0.29  OA
ENDBRANCH 26 33
ENDBRANCH 23 26
ENDBRANCH 21 22
BRANCH 21 35
ATOM     35  CB  TYR B  17      -5.076 -26.959 -17.158  1.00 54.83 LIG 0.07  C 
BRANCH 35 36
ATOM     36  CG  TYR B  17      -5.277 -26.172 -18.395  1.00 56.96 LIG-0.06  A 
ATOM     37  CD2 TYR B  17      -5.860 -24.900 -18.331  1.00 61.26 LIG 0.01  A 
ATOM     38  CE2 TYR B  17      -6.068 -24.156 -19.470  1.00 70.21 LIG 0.04  A 
ATOM     39  CZ  TYR B  17      -5.703 -24.696 -20.691  1.00 76.40 LIG 0.07  A 
ATOM     40  CE1 TYR B  17      -5.130 -25.960 -20.780  1.00 67.10 LIG 0.04  A 
ATOM     41  CD1 TYR B  17      -4.928 -26.691 -19.624  1.00 57.92 LIG 0.01  A 
BRANCH 39 42
ATOM     42 OH   TYR B  17      -5.916 -23.964 -21.822  1.00 89.25 LIG-0.36  OA
ATOM     43 HH   TYR B  17      -5.816 -23.148 -21.650  1.00 89.25 LIG 0.22  HD
ENDBRANCH 39 42
ENDBRANCH 35 36
ENDBRANCH 21 35
ENDBRANCH 19 21
ENDBRANCH 12 17
ENDBRANCH 9 12
ENDBRANCH 4 8
BRANCH 1 44
ATOM     44  CA  ARG B  14     -10.744 -29.342  -8.438  1.00 32.45 LIG 0.18  C 
BRANCH 44 45
ATOM     45  N   ARG B  14     -11.115 -30.696  -8.096  1.00 38.19 LIG-0.35  N 
ATOM     46 H    ARG B  14     -10.663 -31.295  -8.517  1.00 38.19 LIG 0.16  HD
ATOM     47  C   PRO B  13     -12.071 -30.990  -7.210  1.00 38.91 LIG 0.24  C 
ATOM     48 O    PRO B  13     -12.699 -30.148  -6.601  1.00 32.88 LIG-0.27  OA
BRANCH 47 49
ATOM     49  CA  PRO B  13     -12.321 -32.489  -6.948  1.00 38.31 LIG 0.18  C 
ATOM     50  N   PRO B  13     -11.225 -33.161  -6.282  1.00 38.88 LIG-0.34  N 
ATOM     51  CD  PRO B  13     -11.691 -33.930  -5.118  1.00 43.50 LIG 0.13  C 
ATOM     52  C   PRO B  12      -9.946 -33.114  -6.687  1.00 40.77 LIG 0.26  C 
ATOM     53  CG  PRO B  13     -13.171 -33.963  -5.291  1.00 43.53 LIG 0.02  C 
ATOM     54  CB  PRO B  13     -13.492 -32.690  -5.986  1.00 39.91 LIG 0.04  C 
ATOM     55 O    PRO B  12      -9.575 -32.539  -7.722  1.00 44.45 LIG-0.27  OA
BRANCH 52 56
ATOM     56  CA  PRO B  12      -8.925 -33.807  -5.820  1.00 38.46 LIG 0.35  C 
ATOM     57  CB  PRO B  12      -8.396 -32.811  -4.786  1.00 43.42 LIG 0.05  C 
ATOM     58  CG  PRO B  12      -6.951 -33.083  -4.700  1.00 41.12 LIG 0.04  C 
ATOM     59  CD  PRO B  12      -6.541 -33.507  -6.080  1.00 39.74 LIG 0.32  C 
ATOM     60  N   PRO B  12      -7.761 -34.117  -6.616  1.00 38.12 LIG 0.32  N 
ENDBRANCH 52 56
ENDBRANCH 47 49
ENDBRANCH 44 45
BRANCH 44 61
ATOM     61  CB  ARG B  14      -9.488 -28.975  -7.640  1.00 34.42 LIG 0.04  C 
BRANCH 61 62
ATOM     62  CG  ARG B  14      -9.736 -28.078  -6.428  1.00 32.66 LIG 0.02  C 
BRANCH 62 63
ATOM     63  CD  ARG B  14     -11.220 -27.796  -6.310  1.00 35.24 LIG 0.14  C 
BRANCH 63 64
ATOM     64  NE  ARG B  14     -11.710 -26.861  -7.337  1.00 42.22 LIG-0.23  N 
ATOM     65  CZ  ARG B  14     -11.590 -25.531  -7.310  1.00 44.72 LIG 0.67  C 
ATOM     66  NH2 ARG B  14     -11.012 -24.908  -6.300  1.00 43.48 LIG-0.23  N 
ATOM     67  NH1 ARG B  14     -12.074 -24.812  -8.305  1.00 46.51 LIG-0.23  N 
ATOM     68 1HH2 ARG B  14     -10.700 -25.360  -5.638  1.00 43.48 LIG 0.17  HD
ATOM     69 2HH2 ARG B  14     -10.946 -24.051  -6.305  1.00 43.48 LIG 0.17  HD
ATOM     70 2HH1 ARG B  14     -12.001 -23.955  -8.293  1.00 46.51 LIG 0.17  HD
ATOM     71 1HH1 ARG B  14     -12.463 -25.200  -8.967  1.00 46.51 LIG 0.17  HD
ATOM     72 HE   ARG B  14     -12.110 -27.202  -8.018  1.00 42.22 LIG 0.18  HD
ENDBRANCH 63 64
ENDBRANCH 62 63
ENDBRANCH 61 62
ENDBRANCH 44 61
ENDBRANCH 1 44
TORSDOF 22
ENDMDL
MODEL 13
USER: ADFR SOLUTION from run 10
USER: SCORE 23.462631 LL:  -5.171 LR: -19.477 RR:   0.000 FEB: -12.914
USER: RMSD 3.071423
USER: SEED 109414
USER: STATUS no improvement in best in 10 clusters for 5 generations
USER: GENES 24
USER: genes 0 Translation |==|  0.45208 0.51050 0.57266
USER: genes 1 Rotation |==|  0.51339 0.50261 0.47016 0.99892
USER: genes 2 Torsion [N]-CA--C-[O] |==|  0.82894
USER: genes 3 Torsion [C]-N--CA-[CB] |==|  0.43894
USER: genes 4 Torsion [N]-CA--CB-[CG2] |==|  0.50757
USER: genes 5 Torsion [CA]-CB--CG1-[CD1] |==|  0.22956
USER: genes 6 Torsion [N]-CA--C-[N] |==|  0.41904
USER: genes 7 Torsion [C]-N--CA-[C] |==|  0.81554
USER: genes 8 Torsion [N]-CA--C-[N] |==|  0.94215
USER: genes 9 Torsion [C]-N--CA-[CB] |==|  0.44932
USER: genes 10 Torsion [N]-CA--CB-[CG] |==|  0.14246
USER: genes 11 Torsion [CA]-CB--CG-[ND2] |==|  0.47904
USER: genes 12 Torsion [N]-CA--C-[O] |==|  0.06509
USER: genes 13 Torsion [N]-CA--CB-[CG] |==|  0.90302
USER: genes 14 Torsion [CA]-CB--CG-[CD2] |==|  0.24286
USER: genes 15 Torsion [CE2]-CZ--OH-[HH] |==|  0.83446
USER: genes 16 Torsion [N]-C--CA-[N] |==|  0.46537
USER: genes 17 Torsion [C]-CA--N-[C] |==|  0.79332
USER: genes 18 Torsion [N]-C--CA-[N] |==|  0.45124
USER: genes 19 Torsion [N]-C--CA-[CB] |==|  0.59599
USER: genes 20 Torsion [C]-CA--CB-[CG] |==|  0.52730
USER: genes 21 Torsion [CA]-CB--CG-[CD] |==|  0.87248
USER: genes 22 Torsion [CB]-CG--CD-[NE] |==|  0.59769
USER: genes 23 Torsion [CG]-CD--NE-[CZ] |==|  0.61827
ROOT
ATOM      1  C   ARG B  14     -10.527 -28.449  -9.917  1.00 32.92 LIG 0.24  C 
ATOM      2 O    ARG B  14      -9.872 -29.491  -9.982  1.00 37.82 LIG-0.27  OA
ATOM      3  N   PRO B  15     -10.906 -27.756 -10.994  1.00 31.88 LIG-0.34  N 
ATOM      4  CA  PRO B  15     -10.580 -28.247 -12.336  1.00 30.79 LIG 0.18  C 
ATOM      5  CB  PRO B  15     -11.248 -27.234 -13.243  1.00 31.22 LIG 0.04  C 
ATOM      6  CG  PRO B  15     -12.416 -26.770 -12.432  1.00 29.82 LIG 0.02  C 
ATOM      7  CD  PRO B  15     -11.865 -26.640 -11.049  1.00 31.43 LIG 0.13  C 
ENDROOT
BRANCH 4 8
ATOM      8  C   PRO B  15      -9.088 -28.208 -12.545  1.00 33.68 LIG 0.24  C 
ATOM      9  N   ILE B  16      -8.491 -29.372 -12.714  1.00 35.41 LIG-0.35  N 
ATOM     10 H    ILE B  16      -8.886 -30.134 -12.650  1.00 35.41 LIG 0.16  HD
ATOM     11 O    PRO B  15      -8.484 -27.147 -12.500  1.00 34.05 LIG-0.27  OA
BRANCH 9 12
ATOM     12  CA  ILE B  16      -7.123 -29.443 -13.022  1.00 37.77 LIG 0.18  C 
BRANCH 12 13
ATOM     13  CB  ILE B  16      -6.535 -30.795 -12.652  1.00 42.27 LIG 0.01  C 
ATOM     14  CG2 ILE B  16      -5.060 -30.806 -12.935  1.00 44.80 LIG 0.01  C 
BRANCH 13 15
ATOM     15  CG1 ILE B  16      -6.849 -31.075 -11.172  1.00 47.53 LIG 0.00  C 
ATOM     16  CD1 ILE B  16      -8.233 -31.646 -10.882  1.00 51.74 LIG 0.01  C 
ENDBRANCH 13 15
ENDBRANCH 12 13
BRANCH 12 17
ATOM     17  C   ILE B  16      -7.031 -29.137 -14.482  1.00 42.33 LIG 0.24  C 
ATOM     18 O    ILE B  16      -7.949 -29.357 -15.222  1.00 39.29 LIG-0.27  OA
ATOM     19  N   TYR B  17      -5.902 -28.568 -14.863  1.00 46.96 LIG-0.35  N 
ATOM     20 H    TYR B  17      -5.211 -28.512 -14.355  1.00 46.96 LIG 0.16  HD
BRANCH 19 21
ATOM     21  CA  TYR B  17      -5.709 -27.986 -16.161  1.00 51.19 LIG 0.18  C 
BRANCH 21 22
ATOM     22  C   TYR B  17      -5.746 -29.047 -17.202  1.00 56.10 LIG 0.24  C 
ATOM     23  N   ASN B  18      -5.517 -30.288 -16.816  1.00 65.39 LIG-0.35  N 
ATOM     24 H    ASN B  18      -5.498 -30.541 -15.995  1.00 65.39 LIG 0.16  HD
ATOM     25 O    TYR B  17      -6.053 -28.756 -18.343  1.00 61.36 LIG-0.27  OA
BRANCH 23 26
ATOM     26  CA  ASN B  18      -5.273 -31.360 -17.794  1.00 70.74 LIG 0.17  C 
BRANCH 26 27
ATOM     27  CB  ASN B  18      -4.603 -32.545 -17.084  1.00 84.74 LIG 0.14  C 
BRANCH 27 28
ATOM     28  CG  ASN B  18      -5.363 -32.983 -15.824  1.00 96.34 LIG 0.22  C 
ATOM     29 OD1  ASN B  18      -6.307 -32.310 -15.383  1.00 99.44 LIG-0.27  OA
ATOM     30  ND2 ASN B  18      -4.941 -34.105 -15.228  1.00 94.73 LIG-0.37  N 
ATOM     31 21HD ASN B  18      -5.328 -34.383 -14.513  1.00 94.73 LIG 0.16  HD
ATOM     32 22HD ASN B  18      -4.282 -34.547 -15.561  1.00 94.73 LIG 0.16  HD
ENDBRANCH 27 28
ENDBRANCH 26 27
BRANCH 26 33
ATOM     33  C   ASN B  18      -6.454 -31.818 -18.683  1.00 72.97 LIG 0.22  C 
ATOM     34 O    ASN B  18      -7.430 -31.094 -18.925  1.00 74.17 LIG-0.29  OA
ENDBRANCH 26 33
ENDBRANCH 23 26
ENDBRANCH 21 22
BRANCH 21 35
ATOM     35  CB  TYR B  17      -4.319 -27.374 -16.199  1.00 54.83 LIG 0.07  C 
BRANCH 35 36
ATOM     36  CG  TYR B  17      -3.944 -26.806 -14.884  1.00 56.96 LIG-0.06  A 
ATOM     37  CD2 TYR B  17      -3.336 -27.617 -13.918  1.00 61.26 LIG 0.01  A 
ATOM     38  CE2 TYR B  17      -2.991 -27.114 -12.684  1.00 70.21 LIG 0.04  A 
ATOM     39  CZ  TYR B  17      -3.270 -25.787 -12.408  1.00 76.40 LIG 0.07  A 
ATOM     40  CE1 TYR B  17      -3.881 -24.965 -13.348  1.00 67.10 LIG 0.04  A 
ATOM     41  CD1 TYR B  17      -4.218 -25.490 -14.582  1.00 57.92 LIG 0.01  A 
BRANCH 39 42
ATOM     42 OH   TYR B  17      -2.936 -25.288 -11.183  1.00 89.25 LIG-0.36  OA
ATOM     43 HH   TYR B  17      -3.335 -25.723 -10.585  1.00 89.25 LIG 0.22  HD
ENDBRANCH 39 42
ENDBRANCH 35 36
ENDBRANCH 21 35
ENDBRANCH 19 21
ENDBRANCH 12 17
ENDBRANCH 9 12
ENDBRANCH 4 8
BRANCH 1 44
ATOM     44  CA  ARG B  14     -10.884 -27.894  -8.570  1.00 32.45 LIG 0.18  C 
BRANCH 44 45
ATOM     45  N   ARG B  14     -10.614 -28.996  -7.675  1.00 38.19 LIG-0.35  N 
ATOM     46 H    ARG B  14      -9.898 -28.896  -7.209  1.00 38.19 LIG 0.16  HD
ATOM     47  C   PRO B  13     -11.401 -30.071  -7.580  1.00 38.91 LIG 0.24  C 
ATOM     48 O    PRO B  13     -12.422 -30.210  -8.224  1.00 32.88 LIG-0.27  OA
BRANCH 47 49
ATOM     49  CA  PRO B  13     -10.975 -31.143  -6.556  1.00 38.31 LIG 0.18  C 
ATOM     50  N   PRO B  13     -12.029 -32.067  -6.198  1.00 38.88 LIG-0.34  N 
ATOM     51  CD  PRO B  13     -11.583 -33.463  -6.308  1.00 43.50 LIG 0.13  C 
ATOM     52  C   PRO B  12     -13.255 -31.701  -5.789  1.00 40.77 LIG 0.26  C 
ATOM     53  CG  PRO B  13     -10.103 -33.348  -6.438  1.00 43.53 LIG 0.02  C 
ATOM     54  CB  PRO B  13      -9.891 -32.053  -7.134  1.00 39.91 LIG 0.04  C 
ATOM     55 O    PRO B  12     -13.594 -30.521  -5.611  1.00 44.45 LIG-0.27  OA
BRANCH 52 56
ATOM     56  CA  PRO B  12     -14.254 -32.802  -5.540  1.00 38.46 LIG 0.35  C 
ATOM     57  CB  PRO B  12     -15.647 -32.306  -5.932  1.00 43.42 LIG 0.05  C 
ATOM     58  CG  PRO B  12     -16.547 -32.834  -4.892  1.00 41.12 LIG 0.04  C 
ATOM     59  CD  PRO B  12     -15.734 -32.846  -3.631  1.00 39.74 LIG 0.32  C 
ATOM     60  N   PRO B  12     -14.365 -33.029  -4.119  1.00 38.12 LIG 0.32  N 
ENDBRANCH 52 56
ENDBRANCH 47 49
ENDBRANCH 44 45
BRANCH 44 61
ATOM     61  CB  ARG B  14      -9.918 -26.755  -8.230  1.00 34.42 LIG 0.04  C 
BRANCH 61 62
ATOM     62  CG  ARG B  14     -10.005 -26.245  -6.792  1.00 32.66 LIG 0.02  C 
BRANCH 62 63
ATOM     63  CD  ARG B  14     -11.461 -26.054  -6.417  1.00 35.24 LIG 0.14  C 
BRANCH 63 64
ATOM     64  NE  ARG B  14     -11.677 -24.902  -5.524  1.00 42.22 LIG-0.23  N 
ATOM     65  CZ  ARG B  14     -12.480 -24.875  -4.458  1.00 44.72 LIG 0.67  C 
ATOM     66  NH2 ARG B  14     -13.199 -25.923  -4.105  1.00 43.48 LIG-0.23  N 
ATOM     67  NH1 ARG B  14     -12.574 -23.770  -3.741  1.00 46.51 LIG-0.23  N 
ATOM     68 1HH2 ARG B  14     -13.158 -26.648  -4.567  1.00 43.48 LIG 0.17  HD
ATOM     69 2HH2 ARG B  14     -13.709 -25.882  -3.413  1.00 43.48 LIG 0.17  HD
ATOM     70 2HH1 ARG B  14     -13.090 -23.746  -3.053  1.00 46.51 LIG 0.17  HD
ATOM     71 1HH1 ARG B  14     -12.120 -23.074  -3.961  1.00 46.51 LIG 0.17  HD
ATOM     72 HE   ARG B  14     -11.247 -24.180  -5.707  1.00 42.22 LIG 0.18  HD
ENDBRANCH 63 64
ENDBRANCH 62 63
ENDBRANCH 61 62
ENDBRANCH 44 61
ENDBRANCH 1 44
TORSDOF 22
ENDMDL
MODEL 14
USER: ADFR SOLUTION from run 199
USER: SCORE 22.432596 LL:  -4.684 LR: -19.423 RR:   0.000 FEB: -12.861
USER: RMSD 4.561054
USER: SEED 198
USER: STATUS no improvement in best in 21 clusters for 5 generations
USER: GENES 24
USER: genes 0 Translation |==|  0.47974 0.50074 0.58434
USER: genes 1 Rotation |==|  0.50985 0.51489 0.47895 0.99924
USER: genes 2 Torsion [N]-CA--C-[O] |==|  0.92433
USER: genes 3 Torsion [C]-N--CA-[CB] |==|  0.16824
USER: genes 4 Torsion [N]-CA--CB-[CG2] |==|  0.22687
USER: genes 5 Torsion [CA]-CB--CG1-[CD1] |==|  0.23549
USER: genes 6 Torsion [N]-CA--C-[N] |==|  0.51929
USER: genes 7 Torsion [C]-N--CA-[C] |==|  0.15523
USER: genes 8 Torsion [N]-CA--C-[N] |==|  0.59775
USER: genes 9 Torsion [C]-N--CA-[CB] |==|  0.32822
USER: genes 10 Torsion [N]-CA--CB-[CG] |==|  0.00902
USER: genes 11 Torsion [CA]-CB--CG-[ND2] |==|  0.26098
USER: genes 12 Torsion [N]-CA--C-[O] |==|  0.34501
USER: genes 13 Torsion [N]-CA--CB-[CG] |==|  0.74443
USER: genes 14 Torsion [CA]-CB--CG-[CD2] |==|  0.21902
USER: genes 15 Torsion [CE2]-CZ--OH-[HH] |==|  0.86122
USER: genes 16 Torsion [N]-C--CA-[N] |==|  0.43010
USER: genes 17 Torsion [C]-CA--N-[C] |==|  0.78685
USER: genes 18 Torsion [N]-C--CA-[N] |==|  0.47615
USER: genes 19 Torsion [N]-C--CA-[CB] |==|  0.55496
USER: genes 20 Torsion [C]-CA--CB-[CG] |==|  0.44369
USER: genes 21 Torsion [CA]-CB--CG-[CD] |==|  0.94427
USER: genes 22 Torsion [CB]-CG--CD-[NE] |==|  0.52418
USER: genes 23 Torsion [CG]-CD--NE-[CZ] |==|  0.65813
ROOT
ATOM      1  C   ARG B  14      -9.905 -28.632  -9.593  1.00 32.92 LIG 0.24  C 
ATOM      2 O    ARG B  14      -9.216 -29.650  -9.679  1.00 37.82 LIG-0.27  OA
ATOM      3  N   PRO B  15     -10.361 -27.966 -10.657  1.00 31.88 LIG-0.34  N 
ATOM      4  CA  PRO B  15     -10.083 -28.461 -12.008  1.00 30.79 LIG 0.18  C 
ATOM      5  CB  PRO B  15     -10.831 -27.484 -12.891  1.00 31.22 LIG 0.04  C 
ATOM      6  CG  PRO B  15     -11.975 -27.053 -12.029  1.00 29.82 LIG 0.02  C 
ATOM      7  CD  PRO B  15     -11.362 -26.887 -10.676  1.00 31.43 LIG 0.13  C 
ENDROOT
BRANCH 4 8
ATOM      8  C   PRO B  15      -8.605 -28.371 -12.291  1.00 33.68 LIG 0.24  C 
ATOM      9  N   ILE B  16      -8.112 -29.272 -13.118  1.00 35.41 LIG-0.35  N 
ATOM     10 H    ILE B  16      -8.562 -29.929 -13.445  1.00 35.41 LIG 0.16  HD
ATOM     11 O    PRO B  15      -7.918 -27.532 -11.728  1.00 34.05 LIG-0.27  OA
BRANCH 9 12
ATOM     12  CA  ILE B  16      -6.772 -29.214 -13.531  1.00 37.77 LIG 0.18  C 
BRANCH 12 13
ATOM     13  CB  ILE B  16      -5.817 -29.321 -12.352  1.00 42.27 LIG 0.01  C 
ATOM     14  CG2 ILE B  16      -5.638 -30.762 -11.968  1.00 44.80 LIG 0.01  C 
BRANCH 13 15
ATOM     15  CG1 ILE B  16      -4.488 -28.650 -12.740  1.00 47.53 LIG 0.00  C 
ATOM     16  CD1 ILE B  16      -4.422 -27.140 -12.537  1.00 51.74 LIG 0.01  C 
ENDBRANCH 13 15
ENDBRANCH 12 13
BRANCH 12 17
ATOM     17  C   ILE B  16      -6.616 -30.324 -14.521  1.00 42.33 LIG 0.24  C 
ATOM     18 O    ILE B  16      -7.567 -30.928 -14.931  1.00 39.29 LIG-0.27  OA
ATOM     19  N   TYR B  17      -5.380 -30.536 -14.931  1.00 46.96 LIG-0.35  N 
ATOM     20 H    TYR B  17      -4.693 -30.178 -14.556  1.00 46.96 LIG 0.16  HD
BRANCH 19 21
ATOM     21  CA  TYR B  17      -5.049 -31.385 -16.041  1.00 51.19 LIG 0.18  C 
BRANCH 21 22
ATOM     22  C   TYR B  17      -5.776 -30.934 -17.256  1.00 56.10 LIG 0.24  C 
ATOM     23  N   ASN B  18      -6.186 -31.860 -18.101  1.00 65.39 LIG-0.35  N 
ATOM     24 H    ASN B  18      -6.195 -32.701 -17.926  1.00 65.39 LIG 0.16  HD
ATOM     25 O    TYR B  17      -6.031 -29.751 -17.397  1.00 61.36 LIG-0.27  OA
BRANCH 23 26
ATOM     26  CA  ASN B  18      -6.674 -31.508 -19.444  1.00 70.74 LIG 0.17  C 
BRANCH 26 27
ATOM     27  CB  ASN B  18      -5.762 -32.158 -20.496  1.00 84.74 LIG 0.14  C 
BRANCH 27 28
ATOM     28  CG  ASN B  18      -4.673 -33.037 -19.868  1.00 96.34 LIG 0.22  C 
ATOM     29 OD1  ASN B  18      -3.589 -32.552 -19.510  1.00 99.44 LIG-0.27  OA
ATOM     30  ND2 ASN B  18      -4.950 -34.342 -19.749  1.00 94.73 LIG-0.37  N 
ATOM     31 21HD ASN B  18      -4.365 -34.877 -19.414  1.00 94.73 LIG 0.16  HD
ATOM     32 22HD ASN B  18      -5.712 -34.646 -20.008  1.00 94.73 LIG 0.16  HD
ENDBRANCH 27 28
ENDBRANCH 26 27
BRANCH 26 33
ATOM     33  C   ASN B  18      -8.171 -31.743 -19.760  1.00 72.97 LIG 0.22  C 
ATOM     34 O    ASN B  18      -8.919 -30.841 -20.165  1.00 74.17 LIG-0.29  OA
ENDBRANCH 26 33
ENDBRANCH 23 26
ENDBRANCH 21 22
BRANCH 21 35
ATOM     35  CB  TYR B  17      -5.541 -32.787 -15.723  1.00 54.83 LIG 0.07  C 
BRANCH 35 36
ATOM     36  CG  TYR B  17      -4.485 -33.593 -15.068  1.00 56.96 LIG-0.06  A 
ATOM     37  CD2 TYR B  17      -4.213 -33.419 -13.706  1.00 61.26 LIG 0.01  A 
ATOM     38  CE2 TYR B  17      -3.228 -34.148 -13.080  1.00 70.21 LIG 0.04  A 
ATOM     39  CZ  TYR B  17      -2.494 -35.051 -13.829  1.00 76.40 LIG 0.07  A 
ATOM     40  CE1 TYR B  17      -2.739 -35.234 -15.185  1.00 67.10 LIG 0.04  A 
ATOM     41  CD1 TYR B  17      -3.735 -34.493 -15.794  1.00 57.92 LIG 0.01  A 
BRANCH 39 42
ATOM     42 OH   TYR B  17      -1.511 -35.768 -13.212  1.00 89.25 LIG-0.36  OA
ATOM     43 HH   TYR B  17      -1.016 -35.248 -12.777  1.00 89.25 LIG 0.22  HD
ENDBRANCH 39 42
ENDBRANCH 35 36
ENDBRANCH 21 35
ENDBRANCH 19 21
ENDBRANCH 12 17
ENDBRANCH 9 12
ENDBRANCH 4 8
BRANCH 1 44
ATOM     44  CA  ARG B  14     -10.216 -28.074  -8.236  1.00 32.45 LIG 0.18  C 
BRANCH 44 45
ATOM     45  N   ARG B  14     -10.160 -29.237  -7.379  1.00 38.19 LIG-0.35  N 
ATOM     46 H    ARG B  14      -9.440 -29.287  -6.911  1.00 38.19 LIG 0.16  HD
ATOM     47  C   PRO B  13     -11.135 -30.148  -7.319  1.00 38.91 LIG 0.24  C 
ATOM     48 O    PRO B  13     -12.161 -30.072  -7.965  1.00 32.88 LIG-0.27  OA
BRANCH 47 49
ATOM     49  CA  PRO B  13     -10.921 -31.314  -6.332  1.00 38.31 LIG 0.18  C 
ATOM     50  N   PRO B  13     -12.082 -32.161  -6.162  1.00 38.88 LIG-0.34  N 
ATOM     51  CD  PRO B  13     -11.741 -33.583  -6.320  1.00 43.50 LIG 0.13  C 
ATOM     52  C   PRO B  12     -13.313 -31.713  -5.867  1.00 40.77 LIG 0.26  C 
ATOM     53  CG  PRO B  13     -10.251 -33.592  -6.274  1.00 43.53 LIG 0.02  C 
ATOM     54  CB  PRO B  13      -9.854 -32.280  -6.848  1.00 39.91 LIG 0.04  C 
ATOM     55 O    PRO B  12     -13.574 -30.521  -5.645  1.00 44.45 LIG-0.27  OA
BRANCH 52 56
ATOM     56  CA  PRO B  12     -14.421 -32.734  -5.811  1.00 38.46 LIG 0.35  C 
ATOM     57  CB  PRO B  12     -15.764 -32.018  -5.960  1.00 43.42 LIG 0.05  C 
ATOM     58  CG  PRO B  12     -16.664 -32.692  -5.008  1.00 41.12 LIG 0.04  C 
ATOM     59  CD  PRO B  12     -15.793 -33.098  -3.856  1.00 39.74 LIG 0.32  C 
ATOM     60  N   PRO B  12     -14.483 -33.293  -4.482  1.00 38.12 LIG 0.32  N 
ENDBRANCH 52 56
ENDBRANCH 47 49
ENDBRANCH 44 45
BRANCH 44 61
ATOM     61  CB  ARG B  14      -9.091 -27.121  -7.821  1.00 34.42 LIG 0.04  C 
BRANCH 61 62
ATOM     62  CG  ARG B  14      -9.467 -26.120  -6.727  1.00 32.66 LIG 0.02  C 
BRANCH 62 63
ATOM     63  CD  ARG B  14     -10.975 -25.988  -6.669  1.00 35.24 LIG 0.14  C 
BRANCH 63 64
ATOM     64  NE  ARG B  14     -11.421 -24.896  -5.786  1.00 42.22 LIG-0.23  N 
ATOM     65  CZ  ARG B  14     -12.244 -25.017  -4.741  1.00 44.72 LIG 0.67  C 
ATOM     66  NH2 ARG B  14     -12.770 -26.179  -4.405  1.00 43.48 LIG-0.23  N 
ATOM     67  NH1 ARG B  14     -12.557 -23.949  -4.030  1.00 46.51 LIG-0.23  N 
ATOM     68 1HH2 ARG B  14     -12.585 -26.884  -4.863  1.00 43.48 LIG 0.17  HD
ATOM     69 2HH2 ARG B  14     -13.297 -26.233  -3.727  1.00 43.48 LIG 0.17  HD
ATOM     70 2HH1 ARG B  14     -13.086 -24.021  -3.356  1.00 46.51 LIG 0.17  HD
ATOM     71 1HH1 ARG B  14     -12.231 -23.182  -4.241  1.00 46.51 LIG 0.17  HD
ATOM     72 HE   ARG B  14     -11.125 -24.107  -5.959  1.00 42.22 LIG 0.18  HD
ENDBRANCH 63 64
ENDBRANCH 62 63
ENDBRANCH 61 62
ENDBRANCH 44 61
ENDBRANCH 1 44
TORSDOF 22
ENDMDL
MODEL 15
USER: ADFR SOLUTION from run 83
USER: SCORE 22.520100 LL:  -4.657 LR: -19.420 RR:   0.000 FEB: -12.857
USER: RMSD 3.807829
USER: SEED 82
USER: STATUS no improvement in best in 15 clusters for 5 generations
USER: GENES 24
USER: genes 0 Translation |==|  0.45821 0.45801 0.57366
USER: genes 1 Rotation |==|  0.59626 0.50621 0.46518 0.98937
USER: genes 2 Torsion [N]-CA--C-[O] |==|  0.88804
USER: genes 3 Torsion [C]-N--CA-[CB] |==|  0.29440
USER: genes 4 Torsion [N]-CA--CB-[CG2] |==|  0.97691
USER: genes 5 Torsion [CA]-CB--CG1-[CD1] |==|  0.47433
USER: genes 6 Torsion [N]-CA--C-[N] |==|  0.34780
USER: genes 7 Torsion [C]-N--CA-[C] |==|  0.85967
USER: genes 8 Torsion [N]-CA--C-[N] |==|  0.36644
USER: genes 9 Torsion [C]-N--CA-[CB] |==|  0.43562
USER: genes 10 Torsion [N]-CA--CB-[CG] |==|  0.59459
USER: genes 11 Torsion [CA]-CB--CG-[ND2] |==|  0.41676
USER: genes 12 Torsion [N]-CA--C-[O] |==|  0.03764
USER: genes 13 Torsion [N]-CA--CB-[CG] |==|  0.05042
USER: genes 14 Torsion [CA]-CB--CG-[CD2] |==|  0.22378
USER: genes 15 Torsion [CE2]-CZ--OH-[HH] |==|  0.93682
USER: genes 16 Torsion [N]-C--CA-[N] |==|  0.39068
USER: genes 17 Torsion [C]-CA--N-[C] |==|  0.59301
USER: genes 18 Torsion [N]-C--CA-[N] |==|  0.19653
USER: genes 19 Torsion [N]-C--CA-[CB] |==|  0.75493
USER: genes 20 Torsion [C]-CA--CB-[CG] |==|  0.40037
USER: genes 21 Torsion [CA]-CB--CG-[CD] |==|  0.00867
USER: genes 22 Torsion [CB]-CG--CD-[NE] |==|  0.79943
USER: genes 23 Torsion [CG]-CD--NE-[CZ] |==|  0.75985
ROOT
ATOM      1  C   ARG B  14     -10.389 -29.433  -9.889  1.00 32.92 LIG 0.24  C 
ATOM      2 O    ARG B  14      -9.757 -30.411 -10.292  1.00 37.82 LIG-0.27  OA
ATOM      3  N   PRO B  15     -10.744 -28.416 -10.680  1.00 31.88 LIG-0.34  N 
ATOM      4  CA  PRO B  15     -10.418 -28.448 -12.108  1.00 30.79 LIG 0.18  C 
ATOM      5  CB  PRO B  15     -11.055 -27.178 -12.633  1.00 31.22 LIG 0.04  C 
ATOM      6  CG  PRO B  15     -12.219 -26.978 -11.716  1.00 29.82 LIG 0.02  C 
ATOM      7  CD  PRO B  15     -11.677 -27.322 -10.366  1.00 31.43 LIG 0.13  C 
ENDROOT
BRANCH 4 8
ATOM      8  C   PRO B  15      -8.923 -28.378 -12.292  1.00 33.68 LIG 0.24  C 
ATOM      9  N   ILE B  16      -8.406 -29.193 -13.191  1.00 35.41 LIG-0.35  N 
ATOM     10 H    ILE B  16      -8.854 -29.790 -13.620  1.00 35.41 LIG 0.16  HD
ATOM     11 O    PRO B  15      -8.247 -27.638 -11.593  1.00 34.05 LIG-0.27  OA
BRANCH 9 12
ATOM     12  CA  ILE B  16      -7.041 -29.135 -13.516  1.00 37.77 LIG 0.18  C 
BRANCH 12 13
ATOM     13  CB  ILE B  16      -6.275 -30.308 -12.925  1.00 42.27 LIG 0.01  C 
ATOM     14  CG2 ILE B  16      -7.163 -31.082 -11.994  1.00 44.80 LIG 0.01  C 
BRANCH 13 15
ATOM     15  CG1 ILE B  16      -5.743 -31.174 -14.080  1.00 47.53 LIG 0.00  C 
ATOM     16  CD1 ILE B  16      -4.764 -32.276 -13.689  1.00 51.74 LIG 0.01  C 
ENDBRANCH 13 15
ENDBRANCH 12 13
BRANCH 12 17
ATOM     17  C   ILE B  16      -6.994 -29.090 -15.010  1.00 42.33 LIG 0.24  C 
ATOM     18 O    ILE B  16      -7.573 -29.904 -15.675  1.00 39.29 LIG-0.27  OA
ATOM     19  N   TYR B  17      -6.322 -28.074 -15.516  1.00 46.96 LIG-0.35  N 
ATOM     20 H    TYR B  17      -5.822 -27.560 -15.042  1.00 46.96 LIG 0.16  HD
BRANCH 19 21
ATOM     21  CA  TYR B  17      -6.354 -27.718 -16.907  1.00 51.19 LIG 0.18  C 
BRANCH 21 22
ATOM     22  C   TYR B  17      -6.078 -28.918 -17.742  1.00 56.10 LIG 0.24  C 
ATOM     23  N   ASN B  18      -6.887 -29.154 -18.756  1.00 65.39 LIG-0.35  N 
ATOM     24 H    ASN B  18      -7.463 -28.590 -19.054  1.00 65.39 LIG 0.16  HD
ATOM     25 O    TYR B  17      -5.090 -29.591 -17.513  1.00 61.36 LIG-0.27  OA
BRANCH 23 26
ATOM     26  CA  ASN B  18      -6.861 -30.440 -19.472  1.00 70.74 LIG 0.17  C 
BRANCH 26 27
ATOM     27  CB  ASN B  18      -8.215 -30.659 -20.162  1.00 84.74 LIG 0.14  C 
BRANCH 27 28
ATOM     28  CG  ASN B  18      -8.625 -32.137 -20.200  1.00 96.34 LIG 0.22  C 
ATOM     29 OD1  ASN B  18      -7.771 -33.035 -20.260  1.00 99.44 LIG-0.27  OA
ATOM     30  ND2 ASN B  18      -9.939 -32.396 -20.183  1.00 94.73 LIG-0.37  N 
ATOM     31 21HD ASN B  18     -10.217 -33.209 -20.214  1.00 94.73 LIG 0.16  HD
ATOM     32 22HD ASN B  18     -10.504 -31.749 -20.141  1.00 94.73 LIG 0.16  HD
ENDBRANCH 27 28
ENDBRANCH 26 27
BRANCH 26 33
ATOM     33  C   ASN B  18      -5.678 -30.715 -20.431  1.00 72.97 LIG 0.22  C 
ATOM     34 O    ASN B  18      -4.647 -30.025 -20.438  1.00 74.17 LIG-0.29  OA
ENDBRANCH 26 33
ENDBRANCH 23 26
ENDBRANCH 21 22
BRANCH 21 35
ATOM     35  CB  TYR B  17      -5.231 -26.728 -17.166  1.00 54.83 LIG 0.07  C 
BRANCH 35 36
ATOM     36  CG  TYR B  17      -4.221 -26.765 -16.084  1.00 56.96 LIG-0.06  A 
ATOM     37  CD2 TYR B  17      -3.241 -27.765 -16.072  1.00 61.26 LIG 0.01  A 
ATOM     38  CE2 TYR B  17      -2.300 -27.825 -15.070  1.00 70.21 LIG 0.04  A 
ATOM     39  CZ  TYR B  17      -2.349 -26.883 -14.057  1.00 76.40 LIG 0.07  A 
ATOM     40  CE1 TYR B  17      -3.317 -25.886 -14.043  1.00 67.10 LIG 0.04  A 
ATOM     41  CD1 TYR B  17      -4.253 -25.842 -15.061  1.00 57.92 LIG 0.01  A 
BRANCH 39 42
ATOM     42 OH   TYR B  17      -1.422 -26.946 -13.058  1.00 89.25 LIG-0.36  OA
ATOM     43 HH   TYR B  17      -1.117 -27.727 -13.008  1.00 89.25 LIG 0.22  HD
ENDBRANCH 39 42
ENDBRANCH 35 36
ENDBRANCH 21 35
ENDBRANCH 19 21
ENDBRANCH 12 17
ENDBRANCH 9 12
ENDBRANCH 4 8
BRANCH 1 44
ATOM     44  CA  ARG B  14     -10.746 -29.342  -8.435  1.00 32.45 LIG 0.18  C 
BRANCH 44 45
ATOM     45  N   ARG B  14     -11.143 -30.692  -8.106  1.00 38.19 LIG-0.35  N 
ATOM     46 H    ARG B  14     -10.710 -31.296  -8.540  1.00 38.19 LIG 0.16  HD
ATOM     47  C   PRO B  13     -12.094 -30.977  -7.212  1.00 38.91 LIG 0.24  C 
ATOM     48 O    PRO B  13     -12.696 -30.129  -6.584  1.00 32.88 LIG-0.27  OA
BRANCH 47 49
ATOM     49  CA  PRO B  13     -12.374 -32.473  -6.966  1.00 38.31 LIG 0.18  C 
ATOM     50  N   PRO B  13     -11.317 -33.161  -6.255  1.00 38.88 LIG-0.34  N 
ATOM     51  CD  PRO B  13     -11.843 -33.927  -5.116  1.00 43.50 LIG 0.13  C 
ATOM     52  C   PRO B  12     -10.021 -33.130  -6.605  1.00 40.77 LIG 0.26  C 
ATOM     53  CG  PRO B  13     -13.314 -33.941  -5.352  1.00 43.53 LIG 0.02  C 
ATOM     54  CB  PRO B  13     -13.589 -32.661  -6.057  1.00 39.91 LIG 0.04  C 
ATOM     55 O    PRO B  12      -9.599 -32.556  -7.621  1.00 44.45 LIG-0.27  OA
BRANCH 52 56
ATOM     56  CA  PRO B  12      -9.047 -33.838  -5.698  1.00 38.46 LIG 0.35  C 
ATOM     57  CB  PRO B  12      -8.584 -32.865  -4.612  1.00 43.42 LIG 0.05  C 
ATOM     58  CG  PRO B  12      -7.145 -33.132  -4.449  1.00 41.12 LIG 0.04  C 
ATOM     59  CD  PRO B  12      -6.654 -33.521  -5.812  1.00 39.74 LIG 0.32  C 
ATOM     60  N   PRO B  12      -7.838 -34.123  -6.432  1.00 38.12 LIG 0.32  N 
ENDBRANCH 52 56
ENDBRANCH 47 49
ENDBRANCH 44 45
BRANCH 44 61
ATOM     61  CB  ARG B  14      -9.483 -29.007  -7.634  1.00 34.42 LIG 0.04  C 
BRANCH 61 62
ATOM     62  CG  ARG B  14      -9.707 -28.086  -6.436  1.00 32.66 LIG 0.02  C 
BRANCH 62 63
ATOM     63  CD  ARG B  14     -11.187 -27.791  -6.302  1.00 35.24 LIG 0.14  C 
BRANCH 63 64
ATOM     64  NE  ARG B  14     -11.689 -26.885  -7.350  1.00 42.22 LIG-0.23  N 
ATOM     65  CZ  ARG B  14     -11.670 -25.551  -7.311  1.00 44.72 LIG 0.67  C 
ATOM     66  NH2 ARG B  14     -11.194 -24.896  -6.268  1.00 43.48 LIG-0.23  N 
ATOM     67  NH1 ARG B  14     -12.151 -24.861  -8.328  1.00 46.51 LIG-0.23  N 
ATOM     68 1HH2 ARG B  14     -10.886 -25.329  -5.592  1.00 43.48 LIG 0.17  HD
ATOM     69 2HH2 ARG B  14     -11.192 -24.036  -6.266  1.00 43.48 LIG 0.17  HD
ATOM     70 2HH1 ARG B  14     -12.142 -24.002  -8.308  1.00 46.51 LIG 0.17  HD
ATOM     71 1HH1 ARG B  14     -12.474 -25.271  -9.011  1.00 46.51 LIG 0.17  HD
ATOM     72 HE   ARG B  14     -12.026 -27.250  -8.053  1.00 42.22 LIG 0.18  HD
ENDBRANCH 63 64
ENDBRANCH 62 63
ENDBRANCH 61 62
ENDBRANCH 44 61
ENDBRANCH 1 44
TORSDOF 22
ENDMDL
MODEL 16
USER: ADFR SOLUTION from run 173
USER: SCORE 22.936637 LL:  -5.030 LR: -19.368 RR:   0.000 FEB: -12.805
USER: RMSD 5.243040
USER: SEED 172
USER: STATUS no improvement in best in 27 clusters for 5 generations
USER: GENES 24
USER: genes 0 Translation |==|  0.45184 0.42528 0.59075
USER: genes 1 Rotation |==|  0.59341 0.44502 0.37972 0.97306
USER: genes 2 Torsion [N]-CA--C-[O] |==|  0.96656
USER: genes 3 Torsion [C]-N--CA-[CB] |==|  0.46667
USER: genes 4 Torsion [N]-CA--CB-[CG2] |==|  0.23712
USER: genes 5 Torsion [CA]-CB--CG1-[CD1] |==|  0.56248
USER: genes 6 Torsion [N]-CA--C-[N] |==|  0.51626
USER: genes 7 Torsion [C]-N--CA-[C] |==|  0.83599
USER: genes 8 Torsion [N]-CA--C-[N] |==|  0.94418
USER: genes 9 Torsion [C]-N--CA-[CB] |==|  0.39029
USER: genes 10 Torsion [N]-CA--CB-[CG] |==|  0.33746
USER: genes 11 Torsion [CA]-CB--CG-[ND2] |==|  0.69407
USER: genes 12 Torsion [N]-CA--C-[O] |==|  0.26622
USER: genes 13 Torsion [N]-CA--CB-[CG] |==|  0.87126
USER: genes 14 Torsion [CA]-CB--CG-[CD2] |==|  0.88940
USER: genes 15 Torsion [CE2]-CZ--OH-[HH] |==|  0.87413
USER: genes 16 Torsion [N]-C--CA-[N] |==|  0.42365
USER: genes 17 Torsion [C]-CA--N-[C] |==|  0.54114
USER: genes 18 Torsion [N]-C--CA-[N] |==|  0.23645
USER: genes 19 Torsion [N]-C--CA-[CB] |==|  0.80040
USER: genes 20 Torsion [C]-CA--CB-[CG] |==|  0.32210
USER: genes 21 Torsion [CA]-CB--CG-[CD] |==|  0.10427
USER: genes 22 Torsion [CB]-CG--CD-[NE] |==|  0.73978
USER: genes 23 Torsion [CG]-CD--NE-[CZ] |==|  0.71380
ROOT
ATOM      1  C   ARG B  14     -10.533 -30.047  -9.415  1.00 32.92 LIG 0.24  C 
ATOM      2 O    ARG B  14     -10.262 -31.211  -9.716  1.00 37.82 LIG-0.27  OA
ATOM      3  N   PRO B  15     -10.340 -29.015 -10.240  1.00 31.88 LIG-0.34  N 
ATOM      4  CA  PRO B  15      -9.820 -29.242 -11.592  1.00 30.79 LIG 0.18  C 
ATOM      5  CB  PRO B  15      -9.832 -27.855 -12.201  1.00 31.22 LIG 0.04  C 
ATOM      6  CG  PRO B  15     -10.968 -27.184 -11.495  1.00 29.82 LIG 0.02  C 
ATOM      7  CD  PRO B  15     -10.826 -27.635 -10.077  1.00 31.43 LIG 0.13  C 
ENDROOT
BRANCH 4 8
ATOM      8  C   PRO B  15      -8.402 -29.748 -11.514  1.00 33.68 LIG 0.24  C 
ATOM      9  N   ILE B  16      -7.911 -30.281 -12.617  1.00 35.41 LIG-0.35  N 
ATOM     10 H    ILE B  16      -8.364 -30.410 -13.338  1.00 35.41 LIG 0.16  HD
ATOM     11 O    PRO B  15      -7.786 -29.704 -10.460  1.00 34.05 LIG-0.27  OA
BRANCH 9 12
ATOM     12  CA  ILE B  16      -6.569 -30.687 -12.685  1.00 37.77 LIG 0.18  C 
BRANCH 12 13
ATOM     13  CB  ILE B  16      -6.300 -31.528 -13.923  1.00 42.27 LIG 0.01  C 
ATOM     14  CG2 ILE B  16      -6.004 -30.634 -15.094  1.00 44.80 LIG 0.01  C 
BRANCH 13 15
ATOM     15  CG1 ILE B  16      -5.141 -32.491 -13.615  1.00 47.53 LIG 0.00  C 
ATOM     16  CD1 ILE B  16      -4.379 -33.023 -14.825  1.00 51.74 LIG 0.01  C 
ENDBRANCH 13 15
ENDBRANCH 12 13
BRANCH 12 17
ATOM     17  C   ILE B  16      -5.773 -29.422 -12.645  1.00 42.33 LIG 0.24  C 
ATOM     18 O    ILE B  16      -6.295 -28.366 -12.420  1.00 39.29 LIG-0.27  OA
ATOM     19  N   TYR B  17      -4.473 -29.575 -12.821  1.00 46.96 LIG-0.35  N 
ATOM     20 H    TYR B  17      -4.120 -30.312 -13.088  1.00 46.96 LIG 0.16  HD
BRANCH 19 21
ATOM     21  CA  TYR B  17      -3.515 -28.531 -12.586  1.00 51.19 LIG 0.18  C 
BRANCH 21 22
ATOM     22  C   TYR B  17      -3.821 -27.361 -13.450  1.00 56.10 LIG 0.24  C 
ATOM     23  N   ASN B  18      -4.572 -27.568 -14.514  1.00 65.39 LIG-0.35  N 
ATOM     24 H    ASN B  18      -5.014 -28.291 -14.659  1.00 65.39 LIG 0.16  HD
ATOM     25 O    TYR B  17      -3.438 -26.254 -13.116  1.00 61.36 LIG-0.27  OA
BRANCH 23 26
ATOM     26  CA  ASN B  18      -4.712 -26.545 -15.563  1.00 70.74 LIG 0.17  C 
BRANCH 26 27
ATOM     27  CB  ASN B  18      -4.714 -27.231 -16.938  1.00 84.74 LIG 0.14  C 
BRANCH 27 28
ATOM     28  CG  ASN B  18      -5.991 -26.942 -17.738  1.00 96.34 LIG 0.22  C 
ATOM     29 OD1  ASN B  18      -6.222 -25.807 -18.183  1.00 99.44 LIG-0.27  OA
ATOM     30  ND2 ASN B  18      -6.837 -27.966 -17.908  1.00 94.73 LIG-0.37  N 
ATOM     31 21HD ASN B  18      -7.572 -27.849 -18.339  1.00 94.73 LIG 0.16  HD
ATOM     32 22HD ASN B  18      -6.646 -28.740 -17.585  1.00 94.73 LIG 0.16  HD
ENDBRANCH 27 28
ENDBRANCH 26 27
BRANCH 26 33
ATOM     33  C   ASN B  18      -5.865 -25.520 -15.432  1.00 72.97 LIG 0.22  C 
ATOM     34 O    ASN B  18      -5.708 -24.397 -14.931  1.00 74.17 LIG-0.29  OA
ENDBRANCH 26 33
ENDBRANCH 23 26
ENDBRANCH 21 22
BRANCH 21 35
ATOM     35  CB  TYR B  17      -2.148 -29.046 -13.002  1.00 54.83 LIG 0.07  C 
BRANCH 35 36
ATOM     36  CG  TYR B  17      -1.901 -30.407 -12.474  1.00 56.96 LIG-0.06  A 
ATOM     37  CD2 TYR B  17      -2.313 -30.743 -11.179  1.00 61.26 LIG 0.01  A 
ATOM     38  CE2 TYR B  17      -2.083 -31.998 -10.663  1.00 70.21 LIG 0.04  A 
ATOM     39  CZ  TYR B  17      -1.419 -32.925 -11.447  1.00 76.40 LIG 0.07  A 
ATOM     40  CE1 TYR B  17      -0.993 -32.612 -12.733  1.00 67.10 LIG 0.04  A 
ATOM     41  CD1 TYR B  17      -1.236 -31.346 -13.233  1.00 57.92 LIG 0.01  A 
BRANCH 39 42
ATOM     42 OH   TYR B  17      -1.183 -34.167 -10.935  1.00 89.25 LIG-0.36  OA
ATOM     43 HH   TYR B  17      -0.894 -34.096 -10.150  1.00 89.25 LIG 0.22  HD
ENDBRANCH 39 42
ENDBRANCH 35 36
ENDBRANCH 21 35
ENDBRANCH 19 21
ENDBRANCH 12 17
ENDBRANCH 9 12
ENDBRANCH 4 8
BRANCH 1 44
ATOM     44  CA  ARG B  14     -11.061 -29.752  -8.043  1.00 32.45 LIG 0.18  C 
BRANCH 44 45
ATOM     45  N   ARG B  14     -11.758 -30.968  -7.688  1.00 38.19 LIG-0.35  N 
ATOM     46 H    ARG B  14     -11.567 -31.636  -8.194  1.00 38.19 LIG 0.16  HD
ATOM     47  C   PRO B  13     -12.620 -31.046  -6.670  1.00 38.91 LIG 0.24  C 
ATOM     48 O    PRO B  13     -12.880 -30.109  -5.942  1.00 32.88 LIG-0.27  OA
BRANCH 47 49
ATOM     49  CA  PRO B  13     -13.256 -32.428  -6.418  1.00 38.31 LIG 0.18  C 
ATOM     50  N   PRO B  13     -12.451 -33.305  -5.594  1.00 38.88 LIG-0.34  N 
ATOM     51  CD  PRO B  13     -13.236 -33.881  -4.493  1.00 43.50 LIG 0.13  C 
ATOM     52  C   PRO B  12     -11.157 -33.583  -5.820  1.00 40.77 LIG 0.26  C 
ATOM     53  CG  PRO B  13     -14.645 -33.572  -4.868  1.00 43.53 LIG 0.02  C 
ATOM     54  CB  PRO B  13     -14.556 -32.296  -5.624  1.00 39.91 LIG 0.04  C 
ATOM     55 O    PRO B  12     -10.527 -33.165  -6.803  1.00 44.45 LIG-0.27  OA
BRANCH 52 56
ATOM     56  CA  PRO B  12     -10.454 -34.452  -4.808  1.00 38.46 LIG 0.35  C 
ATOM     57  CB  PRO B  12     -10.239 -33.645  -3.526  1.00 43.42 LIG 0.05  C 
ATOM     58  CG  PRO B  12      -8.891 -34.017  -3.063  1.00 41.12 LIG 0.04  C 
ATOM     59  CD  PRO B  12      -8.097 -34.271  -4.310  1.00 39.74 LIG 0.32  C 
ATOM     60  N   PRO B  12      -9.113 -34.721  -5.265  1.00 38.12 LIG 0.32  N 
ENDBRANCH 52 56
ENDBRANCH 47 49
ENDBRANCH 44 45
BRANCH 44 61
ATOM     61  CB  ARG B  14      -9.880 -29.581  -7.081  1.00 34.42 LIG 0.04  C 
BRANCH 61 62
ATOM     62  CG  ARG B  14      -9.743 -28.186  -6.473  1.00 32.66 LIG 0.02  C 
BRANCH 62 63
ATOM     63  CD  ARG B  14     -11.122 -27.629  -6.183  1.00 35.24 LIG 0.14  C 
BRANCH 63 64
ATOM     64  NE  ARG B  14     -11.650 -26.801  -7.282  1.00 42.22 LIG-0.23  N 
ATOM     65  CZ  ARG B  14     -11.699 -25.467  -7.307  1.00 44.72 LIG 0.67  C 
ATOM     66  NH2 ARG B  14     -11.277 -24.740  -6.290  1.00 43.48 LIG-0.23  N 
ATOM     67  NH1 ARG B  14     -12.196 -24.853  -8.364  1.00 46.51 LIG-0.23  N 
ATOM     68 1HH2 ARG B  14     -10.959 -25.124  -5.589  1.00 43.48 LIG 0.17  HD
ATOM     69 2HH2 ARG B  14     -11.318 -23.882  -6.329  1.00 43.48 LIG 0.17  HD
ATOM     70 2HH1 ARG B  14     -12.230 -23.993  -8.386  1.00 46.51 LIG 0.17  HD
ATOM     71 1HH1 ARG B  14     -12.485 -25.311  -9.032  1.00 46.51 LIG 0.17  HD
ATOM     72 HE   ARG B  14     -11.954 -27.216  -7.972  1.00 42.22 LIG 0.18  HD
ENDBRANCH 63 64
ENDBRANCH 62 63
ENDBRANCH 61 62
ENDBRANCH 44 61
ENDBRANCH 1 44
TORSDOF 22
ENDMDL
MODEL 17
USER: ADFR SOLUTION from run 199
USER: SCORE 23.298992 LL:  -4.962 LR: -19.281 RR:   0.000 FEB: -12.718
USER: RMSD 4.290314
USER: SEED 198
USER: STATUS no improvement in best in 21 clusters for 5 generations
USER: GENES 24
USER: genes 0 Translation |==|  0.45898 0.46349 0.57241
USER: genes 1 Rotation |==|  0.61345 0.49615 0.42193 0.98064
USER: genes 2 Torsion [N]-CA--C-[O] |==|  0.88020
USER: genes 3 Torsion [C]-N--CA-[CB] |==|  0.50000
USER: genes 4 Torsion [N]-CA--CB-[CG2] |==|  0.35625
USER: genes 5 Torsion [CA]-CB--CG1-[CD1] |==|  0.94307
USER: genes 6 Torsion [N]-CA--C-[N] |==|  0.37928
USER: genes 7 Torsion [C]-N--CA-[C] |==|  0.78090
USER: genes 8 Torsion [N]-CA--C-[N] |==|  0.33137
USER: genes 9 Torsion [C]-N--CA-[CB] |==|  0.36042
USER: genes 10 Torsion [N]-CA--CB-[CG] |==|  0.74865
USER: genes 11 Torsion [CA]-CB--CG-[ND2] |==|  0.61010
USER: genes 12 Torsion [N]-CA--C-[O] |==|  0.96154
USER: genes 13 Torsion [N]-CA--CB-[CG] |==|  0.45130
USER: genes 14 Torsion [CA]-CB--CG-[CD2] |==|  0.12530
USER: genes 15 Torsion [CE2]-CZ--OH-[HH] |==|  0.06438
USER: genes 16 Torsion [N]-C--CA-[N] |==|  0.42242
USER: genes 17 Torsion [C]-CA--N-[C] |==|  0.59018
USER: genes 18 Torsion [N]-C--CA-[N] |==|  0.20069
USER: genes 19 Torsion [N]-C--CA-[CB] |==|  0.74843
USER: genes 20 Torsion [C]-CA--CB-[CG] |==|  0.40301
USER: genes 21 Torsion [CA]-CB--CG-[CD] |==|  0.00578
USER: genes 22 Torsion [CB]-CG--CD-[NE] |==|  0.80147
USER: genes 23 Torsion [CG]-CD--NE-[CZ] |==|  0.77692
ROOT
ATOM      1  C   ARG B  14     -10.372 -29.331  -9.923  1.00 32.92 LIG 0.24  C 
ATOM      2 O    ARG B  14      -9.919 -30.377 -10.391  1.00 37.82 LIG-0.27  OA
ATOM      3  N   PRO B  15     -10.525 -28.215 -10.643  1.00 31.88 LIG-0.34  N 
ATOM      4  CA  PRO B  15     -10.186 -28.208 -12.069  1.00 30.79 LIG 0.18  C 
ATOM      5  CB  PRO B  15     -10.577 -26.812 -12.507  1.00 31.22 LIG 0.04  C 
ATOM      6  CG  PRO B  15     -11.702 -26.468 -11.583  1.00 29.82 LIG 0.02  C 
ATOM      7  CD  PRO B  15     -11.252 -26.994 -10.258  1.00 31.43 LIG 0.13  C 
ENDROOT
BRANCH 4 8
ATOM      8  C   PRO B  15      -8.700 -28.396 -12.241  1.00 33.68 LIG 0.24  C 
ATOM      9  N   ILE B  16      -8.324 -29.271 -13.154  1.00 35.41 LIG-0.35  N 
ATOM     10 H    ILE B  16      -8.865 -29.772 -13.598  1.00 35.41 LIG 0.16  HD
ATOM     11 O    PRO B  15      -7.914 -27.798 -11.523  1.00 34.05 LIG-0.27  OA
BRANCH 9 12
ATOM     12  CA  ILE B  16      -6.967 -29.445 -13.468  1.00 37.77 LIG 0.18  C 
BRANCH 12 13
ATOM     13  CB  ILE B  16      -6.773 -30.502 -14.544  1.00 42.27 LIG 0.01  C 
ATOM     14  CG2 ILE B  16      -5.924 -29.952 -15.654  1.00 44.80 LIG 0.01  C 
BRANCH 13 15
ATOM     15  CG1 ILE B  16      -6.149 -31.750 -13.894  1.00 47.53 LIG 0.00  C 
ATOM     16  CD1 ILE B  16      -5.439 -31.522 -12.564  1.00 51.74 LIG 0.01  C 
ENDBRANCH 13 15
ENDBRANCH 12 13
BRANCH 12 17
ATOM     17  C   ILE B  16      -6.480 -28.092 -13.875  1.00 42.33 LIG 0.24  C 
ATOM     18 O    ILE B  16      -7.150 -27.370 -14.558  1.00 39.29 LIG-0.27  OA
ATOM     19  N   TYR B  17      -5.303 -27.751 -13.382  1.00 46.96 LIG-0.35  N 
ATOM     20 H    TYR B  17      -4.782 -28.309 -12.986  1.00 46.96 LIG 0.16  HD
BRANCH 19 21
ATOM     21  CA  TYR B  17      -4.770 -26.420 -13.457  1.00 51.19 LIG 0.18  C 
BRANCH 21 22
ATOM     22  C   TYR B  17      -4.214 -26.173 -14.813  1.00 56.10 LIG 0.24  C 
ATOM     23  N   ASN B  18      -4.746 -25.196 -15.521  1.00 65.39 LIG-0.35  N 
ATOM     24 H    ASN B  18      -5.280 -24.604 -15.200  1.00 65.39 LIG 0.16  HD
ATOM     25 O    TYR B  17      -3.255 -26.820 -15.194  1.00 61.36 LIG-0.27  OA
BRANCH 23 26
ATOM     26  CA  ASN B  18      -4.452 -25.043 -16.955  1.00 70.74 LIG 0.17  C 
BRANCH 26 27
ATOM     27  CB  ASN B  18      -5.773 -24.896 -17.726  1.00 84.74 LIG 0.14  C 
BRANCH 27 28
ATOM     28  CG  ASN B  18      -6.333 -26.246 -18.194  1.00 96.34 LIG 0.22  C 
ATOM     29 OD1  ASN B  18      -6.259 -27.253 -17.473  1.00 99.44 LIG-0.27  OA
ATOM     30  ND2 ASN B  18      -6.882 -26.276 -19.415  1.00 94.73 LIG-0.37  N 
ATOM     31 21HD ASN B  18      -7.199 -27.012 -19.726  1.00 94.73 LIG 0.16  HD
ATOM     32 22HD ASN B  18      -6.918 -25.559 -19.889  1.00 94.73 LIG 0.16  HD
ENDBRANCH 27 28
ENDBRANCH 26 27
BRANCH 26 33
ATOM     33  C   ASN B  18      -3.421 -23.968 -17.377  1.00 72.97 LIG 0.22  C 
ATOM     34 O    ASN B  18      -3.027 -23.079 -16.607  1.00 74.17 LIG-0.29  OA
ENDBRANCH 26 33
ENDBRANCH 23 26
ENDBRANCH 21 22
BRANCH 21 35
ATOM     35  CB  TYR B  17      -3.613 -26.322 -12.476  1.00 54.83 LIG 0.07  C 
BRANCH 35 36
ATOM     36  CG  TYR B  17      -2.753 -25.154 -12.774  1.00 56.96 LIG-0.06  A 
ATOM     37  CD2 TYR B  17      -3.330 -23.911 -13.057  1.00 61.26 LIG 0.01  A 
ATOM     38  CE2 TYR B  17      -2.549 -22.815 -13.349  1.00 70.21 LIG 0.04  A 
ATOM     39  CZ  TYR B  17      -1.174 -22.969 -13.374  1.00 76.40 LIG 0.07  A 
ATOM     40  CE1 TYR B  17      -0.579 -24.196 -13.106  1.00 67.10 LIG 0.04  A 
ATOM     41  CD1 TYR B  17      -1.381 -25.284 -12.813  1.00 57.92 LIG 0.01  A 
BRANCH 39 42
ATOM     42 OH   TYR B  17      -0.399 -21.887 -13.671  1.00 89.25 LIG-0.36  OA
ATOM     43 HH   TYR B  17      -0.824 -21.183 -13.501  1.00 89.25 LIG 0.22  HD
ENDBRANCH 39 42
ENDBRANCH 35 36
ENDBRANCH 21 35
ENDBRANCH 19 21
ENDBRANCH 12 17
ENDBRANCH 9 12
ENDBRANCH 4 8
BRANCH 1 44
ATOM     44  CA  ARG B  14     -10.730 -29.275  -8.468  1.00 32.45 LIG 0.18  C 
BRANCH 44 45
ATOM     45  N   ARG B  14     -11.110 -30.638  -8.169  1.00 38.19 LIG-0.35  N 
ATOM     46 H    ARG B  14     -10.679 -31.225  -8.625  1.00 38.19 LIG 0.16  HD
ATOM     47  C   PRO B  13     -12.044 -30.954  -7.267  1.00 38.91 LIG 0.24  C 
ATOM     48 O    PRO B  13     -12.643 -30.129  -6.608  1.00 32.88 LIG-0.27  OA
BRANCH 47 49
ATOM     49  CA  PRO B  13     -12.308 -32.459  -7.057  1.00 38.31 LIG 0.18  C 
ATOM     50  N   PRO B  13     -11.248 -33.149  -6.352  1.00 38.88 LIG-0.34  N 
ATOM     51  CD  PRO B  13     -11.774 -33.946  -5.234  1.00 43.50 LIG 0.13  C 
ATOM     52  C   PRO B  12      -9.950 -33.094  -6.689  1.00 40.77 LIG 0.26  C 
ATOM     53  CG  PRO B  13     -13.243 -33.974  -5.485  1.00 43.53 LIG 0.02  C 
ATOM     54  CB  PRO B  13     -13.528 -32.683  -6.164  1.00 39.91 LIG 0.04  C 
ATOM     55 O    PRO B  12      -9.525 -32.493  -7.687  1.00 44.45 LIG-0.27  OA
BRANCH 52 56
ATOM     56  CA  PRO B  12      -8.975 -33.809  -5.788  1.00 38.46 LIG 0.35  C 
ATOM     57  CB  PRO B  12      -8.490 -32.836  -4.711  1.00 43.42 LIG 0.05  C 
ATOM     58  CG  PRO B  12      -7.052 -33.120  -4.561  1.00 41.12 LIG 0.04  C 
ATOM     59  CD  PRO B  12      -6.580 -33.521  -5.927  1.00 39.74 LIG 0.32  C 
ATOM     60  N   PRO B  12      -7.776 -34.112  -6.532  1.00 38.12 LIG 0.32  N 
ENDBRANCH 52 56
ENDBRANCH 47 49
ENDBRANCH 44 45
BRANCH 44 61
ATOM     61  CB  ARG B  14      -9.472 -28.942  -7.659  1.00 34.42 LIG 0.04  C 
BRANCH 61 62
ATOM     62  CG  ARG B  14      -9.712 -28.069  -6.428  1.00 32.66 LIG 0.02  C 
BRANCH 62 63
ATOM     63  CD  ARG B  14     -11.195 -27.790  -6.295  1.00 35.24 LIG 0.14  C 
BRANCH 63 64
ATOM     64  NE  ARG B  14     -11.699 -26.861  -7.323  1.00 42.22 LIG-0.23  N 
ATOM     65  CZ  ARG B  14     -11.588 -25.531  -7.302  1.00 44.72 LIG 0.67  C 
ATOM     66  NH2 ARG B  14     -11.006 -24.900  -6.299  1.00 43.48 LIG-0.23  N 
ATOM     67  NH1 ARG B  14     -12.084 -24.819  -8.297  1.00 46.51 LIG-0.23  N 
ATOM     68 1HH2 ARG B  14     -10.687 -25.347  -5.637  1.00 43.48 LIG 0.17  HD
ATOM     69 2HH2 ARG B  14     -10.946 -24.042  -6.308  1.00 43.48 LIG 0.17  HD
ATOM     70 2HH1 ARG B  14     -12.016 -23.962  -8.289  1.00 46.51 LIG 0.17  HD
ATOM     71 1HH1 ARG B  14     -12.475 -25.213  -8.953  1.00 46.51 LIG 0.17  HD
ATOM     72 HE   ARG B  14     -12.102 -27.208  -7.999  1.00 42.22 LIG 0.18  HD
ENDBRANCH 63 64
ENDBRANCH 62 63
ENDBRANCH 61 62
ENDBRANCH 44 61
ENDBRANCH 1 44
TORSDOF 22
ENDMDL
MODEL 18
USER: ADFR SOLUTION from run 93
USER: SCORE 22.798339 LL:  -4.682 LR: -19.101 RR:   0.000 FEB: -12.538
USER: RMSD 3.833802
USER: SEED 92
USER: STATUS no improvement in best in 7 clusters for 5 generations
USER: GENES 24
USER: genes 0 Translation |==|  0.48783 0.48596 0.57790
USER: genes 1 Rotation |==|  0.52648 0.45651 0.39707 0.98663
USER: genes 2 Torsion [N]-CA--C-[O] |==|  0.88159
USER: genes 3 Torsion [C]-N--CA-[CB] |==|  0.51113
USER: genes 4 Torsion [N]-CA--CB-[CG2] |==|  0.21479
USER: genes 5 Torsion [CA]-CB--CG1-[CD1] |==|  0.59199
USER: genes 6 Torsion [N]-CA--C-[N] |==|  0.40767
USER: genes 7 Torsion [C]-N--CA-[C] |==|  0.58414
USER: genes 8 Torsion [N]-CA--C-[N] |==|  0.39478
USER: genes 9 Torsion [C]-N--CA-[CB] |==|  0.75271
USER: genes 10 Torsion [N]-CA--CB-[CG] |==|  0.91195
USER: genes 11 Torsion [CA]-CB--CG-[ND2] |==|  0.79686
USER: genes 12 Torsion [N]-CA--C-[O] |==|  0.74983
USER: genes 13 Torsion [N]-CA--CB-[CG] |==|  0.58644
USER: genes 14 Torsion [CA]-CB--CG-[CD2] |==|  0.14452
USER: genes 15 Torsion [CE2]-CZ--OH-[HH] |==|  0.21057
USER: genes 16 Torsion [N]-C--CA-[N] |==|  0.49686
USER: genes 17 Torsion [C]-CA--N-[C] |==|  0.76242
USER: genes 18 Torsion [N]-C--CA-[N] |==|  0.48864
USER: genes 19 Torsion [N]-C--CA-[CB] |==|  0.56286
USER: genes 20 Torsion [C]-CA--CB-[CG] |==|  0.47318
USER: genes 21 Torsion [CA]-CB--CG-[CD] |==|  0.88764
USER: genes 22 Torsion [CB]-CG--CD-[NE] |==|  0.52701
USER: genes 23 Torsion [CG]-CD--NE-[CZ] |==|  0.69015
ROOT
ATOM      1  C   ARG B  14      -9.723 -28.909  -9.771  1.00 32.92 LIG 0.24  C 
ATOM      2 O    ARG B  14      -9.400 -30.098  -9.794  1.00 37.82 LIG-0.27  OA
ATOM      3  N   PRO B  15      -9.680 -28.120 -10.848  1.00 31.88 LIG-0.34  N 
ATOM      4  CA  PRO B  15      -9.273 -28.668 -12.145  1.00 30.79 LIG 0.18  C 
ATOM      5  CB  PRO B  15      -9.439 -27.489 -13.082  1.00 31.22 LIG 0.04  C 
ATOM      6  CG  PRO B  15     -10.549 -26.709 -12.453  1.00 29.82 LIG 0.02  C 
ATOM      7  CD  PRO B  15     -10.245 -26.768 -10.990  1.00 31.43 LIG 0.13  C 
ENDROOT
BRANCH 4 8
ATOM      8  C   PRO B  15      -7.822 -29.074 -12.094  1.00 33.68 LIG 0.24  C 
ATOM      9  N   ILE B  16      -7.526 -30.252 -12.609  1.00 35.41 LIG-0.35  N 
ATOM     10 H    ILE B  16      -8.108 -30.812 -12.905  1.00 35.41 LIG 0.16  HD
ATOM     11 O    PRO B  15      -6.997 -28.355 -11.551  1.00 34.05 LIG-0.27  OA
BRANCH 9 12
ATOM     12  CA  ILE B  16      -6.193 -30.681 -12.709  1.00 37.77 LIG 0.18  C 
BRANCH 12 13
ATOM     13  CB  ILE B  16      -6.088 -32.021 -13.419  1.00 42.27 LIG 0.01  C 
ATOM     14  CG2 ILE B  16      -6.242 -31.828 -14.900  1.00 44.80 LIG 0.01  C 
BRANCH 13 15
ATOM     15  CG1 ILE B  16      -4.739 -32.663 -13.050  1.00 47.53 LIG 0.00  C 
ATOM     16  CD1 ILE B  16      -4.088 -33.512 -14.137  1.00 51.74 LIG 0.01  C 
ENDBRANCH 13 15
ENDBRANCH 12 13
BRANCH 12 17
ATOM     17  C   ILE B  16      -5.476 -29.577 -13.418  1.00 42.33 LIG 0.24  C 
ATOM     18 O    ILE B  16      -6.039 -28.887 -14.222  1.00 39.29 LIG-0.27  OA
ATOM     19  N   TYR B  17      -4.221 -29.401 -13.051  1.00 46.96 LIG-0.35  N 
ATOM     20 H    TYR B  17      -3.793 -29.962 -12.558  1.00 46.96 LIG 0.16  HD
BRANCH 19 21
ATOM     21  CA  TYR B  17      -3.438 -28.260 -13.433  1.00 51.19 LIG 0.18  C 
BRANCH 21 22
ATOM     22  C   TYR B  17      -2.004 -28.640 -13.530  1.00 56.10 LIG 0.24  C 
ATOM     23  N   ASN B  18      -1.294 -28.099 -14.501  1.00 65.39 LIG-0.35  N 
ATOM     24 H    ASN B  18      -1.560 -27.438 -14.982  1.00 65.39 LIG 0.16  HD
ATOM     25 O    TYR B  17      -1.519 -29.368 -12.683  1.00 61.36 LIG-0.27  OA
BRANCH 23 26
ATOM     26  CA  ASN B  18       0.046 -28.604 -14.842  1.00 70.74 LIG 0.17  C 
BRANCH 26 27
ATOM     27  CB  ASN B  18       1.092 -27.867 -13.993  1.00 84.74 LIG 0.14  C 
BRANCH 27 28
ATOM     28  CG  ASN B  18       0.678 -26.425 -13.669  1.00 96.34 LIG 0.22  C 
ATOM     29 OD1  ASN B  18       0.291 -26.112 -12.533  1.00 99.44 LIG-0.27  OA
ATOM     30  ND2 ASN B  18       0.739 -25.543 -14.675  1.00 94.73 LIG-0.37  N 
ATOM     31 21HD ASN B  18       0.506 -24.726 -14.545  1.00 94.73 LIG 0.16  HD
ATOM     32 22HD ASN B  18       1.012 -25.794 -15.451  1.00 94.73 LIG 0.16  HD
ENDBRANCH 27 28
ENDBRANCH 26 27
BRANCH 26 33
ATOM     33  C   ASN B  18       0.272 -30.135 -14.827  1.00 72.97 LIG 0.22  C 
ATOM     34 O    ASN B  18       0.646 -30.747 -13.816  1.00 74.17 LIG-0.29  OA
ENDBRANCH 26 33
ENDBRANCH 23 26
ENDBRANCH 21 22
BRANCH 21 35
ATOM     35  CB  TYR B  17      -3.549 -27.222 -12.329  1.00 54.83 LIG 0.07  C 
BRANCH 35 36
ATOM     36  CG  TYR B  17      -3.453 -25.847 -12.870  1.00 56.96 LIG-0.06  A 
ATOM     37  CD2 TYR B  17      -4.277 -25.450 -13.930  1.00 61.26 LIG 0.01  A 
ATOM     38  CE2 TYR B  17      -4.195 -24.182 -14.457  1.00 70.21 LIG 0.04  A 
ATOM     39  CZ  TYR B  17      -3.266 -23.303 -13.928  1.00 76.40 LIG 0.07  A 
ATOM     40  CE1 TYR B  17      -2.432 -23.676 -12.881  1.00 67.10 LIG 0.04  A 
ATOM     41  CD1 TYR B  17      -2.531 -24.955 -12.364  1.00 57.92 LIG 0.01  A 
BRANCH 39 42
ATOM     42 OH   TYR B  17      -3.178 -22.047 -14.454  1.00 89.25 LIG-0.36  OA
ATOM     43 HH   TYR B  17      -3.824 -21.584 -14.183  1.00 89.25 LIG 0.22  HD
ENDBRANCH 39 42
ENDBRANCH 35 36
ENDBRANCH 21 35
ENDBRANCH 19 21
ENDBRANCH 12 17
ENDBRANCH 9 12
ENDBRANCH 4 8
BRANCH 1 44
ATOM     44  CA  ARG B  14     -10.142 -28.291  -8.471  1.00 32.45 LIG 0.18  C 
BRANCH 44 45
ATOM     45  N   ARG B  14     -10.105 -29.403  -7.548  1.00 38.19 LIG-0.35  N 
ATOM     46 H    ARG B  14      -9.364 -29.471  -7.117  1.00 38.19 LIG 0.16  HD
ATOM     47  C   PRO B  13     -11.127 -30.248  -7.381  1.00 38.91 LIG 0.24  C 
ATOM     48 O    PRO B  13     -12.182 -30.146  -7.975  1.00 32.88 LIG-0.27  OA
BRANCH 47 49
ATOM     49  CA  PRO B  13     -10.926 -31.365  -6.338  1.00 38.31 LIG 0.18  C 
ATOM     50  N   PRO B  13     -12.095 -32.193  -6.129  1.00 38.88 LIG-0.34  N 
ATOM     51  CD  PRO B  13     -11.765 -33.623  -6.216  1.00 43.50 LIG 0.13  C 
ATOM     52  C   PRO B  12     -13.323 -31.720  -5.862  1.00 40.77 LIG 0.26  C 
ATOM     53  CG  PRO B  13     -10.276 -33.643  -6.165  1.00 43.53 LIG 0.02  C 
ATOM     54  CB  PRO B  13      -9.866 -32.364  -6.802  1.00 39.91 LIG 0.04  C 
ATOM     55 O    PRO B  12     -13.574 -30.517  -5.699  1.00 44.45 LIG-0.27  OA
BRANCH 52 56
ATOM     56  CA  PRO B  12     -14.440 -32.728  -5.758  1.00 38.46 LIG 0.35  C 
ATOM     57  CB  PRO B  12     -15.771 -32.021  -6.018  1.00 43.42 LIG 0.05  C 
ATOM     58  CG  PRO B  12     -16.710 -32.607  -5.045  1.00 41.12 LIG 0.04  C 
ATOM     59  CD  PRO B  12     -15.884 -32.917  -3.831  1.00 39.74 LIG 0.32  C 
ATOM     60  N   PRO B  12     -14.554 -33.170  -4.390  1.00 38.12 LIG 0.32  N 
ENDBRANCH 52 56
ENDBRANCH 47 49
ENDBRANCH 44 45
BRANCH 44 61
ATOM     61  CB  ARG B  14      -9.078 -27.276  -8.038  1.00 34.42 LIG 0.04  C 
BRANCH 61 62
ATOM     62  CG  ARG B  14      -9.474 -26.398  -6.851  1.00 32.66 LIG 0.02  C 
BRANCH 62 63
ATOM     63  CD  ARG B  14     -10.926 -25.989  -6.994  1.00 35.24 LIG 0.14  C 
BRANCH 63 64
ATOM     64  NE  ARG B  14     -11.331 -24.959  -6.021  1.00 42.22 LIG-0.23  N 
ATOM     65  CZ  ARG B  14     -12.179 -25.130  -5.004  1.00 44.72 LIG 0.67  C 
ATOM     66  NH2 ARG B  14     -12.773 -26.287  -4.784  1.00 43.48 LIG-0.23  N 
ATOM     67  NH1 ARG B  14     -12.449 -24.116  -4.203  1.00 46.51 LIG-0.23  N 
ATOM     68 1HH2 ARG B  14     -12.617 -26.956  -5.302  1.00 43.48 LIG 0.17  HD
ATOM     69 2HH2 ARG B  14     -13.315 -26.373  -4.122  1.00 43.48 LIG 0.17  HD
ATOM     70 2HH1 ARG B  14     -12.995 -24.219  -3.547  1.00 46.51 LIG 0.17  HD
ATOM     71 1HH1 ARG B  14     -12.079 -23.352  -4.337  1.00 46.51 LIG 0.17  HD
ATOM     72 HE   ARG B  14     -10.989 -24.175  -6.117  1.00 42.22 LIG 0.18  HD
ENDBRANCH 63 64
ENDBRANCH 62 63
ENDBRANCH 61 62
ENDBRANCH 44 61
ENDBRANCH 1 44
TORSDOF 22
ENDMDL
MODEL 19
USER: ADFR SOLUTION from run 189
USER: SCORE 22.586680 LL:  -4.596 LR: -19.095 RR:   0.000 FEB: -12.532
USER: RMSD 4.496393
USER: SEED 188
USER: STATUS searching
USER: GENES 24
USER: genes 0 Translation |==|  0.48674 0.47813 0.58602
USER: genes 1 Rotation |==|  0.52483 0.46744 0.38752 0.98546
USER: genes 2 Torsion [N]-CA--C-[O] |==|  0.91791
USER: genes 3 Torsion [C]-N--CA-[CB] |==|  0.50641
USER: genes 4 Torsion [N]-CA--CB-[CG2] |==|  0.23173
USER: genes 5 Torsion [CA]-CB--CG1-[CD1] |==|  0.58391
USER: genes 6 Torsion [N]-CA--C-[N] |==|  0.46124
USER: genes 7 Torsion [C]-N--CA-[C] |==|  0.83889
USER: genes 8 Torsion [N]-CA--C-[N] |==|  0.30015
USER: genes 9 Torsion [C]-N--CA-[CB] |==|  0.14904
USER: genes 10 Torsion [N]-CA--CB-[CG] |==|  0.58557
USER: genes 11 Torsion [CA]-CB--CG-[ND2] |==|  0.59537
USER: genes 12 Torsion [N]-CA--C-[O] |==|  0.95966
USER: genes 13 Torsion [N]-CA--CB-[CG] |==|  0.92723
USER: genes 14 Torsion [CA]-CB--CG-[CD2] |==|  0.34580
USER: genes 15 Torsion [CE2]-CZ--OH-[HH] |==|  0.30230
USER: genes 16 Torsion [N]-C--CA-[N] |==|  0.48520
USER: genes 17 Torsion [C]-CA--N-[C] |==|  0.78061
USER: genes 18 Torsion [N]-C--CA-[N] |==|  0.48003
USER: genes 19 Torsion [N]-C--CA-[CB] |==|  0.54541
USER: genes 20 Torsion [C]-CA--CB-[CG] |==|  0.40615
USER: genes 21 Torsion [CA]-CB--CG-[CD] |==|  0.02676
USER: genes 22 Torsion [CB]-CG--CD-[NE] |==|  0.49320
USER: genes 23 Torsion [CG]-CD--NE-[CZ] |==|  0.59844
ROOT
ATOM      1  C   ARG B  14      -9.747 -29.056  -9.546  1.00 32.92 LIG 0.24  C 
ATOM      2 O    ARG B  14      -9.469 -30.256  -9.590  1.00 37.82 LIG-0.27  OA
ATOM      3  N   PRO B  15      -9.725 -28.261 -10.620  1.00 31.88 LIG-0.34  N 
ATOM      4  CA  PRO B  15      -9.397 -28.815 -11.937  1.00 30.79 LIG 0.18  C 
ATOM      5  CB  PRO B  15      -9.562 -27.624 -12.859  1.00 31.22 LIG 0.04  C 
ATOM      6  CG  PRO B  15     -10.613 -26.808 -12.175  1.00 29.82 LIG 0.02  C 
ATOM      7  CD  PRO B  15     -10.246 -26.889 -10.729  1.00 31.43 LIG 0.13  C 
ENDROOT
BRANCH 4 8
ATOM      8  C   PRO B  15      -7.961 -29.273 -11.954  1.00 33.68 LIG 0.24  C 
ATOM      9  N   ILE B  16      -7.690 -30.317 -12.714  1.00 35.41 LIG-0.35  N 
ATOM     10 H    ILE B  16      -8.282 -30.776 -13.137  1.00 35.41 LIG 0.16  HD
ATOM     11 O    PRO B  15      -7.127 -28.723 -11.251  1.00 34.05 LIG-0.27  OA
BRANCH 9 12
ATOM     12  CA  ILE B  16      -6.369 -30.760 -12.885  1.00 37.77 LIG 0.18  C 
BRANCH 12 13
ATOM     13  CB  ILE B  16      -6.294 -31.939 -13.843  1.00 42.27 LIG 0.01  C 
ATOM     14  CG2 ILE B  16      -6.272 -31.444 -15.261  1.00 44.80 LIG 0.01  C 
BRANCH 13 15
ATOM     15  CG1 ILE B  16      -5.047 -32.771 -13.495  1.00 47.53 LIG 0.00  C 
ATOM     16  CD1 ILE B  16      -4.391 -33.505 -14.659  1.00 51.74 LIG 0.01  C 
ENDBRANCH 13 15
ENDBRANCH 12 13
BRANCH 12 17
ATOM     17  C   ILE B  16      -5.610 -29.563 -13.359  1.00 42.33 LIG 0.24  C 
ATOM     18 O    ILE B  16      -6.178 -28.566 -13.708  1.00 39.29 LIG-0.27  OA
ATOM     19  N   TYR B  17      -4.296 -29.679 -13.309  1.00 46.96 LIG-0.35  N 
ATOM     20 H    TYR B  17      -3.897 -30.427 -13.163  1.00 46.96 LIG 0.16  HD
BRANCH 19 21
ATOM     21  CA  TYR B  17      -3.397 -28.575 -13.493  1.00 51.19 LIG 0.18  C 
BRANCH 21 22
ATOM     22  C   TYR B  17      -3.632 -27.947 -14.820  1.00 56.10 LIG 0.24  C 
ATOM     23  N   ASN B  18      -4.214 -26.763 -14.840  1.00 65.39 LIG-0.35  N 
ATOM     24 H    ASN B  18      -4.328 -26.271 -14.144  1.00 65.39 LIG 0.16  HD
ATOM     25 O    TYR B  17      -3.223 -28.499 -15.824  1.00 61.36 LIG-0.27  OA
BRANCH 23 26
ATOM     26  CA  ASN B  18      -4.725 -26.183 -16.092  1.00 70.74 LIG 0.17  C 
BRANCH 26 27
ATOM     27  CB  ASN B  18      -5.673 -27.188 -16.762  1.00 84.74 LIG 0.14  C 
BRANCH 27 28
ATOM     28  CG  ASN B  18      -5.664 -27.077 -18.292  1.00 96.34 LIG 0.22  C 
ATOM     29 OD1  ASN B  18      -4.629 -26.767 -18.903  1.00 99.44 LIG-0.27  OA
ATOM     30  ND2 ASN B  18      -6.824 -27.311 -18.918  1.00 94.73 LIG-0.37  N 
ATOM     31 21HD ASN B  18      -6.871 -27.249 -19.775  1.00 94.73 LIG 0.16  HD
ATOM     32 22HD ASN B  18      -7.523 -27.524 -18.464  1.00 94.73 LIG 0.16  HD
ENDBRANCH 27 28
ENDBRANCH 26 27
BRANCH 26 33
ATOM     33  C   ASN B  18      -5.339 -24.763 -16.039  1.00 72.97 LIG 0.22  C 
ATOM     34 O    ASN B  18      -5.657 -24.210 -14.976  1.00 74.17 LIG-0.29  OA
ENDBRANCH 26 33
ENDBRANCH 23 26
ENDBRANCH 21 22
BRANCH 21 35
ATOM     35  CB  TYR B  17      -1.979 -29.120 -13.504  1.00 54.83 LIG 0.07  C 
BRANCH 35 36
ATOM     36  CG  TYR B  17      -1.882 -30.385 -12.740  1.00 56.96 LIG-0.06  A 
ATOM     37  CD2 TYR B  17      -1.372 -31.537 -13.351  1.00 61.26 LIG 0.01  A 
ATOM     38  CE2 TYR B  17      -1.285 -32.726 -12.664  1.00 70.21 LIG 0.04  A 
ATOM     39  CZ  TYR B  17      -1.729 -32.768 -11.354  1.00 76.40 LIG 0.07  A 
ATOM     40  CE1 TYR B  17      -2.247 -31.640 -10.729  1.00 67.10 LIG 0.04  A 
ATOM     41  CD1 TYR B  17      -2.325 -30.455 -11.437  1.00 57.92 LIG 0.01  A 
BRANCH 39 42
ATOM     42 OH   TYR B  17      -1.651 -33.948 -10.674  1.00 89.25 LIG-0.36  OA
ATOM     43 HH   TYR B  17      -1.050 -33.896 -10.089  1.00 89.25 LIG 0.22  HD
ENDBRANCH 39 42
ENDBRANCH 35 36
ENDBRANCH 21 35
ENDBRANCH 19 21
ENDBRANCH 12 17
ENDBRANCH 9 12
ENDBRANCH 4 8
BRANCH 1 44
ATOM     44  CA  ARG B  14     -10.084 -28.432  -8.225  1.00 32.45 LIG 0.18  C 
BRANCH 44 45
ATOM     45  N   ARG B  14     -10.147 -29.565  -7.330  1.00 38.19 LIG-0.35  N 
ATOM     46 H    ARG B  14      -9.442 -29.664  -6.847  1.00 38.19 LIG 0.16  HD
ATOM     47  C   PRO B  13     -11.201 -30.383  -7.258  1.00 38.91 LIG 0.24  C 
ATOM     48 O    PRO B  13     -12.205 -30.237  -7.926  1.00 32.88 LIG-0.27  OA
BRANCH 47 49
ATOM     49  CA  PRO B  13     -11.108 -31.529  -6.231  1.00 38.31 LIG 0.18  C 
ATOM     50  N   PRO B  13     -12.335 -32.283  -6.078  1.00 38.88 LIG-0.34  N 
ATOM     51  CD  PRO B  13     -12.096 -33.729  -6.182  1.00 43.50 LIG 0.13  C 
ATOM     52  C   PRO B  12     -13.538 -31.736  -5.842  1.00 40.77 LIG 0.26  C 
ATOM     53  CG  PRO B  13     -10.613 -33.847  -6.082  1.00 43.53 LIG 0.02  C 
ATOM     54  CB  PRO B  13     -10.100 -32.587  -6.679  1.00 39.91 LIG 0.04  C 
ATOM     55 O    PRO B  12     -13.717 -30.521  -5.665  1.00 44.45 LIG-0.27  OA
BRANCH 52 56
ATOM     56  CA  PRO B  12     -14.721 -32.670  -5.796  1.00 38.46 LIG 0.35  C 
ATOM     57  CB  PRO B  12     -16.006 -31.851  -5.929  1.00 43.42 LIG 0.05  C 
ATOM     58  CG  PRO B  12     -16.952 -32.469  -4.984  1.00 41.12 LIG 0.04  C 
ATOM     59  CD  PRO B  12     -16.111 -32.958  -3.841  1.00 39.74 LIG 0.32  C 
ATOM     60  N   PRO B  12     -14.821 -33.242  -4.475  1.00 38.12 LIG 0.32  N 
ENDBRANCH 52 56
ENDBRANCH 47 49
ENDBRANCH 44 45
BRANCH 44 61
ATOM     61  CB  ARG B  14      -8.918 -27.540  -7.785  1.00 34.42 LIG 0.04  C 
BRANCH 61 62
ATOM     62  CG  ARG B  14      -9.324 -26.290  -7.005  1.00 32.66 LIG 0.02  C 
BRANCH 62 63
ATOM     63  CD  ARG B  14     -10.796 -26.374  -6.657  1.00 35.24 LIG 0.14  C 
BRANCH 63 64
ATOM     64  NE  ARG B  14     -11.262 -25.231  -5.852  1.00 42.22 LIG-0.23  N 
ATOM     65  CZ  ARG B  14     -12.179 -25.275  -4.883  1.00 44.72 LIG 0.67  C 
ATOM     66  NH2 ARG B  14     -12.793 -26.398  -4.561  1.00 43.48 LIG-0.23  N 
ATOM     67  NH1 ARG B  14     -12.498 -24.169  -4.236  1.00 46.51 LIG-0.23  N 
ATOM     68 1HH2 ARG B  14     -12.605 -27.126  -4.978  1.00 43.48 LIG 0.17  HD
ATOM     69 2HH2 ARG B  14     -13.380 -26.402  -3.932  1.00 43.48 LIG 0.17  HD
ATOM     70 2HH1 ARG B  14     -13.089 -24.191  -3.612  1.00 46.51 LIG 0.17  HD
ATOM     71 1HH1 ARG B  14     -12.116 -23.427  -4.440  1.00 46.51 LIG 0.17  HD
ATOM     72 HE   ARG B  14     -10.910 -24.464  -6.022  1.00 42.22 LIG 0.18  HD
ENDBRANCH 63 64
ENDBRANCH 62 63
ENDBRANCH 61 62
ENDBRANCH 44 61
ENDBRANCH 1 44
TORSDOF 22
ENDMDL
MODEL 20
USER: ADFR SOLUTION from run 164
USER: SCORE 22.999922 LL:  -5.136 LR: -19.069 RR:   0.000 FEB: -12.507
USER: RMSD 3.837175
USER: SEED 163
USER: STATUS no improvement in best in 13 clusters for 5 generations
USER: GENES 24
USER: genes 0 Translation |==|  0.47273 0.49567 0.56323
USER: genes 1 Rotation |==|  0.47102 0.55609 0.55791 0.99261
USER: genes 2 Torsion [N]-CA--C-[O] |==|  0.82042
USER: genes 3 Torsion [C]-N--CA-[CB] |==|  0.14644
USER: genes 4 Torsion [N]-CA--CB-[CG2] |==|  0.29342
USER: genes 5 Torsion [CA]-CB--CG1-[CD1] |==|  0.76381
USER: genes 6 Torsion [N]-CA--C-[N] |==|  0.47884
USER: genes 7 Torsion [C]-N--CA-[C] |==|  0.62365
USER: genes 8 Torsion [N]-CA--C-[N] |==|  0.46057
USER: genes 9 Torsion [C]-N--CA-[CB] |==|  0.49372
USER: genes 10 Torsion [N]-CA--CB-[CG] |==|  0.81076
USER: genes 11 Torsion [CA]-CB--CG-[ND2] |==|  0.76355
USER: genes 12 Torsion [N]-CA--C-[O] |==|  0.55039
USER: genes 13 Torsion [N]-CA--CB-[CG] |==|  0.04496
USER: genes 14 Torsion [CA]-CB--CG-[CD2] |==|  0.22844
USER: genes 15 Torsion [CE2]-CZ--OH-[HH] |==|  0.50590
USER: genes 16 Torsion [N]-C--CA-[N] |==|  0.38411
USER: genes 17 Torsion [C]-CA--N-[C] |==|  0.78167
USER: genes 18 Torsion [N]-C--CA-[N] |==|  0.45304
USER: genes 19 Torsion [N]-C--CA-[CB] |==|  0.67219
USER: genes 20 Torsion [C]-CA--CB-[CG] |==|  0.47614
USER: genes 21 Torsion [CA]-CB--CG-[CD] |==|  0.92315
USER: genes 22 Torsion [CB]-CG--CD-[NE] |==|  0.52995
USER: genes 23 Torsion [CG]-CD--NE-[CZ] |==|  0.63758
ROOT
ATOM      1  C   ARG B  14     -10.063 -28.727 -10.178  1.00 32.92 LIG 0.24  C 
ATOM      2 O    ARG B  14      -9.098 -29.487 -10.280  1.00 37.82 LIG-0.27  OA
ATOM      3  N   PRO B  15     -10.856 -28.414 -11.206  1.00 31.88 LIG-0.34  N 
ATOM      4  CA  PRO B  15     -10.624 -29.013 -12.524  1.00 30.79 LIG 0.18  C 
ATOM      5  CB  PRO B  15     -11.767 -28.467 -13.354  1.00 31.22 LIG 0.04  C 
ATOM      6  CG  PRO B  15     -12.856 -28.271 -12.348  1.00 29.82 LIG 0.02  C 
ATOM      7  CD  PRO B  15     -12.148 -27.708 -11.158  1.00 31.43 LIG 0.13  C 
ENDROOT
BRANCH 4 8
ATOM      8  C   PRO B  15      -9.312 -28.524 -13.082  1.00 33.68 LIG 0.24  C 
ATOM      9  N   ILE B  16      -8.354 -29.423 -13.198  1.00 35.41 LIG-0.35  N 
ATOM     10 H    ILE B  16      -8.415 -30.235 -12.920  1.00 35.41 LIG 0.16  HD
ATOM     11 O    PRO B  15      -9.157 -27.342 -13.353  1.00 34.05 LIG-0.27  OA
BRANCH 9 12
ATOM     12  CA  ILE B  16      -7.130 -29.099 -13.804  1.00 37.77 LIG 0.18  C 
BRANCH 12 13
ATOM     13  CB  ILE B  16      -6.508 -27.859 -13.180  1.00 42.27 LIG 0.01  C 
ATOM     14  CG2 ILE B  16      -5.350 -28.253 -12.308  1.00 44.80 LIG 0.01  C 
BRANCH 13 15
ATOM     15  CG1 ILE B  16      -6.090 -26.903 -14.311  1.00 47.53 LIG 0.00  C 
ATOM     16  CD1 ILE B  16      -4.719 -27.161 -14.927  1.00 51.74 LIG 0.01  C 
ENDBRANCH 13 15
ENDBRANCH 12 13
BRANCH 12 17
ATOM     17  C   ILE B  16      -6.283 -30.322 -13.661  1.00 42.33 LIG 0.24  C 
ATOM     18 O    ILE B  16      -6.666 -31.273 -13.038  1.00 39.29 LIG-0.27  OA
ATOM     19  N   TYR B  17      -5.133 -30.283 -14.308  1.00 46.96 LIG-0.35  N 
ATOM     20 H    TYR B  17      -4.818 -29.565 -14.660  1.00 46.96 LIG 0.16  HD
BRANCH 19 21
ATOM     21  CA  TYR B  17      -4.290 -31.431 -14.492  1.00 51.19 LIG 0.18  C 
BRANCH 21 22
ATOM     22  C   TYR B  17      -2.875 -31.067 -14.220  1.00 56.10 LIG 0.24  C 
ATOM     23  N   ASN B  18      -2.012 -32.052 -14.062  1.00 65.39 LIG-0.35  N 
ATOM     24 H    ASN B  18      -2.178 -32.874 -14.252  1.00 65.39 LIG 0.16  HD
ATOM     25 O    TYR B  17      -2.547 -29.895 -14.224  1.00 61.36 LIG-0.27  OA
BRANCH 23 26
ATOM     26  CA  ASN B  18      -0.660 -31.807 -13.534  1.00 70.74 LIG 0.17  C 
BRANCH 26 27
ATOM     27  CB  ASN B  18       0.083 -33.146 -13.414  1.00 84.74 LIG 0.14  C 
BRANCH 27 28
ATOM     28  CG  ASN B  18      -0.510 -34.053 -12.328  1.00 96.34 LIG 0.22  C 
ATOM     29 OD1  ASN B  18      -1.362 -34.910 -12.607  1.00 99.44 LIG-0.27  OA
ATOM     30  ND2 ASN B  18      -0.074 -33.855 -11.077  1.00 94.73 LIG-0.37  N 
ATOM     31 21HD ASN B  18      -0.386 -34.331 -10.433  1.00 94.73 LIG 0.16  HD
ATOM     32 22HD ASN B  18       0.518 -33.251 -10.918  1.00 94.73 LIG 0.16  HD
ENDBRANCH 27 28
ENDBRANCH 26 27
BRANCH 26 33
ATOM     33  C   ASN B  18       0.209 -30.730 -14.229  1.00 72.97 LIG 0.22  C 
ATOM     34 O    ASN B  18       1.439 -30.671 -14.090  1.00 74.17 LIG-0.29  OA
ENDBRANCH 26 33
ENDBRANCH 23 26
ENDBRANCH 21 22
BRANCH 21 35
ATOM     35  CB  TYR B  17      -4.372 -31.845 -15.952  1.00 54.83 LIG 0.07  C 
BRANCH 35 36
ATOM     36  CG  TYR B  17      -4.945 -30.765 -16.787  1.00 56.96 LIG-0.06  A 
ATOM     37  CD2 TYR B  17      -4.131 -29.718 -17.236  1.00 61.26 LIG 0.01  A 
ATOM     38  CE2 TYR B  17      -4.646 -28.697 -18.002  1.00 70.21 LIG 0.04  A 
ATOM     39  CZ  TYR B  17      -5.995 -28.715 -18.311  1.00 76.40 LIG 0.07  A 
ATOM     40  CE1 TYR B  17      -6.824 -29.740 -17.869  1.00 67.10 LIG 0.04  A 
ATOM     41  CD1 TYR B  17      -6.287 -30.757 -17.102  1.00 57.92 LIG 0.01  A 
BRANCH 39 42
ATOM     42 OH   TYR B  17      -6.509 -27.701 -19.064  1.00 89.25 LIG-0.36  OA
ATOM     43 HH   TYR B  17      -7.336 -27.811 -19.156  1.00 89.25 LIG 0.22  HD
ENDBRANCH 39 42
ENDBRANCH 35 36
ENDBRANCH 21 35
ENDBRANCH 19 21
ENDBRANCH 12 17
ENDBRANCH 9 12
ENDBRANCH 4 8
BRANCH 1 44
ATOM     44  CA  ARG B  14     -10.346 -28.078  -8.856  1.00 32.45 LIG 0.18  C 
BRANCH 44 45
ATOM     45  N   ARG B  14     -10.171 -29.159  -7.913  1.00 38.19 LIG-0.35  N 
ATOM     46 H    ARG B  14      -9.417 -29.138  -7.500  1.00 38.19 LIG 0.16  HD
ATOM     47  C   PRO B  13     -11.093 -30.102  -7.702  1.00 38.91 LIG 0.24  C 
ATOM     48 O    PRO B  13     -12.166 -30.125  -8.271  1.00 32.88 LIG-0.27  OA
BRANCH 47 49
ATOM     49  CA  PRO B  13     -10.750 -31.168  -6.641  1.00 38.31 LIG 0.18  C 
ATOM     50  N   PRO B  13     -11.895 -31.920  -6.172  1.00 38.88 LIG-0.34  N 
ATOM     51  CD  PRO B  13     -11.647 -33.368  -6.224  1.00 43.50 LIG 0.13  C 
ATOM     52  C   PRO B  12     -13.032 -31.369  -5.718  1.00 40.77 LIG 0.26  C 
ATOM     53  CG  PRO B  13     -10.175 -33.464  -6.441  1.00 43.53 LIG 0.02  C 
ATOM     54  CB  PRO B  13      -9.836 -32.246  -7.223  1.00 39.91 LIG 0.04  C 
ATOM     55 O    PRO B  12     -13.199 -30.146  -5.592  1.00 44.45 LIG-0.27  OA
BRANCH 52 56
ATOM     56  CA  PRO B  12     -14.152 -32.309  -5.350  1.00 38.46 LIG 0.35  C 
ATOM     57  CB  PRO B  12     -15.355 -32.025  -6.251  1.00 43.42 LIG 0.05  C 
ATOM     58  CG  PRO B  12     -16.528 -32.130  -5.366  1.00 41.12 LIG 0.04  C 
ATOM     59  CD  PRO B  12     -16.061 -31.646  -4.025  1.00 39.74 LIG 0.32  C 
ATOM     60  N   PRO B  12     -14.634 -31.977  -4.031  1.00 38.12 LIG 0.32  N 
ENDBRANCH 52 56
ENDBRANCH 47 49
ENDBRANCH 44 45
BRANCH 44 61
ATOM     61  CB  ARG B  14      -9.269 -27.024  -8.580  1.00 34.42 LIG 0.04  C 
BRANCH 61 62
ATOM     62  CG  ARG B  14      -9.538 -26.135  -7.366  1.00 32.66 LIG 0.02  C 
BRANCH 62 63
ATOM     63  CD  ARG B  14     -11.033 -26.032  -7.142  1.00 35.24 LIG 0.14  C 
BRANCH 63 64
ATOM     64  NE  ARG B  14     -11.396 -24.999  -6.156  1.00 42.22 LIG-0.23  N 
ATOM     65  CZ  ARG B  14     -12.215 -25.161  -5.115  1.00 44.72 LIG 0.67  C 
ATOM     66  NH2 ARG B  14     -12.816 -26.312  -4.879  1.00 43.48 LIG-0.23  N 
ATOM     67  NH1 ARG B  14     -12.449 -24.145  -4.305  1.00 46.51 LIG-0.23  N 
ATOM     68 1HH2 ARG B  14     -12.684 -26.982  -5.402  1.00 43.48 LIG 0.17  HD
ATOM     69 2HH2 ARG B  14     -13.340 -26.392  -4.201  1.00 43.48 LIG 0.17  HD
ATOM     70 2HH1 ARG B  14     -12.976 -24.244  -3.632  1.00 46.51 LIG 0.17  HD
ATOM     71 1HH1 ARG B  14     -12.074 -23.385  -4.449  1.00 46.51 LIG 0.17  HD
ATOM     72 HE   ARG B  14     -11.048 -24.219  -6.261  1.00 42.22 LIG 0.18  HD
ENDBRANCH 63 64
ENDBRANCH 62 63
ENDBRANCH 61 62
ENDBRANCH 44 61
ENDBRANCH 1 44
TORSDOF 22
ENDMDL
MODEL 21
USER: ADFR SOLUTION from run 19
USER: SCORE 21.576395 LL:  -4.681 LR: -19.018 RR:   0.000 FEB: -12.455
USER: RMSD 3.623698
USER: SEED 18
USER: STATUS no improvement in best in 12 clusters for 5 generations
USER: GENES 24
USER: genes 0 Translation |==|  0.47106 0.50380 0.56619
USER: genes 1 Rotation |==|  0.46560 0.53750 0.58873 0.98943
USER: genes 2 Torsion [N]-CA--C-[O] |==|  0.91696
USER: genes 3 Torsion [C]-N--CA-[CB] |==|  0.21511
USER: genes 4 Torsion [N]-CA--CB-[CG2] |==|  0.21409
USER: genes 5 Torsion [CA]-CB--CG1-[CD1] |==|  0.48485
USER: genes 6 Torsion [N]-CA--C-[N] |==|  0.42812
USER: genes 7 Torsion [C]-N--CA-[C] |==|  0.52092
USER: genes 8 Torsion [N]-CA--C-[N] |==|  0.86685
USER: genes 9 Torsion [C]-N--CA-[CB] |==|  0.43325
USER: genes 10 Torsion [N]-CA--CB-[CG] |==|  0.88836
USER: genes 11 Torsion [CA]-CB--CG-[ND2] |==|  0.78562
USER: genes 12 Torsion [N]-CA--C-[O] |==|  0.90243
USER: genes 13 Torsion [N]-CA--CB-[CG] |==|  0.60681
USER: genes 14 Torsion [CA]-CB--CG-[CD2] |==|  0.02477
USER: genes 15 Torsion [CE2]-CZ--OH-[HH] |==|  0.02520
USER: genes 16 Torsion [N]-C--CA-[N] |==|  0.38011
USER: genes 17 Torsion [C]-CA--N-[C] |==|  0.79887
USER: genes 18 Torsion [N]-C--CA-[N] |==|  0.41597
USER: genes 19 Torsion [N]-C--CA-[CB] |==|  0.67466
USER: genes 20 Torsion [C]-CA--CB-[CG] |==|  0.52097
USER: genes 21 Torsion [CA]-CB--CG-[CD] |==|  0.86489
USER: genes 22 Torsion [CB]-CG--CD-[NE] |==|  0.56540
USER: genes 23 Torsion [CG]-CD--NE-[CZ] |==|  0.66759
ROOT
ATOM      1  C   ARG B  14     -10.100 -28.575 -10.096  1.00 32.92 LIG 0.24  C 
ATOM      2 O    ARG B  14      -9.040 -29.203 -10.129  1.00 37.82 LIG-0.27  OA
ATOM      3  N   PRO B  15     -10.857 -28.362 -11.176  1.00 31.88 LIG-0.34  N 
ATOM      4  CA  PRO B  15     -10.462 -28.920 -12.473  1.00 30.79 LIG 0.18  C 
ATOM      5  CB  PRO B  15     -11.607 -28.522 -13.380  1.00 31.22 LIG 0.04  C 
ATOM      6  CG  PRO B  15     -12.777 -28.473 -12.450  1.00 29.82 LIG 0.02  C 
ATOM      7  CD  PRO B  15     -12.229 -27.830 -11.217  1.00 31.43 LIG 0.13  C 
ENDROOT
BRANCH 4 8
ATOM      8  C   PRO B  15      -9.190 -28.262 -12.944  1.00 33.68 LIG 0.24  C 
ATOM      9  N   ILE B  16      -8.370 -29.016 -13.651  1.00 35.41 LIG-0.35  N 
ATOM     10 H    ILE B  16      -8.488 -29.855 -13.799  1.00 35.41 LIG 0.16  HD
ATOM     11 O    PRO B  15      -8.934 -27.110 -12.627  1.00 34.05 LIG-0.27  OA
BRANCH 9 12
ATOM     12  CA  ILE B  16      -7.210 -28.474 -14.228  1.00 37.77 LIG 0.18  C 
BRANCH 12 13
ATOM     13  CB  ILE B  16      -6.108 -28.284 -13.197  1.00 42.27 LIG 0.01  C 
ATOM     14  CG2 ILE B  16      -5.465 -29.605 -12.887  1.00 44.80 LIG 0.01  C 
BRANCH 13 15
ATOM     15  CG1 ILE B  16      -5.101 -27.257 -13.745  1.00 47.53 LIG 0.00  C 
ATOM     16  CD1 ILE B  16      -3.990 -26.841 -12.788  1.00 51.74 LIG 0.01  C 
ENDBRANCH 13 15
ENDBRANCH 12 13
BRANCH 12 17
ATOM     17  C   ILE B  16      -6.837 -29.419 -15.325  1.00 42.33 LIG 0.24  C 
ATOM     18 O    ILE B  16      -7.196 -30.563 -15.308  1.00 39.29 LIG-0.27  OA
ATOM     19  N   TYR B  17      -6.144 -28.883 -16.312  1.00 46.96 LIG-0.35  N 
ATOM     20 H    TYR B  17      -5.798 -28.097 -16.268  1.00 46.96 LIG 0.16  HD
BRANCH 19 21
ATOM     21  CA  TYR B  17      -5.893 -29.552 -17.557  1.00 51.19 LIG 0.18  C 
BRANCH 21 22
ATOM     22  C   TYR B  17      -4.938 -28.758 -18.374  1.00 56.10 LIG 0.24  C 
ATOM     23  N   ASN B  18      -5.174 -27.468 -18.505  1.00 65.39 LIG-0.35  N 
ATOM     24 H    ASN B  18      -5.747 -27.033 -18.035  1.00 65.39 LIG 0.16  HD
ATOM     25 O    TYR B  17      -3.946 -29.299 -18.828  1.00 61.36 LIG-0.27  OA
BRANCH 23 26
ATOM     26  CA  ASN B  18      -4.450 -26.654 -19.495  1.00 70.74 LIG 0.17  C 
BRANCH 26 27
ATOM     27  CB  ASN B  18      -5.295 -25.420 -19.847  1.00 84.74 LIG 0.14  C 
BRANCH 27 28
ATOM     28  CG  ASN B  18      -6.789 -25.746 -19.973  1.00 96.34 LIG 0.22  C 
ATOM     29 OD1  ASN B  18      -7.581 -25.471 -19.059  1.00 99.44 LIG-0.27  OA
ATOM     30  ND2 ASN B  18      -7.177 -26.352 -21.102  1.00 94.73 LIG-0.37  N 
ATOM     31 21HD ASN B  18      -8.002 -26.566 -21.213  1.00 94.73 LIG 0.16  HD
ATOM     32 22HD ASN B  18      -6.601 -26.529 -21.716  1.00 94.73 LIG 0.16  HD
ENDBRANCH 27 28
ENDBRANCH 26 27
BRANCH 26 33
ATOM     33  C   ASN B  18      -2.980 -26.274 -19.191  1.00 72.97 LIG 0.22  C 
ATOM     34 O    ASN B  18      -2.575 -26.033 -18.045  1.00 74.17 LIG-0.29  OA
ENDBRANCH 26 33
ENDBRANCH 23 26
ENDBRANCH 21 22
BRANCH 21 35
ATOM     35  CB  TYR B  17      -7.199 -29.612 -18.331  1.00 54.83 LIG 0.07  C 
BRANCH 35 36
ATOM     36  CG  TYR B  17      -7.345 -30.901 -19.043  1.00 56.96 LIG-0.06  A 
ATOM     37  CD2 TYR B  17      -6.441 -31.943 -18.802  1.00 61.26 LIG 0.01  A 
ATOM     38  CE2 TYR B  17      -6.550 -33.145 -19.462  1.00 70.21 LIG 0.04  A 
ATOM     39  CZ  TYR B  17      -7.567 -33.303 -20.388  1.00 76.40 LIG 0.07  A 
ATOM     40  CE1 TYR B  17      -8.471 -32.281 -20.651  1.00 67.10 LIG 0.04  A 
ATOM     41  CD1 TYR B  17      -8.345 -31.081 -19.975  1.00 57.92 LIG 0.01  A 
BRANCH 39 42
ATOM     42 OH   TYR B  17      -7.672 -34.491 -21.050  1.00 89.25 LIG-0.36  OA
ATOM     43 HH   TYR B  17      -7.147 -35.050 -20.707  1.00 89.25 LIG 0.22  HD
ENDBRANCH 39 42
ENDBRANCH 35 36
ENDBRANCH 21 35
ENDBRANCH 19 21
ENDBRANCH 12 17
ENDBRANCH 9 12
ENDBRANCH 4 8
BRANCH 1 44
ATOM     44  CA  ARG B  14     -10.553 -27.974  -8.799  1.00 32.45 LIG 0.18  C 
BRANCH 44 45
ATOM     45  N   ARG B  14     -10.336 -29.040  -7.847  1.00 38.19 LIG-0.35  N 
ATOM     46 H    ARG B  14      -9.671 -28.902  -7.319  1.00 38.19 LIG 0.16  HD
ATOM     47  C   PRO B  13     -11.096 -30.137  -7.792  1.00 38.91 LIG 0.24  C 
ATOM     48 O    PRO B  13     -12.047 -30.328  -8.523  1.00 32.88 LIG-0.27  OA
BRANCH 47 49
ATOM     49  CA  PRO B  13     -10.737 -31.163  -6.697  1.00 38.31 LIG 0.18  C 
ATOM     50  N   PRO B  13     -11.869 -31.917  -6.204  1.00 38.88 LIG-0.34  N 
ATOM     51  CD  PRO B  13     -11.598 -33.362  -6.210  1.00 43.50 LIG 0.13  C 
ATOM     52  C   PRO B  12     -13.016 -31.370  -5.768  1.00 40.77 LIG 0.26  C 
ATOM     53  CG  PRO B  13     -10.126 -33.441  -6.424  1.00 43.53 LIG 0.02  C 
ATOM     54  CB  PRO B  13      -9.806 -32.244  -7.244  1.00 39.91 LIG 0.04  C 
ATOM     55 O    PRO B  12     -13.202 -30.147  -5.681  1.00 44.45 LIG-0.27  OA
BRANCH 52 56
ATOM     56  CA  PRO B  12     -14.121 -32.316  -5.370  1.00 38.46 LIG 0.35  C 
ATOM     57  CB  PRO B  12     -15.320 -32.095  -6.294  1.00 43.42 LIG 0.05  C 
ATOM     58  CG  PRO B  12     -16.499 -32.186  -5.416  1.00 41.12 LIG 0.04  C 
ATOM     59  CD  PRO B  12     -16.056 -31.635  -4.093  1.00 39.74 LIG 0.32  C 
ATOM     60  N   PRO B  12     -14.622 -31.937  -4.071  1.00 38.12 LIG 0.32  N 
ENDBRANCH 52 56
ENDBRANCH 47 49
ENDBRANCH 44 45
BRANCH 44 61
ATOM     61  CB  ARG B  14      -9.621 -26.813  -8.437  1.00 34.42 LIG 0.04  C 
BRANCH 61 62
ATOM     62  CG  ARG B  14      -9.848 -26.216  -7.048  1.00 32.66 LIG 0.02  C 
BRANCH 62 63
ATOM     63  CD  ARG B  14     -11.326 -25.944  -6.856  1.00 35.24 LIG 0.14  C 
BRANCH 63 64
ATOM     64  NE  ARG B  14     -11.591 -24.906  -5.844  1.00 42.22 LIG-0.23  N 
ATOM     65  CZ  ARG B  14     -12.293 -25.067  -4.720  1.00 44.72 LIG 0.67  C 
ATOM     66  NH2 ARG B  14     -12.854 -26.221  -4.412  1.00 43.48 LIG-0.23  N 
ATOM     67  NH1 ARG B  14     -12.449 -24.046  -3.897  1.00 46.51 LIG-0.23  N 
ATOM     68 1HH2 ARG B  14     -12.771 -26.894  -4.942  1.00 43.48 LIG 0.17  HD
ATOM     69 2HH2 ARG B  14     -13.301 -26.300  -3.682  1.00 43.48 LIG 0.17  HD
ATOM     70 2HH1 ARG B  14     -12.900 -24.143  -3.172  1.00 46.51 LIG 0.17  HD
ATOM     71 1HH1 ARG B  14     -12.099 -23.284  -4.087  1.00 46.51 LIG 0.17  HD
ATOM     72 HE   ARG B  14     -11.264 -24.124  -5.992  1.00 42.22 LIG 0.18  HD
ENDBRANCH 63 64
ENDBRANCH 62 63
ENDBRANCH 61 62
ENDBRANCH 44 61
ENDBRANCH 1 44
TORSDOF 22
ENDMDL
MODEL 22
USER: ADFR SOLUTION from run 50
USER: SCORE 22.759646 LL:  -5.297 LR: -19.004 RR:   0.000 FEB: -12.442
USER: RMSD 3.084612
USER: SEED 49
USER: STATUS no improvement in best in 21 clusters for 5 generations
USER: GENES 24
USER: genes 0 Translation |==|  0.46524 0.50211 0.58285
USER: genes 1 Rotation |==|  0.52043 0.48675 0.45860 0.99769
USER: genes 2 Torsion [N]-CA--C-[O] |==|  0.91100
USER: genes 3 Torsion [C]-N--CA-[CB] |==|  0.24844
USER: genes 4 Torsion [N]-CA--CB-[CG2] |==|  0.20454
USER: genes 5 Torsion [CA]-CB--CG1-[CD1] |==|  0.62808
USER: genes 6 Torsion [N]-CA--C-[N] |==|  0.51106
USER: genes 7 Torsion [C]-N--CA-[C] |==|  0.65556
USER: genes 8 Torsion [N]-CA--C-[N] |==|  0.91900
USER: genes 9 Torsion [C]-N--CA-[CB] |==|  0.76822
USER: genes 10 Torsion [N]-CA--CB-[CG] |==|  0.71943
USER: genes 11 Torsion [CA]-CB--CG-[ND2] |==|  0.32417
USER: genes 12 Torsion [N]-CA--C-[O] |==|  0.08033
USER: genes 13 Torsion [N]-CA--CB-[CG] |==|  0.89506
USER: genes 14 Torsion [CA]-CB--CG-[CD2] |==|  0.25317
USER: genes 15 Torsion [CE2]-CZ--OH-[HH] |==|  0.19281
USER: genes 16 Torsion [N]-C--CA-[N] |==|  0.46007
USER: genes 17 Torsion [C]-CA--N-[C] |==|  0.79059
USER: genes 18 Torsion [N]-C--CA-[N] |==|  0.42847
USER: genes 19 Torsion [N]-C--CA-[CB] |==|  0.67781
USER: genes 20 Torsion [C]-CA--CB-[CG] |==|  0.50658
USER: genes 21 Torsion [CA]-CB--CG-[CD] |==|  0.88335
USER: genes 22 Torsion [CB]-CG--CD-[NE] |==|  0.59162
USER: genes 23 Torsion [CG]-CD--NE-[CZ] |==|  0.64095
ROOT
ATOM      1  C   ARG B  14     -10.231 -28.606  -9.634  1.00 32.92 LIG 0.24  C 
ATOM      2 O    ARG B  14      -9.623 -29.677  -9.684  1.00 37.82 LIG-0.27  OA
ATOM      3  N   PRO B  15     -10.507 -27.871 -10.715  1.00 31.88 LIG-0.34  N 
ATOM      4  CA  PRO B  15     -10.119 -28.347 -12.046  1.00 30.79 LIG 0.18  C 
ATOM      5  CB  PRO B  15     -10.679 -27.282 -12.966  1.00 31.22 LIG 0.04  C 
ATOM      6  CG  PRO B  15     -11.873 -26.780 -12.219  1.00 29.82 LIG 0.02  C 
ATOM      7  CD  PRO B  15     -11.406 -26.709 -10.801  1.00 31.43 LIG 0.13  C 
ENDROOT
BRANCH 4 8
ATOM      8  C   PRO B  15      -8.616 -28.377 -12.159  1.00 33.68 LIG 0.24  C 
ATOM      9  N   ILE B  16      -8.104 -29.353 -12.883  1.00 35.41 LIG-0.35  N 
ATOM     10 H    ILE B  16      -8.563 -29.992 -13.232  1.00 35.41 LIG 0.16  HD
ATOM     11 O    PRO B  15      -7.934 -27.561 -11.557  1.00 34.05 LIG-0.27  OA
BRANCH 9 12
ATOM     12  CA  ILE B  16      -6.725 -29.412 -13.141  1.00 37.77 LIG 0.18  C 
BRANCH 12 13
ATOM     13  CB  ILE B  16      -5.988 -30.194 -12.066  1.00 42.27 LIG 0.01  C 
ATOM     14  CG2 ILE B  16      -6.265 -31.662 -12.222  1.00 44.80 LIG 0.01  C 
BRANCH 13 15
ATOM     15  CG1 ILE B  16      -4.487 -29.868 -12.170  1.00 47.53 LIG 0.00  C 
ATOM     16  CD1 ILE B  16      -3.542 -31.064 -12.114  1.00 51.74 LIG 0.01  C 
ENDBRANCH 13 15
ENDBRANCH 12 13
BRANCH 12 17
ATOM     17  C   ILE B  16      -6.604 -30.018 -14.503  1.00 42.33 LIG 0.24  C 
ATOM     18 O    ILE B  16      -7.574 -30.232 -15.175  1.00 39.29 LIG-0.27  OA
ATOM     19  N   TYR B  17      -5.368 -30.239 -14.907  1.00 46.96 LIG-0.35  N 
ATOM     20 H    TYR B  17      -4.687 -30.187 -14.384  1.00 46.96 LIG 0.16  HD
BRANCH 19 21
ATOM     21  CA  TYR B  17      -5.028 -30.591 -16.257  1.00 51.19 LIG 0.18  C 
BRANCH 21 22
ATOM     22  C   TYR B  17      -4.268 -31.869 -16.270  1.00 56.10 LIG 0.24  C 
ATOM     23  N   ASN B  18      -3.536 -32.154 -15.211  1.00 65.39 LIG-0.35  N 
ATOM     24 H    ASN B  18      -3.585 -31.733 -14.464  1.00 65.39 LIG 0.16  HD
ATOM     25 O    TYR B  17      -4.399 -32.633 -17.209  1.00 61.36 LIG-0.27  OA
BRANCH 23 26
ATOM     26  CA  ASN B  18      -2.552 -33.249 -15.233  1.00 70.74 LIG 0.17  C 
BRANCH 26 27
ATOM     27  CB  ASN B  18      -3.270 -34.576 -14.946  1.00 84.74 LIG 0.14  C 
BRANCH 27 28
ATOM     28  CG  ASN B  18      -3.086 -35.043 -13.496  1.00 96.34 LIG 0.22  C 
ATOM     29 OD1  ASN B  18      -1.964 -35.344 -13.060  1.00 99.44 LIG-0.27  OA
ATOM     30  ND2 ASN B  18      -4.193 -35.123 -12.747  1.00 94.73 LIG-0.37  N 
ATOM     31 21HD ASN B  18      -4.141 -35.391 -11.932  1.00 94.73 LIG 0.16  HD
ATOM     32 22HD ASN B  18      -4.955 -34.907 -13.081  1.00 94.73 LIG 0.16  HD
ENDBRANCH 27 28
ENDBRANCH 26 27
BRANCH 26 33
ATOM     33  C   ASN B  18      -1.613 -33.359 -16.459  1.00 72.97 LIG 0.22  C 
ATOM     34 O    ASN B  18      -1.267 -32.374 -17.128  1.00 74.17 LIG-0.29  OA
ENDBRANCH 26 33
ENDBRANCH 23 26
ENDBRANCH 21 22
BRANCH 21 35
ATOM     35  CB  TYR B  17      -4.103 -29.517 -16.804  1.00 54.83 LIG 0.07  C 
BRANCH 35 36
ATOM     36  CG  TYR B  17      -4.500 -28.172 -16.329  1.00 56.96 LIG-0.06  A 
ATOM     37  CD2 TYR B  17      -3.950 -27.652 -15.152  1.00 61.26 LIG 0.01  A 
ATOM     38  CE2 TYR B  17      -4.313 -26.410 -14.685  1.00 70.21 LIG 0.04  A 
ATOM     39  CZ  TYR B  17      -5.252 -25.683 -15.397  1.00 76.40 LIG 0.07  A 
ATOM     40  CE1 TYR B  17      -5.818 -26.181 -16.565  1.00 67.10 LIG 0.04  A 
ATOM     41  CD1 TYR B  17      -5.438 -27.431 -17.017  1.00 57.92 LIG 0.01  A 
BRANCH 39 42
ATOM     42 OH   TYR B  17      -5.620 -24.455 -14.933  1.00 89.25 LIG-0.36  OA
ATOM     43 HH   TYR B  17      -4.979 -23.919 -15.018  1.00 89.25 LIG 0.22  HD
ENDBRANCH 39 42
ENDBRANCH 35 36
ENDBRANCH 21 35
ENDBRANCH 19 21
ENDBRANCH 12 17
ENDBRANCH 9 12
ENDBRANCH 4 8
BRANCH 1 44
ATOM     44  CA  ARG B  14     -10.647 -28.065  -8.299  1.00 32.45 LIG 0.18  C 
BRANCH 44 45
ATOM     45  N   ARG B  14     -10.532 -29.211  -7.426  1.00 38.19 LIG-0.35  N 
ATOM     46 H    ARG B  14      -9.841 -29.188  -6.914  1.00 38.19 LIG 0.16  HD
ATOM     47  C   PRO B  13     -11.415 -30.214  -7.415  1.00 38.91 LIG 0.24  C 
ATOM     48 O    PRO B  13     -12.401 -30.243  -8.124  1.00 32.88 LIG-0.27  OA
BRANCH 47 49
ATOM     49  CA  PRO B  13     -11.150 -31.347  -6.403  1.00 38.31 LIG 0.18  C 
ATOM     50  N   PRO B  13     -12.340 -32.065  -5.999  1.00 38.88 LIG-0.34  N 
ATOM     51  CD  PRO B  13     -12.160 -33.519  -6.119  1.00 43.50 LIG 0.13  C 
ATOM     52  C   PRO B  12     -13.461 -31.482  -5.543  1.00 40.77 LIG 0.26  C 
ATOM     53  CG  PRO B  13     -10.690 -33.675  -6.308  1.00 43.53 LIG 0.02  C 
ATOM     54  CB  PRO B  13     -10.274 -32.438  -7.018  1.00 39.91 LIG 0.04  C 
ATOM     55 O    PRO B  12     -13.572 -30.261  -5.358  1.00 44.45 LIG-0.27  OA
BRANCH 52 56
ATOM     56  CA  PRO B  12     -14.633 -32.384  -5.249  1.00 38.46 LIG 0.35  C 
ATOM     57  CB  PRO B  12     -15.781 -32.030  -6.196  1.00 43.42 LIG 0.05  C 
ATOM     58  CG  PRO B  12     -16.997 -32.108  -5.367  1.00 41.12 LIG 0.04  C 
ATOM     59  CD  PRO B  12     -16.573 -31.674  -3.995  1.00 39.74 LIG 0.32  C 
ATOM     60  N   PRO B  12     -15.161 -32.063  -3.945  1.00 38.12 LIG 0.32  N 
ENDBRANCH 52 56
ENDBRANCH 47 49
ENDBRANCH 44 45
BRANCH 44 61
ATOM     61  CB  ARG B  14      -9.625 -27.016  -7.847  1.00 34.42 LIG 0.04  C 
BRANCH 61 62
ATOM     62  CG  ARG B  14      -9.890 -26.414  -6.467  1.00 32.66 LIG 0.02  C 
BRANCH 62 63
ATOM     63  CD  ARG B  14     -11.371 -26.136  -6.319  1.00 35.24 LIG 0.14  C 
BRANCH 63 64
ATOM     64  NE  ARG B  14     -11.653 -24.950  -5.491  1.00 42.22 LIG-0.23  N 
ATOM     65  CZ  ARG B  14     -12.495 -24.897  -4.456  1.00 44.72 LIG 0.67  C 
ATOM     66  NH2 ARG B  14     -13.198 -25.948  -4.081  1.00 43.48 LIG-0.23  N 
ATOM     67  NH1 ARG B  14     -12.647 -23.763  -3.797  1.00 46.51 LIG-0.23  N 
ATOM     68 1HH2 ARG B  14     -13.120 -26.692  -4.505  1.00 43.48 LIG 0.17  HD
ATOM     69 2HH2 ARG B  14     -13.735 -25.890  -3.411  1.00 43.48 LIG 0.17  HD
ATOM     70 2HH1 ARG B  14     -13.188 -23.723  -3.130  1.00 46.51 LIG 0.17  HD
ATOM     71 1HH1 ARG B  14     -12.204 -23.065  -4.034  1.00 46.51 LIG 0.17  HD
ATOM     72 HE   ARG B  14     -11.236 -24.225  -5.692  1.00 42.22 LIG 0.18  HD
ENDBRANCH 63 64
ENDBRANCH 62 63
ENDBRANCH 61 62
ENDBRANCH 44 61
ENDBRANCH 1 44
TORSDOF 22
ENDMDL
MODEL 23
USER: ADFR SOLUTION from run 133
USER: SCORE 21.792114 LL:  -4.629 LR: -18.862 RR:   0.000 FEB: -12.299
USER: RMSD 4.733196
USER: SEED 132
USER: STATUS no improvement in best in 13 clusters for 5 generations
USER: GENES 24
USER: genes 0 Translation |==|  0.46959 0.49900 0.56332
USER: genes 1 Rotation |==|  0.47852 0.55090 0.53620 0.99562
USER: genes 2 Torsion [N]-CA--C-[O] |==|  0.84145
USER: genes 3 Torsion [C]-N--CA-[CB] |==|  0.15004
USER: genes 4 Torsion [N]-CA--CB-[CG2] |==|  0.22659
USER: genes 5 Torsion [CA]-CB--CG1-[CD1] |==|  0.15653
USER: genes 6 Torsion [N]-CA--C-[N] |==|  0.51239
USER: genes 7 Torsion [C]-N--CA-[C] |==|  0.18042
USER: genes 8 Torsion [N]-CA--C-[N] |==|  0.19404
USER: genes 9 Torsion [C]-N--CA-[CB] |==|  0.45422
USER: genes 10 Torsion [N]-CA--CB-[CG] |==|  0.71511
USER: genes 11 Torsion [CA]-CB--CG-[ND2] |==|  0.27934
USER: genes 12 Torsion [N]-CA--C-[O] |==|  0.79566
USER: genes 13 Torsion [N]-CA--CB-[CG] |==|  0.72710
USER: genes 14 Torsion [CA]-CB--CG-[CD2] |==|  0.56734
USER: genes 15 Torsion [CE2]-CZ--OH-[HH] |==|  0.28766
USER: genes 16 Torsion [N]-C--CA-[N] |==|  0.40000
USER: genes 17 Torsion [C]-CA--N-[C] |==|  0.78308
USER: genes 18 Torsion [N]-C--CA-[N] |==|  0.45400
USER: genes 19 Torsion [N]-C--CA-[CB] |==|  0.67177
USER: genes 20 Torsion [C]-CA--CB-[CG] |==|  0.47459
USER: genes 21 Torsion [CA]-CB--CG-[CD] |==|  0.93012
USER: genes 22 Torsion [CB]-CG--CD-[NE] |==|  0.52967
USER: genes 23 Torsion [CG]-CD--NE-[CZ] |==|  0.62963
ROOT
ATOM      1  C   ARG B  14     -10.133 -28.665 -10.176  1.00 32.92 LIG 0.24  C 
ATOM      2 O    ARG B  14      -9.237 -29.505 -10.274  1.00 37.82 LIG-0.27  OA
ATOM      3  N   PRO B  15     -10.871 -28.259 -11.214  1.00 31.88 LIG-0.34  N 
ATOM      4  CA  PRO B  15     -10.661 -28.848 -12.539  1.00 30.79 LIG 0.18  C 
ATOM      5  CB  PRO B  15     -11.730 -28.184 -13.382  1.00 31.22 LIG 0.04  C 
ATOM      6  CG  PRO B  15     -12.821 -27.914 -12.396  1.00 29.82 LIG 0.02  C 
ATOM      7  CD  PRO B  15     -12.095 -27.443 -11.177  1.00 31.43 LIG 0.13  C 
ENDROOT
BRANCH 4 8
ATOM      8  C   PRO B  15      -9.297 -28.466 -13.057  1.00 33.68 LIG 0.24  C 
ATOM      9  N   ILE B  16      -8.471 -29.460 -13.319  1.00 35.41 LIG-0.35  N 
ATOM     10 H    ILE B  16      -8.641 -30.288 -13.155  1.00 35.41 LIG 0.16  HD
ATOM     11 O    PRO B  15      -8.984 -27.290 -13.165  1.00 34.05 LIG-0.27  OA
BRANCH 9 12
ATOM     12  CA  ILE B  16      -7.218 -29.221 -13.904  1.00 37.77 LIG 0.18  C 
BRANCH 12 13
ATOM     13  CB  ILE B  16      -6.416 -28.200 -13.112  1.00 42.27 LIG 0.01  C 
ATOM     14  CG2 ILE B  16      -5.749 -28.869 -11.945  1.00 44.80 LIG 0.01  C 
BRANCH 13 15
ATOM     15  CG1 ILE B  16      -5.405 -27.533 -14.061  1.00 47.53 LIG 0.00  C 
ATOM     16  CD1 ILE B  16      -5.994 -26.870 -15.301  1.00 51.74 LIG 0.01  C 
ENDBRANCH 13 15
ENDBRANCH 12 13
BRANCH 12 17
ATOM     17  C   ILE B  16      -6.558 -30.560 -13.982  1.00 42.33 LIG 0.24  C 
ATOM     18 O    ILE B  16      -7.153 -31.563 -13.702  1.00 39.29 LIG-0.27  OA
ATOM     19  N   TYR B  17      -5.314 -30.544 -14.424  1.00 46.96 LIG-0.35  N 
ATOM     20 H    TYR B  17      -4.860 -29.820 -14.519  1.00 46.96 LIG 0.16  HD
BRANCH 19 21
ATOM     21  CA  TYR B  17      -4.591 -31.728 -14.794  1.00 51.19 LIG 0.18  C 
BRANCH 21 22
ATOM     22  C   TYR B  17      -5.232 -32.365 -15.975  1.00 56.10 LIG 0.24  C 
ATOM     23  N   ASN B  18      -5.138 -31.739 -17.131  1.00 65.39 LIG-0.35  N 
ATOM     24 H    ASN B  18      -4.612 -31.075 -17.278  1.00 65.39 LIG 0.16  HD
ATOM     25 O    TYR B  17      -5.752 -33.459 -15.855  1.00 61.36 LIG-0.27  OA
BRANCH 23 26
ATOM     26  CA  ASN B  18      -5.951 -32.144 -18.289  1.00 70.74 LIG 0.17  C 
BRANCH 26 27
ATOM     27  CB  ASN B  18      -5.941 -31.015 -19.330  1.00 84.74 LIG 0.14  C 
BRANCH 27 28
ATOM     28  CG  ASN B  18      -7.237 -30.194 -19.322  1.00 96.34 LIG 0.22  C 
ATOM     29 OD1  ASN B  18      -8.257 -30.606 -19.897  1.00 99.44 LIG-0.27  OA
ATOM     30  ND2 ASN B  18      -7.199 -29.018 -18.684  1.00 94.73 LIG-0.37  N 
ATOM     31 21HD ASN B  18      -7.897 -28.517 -18.663  1.00 94.73 LIG 0.16  HD
ATOM     32 22HD ASN B  18      -6.475 -28.762 -18.296  1.00 94.73 LIG 0.16  HD
ENDBRANCH 27 28
ENDBRANCH 26 27
BRANCH 26 33
ATOM     33  C   ASN B  18      -5.664 -33.521 -18.935  1.00 72.97 LIG 0.22  C 
ATOM     34 O    ASN B  18      -4.662 -33.738 -19.632  1.00 74.17 LIG-0.29  OA
ENDBRANCH 26 33
ENDBRANCH 23 26
ENDBRANCH 21 22
BRANCH 21 35
ATOM     35  CB  TYR B  17      -4.691 -32.718 -13.645  1.00 54.83 LIG 0.07  C 
BRANCH 35 36
ATOM     36  CG  TYR B  17      -3.482 -32.676 -12.791  1.00 56.96 LIG-0.06  A 
ATOM     37  CD2 TYR B  17      -3.127 -33.790 -12.022  1.00 61.26 LIG 0.01  A 
ATOM     38  CE2 TYR B  17      -2.014 -33.768 -11.212  1.00 70.21 LIG 0.04  A 
ATOM     39  CZ  TYR B  17      -1.256 -32.612 -11.158  1.00 76.40 LIG 0.07  A 
ATOM     40  CE1 TYR B  17      -1.593 -31.490 -11.907  1.00 67.10 LIG 0.04  A 
ATOM     41  CD1 TYR B  17      -2.714 -31.534 -12.716  1.00 57.92 LIG 0.01  A 
BRANCH 39 42
ATOM     42 OH   TYR B  17      -0.157 -32.585 -10.350  1.00 89.25 LIG-0.36  OA
ATOM     43 HH   TYR B  17       0.536 -32.663 -10.817  1.00 89.25 LIG 0.22  HD
ENDBRANCH 39 42
ENDBRANCH 35 36
ENDBRANCH 21 35
ENDBRANCH 19 21
ENDBRANCH 12 17
ENDBRANCH 9 12
ENDBRANCH 4 8
BRANCH 1 44
ATOM     44  CA  ARG B  14     -10.390 -28.022  -8.845  1.00 32.45 LIG 0.18  C 
BRANCH 44 45
ATOM     45  N   ARG B  14     -10.197 -29.108  -7.911  1.00 38.19 LIG-0.35  N 
ATOM     46 H    ARG B  14      -9.438 -29.086  -7.507  1.00 38.19 LIG 0.16  HD
ATOM     47  C   PRO B  13     -11.112 -30.057  -7.694  1.00 38.91 LIG 0.24  C 
ATOM     48 O    PRO B  13     -12.192 -30.082  -8.249  1.00 32.88 LIG-0.27  OA
BRANCH 47 49
ATOM     49  CA  PRO B  13     -10.751 -31.127  -6.644  1.00 38.31 LIG 0.18  C 
ATOM     50  N   PRO B  13     -11.884 -31.893  -6.170  1.00 38.88 LIG-0.34  N 
ATOM     51  CD  PRO B  13     -11.623 -33.338  -6.235  1.00 43.50 LIG 0.13  C 
ATOM     52  C   PRO B  12     -13.022 -31.355  -5.703  1.00 40.77 LIG 0.26  C 
ATOM     53  CG  PRO B  13     -10.153 -33.419  -6.466  1.00 43.53 LIG 0.02  C 
ATOM     54  CB  PRO B  13      -9.832 -32.193  -7.242  1.00 39.91 LIG 0.04  C 
ATOM     55 O    PRO B  12     -13.199 -30.135  -5.566  1.00 44.45 LIG-0.27  OA
BRANCH 52 56
ATOM     56  CA  PRO B  12     -14.130 -32.308  -5.331  1.00 38.46 LIG 0.35  C 
ATOM     57  CB  PRO B  12     -15.345 -32.026  -6.217  1.00 43.42 LIG 0.05  C 
ATOM     58  CG  PRO B  12     -16.508 -32.150  -5.322  1.00 41.12 LIG 0.04  C 
ATOM     59  CD  PRO B  12     -16.031 -31.674  -3.981  1.00 39.74 LIG 0.32  C 
ATOM     60  N   PRO B  12     -14.601 -31.993  -4.004  1.00 38.12 LIG 0.32  N 
ENDBRANCH 52 56
ENDBRANCH 47 49
ENDBRANCH 44 45
BRANCH 44 61
ATOM     61  CB  ARG B  14      -9.307 -26.970  -8.585  1.00 34.42 LIG 0.04  C 
BRANCH 61 62
ATOM     62  CG  ARG B  14      -9.558 -26.078  -7.369  1.00 32.66 LIG 0.02  C 
BRANCH 62 63
ATOM     63  CD  ARG B  14     -11.046 -26.020  -7.089  1.00 35.24 LIG 0.14  C 
BRANCH 63 64
ATOM     64  NE  ARG B  14     -11.404 -24.992  -6.097  1.00 42.22 LIG-0.23  N 
ATOM     65  CZ  ARG B  14     -12.220 -25.157  -5.054  1.00 44.72 LIG 0.67  C 
ATOM     66  NH2 ARG B  14     -12.822 -26.308  -4.821  1.00 43.48 LIG-0.23  N 
ATOM     67  NH1 ARG B  14     -12.449 -24.145  -4.238  1.00 46.51 LIG-0.23  N 
ATOM     68 1HH2 ARG B  14     -12.692 -26.976  -5.348  1.00 43.48 LIG 0.17  HD
ATOM     69 2HH2 ARG B  14     -13.343 -26.391  -4.142  1.00 43.48 LIG 0.17  HD
ATOM     70 2HH1 ARG B  14     -12.975 -24.246  -3.564  1.00 46.51 LIG 0.17  HD
ATOM     71 1HH1 ARG B  14     -12.074 -23.385  -4.380  1.00 46.51 LIG 0.17  HD
ATOM     72 HE   ARG B  14     -11.055 -24.212  -6.199  1.00 42.22 LIG 0.18  HD
ENDBRANCH 63 64
ENDBRANCH 62 63
ENDBRANCH 61 62
ENDBRANCH 44 61
ENDBRANCH 1 44
TORSDOF 22
ENDMDL
MODEL 24
USER: ADFR SOLUTION from run 150
USER: SCORE 21.553882 LL:  -5.140 LR: -18.814 RR:   0.000 FEB: -12.251
USER: RMSD 3.897642
USER: SEED 149
USER: STATUS no improvement in best in 20 clusters for 5 generations
USER: GENES 24
USER: genes 0 Translation |==|  0.44968 0.47254 0.57058
USER: genes 1 Rotation |==|  0.59931 0.48577 0.42079 0.98338
USER: genes 2 Torsion [N]-CA--C-[O] |==|  0.81494
USER: genes 3 Torsion [C]-N--CA-[CB] |==|  0.44452
USER: genes 4 Torsion [N]-CA--CB-[CG2] |==|  0.31528
USER: genes 5 Torsion [CA]-CB--CG1-[CD1] |==|  0.83658
USER: genes 6 Torsion [N]-CA--C-[N] |==|  0.44526
USER: genes 7 Torsion [C]-N--CA-[C] |==|  0.21666
USER: genes 8 Torsion [N]-CA--C-[N] |==|  0.32488
USER: genes 9 Torsion [C]-N--CA-[CB] |==|  0.37601
USER: genes 10 Torsion [N]-CA--CB-[CG] |==|  0.85733
USER: genes 11 Torsion [CA]-CB--CG-[ND2] |==|  0.78328
USER: genes 12 Torsion [N]-CA--C-[O] |==|  0.11175
USER: genes 13 Torsion [N]-CA--CB-[CG] |==|  0.45418
USER: genes 14 Torsion [CA]-CB--CG-[CD2] |==|  0.13540
USER: genes 15 Torsion [CE2]-CZ--OH-[HH] |==|  0.41298
USER: genes 16 Torsion [N]-C--CA-[N] |==|  0.41844
USER: genes 17 Torsion [C]-CA--N-[C] |==|  0.54479
USER: genes 18 Torsion [N]-C--CA-[N] |==|  0.22403
USER: genes 19 Torsion [N]-C--CA-[CB] |==|  0.73806
USER: genes 20 Torsion [C]-CA--CB-[CG] |==|  0.38341
USER: genes 21 Torsion [CA]-CB--CG-[CD] |==|  0.84938
USER: genes 22 Torsion [CB]-CG--CD-[NE] |==|  0.47387
USER: genes 23 Torsion [CG]-CD--NE-[CZ] |==|  0.84228
ROOT
ATOM      1  C   ARG B  14     -10.581 -29.161  -9.974  1.00 32.92 LIG 0.24  C 
ATOM      2 O    ARG B  14     -10.128 -30.240 -10.361  1.00 37.82 LIG-0.27  OA
ATOM      3  N   PRO B  15     -10.698 -28.092 -10.767  1.00 31.88 LIG-0.34  N 
ATOM      4  CA  PRO B  15     -10.317 -28.179 -12.180  1.00 30.79 LIG 0.18  C 
ATOM      5  CB  PRO B  15     -10.676 -26.809 -12.716  1.00 31.22 LIG 0.04  C 
ATOM      6  CG  PRO B  15     -11.823 -26.394 -11.850  1.00 29.82 LIG 0.02  C 
ATOM      7  CD  PRO B  15     -11.420 -26.840 -10.482  1.00 31.43 LIG 0.13  C 
ENDROOT
BRANCH 4 8
ATOM      8  C   PRO B  15      -8.829 -28.395 -12.294  1.00 33.68 LIG 0.24  C 
ATOM      9  N   ILE B  16      -8.442 -29.580 -12.726  1.00 35.41 LIG-0.35  N 
ATOM     10 H    ILE B  16      -8.975 -30.238 -12.881  1.00 35.41 LIG 0.16  HD
ATOM     11 O    PRO B  15      -8.049 -27.521 -11.947  1.00 34.05 LIG-0.27  OA
BRANCH 9 12
ATOM     12  CA  ILE B  16      -7.087 -29.850 -12.971  1.00 37.77 LIG 0.18  C 
BRANCH 12 13
ATOM     13  CB  ILE B  16      -6.807 -31.345 -12.981  1.00 42.27 LIG 0.01  C 
ATOM     14  CG2 ILE B  16      -6.405 -31.780 -14.361  1.00 44.80 LIG 0.01  C 
BRANCH 13 15
ATOM     15  CG1 ILE B  16      -5.719 -31.643 -11.933  1.00 47.53 LIG 0.00  C 
ATOM     16  CD1 ILE B  16      -4.390 -30.922 -12.131  1.00 51.74 LIG 0.01  C 
ENDBRANCH 13 15
ENDBRANCH 12 13
BRANCH 12 17
ATOM     17  C   ILE B  16      -6.780 -29.182 -14.272  1.00 42.33 LIG 0.24  C 
ATOM     18 O    ILE B  16      -7.656 -28.842 -15.017  1.00 39.29 LIG-0.27  OA
ATOM     19  N   TYR B  17      -5.499 -28.958 -14.496  1.00 46.96 LIG-0.35  N 
ATOM     20 H    TYR B  17      -4.872 -29.298 -14.015  1.00 46.96 LIG 0.16  HD
BRANCH 19 21
ATOM     21  CA  TYR B  17      -5.015 -28.128 -15.563  1.00 51.19 LIG 0.18  C 
BRANCH 21 22
ATOM     22  C   TYR B  17      -5.164 -26.695 -15.195  1.00 56.10 LIG 0.24  C 
ATOM     23  N   ASN B  18      -4.064 -25.976 -15.087  1.00 65.39 LIG-0.35  N 
ATOM     24 H    ASN B  18      -3.290 -26.235 -15.357  1.00 65.39 LIG 0.16  HD
ATOM     25 O    TYR B  17      -6.279 -26.220 -15.079  1.00 61.36 LIG-0.27  OA
BRANCH 23 26
ATOM     26  CA  ASN B  18      -4.083 -24.636 -14.478  1.00 70.74 LIG 0.17  C 
BRANCH 26 27
ATOM     27  CB  ASN B  18      -2.893 -24.504 -13.516  1.00 84.74 LIG 0.14  C 
BRANCH 27 28
ATOM     28  CG  ASN B  18      -2.814 -25.664 -12.515  1.00 96.34 LIG 0.22  C 
ATOM     29 OD1  ASN B  18      -2.015 -26.599 -12.683  1.00 99.44 LIG-0.27  OA
ATOM     30  ND2 ASN B  18      -3.657 -25.620 -11.476  1.00 94.73 LIG-0.37  N 
ATOM     31 21HD ASN B  18      -3.658 -26.254 -10.896  1.00 94.73 LIG 0.16  HD
ATOM     32 22HD ASN B  18      -4.199 -24.957 -11.390  1.00 94.73 LIG 0.16  HD
ENDBRANCH 27 28
ENDBRANCH 26 27
BRANCH 26 33
ATOM     33  C   ASN B  18      -4.199 -23.411 -15.417  1.00 72.97 LIG 0.22  C 
ATOM     34 O    ASN B  18      -4.941 -23.396 -16.410  1.00 74.17 LIG-0.29  OA
ENDBRANCH 26 33
ENDBRANCH 23 26
ENDBRANCH 21 22
BRANCH 21 35
ATOM     35  CB  TYR B  17      -5.892 -28.368 -16.781  1.00 54.83 LIG 0.07  C 
BRANCH 35 36
ATOM     36  CG  TYR B  17      -5.726 -27.293 -17.785  1.00 56.96 LIG-0.06  A 
ATOM     37  CD2 TYR B  17      -4.444 -26.891 -18.178  1.00 61.26 LIG 0.01  A 
ATOM     38  CE2 TYR B  17      -4.266 -25.886 -19.100  1.00 70.21 LIG 0.04  A 
ATOM     39  CZ  TYR B  17      -5.384 -25.262 -19.625  1.00 76.40 LIG 0.07  A 
ATOM     40  CE1 TYR B  17      -6.667 -25.638 -19.244  1.00 67.10 LIG 0.04  A 
ATOM     41  CD1 TYR B  17      -6.824 -26.652 -18.317  1.00 57.92 LIG 0.01  A 
BRANCH 39 42
ATOM     42 OH   TYR B  17      -5.210 -24.260 -20.534  1.00 89.25 LIG-0.36  OA
ATOM     43 HH   TYR B  17      -5.855 -24.254 -21.072  1.00 89.25 LIG 0.22  HD
ENDBRANCH 39 42
ENDBRANCH 35 36
ENDBRANCH 21 35
ENDBRANCH 19 21
ENDBRANCH 12 17
ENDBRANCH 9 12
ENDBRANCH 4 8
BRANCH 1 44
ATOM     44  CA  ARG B  14     -10.981 -29.009  -8.537  1.00 32.45 LIG 0.18  C 
BRANCH 44 45
ATOM     45  N   ARG B  14     -11.421 -30.338  -8.174  1.00 38.19 LIG-0.35  N 
ATOM     46 H    ARG B  14     -11.170 -30.948  -8.725  1.00 38.19 LIG 0.16  HD
ATOM     47  C   PRO B  13     -12.150 -30.593  -7.084  1.00 38.91 LIG 0.24  C 
ATOM     48 O    PRO B  13     -12.493 -29.737  -6.294  1.00 32.88 LIG-0.27  OA
BRANCH 47 49
ATOM     49  CA  PRO B  13     -12.513 -32.072  -6.836  1.00 38.31 LIG 0.18  C 
ATOM     50  N   PRO B  13     -11.452 -32.843  -6.224  1.00 38.88 LIG-0.34  N 
ATOM     51  CD  PRO B  13     -11.935 -33.593  -5.056  1.00 43.50 LIG 0.13  C 
ATOM     52  C   PRO B  12     -10.189 -32.893  -6.679  1.00 40.77 LIG 0.26  C 
ATOM     53  CG  PRO B  13     -13.418 -33.503  -5.171  1.00 43.53 LIG 0.02  C 
ATOM     54  CB  PRO B  13     -13.660 -32.195  -5.833  1.00 39.91 LIG 0.04  C 
ATOM     55 O    PRO B  12      -9.811 -32.330  -7.718  1.00 44.45 LIG-0.27  OA
BRANCH 52 56
ATOM     56  CA  PRO B  12      -9.196 -33.682  -5.864  1.00 38.46 LIG 0.35  C 
ATOM     57  CB  PRO B  12      -8.471 -32.732  -4.909  1.00 43.42 LIG 0.05  C 
ATOM     58  CG  PRO B  12      -7.067 -33.179  -4.919  1.00 41.12 LIG 0.04  C 
ATOM     59  CD  PRO B  12      -6.821 -33.689  -6.308  1.00 39.74 LIG 0.32  C 
ATOM     60  N   PRO B  12      -8.144 -34.157  -6.730  1.00 38.12 LIG 0.32  N 
ENDBRANCH 52 56
ENDBRANCH 47 49
ENDBRANCH 44 45
BRANCH 44 61
ATOM     61  CB  ARG B  14      -9.737 -28.675  -7.707  1.00 34.42 LIG 0.04  C 
BRANCH 61 62
ATOM     62  CG  ARG B  14      -9.944 -27.597  -6.644  1.00 32.66 LIG 0.02  C 
BRANCH 62 63
ATOM     63  CD  ARG B  14     -10.519 -26.356  -7.295  1.00 35.24 LIG 0.14  C 
BRANCH 63 64
ATOM     64  NE  ARG B  14     -10.956 -25.345  -6.317  1.00 42.22 LIG-0.23  N 
ATOM     65  CZ  ARG B  14     -11.843 -25.532  -5.337  1.00 44.72 LIG 0.67  C 
ATOM     66  NH2 ARG B  14     -12.449 -26.691  -5.164  1.00 43.48 LIG-0.23  N 
ATOM     67  NH1 ARG B  14     -12.140 -24.534  -4.526  1.00 46.51 LIG-0.23  N 
ATOM     68 1HH2 ARG B  14     -12.275 -27.350  -5.689  1.00 43.48 LIG 0.17  HD
ATOM     69 2HH2 ARG B  14     -13.017 -26.789  -4.525  1.00 43.48 LIG 0.17  HD
ATOM     70 2HH1 ARG B  14     -12.711 -24.648  -3.893  1.00 46.51 LIG 0.17  HD
ATOM     71 1HH1 ARG B  14     -11.762 -23.768  -4.631  1.00 46.51 LIG 0.17  HD
ATOM     72 HE   ARG B  14     -10.608 -24.560  -6.384  1.00 42.22 LIG 0.18  HD
ENDBRANCH 63 64
ENDBRANCH 62 63
ENDBRANCH 61 62
ENDBRANCH 44 61
ENDBRANCH 1 44
TORSDOF 22
ENDMDL
MODEL 25
USER: ADFR SOLUTION from run 187
USER: SCORE 23.463223 LL:  -5.493 LR: -18.682 RR:   0.000 FEB: -12.120
USER: RMSD 5.097842
USER: SEED 186
USER: STATUS no improvement in best in 13 clusters for 5 generations
USER: GENES 24
USER: genes 0 Translation |==|  0.45418 0.47273 0.57035
USER: genes 1 Rotation |==|  0.59684 0.48326 0.41784 0.98331
USER: genes 2 Torsion [N]-CA--C-[O] |==|  0.92077
USER: genes 3 Torsion [C]-N--CA-[CB] |==|  0.52222
USER: genes 4 Torsion [N]-CA--CB-[CG2] |==|  0.30623
USER: genes 5 Torsion [CA]-CB--CG1-[CD1] |==|  0.04500
USER: genes 6 Torsion [N]-CA--C-[N] |==|  0.40739
USER: genes 7 Torsion [C]-N--CA-[C] |==|  0.80931
USER: genes 8 Torsion [N]-CA--C-[N] |==|  0.39121
USER: genes 9 Torsion [C]-N--CA-[CB] |==|  0.73134
USER: genes 10 Torsion [N]-CA--CB-[CG] |==|  0.79660
USER: genes 11 Torsion [CA]-CB--CG-[ND2] |==|  0.52621
USER: genes 12 Torsion [N]-CA--C-[O] |==|  0.11975
USER: genes 13 Torsion [N]-CA--CB-[CG] |==|  0.42477
USER: genes 14 Torsion [CA]-CB--CG-[CD2] |==|  0.71494
USER: genes 15 Torsion [CE2]-CZ--OH-[HH] |==|  0.10669
USER: genes 16 Torsion [N]-C--CA-[N] |==|  0.41866
USER: genes 17 Torsion [C]-CA--N-[C] |==|  0.54692
USER: genes 18 Torsion [N]-C--CA-[N] |==|  0.21974
USER: genes 19 Torsion [N]-C--CA-[CB] |==|  0.75243
USER: genes 20 Torsion [C]-CA--CB-[CG] |==|  0.37794
USER: genes 21 Torsion [CA]-CB--CG-[CD] |==|  0.86500
USER: genes 22 Torsion [CB]-CG--CD-[NE] |==|  0.46593
USER: genes 23 Torsion [CG]-CD--NE-[CZ] |==|  0.83367
ROOT
ATOM      1  C   ARG B  14     -10.480 -29.157  -9.981  1.00 32.92 LIG 0.24  C 
ATOM      2 O    ARG B  14     -10.040 -30.246 -10.353  1.00 37.82 LIG-0.27  OA
ATOM      3  N   PRO B  15     -10.577 -28.095 -10.785  1.00 31.88 LIG-0.34  N 
ATOM      4  CA  PRO B  15     -10.190 -28.203 -12.195  1.00 30.79 LIG 0.18  C 
ATOM      5  CB  PRO B  15     -10.526 -26.834 -12.748  1.00 31.22 LIG 0.04  C 
ATOM      6  CG  PRO B  15     -11.672 -26.394 -11.893  1.00 29.82 LIG 0.02  C 
ATOM      7  CD  PRO B  15     -11.283 -26.831 -10.518  1.00 31.43 LIG 0.13  C 
ENDROOT
BRANCH 4 8
ATOM      8  C   PRO B  15      -8.704 -28.440 -12.298  1.00 33.68 LIG 0.24  C 
ATOM      9  N   ILE B  16      -8.298 -29.162 -13.325  1.00 35.41 LIG-0.35  N 
ATOM     10 H    ILE B  16      -8.825 -29.548 -13.886  1.00 35.41 LIG 0.16  HD
ATOM     11 O    PRO B  15      -7.949 -28.021 -11.435  1.00 34.05 LIG-0.27  OA
BRANCH 9 12
ATOM     12  CA  ILE B  16      -6.930 -29.354 -13.575  1.00 37.77 LIG 0.18  C 
BRANCH 12 13
ATOM     13  CB  ILE B  16      -6.696 -30.048 -14.908  1.00 42.27 LIG 0.01  C 
ATOM     14  CG2 ILE B  16      -6.081 -29.086 -15.883  1.00 44.80 LIG 0.01  C 
BRANCH 13 15
ATOM     15  CG1 ILE B  16      -5.811 -31.283 -14.665  1.00 47.53 LIG 0.00  C 
ATOM     16  CD1 ILE B  16      -5.701 -31.748 -13.217  1.00 51.74 LIG 0.01  C 
ENDBRANCH 13 15
ENDBRANCH 12 13
BRANCH 12 17
ATOM     17  C   ILE B  16      -6.322 -27.991 -13.503  1.00 42.33 LIG 0.24  C 
ATOM     18 O    ILE B  16      -6.946 -27.015 -13.813  1.00 39.29 LIG-0.27  OA
ATOM     19  N   TYR B  17      -5.090 -27.954 -13.030  1.00 46.96 LIG-0.35  N 
ATOM     20 H    TYR B  17      -4.612 -28.659 -12.913  1.00 46.96 LIG 0.16  HD
BRANCH 19 21
ATOM     21  CA  TYR B  17      -4.420 -26.738 -12.662  1.00 51.19 LIG 0.18  C 
BRANCH 21 22
ATOM     22  C   TYR B  17      -4.134 -25.931 -13.878  1.00 56.10 LIG 0.24  C 
ATOM     23  N   ASN B  18      -4.283 -24.624 -13.791  1.00 65.39 LIG-0.35  N 
ATOM     24 H    ASN B  18      -4.386 -24.199 -13.050  1.00 65.39 LIG 0.16  HD
ATOM     25 O    TYR B  17      -3.709 -26.483 -14.876  1.00 61.36 LIG-0.27  OA
BRANCH 23 26
ATOM     26  CA  ASN B  18      -4.282 -23.772 -14.991  1.00 70.74 LIG 0.17  C 
BRANCH 26 27
ATOM     27  CB  ASN B  18      -2.876 -23.189 -15.193  1.00 84.74 LIG 0.14  C 
BRANCH 27 28
ATOM     28  CG  ASN B  18      -2.542 -22.090 -14.175  1.00 96.34 LIG 0.22  C 
ATOM     29 OD1  ASN B  18      -3.293 -21.861 -13.214  1.00 99.44 LIG-0.27  OA
ATOM     30  ND2 ASN B  18      -1.421 -21.391 -14.393  1.00 94.73 LIG-0.37  N 
ATOM     31 21HD ASN B  18      -1.199 -20.757 -13.856  1.00 94.73 LIG 0.16  HD
ATOM     32 22HD ASN B  18      -0.923 -21.576 -15.070  1.00 94.73 LIG 0.16  HD
ENDBRANCH 27 28
ENDBRANCH 26 27
BRANCH 26 33
ATOM     33  C   ASN B  18      -4.851 -24.363 -16.304  1.00 72.97 LIG 0.22  C 
ATOM     34 O    ASN B  18      -5.895 -25.030 -16.340  1.00 74.17 LIG-0.29  OA
ENDBRANCH 26 33
ENDBRANCH 23 26
ENDBRANCH 21 22
BRANCH 21 35
ATOM     35  CB  TYR B  17      -3.080 -27.107 -12.047  1.00 54.83 LIG 0.07  C 
BRANCH 35 36
ATOM     36  CG  TYR B  17      -2.088 -26.023 -12.228  1.00 56.96 LIG-0.06  A 
ATOM     37  CD2 TYR B  17      -1.098 -26.134 -13.212  1.00 61.26 LIG 0.01  A 
ATOM     38  CE2 TYR B  17      -0.158 -25.145 -13.389  1.00 70.21 LIG 0.04  A 
ATOM     39  CZ  TYR B  17      -0.199 -24.036 -12.562  1.00 76.40 LIG 0.07  A 
ATOM     40  CE1 TYR B  17      -1.168 -23.907 -11.573  1.00 67.10 LIG 0.04  A 
ATOM     41  CD1 TYR B  17      -2.104 -24.912 -11.412  1.00 57.92 LIG 0.01  A 
BRANCH 39 42
ATOM     42 OH   TYR B  17       0.736 -23.057 -12.730  1.00 89.25 LIG-0.36  OA
ATOM     43 HH   TYR B  17       0.886 -22.951 -13.550  1.00 89.25 LIG 0.22  HD
ENDBRANCH 39 42
ENDBRANCH 35 36
ENDBRANCH 21 35
ENDBRANCH 19 21
ENDBRANCH 12 17
ENDBRANCH 9 12
ENDBRANCH 4 8
BRANCH 1 44
ATOM     44  CA  ARG B  14     -10.886 -28.985  -8.547  1.00 32.45 LIG 0.18  C 
BRANCH 44 45
ATOM     45  N   ARG B  14     -11.345 -30.303  -8.172  1.00 38.19 LIG-0.35  N 
ATOM     46 H    ARG B  14     -11.089 -30.924  -8.710  1.00 38.19 LIG 0.16  HD
ATOM     47  C   PRO B  13     -12.095 -30.536  -7.092  1.00 38.91 LIG 0.24  C 
ATOM     48 O    PRO B  13     -12.444 -29.665  -6.321  1.00 32.88 LIG-0.27  OA
BRANCH 47 49
ATOM     49  CA  PRO B  13     -12.476 -32.007  -6.828  1.00 38.31 LIG 0.18  C 
ATOM     50  N   PRO B  13     -11.420 -32.787  -6.218  1.00 38.88 LIG-0.34  N 
ATOM     51  CD  PRO B  13     -11.904 -33.521  -5.039  1.00 43.50 LIG 0.13  C 
ATOM     52  C   PRO B  12     -10.162 -32.858  -6.682  1.00 40.77 LIG 0.26  C 
ATOM     53  CG  PRO B  13     -13.387 -33.411  -5.143  1.00 43.53 LIG 0.02  C 
ATOM     54  CB  PRO B  13     -13.616 -32.106  -5.815  1.00 39.91 LIG 0.04  C 
ATOM     55 O    PRO B  12      -9.785 -32.309  -7.728  1.00 44.45 LIG-0.27  OA
BRANCH 52 56
ATOM     56  CA  PRO B  12      -9.173 -33.653  -5.868  1.00 38.46 LIG 0.35  C 
ATOM     57  CB  PRO B  12      -8.521 -32.729  -4.838  1.00 43.42 LIG 0.05  C 
ATOM     58  CG  PRO B  12      -7.102 -33.126  -4.813  1.00 41.12 LIG 0.04  C 
ATOM     59  CD  PRO B  12      -6.784 -33.556  -6.215  1.00 39.74 LIG 0.32  C 
ATOM     60  N   PRO B  12      -8.071 -34.047  -6.713  1.00 38.12 LIG 0.32  N 
ENDBRANCH 52 56
ENDBRANCH 47 49
ENDBRANCH 44 45
BRANCH 44 61
ATOM     61  CB  ARG B  14      -9.642 -28.657  -7.714  1.00 34.42 LIG 0.04  C 
BRANCH 61 62
ATOM     62  CG  ARG B  14      -9.829 -27.532  -6.696  1.00 32.66 LIG 0.02  C 
BRANCH 62 63
ATOM     63  CD  ARG B  14     -10.485 -26.347  -7.375  1.00 35.24 LIG 0.14  C 
BRANCH 63 64
ATOM     64  NE  ARG B  14     -10.964 -25.332  -6.421  1.00 42.22 LIG-0.23  N 
ATOM     65  CZ  ARG B  14     -11.866 -25.525  -5.456  1.00 44.72 LIG 0.67  C 
ATOM     66  NH2 ARG B  14     -12.449 -26.695  -5.277  1.00 43.48 LIG-0.23  N 
ATOM     67  NH1 ARG B  14     -12.200 -24.522  -4.666  1.00 46.51 LIG-0.23  N 
ATOM     68 1HH2 ARG B  14     -12.251 -27.357  -5.789  1.00 43.48 LIG 0.17  HD
ATOM     69 2HH2 ARG B  14     -13.027 -26.796  -4.648  1.00 43.48 LIG 0.17  HD
ATOM     70 2HH1 ARG B  14     -12.781 -24.640  -4.042  1.00 46.51 LIG 0.17  HD
ATOM     71 1HH1 ARG B  14     -11.838 -23.750  -4.774  1.00 46.51 LIG 0.17  HD
ATOM     72 HE   ARG B  14     -10.633 -24.541  -6.492  1.00 42.22 LIG 0.18  HD
ENDBRANCH 63 64
ENDBRANCH 62 63
ENDBRANCH 61 62
ENDBRANCH 44 61
ENDBRANCH 1 44
TORSDOF 22
ENDMDL
MODEL 26
USER: ADFR SOLUTION from run 16
USER: SCORE 22.589709 LL:  -5.584 LR: -18.653 RR:   0.000 FEB: -12.091
USER: RMSD 3.245441
USER: SEED 509882
USER: STATUS no improvement in best in 15 clusters for 5 generations
USER: GENES 24
USER: genes 0 Translation |==|  0.47118 0.49879 0.58451
USER: genes 1 Rotation |==|  0.51687 0.51333 0.44590 0.99660
USER: genes 2 Torsion [N]-CA--C-[O] |==|  0.87591
USER: genes 3 Torsion [C]-N--CA-[CB] |==|  0.44755
USER: genes 4 Torsion [N]-CA--CB-[CG2] |==|  0.33930
USER: genes 5 Torsion [CA]-CB--CG1-[CD1] |==|  0.71812
USER: genes 6 Torsion [N]-CA--C-[N] |==|  0.38177
USER: genes 7 Torsion [C]-N--CA-[C] |==|  0.62222
USER: genes 8 Torsion [N]-CA--C-[N] |==|  0.01993
USER: genes 9 Torsion [C]-N--CA-[CB] |==|  0.40628
USER: genes 10 Torsion [N]-CA--CB-[CG] |==|  0.82396
USER: genes 11 Torsion [CA]-CB--CG-[ND2] |==|  0.28308
USER: genes 12 Torsion [N]-CA--C-[O] |==|  0.92422
USER: genes 13 Torsion [N]-CA--CB-[CG] |==|  0.17463
USER: genes 14 Torsion [CA]-CB--CG-[CD2] |==|  0.81631
USER: genes 15 Torsion [CE2]-CZ--OH-[HH] |==|  0.91049
USER: genes 16 Torsion [N]-C--CA-[N] |==|  0.44931
USER: genes 17 Torsion [C]-CA--N-[C] |==|  0.80104
USER: genes 18 Torsion [N]-C--CA-[N] |==|  0.45516
USER: genes 19 Torsion [N]-C--CA-[CB] |==|  0.63342
USER: genes 20 Torsion [C]-CA--CB-[CG] |==|  0.42793
USER: genes 21 Torsion [CA]-CB--CG-[CD] |==|  0.96468
USER: genes 22 Torsion [CB]-CG--CD-[NE] |==|  0.51201
USER: genes 23 Torsion [CG]-CD--NE-[CZ] |==|  0.64486
ROOT
ATOM      1  C   ARG B  14     -10.098 -28.669  -9.588  1.00 32.92 LIG 0.24  C 
ATOM      2 O    ARG B  14      -9.550 -29.767  -9.697  1.00 37.82 LIG-0.27  OA
ATOM      3  N   PRO B  15     -10.455 -27.923 -10.637  1.00 31.88 LIG-0.34  N 
ATOM      4  CA  PRO B  15     -10.237 -28.418 -11.999  1.00 30.79 LIG 0.18  C 
ATOM      5  CB  PRO B  15     -10.843 -27.329 -12.860  1.00 31.22 LIG 0.04  C 
ATOM      6  CG  PRO B  15     -11.924 -26.771 -11.991  1.00 29.82 LIG 0.02  C 
ATOM      7  CD  PRO B  15     -11.303 -26.719 -10.633  1.00 31.43 LIG 0.13  C 
ENDROOT
BRANCH 4 8
ATOM      8  C   PRO B  15      -8.758 -28.519 -12.275  1.00 33.68 LIG 0.24  C 
ATOM      9  N   ILE B  16      -8.340 -29.645 -12.819  1.00 35.41 LIG-0.35  N 
ATOM     10 H    ILE B  16      -8.841 -30.330 -12.963  1.00 35.41 LIG 0.16  HD
ATOM     11 O    PRO B  15      -8.005 -27.613 -11.951  1.00 34.05 LIG-0.27  OA
BRANCH 9 12
ATOM     12  CA  ILE B  16      -7.002 -29.802 -13.214  1.00 37.77 LIG 0.18  C 
BRANCH 12 13
ATOM     13  CB  ILE B  16      -6.634 -31.269 -13.375  1.00 42.27 LIG 0.01  C 
ATOM     14  CG2 ILE B  16      -6.146 -31.523 -14.772  1.00 44.80 LIG 0.01  C 
BRANCH 13 15
ATOM     15  CG1 ILE B  16      -5.579 -31.625 -12.313  1.00 47.53 LIG 0.00  C 
ATOM     16  CD1 ILE B  16      -4.138 -31.696 -12.806  1.00 51.74 LIG 0.01  C 
ENDBRANCH 13 15
ENDBRANCH 12 13
BRANCH 12 17
ATOM     17  C   ILE B  16      -6.871 -29.017 -14.480  1.00 42.33 LIG 0.24  C 
ATOM     18 O    ILE B  16      -7.739 -29.021 -15.307  1.00 39.29 LIG-0.27  OA
ATOM     19  N   TYR B  17      -5.769 -28.296 -14.577  1.00 46.96 LIG-0.35  N 
ATOM     20 H    TYR B  17      -5.105 -28.380 -14.037  1.00 46.96 LIG 0.16  HD
BRANCH 19 21
ATOM     21  CA  TYR B  17      -5.562 -27.301 -15.591  1.00 51.19 LIG 0.18  C 
BRANCH 21 22
ATOM     22  C   TYR B  17      -4.189 -27.427 -16.150  1.00 56.10 LIG 0.24  C 
ATOM     23  N   ASN B  18      -3.468 -28.462 -15.766  1.00 65.39 LIG-0.35  N 
ATOM     24 H    ASN B  18      -3.783 -29.138 -15.340  1.00 65.39 LIG 0.16  HD
ATOM     25 O    TYR B  17      -3.808 -26.627 -16.984  1.00 61.36 LIG-0.27  OA
BRANCH 23 26
ATOM     26  CA  ASN B  18      -2.025 -28.535 -16.049  1.00 70.74 LIG 0.17  C 
BRANCH 26 27
ATOM     27  CB  ASN B  18      -1.322 -29.264 -14.894  1.00 84.74 LIG 0.14  C 
BRANCH 27 28
ATOM     28  CG  ASN B  18      -1.439 -28.508 -13.564  1.00 96.34 LIG 0.22  C 
ATOM     29 OD1  ASN B  18      -0.710 -27.535 -13.317  1.00 99.44 LIG-0.27  OA
ATOM     30  ND2 ASN B  18      -2.345 -28.965 -12.691  1.00 94.73 LIG-0.37  N 
ATOM     31 21HD ASN B  18      -2.439 -28.582 -11.928  1.00 94.73 LIG 0.16  HD
ATOM     32 22HD ASN B  18      -2.835 -29.643 -12.894  1.00 94.73 LIG 0.16  HD
ENDBRANCH 27 28
ENDBRANCH 26 27
BRANCH 26 33
ATOM     33  C   ASN B  18      -1.580 -29.082 -17.427  1.00 72.97 LIG 0.22  C 
ATOM     34 O    ASN B  18      -2.262 -29.885 -18.080  1.00 74.17 LIG-0.29  OA
ENDBRANCH 26 33
ENDBRANCH 23 26
ENDBRANCH 21 22
BRANCH 21 35
ATOM     35  CB  TYR B  17      -5.652 -25.934 -14.934  1.00 54.83 LIG 0.07  C 
BRANCH 35 36
ATOM     36  CG  TYR B  17      -4.584 -25.750 -13.925  1.00 56.96 LIG-0.06  A 
ATOM     37  CD2 TYR B  17      -4.574 -26.532 -12.763  1.00 61.26 LIG 0.01  A 
ATOM     38  CE2 TYR B  17      -3.599 -26.369 -11.806  1.00 70.21 LIG 0.04  A 
ATOM     39  CZ  TYR B  17      -2.629 -25.402 -12.006  1.00 76.40 LIG 0.07  A 
ATOM     40  CE1 TYR B  17      -2.623 -24.608 -13.147  1.00 67.10 LIG 0.04  A 
ATOM     41  CD1 TYR B  17      -3.611 -24.789 -14.097  1.00 57.92 LIG 0.01  A 
BRANCH 39 42
ATOM     42 OH   TYR B  17      -1.666 -25.233 -11.055  1.00 89.25 LIG-0.36  OA
ATOM     43 HH   TYR B  17      -1.987 -25.403 -10.297  1.00 89.25 LIG 0.22  HD
ENDBRANCH 39 42
ENDBRANCH 35 36
ENDBRANCH 21 35
ENDBRANCH 19 21
ENDBRANCH 12 17
ENDBRANCH 9 12
ENDBRANCH 4 8
BRANCH 1 44
ATOM     44  CA  ARG B  14     -10.340 -28.107  -8.219  1.00 32.45 LIG 0.18  C 
BRANCH 44 45
ATOM     45  N   ARG B  14     -10.277 -29.272  -7.366  1.00 38.19 LIG-0.35  N 
ATOM     46 H    ARG B  14      -9.571 -29.305  -6.876  1.00 38.19 LIG 0.16  HD
ATOM     47  C   PRO B  13     -11.227 -30.212  -7.341  1.00 38.91 LIG 0.24  C 
ATOM     48 O    PRO B  13     -12.233 -30.161  -8.019  1.00 32.88 LIG-0.27  OA
BRANCH 47 49
ATOM     49  CA  PRO B  13     -11.009 -31.377  -6.354  1.00 38.31 LIG 0.18  C 
ATOM     50  N   PRO B  13     -12.201 -32.156  -6.092  1.00 38.88 LIG-0.34  N 
ATOM     51  CD  PRO B  13     -11.950 -33.595  -6.252  1.00 43.50 LIG 0.13  C 
ATOM     52  C   PRO B  12     -13.382 -31.636  -5.722  1.00 40.77 LIG 0.26  C 
ATOM     53  CG  PRO B  13     -10.463 -33.688  -6.308  1.00 43.53 LIG 0.02  C 
ATOM     54  CB  PRO B  13     -10.035 -32.406  -6.927  1.00 39.91 LIG 0.04  C 
ATOM     55 O    PRO B  12     -13.561 -30.429  -5.500  1.00 44.45 LIG-0.27  OA
BRANCH 52 56
ATOM     56  CA  PRO B  12     -14.538 -32.593  -5.574  1.00 38.46 LIG 0.35  C 
ATOM     57  CB  PRO B  12     -15.752 -32.021  -6.308  1.00 43.42 LIG 0.05  C 
ATOM     58  CG  PRO B  12     -16.900 -32.317  -5.434  1.00 41.12 LIG 0.04  C 
ATOM     59  CD  PRO B  12     -16.366 -32.242  -4.034  1.00 39.74 LIG 0.32  C 
ATOM     60  N   PRO B  12     -14.959 -32.619  -4.195  1.00 38.12 LIG 0.32  N 
ENDBRANCH 52 56
ENDBRANCH 47 49
ENDBRANCH 44 45
BRANCH 44 61
ATOM     61  CB  ARG B  14      -9.177 -27.181  -7.848  1.00 34.42 LIG 0.04  C 
BRANCH 61 62
ATOM     62  CG  ARG B  14      -9.522 -26.087  -6.838  1.00 32.66 LIG 0.02  C 
BRANCH 62 63
ATOM     63  CD  ARG B  14     -11.028 -26.003  -6.688  1.00 35.24 LIG 0.14  C 
BRANCH 63 64
ATOM     64  NE  ARG B  14     -11.456 -24.902  -5.807  1.00 42.22 LIG-0.23  N 
ATOM     65  CZ  ARG B  14     -12.280 -25.009  -4.762  1.00 44.72 LIG 0.67  C 
ATOM     66  NH2 ARG B  14     -12.824 -26.162  -4.423  1.00 43.48 LIG-0.23  N 
ATOM     67  NH1 ARG B  14     -12.575 -23.935  -4.053  1.00 46.51 LIG-0.23  N 
ATOM     68 1HH2 ARG B  14     -12.650 -26.870  -4.880  1.00 43.48 LIG 0.17  HD
ATOM     69 2HH2 ARG B  14     -13.352 -26.206  -3.745  1.00 43.48 LIG 0.17  HD
ATOM     70 2HH1 ARG B  14     -13.106 -23.997  -3.378  1.00 46.51 LIG 0.17  HD
ATOM     71 1HH1 ARG B  14     -12.238 -23.173  -4.265  1.00 46.51 LIG 0.17  HD
ATOM     72 HE   ARG B  14     -11.146 -24.119  -5.982  1.00 42.22 LIG 0.18  HD
ENDBRANCH 63 64
ENDBRANCH 62 63
ENDBRANCH 61 62
ENDBRANCH 44 61
ENDBRANCH 1 44
TORSDOF 22
ENDMDL
MODEL 27
USER: ADFR SOLUTION from run 114
USER: SCORE 22.116167 LL:  -4.741 LR: -18.547 RR:   0.000 FEB: -11.984
USER: RMSD 3.680733
USER: SEED 113
USER: STATUS no improvement in best in 9 clusters for 5 generations
USER: GENES 24
USER: genes 0 Translation |==|  0.47753 0.49832 0.57204
USER: genes 1 Rotation |==|  0.47755 0.56317 0.56272 0.99150
USER: genes 2 Torsion [N]-CA--C-[O] |==|  0.88690
USER: genes 3 Torsion [C]-N--CA-[CB] |==|  0.21195
USER: genes 4 Torsion [N]-CA--CB-[CG2] |==|  0.24785
USER: genes 5 Torsion [CA]-CB--CG1-[CD1] |==|  0.05158
USER: genes 6 Torsion [N]-CA--C-[N] |==|  0.35564
USER: genes 7 Torsion [C]-N--CA-[C] |==|  0.80859
USER: genes 8 Torsion [N]-CA--C-[N] |==|  0.34893
USER: genes 9 Torsion [C]-N--CA-[CB] |==|  0.81968
USER: genes 10 Torsion [N]-CA--CB-[CG] |==|  0.80033
USER: genes 11 Torsion [CA]-CB--CG-[ND2] |==|  0.99449
USER: genes 12 Torsion [N]-CA--C-[O] |==|  0.05246
USER: genes 13 Torsion [N]-CA--CB-[CG] |==|  0.59528
USER: genes 14 Torsion [CA]-CB--CG-[CD2] |==|  0.01910
USER: genes 15 Torsion [CE2]-CZ--OH-[HH] |==|  0.84583
USER: genes 16 Torsion [N]-C--CA-[N] |==|  0.37270
USER: genes 17 Torsion [C]-CA--N-[C] |==|  0.78587
USER: genes 18 Torsion [N]-C--CA-[N] |==|  0.45481
USER: genes 19 Torsion [N]-C--CA-[CB] |==|  0.67881
USER: genes 20 Torsion [C]-CA--CB-[CG] |==|  0.48033
USER: genes 21 Torsion [CA]-CB--CG-[CD] |==|  0.96633
USER: genes 22 Torsion [CB]-CG--CD-[NE] |==|  0.57440
USER: genes 23 Torsion [CG]-CD--NE-[CZ] |==|  0.57584
ROOT
ATOM      1  C   ARG B  14      -9.954 -28.677  -9.934  1.00 32.92 LIG 0.24  C 
ATOM      2 O    ARG B  14      -8.982 -29.420 -10.085  1.00 37.82 LIG-0.27  OA
ATOM      3  N   PRO B  15     -10.786 -28.352 -10.928  1.00 31.88 LIG-0.34  N 
ATOM      4  CA  PRO B  15     -10.588 -28.915 -12.266  1.00 30.79 LIG 0.18  C 
ATOM      5  CB  PRO B  15     -11.765 -28.367 -13.046  1.00 31.22 LIG 0.04  C 
ATOM      6  CG  PRO B  15     -12.823 -28.212 -12.000  1.00 29.82 LIG 0.02  C 
ATOM      7  CD  PRO B  15     -12.085 -27.667 -10.820  1.00 31.43 LIG 0.13  C 
ENDROOT
BRANCH 4 8
ATOM      8  C   PRO B  15      -9.303 -28.392 -12.855  1.00 33.68 LIG 0.24  C 
ATOM      9  N   ILE B  16      -8.540 -29.276 -13.469  1.00 35.41 LIG-0.35  N 
ATOM     10 H    ILE B  16      -8.700 -30.121 -13.496  1.00 35.41 LIG 0.16  HD
ATOM     11 O    PRO B  15      -8.986 -27.222 -12.707  1.00 34.05 LIG-0.27  OA
BRANCH 9 12
ATOM     12  CA  ILE B  16      -7.375 -28.877 -14.144  1.00 37.77 LIG 0.18  C 
BRANCH 12 13
ATOM     13  CB  ILE B  16      -6.243 -28.574 -13.174  1.00 42.27 LIG 0.01  C 
ATOM     14  CG2 ILE B  16      -5.453 -29.822 -12.904  1.00 44.80 LIG 0.01  C 
BRANCH 13 15
ATOM     15  CG1 ILE B  16      -5.376 -27.452 -13.773  1.00 47.53 LIG 0.00  C 
ATOM     16  CD1 ILE B  16      -6.028 -26.625 -14.877  1.00 51.74 LIG 0.01  C 
ENDBRANCH 13 15
ENDBRANCH 12 13
BRANCH 12 17
ATOM     17  C   ILE B  16      -7.063 -29.994 -15.086  1.00 42.33 LIG 0.24  C 
ATOM     18 O    ILE B  16      -7.035 -31.133 -14.712  1.00 39.29 LIG-0.27  OA
ATOM     19  N   TYR B  17      -6.880 -29.630 -16.342  1.00 46.96 LIG-0.35  N 
ATOM     20 H    TYR B  17      -6.794 -28.810 -16.584  1.00 46.96 LIG 0.16  HD
BRANCH 19 21
ATOM     21  CA  TYR B  17      -6.806 -30.561 -17.432  1.00 51.19 LIG 0.18  C 
BRANCH 21 22
ATOM     22  C   TYR B  17      -5.554 -31.358 -17.333  1.00 56.10 LIG 0.24  C 
ATOM     23  N   ASN B  18      -5.666 -32.672 -17.335  1.00 65.39 LIG-0.35  N 
ATOM     24 H    ASN B  18      -6.387 -33.094 -17.538  1.00 65.39 LIG 0.16  HD
ATOM     25 O    TYR B  17      -4.480 -30.785 -17.326  1.00 61.36 LIG-0.27  OA
BRANCH 23 26
ATOM     26  CA  ASN B  18      -4.529 -33.537 -16.978  1.00 70.74 LIG 0.17  C 
BRANCH 26 27
ATOM     27  CB  ASN B  18      -3.419 -33.364 -18.025  1.00 84.74 LIG 0.14  C 
BRANCH 27 28
ATOM     28  CG  ASN B  18      -3.775 -34.006 -19.373  1.00 96.34 LIG 0.22  C 
ATOM     29 OD1  ASN B  18      -3.011 -33.913 -20.346  1.00 99.44 LIG-0.27  OA
ATOM     30  ND2 ASN B  18      -4.949 -34.646 -19.440  1.00 94.73 LIG-0.37  N 
ATOM     31 21HD ASN B  18      -5.197 -35.012 -20.178  1.00 94.73 LIG 0.16  HD
ATOM     32 22HD ASN B  18      -5.455 -34.692 -18.746  1.00 94.73 LIG 0.16  HD
ENDBRANCH 27 28
ENDBRANCH 26 27
BRANCH 26 33
ATOM     33  C   ASN B  18      -3.975 -33.453 -15.536  1.00 72.97 LIG 0.22  C 
ATOM     34 O    ASN B  18      -4.624 -32.973 -14.596  1.00 74.17 LIG-0.29  OA
ENDBRANCH 26 33
ENDBRANCH 23 26
ENDBRANCH 21 22
BRANCH 21 35
ATOM     35  CB  TYR B  17      -6.726 -29.766 -18.725  1.00 54.83 LIG 0.07  C 
BRANCH 35 36
ATOM     36  CG  TYR B  17      -7.431 -30.459 -19.828  1.00 56.96 LIG-0.06  A 
ATOM     37  CD2 TYR B  17      -8.179 -31.613 -19.567  1.00 61.26 LIG 0.01  A 
ATOM     38  CE2 TYR B  17      -8.831 -32.280 -20.579  1.00 70.21 LIG 0.04  A 
ATOM     39  CZ  TYR B  17      -8.722 -31.795 -21.871  1.00 76.40 LIG 0.07  A 
ATOM     40  CE1 TYR B  17      -7.978 -30.656 -22.155  1.00 67.10 LIG 0.04  A 
ATOM     41  CD1 TYR B  17      -7.331 -30.000 -21.124  1.00 57.92 LIG 0.01  A 
BRANCH 39 42
ATOM     42 OH   TYR B  17      -9.361 -32.459 -22.876  1.00 89.25 LIG-0.36  OA
ATOM     43 HH   TYR B  17      -9.118 -33.263 -22.880  1.00 89.25 LIG 0.22  HD
ENDBRANCH 39 42
ENDBRANCH 35 36
ENDBRANCH 21 35
ENDBRANCH 19 21
ENDBRANCH 12 17
ENDBRANCH 9 12
ENDBRANCH 4 8
BRANCH 1 44
ATOM     44  CA  ARG B  14     -10.204 -28.065  -8.588  1.00 32.45 LIG 0.18  C 
BRANCH 44 45
ATOM     45  N   ARG B  14     -10.080 -29.187  -7.685  1.00 38.19 LIG-0.35  N 
ATOM     46 H    ARG B  14      -9.334 -29.207  -7.259  1.00 38.19 LIG 0.16  HD
ATOM     47  C   PRO B  13     -11.036 -30.108  -7.528  1.00 38.91 LIG 0.24  C 
ATOM     48 O    PRO B  13     -12.098 -30.073  -8.116  1.00 32.88 LIG-0.27  OA
BRANCH 47 49
ATOM     49  CA  PRO B  13     -10.747 -31.225  -6.506  1.00 38.31 LIG 0.18  C 
ATOM     50  N   PRO B  13     -11.920 -31.967  -6.097  1.00 38.88 LIG-0.34  N 
ATOM     51  CD  PRO B  13     -11.706 -33.417  -6.204  1.00 43.50 LIG 0.13  C 
ATOM     52  C   PRO B  12     -13.056 -31.407  -5.650  1.00 40.77 LIG 0.26  C 
ATOM     53  CG  PRO B  13     -10.232 -33.541  -6.389  1.00 43.53 LIG 0.02  C 
ATOM     54  CB  PRO B  13      -9.844 -32.301  -7.109  1.00 39.91 LIG 0.04  C 
ATOM     55 O    PRO B  12     -13.197 -30.187  -5.476  1.00 44.45 LIG-0.27  OA
BRANCH 52 56
ATOM     56  CA  PRO B  12     -14.207 -32.333  -5.349  1.00 38.46 LIG 0.35  C 
ATOM     57  CB  PRO B  12     -15.358 -32.021  -6.308  1.00 43.42 LIG 0.05  C 
ATOM     58  CG  PRO B  12     -16.576 -32.118  -5.486  1.00 41.12 LIG 0.04  C 
ATOM     59  CD  PRO B  12     -16.171 -31.655  -4.117  1.00 39.74 LIG 0.32  C 
ATOM     60  N   PRO B  12     -14.751 -32.008  -4.053  1.00 38.12 LIG 0.32  N 
ENDBRANCH 52 56
ENDBRANCH 47 49
ENDBRANCH 44 45
BRANCH 44 61
ATOM     61  CB  ARG B  14      -9.076 -27.075  -8.276  1.00 34.42 LIG 0.04  C 
BRANCH 61 62
ATOM     62  CG  ARG B  14      -9.282 -26.245  -7.009  1.00 32.66 LIG 0.02  C 
BRANCH 62 63
ATOM     63  CD  ARG B  14     -10.712 -26.406  -6.533  1.00 35.24 LIG 0.14  C 
BRANCH 63 64
ATOM     64  NE  ARG B  14     -11.194 -25.247  -5.763  1.00 42.22 LIG-0.23  N 
ATOM     65  CZ  ARG B  14     -12.138 -25.268  -4.819  1.00 44.72 LIG 0.67  C 
ATOM     66  NH2 ARG B  14     -12.765 -26.382  -4.492  1.00 43.48 LIG-0.23  N 
ATOM     67  NH1 ARG B  14     -12.470 -24.149  -4.203  1.00 46.51 LIG-0.23  N 
ATOM     68 1HH2 ARG B  14     -12.569 -27.119  -4.890  1.00 43.48 LIG 0.17  HD
ATOM     69 2HH2 ARG B  14     -13.370 -26.371  -3.880  1.00 43.48 LIG 0.17  HD
ATOM     70 2HH1 ARG B  14     -13.078 -24.156  -3.595  1.00 46.51 LIG 0.17  HD
ATOM     71 1HH1 ARG B  14     -12.079 -23.412  -4.411  1.00 46.51 LIG 0.17  HD
ATOM     72 HE   ARG B  14     -10.835 -24.485  -5.938  1.00 42.22 LIG 0.18  HD
ENDBRANCH 63 64
ENDBRANCH 62 63
ENDBRANCH 61 62
ENDBRANCH 44 61
ENDBRANCH 1 44
TORSDOF 22
ENDMDL
MODEL 28
USER: ADFR SOLUTION from run 50
USER: SCORE 22.308259 LL:  -4.903 LR: -18.527 RR:   0.000 FEB: -11.965
USER: RMSD 5.003386
USER: SEED 49
USER: STATUS no improvement in best in 21 clusters for 5 generations
USER: GENES 24
USER: genes 0 Translation |==|  0.47065 0.47995 0.57692
USER: genes 1 Rotation |==|  0.50964 0.52892 0.38913 0.98660
USER: genes 2 Torsion [N]-CA--C-[O] |==|  0.15370
USER: genes 3 Torsion [C]-N--CA-[CB] |==|  0.47247
USER: genes 4 Torsion [N]-CA--CB-[CG2] |==|  0.30031
USER: genes 5 Torsion [CA]-CB--CG1-[CD1] |==|  0.52539
USER: genes 6 Torsion [N]-CA--C-[N] |==|  0.47222
USER: genes 7 Torsion [C]-N--CA-[C] |==|  0.75088
USER: genes 8 Torsion [N]-CA--C-[N] |==|  0.88724
USER: genes 9 Torsion [C]-N--CA-[CB] |==|  0.78928
USER: genes 10 Torsion [N]-CA--CB-[CG] |==|  0.81005
USER: genes 11 Torsion [CA]-CB--CG-[ND2] |==|  0.77909
USER: genes 12 Torsion [N]-CA--C-[O] |==|  0.02618
USER: genes 13 Torsion [N]-CA--CB-[CG] |==|  0.92281
USER: genes 14 Torsion [CA]-CB--CG-[CD2] |==|  0.81920
USER: genes 15 Torsion [CE2]-CZ--OH-[HH] |==|  0.19492
USER: genes 16 Torsion [N]-C--CA-[N] |==|  0.46545
USER: genes 17 Torsion [C]-CA--N-[C] |==|  0.79821
USER: genes 18 Torsion [N]-C--CA-[N] |==|  0.49045
USER: genes 19 Torsion [N]-C--CA-[CB] |==|  0.56663
USER: genes 20 Torsion [C]-CA--CB-[CG] |==|  0.46618
USER: genes 21 Torsion [CA]-CB--CG-[CD] |==|  0.36149
USER: genes 22 Torsion [CB]-CG--CD-[NE] |==|  0.46282
USER: genes 23 Torsion [CG]-CD--NE-[CZ] |==|  0.42822
ROOT
ATOM      1  C   ARG B  14     -10.109 -29.022  -9.798  1.00 32.92 LIG 0.24  C 
ATOM      2 O    ARG B  14      -9.832 -30.218  -9.908  1.00 37.82 LIG-0.27  OA
ATOM      3  N   PRO B  15     -10.369 -28.234 -10.845  1.00 31.88 LIG-0.34  N 
ATOM      4  CA  PRO B  15     -10.373 -28.790 -12.201  1.00 30.79 LIG 0.18  C 
ATOM      5  CB  PRO B  15     -10.783 -27.608 -13.055  1.00 31.22 LIG 0.04  C 
ATOM      6  CG  PRO B  15     -11.642 -26.804 -12.132  1.00 29.82 LIG 0.02  C 
ATOM      7  CD  PRO B  15     -10.923 -26.870 -10.823  1.00 31.43 LIG 0.13  C 
ENDROOT
BRANCH 4 8
ATOM      8  C   PRO B  15      -8.979 -29.227 -12.577  1.00 33.68 LIG 0.24  C 
ATOM      9  N   ILE B  16      -8.508 -28.760 -13.716  1.00 35.41 LIG-0.35  N 
ATOM     10 H    ILE B  16      -8.962 -28.285 -14.271  1.00 35.41 LIG 0.16  HD
ATOM     11 O    PRO B  15      -8.367 -30.015 -11.872  1.00 34.05 LIG-0.27  OA
BRANCH 9 12
ATOM     12  CA  ILE B  16      -7.185 -29.018 -14.109  1.00 37.77 LIG 0.18  C 
BRANCH 12 13
ATOM     13  CB  ILE B  16      -6.935 -28.595 -15.548  1.00 42.27 LIG 0.01  C 
ATOM     14  CG2 ILE B  16      -6.071 -27.367 -15.576  1.00 44.80 LIG 0.01  C 
BRANCH 13 15
ATOM     15  CG1 ILE B  16      -6.296 -29.777 -16.299  1.00 47.53 LIG 0.00  C 
ATOM     16  CD1 ILE B  16      -5.775 -29.471 -17.699  1.00 51.74 LIG 0.01  C 
ENDBRANCH 13 15
ENDBRANCH 12 13
BRANCH 12 17
ATOM     17  C   ILE B  16      -6.331 -28.289 -13.121  1.00 42.33 LIG 0.24  C 
ATOM     18 O    ILE B  16      -6.814 -27.549 -12.310  1.00 39.29 LIG-0.27  OA
ATOM     19  N   TYR B  17      -5.043 -28.567 -13.185  1.00 46.96 LIG-0.35  N 
ATOM     20 H    TYR B  17      -4.690 -29.011 -13.832  1.00 46.96 LIG 0.16  HD
BRANCH 19 21
ATOM     21  CA  TYR B  17      -4.095 -28.161 -12.185  1.00 51.19 LIG 0.18  C 
BRANCH 21 22
ATOM     22  C   TYR B  17      -3.545 -26.822 -12.525  1.00 56.10 LIG 0.24  C 
ATOM     23  N   ASN B  18      -3.264 -26.582 -13.791  1.00 65.39 LIG-0.35  N 
ATOM     24 H    ASN B  18      -3.513 -27.083 -14.443  1.00 65.39 LIG 0.16  HD
ATOM     25 O    TYR B  17      -3.441 -25.979 -11.653  1.00 61.36 LIG-0.27  OA
BRANCH 23 26
ATOM     26  CA  ASN B  18      -2.479 -25.403 -14.190  1.00 70.74 LIG 0.17  C 
BRANCH 26 27
ATOM     27  CB  ASN B  18      -3.370 -24.154 -14.108  1.00 84.74 LIG 0.14  C 
BRANCH 27 28
ATOM     28  CG  ASN B  18      -4.478 -24.152 -15.170  1.00 96.34 LIG 0.22  C 
ATOM     29 OD1  ASN B  18      -5.636 -24.495 -14.885  1.00 99.44 LIG-0.27  OA
ATOM     30  ND2 ASN B  18      -4.123 -23.781 -16.406  1.00 94.73 LIG-0.37  N 
ATOM     31 21HD ASN B  18      -4.706 -23.775 -17.038  1.00 94.73 LIG 0.16  HD
ATOM     32 22HD ASN B  18      -3.311 -23.549 -16.570  1.00 94.73 LIG 0.16  HD
ENDBRANCH 27 28
ENDBRANCH 26 27
BRANCH 26 33
ATOM     33  C   ASN B  18      -1.109 -25.174 -13.506  1.00 72.97 LIG 0.22  C 
ATOM     34 O    ASN B  18      -0.577 -26.021 -12.774  1.00 74.17 LIG-0.29  OA
ENDBRANCH 26 33
ENDBRANCH 23 26
ENDBRANCH 21 22
BRANCH 21 35
ATOM     35  CB  TYR B  17      -2.934 -29.140 -12.212  1.00 54.83 LIG 0.07  C 
BRANCH 35 36
ATOM     36  CG  TYR B  17      -3.365 -30.474 -12.687  1.00 56.96 LIG-0.06  A 
ATOM     37  CD2 TYR B  17      -4.272 -31.229 -11.934  1.00 61.26 LIG 0.01  A 
ATOM     38  CE2 TYR B  17      -4.676 -32.476 -12.351  1.00 70.21 LIG 0.04  A 
ATOM     39  CZ  TYR B  17      -4.156 -32.983 -13.529  1.00 76.40 LIG 0.07  A 
ATOM     40  CE1 TYR B  17      -3.248 -32.255 -14.290  1.00 67.10 LIG 0.04  A 
ATOM     41  CD1 TYR B  17      -2.855 -31.003 -13.854  1.00 57.92 LIG 0.01  A 
BRANCH 39 42
ATOM     42 OH   TYR B  17      -4.549 -34.222 -13.940  1.00 89.25 LIG-0.36  OA
ATOM     43 HH   TYR B  17      -5.351 -34.194 -14.188  1.00 89.25 LIG 0.22  HD
ENDBRANCH 39 42
ENDBRANCH 35 36
ENDBRANCH 21 35
ENDBRANCH 19 21
ENDBRANCH 12 17
ENDBRANCH 9 12
ENDBRANCH 4 8
BRANCH 1 44
ATOM     44  CA  ARG B  14     -10.115 -28.395  -8.436  1.00 32.45 LIG 0.18  C 
BRANCH 44 45
ATOM     45  N   ARG B  14     -10.107 -29.534  -7.547  1.00 38.19 LIG-0.35  N 
ATOM     46 H    ARG B  14      -9.355 -29.657  -7.149  1.00 38.19 LIG 0.16  HD
ATOM     47  C   PRO B  13     -11.169 -30.323  -7.361  1.00 38.91 LIG 0.24  C 
ATOM     48 O    PRO B  13     -12.239 -30.143  -7.908  1.00 32.88 LIG-0.27  OA
BRANCH 47 49
ATOM     49  CA  PRO B  13     -10.993 -31.481  -6.358  1.00 38.31 LIG 0.18  C 
ATOM     50  N   PRO B  13     -12.196 -32.255  -6.136  1.00 38.88 LIG-0.34  N 
ATOM     51  CD  PRO B  13     -11.943 -33.697  -6.276  1.00 43.50 LIG 0.13  C 
ATOM     52  C   PRO B  12     -13.389 -31.730  -5.815  1.00 40.77 LIG 0.26  C 
ATOM     53  CG  PRO B  13     -10.455 -33.793  -6.274  1.00 43.53 LIG 0.02  C 
ATOM     54  CB  PRO B  13     -10.001 -32.517  -6.885  1.00 39.91 LIG 0.04  C 
ATOM     55 O    PRO B  12     -13.573 -30.521  -5.609  1.00 44.45 LIG-0.27  OA
BRANCH 52 56
ATOM     56  CA  PRO B  12     -14.552 -32.683  -5.705  1.00 38.46 LIG 0.35  C 
ATOM     57  CB  PRO B  12     -15.852 -31.909  -5.933  1.00 43.42 LIG 0.05  C 
ATOM     58  CG  PRO B  12     -16.802 -32.461  -4.952  1.00 41.12 LIG 0.04  C 
ATOM     59  CD  PRO B  12     -15.973 -32.826  -3.756  1.00 39.74 LIG 0.32  C 
ATOM     60  N   PRO B  12     -14.666 -33.137  -4.339  1.00 38.12 LIG 0.32  N 
ENDBRANCH 52 56
ENDBRANCH 47 49
ENDBRANCH 44 45
BRANCH 44 61
ATOM     61  CB  ARG B  14      -8.804 -27.626  -8.238  1.00 34.42 LIG 0.04  C 
BRANCH 61 62
ATOM     62  CG  ARG B  14      -8.781 -26.697  -7.024  1.00 32.66 LIG 0.02  C 
BRANCH 62 63
ATOM     63  CD  ARG B  14      -7.525 -26.960  -6.218  1.00 35.24 LIG 0.14  C 
BRANCH 63 64
ATOM     64  NE  ARG B  14      -7.257 -25.913  -5.216  1.00 42.22 LIG-0.23  N 
ATOM     65  CZ  ARG B  14      -6.569 -26.068  -4.083  1.00 44.72 LIG 0.67  C 
ATOM     66  NH2 ARG B  14      -6.060 -27.235  -3.736  1.00 43.48 LIG-0.23  N 
ATOM     67  NH1 ARG B  14      -6.401 -25.037  -3.275  1.00 46.51 LIG-0.23  N 
ATOM     68 1HH2 ARG B  14      -6.168 -27.920  -4.245  1.00 43.48 LIG 0.17  HD
ATOM     69 2HH2 ARG B  14      -5.619 -27.310  -3.001  1.00 43.48 LIG 0.17  HD
ATOM     70 2HH1 ARG B  14      -5.958 -25.131  -2.544  1.00 46.51 LIG 0.17  HD
ATOM     71 1HH1 ARG B  14      -6.734 -24.272  -3.481  1.00 46.51 LIG 0.17  HD
ATOM     72 HE   ARG B  14      -7.575 -25.129  -5.376  1.00 42.22 LIG 0.18  HD
ENDBRANCH 63 64
ENDBRANCH 62 63
ENDBRANCH 61 62
ENDBRANCH 44 61
ENDBRANCH 1 44
TORSDOF 22
ENDMDL
MODEL 29
USER: ADFR SOLUTION from run 108
USER: SCORE 22.418861 LL:  -5.003 LR: -18.499 RR:   0.000 FEB: -11.936
USER: RMSD 3.274069
USER: SEED 107
USER: STATUS no improvement in best in 20 clusters for 5 generations
USER: GENES 24
USER: genes 0 Translation |==|  0.47372 0.49568 0.57728
USER: genes 1 Rotation |==|  0.49443 0.53303 0.50641 0.99884
USER: genes 2 Torsion [N]-CA--C-[O] |==|  0.83864
USER: genes 3 Torsion [C]-N--CA-[CB] |==|  0.46122
USER: genes 4 Torsion [N]-CA--CB-[CG2] |==|  0.90464
USER: genes 5 Torsion [CA]-CB--CG1-[CD1] |==|  0.42905
USER: genes 6 Torsion [N]-CA--C-[N] |==|  0.44855
USER: genes 7 Torsion [C]-N--CA-[C] |==|  0.76502
USER: genes 8 Torsion [N]-CA--C-[N] |==|  0.32371
USER: genes 9 Torsion [C]-N--CA-[CB] |==|  0.76644
USER: genes 10 Torsion [N]-CA--CB-[CG] |==|  0.94327
USER: genes 11 Torsion [CA]-CB--CG-[ND2] |==|  0.80489
USER: genes 12 Torsion [N]-CA--C-[O] |==|  0.02170
USER: genes 13 Torsion [N]-CA--CB-[CG] |==|  0.94705
USER: genes 14 Torsion [CA]-CB--CG-[CD2] |==|  0.74935
USER: genes 15 Torsion [CE2]-CZ--OH-[HH] |==|  0.15764
USER: genes 16 Torsion [N]-C--CA-[N] |==|  0.41253
USER: genes 17 Torsion [C]-CA--N-[C] |==|  0.79574
USER: genes 18 Torsion [N]-C--CA-[N] |==|  0.46413
USER: genes 19 Torsion [N]-C--CA-[CB] |==|  0.56506
USER: genes 20 Torsion [C]-CA--CB-[CG] |==|  0.46059
USER: genes 21 Torsion [CA]-CB--CG-[CD] |==|  0.24280
USER: genes 22 Torsion [CB]-CG--CD-[NE] |==|  0.36499
USER: genes 23 Torsion [CG]-CD--NE-[CZ] |==|  0.69520
ROOT
ATOM      1  C   ARG B  14     -10.040 -28.727  -9.788  1.00 32.92 LIG 0.24  C 
ATOM      2 O    ARG B  14      -9.247 -29.666  -9.875  1.00 37.82 LIG-0.27  OA
ATOM      3  N   PRO B  15     -10.643 -28.180 -10.848  1.00 31.88 LIG-0.34  N 
ATOM      4  CA  PRO B  15     -10.405 -28.720 -12.189  1.00 30.79 LIG 0.18  C 
ATOM      5  CB  PRO B  15     -11.320 -27.885 -13.062  1.00 31.22 LIG 0.04  C 
ATOM      6  CG  PRO B  15     -12.442 -27.534 -12.138  1.00 29.82 LIG 0.02  C 
ATOM      7  CD  PRO B  15     -11.760 -27.220 -10.846  1.00 31.43 LIG 0.13  C 
ENDROOT
BRANCH 4 8
ATOM      8  C   PRO B  15      -8.970 -28.483 -12.587  1.00 33.68 LIG 0.24  C 
ATOM      9  N   ILE B  16      -8.247 -29.559 -12.832  1.00 35.41 LIG-0.35  N 
ATOM     10 H    ILE B  16      -8.523 -30.366 -12.718  1.00 35.41 LIG 0.16  HD
ATOM     11 O    PRO B  15      -8.516 -27.350 -12.619  1.00 34.05 LIG-0.27  OA
BRANCH 9 12
ATOM     12  CA  ILE B  16      -6.932 -29.449 -13.311  1.00 37.77 LIG 0.18  C 
BRANCH 12 13
ATOM     13  CB  ILE B  16      -6.183 -30.768 -13.198  1.00 42.27 LIG 0.01  C 
ATOM     14  CG2 ILE B  16      -6.630 -31.505 -11.969  1.00 44.80 LIG 0.01  C 
BRANCH 13 15
ATOM     15  CG1 ILE B  16      -6.423 -31.576 -14.485  1.00 47.53 LIG 0.00  C 
ATOM     16  CD1 ILE B  16      -5.343 -32.591 -14.844  1.00 51.74 LIG 0.01  C 
ENDBRANCH 13 15
ENDBRANCH 12 13
BRANCH 12 17
ATOM     17  C   ILE B  16      -7.065 -28.964 -14.719  1.00 42.33 LIG 0.24  C 
ATOM     18 O    ILE B  16      -8.114 -29.021 -15.299  1.00 39.29 LIG-0.27  OA
ATOM     19  N   TYR B  17      -5.972 -28.432 -15.232  1.00 46.96 LIG-0.35  N 
ATOM     20 H    TYR B  17      -5.201 -28.491 -14.855  1.00 46.96 LIG 0.16  HD
BRANCH 19 21
ATOM     21  CA  TYR B  17      -5.952 -27.701 -16.468  1.00 51.19 LIG 0.18  C 
BRANCH 21 22
ATOM     22  C   TYR B  17      -5.825 -28.644 -17.610  1.00 56.10 LIG 0.24  C 
ATOM     23  N   ASN B  18      -6.824 -28.698 -18.470  1.00 65.39 LIG-0.35  N 
ATOM     24 H    ASN B  18      -7.466 -28.127 -18.499  1.00 65.39 LIG 0.16  HD
ATOM     25 O    TYR B  17      -4.793 -29.272 -17.756  1.00 61.36 LIG-0.27  OA
BRANCH 23 26
ATOM     26  CA  ASN B  18      -6.914 -29.772 -19.472  1.00 70.74 LIG 0.17  C 
BRANCH 26 27
ATOM     27  CB  ASN B  18      -6.061 -29.394 -20.692  1.00 84.74 LIG 0.14  C 
BRANCH 27 28
ATOM     28  CG  ASN B  18      -5.783 -27.887 -20.772  1.00 96.34 LIG 0.22  C 
ATOM     29 OD1  ASN B  18      -4.651 -27.434 -20.548  1.00 99.44 LIG-0.27  OA
ATOM     30  ND2 ASN B  18      -6.824 -27.101 -21.076  1.00 94.73 LIG-0.37  N 
ATOM     31 21HD ASN B  18      -6.720 -26.249 -21.120  1.00 94.73 LIG 0.16  HD
ATOM     32 22HD ASN B  18      -7.597 -27.448 -21.225  1.00 94.73 LIG 0.16  HD
ENDBRANCH 27 28
ENDBRANCH 26 27
BRANCH 26 33
ATOM     33  C   ASN B  18      -6.641 -31.224 -19.010  1.00 72.97 LIG 0.22  C 
ATOM     34 O    ASN B  18      -6.492 -31.530 -17.818  1.00 74.17 LIG-0.29  OA
ENDBRANCH 26 33
ENDBRANCH 23 26
ENDBRANCH 21 22
BRANCH 21 35
ATOM     35  CB  TYR B  17      -4.711 -26.823 -16.475  1.00 54.83 LIG 0.07  C 
BRANCH 35 36
ATOM     36  CG  TYR B  17      -4.179 -26.632 -15.107  1.00 56.96 LIG-0.06  A 
ATOM     37  CD2 TYR B  17      -4.617 -25.555 -14.327  1.00 61.26 LIG 0.01  A 
ATOM     38  CE2 TYR B  17      -4.126 -25.351 -13.058  1.00 70.21 LIG 0.04  A 
ATOM     39  CZ  TYR B  17      -3.173 -26.226 -12.568  1.00 76.40 LIG 0.07  A 
ATOM     40  CE1 TYR B  17      -2.716 -27.297 -13.327  1.00 67.10 LIG 0.04  A 
ATOM     41  CD1 TYR B  17      -3.223 -27.485 -14.599  1.00 57.92 LIG 0.01  A 
BRANCH 39 42
ATOM     42 OH   TYR B  17      -2.678 -26.021 -11.313  1.00 89.25 LIG-0.36  OA
ATOM     43 HH   TYR B  17      -3.311 -26.012 -10.761  1.00 89.25 LIG 0.22  HD
ENDBRANCH 39 42
ENDBRANCH 35 36
ENDBRANCH 21 35
ENDBRANCH 19 21
ENDBRANCH 12 17
ENDBRANCH 9 12
ENDBRANCH 4 8
BRANCH 1 44
ATOM     44  CA  ARG B  14     -10.319 -28.128  -8.442  1.00 32.45 LIG 0.18  C 
BRANCH 44 45
ATOM     45  N   ARG B  14     -10.220 -29.260  -7.549  1.00 38.19 LIG-0.35  N 
ATOM     46 H    ARG B  14      -9.506 -29.262  -7.070  1.00 38.19 LIG 0.16  HD
ATOM     47  C   PRO B  13     -11.152 -30.214  -7.474  1.00 38.91 LIG 0.24  C 
ATOM     48 O    PRO B  13     -12.171 -30.207  -8.135  1.00 32.88 LIG-0.27  OA
BRANCH 47 49
ATOM     49  CA  PRO B  13     -10.898 -31.338  -6.449  1.00 38.31 LIG 0.18  C 
ATOM     50  N   PRO B  13     -12.052 -32.174  -6.194  1.00 38.88 LIG-0.34  N 
ATOM     51  CD  PRO B  13     -11.719 -33.602  -6.306  1.00 43.50 LIG 0.13  C 
ATOM     52  C   PRO B  12     -13.269 -31.710  -5.867  1.00 40.77 LIG 0.26  C 
ATOM     53  CG  PRO B  13     -10.229 -33.614  -6.323  1.00 43.53 LIG 0.02  C 
ATOM     54  CB  PRO B  13      -9.855 -32.328  -6.968  1.00 39.91 LIG 0.04  C 
ATOM     55 O    PRO B  12     -13.519 -30.509  -5.685  1.00 44.45 LIG-0.27  OA
BRANCH 52 56
ATOM     56  CA  PRO B  12     -14.375 -32.725  -5.721  1.00 38.46 LIG 0.35  C 
ATOM     57  CB  PRO B  12     -15.719 -32.027  -5.934  1.00 43.42 LIG 0.05  C 
ATOM     58  CG  PRO B  12     -16.618 -32.617  -4.927  1.00 41.12 LIG 0.04  C 
ATOM     59  CD  PRO B  12     -15.747 -32.918  -3.742  1.00 39.74 LIG 0.32  C 
ATOM     60  N   PRO B  12     -14.436 -33.164  -4.348  1.00 38.12 LIG 0.32  N 
ENDBRANCH 52 56
ENDBRANCH 47 49
ENDBRANCH 44 45
BRANCH 44 61
ATOM     61  CB  ARG B  14      -9.195 -27.146  -8.093  1.00 34.42 LIG 0.04  C 
BRANCH 61 62
ATOM     62  CG  ARG B  14      -9.499 -26.210  -6.924  1.00 32.66 LIG 0.02  C 
BRANCH 62 63
ATOM     63  CD  ARG B  14      -9.104 -26.886  -5.627  1.00 35.24 LIG 0.14  C 
BRANCH 63 64
ATOM     64  NE  ARG B  14      -8.292 -26.021  -4.753  1.00 42.22 LIG-0.23  N 
ATOM     65  CZ  ARG B  14      -6.995 -26.177  -4.480  1.00 44.72 LIG 0.67  C 
ATOM     66  NH2 ARG B  14      -6.298 -27.181  -4.978  1.00 43.48 LIG-0.23  N 
ATOM     67  NH1 ARG B  14      -6.389 -25.320  -3.680  1.00 46.51 LIG-0.23  N 
ATOM     68 1HH2 ARG B  14      -6.679 -27.755  -5.494  1.00 43.48 LIG 0.17  HD
ATOM     69 2HH2 ARG B  14      -5.463 -27.261  -4.788  1.00 43.48 LIG 0.17  HD
ATOM     70 2HH1 ARG B  14      -5.554 -25.416  -3.499  1.00 46.51 LIG 0.17  HD
ATOM     71 1HH1 ARG B  14      -6.830 -24.666  -3.338  1.00 46.51 LIG 0.17  HD
ATOM     72 HE   ARG B  14      -8.691 -25.354  -4.384  1.00 42.22 LIG 0.18  HD
ENDBRANCH 63 64
ENDBRANCH 62 63
ENDBRANCH 61 62
ENDBRANCH 44 61
ENDBRANCH 1 44
TORSDOF 22
ENDMDL
MODEL 30
USER: ADFR SOLUTION from run 22
USER: SCORE 22.601136 LL:  -5.293 LR: -18.485 RR:   0.000 FEB: -11.922
USER: RMSD 4.626722
USER: SEED 21
USER: STATUS no improvement in best in 20 clusters for 5 generations
USER: GENES 24
USER: genes 0 Translation |==|  0.46644 0.47704 0.57351
USER: genes 1 Rotation |==|  0.59321 0.46845 0.42779 0.98487
USER: genes 2 Torsion [N]-CA--C-[O] |==|  0.84254
USER: genes 3 Torsion [C]-N--CA-[CB] |==|  0.51672
USER: genes 4 Torsion [N]-CA--CB-[CG2] |==|  0.32266
USER: genes 5 Torsion [CA]-CB--CG1-[CD1] |==|  0.58426
USER: genes 6 Torsion [N]-CA--C-[N] |==|  0.37492
USER: genes 7 Torsion [C]-N--CA-[C] |==|  0.71850
USER: genes 8 Torsion [N]-CA--C-[N] |==|  0.89031
USER: genes 9 Torsion [C]-N--CA-[CB] |==|  0.34881
USER: genes 10 Torsion [N]-CA--CB-[CG] |==|  0.73173
USER: genes 11 Torsion [CA]-CB--CG-[ND2] |==|  0.87918
USER: genes 12 Torsion [N]-CA--C-[O] |==|  0.73350
USER: genes 13 Torsion [N]-CA--CB-[CG] |==|  0.45509
USER: genes 14 Torsion [CA]-CB--CG-[CD2] |==|  0.14350
USER: genes 15 Torsion [CE2]-CZ--OH-[HH] |==|  0.15790
USER: genes 16 Torsion [N]-C--CA-[N] |==|  0.40759
USER: genes 17 Torsion [C]-CA--N-[C] |==|  0.54767
USER: genes 18 Torsion [N]-C--CA-[N] |==|  0.20862
USER: genes 19 Torsion [N]-C--CA-[CB] |==|  0.74729
USER: genes 20 Torsion [C]-CA--CB-[CG] |==|  0.38157
USER: genes 21 Torsion [CA]-CB--CG-[CD] |==|  0.87790
USER: genes 22 Torsion [CB]-CG--CD-[NE] |==|  0.46446
USER: genes 23 Torsion [CG]-CD--NE-[CZ] |==|  0.82920
ROOT
ATOM      1  C   ARG B  14     -10.204 -29.077  -9.893  1.00 32.92 LIG 0.24  C 
ATOM      2 O    ARG B  14      -9.713 -30.162 -10.207  1.00 37.82 LIG-0.27  OA
ATOM      3  N   PRO B  15     -10.279 -28.039 -10.731  1.00 31.88 LIG-0.34  N 
ATOM      4  CA  PRO B  15      -9.801 -28.171 -12.110  1.00 30.79 LIG 0.18  C 
ATOM      5  CB  PRO B  15     -10.139 -26.826 -12.720  1.00 31.22 LIG 0.04  C 
ATOM      6  CG  PRO B  15     -11.347 -26.398 -11.950  1.00 29.82 LIG 0.02  C 
ATOM      7  CD  PRO B  15     -11.034 -26.789 -10.542  1.00 31.43 LIG 0.13  C 
ENDROOT
BRANCH 4 8
ATOM      8  C   PRO B  15      -8.307 -28.369 -12.115  1.00 33.68 LIG 0.24  C 
ATOM      9  N   ILE B  16      -7.867 -29.485 -12.664  1.00 35.41 LIG-0.35  N 
ATOM     10 H    ILE B  16      -8.374 -30.116 -12.954  1.00 35.41 LIG 0.16  HD
ATOM     11 O    PRO B  15      -7.572 -27.550 -11.583  1.00 34.05 LIG-0.27  OA
BRANCH 9 12
ATOM     12  CA  ILE B  16      -6.491 -29.719 -12.817  1.00 37.77 LIG 0.18  C 
BRANCH 12 13
ATOM     13  CB  ILE B  16      -6.224 -30.993 -13.602  1.00 42.27 LIG 0.01  C 
ATOM     14  CG2 ILE B  16      -5.527 -30.662 -14.891  1.00 44.80 LIG 0.01  C 
BRANCH 13 15
ATOM     15  CG1 ILE B  16      -5.398 -31.946 -12.719  1.00 47.53 LIG 0.00  C 
ATOM     16  CD1 ILE B  16      -4.449 -32.883 -13.459  1.00 51.74 LIG 0.01  C 
ENDBRANCH 13 15
ENDBRANCH 12 13
BRANCH 12 17
ATOM     17  C   ILE B  16      -5.953 -28.492 -13.479  1.00 42.33 LIG 0.24  C 
ATOM     18 O    ILE B  16      -6.541 -27.965 -14.382  1.00 39.29 LIG-0.27  OA
ATOM     19  N   TYR B  17      -4.834 -28.023 -12.961  1.00 46.96 LIG-0.35  N 
ATOM     20 H    TYR B  17      -4.362 -28.460 -12.390  1.00 46.96 LIG 0.16  HD
BRANCH 19 21
ATOM     21  CA  TYR B  17      -4.286 -26.738 -13.293  1.00 51.19 LIG 0.18  C 
BRANCH 21 22
ATOM     22  C   TYR B  17      -3.170 -26.899 -14.262  1.00 56.10 LIG 0.24  C 
ATOM     23  N   ASN B  18      -2.353 -27.919 -14.087  1.00 65.39 LIG-0.35  N 
ATOM     24 H    ASN B  18      -2.506 -28.572 -13.550  1.00 65.39 LIG 0.16  HD
ATOM     25 O    TYR B  17      -3.089 -26.142 -15.213  1.00 61.36 LIG-0.27  OA
BRANCH 23 26
ATOM     26  CA  ASN B  18      -1.081 -28.015 -14.822  1.00 70.74 LIG 0.17  C 
BRANCH 26 27
ATOM     27  CB  ASN B  18       0.068 -28.192 -13.818  1.00 84.74 LIG 0.14  C 
BRANCH 27 28
ATOM     28  CG  ASN B  18       0.764 -26.868 -13.480  1.00 96.34 LIG 0.22  C 
ATOM     29 OD1  ASN B  18       1.051 -26.578 -12.308  1.00 99.44 LIG-0.27  OA
ATOM     30  ND2 ASN B  18       1.023 -26.047 -14.506  1.00 94.73 LIG-0.37  N 
ATOM     31 21HD ASN B  18       1.401 -25.288 -14.364  1.00 94.73 LIG 0.16  HD
ATOM     32 22HD ASN B  18       0.811 -26.279 -15.307  1.00 94.73 LIG 0.16  HD
ENDBRANCH 27 28
ENDBRANCH 26 27
BRANCH 26 33
ATOM     33  C   ASN B  18      -0.987 -29.032 -15.985  1.00 72.97 LIG 0.22  C 
ATOM     34 O    ASN B  18      -0.517 -30.170 -15.844  1.00 74.17 LIG-0.29  OA
ENDBRANCH 26 33
ENDBRANCH 23 26
ENDBRANCH 21 22
BRANCH 21 35
ATOM     35  CB  TYR B  17      -3.694 -26.138 -12.028  1.00 54.83 LIG 0.07  C 
BRANCH 35 36
ATOM     36  CG  TYR B  17      -2.782 -25.013 -12.341  1.00 56.96 LIG-0.06  A 
ATOM     37  CD2 TYR B  17      -3.214 -23.970 -13.168  1.00 61.26 LIG 0.01  A 
ATOM     38  CE2 TYR B  17      -2.379 -22.921 -13.482  1.00 70.21 LIG 0.04  A 
ATOM     39  CZ  TYR B  17      -1.092 -22.924 -12.975  1.00 76.40 LIG 0.07  A 
ATOM     40  CE1 TYR B  17      -0.638 -23.953 -12.158  1.00 67.10 LIG 0.04  A 
ATOM     41  CD1 TYR B  17      -1.493 -24.997 -11.853  1.00 57.92 LIG 0.01  A 
BRANCH 39 42
ATOM     42 OH   TYR B  17      -0.260 -21.890 -13.291  1.00 89.25 LIG-0.36  OA
ATOM     43 HH   TYR B  17      -0.614 -21.165 -13.058  1.00 89.25 LIG 0.22  HD
ENDBRANCH 39 42
ENDBRANCH 35 36
ENDBRANCH 21 35
ENDBRANCH 19 21
ENDBRANCH 12 17
ENDBRANCH 9 12
ENDBRANCH 4 8
BRANCH 1 44
ATOM     44  CA  ARG B  14     -10.704 -28.879  -8.493  1.00 32.45 LIG 0.18  C 
BRANCH 44 45
ATOM     45  N   ARG B  14     -11.238 -30.177  -8.146  1.00 38.19 LIG-0.35  N 
ATOM     46 H    ARG B  14     -10.966 -30.811  -8.659  1.00 38.19 LIG 0.16  HD
ATOM     47  C   PRO B  13     -12.076 -30.373  -7.124  1.00 38.91 LIG 0.24  C 
ATOM     48 O    PRO B  13     -12.449 -29.483  -6.386  1.00 32.88 LIG-0.27  OA
BRANCH 47 49
ATOM     49  CA  PRO B  13     -12.529 -31.827  -6.882  1.00 38.31 LIG 0.18  C 
ATOM     50  N   PRO B  13     -11.519 -32.664  -6.271  1.00 38.88 LIG-0.34  N 
ATOM     51  CD  PRO B  13     -12.048 -33.387  -5.106  1.00 43.50 LIG 0.13  C 
ATOM     52  C   PRO B  12     -10.261 -32.791  -6.725  1.00 40.77 LIG 0.26  C 
ATOM     53  CG  PRO B  13     -13.523 -33.205  -5.222  1.00 43.53 LIG 0.02  C 
ATOM     54  CB  PRO B  13     -13.682 -31.882  -5.880  1.00 39.91 LIG 0.04  C 
ATOM     55 O    PRO B  12      -9.848 -32.249  -7.762  1.00 44.45 LIG-0.27  OA
BRANCH 52 56
ATOM     56  CA  PRO B  12      -9.319 -33.643  -5.912  1.00 38.46 LIG 0.35  C 
ATOM     57  CB  PRO B  12      -8.598 -32.755  -4.897  1.00 43.42 LIG 0.05  C 
ATOM     58  CG  PRO B  12      -7.209 -33.244  -4.880  1.00 41.12 LIG 0.04  C 
ATOM     59  CD  PRO B  12      -6.932 -33.706  -6.281  1.00 39.74 LIG 0.32  C 
ATOM     60  N   PRO B  12      -8.254 -34.115  -6.763  1.00 38.12 LIG 0.32  N 
ENDBRANCH 52 56
ENDBRANCH 47 49
ENDBRANCH 44 45
BRANCH 44 61
ATOM     61  CB  ARG B  14      -9.511 -28.593  -7.575  1.00 34.42 LIG 0.04  C 
BRANCH 61 62
ATOM     62  CG  ARG B  14      -9.737 -27.476  -6.556  1.00 32.66 LIG 0.02  C 
BRANCH 62 63
ATOM     63  CD  ARG B  14     -10.422 -26.310  -7.238  1.00 35.24 LIG 0.14  C 
BRANCH 63 64
ATOM     64  NE  ARG B  14     -10.948 -25.317  -6.284  1.00 42.22 LIG-0.23  N 
ATOM     65  CZ  ARG B  14     -11.878 -25.538  -5.353  1.00 44.72 LIG 0.67  C 
ATOM     66  NH2 ARG B  14     -12.449 -26.719  -5.211  1.00 43.48 LIG-0.23  N 
ATOM     67  NH1 ARG B  14     -12.253 -24.552  -4.559  1.00 46.51 LIG-0.23  N 
ATOM     68 1HH2 ARG B  14     -12.224 -27.370  -5.727  1.00 43.48 LIG 0.17  HD
ATOM     69 2HH2 ARG B  14     -13.046 -26.838  -4.603  1.00 43.48 LIG 0.17  HD
ATOM     70 2HH1 ARG B  14     -12.852 -24.689  -3.957  1.00 46.51 LIG 0.17  HD
ATOM     71 1HH1 ARG B  14     -11.899 -23.774  -4.643  1.00 46.51 LIG 0.17  HD
ATOM     72 HE   ARG B  14     -10.626 -24.520  -6.333  1.00 42.22 LIG 0.18  HD
ENDBRANCH 63 64
ENDBRANCH 62 63
ENDBRANCH 61 62
ENDBRANCH 44 61
ENDBRANCH 1 44
TORSDOF 22
ENDMDL
MODEL 31
USER: ADFR SOLUTION from run 121
USER: SCORE 21.738610 LL:  -4.737 LR: -18.489 RR:   0.000 FEB: -11.927
USER: RMSD 2.396051
USER: SEED 120
USER: STATUS no improvement in best in 13 clusters for 5 generations
USER: GENES 24
USER: genes 0 Translation |==|  0.46487 0.50328 0.58643
USER: genes 1 Rotation |==|  0.52294 0.50038 0.46480 0.99823
USER: genes 2 Torsion [N]-CA--C-[O] |==|  0.92586
USER: genes 3 Torsion [C]-N--CA-[CB] |==|  0.24996
USER: genes 4 Torsion [N]-CA--CB-[CG2] |==|  0.04501
USER: genes 5 Torsion [CA]-CB--CG1-[CD1] |==|  0.63731
USER: genes 6 Torsion [N]-CA--C-[N] |==|  0.37301
USER: genes 7 Torsion [C]-N--CA-[C] |==|  0.78988
USER: genes 8 Torsion [N]-CA--C-[N] |==|  0.18937
USER: genes 9 Torsion [C]-N--CA-[CB] |==|  0.36526
USER: genes 10 Torsion [N]-CA--CB-[CG] |==|  0.59612
USER: genes 11 Torsion [CA]-CB--CG-[ND2] |==|  0.50937
USER: genes 12 Torsion [N]-CA--C-[O] |==|  0.02158
USER: genes 13 Torsion [N]-CA--CB-[CG] |==|  0.61358
USER: genes 14 Torsion [CA]-CB--CG-[CD2] |==|  0.28953
USER: genes 15 Torsion [CE2]-CZ--OH-[HH] |==|  0.38043
USER: genes 16 Torsion [N]-C--CA-[N] |==|  0.45357
USER: genes 17 Torsion [C]-CA--N-[C] |==|  0.77952
USER: genes 18 Torsion [N]-C--CA-[N] |==|  0.42895
USER: genes 19 Torsion [N]-C--CA-[CB] |==|  0.72694
USER: genes 20 Torsion [C]-CA--CB-[CG] |==|  0.49479
USER: genes 21 Torsion [CA]-CB--CG-[CD] |==|  0.88934
USER: genes 22 Torsion [CB]-CG--CD-[NE] |==|  0.58520
USER: genes 23 Torsion [CG]-CD--NE-[CZ] |==|  0.63434
ROOT
ATOM      1  C   ARG B  14     -10.240 -28.584  -9.535  1.00 32.92 LIG 0.24  C 
ATOM      2 O    ARG B  14      -9.607 -29.637  -9.632  1.00 37.82 LIG-0.27  OA
ATOM      3  N   PRO B  15     -10.591 -27.843 -10.589  1.00 31.88 LIG-0.34  N 
ATOM      4  CA  PRO B  15     -10.262 -28.291 -11.945  1.00 30.79 LIG 0.18  C 
ATOM      5  CB  PRO B  15     -10.897 -27.230 -12.820  1.00 31.22 LIG 0.04  C 
ATOM      6  CG  PRO B  15     -12.064 -26.771 -12.004  1.00 29.82 LIG 0.02  C 
ATOM      7  CD  PRO B  15     -11.525 -26.705 -10.611  1.00 31.43 LIG 0.13  C 
ENDROOT
BRANCH 4 8
ATOM      8  C   PRO B  15      -8.767 -28.277 -12.137  1.00 33.68 LIG 0.24  C 
ATOM      9  N   ILE B  16      -8.279 -29.160 -12.987  1.00 35.41 LIG-0.35  N 
ATOM     10 H    ILE B  16      -8.746 -29.768 -13.378  1.00 35.41 LIG 0.16  HD
ATOM     11 O    PRO B  15      -8.066 -27.516 -11.487  1.00 34.05 LIG-0.27  OA
BRANCH 9 12
ATOM     12  CA  ILE B  16      -6.915 -29.163 -13.319  1.00 37.77 LIG 0.18  C 
BRANCH 12 13
ATOM     13  CB  ILE B  16      -6.112 -30.051 -12.381  1.00 42.27 LIG 0.01  C 
ATOM     14  CG2 ILE B  16      -7.034 -30.966 -11.630  1.00 44.80 LIG 0.01  C 
BRANCH 13 15
ATOM     15  CG1 ILE B  16      -5.071 -30.822 -13.213  1.00 47.53 LIG 0.00  C 
ATOM     16  CD1 ILE B  16      -5.013 -32.327 -12.973  1.00 51.74 LIG 0.01  C 
ENDBRANCH 13 15
ENDBRANCH 12 13
BRANCH 12 17
ATOM     17  C   ILE B  16      -6.858 -29.606 -14.746  1.00 42.33 LIG 0.24  C 
ATOM     18 O    ILE B  16      -7.531 -30.517 -15.141  1.00 39.29 LIG-0.27  OA
ATOM     19  N   TYR B  17      -6.065 -28.890 -15.521  1.00 46.96 LIG-0.35  N 
ATOM     20 H    TYR B  17      -5.506 -28.312 -15.214  1.00 46.96 LIG 0.16  HD
BRANCH 19 21
ATOM     21  CA  TYR B  17      -6.049 -28.999 -16.953  1.00 51.19 LIG 0.18  C 
BRANCH 21 22
ATOM     22  C   TYR B  17      -5.340 -30.242 -17.357  1.00 56.10 LIG 0.24  C 
ATOM     23  N   ASN B  18      -5.918 -31.393 -17.074  1.00 65.39 LIG-0.35  N 
ATOM     24 H    ASN B  18      -6.733 -31.472 -16.811  1.00 65.39 LIG 0.16  HD
ATOM     25 O    TYR B  17      -4.304 -30.161 -17.991  1.00 61.36 LIG-0.27  OA
BRANCH 23 26
ATOM     26  CA  ASN B  18      -5.187 -32.666 -17.191  1.00 70.74 LIG 0.17  C 
BRANCH 26 27
ATOM     27  CB  ASN B  18      -5.396 -33.486 -15.909  1.00 84.74 LIG 0.14  C 
BRANCH 27 28
ATOM     28  CG  ASN B  18      -4.158 -34.308 -15.527  1.00 96.34 LIG 0.22  C 
ATOM     29 OD1  ASN B  18      -3.115 -34.237 -16.194  1.00 99.44 LIG-0.27  OA
ATOM     30  ND2 ASN B  18      -4.275 -35.108 -14.460  1.00 94.73 LIG-0.37  N 
ATOM     31 21HD ASN B  18      -3.612 -35.597 -14.215  1.00 94.73 LIG 0.16  HD
ATOM     32 22HD ASN B  18      -5.013 -35.133 -14.020  1.00 94.73 LIG 0.16  HD
ENDBRANCH 27 28
ENDBRANCH 26 27
BRANCH 26 33
ATOM     33  C   ASN B  18      -5.414 -33.521 -18.461  1.00 72.97 LIG 0.22  C 
ATOM     34 O    ASN B  18      -6.067 -33.115 -19.433  1.00 74.17 LIG-0.29  OA
ENDBRANCH 26 33
ENDBRANCH 23 26
ENDBRANCH 21 22
BRANCH 21 35
ATOM     35  CB  TYR B  17      -5.249 -27.831 -17.505  1.00 54.83 LIG 0.07  C 
BRANCH 35 36
ATOM     36  CG  TYR B  17      -5.886 -27.267 -18.717  1.00 56.96 LIG-0.06  A 
ATOM     37  CD2 TYR B  17      -6.589 -26.059 -18.643  1.00 61.26 LIG 0.01  A 
ATOM     38  CE2 TYR B  17      -7.199 -25.523 -19.754  1.00 70.21 LIG 0.04  A 
ATOM     39  CZ  TYR B  17      -7.119 -26.212 -20.951  1.00 76.40 LIG 0.07  A 
ATOM     40  CE1 TYR B  17      -6.435 -27.418 -21.047  1.00 67.10 LIG 0.04  A 
ATOM     41  CD1 TYR B  17      -5.827 -27.939 -19.919  1.00 57.92 LIG 0.01  A 
BRANCH 39 42
ATOM     42 OH   TYR B  17      -7.730 -25.687 -22.052  1.00 89.25 LIG-0.36  OA
ATOM     43 HH   TYR B  17      -7.223 -25.763 -22.717  1.00 89.25 LIG 0.22  HD
ENDBRANCH 39 42
ENDBRANCH 35 36
ENDBRANCH 21 35
ENDBRANCH 19 21
ENDBRANCH 12 17
ENDBRANCH 9 12
ENDBRANCH 4 8
BRANCH 1 44
ATOM     44  CA  ARG B  14     -10.599 -28.072  -8.172  1.00 32.45 LIG 0.18  C 
BRANCH 44 45
ATOM     45  N   ARG B  14     -10.462 -29.241  -7.332  1.00 38.19 LIG-0.35  N 
ATOM     46 H    ARG B  14      -9.726 -29.262  -6.887  1.00 38.19 LIG 0.16  HD
ATOM     47  C   PRO B  13     -11.391 -30.198  -7.254  1.00 38.91 LIG 0.24  C 
ATOM     48 O    PRO B  13     -12.438 -30.163  -7.868  1.00 32.88 LIG-0.27  OA
BRANCH 47 49
ATOM     49  CA  PRO B  13     -11.091 -31.364  -6.290  1.00 38.31 LIG 0.18  C 
ATOM     50  N   PRO B  13     -12.273 -32.032  -5.789  1.00 38.88 LIG-0.34  N 
ATOM     51  CD  PRO B  13     -12.177 -33.490  -5.950  1.00 43.50 LIG 0.13  C 
ATOM     52  C   PRO B  12     -13.318 -31.406  -5.223  1.00 40.77 LIG 0.26  C 
ATOM     53  CG  PRO B  13     -10.740 -33.712  -6.276  1.00 43.53 LIG 0.02  C 
ATOM     54  CB  PRO B  13     -10.329 -32.482  -7.001  1.00 39.91 LIG 0.04  C 
ATOM     55 O    PRO B  12     -13.352 -30.185  -5.009  1.00 44.45 LIG-0.27  OA
BRANCH 52 56
ATOM     56  CA  PRO B  12     -14.502 -32.257  -4.837  1.00 38.46 LIG 0.35  C 
ATOM     57  CB  PRO B  12     -15.564 -32.155  -5.933  1.00 43.42 LIG 0.05  C 
ATOM     58  CG  PRO B  12     -16.848 -32.086  -5.214  1.00 41.12 LIG 0.04  C 
ATOM     59  CD  PRO B  12     -16.553 -31.349  -3.941  1.00 39.74 LIG 0.32  C 
ATOM     60  N   PRO B  12     -15.148 -31.674  -3.686  1.00 38.12 LIG 0.32  N 
ENDBRANCH 52 56
ENDBRANCH 47 49
ENDBRANCH 44 45
BRANCH 44 61
ATOM     61  CB  ARG B  14      -9.551 -27.044  -7.735  1.00 34.42 LIG 0.04  C 
BRANCH 61 62
ATOM     62  CG  ARG B  14      -9.812 -26.398  -6.374  1.00 32.66 LIG 0.02  C 
BRANCH 62 63
ATOM     63  CD  ARG B  14     -11.294 -26.120  -6.230  1.00 35.24 LIG 0.14  C 
BRANCH 63 64
ATOM     64  NE  ARG B  14     -11.578 -24.940  -5.394  1.00 42.22 LIG-0.23  N 
ATOM     65  CZ  ARG B  14     -12.457 -24.881  -4.391  1.00 44.72 LIG 0.67  C 
ATOM     66  NH2 ARG B  14     -13.199 -25.920  -4.058  1.00 43.48 LIG-0.23  N 
ATOM     67  NH1 ARG B  14     -12.606 -23.754  -3.720  1.00 46.51 LIG-0.23  N 
ATOM     68 1HH2 ARG B  14     -13.122 -26.659  -4.491  1.00 43.48 LIG 0.17  HD
ATOM     69 2HH2 ARG B  14     -13.759 -25.858  -3.408  1.00 43.48 LIG 0.17  HD
ATOM     70 2HH1 ARG B  14     -13.171 -23.710  -3.073  1.00 46.51 LIG 0.17  HD
ATOM     71 1HH1 ARG B  14     -12.138 -23.064  -3.929  1.00 46.51 LIG 0.17  HD
ATOM     72 HE   ARG B  14     -11.136 -24.222  -5.568  1.00 42.22 LIG 0.18  HD
ENDBRANCH 63 64
ENDBRANCH 62 63
ENDBRANCH 61 62
ENDBRANCH 44 61
ENDBRANCH 1 44
TORSDOF 22
ENDMDL
MODEL 32
USER: ADFR SOLUTION from run 196
USER: SCORE 22.845274 LL:  -5.097 LR: -18.483 RR:   0.000 FEB: -11.921
USER: RMSD 5.262599
USER: SEED 195
USER: STATUS searching
USER: GENES 24
USER: genes 0 Translation |==|  0.44028 0.45664 0.56961
USER: genes 1 Rotation |==|  0.61252 0.47314 0.40790 0.97763
USER: genes 2 Torsion [N]-CA--C-[O] |==|  0.91372
USER: genes 3 Torsion [C]-N--CA-[CB] |==|  0.50713
USER: genes 4 Torsion [N]-CA--CB-[CG2] |==|  0.28001
USER: genes 5 Torsion [CA]-CB--CG1-[CD1] |==|  0.06455
USER: genes 6 Torsion [N]-CA--C-[N] |==|  0.39824
USER: genes 7 Torsion [C]-N--CA-[C] |==|  0.83326
USER: genes 8 Torsion [N]-CA--C-[N] |==|  0.39200
USER: genes 9 Torsion [C]-N--CA-[CB] |==|  0.76360
USER: genes 10 Torsion [N]-CA--CB-[CG] |==|  0.82635
USER: genes 11 Torsion [CA]-CB--CG-[ND2] |==|  0.88992
USER: genes 12 Torsion [N]-CA--C-[O] |==|  0.74971
USER: genes 13 Torsion [N]-CA--CB-[CG] |==|  0.07320
USER: genes 14 Torsion [CA]-CB--CG-[CD2] |==|  0.22606
USER: genes 15 Torsion [CE2]-CZ--OH-[HH] |==|  0.71086
USER: genes 16 Torsion [N]-C--CA-[N] |==|  0.45647
USER: genes 17 Torsion [C]-CA--N-[C] |==|  0.55675
USER: genes 18 Torsion [N]-C--CA-[N] |==|  0.21620
USER: genes 19 Torsion [N]-C--CA-[CB] |==|  0.70497
USER: genes 20 Torsion [C]-CA--CB-[CG] |==|  0.52059
USER: genes 21 Torsion [CA]-CB--CG-[CD] |==|  0.80817
USER: genes 22 Torsion [CB]-CG--CD-[NE] |==|  0.97945
USER: genes 23 Torsion [CG]-CD--NE-[CZ] |==|  0.66416
ROOT
ATOM      1  C   ARG B  14     -10.793 -29.459 -10.001  1.00 32.92 LIG 0.24  C 
ATOM      2 O    ARG B  14     -10.388 -30.545 -10.420  1.00 37.82 LIG-0.27  OA
ATOM      3  N   PRO B  15     -10.805 -28.348 -10.743  1.00 31.88 LIG-0.34  N 
ATOM      4  CA  PRO B  15     -10.362 -28.392 -12.140  1.00 30.79 LIG 0.18  C 
ATOM      5  CB  PRO B  15     -10.609 -26.978 -12.622  1.00 31.22 LIG 0.04  C 
ATOM      6  CG  PRO B  15     -11.770 -26.533 -11.790  1.00 29.82 LIG 0.02  C 
ATOM      7  CD  PRO B  15     -11.463 -27.069 -10.429  1.00 31.43 LIG 0.13  C 
ENDROOT
BRANCH 4 8
ATOM      8  C   PRO B  15      -8.886 -28.695 -12.196  1.00 33.68 LIG 0.24  C 
ATOM      9  N   ILE B  16      -8.477 -29.419 -13.221  1.00 35.41 LIG-0.35  N 
ATOM     10 H    ILE B  16      -9.001 -29.771 -13.806  1.00 35.41 LIG 0.16  HD
ATOM     11 O    PRO B  15      -8.143 -28.325 -11.300  1.00 34.05 LIG-0.27  OA
BRANCH 9 12
ATOM     12  CA  ILE B  16      -7.111 -29.670 -13.427  1.00 37.77 LIG 0.18  C 
BRANCH 12 13
ATOM     13  CB  ILE B  16      -6.874 -30.470 -14.698  1.00 42.27 LIG 0.01  C 
ATOM     14  CG2 ILE B  16      -6.427 -29.554 -15.802  1.00 44.80 LIG 0.01  C 
BRANCH 13 15
ATOM     15  CG1 ILE B  16      -5.842 -31.570 -14.396  1.00 47.53 LIG 0.00  C 
ATOM     16  CD1 ILE B  16      -5.721 -31.984 -12.933  1.00 51.74 LIG 0.01  C 
ENDBRANCH 13 15
ENDBRANCH 12 13
BRANCH 12 17
ATOM     17  C   ILE B  16      -6.462 -28.323 -13.446  1.00 42.33 LIG 0.24  C 
ATOM     18 O    ILE B  16      -7.029 -27.367 -13.895  1.00 39.29 LIG-0.27  OA
ATOM     19  N   TYR B  17      -5.266 -28.272 -12.890  1.00 46.96 LIG-0.35  N 
ATOM     20 H    TYR B  17      -4.822 -28.975 -12.669  1.00 46.96 LIG 0.16  HD
BRANCH 19 21
ATOM     21  CA  TYR B  17      -4.582 -27.045 -12.596  1.00 51.19 LIG 0.18  C 
BRANCH 21 22
ATOM     22  C   TYR B  17      -4.369 -26.273 -13.849  1.00 56.10 LIG 0.24  C 
ATOM     23  N   ASN B  18      -4.512 -24.963 -13.791  1.00 65.39 LIG-0.35  N 
ATOM     24 H    ASN B  18      -4.571 -24.517 -13.058  1.00 65.39 LIG 0.16  HD
ATOM     25 O    TYR B  17      -4.003 -26.854 -14.855  1.00 61.36 LIG-0.27  OA
BRANCH 23 26
ATOM     26  CA  ASN B  18      -4.582 -24.146 -15.013  1.00 70.74 LIG 0.17  C 
BRANCH 26 27
ATOM     27  CB  ASN B  18      -3.157 -23.812 -15.477  1.00 84.74 LIG 0.14  C 
BRANCH 27 28
ATOM     28  CG  ASN B  18      -2.383 -22.975 -14.450  1.00 96.34 LIG 0.22  C 
ATOM     29 OD1  ASN B  18      -1.186 -23.200 -14.215  1.00 99.44 LIG-0.27  OA
ATOM     30  ND2 ASN B  18      -3.071 -22.016 -13.818  1.00 94.73 LIG-0.37  N 
ATOM     31 21HD ASN B  18      -2.684 -21.529 -13.225  1.00 94.73 LIG 0.16  HD
ATOM     32 22HD ASN B  18      -3.901 -21.887 -14.004  1.00 94.73 LIG 0.16  HD
ENDBRANCH 27 28
ENDBRANCH 26 27
BRANCH 26 33
ATOM     33  C   ASN B  18      -5.461 -24.656 -16.180  1.00 72.97 LIG 0.22  C 
ATOM     34 O    ASN B  18      -5.021 -25.390 -17.078  1.00 74.17 LIG-0.29  OA
ENDBRANCH 26 33
ENDBRANCH 23 26
ENDBRANCH 21 22
BRANCH 21 35
ATOM     35  CB  TYR B  17      -3.208 -27.391 -12.047  1.00 54.83 LIG 0.07  C 
BRANCH 35 36
ATOM     36  CG  TYR B  17      -2.748 -28.709 -12.541  1.00 56.96 LIG-0.06  A 
ATOM     37  CD2 TYR B  17      -2.173 -28.822 -13.812  1.00 61.26 LIG 0.01  A 
ATOM     38  CE2 TYR B  17      -1.750 -30.038 -14.295  1.00 70.21 LIG 0.04  A 
ATOM     39  CZ  TYR B  17      -1.918 -31.161 -13.503  1.00 76.40 LIG 0.07  A 
ATOM     40  CE1 TYR B  17      -2.495 -31.076 -12.241  1.00 67.10 LIG 0.04  A 
ATOM     41  CD1 TYR B  17      -2.911 -29.843 -11.774  1.00 57.92 LIG 0.01  A 
BRANCH 39 42
ATOM     42 OH   TYR B  17      -1.507 -32.370 -13.984  1.00 89.25 LIG-0.36  OA
ATOM     43 HH   TYR B  17      -2.175 -32.816 -14.228  1.00 89.25 LIG 0.22  HD
ENDBRANCH 39 42
ENDBRANCH 35 36
ENDBRANCH 21 35
ENDBRANCH 19 21
ENDBRANCH 12 17
ENDBRANCH 9 12
ENDBRANCH 4 8
BRANCH 1 44
ATOM     44  CA  ARG B  14     -11.253 -29.351  -8.578  1.00 32.45 LIG 0.18  C 
BRANCH 44 45
ATOM     45  N   ARG B  14     -11.478 -30.727  -8.198  1.00 38.19 LIG-0.35  N 
ATOM     46 H    ARG B  14     -11.066 -31.295  -8.695  1.00 38.19 LIG 0.16  HD
ATOM     47  C   PRO B  13     -12.254 -31.084  -7.170  1.00 38.91 LIG 0.24  C 
ATOM     48 O    PRO B  13     -12.824 -30.284  -6.455  1.00 32.88 LIG-0.27  OA
BRANCH 47 49
ATOM     49  CA  PRO B  13     -12.364 -32.596  -6.890  1.00 38.31 LIG 0.18  C 
ATOM     50  N   PRO B  13     -11.218 -33.153  -6.204  1.00 38.88 LIG-0.34  N 
ATOM     51  CD  PRO B  13     -11.622 -33.947  -5.035  1.00 43.50 LIG 0.13  C 
ATOM     52  C   PRO B  12      -9.944 -32.990  -6.597  1.00 40.77 LIG 0.26  C 
ATOM     53  CG  PRO B  13     -13.090 -34.123  -5.222  1.00 43.53 LIG 0.02  C 
ATOM     54  CB  PRO B  13     -13.522 -32.895  -5.938  1.00 39.91 LIG 0.04  C 
ATOM     55 O    PRO B  12      -9.617 -32.395  -7.635  1.00 44.45 LIG-0.27  OA
BRANCH 52 56
ATOM     56  CA  PRO B  12      -8.871 -33.571  -5.711  1.00 38.46 LIG 0.35  C 
ATOM     57  CB  PRO B  12      -8.170 -32.432  -4.969  1.00 43.42 LIG 0.05  C 
ATOM     58  CG  PRO B  12      -6.743 -32.796  -4.972  1.00 41.12 LIG 0.04  C 
ATOM     59  CD  PRO B  12      -6.520 -33.525  -6.265  1.00 39.74 LIG 0.32  C 
ATOM     60  N   PRO B  12      -7.827 -34.130  -6.535  1.00 38.12 LIG 0.32  N 
ENDBRANCH 52 56
ENDBRANCH 47 49
ENDBRANCH 44 45
BRANCH 44 61
ATOM     61  CB  ARG B  14     -10.105 -28.802  -7.725  1.00 34.42 LIG 0.04  C 
BRANCH 61 62
ATOM     62  CG  ARG B  14     -10.366 -28.802  -6.219  1.00 32.66 LIG 0.02  C 
BRANCH 62 63
ATOM     63  CD  ARG B  14     -11.435 -27.778  -5.896  1.00 35.24 LIG 0.14  C 
BRANCH 63 64
ATOM     64  NE  ARG B  14     -11.804 -26.949  -7.058  1.00 42.22 LIG-0.23  N 
ATOM     65  CZ  ARG B  14     -11.710 -25.619  -7.135  1.00 44.72 LIG 0.67  C 
ATOM     66  NH2 ARG B  14     -11.275 -24.895  -6.122  1.00 43.48 LIG-0.23  N 
ATOM     67  NH1 ARG B  14     -12.074 -25.004  -8.245  1.00 46.51 LIG-0.23  N 
ATOM     68 1HH2 ARG B  14     -11.043 -25.279  -5.387  1.00 43.48 LIG 0.17  HD
ATOM     69 2HH2 ARG B  14     -11.223 -24.040  -6.196  1.00 43.48 LIG 0.17  HD
ATOM     70 2HH1 ARG B  14     -12.016 -24.148  -8.301  1.00 46.51 LIG 0.17  HD
ATOM     71 1HH1 ARG B  14     -12.369 -25.459  -8.912  1.00 46.51 LIG 0.17  HD
ATOM     72 HE   ARG B  14     -12.108 -27.360  -7.750  1.00 42.22 LIG 0.18  HD
ENDBRANCH 63 64
ENDBRANCH 62 63
ENDBRANCH 61 62
ENDBRANCH 44 61
ENDBRANCH 1 44
TORSDOF 22
ENDMDL
