MODEL 1
USER: ADFR SOLUTION from run 104
USER: SCORE 23.135386 LL:  -4.840 LR: -19.396 RR:   0.000 FEB: -11.044
USER: RMSD 3.440117
USER: SEED 103
USER: STATUS searching
USER: GENES 30
USER: genes 0 Translation |==|  0.53801 0.43692 0.61519
USER: genes 1 Rotation |==|  0.55081 0.45218 0.58476 0.98780
USER: genes 2 Torsion [N]-CA--C-[N] |==|  0.43740
USER: genes 3 Torsion [C]-N--CA-[C] |==|  0.73557
USER: genes 4 Torsion [N]-CA--C-[N] |==|  0.34473
USER: genes 5 Torsion [C]-N--CA-[C] |==|  0.69174
USER: genes 6 Torsion [N]-CA--C-[N] |==|  0.45819
USER: genes 7 Torsion [C]-N--CA-[C] |==|  0.57215
USER: genes 8 Torsion [N]-CA--C-[N] |==|  0.45237
USER: genes 9 Torsion [C]-N--CA-[C] |==|  0.45500
USER: genes 10 Torsion [N]-CA--C-[O] |==|  0.99050
USER: genes 11 Torsion [N]-CA--CB-[CG2] |==|  0.51546
USER: genes 12 Torsion [CA]-CB--OG1-[HG1] |==|  0.83726
USER: genes 13 Torsion [N]-CA--CB-[CG] |==|  0.91024
USER: genes 14 Torsion [CA]-CB--CG-[CD1] |==|  0.45517
USER: genes 15 Torsion [N]-CA--CB-[CG] |==|  0.80623
USER: genes 16 Torsion [CA]-CB--CG-[CD2] |==|  0.92218
USER: genes 17 Torsion [C]-CA--CB-[CG] |==|  0.40815
USER: genes 18 Torsion [CA]-CB--CG-[CD2] |==|  0.30095
USER: genes 19 Torsion [C]-CA--N-[C] |==|  0.81193
USER: genes 20 Torsion [N]-C--CA-[N] |==|  0.18065
USER: genes 21 Torsion [C]-CA--CB-[CG] |==|  0.21196
USER: genes 22 Torsion [CA]-CB--CG-[CD] |==|  0.28624
USER: genes 23 Torsion [CB]-CG--CD-[NE] |==|  0.41899
USER: genes 24 Torsion [CG]-CD--NE-[HE] |==|  0.35807
USER: genes 25 Torsion [C]-CA--N-[C] |==|  0.81103
USER: genes 26 Torsion [N]-C--CA-[N] |==|  0.83488
USER: genes 27 Torsion [C]-CA--CB-[CG] |==|  0.11998
USER: genes 28 Torsion [CA]-CB--CG-[OD1] |==|  0.30635
USER: genes 29 Torsion [C]-CA--N-[H2] |==|  0.99517
ROOT
ATOM      1  CA  LEU E   3      46.363  42.701  20.172  1.00 22.83 LIG 0.18  C 
ENDROOT
BRANCH 1 2
ATOM      2  C   LEU E   3      45.638  42.637  18.787  1.00 19.55 LIG 0.24  C 
ATOM      3 O    LEU E   3      44.421  42.575  18.711  1.00 19.60 LIG-0.27  OA
ATOM      4  N   LEU E   4      46.413  42.646  17.728  1.00 19.32 LIG-0.35  N 
ATOM      5 H    LEU E   4      47.258  42.489  17.737  1.00 19.32 LIG 0.16  HD
BRANCH 4 6
ATOM      6  CA  LEU E   4      45.831  42.949  16.371  1.00 17.74 LIG 0.18  C 
BRANCH 6 7
ATOM      7  C   LEU E   4      45.484  41.706  15.630  1.00 18.94 LIG 0.24  C 
ATOM      8  N   LEU E   5      44.196  41.615  15.213  1.00 19.76 LIG-0.35  N 
ATOM      9 H    LEU E   5      43.618  42.249  15.284  1.00 19.76 LIG 0.16  HD
ATOM     10 O    LEU E   4      46.332  40.777  15.472  1.00 20.41 LIG-0.27  OA
BRANCH 8 11
ATOM     11  CA  LEU E   5      43.690  40.395  14.597  1.00 18.99 LIG 0.18  C 
BRANCH 11 12
ATOM     12  C   LEU E   5      43.427  40.710  13.123  1.00 20.67 LIG 0.24  C 
ATOM     13  N   THR E   6      43.262  39.644  12.340  1.00 21.83 LIG-0.34  N 
ATOM     14 H    THR E   6      43.369  38.826  12.582  1.00 21.83 LIG 0.16  HD
ATOM     15 O    LEU E   5      43.337  41.870  12.786  1.00 20.01 LIG-0.27  OA
BRANCH 13 16
ATOM     16  CA  THR E   6      42.862  39.850  10.937  1.00 24.74 LIG 0.20  C 
BRANCH 16 17
ATOM     17  C   THR E   6      42.125  38.610  10.427  1.00 26.78 LIG 0.24  C 
ATOM     18  N   GLY E   7      41.410  38.817   9.310  1.00 28.46 LIG-0.35  N 
ATOM     19 H    GLY E   7      41.590  39.456   8.763  1.00 28.46 LIG 0.16  HD
ATOM     20 O    THR E   6      42.218  37.506  10.970  1.00 25.34 LIG-0.27  OA
BRANCH 18 21
ATOM     21  CA  GLY E   7      40.268  38.012   8.885  1.00 36.11 LIG 0.23  C 
BRANCH 21 22
ATOM     22  C   GLY E   7      39.493  38.728   7.850  1.00 43.05 LIG 0.19  C 
ATOM     23 OXT  GLY E   7      38.543  38.116   7.358  1.00 50.23 LIG-0.65  OA
ATOM     24 O    GLY E   7      39.792  39.890   7.488  1.00 56.48 LIG-0.65  OA
ENDBRANCH 21 22
ENDBRANCH 18 21
ENDBRANCH 16 17
BRANCH 16 25
ATOM     25  CB  THR E   6      44.093  40.175  10.066  1.00 24.32 LIG 0.15  C 
ATOM     26  CG2 THR E   6      43.651  40.539   8.582  1.00 23.74 LIG 0.04  C 
BRANCH 25 27
ATOM     27 OG1  THR E   6      44.725  41.295  10.659  1.00 30.49 LIG-0.39  OA
ATOM     28 HG1  THR E   6      44.184  41.937  10.693  1.00 30.49 LIG 0.21  HD
ENDBRANCH 25 27
ENDBRANCH 16 25
ENDBRANCH 13 16
ENDBRANCH 11 12
BRANCH 11 29
ATOM     29  CB  LEU E   5      42.349  39.966  15.177  1.00 19.92 LIG 0.04  C 
BRANCH 29 30
ATOM     30  CG  LEU E   5      42.270  40.367  16.678  1.00 17.19 LIG-0.02  C 
ATOM     31  CD1 LEU E   5      40.836  40.308  17.133  1.00 19.71 LIG 0.01  C 
ATOM     32  CD2 LEU E   5      43.160  39.474  17.504  1.00 21.46 LIG 0.01  C 
ENDBRANCH 29 30
ENDBRANCH 11 29
ENDBRANCH 8 11
ENDBRANCH 6 7
BRANCH 6 33
ATOM     33  CB  LEU E   4      46.895  43.752  15.551  1.00 18.44 LIG 0.04  C 
BRANCH 33 34
ATOM     34  CG  LEU E   4      47.067  45.172  16.136  1.00 22.78 LIG-0.02  C 
ATOM     35  CD2 LEU E   4      45.801  45.699  16.839  1.00 23.44 LIG 0.01  C 
ATOM     36  CD1 LEU E   4      47.470  46.071  14.966  1.00 27.53 LIG 0.01  C 
ENDBRANCH 33 34
ENDBRANCH 6 33
ENDBRANCH 4 6
ENDBRANCH 1 2
BRANCH 1 37
ATOM     37  CB  LEU E   3      46.865  41.295  20.515  1.00 29.41 LIG 0.04  C 
BRANCH 37 38
ATOM     38  CG  LEU E   3      48.183  41.191  21.316  1.00 30.90 LIG-0.02  C 
ATOM     39  CD1 LEU E   3      48.934  42.540  21.325  1.00 35.09 LIG 0.01  C 
ATOM     40  CD2 LEU E   3      47.892  40.741  22.737  1.00 39.15 LIG 0.01  C 
ENDBRANCH 37 38
ENDBRANCH 1 37
BRANCH 1 41
ATOM     41  N   LEU E   3      45.448  43.220  21.233  1.00 22.92 LIG-0.35  N 
ATOM     42 H    LEU E   3      45.222  42.653  21.839  1.00 22.92 LIG 0.16  HD
ATOM     43  C   ARG E   2      45.051  44.486  21.181  1.00 28.87 LIG 0.24  C 
ATOM     44 O    ARG E   2      45.410  45.251  20.237  1.00 29.44 LIG-0.27  OA
BRANCH 43 45
ATOM     45  CA  ARG E   2      44.123  45.020  22.296  1.00 32.90 LIG 0.18  C 
BRANCH 45 46
ATOM     46  CB  ARG E   2      43.831  46.497  22.086  1.00 32.53 LIG 0.04  C 
BRANCH 46 47
ATOM     47  CG  ARG E   2      42.846  46.813  21.017  1.00 34.92 LIG 0.02  C 
BRANCH 47 48
ATOM     48  CD  ARG E   2      41.545  47.154  21.653  1.00 37.57 LIG 0.14  C 
BRANCH 48 49
ATOM     49  NE  ARG E   2      40.718  48.093  20.879  1.00 41.00 LIG-0.23  N 
ATOM     50 HE   ARG E   2      39.899  47.881  20.724  1.00 41.00 LIG 0.18  HD
ATOM     51  CZ  ARG E   2      41.168  49.262  20.401  1.00 43.22 LIG 0.67  C 
ATOM     52  NH2 ARG E   2      40.343  50.090  19.773  1.00 39.75 LIG-0.23  N 
ATOM     53  NH1 ARG E   2      42.456  49.616  20.551  1.00 41.20 LIG-0.23  N 
ATOM     54 2HH2 ARG E   2      40.635  50.839  19.468  1.00 39.75 LIG 0.17  HD
ATOM     55 1HH2 ARG E   2      39.516  49.877  19.671  1.00 39.75 LIG 0.17  HD
ATOM     56 1HH1 ARG E   2      43.003  49.091  20.957  1.00 41.20 LIG 0.17  HD
ATOM     57 2HH1 ARG E   2      42.734  50.369  20.241  1.00 41.20 LIG 0.17  HD
ENDBRANCH 48 49
ENDBRANCH 47 48
ENDBRANCH 46 47
ENDBRANCH 45 46
BRANCH 45 58
ATOM     58  N   ARG E   2      44.844  45.006  23.578  1.00 36.64 LIG-0.35  N 
ATOM     59 H    ARG E   2      45.011  45.793  23.882  1.00 36.64 LIG 0.16  HD
ATOM     60  C   ASN E   1      45.205  43.910  24.208  1.00 41.83 LIG 0.25  C 
ATOM     61 O    ASN E   1      44.909  42.788  23.769  1.00 38.61 LIG-0.27  OA
BRANCH 60 62
ATOM     62  CA  ASN E   1      45.932  44.117  25.584  1.00 50.15 LIG 0.28  C 
BRANCH 62 63
ATOM     63  CB  ASN E   1      45.036  44.732  26.712  1.00 58.25 LIG 0.14  C 
BRANCH 63 64
ATOM     64  CG  ASN E   1      43.594  44.118  26.789  1.00 70.07 LIG 0.22  C 
ATOM     65 OD1  ASN E   1      43.221  43.394  27.727  1.00 69.16 LIG-0.27  OA
ATOM     66  ND2 ASN E   1      42.782  44.426  25.775  1.00 65.88 LIG-0.37  N 
ATOM     67 22HD ASN E   1      43.063  44.929  25.136  1.00 65.88 LIG 0.16  HD
ATOM     68 21HD ASN E   1      41.978  44.120  25.760  1.00 65.88 LIG 0.16  HD
ENDBRANCH 63 64
ENDBRANCH 62 63
BRANCH 62 69
ATOM     69  N   ASN E   1      47.182  44.914  25.422  1.00 55.39 LIG-0.07  N 
ATOM     70 H1   ASN E   1      47.875  44.442  25.719  1.00 55.39 LIG 0.28  HD
ATOM     71 H2   ASN E   1      47.301  45.107  24.561  1.00 55.39 LIG 0.28  HD
ATOM     72 H3   ASN E   1      47.116  45.668  25.889  1.00 55.39 LIG 0.28  HD
ENDBRANCH 62 69
ENDBRANCH 60 62
ENDBRANCH 45 58
ENDBRANCH 43 45
ENDBRANCH 1 41
TORSDOF 28
ENDMDL
MODEL 2
USER: ADFR SOLUTION from run 33
USER: SCORE 23.682816 LL:  -5.369 LR: -18.969 RR:   0.000 FEB: -10.617
USER: RMSD 5.747644
USER: SEED 32
USER: STATUS no improvement in best in 5 clusters for 5 generations
USER: GENES 30
USER: genes 0 Translation |==|  0.54868 0.43777 0.62753
USER: genes 1 Rotation |==|  0.28930 0.49717 0.15483 0.79404
USER: genes 2 Torsion [N]-CA--C-[N] |==|  0.20209
USER: genes 3 Torsion [C]-N--CA-[C] |==|  0.62804
USER: genes 4 Torsion [N]-CA--C-[N] |==|  0.35268
USER: genes 5 Torsion [C]-N--CA-[C] |==|  0.66808
USER: genes 6 Torsion [N]-CA--C-[N] |==|  0.41079
USER: genes 7 Torsion [C]-N--CA-[C] |==|  0.60867
USER: genes 8 Torsion [N]-CA--C-[N] |==|  0.44312
USER: genes 9 Torsion [C]-N--CA-[C] |==|  0.48266
USER: genes 10 Torsion [N]-CA--C-[O] |==|  0.46859
USER: genes 11 Torsion [N]-CA--CB-[CG2] |==|  0.50306
USER: genes 12 Torsion [CA]-CB--OG1-[HG1] |==|  0.80667
USER: genes 13 Torsion [N]-CA--CB-[CG] |==|  0.88937
USER: genes 14 Torsion [CA]-CB--CG-[CD1] |==|  0.47690
USER: genes 15 Torsion [N]-CA--CB-[CG] |==|  0.78102
USER: genes 16 Torsion [CA]-CB--CG-[CD2] |==|  0.90914
USER: genes 17 Torsion [C]-CA--CB-[CG] |==|  0.45424
USER: genes 18 Torsion [CA]-CB--CG-[CD2] |==|  0.49071
USER: genes 19 Torsion [C]-CA--N-[C] |==|  0.76863
USER: genes 20 Torsion [N]-C--CA-[N] |==|  0.41004
USER: genes 21 Torsion [C]-CA--CB-[CG] |==|  0.24102
USER: genes 22 Torsion [CA]-CB--CG-[CD] |==|  0.25916
USER: genes 23 Torsion [CB]-CG--CD-[NE] |==|  0.08240
USER: genes 24 Torsion [CG]-CD--NE-[HE] |==|  0.77661
USER: genes 25 Torsion [C]-CA--N-[C] |==|  0.80253
USER: genes 26 Torsion [N]-C--CA-[N] |==|  0.46923
USER: genes 27 Torsion [C]-CA--CB-[CG] |==|  0.16696
USER: genes 28 Torsion [CA]-CB--CG-[OD1] |==|  0.12744
USER: genes 29 Torsion [C]-CA--N-[H2] |==|  0.99618
ROOT
ATOM      1  CA  LEU E   3      46.579  42.720  20.496  1.00 22.83 LIG 0.18  C 
ENDROOT
BRANCH 1 2
ATOM      2  C   LEU E   3      45.810  42.927  19.149  1.00 19.55 LIG 0.24  C 
ATOM      3 O    LEU E   3      44.896  43.731  19.059  1.00 19.60 LIG-0.27  OA
ATOM      4  N   LEU E   4      46.203  42.187  18.139  1.00 19.32 LIG-0.35  N 
ATOM      5 H    LEU E   4      46.693  41.485  18.207  1.00 19.32 LIG 0.16  HD
BRANCH 4 6
ATOM      6  CA  LEU E   4      45.793  42.550  16.735  1.00 17.74 LIG 0.18  C 
BRANCH 6 7
ATOM      7  C   LEU E   4      45.307  41.363  15.979  1.00 18.94 LIG 0.24  C 
ATOM      8  N   LEU E   5      44.085  41.497  15.404  1.00 19.76 LIG-0.35  N 
ATOM      9 H    LEU E   5      43.635  42.230  15.389  1.00 19.76 LIG 0.16  HD
ATOM     10 O    LEU E   4      45.975  40.286  15.947  1.00 20.41 LIG-0.27  OA
BRANCH 8 11
ATOM     11  CA  LEU E   5      43.434  40.368  14.751  1.00 18.99 LIG 0.18  C 
BRANCH 11 12
ATOM     12  C   LEU E   5      43.223  40.756  13.286  1.00 20.67 LIG 0.24  C 
ATOM     13  N   THR E   6      43.285  39.742  12.421  1.00 21.83 LIG-0.34  N 
ATOM     14 H    THR E   6      43.507  38.934  12.615  1.00 21.83 LIG 0.16  HD
ATOM     15 O    LEU E   5      42.969  41.910  13.023  1.00 20.01 LIG-0.27  OA
BRANCH 13 16
ATOM     16  CA  THR E   6      42.952  39.995  11.009  1.00 24.74 LIG 0.20  C 
BRANCH 16 17
ATOM     17  C   THR E   6      42.163  38.810  10.448  1.00 26.78 LIG 0.24  C 
ATOM     18  N   GLY E   7      41.449  39.096   9.349  1.00 28.46 LIG-0.35  N 
ATOM     19 H    GLY E   7      41.649  39.753   8.830  1.00 28.46 LIG 0.16  HD
ATOM     20 O    THR E   6      42.217  37.679  10.938  1.00 25.34 LIG-0.27  OA
BRANCH 18 21
ATOM     21  CA  GLY E   7      40.273  38.357   8.897  1.00 36.11 LIG 0.23  C 
BRANCH 21 22
ATOM     22  C   GLY E   7      39.653  39.036   7.740  1.00 43.05 LIG 0.19  C 
ATOM     23 OXT  GLY E   7      40.056  40.175   7.495  1.00 50.23 LIG-0.65  OA
ATOM     24 O    GLY E   7      38.762  38.486   7.052  1.00 56.48 LIG-0.65  OA
ENDBRANCH 21 22
ENDBRANCH 18 21
ENDBRANCH 16 17
BRANCH 16 25
ATOM     25  CB  THR E   6      44.233  40.261  10.190  1.00 24.32 LIG 0.15  C 
ATOM     26  CG2 THR E   6      43.875  40.562   8.670  1.00 23.74 LIG 0.04  C 
BRANCH 25 27
ATOM     27 OG1  THR E   6      44.852  41.398  10.764  1.00 30.49 LIG-0.39  OA
ATOM     28 HG1  THR E   6      44.388  42.079  10.607  1.00 30.49 LIG 0.21  HD
ENDBRANCH 25 27
ENDBRANCH 16 25
ENDBRANCH 13 16
ENDBRANCH 11 12
BRANCH 11 29
ATOM     29  CB  LEU E   5      42.046  40.095  15.314  1.00 19.92 LIG 0.04  C 
BRANCH 29 30
ATOM     30  CG  LEU E   5      42.057  40.278  16.859  1.00 17.19 LIG-0.02  C 
ATOM     31  CD1 LEU E   5      40.645  40.207  17.377  1.00 19.71 LIG 0.01  C 
ATOM     32  CD2 LEU E   5      42.945  39.243  17.500  1.00 21.46 LIG 0.01  C 
ENDBRANCH 29 30
ENDBRANCH 11 29
ENDBRANCH 8 11
ENDBRANCH 6 7
BRANCH 6 33
ATOM     33  CB  LEU E   4      47.038  43.147  16.001  1.00 18.44 LIG 0.04  C 
BRANCH 33 34
ATOM     34  CG  LEU E   4      47.258  44.619  16.421  1.00 22.78 LIG-0.02  C 
ATOM     35  CD2 LEU E   4      45.946  45.366  16.730  1.00 23.44 LIG 0.01  C 
ATOM     36  CD1 LEU E   4      48.021  45.283  15.274  1.00 27.53 LIG 0.01  C 
ENDBRANCH 33 34
ENDBRANCH 6 33
ENDBRANCH 4 6
ENDBRANCH 1 2
BRANCH 1 37
ATOM     37  CB  LEU E   3      45.760  43.365  21.619  1.00 29.41 LIG 0.04  C 
BRANCH 37 38
ATOM     38  CG  LEU E   3      46.108  42.959  23.070  1.00 30.90 LIG-0.02  C 
ATOM     39  CD1 LEU E   3      47.608  43.178  23.361  1.00 35.09 LIG 0.01  C 
ATOM     40  CD2 LEU E   3      45.259  43.752  24.047  1.00 39.15 LIG 0.01  C 
ENDBRANCH 37 38
ENDBRANCH 1 37
BRANCH 1 41
ATOM     41  N   LEU E   3      47.952  43.305  20.426  1.00 22.92 LIG-0.35  N 
ATOM     42 H    LEU E   3      48.036  44.096  20.753  1.00 22.92 LIG 0.16  HD
ATOM     43  C   ARG E   2      48.931  42.593  19.880  1.00 28.87 LIG 0.24  C 
ATOM     44 O    ARG E   2      48.717  41.442  19.395  1.00 29.44 LIG-0.27  OA
BRANCH 43 45
ATOM     45  CA  ARG E   2      50.353  43.198  19.834  1.00 32.90 LIG 0.18  C 
BRANCH 45 46
ATOM     46  CB  ARG E   2      50.642  43.777  18.458  1.00 32.53 LIG 0.04  C 
BRANCH 46 47
ATOM     47  CG  ARG E   2      50.205  45.183  18.247  1.00 34.92 LIG 0.02  C 
BRANCH 47 48
ATOM     48  CD  ARG E   2      51.344  46.088  18.558  1.00 37.57 LIG 0.14  C 
BRANCH 48 49
ATOM     49  NE  ARG E   2      52.671  45.503  18.311  1.00 41.00 LIG-0.23  N 
ATOM     50 HE   ARG E   2      52.999  44.974  18.904  1.00 41.00 LIG 0.18  HD
ATOM     51  CZ  ARG E   2      53.400  45.748  17.212  1.00 43.22 LIG 0.67  C 
ATOM     52  NH2 ARG E   2      54.557  45.128  17.026  1.00 39.75 LIG-0.23  N 
ATOM     53  NH1 ARG E   2      52.971  46.621  16.283  1.00 41.20 LIG-0.23  N 
ATOM     54 2HH2 ARG E   2      55.022  45.287  16.320  1.00 39.75 LIG 0.17  HD
ATOM     55 1HH2 ARG E   2      54.844  44.567  17.611  1.00 39.75 LIG 0.17  HD
ATOM     56 1HH1 ARG E   2      52.222  47.030  16.390  1.00 41.20 LIG 0.17  HD
ATOM     57 2HH1 ARG E   2      53.447  46.769  15.582  1.00 41.20 LIG 0.17  HD
ENDBRANCH 48 49
ENDBRANCH 47 48
ENDBRANCH 46 47
ENDBRANCH 45 46
BRANCH 45 58
ATOM     58  N   ARG E   2      51.345  42.119  19.952  1.00 36.64 LIG-0.35  N 
ATOM     59 H    ARG E   2      51.771  41.967  19.220  1.00 36.64 LIG 0.16  HD
ATOM     60  C   ASN E   1      51.571  41.444  21.058  1.00 41.83 LIG 0.25  C 
ATOM     61 O    ASN E   1      50.976  41.717  22.111  1.00 38.61 LIG-0.27  OA
BRANCH 60 62
ATOM     62  CA  ASN E   1      52.703  40.359  20.979  1.00 50.15 LIG 0.28  C 
BRANCH 62 63
ATOM     63  CB  ASN E   1      52.404  39.168  20.007  1.00 58.25 LIG 0.14  C 
BRANCH 63 64
ATOM     64  CG  ASN E   1      52.186  39.601  18.515  1.00 70.07 LIG 0.22  C 
ATOM     65 OD1  ASN E   1      52.935  40.402  17.930  1.00 69.16 LIG-0.27  OA
ATOM     66  ND2 ASN E   1      51.136  39.048  17.901  1.00 65.88 LIG-0.37  N 
ATOM     67 22HD ASN E   1      50.632  38.496  18.326  1.00 65.88 LIG 0.16  HD
ATOM     68 21HD ASN E   1      50.965  39.245  17.082  1.00 65.88 LIG 0.16  HD
ENDBRANCH 63 64
ENDBRANCH 62 63
BRANCH 62 69
ATOM     69  N   ASN E   1      53.058  39.847  22.334  1.00 55.39 LIG-0.07  N 
ATOM     70 H1   ASN E   1      53.922  39.992  22.490  1.00 55.39 LIG 0.28  HD
ATOM     71 H2   ASN E   1      52.571  40.269  22.948  1.00 55.39 LIG 0.28  HD
ATOM     72 H3   ASN E   1      52.893  38.973  22.373  1.00 55.39 LIG 0.28  HD
ENDBRANCH 62 69
ENDBRANCH 60 62
ENDBRANCH 45 58
ENDBRANCH 43 45
ENDBRANCH 1 41
TORSDOF 28
ENDMDL
MODEL 3
USER: ADFR SOLUTION from run 79
USER: SCORE 22.188297 LL:  -4.974 LR: -18.338 RR:   0.000 FEB:  -9.986
USER: RMSD 3.608781
USER: SEED 78
USER: STATUS searching
USER: GENES 30
USER: genes 0 Translation |==|  0.55864 0.46955 0.61642
USER: genes 1 Rotation |==|  0.53797 0.49859 0.56058 0.99486
USER: genes 2 Torsion [N]-CA--C-[N] |==|  0.47132
USER: genes 3 Torsion [C]-N--CA-[C] |==|  0.65559
USER: genes 4 Torsion [N]-CA--C-[N] |==|  0.38665
USER: genes 5 Torsion [C]-N--CA-[C] |==|  0.66368
USER: genes 6 Torsion [N]-CA--C-[N] |==|  0.46501
USER: genes 7 Torsion [C]-N--CA-[C] |==|  0.59565
USER: genes 8 Torsion [N]-CA--C-[N] |==|  0.44745
USER: genes 9 Torsion [C]-N--CA-[C] |==|  0.50269
USER: genes 10 Torsion [N]-CA--C-[O] |==|  0.46543
USER: genes 11 Torsion [N]-CA--CB-[CG2] |==|  0.50148
USER: genes 12 Torsion [CA]-CB--OG1-[HG1] |==|  0.89512
USER: genes 13 Torsion [N]-CA--CB-[CG] |==|  0.92957
USER: genes 14 Torsion [CA]-CB--CG-[CD1] |==|  0.41991
USER: genes 15 Torsion [N]-CA--CB-[CG] |==|  0.85147
USER: genes 16 Torsion [CA]-CB--CG-[CD2] |==|  0.85251
USER: genes 17 Torsion [C]-CA--CB-[CG] |==|  0.30027
USER: genes 18 Torsion [CA]-CB--CG-[CD2] |==|  0.78751
USER: genes 19 Torsion [C]-CA--N-[C] |==|  0.76121
USER: genes 20 Torsion [N]-C--CA-[N] |==|  0.63259
USER: genes 21 Torsion [C]-CA--CB-[CG] |==|  0.20681
USER: genes 22 Torsion [CA]-CB--CG-[CD] |==|  0.31193
USER: genes 23 Torsion [CB]-CG--CD-[NE] |==|  0.15768
USER: genes 24 Torsion [CG]-CD--NE-[HE] |==|  0.98557
USER: genes 25 Torsion [C]-CA--N-[C] |==|  0.16511
USER: genes 26 Torsion [N]-C--CA-[N] |==|  0.25283
USER: genes 27 Torsion [C]-CA--CB-[CG] |==|  0.41850
USER: genes 28 Torsion [CA]-CB--CG-[OD1] |==|  0.73450
USER: genes 29 Torsion [C]-CA--N-[H2] |==|  0.25503
ROOT
ATOM      1  CA  LEU E   3      46.781  43.435  20.204  1.00 22.83 LIG 0.18  C 
ENDROOT
BRANCH 1 2
ATOM      2  C   LEU E   3      45.807  43.345  18.983  1.00 19.55 LIG 0.24  C 
ATOM      3 O    LEU E   3      44.621  43.608  19.098  1.00 19.60 LIG-0.27  OA
ATOM      4  N   LEU E   4      46.340  42.967  17.845  1.00 19.32 LIG-0.35  N 
ATOM      5 H    LEU E   4      47.107  42.588  17.765  1.00 19.32 LIG 0.16  HD
BRANCH 4 6
ATOM      6  CA  LEU E   4      45.596  43.190  16.553  1.00 17.74 LIG 0.18  C 
BRANCH 6 7
ATOM      7  C   LEU E   4      45.410  41.922  15.798  1.00 18.94 LIG 0.24  C 
ATOM      8  N   LEU E   5      44.196  41.764  15.212  1.00 19.76 LIG-0.35  N 
ATOM      9 H    LEU E   5      43.586  42.370  15.191  1.00 19.76 LIG 0.16  HD
ATOM     10 O    LEU E   4      46.313  41.032  15.776  1.00 20.41 LIG-0.27  OA
BRANCH 8 11
ATOM     11  CA  LEU E   5      43.834  40.511  14.559  1.00 18.99 LIG 0.18  C 
BRANCH 11 12
ATOM     12  C   LEU E   5      43.513  40.842  13.100  1.00 20.67 LIG 0.24  C 
ATOM     13  N   THR E   6      43.417  39.786  12.291  1.00 21.83 LIG-0.34  N 
ATOM     14 H    THR E   6      43.596  38.974  12.508  1.00 21.83 LIG 0.16  HD
ATOM     15 O    LEU E   5      43.320  41.999  12.797  1.00 20.01 LIG-0.27  OA
BRANCH 13 16
ATOM     16  CA  THR E   6      42.969  39.995  10.903  1.00 24.74 LIG 0.20  C 
BRANCH 16 17
ATOM     17  C   THR E   6      42.141  38.793  10.445  1.00 26.78 LIG 0.24  C 
ATOM     18  N   GLY E   7      41.363  39.035   9.379  1.00 28.46 LIG-0.35  N 
ATOM     19 H    GLY E   7      41.536  39.666   8.820  1.00 28.46 LIG 0.16  HD
ATOM     20 O    THR E   6      42.218  37.684  10.983  1.00 25.34 LIG-0.27  OA
BRANCH 18 21
ATOM     21  CA  GLY E   7      40.158  38.286   9.034  1.00 36.11 LIG 0.23  C 
BRANCH 21 22
ATOM     22  C   GLY E   7      39.568  38.812   7.784  1.00 43.05 LIG 0.19  C 
ATOM     23 OXT  GLY E   7      40.003  39.895   7.389  1.00 50.23 LIG-0.65  OA
ATOM     24 O    GLY E   7      38.670  38.193   7.168  1.00 56.48 LIG-0.65  OA
ENDBRANCH 21 22
ENDBRANCH 18 21
ENDBRANCH 16 17
BRANCH 16 25
ATOM     25  CB  THR E   6      44.178  40.236   9.975  1.00 24.32 LIG 0.15  C 
ATOM     26  CG2 THR E   6      43.697  40.475   8.478  1.00 23.74 LIG 0.04  C 
BRANCH 25 27
ATOM     27 OG1  THR E   6      44.831  41.398  10.454  1.00 30.49 LIG-0.39  OA
ATOM     28 HG1  THR E   6      44.258  41.953  10.716  1.00 30.49 LIG 0.21  HD
ENDBRANCH 25 27
ENDBRANCH 16 25
ENDBRANCH 13 16
ENDBRANCH 11 12
BRANCH 11 29
ATOM     29  CB  LEU E   5      42.566  39.902  15.137  1.00 19.92 LIG 0.04  C 
BRANCH 29 30
ATOM     30  CG  LEU E   5      42.369  40.382  16.604  1.00 17.19 LIG-0.02  C 
ATOM     31  CD1 LEU E   5      40.899  40.404  16.926  1.00 19.71 LIG 0.01  C 
ATOM     32  CD2 LEU E   5      43.141  39.499  17.550  1.00 21.46 LIG 0.01  C 
ENDBRANCH 29 30
ENDBRANCH 11 29
ENDBRANCH 8 11
ENDBRANCH 6 7
BRANCH 6 33
ATOM     33  CB  LEU E   4      46.425  44.188  15.678  1.00 18.44 LIG 0.04  C 
BRANCH 33 34
ATOM     34  CG  LEU E   4      46.740  45.473  16.478  1.00 22.78 LIG-0.02  C 
ATOM     35  CD2 LEU E   4      45.489  46.132  17.089  1.00 23.44 LIG 0.01  C 
ATOM     36  CD1 LEU E   4      47.450  46.418  15.507  1.00 27.53 LIG 0.01  C 
ENDBRANCH 33 34
ENDBRANCH 6 33
ENDBRANCH 4 6
ENDBRANCH 1 2
BRANCH 1 37
ATOM     37  CB  LEU E   3      47.227  42.015  20.566  1.00 29.41 LIG 0.04  C 
BRANCH 37 38
ATOM     38  CG  LEU E   3      48.686  41.626  20.234  1.00 30.90 LIG-0.02  C 
ATOM     39  CD1 LEU E   3      49.129  40.391  21.048  1.00 35.09 LIG 0.01  C 
ATOM     40  CD2 LEU E   3      48.825  41.355  18.746  1.00 39.15 LIG 0.01  C 
ENDBRANCH 37 38
ENDBRANCH 1 37
BRANCH 1 41
ATOM     41  N   LEU E   3      46.124  44.106  21.366  1.00 22.92 LIG-0.35  N 
ATOM     42 H    LEU E   3      45.752  43.581  21.937  1.00 22.92 LIG 0.16  HD
ATOM     43  C   ARG E   2      46.151  45.431  21.447  1.00 28.87 LIG 0.24  C 
ATOM     44 O    ARG E   2      46.697  46.135  20.547  1.00 29.44 LIG-0.27  OA
BRANCH 43 45
ATOM     45  CA  ARG E   2      45.488  46.114  22.666  1.00 32.90 LIG 0.18  C 
BRANCH 45 46
ATOM     46  CB  ARG E   2      44.500  45.172  23.335  1.00 32.53 LIG 0.04  C 
BRANCH 46 47
ATOM     47  CG  ARG E   2      45.101  44.072  24.137  1.00 34.92 LIG 0.02  C 
BRANCH 47 48
ATOM     48  CD  ARG E   2      44.791  44.306  25.573  1.00 37.57 LIG 0.14  C 
BRANCH 48 49
ATOM     49  NE  ARG E   2      43.355  44.419  25.875  1.00 41.00 LIG-0.23  N 
ATOM     50 HE   ARG E   2      42.800  44.414  25.218  1.00 41.00 LIG 0.18  HD
ATOM     51  CZ  ARG E   2      42.862  44.529  27.117  1.00 43.22 LIG 0.67  C 
ATOM     52  NH2 ARG E   2      41.551  44.555  27.316  1.00 39.75 LIG-0.23  N 
ATOM     53  NH1 ARG E   2      43.684  44.612  28.179  1.00 41.20 LIG-0.23  N 
ATOM     54 2HH2 ARG E   2      41.238  44.625  28.113  1.00 39.75 LIG 0.17  HD
ATOM     55 1HH2 ARG E   2      41.013  44.502  26.646  1.00 39.75 LIG 0.17  HD
ATOM     56 1HH1 ARG E   2      44.536  44.596  28.066  1.00 41.20 LIG 0.17  HD
ATOM     57 2HH1 ARG E   2      43.356  44.682  28.970  1.00 41.20 LIG 0.17  HD
ENDBRANCH 48 49
ENDBRANCH 47 48
ENDBRANCH 46 47
ENDBRANCH 45 46
BRANCH 45 58
ATOM     58  N   ARG E   2      44.631  47.214  22.201  1.00 36.64 LIG-0.35  N 
ATOM     59 H    ARG E   2      44.859  47.980  22.519  1.00 36.64 LIG 0.16  HD
ATOM     60  C   ASN E   1      43.614  47.059  21.382  1.00 41.83 LIG 0.25  C 
ATOM     61 O    ASN E   1      43.338  45.950  20.901  1.00 38.61 LIG-0.27  OA
BRANCH 60 62
ATOM     62  CA  ASN E   1      42.852  48.373  20.979  1.00 50.15 LIG 0.28  C 
BRANCH 62 63
ATOM     63  CB  ASN E   1      41.301  48.214  20.840  1.00 58.25 LIG 0.14  C 
BRANCH 63 64
ATOM     64  CG  ASN E   1      40.494  49.521  21.160  1.00 70.07 LIG 0.22  C 
ATOM     65 OD1  ASN E   1      40.001  49.751  22.278  1.00 69.16 LIG-0.27  OA
ATOM     66  ND2 ASN E   1      40.368  50.384  20.148  1.00 65.88 LIG-0.37  N 
ATOM     67 22HD ASN E   1      40.718  50.203  19.384  1.00 65.88 LIG 0.16  HD
ATOM     68 21HD ASN E   1      39.937  51.119  20.262  1.00 65.88 LIG 0.16  HD
ENDBRANCH 63 64
ENDBRANCH 62 63
BRANCH 62 69
ATOM     69  N   ASN E   1      43.425  48.972  19.740  1.00 55.39 LIG-0.07  N 
ATOM     70 H1   ASN E   1      44.286  48.758  19.677  1.00 55.39 LIG 0.28  HD
ATOM     71 H2   ASN E   1      42.989  48.660  19.029  1.00 55.39 LIG 0.28  HD
ATOM     72 H3   ASN E   1      43.343  49.858  19.773  1.00 55.39 LIG 0.28  HD
ENDBRANCH 62 69
ENDBRANCH 60 62
ENDBRANCH 45 58
ENDBRANCH 43 45
ENDBRANCH 1 41
TORSDOF 28
ENDMDL
MODEL 4
USER: ADFR SOLUTION from run 195
USER: SCORE 23.146798 LL:  -5.346 LR: -18.203 RR:   0.000 FEB:  -9.851
USER: RMSD 3.701472
USER: SEED 194
USER: STATUS no improvement in best in 3 clusters for 5 generations
USER: GENES 30
USER: genes 0 Translation |==|  0.50259 0.47674 0.64359
USER: genes 1 Rotation |==|  0.47275 0.40420 0.60273 0.97909
USER: genes 2 Torsion [N]-CA--C-[N] |==|  0.40373
USER: genes 3 Torsion [C]-N--CA-[C] |==|  0.78053
USER: genes 4 Torsion [N]-CA--C-[N] |==|  0.26286
USER: genes 5 Torsion [C]-N--CA-[C] |==|  0.80848
USER: genes 6 Torsion [N]-CA--C-[N] |==|  0.43689
USER: genes 7 Torsion [C]-N--CA-[C] |==|  0.81978
USER: genes 8 Torsion [N]-CA--C-[N] |==|  0.39143
USER: genes 9 Torsion [C]-N--CA-[C] |==|  0.77938
USER: genes 10 Torsion [N]-CA--C-[O] |==|  0.50216
USER: genes 11 Torsion [N]-CA--CB-[CG2] |==|  0.77143
USER: genes 12 Torsion [CA]-CB--OG1-[HG1] |==|  0.78390
USER: genes 13 Torsion [N]-CA--CB-[CG] |==|  0.64798
USER: genes 14 Torsion [CA]-CB--CG-[CD1] |==|  0.41899
USER: genes 15 Torsion [N]-CA--CB-[CG] |==|  0.79124
USER: genes 16 Torsion [CA]-CB--CG-[CD2] |==|  0.94282
USER: genes 17 Torsion [C]-CA--CB-[CG] |==|  0.27810
USER: genes 18 Torsion [CA]-CB--CG-[CD2] |==|  0.04025
USER: genes 19 Torsion [C]-CA--N-[C] |==|  0.80066
USER: genes 20 Torsion [N]-C--CA-[N] |==|  0.10134
USER: genes 21 Torsion [C]-CA--CB-[CG] |==|  0.47378
USER: genes 22 Torsion [CA]-CB--CG-[CD] |==|  0.79620
USER: genes 23 Torsion [CB]-CG--CD-[NE] |==|  0.72004
USER: genes 24 Torsion [CG]-CD--NE-[HE] |==|  0.28292
USER: genes 25 Torsion [C]-CA--N-[C] |==|  0.15585
USER: genes 26 Torsion [N]-C--CA-[N] |==|  0.01465
USER: genes 27 Torsion [C]-CA--CB-[CG] |==|  0.88893
USER: genes 28 Torsion [CA]-CB--CG-[OD1] |==|  0.90402
USER: genes 29 Torsion [C]-CA--N-[H2] |==|  0.28136
ROOT
ATOM      1  CA  LEU E   3      45.646  43.597  20.917  1.00 22.83 LIG 0.18  C 
ENDROOT
BRANCH 1 2
ATOM      2  C   LEU E   3      45.290  43.121  19.470  1.00 19.55 LIG 0.24  C 
ATOM      3 O    LEU E   3      44.160  42.758  19.183  1.00 19.60 LIG-0.27  OA
ATOM      4  N   LEU E   4      46.272  43.131  18.600  1.00 19.32 LIG-0.35  N 
ATOM      5 H    LEU E   4      47.106  43.184  18.803  1.00 19.32 LIG 0.16  HD
BRANCH 4 6
ATOM      6  CA  LEU E   4      45.974  43.045  17.125  1.00 17.74 LIG 0.18  C 
BRANCH 6 7
ATOM      7  C   LEU E   4      45.678  41.649  16.704  1.00 18.94 LIG 0.24  C 
ATOM      8  N   LEU E   5      44.363  41.315  16.674  1.00 19.76 LIG-0.35  N 
ATOM      9 H    LEU E   5      43.719  41.870  16.805  1.00 19.76 LIG 0.16  HD
ATOM     10 O    LEU E   4      46.609  40.824  16.461  1.00 20.41 LIG-0.27  OA
BRANCH 8 11
ATOM     11  CA  LEU E   5      43.941  39.944  16.411  1.00 18.99 LIG 0.18  C 
BRANCH 11 12
ATOM     12  C   LEU E   5      44.276  39.643  14.949  1.00 20.67 LIG 0.24  C 
ATOM     13  N   THR E   6      44.408  38.349  14.657  1.00 21.83 LIG-0.34  N 
ATOM     14 H    THR E   6      44.399  37.705  15.226  1.00 21.83 LIG 0.16  HD
ATOM     15 O    LEU E   5      44.342  40.567  14.168  1.00 20.01 LIG-0.27  OA
BRANCH 13 16
ATOM     16  CA  THR E   6      44.586  37.956  13.248  1.00 24.74 LIG 0.20  C 
BRANCH 16 17
ATOM     17  C   THR E   6      43.325  38.305  12.455  1.00 26.78 LIG 0.24  C 
ATOM     18  N   GLY E   7      43.564  38.781  11.223  1.00 28.46 LIG-0.35  N 
ATOM     19 H    GLY E   7      44.295  38.613  10.801  1.00 28.46 LIG 0.16  HD
ATOM     20 O    THR E   6      42.186  38.120  12.894  1.00 25.34 LIG-0.27  OA
BRANCH 18 21
ATOM     21  CA  GLY E   7      42.648  39.620  10.456  1.00 36.11 LIG 0.23  C 
BRANCH 21 22
ATOM     22  C   GLY E   7      41.590  38.792   9.838  1.00 43.05 LIG 0.19  C 
ATOM     23 OXT  GLY E   7      41.644  37.582  10.062  1.00 50.23 LIG-0.65  OA
ATOM     24 O    GLY E   7      40.696  39.295   9.119  1.00 56.48 LIG-0.65  OA
ENDBRANCH 21 22
ENDBRANCH 18 21
ENDBRANCH 16 17
BRANCH 16 25
ATOM     25  CB  THR E   6      44.923  36.453  13.143  1.00 24.32 LIG 0.15  C 
ATOM     26  CG2 THR E   6      46.473  36.206  13.398  1.00 23.74 LIG 0.04  C 
BRANCH 25 27
ATOM     27 OG1  THR E   6      44.168  35.799  14.147  1.00 30.49 LIG-0.39  OA
ATOM     28 HG1  THR E   6      44.537  35.912  14.893  1.00 30.49 LIG 0.21  HD
ENDBRANCH 25 27
ENDBRANCH 16 25
ENDBRANCH 13 16
ENDBRANCH 11 12
BRANCH 11 29
ATOM     29  CB  LEU E   5      42.435  39.766  16.540  1.00 19.92 LIG 0.04  C 
BRANCH 29 30
ATOM     30  CG  LEU E   5      42.122  38.600  17.520  1.00 17.19 LIG-0.02  C 
ATOM     31  CD1 LEU E   5      40.799  38.857  18.191  1.00 19.71 LIG 0.01  C 
ATOM     32  CD2 LEU E   5      42.136  37.284  16.786  1.00 21.46 LIG 0.01  C 
ENDBRANCH 29 30
ENDBRANCH 11 29
ENDBRANCH 8 11
ENDBRANCH 6 7
BRANCH 6 33
ATOM     33  CB  LEU E   4      47.227  43.559  16.342  1.00 18.44 LIG 0.04  C 
BRANCH 33 34
ATOM     34  CG  LEU E   4      47.318  45.100  16.422  1.00 22.78 LIG-0.02  C 
ATOM     35  CD2 LEU E   4      45.976  45.772  16.773  1.00 23.44 LIG 0.01  C 
ATOM     36  CD1 LEU E   4      47.837  45.570  15.062  1.00 27.53 LIG 0.01  C 
ENDBRANCH 33 34
ENDBRANCH 6 33
ENDBRANCH 4 6
ENDBRANCH 1 2
BRANCH 1 37
ATOM     37  CB  LEU E   3      46.034  42.367  21.744  1.00 29.41 LIG 0.04  C 
BRANCH 37 38
ATOM     38  CG  LEU E   3      47.543  42.100  21.947  1.00 30.90 LIG-0.02  C 
ATOM     39  CD1 LEU E   3      48.007  40.883  21.117  1.00 35.09 LIG 0.01  C 
ATOM     40  CD2 LEU E   3      48.344  43.333  21.568  1.00 39.15 LIG 0.01  C 
ENDBRANCH 37 38
ENDBRANCH 1 37
BRANCH 1 41
ATOM     41  N   LEU E   3      44.499  44.324  21.540  1.00 22.92 LIG-0.35  N 
ATOM     42 H    LEU E   3      44.089  43.904  22.169  1.00 22.92 LIG 0.16  HD
ATOM     43  C   ARG E   2      44.189  45.539  21.102  1.00 28.87 LIG 0.24  C 
ATOM     44 O    ARG E   2      44.828  46.079  20.151  1.00 29.44 LIG-0.27  OA
BRANCH 43 45
ATOM     45  CA  ARG E   2      43.016  46.293  21.769  1.00 32.90 LIG 0.18  C 
BRANCH 45 46
ATOM     46  CB  ARG E   2      43.257  47.793  21.734  1.00 32.53 LIG 0.04  C 
BRANCH 46 47
ATOM     47  CG  ARG E   2      42.105  48.640  22.147  1.00 34.92 LIG 0.02  C 
BRANCH 47 48
ATOM     48  CD  ARG E   2      41.086  48.620  21.064  1.00 37.57 LIG 0.14  C 
BRANCH 48 49
ATOM     49  NE  ARG E   2      41.093  49.810  20.199  1.00 41.00 LIG-0.23  N 
ATOM     50 HE   ARG E   2      41.464  49.748  19.426  1.00 41.00 LIG 0.18  HD
ATOM     51  CZ  ARG E   2      40.553  50.987  20.548  1.00 43.22 LIG 0.67  C 
ATOM     52  NH2 ARG E   2      40.535  51.996  19.687  1.00 39.75 LIG-0.23  N 
ATOM     53  NH1 ARG E   2      40.022  51.165  21.771  1.00 41.20 LIG-0.23  N 
ATOM     54 2HH2 ARG E   2      40.188  52.749  19.914  1.00 39.75 LIG 0.17  HD
ATOM     55 1HH2 ARG E   2      40.871  51.896  18.901  1.00 39.75 LIG 0.17  HD
ATOM     56 1HH1 ARG E   2      40.026  50.520  22.339  1.00 41.20 LIG 0.17  HD
ATOM     57 2HH1 ARG E   2      39.679  51.923  21.983  1.00 41.20 LIG 0.17  HD
ENDBRANCH 48 49
ENDBRANCH 47 48
ENDBRANCH 46 47
ENDBRANCH 45 46
BRANCH 45 58
ATOM     58  N   ARG E   2      43.002  45.995  23.210  1.00 36.64 LIG-0.35  N 
ATOM     59 H    ARG E   2      42.253  45.672  23.482  1.00 36.64 LIG 0.16  HD
ATOM     60  C   ASN E   1      44.023  46.197  24.013  1.00 41.83 LIG 0.25  C 
ATOM     61 O    ASN E   1      45.107  46.620  23.583  1.00 38.61 LIG-0.27  OA
BRANCH 60 62
ATOM     62  CA  ASN E   1      43.811  45.773  25.510  1.00 50.15 LIG 0.28  C 
BRANCH 62 63
ATOM     63  CB  ASN E   1      44.966  44.907  26.116  1.00 58.25 LIG 0.14  C 
BRANCH 63 64
ATOM     64  CG  ASN E   1      45.546  43.834  25.129  1.00 70.07 LIG 0.22  C 
ATOM     65 OD1  ASN E   1      44.843  43.238  24.295  1.00 69.16 LIG-0.27  OA
ATOM     66  ND2 ASN E   1      46.855  43.596  25.240  1.00 65.88 LIG-0.37  N 
ATOM     67 22HD ASN E   1      47.321  44.021  25.825  1.00 65.88 LIG 0.16  HD
ATOM     68 21HD ASN E   1      47.232  43.019  24.726  1.00 65.88 LIG 0.16  HD
ENDBRANCH 63 64
ENDBRANCH 62 63
BRANCH 62 69
ATOM     69  N   ASN E   1      42.498  45.093  25.700  1.00 55.39 LIG-0.07  N 
ATOM     70 H1   ASN E   1      41.963  45.284  25.015  1.00 55.39 LIG 0.28  HD
ATOM     71 H2   ASN E   1      42.623  44.213  25.742  1.00 55.39 LIG 0.28  HD
ATOM     72 H3   ASN E   1      42.123  45.376  26.456  1.00 55.39 LIG 0.28  HD
ENDBRANCH 62 69
ENDBRANCH 60 62
ENDBRANCH 45 58
ENDBRANCH 43 45
ENDBRANCH 1 41
TORSDOF 28
ENDMDL
MODEL 5
USER: ADFR SOLUTION from run 104
USER: SCORE 22.535661 LL:  -5.433 LR: -17.543 RR:   0.000 FEB:  -9.190
USER: RMSD 2.497861
USER: SEED 103
USER: STATUS searching
USER: GENES 30
USER: genes 0 Translation |==|  0.53987 0.46025 0.61937
USER: genes 1 Rotation |==|  0.50475 0.45785 0.54557 0.99611
USER: genes 2 Torsion [N]-CA--C-[N] |==|  0.39386
USER: genes 3 Torsion [C]-N--CA-[C] |==|  0.72831
USER: genes 4 Torsion [N]-CA--C-[N] |==|  0.37958
USER: genes 5 Torsion [C]-N--CA-[C] |==|  0.65346
USER: genes 6 Torsion [N]-CA--C-[N] |==|  0.46026
USER: genes 7 Torsion [C]-N--CA-[C] |==|  0.59075
USER: genes 8 Torsion [N]-CA--C-[N] |==|  0.46457
USER: genes 9 Torsion [C]-N--CA-[C] |==|  0.45573
USER: genes 10 Torsion [N]-CA--C-[O] |==|  0.98995
USER: genes 11 Torsion [N]-CA--CB-[CG2] |==|  0.52168
USER: genes 12 Torsion [CA]-CB--OG1-[HG1] |==|  0.83682
USER: genes 13 Torsion [N]-CA--CB-[CG] |==|  0.92316
USER: genes 14 Torsion [CA]-CB--CG-[CD1] |==|  0.44813
USER: genes 15 Torsion [N]-CA--CB-[CG] |==|  0.82951
USER: genes 16 Torsion [CA]-CB--CG-[CD2] |==|  0.88692
USER: genes 17 Torsion [C]-CA--CB-[CG] |==|  0.29873
USER: genes 18 Torsion [CA]-CB--CG-[CD2] |==|  0.81743
USER: genes 19 Torsion [C]-CA--N-[C] |==|  0.80792
USER: genes 20 Torsion [N]-C--CA-[N] |==|  0.41997
USER: genes 21 Torsion [C]-CA--CB-[CG] |==|  0.40249
USER: genes 22 Torsion [CA]-CB--CG-[CD] |==|  0.25652
USER: genes 23 Torsion [CB]-CG--CD-[NE] |==|  0.13514
USER: genes 24 Torsion [CG]-CD--NE-[HE] |==|  0.63002
USER: genes 25 Torsion [C]-CA--N-[C] |==|  0.80045
USER: genes 26 Torsion [N]-C--CA-[N] |==|  0.57380
USER: genes 27 Torsion [C]-CA--CB-[CG] |==|  0.19250
USER: genes 28 Torsion [CA]-CB--CG-[OD1] |==|  0.06978
USER: genes 29 Torsion [C]-CA--N-[H2] |==|  0.99406
ROOT
ATOM      1  CA  LEU E   3      46.400  43.226  20.281  1.00 22.83 LIG 0.18  C 
ENDROOT
BRANCH 1 2
ATOM      2  C   LEU E   3      45.641  43.054  18.924  1.00 19.55 LIG 0.24  C 
ATOM      3 O    LEU E   3      44.430  42.910  18.890  1.00 19.60 LIG-0.27  OA
ATOM      4  N   LEU E   4      46.383  43.068  17.842  1.00 19.32 LIG-0.35  N 
ATOM      5 H    LEU E   4      47.236  42.966  17.830  1.00 19.32 LIG 0.16  HD
BRANCH 4 6
ATOM      6  CA  LEU E   4      45.742  43.273  16.492  1.00 17.74 LIG 0.18  C 
BRANCH 6 7
ATOM      7  C   LEU E   4      45.514  41.981  15.789  1.00 18.94 LIG 0.24  C 
ATOM      8  N   LEU E   5      44.310  41.856  15.175  1.00 19.76 LIG-0.35  N 
ATOM      9 H    LEU E   5      43.732  42.489  15.109  1.00 19.76 LIG 0.16  HD
ATOM     10 O    LEU E   4      46.371  41.048  15.833  1.00 20.41 LIG-0.27  OA
BRANCH 8 11
ATOM     11  CA  LEU E   5      43.905  40.594  14.567  1.00 18.99 LIG 0.18  C 
BRANCH 11 12
ATOM     12  C   LEU E   5      43.551  40.891  13.108  1.00 20.67 LIG 0.24  C 
ATOM     13  N   THR E   6      43.446  39.817  12.325  1.00 21.83 LIG-0.34  N 
ATOM     14 H    THR E   6      43.635  39.011  12.556  1.00 21.83 LIG 0.16  HD
ATOM     15 O    LEU E   5      43.343  42.040  12.785  1.00 20.01 LIG-0.27  OA
BRANCH 13 16
ATOM     16  CA  THR E   6      42.968  39.993  10.943  1.00 24.74 LIG 0.20  C 
BRANCH 16 17
ATOM     17  C   THR E   6      42.176  38.757  10.513  1.00 26.78 LIG 0.24  C 
ATOM     18  N   GLY E   7      41.473  38.920   9.381  1.00 28.46 LIG-0.35  N 
ATOM     19 H    GLY E   7      41.682  39.512   8.794  1.00 28.46 LIG 0.16  HD
ATOM     20 O    THR E   6      42.218  37.688  11.129  1.00 25.34 LIG-0.27  OA
BRANCH 18 21
ATOM     21  CA  GLY E   7      40.297  38.140   9.006  1.00 36.11 LIG 0.23  C 
BRANCH 21 22
ATOM     22  C   GLY E   7      39.559  38.816   7.917  1.00 43.05 LIG 0.19  C 
ATOM     23 OXT  GLY E   7      38.586  38.213   7.461  1.00 50.23 LIG-0.65  OA
ATOM     24 O    GLY E   7      39.911  39.936   7.479  1.00 56.48 LIG-0.65  OA
ENDBRANCH 21 22
ENDBRANCH 18 21
ENDBRANCH 16 17
BRANCH 16 25
ATOM     25  CB  THR E   6      44.152  40.266   9.991  1.00 24.32 LIG 0.15  C 
ATOM     26  CG2 THR E   6      43.628  40.654   8.540  1.00 23.74 LIG 0.04  C 
BRANCH 25 27
ATOM     27 OG1  THR E   6      44.870  41.355  10.541  1.00 30.49 LIG-0.39  OA
ATOM     28 HG1  THR E   6      44.363  42.020  10.609  1.00 30.49 LIG 0.21  HD
ENDBRANCH 25 27
ENDBRANCH 16 25
ENDBRANCH 13 16
ENDBRANCH 11 12
BRANCH 11 29
ATOM     29  CB  LEU E   5      42.640  40.028  15.196  1.00 19.92 LIG 0.04  C 
BRANCH 29 30
ATOM     30  CG  LEU E   5      42.523  40.507  16.672  1.00 17.19 LIG-0.02  C 
ATOM     31  CD1 LEU E   5      41.100  40.344  17.136  1.00 19.71 LIG 0.01  C 
ATOM     32  CD2 LEU E   5      43.491  39.748  17.544  1.00 21.46 LIG 0.01  C 
ENDBRANCH 29 30
ENDBRANCH 11 29
ENDBRANCH 8 11
ENDBRANCH 6 7
BRANCH 6 33
ATOM     33  CB  LEU E   4      46.696  44.162  15.629  1.00 18.44 LIG 0.04  C 
BRANCH 33 34
ATOM     34  CG  LEU E   4      46.893  45.544  16.293  1.00 22.78 LIG-0.02  C 
ATOM     35  CD2 LEU E   4      45.597  46.122  16.893  1.00 23.44 LIG 0.01  C 
ATOM     36  CD1 LEU E   4      47.464  46.462  15.211  1.00 27.53 LIG 0.01  C 
ENDBRANCH 33 34
ENDBRANCH 6 33
ENDBRANCH 4 6
ENDBRANCH 1 2
BRANCH 1 37
ATOM     37  CB  LEU E   3      46.662  41.833  20.863  1.00 29.41 LIG 0.04  C 
BRANCH 37 38
ATOM     38  CG  LEU E   3      48.117  41.312  20.824  1.00 30.90 LIG-0.02  C 
ATOM     39  CD1 LEU E   3      48.256  39.996  21.620  1.00 35.09 LIG 0.01  C 
ATOM     40  CD2 LEU E   3      48.555  41.106  19.384  1.00 39.15 LIG 0.01  C 
ENDBRANCH 37 38
ENDBRANCH 1 37
BRANCH 1 41
ATOM     41  N   LEU E   3      45.615  44.068  21.233  1.00 22.92 LIG-0.35  N 
ATOM     42 H    LEU E   3      45.293  43.657  21.916  1.00 22.92 LIG 0.16  HD
ATOM     43  C   ARG E   2      45.465  45.362  20.977  1.00 28.87 LIG 0.24  C 
ATOM     44 O    ARG E   2      45.949  45.888  19.932  1.00 29.44 LIG-0.27  OA
BRANCH 43 45
ATOM     45  CA  ARG E   2      44.670  46.231  21.980  1.00 32.90 LIG 0.18  C 
BRANCH 45 46
ATOM     46  CB  ARG E   2      43.224  46.374  21.533  1.00 32.53 LIG 0.04  C 
BRANCH 46 47
ATOM     47  CG  ARG E   2      42.214  46.422  22.625  1.00 34.92 LIG 0.02  C 
BRANCH 47 48
ATOM     48  CD  ARG E   2      41.971  47.843  22.989  1.00 37.57 LIG 0.14  C 
BRANCH 48 49
ATOM     49  NE  ARG E   2      41.721  48.731  21.842  1.00 41.00 LIG-0.23  N 
ATOM     50 HE   ARG E   2      42.140  49.481  21.810  1.00 41.00 LIG 0.18  HD
ATOM     51  CZ  ARG E   2      40.876  48.437  20.844  1.00 43.22 LIG 0.67  C 
ATOM     52  NH2 ARG E   2      40.755  49.255  19.808  1.00 39.75 LIG-0.23  N 
ATOM     53  NH1 ARG E   2      40.139  47.312  20.875  1.00 41.20 LIG-0.23  N 
ATOM     54 2HH2 ARG E   2      40.212  49.064  19.169  1.00 39.75 LIG 0.17  HD
ATOM     55 1HH2 ARG E   2      41.220  49.978  19.774  1.00 39.75 LIG 0.17  HD
ATOM     56 1HH1 ARG E   2      40.207  46.771  21.540  1.00 41.20 LIG 0.17  HD
ATOM     57 2HH1 ARG E   2      39.601  47.133  20.229  1.00 41.20 LIG 0.17  HD
ENDBRANCH 48 49
ENDBRANCH 47 48
ENDBRANCH 46 47
ENDBRANCH 45 46
BRANCH 45 58
ATOM     58  N   ARG E   2      45.169  47.613  21.930  1.00 36.64 LIG-0.35  N 
ATOM     59 H    ARG E   2      44.620  48.159  21.555  1.00 36.64 LIG 0.16  HD
ATOM     60  C   ASN E   1      46.334  47.992  22.407  1.00 41.83 LIG 0.25  C 
ATOM     61 O    ASN E   1      47.085  47.193  22.986  1.00 38.61 LIG-0.27  OA
BRANCH 60 62
ATOM     62  CA  ASN E   1      46.658  49.525  22.287  1.00 50.15 LIG 0.28  C 
BRANCH 62 63
ATOM     63  CB  ASN E   1      45.944  50.254  21.100  1.00 58.25 LIG 0.14  C 
BRANCH 63 64
ATOM     64  CG  ASN E   1      44.392  50.398  21.278  1.00 70.07 LIG 0.22  C 
ATOM     65 OD1  ASN E   1      43.840  50.406  22.392  1.00 69.16 LIG-0.27  OA
ATOM     66  ND2 ASN E   1      43.690  50.516  20.148  1.00 65.88 LIG-0.37  N 
ATOM     67 22HD ASN E   1      44.094  50.508  19.389  1.00 65.88 LIG 0.16  HD
ATOM     68 21HD ASN E   1      42.835  50.598  20.180  1.00 65.88 LIG 0.16  HD
ENDBRANCH 63 64
ENDBRANCH 62 63
BRANCH 62 69
ATOM     69  N   ASN E   1      48.128  49.766  22.237  1.00 55.39 LIG-0.07  N 
ATOM     70 H1   ASN E   1      48.364  50.305  22.904  1.00 55.39 LIG 0.28  HD
ATOM     71 H2   ASN E   1      48.559  48.991  22.315  1.00 55.39 LIG 0.28  HD
ATOM     72 H3   ASN E   1      48.340  50.146  21.461  1.00 55.39 LIG 0.28  HD
ENDBRANCH 62 69
ENDBRANCH 60 62
ENDBRANCH 45 58
ENDBRANCH 43 45
ENDBRANCH 1 41
TORSDOF 28
ENDMDL
MODEL 6
USER: ADFR SOLUTION from run 167
USER: SCORE 22.614153 LL:  -5.731 LR: -17.430 RR:   0.000 FEB:  -9.078
USER: RMSD 3.254630
USER: SEED 166
USER: STATUS no improvement in best in 7 clusters for 5 generations
USER: GENES 30
USER: genes 0 Translation |==|  0.53388 0.47160 0.61472
USER: genes 1 Rotation |==|  0.46835 0.43350 0.52055 0.99412
USER: genes 2 Torsion [N]-CA--C-[N] |==|  0.35133
USER: genes 3 Torsion [C]-N--CA-[C] |==|  0.76435
USER: genes 4 Torsion [N]-CA--C-[N] |==|  0.37292
USER: genes 5 Torsion [C]-N--CA-[C] |==|  0.67539
USER: genes 6 Torsion [N]-CA--C-[N] |==|  0.39769
USER: genes 7 Torsion [C]-N--CA-[C] |==|  0.70939
USER: genes 8 Torsion [N]-CA--C-[N] |==|  0.44608
USER: genes 9 Torsion [C]-N--CA-[C] |==|  0.44203
USER: genes 10 Torsion [N]-CA--C-[O] |==|  0.49409
USER: genes 11 Torsion [N]-CA--CB-[CG2] |==|  0.68389
USER: genes 12 Torsion [CA]-CB--OG1-[HG1] |==|  0.70010
USER: genes 13 Torsion [N]-CA--CB-[CG] |==|  0.87102
USER: genes 14 Torsion [CA]-CB--CG-[CD1] |==|  0.48318
USER: genes 15 Torsion [N]-CA--CB-[CG] |==|  0.86481
USER: genes 16 Torsion [CA]-CB--CG-[CD2] |==|  0.65932
USER: genes 17 Torsion [C]-CA--CB-[CG] |==|  0.17973
USER: genes 18 Torsion [CA]-CB--CG-[CD2] |==|  0.41768
USER: genes 19 Torsion [C]-CA--N-[C] |==|  0.85814
USER: genes 20 Torsion [N]-C--CA-[N] |==|  0.05529
USER: genes 21 Torsion [C]-CA--CB-[CG] |==|  0.56504
USER: genes 22 Torsion [CA]-CB--CG-[CD] |==|  0.69275
USER: genes 23 Torsion [CB]-CG--CD-[NE] |==|  0.10639
USER: genes 24 Torsion [CG]-CD--NE-[HE] |==|  0.69921
USER: genes 25 Torsion [C]-CA--N-[C] |==|  0.67778
USER: genes 26 Torsion [N]-C--CA-[N] |==|  0.57356
USER: genes 27 Torsion [C]-CA--CB-[CG] |==|  0.83407
USER: genes 28 Torsion [CA]-CB--CG-[OD1] |==|  0.95955
USER: genes 29 Torsion [C]-CA--N-[H2] |==|  0.91670
ROOT
ATOM      1  CA  LEU E   3      46.279  43.481  20.159  1.00 22.83 LIG 0.18  C 
ENDROOT
BRANCH 1 2
ATOM      2  C   LEU E   3      45.647  43.211  18.754  1.00 19.55 LIG 0.24  C 
ATOM      3 O    LEU E   3      44.468  42.918  18.635  1.00 19.60 LIG-0.27  OA
ATOM      4  N   LEU E   4      46.458  43.313  17.727  1.00 19.32 LIG-0.35  N 
ATOM      5 H    LEU E   4      47.316  43.318  17.777  1.00 19.32 LIG 0.16  HD
BRANCH 4 6
ATOM      6  CA  LEU E   4      45.896  43.431  16.333  1.00 17.74 LIG 0.18  C 
BRANCH 6 7
ATOM      7  C   LEU E   4      45.592  42.098  15.746  1.00 18.94 LIG 0.24  C 
ATOM      8  N   LEU E   5      44.387  41.993  15.130  1.00 19.76 LIG-0.35  N 
ATOM      9 H    LEU E   5      43.851  42.653  14.999  1.00 19.76 LIG 0.16  HD
ATOM     10 O    LEU E   4      46.387  41.121  15.887  1.00 20.41 LIG-0.27  OA
BRANCH 8 11
ATOM     11  CA  LEU E   5      43.906  40.709  14.633  1.00 18.99 LIG 0.18  C 
BRANCH 11 12
ATOM     12  C   LEU E   5      43.773  40.836  13.114  1.00 20.67 LIG 0.24  C 
ATOM     13  N   THR E   6      44.101  39.740  12.428  1.00 21.83 LIG-0.34  N 
ATOM     14 H    THR E   6      44.444  39.026  12.761  1.00 21.83 LIG 0.16  HD
ATOM     15 O    LEU E   5      43.342  41.870  12.655  1.00 20.01 LIG-0.27  OA
BRANCH 13 16
ATOM     16  CA  THR E   6      43.867  39.720  10.973  1.00 24.74 LIG 0.20  C 
BRANCH 16 17
ATOM     17  C   THR E   6      42.640  38.860  10.663  1.00 26.78 LIG 0.24  C 
ATOM     18  N   GLY E   7      42.096  39.092   9.459  1.00 28.46 LIG-0.35  N 
ATOM     19 H    GLY E   7      42.547  39.433   8.811  1.00 28.46 LIG 0.16  HD
ATOM     20 O    THR E   6      42.218  37.994  11.435  1.00 25.34 LIG-0.27  OA
BRANCH 18 21
ATOM     21  CA  GLY E   7      40.710  38.807   9.097  1.00 36.11 LIG 0.23  C 
BRANCH 21 22
ATOM     22  C   GLY E   7      40.311  39.612   7.922  1.00 43.05 LIG 0.19  C 
ATOM     23 OXT  GLY E   7      41.155  40.396   7.486  1.00 50.23 LIG-0.65  OA
ATOM     24 O    GLY E   7      39.174  39.506   7.406  1.00 56.48 LIG-0.65  OA
ENDBRANCH 21 22
ENDBRANCH 18 21
ENDBRANCH 16 17
BRANCH 16 25
ATOM     25  CB  THR E   6      45.119  39.209  10.231  1.00 24.32 LIG 0.15  C 
ATOM     26  CG2 THR E   6      45.756  40.365   9.343  1.00 23.74 LIG 0.04  C 
BRANCH 25 27
ATOM     27 OG1  THR E   6      46.045  38.812  11.225  1.00 30.49 LIG-0.39  OA
ATOM     28 HG1  THR E   6      46.677  39.364  11.257  1.00 30.49 LIG 0.21  HD
ENDBRANCH 25 27
ENDBRANCH 16 25
ENDBRANCH 13 16
ENDBRANCH 11 12
BRANCH 11 29
ATOM     29  CB  LEU E   5      42.514  40.374  15.147  1.00 19.92 LIG 0.04  C 
BRANCH 29 30
ATOM     30  CG  LEU E   5      42.436  40.641  16.678  1.00 17.19 LIG-0.02  C 
ATOM     31  CD1 LEU E   5      41.017  40.449  17.145  1.00 19.71 LIG 0.01  C 
ATOM     32  CD2 LEU E   5      43.398  39.744  17.413  1.00 21.46 LIG 0.01  C 
ENDBRANCH 29 30
ENDBRANCH 11 29
ENDBRANCH 8 11
ENDBRANCH 6 7
BRANCH 6 33
ATOM     33  CB  LEU E   4      46.958  44.152  15.438  1.00 18.44 LIG 0.04  C 
BRANCH 33 34
ATOM     34  CG  LEU E   4      47.477  45.429  16.138  1.00 22.78 LIG-0.02  C 
ATOM     35  CD2 LEU E   4      47.272  46.707  15.302  1.00 23.44 LIG 0.01  C 
ATOM     36  CD1 LEU E   4      48.958  45.185  16.430  1.00 27.53 LIG 0.01  C 
ENDBRANCH 33 34
ENDBRANCH 6 33
ENDBRANCH 4 6
ENDBRANCH 1 2
BRANCH 1 37
ATOM     37  CB  LEU E   3      46.313  42.158  20.931  1.00 29.41 LIG 0.04  C 
BRANCH 37 38
ATOM     38  CG  LEU E   3      47.213  41.034  20.367  1.00 30.90 LIG-0.02  C 
ATOM     39  CD1 LEU E   3      48.402  41.621  19.576  1.00 35.09 LIG 0.01  C 
ATOM     40  CD2 LEU E   3      47.715  40.155  21.499  1.00 39.15 LIG 0.01  C 
ENDBRANCH 37 38
ENDBRANCH 1 37
BRANCH 1 41
ATOM     41  N   LEU E   3      45.506  44.519  20.905  1.00 22.92 LIG-0.35  N 
ATOM     42 H    LEU E   3      45.274  44.307  21.705  1.00 22.92 LIG 0.16  HD
ATOM     43  C   ARG E   2      45.232  45.673  20.308  1.00 28.87 LIG 0.24  C 
ATOM     44 O    ARG E   2      45.588  45.899  19.114  1.00 29.44 LIG-0.27  OA
BRANCH 43 45
ATOM     45  CA  ARG E   2      44.451  46.751  21.097  1.00 32.90 LIG 0.18  C 
BRANCH 45 46
ATOM     46  CB  ARG E   2      45.126  48.106  20.959  1.00 32.53 LIG 0.04  C 
BRANCH 46 47
ATOM     47  CG  ARG E   2      44.838  49.082  22.044  1.00 34.92 LIG 0.02  C 
BRANCH 47 48
ATOM     48  CD  ARG E   2      43.997  50.177  21.491  1.00 37.57 LIG 0.14  C 
BRANCH 48 49
ATOM     49  NE  ARG E   2      42.981  49.735  20.523  1.00 41.00 LIG-0.23  N 
ATOM     50 HE   ARG E   2      43.099  49.929  19.693  1.00 41.00 LIG 0.18  HD
ATOM     51  CZ  ARG E   2      41.882  49.046  20.860  1.00 43.22 LIG 0.67  C 
ATOM     52  NH2 ARG E   2      41.047  48.619  19.922  1.00 39.75 LIG-0.23  N 
ATOM     53  NH1 ARG E   2      41.608  48.774  22.149  1.00 41.20 LIG-0.23  N 
ATOM     54 2HH2 ARG E   2      40.343  48.177  20.142  1.00 39.75 LIG 0.17  HD
ATOM     55 1HH2 ARG E   2      41.209  48.785  19.094  1.00 39.75 LIG 0.17  HD
ATOM     56 1HH1 ARG E   2      42.141  49.044  22.768  1.00 41.20 LIG 0.17  HD
ATOM     57 2HH1 ARG E   2      40.901  48.331  22.353  1.00 41.20 LIG 0.17  HD
ENDBRANCH 48 49
ENDBRANCH 47 48
ENDBRANCH 46 47
ENDBRANCH 45 46
BRANCH 45 58
ATOM     58  N   ARG E   2      44.560  46.474  22.537  1.00 36.64 LIG-0.35  N 
ATOM     59 H    ARG E   2      45.365  46.532  22.834  1.00 36.64 LIG 0.16  HD
ATOM     60  C   ASN E   1      43.538  46.168  23.306  1.00 41.83 LIG 0.25  C 
ATOM     61 O    ASN E   1      42.382  46.139  22.860  1.00 38.61 LIG-0.27  OA
BRANCH 60 62
ATOM     62  CA  ASN E   1      43.867  45.950  24.827  1.00 50.15 LIG 0.28  C 
BRANCH 62 63
ATOM     63  CB  ASN E   1      45.328  45.467  25.119  1.00 58.25 LIG 0.14  C 
BRANCH 63 64
ATOM     64  CG  ASN E   1      45.697  44.100  24.441  1.00 70.07 LIG 0.22  C 
ATOM     65 OD1  ASN E   1      44.843  43.335  23.962  1.00 69.16 LIG-0.27  OA
ATOM     66  ND2 ASN E   1      46.999  43.806  24.408  1.00 65.88 LIG-0.37  N 
ATOM     67 22HD ASN E   1      47.572  44.352  24.746  1.00 65.88 LIG 0.16  HD
ATOM     68 21HD ASN E   1      47.264  43.071  24.050  1.00 65.88 LIG 0.16  HD
ENDBRANCH 63 64
ENDBRANCH 62 63
BRANCH 62 69
ATOM     69  N   ASN E   1      42.880  45.035  25.468  1.00 55.39 LIG-0.07  N 
ATOM     70 H1   ASN E   1      42.794  45.247  26.328  1.00 55.39 LIG 0.28  HD
ATOM     71 H2   ASN E   1      42.092  45.116  25.062  1.00 55.39 LIG 0.28  HD
ATOM     72 H3   ASN E   1      43.165  44.195  25.398  1.00 55.39 LIG 0.28  HD
ENDBRANCH 62 69
ENDBRANCH 60 62
ENDBRANCH 45 58
ENDBRANCH 43 45
ENDBRANCH 1 41
TORSDOF 28
ENDMDL
