MODEL 1
USER: ADFR SOLUTION from run 150
USER: SCORE 19.860568 LL:  -3.684 LR: -17.816 RR:   0.000 FEB: -11.253
USER: RMSD 4.644080
USER: SEED 149
USER: STATUS no improvement in best in 8 clusters for 5 generations
USER: GENES 24
USER: genes 0 Translation |==|  0.55518 0.49192 0.40241
USER: genes 1 Rotation |==|  0.51824 0.47185 0.31625 0.96380
USER: genes 2 Torsion [N]-C--CA-[N] |==|  0.98010
USER: genes 3 Torsion [C]-CA--CB-[CG] |==|  0.32390
USER: genes 4 Torsion [CA]-CB--CG-[CD] |==|  0.34859
USER: genes 5 Torsion [CB]-CG--CD-[NE] |==|  0.09393
USER: genes 6 Torsion [CG]-CD--NE-[HE] |==|  0.69302
USER: genes 7 Torsion [C]-CA--N-[C] |==|  0.76112
USER: genes 8 Torsion [N]-C--CA-[N] |==|  0.77530
USER: genes 9 Torsion [C]-CA--CB-[CG] |==|  0.32257
USER: genes 10 Torsion [CA]-CB--CG-[OD1] |==|  0.89425
USER: genes 11 Torsion [C]-CA--N-[H1] |==|  0.28864
USER: genes 12 Torsion [C]-N--CA-[CB] |==|  0.44974
USER: genes 13 Torsion [N]-CA--C-[N] |==|  0.33343
USER: genes 14 Torsion [C]-N--CA-[C] |==|  0.71428
USER: genes 15 Torsion [N]-CA--CB-[CG1] |==|  0.23005
USER: genes 16 Torsion [CA]-CB--CG1-[CD1] |==|  0.41380
USER: genes 17 Torsion [N]-CA--C-[N] |==|  0.43068
USER: genes 18 Torsion [C]-N--CA-[C] |==|  0.83958
USER: genes 19 Torsion [N]-CA--C-[O] |==|  0.95784
USER: genes 20 Torsion [N]-CA--CB-[CG] |==|  0.89730
USER: genes 21 Torsion [CA]-CB--CG-[CD1] |==|  0.32375
USER: genes 22 Torsion [N]-CA--CB-[CG] |==|  0.56272
USER: genes 23 Torsion [CA]-CB--CG-[CD1] |==|  0.09279
ROOT
ATOM      1  C   ARG B   2      58.166  86.826  27.632  1.00 25.54 LIG 0.24  C 
ATOM      2 O    ARG B   2      57.603  85.763  28.043  1.00 21.45 LIG-0.27  OA
ATOM      3  N   LEU B   3      58.589  87.762  28.466  1.00 32.00 LIG-0.35  N 
ATOM      4 H    LEU B   3      59.064  88.440  28.231  1.00 32.00 LIG 0.16  HD
ENDROOT
BRANCH 1 5
ATOM      5  CA  ARG B   2      58.364  87.113  26.150  1.00 29.44 LIG 0.18  C 
BRANCH 5 6
ATOM      6  CB  ARG B   2      59.377  86.094  25.540  1.00 37.02 LIG 0.04  C 
BRANCH 6 7
ATOM      7  CG  ARG B   2      58.772  85.194  24.464  1.00 39.92 LIG 0.02  C 
BRANCH 7 8
ATOM      8  CD  ARG B   2      59.589  85.280  23.169  1.00 40.77 LIG 0.14  C 
BRANCH 8 9
ATOM      9  NE  ARG B   2      60.986  85.470  23.587  1.00 48.07 LIG-0.23  N 
ATOM     10 HE   ARG B   2      61.325  86.243  23.422  1.00 48.07 LIG 0.18  HD
ATOM     11  CZ  ARG B   2      61.798  84.592  24.193  1.00 44.36 LIG 0.67  C 
ATOM     12  NH1 ARG B   2      63.038  85.017  24.497  1.00 36.12 LIG-0.23  N 
ATOM     13  NH2 ARG B   2      61.404  83.334  24.500  1.00 39.61 LIG-0.23  N 
ATOM     14 1HH1 ARG B   2      63.278  85.819  24.303  1.00 36.12 LIG 0.17  HD
ATOM     15 2HH1 ARG B   2      63.591  84.486  24.887  1.00 36.12 LIG 0.17  HD
ATOM     16 1HH2 ARG B   2      60.607  83.074  24.307  1.00 39.61 LIG 0.17  HD
ATOM     17 2HH2 ARG B   2      61.950  82.795  24.889  1.00 39.61 LIG 0.17  HD
ENDBRANCH 8 9
ENDBRANCH 7 8
ENDBRANCH 6 7
ENDBRANCH 5 6
BRANCH 5 18
ATOM     18  N   ARG B   2      58.851  88.488  25.936  1.00 32.37 LIG-0.35  N 
ATOM     19 H    ARG B   2      59.704  88.585  25.876  1.00 32.37 LIG 0.16  HD
ATOM     20  C   ASN B   1      57.955  89.452  25.854  1.00 31.22 LIG 0.25  C 
ATOM     21 O    ASN B   1      56.776  89.218  26.013  1.00 24.61 LIG-0.27  OA
BRANCH 20 22
ATOM     22  CA  ASN B   1      58.392  90.885  25.605  1.00 32.89 LIG 0.28  C 
BRANCH 22 23
ATOM     23  CB  ASN B   1      59.470  90.826  24.522  1.00 38.07 LIG 0.14  C 
BRANCH 23 24
ATOM     24  CG  ASN B   1      59.063  91.515  23.281  1.00 44.05 LIG 0.22  C 
ATOM     25  ND2 ASN B   1      60.007  92.163  22.650  1.00 47.62 LIG-0.37  N 
ATOM     26 21HD ASN B   1      59.831  92.571  21.914  1.00 47.62 LIG 0.16  HD
ATOM     27 22HD ASN B   1      60.804  92.183  22.971  1.00 47.62 LIG 0.16  HD
ATOM     28 OD1  ASN B   1      57.897  91.453  22.867  1.00 47.48 LIG-0.27  OA
ENDBRANCH 23 24
ENDBRANCH 22 23
BRANCH 22 29
ATOM     29  N   ASN B   1      58.882  91.670  26.776  1.00 44.58 LIG-0.07  N 
ATOM     30 H1   ASN B   1      59.770  91.729  26.744  1.00 44.58 LIG 0.28  HD
ATOM     31 H3   ASN B   1      58.639  91.263  27.529  1.00 44.58 LIG 0.28  HD
ATOM     32 H2   ASN B   1      58.530  92.487  26.754  1.00 44.58 LIG 0.28  HD
ENDBRANCH 22 29
ENDBRANCH 20 22
ENDBRANCH 5 18
ENDBRANCH 1 5
BRANCH 3 33
ATOM     33  CA  LEU B   3      58.271  87.707  29.885  1.00 27.74 LIG 0.18  C 
BRANCH 33 34
ATOM     34  C   LEU B   3      56.896  88.186  30.139  1.00 25.40 LIG 0.24  C 
ATOM     35 O    LEU B   3      56.559  89.322  29.833  1.00 26.81 LIG-0.27  OA
ATOM     36  N   ILE B   4      56.068  87.337  30.698  1.00 26.13 LIG-0.35  N 
ATOM     37 H    ILE B   4      56.242  86.508  30.844  1.00 26.13 LIG 0.16  HD
BRANCH 36 38
ATOM     38  CA  ILE B   4      54.807  87.756  31.103  1.00 24.17 LIG 0.18  C 
BRANCH 38 39
ATOM     39  CB  ILE B   4      53.801  86.724  30.553  1.00 29.09 LIG 0.01  C 
ATOM     40  CG2 ILE B   4      54.302  86.255  29.229  1.00 25.20 LIG 0.01  C 
BRANCH 39 41
ATOM     41  CG1 ILE B   4      53.675  85.493  31.439  1.00 28.67 LIG 0.00  C 
ATOM     42  CD1 ILE B   4      52.293  84.889  31.384  1.00 34.41 LIG 0.01  C 
ENDBRANCH 39 41
ENDBRANCH 38 39
BRANCH 38 43
ATOM     43  C   ILE B   4      54.724  87.965  32.619  1.00 29.58 LIG 0.24  C 
ATOM     44  N   LEU B   5      53.793  88.819  33.024  1.00 36.70 LIG-0.35  N 
ATOM     45 H    LEU B   5      53.334  89.316  32.494  1.00 36.70 LIG 0.16  HD
ATOM     46 O    ILE B   4      55.507  87.369  33.422  1.00 23.70 LIG-0.27  OA
BRANCH 44 47
ATOM     47  CA  LEU B   5      53.469  88.983  34.420  1.00 37.00 LIG 0.16  C 
BRANCH 47 48
ATOM     48  C   LEU B   5      53.031  87.646  35.049  1.00 42.59 LIG 0.22  C 
ATOM     49 O    LEU B   5      52.713  86.660  34.332  1.00 38.80 LIG-0.29  OA
ENDBRANCH 47 48
BRANCH 47 50
ATOM     50  CB  LEU B   5      52.342  90.001  34.525  1.00 50.59 LIG 0.04  C 
BRANCH 50 51
ATOM     51  CG  LEU B   5      52.403  91.154  33.540  1.00 50.85 LIG-0.02  C 
ATOM     52  CD1 LEU B   5      51.188  91.074  32.642  1.00 54.07 LIG 0.01  C 
ATOM     53  CD2 LEU B   5      52.408  92.440  34.358  1.00 54.33 LIG 0.01  C 
ENDBRANCH 50 51
ENDBRANCH 47 50
ENDBRANCH 44 47
ENDBRANCH 38 43
ENDBRANCH 36 38
ENDBRANCH 33 34
BRANCH 33 54
ATOM     54  CB  LEU B   3      59.230  88.613  30.619  1.00 34.11 LIG 0.04  C 
BRANCH 54 55
ATOM     55  CG  LEU B   3      59.289  88.158  32.037  1.00 35.49 LIG-0.02  C 
ATOM     56  CD1 LEU B   3      59.121  86.651  32.060  1.00 39.12 LIG 0.01  C 
ATOM     57  CD2 LEU B   3      60.683  88.549  32.462  1.00 34.32 LIG 0.01  C 
ENDBRANCH 54 55
ENDBRANCH 33 54
ENDBRANCH 3 33
TORSDOF 22
ENDMDL
MODEL 2
USER: ADFR SOLUTION from run 66
USER: SCORE 19.111828 LL:  -3.736 LR: -17.706 RR:   0.000 FEB: -11.143
USER: RMSD 3.523410
USER: SEED 65
USER: STATUS no improvement in best in 10 clusters for 5 generations
USER: GENES 24
USER: genes 0 Translation |==|  0.49533 0.46182 0.38916
USER: genes 1 Rotation |==|  0.58007 0.47442 0.45227 0.99057
USER: genes 2 Torsion [N]-C--CA-[N] |==|  0.42979
USER: genes 3 Torsion [C]-CA--CB-[CG] |==|  0.22103
USER: genes 4 Torsion [CA]-CB--CG-[CD] |==|  0.18567
USER: genes 5 Torsion [CB]-CG--CD-[NE] |==|  0.73009
USER: genes 6 Torsion [CG]-CD--NE-[HE] |==|  0.80367
USER: genes 7 Torsion [C]-CA--N-[C] |==|  0.76635
USER: genes 8 Torsion [N]-C--CA-[N] |==|  0.32447
USER: genes 9 Torsion [C]-CA--CB-[CG] |==|  0.57749
USER: genes 10 Torsion [CA]-CB--CG-[OD1] |==|  0.73920
USER: genes 11 Torsion [C]-CA--N-[H1] |==|  0.37038
USER: genes 12 Torsion [C]-N--CA-[CB] |==|  0.41035
USER: genes 13 Torsion [N]-CA--C-[N] |==|  0.55337
USER: genes 14 Torsion [C]-N--CA-[C] |==|  0.79320
USER: genes 15 Torsion [N]-CA--CB-[CG1] |==|  0.14048
USER: genes 16 Torsion [CA]-CB--CG1-[CD1] |==|  0.22168
USER: genes 17 Torsion [N]-CA--C-[N] |==|  0.53889
USER: genes 18 Torsion [C]-N--CA-[C] |==|  0.19470
USER: genes 19 Torsion [N]-CA--C-[O] |==|  0.56119
USER: genes 20 Torsion [N]-CA--CB-[CG] |==|  0.64869
USER: genes 21 Torsion [CA]-CB--CG-[CD1] |==|  0.40956
USER: genes 22 Torsion [N]-CA--CB-[CG] |==|  0.80107
USER: genes 23 Torsion [CA]-CB--CG-[CD1] |==|  0.32945
ROOT
ATOM      1  C   ARG B   2      56.909  86.261  27.343  1.00 25.54 LIG 0.24  C 
ATOM      2 O    ARG B   2      56.998  85.002  27.490  1.00 21.45 LIG-0.27  OA
ATOM      3  N   LEU B   3      56.728  87.074  28.372  1.00 32.00 LIG-0.35  N 
ATOM      4 H    LEU B   3      56.767  87.932  28.323  1.00 32.00 LIG 0.16  HD
ENDROOT
BRANCH 1 5
ATOM      5  CA  ARG B   2      56.972  86.922  25.973  1.00 29.44 LIG 0.18  C 
BRANCH 5 6
ATOM      6  CB  ARG B   2      55.528  87.152  25.426  1.00 37.02 LIG 0.04  C 
BRANCH 6 7
ATOM      7  CG  ARG B   2      54.834  88.379  26.018  1.00 39.92 LIG 0.02  C 
BRANCH 7 8
ATOM      8  CD  ARG B   2      55.536  89.664  25.564  1.00 40.77 LIG 0.14  C 
BRANCH 8 9
ATOM      9  NE  ARG B   2      56.447  90.033  26.659  1.00 48.07 LIG-0.23  N 
ATOM     10 HE   ARG B   2      56.072  90.320  27.378  1.00 48.07 LIG 0.18  HD
ATOM     11  CZ  ARG B   2      57.786  89.978  26.678  1.00 44.36 LIG 0.67  C 
ATOM     12  NH1 ARG B   2      58.396  90.352  27.818  1.00 36.12 LIG-0.23  N 
ATOM     13  NH2 ARG B   2      58.509  89.561  25.613  1.00 39.61 LIG-0.23  N 
ATOM     14 1HH1 ARG B   2      57.927  90.611  28.492  1.00 36.12 LIG 0.17  HD
ATOM     15 2HH1 ARG B   2      59.253  90.332  27.874  1.00 36.12 LIG 0.17  HD
ATOM     16 1HH2 ARG B   2      58.111  89.319  24.891  1.00 39.61 LIG 0.17  HD
ATOM     17 2HH2 ARG B   2      59.368  89.538  25.659  1.00 39.61 LIG 0.17  HD
ENDBRANCH 8 9
ENDBRANCH 7 8
ENDBRANCH 6 7
ENDBRANCH 5 6
BRANCH 5 18
ATOM     18  N   ARG B   2      57.740  86.099  25.021  1.00 32.37 LIG-0.35  N 
ATOM     19 H    ARG B   2      57.282  85.578  24.513  1.00 32.37 LIG 0.16  HD
ATOM     20  C   ASN B   1      59.053  86.226  25.020  1.00 31.22 LIG 0.25  C 
ATOM     21 O    ASN B   1      59.607  86.948  25.820  1.00 24.61 LIG-0.27  OA
BRANCH 20 22
ATOM     22  CA  ASN B   1      59.898  85.427  24.042  1.00 32.89 LIG 0.28  C 
BRANCH 22 23
ATOM     23  CB  ASN B   1      60.823  84.551  24.888  1.00 38.07 LIG 0.14  C 
BRANCH 23 24
ATOM     24  CG  ASN B   1      62.089  84.233  24.195  1.00 44.05 LIG 0.22  C 
ATOM     25  ND2 ASN B   1      63.054  85.102  24.341  1.00 47.62 LIG-0.37  N 
ATOM     26 21HD ASN B   1      63.818  84.961  23.972  1.00 47.62 LIG 0.16  HD
ATOM     27 22HD ASN B   1      62.926  85.814  24.804  1.00 47.62 LIG 0.16  HD
ATOM     28 OD1  ASN B   1      62.215  83.190  23.539  1.00 47.48 LIG-0.27  OA
ENDBRANCH 23 24
ENDBRANCH 22 23
BRANCH 22 29
ATOM     29  N   ASN B   1      60.691  86.188  23.033  1.00 44.58 LIG-0.07  N 
ATOM     30 H1   ASN B   1      61.521  85.869  23.005  1.00 44.58 LIG 0.28  HD
ATOM     31 H3   ASN B   1      60.712  87.049  23.260  1.00 44.58 LIG 0.28  HD
ATOM     32 H2   ASN B   1      60.313  86.101  22.232  1.00 44.58 LIG 0.28  HD
ENDBRANCH 22 29
ENDBRANCH 20 22
ENDBRANCH 5 18
ENDBRANCH 1 5
BRANCH 3 33
ATOM     33  CA  LEU B   3      56.440  86.556  29.701  1.00 27.74 LIG 0.18  C 
BRANCH 33 34
ATOM     34  C   LEU B   3      54.983  86.494  29.943  1.00 25.40 LIG 0.24  C 
ATOM     35 O    LEU B   3      54.190  86.507  29.010  1.00 26.81 LIG-0.27  OA
ATOM     36  N   ILE B   4      54.593  86.424  31.192  1.00 26.13 LIG-0.35  N 
ATOM     37 H    ILE B   4      55.120  86.323  31.864  1.00 26.13 LIG 0.16  HD
BRANCH 36 38
ATOM     38  CA  ILE B   4      53.243  86.512  31.508  1.00 24.17 LIG 0.18  C 
BRANCH 38 39
ATOM     39  CB  ILE B   4      53.078  85.897  32.914  1.00 29.09 LIG 0.01  C 
ATOM     40  CG2 ILE B   4      53.365  84.438  32.814  1.00 25.20 LIG 0.01  C 
BRANCH 39 41
ATOM     41  CG1 ILE B   4      54.058  86.472  33.927  1.00 28.67 LIG 0.00  C 
ATOM     42  CD1 ILE B   4      53.613  87.814  34.454  1.00 34.41 LIG 0.01  C 
ENDBRANCH 39 41
ENDBRANCH 38 39
BRANCH 38 43
ATOM     43  C   ILE B   4      52.711  87.943  31.383  1.00 29.58 LIG 0.24  C 
ATOM     44  N   LEU B   5      51.525  88.158  31.939  1.00 36.70 LIG-0.35  N 
ATOM     45 H    LEU B   5      51.022  87.535  32.251  1.00 36.70 LIG 0.16  HD
ATOM     46 O    ILE B   4      53.360  88.849  30.775  1.00 23.70 LIG-0.27  OA
BRANCH 44 47
ATOM     47  CA  LEU B   5      50.976  89.485  32.066  1.00 37.00 LIG 0.16  C 
BRANCH 47 48
ATOM     48  C   LEU B   5      50.573  90.054  30.691  1.00 42.59 LIG 0.22  C 
ATOM     49 O    LEU B   5      50.465  91.295  30.504  1.00 38.80 LIG-0.29  OA
ENDBRANCH 47 48
BRANCH 47 50
ATOM     50  CB  LEU B   5      52.035  90.374  32.705  1.00 50.59 LIG 0.04  C 
BRANCH 50 51
ATOM     51  CG  LEU B   5      51.596  91.134  33.943  1.00 50.85 LIG-0.02  C 
ATOM     52  CD1 LEU B   5      52.789  91.273  34.862  1.00 54.07 LIG 0.01  C 
ATOM     53  CD2 LEU B   5      51.091  92.494  33.475  1.00 54.33 LIG 0.01  C 
ENDBRANCH 50 51
ENDBRANCH 47 50
ENDBRANCH 44 47
ENDBRANCH 38 43
ENDBRANCH 36 38
ENDBRANCH 33 34
BRANCH 33 54
ATOM     54  CB  LEU B   3      57.048  87.495  30.715  1.00 34.11 LIG 0.04  C 
BRANCH 54 55
ATOM     55  CG  LEU B   3      58.529  87.327  30.659  1.00 35.49 LIG-0.02  C 
ATOM     56  CD1 LEU B   3      59.142  88.653  30.255  1.00 39.12 LIG 0.01  C 
ATOM     57  CD2 LEU B   3      58.885  86.981  32.082  1.00 34.32 LIG 0.01  C 
ENDBRANCH 54 55
ENDBRANCH 33 54
ENDBRANCH 3 33
TORSDOF 22
ENDMDL
MODEL 3
USER: ADFR SOLUTION from run 21
USER: SCORE 19.763666 LL:  -4.131 LR: -17.586 RR:   0.000 FEB: -11.023
USER: RMSD 3.510339
USER: SEED 20
USER: STATUS no improvement in best in 14 clusters for 5 generations
USER: GENES 24
USER: genes 0 Translation |==|  0.40717 0.48081 0.37136
USER: genes 1 Rotation |==|  0.50234 0.61380 0.48390 0.98661
USER: genes 2 Torsion [N]-C--CA-[N] |==|  0.19835
USER: genes 3 Torsion [C]-CA--CB-[CG] |==|  0.28719
USER: genes 4 Torsion [CA]-CB--CG-[CD] |==|  0.49535
USER: genes 5 Torsion [CB]-CG--CD-[NE] |==|  0.34584
USER: genes 6 Torsion [CG]-CD--NE-[HE] |==|  0.84059
USER: genes 7 Torsion [C]-CA--N-[C] |==|  0.76667
USER: genes 8 Torsion [N]-C--CA-[N] |==|  0.31256
USER: genes 9 Torsion [C]-CA--CB-[CG] |==|  0.19332
USER: genes 10 Torsion [CA]-CB--CG-[OD1] |==|  0.07893
USER: genes 11 Torsion [C]-CA--N-[H1] |==|  0.82486
USER: genes 12 Torsion [C]-N--CA-[CB] |==|  0.39219
USER: genes 13 Torsion [N]-CA--C-[N] |==|  0.34968
USER: genes 14 Torsion [C]-N--CA-[C] |==|  0.78731
USER: genes 15 Torsion [N]-CA--CB-[CG1] |==|  0.73804
USER: genes 16 Torsion [CA]-CB--CG1-[CD1] |==|  0.00334
USER: genes 17 Torsion [N]-CA--C-[N] |==|  0.42336
USER: genes 18 Torsion [C]-N--CA-[C] |==|  0.71441
USER: genes 19 Torsion [N]-CA--C-[O] |==|  0.18351
USER: genes 20 Torsion [N]-CA--CB-[CG] |==|  0.83979
USER: genes 21 Torsion [CA]-CB--CG-[CD1] |==|  0.27101
USER: genes 22 Torsion [N]-CA--CB-[CG] |==|  0.49481
USER: genes 23 Torsion [CA]-CB--CG-[CD1] |==|  0.19354
ROOT
ATOM      1  C   ARG B   2      55.058  86.617  26.956  1.00 25.54 LIG 0.24  C 
ATOM      2 O    ARG B   2      55.528  85.477  27.262  1.00 21.45 LIG-0.27  OA
ATOM      3  N   LEU B   3      55.215  87.673  27.740  1.00 32.00 LIG-0.35  N 
ATOM      4 H    LEU B   3      55.002  88.476  27.517  1.00 32.00 LIG 0.16  HD
ENDROOT
BRANCH 1 5
ATOM      5  CA  ARG B   2      54.253  86.845  25.684  1.00 29.44 LIG 0.18  C 
BRANCH 5 6
ATOM      6  CB  ARG B   2      53.873  85.474  25.042  1.00 37.02 LIG 0.04  C 
BRANCH 6 7
ATOM      7  CG  ARG B   2      52.417  85.069  25.274  1.00 39.92 LIG 0.02  C 
BRANCH 7 8
ATOM      8  CD  ARG B   2      52.112  83.736  24.580  1.00 40.77 LIG 0.14  C 
BRANCH 8 9
ATOM      9  NE  ARG B   2      51.591  82.847  25.629  1.00 48.07 LIG-0.23  N 
ATOM     10 HE   ARG B   2      52.108  82.721  26.305  1.00 48.07 LIG 0.18  HD
ATOM     11  CZ  ARG B   2      50.412  82.209  25.666  1.00 44.36 LIG 0.67  C 
ATOM     12  NH1 ARG B   2      50.156  81.464  26.757  1.00 36.12 LIG-0.23  N 
ATOM     13  NH2 ARG B   2      49.506  82.304  24.666  1.00 39.61 LIG-0.23  N 
ATOM     14 1HH1 ARG B   2      50.736  81.414  27.390  1.00 36.12 LIG 0.17  HD
ATOM     15 2HH1 ARG B   2      49.412  81.038  26.822  1.00 36.12 LIG 0.17  HD
ATOM     16 1HH2 ARG B   2      49.676  82.787  23.976  1.00 39.61 LIG 0.17  HD
ATOM     17 2HH2 ARG B   2      48.759  81.881  24.721  1.00 39.61 LIG 0.17  HD
ENDBRANCH 8 9
ENDBRANCH 7 8
ENDBRANCH 6 7
ENDBRANCH 5 6
BRANCH 5 18
ATOM     18  N   ARG B   2      55.012  87.655  24.713  1.00 32.37 LIG-0.35  N 
ATOM     19 H    ARG B   2      55.442  87.221  24.109  1.00 32.37 LIG 0.16  HD
ATOM     20  C   ASN B   1      54.972  88.967  24.844  1.00 31.22 LIG 0.25  C 
ATOM     21 O    ASN B   1      54.382  89.480  25.770  1.00 24.61 LIG-0.27  OA
BRANCH 20 22
ATOM     22  CA  ASN B   1      55.709  89.857  23.859  1.00 32.89 LIG 0.28  C 
BRANCH 22 23
ATOM     23  CB  ASN B   1      56.657  90.726  24.687  1.00 38.07 LIG 0.14  C 
BRANCH 23 24
ATOM     24  CG  ASN B   1      57.767  89.950  25.274  1.00 44.05 LIG 0.22  C 
ATOM     25  ND2 ASN B   1      58.244  90.400  26.405  1.00 47.62 LIG-0.37  N 
ATOM     26 21HD ASN B   1      58.882  89.979  26.801  1.00 47.62 LIG 0.16  HD
ATOM     27 22HD ASN B   1      57.921  91.115  26.755  1.00 47.62 LIG 0.16  HD
ATOM     28 OD1  ASN B   1      58.193  88.925  24.724  1.00 47.48 LIG-0.27  OA
ENDBRANCH 23 24
ENDBRANCH 22 23
BRANCH 22 29
ATOM     29  N   ASN B   1      54.888  90.712  22.953  1.00 44.58 LIG-0.07  N 
ATOM     30 H1   ASN B   1      54.393  90.196  22.423  1.00 44.58 LIG 0.28  HD
ATOM     31 H3   ASN B   1      55.424  91.219  22.455  1.00 44.58 LIG 0.28  HD
ATOM     32 H2   ASN B   1      54.354  91.234  23.439  1.00 44.58 LIG 0.28  HD
ENDBRANCH 22 29
ENDBRANCH 20 22
ENDBRANCH 5 18
ENDBRANCH 1 5
BRANCH 3 33
ATOM     33  CA  LEU B   3      55.776  87.542  29.076  1.00 27.74 LIG 0.18  C 
BRANCH 33 34
ATOM     34  C   LEU B   3      54.711  87.546  30.101  1.00 25.40 LIG 0.24  C 
ATOM     35 O    LEU B   3      53.890  88.452  30.152  1.00 26.81 LIG-0.27  OA
ATOM     36  N   ILE B   4      54.693  86.537  30.939  1.00 26.13 LIG-0.35  N 
ATOM     37 H    ILE B   4      55.195  85.842  30.878  1.00 26.13 LIG 0.16  HD
BRANCH 36 38
ATOM     38  CA  ILE B   4      53.819  86.542  32.018  1.00 24.17 LIG 0.18  C 
BRANCH 38 39
ATOM     39  CB  ILE B   4      53.632  85.070  32.442  1.00 29.09 LIG 0.01  C 
ATOM     40  CG2 ILE B   4      53.416  85.040  33.916  1.00 25.20 LIG 0.01  C 
BRANCH 39 41
ATOM     41  CG1 ILE B   4      52.411  84.423  31.803  1.00 28.67 LIG 0.00  C 
ATOM     42  CD1 ILE B   4      51.682  85.368  30.879  1.00 34.41 LIG 0.01  C 
ENDBRANCH 39 41
ENDBRANCH 38 39
BRANCH 38 43
ATOM     43  C   ILE B   4      54.297  87.463  33.146  1.00 29.58 LIG 0.24  C 
ATOM     44  N   LEU B   5      53.337  87.970  33.909  1.00 36.70 LIG-0.35  N 
ATOM     45 H    LEU B   5      52.498  87.897  33.737  1.00 36.70 LIG 0.16  HD
ATOM     46 O    ILE B   4      55.526  87.727  33.321  1.00 23.70 LIG-0.27  OA
BRANCH 44 47
ATOM     47  CA  LEU B   5      53.634  88.702  35.116  1.00 37.00 LIG 0.16  C 
BRANCH 47 48
ATOM     48  C   LEU B   5      53.390  87.834  36.366  1.00 42.59 LIG 0.22  C 
ATOM     49 O    LEU B   5      54.095  86.817  36.603  1.00 38.80 LIG-0.29  OA
ENDBRANCH 47 48
BRANCH 47 50
ATOM     50  CB  LEU B   5      52.736  89.931  35.154  1.00 50.59 LIG 0.04  C 
BRANCH 50 51
ATOM     51  CG  LEU B   5      52.856  90.869  33.967  1.00 50.85 LIG-0.02  C 
ATOM     52  CD1 LEU B   5      51.740  90.550  32.996  1.00 54.07 LIG 0.01  C 
ATOM     53  CD2 LEU B   5      52.735  92.290  34.507  1.00 54.33 LIG 0.01  C 
ENDBRANCH 50 51
ENDBRANCH 47 50
ENDBRANCH 44 47
ENDBRANCH 38 43
ENDBRANCH 36 38
ENDBRANCH 33 34
BRANCH 33 54
ATOM     54  CB  LEU B   3      56.677  88.728  29.326  1.00 34.11 LIG 0.04  C 
BRANCH 54 55
ATOM     55  CG  LEU B   3      57.210  88.607  30.714  1.00 35.49 LIG-0.02  C 
ATOM     56  CD1 LEU B   3      58.178  87.441  30.751  1.00 39.12 LIG 0.01  C 
ATOM     57  CD2 LEU B   3      57.935  89.914  30.913  1.00 34.32 LIG 0.01  C 
ENDBRANCH 54 55
ENDBRANCH 33 54
ENDBRANCH 3 33
TORSDOF 22
ENDMDL
MODEL 4
USER: ADFR SOLUTION from run 166
USER: SCORE 19.341274 LL:  -3.815 LR: -17.581 RR:   0.000 FEB: -11.019
USER: RMSD 4.103193
USER: SEED 165
USER: STATUS searching
USER: GENES 24
USER: genes 0 Translation |==|  0.40430 0.47893 0.37650
USER: genes 1 Rotation |==|  0.51811 0.60341 0.54936 0.98636
USER: genes 2 Torsion [N]-C--CA-[N] |==|  0.23463
USER: genes 3 Torsion [C]-CA--CB-[CG] |==|  0.28451
USER: genes 4 Torsion [CA]-CB--CG-[CD] |==|  0.49507
USER: genes 5 Torsion [CB]-CG--CD-[NE] |==|  0.36013
USER: genes 6 Torsion [CG]-CD--NE-[HE] |==|  0.81459
USER: genes 7 Torsion [C]-CA--N-[C] |==|  0.78333
USER: genes 8 Torsion [N]-C--CA-[N] |==|  0.30457
USER: genes 9 Torsion [C]-CA--CB-[CG] |==|  0.19293
USER: genes 10 Torsion [CA]-CB--CG-[OD1] |==|  0.07558
USER: genes 11 Torsion [C]-CA--N-[H1] |==|  0.50040
USER: genes 12 Torsion [C]-N--CA-[CB] |==|  0.36278
USER: genes 13 Torsion [N]-CA--C-[N] |==|  0.34325
USER: genes 14 Torsion [C]-N--CA-[C] |==|  0.77509
USER: genes 15 Torsion [N]-CA--CB-[CG1] |==|  0.66997
USER: genes 16 Torsion [CA]-CB--CG1-[CD1] |==|  0.45784
USER: genes 17 Torsion [N]-CA--C-[N] |==|  0.45481
USER: genes 18 Torsion [C]-N--CA-[C] |==|  0.18921
USER: genes 19 Torsion [N]-CA--C-[O] |==|  0.03123
USER: genes 20 Torsion [N]-CA--CB-[CG] |==|  0.67099
USER: genes 21 Torsion [CA]-CB--CG-[CD1] |==|  0.23616
USER: genes 22 Torsion [N]-CA--CB-[CG] |==|  0.51210
USER: genes 23 Torsion [CA]-CB--CG-[CD1] |==|  0.19448
ROOT
ATOM      1  C   ARG B   2      54.997  86.582  27.068  1.00 25.54 LIG 0.24  C 
ATOM      2 O    ARG B   2      55.719  85.556  27.270  1.00 21.45 LIG-0.27  OA
ATOM      3  N   LEU B   3      54.873  87.539  27.974  1.00 32.00 LIG-0.35  N 
ATOM      4 H    LEU B   3      54.480  88.291  27.832  1.00 32.00 LIG 0.16  HD
ENDROOT
BRANCH 1 5
ATOM      5  CA  ARG B   2      54.199  86.769  25.785  1.00 29.44 LIG 0.18  C 
BRANCH 5 6
ATOM      6  CB  ARG B   2      53.895  85.381  25.140  1.00 37.02 LIG 0.04  C 
BRANCH 6 7
ATOM      7  CG  ARG B   2      52.465  84.894  25.374  1.00 39.92 LIG 0.02  C 
BRANCH 7 8
ATOM      8  CD  ARG B   2      52.234  83.549  24.673  1.00 40.77 LIG 0.14  C 
BRANCH 8 9
ATOM      9  NE  ARG B   2      51.648  82.662  25.690  1.00 48.07 LIG-0.23  N 
ATOM     10 HE   ARG B   2      52.163  82.451  26.345  1.00 48.07 LIG 0.18  HD
ATOM     11  CZ  ARG B   2      50.413  82.142  25.725  1.00 44.36 LIG 0.67  C 
ATOM     12  NH1 ARG B   2      50.106  81.371  26.784  1.00 36.12 LIG-0.23  N 
ATOM     13  NH2 ARG B   2      49.500  82.378  24.755  1.00 39.61 LIG-0.23  N 
ATOM     14 1HH1 ARG B   2      50.691  81.231  27.399  1.00 36.12 LIG 0.17  HD
ATOM     15 2HH1 ARG B   2      49.325  81.017  26.847  1.00 36.12 LIG 0.17  HD
ATOM     16 1HH2 ARG B   2      49.703  82.877  24.085  1.00 39.61 LIG 0.17  HD
ATOM     17 2HH2 ARG B   2      48.716  82.028  24.808  1.00 39.61 LIG 0.17  HD
ENDBRANCH 8 9
ENDBRANCH 7 8
ENDBRANCH 6 7
ENDBRANCH 5 6
BRANCH 5 18
ATOM     18  N   ARG B   2      54.928  87.617  24.824  1.00 32.37 LIG-0.35  N 
ATOM     19 H    ARG B   2      55.322  87.207  24.178  1.00 32.37 LIG 0.16  HD
ATOM     20  C   ASN B   1      54.921  88.920  25.025  1.00 31.22 LIG 0.25  C 
ATOM     21 O    ASN B   1      54.384  89.394  26.003  1.00 24.61 LIG-0.27  OA
BRANCH 20 22
ATOM     22  CA  ASN B   1      55.630  89.848  24.054  1.00 32.89 LIG 0.28  C 
BRANCH 22 23
ATOM     23  CB  ASN B   1      56.579  90.706  24.892  1.00 38.07 LIG 0.14  C 
BRANCH 23 24
ATOM     24  CG  ASN B   1      57.708  89.928  25.441  1.00 44.05 LIG 0.22  C 
ATOM     25  ND2 ASN B   1      58.212  90.367  26.565  1.00 47.62 LIG-0.37  N 
ATOM     26 21HD ASN B   1      58.861  89.944  26.938  1.00 47.62 LIG 0.16  HD
ATOM     27 22HD ASN B   1      57.895  91.077  26.930  1.00 47.62 LIG 0.16  HD
ATOM     28 OD1  ASN B   1      58.123  88.911  24.869  1.00 47.48 LIG-0.27  OA
ENDBRANCH 23 24
ENDBRANCH 22 23
BRANCH 22 29
ATOM     29  N   ASN B   1      54.782  90.718  23.187  1.00 44.58 LIG-0.07  N 
ATOM     30 H1   ASN B   1      55.303  91.213  22.662  1.00 44.58 LIG 0.28  HD
ATOM     31 H3   ASN B   1      54.284  91.250  23.697  1.00 44.58 LIG 0.28  HD
ATOM     32 H2   ASN B   1      54.253  90.209  22.683  1.00 44.58 LIG 0.28  HD
ENDBRANCH 22 29
ENDBRANCH 20 22
ENDBRANCH 5 18
ENDBRANCH 1 5
BRANCH 3 33
ATOM     33  CA  LEU B   3      55.411  87.381  29.316  1.00 27.74 LIG 0.18  C 
BRANCH 33 34
ATOM     34  C   LEU B   3      54.325  87.257  30.312  1.00 25.40 LIG 0.24  C 
ATOM     35 O    LEU B   3      53.463  88.120  30.413  1.00 26.81 LIG-0.27  OA
ATOM     36  N   ILE B   4      54.333  86.185  31.066  1.00 26.13 LIG-0.35  N 
ATOM     37 H    ILE B   4      54.867  85.518  30.964  1.00 26.13 LIG 0.16  HD
BRANCH 36 38
ATOM     38  CA  ILE B   4      53.436  86.066  32.120  1.00 24.17 LIG 0.18  C 
BRANCH 38 39
ATOM     39  CB  ILE B   4      53.218  84.555  32.347  1.00 29.09 LIG 0.01  C 
ATOM     40  CG2 ILE B   4      53.564  84.249  33.765  1.00 25.20 LIG 0.01  C 
BRANCH 39 41
ATOM     41  CG1 ILE B   4      51.771  84.131  32.144  1.00 28.67 LIG 0.00  C 
ATOM     42  CD1 ILE B   4      51.629  82.635  32.005  1.00 34.41 LIG 0.01  C 
ENDBRANCH 39 41
ENDBRANCH 38 39
BRANCH 38 43
ATOM     43  C   ILE B   4      53.903  86.826  33.366  1.00 29.58 LIG 0.24  C 
ATOM     44  N   LEU B   5      52.967  87.043  34.282  1.00 36.70 LIG-0.35  N 
ATOM     45 H    LEU B   5      52.132  86.881  34.162  1.00 36.70 LIG 0.16  HD
ATOM     46 O    ILE B   4      55.099  87.229  33.497  1.00 23.70 LIG-0.27  OA
BRANCH 44 47
ATOM     47  CA  LEU B   5      53.287  87.579  35.582  1.00 37.00 LIG 0.16  C 
BRANCH 47 48
ATOM     48  C   LEU B   5      53.757  89.043  35.479  1.00 42.59 LIG 0.22  C 
ATOM     49 O    LEU B   5      53.631  89.696  34.408  1.00 38.80 LIG-0.29  OA
ENDBRANCH 47 48
BRANCH 47 50
ATOM     50  CB  LEU B   5      54.391  86.720  36.186  1.00 50.59 LIG 0.04  C 
BRANCH 50 51
ATOM     51  CG  LEU B   5      54.037  86.009  37.479  1.00 50.85 LIG-0.02  C 
ATOM     52  CD1 LEU B   5      53.345  84.710  37.131  1.00 54.07 LIG 0.01  C 
ATOM     53  CD2 LEU B   5      55.343  85.763  38.225  1.00 54.33 LIG 0.01  C 
ENDBRANCH 50 51
ENDBRANCH 47 50
ENDBRANCH 44 47
ENDBRANCH 38 43
ENDBRANCH 36 38
ENDBRANCH 33 34
BRANCH 33 54
ATOM     54  CB  LEU B   3      56.219  88.612  29.650  1.00 34.11 LIG 0.04  C 
BRANCH 54 55
ATOM     55  CG  LEU B   3      56.852  88.393  30.982  1.00 35.49 LIG-0.02  C 
ATOM     56  CD1 LEU B   3      57.925  87.333  30.829  1.00 39.12 LIG 0.01  C 
ATOM     57  CD2 LEU B   3      57.463  89.736  31.292  1.00 34.32 LIG 0.01  C 
ENDBRANCH 54 55
ENDBRANCH 33 54
ENDBRANCH 3 33
TORSDOF 22
ENDMDL
MODEL 5
USER: ADFR SOLUTION from run 147
USER: SCORE 19.209781 LL:  -3.923 LR: -17.353 RR:   0.000 FEB: -10.791
USER: RMSD 5.221270
USER: SEED 146
USER: STATUS no improvement in best in 23 clusters for 5 generations
USER: GENES 24
USER: genes 0 Translation |==|  0.55493 0.49955 0.39426
USER: genes 1 Rotation |==|  0.52565 0.48322 0.31898 0.96507
USER: genes 2 Torsion [N]-C--CA-[N] |==|  0.98470
USER: genes 3 Torsion [C]-CA--CB-[CG] |==|  0.41952
USER: genes 4 Torsion [CA]-CB--CG-[CD] |==|  0.52065
USER: genes 5 Torsion [CB]-CG--CD-[NE] |==|  0.86068
USER: genes 6 Torsion [CG]-CD--NE-[HE] |==|  0.86518
USER: genes 7 Torsion [C]-CA--N-[C] |==|  0.75700
USER: genes 8 Torsion [N]-C--CA-[N] |==|  0.77588
USER: genes 9 Torsion [C]-CA--CB-[CG] |==|  0.25092
USER: genes 10 Torsion [CA]-CB--CG-[OD1] |==|  0.71208
USER: genes 11 Torsion [C]-CA--N-[H1] |==|  0.27874
USER: genes 12 Torsion [C]-N--CA-[CB] |==|  0.44650
USER: genes 13 Torsion [N]-CA--C-[N] |==|  0.31218
USER: genes 14 Torsion [C]-N--CA-[C] |==|  0.71052
USER: genes 15 Torsion [N]-CA--CB-[CG1] |==|  0.23402
USER: genes 16 Torsion [CA]-CB--CG1-[CD1] |==|  0.40315
USER: genes 17 Torsion [N]-CA--C-[N] |==|  0.53764
USER: genes 18 Torsion [C]-N--CA-[C] |==|  0.16126
USER: genes 19 Torsion [N]-CA--C-[O] |==|  0.58243
USER: genes 20 Torsion [N]-CA--CB-[CG] |==|  0.76787
USER: genes 21 Torsion [CA]-CB--CG-[CD1] |==|  0.40776
USER: genes 22 Torsion [N]-CA--CB-[CG] |==|  0.50707
USER: genes 23 Torsion [CA]-CB--CG-[CD1] |==|  0.16680
ROOT
ATOM      1  C   ARG B   2      58.160  86.968  27.454  1.00 25.54 LIG 0.24  C 
ATOM      2 O    ARG B   2      57.627  85.880  27.836  1.00 21.45 LIG-0.27  OA
ATOM      3  N   LEU B   3      58.596  87.875  28.315  1.00 32.00 LIG-0.35  N 
ATOM      4 H    LEU B   3      59.053  88.570  28.096  1.00 32.00 LIG 0.16  HD
ENDROOT
BRANCH 1 5
ATOM      5  CA  ARG B   2      58.308  87.323  25.981  1.00 29.44 LIG 0.18  C 
BRANCH 5 6
ATOM      6  CB  ARG B   2      59.284  86.322  25.287  1.00 37.02 LIG 0.04  C 
BRANCH 6 7
ATOM      7  CG  ARG B   2      58.994  86.111  23.801  1.00 39.92 LIG 0.02  C 
BRANCH 7 8
ATOM      8  CD  ARG B   2      59.870  84.984  23.238  1.00 40.77 LIG 0.14  C 
BRANCH 8 9
ATOM      9  NE  ARG B   2      61.245  85.299  23.654  1.00 48.07 LIG-0.23  N 
ATOM     10 HE   ARG B   2      61.506  86.106  23.509  1.00 48.07 LIG 0.18  HD
ATOM     11  CZ  ARG B   2      62.144  84.488  24.229  1.00 44.36 LIG 0.67  C 
ATOM     12  NH1 ARG B   2      63.339  85.023  24.539  1.00 36.12 LIG-0.23  N 
ATOM     13  NH2 ARG B   2      61.877  83.189  24.503  1.00 39.61 LIG-0.23  N 
ATOM     14 1HH1 ARG B   2      63.498  85.851  24.366  1.00 36.12 LIG 0.17  HD
ATOM     15 2HH1 ARG B   2      63.945  84.538  24.909  1.00 36.12 LIG 0.17  HD
ATOM     16 1HH2 ARG B   2      61.109  82.858  24.307  1.00 39.61 LIG 0.17  HD
ATOM     17 2HH2 ARG B   2      62.477  82.696  24.873  1.00 39.61 LIG 0.17  HD
ENDBRANCH 8 9
ENDBRANCH 7 8
ENDBRANCH 6 7
ENDBRANCH 5 6
BRANCH 5 18
ATOM     18  N   ARG B   2      58.805  88.701  25.813  1.00 32.37 LIG-0.35  N 
ATOM     19 H    ARG B   2      59.658  88.792  25.745  1.00 32.37 LIG 0.16  HD
ATOM     20  C   ASN B   1      57.917  89.675  25.779  1.00 31.22 LIG 0.25  C 
ATOM     21 O    ASN B   1      56.738  89.446  25.945  1.00 24.61 LIG-0.27  OA
BRANCH 20 22
ATOM     22  CA  ASN B   1      58.365  91.113  25.580  1.00 32.89 LIG 0.28  C 
BRANCH 22 23
ATOM     23  CB  ASN B   1      59.425  91.086  24.477  1.00 38.07 LIG 0.14  C 
BRANCH 23 24
ATOM     24  CG  ASN B   1      58.844  91.256  23.130  1.00 44.05 LIG 0.22  C 
ATOM     25  ND2 ASN B   1      58.509  92.476  22.802  1.00 47.62 LIG-0.37  N 
ATOM     26 21HD ASN B   1      58.180  92.637  22.024  1.00 47.62 LIG 0.16  HD
ATOM     27 22HD ASN B   1      58.618  93.118  23.363  1.00 47.62 LIG 0.16  HD
ATOM     28 OD1  ASN B   1      58.709  90.292  22.364  1.00 47.48 LIG-0.27  OA
ENDBRANCH 23 24
ENDBRANCH 22 23
BRANCH 22 29
ATOM     29  N   ASN B   1      58.882  91.846  26.772  1.00 44.58 LIG-0.07  N 
ATOM     30 H1   ASN B   1      59.772  91.853  26.754  1.00 44.58 LIG 0.28  HD
ATOM     31 H3   ASN B   1      58.604  91.441  27.514  1.00 44.58 LIG 0.28  HD
ATOM     32 H2   ASN B   1      58.579  92.683  26.760  1.00 44.58 LIG 0.28  HD
ENDBRANCH 22 29
ENDBRANCH 20 22
ENDBRANCH 5 18
ENDBRANCH 1 5
BRANCH 3 33
ATOM     33  CA  LEU B   3      58.324  87.753  29.739  1.00 27.74 LIG 0.18  C 
BRANCH 33 34
ATOM     34  C   LEU B   3      56.960  88.225  30.061  1.00 25.40 LIG 0.24  C 
ATOM     35 O    LEU B   3      56.661  89.406  29.951  1.00 26.81 LIG-0.27  OA
ATOM     36  N   ILE B   4      56.100  87.320  30.461  1.00 26.13 LIG-0.35  N 
ATOM     37 H    ILE B   4      56.247  86.473  30.464  1.00 26.13 LIG 0.16  HD
BRANCH 36 38
ATOM     38  CA  ILE B   4      54.847  87.703  30.921  1.00 24.17 LIG 0.18  C 
BRANCH 38 39
ATOM     39  CB  ILE B   4      53.816  86.835  30.169  1.00 29.09 LIG 0.01  C 
ATOM     40  CG2 ILE B   4      54.344  86.579  28.798  1.00 25.20 LIG 0.01  C 
BRANCH 39 41
ATOM     41  CG1 ILE B   4      53.602  85.476  30.821  1.00 28.67 LIG 0.00  C 
ATOM     42  CD1 ILE B   4      52.173  85.005  30.701  1.00 34.41 LIG 0.01  C 
ENDBRANCH 39 41
ENDBRANCH 38 39
BRANCH 38 43
ATOM     43  C   ILE B   4      54.740  87.621  32.447  1.00 29.58 LIG 0.24  C 
ATOM     44  N   LEU B   5      53.508  87.698  32.935  1.00 36.70 LIG-0.35  N 
ATOM     45 H    LEU B   5      52.817  87.893  32.463  1.00 36.70 LIG 0.16  HD
ATOM     46 O    ILE B   4      55.766  87.503  33.186  1.00 23.70 LIG-0.27  OA
BRANCH 44 47
ATOM     47  CA  LEU B   5      53.227  87.455  34.328  1.00 37.00 LIG 0.16  C 
BRANCH 47 48
ATOM     48  C   LEU B   5      54.027  88.413  35.232  1.00 42.59 LIG 0.22  C 
ATOM     49 O    LEU B   5      54.382  88.072  36.392  1.00 38.80 LIG-0.29  OA
ENDBRANCH 47 48
BRANCH 47 50
ATOM     50  CB  LEU B   5      53.603  86.012  34.639  1.00 50.59 LIG 0.04  C 
BRANCH 50 51
ATOM     51  CG  LEU B   5      52.551  84.972  34.303  1.00 50.85 LIG-0.02  C 
ATOM     52  CD1 LEU B   5      53.257  83.703  33.877  1.00 54.07 LIG 0.01  C 
ATOM     53  CD2 LEU B   5      51.723  84.752  35.564  1.00 54.33 LIG 0.01  C 
ENDBRANCH 50 51
ENDBRANCH 47 50
ENDBRANCH 44 47
ENDBRANCH 38 43
ENDBRANCH 36 38
ENDBRANCH 33 34
BRANCH 33 54
ATOM     54  CB  LEU B   3      59.311  88.620  30.484  1.00 34.11 LIG 0.04  C 
BRANCH 54 55
ATOM     55  CG  LEU B   3      59.063  88.439  31.943  1.00 35.49 LIG-0.02  C 
ATOM     56  CD1 LEU B   3      59.266  86.975  32.282  1.00 39.12 LIG 0.01  C 
ATOM     57  CD2 LEU B   3      60.133  89.291  32.577  1.00 34.32 LIG 0.01  C 
ENDBRANCH 54 55
ENDBRANCH 33 54
ENDBRANCH 3 33
TORSDOF 22
ENDMDL
MODEL 6
USER: ADFR SOLUTION from run 55
USER: SCORE 18.935567 LL:  -3.379 LR: -17.312 RR:   0.000 FEB: -10.749
USER: RMSD 2.639487
USER: SEED 54
USER: STATUS no improvement in best in 7 clusters for 5 generations
USER: GENES 24
USER: genes 0 Translation |==|  0.51144 0.48416 0.38849
USER: genes 1 Rotation |==|  0.51185 0.52284 0.44200 0.99596
USER: genes 2 Torsion [N]-C--CA-[N] |==|  0.39706
USER: genes 3 Torsion [C]-CA--CB-[CG] |==|  0.27810
USER: genes 4 Torsion [CA]-CB--CG-[CD] |==|  0.44619
USER: genes 5 Torsion [CB]-CG--CD-[NE] |==|  0.68112
USER: genes 6 Torsion [CG]-CD--NE-[HE] |==|  0.31227
USER: genes 7 Torsion [C]-CA--N-[C] |==|  0.78910
USER: genes 8 Torsion [N]-C--CA-[N] |==|  0.35445
USER: genes 9 Torsion [C]-CA--CB-[CG] |==|  0.58480
USER: genes 10 Torsion [CA]-CB--CG-[OD1] |==|  0.73718
USER: genes 11 Torsion [C]-CA--N-[H1] |==|  0.34394
USER: genes 12 Torsion [C]-N--CA-[CB] |==|  0.39266
USER: genes 13 Torsion [N]-CA--C-[N] |==|  0.33207
USER: genes 14 Torsion [C]-N--CA-[C] |==|  0.79818
USER: genes 15 Torsion [N]-CA--CB-[CG1] |==|  0.65419
USER: genes 16 Torsion [CA]-CB--CG1-[CD1] |==|  0.47503
USER: genes 17 Torsion [N]-CA--C-[N] |==|  0.40625
USER: genes 18 Torsion [C]-N--CA-[C] |==|  0.82521
USER: genes 19 Torsion [N]-CA--C-[O] |==|  0.27441
USER: genes 20 Torsion [N]-CA--CB-[CG] |==|  0.81248
USER: genes 21 Torsion [CA]-CB--CG-[CD1] |==|  0.32271
USER: genes 22 Torsion [N]-CA--CB-[CG] |==|  0.51732
USER: genes 23 Torsion [CA]-CB--CG-[CD1] |==|  0.15919
ROOT
ATOM      1  C   ARG B   2      57.247  86.680  27.329  1.00 25.54 LIG 0.24  C 
ATOM      2 O    ARG B   2      57.376  85.492  27.762  1.00 21.45 LIG-0.27  OA
ATOM      3  N   LEU B   3      57.294  87.728  28.136  1.00 32.00 LIG-0.35  N 
ATOM      4 H    LEU B   3      57.315  88.545  27.867  1.00 32.00 LIG 0.16  HD
ENDROOT
BRANCH 1 5
ATOM      5  CA  ARG B   2      56.998  86.982  25.857  1.00 29.44 LIG 0.18  C 
BRANCH 5 6
ATOM      6  CB  ARG B   2      55.476  86.846  25.536  1.00 37.02 LIG 0.04  C 
BRANCH 6 7
ATOM      7  CG  ARG B   2      54.739  88.184  25.480  1.00 39.92 LIG 0.02  C 
BRANCH 7 8
ATOM      8  CD  ARG B   2      53.419  88.038  24.712  1.00 40.77 LIG 0.14  C 
BRANCH 8 9
ATOM      9  NE  ARG B   2      53.564  88.863  23.503  1.00 48.07 LIG-0.23  N 
ATOM     10 HE   ARG B   2      53.596  88.435  22.758  1.00 48.07 LIG 0.18  HD
ATOM     11  CZ  ARG B   2      53.653  90.198  23.415  1.00 44.36 LIG 0.67  C 
ATOM     12  NH1 ARG B   2      53.758  90.722  22.180  1.00 36.12 LIG-0.23  N 
ATOM     13  NH2 ARG B   2      53.631  90.999  24.506  1.00 39.61 LIG-0.23  N 
ATOM     14 1HH1 ARG B   2      53.766  90.206  21.492  1.00 36.12 LIG 0.17  HD
ATOM     15 2HH1 ARG B   2      53.817  91.574  22.078  1.00 36.12 LIG 0.17  HD
ATOM     16 1HH2 ARG B   2      53.558  90.655  25.290  1.00 39.61 LIG 0.17  HD
ATOM     17 2HH2 ARG B   2      53.691  91.852  24.414  1.00 39.61 LIG 0.17  HD
ENDBRANCH 8 9
ENDBRANCH 7 8
ENDBRANCH 6 7
ENDBRANCH 5 6
BRANCH 5 18
ATOM     18  N   ARG B   2      57.772  86.075  24.990  1.00 32.37 LIG-0.35  N 
ATOM     19 H    ARG B   2      57.331  85.442  24.612  1.00 32.37 LIG 0.16  HD
ATOM     20  C   ASN B   1      59.065  86.302  24.862  1.00 31.22 LIG 0.25  C 
ATOM     21 O    ASN B   1      59.604  87.189  25.489  1.00 24.61 LIG-0.27  OA
BRANCH 20 22
ATOM     22  CA  ASN B   1      59.912  85.421  23.961  1.00 32.89 LIG 0.28  C 
BRANCH 22 23
ATOM     23  CB  ASN B   1      60.784  84.570  24.885  1.00 38.07 LIG 0.14  C 
BRANCH 23 24
ATOM     24  CG  ASN B   1      62.084  84.225  24.275  1.00 44.05 LIG 0.22  C 
ATOM     25  ND2 ASN B   1      63.041  85.101  24.432  1.00 47.62 LIG-0.37  N 
ATOM     26 21HD ASN B   1      63.823  84.946  24.111  1.00 47.62 LIG 0.16  HD
ATOM     27 22HD ASN B   1      62.888  85.833  24.857  1.00 47.62 LIG 0.16  HD
ATOM     28 OD1  ASN B   1      62.245  83.154  23.672  1.00 47.48 LIG-0.27  OA
ENDBRANCH 23 24
ENDBRANCH 22 23
BRANCH 22 29
ATOM     29  N   ASN B   1      60.758  86.096  22.933  1.00 44.58 LIG-0.07  N 
ATOM     30 H1   ASN B   1      61.607  85.852  23.040  1.00 44.58 LIG 0.28  HD
ATOM     31 H3   ASN B   1      60.689  86.978  23.025  1.00 44.58 LIG 0.28  HD
ATOM     32 H2   ASN B   1      60.482  85.860  22.120  1.00 44.58 LIG 0.28  HD
ENDBRANCH 22 29
ENDBRANCH 20 22
ENDBRANCH 5 18
ENDBRANCH 1 5
BRANCH 3 33
ATOM     33  CA  LEU B   3      57.315  87.565  29.582  1.00 27.74 LIG 0.18  C 
BRANCH 33 34
ATOM     34  C   LEU B   3      55.972  87.787  30.159  1.00 25.40 LIG 0.24  C 
ATOM     35 O    LEU B   3      55.399  88.860  30.027  1.00 26.81 LIG-0.27  OA
ATOM     36  N   ILE B   4      55.434  86.783  30.809  1.00 26.13 LIG-0.35  N 
ATOM     37 H    ILE B   4      55.766  85.991  30.847  1.00 26.13 LIG 0.16  HD
BRANCH 36 38
ATOM     38  CA  ILE B   4      54.245  86.959  31.505  1.00 24.17 LIG 0.18  C 
BRANCH 38 39
ATOM     39  CB  ILE B   4      53.660  85.551  31.742  1.00 29.09 LIG 0.01  C 
ATOM     40  CG2 ILE B   4      53.596  85.322  33.214  1.00 25.20 LIG 0.01  C 
BRANCH 39 41
ATOM     41  CG1 ILE B   4      52.241  85.403  31.210  1.00 28.67 LIG 0.00  C 
ATOM     42  CD1 ILE B   4      51.762  83.973  31.251  1.00 34.41 LIG 0.01  C 
ENDBRANCH 39 41
ENDBRANCH 38 39
BRANCH 38 43
ATOM     43  C   ILE B   4      54.437  87.782  32.783  1.00 29.58 LIG 0.24  C 
ATOM     44  N   LEU B   5      53.417  88.564  33.113  1.00 36.70 LIG-0.35  N 
ATOM     45 H    LEU B   5      52.736  88.703  32.607  1.00 36.70 LIG 0.16  HD
ATOM     46 O    ILE B   4      55.507  87.723  33.464  1.00 23.70 LIG-0.27  OA
BRANCH 44 47
ATOM     47  CA  LEU B   5      53.369  89.256  34.377  1.00 37.00 LIG 0.16  C 
BRANCH 47 48
ATOM     48  C   LEU B   5      53.331  88.261  35.554  1.00 42.59 LIG 0.22  C 
ATOM     49 O    LEU B   5      54.375  87.970  36.197  1.00 38.80 LIG-0.29  OA
ENDBRANCH 47 48
BRANCH 47 50
ATOM     50  CB  LEU B   5      52.119  90.125  34.391  1.00 50.59 LIG 0.04  C 
BRANCH 50 51
ATOM     51  CG  LEU B   5      52.116  91.289  33.418  1.00 50.85 LIG-0.02  C 
ATOM     52  CD1 LEU B   5      51.004  91.066  32.416  1.00 54.07 LIG 0.01  C 
ATOM     53  CD2 LEU B   5      51.884  92.554  34.235  1.00 54.33 LIG 0.01  C 
ENDBRANCH 50 51
ENDBRANCH 47 50
ENDBRANCH 44 47
ENDBRANCH 38 43
ENDBRANCH 36 38
ENDBRANCH 33 34
BRANCH 33 54
ATOM     54  CB  LEU B   3      58.254  88.597  30.160  1.00 34.11 LIG 0.04  C 
BRANCH 54 55
ATOM     55  CG  LEU B   3      58.385  88.324  31.619  1.00 35.49 LIG-0.02  C 
ATOM     56  CD1 LEU B   3      58.881  86.902  31.794  1.00 39.12 LIG 0.01  C 
ATOM     57  CD2 LEU B   3      59.433  89.316  32.057  1.00 34.32 LIG 0.01  C 
ENDBRANCH 54 55
ENDBRANCH 33 54
ENDBRANCH 3 33
TORSDOF 22
ENDMDL
MODEL 7
USER: ADFR SOLUTION from run 66
USER: SCORE 18.579916 LL:  -3.694 LR: -17.294 RR:   0.000 FEB: -10.731
USER: RMSD 3.613235
USER: SEED 65
USER: STATUS no improvement in best in 10 clusters for 5 generations
USER: GENES 24
USER: genes 0 Translation |==|  0.50492 0.48374 0.40275
USER: genes 1 Rotation |==|  0.53282 0.49889 0.45853 0.99719
USER: genes 2 Torsion [N]-C--CA-[N] |==|  0.42106
USER: genes 3 Torsion [C]-CA--CB-[CG] |==|  0.22762
USER: genes 4 Torsion [CA]-CB--CG-[CD] |==|  0.14692
USER: genes 5 Torsion [CB]-CG--CD-[NE] |==|  0.74900
USER: genes 6 Torsion [CG]-CD--NE-[HE] |==|  0.82050
USER: genes 7 Torsion [C]-CA--N-[C] |==|  0.75098
USER: genes 8 Torsion [N]-C--CA-[N] |==|  0.36557
USER: genes 9 Torsion [C]-CA--CB-[CG] |==|  0.57152
USER: genes 10 Torsion [CA]-CB--CG-[OD1] |==|  0.74685
USER: genes 11 Torsion [C]-CA--N-[H1] |==|  0.38451
USER: genes 12 Torsion [C]-N--CA-[CB] |==|  0.37244
USER: genes 13 Torsion [N]-CA--C-[N] |==|  0.41589
USER: genes 14 Torsion [C]-N--CA-[C] |==|  0.67064
USER: genes 15 Torsion [N]-CA--CB-[CG1] |==|  0.17461
USER: genes 16 Torsion [CA]-CB--CG1-[CD1] |==|  0.37009
USER: genes 17 Torsion [N]-CA--C-[N] |==|  0.56626
USER: genes 18 Torsion [C]-N--CA-[C] |==|  0.18248
USER: genes 19 Torsion [N]-CA--C-[O] |==|  0.70661
USER: genes 20 Torsion [N]-CA--CB-[CG] |==|  0.59618
USER: genes 21 Torsion [CA]-CB--CG-[CD1] |==|  0.28342
USER: genes 22 Torsion [N]-CA--CB-[CG] |==|  0.78323
USER: genes 23 Torsion [CA]-CB--CG-[CD1] |==|  0.33611
ROOT
ATOM      1  C   ARG B   2      57.110  86.672  27.639  1.00 25.54 LIG 0.24  C 
ATOM      2 O    ARG B   2      57.269  85.463  27.997  1.00 21.45 LIG-0.27  OA
ATOM      3  N   LEU B   3      57.006  87.655  28.520  1.00 32.00 LIG-0.35  N 
ATOM      4 H    LEU B   3      57.003  88.490  28.314  1.00 32.00 LIG 0.16  HD
ENDROOT
BRANCH 1 5
ATOM      5  CA  ARG B   2      56.997  87.073  26.175  1.00 29.44 LIG 0.18  C 
BRANCH 5 6
ATOM      6  CB  ARG B   2      55.497  87.089  25.742  1.00 37.02 LIG 0.04  C 
BRANCH 6 7
ATOM      7  CG  ARG B   2      54.760  88.372  26.124  1.00 39.92 LIG 0.02  C 
BRANCH 7 8
ATOM      8  CD  ARG B   2      55.521  89.602  25.614  1.00 40.77 LIG 0.14  C 
BRANCH 8 9
ATOM      9  NE  ARG B   2      56.439  89.984  26.697  1.00 48.07 LIG-0.23  N 
ATOM     10 HE   ARG B   2      56.069  90.246  27.428  1.00 48.07 LIG 0.18  HD
ATOM     11  CZ  ARG B   2      57.780  89.976  26.690  1.00 44.36 LIG 0.67  C 
ATOM     12  NH1 ARG B   2      58.398  90.352  27.825  1.00 36.12 LIG-0.23  N 
ATOM     13  NH2 ARG B   2      58.496  89.601  25.605  1.00 39.61 LIG-0.23  N 
ATOM     14 1HH1 ARG B   2      57.935  90.584  28.511  1.00 36.12 LIG 0.17  HD
ATOM     15 2HH1 ARG B   2      59.257  90.361  27.864  1.00 36.12 LIG 0.17  HD
ATOM     16 1HH2 ARG B   2      58.092  89.356  24.887  1.00 39.61 LIG 0.17  HD
ATOM     17 2HH2 ARG B   2      59.356  89.607  25.634  1.00 39.61 LIG 0.17  HD
ENDBRANCH 8 9
ENDBRANCH 7 8
ENDBRANCH 6 7
ENDBRANCH 5 6
BRANCH 5 18
ATOM     18  N   ARG B   2      57.755  86.150  25.310  1.00 32.37 LIG-0.35  N 
ATOM     19 H    ARG B   2      57.323  85.470  25.010  1.00 32.37 LIG 0.16  HD
ATOM     20  C   ASN B   1      59.019  86.436  25.067  1.00 31.22 LIG 0.25  C 
ATOM     21 O    ASN B   1      59.551  87.391  25.590  1.00 24.61 LIG-0.27  OA
BRANCH 20 22
ATOM     22  CA  ASN B   1      59.845  85.540  24.161  1.00 32.89 LIG 0.28  C 
BRANCH 22 23
ATOM     23  CB  ASN B   1      60.762  84.727  25.076  1.00 38.07 LIG 0.14  C 
BRANCH 23 24
ATOM     24  CG  ASN B   1      61.995  84.285  24.394  1.00 44.05 LIG 0.22  C 
ATOM     25  ND2 ASN B   1      63.013  85.102  24.466  1.00 47.62 LIG-0.37  N 
ATOM     26 21HD ASN B   1      63.761  84.890  24.099  1.00 47.62 LIG 0.16  HD
ATOM     27 22HD ASN B   1      62.935  85.852  24.879  1.00 47.62 LIG 0.16  HD
ATOM     28 OD1  ASN B   1      62.049  83.192  23.812  1.00 47.48 LIG-0.27  OA
ENDBRANCH 23 24
ENDBRANCH 22 23
BRANCH 22 29
ATOM     29  N   ASN B   1      60.644  86.195  23.084  1.00 44.58 LIG-0.07  N 
ATOM     30 H1   ASN B   1      61.445  85.810  23.032  1.00 44.58 LIG 0.28  HD
ATOM     31 H3   ASN B   1      60.743  87.059  23.272  1.00 44.58 LIG 0.28  HD
ATOM     32 H2   ASN B   1      60.222  86.107  22.305  1.00 44.58 LIG 0.28  HD
ENDBRANCH 22 29
ENDBRANCH 20 22
ENDBRANCH 5 18
ENDBRANCH 1 5
BRANCH 3 33
ATOM     33  CA  LEU B   3      56.886  87.381  29.944  1.00 27.74 LIG 0.18  C 
BRANCH 33 34
ATOM     34  C   LEU B   3      55.513  87.650  30.422  1.00 25.40 LIG 0.24  C 
ATOM     35 O    LEU B   3      54.820  88.508  29.893  1.00 26.81 LIG-0.27  OA
ATOM     36  N   ILE B   4      55.084  86.926  31.427  1.00 26.13 LIG-0.35  N 
ATOM     37 H    ILE B   4      55.507  86.257  31.764  1.00 26.13 LIG 0.16  HD
BRANCH 36 38
ATOM     38  CA  ILE B   4      53.866  87.217  32.027  1.00 24.17 LIG 0.18  C 
BRANCH 38 39
ATOM     39  CB  ILE B   4      52.948  86.002  31.775  1.00 29.09 LIG 0.01  C 
ATOM     40  CG2 ILE B   4      52.905  85.757  30.305  1.00 25.20 LIG 0.01  C 
BRANCH 39 41
ATOM     41  CG1 ILE B   4      53.468  84.726  32.421  1.00 28.67 LIG 0.00  C 
ATOM     42  CD1 ILE B   4      52.388  83.985  33.170  1.00 34.41 LIG 0.01  C 
ENDBRANCH 39 41
ENDBRANCH 38 39
BRANCH 38 43
ATOM     43  C   ILE B   4      54.022  87.588  33.506  1.00 29.58 LIG 0.24  C 
ATOM     44  N   LEU B   5      52.944  87.399  34.255  1.00 36.70 LIG-0.35  N 
ATOM     45 H    LEU B   5      52.171  87.193  33.940  1.00 36.70 LIG 0.16  HD
ATOM     46 O    ILE B   4      55.107  88.056  33.968  1.00 23.70 LIG-0.27  OA
BRANCH 44 47
ATOM     47  CA  LEU B   5      52.985  87.525  35.691  1.00 37.00 LIG 0.16  C 
BRANCH 47 48
ATOM     48  C   LEU B   5      53.283  88.978  36.112  1.00 42.59 LIG 0.22  C 
ATOM     49 O    LEU B   5      54.413  89.310  36.558  1.00 38.80 LIG-0.29  OA
ENDBRANCH 47 48
BRANCH 47 50
ATOM     50  CB  LEU B   5      54.075  86.599  36.213  1.00 50.59 LIG 0.04  C 
BRANCH 50 51
ATOM     51  CG  LEU B   5      53.799  85.952  37.557  1.00 50.85 LIG-0.02  C 
ATOM     52  CD1 LEU B   5      53.366  84.522  37.314  1.00 54.07 LIG 0.01  C 
ATOM     53  CD2 LEU B   5      55.095  86.012  38.357  1.00 54.33 LIG 0.01  C 
ENDBRANCH 50 51
ENDBRANCH 47 50
ENDBRANCH 44 47
ENDBRANCH 38 43
ENDBRANCH 36 38
ENDBRANCH 33 34
BRANCH 33 54
ATOM     54  CB  LEU B   3      57.831  88.299  30.682  1.00 34.11 LIG 0.04  C 
BRANCH 54 55
ATOM     55  CG  LEU B   3      59.206  87.737  30.548  1.00 35.49 LIG-0.02  C 
ATOM     56  CD1 LEU B   3      60.081  88.776  29.876  1.00 39.12 LIG 0.01  C 
ATOM     57  CD2 LEU B   3      59.627  87.526  31.981  1.00 34.32 LIG 0.01  C 
ENDBRANCH 54 55
ENDBRANCH 33 54
ENDBRANCH 3 33
TORSDOF 22
ENDMDL
MODEL 8
USER: ADFR SOLUTION from run 32
USER: SCORE 19.499297 LL:  -4.183 LR: -17.247 RR:   0.000 FEB: -10.684
USER: RMSD 4.324617
USER: SEED 31
USER: STATUS searching
USER: GENES 24
USER: genes 0 Translation |==|  0.47017 0.45726 0.39339
USER: genes 1 Rotation |==|  0.48050 0.55038 0.45440 0.99498
USER: genes 2 Torsion [N]-C--CA-[N] |==|  0.05997
USER: genes 3 Torsion [C]-CA--CB-[CG] |==|  0.87624
USER: genes 4 Torsion [CA]-CB--CG-[CD] |==|  0.46894
USER: genes 5 Torsion [CB]-CG--CD-[NE] |==|  0.47258
USER: genes 6 Torsion [CG]-CD--NE-[HE] |==|  0.29273
USER: genes 7 Torsion [C]-CA--N-[C] |==|  0.71981
USER: genes 8 Torsion [N]-C--CA-[N] |==|  0.46538
USER: genes 9 Torsion [C]-CA--CB-[CG] |==|  0.19768
USER: genes 10 Torsion [CA]-CB--CG-[OD1] |==|  0.10247
USER: genes 11 Torsion [C]-CA--N-[H1] |==|  0.46999
USER: genes 12 Torsion [C]-N--CA-[CB] |==|  0.37716
USER: genes 13 Torsion [N]-CA--C-[N] |==|  0.33369
USER: genes 14 Torsion [C]-N--CA-[C] |==|  0.75246
USER: genes 15 Torsion [N]-CA--CB-[CG1] |==|  0.21689
USER: genes 16 Torsion [CA]-CB--CG1-[CD1] |==|  0.44952
USER: genes 17 Torsion [N]-CA--C-[N] |==|  0.47222
USER: genes 18 Torsion [C]-N--CA-[C] |==|  0.79688
USER: genes 19 Torsion [N]-CA--C-[O] |==|  0.07129
USER: genes 20 Torsion [N]-CA--CB-[CG] |==|  0.69363
USER: genes 21 Torsion [CA]-CB--CG-[CD1] |==|  0.85081
USER: genes 22 Torsion [N]-CA--CB-[CG] |==|  0.50747
USER: genes 23 Torsion [CA]-CB--CG-[CD1] |==|  0.21666
ROOT
ATOM      1  C   ARG B   2      56.381  86.176  27.435  1.00 25.54 LIG 0.24  C 
ATOM      2 O    ARG B   2      56.635  85.052  27.971  1.00 21.45 LIG-0.27  OA
ATOM      3  N   LEU B   3      56.457  87.309  28.116  1.00 32.00 LIG-0.35  N 
ATOM      4 H    LEU B   3      56.394  88.090  27.762  1.00 32.00 LIG 0.16  HD
ENDROOT
BRANCH 1 5
ATOM      5  CA  ARG B   2      55.939  86.298  25.983  1.00 29.44 LIG 0.18  C 
BRANCH 5 6
ATOM      6  CB  ARG B   2      56.712  85.266  25.103  1.00 37.02 LIG 0.04  C 
BRANCH 6 7
ATOM      7  CG  ARG B   2      58.209  85.201  25.405  1.00 39.92 LIG 0.02  C 
BRANCH 7 8
ATOM      8  CD  ARG B   2      58.845  83.990  24.712  1.00 40.77 LIG 0.14  C 
BRANCH 8 9
ATOM      9  NE  ARG B   2      60.298  84.157  24.864  1.00 48.07 LIG-0.23  N 
ATOM     10 HE   ARG B   2      60.676  83.644  25.443  1.00 48.07 LIG 0.18  HD
ATOM     11  CZ  ARG B   2      61.109  85.006  24.217  1.00 44.36 LIG 0.67  C 
ATOM     12  NH1 ARG B   2      62.419  84.950  24.521  1.00 36.12 LIG-0.23  N 
ATOM     13  NH2 ARG B   2      60.651  85.880  23.291  1.00 39.61 LIG-0.23  N 
ATOM     14 1HH1 ARG B   2      62.701  84.388  25.107  1.00 36.12 LIG 0.17  HD
ATOM     15 2HH1 ARG B   2      62.974  85.477  24.129  1.00 36.12 LIG 0.17  HD
ATOM     16 1HH2 ARG B   2      59.814  85.904  23.100  1.00 39.61 LIG 0.17  HD
ATOM     17 2HH2 ARG B   2      61.199  86.412  22.895  1.00 39.61 LIG 0.17  HD
ENDBRANCH 8 9
ENDBRANCH 7 8
ENDBRANCH 6 7
ENDBRANCH 5 6
BRANCH 5 18
ATOM     18  N   ARG B   2      56.168  87.661  25.471  1.00 32.37 LIG-0.35  N 
ATOM     19 H    ARG B   2      56.975  87.850  25.239  1.00 32.37 LIG 0.16  HD
ATOM     20  C   ASN B   1      55.133  88.475  25.407  1.00 31.22 LIG 0.25  C 
ATOM     21 O    ASN B   1      54.046  88.130  25.816  1.00 24.61 LIG-0.27  OA
BRANCH 20 22
ATOM     22  CA  ASN B   1      55.299  89.883  24.861  1.00 32.89 LIG 0.28  C 
BRANCH 22 23
ATOM     23  CB  ASN B   1      56.148  90.644  25.880  1.00 38.07 LIG 0.14  C 
BRANCH 23 24
ATOM     24  CG  ASN B   1      57.556  90.197  25.889  1.00 44.05 LIG 0.22  C 
ATOM     25  ND2 ASN B   1      58.132  90.143  27.061  1.00 47.62 LIG-0.37  N 
ATOM     26 21HD ASN B   1      58.946  89.876  27.128  1.00 47.62 LIG 0.16  HD
ATOM     27 22HD ASN B   1      57.697  90.375  27.765  1.00 47.62 LIG 0.16  HD
ATOM     28 OD1  ASN B   1      58.133  89.876  24.840  1.00 47.48 LIG-0.27  OA
ENDBRANCH 23 24
ENDBRANCH 22 23
BRANCH 22 29
ATOM     29  N   ASN B   1      54.060  90.653  24.548  1.00 44.58 LIG-0.07  N 
ATOM     30 H1   ASN B   1      54.270  91.503  24.388  1.00 44.58 LIG 0.28  HD
ATOM     31 H3   ASN B   1      53.501  90.610  25.240  1.00 44.58 LIG 0.28  HD
ATOM     32 H2   ASN B   1      53.667  90.305  23.828  1.00 44.58 LIG 0.28  HD
ENDBRANCH 22 29
ENDBRANCH 20 22
ENDBRANCH 5 18
ENDBRANCH 1 5
BRANCH 3 33
ATOM     33  CA  LEU B   3      56.660  87.311  29.556  1.00 27.74 LIG 0.18  C 
BRANCH 33 34
ATOM     34  C   LEU B   3      55.411  87.659  30.267  1.00 25.40 LIG 0.24  C 
ATOM     35 O    LEU B   3      54.856  88.733  30.073  1.00 26.81 LIG-0.27  OA
ATOM     36  N   ILE B   4      54.937  86.768  31.103  1.00 26.13 LIG-0.35  N 
ATOM     37 H    ILE B   4      55.249  85.972  31.198  1.00 26.13 LIG 0.16  HD
BRANCH 36 38
ATOM     38  CA  ILE B   4      53.855  87.079  31.916  1.00 24.17 LIG 0.18  C 
BRANCH 38 39
ATOM     39  CB  ILE B   4      53.025  85.786  32.061  1.00 29.09 LIG 0.01  C 
ATOM     40  CG2 ILE B   4      53.006  85.102  30.736  1.00 25.20 LIG 0.01  C 
BRANCH 39 41
ATOM     41  CG1 ILE B   4      53.630  84.805  33.056  1.00 28.67 LIG 0.00  C 
ATOM     42  CD1 ILE B   4      52.632  83.774  33.520  1.00 34.41 LIG 0.01  C 
ENDBRANCH 39 41
ENDBRANCH 38 39
BRANCH 38 43
ATOM     43  C   ILE B   4      54.290  87.697  33.249  1.00 29.58 LIG 0.24  C 
ATOM     44  N   LEU B   5      53.310  88.207  33.985  1.00 36.70 LIG-0.35  N 
ATOM     45 H    LEU B   5      52.502  88.299  33.708  1.00 36.70 LIG 0.16  HD
ATOM     46 O    ILE B   4      55.507  87.727  33.609  1.00 23.70 LIG-0.27  OA
BRANCH 44 47
ATOM     47  CA  LEU B   5      53.531  88.656  35.337  1.00 37.00 LIG 0.16  C 
BRANCH 47 48
ATOM     48  C   LEU B   5      53.715  87.463  36.295  1.00 42.59 LIG 0.22  C 
ATOM     49 O    LEU B   5      54.137  86.351  35.881  1.00 38.80 LIG-0.29  OA
ENDBRANCH 47 48
BRANCH 47 50
ATOM     50  CB  LEU B   5      52.325  89.483  35.761  1.00 50.59 LIG 0.04  C 
BRANCH 50 51
ATOM     51  CG  LEU B   5      52.573  90.971  35.924  1.00 50.85 LIG-0.02  C 
ATOM     52  CD1 LEU B   5      53.741  91.157  36.868  1.00 54.07 LIG 0.01  C 
ATOM     53  CD2 LEU B   5      52.882  91.527  34.539  1.00 54.33 LIG 0.01  C 
ENDBRANCH 50 51
ENDBRANCH 47 50
ENDBRANCH 44 47
ENDBRANCH 38 43
ENDBRANCH 36 38
ENDBRANCH 33 34
BRANCH 33 54
ATOM     54  CB  LEU B   3      57.699  88.356  29.885  1.00 34.11 LIG 0.04  C 
BRANCH 54 55
ATOM     55  CG  LEU B   3      57.946  88.303  31.355  1.00 35.49 LIG-0.02  C 
ATOM     56  CD1 LEU B   3      58.845  87.116  31.643  1.00 39.12 LIG 0.01  C 
ATOM     57  CD2 LEU B   3      58.666  89.600  31.624  1.00 34.32 LIG 0.01  C 
ENDBRANCH 54 55
ENDBRANCH 33 54
ENDBRANCH 3 33
TORSDOF 22
ENDMDL
MODEL 9
USER: ADFR SOLUTION from run 132
USER: SCORE 19.733009 LL:  -3.822 LR: -17.253 RR:   0.000 FEB: -10.690
USER: RMSD 2.984146
USER: SEED 131
USER: STATUS no improvement in best in 5 clusters for 5 generations
USER: GENES 24
USER: genes 0 Translation |==|  0.50116 0.46713 0.38385
USER: genes 1 Rotation |==|  0.58082 0.47358 0.50605 0.99268
USER: genes 2 Torsion [N]-C--CA-[N] |==|  0.46081
USER: genes 3 Torsion [C]-CA--CB-[CG] |==|  0.22438
USER: genes 4 Torsion [CA]-CB--CG-[CD] |==|  0.17400
USER: genes 5 Torsion [CB]-CG--CD-[NE] |==|  0.73169
USER: genes 6 Torsion [CG]-CD--NE-[HE] |==|  0.80309
USER: genes 7 Torsion [C]-CA--N-[C] |==|  0.80334
USER: genes 8 Torsion [N]-C--CA-[N] |==|  0.30470
USER: genes 9 Torsion [C]-CA--CB-[CG] |==|  0.59001
USER: genes 10 Torsion [CA]-CB--CG-[OD1] |==|  0.72716
USER: genes 11 Torsion [C]-CA--N-[H1] |==|  0.36368
USER: genes 12 Torsion [C]-N--CA-[CB] |==|  0.28889
USER: genes 13 Torsion [N]-CA--C-[N] |==|  0.43019
USER: genes 14 Torsion [C]-N--CA-[C] |==|  0.76887
USER: genes 15 Torsion [N]-CA--CB-[CG1] |==|  0.17861
USER: genes 16 Torsion [CA]-CB--CG1-[CD1] |==|  0.28707
USER: genes 17 Torsion [N]-CA--C-[N] |==|  0.43344
USER: genes 18 Torsion [C]-N--CA-[C] |==|  0.81933
USER: genes 19 Torsion [N]-CA--C-[O] |==|  0.23662
USER: genes 20 Torsion [N]-CA--CB-[CG] |==|  0.72495
USER: genes 21 Torsion [CA]-CB--CG-[CD1] |==|  0.38963
USER: genes 22 Torsion [N]-CA--CB-[CG] |==|  0.12245
USER: genes 23 Torsion [CA]-CB--CG-[CD1] |==|  0.30420
ROOT
ATOM      1  C   ARG B   2      57.031  86.361  27.228  1.00 25.54 LIG 0.24  C 
ATOM      2 O    ARG B   2      57.378  85.149  27.395  1.00 21.45 LIG-0.27  OA
ATOM      3  N   LEU B   3      56.644  87.123  28.238  1.00 32.00 LIG-0.35  N 
ATOM      4 H    LEU B   3      56.504  87.970  28.179  1.00 32.00 LIG 0.16  HD
ENDROOT
BRANCH 1 5
ATOM      5  CA  ARG B   2      57.006  87.012  25.852  1.00 29.44 LIG 0.18  C 
BRANCH 5 6
ATOM      6  CB  ARG B   2      55.531  87.186  25.371  1.00 37.02 LIG 0.04  C 
BRANCH 6 7
ATOM      7  CG  ARG B   2      54.831  88.408  25.964  1.00 39.92 LIG 0.02  C 
BRANCH 7 8
ATOM      8  CD  ARG B   2      55.536  89.697  25.525  1.00 40.77 LIG 0.14  C 
BRANCH 8 9
ATOM      9  NE  ARG B   2      56.446  90.052  26.625  1.00 48.07 LIG-0.23  N 
ATOM     10 HE   ARG B   2      56.072  90.334  27.346  1.00 48.07 LIG 0.18  HD
ATOM     11  CZ  ARG B   2      57.785  89.990  26.646  1.00 44.36 LIG 0.67  C 
ATOM     12  NH1 ARG B   2      58.394  90.351  27.791  1.00 36.12 LIG-0.23  N 
ATOM     13  NH2 ARG B   2      58.509  89.579  25.579  1.00 39.61 LIG-0.23  N 
ATOM     14 1HH1 ARG B   2      57.926  90.606  28.466  1.00 36.12 LIG 0.17  HD
ATOM     15 2HH1 ARG B   2      59.252  90.327  27.848  1.00 36.12 LIG 0.17  HD
ATOM     16 1HH2 ARG B   2      58.110  89.345  24.855  1.00 39.61 LIG 0.17  HD
ATOM     17 2HH2 ARG B   2      59.367  89.552  25.627  1.00 39.61 LIG 0.17  HD
ENDBRANCH 8 9
ENDBRANCH 7 8
ENDBRANCH 6 7
ENDBRANCH 5 6
BRANCH 5 18
ATOM     18  N   ARG B   2      57.759  86.210  24.870  1.00 32.37 LIG-0.35  N 
ATOM     19 H    ARG B   2      57.292  85.805  24.273  1.00 32.37 LIG 0.16  HD
ATOM     20  C   ASN B   1      59.073  86.177  24.982  1.00 31.22 LIG 0.25  C 
ATOM     21 O    ASN B   1      59.632  86.737  25.900  1.00 24.61 LIG-0.27  OA
BRANCH 20 22
ATOM     22  CA  ASN B   1      59.906  85.392  23.984  1.00 32.89 LIG 0.28  C 
BRANCH 22 23
ATOM     23  CB  ASN B   1      60.785  84.447  24.805  1.00 38.07 LIG 0.14  C 
BRANCH 23 24
ATOM     24  CG  ASN B   1      62.095  84.199  24.169  1.00 44.05 LIG 0.22  C 
ATOM     25  ND2 ASN B   1      63.015  85.103  24.381  1.00 47.62 LIG-0.37  N 
ATOM     26 21HD ASN B   1      63.801  85.003  24.048  1.00 47.62 LIG 0.16  HD
ATOM     27 22HD ASN B   1      62.835  85.797  24.855  1.00 47.62 LIG 0.16  HD
ATOM     28 OD1  ASN B   1      62.297  83.178  23.495  1.00 47.48 LIG-0.27  OA
ENDBRANCH 23 24
ENDBRANCH 22 23
BRANCH 22 29
ATOM     29  N   ASN B   1      60.743  86.167  23.022  1.00 44.58 LIG-0.07  N 
ATOM     30 H1   ASN B   1      61.571  85.842  23.019  1.00 44.58 LIG 0.28  HD
ATOM     31 H3   ASN B   1      60.762  87.023  23.267  1.00 44.58 LIG 0.28  HD
ATOM     32 H2   ASN B   1      60.396  86.100  22.205  1.00 44.58 LIG 0.28  HD
ENDBRANCH 22 29
ENDBRANCH 20 22
ENDBRANCH 5 18
ENDBRANCH 1 5
BRANCH 3 33
ATOM     33  CA  LEU B   3      56.421  86.564  29.563  1.00 27.74 LIG 0.18  C 
BRANCH 33 34
ATOM     34  C   LEU B   3      55.193  87.117  30.172  1.00 25.40 LIG 0.24  C 
ATOM     35 O    LEU B   3      54.759  88.210  29.833  1.00 26.81 LIG-0.27  OA
ATOM     36  N   ILE B   4      54.600  86.380  31.081  1.00 26.13 LIG-0.35  N 
ATOM     37 H    ILE B   4      54.823  85.574  31.279  1.00 26.13 LIG 0.16  HD
BRANCH 36 38
ATOM     38  CA  ILE B   4      53.529  86.891  31.803  1.00 24.17 LIG 0.18  C 
BRANCH 38 39
ATOM     39  CB  ILE B   4      52.640  85.689  32.185  1.00 29.09 LIG 0.01  C 
ATOM     40  CG2 ILE B   4      52.318  84.941  30.936  1.00 25.20 LIG 0.01  C 
BRANCH 39 41
ATOM     41  CG1 ILE B   4      53.340  84.710  33.117  1.00 28.67 LIG 0.00  C 
ATOM     42  CD1 ILE B   4      52.870  84.846  34.544  1.00 34.41 LIG 0.01  C 
ENDBRANCH 39 41
ENDBRANCH 38 39
BRANCH 38 43
ATOM     43  C   ILE B   4      53.987  87.736  32.997  1.00 29.58 LIG 0.24  C 
ATOM     44  N   LEU B   5      53.110  88.636  33.425  1.00 36.70 LIG-0.35  N 
ATOM     45 H    LEU B   5      52.381  88.828  33.012  1.00 36.70 LIG 0.16  HD
ATOM     46 O    ILE B   4      55.132  87.589  33.523  1.00 23.70 LIG-0.27  OA
BRANCH 44 47
ATOM     47  CA  LEU B   5      53.316  89.376  34.644  1.00 37.00 LIG 0.16  C 
BRANCH 47 48
ATOM     48  C   LEU B   5      53.295  88.443  35.871  1.00 42.59 LIG 0.22  C 
ATOM     49 O    LEU B   5      54.333  87.833  36.245  1.00 38.80 LIG-0.29  OA
ENDBRANCH 47 48
BRANCH 47 50
ATOM     50  CB  LEU B   5      52.204  90.411  34.760  1.00 50.59 LIG 0.04  C 
BRANCH 50 51
ATOM     51  CG  LEU B   5      52.568  91.818  34.325  1.00 50.85 LIG-0.02  C 
ATOM     52  CD1 LEU B   5      51.389  92.403  33.579  1.00 54.07 LIG 0.01  C 
ATOM     53  CD2 LEU B   5      52.876  92.611  35.590  1.00 54.33 LIG 0.01  C 
ENDBRANCH 50 51
ENDBRANCH 47 50
ENDBRANCH 44 47
ENDBRANCH 38 43
ENDBRANCH 36 38
ENDBRANCH 33 34
BRANCH 33 54
ATOM     54  CB  LEU B   3      57.593  86.940  30.437  1.00 34.11 LIG 0.04  C 
BRANCH 54 55
ATOM     55  CG  LEU B   3      57.902  88.377  30.187  1.00 35.49 LIG-0.02  C 
ATOM     56  CD1 LEU B   3      57.506  89.170  31.418  1.00 39.12 LIG 0.01  C 
ATOM     57  CD2 LEU B   3      59.399  88.376  30.008  1.00 34.32 LIG 0.01  C 
ENDBRANCH 54 55
ENDBRANCH 33 54
ENDBRANCH 3 33
TORSDOF 22
ENDMDL
MODEL 10
USER: ADFR SOLUTION from run 120
USER: SCORE 20.251379 LL:  -3.568 LR: -17.160 RR:   0.000 FEB: -10.597
USER: RMSD 4.400362
USER: SEED 119
USER: STATUS no improvement in best in 5 clusters for 5 generations
USER: GENES 24
USER: genes 0 Translation |==|  0.54959 0.55026 0.39210
USER: genes 1 Rotation |==|  0.55034 0.48210 0.18962 0.88834
USER: genes 2 Torsion [N]-C--CA-[N] |==|  0.36678
USER: genes 3 Torsion [C]-CA--CB-[CG] |==|  0.26062
USER: genes 4 Torsion [CA]-CB--CG-[CD] |==|  0.21797
USER: genes 5 Torsion [CB]-CG--CD-[NE] |==|  0.26182
USER: genes 6 Torsion [CG]-CD--NE-[HE] |==|  0.02498
USER: genes 7 Torsion [C]-CA--N-[C] |==|  0.84770
USER: genes 8 Torsion [N]-C--CA-[N] |==|  0.49713
USER: genes 9 Torsion [C]-CA--CB-[CG] |==|  0.82196
USER: genes 10 Torsion [CA]-CB--CG-[OD1] |==|  0.13951
USER: genes 11 Torsion [C]-CA--N-[H1] |==|  0.29928
USER: genes 12 Torsion [C]-N--CA-[CB] |==|  0.55666
USER: genes 13 Torsion [N]-CA--C-[N] |==|  0.37125
USER: genes 14 Torsion [C]-N--CA-[C] |==|  0.64995
USER: genes 15 Torsion [N]-CA--CB-[CG1] |==|  0.36883
USER: genes 16 Torsion [CA]-CB--CG1-[CD1] |==|  0.70845
USER: genes 17 Torsion [N]-CA--C-[N] |==|  0.42265
USER: genes 18 Torsion [C]-N--CA-[C] |==|  0.84206
USER: genes 19 Torsion [N]-CA--C-[O] |==|  0.23203
USER: genes 20 Torsion [N]-CA--CB-[CG] |==|  0.90999
USER: genes 21 Torsion [CA]-CB--CG-[CD1] |==|  0.32437
USER: genes 22 Torsion [N]-CA--CB-[CG] |==|  0.53846
USER: genes 23 Torsion [CA]-CB--CG-[CD1] |==|  0.18525
ROOT
ATOM      1  C   ARG B   2      58.048  87.919  27.407  1.00 25.54 LIG 0.24  C 
ATOM      2 O    ARG B   2      56.975  87.287  27.658  1.00 21.45 LIG-0.27  OA
ATOM      3  N   LEU B   3      58.866  88.320  28.369  1.00 32.00 LIG-0.35  N 
ATOM      4 H    LEU B   3      59.645  88.656  28.231  1.00 32.00 LIG 0.16  HD
ENDROOT
BRANCH 1 5
ATOM      5  CA  ARG B   2      58.455  88.290  25.988  1.00 29.44 LIG 0.18  C 
BRANCH 5 6
ATOM      6  CB  ARG B   2      57.542  89.438  25.454  1.00 37.02 LIG 0.04  C 
BRANCH 6 7
ATOM      7  CG  ARG B   2      58.124  90.835  25.667  1.00 39.92 LIG 0.02  C 
BRANCH 7 8
ATOM      8  CD  ARG B   2      59.198  91.136  24.614  1.00 40.77 LIG 0.14  C 
BRANCH 8 9
ATOM      9  NE  ARG B   2      58.508  91.851  23.529  1.00 48.07 LIG-0.23  N 
ATOM     10 HE   ARG B   2      57.697  92.087  23.692  1.00 48.07 LIG 0.18  HD
ATOM     11  CZ  ARG B   2      58.981  92.179  22.319  1.00 44.36 LIG 0.67  C 
ATOM     12  NH1 ARG B   2      58.154  92.860  21.504  1.00 36.12 LIG-0.23  N 
ATOM     13  NH2 ARG B   2      60.234  91.858  21.920  1.00 39.61 LIG-0.23  N 
ATOM     14 1HH1 ARG B   2      57.361  93.064  21.768  1.00 36.12 LIG 0.17  HD
ATOM     15 2HH1 ARG B   2      58.417  93.090  20.719  1.00 36.12 LIG 0.17  HD
ATOM     16 1HH2 ARG B   2      60.757  91.429  22.449  1.00 39.61 LIG 0.17  HD
ATOM     17 2HH2 ARG B   2      60.506  92.084  21.136  1.00 39.61 LIG 0.17  HD
ENDBRANCH 8 9
ENDBRANCH 7 8
ENDBRANCH 6 7
ENDBRANCH 5 6
BRANCH 5 18
ATOM     18  N   ARG B   2      58.367  87.125  25.088  1.00 32.37 LIG-0.35  N 
ATOM     19 H    ARG B   2      57.884  87.224  24.384  1.00 32.37 LIG 0.16  HD
ATOM     20  C   ASN B   1      59.027  86.035  25.428  1.00 31.22 LIG 0.25  C 
ATOM     21 O    ASN B   1      59.632  85.978  26.477  1.00 24.61 LIG-0.27  OA
BRANCH 20 22
ATOM     22  CA  ASN B   1      58.998  84.811  24.529  1.00 32.89 LIG 0.28  C 
BRANCH 22 23
ATOM     23  CB  ASN B   1      57.526  84.436  24.357  1.00 38.07 LIG 0.14  C 
BRANCH 23 24
ATOM     24  CG  ASN B   1      56.895  84.028  25.629  1.00 44.05 LIG 0.22  C 
ATOM     25  ND2 ASN B   1      56.256  82.887  25.611  1.00 47.62 LIG-0.37  N 
ATOM     26 21HD ASN B   1      55.882  82.592  26.327  1.00 47.62 LIG 0.16  HD
ATOM     27 22HD ASN B   1      56.210  82.431  24.884  1.00 47.62 LIG 0.16  HD
ATOM     28 OD1  ASN B   1      56.994  84.727  26.647  1.00 47.48 LIG-0.27  OA
ENDBRANCH 23 24
ENDBRANCH 22 23
BRANCH 22 29
ATOM     29  N   ASN B   1      59.785  83.619  24.960  1.00 44.58 LIG-0.07  N 
ATOM     30 H1   ASN B   1      59.230  82.979  25.234  1.00 44.58 LIG 0.28  HD
ATOM     31 H3   ASN B   1      60.327  83.847  25.629  1.00 44.58 LIG 0.28  HD
ATOM     32 H2   ASN B   1      60.269  83.319  24.276  1.00 44.58 LIG 0.28  HD
ENDBRANCH 22 29
ENDBRANCH 20 22
ENDBRANCH 5 18
ENDBRANCH 1 5
BRANCH 3 33
ATOM     33  CA  LEU B   3      58.489  88.217  29.770  1.00 27.74 LIG 0.18  C 
BRANCH 33 34
ATOM     34  C   LEU B   3      57.073  88.593  29.967  1.00 25.40 LIG 0.24  C 
ATOM     35 O    LEU B   3      56.611  89.601  29.447  1.00 26.81 LIG-0.27  OA
ATOM     36  N   ILE B   4      56.348  87.798  30.716  1.00 26.13 LIG-0.35  N 
ATOM     37 H    ILE B   4      56.612  87.040  31.023  1.00 26.13 LIG 0.16  HD
BRANCH 36 38
ATOM     38  CA  ILE B   4      55.054  88.160  31.069  1.00 24.17 LIG 0.18  C 
BRANCH 38 39
ATOM     39  CB  ILE B   4      54.105  87.242  30.270  1.00 29.09 LIG 0.01  C 
ATOM     40  CG2 ILE B   4      54.910  86.110  29.729  1.00 25.20 LIG 0.01  C 
BRANCH 39 41
ATOM     41  CG1 ILE B   4      53.009  86.632  31.132  1.00 28.67 LIG 0.00  C 
ATOM     42  CD1 ILE B   4      53.263  85.176  31.433  1.00 34.41 LIG 0.01  C 
ENDBRANCH 39 41
ENDBRANCH 38 39
BRANCH 38 43
ATOM     43  C   ILE B   4      54.834  88.119  32.586  1.00 29.58 LIG 0.24  C 
ATOM     44  N   LEU B   5      53.907  88.950  33.047  1.00 36.70 LIG-0.35  N 
ATOM     45 H    LEU B   5      53.526  89.555  32.570  1.00 36.70 LIG 0.16  HD
ATOM     46 O    ILE B   4      55.507  87.352  33.341  1.00 23.70 LIG-0.27  OA
BRANCH 44 47
ATOM     47  CA  LEU B   5      53.458  88.900  34.416  1.00 37.00 LIG 0.16  C 
BRANCH 47 48
ATOM     48  C   LEU B   5      52.920  87.500  34.773  1.00 42.59 LIG 0.22  C 
ATOM     49 O    LEU B   5      53.697  86.572  35.123  1.00 38.80 LIG-0.29  OA
ENDBRANCH 47 48
BRANCH 47 50
ATOM     50  CB  LEU B   5      52.357  89.938  34.588  1.00 50.59 LIG 0.04  C 
BRANCH 50 51
ATOM     51  CG  LEU B   5      52.492  91.186  33.735  1.00 50.85 LIG-0.02  C 
ATOM     52  CD1 LEU B   5      51.310  91.246  32.793  1.00 54.07 LIG 0.01  C 
ATOM     53  CD2 LEU B   5      52.508  92.377  34.686  1.00 54.33 LIG 0.01  C 
ENDBRANCH 50 51
ENDBRANCH 47 50
ENDBRANCH 44 47
ENDBRANCH 38 43
ENDBRANCH 36 38
ENDBRANCH 33 34
BRANCH 33 54
ATOM     54  CB  LEU B   3      59.347  89.175  30.562  1.00 34.11 LIG 0.04  C 
BRANCH 54 55
ATOM     55  CG  LEU B   3      59.202  88.827  32.004  1.00 35.49 LIG-0.02  C 
ATOM     56  CD1 LEU B   3      59.821  87.461  32.227  1.00 39.12 LIG 0.01  C 
ATOM     57  CD2 LEU B   3      60.007  89.900  32.694  1.00 34.32 LIG 0.01  C 
ENDBRANCH 54 55
ENDBRANCH 33 54
ENDBRANCH 3 33
TORSDOF 22
ENDMDL
MODEL 11
USER: ADFR SOLUTION from run 38
USER: SCORE 18.957262 LL:  -3.993 LR: -17.099 RR:   0.000 FEB: -10.537
USER: RMSD 4.860204
USER: SEED 37
USER: STATUS no improvement in best in 6 clusters for 5 generations
USER: GENES 24
USER: genes 0 Translation |==|  0.43464 0.42962 0.36346
USER: genes 1 Rotation |==|  0.51572 0.57538 0.55887 0.99051
USER: genes 2 Torsion [N]-C--CA-[N] |==|  0.71984
USER: genes 3 Torsion [C]-CA--CB-[CG] |==|  0.21952
USER: genes 4 Torsion [CA]-CB--CG-[CD] |==|  0.56802
USER: genes 5 Torsion [CB]-CG--CD-[NE] |==|  0.29087
USER: genes 6 Torsion [CG]-CD--NE-[HE] |==|  0.65184
USER: genes 7 Torsion [C]-CA--N-[C] |==|  0.64121
USER: genes 8 Torsion [N]-C--CA-[N] |==|  0.54308
USER: genes 9 Torsion [C]-CA--CB-[CG] |==|  0.40398
USER: genes 10 Torsion [CA]-CB--CG-[OD1] |==|  0.96036
USER: genes 11 Torsion [C]-CA--N-[H1] |==|  0.48668
USER: genes 12 Torsion [C]-N--CA-[CB] |==|  0.28798
USER: genes 13 Torsion [N]-CA--C-[N] |==|  0.38329
USER: genes 14 Torsion [C]-N--CA-[C] |==|  0.74966
USER: genes 15 Torsion [N]-CA--CB-[CG1] |==|  0.21619
USER: genes 16 Torsion [CA]-CB--CG1-[CD1] |==|  0.40138
USER: genes 17 Torsion [N]-CA--C-[N] |==|  0.47558
USER: genes 18 Torsion [C]-N--CA-[C] |==|  0.75332
USER: genes 19 Torsion [N]-CA--C-[O] |==|  0.09236
USER: genes 20 Torsion [N]-CA--CB-[CG] |==|  0.81500
USER: genes 21 Torsion [CA]-CB--CG-[CD1] |==|  0.24824
USER: genes 22 Torsion [N]-CA--CB-[CG] |==|  0.41354
USER: genes 23 Torsion [CA]-CB--CG-[CD1] |==|  0.34736
ROOT
ATOM      1  C   ARG B   2      55.634  85.657  26.784  1.00 25.54 LIG 0.24  C 
ATOM      2 O    ARG B   2      56.363  84.653  27.060  1.00 21.45 LIG-0.27  OA
ATOM      3  N   LEU B   3      55.375  86.600  27.677  1.00 32.00 LIG-0.35  N 
ATOM      4 H    LEU B   3      54.976  87.340  27.496  1.00 32.00 LIG 0.16  HD
ENDROOT
BRANCH 1 5
ATOM      5  CA  ARG B   2      54.982  85.833  25.420  1.00 29.44 LIG 0.18  C 
BRANCH 5 6
ATOM      6  CB  ARG B   2      54.584  87.327  25.208  1.00 37.02 LIG 0.04  C 
BRANCH 6 7
ATOM      7  CG  ARG B   2      55.755  88.225  24.809  1.00 39.92 LIG 0.02  C 
BRANCH 7 8
ATOM      8  CD  ARG B   2      55.473  89.681  25.199  1.00 40.77 LIG 0.14  C 
BRANCH 8 9
ATOM      9  NE  ARG B   2      56.299  89.945  26.387  1.00 48.07 LIG-0.23  N 
ATOM     10 HE   ARG B   2      55.880  90.240  27.077  1.00 48.07 LIG 0.18  HD
ATOM     11  CZ  ARG B   2      57.622  89.784  26.531  1.00 44.36 LIG 0.67  C 
ATOM     12  NH1 ARG B   2      58.145  90.076  27.736  1.00 36.12 LIG-0.23  N 
ATOM     13  NH2 ARG B   2      58.411  89.340  25.525  1.00 39.61 LIG-0.23  N 
ATOM     14 1HH1 ARG B   2      57.635  90.352  28.371  1.00 36.12 LIG 0.17  HD
ATOM     15 2HH1 ARG B   2      58.989  89.986  27.872  1.00 36.12 LIG 0.17  HD
ATOM     16 1HH2 ARG B   2      58.067  89.151  24.761  1.00 39.61 LIG 0.17  HD
ATOM     17 2HH2 ARG B   2      59.257  89.248  25.651  1.00 39.61 LIG 0.17  HD
ENDBRANCH 8 9
ENDBRANCH 7 8
ENDBRANCH 6 7
ENDBRANCH 5 6
BRANCH 5 18
ATOM     18  N   ARG B   2      53.789  84.976  25.287  1.00 32.37 LIG-0.35  N 
ATOM     19 H    ARG B   2      53.212  85.026  25.923  1.00 32.37 LIG 0.16  HD
ATOM     20  C   ASN B   1      53.699  84.210  24.217  1.00 31.22 LIG 0.25  C 
ATOM     21 O    ASN B   1      54.600  84.169  23.406  1.00 24.61 LIG-0.27  OA
BRANCH 20 22
ATOM     22  CA  ASN B   1      52.481  83.327  24.009  1.00 32.89 LIG 0.28  C 
BRANCH 22 23
ATOM     23  CB  ASN B   1      52.135  82.739  25.378  1.00 38.07 LIG 0.14  C 
BRANCH 23 24
ATOM     24  CG  ASN B   1      50.680  82.572  25.569  1.00 44.05 LIG 0.22  C 
ATOM     25  ND2 ASN B   1      50.318  81.838  26.588  1.00 47.62 LIG-0.37  N 
ATOM     26 21HD ASN B   1      49.483  81.719  26.757  1.00 47.62 LIG 0.16  HD
ATOM     27 22HD ASN B   1      50.913  81.475  27.091  1.00 47.62 LIG 0.16  HD
ATOM     28 OD1  ASN B   1      49.867  83.120  24.811  1.00 47.48 LIG-0.27  OA
ENDBRANCH 23 24
ENDBRANCH 22 23
BRANCH 22 29
ATOM     29  N   ASN B   1      52.584  82.238  22.993  1.00 44.58 LIG-0.07  N 
ATOM     30 H1   ASN B   1      51.842  81.747  23.008  1.00 44.58 LIG 0.28  HD
ATOM     31 H3   ASN B   1      53.285  81.722  23.181  1.00 44.58 LIG 0.28  HD
ATOM     32 H2   ASN B   1      52.687  82.595  22.184  1.00 44.58 LIG 0.28  HD
ENDBRANCH 22 29
ENDBRANCH 20 22
ENDBRANCH 5 18
ENDBRANCH 1 5
BRANCH 3 33
ATOM     33  CA  LEU B   3      55.761  86.444  29.071  1.00 27.74 LIG 0.18  C 
BRANCH 33 34
ATOM     34  C   LEU B   3      54.685  86.906  29.974  1.00 25.40 LIG 0.24  C 
ATOM     35 O    LEU B   3      54.059  87.931  29.735  1.00 26.81 LIG-0.27  OA
ATOM     36  N   ILE B   4      54.438  86.166  31.027  1.00 26.13 LIG-0.35  N 
ATOM     37 H    ILE B   4      54.793  85.398  31.180  1.00 26.13 LIG 0.16  HD
BRANCH 36 38
ATOM     38  CA  ILE B   4      53.547  86.608  31.997  1.00 24.17 LIG 0.18  C 
BRANCH 38 39
ATOM     39  CB  ILE B   4      52.801  85.359  32.513  1.00 29.09 LIG 0.01  C 
ATOM     40  CG2 ILE B   4      52.510  84.482  31.342  1.00 25.20 LIG 0.01  C 
BRANCH 39 41
ATOM     41  CG1 ILE B   4      53.632  84.535  33.486  1.00 28.67 LIG 0.00  C 
ATOM     42  CD1 ILE B   4      52.790  83.919  34.576  1.00 34.41 LIG 0.01  C 
ENDBRANCH 39 41
ENDBRANCH 38 39
BRANCH 38 43
ATOM     43  C   ILE B   4      54.243  87.420  33.096  1.00 29.58 LIG 0.24  C 
ATOM     44  N   LEU B   5      53.431  88.025  33.954  1.00 36.70 LIG-0.35  N 
ATOM     45 H    LEU B   5      52.578  88.068  33.858  1.00 36.70 LIG 0.16  HD
ATOM     46 O    ILE B   4      55.507  87.513  33.162  1.00 23.70 LIG-0.27  OA
BRANCH 44 47
ATOM     47  CA  LEU B   5      53.929  88.671  35.143  1.00 37.00 LIG 0.16  C 
BRANCH 47 48
ATOM     48  C   LEU B   5      54.003  87.682  36.323  1.00 42.59 LIG 0.22  C 
ATOM     49 O    LEU B   5      54.270  86.464  36.139  1.00 38.80 LIG-0.29  OA
ENDBRANCH 47 48
BRANCH 47 50
ATOM     50  CB  LEU B   5      52.987  89.818  35.484  1.00 50.59 LIG 0.04  C 
BRANCH 50 51
ATOM     51  CG  LEU B   5      52.961  90.965  34.492  1.00 50.85 LIG-0.02  C 
ATOM     52  CD1 LEU B   5      51.907  90.665  33.448  1.00 54.07 LIG 0.01  C 
ATOM     53  CD2 LEU B   5      52.624  92.227  35.277  1.00 54.33 LIG 0.01  C 
ENDBRANCH 50 51
ENDBRANCH 47 50
ENDBRANCH 44 47
ENDBRANCH 38 43
ENDBRANCH 36 38
ENDBRANCH 33 34
BRANCH 33 54
ATOM     54  CB  LEU B   3      56.984  87.295  29.320  1.00 34.11 LIG 0.04  C 
BRANCH 54 55
ATOM     55  CG  LEU B   3      56.935  87.754  30.738  1.00 35.49 LIG-0.02  C 
ATOM     56  CD1 LEU B   3      58.231  87.349  31.413  1.00 39.12 LIG 0.01  C 
ATOM     57  CD2 LEU B   3      56.844  89.254  30.606  1.00 34.32 LIG 0.01  C 
ENDBRANCH 54 55
ENDBRANCH 33 54
ENDBRANCH 3 33
TORSDOF 22
ENDMDL
MODEL 12
USER: ADFR SOLUTION from run 191
USER: SCORE 18.721903 LL:  -4.080 LR: -17.093 RR:   0.000 FEB: -10.530
USER: RMSD 3.498418
USER: SEED 190
USER: STATUS no improvement in best in 8 clusters for 5 generations
USER: GENES 24
USER: genes 0 Translation |==|  0.45797 0.45555 0.38190
USER: genes 1 Rotation |==|  0.49548 0.56732 0.53017 0.99451
USER: genes 2 Torsion [N]-C--CA-[N] |==|  0.14299
USER: genes 3 Torsion [C]-CA--CB-[CG] |==|  0.29844
USER: genes 4 Torsion [CA]-CB--CG-[CD] |==|  0.53411
USER: genes 5 Torsion [CB]-CG--CD-[NE] |==|  0.56644
USER: genes 6 Torsion [CG]-CD--NE-[HE] |==|  0.73009
USER: genes 7 Torsion [C]-CA--N-[C] |==|  0.75000
USER: genes 8 Torsion [N]-C--CA-[N] |==|  0.39809
USER: genes 9 Torsion [C]-CA--CB-[CG] |==|  0.19279
USER: genes 10 Torsion [CA]-CB--CG-[OD1] |==|  0.11466
USER: genes 11 Torsion [C]-CA--N-[H1] |==|  0.32450
USER: genes 12 Torsion [C]-N--CA-[CB] |==|  0.32897
USER: genes 13 Torsion [N]-CA--C-[N] |==|  0.35323
USER: genes 14 Torsion [C]-N--CA-[C] |==|  0.73444
USER: genes 15 Torsion [N]-CA--CB-[CG1] |==|  0.20133
USER: genes 16 Torsion [CA]-CB--CG1-[CD1] |==|  0.40472
USER: genes 17 Torsion [N]-CA--C-[N] |==|  0.51444
USER: genes 18 Torsion [C]-N--CA-[C] |==|  0.70741
USER: genes 19 Torsion [N]-CA--C-[O] |==|  0.11378
USER: genes 20 Torsion [N]-CA--CB-[CG] |==|  0.66679
USER: genes 21 Torsion [CA]-CB--CG-[CD1] |==|  0.42490
USER: genes 22 Torsion [N]-CA--CB-[CG] |==|  0.47173
USER: genes 23 Torsion [CA]-CB--CG-[CD1] |==|  0.26460
ROOT
ATOM      1  C   ARG B   2      56.124  86.144  27.185  1.00 25.54 LIG 0.24  C 
ATOM      2 O    ARG B   2      56.733  85.102  27.584  1.00 21.45 LIG-0.27  OA
ATOM      3  N   LEU B   3      55.934  87.189  27.976  1.00 32.00 LIG-0.35  N 
ATOM      4 H    LEU B   3      55.621  87.945  27.710  1.00 32.00 LIG 0.16  HD
ENDROOT
BRANCH 1 5
ATOM      5  CA  ARG B   2      55.542  86.253  25.783  1.00 29.44 LIG 0.18  C 
BRANCH 5 6
ATOM      6  CB  ARG B   2      55.993  85.031  24.922  1.00 37.02 LIG 0.04  C 
BRANCH 6 7
ATOM      7  CG  ARG B   2      54.875  84.024  24.652  1.00 39.92 LIG 0.02  C 
BRANCH 7 8
ATOM      8  CD  ARG B   2      55.450  82.725  24.075  1.00 40.77 LIG 0.14  C 
BRANCH 8 9
ATOM      9  NE  ARG B   2      54.349  82.094  23.331  1.00 48.07 LIG-0.23  N 
ATOM     10 HE   ARG B   2      53.913  81.484  23.752  1.00 48.07 LIG 0.18  HD
ATOM     11  CZ  ARG B   2      53.939  82.350  22.081  1.00 44.36 LIG 0.67  C 
ATOM     12  NH1 ARG B   2      52.883  81.647  21.629  1.00 36.12 LIG-0.23  N 
ATOM     13  NH2 ARG B   2      54.540  83.274  21.296  1.00 39.61 LIG-0.23  N 
ATOM     14 1HH1 ARG B   2      52.504  81.066  22.137  1.00 36.12 LIG 0.17  HD
ATOM     15 2HH1 ARG B   2      52.588  81.780  20.833  1.00 36.12 LIG 0.17  HD
ATOM     16 1HH2 ARG B   2      55.210  83.722  21.595  1.00 39.61 LIG 0.17  HD
ATOM     17 2HH2 ARG B   2      54.252  83.413  20.498  1.00 39.61 LIG 0.17  HD
ENDBRANCH 8 9
ENDBRANCH 7 8
ENDBRANCH 6 7
ENDBRANCH 5 6
BRANCH 5 18
ATOM     18  N   ARG B   2      55.964  87.505  25.129  1.00 32.37 LIG-0.35  N 
ATOM     19 H    ARG B   2      56.693  87.470  24.674  1.00 32.37 LIG 0.16  HD
ATOM     20  C   ASN B   1      55.201  88.569  25.288  1.00 31.22 LIG 0.25  C 
ATOM     21 O    ASN B   1      54.221  88.529  26.001  1.00 24.61 LIG-0.27  OA
BRANCH 20 22
ATOM     22  CA  ASN B   1      55.567  89.881  24.616  1.00 32.89 LIG 0.28  C 
BRANCH 22 23
ATOM     23  CB  ASN B   1      56.396  90.670  25.631  1.00 38.07 LIG 0.14  C 
BRANCH 23 24
ATOM     24  CG  ASN B   1      57.725  90.069  25.862  1.00 44.05 LIG 0.22  C 
ATOM     25  ND2 ASN B   1      58.126  90.027  27.106  1.00 47.62 LIG-0.37  N 
ATOM     26 21HD ASN B   1      58.885  89.675  27.301  1.00 47.62 LIG 0.16  HD
ATOM     27 22HD ASN B   1      57.630  90.352  27.729  1.00 47.62 LIG 0.16  HD
ATOM     28 OD1  ASN B   1      58.397  89.618  24.924  1.00 47.48 LIG-0.27  OA
ENDBRANCH 23 24
ENDBRANCH 22 23
BRANCH 22 29
ATOM     29  N   ASN B   1      54.451  90.726  24.098  1.00 44.58 LIG-0.07  N 
ATOM     30 H1   ASN B   1      54.437  91.501  24.535  1.00 44.58 LIG 0.28  HD
ATOM     31 H3   ASN B   1      53.677  90.303  24.220  1.00 44.58 LIG 0.28  HD
ATOM     32 H2   ASN B   1      54.572  90.878  23.229  1.00 44.58 LIG 0.28  HD
ENDBRANCH 22 29
ENDBRANCH 20 22
ENDBRANCH 5 18
ENDBRANCH 1 5
BRANCH 3 33
ATOM     33  CA  LEU B   3      56.252  87.128  29.394  1.00 27.74 LIG 0.18  C 
BRANCH 33 34
ATOM     34  C   LEU B   3      55.068  87.451  30.218  1.00 25.40 LIG 0.24  C 
ATOM     35 O    LEU B   3      54.430  88.478  30.026  1.00 26.81 LIG-0.27  OA
ATOM     36  N   ILE B   4      54.741  86.588  31.149  1.00 26.13 LIG-0.35  N 
ATOM     37 H    ILE B   4      55.109  85.818  31.253  1.00 26.13 LIG 0.16  HD
BRANCH 36 38
ATOM     38  CA  ILE B   4      53.734  86.889  32.057  1.00 24.17 LIG 0.18  C 
BRANCH 38 39
ATOM     39  CB  ILE B   4      52.902  85.602  32.237  1.00 29.09 LIG 0.01  C 
ATOM     40  CG2 ILE B   4      52.647  85.027  30.885  1.00 25.20 LIG 0.01  C 
BRANCH 39 41
ATOM     41  CG1 ILE B   4      53.634  84.535  33.040  1.00 28.67 LIG 0.00  C 
ATOM     42  CD1 ILE B   4      52.695  83.721  33.896  1.00 34.41 LIG 0.01  C 
ENDBRANCH 39 41
ENDBRANCH 38 39
BRANCH 38 43
ATOM     43  C   ILE B   4      54.287  87.466  33.365  1.00 29.58 LIG 0.24  C 
ATOM     44  N   LEU B   5      53.387  87.676  34.317  1.00 36.70 LIG-0.35  N 
ATOM     45 H    LEU B   5      52.539  87.609  34.199  1.00 36.70 LIG 0.16  HD
ATOM     46 O    ILE B   4      55.519  87.736  33.511  1.00 23.70 LIG-0.27  OA
BRANCH 44 47
ATOM     47  CA  LEU B   5      53.773  88.039  35.658  1.00 37.00 LIG 0.16  C 
BRANCH 47 48
ATOM     48  C   LEU B   5      53.611  86.849  36.625  1.00 42.59 LIG 0.22  C 
ATOM     49 O    LEU B   5      53.940  85.681  36.284  1.00 38.80 LIG-0.29  OA
ENDBRANCH 47 48
BRANCH 47 50
ATOM     50  CB  LEU B   5      52.888  89.195  36.105  1.00 50.59 LIG 0.04  C 
BRANCH 50 51
ATOM     51  CG  LEU B   5      53.614  90.477  36.466  1.00 50.85 LIG-0.02  C 
ATOM     52  CD1 LEU B   5      52.672  91.638  36.230  1.00 54.07 LIG 0.01  C 
ATOM     53  CD2 LEU B   5      54.009  90.370  37.934  1.00 54.33 LIG 0.01  C 
ENDBRANCH 50 51
ENDBRANCH 47 50
ENDBRANCH 44 47
ENDBRANCH 38 43
ENDBRANCH 36 38
ENDBRANCH 33 34
BRANCH 33 54
ATOM     54  CB  LEU B   3      57.322  88.155  29.682  1.00 34.11 LIG 0.04  C 
BRANCH 54 55
ATOM     55  CG  LEU B   3      57.462  88.261  31.162  1.00 35.49 LIG-0.02  C 
ATOM     56  CD1 LEU B   3      58.596  87.354  31.599  1.00 39.12 LIG 0.01  C 
ATOM     57  CD2 LEU B   3      57.824  89.710  31.366  1.00 34.32 LIG 0.01  C 
ENDBRANCH 54 55
ENDBRANCH 33 54
ENDBRANCH 3 33
TORSDOF 22
ENDMDL
MODEL 13
USER: ADFR SOLUTION from run 197
USER: SCORE 18.657010 LL:  -3.346 LR: -17.091 RR:   0.000 FEB: -10.528
USER: RMSD 3.149953
USER: SEED 196
USER: STATUS no improvement in best in 14 clusters for 5 generations
USER: GENES 24
USER: genes 0 Translation |==|  0.50087 0.47668 0.38972
USER: genes 1 Rotation |==|  0.48388 0.52747 0.50488 0.99896
USER: genes 2 Torsion [N]-C--CA-[N] |==|  0.40474
USER: genes 3 Torsion [C]-CA--CB-[CG] |==|  0.42339
USER: genes 4 Torsion [CA]-CB--CG-[CD] |==|  0.75960
USER: genes 5 Torsion [CB]-CG--CD-[NE] |==|  0.42303
USER: genes 6 Torsion [CG]-CD--NE-[HE] |==|  0.05098
USER: genes 7 Torsion [C]-CA--N-[C] |==|  0.80893
USER: genes 8 Torsion [N]-C--CA-[N] |==|  0.35518
USER: genes 9 Torsion [C]-CA--CB-[CG] |==|  0.54533
USER: genes 10 Torsion [CA]-CB--CG-[OD1] |==|  0.75127
USER: genes 11 Torsion [C]-CA--N-[H1] |==|  0.38941
USER: genes 12 Torsion [C]-N--CA-[CB] |==|  0.38372
USER: genes 13 Torsion [N]-CA--C-[N] |==|  0.32197
USER: genes 14 Torsion [C]-N--CA-[C] |==|  0.77570
USER: genes 15 Torsion [N]-CA--CB-[CG1] |==|  0.64682
USER: genes 16 Torsion [CA]-CB--CG1-[CD1] |==|  0.55932
USER: genes 17 Torsion [N]-CA--C-[N] |==|  0.46553
USER: genes 18 Torsion [C]-N--CA-[C] |==|  0.21847
USER: genes 19 Torsion [N]-CA--C-[O] |==|  0.97822
USER: genes 20 Torsion [N]-CA--CB-[CG] |==|  0.77749
USER: genes 21 Torsion [CA]-CB--CG-[CD1] |==|  0.57486
USER: genes 22 Torsion [N]-CA--CB-[CG] |==|  0.69088
USER: genes 23 Torsion [CA]-CB--CG-[CD1] |==|  0.53322
ROOT
ATOM      1  C   ARG B   2      57.025  86.540  27.355  1.00 25.54 LIG 0.24  C 
ATOM      2 O    ARG B   2      57.458  85.472  27.892  1.00 21.45 LIG-0.27  OA
ATOM      3  N   LEU B   3      56.813  87.641  28.059  1.00 32.00 LIG-0.35  N 
ATOM      4 H    LEU B   3      56.622  88.405  27.714  1.00 32.00 LIG 0.16  HD
ENDROOT
BRANCH 1 5
ATOM      5  CA  ARG B   2      56.689  86.620  25.873  1.00 29.44 LIG 0.18  C 
BRANCH 5 6
ATOM      6  CB  ARG B   2      55.224  86.139  25.632  1.00 37.02 LIG 0.04  C 
BRANCH 6 7
ATOM      7  CG  ARG B   2      54.566  86.765  24.402  1.00 39.92 LIG 0.02  C 
BRANCH 7 8
ATOM      8  CD  ARG B   2      53.919  88.108  24.763  1.00 40.77 LIG 0.14  C 
BRANCH 8 9
ATOM      9  NE  ARG B   2      53.934  88.906  23.528  1.00 48.07 LIG-0.23  N 
ATOM     10 HE   ARG B   2      54.043  88.465  22.798  1.00 48.07 LIG 0.18  HD
ATOM     11  CZ  ARG B   2      53.799  90.233  23.396  1.00 44.36 LIG 0.67  C 
ATOM     12  NH1 ARG B   2      53.824  90.727  22.144  1.00 36.12 LIG-0.23  N 
ATOM     13  NH2 ARG B   2      53.635  91.054  24.459  1.00 39.61 LIG-0.23  N 
ATOM     14 1HH1 ARG B   2      53.924  90.197  21.474  1.00 36.12 LIG 0.17  HD
ATOM     15 2HH1 ARG B   2      53.741  91.573  22.014  1.00 36.12 LIG 0.17  HD
ATOM     16 1HH2 ARG B   2      53.614  90.728  25.254  1.00 39.61 LIG 0.17  HD
ATOM     17 2HH2 ARG B   2      53.551  91.901  24.339  1.00 39.61 LIG 0.17  HD
ENDBRANCH 8 9
ENDBRANCH 7 8
ENDBRANCH 6 7
ENDBRANCH 5 6
BRANCH 5 18
ATOM     18  N   ARG B   2      57.620  85.803  25.072  1.00 32.37 LIG-0.35  N 
ATOM     19 H    ARG B   2      57.288  85.103  24.701  1.00 32.37 LIG 0.16  HD
ATOM     20  C   ASN B   1      58.873  86.205  24.987  1.00 31.22 LIG 0.25  C 
ATOM     21 O    ASN B   1      59.255  87.179  25.600  1.00 24.61 LIG-0.27  OA
BRANCH 20 22
ATOM     22  CA  ASN B   1      59.873  85.423  24.153  1.00 32.89 LIG 0.28  C 
BRANCH 22 23
ATOM     23  CB  ASN B   1      60.809  84.727  25.143  1.00 38.07 LIG 0.14  C 
BRANCH 23 24
ATOM     24  CG  ASN B   1      62.050  84.246  24.504  1.00 44.05 LIG 0.22  C 
ATOM     25  ND2 ASN B   1      63.060  85.077  24.518  1.00 47.62 LIG-0.37  N 
ATOM     26 21HD ASN B   1      63.813  84.844  24.174  1.00 47.62 LIG 0.16  HD
ATOM     27 22HD ASN B   1      62.972  85.855  24.872  1.00 47.62 LIG 0.16  HD
ATOM     28 OD1  ASN B   1      62.119  83.112  24.009  1.00 47.48 LIG-0.27  OA
ENDBRANCH 23 24
ENDBRANCH 22 23
BRANCH 22 29
ATOM     29  N   ASN B   1      60.666  86.177  23.139  1.00 44.58 LIG-0.07  N 
ATOM     30 H1   ASN B   1      61.504  85.877  23.134  1.00 44.58 LIG 0.28  HD
ATOM     31 H3   ASN B   1      60.663  87.043  23.344  1.00 44.58 LIG 0.28  HD
ATOM     32 H2   ASN B   1      60.306  86.061  22.334  1.00 44.58 LIG 0.28  HD
ENDBRANCH 22 29
ENDBRANCH 20 22
ENDBRANCH 5 18
ENDBRANCH 1 5
BRANCH 3 33
ATOM     33  CA  LEU B   3      56.892  87.634  29.512  1.00 27.74 LIG 0.18  C 
BRANCH 33 34
ATOM     34  C   LEU B   3      55.542  87.643  30.116  1.00 25.40 LIG 0.24  C 
ATOM     35 O    LEU B   3      54.788  88.593  29.956  1.00 26.81 LIG-0.27  OA
ATOM     36  N   ILE B   4      55.202  86.590  30.820  1.00 26.13 LIG-0.35  N 
ATOM     37 H    ILE B   4      55.668  85.870  30.879  1.00 26.13 LIG 0.16  HD
BRANCH 36 38
ATOM     38  CA  ILE B   4      54.014  86.586  31.539  1.00 24.17 LIG 0.18  C 
BRANCH 38 39
ATOM     39  CB  ILE B   4      53.582  85.110  31.670  1.00 29.09 LIG 0.01  C 
ATOM     40  CG2 ILE B   4      53.632  84.743  33.114  1.00 25.20 LIG 0.01  C 
BRANCH 39 41
ATOM     41  CG1 ILE B   4      52.153  84.870  31.202  1.00 28.67 LIG 0.00  C 
ATOM     42  CD1 ILE B   4      51.567  83.608  31.785  1.00 34.41 LIG 0.01  C 
ENDBRANCH 39 41
ENDBRANCH 38 39
BRANCH 38 43
ATOM     43  C   ILE B   4      54.144  87.321  32.877  1.00 29.58 LIG 0.24  C 
ATOM     44  N   LEU B   5      52.999  87.581  33.496  1.00 36.70 LIG-0.35  N 
ATOM     45 H    LEU B   5      52.225  87.458  33.143  1.00 36.70 LIG 0.16  HD
ATOM     46 O    ILE B   4      55.272  87.668  33.345  1.00 23.70 LIG-0.27  OA
BRANCH 44 47
ATOM     47  CA  LEU B   5      52.963  88.099  34.841  1.00 37.00 LIG 0.16  C 
BRANCH 47 48
ATOM     48  C   LEU B   5      53.257  89.613  34.861  1.00 42.59 LIG 0.22  C 
ATOM     49 O    LEU B   5      53.631  90.219  33.821  1.00 38.80 LIG-0.29  OA
ENDBRANCH 47 48
BRANCH 47 50
ATOM     50  CB  LEU B   5      54.011  87.356  35.659  1.00 50.59 LIG 0.04  C 
BRANCH 50 51
ATOM     51  CG  LEU B   5      53.603  85.982  36.157  1.00 50.85 LIG-0.02  C 
ATOM     52  CD1 LEU B   5      54.382  85.684  37.419  1.00 54.07 LIG 0.01  C 
ATOM     53  CD2 LEU B   5      52.104  86.031  36.426  1.00 54.33 LIG 0.01  C 
ENDBRANCH 50 51
ENDBRANCH 47 50
ENDBRANCH 44 47
ENDBRANCH 38 43
ENDBRANCH 36 38
ENDBRANCH 33 34
BRANCH 33 54
ATOM     54  CB  LEU B   3      57.615  88.885  29.951  1.00 34.11 LIG 0.04  C 
BRANCH 54 55
ATOM     55  CG  LEU B   3      58.934  88.473  30.510  1.00 35.49 LIG-0.02  C 
ATOM     56  CD1 LEU B   3      59.542  89.666  31.221  1.00 39.12 LIG 0.01  C 
ATOM     57  CD2 LEU B   3      58.563  87.393  31.495  1.00 34.32 LIG 0.01  C 
ENDBRANCH 54 55
ENDBRANCH 33 54
ENDBRANCH 3 33
TORSDOF 22
ENDMDL
MODEL 14
USER: ADFR SOLUTION from run 93
USER: SCORE 18.828340 LL:  -3.898 LR: -16.964 RR:   0.000 FEB: -10.402
USER: RMSD 4.891837
USER: SEED 92
USER: STATUS no improvement in best in 18 clusters for 5 generations
USER: GENES 24
USER: genes 0 Translation |==|  0.48229 0.46316 0.38731
USER: genes 1 Rotation |==|  0.48802 0.53019 0.47729 0.99843
USER: genes 2 Torsion [N]-C--CA-[N] |==|  0.06096
USER: genes 3 Torsion [C]-CA--CB-[CG] |==|  0.80143
USER: genes 4 Torsion [CA]-CB--CG-[CD] |==|  0.53936
USER: genes 5 Torsion [CB]-CG--CD-[NE] |==|  0.54495
USER: genes 6 Torsion [CG]-CD--NE-[HE] |==|  0.82214
USER: genes 7 Torsion [C]-CA--N-[C] |==|  0.71594
USER: genes 8 Torsion [N]-C--CA-[N] |==|  0.48685
USER: genes 9 Torsion [C]-CA--CB-[CG] |==|  0.22759
USER: genes 10 Torsion [CA]-CB--CG-[OD1] |==|  0.99420
USER: genes 11 Torsion [C]-CA--N-[H1] |==|  0.50219
USER: genes 12 Torsion [C]-N--CA-[CB] |==|  0.39690
USER: genes 13 Torsion [N]-CA--C-[N] |==|  0.35102
USER: genes 14 Torsion [C]-N--CA-[C] |==|  0.73889
USER: genes 15 Torsion [N]-CA--CB-[CG1] |==|  0.63018
USER: genes 16 Torsion [CA]-CB--CG1-[CD1] |==|  0.55534
USER: genes 17 Torsion [N]-CA--C-[N] |==|  0.48722
USER: genes 18 Torsion [C]-N--CA-[C] |==|  0.20809
USER: genes 19 Torsion [N]-CA--C-[O] |==|  0.05611
USER: genes 20 Torsion [N]-CA--CB-[CG] |==|  0.67014
USER: genes 21 Torsion [CA]-CB--CG-[CD1] |==|  0.21875
USER: genes 22 Torsion [N]-CA--CB-[CG] |==|  0.55152
USER: genes 23 Torsion [CA]-CB--CG-[CD1] |==|  0.15023
ROOT
ATOM      1  C   ARG B   2      56.635  86.286  27.303  1.00 25.54 LIG 0.24  C 
ATOM      2 O    ARG B   2      56.950  85.172  27.826  1.00 21.45 LIG-0.27  OA
ATOM      3  N   LEU B   3      56.552  87.397  28.019  1.00 32.00 LIG-0.35  N 
ATOM      4 H    LEU B   3      56.444  88.181  27.683  1.00 32.00 LIG 0.16  HD
ENDROOT
BRANCH 1 5
ATOM      5  CA  ARG B   2      56.300  86.420  25.824  1.00 29.44 LIG 0.18  C 
BRANCH 5 6
ATOM      6  CB  ARG B   2      57.227  85.488  24.982  1.00 37.02 LIG 0.04  C 
BRANCH 6 7
ATOM      7  CG  ARG B   2      58.677  85.966  24.910  1.00 39.92 LIG 0.02  C 
BRANCH 7 8
ATOM      8  CD  ARG B   2      59.435  85.221  23.804  1.00 40.77 LIG 0.14  C 
BRANCH 8 9
ATOM      9  NE  ARG B   2      60.863  85.448  24.073  1.00 48.07 LIG-0.23  N 
ATOM     10 HE   ARG B   2      61.130  86.263  24.016  1.00 48.07 LIG 0.18  HD
ATOM     11  CZ  ARG B   2      61.801  84.545  24.394  1.00 44.36 LIG 0.67  C 
ATOM     12  NH1 ARG B   2      63.044  85.010  24.616  1.00 36.12 LIG-0.23  N 
ATOM     13  NH2 ARG B   2      61.527  83.225  24.504  1.00 39.61 LIG-0.23  N 
ATOM     14 1HH1 ARG B   2      63.207  85.852  24.549  1.00 36.12 LIG 0.17  HD
ATOM     15 2HH1 ARG B   2      63.676  84.466  24.825  1.00 36.12 LIG 0.17  HD
ATOM     16 1HH2 ARG B   2      60.729  82.938  24.366  1.00 39.61 LIG 0.17  HD
ATOM     17 2HH2 ARG B   2      62.153  82.672  24.712  1.00 39.61 LIG 0.17  HD
ENDBRANCH 8 9
ENDBRANCH 7 8
ENDBRANCH 6 7
ENDBRANCH 5 6
BRANCH 5 18
ATOM     18  N   ARG B   2      56.449  87.814  25.368  1.00 32.37 LIG-0.35  N 
ATOM     19 H    ARG B   2      57.253  88.084  25.226  1.00 32.37 LIG 0.16  HD
ATOM     20  C   ASN B   1      55.353  88.531  25.216  1.00 31.22 LIG 0.25  C 
ATOM     21 O    ASN B   1      54.268  88.074  25.502  1.00 24.61 LIG-0.27  OA
BRANCH 20 22
ATOM     22  CA  ASN B   1      55.439  89.965  24.722  1.00 32.89 LIG 0.28  C 
BRANCH 22 23
ATOM     23  CB  ASN B   1      56.276  90.727  25.751  1.00 38.07 LIG 0.14  C 
BRANCH 23 24
ATOM     24  CG  ASN B   1      57.727  90.544  25.547  1.00 44.05 LIG 0.22  C 
ATOM     25  ND2 ASN B   1      58.507  91.182  26.379  1.00 47.62 LIG-0.37  N 
ATOM     26 21HD ASN B   1      59.360  91.100  26.317  1.00 47.62 LIG 0.16  HD
ATOM     27 22HD ASN B   1      58.167  91.683  26.989  1.00 47.62 LIG 0.16  HD
ATOM     28 OD1  ASN B   1      58.159  89.808  24.649  1.00 47.48 LIG-0.27  OA
ENDBRANCH 23 24
ENDBRANCH 22 23
BRANCH 22 29
ATOM     29  N   ASN B   1      54.157  90.685  24.468  1.00 44.58 LIG-0.07  N 
ATOM     30 H1   ASN B   1      54.331  91.507  24.173  1.00 44.58 LIG 0.28  HD
ATOM     31 H3   ASN B   1      53.689  90.734  25.223  1.00 44.58 LIG 0.28  HD
ATOM     32 H2   ASN B   1      53.685  90.245  23.854  1.00 44.58 LIG 0.28  HD
ENDBRANCH 22 29
ENDBRANCH 20 22
ENDBRANCH 5 18
ENDBRANCH 1 5
BRANCH 3 33
ATOM     33  CA  LEU B   3      56.639  87.365  29.471  1.00 27.74 LIG 0.18  C 
BRANCH 33 34
ATOM     34  C   LEU B   3      55.295  87.404  30.085  1.00 25.40 LIG 0.24  C 
ATOM     35 O    LEU B   3      54.495  88.284  29.793  1.00 26.81 LIG-0.27  OA
ATOM     36  N   ILE B   4      55.008  86.455  30.943  1.00 26.13 LIG-0.35  N 
ATOM     37 H    ILE B   4      55.508  85.774  31.104  1.00 26.13 LIG 0.16  HD
BRANCH 36 38
ATOM     38  CA  ILE B   4      53.826  86.505  31.670  1.00 24.17 LIG 0.18  C 
BRANCH 38 39
ATOM     39  CB  ILE B   4      53.286  85.061  31.736  1.00 29.09 LIG 0.01  C 
ATOM     40  CG2 ILE B   4      53.451  84.573  33.135  1.00 25.20 LIG 0.01  C 
BRANCH 39 41
ATOM     41  CG1 ILE B   4      51.803  84.970  31.407  1.00 28.67 LIG 0.00  C 
ATOM     42  CD1 ILE B   4      51.181  83.696  31.924  1.00 34.41 LIG 0.01  C 
ENDBRANCH 39 41
ENDBRANCH 38 39
BRANCH 38 43
ATOM     43  C   ILE B   4      54.015  87.166  33.039  1.00 29.58 LIG 0.24  C 
ATOM     44  N   LEU B   5      52.905  87.333  33.747  1.00 36.70 LIG-0.35  N 
ATOM     45 H    LEU B   5      52.115  87.194  33.439  1.00 36.70 LIG 0.16  HD
ATOM     46 O    ILE B   4      55.156  87.539  33.452  1.00 23.70 LIG-0.27  OA
BRANCH 44 47
ATOM     47  CA  LEU B   5      52.940  87.769  35.121  1.00 37.00 LIG 0.16  C 
BRANCH 47 48
ATOM     48  C   LEU B   5      53.258  89.275  35.218  1.00 42.59 LIG 0.22  C 
ATOM     49 O    LEU B   5      53.085  90.043  34.235  1.00 38.80 LIG-0.29  OA
ENDBRANCH 47 48
BRANCH 47 50
ATOM     50  CB  LEU B   5      54.011  86.964  35.844  1.00 50.59 LIG 0.04  C 
BRANCH 50 51
ATOM     51  CG  LEU B   5      53.523  86.108  36.998  1.00 50.85 LIG-0.02  C 
ATOM     52  CD1 LEU B   5      52.898  84.854  36.426  1.00 54.07 LIG 0.01  C 
ATOM     53  CD2 LEU B   5      54.738  85.783  37.858  1.00 54.33 LIG 0.01  C 
ENDBRANCH 50 51
ENDBRANCH 47 50
ENDBRANCH 44 47
ENDBRANCH 38 43
ENDBRANCH 36 38
ENDBRANCH 33 34
BRANCH 33 54
ATOM     54  CB  LEU B   3      57.401  88.588  29.925  1.00 34.11 LIG 0.04  C 
BRANCH 54 55
ATOM     55  CG  LEU B   3      57.879  88.335  31.314  1.00 35.49 LIG-0.02  C 
ATOM     56  CD1 LEU B   3      58.657  87.034  31.319  1.00 39.12 LIG 0.01  C 
ATOM     57  CD2 LEU B   3      58.790  89.507  31.577  1.00 34.32 LIG 0.01  C 
ENDBRANCH 54 55
ENDBRANCH 33 54
ENDBRANCH 3 33
TORSDOF 22
ENDMDL
MODEL 15
USER: ADFR SOLUTION from run 95
USER: SCORE 19.326581 LL:  -3.231 LR: -16.928 RR:   0.000 FEB: -10.366
USER: RMSD 4.650388
USER: SEED 94
USER: STATUS no improvement in best in 28 clusters for 5 generations
USER: GENES 24
USER: genes 0 Translation |==|  0.54509 0.56182 0.39010
USER: genes 1 Rotation |==|  0.58598 0.49776 0.22928 0.91147
USER: genes 2 Torsion [N]-C--CA-[N] |==|  0.37367
USER: genes 3 Torsion [C]-CA--CB-[CG] |==|  0.33331
USER: genes 4 Torsion [CA]-CB--CG-[CD] |==|  0.15799
USER: genes 5 Torsion [CB]-CG--CD-[NE] |==|  0.32365
USER: genes 6 Torsion [CG]-CD--NE-[HE] |==|  0.00876
USER: genes 7 Torsion [C]-CA--N-[C] |==|  0.86667
USER: genes 8 Torsion [N]-C--CA-[N] |==|  0.16681
USER: genes 9 Torsion [C]-CA--CB-[CG] |==|  0.44878
USER: genes 10 Torsion [CA]-CB--CG-[OD1] |==|  0.05328
USER: genes 11 Torsion [C]-CA--N-[H1] |==|  0.77609
USER: genes 12 Torsion [C]-N--CA-[CB] |==|  0.53651
USER: genes 13 Torsion [N]-CA--C-[N] |==|  0.38090
USER: genes 14 Torsion [C]-N--CA-[C] |==|  0.67101
USER: genes 15 Torsion [N]-CA--CB-[CG1] |==|  0.26745
USER: genes 16 Torsion [CA]-CB--CG1-[CD1] |==|  0.37782
USER: genes 17 Torsion [N]-CA--C-[N] |==|  0.49169
USER: genes 18 Torsion [C]-N--CA-[C] |==|  0.19588
USER: genes 19 Torsion [N]-CA--C-[O] |==|  0.64594
USER: genes 20 Torsion [N]-CA--CB-[CG] |==|  0.80076
USER: genes 21 Torsion [CA]-CB--CG-[CD1] |==|  0.56701
USER: genes 22 Torsion [N]-CA--CB-[CG] |==|  0.68494
USER: genes 23 Torsion [CA]-CB--CG-[CD1] |==|  0.55091
ROOT
ATOM      1  C   ARG B   2      57.954  88.136  27.364  1.00 25.54 LIG 0.24  C 
ATOM      2 O    ARG B   2      57.015  87.285  27.461  1.00 21.45 LIG-0.27  OA
ATOM      3  N   LEU B   3      58.639  88.546  28.420  1.00 32.00 LIG-0.35  N 
ATOM      4 H    LEU B   3      59.344  89.037  28.377  1.00 32.00 LIG 0.16  HD
ENDROOT
BRANCH 1 5
ATOM      5  CA  ARG B   2      58.337  88.769  26.033  1.00 29.44 LIG 0.18  C 
BRANCH 5 6
ATOM      6  CB  ARG B   2      57.272  89.835  25.624  1.00 37.02 LIG 0.04  C 
BRANCH 6 7
ATOM      7  CG  ARG B   2      57.841  91.244  25.467  1.00 39.92 LIG 0.02  C 
BRANCH 7 8
ATOM      8  CD  ARG B   2      58.980  91.252  24.439  1.00 40.77 LIG 0.14  C 
BRANCH 8 9
ATOM      9  NE  ARG B   2      58.519  92.109  23.336  1.00 48.07 LIG-0.23  N 
ATOM     10 HE   ARG B   2      57.753  92.485  23.448  1.00 48.07 LIG 0.18  HD
ATOM     11  CZ  ARG B   2      59.141  92.379  22.179  1.00 44.36 LIG 0.67  C 
ATOM     12  NH1 ARG B   2      58.517  93.220  21.333  1.00 36.12 LIG-0.23  N 
ATOM     13  NH2 ARG B   2      60.344  91.846  21.862  1.00 39.61 LIG-0.23  N 
ATOM     14 1HH1 ARG B   2      57.756  93.558  21.546  1.00 36.12 LIG 0.17  HD
ATOM     15 2HH1 ARG B   2      58.881  93.420  20.581  1.00 36.12 LIG 0.17  HD
ATOM     16 1HH2 ARG B   2      60.736  91.315  22.412  1.00 39.61 LIG 0.17  HD
ATOM     17 2HH2 ARG B   2      60.715  92.040  21.111  1.00 39.61 LIG 0.17  HD
ENDBRANCH 8 9
ENDBRANCH 7 8
ENDBRANCH 6 7
ENDBRANCH 5 6
BRANCH 5 18
ATOM     18  N   ARG B   2      58.454  87.751  24.974  1.00 32.37 LIG-0.35  N 
ATOM     19 H    ARG B   2      58.053  87.924  24.233  1.00 32.37 LIG 0.16  HD
ATOM     20  C   ASN B   1      59.155  86.666  25.239  1.00 31.22 LIG 0.25  C 
ATOM     21 O    ASN B   1      59.632  86.489  26.340  1.00 24.61 LIG-0.27  OA
BRANCH 20 22
ATOM     22  CA  ASN B   1      59.337  85.593  24.180  1.00 32.89 LIG 0.28  C 
BRANCH 22 23
ATOM     23  CB  ASN B   1      60.103  84.451  24.848  1.00 38.07 LIG 0.14  C 
BRANCH 23 24
ATOM     24  CG  ASN B   1      59.983  83.179  24.107  1.00 44.05 LIG 0.22  C 
ATOM     25  ND2 ASN B   1      60.240  82.093  24.788  1.00 47.62 LIG-0.37  N 
ATOM     26 21HD ASN B   1      60.172  81.323  24.411  1.00 47.62 LIG 0.16  HD
ATOM     27 22HD ASN B   1      60.477  82.148  25.612  1.00 47.62 LIG 0.16  HD
ATOM     28 OD1  ASN B   1      59.638  83.162  22.917  1.00 47.48 LIG-0.27  OA
ENDBRANCH 23 24
ENDBRANCH 22 23
BRANCH 22 29
ATOM     29  N   ASN B   1      60.009  85.987  22.907  1.00 44.58 LIG-0.07  N 
ATOM     30 H1   ASN B   1      59.422  86.391  22.374  1.00 44.58 LIG 0.28  HD
ATOM     31 H3   ASN B   1      60.326  85.261  22.502  1.00 44.58 LIG 0.28  HD
ATOM     32 H2   ASN B   1      60.680  86.544  23.085  1.00 44.58 LIG 0.28  HD
ENDBRANCH 22 29
ENDBRANCH 20 22
ENDBRANCH 5 18
ENDBRANCH 1 5
BRANCH 3 33
ATOM     33  CA  LEU B   3      58.235  88.180  29.769  1.00 27.74 LIG 0.18  C 
BRANCH 33 34
ATOM     34  C   LEU B   3      56.790  88.419  29.972  1.00 25.40 LIG 0.24  C 
ATOM     35 O    LEU B   3      56.256  89.438  29.555  1.00 26.81 LIG-0.27  OA
ATOM     36  N   ILE B   4      56.121  87.490  30.612  1.00 26.13 LIG-0.35  N 
ATOM     37 H    ILE B   4      56.442  86.726  30.840  1.00 26.13 LIG 0.16  HD
BRANCH 36 38
ATOM     38  CA  ILE B   4      54.797  87.707  30.971  1.00 24.17 LIG 0.18  C 
BRANCH 38 39
ATOM     39  CB  ILE B   4      53.954  86.675  30.193  1.00 29.09 LIG 0.01  C 
ATOM     40  CG2 ILE B   4      54.750  86.229  29.013  1.00 25.20 LIG 0.01  C 
BRANCH 39 41
ATOM     41  CG1 ILE B   4      53.642  85.430  31.011  1.00 28.67 LIG 0.00  C 
ATOM     42  CD1 ILE B   4      52.204  84.998  30.867  1.00 34.41 LIG 0.01  C 
ENDBRANCH 39 41
ENDBRANCH 38 39
BRANCH 38 43
ATOM     43  C   ILE B   4      54.595  87.663  32.490  1.00 29.58 LIG 0.24  C 
ATOM     44  N   LEU B   5      53.361  87.924  32.905  1.00 36.70 LIG-0.35  N 
ATOM     45 H    LEU B   5      52.733  88.209  32.393  1.00 36.70 LIG 0.16  HD
ATOM     46 O    ILE B   4      55.549  87.409  33.287  1.00 23.70 LIG-0.27  OA
BRANCH 44 47
ATOM     47  CA  LEU B   5      52.970  87.744  34.281  1.00 37.00 LIG 0.16  C 
BRANCH 47 48
ATOM     48  C   LEU B   5      53.624  88.805  35.188  1.00 42.59 LIG 0.22  C 
ATOM     49 O    LEU B   5      54.273  88.474  36.217  1.00 38.80 LIG-0.29  OA
ENDBRANCH 47 48
BRANCH 47 50
ATOM     50  CB  LEU B   5      53.404  86.350  34.715  1.00 50.59 LIG 0.04  C 
BRANCH 50 51
ATOM     51  CG  LEU B   5      52.610  85.200  34.124  1.00 50.85 LIG-0.02  C 
ATOM     52  CD1 LEU B   5      52.733  84.012  35.053  1.00 54.07 LIG 0.01  C 
ATOM     53  CD2 LEU B   5      51.164  85.669  34.009  1.00 54.33 LIG 0.01  C 
ENDBRANCH 50 51
ENDBRANCH 47 50
ENDBRANCH 44 47
ENDBRANCH 38 43
ENDBRANCH 36 38
ENDBRANCH 33 34
BRANCH 33 54
ATOM     54  CB  LEU B   3      58.999  89.047  30.741  1.00 34.11 LIG 0.04  C 
BRANCH 54 55
ATOM     55  CG  LEU B   3      59.921  88.162  31.509  1.00 35.49 LIG-0.02  C 
ATOM     56  CD1 LEU B   3      60.349  88.897  32.765  1.00 39.12 LIG 0.01  C 
ATOM     57  CD2 LEU B   3      59.051  86.979  31.849  1.00 34.32 LIG 0.01  C 
ENDBRANCH 54 55
ENDBRANCH 33 54
ENDBRANCH 3 33
TORSDOF 22
ENDMDL
MODEL 16
USER: ADFR SOLUTION from run 9
USER: SCORE 19.297129 LL:  -4.404 LR: -16.911 RR:   0.000 FEB: -10.348
USER: RMSD 3.488911
USER: SEED 885898
USER: STATUS no improvement in best in 15 clusters for 5 generations
USER: GENES 24
USER: genes 0 Translation |==|  0.52890 0.46721 0.41910
USER: genes 1 Rotation |==|  0.49476 0.51099 0.36659 0.98172
USER: genes 2 Torsion [N]-C--CA-[N] |==|  0.35646
USER: genes 3 Torsion [C]-CA--CB-[CG] |==|  0.18426
USER: genes 4 Torsion [CA]-CB--CG-[CD] |==|  0.18493
USER: genes 5 Torsion [CB]-CG--CD-[NE] |==|  0.73329
USER: genes 6 Torsion [CG]-CD--NE-[HE] |==|  0.81155
USER: genes 7 Torsion [C]-CA--N-[C] |==|  0.68244
USER: genes 8 Torsion [N]-C--CA-[N] |==|  0.58254
USER: genes 9 Torsion [C]-CA--CB-[CG] |==|  0.48238
USER: genes 10 Torsion [CA]-CB--CG-[OD1] |==|  0.93078
USER: genes 11 Torsion [C]-CA--N-[H1] |==|  0.41254
USER: genes 12 Torsion [C]-N--CA-[CB] |==|  0.37165
USER: genes 13 Torsion [N]-CA--C-[N] |==|  0.34456
USER: genes 14 Torsion [C]-N--CA-[C] |==|  0.60049
USER: genes 15 Torsion [N]-CA--CB-[CG1] |==|  0.40950
USER: genes 16 Torsion [CA]-CB--CG1-[CD1] |==|  0.32546
USER: genes 17 Torsion [N]-CA--C-[N] |==|  0.41396
USER: genes 18 Torsion [C]-N--CA-[C] |==|  0.86559
USER: genes 19 Torsion [N]-CA--C-[O] |==|  0.85918
USER: genes 20 Torsion [N]-CA--CB-[CG] |==|  0.76127
USER: genes 21 Torsion [CA]-CB--CG-[CD1] |==|  0.40112
USER: genes 22 Torsion [N]-CA--CB-[CG] |==|  0.52274
USER: genes 23 Torsion [CA]-CB--CG-[CD1] |==|  0.18117
ROOT
ATOM      1  C   ARG B   2      57.614  86.362  27.994  1.00 25.54 LIG 0.24  C 
ATOM      2 O    ARG B   2      57.372  85.233  28.526  1.00 21.45 LIG-0.27  OA
ATOM      3  N   LEU B   3      57.962  87.416  28.717  1.00 32.00 LIG-0.35  N 
ATOM      4 H    LEU B   3      58.232  88.162  28.384  1.00 32.00 LIG 0.16  HD
ENDROOT
BRANCH 1 5
ATOM      5  CA  ARG B   2      57.491  86.592  26.495  1.00 29.44 LIG 0.18  C 
BRANCH 5 6
ATOM      6  CB  ARG B   2      55.991  86.521  26.066  1.00 37.02 LIG 0.04  C 
BRANCH 6 7
ATOM      7  CG  ARG B   2      55.135  87.653  26.634  1.00 39.92 LIG 0.02  C 
BRANCH 7 8
ATOM      8  CD  ARG B   2      55.560  89.000  26.036  1.00 40.77 LIG 0.14  C 
BRANCH 8 9
ATOM      9  NE  ARG B   2      56.491  89.594  27.008  1.00 48.07 LIG-0.23  N 
ATOM     10 HE   ARG B   2      56.147  89.833  27.759  1.00 48.07 LIG 0.18  HD
ATOM     11  CZ  ARG B   2      57.807  89.811  26.872  1.00 44.36 LIG 0.67  C 
ATOM     12  NH1 ARG B   2      58.448  90.352  27.924  1.00 36.12 LIG-0.23  N 
ATOM     13  NH2 ARG B   2      58.479  89.499  25.740  1.00 39.61 LIG-0.23  N 
ATOM     14 1HH1 ARG B   2      58.014  90.542  28.642  1.00 36.12 LIG 0.17  HD
ATOM     15 2HH1 ARG B   2      59.292  90.507  27.879  1.00 36.12 LIG 0.17  HD
ATOM     16 1HH2 ARG B   2      58.061  89.148  25.075  1.00 39.61 LIG 0.17  HD
ATOM     17 2HH2 ARG B   2      59.323  89.651  25.685  1.00 39.61 LIG 0.17  HD
ENDBRANCH 8 9
ENDBRANCH 7 8
ENDBRANCH 6 7
ENDBRANCH 5 6
BRANCH 5 18
ATOM     18  N   ARG B   2      58.272  85.597  25.738  1.00 32.37 LIG-0.35  N 
ATOM     19 H    ARG B   2      58.007  84.781  25.796  1.00 32.37 LIG 0.16  HD
ATOM     20  C   ASN B   1      59.305  86.029  25.039  1.00 31.22 LIG 0.25  C 
ATOM     21 O    ASN B   1      59.632  87.196  25.073  1.00 24.61 LIG-0.27  OA
BRANCH 20 22
ATOM     22  CA  ASN B   1      60.132  85.058  24.216  1.00 32.89 LIG 0.28  C 
BRANCH 22 23
ATOM     23  CB  ASN B   1      59.984  83.690  24.885  1.00 38.07 LIG 0.14  C 
BRANCH 23 24
ATOM     24  CG  ASN B   1      60.618  82.608  24.105  1.00 44.05 LIG 0.22  C 
ATOM     25  ND2 ASN B   1      60.965  81.544  24.780  1.00 47.62 LIG-0.37  N 
ATOM     26 21HD ASN B   1      61.325  80.876  24.375  1.00 47.62 LIG 0.16  HD
ATOM     27 22HD ASN B   1      60.835  81.511  25.629  1.00 47.62 LIG 0.16  HD
ATOM     28 OD1  ASN B   1      60.781  82.711  22.881  1.00 47.48 LIG-0.27  OA
ENDBRANCH 23 24
ENDBRANCH 22 23
BRANCH 22 29
ATOM     29  N   ASN B   1      61.576  85.378  24.017  1.00 44.58 LIG-0.07  N 
ATOM     30 H1   ASN B   1      62.042  84.622  23.953  1.00 44.58 LIG 0.28  HD
ATOM     31 H3   ASN B   1      61.874  85.852  24.708  1.00 44.58 LIG 0.28  HD
ATOM     32 H2   ASN B   1      61.675  85.850  23.268  1.00 44.58 LIG 0.28  HD
ENDBRANCH 22 29
ENDBRANCH 20 22
ENDBRANCH 5 18
ENDBRANCH 1 5
BRANCH 3 33
ATOM     33  CA  LEU B   3      57.909  87.384  30.170  1.00 27.74 LIG 0.18  C 
BRANCH 33 34
ATOM     34  C   LEU B   3      56.785  88.199  30.678  1.00 25.40 LIG 0.24  C 
ATOM     35 O    LEU B   3      56.678  89.380  30.375  1.00 26.81 LIG-0.27  OA
ATOM     36  N   ILE B   4      55.921  87.596  31.458  1.00 26.13 LIG-0.35  N 
ATOM     37 H    ILE B   4      55.915  86.752  31.620  1.00 26.13 LIG 0.16  HD
BRANCH 36 38
ATOM     38  CA  ILE B   4      54.925  88.327  32.092  1.00 24.17 LIG 0.18  C 
BRANCH 38 39
ATOM     39  CB  ILE B   4      53.709  88.333  31.142  1.00 29.09 LIG 0.01  C 
ATOM     40  CG2 ILE B   4      53.742  87.073  30.345  1.00 25.20 LIG 0.01  C 
BRANCH 39 41
ATOM     41  CG1 ILE B   4      52.380  88.351  31.884  1.00 28.67 LIG 0.00  C 
ATOM     42  CD1 ILE B   4      51.583  89.600  31.598  1.00 34.41 LIG 0.01  C 
ENDBRANCH 39 41
ENDBRANCH 38 39
BRANCH 38 43
ATOM     43  C   ILE B   4      54.620  87.794  33.496  1.00 29.58 LIG 0.24  C 
ATOM     44  N   LEU B   5      54.221  88.705  34.375  1.00 36.70 LIG-0.35  N 
ATOM     45 H    LEU B   5      54.233  89.551  34.227  1.00 36.70 LIG 0.16  HD
ATOM     46 O    ILE B   4      54.757  86.567  33.792  1.00 23.70 LIG-0.27  OA
BRANCH 44 47
ATOM     47  CA  LEU B   5      53.724  88.337  35.677  1.00 37.00 LIG 0.16  C 
BRANCH 47 48
ATOM     48  C   LEU B   5      52.668  87.218  35.573  1.00 42.59 LIG 0.22  C 
ATOM     49 O    LEU B   5      51.691  87.314  34.782  1.00 38.80 LIG-0.29  OA
ENDBRANCH 47 48
BRANCH 47 50
ATOM     50  CB  LEU B   5      53.107  89.575  36.313  1.00 50.59 LIG 0.04  C 
BRANCH 50 51
ATOM     51  CG  LEU B   5      54.070  90.479  37.059  1.00 50.85 LIG-0.02  C 
ATOM     52  CD1 LEU B   5      53.630  91.913  36.855  1.00 54.07 LIG 0.01  C 
ATOM     53  CD2 LEU B   5      54.007  90.082  38.530  1.00 54.33 LIG 0.01  C 
ENDBRANCH 50 51
ENDBRANCH 47 50
ENDBRANCH 44 47
ENDBRANCH 38 43
ENDBRANCH 36 38
ENDBRANCH 33 34
BRANCH 33 54
ATOM     54  CB  LEU B   3      59.196  87.969  30.702  1.00 34.11 LIG 0.04  C 
BRANCH 54 55
ATOM     55  CG  LEU B   3      59.218  87.749  32.176  1.00 35.49 LIG-0.02  C 
ATOM     56  CD1 LEU B   3      59.286  86.256  32.433  1.00 39.12 LIG 0.01  C 
ATOM     57  CD2 LEU B   3      60.498  88.425  32.600  1.00 34.32 LIG 0.01  C 
ENDBRANCH 54 55
ENDBRANCH 33 54
ENDBRANCH 3 33
TORSDOF 22
ENDMDL
MODEL 17
USER: ADFR SOLUTION from run 93
USER: SCORE 18.530910 LL:  -3.561 LR: -16.896 RR:   0.000 FEB: -10.334
USER: RMSD 5.248072
USER: SEED 92
USER: STATUS no improvement in best in 18 clusters for 5 generations
USER: GENES 24
USER: genes 0 Translation |==|  0.51060 0.44432 0.42352
USER: genes 1 Rotation |==|  0.46264 0.52270 0.35935 0.97782
USER: genes 2 Torsion [N]-C--CA-[N] |==|  0.92822
USER: genes 3 Torsion [C]-CA--CB-[CG] |==|  0.64553
USER: genes 4 Torsion [CA]-CB--CG-[CD] |==|  0.59985
USER: genes 5 Torsion [CB]-CG--CD-[NE] |==|  0.72710
USER: genes 6 Torsion [CG]-CD--NE-[HE] |==|  0.78230
USER: genes 7 Torsion [C]-CA--N-[C] |==|  0.80822
USER: genes 8 Torsion [N]-C--CA-[N] |==|  0.84769
USER: genes 9 Torsion [C]-CA--CB-[CG] |==|  0.32623
USER: genes 10 Torsion [CA]-CB--CG-[OD1] |==|  0.80187
USER: genes 11 Torsion [C]-CA--N-[H1] |==|  0.83460
USER: genes 12 Torsion [C]-N--CA-[CB] |==|  0.38332
USER: genes 13 Torsion [N]-CA--C-[N] |==|  0.32670
USER: genes 14 Torsion [C]-N--CA-[C] |==|  0.57943
USER: genes 15 Torsion [N]-CA--CB-[CG1] |==|  0.46898
USER: genes 16 Torsion [CA]-CB--CG1-[CD1] |==|  0.67631
USER: genes 17 Torsion [N]-CA--C-[N] |==|  0.40742
USER: genes 18 Torsion [C]-N--CA-[C] |==|  0.48673
USER: genes 19 Torsion [N]-CA--C-[O] |==|  0.91514
USER: genes 20 Torsion [N]-CA--CB-[CG] |==|  0.52536
USER: genes 21 Torsion [CA]-CB--CG-[CD1] |==|  0.26591
USER: genes 22 Torsion [N]-CA--CB-[CG] |==|  0.49593
USER: genes 23 Torsion [CA]-CB--CG-[CD1] |==|  0.23870
ROOT
ATOM      1  C   ARG B   2      57.230  85.933  28.091  1.00 25.54 LIG 0.24  C 
ATOM      2 O    ARG B   2      57.003  84.879  28.764  1.00 21.45 LIG-0.27  OA
ATOM      3  N   LEU B   3      57.661  87.048  28.660  1.00 32.00 LIG-0.35  N 
ATOM      4 H    LEU B   3      57.922  87.743  28.225  1.00 32.00 LIG 0.16  HD
ENDROOT
BRANCH 1 5
ATOM      5  CA  ARG B   2      56.991  86.000  26.588  1.00 29.44 LIG 0.18  C 
BRANCH 5 6
ATOM      6  CB  ARG B   2      58.245  85.468  25.826  1.00 37.02 LIG 0.04  C 
BRANCH 6 7
ATOM      7  CG  ARG B   2      58.770  86.429  24.759  1.00 39.92 LIG 0.02  C 
BRANCH 7 8
ATOM      8  CD  ARG B   2      59.297  85.651  23.547  1.00 40.77 LIG 0.14  C 
BRANCH 8 9
ATOM      9  NE  ARG B   2      60.755  85.575  23.723  1.00 48.07 LIG-0.23  N 
ATOM     10 HE   ARG B   2      61.195  86.285  23.518  1.00 48.07 LIG 0.18  HD
ATOM     11  CZ  ARG B   2      61.486  84.539  24.160  1.00 44.36 LIG 0.67  C 
ATOM     12  NH1 ARG B   2      62.815  84.727  24.255  1.00 36.12 LIG-0.23  N 
ATOM     13  NH2 ARG B   2      60.930  83.354  24.504  1.00 39.61 LIG-0.23  N 
ATOM     14 1HH1 ARG B   2      63.159  85.485  24.040  1.00 36.12 LIG 0.17  HD
ATOM     15 2HH1 ARG B   2      63.321  84.090  24.532  1.00 36.12 LIG 0.17  HD
ATOM     16 1HH2 ARG B   2      60.079  83.246  24.446  1.00 39.61 LIG 0.17  HD
ATOM     17 2HH2 ARG B   2      61.428  82.710  24.781  1.00 39.61 LIG 0.17  HD
ENDBRANCH 8 9
ENDBRANCH 7 8
ENDBRANCH 6 7
ENDBRANCH 5 6
BRANCH 5 18
ATOM     18  N   ARG B   2      56.695  87.379  26.158  1.00 32.37 LIG-0.35  N 
ATOM     19 H    ARG B   2      57.296  87.766  25.680  1.00 32.37 LIG 0.16  HD
ATOM     20  C   ASN B   1      55.547  87.907  26.534  1.00 31.22 LIG 0.25  C 
ATOM     21 O    ASN B   1      54.792  87.297  27.261  1.00 24.61 LIG-0.27  OA
BRANCH 20 22
ATOM     22  CA  ASN B   1      55.171  89.313  26.099  1.00 32.89 LIG 0.28  C 
BRANCH 22 23
ATOM     23  CB  ASN B   1      54.916  89.245  24.593  1.00 38.07 LIG 0.14  C 
BRANCH 23 24
ATOM     24  CG  ASN B   1      53.524  89.588  24.239  1.00 44.05 LIG 0.22  C 
ATOM     25  ND2 ASN B   1      53.355  90.727  23.620  1.00 47.62 LIG-0.37  N 
ATOM     26 21HD ASN B   1      52.567  90.971  23.377  1.00 47.62 LIG 0.16  HD
ATOM     27 22HD ASN B   1      54.031  91.232  23.457  1.00 47.62 LIG 0.16  HD
ATOM     28 OD1  ASN B   1      52.589  88.819  24.501  1.00 47.48 LIG-0.27  OA
ENDBRANCH 23 24
ENDBRANCH 22 23
BRANCH 22 29
ATOM     29  N   ASN B   1      56.133  90.411  26.408  1.00 44.58 LIG-0.07  N 
ATOM     30 H1   ASN B   1      56.258  90.458  27.288  1.00 44.58 LIG 0.28  HD
ATOM     31 H3   ASN B   1      55.806  91.184  26.114  1.00 44.58 LIG 0.28  HD
ATOM     32 H2   ASN B   1      56.911  90.246  26.007  1.00 44.58 LIG 0.28  HD
ENDBRANCH 22 29
ENDBRANCH 20 22
ENDBRANCH 5 18
ENDBRANCH 1 5
BRANCH 3 33
ATOM     33  CA  LEU B   3      57.725  87.179  30.107  1.00 27.74 LIG 0.18  C 
BRANCH 33 34
ATOM     34  C   LEU B   3      56.608  88.002  30.616  1.00 25.40 LIG 0.24  C 
ATOM     35 O    LEU B   3      56.488  89.174  30.283  1.00 26.81 LIG-0.27  OA
ATOM     36  N   ILE B   4      55.762  87.416  31.428  1.00 26.13 LIG-0.35  N 
ATOM     37 H    ILE B   4      55.763  86.576  31.613  1.00 26.13 LIG 0.16  HD
BRANCH 36 38
ATOM     38  CA  ILE B   4      54.775  88.159  32.062  1.00 24.17 LIG 0.18  C 
BRANCH 38 39
ATOM     39  CB  ILE B   4      53.612  88.297  31.057  1.00 29.09 LIG 0.01  C 
ATOM     40  CG2 ILE B   4      53.280  86.935  30.549  1.00 25.20 LIG 0.01  C 
BRANCH 39 41
ATOM     41  CG1 ILE B   4      52.345  88.852  31.693  1.00 28.67 LIG 0.00  C 
ATOM     42  CD1 ILE B   4      51.206  87.864  31.652  1.00 34.41 LIG 0.01  C 
ENDBRANCH 39 41
ENDBRANCH 38 39
BRANCH 38 43
ATOM     43  C   ILE B   4      54.369  87.552  33.410  1.00 29.58 LIG 0.24  C 
ATOM     44  N   LEU B   5      54.020  88.427  34.344  1.00 36.70 LIG-0.35  N 
ATOM     45 H    LEU B   5      54.115  89.278  34.264  1.00 36.70 LIG 0.16  HD
ATOM     46 O    ILE B   4      54.382  86.299  33.613  1.00 23.70 LIG-0.27  OA
BRANCH 44 47
ATOM     47  CA  LEU B   5      53.442  88.010  35.597  1.00 37.00 LIG 0.16  C 
BRANCH 47 48
ATOM     48  C   LEU B   5      53.242  89.211  36.544  1.00 42.59 LIG 0.22  C 
ATOM     49 O    LEU B   5      54.012  90.207  36.506  1.00 38.80 LIG-0.29  OA
ENDBRANCH 47 48
BRANCH 47 50
ATOM     50  CB  LEU B   5      54.382  86.996  36.235  1.00 50.59 LIG 0.04  C 
BRANCH 50 51
ATOM     51  CG  LEU B   5      53.843  86.279  37.459  1.00 50.85 LIG-0.02  C 
ATOM     52  CD1 LEU B   5      53.259  84.956  37.014  1.00 54.07 LIG 0.01  C 
ATOM     53  CD2 LEU B   5      55.015  86.079  38.412  1.00 54.33 LIG 0.01  C 
ENDBRANCH 50 51
ENDBRANCH 47 50
ENDBRANCH 44 47
ENDBRANCH 38 43
ENDBRANCH 36 38
ENDBRANCH 33 34
BRANCH 33 54
ATOM     54  CB  LEU B   3      59.021  87.870  30.462  1.00 34.11 LIG 0.04  C 
BRANCH 54 55
ATOM     55  CG  LEU B   3      59.058  88.030  31.943  1.00 35.49 LIG-0.02  C 
ATOM     56  CD1 LEU B   3      59.627  86.760  32.544  1.00 39.12 LIG 0.01  C 
ATOM     57  CD2 LEU B   3      60.007  89.186  32.135  1.00 34.32 LIG 0.01  C 
ENDBRANCH 54 55
ENDBRANCH 33 54
ENDBRANCH 3 33
TORSDOF 22
ENDMDL
MODEL 18
USER: ADFR SOLUTION from run 57
USER: SCORE 18.125364 LL:  -3.782 LR: -16.898 RR:   0.000 FEB: -10.335
USER: RMSD 3.103306
USER: SEED 56
USER: STATUS no improvement in best in 12 clusters for 5 generations
USER: GENES 24
USER: genes 0 Translation |==|  0.49604 0.46589 0.40035
USER: genes 1 Rotation |==|  0.56473 0.47716 0.45267 0.99300
USER: genes 2 Torsion [N]-C--CA-[N] |==|  0.43872
USER: genes 3 Torsion [C]-CA--CB-[CG] |==|  0.41583
USER: genes 4 Torsion [CA]-CB--CG-[CD] |==|  0.70508
USER: genes 5 Torsion [CB]-CG--CD-[NE] |==|  0.55710
USER: genes 6 Torsion [CG]-CD--NE-[HE] |==|  0.68350
USER: genes 7 Torsion [C]-CA--N-[C] |==|  0.74310
USER: genes 8 Torsion [N]-C--CA-[N] |==|  0.42074
USER: genes 9 Torsion [C]-CA--CB-[CG] |==|  0.47431
USER: genes 10 Torsion [CA]-CB--CG-[OD1] |==|  0.00165
USER: genes 11 Torsion [C]-CA--N-[H1] |==|  0.25525
USER: genes 12 Torsion [C]-N--CA-[CB] |==|  0.42600
USER: genes 13 Torsion [N]-CA--C-[N] |==|  0.55444
USER: genes 14 Torsion [C]-N--CA-[C] |==|  0.78322
USER: genes 15 Torsion [N]-CA--CB-[CG1] |==|  0.14697
USER: genes 16 Torsion [CA]-CB--CG1-[CD1] |==|  0.42778
USER: genes 17 Torsion [N]-CA--C-[N] |==|  0.56330
USER: genes 18 Torsion [C]-N--CA-[C] |==|  0.18851
USER: genes 19 Torsion [N]-CA--C-[O] |==|  0.62794
USER: genes 20 Torsion [N]-CA--CB-[CG] |==|  0.72067
USER: genes 21 Torsion [CA]-CB--CG-[CD1] |==|  0.29383
USER: genes 22 Torsion [N]-CA--CB-[CG] |==|  0.82749
USER: genes 23 Torsion [CA]-CB--CG-[CD1] |==|  0.40212
ROOT
ATOM      1  C   ARG B   2      56.924  86.338  27.587  1.00 25.54 LIG 0.24  C 
ATOM      2 O    ARG B   2      57.018  85.090  27.808  1.00 21.45 LIG-0.27  OA
ATOM      3  N   LEU B   3      56.758  87.212  28.567  1.00 32.00 LIG-0.35  N 
ATOM      4 H    LEU B   3      56.795  88.065  28.465  1.00 32.00 LIG 0.16  HD
ENDROOT
BRANCH 1 5
ATOM      5  CA  ARG B   2      56.962  86.914  26.178  1.00 29.44 LIG 0.18  C 
BRANCH 5 6
ATOM      6  CB  ARG B   2      55.510  87.185  25.674  1.00 37.02 LIG 0.04  C 
BRANCH 6 7
ATOM      7  CG  ARG B   2      55.408  88.355  24.696  1.00 39.92 LIG 0.02  C 
BRANCH 7 8
ATOM      8  CD  ARG B   2      54.772  89.573  25.378  1.00 40.77 LIG 0.14  C 
BRANCH 8 9
ATOM      9  NE  ARG B   2      54.266  90.424  24.291  1.00 48.07 LIG-0.23  N 
ATOM     10 HE   ARG B   2      54.653  91.187  24.200  1.00 48.07 LIG 0.18  HD
ATOM     11  CZ  ARG B   2      53.278  90.162  23.423  1.00 44.36 LIG 0.67  C 
ATOM     12  NH1 ARG B   2      53.016  91.102  22.496  1.00 36.12 LIG-0.23  N 
ATOM     13  NH2 ARG B   2      52.572  89.008  23.456  1.00 39.61 LIG-0.23  N 
ATOM     14 1HH1 ARG B   2      53.474  91.830  22.479  1.00 36.12 LIG 0.17  HD
ATOM     15 2HH1 ARG B   2      52.391  90.974  21.919  1.00 36.12 LIG 0.17  HD
ATOM     16 1HH2 ARG B   2      52.751  88.412  24.048  1.00 39.61 LIG 0.17  HD
ATOM     17 2HH2 ARG B   2      51.945  88.872  22.884  1.00 39.61 LIG 0.17  HD
ENDBRANCH 8 9
ENDBRANCH 7 8
ENDBRANCH 6 7
ENDBRANCH 5 6
BRANCH 5 18
ATOM     18  N   ARG B   2      57.650  85.999  25.248  1.00 32.37 LIG-0.35  N 
ATOM     19 H    ARG B   2      57.161  85.399  24.874  1.00 32.37 LIG 0.16  HD
ATOM     20  C   ASN B   1      58.944  86.170  25.063  1.00 31.22 LIG 0.25  C 
ATOM     21 O    ASN B   1      59.555  87.011  25.687  1.00 24.61 LIG-0.27  OA
BRANCH 20 22
ATOM     22  CA  ASN B   1      59.704  85.279  24.096  1.00 32.89 LIG 0.28  C 
BRANCH 22 23
ATOM     23  CB  ASN B   1      60.081  84.019  24.876  1.00 38.07 LIG 0.14  C 
BRANCH 23 24
ATOM     24  CG  ASN B   1      60.636  82.961  24.007  1.00 44.05 LIG 0.22  C 
ATOM     25  ND2 ASN B   1      60.950  81.839  24.600  1.00 47.62 LIG-0.37  N 
ATOM     26 21HD ASN B   1      61.264  81.183  24.141  1.00 47.62 LIG 0.16  HD
ATOM     27 22HD ASN B   1      60.843  81.757  25.449  1.00 47.62 LIG 0.16  HD
ATOM     28 OD1  ASN B   1      60.769  83.138  22.788  1.00 47.48 LIG-0.27  OA
ENDBRANCH 23 24
ENDBRANCH 22 23
BRANCH 22 29
ATOM     29  N   ASN B   1      60.910  85.852  23.430  1.00 44.58 LIG-0.07  N 
ATOM     30 H1   ASN B   1      61.633  85.666  23.915  1.00 44.58 LIG 0.28  HD
ATOM     31 H3   ASN B   1      60.819  86.735  23.360  1.00 44.58 LIG 0.28  HD
ATOM     32 H2   ASN B   1      60.998  85.497  22.619  1.00 44.58 LIG 0.28  HD
ENDBRANCH 22 29
ENDBRANCH 20 22
ENDBRANCH 5 18
ENDBRANCH 1 5
BRANCH 3 33
ATOM     33  CA  LEU B   3      56.494  86.775  29.929  1.00 27.74 LIG 0.18  C 
BRANCH 33 34
ATOM     34  C   LEU B   3      55.044  86.598  30.158  1.00 25.40 LIG 0.24  C 
ATOM     35 O    LEU B   3      54.272  86.456  29.219  1.00 26.81 LIG-0.27  OA
ATOM     36  N   ILE B   4      54.638  86.597  31.404  1.00 26.13 LIG-0.35  N 
ATOM     37 H    ILE B   4      55.158  86.605  32.089  1.00 26.13 LIG 0.16  HD
BRANCH 36 38
ATOM     38  CA  ILE B   4      53.279  86.585  31.695  1.00 24.17 LIG 0.18  C 
BRANCH 38 39
ATOM     39  CB  ILE B   4      53.137  85.994  33.113  1.00 29.09 LIG 0.01  C 
ATOM     40  CG2 ILE B   4      53.595  84.576  33.067  1.00 25.20 LIG 0.01  C 
BRANCH 39 41
ATOM     41  CG1 ILE B   4      54.007  86.706  34.139  1.00 28.67 LIG 0.00  C 
ATOM     42  CD1 ILE B   4      53.449  86.594  35.537  1.00 34.41 LIG 0.01  C 
ENDBRANCH 39 41
ENDBRANCH 38 39
BRANCH 38 43
ATOM     43  C   ILE B   4      52.638  87.966  31.525  1.00 29.58 LIG 0.24  C 
ATOM     44  N   LEU B   5      51.515  88.159  32.206  1.00 36.70 LIG-0.35  N 
ATOM     45 H    LEU B   5      51.098  87.536  32.628  1.00 36.70 LIG 0.16  HD
ATOM     46 O    ILE B   4      53.145  88.853  30.771  1.00 23.70 LIG-0.27  OA
BRANCH 44 47
ATOM     47  CA  LEU B   5      50.895  89.457  32.296  1.00 37.00 LIG 0.16  C 
BRANCH 47 48
ATOM     48  C   LEU B   5      50.340  89.902  30.928  1.00 42.59 LIG 0.22  C 
ATOM     49 O    LEU B   5      50.543  91.066  30.489  1.00 38.80 LIG-0.29  OA
ENDBRANCH 47 48
BRANCH 47 50
ATOM     50  CB  LEU B   5      51.945  90.448  32.779  1.00 50.59 LIG 0.04  C 
BRANCH 50 51
ATOM     51  CG  LEU B   5      51.882  90.807  34.251  1.00 50.85 LIG-0.02  C 
ATOM     52  CD1 LEU B   5      53.024  90.110  34.958  1.00 54.07 LIG 0.01  C 
ATOM     53  CD2 LEU B   5      52.009  92.323  34.348  1.00 54.33 LIG 0.01  C 
ENDBRANCH 50 51
ENDBRANCH 47 50
ENDBRANCH 44 47
ENDBRANCH 38 43
ENDBRANCH 36 38
ENDBRANCH 33 34
BRANCH 33 54
ATOM     54  CB  LEU B   3      56.994  87.843  30.873  1.00 34.11 LIG 0.04  C 
BRANCH 54 55
ATOM     55  CG  LEU B   3      58.467  87.969  30.675  1.00 35.49 LIG-0.02  C 
ATOM     56  CD1 LEU B   3      58.847  89.426  30.848  1.00 39.12 LIG 0.01  C 
ATOM     57  CD2 LEU B   3      59.032  87.130  31.794  1.00 34.32 LIG 0.01  C 
ENDBRANCH 54 55
ENDBRANCH 33 54
ENDBRANCH 3 33
TORSDOF 22
ENDMDL
MODEL 19
USER: ADFR SOLUTION from run 159
USER: SCORE 19.662548 LL:  -3.977 LR: -16.873 RR:   0.000 FEB: -10.311
USER: RMSD 4.069488
USER: SEED 158
USER: STATUS no improvement in best in 8 clusters for 5 generations
USER: GENES 24
USER: genes 0 Translation |==|  0.50194 0.47522 0.40212
USER: genes 1 Rotation |==|  0.52849 0.48743 0.41269 0.99133
USER: genes 2 Torsion [N]-C--CA-[N] |==|  0.40587
USER: genes 3 Torsion [C]-CA--CB-[CG] |==|  0.20255
USER: genes 4 Torsion [CA]-CB--CG-[CD] |==|  0.17641
USER: genes 5 Torsion [CB]-CG--CD-[NE] |==|  0.73383
USER: genes 6 Torsion [CG]-CD--NE-[HE] |==|  0.80551
USER: genes 7 Torsion [C]-CA--N-[C] |==|  0.71730
USER: genes 8 Torsion [N]-C--CA-[N] |==|  0.49890
USER: genes 9 Torsion [C]-CA--CB-[CG] |==|  0.48242
USER: genes 10 Torsion [CA]-CB--CG-[OD1] |==|  0.95057
USER: genes 11 Torsion [C]-CA--N-[H1] |==|  0.46676
USER: genes 12 Torsion [C]-N--CA-[CB] |==|  0.48889
USER: genes 13 Torsion [N]-CA--C-[N] |==|  0.53040
USER: genes 14 Torsion [C]-N--CA-[C] |==|  0.82198
USER: genes 15 Torsion [N]-CA--CB-[CG1] |==|  0.61584
USER: genes 16 Torsion [CA]-CB--CG1-[CD1] |==|  0.04333
USER: genes 17 Torsion [N]-CA--C-[N] |==|  0.45361
USER: genes 18 Torsion [C]-N--CA-[C] |==|  0.88645
USER: genes 19 Torsion [N]-CA--C-[O] |==|  0.38323
USER: genes 20 Torsion [N]-CA--CB-[CG] |==|  0.95473
USER: genes 21 Torsion [CA]-CB--CG-[CD1] |==|  0.30405
USER: genes 22 Torsion [N]-CA--CB-[CG] |==|  0.68248
USER: genes 23 Torsion [CA]-CB--CG-[CD1] |==|  0.98584
ROOT
ATOM      1  C   ARG B   2      57.048  86.512  27.625  1.00 25.54 LIG 0.24  C 
ATOM      2 O    ARG B   2      56.967  85.303  28.008  1.00 21.45 LIG-0.27  OA
ATOM      3  N   LEU B   3      57.102  87.517  28.486  1.00 32.00 LIG-0.35  N 
ATOM      4 H    LEU B   3      57.261  88.333  28.267  1.00 32.00 LIG 0.16  HD
ENDROOT
BRANCH 1 5
ATOM      5  CA  ARG B   2      57.055  86.896  26.152  1.00 29.44 LIG 0.18  C 
BRANCH 5 6
ATOM      6  CB  ARG B   2      55.591  87.045  25.633  1.00 37.02 LIG 0.04  C 
BRANCH 6 7
ATOM      7  CG  ARG B   2      54.885  88.303  26.139  1.00 39.92 LIG 0.02  C 
BRANCH 7 8
ATOM      8  CD  ARG B   2      55.592  89.562  25.621  1.00 40.77 LIG 0.14  C 
BRANCH 8 9
ATOM      9  NE  ARG B   2      56.507  89.978  26.694  1.00 48.07 LIG-0.23  N 
ATOM     10 HE   ARG B   2      56.136  90.293  27.403  1.00 48.07 LIG 0.18  HD
ATOM     11  CZ  ARG B   2      57.847  89.929  26.708  1.00 44.36 LIG 0.67  C 
ATOM     12  NH1 ARG B   2      58.462  90.352  27.828  1.00 36.12 LIG-0.23  N 
ATOM     13  NH2 ARG B   2      58.565  89.471  25.657  1.00 39.61 LIG-0.23  N 
ATOM     14 1HH1 ARG B   2      57.996  90.637  28.493  1.00 36.12 LIG 0.17  HD
ATOM     15 2HH1 ARG B   2      59.319  90.337  27.879  1.00 36.12 LIG 0.17  HD
ATOM     16 1HH2 ARG B   2      58.164  89.197  24.948  1.00 39.61 LIG 0.17  HD
ATOM     17 2HH2 ARG B   2      59.424  89.453  25.698  1.00 39.61 LIG 0.17  HD
ENDBRANCH 8 9
ENDBRANCH 7 8
ENDBRANCH 6 7
ENDBRANCH 5 6
BRANCH 5 18
ATOM     18  N   ARG B   2      57.769  85.889  25.344  1.00 32.37 LIG-0.35  N 
ATOM     19 H    ARG B   2      57.335  85.169  25.164  1.00 32.37 LIG 0.16  HD
ATOM     20  C   ASN B   1      59.001  86.167  24.965  1.00 31.22 LIG 0.25  C 
ATOM     21 O    ASN B   1      59.545  87.190  25.324  1.00 24.61 LIG-0.27  OA
BRANCH 20 22
ATOM     22  CA  ASN B   1      59.778  85.184  24.107  1.00 32.89 LIG 0.28  C 
BRANCH 22 23
ATOM     23  CB  ASN B   1      59.797  83.862  24.877  1.00 38.07 LIG 0.14  C 
BRANCH 23 24
ATOM     24  CG  ASN B   1      60.395  82.761  24.094  1.00 44.05 LIG 0.22  C 
ATOM     25  ND2 ASN B   1      60.757  81.706  24.775  1.00 47.62 LIG-0.37  N 
ATOM     26 21HD ASN B   1      61.097  81.028  24.369  1.00 47.62 LIG 0.16  HD
ATOM     27 22HD ASN B   1      60.655  81.688  25.628  1.00 47.62 LIG 0.16  HD
ATOM     28 OD1  ASN B   1      60.518  82.843  22.864  1.00 47.48 LIG-0.27  OA
ENDBRANCH 23 24
ENDBRANCH 22 23
BRANCH 22 29
ATOM     29  N   ASN B   1      61.164  85.564  23.705  1.00 44.58 LIG-0.07  N 
ATOM     30 H1   ASN B   1      61.579  84.855  23.361  1.00 44.58 LIG 0.28  HD
ATOM     31 H3   ASN B   1      61.612  85.852  24.418  1.00 44.58 LIG 0.28  HD
ATOM     32 H2   ASN B   1      61.129  86.211  23.095  1.00 44.58 LIG 0.28  HD
ENDBRANCH 22 29
ENDBRANCH 20 22
ENDBRANCH 5 18
ENDBRANCH 1 5
BRANCH 3 33
ATOM     33  CA  LEU B   3      56.890  87.301  29.909  1.00 27.74 LIG 0.18  C 
BRANCH 33 34
ATOM     34  C   LEU B   3      55.506  86.859  30.179  1.00 25.40 LIG 0.24  C 
ATOM     35 O    LEU B   3      54.764  86.523  29.265  1.00 26.81 LIG-0.27  OA
ATOM     36  N   ILE B   4      55.122  86.844  31.432  1.00 26.13 LIG-0.35  N 
ATOM     37 H    ILE B   4      55.640  86.986  32.104  1.00 26.13 LIG 0.16  HD
BRANCH 36 38
ATOM     38  CA  ILE B   4      53.796  86.584  31.753  1.00 24.17 LIG 0.18  C 
BRANCH 38 39
ATOM     39  CB  ILE B   4      53.741  86.396  33.284  1.00 29.09 LIG 0.01  C 
ATOM     40  CG2 ILE B   4      53.164  87.635  33.879  1.00 25.20 LIG 0.01  C 
BRANCH 39 41
ATOM     41  CG1 ILE B   4      52.841  85.242  33.705  1.00 28.67 LIG 0.00  C 
ATOM     42  CD1 ILE B   4      52.513  84.325  32.552  1.00 34.41 LIG 0.01  C 
ENDBRANCH 39 41
ENDBRANCH 38 39
BRANCH 38 43
ATOM     43  C   ILE B   4      52.849  87.664  31.221  1.00 29.58 LIG 0.24  C 
ATOM     44  N   LEU B   5      51.566  87.324  31.180  1.00 36.70 LIG-0.35  N 
ATOM     45 H    LEU B   5      51.276  86.529  31.327  1.00 36.70 LIG 0.16  HD
ATOM     46 O    ILE B   4      53.272  88.797  30.834  1.00 23.70 LIG-0.27  OA
BRANCH 44 47
ATOM     47  CA  LEU B   5      50.535  88.286  30.879  1.00 37.00 LIG 0.16  C 
BRANCH 47 48
ATOM     48  C   LEU B   5      50.811  89.632  31.578  1.00 42.59 LIG 0.22  C 
ATOM     49 O    LEU B   5      50.633  90.727  30.980  1.00 38.80 LIG-0.29  OA
ENDBRANCH 47 48
BRANCH 47 50
ATOM     50  CB  LEU B   5      49.206  87.716  31.355  1.00 50.59 LIG 0.04  C 
BRANCH 50 51
ATOM     51  CG  LEU B   5      49.194  86.226  31.639  1.00 50.85 LIG-0.02  C 
ATOM     52  CD1 LEU B   5      49.085  86.029  33.135  1.00 54.07 LIG 0.01  C 
ATOM     53  CD2 LEU B   5      47.989  85.642  30.910  1.00 54.33 LIG 0.01  C 
ENDBRANCH 50 51
ENDBRANCH 47 50
ENDBRANCH 44 47
ENDBRANCH 38 43
ENDBRANCH 36 38
ENDBRANCH 33 34
BRANCH 33 54
ATOM     54  CB  LEU B   3      57.115  88.613  30.624  1.00 34.11 LIG 0.04  C 
BRANCH 54 55
ATOM     55  CG  LEU B   3      58.317  88.457  31.491  1.00 35.49 LIG-0.02  C 
ATOM     56  CD1 LEU B   3      58.771  87.012  31.418  1.00 39.12 LIG 0.01  C 
ATOM     57  CD2 LEU B   3      59.325  89.370  30.841  1.00 34.32 LIG 0.01  C 
ENDBRANCH 54 55
ENDBRANCH 33 54
ENDBRANCH 3 33
TORSDOF 22
ENDMDL
MODEL 20
USER: ADFR SOLUTION from run 8
USER: SCORE 18.221653 LL:  -3.135 LR: -16.866 RR:   0.000 FEB: -10.304
USER: RMSD 2.266453
USER: SEED 663339
USER: STATUS no improvement in best in 11 clusters for 5 generations
USER: GENES 24
USER: genes 0 Translation |==|  0.50072 0.47592 0.39068
USER: genes 1 Rotation |==|  0.48469 0.52652 0.49047 0.99897
USER: genes 2 Torsion [N]-C--CA-[N] |==|  0.39681
USER: genes 3 Torsion [C]-CA--CB-[CG] |==|  0.69308
USER: genes 4 Torsion [CA]-CB--CG-[CD] |==|  0.67512
USER: genes 5 Torsion [CB]-CG--CD-[NE] |==|  0.67784
USER: genes 6 Torsion [CG]-CD--NE-[HE] |==|  0.27519
USER: genes 7 Torsion [C]-CA--N-[C] |==|  0.80343
USER: genes 8 Torsion [N]-C--CA-[N] |==|  0.36026
USER: genes 9 Torsion [C]-CA--CB-[CG] |==|  0.54604
USER: genes 10 Torsion [CA]-CB--CG-[OD1] |==|  0.74608
USER: genes 11 Torsion [C]-CA--N-[H1] |==|  0.73181
USER: genes 12 Torsion [C]-N--CA-[CB] |==|  0.39104
USER: genes 13 Torsion [N]-CA--C-[N] |==|  0.31752
USER: genes 14 Torsion [C]-N--CA-[C] |==|  0.78306
USER: genes 15 Torsion [N]-CA--CB-[CG1] |==|  0.64720
USER: genes 16 Torsion [CA]-CB--CG1-[CD1] |==|  0.54146
USER: genes 17 Torsion [N]-CA--C-[N] |==|  0.46105
USER: genes 18 Torsion [C]-N--CA-[C] |==|  0.22106
USER: genes 19 Torsion [N]-CA--C-[O] |==|  0.00653
USER: genes 20 Torsion [N]-CA--CB-[CG] |==|  0.60207
USER: genes 21 Torsion [CA]-CB--CG-[CD1] |==|  0.46373
USER: genes 22 Torsion [N]-CA--CB-[CG] |==|  0.68721
USER: genes 23 Torsion [CA]-CB--CG-[CD1] |==|  0.53973
ROOT
ATOM      1  C   ARG B   2      57.022  86.526  27.376  1.00 25.54 LIG 0.24  C 
ATOM      2 O    ARG B   2      57.390  85.435  27.915  1.00 21.45 LIG-0.27  OA
ATOM      3  N   LEU B   3      56.870  87.637  28.079  1.00 32.00 LIG-0.35  N 
ATOM      4 H    LEU B   3      56.724  88.411  27.733  1.00 32.00 LIG 0.16  HD
ENDROOT
BRANCH 1 5
ATOM      5  CA  ARG B   2      56.700  86.625  25.892  1.00 29.44 LIG 0.18  C 
BRANCH 5 6
ATOM      6  CB  ARG B   2      55.232  86.160  25.633  1.00 37.02 LIG 0.04  C 
BRANCH 6 7
ATOM      7  CG  ARG B   2      55.132  84.835  24.878  1.00 39.92 LIG 0.02  C 
BRANCH 7 8
ATOM      8  CD  ARG B   2      54.442  85.038  23.524  1.00 40.77 LIG 0.14  C 
BRANCH 8 9
ATOM      9  NE  ARG B   2      53.193  84.264  23.589  1.00 48.07 LIG-0.23  N 
ATOM     10 HE   ARG B   2      52.482  84.713  23.770  1.00 48.07 LIG 0.18  HD
ATOM     11  CZ  ARG B   2      53.022  82.948  23.402  1.00 44.36 LIG 0.67  C 
ATOM     12  NH1 ARG B   2      51.764  82.477  23.493  1.00 36.12 LIG-0.23  N 
ATOM     13  NH2 ARG B   2      54.052  82.115  23.126  1.00 39.61 LIG-0.23  N 
ATOM     14 1HH1 ARG B   2      51.115  83.014  23.664  1.00 36.12 LIG 0.17  HD
ATOM     15 2HH1 ARG B   2      51.609  81.639  23.380  1.00 36.12 LIG 0.17  HD
ATOM     16 1HH2 ARG B   2      54.851  82.426  23.064  1.00 39.61 LIG 0.17  HD
ATOM     17 2HH2 ARG B   2      53.907  81.275  23.012  1.00 39.61 LIG 0.17  HD
ENDBRANCH 8 9
ENDBRANCH 7 8
ENDBRANCH 6 7
ENDBRANCH 5 6
BRANCH 5 18
ATOM     18  N   ARG B   2      57.630  85.809  25.090  1.00 32.37 LIG-0.35  N 
ATOM     19 H    ARG B   2      57.301  85.101  24.730  1.00 32.37 LIG 0.16  HD
ATOM     20  C   ASN B   1      58.878  86.222  24.987  1.00 31.22 LIG 0.25  C 
ATOM     21 O    ASN B   1      59.257  87.206  25.586  1.00 24.61 LIG-0.27  OA
BRANCH 20 22
ATOM     22  CA  ASN B   1      59.877  85.440  24.152  1.00 32.89 LIG 0.28  C 
BRANCH 22 23
ATOM     23  CB  ASN B   1      60.801  84.727  25.140  1.00 38.07 LIG 0.14  C 
BRANCH 23 24
ATOM     24  CG  ASN B   1      62.046  84.248  24.504  1.00 44.05 LIG 0.22  C 
ATOM     25  ND2 ASN B   1      63.048  85.088  24.504  1.00 47.62 LIG-0.37  N 
ATOM     26 21HD ASN B   1      63.802  84.857  24.161  1.00 47.62 LIG 0.16  HD
ATOM     27 22HD ASN B   1      62.953  85.871  24.846  1.00 47.62 LIG 0.16  HD
ATOM     28 OD1  ASN B   1      62.123  83.108  24.026  1.00 47.48 LIG-0.27  OA
ENDBRANCH 23 24
ENDBRANCH 22 23
BRANCH 22 29
ATOM     29  N   ASN B   1      60.682  86.198  23.150  1.00 44.58 LIG-0.07  N 
ATOM     30 H1   ASN B   1      60.299  86.133  22.349  1.00 44.58 LIG 0.28  HD
ATOM     31 H3   ASN B   1      61.505  85.861  23.114  1.00 44.58 LIG 0.28  HD
ATOM     32 H2   ASN B   1      60.723  87.055  23.389  1.00 44.58 LIG 0.28  HD
ENDBRANCH 22 29
ENDBRANCH 20 22
ENDBRANCH 5 18
ENDBRANCH 1 5
BRANCH 3 33
ATOM     33  CA  LEU B   3      56.940  87.625  29.532  1.00 27.74 LIG 0.18  C 
BRANCH 33 34
ATOM     34  C   LEU B   3      55.587  87.649  30.129  1.00 25.40 LIG 0.24  C 
ATOM     35 O    LEU B   3      54.856  88.620  29.991  1.00 26.81 LIG-0.27  OA
ATOM     36  N   ILE B   4      55.218  86.585  30.800  1.00 26.13 LIG-0.35  N 
ATOM     37 H    ILE B   4      55.667  85.853  30.842  1.00 26.13 LIG 0.16  HD
BRANCH 36 38
ATOM     38  CA  ILE B   4      54.025  86.588  31.512  1.00 24.17 LIG 0.18  C 
BRANCH 38 39
ATOM     39  CB  ILE B   4      53.594  85.114  31.657  1.00 29.09 LIG 0.01  C 
ATOM     40  CG2 ILE B   4      53.632  84.765  33.106  1.00 25.20 LIG 0.01  C 
BRANCH 39 41
ATOM     41  CG1 ILE B   4      52.170  84.866  31.180  1.00 28.67 LIG 0.00  C 
ATOM     42  CD1 ILE B   4      51.634  83.535  31.648  1.00 34.41 LIG 0.01  C 
ENDBRANCH 39 41
ENDBRANCH 38 39
BRANCH 38 43
ATOM     43  C   ILE B   4      54.147  87.339  32.842  1.00 29.58 LIG 0.24  C 
ATOM     44  N   LEU B   5      52.996  87.634  33.434  1.00 36.70 LIG-0.35  N 
ATOM     45 H    LEU B   5      52.226  87.525  33.067  1.00 36.70 LIG 0.16  HD
ATOM     46 O    ILE B   4      55.273  87.666  33.328  1.00 23.70 LIG-0.27  OA
BRANCH 44 47
ATOM     47  CA  LEU B   5      52.946  88.172  34.771  1.00 37.00 LIG 0.16  C 
BRANCH 47 48
ATOM     48  C   LEU B   5      53.252  89.683  34.773  1.00 42.59 LIG 0.22  C 
ATOM     49 O    LEU B   5      53.461  90.309  33.700  1.00 38.80 LIG-0.29  OA
ENDBRANCH 47 48
BRANCH 47 50
ATOM     50  CB  LEU B   5      53.976  87.432  35.615  1.00 50.59 LIG 0.04  C 
BRANCH 50 51
ATOM     51  CG  LEU B   5      53.574  87.161  37.052  1.00 50.85 LIG-0.02  C 
ATOM     52  CD1 LEU B   5      54.547  86.158  37.635  1.00 54.07 LIG 0.01  C 
ATOM     53  CD2 LEU B   5      53.636  88.492  37.793  1.00 54.33 LIG 0.01  C 
ENDBRANCH 50 51
ENDBRANCH 47 50
ENDBRANCH 44 47
ENDBRANCH 38 43
ENDBRANCH 36 38
ENDBRANCH 33 34
BRANCH 33 54
ATOM     54  CB  LEU B   3      57.674  88.867  29.979  1.00 34.11 LIG 0.04  C 
BRANCH 54 55
ATOM     55  CG  LEU B   3      58.972  88.436  30.574  1.00 35.49 LIG-0.02  C 
ATOM     56  CD1 LEU B   3      59.556  89.608  31.339  1.00 39.12 LIG 0.01  C 
ATOM     57  CD2 LEU B   3      58.563  87.331  31.515  1.00 34.32 LIG 0.01  C 
ENDBRANCH 54 55
ENDBRANCH 33 54
ENDBRANCH 3 33
TORSDOF 22
ENDMDL
MODEL 21
USER: ADFR SOLUTION from run 161
USER: SCORE 19.130595 LL:  -3.714 LR: -16.848 RR:   0.000 FEB: -10.286
USER: RMSD 3.826141
USER: SEED 160
USER: STATUS no improvement in best in 19 clusters for 5 generations
USER: GENES 24
USER: genes 0 Translation |==|  0.55185 0.49050 0.39915
USER: genes 1 Rotation |==|  0.52712 0.47965 0.34036 0.97262
USER: genes 2 Torsion [N]-C--CA-[N] |==|  0.00341
USER: genes 3 Torsion [C]-CA--CB-[CG] |==|  0.25891
USER: genes 4 Torsion [CA]-CB--CG-[CD] |==|  0.96739
USER: genes 5 Torsion [CB]-CG--CD-[NE] |==|  0.46554
USER: genes 6 Torsion [CG]-CD--NE-[HE] |==|  0.83653
USER: genes 7 Torsion [C]-CA--N-[C] |==|  0.73977
USER: genes 8 Torsion [N]-C--CA-[N] |==|  0.78690
USER: genes 9 Torsion [C]-CA--CB-[CG] |==|  0.27148
USER: genes 10 Torsion [CA]-CB--CG-[OD1] |==|  0.67343
USER: genes 11 Torsion [C]-CA--N-[H1] |==|  0.61261
USER: genes 12 Torsion [C]-N--CA-[CB] |==|  0.45558
USER: genes 13 Torsion [N]-CA--C-[N] |==|  0.31005
USER: genes 14 Torsion [C]-N--CA-[C] |==|  0.81355
USER: genes 15 Torsion [N]-CA--CB-[CG1] |==|  0.65079
USER: genes 16 Torsion [CA]-CB--CG1-[CD1] |==|  0.61105
USER: genes 17 Torsion [N]-CA--C-[N] |==|  0.40711
USER: genes 18 Torsion [C]-N--CA-[C] |==|  0.87898
USER: genes 19 Torsion [N]-CA--C-[O] |==|  0.88448
USER: genes 20 Torsion [N]-CA--CB-[CG] |==|  0.90649
USER: genes 21 Torsion [CA]-CB--CG-[CD1] |==|  0.29100
USER: genes 22 Torsion [N]-CA--CB-[CG] |==|  0.56036
USER: genes 23 Torsion [CA]-CB--CG-[CD1] |==|  0.08875
ROOT
ATOM      1  C   ARG B   2      58.096  86.799  27.561  1.00 25.54 LIG 0.24  C 
ATOM      2 O    ARG B   2      57.655  85.668  27.938  1.00 21.45 LIG-0.27  OA
ATOM      3  N   LEU B   3      58.432  87.743  28.425  1.00 32.00 LIG-0.35  N 
ATOM      4 H    LEU B   3      58.829  88.476  28.211  1.00 32.00 LIG 0.16  HD
ENDROOT
BRANCH 1 5
ATOM      5  CA  ARG B   2      58.239  87.160  26.089  1.00 29.44 LIG 0.18  C 
BRANCH 5 6
ATOM      6  CB  ARG B   2      59.185  86.141  25.379  1.00 37.02 LIG 0.04  C 
BRANCH 6 7
ATOM      7  CG  ARG B   2      58.449  84.971  24.727  1.00 39.92 LIG 0.02  C 
BRANCH 7 8
ATOM      8  CD  ARG B   2      56.985  84.936  25.181  1.00 40.77 LIG 0.14  C 
BRANCH 8 9
ATOM      9  NE  ARG B   2      56.309  83.987  24.284  1.00 48.07 LIG-0.23  N 
ATOM     10 HE   ARG B   2      56.340  84.176  23.445  1.00 48.07 LIG 0.18  HD
ATOM     11  CZ  ARG B   2      55.649  82.865  24.607  1.00 44.36 LIG 0.67  C 
ATOM     12  NH1 ARG B   2      55.133  82.148  23.592  1.00 36.12 LIG-0.23  N 
ATOM     13  NH2 ARG B   2      55.507  82.452  25.887  1.00 39.61 LIG-0.23  N 
ATOM     14 1HH1 ARG B   2      55.233  82.415  22.781  1.00 36.12 LIG 0.17  HD
ATOM     15 2HH1 ARG B   2      54.703  81.421  23.754  1.00 36.12 LIG 0.17  HD
ATOM     16 1HH2 ARG B   2      55.846  82.914  26.528  1.00 39.61 LIG 0.17  HD
ATOM     17 2HH2 ARG B   2      55.078  81.727  26.060  1.00 39.61 LIG 0.17  HD
ENDBRANCH 8 9
ENDBRANCH 7 8
ENDBRANCH 6 7
ENDBRANCH 5 6
BRANCH 5 18
ATOM     18  N   ARG B   2      58.767  88.527  25.926  1.00 32.37 LIG-0.35  N 
ATOM     19 H    ARG B   2      59.623  88.607  25.934  1.00 32.37 LIG 0.16  HD
ATOM     20  C   ASN B   1      57.898  89.509  25.781  1.00 31.22 LIG 0.25  C 
ATOM     21 O    ASN B   1      56.707  89.297  25.845  1.00 24.61 LIG-0.27  OA
BRANCH 20 22
ATOM     22  CA  ASN B   1      58.381  90.935  25.581  1.00 32.89 LIG 0.28  C 
BRANCH 22 23
ATOM     23  CB  ASN B   1      59.469  90.875  24.507  1.00 38.07 LIG 0.14  C 
BRANCH 23 24
ATOM     24  CG  ASN B   1      58.958  91.217  23.165  1.00 44.05 LIG 0.22  C 
ATOM     25  ND2 ASN B   1      58.507  92.435  23.017  1.00 47.62 LIG-0.37  N 
ATOM     26 21HD ASN B   1      58.211  92.694  22.252  1.00 47.62 LIG 0.16  HD
ATOM     27 22HD ASN B   1      58.507  92.978  23.684  1.00 47.62 LIG 0.16  HD
ATOM     28 OD1  ASN B   1      58.983  90.392  22.240  1.00 47.48 LIG-0.27  OA
ENDBRANCH 23 24
ENDBRANCH 22 23
BRANCH 22 29
ATOM     29  N   ASN B   1      58.882  91.669  26.779  1.00 44.58 LIG-0.07  N 
ATOM     30 H1   ASN B   1      58.595  92.511  26.754  1.00 44.58 LIG 0.28  HD
ATOM     31 H3   ASN B   1      59.772  91.659  26.784  1.00 44.58 LIG 0.28  HD
ATOM     32 H2   ASN B   1      58.578  91.275  27.518  1.00 44.58 LIG 0.28  HD
ENDBRANCH 22 29
ENDBRANCH 20 22
ENDBRANCH 5 18
ENDBRANCH 1 5
BRANCH 3 33
ATOM     33  CA  LEU B   3      58.145  87.603  29.845  1.00 27.74 LIG 0.18  C 
BRANCH 33 34
ATOM     34  C   LEU B   3      56.720  87.875  30.127  1.00 25.40 LIG 0.24  C 
ATOM     35 O    LEU B   3      56.258  89.002  30.003  1.00 26.81 LIG-0.27  OA
ATOM     36  N   ILE B   4      55.986  86.857  30.507  1.00 26.13 LIG-0.35  N 
ATOM     37 H    ILE B   4      56.253  86.040  30.519  1.00 26.13 LIG 0.16  HD
BRANCH 36 38
ATOM     38  CA  ILE B   4      54.679  87.058  30.932  1.00 24.17 LIG 0.18  C 
BRANCH 38 39
ATOM     39  CB  ILE B   4      54.014  85.667  30.988  1.00 29.09 LIG 0.01  C 
ATOM     40  CG2 ILE B   4      53.649  85.389  32.407  1.00 25.20 LIG 0.01  C 
BRANCH 39 41
ATOM     41  CG1 ILE B   4      52.727  85.595  30.179  1.00 28.67 LIG 0.00  C 
ATOM     42  CD1 ILE B   4      51.656  84.796  30.879  1.00 34.41 LIG 0.01  C 
ENDBRANCH 39 41
ENDBRANCH 38 39
BRANCH 38 43
ATOM     43  C   ILE B   4      54.612  87.839  32.249  1.00 29.58 LIG 0.24  C 
ATOM     44  N   LEU B   5      53.565  88.644  32.378  1.00 36.70 LIG-0.35  N 
ATOM     45 H    LEU B   5      53.013  88.819  31.742  1.00 36.70 LIG 0.16  HD
ATOM     46 O    ILE B   4      55.507  87.727  33.142  1.00 23.70 LIG-0.27  OA
BRANCH 44 47
ATOM     47  CA  LEU B   5      53.263  89.302  33.624  1.00 37.00 LIG 0.16  C 
BRANCH 47 48
ATOM     48  C   LEU B   5      53.418  88.336  34.815  1.00 42.59 LIG 0.22  C 
ATOM     49 O    LEU B   5      53.010  87.145  34.748  1.00 38.80 LIG-0.29  OA
ENDBRANCH 47 48
BRANCH 47 50
ATOM     50  CB  LEU B   5      51.829  89.812  33.553  1.00 50.59 LIG 0.04  C 
BRANCH 50 51
ATOM     51  CG  LEU B   5      51.361  90.265  32.183  1.00 50.85 LIG-0.02  C 
ATOM     52  CD1 LEU B   5      50.442  89.203  31.620  1.00 54.07 LIG 0.01  C 
ATOM     53  CD2 LEU B   5      50.629  91.588  32.377  1.00 54.33 LIG 0.01  C 
ENDBRANCH 50 51
ENDBRANCH 47 50
ENDBRANCH 44 47
ENDBRANCH 38 43
ENDBRANCH 36 38
ENDBRANCH 33 34
BRANCH 33 54
ATOM     54  CB  LEU B   3      58.977  88.614  30.597  1.00 34.11 LIG 0.04  C 
BRANCH 54 55
ATOM     55  CG  LEU B   3      59.102  88.140  32.005  1.00 35.49 LIG-0.02  C 
ATOM     56  CD1 LEU B   3      59.100  86.624  31.999  1.00 39.12 LIG 0.01  C 
ATOM     57  CD2 LEU B   3      60.448  88.674  32.424  1.00 34.32 LIG 0.01  C 
ENDBRANCH 54 55
ENDBRANCH 33 54
ENDBRANCH 3 33
TORSDOF 22
ENDMDL
MODEL 22
USER: ADFR SOLUTION from run 42
USER: SCORE 18.801370 LL:  -3.707 LR: -16.799 RR:   0.000 FEB: -10.236
USER: RMSD 1.832558
USER: SEED 41
USER: STATUS no improvement in best in 12 clusters for 5 generations
USER: GENES 24
USER: genes 0 Translation |==|  0.49835 0.43018 0.39100
USER: genes 1 Rotation |==|  0.46068 0.51350 0.35326 0.97617
USER: genes 2 Torsion [N]-C--CA-[N] |==|  0.29350
USER: genes 3 Torsion [C]-CA--CB-[CG] |==|  0.21620
USER: genes 4 Torsion [CA]-CB--CG-[CD] |==|  0.49260
USER: genes 5 Torsion [CB]-CG--CD-[NE] |==|  0.92699
USER: genes 6 Torsion [CG]-CD--NE-[HE] |==|  0.85586
USER: genes 7 Torsion [C]-CA--N-[C] |==|  0.78889
USER: genes 8 Torsion [N]-C--CA-[N] |==|  0.52729
USER: genes 9 Torsion [C]-CA--CB-[CG] |==|  0.48064
USER: genes 10 Torsion [CA]-CB--CG-[OD1] |==|  0.92451
USER: genes 11 Torsion [C]-CA--N-[H1] |==|  0.63615
USER: genes 12 Torsion [C]-N--CA-[CB] |==|  0.45299
USER: genes 13 Torsion [N]-CA--C-[N] |==|  0.28763
USER: genes 14 Torsion [C]-N--CA-[C] |==|  0.81232
USER: genes 15 Torsion [N]-CA--CB-[CG1] |==|  0.64870
USER: genes 16 Torsion [CA]-CB--CG1-[CD1] |==|  0.51476
USER: genes 17 Torsion [N]-CA--C-[N] |==|  0.41665
USER: genes 18 Torsion [C]-N--CA-[C] |==|  0.83008
USER: genes 19 Torsion [N]-CA--C-[O] |==|  0.21264
USER: genes 20 Torsion [N]-CA--CB-[CG] |==|  0.84194
USER: genes 21 Torsion [CA]-CB--CG-[CD1] |==|  0.27763
USER: genes 22 Torsion [N]-CA--CB-[CG] |==|  0.49402
USER: genes 23 Torsion [CA]-CB--CG-[CD1] |==|  0.20233
ROOT
ATOM      1  C   ARG B   2      56.972  85.668  27.383  1.00 25.54 LIG 0.24  C 
ATOM      2 O    ARG B   2      56.699  84.633  28.068  1.00 21.45 LIG-0.27  OA
ATOM      3  N   LEU B   3      57.409  86.784  27.946  1.00 32.00 LIG-0.35  N 
ATOM      4 H    LEU B   3      57.700  87.464  27.507  1.00 32.00 LIG 0.16  HD
ENDROOT
BRANCH 1 5
ATOM      5  CA  ARG B   2      56.787  85.710  25.873  1.00 29.44 LIG 0.18  C 
BRANCH 5 6
ATOM      6  CB  ARG B   2      55.398  85.110  25.489  1.00 37.02 LIG 0.04  C 
BRANCH 6 7
ATOM      7  CG  ARG B   2      54.229  86.064  25.728  1.00 39.92 LIG 0.02  C 
BRANCH 7 8
ATOM      8  CD  ARG B   2      52.912  85.427  25.267  1.00 40.77 LIG 0.14  C 
BRANCH 8 9
ATOM      9  NE  ARG B   2      53.278  84.461  24.220  1.00 48.07 LIG-0.23  N 
ATOM     10 HE   ARG B   2      53.770  84.765  23.584  1.00 48.07 LIG 0.18  HD
ATOM     11  CZ  ARG B   2      52.944  83.165  24.133  1.00 44.36 LIG 0.67  C 
ATOM     12  NH1 ARG B   2      53.428  82.480  23.081  1.00 36.12 LIG-0.23  N 
ATOM     13  NH2 ARG B   2      52.164  82.555  25.055  1.00 39.61 LIG-0.23  N 
ATOM     14 1HH1 ARG B   2      53.927  82.874  22.503  1.00 36.12 LIG 0.17  HD
ATOM     15 2HH1 ARG B   2      53.238  81.647  22.987  1.00 36.12 LIG 0.17  HD
ATOM     16 1HH2 ARG B   2      51.864  83.000  25.727  1.00 39.61 LIG 0.17  HD
ATOM     17 2HH2 ARG B   2      51.968  81.722  24.969  1.00 39.61 LIG 0.17  HD
ENDBRANCH 8 9
ENDBRANCH 7 8
ENDBRANCH 6 7
ENDBRANCH 5 6
BRANCH 5 18
ATOM     18  N   ARG B   2      57.858  84.966  25.185  1.00 32.37 LIG-0.35  N 
ATOM     19 H    ARG B   2      57.646  84.193  24.875  1.00 32.37 LIG 0.16  HD
ATOM     20  C   ASN B   1      59.044  85.537  25.097  1.00 31.22 LIG 0.25  C 
ATOM     21 O    ASN B   1      59.257  86.609  25.622  1.00 24.61 LIG-0.27  OA
BRANCH 20 22
ATOM     22  CA  ASN B   1      60.180  84.833  24.376  1.00 32.89 LIG 0.28  C 
BRANCH 22 23
ATOM     23  CB  ASN B   1      60.180  83.388  24.875  1.00 38.07 LIG 0.14  C 
BRANCH 23 24
ATOM     24  CG  ASN B   1      61.132  82.534  24.137  1.00 44.05 LIG 0.22  C 
ATOM     25  ND2 ASN B   1      61.588  81.494  24.783  1.00 47.62 LIG-0.37  N 
ATOM     26 21HD ASN B   1      62.134  80.953  24.398  1.00 47.62 LIG 0.16  HD
ATOM     27 22HD ASN B   1      61.342  81.349  25.594  1.00 47.62 LIG 0.16  HD
ATOM     28 OD1  ASN B   1      61.451  82.793  22.968  1.00 47.48 LIG-0.27  OA
ENDBRANCH 23 24
ENDBRANCH 22 23
BRANCH 22 29
ATOM     29  N   ASN B   1      61.546  85.420  24.503  1.00 44.58 LIG-0.07  N 
ATOM     30 H1   ASN B   1      61.915  85.493  23.696  1.00 44.58 LIG 0.28  HD
ATOM     31 H3   ASN B   1      62.050  84.892  25.012  1.00 44.58 LIG 0.28  HD
ATOM     32 H2   ASN B   1      61.490  86.227  24.876  1.00 44.58 LIG 0.28  HD
ENDBRANCH 22 29
ENDBRANCH 20 22
ENDBRANCH 5 18
ENDBRANCH 1 5
BRANCH 3 33
ATOM     33  CA  LEU B   3      57.426  86.942  29.392  1.00 27.74 LIG 0.18  C 
BRANCH 33 34
ATOM     34  C   LEU B   3      56.076  87.252  29.908  1.00 25.40 LIG 0.24  C 
ATOM     35 O    LEU B   3      55.597  88.371  29.785  1.00 26.81 LIG-0.27  OA
ATOM     36  N   ILE B   4      55.428  86.274  30.494  1.00 26.13 LIG-0.35  N 
ATOM     37 H    ILE B   4      55.694  85.457  30.519  1.00 26.13 LIG 0.16  HD
BRANCH 36 38
ATOM     38  CA  ILE B   4      54.220  86.523  31.133  1.00 24.17 LIG 0.18  C 
BRANCH 38 39
ATOM     39  CB  ILE B   4      53.574  85.148  31.407  1.00 29.09 LIG 0.01  C 
ATOM     40  CG2 ILE B   4      53.490  84.966  32.884  1.00 25.20 LIG 0.01  C 
BRANCH 39 41
ATOM     41  CG1 ILE B   4      52.155  85.045  30.868  1.00 28.67 LIG 0.00  C 
ATOM     42  CD1 ILE B   4      51.491  83.746  31.253  1.00 34.41 LIG 0.01  C 
ENDBRANCH 39 41
ENDBRANCH 38 39
BRANCH 38 43
ATOM     43  C   ILE B   4      54.394  87.393  32.382  1.00 29.58 LIG 0.24  C 
ATOM     44  N   LEU B   5      53.359  88.168  32.682  1.00 36.70 LIG-0.35  N 
ATOM     45 H    LEU B   5      52.678  88.278  32.170  1.00 36.70 LIG 0.16  HD
ATOM     46 O    ILE B   4      55.463  87.378  33.067  1.00 23.70 LIG-0.27  OA
BRANCH 44 47
ATOM     47  CA  LEU B   5      53.296  88.903  33.921  1.00 37.00 LIG 0.16  C 
BRANCH 47 48
ATOM     48  C   LEU B   5      53.316  87.952  35.134  1.00 42.59 LIG 0.22  C 
ATOM     49 O    LEU B   5      54.384  87.403  35.516  1.00 38.80 LIG-0.29  OA
ENDBRANCH 47 48
BRANCH 47 50
ATOM     50  CB  LEU B   5      52.008  89.717  33.920  1.00 50.59 LIG 0.04  C 
BRANCH 50 51
ATOM     51  CG  LEU B   5      51.835  90.672  32.754  1.00 50.85 LIG-0.02  C 
ATOM     52  CD1 LEU B   5      50.917  90.022  31.742  1.00 54.07 LIG 0.01  C 
ATOM     53  CD2 LEU B   5      51.229  91.954  33.313  1.00 54.33 LIG 0.01  C 
ENDBRANCH 50 51
ENDBRANCH 47 50
ENDBRANCH 44 47
ENDBRANCH 38 43
ENDBRANCH 36 38
ENDBRANCH 33 34
BRANCH 33 54
ATOM     54  CB  LEU B   3      58.338  88.098  29.729  1.00 34.11 LIG 0.04  C 
BRANCH 54 55
ATOM     55  CG  LEU B   3      58.306  88.284  31.208  1.00 35.49 LIG-0.02  C 
ATOM     56  CD1 LEU B   3      59.081  87.147  31.846  1.00 39.12 LIG 0.01  C 
ATOM     57  CD2 LEU B   3      59.023  89.597  31.401  1.00 34.32 LIG 0.01  C 
ENDBRANCH 54 55
ENDBRANCH 33 54
ENDBRANCH 3 33
TORSDOF 22
ENDMDL
MODEL 23
USER: ADFR SOLUTION from run 1
USER: SCORE 18.788598 LL:  -3.842 LR: -16.732 RR:   0.000 FEB: -10.169
USER: RMSD 4.767918
USER: SEED 619683
USER: STATUS no improvement in best in 7 clusters for 5 generations
USER: GENES 24
USER: genes 0 Translation |==|  0.51415 0.45061 0.42046
USER: genes 1 Rotation |==|  0.47081 0.50536 0.35605 0.97791
USER: genes 2 Torsion [N]-C--CA-[N] |==|  0.91149
USER: genes 3 Torsion [C]-CA--CB-[CG] |==|  0.58395
USER: genes 4 Torsion [CA]-CB--CG-[CD] |==|  0.61313
USER: genes 5 Torsion [CB]-CG--CD-[NE] |==|  0.76523
USER: genes 6 Torsion [CG]-CD--NE-[HE] |==|  0.81705
USER: genes 7 Torsion [C]-CA--N-[C] |==|  0.81616
USER: genes 8 Torsion [N]-C--CA-[N] |==|  0.85320
USER: genes 9 Torsion [C]-CA--CB-[CG] |==|  0.33941
USER: genes 10 Torsion [CA]-CB--CG-[OD1] |==|  0.79466
USER: genes 11 Torsion [C]-CA--N-[H1] |==|  0.86721
USER: genes 12 Torsion [C]-N--CA-[CB] |==|  0.41679
USER: genes 13 Torsion [N]-CA--C-[N] |==|  0.26979
USER: genes 14 Torsion [C]-N--CA-[C] |==|  0.79823
USER: genes 15 Torsion [N]-CA--CB-[CG1] |==|  0.18235
USER: genes 16 Torsion [CA]-CB--CG1-[CD1] |==|  0.28358
USER: genes 17 Torsion [N]-CA--C-[N] |==|  0.45306
USER: genes 18 Torsion [C]-N--CA-[C] |==|  0.80736
USER: genes 19 Torsion [N]-CA--C-[O] |==|  0.22919
USER: genes 20 Torsion [N]-CA--CB-[CG] |==|  0.87533
USER: genes 21 Torsion [CA]-CB--CG-[CD1] |==|  0.28539
USER: genes 22 Torsion [N]-CA--CB-[CG] |==|  0.53137
USER: genes 23 Torsion [CA]-CB--CG-[CD1] |==|  0.17136
ROOT
ATOM      1  C   ARG B   2      57.304  86.051  28.024  1.00 25.54 LIG 0.24  C 
ATOM      2 O    ARG B   2      57.018  84.992  28.666  1.00 21.45 LIG-0.27  OA
ATOM      3  N   LEU B   3      57.700  87.155  28.638  1.00 32.00 LIG-0.35  N 
ATOM      4 H    LEU B   3      58.000  87.852  28.232  1.00 32.00 LIG 0.16  HD
ENDROOT
BRANCH 1 5
ATOM      5  CA  ARG B   2      57.182  86.136  26.509  1.00 29.44 LIG 0.18  C 
BRANCH 5 6
ATOM      6  CB  ARG B   2      58.538  85.746  25.842  1.00 37.02 LIG 0.04  C 
BRANCH 6 7
ATOM      7  CG  ARG B   2      58.792  86.447  24.509  1.00 39.92 LIG 0.02  C 
BRANCH 7 8
ATOM      8  CD  ARG B   2      59.411  85.474  23.498  1.00 40.77 LIG 0.14  C 
BRANCH 8 9
ATOM      9  NE  ARG B   2      60.858  85.485  23.763  1.00 48.07 LIG-0.23  N 
ATOM     10 HE   ARG B   2      61.263  86.227  23.603  1.00 48.07 LIG 0.18  HD
ATOM     11  CZ  ARG B   2      61.625  84.486  24.223  1.00 44.36 LIG 0.67  C 
ATOM     12  NH1 ARG B   2      62.931  84.755  24.406  1.00 36.12 LIG-0.23  N 
ATOM     13  NH2 ARG B   2      61.126  83.260  24.504  1.00 39.61 LIG-0.23  N 
ATOM     14 1HH1 ARG B   2      63.238  85.539  24.230  1.00 36.12 LIG 0.17  HD
ATOM     15 2HH1 ARG B   2      63.458  84.143  24.699  1.00 36.12 LIG 0.17  HD
ATOM     16 1HH2 ARG B   2      60.289  83.100  24.389  1.00 39.61 LIG 0.17  HD
ATOM     17 2HH2 ARG B   2      61.646  82.641  24.797  1.00 39.61 LIG 0.17  HD
ENDBRANCH 8 9
ENDBRANCH 7 8
ENDBRANCH 6 7
ENDBRANCH 5 6
BRANCH 5 18
ATOM     18  N   ARG B   2      56.790  87.493  26.083  1.00 32.37 LIG-0.35  N 
ATOM     19 H    ARG B   2      57.374  87.933  25.631  1.00 32.37 LIG 0.16  HD
ATOM     20  C   ASN B   1      55.590  87.921  26.423  1.00 31.22 LIG 0.25  C 
ATOM     21 O    ASN B   1      54.863  87.242  27.116  1.00 24.61 LIG-0.27  OA
BRANCH 20 22
ATOM     22  CA  ASN B   1      55.117  89.298  25.990  1.00 32.89 LIG 0.28  C 
BRANCH 22 23
ATOM     23  CB  ASN B   1      54.873  89.216  24.482  1.00 38.07 LIG 0.14  C 
BRANCH 23 24
ATOM     24  CG  ASN B   1      53.488  89.569  24.114  1.00 44.05 LIG 0.22  C 
ATOM     25  ND2 ASN B   1      53.329  90.727  23.528  1.00 47.62 LIG-0.37  N 
ATOM     26 21HD ASN B   1      52.545  90.978  23.278  1.00 47.62 LIG 0.16  HD
ATOM     27 22HD ASN B   1      54.007  91.237  23.393  1.00 47.62 LIG 0.16  HD
ATOM     28 OD1  ASN B   1      52.548  88.792  24.335  1.00 47.48 LIG-0.27  OA
ENDBRANCH 23 24
ENDBRANCH 22 23
BRANCH 22 29
ATOM     29  N   ASN B   1      55.998  90.460  26.305  1.00 44.58 LIG-0.07  N 
ATOM     30 H1   ASN B   1      56.255  90.417  27.156  1.00 44.58 LIG 0.28  HD
ATOM     31 H3   ASN B   1      55.550  91.218  26.169  1.00 44.58 LIG 0.28  HD
ATOM     32 H2   ASN B   1      56.716  90.441  25.778  1.00 44.58 LIG 0.28  HD
ENDBRANCH 22 29
ENDBRANCH 20 22
ENDBRANCH 5 18
ENDBRANCH 1 5
BRANCH 3 33
ATOM     33  CA  LEU B   3      57.655  87.270  30.087  1.00 27.74 LIG 0.18  C 
BRANCH 33 34
ATOM     34  C   LEU B   3      56.368  87.845  30.534  1.00 25.40 LIG 0.24  C 
ATOM     35 O    LEU B   3      56.187  89.056  30.534  1.00 26.81 LIG-0.27  OA
ATOM     36  N   ILE B   4      55.444  87.000  30.920  1.00 26.13 LIG-0.35  N 
ATOM     37 H    ILE B   4      55.503  86.145  30.850  1.00 26.13 LIG 0.16  HD
BRANCH 36 38
ATOM     38  CA  ILE B   4      54.266  87.466  31.491  1.00 24.17 LIG 0.18  C 
BRANCH 38 39
ATOM     39  CB  ILE B   4      53.244  86.314  31.396  1.00 29.09 LIG 0.01  C 
ATOM     40  CG2 ILE B   4      53.202  85.852  29.979  1.00 25.20 LIG 0.01  C 
BRANCH 39 41
ATOM     41  CG1 ILE B   4      53.632  85.109  32.242  1.00 28.67 LIG 0.00  C 
ATOM     42  CD1 ILE B   4      52.850  85.040  33.530  1.00 34.41 LIG 0.01  C 
ENDBRANCH 39 41
ENDBRANCH 38 39
BRANCH 38 43
ATOM     43  C   ILE B   4      54.482  87.996  32.912  1.00 29.58 LIG 0.24  C 
ATOM     44  N   LEU B   5      53.508  88.764  33.385  1.00 36.70 LIG-0.35  N 
ATOM     45 H    LEU B   5      52.850  89.051  32.911  1.00 36.70 LIG 0.16  HD
ATOM     46 O    ILE B   4      55.529  87.727  33.577  1.00 23.70 LIG-0.27  OA
BRANCH 44 47
ATOM     47  CA  LEU B   5      53.476  89.188  34.762  1.00 37.00 LIG 0.16  C 
BRANCH 47 48
ATOM     48  C   LEU B   5      53.184  88.000  35.702  1.00 42.59 LIG 0.22  C 
ATOM     49 O    LEU B   5      54.102  87.220  36.072  1.00 38.80 LIG-0.29  OA
ENDBRANCH 47 48
BRANCH 47 50
ATOM     50  CB  LEU B   5      52.387  90.243  34.906  1.00 50.59 LIG 0.04  C 
BRANCH 50 51
ATOM     51  CG  LEU B   5      52.359  91.308  33.826  1.00 50.85 LIG-0.02  C 
ATOM     52  CD1 LEU B   5      51.232  90.984  32.870  1.00 54.07 LIG 0.01  C 
ATOM     53  CD2 LEU B   5      52.130  92.644  34.523  1.00 54.33 LIG 0.01  C 
ENDBRANCH 50 51
ENDBRANCH 47 50
ENDBRANCH 44 47
ENDBRANCH 38 43
ENDBRANCH 36 38
ENDBRANCH 33 34
BRANCH 33 54
ATOM     54  CB  LEU B   3      58.764  88.198  30.522  1.00 34.11 LIG 0.04  C 
BRANCH 54 55
ATOM     55  CG  LEU B   3      58.887  88.094  32.004  1.00 35.49 LIG-0.02  C 
ATOM     56  CD1 LEU B   3      59.258  86.665  32.351  1.00 39.12 LIG 0.01  C 
ATOM     57  CD2 LEU B   3      60.023  89.035  32.317  1.00 34.32 LIG 0.01  C 
ENDBRANCH 54 55
ENDBRANCH 33 54
ENDBRANCH 3 33
TORSDOF 22
ENDMDL
MODEL 24
USER: ADFR SOLUTION from run 17
USER: SCORE 19.649310 LL:  -3.406 LR: -16.717 RR:   0.000 FEB: -10.154
USER: RMSD 4.338860
USER: SEED 16
USER: STATUS no improvement in best in 4 clusters for 5 generations
USER: GENES 24
USER: genes 0 Translation |==|  0.55133 0.53089 0.36095
USER: genes 1 Rotation |==|  0.62051 0.49473 0.24456 0.91256
USER: genes 2 Torsion [N]-C--CA-[N] |==|  0.37518
USER: genes 3 Torsion [C]-CA--CB-[CG] |==|  0.29957
USER: genes 4 Torsion [CA]-CB--CG-[CD] |==|  0.20618
USER: genes 5 Torsion [CB]-CG--CD-[NE] |==|  0.23747
USER: genes 6 Torsion [CG]-CD--NE-[HE] |==|  0.00509
USER: genes 7 Torsion [C]-CA--N-[C] |==|  0.85943
USER: genes 8 Torsion [N]-C--CA-[N] |==|  0.20588
USER: genes 9 Torsion [C]-CA--CB-[CG] |==|  0.71999
USER: genes 10 Torsion [CA]-CB--CG-[OD1] |==|  0.62850
USER: genes 11 Torsion [C]-CA--N-[H1] |==|  0.66604
USER: genes 12 Torsion [C]-N--CA-[CB] |==|  0.52360
USER: genes 13 Torsion [N]-CA--C-[N] |==|  0.45014
USER: genes 14 Torsion [C]-N--CA-[C] |==|  0.75325
USER: genes 15 Torsion [N]-CA--CB-[CG1] |==|  0.59703
USER: genes 16 Torsion [CA]-CB--CG1-[CD1] |==|  0.57422
USER: genes 17 Torsion [N]-CA--C-[N] |==|  0.44925
USER: genes 18 Torsion [C]-N--CA-[C] |==|  0.86241
USER: genes 19 Torsion [N]-CA--C-[O] |==|  0.91843
USER: genes 20 Torsion [N]-CA--CB-[CG] |==|  0.94220
USER: genes 21 Torsion [CA]-CB--CG-[CD1] |==|  0.27015
USER: genes 22 Torsion [N]-CA--CB-[CG] |==|  0.22189
USER: genes 23 Torsion [CA]-CB--CG-[CD1] |==|  0.40637
ROOT
ATOM      1  C   ARG B   2      58.085  87.556  26.730  1.00 25.54 LIG 0.24  C 
ATOM      2 O    ARG B   2      57.190  86.657  26.646  1.00 21.45 LIG-0.27  OA
ATOM      3  N   LEU B   3      58.646  87.880  27.884  1.00 32.00 LIG-0.35  N 
ATOM      4 H    LEU B   3      59.323  88.406  27.962  1.00 32.00 LIG 0.16  HD
ENDROOT
BRANCH 1 5
ATOM      5  CA  ARG B   2      58.553  88.347  25.516  1.00 29.44 LIG 0.18  C 
BRANCH 5 6
ATOM      6  CB  ARG B   2      57.478  89.409  25.125  1.00 37.02 LIG 0.04  C 
BRANCH 6 7
ATOM      7  CG  ARG B   2      57.887  90.845  25.450  1.00 39.92 LIG 0.02  C 
BRANCH 7 8
ATOM      8  CD  ARG B   2      58.944  91.341  24.455  1.00 40.77 LIG 0.14  C 
BRANCH 8 9
ATOM      9  NE  ARG B   2      58.195  91.855  23.297  1.00 48.07 LIG-0.23  N 
ATOM     10 HE   ARG B   2      57.338  91.825  23.361  1.00 48.07 LIG 0.18  HD
ATOM     11  CZ  ARG B   2      58.680  92.364  22.155  1.00 44.36 LIG 0.67  C 
ATOM     12  NH1 ARG B   2      57.781  92.792  21.249  1.00 36.12 LIG-0.23  N 
ATOM     13  NH2 ARG B   2      60.007  92.459  21.910  1.00 39.61 LIG-0.23  N 
ATOM     14 1HH1 ARG B   2      56.940  92.732  21.415  1.00 36.12 LIG 0.17  HD
ATOM     15 2HH1 ARG B   2      58.049  93.125  20.503  1.00 36.12 LIG 0.17  HD
ATOM     16 1HH2 ARG B   2      60.573  92.189  22.498  1.00 39.61 LIG 0.17  HD
ATOM     17 2HH2 ARG B   2      60.284  92.791  21.167  1.00 39.61 LIG 0.17  HD
ENDBRANCH 8 9
ENDBRANCH 7 8
ENDBRANCH 6 7
ENDBRANCH 5 6
BRANCH 5 18
ATOM     18  N   ARG B   2      58.812  87.456  24.369  1.00 32.37 LIG-0.35  N 
ATOM     19 H    ARG B   2      58.441  87.676  23.625  1.00 32.37 LIG 0.16  HD
ATOM     20  C   ASN B   1      59.582  86.404  24.570  1.00 31.22 LIG 0.25  C 
ATOM     21 O    ASN B   1      60.007  86.149  25.676  1.00 24.61 LIG-0.27  OA
BRANCH 20 22
ATOM     22  CA  ASN B   1      59.909  85.465  23.422  1.00 32.89 LIG 0.28  C 
BRANCH 22 23
ATOM     23  CB  ASN B   1      60.403  84.164  24.056  1.00 38.07 LIG 0.14  C 
BRANCH 23 24
ATOM     24  CG  ASN B   1      61.875  84.048  24.035  1.00 44.05 LIG 0.22  C 
ATOM     25  ND2 ASN B   1      62.538  85.102  24.435  1.00 47.62 LIG-0.37  N 
ATOM     26 21HD ASN B   1      63.397  85.086  24.458  1.00 47.62 LIG 0.16  HD
ATOM     27 22HD ASN B   1      62.115  85.810  24.675  1.00 47.62 LIG 0.16  HD
ATOM     28 OD1  ASN B   1      62.430  83.000  23.677  1.00 47.48 LIG-0.27  OA
ENDBRANCH 23 24
ENDBRANCH 22 23
BRANCH 22 29
ATOM     29  N   ASN B   1      60.885  85.940  22.398  1.00 44.58 LIG-0.07  N 
ATOM     30 H1   ASN B   1      60.494  85.954  21.598  1.00 44.58 LIG 0.28  HD
ATOM     31 H3   ASN B   1      61.585  85.391  22.377  1.00 44.58 LIG 0.28  HD
ATOM     32 H2   ASN B   1      61.159  86.761  22.607  1.00 44.58 LIG 0.28  HD
ENDBRANCH 22 29
ENDBRANCH 20 22
ENDBRANCH 5 18
ENDBRANCH 1 5
BRANCH 3 33
ATOM     33  CA  LEU B   3      58.140  87.352  29.142  1.00 27.74 LIG 0.18  C 
BRANCH 33 34
ATOM     34  C   LEU B   3      56.689  87.600  29.276  1.00 25.40 LIG 0.24  C 
ATOM     35 O    LEU B   3      56.128  88.440  28.584  1.00 26.81 LIG-0.27  OA
ATOM     36  N   ILE B   4      56.044  86.880  30.161  1.00 26.13 LIG-0.35  N 
ATOM     37 H    ILE B   4      56.385  86.223  30.600  1.00 26.13 LIG 0.16  HD
BRANCH 36 38
ATOM     38  CA  ILE B   4      54.714  87.155  30.450  1.00 24.17 LIG 0.18  C 
BRANCH 38 39
ATOM     39  CB  ILE B   4      54.036  85.799  30.743  1.00 29.09 LIG 0.01  C 
ATOM     40  CG2 ILE B   4      54.006  85.612  32.222  1.00 25.20 LIG 0.01  C 
BRANCH 39 41
ATOM     41  CG1 ILE B   4      52.594  85.745  30.261  1.00 28.67 LIG 0.00  C 
ATOM     42  CD1 ILE B   4      51.761  84.772  31.059  1.00 34.41 LIG 0.01  C 
ENDBRANCH 39 41
ENDBRANCH 38 39
BRANCH 38 43
ATOM     43  C   ILE B   4      54.566  88.185  31.575  1.00 29.58 LIG 0.24  C 
ATOM     44  N   LEU B   5      53.379  88.775  31.651  1.00 36.70 LIG-0.35  N 
ATOM     45 H    LEU B   5      52.762  88.688  31.060  1.00 36.70 LIG 0.16  HD
ATOM     46 O    ILE B   4      55.522  88.460  32.363  1.00 23.70 LIG-0.27  OA
BRANCH 44 47
ATOM     47  CA  LEU B   5      53.025  89.627  32.759  1.00 37.00 LIG 0.16  C 
BRANCH 47 48
ATOM     48  C   LEU B   5      53.333  88.942  34.106  1.00 42.59 LIG 0.22  C 
ATOM     49 O    LEU B   5      53.297  87.689  34.225  1.00 38.80 LIG-0.29  OA
ENDBRANCH 47 48
BRANCH 47 50
ATOM     50  CB  LEU B   5      51.537  89.934  32.661  1.00 50.59 LIG 0.04  C 
BRANCH 50 51
ATOM     51  CG  LEU B   5      50.917  89.748  31.288  1.00 50.85 LIG-0.02  C 
ATOM     52  CD1 LEU B   5      50.262  88.385  31.245  1.00 54.07 LIG 0.01  C 
ATOM     53  CD2 LEU B   5      49.895  90.864  31.105  1.00 54.33 LIG 0.01  C 
ENDBRANCH 50 51
ENDBRANCH 47 50
ENDBRANCH 44 47
ENDBRANCH 38 43
ENDBRANCH 36 38
ENDBRANCH 33 34
BRANCH 33 54
ATOM     54  CB  LEU B   3      58.847  88.065  30.271  1.00 34.11 LIG 0.04  C 
BRANCH 54 55
ATOM     55  CG  LEU B   3      58.189  89.391  30.452  1.00 35.49 LIG-0.02  C 
ATOM     56  CD1 LEU B   3      58.227  89.742  31.927  1.00 39.12 LIG 0.01  C 
ATOM     57  CD2 LEU B   3      59.072  90.318  29.656  1.00 34.32 LIG 0.01  C 
ENDBRANCH 54 55
ENDBRANCH 33 54
ENDBRANCH 3 33
TORSDOF 22
ENDMDL
MODEL 25
USER: ADFR SOLUTION from run 137
USER: SCORE 19.296465 LL:  -3.613 LR: -16.604 RR:   0.000 FEB: -10.041
USER: RMSD 4.888067
USER: SEED 136
USER: STATUS no improvement in best in 23 clusters for 5 generations
USER: GENES 24
USER: genes 0 Translation |==|  0.51407 0.59675 0.40284
USER: genes 1 Rotation |==|  0.62687 0.51020 0.02988 0.61307
USER: genes 2 Torsion [N]-C--CA-[N] |==|  0.19153
USER: genes 3 Torsion [C]-CA--CB-[CG] |==|  0.44875
USER: genes 4 Torsion [CA]-CB--CG-[CD] |==|  0.47864
USER: genes 5 Torsion [CB]-CG--CD-[NE] |==|  0.55042
USER: genes 6 Torsion [CG]-CD--NE-[HE] |==|  0.94438
USER: genes 7 Torsion [C]-CA--N-[C] |==|  0.76465
USER: genes 8 Torsion [N]-C--CA-[N] |==|  0.50295
USER: genes 9 Torsion [C]-CA--CB-[CG] |==|  0.78566
USER: genes 10 Torsion [CA]-CB--CG-[OD1] |==|  0.14742
USER: genes 11 Torsion [C]-CA--N-[H1] |==|  0.04471
USER: genes 12 Torsion [C]-N--CA-[CB] |==|  0.86042
USER: genes 13 Torsion [N]-CA--C-[N] |==|  0.43239
USER: genes 14 Torsion [C]-N--CA-[C] |==|  0.77525
USER: genes 15 Torsion [N]-CA--CB-[CG1] |==|  0.54807
USER: genes 16 Torsion [CA]-CB--CG1-[CD1] |==|  0.52757
USER: genes 17 Torsion [N]-CA--C-[N] |==|  0.50556
USER: genes 18 Torsion [C]-N--CA-[C] |==|  0.55078
USER: genes 19 Torsion [N]-CA--C-[O] |==|  0.56350
USER: genes 20 Torsion [N]-CA--CB-[CG] |==|  0.60030
USER: genes 21 Torsion [CA]-CB--CG-[CD1] |==|  0.69322
USER: genes 22 Torsion [N]-CA--CB-[CG] |==|  0.74623
USER: genes 23 Torsion [CA]-CB--CG-[CD1] |==|  0.93537
ROOT
ATOM      1  C   ARG B   2      57.302  88.791  27.641  1.00 25.54 LIG 0.24  C 
ATOM      2 O    ARG B   2      56.309  89.561  27.828  1.00 21.45 LIG-0.27  OA
ATOM      3  N   LEU B   3      57.623  87.839  28.504  1.00 32.00 LIG-0.35  N 
ATOM      4 H    LEU B   3      58.220  87.238  28.360  1.00 32.00 LIG 0.16  HD
ENDROOT
BRANCH 1 5
ATOM      5  CA  ARG B   2      58.215  88.928  26.429  1.00 29.44 LIG 0.18  C 
BRANCH 5 6
ATOM      6  CB  ARG B   2      57.879  90.241  25.656  1.00 37.02 LIG 0.04  C 
BRANCH 6 7
ATOM      7  CG  ARG B   2      58.991  90.701  24.713  1.00 39.92 LIG 0.02  C 
BRANCH 7 8
ATOM      8  CD  ARG B   2      58.515  91.879  23.854  1.00 40.77 LIG 0.14  C 
BRANCH 8 9
ATOM      9  NE  ARG B   2      59.447  91.951  22.719  1.00 48.07 LIG-0.23  N 
ATOM     10 HE   ARG B   2      60.206  91.562  22.831  1.00 48.07 LIG 0.18  HD
ATOM     11  CZ  ARG B   2      59.264  92.545  21.531  1.00 44.36 LIG 0.67  C 
ATOM     12  NH1 ARG B   2      60.268  92.450  20.640  1.00 36.12 LIG-0.23  N 
ATOM     13  NH2 ARG B   2      58.125  93.206  21.220  1.00 39.61 LIG-0.23  N 
ATOM     14 1HH1 ARG B   2      60.986  92.023  20.845  1.00 36.12 LIG 0.17  HD
ATOM     15 2HH1 ARG B   2      60.192  92.816  19.866  1.00 36.12 LIG 0.17  HD
ATOM     16 1HH2 ARG B   2      57.487  93.256  21.793  1.00 39.61 LIG 0.17  HD
ATOM     17 2HH2 ARG B   2      58.040  93.576  20.448  1.00 39.61 LIG 0.17  HD
ENDBRANCH 8 9
ENDBRANCH 7 8
ENDBRANCH 6 7
ENDBRANCH 5 6
BRANCH 5 18
ATOM     18  N   ARG B   2      58.077  87.770  25.527  1.00 32.37 LIG-0.35  N 
ATOM     19 H    ARG B   2      57.530  87.862  24.870  1.00 32.37 LIG 0.16  HD
ATOM     20  C   ASN B   1      58.794  86.696  25.793  1.00 31.22 LIG 0.25  C 
ATOM     21 O    ASN B   1      59.493  86.645  26.783  1.00 24.61 LIG-0.27  OA
BRANCH 20 22
ATOM     22  CA  ASN B   1      58.719  85.481  24.885  1.00 32.89 LIG 0.28  C 
BRANCH 22 23
ATOM     23  CB  ASN B   1      57.240  85.098  24.798  1.00 38.07 LIG 0.14  C 
BRANCH 23 24
ATOM     24  CG  ASN B   1      56.769  84.389  26.005  1.00 44.05 LIG 0.22  C 
ATOM     25  ND2 ASN B   1      56.197  83.231  25.802  1.00 47.62 LIG-0.37  N 
ATOM     26 21HD ASN B   1      55.916  82.767  26.470  1.00 47.62 LIG 0.16  HD
ATOM     27 22HD ASN B   1      56.101  82.933  25.002  1.00 47.62 LIG 0.16  HD
ATOM     28 OD1  ASN B   1      56.934  84.869  27.136  1.00 47.48 LIG-0.27  OA
ENDBRANCH 23 24
ENDBRANCH 22 23
BRANCH 22 29
ATOM     29  N   ASN B   1      59.537  84.289  25.256  1.00 44.58 LIG-0.07  N 
ATOM     30 H1   ASN B   1      59.799  84.360  26.104  1.00 44.58 LIG 0.28  HD
ATOM     31 H3   ASN B   1      60.252  84.244  24.728  1.00 44.58 LIG 0.28  HD
ATOM     32 H2   ASN B   1      59.049  83.551  25.158  1.00 44.58 LIG 0.28  HD
ENDBRANCH 22 29
ENDBRANCH 20 22
ENDBRANCH 5 18
ENDBRANCH 1 5
BRANCH 3 33
ATOM     33  CA  LEU B   3      56.964  87.742  29.797  1.00 27.74 LIG 0.18  C 
BRANCH 33 34
ATOM     34  C   LEU B   3      55.547  87.348  29.642  1.00 25.40 LIG 0.24  C 
ATOM     35 O    LEU B   3      54.944  87.565  28.599  1.00 26.81 LIG-0.27  OA
ATOM     36  N   ILE B   4      54.981  86.759  30.667  1.00 26.13 LIG-0.35  N 
ATOM     37 H    ILE B   4      55.395  86.511  31.379  1.00 26.13 LIG 0.16  HD
BRANCH 36 38
ATOM     38  CA  ILE B   4      53.618  86.493  30.654  1.00 24.17 LIG 0.18  C 
BRANCH 38 39
ATOM     39  CB  ILE B   4      53.396  85.278  31.580  1.00 29.09 LIG 0.01  C 
ATOM     40  CG2 ILE B   4      53.407  85.766  32.988  1.00 25.20 LIG 0.01  C 
BRANCH 39 41
ATOM     41  CG1 ILE B   4      52.050  84.604  31.356  1.00 28.67 LIG 0.00  C 
ATOM     42  CD1 ILE B   4      51.742  83.576  32.417  1.00 34.41 LIG 0.01  C 
ENDBRANCH 39 41
ENDBRANCH 38 39
BRANCH 38 43
ATOM     43  C   ILE B   4      52.784  87.724  31.026  1.00 29.58 LIG 0.24  C 
ATOM     44  N   LEU B   5      51.472  87.528  31.073  1.00 36.70 LIG-0.35  N 
ATOM     45 H    LEU B   5      51.086  86.806  30.809  1.00 36.70 LIG 0.16  HD
ATOM     46 O    ILE B   4      53.319  88.852  31.256  1.00 23.70 LIG-0.27  OA
BRANCH 44 47
ATOM     47  CA  LEU B   5      50.572  88.532  31.582  1.00 37.00 LIG 0.16  C 
BRANCH 47 48
ATOM     48  C   LEU B   5      49.207  87.919  31.951  1.00 42.59 LIG 0.22  C 
ATOM     49 O    LEU B   5      48.166  88.627  32.003  1.00 38.80 LIG-0.29  OA
ENDBRANCH 47 48
BRANCH 47 50
ATOM     50  CB  LEU B   5      50.391  89.592  30.504  1.00 50.59 LIG 0.04  C 
BRANCH 50 51
ATOM     51  CG  LEU B   5      50.257  91.019  31.002  1.00 50.85 LIG-0.02  C 
ATOM     52  CD1 LEU B   5      48.834  91.474  30.759  1.00 54.07 LIG 0.01  C 
ATOM     53  CD2 LEU B   5      50.592  91.007  32.489  1.00 54.33 LIG 0.01  C 
ENDBRANCH 50 51
ENDBRANCH 47 50
ENDBRANCH 44 47
ENDBRANCH 38 43
ENDBRANCH 36 38
ENDBRANCH 33 34
BRANCH 33 54
ATOM     54  CB  LEU B   3      57.007  89.102  30.452  1.00 34.11 LIG 0.04  C 
BRANCH 54 55
ATOM     55  CG  LEU B   3      58.244  89.166  31.282  1.00 35.49 LIG-0.02  C 
ATOM     56  CD1 LEU B   3      58.660  87.749  31.625  1.00 39.12 LIG 0.01  C 
ATOM     57  CD2 LEU B   3      59.242  89.810  30.353  1.00 34.32 LIG 0.01  C 
ENDBRANCH 54 55
ENDBRANCH 33 54
ENDBRANCH 3 33
TORSDOF 22
ENDMDL
MODEL 26
USER: ADFR SOLUTION from run 38
USER: SCORE 18.084885 LL:  -3.691 LR: -16.565 RR:   0.000 FEB: -10.003
USER: RMSD 3.098452
USER: SEED 37
USER: STATUS no improvement in best in 6 clusters for 5 generations
USER: GENES 24
USER: genes 0 Translation |==|  0.46353 0.41882 0.39321
USER: genes 1 Rotation |==|  0.43334 0.56247 0.47270 0.99082
USER: genes 2 Torsion [N]-C--CA-[N] |==|  0.50556
USER: genes 3 Torsion [C]-CA--CB-[CG] |==|  0.37229
USER: genes 4 Torsion [CA]-CB--CG-[CD] |==|  0.72959
USER: genes 5 Torsion [CB]-CG--CD-[NE] |==|  0.46256
USER: genes 6 Torsion [CG]-CD--NE-[HE] |==|  0.94255
USER: genes 7 Torsion [C]-CA--N-[C] |==|  0.53469
USER: genes 8 Torsion [N]-C--CA-[N] |==|  0.36366
USER: genes 9 Torsion [C]-CA--CB-[CG] |==|  0.24461
USER: genes 10 Torsion [CA]-CB--CG-[OD1] |==|  0.21866
USER: genes 11 Torsion [C]-CA--N-[H1] |==|  0.48308
USER: genes 12 Torsion [C]-N--CA-[CB] |==|  0.36769
USER: genes 13 Torsion [N]-CA--C-[N] |==|  0.31240
USER: genes 14 Torsion [C]-N--CA-[C] |==|  0.75620
USER: genes 15 Torsion [N]-CA--CB-[CG1] |==|  0.20281
USER: genes 16 Torsion [CA]-CB--CG1-[CD1] |==|  0.43314
USER: genes 17 Torsion [N]-CA--C-[N] |==|  0.46349
USER: genes 18 Torsion [C]-N--CA-[C] |==|  0.76921
USER: genes 19 Torsion [N]-CA--C-[O] |==|  0.18490
USER: genes 20 Torsion [N]-CA--CB-[CG] |==|  0.83880
USER: genes 21 Torsion [CA]-CB--CG-[CD1] |==|  0.28310
USER: genes 22 Torsion [N]-CA--CB-[CG] |==|  0.47601
USER: genes 23 Torsion [CA]-CB--CG-[CD1] |==|  0.26071
ROOT
ATOM      1  C   ARG B   2      56.241  85.455  27.431  1.00 25.54 LIG 0.24  C 
ATOM      2 O    ARG B   2      56.633  84.469  28.131  1.00 21.45 LIG-0.27  OA
ATOM      3  N   LEU B   3      56.253  86.693  27.899  1.00 32.00 LIG-0.35  N 
ATOM      4 H    LEU B   3      56.095  87.392  27.422  1.00 32.00 LIG 0.16  HD
ENDROOT
BRANCH 1 5
ATOM      5  CA  ARG B   2      55.701  85.280  26.018  1.00 29.44 LIG 0.18  C 
BRANCH 5 6
ATOM      6  CB  ARG B   2      54.256  85.861  25.925  1.00 37.02 LIG 0.04  C 
BRANCH 6 7
ATOM      7  CG  ARG B   2      54.024  86.738  24.694  1.00 39.92 LIG 0.02  C 
BRANCH 7 8
ATOM      8  CD  ARG B   2      54.181  88.220  25.053  1.00 40.77 LIG 0.14  C 
BRANCH 8 9
ATOM      9  NE  ARG B   2      54.268  88.936  23.771  1.00 48.07 LIG-0.23  N 
ATOM     10 HE   ARG B   2      54.496  88.462  23.091  1.00 48.07 LIG 0.18  HD
ATOM     11  CZ  ARG B   2      54.035  90.234  23.528  1.00 44.36 LIG 0.67  C 
ATOM     12  NH1 ARG B   2      54.160  90.648  22.253  1.00 36.12 LIG-0.23  N 
ATOM     13  NH2 ARG B   2      53.682  91.102  24.504  1.00 39.61 LIG-0.23  N 
ATOM     14 1HH1 ARG B   2      54.380  90.088  21.638  1.00 36.12 LIG 0.17  HD
ATOM     15 2HH1 ARG B   2      54.020  91.472  22.053  1.00 36.12 LIG 0.17  HD
ATOM     16 1HH2 ARG B   2      53.599  90.827  25.314  1.00 39.61 LIG 0.17  HD
ATOM     17 2HH2 ARG B   2      53.541  91.929  24.314  1.00 39.61 LIG 0.17  HD
ENDBRANCH 8 9
ENDBRANCH 7 8
ENDBRANCH 6 7
ENDBRANCH 5 6
BRANCH 5 18
ATOM     18  N   ARG B   2      55.693  83.860  25.624  1.00 32.37 LIG-0.35  N 
ATOM     19 H    ARG B   2      55.821  83.289  26.255  1.00 32.37 LIG 0.16  HD
ATOM     20  C   ASN B   1      55.493  83.577  24.352  1.00 31.22 LIG 0.25  C 
ATOM     21 O    ASN B   1      55.383  84.461  23.529  1.00 24.61 LIG-0.27  OA
BRANCH 20 22
ATOM     22  CA  ASN B   1      55.445  82.131  23.888  1.00 32.89 LIG 0.28  C 
BRANCH 22 23
ATOM     23  CB  ASN B   1      56.769  81.864  23.170  1.00 38.07 LIG 0.14  C 
BRANCH 23 24
ATOM     24  CG  ASN B   1      57.830  81.412  24.091  1.00 44.05 LIG 0.22  C 
ATOM     25  ND2 ASN B   1      58.690  82.322  24.465  1.00 47.62 LIG-0.37  N 
ATOM     26 21HD ASN B   1      59.321  82.119  25.013  1.00 47.62 LIG 0.16  HD
ATOM     27 22HD ASN B   1      58.626  83.125  24.163  1.00 47.62 LIG 0.16  HD
ATOM     28 OD1  ASN B   1      57.873  80.240  24.493  1.00 47.48 LIG-0.27  OA
ENDBRANCH 23 24
ENDBRANCH 22 23
BRANCH 22 29
ATOM     29  N   ASN B   1      54.300  81.722  23.023  1.00 44.58 LIG-0.07  N 
ATOM     30 H1   ASN B   1      54.422  80.886  22.742  1.00 44.58 LIG 0.28  HD
ATOM     31 H3   ASN B   1      54.249  82.266  22.320  1.00 44.58 LIG 0.28  HD
ATOM     32 H2   ASN B   1      53.543  81.769  23.489  1.00 44.58 LIG 0.28  HD
ENDBRANCH 22 29
ENDBRANCH 20 22
ENDBRANCH 5 18
ENDBRANCH 1 5
BRANCH 3 33
ATOM     33  CA  LEU B   3      56.543  86.968  29.298  1.00 27.74 LIG 0.18  C 
BRANCH 33 34
ATOM     34  C   LEU B   3      55.328  87.413  30.014  1.00 25.40 LIG 0.24  C 
ATOM     35 O    LEU B   3      54.804  88.488  29.755  1.00 26.81 LIG-0.27  OA
ATOM     36  N   ILE B   4      54.849  86.603  30.927  1.00 26.13 LIG-0.35  N 
ATOM     37 H    ILE B   4      55.136  85.806  31.073  1.00 26.13 LIG 0.16  HD
BRANCH 36 38
ATOM     38  CA  ILE B   4      53.802  87.013  31.743  1.00 24.17 LIG 0.18  C 
BRANCH 38 39
ATOM     39  CB  ILE B   4      52.953  85.758  32.035  1.00 29.09 LIG 0.01  C 
ATOM     40  CG2 ILE B   4      52.770  85.019  30.753  1.00 25.20 LIG 0.01  C 
BRANCH 39 41
ATOM     41  CG1 ILE B   4      53.631  84.799  33.004  1.00 28.67 LIG 0.00  C 
ATOM     42  CD1 ILE B   4      52.639  83.921  33.726  1.00 34.41 LIG 0.01  C 
ENDBRANCH 39 41
ENDBRANCH 38 39
BRANCH 38 43
ATOM     43  C   ILE B   4      54.296  87.741  32.998  1.00 29.58 LIG 0.24  C 
ATOM     44  N   LEU B   5      53.363  88.393  33.679  1.00 36.70 LIG-0.35  N 
ATOM     45 H    LEU B   5      52.558  88.510  33.400  1.00 36.70 LIG 0.16  HD
ATOM     46 O    ILE B   4      55.517  87.727  33.344  1.00 23.70 LIG-0.27  OA
BRANCH 44 47
ATOM     47  CA  LEU B   5      53.632  88.971  34.973  1.00 37.00 LIG 0.16  C 
BRANCH 47 48
ATOM     48  C   LEU B   5      53.504  87.916  36.090  1.00 42.59 LIG 0.22  C 
ATOM     49 O    LEU B   5      54.308  86.949  36.170  1.00 38.80 LIG-0.29  OA
ENDBRANCH 47 48
BRANCH 47 50
ATOM     50  CB  LEU B   5      52.632  90.096  35.203  1.00 50.59 LIG 0.04  C 
BRANCH 50 51
ATOM     51  CG  LEU B   5      52.638  91.203  34.167  1.00 50.85 LIG-0.02  C 
ATOM     52  CD1 LEU B   5      51.463  90.989  33.237  1.00 54.07 LIG 0.01  C 
ATOM     53  CD2 LEU B   5      52.518  92.522  34.921  1.00 54.33 LIG 0.01  C 
ENDBRANCH 50 51
ENDBRANCH 47 50
ENDBRANCH 44 47
ENDBRANCH 38 43
ENDBRANCH 36 38
ENDBRANCH 33 34
BRANCH 33 54
ATOM     54  CB  LEU B   3      57.562  88.080  29.359  1.00 34.11 LIG 0.04  C 
BRANCH 54 55
ATOM     55  CG  LEU B   3      57.693  88.497  30.785  1.00 35.49 LIG-0.02  C 
ATOM     56  CD1 LEU B   3      58.847  87.728  31.400  1.00 39.12 LIG 0.01  C 
ATOM     57  CD2 LEU B   3      58.022  89.965  30.681  1.00 34.32 LIG 0.01  C 
ENDBRANCH 54 55
ENDBRANCH 33 54
ENDBRANCH 3 33
TORSDOF 22
ENDMDL
MODEL 27
USER: ADFR SOLUTION from run 88
USER: SCORE 17.665734 LL:  -3.532 LR: -16.564 RR:   0.000 FEB: -10.001
USER: RMSD 2.273167
USER: SEED 87
USER: STATUS no improvement in best in 15 clusters for 5 generations
USER: GENES 24
USER: genes 0 Translation |==|  0.48909 0.46415 0.40131
USER: genes 1 Rotation |==|  0.56813 0.48340 0.50456 0.99504
USER: genes 2 Torsion [N]-C--CA-[N] |==|  0.44444
USER: genes 3 Torsion [C]-CA--CB-[CG] |==|  0.62886
USER: genes 4 Torsion [CA]-CB--CG-[CD] |==|  0.37789
USER: genes 5 Torsion [CB]-CG--CD-[NE] |==|  0.65640
USER: genes 6 Torsion [CG]-CD--NE-[HE] |==|  0.97865
USER: genes 7 Torsion [C]-CA--N-[C] |==|  0.75331
USER: genes 8 Torsion [N]-C--CA-[N] |==|  0.34535
USER: genes 9 Torsion [C]-CA--CB-[CG] |==|  0.53175
USER: genes 10 Torsion [CA]-CB--CG-[OD1] |==|  0.77068
USER: genes 11 Torsion [C]-CA--N-[H1] |==|  0.38653
USER: genes 12 Torsion [C]-N--CA-[CB] |==|  0.38024
USER: genes 13 Torsion [N]-CA--C-[N] |==|  0.57175
USER: genes 14 Torsion [C]-N--CA-[C] |==|  0.79411
USER: genes 15 Torsion [N]-CA--CB-[CG1] |==|  0.15299
USER: genes 16 Torsion [CA]-CB--CG1-[CD1] |==|  0.42951
USER: genes 17 Torsion [N]-CA--C-[N] |==|  0.54841
USER: genes 18 Torsion [C]-N--CA-[C] |==|  0.18363
USER: genes 19 Torsion [N]-CA--C-[O] |==|  0.58049
USER: genes 20 Torsion [N]-CA--CB-[CG] |==|  0.72743
USER: genes 21 Torsion [CA]-CB--CG-[CD1] |==|  0.30554
USER: genes 22 Torsion [N]-CA--CB-[CG] |==|  0.80747
USER: genes 23 Torsion [CA]-CB--CG-[CD1] |==|  0.36189
ROOT
ATOM      1  C   ARG B   2      56.778  86.305  27.608  1.00 25.54 LIG 0.24  C 
ATOM      2 O    ARG B   2      57.129  85.102  27.823  1.00 21.45 LIG-0.27  OA
ATOM      3  N   LEU B   3      56.432  87.120  28.592  1.00 32.00 LIG-0.35  N 
ATOM      4 H    LEU B   3      56.290  87.963  28.494  1.00 32.00 LIG 0.16  HD
ENDROOT
BRANCH 1 5
ATOM      5  CA  ARG B   2      56.699  86.885  26.202  1.00 29.44 LIG 0.18  C 
BRANCH 5 6
ATOM      6  CB  ARG B   2      55.217  86.899  25.714  1.00 37.02 LIG 0.04  C 
BRANCH 6 7
ATOM      7  CG  ARG B   2      55.032  86.365  24.294  1.00 39.92 LIG 0.02  C 
BRANCH 7 8
ATOM      8  CD  ARG B   2      53.821  85.426  24.226  1.00 40.77 LIG 0.14  C 
BRANCH 8 9
ATOM      9  NE  ARG B   2      54.330  84.152  23.696  1.00 48.07 LIG-0.23  N 
ATOM     10 HE   ARG B   2      55.145  84.158  23.422  1.00 48.07 LIG 0.18  HD
ATOM     11  CZ  ARG B   2      53.685  82.981  23.587  1.00 44.36 LIG 0.67  C 
ATOM     12  NH1 ARG B   2      54.383  81.945  23.086  1.00 36.12 LIG-0.23  N 
ATOM     13  NH2 ARG B   2      52.395  82.827  23.966  1.00 39.61 LIG-0.23  N 
ATOM     14 1HH1 ARG B   2      55.204  82.051  22.853  1.00 36.12 LIG 0.17  HD
ATOM     15 2HH1 ARG B   2      54.007  81.176  23.000  1.00 36.12 LIG 0.17  HD
ATOM     16 1HH2 ARG B   2      51.960  83.494  24.290  1.00 39.61 LIG 0.17  HD
ATOM     17 2HH2 ARG B   2      52.011  82.062  23.882  1.00 39.61 LIG 0.17  HD
ENDBRANCH 8 9
ENDBRANCH 7 8
ENDBRANCH 6 7
ENDBRANCH 5 6
BRANCH 5 18
ATOM     18  N   ARG B   2      57.526  86.108  25.260  1.00 32.37 LIG-0.35  N 
ATOM     19 H    ARG B   2      57.132  85.463  24.850  1.00 32.37 LIG 0.16  HD
ATOM     20  C   ASN B   1      58.790  86.459  25.119  1.00 31.22 LIG 0.25  C 
ATOM     21 O    ASN B   1      59.265  87.349  25.790  1.00 24.61 LIG-0.27  OA
BRANCH 20 22
ATOM     22  CA  ASN B   1      59.686  85.717  24.142  1.00 32.89 LIG 0.28  C 
BRANCH 22 23
ATOM     23  CB  ASN B   1      60.708  84.956  24.987  1.00 38.07 LIG 0.14  C 
BRANCH 23 24
ATOM     24  CG  ASN B   1      61.812  84.402  24.176  1.00 44.05 LIG 0.22  C 
ATOM     25  ND2 ASN B   1      62.916  85.102  24.159  1.00 47.62 LIG-0.37  N 
ATOM     26 21HD ASN B   1      63.596  84.820  23.715  1.00 47.62 LIG 0.16  HD
ATOM     27 22HD ASN B   1      62.962  85.844  24.591  1.00 47.62 LIG 0.16  HD
ATOM     28 OD1  ASN B   1      61.687  83.327  23.574  1.00 47.48 LIG-0.27  OA
ENDBRANCH 23 24
ENDBRANCH 22 23
BRANCH 22 29
ATOM     29  N   ASN B   1      60.381  86.521  23.095  1.00 44.58 LIG-0.07  N 
ATOM     30 H1   ASN B   1      61.214  86.224  22.996  1.00 44.58 LIG 0.28  HD
ATOM     31 H3   ASN B   1      60.399  87.377  23.340  1.00 44.58 LIG 0.28  HD
ATOM     32 H2   ASN B   1      59.945  86.443  22.322  1.00 44.58 LIG 0.28  HD
ENDBRANCH 22 29
ENDBRANCH 20 22
ENDBRANCH 5 18
ENDBRANCH 1 5
BRANCH 3 33
ATOM     33  CA  LEU B   3      56.261  86.630  29.951  1.00 27.74 LIG 0.18  C 
BRANCH 33 34
ATOM     34  C   LEU B   3      54.828  86.525  30.301  1.00 25.40 LIG 0.24  C 
ATOM     35 O    LEU B   3      53.979  86.362  29.434  1.00 26.81 LIG-0.27  OA
ATOM     36  N   ILE B   4      54.522  86.611  31.572  1.00 26.13 LIG-0.35  N 
ATOM     37 H    ILE B   4      55.094  86.636  32.213  1.00 26.13 LIG 0.16  HD
BRANCH 36 38
ATOM     38  CA  ILE B   4      53.191  86.670  31.967  1.00 24.17 LIG 0.18  C 
BRANCH 38 39
ATOM     39  CB  ILE B   4      53.153  86.261  33.455  1.00 29.09 LIG 0.01  C 
ATOM     40  CG2 ILE B   4      53.634  84.853  33.556  1.00 25.20 LIG 0.01  C 
BRANCH 39 41
ATOM     41  CG1 ILE B   4      54.076  87.106  34.322  1.00 28.67 LIG 0.00  C 
ATOM     42  CD1 ILE B   4      53.622  87.154  35.760  1.00 34.41 LIG 0.01  C 
ENDBRANCH 39 41
ENDBRANCH 38 39
BRANCH 38 43
ATOM     43  C   ILE B   4      52.561  88.036  31.677  1.00 29.58 LIG 0.24  C 
ATOM     44  N   LEU B   5      51.437  88.294  32.334  1.00 36.70 LIG-0.35  N 
ATOM     45 H    LEU B   5      51.013  87.713  32.804  1.00 36.70 LIG 0.16  HD
ATOM     46 O    ILE B   4      53.077  88.852  30.852  1.00 23.70 LIG-0.27  OA
BRANCH 44 47
ATOM     47  CA  LEU B   5      50.825  89.599  32.309  1.00 37.00 LIG 0.16  C 
BRANCH 47 48
ATOM     48  C   LEU B   5      50.318  89.948  30.895  1.00 42.59 LIG 0.22  C 
ATOM     49 O    LEU B   5      50.257  91.143  30.501  1.00 38.80 LIG-0.29  OA
ENDBRANCH 47 48
BRANCH 47 50
ATOM     50  CB  LEU B   5      51.868  90.616  32.753  1.00 50.59 LIG 0.04  C 
BRANCH 50 51
ATOM     51  CG  LEU B   5      51.797  91.037  34.209  1.00 50.85 LIG-0.02  C 
ATOM     52  CD1 LEU B   5      52.997  90.463  34.928  1.00 54.07 LIG 0.01  C 
ATOM     53  CD2 LEU B   5      51.809  92.561  34.233  1.00 54.33 LIG 0.01  C 
ENDBRANCH 50 51
ENDBRANCH 47 50
ENDBRANCH 44 47
ENDBRANCH 38 43
ENDBRANCH 36 38
ENDBRANCH 33 34
BRANCH 33 54
ATOM     54  CB  LEU B   3      56.906  87.619  30.893  1.00 34.11 LIG 0.04  C 
BRANCH 54 55
ATOM     55  CG  LEU B   3      58.381  87.540  30.692  1.00 35.49 LIG-0.02  C 
ATOM     56  CD1 LEU B   3      58.910  88.949  30.505  1.00 39.12 LIG 0.01  C 
ATOM     57  CD2 LEU B   3      58.870  86.951  31.991  1.00 34.32 LIG 0.01  C 
ENDBRANCH 54 55
ENDBRANCH 33 54
ENDBRANCH 3 33
TORSDOF 22
ENDMDL
MODEL 28
USER: ADFR SOLUTION from run 156
USER: SCORE 18.676555 LL:  -3.742 LR: -16.527 RR:   0.000 FEB:  -9.964
USER: RMSD 3.258209
USER: SEED 155
USER: STATUS no improvement in best in 5 clusters for 5 generations
USER: GENES 24
USER: genes 0 Translation |==|  0.50068 0.46432 0.41141
USER: genes 1 Rotation |==|  0.51937 0.48117 0.42840 0.99411
USER: genes 2 Torsion [N]-C--CA-[N] |==|  0.43549
USER: genes 3 Torsion [C]-CA--CB-[CG] |==|  0.17354
USER: genes 4 Torsion [CA]-CB--CG-[CD] |==|  0.21098
USER: genes 5 Torsion [CB]-CG--CD-[NE] |==|  0.71557
USER: genes 6 Torsion [CG]-CD--NE-[HE] |==|  0.78178
USER: genes 7 Torsion [C]-CA--N-[C] |==|  0.76562
USER: genes 8 Torsion [N]-C--CA-[N] |==|  0.04716
USER: genes 9 Torsion [C]-CA--CB-[CG] |==|  0.34243
USER: genes 10 Torsion [CA]-CB--CG-[OD1] |==|  0.13358
USER: genes 11 Torsion [C]-CA--N-[H1] |==|  0.67574
USER: genes 12 Torsion [C]-N--CA-[CB] |==|  0.42063
USER: genes 13 Torsion [N]-CA--C-[N] |==|  0.32070
USER: genes 14 Torsion [C]-N--CA-[C] |==|  0.83732
USER: genes 15 Torsion [N]-CA--CB-[CG1] |==|  0.63345
USER: genes 16 Torsion [CA]-CB--CG1-[CD1] |==|  0.52036
USER: genes 17 Torsion [N]-CA--C-[N] |==|  0.37521
USER: genes 18 Torsion [C]-N--CA-[C] |==|  0.77016
USER: genes 19 Torsion [N]-CA--C-[O] |==|  0.00090
USER: genes 20 Torsion [N]-CA--CB-[CG] |==|  0.02777
USER: genes 21 Torsion [CA]-CB--CG-[CD1] |==|  0.19479
USER: genes 22 Torsion [N]-CA--CB-[CG] |==|  0.80044
USER: genes 23 Torsion [CA]-CB--CG-[CD1] |==|  0.41481
ROOT
ATOM      1  C   ARG B   2      57.021  86.308  27.827  1.00 25.54 LIG 0.24  C 
ATOM      2 O    ARG B   2      57.006  85.113  28.260  1.00 21.45 LIG-0.27  OA
ATOM      3  N   LEU B   3      56.995  87.349  28.645  1.00 32.00 LIG-0.35  N 
ATOM      4 H    LEU B   3      57.109  88.164  28.394  1.00 32.00 LIG 0.16  HD
ENDROOT
BRANCH 1 5
ATOM      5  CA  ARG B   2      57.039  86.629  26.339  1.00 29.44 LIG 0.18  C 
BRANCH 5 6
ATOM      6  CB  ARG B   2      55.591  86.933  25.842  1.00 37.02 LIG 0.04  C 
BRANCH 6 7
ATOM      7  CG  ARG B   2      54.957  88.155  26.506  1.00 39.92 LIG 0.02  C 
BRANCH 7 8
ATOM      8  CD  ARG B   2      55.539  89.447  25.920  1.00 40.77 LIG 0.14  C 
BRANCH 8 9
ATOM      9  NE  ARG B   2      56.504  89.940  26.915  1.00 48.07 LIG-0.23  N 
ATOM     10 HE   ARG B   2      56.168  90.345  27.595  1.00 48.07 LIG 0.18  HD
ATOM     11  CZ  ARG B   2      57.841  89.836  26.897  1.00 44.36 LIG 0.67  C 
ATOM     12  NH1 ARG B   2      58.507  90.352  27.947  1.00 36.12 LIG-0.23  N 
ATOM     13  NH2 ARG B   2      58.507  89.236  25.884  1.00 39.61 LIG-0.23  N 
ATOM     14 1HH1 ARG B   2      58.075  90.727  28.589  1.00 36.12 LIG 0.17  HD
ATOM     15 2HH1 ARG B   2      59.365  90.307  27.975  1.00 36.12 LIG 0.17  HD
ATOM     16 1HH2 ARG B   2      58.072  88.904  25.221  1.00 39.61 LIG 0.17  HD
ATOM     17 2HH2 ARG B   2      59.365  89.187  25.903  1.00 39.61 LIG 0.17  HD
ENDBRANCH 8 9
ENDBRANCH 7 8
ENDBRANCH 6 7
ENDBRANCH 5 6
BRANCH 5 18
ATOM     18  N   ARG B   2      57.608  85.513  25.561  1.00 32.37 LIG-0.35  N 
ATOM     19 H    ARG B   2      57.045  84.959  25.222  1.00 32.37 LIG 0.16  HD
ATOM     20  C   ASN B   1      58.921  85.451  25.446  1.00 31.22 LIG 0.25  C 
ATOM     21 O    ASN B   1      59.632  86.251  26.016  1.00 24.61 LIG-0.27  OA
BRANCH 20 22
ATOM     22  CA  ASN B   1      59.567  84.342  24.634  1.00 32.89 LIG 0.28  C 
BRANCH 22 23
ATOM     23  CB  ASN B   1      60.738  84.981  23.886  1.00 38.07 LIG 0.14  C 
BRANCH 23 24
ATOM     24  CG  ASN B   1      62.024  84.315  24.176  1.00 44.05 LIG 0.22  C 
ATOM     25  ND2 ASN B   1      63.015  85.102  24.503  1.00 47.62 LIG-0.37  N 
ATOM     26 21HD ASN B   1      63.784  84.768  24.697  1.00 47.62 LIG 0.16  HD
ATOM     27 22HD ASN B   1      62.900  85.954  24.525  1.00 47.62 LIG 0.16  HD
ATOM     28 OD1  ASN B   1      62.132  83.081  24.129  1.00 47.48 LIG-0.27  OA
ENDBRANCH 23 24
ENDBRANCH 22 23
BRANCH 22 29
ATOM     29  N   ASN B   1      58.699  83.590  23.682  1.00 44.58 LIG-0.07  N 
ATOM     30 H1   ASN B   1      58.655  82.736  23.930  1.00 44.58 LIG 0.28  HD
ATOM     31 H3   ASN B   1      59.041  83.643  22.862  1.00 44.58 LIG 0.28  HD
ATOM     32 H2   ASN B   1      57.880  83.940  23.684  1.00 44.58 LIG 0.28  HD
ENDBRANCH 22 29
ENDBRANCH 20 22
ENDBRANCH 5 18
ENDBRANCH 1 5
BRANCH 3 33
ATOM     33  CA  LEU B   3      56.764  87.180  30.072  1.00 27.74 LIG 0.18  C 
BRANCH 33 34
ATOM     34  C   LEU B   3      55.321  87.244  30.387  1.00 25.40 LIG 0.24  C 
ATOM     35 O    LEU B   3      54.682  88.272  30.202  1.00 26.81 LIG-0.27  OA
ATOM     36  N   ILE B   4      54.771  86.155  30.864  1.00 26.13 LIG-0.35  N 
ATOM     37 H    ILE B   4      55.165  85.393  30.922  1.00 26.13 LIG 0.16  HD
BRANCH 36 38
ATOM     38  CA  ILE B   4      53.459  86.178  31.321  1.00 24.17 LIG 0.18  C 
BRANCH 38 39
ATOM     39  CB  ILE B   4      53.100  84.727  31.706  1.00 29.09 LIG 0.01  C 
ATOM     40  CG2 ILE B   4      52.981  84.662  33.191  1.00 25.20 LIG 0.01  C 
BRANCH 39 41
ATOM     41  CG1 ILE B   4      51.762  84.279  31.135  1.00 28.67 LIG 0.00  C 
ATOM     42  CD1 ILE B   4      51.340  82.929  31.661  1.00 34.41 LIG 0.01  C 
ENDBRANCH 39 41
ENDBRANCH 38 39
BRANCH 38 43
ATOM     43  C   ILE B   4      53.258  87.194  32.451  1.00 29.58 LIG 0.24  C 
ATOM     44  N   LEU B   5      52.174  87.952  32.345  1.00 36.70 LIG-0.35  N 
ATOM     45 H    LEU B   5      51.669  87.972  31.650  1.00 36.70 LIG 0.16  HD
ATOM     46 O    ILE B   4      54.083  87.305  33.409  1.00 23.70 LIG-0.27  OA
BRANCH 44 47
ATOM     47  CA  LEU B   5      51.749  88.823  33.413  1.00 37.00 LIG 0.16  C 
BRANCH 47 48
ATOM     48  C   LEU B   5      50.936  88.049  34.470  1.00 42.59 LIG 0.22  C 
ATOM     49 O    LEU B   5      50.717  86.814  34.350  1.00 38.80 LIG-0.29  OA
ENDBRANCH 47 48
BRANCH 47 50
ATOM     50  CB  LEU B   5      50.896  89.929  32.807  1.00 50.59 LIG 0.04  C 
BRANCH 50 51
ATOM     51  CG  LEU B   5      50.505  89.737  31.354  1.00 50.85 LIG-0.02  C 
ATOM     52  CD1 LEU B   5      49.507  88.602  31.278  1.00 54.07 LIG 0.01  C 
ATOM     53  CD2 LEU B   5      49.893  91.049  30.879  1.00 54.33 LIG 0.01  C 
ENDBRANCH 50 51
ENDBRANCH 47 50
ENDBRANCH 44 47
ENDBRANCH 38 43
ENDBRANCH 36 38
ENDBRANCH 33 34
BRANCH 33 54
ATOM     54  CB  LEU B   3      57.457  88.309  30.798  1.00 34.11 LIG 0.04  C 
BRANCH 54 55
ATOM     55  CG  LEU B   3      58.925  88.063  30.722  1.00 35.49 LIG-0.02  C 
ATOM     56  CD1 LEU B   3      59.632  89.405  30.717  1.00 39.12 LIG 0.01  C 
ATOM     57  CD2 LEU B   3      59.210  87.311  31.998  1.00 34.32 LIG 0.01  C 
ENDBRANCH 54 55
ENDBRANCH 33 54
ENDBRANCH 3 33
TORSDOF 22
ENDMDL
MODEL 29
USER: ADFR SOLUTION from run 77
USER: SCORE 19.765338 LL:  -3.843 LR: -16.501 RR:   0.000 FEB:  -9.938
USER: RMSD 5.177875
USER: SEED 76
USER: STATUS searching
USER: GENES 24
USER: genes 0 Translation |==|  0.52725 0.47363 0.40582
USER: genes 1 Rotation |==|  0.52242 0.42062 0.39599 0.98206
USER: genes 2 Torsion [N]-C--CA-[N] |==|  0.00878
USER: genes 3 Torsion [C]-CA--CB-[CG] |==|  0.32578
USER: genes 4 Torsion [CA]-CB--CG-[CD] |==|  0.29649
USER: genes 5 Torsion [CB]-CG--CD-[NE] |==|  0.15918
USER: genes 6 Torsion [CG]-CD--NE-[HE] |==|  0.66231
USER: genes 7 Torsion [C]-CA--N-[C] |==|  0.75098
USER: genes 8 Torsion [N]-C--CA-[N] |==|  0.88128
USER: genes 9 Torsion [C]-CA--CB-[CG] |==|  0.59729
USER: genes 10 Torsion [CA]-CB--CG-[OD1] |==|  0.17764
USER: genes 11 Torsion [C]-CA--N-[H1] |==|  0.51752
USER: genes 12 Torsion [C]-N--CA-[CB] |==|  0.51684
USER: genes 13 Torsion [N]-CA--C-[N] |==|  0.44726
USER: genes 14 Torsion [C]-N--CA-[C] |==|  0.80000
USER: genes 15 Torsion [N]-CA--CB-[CG1] |==|  0.57815
USER: genes 16 Torsion [CA]-CB--CG1-[CD1] |==|  0.54247
USER: genes 17 Torsion [N]-CA--C-[N] |==|  0.48221
USER: genes 18 Torsion [C]-N--CA-[C] |==|  0.84729
USER: genes 19 Torsion [N]-CA--C-[O] |==|  0.88165
USER: genes 20 Torsion [N]-CA--CB-[CG] |==|  0.15683
USER: genes 21 Torsion [CA]-CB--CG-[CD1] |==|  0.36516
USER: genes 22 Torsion [N]-CA--CB-[CG] |==|  0.75124
USER: genes 23 Torsion [CA]-CB--CG-[CD1] |==|  0.93284
ROOT
ATOM      1  C   ARG B   2      57.579  86.483  27.706  1.00 25.54 LIG 0.24  C 
ATOM      2 O    ARG B   2      57.290  85.317  28.120  1.00 21.45 LIG-0.27  OA
ATOM      3  N   LEU B   3      57.512  87.543  28.496  1.00 32.00 LIG-0.35  N 
ATOM      4 H    LEU B   3      57.799  88.325  28.280  1.00 32.00 LIG 0.16  HD
ENDROOT
BRANCH 1 5
ATOM      5  CA  ARG B   2      57.992  86.749  26.265  1.00 29.44 LIG 0.18  C 
BRANCH 5 6
ATOM      6  CB  ARG B   2      59.228  85.871  25.893  1.00 37.02 LIG 0.04  C 
BRANCH 6 7
ATOM      7  CG  ARG B   2      58.956  84.869  24.772  1.00 39.92 LIG 0.02  C 
BRANCH 7 8
ATOM      8  CD  ARG B   2      59.636  85.318  23.473  1.00 40.77 LIG 0.14  C 
BRANCH 8 9
ATOM      9  NE  ARG B   2      61.066  85.449  23.793  1.00 48.07 LIG-0.23  N 
ATOM     10 HE   ARG B   2      61.410  86.226  23.660  1.00 48.07 LIG 0.18  HD
ATOM     11  CZ  ARG B   2      61.900  84.512  24.264  1.00 44.36 LIG 0.67  C 
ATOM     12  NH1 ARG B   2      63.170  84.889  24.501  1.00 36.12 LIG-0.23  N 
ATOM     13  NH2 ARG B   2      61.500  83.242  24.505  1.00 39.61 LIG-0.23  N 
ATOM     14 1HH1 ARG B   2      63.414  85.699  24.349  1.00 36.12 LIG 0.17  HD
ATOM     15 2HH1 ARG B   2      63.738  84.319  24.803  1.00 36.12 LIG 0.17  HD
ATOM     16 1HH2 ARG B   2      60.685  83.012  24.357  1.00 39.61 LIG 0.17  HD
ATOM     17 2HH2 ARG B   2      62.062  82.664  24.808  1.00 39.61 LIG 0.17  HD
ENDBRANCH 8 9
ENDBRANCH 7 8
ENDBRANCH 6 7
ENDBRANCH 5 6
BRANCH 5 18
ATOM     18  N   ARG B   2      58.313  88.173  26.058  1.00 32.37 LIG-0.35  N 
ATOM     19 H    ARG B   2      59.132  88.401  26.185  1.00 32.37 LIG 0.16  HD
ATOM     20  C   ASN B   1      57.332  88.978  25.699  1.00 31.22 LIG 0.25  C 
ATOM     21 O    ASN B   1      56.195  88.567  25.606  1.00 24.61 LIG-0.27  OA
BRANCH 20 22
ATOM     22  CA  ASN B   1      57.604  90.450  25.443  1.00 32.89 LIG 0.28  C 
BRANCH 22 23
ATOM     23  CB  ASN B   1      58.169  90.545  24.025  1.00 38.07 LIG 0.14  C 
BRANCH 23 24
ATOM     24  CG  ASN B   1      59.190  91.603  23.893  1.00 44.05 LIG 0.22  C 
ATOM     25  ND2 ASN B   1      58.882  92.601  23.107  1.00 47.62 LIG-0.37  N 
ATOM     26 21HD ASN B   1      59.433  93.254  23.004  1.00 47.62 LIG 0.16  HD
ATOM     27 22HD ASN B   1      58.129  92.606  22.693  1.00 47.62 LIG 0.16  HD
ATOM     28 OD1  ASN B   1      60.260  91.542  24.515  1.00 47.48 LIG-0.27  OA
ENDBRANCH 23 24
ENDBRANCH 22 23
BRANCH 22 29
ATOM     29  N   ASN B   1      58.499  91.163  26.401  1.00 44.58 LIG-0.07  N 
ATOM     30 H1   ASN B   1      58.512  92.031  26.206  1.00 44.58 LIG 0.28  HD
ATOM     31 H3   ASN B   1      59.323  90.833  26.340  1.00 44.58 LIG 0.28  HD
ATOM     32 H2   ASN B   1      58.196  91.051  27.231  1.00 44.58 LIG 0.28  HD
ENDBRANCH 22 29
ENDBRANCH 20 22
ENDBRANCH 5 18
ENDBRANCH 1 5
BRANCH 3 33
ATOM     33  CA  LEU B   3      56.932  87.456  29.827  1.00 27.74 LIG 0.18  C 
BRANCH 33 34
ATOM     34  C   LEU B   3      55.557  86.915  29.771  1.00 25.40 LIG 0.24  C 
ATOM     35 O    LEU B   3      54.920  86.923  28.726  1.00 26.81 LIG-0.27  OA
ATOM     36  N   ILE B   4      55.067  86.429  30.886  1.00 26.13 LIG-0.35  N 
ATOM     37 H    ILE B   4      55.514  86.326  31.613  1.00 26.13 LIG 0.16  HD
BRANCH 36 38
ATOM     38  CA  ILE B   4      53.735  86.040  30.951  1.00 24.17 LIG 0.18  C 
BRANCH 38 39
ATOM     39  CB  ILE B   4      53.602  85.129  32.190  1.00 29.09 LIG 0.01  C 
ATOM     40  CG2 ILE B   4      53.263  85.990  33.359  1.00 25.20 LIG 0.01  C 
BRANCH 39 41
ATOM     41  CG1 ILE B   4      52.481  84.108  32.053  1.00 28.67 LIG 0.00  C 
ATOM     42  CD1 ILE B   4      52.115  83.481  33.376  1.00 34.41 LIG 0.01  C 
ENDBRANCH 39 41
ENDBRANCH 38 39
BRANCH 38 43
ATOM     43  C   ILE B   4      52.780  87.238  30.949  1.00 29.58 LIG 0.24  C 
ATOM     44  N   LEU B   5      51.490  86.935  30.876  1.00 36.70 LIG-0.35  N 
ATOM     45 H    LEU B   5      51.191  86.143  30.725  1.00 36.70 LIG 0.16  HD
ATOM     46 O    ILE B   4      53.204  88.433  30.999  1.00 23.70 LIG-0.27  OA
BRANCH 44 47
ATOM     47  CA  LEU B   5      50.465  87.934  31.047  1.00 37.00 LIG 0.16  C 
BRANCH 47 48
ATOM     48  C   LEU B   5      50.635  88.680  32.385  1.00 42.59 LIG 0.22  C 
ATOM     49 O    LEU B   5      50.919  88.062  33.446  1.00 38.80 LIG-0.29  OA
ENDBRANCH 47 48
BRANCH 47 50
ATOM     50  CB  LEU B   5      49.113  87.233  31.011  1.00 50.59 LIG 0.04  C 
BRANCH 50 51
ATOM     51  CG  LEU B   5      48.923  86.121  32.024  1.00 50.85 LIG-0.02  C 
ATOM     52  CD1 LEU B   5      47.596  86.334  32.719  1.00 54.07 LIG 0.01  C 
ATOM     53  CD2 LEU B   5      48.943  84.806  31.253  1.00 54.33 LIG 0.01  C 
ENDBRANCH 50 51
ENDBRANCH 47 50
ENDBRANCH 44 47
ENDBRANCH 38 43
ENDBRANCH 36 38
ENDBRANCH 33 34
BRANCH 33 54
ATOM     54  CB  LEU B   3      56.868  88.849  30.406  1.00 34.11 LIG 0.04  C 
BRANCH 54 55
ATOM     55  CG  LEU B   3      58.150  89.100  31.125  1.00 35.49 LIG-0.02  C 
ATOM     56  CD1 LEU B   3      58.742  87.762  31.522  1.00 39.12 LIG 0.01  C 
ATOM     57  CD2 LEU B   3      59.000  89.773  30.077  1.00 34.32 LIG 0.01  C 
ENDBRANCH 54 55
ENDBRANCH 33 54
ENDBRANCH 3 33
TORSDOF 22
ENDMDL
MODEL 30
USER: ADFR SOLUTION from run 172
USER: SCORE 18.682613 LL:  -3.818 LR: -16.459 RR:   0.000 FEB:  -9.896
USER: RMSD 4.011226
USER: SEED 171
USER: STATUS no improvement in best in 10 clusters for 5 generations
USER: GENES 24
USER: genes 0 Translation |==|  0.45386 0.50090 0.37208
USER: genes 1 Rotation |==|  0.61716 0.50859 0.59083 0.97744
USER: genes 2 Torsion [N]-C--CA-[N] |==|  0.26524
USER: genes 3 Torsion [C]-CA--CB-[CG] |==|  0.29713
USER: genes 4 Torsion [CA]-CB--CG-[CD] |==|  0.23533
USER: genes 5 Torsion [CB]-CG--CD-[NE] |==|  0.80509
USER: genes 6 Torsion [CG]-CD--NE-[HE] |==|  0.88775
USER: genes 7 Torsion [C]-CA--N-[C] |==|  0.75906
USER: genes 8 Torsion [N]-C--CA-[N] |==|  0.69926
USER: genes 9 Torsion [C]-CA--CB-[CG] |==|  0.54030
USER: genes 10 Torsion [CA]-CB--CG-[OD1] |==|  0.15964
USER: genes 11 Torsion [C]-CA--N-[H1] |==|  0.62156
USER: genes 12 Torsion [C]-N--CA-[CB] |==|  0.23326
USER: genes 13 Torsion [N]-CA--C-[N] |==|  0.44608
USER: genes 14 Torsion [C]-N--CA-[C] |==|  0.73530
USER: genes 15 Torsion [N]-CA--CB-[CG1] |==|  0.22423
USER: genes 16 Torsion [CA]-CB--CG1-[CD1] |==|  0.44612
USER: genes 17 Torsion [N]-CA--C-[N] |==|  0.53119
USER: genes 18 Torsion [C]-N--CA-[C] |==|  0.69872
USER: genes 19 Torsion [N]-CA--C-[O] |==|  0.32558
USER: genes 20 Torsion [N]-CA--CB-[CG] |==|  0.76106
USER: genes 21 Torsion [CA]-CB--CG-[CD1] |==|  0.33172
USER: genes 22 Torsion [N]-CA--CB-[CG] |==|  0.15217
USER: genes 23 Torsion [CA]-CB--CG-[CD1] |==|  0.36168
ROOT
ATOM      1  C   ARG B   2      56.038  86.994  26.972  1.00 25.54 LIG 0.24  C 
ATOM      2 O    ARG B   2      56.804  85.980  26.941  1.00 21.45 LIG-0.27  OA
ATOM      3  N   LEU B   3      55.514  87.441  28.103  1.00 32.00 LIG-0.35  N 
ATOM      4 H    LEU B   3      55.079  88.180  28.175  1.00 32.00 LIG 0.16  HD
ENDROOT
BRANCH 1 5
ATOM      5  CA  ARG B   2      55.641  87.747  25.709  1.00 29.44 LIG 0.18  C 
BRANCH 5 6
ATOM      6  CB  ARG B   2      55.473  86.746  24.523  1.00 37.02 LIG 0.04  C 
BRANCH 6 7
ATOM      7  CG  ARG B   2      54.018  86.507  24.122  1.00 39.92 LIG 0.02  C 
BRANCH 7 8
ATOM      8  CD  ARG B   2      53.543  87.592  23.148  1.00 40.77 LIG 0.14  C 
BRANCH 8 9
ATOM      9  NE  ARG B   2      53.447  88.828  23.940  1.00 48.07 LIG-0.23  N 
ATOM     10 HE   ARG B   2      53.123  88.742  24.732  1.00 48.07 LIG 0.18  HD
ATOM     11  CZ  ARG B   2      53.798  90.072  23.584  1.00 44.36 LIG 0.67  C 
ATOM     12  NH1 ARG B   2      53.632  91.040  24.504  1.00 36.12 LIG-0.23  N 
ATOM     13  NH2 ARG B   2      54.307  90.359  22.363  1.00 39.61 LIG-0.23  N 
ATOM     14 1HH1 ARG B   2      53.313  90.847  25.279  1.00 36.12 LIG 0.17  HD
ATOM     15 2HH1 ARG B   2      53.845  91.852  24.317  1.00 36.12 LIG 0.17  HD
ATOM     16 1HH2 ARG B   2      54.415  89.733  21.785  1.00 39.61 LIG 0.17  HD
ATOM     17 2HH2 ARG B   2      54.522  91.168  22.167  1.00 39.61 LIG 0.17  HD
ENDBRANCH 8 9
ENDBRANCH 7 8
ENDBRANCH 6 7
ENDBRANCH 5 6
BRANCH 5 18
ATOM     18  N   ARG B   2      56.647  88.767  25.361  1.00 32.37 LIG-0.35  N 
ATOM     19 H    ARG B   2      57.260  88.524  24.808  1.00 32.37 LIG 0.16  HD
ATOM     20  C   ASN B   1      56.531  89.958  25.915  1.00 31.22 LIG 0.25  C 
ATOM     21 O    ASN B   1      55.663  90.181  26.731  1.00 24.61 LIG-0.27  OA
BRANCH 20 22
ATOM     22  CA  ASN B   1      57.519  91.060  25.574  1.00 32.89 LIG 0.28  C 
BRANCH 22 23
ATOM     23  CB  ASN B   1      58.247  90.610  24.306  1.00 38.07 LIG 0.14  C 
BRANCH 23 24
ATOM     24  CG  ASN B   1      59.465  91.404  24.042  1.00 44.05 LIG 0.22  C 
ATOM     25  ND2 ASN B   1      59.502  92.030  22.895  1.00 47.62 LIG-0.37  N 
ATOM     26 21HD ASN B   1      60.180  92.519  22.694  1.00 47.62 LIG 0.16  HD
ATOM     27 22HD ASN B   1      58.849  91.953  22.341  1.00 47.62 LIG 0.16  HD
ATOM     28 OD1  ASN B   1      60.376  91.477  24.879  1.00 47.48 LIG-0.27  OA
ENDBRANCH 23 24
ENDBRANCH 22 23
BRANCH 22 29
ATOM     29  N   ASN B   1      58.507  91.450  26.622  1.00 44.58 LIG-0.07  N 
ATOM     30 H1   ASN B   1      58.568  92.337  26.659  1.00 44.58 LIG 0.28  HD
ATOM     31 H3   ASN B   1      59.304  91.107  26.422  1.00 44.58 LIG 0.28  HD
ATOM     32 H2   ASN B   1      58.240  91.139  27.413  1.00 44.58 LIG 0.28  HD
ENDBRANCH 22 29
ENDBRANCH 20 22
ENDBRANCH 5 18
ENDBRANCH 1 5
BRANCH 3 33
ATOM     33  CA  LEU B   3      55.643  86.689  29.342  1.00 27.74 LIG 0.18  C 
BRANCH 33 34
ATOM     34  C   LEU B   3      54.580  87.061  30.300  1.00 25.40 LIG 0.24  C 
ATOM     35 O    LEU B   3      53.965  88.112  30.180  1.00 26.81 LIG-0.27  OA
ATOM     36  N   ILE B   4      54.335  86.214  31.270  1.00 26.13 LIG-0.35  N 
ATOM     37 H    ILE B   4      54.683  85.430  31.335  1.00 26.13 LIG 0.16  HD
BRANCH 36 38
ATOM     38  CA  ILE B   4      53.459  86.557  32.292  1.00 24.17 LIG 0.18  C 
BRANCH 38 39
ATOM     39  CB  ILE B   4      52.611  85.302  32.586  1.00 29.09 LIG 0.01  C 
ATOM     40  CG2 ILE B   4      52.342  84.615  31.290  1.00 25.20 LIG 0.01  C 
BRANCH 39 41
ATOM     41  CG1 ILE B   4      53.332  84.299  33.476  1.00 28.67 LIG 0.00  C 
ATOM     42  CD1 ILE B   4      52.379  83.332  34.135  1.00 34.41 LIG 0.01  C 
ENDBRANCH 39 41
ENDBRANCH 38 39
BRANCH 38 43
ATOM     43  C   ILE B   4      54.188  87.122  33.515  1.00 29.58 LIG 0.24  C 
ATOM     44  N   LEU B   5      53.446  87.252  34.608  1.00 36.70 LIG-0.35  N 
ATOM     45 H    LEU B   5      52.593  87.144  34.624  1.00 36.70 LIG 0.16  HD
ATOM     46 O    ILE B   4      55.413  87.453  33.473  1.00 23.70 LIG-0.27  OA
BRANCH 44 47
ATOM     47  CA  LEU B   5      54.026  87.594  35.883  1.00 37.00 LIG 0.16  C 
BRANCH 47 48
ATOM     48  C   LEU B   5      54.010  86.387  36.842  1.00 42.59 LIG 0.22  C 
ATOM     49 O    LEU B   5      55.080  85.884  37.276  1.00 38.80 LIG-0.29  OA
ENDBRANCH 47 48
BRANCH 47 50
ATOM     50  CB  LEU B   5      53.216  88.740  36.476  1.00 50.59 LIG 0.04  C 
BRANCH 50 51
ATOM     51  CG  LEU B   5      53.632  90.132  36.041  1.00 50.85 LIG-0.02  C 
ATOM     52  CD1 LEU B   5      52.457  90.782  35.344  1.00 54.07 LIG 0.01  C 
ATOM     53  CD2 LEU B   5      54.023  90.896  37.301  1.00 54.33 LIG 0.01  C 
ENDBRANCH 50 51
ENDBRANCH 47 50
ENDBRANCH 44 47
ENDBRANCH 38 43
ENDBRANCH 36 38
ENDBRANCH 33 34
BRANCH 33 54
ATOM     54  CB  LEU B   3      56.978  87.027  29.962  1.00 34.11 LIG 0.04  C 
BRANCH 54 55
ATOM     55  CG  LEU B   3      57.049  88.509  30.106  1.00 35.49 LIG-0.02  C 
ATOM     56  CD1 LEU B   3      57.474  88.828  31.526  1.00 39.12 LIG 0.01  C 
ATOM     57  CD2 LEU B   3      58.126  88.894  29.124  1.00 34.32 LIG 0.01  C 
ENDBRANCH 54 55
ENDBRANCH 33 54
ENDBRANCH 3 33
TORSDOF 22
ENDMDL
MODEL 31
USER: ADFR SOLUTION from run 88
USER: SCORE 18.431485 LL:  -3.856 LR: -16.427 RR:   0.000 FEB:  -9.864
USER: RMSD 3.634099
USER: SEED 87
USER: STATUS no improvement in best in 15 clusters for 5 generations
USER: GENES 24
USER: genes 0 Translation |==|  0.50105 0.46438 0.42196
USER: genes 1 Rotation |==|  0.52982 0.46957 0.44479 0.99511
USER: genes 2 Torsion [N]-C--CA-[N] |==|  0.43052
USER: genes 3 Torsion [C]-CA--CB-[CG] |==|  0.19360
USER: genes 4 Torsion [CA]-CB--CG-[CD] |==|  0.20436
USER: genes 5 Torsion [CB]-CG--CD-[NE] |==|  0.73080
USER: genes 6 Torsion [CG]-CD--NE-[HE] |==|  0.78703
USER: genes 7 Torsion [C]-CA--N-[C] |==|  0.70807
USER: genes 8 Torsion [N]-C--CA-[N] |==|  0.85664
USER: genes 9 Torsion [C]-CA--CB-[CG] |==|  0.20194
USER: genes 10 Torsion [CA]-CB--CG-[OD1] |==|  0.60298
USER: genes 11 Torsion [C]-CA--N-[H1] |==|  0.22723
USER: genes 12 Torsion [C]-N--CA-[CB] |==|  0.38099
USER: genes 13 Torsion [N]-CA--C-[N] |==|  0.47007
USER: genes 14 Torsion [C]-N--CA-[C] |==|  0.81010
USER: genes 15 Torsion [N]-CA--CB-[CG1] |==|  0.18398
USER: genes 16 Torsion [CA]-CB--CG1-[CD1] |==|  0.27533
USER: genes 17 Torsion [N]-CA--C-[N] |==|  0.43821
USER: genes 18 Torsion [C]-N--CA-[C] |==|  0.81001
USER: genes 19 Torsion [N]-CA--C-[O] |==|  0.37536
USER: genes 20 Torsion [N]-CA--CB-[CG] |==|  0.82525
USER: genes 21 Torsion [CA]-CB--CG-[CD1] |==|  0.22681
USER: genes 22 Torsion [N]-CA--CB-[CG] |==|  0.82511
USER: genes 23 Torsion [CA]-CB--CG-[CD1] |==|  0.37404
ROOT
ATOM      1  C   ARG B   2      57.029  86.309  28.057  1.00 25.54 LIG 0.24  C 
ATOM      2 O    ARG B   2      57.069  85.102  28.451  1.00 21.45 LIG-0.27  OA
ATOM      3  N   LEU B   3      56.891  87.318  28.903  1.00 32.00 LIG-0.35  N 
ATOM      4 H    LEU B   3      56.964  88.146  28.683  1.00 32.00 LIG 0.16  HD
ENDROOT
BRANCH 1 5
ATOM      5  CA  ARG B   2      57.105  86.681  26.582  1.00 29.44 LIG 0.18  C 
BRANCH 5 6
ATOM      6  CB  ARG B   2      55.666  86.863  26.004  1.00 37.02 LIG 0.04  C 
BRANCH 6 7
ATOM      7  CG  ARG B   2      54.943  88.101  26.534  1.00 39.92 LIG 0.02  C 
BRANCH 7 8
ATOM      8  CD  ARG B   2      55.525  89.373  25.906  1.00 40.77 LIG 0.14  C 
BRANCH 8 9
ATOM      9  NE  ARG B   2      56.496  89.894  26.881  1.00 48.07 LIG-0.23  N 
ATOM     10 HE   ARG B   2      56.163  90.299  27.563  1.00 48.07 LIG 0.18  HD
ATOM     11  CZ  ARG B   2      57.834  89.817  26.842  1.00 44.36 LIG 0.67  C 
ATOM     12  NH1 ARG B   2      58.506  90.356  27.876  1.00 36.12 LIG-0.23  N 
ATOM     13  NH2 ARG B   2      58.496  89.221  25.823  1.00 39.61 LIG-0.23  N 
ATOM     14 1HH1 ARG B   2      58.077  90.728  28.522  1.00 36.12 LIG 0.17  HD
ATOM     15 2HH1 ARG B   2      59.365  90.329  27.891  1.00 36.12 LIG 0.17  HD
ATOM     16 1HH2 ARG B   2      58.057  88.875  25.170  1.00 39.61 LIG 0.17  HD
ATOM     17 2HH2 ARG B   2      59.355  89.190  25.829  1.00 39.61 LIG 0.17  HD
ENDBRANCH 8 9
ENDBRANCH 7 8
ENDBRANCH 6 7
ENDBRANCH 5 6
BRANCH 5 18
ATOM     18  N   ARG B   2      57.824  85.651  25.810  1.00 32.37 LIG-0.35  N 
ATOM     19 H    ARG B   2      57.395  84.922  25.656  1.00 32.37 LIG 0.16  HD
ATOM     20  C   ASN B   1      59.055  85.923  25.421  1.00 31.22 LIG 0.25  C 
ATOM     21 O    ASN B   1      59.592  86.961  25.743  1.00 24.61 LIG-0.27  OA
BRANCH 20 22
ATOM     22  CA  ASN B   1      59.838  84.914  24.598  1.00 32.89 LIG 0.28  C 
BRANCH 22 23
ATOM     23  CB  ASN B   1      59.214  84.919  23.202  1.00 38.07 LIG 0.14  C 
BRANCH 23 24
ATOM     24  CG  ASN B   1      59.543  86.142  22.440  1.00 44.05 LIG 0.22  C 
ATOM     25  ND2 ASN B   1      60.757  86.603  22.595  1.00 47.62 LIG-0.37  N 
ATOM     26 21HD ASN B   1      61.008  87.304  22.165  1.00 47.62 LIG 0.16  HD
ATOM     27 22HD ASN B   1      61.303  86.207  23.127  1.00 47.62 LIG 0.16  HD
ATOM     28 OD1  ASN B   1      58.713  86.671  21.688  1.00 47.48 LIG-0.27  OA
ENDBRANCH 23 24
ENDBRANCH 22 23
BRANCH 22 29
ATOM     29  N   ASN B   1      59.923  83.518  25.118  1.00 44.58 LIG-0.07  N 
ATOM     30 H1   ASN B   1      59.183  83.074  24.900  1.00 44.58 LIG 0.28  HD
ATOM     31 H3   ASN B   1      60.008  83.535  26.004  1.00 44.58 LIG 0.28  HD
ATOM     32 H2   ASN B   1      60.629  83.111  24.760  1.00 44.58 LIG 0.28  HD
ENDBRANCH 22 29
ENDBRANCH 20 22
ENDBRANCH 5 18
ENDBRANCH 1 5
BRANCH 3 33
ATOM     33  CA  LEU B   3      56.596  87.087  30.309  1.00 27.74 LIG 0.18  C 
BRANCH 33 34
ATOM     34  C   LEU B   3      55.179  87.382  30.609  1.00 25.40 LIG 0.24  C 
ATOM     35 O    LEU B   3      54.466  87.945  29.789  1.00 26.81 LIG-0.27  OA
ATOM     36  N   ILE B   4      54.733  87.009  31.784  1.00 26.13 LIG-0.35  N 
ATOM     37 H    ILE B   4      55.176  86.534  32.348  1.00 26.13 LIG 0.16  HD
BRANCH 36 38
ATOM     38  CA  ILE B   4      53.460  87.380  32.197  1.00 24.17 LIG 0.18  C 
BRANCH 38 39
ATOM     39  CB  ILE B   4      53.121  86.505  33.422  1.00 29.09 LIG 0.01  C 
ATOM     40  CG2 ILE B   4      53.363  85.081  33.051  1.00 25.20 LIG 0.01  C 
BRANCH 39 41
ATOM     41  CG1 ILE B   4      54.006  86.805  34.624  1.00 28.67 LIG 0.00  C 
ATOM     42  CD1 ILE B   4      53.327  87.712  35.620  1.00 34.41 LIG 0.01  C 
ENDBRANCH 39 41
ENDBRANCH 38 39
BRANCH 38 43
ATOM     43  C   ILE B   4      53.350  88.887  32.454  1.00 29.58 LIG 0.24  C 
ATOM     44  N   LEU B   5      52.121  89.384  32.397  1.00 36.70 LIG-0.35  N 
ATOM     45 H    LEU B   5      51.436  88.940  32.127  1.00 36.70 LIG 0.16  HD
ATOM     46 O    ILE B   4      54.372  89.603  32.689  1.00 23.70 LIG-0.27  OA
BRANCH 44 47
ATOM     47  CA  LEU B   5      51.832  90.740  32.794  1.00 37.00 LIG 0.16  C 
BRANCH 47 48
ATOM     48  C   LEU B   5      52.006  90.923  34.315  1.00 42.59 LIG 0.22  C 
ATOM     49 O    LEU B   5      52.612  91.922  34.787  1.00 38.80 LIG-0.29  OA
ENDBRANCH 47 48
BRANCH 47 50
ATOM     50  CB  LEU B   5      50.396  91.051  32.394  1.00 50.59 LIG 0.04  C 
BRANCH 50 51
ATOM     51  CG  LEU B   5      50.104  91.010  30.906  1.00 50.85 LIG-0.02  C 
ATOM     52  CD1 LEU B   5      49.885  89.568  30.505  1.00 54.07 LIG 0.01  C 
ATOM     53  CD2 LEU B   5      48.854  91.850  30.673  1.00 54.33 LIG 0.01  C 
ENDBRANCH 50 51
ENDBRANCH 47 50
ENDBRANCH 44 47
ENDBRANCH 38 43
ENDBRANCH 36 38
ENDBRANCH 33 34
BRANCH 33 54
ATOM     54  CB  LEU B   3      57.457  88.018  31.130  1.00 34.11 LIG 0.04  C 
BRANCH 54 55
ATOM     55  CG  LEU B   3      58.881  87.656  30.881  1.00 35.49 LIG-0.02  C 
ATOM     56  CD1 LEU B   3      59.663  88.935  30.652  1.00 39.12 LIG 0.01  C 
ATOM     57  CD2 LEU B   3      59.295  86.998  32.173  1.00 34.32 LIG 0.01  C 
ENDBRANCH 54 55
ENDBRANCH 33 54
ENDBRANCH 3 33
TORSDOF 22
ENDMDL
MODEL 32
USER: ADFR SOLUTION from run 148
USER: SCORE 18.207702 LL:  -4.027 LR: -16.410 RR:   0.000 FEB:  -9.847
USER: RMSD 4.068233
USER: SEED 147
USER: STATUS no improvement in best in 17 clusters for 5 generations
USER: GENES 24
USER: genes 0 Translation |==|  0.46272 0.46446 0.39544
USER: genes 1 Rotation |==|  0.47178 0.55355 0.48838 0.99619
USER: genes 2 Torsion [N]-C--CA-[N] |==|  0.09269
USER: genes 3 Torsion [C]-CA--CB-[CG] |==|  0.35009
USER: genes 4 Torsion [CA]-CB--CG-[CD] |==|  0.50637
USER: genes 5 Torsion [CB]-CG--CD-[NE] |==|  0.64306
USER: genes 6 Torsion [CG]-CD--NE-[HE] |==|  0.25243
USER: genes 7 Torsion [C]-CA--N-[C] |==|  0.73326
USER: genes 8 Torsion [N]-C--CA-[N] |==|  0.44840
USER: genes 9 Torsion [C]-CA--CB-[CG] |==|  0.20413
USER: genes 10 Torsion [CA]-CB--CG-[OD1] |==|  0.05187
USER: genes 11 Torsion [C]-CA--N-[H1] |==|  0.82559
USER: genes 12 Torsion [C]-N--CA-[CB] |==|  0.40103
USER: genes 13 Torsion [N]-CA--C-[N] |==|  0.29721
USER: genes 14 Torsion [C]-N--CA-[C] |==|  0.78092
USER: genes 15 Torsion [N]-CA--CB-[CG1] |==|  0.62777
USER: genes 16 Torsion [CA]-CB--CG1-[CD1] |==|  0.47993
USER: genes 17 Torsion [N]-CA--C-[N] |==|  0.48027
USER: genes 18 Torsion [C]-N--CA-[C] |==|  0.19722
USER: genes 19 Torsion [N]-CA--C-[O] |==|  0.03588
USER: genes 20 Torsion [N]-CA--CB-[CG] |==|  0.66500
USER: genes 21 Torsion [CA]-CB--CG-[CD1] |==|  0.23880
USER: genes 22 Torsion [N]-CA--CB-[CG] |==|  0.67997
USER: genes 23 Torsion [CA]-CB--CG-[CD1] |==|  0.89279
ROOT
ATOM      1  C   ARG B   2      56.224  86.311  27.480  1.00 25.54 LIG 0.24  C 
ATOM      2 O    ARG B   2      56.642  85.244  28.030  1.00 21.45 LIG-0.27  OA
ATOM      3  N   LEU B   3      56.156  87.458  28.138  1.00 32.00 LIG-0.35  N 
ATOM      4 H    LEU B   3      55.979  88.215  27.771  1.00 32.00 LIG 0.16  HD
ENDROOT
BRANCH 1 5
ATOM      5  CA  ARG B   2      55.742  86.340  26.036  1.00 29.44 LIG 0.18  C 
BRANCH 5 6
ATOM      6  CB  ARG B   2      56.427  85.198  25.222  1.00 37.02 LIG 0.04  C 
BRANCH 6 7
ATOM      7  CG  ARG B   2      55.440  84.284  24.496  1.00 39.92 LIG 0.02  C 
BRANCH 7 8
ATOM      8  CD  ARG B   2      56.186  83.158  23.769  1.00 40.77 LIG 0.14  C 
BRANCH 8 9
ATOM      9  NE  ARG B   2      55.691  83.178  22.384  1.00 48.07 LIG-0.23  N 
ATOM     10 HE   ARG B   2      56.134  83.670  21.835  1.00 48.07 LIG 0.18  HD
ATOM     11  CZ  ARG B   2      54.639  82.526  21.869  1.00 44.36 LIG 0.67  C 
ATOM     12  NH1 ARG B   2      54.403  82.690  20.554  1.00 36.12 LIG-0.23  N 
ATOM     13  NH2 ARG B   2      53.844  81.727  22.618  1.00 39.61 LIG-0.23  N 
ATOM     14 1HH1 ARG B   2      54.917  83.196  20.085  1.00 36.12 LIG 0.17  HD
ATOM     15 2HH1 ARG B   2      53.739  82.290  20.183  1.00 36.12 LIG 0.17  HD
ATOM     16 1HH2 ARG B   2      54.007  81.623  23.456  1.00 39.61 LIG 0.17  HD
ATOM     17 2HH2 ARG B   2      53.177  81.323  22.256  1.00 39.61 LIG 0.17  HD
ENDBRANCH 8 9
ENDBRANCH 7 8
ENDBRANCH 6 7
ENDBRANCH 5 6
BRANCH 5 18
ATOM     18  N   ARG B   2      56.031  87.642  25.406  1.00 32.37 LIG-0.35  N 
ATOM     19 H    ARG B   2      56.820  87.740  25.079  1.00 32.37 LIG 0.16  HD
ATOM     20  C   ASN B   1      55.069  88.544  25.391  1.00 31.22 LIG 0.25  C 
ATOM     21 O    ASN B   1      54.007  88.328  25.935  1.00 24.61 LIG-0.27  OA
BRANCH 20 22
ATOM     22  CA  ASN B   1      55.295  89.893  24.732  1.00 32.89 LIG 0.28  C 
BRANCH 22 23
ATOM     23  CB  ASN B   1      56.191  90.692  25.679  1.00 38.07 LIG 0.14  C 
BRANCH 23 24
ATOM     24  CG  ASN B   1      57.589  90.215  25.671  1.00 44.05 LIG 0.22  C 
ATOM     25  ND2 ASN B   1      58.314  90.549  26.707  1.00 47.62 LIG-0.37  N 
ATOM     26 21HD ASN B   1      59.130  90.286  26.763  1.00 47.62 LIG 0.16  HD
ATOM     27 22HD ASN B   1      57.974  91.031  27.332  1.00 47.62 LIG 0.16  HD
ATOM     28 OD1  ASN B   1      58.024  89.522  24.741  1.00 47.48 LIG-0.27  OA
ENDBRANCH 23 24
ENDBRANCH 22 23
BRANCH 22 29
ATOM     29  N   ASN B   1      54.089  90.694  24.368  1.00 44.58 LIG-0.07  N 
ATOM     30 H1   ASN B   1      53.609  90.251  23.764  1.00 44.58 LIG 0.28  HD
ATOM     31 H3   ASN B   1      54.344  91.477  24.029  1.00 44.58 LIG 0.28  HD
ATOM     32 H2   ASN B   1      53.594  90.833  25.095  1.00 44.58 LIG 0.28  HD
ENDBRANCH 22 29
ENDBRANCH 20 22
ENDBRANCH 5 18
ENDBRANCH 1 5
BRANCH 3 33
ATOM     33  CA  LEU B   3      56.385  87.517  29.573  1.00 27.74 LIG 0.18  C 
BRANCH 33 34
ATOM     34  C   LEU B   3      55.106  87.499  30.315  1.00 25.40 LIG 0.24  C 
ATOM     35 O    LEU B   3      54.372  88.479  30.326  1.00 26.81 LIG-0.27  OA
ATOM     36  N   ILE B   4      54.804  86.392  30.948  1.00 26.13 LIG-0.35  N 
ATOM     37 H    ILE B   4      55.248  85.658  30.889  1.00 26.13 LIG 0.16  HD
BRANCH 36 38
ATOM     38  CA  ILE B   4      53.696  86.346  31.785  1.00 24.17 LIG 0.18  C 
BRANCH 38 39
ATOM     39  CB  ILE B   4      53.259  84.868  31.858  1.00 29.09 LIG 0.01  C 
ATOM     40  CG2 ILE B   4      53.608  84.352  33.212  1.00 25.20 LIG 0.01  C 
BRANCH 39 41
ATOM     41  CG1 ILE B   4      51.757  84.688  31.690  1.00 28.67 LIG 0.00  C 
ATOM     42  CD1 ILE B   4      51.363  83.235  31.589  1.00 34.41 LIG 0.01  C 
ENDBRANCH 39 41
ENDBRANCH 38 39
BRANCH 38 43
ATOM     43  C   ILE B   4      53.975  86.985  33.149  1.00 29.58 LIG 0.24  C 
ATOM     44  N   LEU B   5      52.919  87.108  33.944  1.00 36.70 LIG-0.35  N 
ATOM     45 H    LEU B   5      52.111  86.954  33.695  1.00 36.70 LIG 0.16  HD
ATOM     46 O    ILE B   4      55.134  87.380  33.481  1.00 23.70 LIG-0.27  OA
BRANCH 44 47
ATOM     47  CA  LEU B   5      53.049  87.518  35.320  1.00 37.00 LIG 0.16  C 
BRANCH 47 48
ATOM     48  C   LEU B   5      53.432  89.008  35.422  1.00 42.59 LIG 0.22  C 
ATOM     49 O    LEU B   5      53.360  89.770  34.422  1.00 38.80 LIG-0.29  OA
ENDBRANCH 47 48
BRANCH 47 50
ATOM     50  CB  LEU B   5      54.127  86.659  35.968  1.00 50.59 LIG 0.04  C 
BRANCH 50 51
ATOM     51  CG  LEU B   5      53.682  85.836  37.162  1.00 50.85 LIG-0.02  C 
ATOM     52  CD1 LEU B   5      53.111  84.531  36.651  1.00 54.07 LIG 0.01  C 
ATOM     53  CD2 LEU B   5      54.915  85.603  38.028  1.00 54.33 LIG 0.01  C 
ENDBRANCH 50 51
ENDBRANCH 47 50
ENDBRANCH 44 47
ENDBRANCH 38 43
ENDBRANCH 36 38
ENDBRANCH 33 34
BRANCH 33 54
ATOM     54  CB  LEU B   3      57.093  88.814  29.885  1.00 34.11 LIG 0.04  C 
BRANCH 54 55
ATOM     55  CG  LEU B   3      58.447  88.476  30.410  1.00 35.49 LIG-0.02  C 
ATOM     56  CD1 LEU B   3      58.322  87.251  31.295  1.00 39.12 LIG 0.01  C 
ATOM     57  CD2 LEU B   3      59.226  88.156  29.158  1.00 34.32 LIG 0.01  C 
ENDBRANCH 54 55
ENDBRANCH 33 54
ENDBRANCH 3 33
TORSDOF 22
ENDMDL
MODEL 33
USER: ADFR SOLUTION from run 166
USER: SCORE 18.893618 LL:  -4.144 LR: -16.390 RR:   0.000 FEB:  -9.828
USER: RMSD 4.050540
USER: SEED 165
USER: STATUS searching
USER: GENES 24
USER: genes 0 Translation |==|  0.50302 0.42009 0.41064
USER: genes 1 Rotation |==|  0.42512 0.49579 0.27806 0.94172
USER: genes 2 Torsion [N]-C--CA-[N] |==|  0.48511
USER: genes 3 Torsion [C]-CA--CB-[CG] |==|  0.96382
USER: genes 4 Torsion [CA]-CB--CG-[CD] |==|  0.41940
USER: genes 5 Torsion [CB]-CG--CD-[NE] |==|  0.69588
USER: genes 6 Torsion [CG]-CD--NE-[HE] |==|  0.70700
USER: genes 7 Torsion [C]-CA--N-[C] |==|  0.51957
USER: genes 8 Torsion [N]-C--CA-[N] |==|  0.16957
USER: genes 9 Torsion [C]-CA--CB-[CG] |==|  0.70298
USER: genes 10 Torsion [CA]-CB--CG-[OD1] |==|  0.26316
USER: genes 11 Torsion [C]-CA--N-[H1] |==|  0.44776
USER: genes 12 Torsion [C]-N--CA-[CB] |==|  0.48333
USER: genes 13 Torsion [N]-CA--C-[N] |==|  0.24750
USER: genes 14 Torsion [C]-N--CA-[C] |==|  0.79708
USER: genes 15 Torsion [N]-CA--CB-[CG1] |==|  0.58468
USER: genes 16 Torsion [CA]-CB--CG1-[CD1] |==|  0.54574
USER: genes 17 Torsion [N]-CA--C-[N] |==|  0.46923
USER: genes 18 Torsion [C]-N--CA-[C] |==|  0.81016
USER: genes 19 Torsion [N]-CA--C-[O] |==|  0.09282
USER: genes 20 Torsion [N]-CA--CB-[CG] |==|  0.84611
USER: genes 21 Torsion [CA]-CB--CG-[CD1] |==|  0.27793
USER: genes 22 Torsion [N]-CA--CB-[CG] |==|  0.49287
USER: genes 23 Torsion [CA]-CB--CG-[CD1] |==|  0.24009
ROOT
ATOM      1  C   ARG B   2      57.070  85.479  27.810  1.00 25.54 LIG 0.24  C 
ATOM      2 O    ARG B   2      56.472  84.719  28.635  1.00 21.45 LIG-0.27  OA
ATOM      3  N   LEU B   3      57.828  86.488  28.211  1.00 32.00 LIG-0.35  N 
ATOM      4 H    LEU B   3      58.327  86.955  27.689  1.00 32.00 LIG 0.16  HD
ENDROOT
BRANCH 1 5
ATOM      5  CA  ARG B   2      56.934  85.304  26.304  1.00 29.44 LIG 0.18  C 
BRANCH 5 6
ATOM      6  CB  ARG B   2      56.219  86.547  25.687  1.00 37.02 LIG 0.04  C 
BRANCH 6 7
ATOM      7  CG  ARG B   2      55.561  87.456  26.724  1.00 39.92 LIG 0.02  C 
BRANCH 7 8
ATOM      8  CD  ARG B   2      55.529  88.906  26.225  1.00 40.77 LIG 0.14  C 
BRANCH 8 9
ATOM      9  NE  ARG B   2      56.497  89.638  27.056  1.00 48.07 LIG-0.23  N 
ATOM     10 HE   ARG B   2      56.162  90.156  27.655  1.00 48.07 LIG 0.18  HD
ATOM     11  CZ  ARG B   2      57.836  89.601  26.997  1.00 44.36 LIG 0.67  C 
ATOM     12  NH1 ARG B   2      58.507  90.352  27.890  1.00 36.12 LIG-0.23  N 
ATOM     13  NH2 ARG B   2      58.501  88.843  26.095  1.00 39.61 LIG-0.23  N 
ATOM     14 1HH1 ARG B   2      58.076  90.827  28.464  1.00 36.12 LIG 0.17  HD
ATOM     15 2HH1 ARG B   2      59.367  90.358  27.888  1.00 36.12 LIG 0.17  HD
ATOM     16 1HH2 ARG B   2      58.064  88.362  25.533  1.00 39.61 LIG 0.17  HD
ATOM     17 2HH2 ARG B   2      59.361  88.842  26.085  1.00 39.61 LIG 0.17  HD
ENDBRANCH 8 9
ENDBRANCH 7 8
ENDBRANCH 6 7
ENDBRANCH 5 6
BRANCH 5 18
ATOM     18  N   ARG B   2      56.178  84.081  25.977  1.00 32.37 LIG-0.35  N 
ATOM     19 H    ARG B   2      55.824  83.664  26.640  1.00 32.37 LIG 0.16  HD
ATOM     20  C   ASN B   1      56.103  83.726  24.709  1.00 31.22 LIG 0.25  C 
ATOM     21 O    ASN B   1      56.691  84.353  23.854  1.00 24.61 LIG-0.27  OA
BRANCH 20 22
ATOM     22  CA  ASN B   1      55.315  82.493  24.305  1.00 32.89 LIG 0.28  C 
BRANCH 22 23
ATOM     23  CB  ASN B   1      55.542  82.308  22.804  1.00 38.07 LIG 0.14  C 
BRANCH 23 24
ATOM     24  CG  ASN B   1      54.352  82.664  22.004  1.00 44.05 LIG 0.22  C 
ATOM     25  ND2 ASN B   1      53.449  81.728  21.873  1.00 47.62 LIG-0.37  N 
ATOM     26 21HD ASN B   1      52.729  81.885  21.430  1.00 47.62 LIG 0.16  HD
ATOM     27 22HD ASN B   1      53.575  80.956  22.229  1.00 47.62 LIG 0.16  HD
ATOM     28 OD1  ASN B   1      54.225  83.795  21.513  1.00 47.48 LIG-0.27  OA
ENDBRANCH 23 24
ENDBRANCH 22 23
BRANCH 22 29
ATOM     29  N   ASN B   1      53.854  82.477  24.609  1.00 44.58 LIG-0.07  N 
ATOM     30 H1   ASN B   1      53.452  81.863  24.106  1.00 44.58 LIG 0.28  HD
ATOM     31 H3   ASN B   1      53.505  83.277  24.434  1.00 44.58 LIG 0.28  HD
ATOM     32 H2   ASN B   1      53.731  82.281  25.469  1.00 44.58 LIG 0.28  HD
ENDBRANCH 22 29
ENDBRANCH 20 22
ENDBRANCH 5 18
ENDBRANCH 1 5
BRANCH 3 33
ATOM     33  CA  LEU B   3      57.870  86.890  29.609  1.00 27.74 LIG 0.18  C 
BRANCH 33 34
ATOM     34  C   LEU B   3      56.573  87.457  30.037  1.00 25.40 LIG 0.24  C 
ATOM     35 O    LEU B   3      56.351  88.657  29.946  1.00 26.81 LIG-0.27  OA
ATOM     36  N   ILE B   4      55.685  86.615  30.508  1.00 26.13 LIG-0.35  N 
ATOM     37 H    ILE B   4      55.772  85.760  30.504  1.00 26.13 LIG 0.16  HD
BRANCH 36 38
ATOM     38  CA  ILE B   4      54.504  87.087  31.066  1.00 24.17 LIG 0.18  C 
BRANCH 38 39
ATOM     39  CB  ILE B   4      53.516  85.902  31.074  1.00 29.09 LIG 0.01  C 
ATOM     40  CG2 ILE B   4      53.634  85.213  32.391  1.00 25.20 LIG 0.01  C 
BRANCH 39 41
ATOM     41  CG1 ILE B   4      52.065  86.342  30.935  1.00 28.67 LIG 0.00  C 
ATOM     42  CD1 ILE B   4      51.098  85.256  31.335  1.00 34.41 LIG 0.01  C 
ENDBRANCH 39 41
ENDBRANCH 38 39
BRANCH 38 43
ATOM     43  C   ILE B   4      54.727  87.726  32.441  1.00 29.58 LIG 0.24  C 
ATOM     44  N   LEU B   5      53.692  88.398  32.929  1.00 36.70 LIG-0.35  N 
ATOM     45 H    LEU B   5      52.980  88.574  32.481  1.00 36.70 LIG 0.16  HD
ATOM     46 O    ILE B   4      55.833  87.626  33.056  1.00 23.70 LIG-0.27  OA
BRANCH 44 47
ATOM     47  CA  LEU B   5      53.681  88.898  34.281  1.00 37.00 LIG 0.16  C 
BRANCH 47 48
ATOM     48  C   LEU B   5      53.614  87.743  35.300  1.00 42.59 LIG 0.22  C 
ATOM     49 O    LEU B   5      54.171  86.636  35.070  1.00 38.80 LIG-0.29  OA
ENDBRANCH 47 48
BRANCH 47 50
ATOM     50  CB  LEU B   5      52.465  89.801  34.439  1.00 50.59 LIG 0.04  C 
BRANCH 50 51
ATOM     51  CG  LEU B   5      52.360  90.943  33.446  1.00 50.85 LIG-0.02  C 
ATOM     52  CD1 LEU B   5      51.381  90.542  32.364  1.00 54.07 LIG 0.01  C 
ATOM     53  CD2 LEU B   5      51.869  92.162  34.217  1.00 54.33 LIG 0.01  C 
ENDBRANCH 50 51
ENDBRANCH 47 50
ENDBRANCH 44 47
ENDBRANCH 38 43
ENDBRANCH 36 38
ENDBRANCH 33 34
BRANCH 33 54
ATOM     54  CB  LEU B   3      58.926  87.958  29.761  1.00 34.11 LIG 0.04  C 
BRANCH 54 55
ATOM     55  CG  LEU B   3      58.916  88.406  31.183  1.00 35.49 LIG-0.02  C 
ATOM     56  CD1 LEU B   3      59.819  87.483  31.978  1.00 39.12 LIG 0.01  C 
ATOM     57  CD2 LEU B   3      59.501  89.794  31.106  1.00 34.32 LIG 0.01  C 
ENDBRANCH 54 55
ENDBRANCH 33 54
ENDBRANCH 3 33
TORSDOF 22
ENDMDL
MODEL 34
USER: ADFR SOLUTION from run 122
USER: SCORE 17.833159 LL:  -3.858 LR: -16.395 RR:   0.000 FEB:  -9.832
USER: RMSD 4.544649
USER: SEED 121
USER: STATUS no improvement in best in 14 clusters for 5 generations
USER: GENES 24
USER: genes 0 Translation |==|  0.50183 0.46410 0.43048
USER: genes 1 Rotation |==|  0.50709 0.46661 0.42945 0.99382
USER: genes 2 Torsion [N]-C--CA-[N] |==|  0.43031
USER: genes 3 Torsion [C]-CA--CB-[CG] |==|  0.17230
USER: genes 4 Torsion [CA]-CB--CG-[CD] |==|  0.21508
USER: genes 5 Torsion [CB]-CG--CD-[NE] |==|  0.72388
USER: genes 6 Torsion [CG]-CD--NE-[HE] |==|  0.78517
USER: genes 7 Torsion [C]-CA--N-[C] |==|  0.70460
USER: genes 8 Torsion [N]-C--CA-[N] |==|  0.09029
USER: genes 9 Torsion [C]-CA--CB-[CG] |==|  0.38122
USER: genes 10 Torsion [CA]-CB--CG-[OD1] |==|  0.16129
USER: genes 11 Torsion [C]-CA--N-[H1] |==|  0.18691
USER: genes 12 Torsion [C]-N--CA-[CB] |==|  0.41697
USER: genes 13 Torsion [N]-CA--C-[N] |==|  0.44721
USER: genes 14 Torsion [C]-N--CA-[C] |==|  0.20289
USER: genes 15 Torsion [N]-CA--CB-[CG1] |==|  0.71573
USER: genes 16 Torsion [CA]-CB--CG1-[CD1] |==|  0.00121
USER: genes 17 Torsion [N]-CA--C-[N] |==|  0.43000
USER: genes 18 Torsion [C]-N--CA-[C] |==|  0.66561
USER: genes 19 Torsion [N]-CA--C-[O] |==|  0.94339
USER: genes 20 Torsion [N]-CA--CB-[CG] |==|  0.85098
USER: genes 21 Torsion [CA]-CB--CG-[CD1] |==|  0.44131
USER: genes 22 Torsion [N]-CA--CB-[CG] |==|  0.80965
USER: genes 23 Torsion [CA]-CB--CG-[CD1] |==|  0.48220
ROOT
ATOM      1  C   ARG B   2      57.045  86.304  28.242  1.00 25.54 LIG 0.24  C 
ATOM      2 O    ARG B   2      57.006  85.135  28.740  1.00 21.45 LIG-0.27  OA
ATOM      3  N   LEU B   3      56.979  87.389  28.997  1.00 32.00 LIG-0.35  N 
ATOM      4 H    LEU B   3      57.107  88.189  28.706  1.00 32.00 LIG 0.16  HD
ENDROOT
BRANCH 1 5
ATOM      5  CA  ARG B   2      57.139  86.540  26.741  1.00 29.44 LIG 0.18  C 
BRANCH 5 6
ATOM      6  CB  ARG B   2      55.713  86.766  26.147  1.00 37.02 LIG 0.04  C 
BRANCH 6 7
ATOM      7  CG  ARG B   2      55.001  87.996  26.709  1.00 39.92 LIG 0.02  C 
BRANCH 7 8
ATOM      8  CD  ARG B   2      55.549  89.275  26.064  1.00 40.77 LIG 0.14  C 
BRANCH 8 9
ATOM      9  NE  ARG B   2      56.508  89.833  27.030  1.00 48.07 LIG-0.23  N 
ATOM     10 HE   ARG B   2      56.166  90.246  27.703  1.00 48.07 LIG 0.18  HD
ATOM     11  CZ  ARG B   2      57.847  89.780  26.996  1.00 44.36 LIG 0.67  C 
ATOM     12  NH1 ARG B   2      58.507  90.351  28.020  1.00 36.12 LIG-0.23  N 
ATOM     13  NH2 ARG B   2      58.522  89.176  25.990  1.00 39.61 LIG-0.23  N 
ATOM     14 1HH1 ARG B   2      58.069  90.728  28.657  1.00 36.12 LIG 0.17  HD
ATOM     15 2HH1 ARG B   2      59.366  90.340  28.037  1.00 36.12 LIG 0.17  HD
ATOM     16 1HH2 ARG B   2      58.091  88.808  25.344  1.00 39.61 LIG 0.17  HD
ATOM     17 2HH2 ARG B   2      59.382  89.160  25.999  1.00 39.61 LIG 0.17  HD
ENDBRANCH 8 9
ENDBRANCH 7 8
ENDBRANCH 6 7
ENDBRANCH 5 6
BRANCH 5 18
ATOM     18  N   ARG B   2      57.786  85.401  26.063  1.00 32.37 LIG-0.35  N 
ATOM     19 H    ARG B   2      57.314  84.686  25.987  1.00 32.37 LIG 0.16  HD
ATOM     20  C   ASN B   1      59.021  85.564  25.631  1.00 31.22 LIG 0.25  C 
ATOM     21 O    ASN B   1      59.621  86.596  25.842  1.00 24.61 LIG-0.27  OA
BRANCH 20 22
ATOM     22  CA  ASN B   1      59.731  84.438  24.899  1.00 32.89 LIG 0.28  C 
BRANCH 22 23
ATOM     23  CB  ASN B   1      60.818  85.095  24.048  1.00 38.07 LIG 0.14  C 
BRANCH 23 24
ATOM     24  CG  ASN B   1      62.097  84.357  24.097  1.00 44.05 LIG 0.22  C 
ATOM     25  ND2 ASN B   1      63.128  85.029  24.539  1.00 47.62 LIG-0.37  N 
ATOM     26 21HD ASN B   1      63.895  84.646  24.604  1.00 47.62 LIG 0.16  HD
ATOM     27 22HD ASN B   1      63.040  85.853  24.766  1.00 47.62 LIG 0.16  HD
ATOM     28 OD1  ASN B   1      62.164  83.168  23.757  1.00 47.48 LIG-0.27  OA
ENDBRANCH 23 24
ENDBRANCH 22 23
BRANCH 22 29
ATOM     29  N   ASN B   1      58.899  83.529  24.058  1.00 44.58 LIG-0.07  N 
ATOM     30 H1   ASN B   1      58.577  83.980  23.362  1.00 44.58 LIG 0.28  HD
ATOM     31 H3   ASN B   1      58.224  83.210  24.543  1.00 44.58 LIG 0.28  HD
ATOM     32 H2   ASN B   1      59.399  82.853  23.767  1.00 44.58 LIG 0.28  HD
ENDBRANCH 22 29
ENDBRANCH 20 22
ENDBRANCH 5 18
ENDBRANCH 1 5
BRANCH 3 33
ATOM     33  CA  LEU B   3      56.676  87.302  30.417  1.00 27.74 LIG 0.18  C 
BRANCH 33 34
ATOM     34  C   LEU B   3      55.222  87.414  30.657  1.00 25.40 LIG 0.24  C 
ATOM     35 O    LEU B   3      54.479  87.890  29.809  1.00 26.81 LIG-0.27  OA
ATOM     36  N   ILE B   4      54.777  86.977  31.810  1.00 26.13 LIG-0.35  N 
ATOM     37 H    ILE B   4      55.252  86.557  32.391  1.00 26.13 LIG 0.16  HD
BRANCH 36 38
ATOM     38  CA  ILE B   4      53.451  87.181  32.169  1.00 24.17 LIG 0.18  C 
BRANCH 38 39
ATOM     39  CB  ILE B   4      53.176  88.691  32.004  1.00 29.09 LIG 0.01  C 
ATOM     40  CG2 ILE B   4      51.816  88.849  31.415  1.00 25.20 LIG 0.01  C 
BRANCH 39 41
ATOM     41  CG1 ILE B   4      53.173  89.438  33.331  1.00 28.67 LIG 0.00  C 
ATOM     42  CD1 ILE B   4      53.450  88.526  34.500  1.00 34.41 LIG 0.01  C 
ENDBRANCH 39 41
ENDBRANCH 38 39
BRANCH 38 43
ATOM     43  C   ILE B   4      52.492  86.281  31.383  1.00 29.58 LIG 0.24  C 
ATOM     44  N   LEU B   5      51.337  86.021  31.983  1.00 36.70 LIG-0.35  N 
ATOM     45 H    LEU B   5      51.161  86.234  32.796  1.00 36.70 LIG 0.16  HD
ATOM     46 O    ILE B   4      52.797  85.809  30.244  1.00 23.70 LIG-0.27  OA
BRANCH 44 47
ATOM     47  CA  LEU B   5      50.263  85.345  31.299  1.00 37.00 LIG 0.16  C 
BRANCH 47 48
ATOM     48  C   LEU B   5      48.995  86.221  31.254  1.00 42.59 LIG 0.22  C 
ATOM     49 O    LEU B   5      48.831  87.174  32.062  1.00 38.80 LIG-0.29  OA
ENDBRANCH 47 48
BRANCH 47 50
ATOM     50  CB  LEU B   5      49.972  84.049  32.045  1.00 50.59 LIG 0.04  C 
BRANCH 50 51
ATOM     51  CG  LEU B   5      51.164  83.138  32.269  1.00 50.85 LIG-0.02  C 
ATOM     52  CD1 LEU B   5      50.843  82.212  33.422  1.00 54.07 LIG 0.01  C 
ATOM     53  CD2 LEU B   5      51.382  82.362  30.976  1.00 54.33 LIG 0.01  C 
ENDBRANCH 50 51
ENDBRANCH 47 50
ENDBRANCH 44 47
ENDBRANCH 38 43
ENDBRANCH 36 38
ENDBRANCH 33 34
BRANCH 33 54
ATOM     54  CB  LEU B   3      57.360  88.453  31.117  1.00 34.11 LIG 0.04  C 
BRANCH 54 55
ATOM     55  CG  LEU B   3      58.830  88.212  31.055  1.00 35.49 LIG-0.02  C 
ATOM     56  CD1 LEU B   3      59.535  89.434  31.611  1.00 39.12 LIG 0.01  C 
ATOM     57  CD2 LEU B   3      59.018  87.024  31.963  1.00 34.32 LIG 0.01  C 
ENDBRANCH 54 55
ENDBRANCH 33 54
ENDBRANCH 3 33
TORSDOF 22
ENDMDL
MODEL 35
USER: ADFR SOLUTION from run 175
USER: SCORE 18.605732 LL:  -3.882 LR: -16.340 RR:   0.000 FEB:  -9.777
USER: RMSD 3.604516
USER: SEED 174
USER: STATUS no improvement in best in 15 clusters for 5 generations
USER: GENES 24
USER: genes 0 Translation |==|  0.56538 0.47830 0.41825
USER: genes 1 Rotation |==|  0.49583 0.45397 0.30241 0.95697
USER: genes 2 Torsion [N]-C--CA-[N] |==|  0.42990
USER: genes 3 Torsion [C]-CA--CB-[CG] |==|  0.49803
USER: genes 4 Torsion [CA]-CB--CG-[CD] |==|  0.78275
USER: genes 5 Torsion [CB]-CG--CD-[NE] |==|  0.93594
USER: genes 6 Torsion [CG]-CD--NE-[HE] |==|  0.19635
USER: genes 7 Torsion [C]-CA--N-[C] |==|  0.63446
USER: genes 8 Torsion [N]-C--CA-[N] |==|  0.25181
USER: genes 9 Torsion [C]-CA--CB-[CG] |==|  0.76929
USER: genes 10 Torsion [CA]-CB--CG-[OD1] |==|  0.75927
USER: genes 11 Torsion [C]-CA--N-[H1] |==|  0.37195
USER: genes 12 Torsion [C]-N--CA-[CB] |==|  0.45785
USER: genes 13 Torsion [N]-CA--C-[N] |==|  0.30879
USER: genes 14 Torsion [C]-N--CA-[C] |==|  0.71777
USER: genes 15 Torsion [N]-CA--CB-[CG1] |==|  0.20503
USER: genes 16 Torsion [CA]-CB--CG1-[CD1] |==|  0.37251
USER: genes 17 Torsion [N]-CA--C-[N] |==|  0.44750
USER: genes 18 Torsion [C]-N--CA-[C] |==|  0.84100
USER: genes 19 Torsion [N]-CA--C-[O] |==|  0.97758
USER: genes 20 Torsion [N]-CA--CB-[CG] |==|  0.91176
USER: genes 21 Torsion [CA]-CB--CG-[CD1] |==|  0.29929
USER: genes 22 Torsion [N]-CA--CB-[CG] |==|  0.67600
USER: genes 23 Torsion [CA]-CB--CG-[CD1] |==|  0.58805
ROOT
ATOM      1  C   ARG B   2      58.380  86.570  27.976  1.00 25.54 LIG 0.24  C 
ATOM      2 O    ARG B   2      57.732  85.597  28.475  1.00 21.45 LIG-0.27  OA
ATOM      3  N   LEU B   3      58.844  87.559  28.724  1.00 32.00 LIG-0.35  N 
ATOM      4 H    LEU B   3      59.372  88.175  28.437  1.00 32.00 LIG 0.16  HD
ENDROOT
BRANCH 1 5
ATOM      5  CA  ARG B   2      58.641  86.685  26.481  1.00 29.44 LIG 0.18  C 
BRANCH 5 6
ATOM      6  CB  ARG B   2      57.551  87.584  25.817  1.00 37.02 LIG 0.04  C 
BRANCH 6 7
ATOM      7  CG  ARG B   2      57.742  87.772  24.312  1.00 39.92 LIG 0.02  C 
BRANCH 7 8
ATOM      8  CD  ARG B   2      58.839  88.806  24.034  1.00 40.77 LIG 0.14  C 
BRANCH 8 9
ATOM      9  NE  ARG B   2      58.922  89.639  25.244  1.00 48.07 LIG-0.23  N 
ATOM     10 HE   ARG B   2      59.256  89.258  25.939  1.00 48.07 LIG 0.18  HD
ATOM     11  CZ  ARG B   2      58.543  90.915  25.400  1.00 44.36 LIG 0.67  C 
ATOM     12  NH1 ARG B   2      58.746  91.468  26.611  1.00 36.12 LIG-0.23  N 
ATOM     13  NH2 ARG B   2      57.989  91.634  24.397  1.00 39.61 LIG-0.23  N 
ATOM     14 1HH1 ARG B   2      59.104  91.005  27.241  1.00 36.12 LIG 0.17  HD
ATOM     15 2HH1 ARG B   2      58.518  92.284  26.754  1.00 36.12 LIG 0.17  HD
ATOM     16 1HH2 ARG B   2      57.869  91.275  23.625  1.00 39.61 LIG 0.17  HD
ATOM     17 2HH2 ARG B   2      57.757  92.452  24.531  1.00 39.61 LIG 0.17  HD
ENDBRANCH 8 9
ENDBRANCH 7 8
ENDBRANCH 6 7
ENDBRANCH 5 6
BRANCH 5 18
ATOM     18  N   ARG B   2      58.650  85.357  25.839  1.00 32.37 LIG-0.35  N 
ATOM     19 H    ARG B   2      57.992  84.838  26.030  1.00 32.37 LIG 0.16  HD
ATOM     20  C   ASN B   1      59.652  85.072  25.031  1.00 31.22 LIG 0.25  C 
ATOM     21 O    ASN B   1      60.565  85.855  24.875  1.00 24.61 LIG-0.27  OA
BRANCH 20 22
ATOM     22  CA  ASN B   1      59.703  83.732  24.318  1.00 32.89 LIG 0.28  C 
BRANCH 22 23
ATOM     23  CB  ASN B   1      61.181  83.346  24.229  1.00 38.07 LIG 0.14  C 
BRANCH 23 24
ATOM     24  CG  ASN B   1      61.862  83.981  23.083  1.00 44.05 LIG 0.22  C 
ATOM     25  ND2 ASN B   1      62.485  85.102  23.336  1.00 47.62 LIG-0.37  N 
ATOM     26 21HD ASN B   1      62.912  85.508  22.710  1.00 47.62 LIG 0.16  HD
ATOM     27 22HD ASN B   1      62.468  85.434  24.129  1.00 47.62 LIG 0.16  HD
ATOM     28 OD1  ASN B   1      61.852  83.456  21.960  1.00 47.48 LIG-0.27  OA
ENDBRANCH 23 24
ENDBRANCH 22 23
BRANCH 22 29
ATOM     29  N   ASN B   1      59.067  83.643  22.971  1.00 44.58 LIG-0.07  N 
ATOM     30 H1   ASN B   1      59.615  83.221  22.410  1.00 44.58 LIG 0.28  HD
ATOM     31 H3   ASN B   1      58.903  84.462  22.665  1.00 44.58 LIG 0.28  HD
ATOM     32 H2   ASN B   1      58.303  83.191  23.033  1.00 44.58 LIG 0.28  HD
ENDBRANCH 22 29
ENDBRANCH 20 22
ENDBRANCH 5 18
ENDBRANCH 1 5
BRANCH 3 33
ATOM     33  CA  LEU B   3      58.482  87.677  30.128  1.00 27.74 LIG 0.18  C 
BRANCH 33 34
ATOM     34  C   LEU B   3      57.109  88.206  30.279  1.00 25.40 LIG 0.24  C 
ATOM     35 O    LEU B   3      56.845  89.363  29.978  1.00 26.81 LIG-0.27  OA
ATOM     36  N   ILE B   4      56.204  87.380  30.742  1.00 26.13 LIG-0.35  N 
ATOM     37 H    ILE B   4      56.332  86.540  30.879  1.00 26.13 LIG 0.16  HD
BRANCH 36 38
ATOM     38  CA  ILE B   4      54.931  87.841  31.051  1.00 24.17 LIG 0.18  C 
BRANCH 38 39
ATOM     39  CB  ILE B   4      53.935  86.848  30.416  1.00 29.09 LIG 0.01  C 
ATOM     40  CG2 ILE B   4      54.411  86.538  29.038  1.00 25.20 LIG 0.01  C 
BRANCH 39 41
ATOM     41  CG1 ILE B   4      53.862  85.525  31.166  1.00 28.67 LIG 0.00  C 
ATOM     42  CD1 ILE B   4      52.440  85.072  31.389  1.00 34.41 LIG 0.01  C 
ENDBRANCH 39 41
ENDBRANCH 38 39
BRANCH 38 43
ATOM     43  C   ILE B   4      54.738  88.045  32.558  1.00 29.58 LIG 0.24  C 
ATOM     44  N   LEU B   5      53.726  88.832  32.899  1.00 36.70 LIG-0.35  N 
ATOM     45 H    LEU B   5      53.269  89.296  32.338  1.00 36.70 LIG 0.16  HD
ATOM     46 O    ILE B   4      55.507  87.505  33.412  1.00 23.70 LIG-0.27  OA
BRANCH 44 47
ATOM     47  CA  LEU B   5      53.304  88.974  34.270  1.00 37.00 LIG 0.16  C 
BRANCH 47 48
ATOM     48  C   LEU B   5      52.931  87.609  34.881  1.00 42.59 LIG 0.22  C 
ATOM     49 O    LEU B   5      52.866  86.571  34.170  1.00 38.80 LIG-0.29  OA
ENDBRANCH 47 48
BRANCH 47 50
ATOM     50  CB  LEU B   5      52.096  89.902  34.298  1.00 50.59 LIG 0.04  C 
BRANCH 50 51
ATOM     51  CG  LEU B   5      52.071  90.979  33.229  1.00 50.85 LIG-0.02  C 
ATOM     52  CD1 LEU B   5      51.011  90.614  32.213  1.00 54.07 LIG 0.01  C 
ATOM     53  CD2 LEU B   5      51.744  92.294  33.928  1.00 54.33 LIG 0.01  C 
ENDBRANCH 50 51
ENDBRANCH 47 50
ENDBRANCH 44 47
ENDBRANCH 38 43
ENDBRANCH 36 38
ENDBRANCH 33 34
BRANCH 33 54
ATOM     54  CB  LEU B   3      59.437  88.646  30.782  1.00 34.11 LIG 0.04  C 
BRANCH 54 55
ATOM     55  CG  LEU B   3      60.205  87.896  31.817  1.00 35.49 LIG-0.02  C 
ATOM     56  CD1 LEU B   3      60.535  88.851  32.948  1.00 39.12 LIG 0.01  C 
ATOM     57  CD2 LEU B   3      59.225  86.844  32.271  1.00 34.32 LIG 0.01  C 
ENDBRANCH 54 55
ENDBRANCH 33 54
ENDBRANCH 3 33
TORSDOF 22
ENDMDL
MODEL 36
USER: ADFR SOLUTION from run 143
USER: SCORE 19.204684 LL:  -3.490 LR: -16.329 RR:   0.000 FEB:  -9.766
USER: RMSD 3.215737
USER: SEED 142
USER: STATUS no improvement in best in 8 clusters for 5 generations
USER: GENES 24
USER: genes 0 Translation |==|  0.53632 0.57214 0.39401
USER: genes 1 Rotation |==|  0.58866 0.51091 0.21286 0.89946
USER: genes 2 Torsion [N]-C--CA-[N] |==|  0.35005
USER: genes 3 Torsion [C]-CA--CB-[CG] |==|  0.74708
USER: genes 4 Torsion [CA]-CB--CG-[CD] |==|  0.38535
USER: genes 5 Torsion [CB]-CG--CD-[NE] |==|  0.31737
USER: genes 6 Torsion [CG]-CD--NE-[HE] |==|  0.78121
USER: genes 7 Torsion [C]-CA--N-[C] |==|  0.85979
USER: genes 8 Torsion [N]-C--CA-[N] |==|  0.30662
USER: genes 9 Torsion [C]-CA--CB-[CG] |==|  0.20615
USER: genes 10 Torsion [CA]-CB--CG-[OD1] |==|  0.27176
USER: genes 11 Torsion [C]-CA--N-[H1] |==|  0.79995
USER: genes 12 Torsion [C]-N--CA-[CB] |==|  0.53890
USER: genes 13 Torsion [N]-CA--C-[N] |==|  0.37931
USER: genes 14 Torsion [C]-N--CA-[C] |==|  0.70379
USER: genes 15 Torsion [N]-CA--CB-[CG1] |==|  0.23044
USER: genes 16 Torsion [CA]-CB--CG1-[CD1] |==|  0.34890
USER: genes 17 Torsion [N]-CA--C-[N] |==|  0.42194
USER: genes 18 Torsion [C]-N--CA-[C] |==|  0.81704
USER: genes 19 Torsion [N]-CA--C-[O] |==|  0.22571
USER: genes 20 Torsion [N]-CA--CB-[CG] |==|  0.76167
USER: genes 21 Torsion [CA]-CB--CG-[CD1] |==|  0.42463
USER: genes 22 Torsion [N]-CA--CB-[CG] |==|  0.67571
USER: genes 23 Torsion [CA]-CB--CG-[CD1] |==|  0.54187
ROOT
ATOM      1  C   ARG B   2      57.770  88.330  27.449  1.00 25.54 LIG 0.24  C 
ATOM      2 O    ARG B   2      56.778  87.542  27.555  1.00 21.45 LIG-0.27  OA
ATOM      3  N   LEU B   3      58.532  88.640  28.486  1.00 32.00 LIG-0.35  N 
ATOM      4 H    LEU B   3      59.267  89.083  28.430  1.00 32.00 LIG 0.16  HD
ENDROOT
BRANCH 1 5
ATOM      5  CA  ARG B   2      58.134  88.997  26.130  1.00 29.44 LIG 0.18  C 
BRANCH 5 6
ATOM      6  CB  ARG B   2      57.015  90.003  25.715  1.00 37.02 LIG 0.04  C 
BRANCH 6 7
ATOM      7  CG  ARG B   2      55.930  89.386  24.832  1.00 39.92 LIG 0.02  C 
BRANCH 7 8
ATOM      8  CD  ARG B   2      54.544  89.887  25.255  1.00 40.77 LIG 0.14  C 
BRANCH 8 9
ATOM      9  NE  ARG B   2      54.043  90.684  24.125  1.00 48.07 LIG-0.23  N 
ATOM     10 HE   ARG B   2      54.359  91.482  24.060  1.00 48.07 LIG 0.18  HD
ATOM     11  CZ  ARG B   2      53.158  90.326  23.184  1.00 44.36 LIG 0.67  C 
ATOM     12  NH1 ARG B   2      52.878  91.236  22.232  1.00 36.12 LIG-0.23  N 
ATOM     13  NH2 ARG B   2      52.570  89.108  23.169  1.00 39.61 LIG-0.23  N 
ATOM     14 1HH1 ARG B   2      53.261  92.006  22.247  1.00 36.12 LIG 0.17  HD
ATOM     15 2HH1 ARG B   2      52.316  91.048  21.610  1.00 36.12 LIG 0.17  HD
ATOM     16 1HH2 ARG B   2      52.760  88.531  23.778  1.00 39.61 LIG 0.17  HD
ATOM     17 2HH2 ARG B   2      52.006  88.910  22.551  1.00 39.61 LIG 0.17  HD
ENDBRANCH 8 9
ENDBRANCH 7 8
ENDBRANCH 6 7
ENDBRANCH 5 6
BRANCH 5 18
ATOM     18  N   ARG B   2      58.326  87.997  25.063  1.00 32.37 LIG-0.35  N 
ATOM     19 H    ARG B   2      57.900  88.137  24.329  1.00 32.37 LIG 0.16  HD
ATOM     20  C   ASN B   1      59.125  86.978  25.313  1.00 31.22 LIG 0.25  C 
ATOM     21 O    ASN B   1      59.632  86.841  26.405  1.00 24.61 LIG-0.27  OA
BRANCH 20 22
ATOM     22  CA  ASN B   1      59.385  85.930  24.244  1.00 32.89 LIG 0.28  C 
BRANCH 22 23
ATOM     23  CB  ASN B   1      59.045  84.579  24.874  1.00 38.07 LIG 0.14  C 
BRANCH 23 24
ATOM     24  CG  ASN B   1      57.589  84.367  25.006  1.00 44.05 LIG 0.22  C 
ATOM     25  ND2 ASN B   1      57.020  84.935  26.037  1.00 47.62 LIG-0.37  N 
ATOM     26 21HD ASN B   1      56.172  84.858  26.156  1.00 47.62 LIG 0.16  HD
ATOM     27 22HD ASN B   1      57.493  85.385  26.596  1.00 47.62 LIG 0.16  HD
ATOM     28 OD1  ASN B   1      56.959  83.708  24.167  1.00 47.48 LIG-0.27  OA
ENDBRANCH 23 24
ENDBRANCH 22 23
BRANCH 22 29
ATOM     29  N   ASN B   1      60.748  85.886  23.639  1.00 44.58 LIG-0.07  N 
ATOM     30 H1   ASN B   1      60.860  86.590  23.106  1.00 44.58 LIG 0.28  HD
ATOM     31 H3   ASN B   1      60.839  85.138  23.164  1.00 44.58 LIG 0.28  HD
ATOM     32 H2   ASN B   1      61.361  85.904  24.284  1.00 44.58 LIG 0.28  HD
ENDBRANCH 22 29
ENDBRANCH 20 22
ENDBRANCH 5 18
ENDBRANCH 1 5
BRANCH 3 33
ATOM     33  CA  LEU B   3      58.166  88.239  29.836  1.00 27.74 LIG 0.18  C 
BRANCH 33 34
ATOM     34  C   LEU B   3      56.747  88.550  30.115  1.00 25.40 LIG 0.24  C 
ATOM     35 O    LEU B   3      56.258  89.619  29.774  1.00 26.81 LIG-0.27  OA
ATOM     36  N   ILE B   4      56.051  87.629  30.736  1.00 26.13 LIG-0.35  N 
ATOM     37 H    ILE B   4      56.335  86.836  30.911  1.00 26.13 LIG 0.16  HD
BRANCH 36 38
ATOM     38  CA  ILE B   4      54.758  87.902  31.165  1.00 24.17 LIG 0.18  C 
BRANCH 38 39
ATOM     39  CB  ILE B   4      53.862  86.775  30.609  1.00 29.09 LIG 0.01  C 
ATOM     40  CG2 ILE B   4      54.394  86.382  29.272  1.00 25.20 LIG 0.01  C 
BRANCH 39 41
ATOM     41  CG1 ILE B   4      53.882  85.524  31.476  1.00 28.67 LIG 0.00  C 
ATOM     42  CD1 ILE B   4      52.495  85.094  31.888  1.00 34.41 LIG 0.01  C 
ENDBRANCH 39 41
ENDBRANCH 38 39
BRANCH 38 43
ATOM     43  C   ILE B   4      54.676  88.075  32.685  1.00 29.58 LIG 0.24  C 
ATOM     44  N   LEU B   5      53.702  88.869  33.113  1.00 36.70 LIG-0.35  N 
ATOM     45 H    LEU B   5      53.213  89.350  32.595  1.00 36.70 LIG 0.16  HD
ATOM     46 O    ILE B   4      55.496  87.508  33.470  1.00 23.70 LIG-0.27  OA
BRANCH 44 47
ATOM     47  CA  LEU B   5      53.380  88.987  34.514  1.00 37.00 LIG 0.16  C 
BRANCH 47 48
ATOM     48  C   LEU B   5      52.827  87.661  35.071  1.00 42.59 LIG 0.22  C 
ATOM     49 O    LEU B   5      53.598  86.724  35.412  1.00 38.80 LIG-0.29  OA
ENDBRANCH 47 48
BRANCH 47 50
ATOM     50  CB  LEU B   5      52.340  90.089  34.666  1.00 50.59 LIG 0.04  C 
BRANCH 50 51
ATOM     51  CG  LEU B   5      52.887  91.499  34.784  1.00 50.85 LIG-0.02  C 
ATOM     52  CD1 LEU B   5      51.840  92.459  34.263  1.00 54.07 LIG 0.01  C 
ATOM     53  CD2 LEU B   5      53.182  91.742  36.259  1.00 54.33 LIG 0.01  C 
ENDBRANCH 50 51
ENDBRANCH 47 50
ENDBRANCH 44 47
ENDBRANCH 38 43
ENDBRANCH 36 38
ENDBRANCH 33 34
BRANCH 33 54
ATOM     54  CB  LEU B   3      59.020  89.019  30.807  1.00 34.11 LIG 0.04  C 
BRANCH 54 55
ATOM     55  CG  LEU B   3      59.864  88.043  31.553  1.00 35.49 LIG-0.02  C 
ATOM     56  CD1 LEU B   3      60.440  88.744  32.768  1.00 39.12 LIG 0.01  C 
ATOM     57  CD2 LEU B   3      58.873  86.983  31.965  1.00 34.32 LIG 0.01  C 
ENDBRANCH 54 55
ENDBRANCH 33 54
ENDBRANCH 3 33
TORSDOF 22
ENDMDL
MODEL 37
USER: ADFR SOLUTION from run 48
USER: SCORE 18.253647 LL:  -3.316 LR: -16.316 RR:   0.000 FEB:  -9.753
USER: RMSD 2.140666
USER: SEED 47
USER: STATUS no improvement in best in 25 clusters for 5 generations
USER: GENES 24
USER: genes 0 Translation |==|  0.52784 0.47378 0.41311
USER: genes 1 Rotation |==|  0.48927 0.55046 0.52484 0.99671
USER: genes 2 Torsion [N]-C--CA-[N] |==|  0.43164
USER: genes 3 Torsion [C]-CA--CB-[CG] |==|  0.49514
USER: genes 4 Torsion [CA]-CB--CG-[CD] |==|  0.42601
USER: genes 5 Torsion [CB]-CG--CD-[NE] |==|  0.71805
USER: genes 6 Torsion [CG]-CD--NE-[HE] |==|  0.97232
USER: genes 7 Torsion [C]-CA--N-[C] |==|  0.79828
USER: genes 8 Torsion [N]-C--CA-[N] |==|  0.51464
USER: genes 9 Torsion [C]-CA--CB-[CG] |==|  0.50643
USER: genes 10 Torsion [CA]-CB--CG-[OD1] |==|  0.93110
USER: genes 11 Torsion [C]-CA--N-[H1] |==|  0.37614
USER: genes 12 Torsion [C]-N--CA-[CB] |==|  0.27074
USER: genes 13 Torsion [N]-CA--C-[N] |==|  0.32644
USER: genes 14 Torsion [C]-N--CA-[C] |==|  0.58341
USER: genes 15 Torsion [N]-CA--CB-[CG1] |==|  0.44549
USER: genes 16 Torsion [CA]-CB--CG1-[CD1] |==|  0.54848
USER: genes 17 Torsion [N]-CA--C-[N] |==|  0.42185
USER: genes 18 Torsion [C]-N--CA-[C] |==|  0.87727
USER: genes 19 Torsion [N]-CA--C-[O] |==|  0.29282
USER: genes 20 Torsion [N]-CA--CB-[CG] |==|  0.87601
USER: genes 21 Torsion [CA]-CB--CG-[CD1] |==|  0.31819
USER: genes 22 Torsion [N]-CA--CB-[CG] |==|  0.47643
USER: genes 23 Torsion [CA]-CB--CG-[CD1] |==|  0.27805
ROOT
ATOM      1  C   ARG B   2      57.592  86.485  27.864  1.00 25.54 LIG 0.24  C 
ATOM      2 O    ARG B   2      58.152  85.443  28.328  1.00 21.45 LIG-0.27  OA
ATOM      3  N   LEU B   3      57.367  87.552  28.616  1.00 32.00 LIG-0.35  N 
ATOM      4 H    LEU B   3      57.087  88.307  28.312  1.00 32.00 LIG 0.16  HD
ENDROOT
BRANCH 1 5
ATOM      5  CA  ARG B   2      57.110  86.571  26.422  1.00 29.44 LIG 0.18  C 
BRANCH 5 6
ATOM      6  CB  ARG B   2      55.592  86.217  26.346  1.00 37.02 LIG 0.04  C 
BRANCH 6 7
ATOM      7  CG  ARG B   2      55.007  86.317  24.937  1.00 39.92 LIG 0.02  C 
BRANCH 7 8
ATOM      8  CD  ARG B   2      53.803  85.380  24.787  1.00 40.77 LIG 0.14  C 
BRANCH 8 9
ATOM      9  NE  ARG B   2      54.299  84.203  24.057  1.00 48.07 LIG-0.23  N 
ATOM     10 HE   ARG B   2      55.090  84.273  23.725  1.00 48.07 LIG 0.18  HD
ATOM     11  CZ  ARG B   2      53.676  83.035  23.844  1.00 44.36 LIG 0.67  C 
ATOM     12  NH1 ARG B   2      54.356  82.097  23.160  1.00 36.12 LIG-0.23  N 
ATOM     13  NH2 ARG B   2      52.424  82.789  24.295  1.00 39.61 LIG-0.23  N 
ATOM     14 1HH1 ARG B   2      55.154  82.260  22.882  1.00 36.12 LIG 0.17  HD
ATOM     15 2HH1 ARG B   2      53.994  81.333  23.001  1.00 36.12 LIG 0.17  HD
ATOM     16 1HH2 ARG B   2      52.000  83.393  24.736  1.00 39.61 LIG 0.17  HD
ATOM     17 2HH2 ARG B   2      52.053  82.029  24.140  1.00 39.61 LIG 0.17  HD
ENDBRANCH 8 9
ENDBRANCH 7 8
ENDBRANCH 6 7
ENDBRANCH 5 6
BRANCH 5 18
ATOM     18  N   ARG B   2      57.878  85.663  25.550  1.00 32.37 LIG-0.35  N 
ATOM     19 H    ARG B   2      57.465  84.961  25.275  1.00 32.37 LIG 0.16  HD
ATOM     20  C   ASN B   1      59.122  85.993  25.264  1.00 31.22 LIG 0.25  C 
ATOM     21 O    ASN B   1      59.632  86.977  25.755  1.00 24.61 LIG-0.27  OA
BRANCH 20 22
ATOM     22  CA  ASN B   1      59.956  85.114  24.348  1.00 32.89 LIG 0.28  C 
BRANCH 22 23
ATOM     23  CB  ASN B   1      59.841  83.690  24.895  1.00 38.07 LIG 0.14  C 
BRANCH 23 24
ATOM     24  CG  ASN B   1      60.652  82.723  24.129  1.00 44.05 LIG 0.22  C 
ATOM     25  ND2 ASN B   1      61.000  81.636  24.766  1.00 47.62 LIG-0.37  N 
ATOM     26 21HD ASN B   1      61.460  81.031  24.364  1.00 47.62 LIG 0.16  HD
ATOM     27 22HD ASN B   1      60.769  81.525  25.586  1.00 47.62 LIG 0.16  HD
ATOM     28 OD1  ASN B   1      60.957  82.936  22.947  1.00 47.48 LIG-0.27  OA
ENDBRANCH 23 24
ENDBRANCH 22 23
BRANCH 22 29
ATOM     29  N   ASN B   1      61.391  85.477  24.161  1.00 44.58 LIG-0.07  N 
ATOM     30 H1   ASN B   1      61.893  84.744  24.215  1.00 44.58 LIG 0.28  HD
ATOM     31 H3   ASN B   1      61.637  86.052  24.794  1.00 44.58 LIG 0.28  HD
ATOM     32 H2   ASN B   1      61.500  85.852  23.361  1.00 44.58 LIG 0.28  HD
ENDBRANCH 22 29
ENDBRANCH 20 22
ENDBRANCH 5 18
ENDBRANCH 1 5
BRANCH 3 33
ATOM     33  CA  LEU B   3      57.584  87.520  30.054  1.00 27.74 LIG 0.18  C 
BRANCH 33 34
ATOM     34  C   LEU B   3      56.573  88.333  30.761  1.00 25.40 LIG 0.24  C 
ATOM     35 O    LEU B   3      56.487  89.539  30.568  1.00 26.81 LIG-0.27  OA
ATOM     36  N   ILE B   4      55.781  87.700  31.592  1.00 26.13 LIG-0.35  N 
ATOM     37 H    ILE B   4      55.752  86.846  31.686  1.00 26.13 LIG 0.16  HD
BRANCH 36 38
ATOM     38  CA  ILE B   4      54.906  88.413  32.403  1.00 24.17 LIG 0.18  C 
BRANCH 38 39
ATOM     39  CB  ILE B   4      53.643  88.683  31.558  1.00 29.09 LIG 0.01  C 
ATOM     40  CG2 ILE B   4      53.315  87.436  30.809  1.00 25.20 LIG 0.01  C 
BRANCH 39 41
ATOM     41  CG1 ILE B   4      52.426  89.021  32.408  1.00 28.67 LIG 0.00  C 
ATOM     42  CD1 ILE B   4      51.135  88.870  31.641  1.00 34.41 LIG 0.01  C 
ENDBRANCH 39 41
ENDBRANCH 38 39
BRANCH 38 43
ATOM     43  C   ILE B   4      54.631  87.697  33.729  1.00 29.58 LIG 0.24  C 
ATOM     44  N   LEU B   5      54.325  88.489  34.749  1.00 36.70 LIG-0.35  N 
ATOM     45 H    LEU B   5      54.381  89.346  34.723  1.00 36.70 LIG 0.16  HD
ATOM     46 O    ILE B   4      54.707  86.434  33.838  1.00 23.70 LIG-0.27  OA
BRANCH 44 47
ATOM     47  CA  LEU B   5      53.863  87.961  36.008  1.00 37.00 LIG 0.16  C 
BRANCH 47 48
ATOM     48  C   LEU B   5      52.813  86.852  35.794  1.00 42.59 LIG 0.22  C 
ATOM     49 O    LEU B   5      53.102  85.637  35.966  1.00 38.80 LIG-0.29  OA
ENDBRANCH 47 48
BRANCH 47 50
ATOM     50  CB  LEU B   5      53.253  89.106  36.804  1.00 50.59 LIG 0.04  C 
BRANCH 50 51
ATOM     51  CG  LEU B   5      54.048  90.398  36.811  1.00 50.85 LIG-0.02  C 
ATOM     52  CD1 LEU B   5      53.240  91.456  36.091  1.00 54.07 LIG 0.01  C 
ATOM     53  CD2 LEU B   5      54.280  90.772  38.270  1.00 54.33 LIG 0.01  C 
ENDBRANCH 50 51
ENDBRANCH 47 50
ENDBRANCH 44 47
ENDBRANCH 38 43
ENDBRANCH 36 38
ENDBRANCH 33 34
BRANCH 33 54
ATOM     54  CB  LEU B   3      58.946  88.109  30.338  1.00 34.11 LIG 0.04  C 
BRANCH 54 55
ATOM     55  CG  LEU B   3      59.074  88.263  31.815  1.00 35.49 LIG-0.02  C 
ATOM     56  CD1 LEU B   3      59.892  87.102  32.345  1.00 39.12 LIG 0.01  C 
ATOM     57  CD2 LEU B   3      59.829  89.561  31.956  1.00 34.32 LIG 0.01  C 
ENDBRANCH 54 55
ENDBRANCH 33 54
ENDBRANCH 3 33
TORSDOF 22
ENDMDL
MODEL 38
USER: ADFR SOLUTION from run 22
USER: SCORE 18.206952 LL:  -3.117 LR: -16.291 RR:   0.000 FEB:  -9.728
USER: RMSD 4.858219
USER: SEED 21
USER: STATUS no improvement in best in 23 clusters for 5 generations
USER: GENES 24
USER: genes 0 Translation |==|  0.48114 0.60407 0.38557
USER: genes 1 Rotation |==|  0.62902 0.50538 0.67904 0.94863
USER: genes 2 Torsion [N]-C--CA-[N] |==|  0.46676
USER: genes 3 Torsion [C]-CA--CB-[CG] |==|  0.40845
USER: genes 4 Torsion [CA]-CB--CG-[CD] |==|  0.32206
USER: genes 5 Torsion [CB]-CG--CD-[NE] |==|  0.61854
USER: genes 6 Torsion [CG]-CD--NE-[HE] |==|  0.09870
USER: genes 7 Torsion [C]-CA--N-[C] |==|  0.76064
USER: genes 8 Torsion [N]-C--CA-[N] |==|  0.01634
USER: genes 9 Torsion [C]-CA--CB-[CG] |==|  0.60568
USER: genes 10 Torsion [CA]-CB--CG-[OD1] |==|  0.86617
USER: genes 11 Torsion [C]-CA--N-[H1] |==|  0.52432
USER: genes 12 Torsion [C]-N--CA-[CB] |==|  0.25413
USER: genes 13 Torsion [N]-CA--C-[N] |==|  0.40343
USER: genes 14 Torsion [C]-N--CA-[C] |==|  0.76453
USER: genes 15 Torsion [N]-CA--CB-[CG1] |==|  0.67857
USER: genes 16 Torsion [CA]-CB--CG1-[CD1] |==|  0.56079
USER: genes 17 Torsion [N]-CA--C-[N] |==|  0.46432
USER: genes 18 Torsion [C]-N--CA-[C] |==|  0.18545
USER: genes 19 Torsion [N]-CA--C-[O] |==|  0.62299
USER: genes 20 Torsion [N]-CA--CB-[CG] |==|  0.62427
USER: genes 21 Torsion [CA]-CB--CG-[CD1] |==|  0.26769
USER: genes 22 Torsion [N]-CA--CB-[CG] |==|  0.71111
USER: genes 23 Torsion [CA]-CB--CG-[CD1] |==|  0.36268
ROOT
ATOM      1  C   ARG B   2      56.611  88.928  27.265  1.00 25.54 LIG 0.24  C 
ATOM      2 O    ARG B   2      57.685  88.249  27.244  1.00 21.45 LIG-0.27  OA
ATOM      3  N   LEU B   3      55.887  89.059  28.366  1.00 32.00 LIG-0.35  N 
ATOM      4 H    LEU B   3      55.217  89.592  28.443  1.00 32.00 LIG 0.16  HD
ENDROOT
BRANCH 1 5
ATOM      5  CA  ARG B   2      56.063  89.614  26.021  1.00 29.44 LIG 0.18  C 
BRANCH 5 6
ATOM      6  CB  ARG B   2      54.784  88.870  25.523  1.00 37.02 LIG 0.04  C 
BRANCH 6 7
ATOM      7  CG  ARG B   2      53.748  89.792  24.880  1.00 39.92 LIG 0.02  C 
BRANCH 7 8
ATOM      8  CD  ARG B   2      53.563  89.442  23.399  1.00 40.77 LIG 0.14  C 
BRANCH 8 9
ATOM      9  NE  ARG B   2      53.503  90.727  22.686  1.00 48.07 LIG-0.23  N 
ATOM     10 HE   ARG B   2      54.007  91.352  22.997  1.00 48.07 LIG 0.18  HD
ATOM     11  CZ  ARG B   2      52.765  91.049  21.615  1.00 44.36 LIG 0.67  C 
ATOM     12  NH1 ARG B   2      52.906  92.296  21.129  1.00 36.12 LIG-0.23  N 
ATOM     13  NH2 ARG B   2      51.917  90.171  21.029  1.00 39.61 LIG-0.23  N 
ATOM     14 1HH1 ARG B   2      53.451  92.845  21.504  1.00 36.12 LIG 0.17  HD
ATOM     15 2HH1 ARG B   2      52.451  92.543  20.442  1.00 36.12 LIG 0.17  HD
ATOM     16 1HH2 ARG B   2      51.839  89.375  21.343  1.00 39.61 LIG 0.17  HD
ATOM     17 2HH2 ARG B   2      51.458  90.410  20.343  1.00 39.61 LIG 0.17  HD
ENDBRANCH 8 9
ENDBRANCH 7 8
ENDBRANCH 6 7
ENDBRANCH 5 6
BRANCH 5 18
ATOM     18  N   ARG B   2      57.070  89.647  24.945  1.00 32.37 LIG-0.35  N 
ATOM     19 H    ARG B   2      57.040  89.003  24.376  1.00 32.37 LIG 0.16  HD
ATOM     20  C   ASN B   1      57.928  90.649  24.937  1.00 31.22 LIG 0.25  C 
ATOM     21 O    ASN B   1      57.923  91.476  25.823  1.00 24.61 LIG-0.27  OA
BRANCH 20 22
ATOM     22  CA  ASN B   1      58.971  90.754  23.838  1.00 32.89 LIG 0.28  C 
BRANCH 22 23
ATOM     23  CB  ASN B   1      58.882  92.181  23.294  1.00 38.07 LIG 0.14  C 
BRANCH 23 24
ATOM     24  CG  ASN B   1      59.067  92.240  21.830  1.00 44.05 LIG 0.22  C 
ATOM     25  ND2 ASN B   1      58.199  92.963  21.172  1.00 47.62 LIG-0.37  N 
ATOM     26 21HD ASN B   1      58.267  93.045  20.319  1.00 47.62 LIG 0.16  HD
ATOM     27 22HD ASN B   1      57.560  93.356  21.592  1.00 47.62 LIG 0.16  HD
ATOM     28 OD1  ASN B   1      60.008  91.651  21.279  1.00 47.48 LIG-0.27  OA
ENDBRANCH 23 24
ENDBRANCH 22 23
BRANCH 22 29
ATOM     29  N   ASN B   1      58.895  89.772  22.718  1.00 44.58 LIG-0.07  N 
ATOM     30 H1   ASN B   1      59.621  89.846  22.207  1.00 44.58 LIG 0.28  HD
ATOM     31 H3   ASN B   1      58.170  89.935  22.228  1.00 44.58 LIG 0.28  HD
ATOM     32 H2   ASN B   1      58.850  88.946  23.049  1.00 44.58 LIG 0.28  HD
ENDBRANCH 22 29
ENDBRANCH 20 22
ENDBRANCH 5 18
ENDBRANCH 1 5
BRANCH 3 33
ATOM     33  CA  LEU B   3      56.187  88.284  29.561  1.00 27.74 LIG 0.18  C 
BRANCH 33 34
ATOM     34  C   LEU B   3      54.960  88.023  30.344  1.00 25.40 LIG 0.24  C 
ATOM     35 O    LEU B   3      54.060  88.851  30.398  1.00 26.81 LIG-0.27  OA
ATOM     36  N   ILE B   4      54.889  86.871  30.966  1.00 26.13 LIG-0.35  N 
ATOM     37 H    ILE B   4      55.459  86.232  30.879  1.00 26.13 LIG 0.16  HD
BRANCH 36 38
ATOM     38  CA  ILE B   4      53.840  86.612  31.839  1.00 24.17 LIG 0.18  C 
BRANCH 38 39
ATOM     39  CB  ILE B   4      53.585  85.091  31.784  1.00 29.09 LIG 0.01  C 
ATOM     40  CG2 ILE B   4      53.632  84.567  33.179  1.00 25.20 LIG 0.01  C 
BRANCH 39 41
ATOM     41  CG1 ILE B   4      52.212  84.743  31.227  1.00 28.67 LIG 0.00  C 
ATOM     42  CD1 ILE B   4      51.757  83.368  31.648  1.00 34.41 LIG 0.01  C 
ENDBRANCH 39 41
ENDBRANCH 38 39
BRANCH 38 43
ATOM     43  C   ILE B   4      54.112  87.152  33.247  1.00 29.58 LIG 0.24  C 
ATOM     44  N   LEU B   5      53.060  87.180  34.056  1.00 36.70 LIG-0.35  N 
ATOM     45 H    LEU B   5      52.255  87.021  33.801  1.00 36.70 LIG 0.16  HD
ATOM     46 O    ILE B   4      55.262  87.555  33.601  1.00 23.70 LIG-0.27  OA
BRANCH 44 47
ATOM     47  CA  LEU B   5      53.190  87.486  35.459  1.00 37.00 LIG 0.16  C 
BRANCH 47 48
ATOM     48  C   LEU B   5      53.632  88.947  35.671  1.00 42.59 LIG 0.22  C 
ATOM     49 O    LEU B   5      54.529  89.244  36.504  1.00 38.80 LIG-0.29  OA
ENDBRANCH 47 48
BRANCH 47 50
ATOM     50  CB  LEU B   5      54.225  86.539  36.053  1.00 50.59 LIG 0.04  C 
BRANCH 50 51
ATOM     51  CG  LEU B   5      53.853  85.910  37.383  1.00 50.85 LIG-0.02  C 
ATOM     52  CD1 LEU B   5      53.269  84.540  37.112  1.00 54.07 LIG 0.01  C 
ATOM     53  CD2 LEU B   5      55.132  85.818  38.206  1.00 54.33 LIG 0.01  C 
ENDBRANCH 50 51
ENDBRANCH 47 50
ENDBRANCH 44 47
ENDBRANCH 38 43
ENDBRANCH 36 38
ENDBRANCH 33 34
BRANCH 33 54
ATOM     54  CB  LEU B   3      57.133  89.089  30.420  1.00 34.11 LIG 0.04  C 
BRANCH 54 55
ATOM     55  CG  LEU B   3      58.495  88.500  30.267  1.00 35.49 LIG-0.02  C 
ATOM     56  CD1 LEU B   3      59.467  89.623  29.966  1.00 39.12 LIG 0.01  C 
ATOM     57  CD2 LEU B   3      58.763  87.908  31.628  1.00 34.32 LIG 0.01  C 
ENDBRANCH 54 55
ENDBRANCH 33 54
ENDBRANCH 3 33
TORSDOF 22
ENDMDL
MODEL 39
USER: ADFR SOLUTION from run 82
USER: SCORE 18.381960 LL:  -4.043 LR: -16.283 RR:   0.000 FEB:  -9.721
USER: RMSD 4.711278
USER: SEED 81
USER: STATUS no improvement in best in 10 clusters for 5 generations
USER: GENES 24
USER: genes 0 Translation |==|  0.52265 0.45397 0.40285
USER: genes 1 Rotation |==|  0.47455 0.49334 0.32317 0.96695
USER: genes 2 Torsion [N]-C--CA-[N] |==|  0.77643
USER: genes 3 Torsion [C]-CA--CB-[CG] |==|  0.56439
USER: genes 4 Torsion [CA]-CB--CG-[CD] |==|  0.24188
USER: genes 5 Torsion [CB]-CG--CD-[NE] |==|  0.06646
USER: genes 6 Torsion [CG]-CD--NE-[HE] |==|  0.13265
USER: genes 7 Torsion [C]-CA--N-[C] |==|  0.70710
USER: genes 8 Torsion [N]-C--CA-[N] |==|  0.62370
USER: genes 9 Torsion [C]-CA--CB-[CG] |==|  0.44046
USER: genes 10 Torsion [CA]-CB--CG-[OD1] |==|  0.09019
USER: genes 11 Torsion [C]-CA--N-[H1] |==|  0.45935
USER: genes 12 Torsion [C]-N--CA-[CB] |==|  0.46669
USER: genes 13 Torsion [N]-CA--C-[N] |==|  0.27475
USER: genes 14 Torsion [C]-N--CA-[C] |==|  0.82089
USER: genes 15 Torsion [N]-CA--CB-[CG1] |==|  0.64572
USER: genes 16 Torsion [CA]-CB--CG1-[CD1] |==|  0.81160
USER: genes 17 Torsion [N]-CA--C-[N] |==|  0.42755
USER: genes 18 Torsion [C]-N--CA-[C] |==|  0.83914
USER: genes 19 Torsion [N]-CA--C-[O] |==|  0.29359
USER: genes 20 Torsion [N]-CA--CB-[CG] |==|  0.85984
USER: genes 21 Torsion [CA]-CB--CG-[CD1] |==|  0.28328
USER: genes 22 Torsion [N]-CA--CB-[CG] |==|  0.51567
USER: genes 23 Torsion [CA]-CB--CG-[CD1] |==|  0.17622
ROOT
ATOM      1  C   ARG B   2      57.483  86.114  27.641  1.00 25.54 LIG 0.24  C 
ATOM      2 O    ARG B   2      57.020  85.108  28.265  1.00 21.45 LIG-0.27  OA
ATOM      3  N   LEU B   3      57.989  87.159  28.277  1.00 32.00 LIG-0.35  N 
ATOM      4 H    LEU B   3      58.403  87.806  27.889  1.00 32.00 LIG 0.16  HD
ENDROOT
BRANCH 1 5
ATOM      5  CA  ARG B   2      57.460  86.204  26.121  1.00 29.44 LIG 0.18  C 
BRANCH 5 6
ATOM      6  CB  ARG B   2      58.791  86.835  25.605  1.00 37.02 LIG 0.04  C 
BRANCH 6 7
ATOM      7  CG  ARG B   2      58.672  87.477  24.223  1.00 39.92 LIG 0.02  C 
BRANCH 7 8
ATOM      8  CD  ARG B   2      58.205  88.933  24.346  1.00 40.77 LIG 0.14  C 
BRANCH 8 9
ATOM      9  NE  ARG B   2      58.589  89.365  25.698  1.00 48.07 LIG-0.23  N 
ATOM     10 HE   ARG B   2      59.396  89.185  25.934  1.00 48.07 LIG 0.18  HD
ATOM     11  CZ  ARG B   2      57.841  90.005  26.608  1.00 44.36 LIG 0.67  C 
ATOM     12  NH1 ARG B   2      58.435  90.316  27.776  1.00 36.12 LIG-0.23  N 
ATOM     13  NH2 ARG B   2      56.550  90.340  26.379  1.00 39.61 LIG-0.23  N 
ATOM     14 1HH1 ARG B   2      59.257  90.104  27.910  1.00 36.12 LIG 0.17  HD
ATOM     15 2HH1 ARG B   2      57.991  90.727  28.387  1.00 36.12 LIG 0.17  HD
ATOM     16 1HH2 ARG B   2      56.182  90.143  25.628  1.00 39.61 LIG 0.17  HD
ATOM     17 2HH2 ARG B   2      56.099  90.751  26.985  1.00 39.61 LIG 0.17  HD
ENDBRANCH 8 9
ENDBRANCH 7 8
ENDBRANCH 6 7
ENDBRANCH 5 6
BRANCH 5 18
ATOM     18  N   ARG B   2      56.315  87.007  25.654  1.00 32.37 LIG-0.35  N 
ATOM     19 H    ARG B   2      56.379  87.858  25.757  1.00 32.37 LIG 0.16  HD
ATOM     20  C   ASN B   1      55.293  86.366  25.119  1.00 31.22 LIG 0.25  C 
ATOM     21 O    ASN B   1      55.275  85.155  25.074  1.00 24.61 LIG-0.27  OA
BRANCH 20 22
ATOM     22  CA  ASN B   1      54.096  87.138  24.592  1.00 32.89 LIG 0.28  C 
BRANCH 22 23
ATOM     23  CB  ASN B   1      54.257  88.575  25.090  1.00 38.07 LIG 0.14  C 
BRANCH 23 24
ATOM     24  CG  ASN B   1      53.489  89.543  24.281  1.00 44.05 LIG 0.22  C 
ATOM     25  ND2 ASN B   1      54.026  90.727  24.143  1.00 47.62 LIG-0.37  N 
ATOM     26 21HD ASN B   1      53.631  91.326  23.669  1.00 47.62 LIG 0.16  HD
ATOM     27 22HD ASN B   1      54.775  90.907  24.524  1.00 47.62 LIG 0.16  HD
ATOM     28 OD1  ASN B   1      52.413  89.227  23.755  1.00 47.48 LIG-0.27  OA
ENDBRANCH 23 24
ENDBRANCH 22 23
BRANCH 22 29
ATOM     29  N   ASN B   1      52.738  86.624  24.935  1.00 44.58 LIG-0.07  N 
ATOM     30 H1   ASN B   1      52.131  87.252  24.764  1.00 44.58 LIG 0.28  HD
ATOM     31 H3   ASN B   1      52.710  86.412  25.799  1.00 44.58 LIG 0.28  HD
ATOM     32 H2   ASN B   1      52.562  85.901  24.446  1.00 44.58 LIG 0.28  HD
ENDBRANCH 22 29
ENDBRANCH 20 22
ENDBRANCH 5 18
ENDBRANCH 1 5
BRANCH 3 33
ATOM     33  CA  LEU B   3      57.877  87.289  29.721  1.00 27.74 LIG 0.18  C 
BRANCH 33 34
ATOM     34  C   LEU B   3      56.495  87.638  30.117  1.00 25.40 LIG 0.24  C 
ATOM     35 O    LEU B   3      56.095  88.793  30.053  1.00 26.81 LIG-0.27  OA
ATOM     36  N   ILE B   4      55.732  86.655  30.530  1.00 26.13 LIG-0.35  N 
ATOM     37 H    ILE B   4      55.949  85.824  30.504  1.00 26.13 LIG 0.16  HD
BRANCH 36 38
ATOM     38  CA  ILE B   4      54.475  86.922  31.057  1.00 24.17 LIG 0.18  C 
BRANCH 38 39
ATOM     39  CB  ILE B   4      53.758  85.563  31.197  1.00 29.09 LIG 0.01  C 
ATOM     40  CG2 ILE B   4      53.541  85.306  32.649  1.00 25.20 LIG 0.01  C 
BRANCH 39 41
ATOM     41  CG1 ILE B   4      52.386  85.549  30.536  1.00 28.67 LIG 0.00  C 
ATOM     42  CD1 ILE B   4      51.401  86.443  31.248  1.00 34.41 LIG 0.01  C 
ENDBRANCH 39 41
ENDBRANCH 38 39
BRANCH 38 43
ATOM     43  C   ILE B   4      54.551  87.727  32.358  1.00 29.58 LIG 0.24  C 
ATOM     44  N   LEU B   5      53.483  88.467  32.632  1.00 36.70 LIG-0.35  N 
ATOM     45 H    LEU B   5      52.833  88.591  32.083  1.00 36.70 LIG 0.16  HD
ATOM     46 O    ILE B   4      55.575  87.695  33.109  1.00 23.70 LIG-0.27  OA
BRANCH 44 47
ATOM     47  CA  LEU B   5      53.326  89.133  33.900  1.00 37.00 LIG 0.16  C 
BRANCH 47 48
ATOM     48  C   LEU B   5      53.371  88.126  35.066  1.00 42.59 LIG 0.22  C 
ATOM     49 O    LEU B   5      54.381  88.038  35.814  1.00 38.80 LIG-0.29  OA
ENDBRANCH 47 48
BRANCH 47 50
ATOM     50  CB  LEU B   5      51.986  89.856  33.889  1.00 50.59 LIG 0.04  C 
BRANCH 50 51
ATOM     51  CG  LEU B   5      51.724  90.738  32.683  1.00 50.85 LIG-0.02  C 
ATOM     52  CD1 LEU B   5      50.794  89.998  31.747  1.00 54.07 LIG 0.01  C 
ATOM     53  CD2 LEU B   5      51.088  92.024  33.199  1.00 54.33 LIG 0.01  C 
ENDBRANCH 50 51
ENDBRANCH 47 50
ENDBRANCH 44 47
ENDBRANCH 38 43
ENDBRANCH 36 38
ENDBRANCH 33 34
BRANCH 33 54
ATOM     54  CB  LEU B   3      58.791  88.406  30.167  1.00 34.11 LIG 0.04  C 
BRANCH 54 55
ATOM     55  CG  LEU B   3      58.773  88.439  31.657  1.00 35.49 LIG-0.02  C 
ATOM     56  CD1 LEU B   3      59.346  87.131  32.168  1.00 39.12 LIG 0.01  C 
ATOM     57  CD2 LEU B   3      59.691  89.590  31.982  1.00 34.32 LIG 0.01  C 
ENDBRANCH 54 55
ENDBRANCH 33 54
ENDBRANCH 3 33
TORSDOF 22
ENDMDL
MODEL 40
USER: ADFR SOLUTION from run 158
USER: SCORE 18.598375 LL:  -3.531 LR: -16.268 RR:   0.000 FEB:  -9.705
USER: RMSD 4.688519
USER: SEED 157
USER: STATUS no improvement in best in 22 clusters for 5 generations
USER: GENES 24
USER: genes 0 Translation |==|  0.48657 0.47884 0.44006
USER: genes 1 Rotation |==|  0.50111 0.47113 0.37844 0.98414
USER: genes 2 Torsion [N]-C--CA-[N] |==|  0.04959
USER: genes 3 Torsion [C]-CA--CB-[CG] |==|  0.72071
USER: genes 4 Torsion [CA]-CB--CG-[CD] |==|  0.70242
USER: genes 5 Torsion [CB]-CG--CD-[NE] |==|  0.55903
USER: genes 6 Torsion [CG]-CD--NE-[HE] |==|  0.68522
USER: genes 7 Torsion [C]-CA--N-[C] |==|  0.73663
USER: genes 8 Torsion [N]-C--CA-[N] |==|  0.85457
USER: genes 9 Torsion [C]-CA--CB-[CG] |==|  0.53986
USER: genes 10 Torsion [CA]-CB--CG-[OD1] |==|  0.18012
USER: genes 11 Torsion [C]-CA--N-[H1] |==|  0.52863
USER: genes 12 Torsion [C]-N--CA-[CB] |==|  0.45151
USER: genes 13 Torsion [N]-CA--C-[N] |==|  0.41049
USER: genes 14 Torsion [C]-N--CA-[C] |==|  0.84627
USER: genes 15 Torsion [N]-CA--CB-[CG1] |==|  0.17731
USER: genes 16 Torsion [CA]-CB--CG1-[CD1] |==|  0.44175
USER: genes 17 Torsion [N]-CA--C-[N] |==|  0.38903
USER: genes 18 Torsion [C]-N--CA-[C] |==|  0.77021
USER: genes 19 Torsion [N]-CA--C-[O] |==|  0.00337
USER: genes 20 Torsion [N]-CA--CB-[CG] |==|  0.43755
USER: genes 21 Torsion [CA]-CB--CG-[CD1] |==|  0.16842
USER: genes 22 Torsion [N]-CA--CB-[CG] |==|  0.87817
USER: genes 23 Torsion [CA]-CB--CG-[CD1] |==|  0.34379
ROOT
ATOM      1  C   ARG B   2      56.725  86.580  28.450  1.00 25.54 LIG 0.24  C 
ATOM      2 O    ARG B   2      56.455  85.448  28.960  1.00 21.45 LIG-0.27  OA
ATOM      3  N   LEU B   3      56.902  87.660  29.197  1.00 32.00 LIG-0.35  N 
ATOM      4 H    LEU B   3      57.186  88.414  28.896  1.00 32.00 LIG 0.16  HD
ENDROOT
BRANCH 1 5
ATOM      5  CA  ARG B   2      56.832  86.785  26.945  1.00 29.44 LIG 0.18  C 
BRANCH 5 6
ATOM      6  CB  ARG B   2      57.599  85.589  26.299  1.00 37.02 LIG 0.04  C 
BRANCH 6 7
ATOM      7  CG  ARG B   2      59.065  85.894  25.989  1.00 39.92 LIG 0.02  C 
BRANCH 7 8
ATOM      8  CD  ARG B   2      59.272  86.056  24.478  1.00 40.77 LIG 0.14  C 
BRANCH 8 9
ATOM      9  NE  ARG B   2      60.706  85.825  24.243  1.00 48.07 LIG-0.23  N 
ATOM     10 HE   ARG B   2      61.157  86.506  23.975  1.00 48.07 LIG 0.18  HD
ATOM     11  CZ  ARG B   2      61.399  84.687  24.393  1.00 44.36 LIG 0.67  C 
ATOM     12  NH1 ARG B   2      62.719  84.738  24.134  1.00 36.12 LIG-0.23  N 
ATOM     13  NH2 ARG B   2      60.818  83.533  24.795  1.00 39.61 LIG-0.23  N 
ATOM     14 1HH1 ARG B   2      63.080  85.477  23.885  1.00 36.12 LIG 0.17  HD
ATOM     15 2HH1 ARG B   2      63.200  84.031  24.218  1.00 36.12 LIG 0.17  HD
ATOM     16 1HH2 ARG B   2      59.975  83.512  24.964  1.00 39.61 LIG 0.17  HD
ATOM     17 2HH2 ARG B   2      61.291  82.820  24.881  1.00 39.61 LIG 0.17  HD
ENDBRANCH 8 9
ENDBRANCH 7 8
ENDBRANCH 6 7
ENDBRANCH 5 6
BRANCH 5 18
ATOM     18  N   ARG B   2      57.523  88.048  26.628  1.00 32.37 LIG-0.35  N 
ATOM     19 H    ARG B   2      58.382  88.018  26.608  1.00 32.37 LIG 0.16  HD
ATOM     20  C   ASN B   1      56.780  89.115  26.404  1.00 31.22 LIG 0.25  C 
ATOM     21 O    ASN B   1      55.574  89.066  26.518  1.00 24.61 LIG-0.27  OA
BRANCH 20 22
ATOM     22  CA  ASN B   1      57.430  90.439  26.044  1.00 32.89 LIG 0.28  C 
BRANCH 22 23
ATOM     23  CB  ASN B   1      57.965  90.285  24.620  1.00 38.07 LIG 0.14  C 
BRANCH 23 24
ATOM     24  CG  ASN B   1      58.912  91.357  24.252  1.00 44.05 LIG 0.22  C 
ATOM     25  ND2 ASN B   1      58.517  92.169  23.307  1.00 47.62 LIG-0.37  N 
ATOM     26 21HD ASN B   1      59.022  92.821  23.062  1.00 47.62 LIG 0.16  HD
ATOM     27 22HD ASN B   1      57.754  92.052  22.929  1.00 47.62 LIG 0.16  HD
ATOM     28 OD1  ASN B   1      60.000  91.477  24.832  1.00 47.48 LIG-0.27  OA
ENDBRANCH 23 24
ENDBRANCH 22 23
BRANCH 22 29
ATOM     29  N   ASN B   1      58.507  90.946  26.945  1.00 44.58 LIG-0.07  N 
ATOM     30 H1   ASN B   1      58.707  91.785  26.726  1.00 44.58 LIG 0.28  HD
ATOM     31 H3   ASN B   1      59.232  90.436  26.858  1.00 44.58 LIG 0.28  HD
ATOM     32 H2   ASN B   1      58.225  90.919  27.789  1.00 44.58 LIG 0.28  HD
ENDBRANCH 22 29
ENDBRANCH 20 22
ENDBRANCH 5 18
ENDBRANCH 1 5
BRANCH 3 33
ATOM     33  CA  LEU B   3      56.619  87.644  30.624  1.00 27.74 LIG 0.18  C 
BRANCH 33 34
ATOM     34  C   LEU B   3      55.167  87.762  30.878  1.00 25.40 LIG 0.24  C 
ATOM     35 O    LEU B   3      54.448  88.405  30.125  1.00 26.81 LIG-0.27  OA
ATOM     36  N   ILE B   4      54.700  87.146  31.936  1.00 26.13 LIG-0.35  N 
ATOM     37 H    ILE B   4      55.156  86.615  32.435  1.00 26.13 LIG 0.16  HD
BRANCH 36 38
ATOM     38  CA  ILE B   4      53.379  87.331  32.324  1.00 24.17 LIG 0.18  C 
BRANCH 38 39
ATOM     39  CB  ILE B   4      53.159  86.452  33.574  1.00 29.09 LIG 0.01  C 
ATOM     40  CG2 ILE B   4      53.566  85.059  33.233  1.00 25.20 LIG 0.01  C 
BRANCH 39 41
ATOM     41  CG1 ILE B   4      54.013  86.885  34.757  1.00 28.67 LIG 0.00  C 
ATOM     42  CD1 ILE B   4      53.460  86.393  36.071  1.00 34.41 LIG 0.01  C 
ENDBRANCH 39 41
ENDBRANCH 38 39
BRANCH 38 43
ATOM     43  C   ILE B   4      53.037  88.810  32.530  1.00 29.58 LIG 0.24  C 
ATOM     44  N   LEU B   5      51.840  89.182  32.094  1.00 36.70 LIG-0.35  N 
ATOM     45 H    LEU B   5      51.322  88.679  31.627  1.00 36.70 LIG 0.16  HD
ATOM     46 O    ILE B   4      53.854  89.619  33.068  1.00 23.70 LIG-0.27  OA
BRANCH 44 47
ATOM     47  CA  LEU B   5      51.301  90.489  32.378  1.00 37.00 LIG 0.16  C 
BRANCH 47 48
ATOM     48  C   LEU B   5      50.652  90.530  33.776  1.00 42.59 LIG 0.22  C 
ATOM     49 O    LEU B   5      50.654  89.519  34.527  1.00 38.80 LIG-0.29  OA
ENDBRANCH 47 48
BRANCH 47 50
ATOM     50  CB  LEU B   5      50.261  90.811  31.313  1.00 50.59 LIG 0.04  C 
BRANCH 50 51
ATOM     51  CG  LEU B   5      49.225  91.849  31.699  1.00 50.85 LIG-0.02  C 
ATOM     52  CD1 LEU B   5      49.943  93.146  32.004  1.00 54.07 LIG 0.01  C 
ATOM     53  CD2 LEU B   5      48.281  92.001  30.512  1.00 54.33 LIG 0.01  C 
ENDBRANCH 50 51
ENDBRANCH 47 50
ENDBRANCH 44 47
ENDBRANCH 38 43
ENDBRANCH 36 38
ENDBRANCH 33 34
BRANCH 33 54
ATOM     54  CB  LEU B   3      57.307  88.831  31.254  1.00 34.11 LIG 0.04  C 
BRANCH 54 55
ATOM     55  CG  LEU B   3      58.681  88.916  30.680  1.00 35.49 LIG-0.02  C 
ATOM     56  CD1 LEU B   3      58.855  90.293  30.069  1.00 39.12 LIG 0.01  C 
ATOM     57  CD2 LEU B   3      59.565  88.749  31.890  1.00 34.32 LIG 0.01  C 
ENDBRANCH 54 55
ENDBRANCH 33 54
ENDBRANCH 3 33
TORSDOF 22
ENDMDL
MODEL 41
USER: ADFR SOLUTION from run 161
USER: SCORE 18.692942 LL:  -4.006 LR: -16.261 RR:   0.000 FEB:  -9.698
USER: RMSD 3.664292
USER: SEED 160
USER: STATUS no improvement in best in 19 clusters for 5 generations
USER: GENES 24
USER: genes 0 Translation |==|  0.50085 0.48275 0.40226
USER: genes 1 Rotation |==|  0.50592 0.50327 0.44813 0.99726
USER: genes 2 Torsion [N]-C--CA-[N] |==|  0.43944
USER: genes 3 Torsion [C]-CA--CB-[CG] |==|  0.20516
USER: genes 4 Torsion [CA]-CB--CG-[CD] |==|  0.15609
USER: genes 5 Torsion [CB]-CG--CD-[NE] |==|  0.72508
USER: genes 6 Torsion [CG]-CD--NE-[HE] |==|  0.82386
USER: genes 7 Torsion [C]-CA--N-[C] |==|  0.79080
USER: genes 8 Torsion [N]-C--CA-[N] |==|  0.67407
USER: genes 9 Torsion [C]-CA--CB-[CG] |==|  0.74233
USER: genes 10 Torsion [CA]-CB--CG-[OD1] |==|  0.77642
USER: genes 11 Torsion [C]-CA--N-[H1] |==|  0.54038
USER: genes 12 Torsion [C]-N--CA-[CB] |==|  0.41868
USER: genes 13 Torsion [N]-CA--C-[N] |==|  0.32006
USER: genes 14 Torsion [C]-N--CA-[C] |==|  0.79724
USER: genes 15 Torsion [N]-CA--CB-[CG1] |==|  0.63738
USER: genes 16 Torsion [CA]-CB--CG1-[CD1] |==|  0.53380
USER: genes 17 Torsion [N]-CA--C-[N] |==|  0.41665
USER: genes 18 Torsion [C]-N--CA-[C] |==|  0.17982
USER: genes 19 Torsion [N]-CA--C-[O] |==|  0.07015
USER: genes 20 Torsion [N]-CA--CB-[CG] |==|  0.30826
USER: genes 21 Torsion [CA]-CB--CG-[CD1] |==|  0.25246
USER: genes 22 Torsion [N]-CA--CB-[CG] |==|  0.73403
USER: genes 23 Torsion [CA]-CB--CG-[CD1] |==|  0.51289
ROOT
ATOM      1  C   ARG B   2      57.025  86.654  27.628  1.00 25.54 LIG 0.24  C 
ATOM      2 O    ARG B   2      57.148  85.483  28.108  1.00 21.45 LIG-0.27  OA
ATOM      3  N   LEU B   3      56.986  87.727  28.403  1.00 32.00 LIG-0.35  N 
ATOM      4 H    LEU B   3      57.009  88.535  28.109  1.00 32.00 LIG 0.16  HD
ENDROOT
BRANCH 1 5
ATOM      5  CA  ARG B   2      56.881  86.904  26.133  1.00 29.44 LIG 0.18  C 
BRANCH 5 6
ATOM      6  CB  ARG B   2      55.377  87.104  25.769  1.00 37.02 LIG 0.04  C 
BRANCH 6 7
ATOM      7  CG  ARG B   2      54.812  88.455  26.208  1.00 39.92 LIG 0.02  C 
BRANCH 7 8
ATOM      8  CD  ARG B   2      55.642  89.602  25.619  1.00 40.77 LIG 0.14  C 
BRANCH 8 9
ATOM      9  NE  ARG B   2      56.555  90.028  26.690  1.00 48.07 LIG-0.23  N 
ATOM     10 HE   ARG B   2      56.182  90.351  27.395  1.00 48.07 LIG 0.18  HD
ATOM     11  CZ  ARG B   2      57.895  89.977  26.708  1.00 44.36 LIG 0.67  C 
ATOM     12  NH1 ARG B   2      58.507  90.411  27.825  1.00 36.12 LIG-0.23  N 
ATOM     13  NH2 ARG B   2      58.615  89.506  25.664  1.00 39.61 LIG-0.23  N 
ATOM     14 1HH1 ARG B   2      58.040  90.703  28.486  1.00 36.12 LIG 0.17  HD
ATOM     15 2HH1 ARG B   2      59.365  90.395  27.879  1.00 36.12 LIG 0.17  HD
ATOM     16 1HH2 ARG B   2      58.215  89.226  24.957  1.00 39.61 LIG 0.17  HD
ATOM     17 2HH2 ARG B   2      59.474  89.487  25.708  1.00 39.61 LIG 0.17  HD
ENDBRANCH 8 9
ENDBRANCH 7 8
ENDBRANCH 6 7
ENDBRANCH 5 6
BRANCH 5 18
ATOM     18  N   ARG B   2      57.438  85.785  25.351  1.00 32.37 LIG-0.35  N 
ATOM     19 H    ARG B   2      56.868  85.252  24.991  1.00 32.37 LIG 0.16  HD
ATOM     20  C   ASN B   1      58.751  85.689  25.265  1.00 31.22 LIG 0.25  C 
ATOM     21 O    ASN B   1      59.470  86.461  25.862  1.00 24.61 LIG-0.27  OA
BRANCH 20 22
ATOM     22  CA  ASN B   1      59.385  84.576  24.450  1.00 32.89 LIG 0.28  C 
BRANCH 22 23
ATOM     23  CB  ASN B   1      58.239  83.857  23.736  1.00 38.07 LIG 0.14  C 
BRANCH 23 24
ATOM     24  CG  ASN B   1      57.731  82.702  24.504  1.00 44.05 LIG 0.22  C 
ATOM     25  ND2 ASN B   1      56.628  82.902  25.175  1.00 47.62 LIG-0.37  N 
ATOM     26 21HD ASN B   1      56.278  82.260  25.629  1.00 47.62 LIG 0.16  HD
ATOM     27 22HD ASN B   1      56.251  83.674  25.164  1.00 47.62 LIG 0.16  HD
ATOM     28 OD1  ASN B   1      58.318  81.611  24.483  1.00 47.48 LIG-0.27  OA
ENDBRANCH 23 24
ENDBRANCH 22 23
BRANCH 22 29
ATOM     29  N   ASN B   1      60.238  83.589  25.175  1.00 44.58 LIG-0.07  N 
ATOM     30 H1   ASN B   1      60.717  83.122  24.589  1.00 44.58 LIG 0.28  HD
ATOM     31 H3   ASN B   1      59.720  83.036  25.643  1.00 44.58 LIG 0.28  HD
ATOM     32 H2   ASN B   1      60.786  84.021  25.728  1.00 44.58 LIG 0.28  HD
ENDBRANCH 22 29
ENDBRANCH 20 22
ENDBRANCH 5 18
ENDBRANCH 1 5
BRANCH 3 33
ATOM     33  CA  LEU B   3      56.901  87.609  29.850  1.00 27.74 LIG 0.18  C 
BRANCH 33 34
ATOM     34  C   LEU B   3      55.492  87.590  30.298  1.00 25.40 LIG 0.24  C 
ATOM     35 O    LEU B   3      54.768  88.565  30.139  1.00 26.81 LIG-0.27  OA
ATOM     36  N   ILE B   4      55.065  86.488  30.864  1.00 26.13 LIG-0.35  N 
ATOM     37 H    ILE B   4      55.515  85.757  30.912  1.00 26.13 LIG 0.16  HD
BRANCH 36 38
ATOM     38  CA  ILE B   4      53.803  86.443  31.443  1.00 24.17 LIG 0.18  C 
BRANCH 38 39
ATOM     39  CB  ILE B   4      53.430  84.951  31.575  1.00 29.09 LIG 0.01  C 
ATOM     40  CG2 ILE B   4      53.412  84.609  33.026  1.00 25.20 LIG 0.01  C 
BRANCH 39 41
ATOM     41  CG1 ILE B   4      52.043  84.640  31.030  1.00 28.67 LIG 0.00  C 
ATOM     42  CD1 ILE B   4      51.572  83.261  31.423  1.00 34.41 LIG 0.01  C 
ENDBRANCH 39 41
ENDBRANCH 38 39
BRANCH 38 43
ATOM     43  C   ILE B   4      53.742  87.223  32.760  1.00 29.58 LIG 0.24  C 
ATOM     44  N   LEU B   5      52.562  87.756  33.050  1.00 36.70 LIG-0.35  N 
ATOM     45 H    LEU B   5      51.897  87.774  32.505  1.00 36.70 LIG 0.16  HD
ATOM     46 O    ILE B   4      54.759  87.358  33.508  1.00 23.70 LIG-0.27  OA
BRANCH 44 47
ATOM     47  CA  LEU B   5      52.295  88.359  34.332  1.00 37.00 LIG 0.16  C 
BRANCH 47 48
ATOM     48  C   LEU B   5      53.171  89.609  34.551  1.00 42.59 LIG 0.22  C 
ATOM     49 O    LEU B   5      53.622  90.268  33.576  1.00 38.80 LIG-0.29  OA
ENDBRANCH 47 48
BRANCH 47 50
ATOM     50  CB  LEU B   5      52.590  87.324  35.410  1.00 50.59 LIG 0.04  C 
BRANCH 50 51
ATOM     51  CG  LEU B   5      53.800  87.607  36.280  1.00 50.85 LIG-0.02  C 
ATOM     52  CD1 LEU B   5      53.343  88.399  37.485  1.00 54.07 LIG 0.01  C 
ATOM     53  CD2 LEU B   5      54.382  86.258  36.688  1.00 54.33 LIG 0.01  C 
ENDBRANCH 50 51
ENDBRANCH 47 50
ENDBRANCH 44 47
ENDBRANCH 38 43
ENDBRANCH 36 38
ENDBRANCH 33 34
BRANCH 33 54
ATOM     54  CB  LEU B   3      57.575  88.813  30.463  1.00 34.11 LIG 0.04  C 
BRANCH 54 55
ATOM     55  CG  LEU B   3      58.977  88.429  30.792  1.00 35.49 LIG-0.02  C 
ATOM     56  CD1 LEU B   3      59.632  89.591  31.513  1.00 39.12 LIG 0.01  C 
ATOM     57  CD2 LEU B   3      58.797  87.254  31.721  1.00 34.32 LIG 0.01  C 
ENDBRANCH 54 55
ENDBRANCH 33 54
ENDBRANCH 3 33
TORSDOF 22
ENDMDL
MODEL 42
USER: ADFR SOLUTION from run 72
USER: SCORE 18.573004 LL:  -3.501 LR: -16.252 RR:   0.000 FEB:  -9.689
USER: RMSD 3.650471
USER: SEED 71
USER: STATUS no improvement in best in 7 clusters for 5 generations
USER: GENES 24
USER: genes 0 Translation |==|  0.50666 0.48586 0.40534
USER: genes 1 Rotation |==|  0.57145 0.49404 0.47758 0.99433
USER: genes 2 Torsion [N]-C--CA-[N] |==|  0.46111
USER: genes 3 Torsion [C]-CA--CB-[CG] |==|  0.42358
USER: genes 4 Torsion [CA]-CB--CG-[CD] |==|  0.58406
USER: genes 5 Torsion [CB]-CG--CD-[NE] |==|  0.53288
USER: genes 6 Torsion [CG]-CD--NE-[HE] |==|  0.78696
USER: genes 7 Torsion [C]-CA--N-[C] |==|  0.79808
USER: genes 8 Torsion [N]-C--CA-[N] |==|  0.39625
USER: genes 9 Torsion [C]-CA--CB-[CG] |==|  0.50755
USER: genes 10 Torsion [CA]-CB--CG-[OD1] |==|  0.94979
USER: genes 11 Torsion [C]-CA--N-[H1] |==|  0.18127
USER: genes 12 Torsion [C]-N--CA-[CB] |==|  0.24282
USER: genes 13 Torsion [N]-CA--C-[N] |==|  0.42379
USER: genes 14 Torsion [C]-N--CA-[C] |==|  0.55295
USER: genes 15 Torsion [N]-CA--CB-[CG1] |==|  0.46208
USER: genes 16 Torsion [CA]-CB--CG1-[CD1] |==|  0.18748
USER: genes 17 Torsion [N]-CA--C-[N] |==|  0.43915
USER: genes 18 Torsion [C]-N--CA-[C] |==|  0.51556
USER: genes 19 Torsion [N]-CA--C-[O] |==|  0.02884
USER: genes 20 Torsion [N]-CA--CB-[CG] |==|  0.56746
USER: genes 21 Torsion [CA]-CB--CG-[CD1] |==|  0.20273
USER: genes 22 Torsion [N]-CA--CB-[CG] |==|  0.18358
USER: genes 23 Torsion [CA]-CB--CG-[CD1] |==|  0.40393
ROOT
ATOM      1  C   ARG B   2      57.147  86.712  27.695  1.00 25.54 LIG 0.24  C 
ATOM      2 O    ARG B   2      57.386  85.477  27.873  1.00 21.45 LIG-0.27  OA
ATOM      3  N   LEU B   3      56.940  87.538  28.709  1.00 32.00 LIG-0.35  N 
ATOM      4 H    LEU B   3      56.879  88.393  28.631  1.00 32.00 LIG 0.16  HD
ENDROOT
BRANCH 1 5
ATOM      5  CA  ARG B   2      57.049  87.324  26.305  1.00 29.44 LIG 0.18  C 
BRANCH 5 6
ATOM      6  CB  ARG B   2      55.558  87.636  25.964  1.00 37.02 LIG 0.04  C 
BRANCH 6 7
ATOM      7  CG  ARG B   2      55.381  88.791  24.978  1.00 39.92 LIG 0.02  C 
BRANCH 7 8
ATOM      8  CD  ARG B   2      54.060  89.524  25.239  1.00 40.77 LIG 0.14  C 
BRANCH 8 9
ATOM      9  NE  ARG B   2      53.854  90.406  24.080  1.00 48.07 LIG-0.23  N 
ATOM     10 HE   ARG B   2      54.329  91.123  24.066  1.00 48.07 LIG 0.18  HD
ATOM     11  CZ  ARG B   2      53.020  90.234  23.044  1.00 44.36 LIG 0.67  C 
ATOM     12  NH1 ARG B   2      53.033  91.181  22.088  1.00 36.12 LIG-0.23  N 
ATOM     13  NH2 ARG B   2      52.204  89.160  22.942  1.00 39.61 LIG-0.23  N 
ATOM     14 1HH1 ARG B   2      53.559  91.858  22.159  1.00 36.12 LIG 0.17  HD
ATOM     15 2HH1 ARG B   2      52.514  91.110  21.406  1.00 36.12 LIG 0.17  HD
ATOM     16 1HH2 ARG B   2      52.207  88.557  23.555  1.00 39.61 LIG 0.17  HD
ATOM     17 2HH2 ARG B   2      51.681  89.081  22.264  1.00 39.61 LIG 0.17  HD
ENDBRANCH 8 9
ENDBRANCH 7 8
ENDBRANCH 6 7
ENDBRANCH 5 6
BRANCH 5 18
ATOM     18  N   ARG B   2      57.613  86.421  25.285  1.00 32.37 LIG-0.35  N 
ATOM     19 H    ARG B   2      57.048  86.030  24.768  1.00 32.37 LIG 0.16  HD
ATOM     20  C   ASN B   1      58.924  86.284  25.244  1.00 31.22 LIG 0.25  C 
ATOM     21 O    ASN B   1      59.631  86.835  26.061  1.00 24.61 LIG-0.27  OA
BRANCH 20 22
ATOM     22  CA  ASN B   1      59.568  85.390  24.199  1.00 32.89 LIG 0.28  C 
BRANCH 22 23
ATOM     23  CB  ASN B   1      59.740  84.017  24.851  1.00 38.07 LIG 0.14  C 
BRANCH 23 24
ATOM     24  CG  ASN B   1      60.419  83.051  23.964  1.00 44.05 LIG 0.22  C 
ATOM     25  ND2 ASN B   1      60.908  81.986  24.544  1.00 47.62 LIG-0.37  N 
ATOM     26 21HD ASN B   1      61.301  81.383  24.075  1.00 47.62 LIG 0.16  HD
ATOM     27 22HD ASN B   1      60.836  81.890  25.395  1.00 47.62 LIG 0.16  HD
ATOM     28 OD1  ASN B   1      60.492  83.245  22.742  1.00 47.48 LIG-0.27  OA
ENDBRANCH 23 24
ENDBRANCH 22 23
BRANCH 22 29
ATOM     29  N   ASN B   1      60.861  85.842  23.606  1.00 44.58 LIG-0.07  N 
ATOM     30 H1   ASN B   1      61.489  85.853  24.236  1.00 44.58 LIG 0.28  HD
ATOM     31 H3   ASN B   1      60.763  86.661  23.270  1.00 44.58 LIG 0.28  HD
ATOM     32 H2   ASN B   1      61.102  85.282  22.957  1.00 44.58 LIG 0.28  HD
ENDBRANCH 22 29
ENDBRANCH 20 22
ENDBRANCH 5 18
ENDBRANCH 1 5
BRANCH 3 33
ATOM     33  CA  LEU B   3      56.797  87.041  30.069  1.00 27.74 LIG 0.18  C 
BRANCH 33 34
ATOM     34  C   LEU B   3      55.994  87.971  30.891  1.00 25.40 LIG 0.24  C 
ATOM     35 O    LEU B   3      55.957  89.167  30.633  1.00 26.81 LIG-0.27  OA
ATOM     36  N   ILE B   4      55.331  87.451  31.895  1.00 26.13 LIG-0.35  N 
ATOM     37 H    ILE B   4      55.262  86.609  32.052  1.00 26.13 LIG 0.16  HD
BRANCH 36 38
ATOM     38  CA  ILE B   4      54.675  88.276  32.800  1.00 24.17 LIG 0.18  C 
BRANCH 38 39
ATOM     39  CB  ILE B   4      53.428  88.824  32.074  1.00 29.09 LIG 0.01  C 
ATOM     40  CG2 ILE B   4      52.728  87.675  31.433  1.00 25.20 LIG 0.01  C 
BRANCH 39 41
ATOM     41  CG1 ILE B   4      52.432  89.476  33.023  1.00 28.67 LIG 0.00  C 
ATOM     42  CD1 ILE B   4      52.971  90.746  33.633  1.00 34.41 LIG 0.01  C 
ENDBRANCH 39 41
ENDBRANCH 38 39
BRANCH 38 43
ATOM     43  C   ILE B   4      54.367  87.560  34.119  1.00 29.58 LIG 0.24  C 
ATOM     44  N   LEU B   5      54.171  88.354  35.164  1.00 36.70 LIG-0.35  N 
ATOM     45 H    LEU B   5      54.311  89.202  35.155  1.00 36.70 LIG 0.16  HD
ATOM     46 O    ILE B   4      54.320  86.294  34.200  1.00 23.70 LIG-0.27  OA
BRANCH 44 47
ATOM     47  CA  LEU B   5      53.694  87.845  36.426  1.00 37.00 LIG 0.16  C 
BRANCH 47 48
ATOM     48  C   LEU B   5      53.422  88.991  37.420  1.00 42.59 LIG 0.22  C 
ATOM     49 O    LEU B   5      53.427  90.195  37.047  1.00 38.80 LIG-0.29  OA
ENDBRANCH 47 48
BRANCH 47 50
ATOM     50  CB  LEU B   5      54.757  86.911  36.988  1.00 50.59 LIG 0.04  C 
BRANCH 50 51
ATOM     51  CG  LEU B   5      54.259  85.860  37.963  1.00 50.85 LIG-0.02  C 
ATOM     52  CD1 LEU B   5      53.501  84.809  37.181  1.00 54.07 LIG 0.01  C 
ATOM     53  CD2 LEU B   5      55.486  85.268  38.646  1.00 54.33 LIG 0.01  C 
ENDBRANCH 50 51
ENDBRANCH 47 50
ENDBRANCH 44 47
ENDBRANCH 38 43
ENDBRANCH 36 38
ENDBRANCH 33 34
BRANCH 33 54
ATOM     54  CB  LEU B   3      58.174  86.938  30.681  1.00 34.11 LIG 0.04  C 
BRANCH 54 55
ATOM     55  CG  LEU B   3      58.718  88.320  30.809  1.00 35.49 LIG-0.02  C 
ATOM     56  CD1 LEU B   3      59.560  88.385  32.068  1.00 39.12 LIG 0.01  C 
ATOM     57  CD2 LEU B   3      59.578  88.462  29.579  1.00 34.32 LIG 0.01  C 
ENDBRANCH 54 55
ENDBRANCH 33 54
ENDBRANCH 3 33
TORSDOF 22
ENDMDL
MODEL 43
USER: ADFR SOLUTION from run 159
USER: SCORE 18.967285 LL:  -3.363 LR: -16.229 RR:   0.000 FEB:  -9.666
USER: RMSD 3.055787
USER: SEED 158
USER: STATUS no improvement in best in 8 clusters for 5 generations
USER: GENES 24
USER: genes 0 Translation |==|  0.49026 0.43162 0.39612
USER: genes 1 Rotation |==|  0.44207 0.47330 0.39506 0.98468
USER: genes 2 Torsion [N]-C--CA-[N] |==|  0.32949
USER: genes 3 Torsion [C]-CA--CB-[CG] |==|  0.71398
USER: genes 4 Torsion [CA]-CB--CG-[CD] |==|  0.64849
USER: genes 5 Torsion [CB]-CG--CD-[NE] |==|  0.70211
USER: genes 6 Torsion [CG]-CD--NE-[HE] |==|  0.71471
USER: genes 7 Torsion [C]-CA--N-[C] |==|  0.80008
USER: genes 8 Torsion [N]-C--CA-[N] |==|  0.96534
USER: genes 9 Torsion [C]-CA--CB-[CG] |==|  0.46383
USER: genes 10 Torsion [CA]-CB--CG-[OD1] |==|  0.25859
USER: genes 11 Torsion [C]-CA--N-[H1] |==|  0.45922
USER: genes 12 Torsion [C]-N--CA-[CB] |==|  0.51244
USER: genes 13 Torsion [N]-CA--C-[N] |==|  0.47134
USER: genes 14 Torsion [C]-N--CA-[C] |==|  0.82681
USER: genes 15 Torsion [N]-CA--CB-[CG1] |==|  0.62456
USER: genes 16 Torsion [CA]-CB--CG1-[CD1] |==|  0.03103
USER: genes 17 Torsion [N]-CA--C-[N] |==|  0.44080
USER: genes 18 Torsion [C]-N--CA-[C] |==|  0.87733
USER: genes 19 Torsion [N]-CA--C-[O] |==|  0.38446
USER: genes 20 Torsion [N]-CA--CB-[CG] |==|  0.95378
USER: genes 21 Torsion [CA]-CB--CG-[CD1] |==|  0.30230
USER: genes 22 Torsion [N]-CA--CB-[CG] |==|  0.65407
USER: genes 23 Torsion [CA]-CB--CG-[CD1] |==|  0.98575
ROOT
ATOM      1  C   ARG B   2      56.802  85.695  27.495  1.00 25.54 LIG 0.24  C 
ATOM      2 O    ARG B   2      56.630  84.700  28.266  1.00 21.45 LIG-0.27  OA
ATOM      3  N   LEU B   3      56.960  86.924  27.962  1.00 32.00 LIG-0.35  N 
ATOM      4 H    LEU B   3      57.181  87.600  27.478  1.00 32.00 LIG 0.16  HD
ENDROOT
BRANCH 1 5
ATOM      5  CA  ARG B   2      56.808  85.552  25.979  1.00 29.44 LIG 0.18  C 
BRANCH 5 6
ATOM      6  CB  ARG B   2      55.450  84.954  25.496  1.00 37.02 LIG 0.04  C 
BRANCH 6 7
ATOM      7  CG  ARG B   2      55.526  83.472  25.129  1.00 39.92 LIG 0.02  C 
BRANCH 7 8
ATOM      8  CD  ARG B   2      54.983  83.240  23.713  1.00 40.77 LIG 0.14  C 
BRANCH 8 9
ATOM      9  NE  ARG B   2      53.680  82.580  23.885  1.00 48.07 LIG-0.23  N 
ATOM     10 HE   ARG B   2      53.667  81.732  23.741  1.00 48.07 LIG 0.18  HD
ATOM     11  CZ  ARG B   2      52.511  83.132  24.239  1.00 44.36 LIG 0.67  C 
ATOM     12  NH1 ARG B   2      51.455  82.305  24.353  1.00 36.12 LIG-0.23  N 
ATOM     13  NH2 ARG B   2      52.379  84.456  24.483  1.00 39.61 LIG-0.23  N 
ATOM     14 1HH1 ARG B   2      51.549  81.463  24.201  1.00 36.12 LIG 0.17  HD
ATOM     15 2HH1 ARG B   2      50.687  82.617  24.578  1.00 36.12 LIG 0.17  HD
ATOM     16 1HH2 ARG B   2      53.061  84.976  24.414  1.00 39.61 LIG 0.17  HD
ATOM     17 2HH2 ARG B   2      51.614  84.778  24.708  1.00 39.61 LIG 0.17  HD
ENDBRANCH 8 9
ENDBRANCH 7 8
ENDBRANCH 6 7
ENDBRANCH 5 6
BRANCH 5 18
ATOM     18  N   ARG B   2      57.918  84.691  25.530  1.00 32.37 LIG-0.35  N 
ATOM     19 H    ARG B   2      57.702  83.911  25.242  1.00 32.37 LIG 0.16  HD
ATOM     20  C   ASN B   1      59.142  85.178  25.605  1.00 31.22 LIG 0.25  C 
ATOM     21 O    ASN B   1      59.346  86.272  26.086  1.00 24.61 LIG-0.27  OA
BRANCH 20 22
ATOM     22  CA  ASN B   1      60.325  84.351  25.132  1.00 32.89 LIG 0.28  C 
BRANCH 22 23
ATOM     23  CB  ASN B   1      60.860  85.043  23.877  1.00 38.07 LIG 0.14  C 
BRANCH 23 24
ATOM     24  CG  ASN B   1      62.188  84.537  23.476  1.00 44.05 LIG 0.22  C 
ATOM     25  ND2 ASN B   1      63.215  85.102  24.056  1.00 47.62 LIG-0.37  N 
ATOM     26 21HD ASN B   1      64.012  84.837  23.872  1.00 47.62 LIG 0.16  HD
ATOM     27 22HD ASN B   1      63.093  85.738  24.621  1.00 47.62 LIG 0.16  HD
ATOM     28 OD1  ASN B   1      62.302  83.616  22.654  1.00 47.48 LIG-0.27  OA
ENDBRANCH 23 24
ENDBRANCH 22 23
BRANCH 22 29
ATOM     29  N   ASN B   1      60.090  82.903  24.860  1.00 44.58 LIG-0.07  N 
ATOM     30 H1   ASN B   1      60.773  82.573  24.396  1.00 44.58 LIG 0.28  HD
ATOM     31 H3   ASN B   1      59.339  82.807  24.391  1.00 44.58 LIG 0.28  HD
ATOM     32 H2   ASN B   1      60.016  82.464  25.631  1.00 44.58 LIG 0.28  HD
ENDBRANCH 22 29
ENDBRANCH 20 22
ENDBRANCH 5 18
ENDBRANCH 1 5
BRANCH 3 33
ATOM     33  CA  LEU B   3      56.764  87.225  29.372  1.00 27.74 LIG 0.18  C 
BRANCH 33 34
ATOM     34  C   LEU B   3      55.409  86.831  29.814  1.00 25.40 LIG 0.24  C 
ATOM     35 O    LEU B   3      54.555  86.497  29.004  1.00 26.81 LIG-0.27  OA
ATOM     36  N   ILE B   4      55.178  86.856  31.104  1.00 26.13 LIG-0.35  N 
ATOM     37 H    ILE B   4      55.775  86.998  31.706  1.00 26.13 LIG 0.16  HD
BRANCH 36 38
ATOM     38  CA  ILE B   4      53.892  86.644  31.587  1.00 24.17 LIG 0.18  C 
BRANCH 38 39
ATOM     39  CB  ILE B   4      54.010  86.537  33.122  1.00 29.09 LIG 0.01  C 
ATOM     40  CG2 ILE B   4      53.454  87.787  33.713  1.00 25.20 LIG 0.01  C 
BRANCH 39 41
ATOM     41  CG1 ILE B   4      53.203  85.380  33.696  1.00 28.67 LIG 0.00  C 
ATOM     42  CD1 ILE B   4      52.697  84.449  32.622  1.00 34.41 LIG 0.01  C 
ENDBRANCH 39 41
ENDBRANCH 38 39
BRANCH 38 43
ATOM     43  C   ILE B   4      52.909  87.717  31.107  1.00 29.58 LIG 0.24  C 
ATOM     44  N   LEU B   5      51.629  87.368  31.141  1.00 36.70 LIG-0.35  N 
ATOM     45 H    LEU B   5      51.353  86.571  31.306  1.00 36.70 LIG 0.16  HD
ATOM     46 O    ILE B   4      53.302  88.851  30.694  1.00 23.70 LIG-0.27  OA
BRANCH 44 47
ATOM     47  CA  LEU B   5      50.576  88.323  30.897  1.00 37.00 LIG 0.16  C 
BRANCH 47 48
ATOM     48  C   LEU B   5      50.842  89.646  31.643  1.00 42.59 LIG 0.22  C 
ATOM     49 O    LEU B   5      50.627  90.759  31.094  1.00 38.80 LIG-0.29  OA
ENDBRANCH 47 48
BRANCH 47 50
ATOM     50  CB  LEU B   5      49.266  87.711  31.375  1.00 50.59 LIG 0.04  C 
BRANCH 50 51
ATOM     51  CG  LEU B   5      49.282  86.210  31.593  1.00 50.85 LIG-0.02  C 
ATOM     52  CD1 LEU B   5      49.225  85.946  33.082  1.00 54.07 LIG 0.01  C 
ATOM     53  CD2 LEU B   5      48.062  85.641  30.879  1.00 54.33 LIG 0.01  C 
ENDBRANCH 50 51
ENDBRANCH 47 50
ENDBRANCH 44 47
ENDBRANCH 38 43
ENDBRANCH 36 38
ENDBRANCH 33 34
BRANCH 33 54
ATOM     54  CB  LEU B   3      56.907  88.716  29.560  1.00 34.11 LIG 0.04  C 
BRANCH 54 55
ATOM     55  CG  LEU B   3      57.958  88.943  30.593  1.00 35.49 LIG-0.02  C 
ATOM     56  CD1 LEU B   3      58.382  87.596  31.144  1.00 39.12 LIG 0.01  C 
ATOM     57  CD2 LEU B   3      59.077  89.578  29.806  1.00 34.32 LIG 0.01  C 
ENDBRANCH 54 55
ENDBRANCH 33 54
ENDBRANCH 3 33
TORSDOF 22
ENDMDL
MODEL 44
USER: ADFR SOLUTION from run 48
USER: SCORE 18.227210 LL:  -3.919 LR: -16.134 RR:   0.000 FEB:  -9.571
USER: RMSD 4.184433
USER: SEED 47
USER: STATUS no improvement in best in 25 clusters for 5 generations
USER: GENES 24
USER: genes 0 Translation |==|  0.54616 0.47834 0.41823
USER: genes 1 Rotation |==|  0.51336 0.48330 0.32161 0.96660
USER: genes 2 Torsion [N]-C--CA-[N] |==|  0.95564
USER: genes 3 Torsion [C]-CA--CB-[CG] |==|  0.37197
USER: genes 4 Torsion [CA]-CB--CG-[CD] |==|  0.72654
USER: genes 5 Torsion [CB]-CG--CD-[NE] |==|  0.38338
USER: genes 6 Torsion [CG]-CD--NE-[HE] |==|  0.14747
USER: genes 7 Torsion [C]-CA--N-[C] |==|  0.77584
USER: genes 8 Torsion [N]-C--CA-[N] |==|  0.89617
USER: genes 9 Torsion [C]-CA--CB-[CG] |==|  0.71000
USER: genes 10 Torsion [CA]-CB--CG-[OD1] |==|  0.15321
USER: genes 11 Torsion [C]-CA--N-[H1] |==|  0.26342
USER: genes 12 Torsion [C]-N--CA-[CB] |==|  0.41020
USER: genes 13 Torsion [N]-CA--C-[N] |==|  0.33584
USER: genes 14 Torsion [C]-N--CA-[C] |==|  0.62149
USER: genes 15 Torsion [N]-CA--CB-[CG1] |==|  0.34700
USER: genes 16 Torsion [CA]-CB--CG1-[CD1] |==|  0.74679
USER: genes 17 Torsion [N]-CA--C-[N] |==|  0.42413
USER: genes 18 Torsion [C]-N--CA-[C] |==|  0.52539
USER: genes 19 Torsion [N]-CA--C-[O] |==|  0.96308
USER: genes 20 Torsion [N]-CA--CB-[CG] |==|  0.67101
USER: genes 21 Torsion [CA]-CB--CG-[CD1] |==|  0.62248
USER: genes 22 Torsion [N]-CA--CB-[CG] |==|  0.54239
USER: genes 23 Torsion [CA]-CB--CG-[CD1] |==|  0.18794
ROOT
ATOM      1  C   ARG B   2      57.976  86.571  27.976  1.00 25.54 LIG 0.24  C 
ATOM      2 O    ARG B   2      57.461  85.496  28.417  1.00 21.45 LIG-0.27  OA
ATOM      3  N   LEU B   3      58.417  87.520  28.786  1.00 32.00 LIG-0.35  N 
ATOM      4 H    LEU B   3      58.863  88.209  28.526  1.00 32.00 LIG 0.16  HD
ENDROOT
BRANCH 1 5
ATOM      5  CA  ARG B   2      58.094  86.858  26.485  1.00 29.44 LIG 0.18  C 
BRANCH 5 6
ATOM      6  CB  ARG B   2      59.258  86.018  25.871  1.00 37.02 LIG 0.04  C 
BRANCH 6 7
ATOM      7  CG  ARG B   2      58.888  85.322  24.562  1.00 39.92 LIG 0.02  C 
BRANCH 7 8
ATOM      8  CD  ARG B   2      58.516  83.857  24.818  1.00 40.77 LIG 0.14  C 
BRANCH 8 9
ATOM      9  NE  ARG B   2      57.338  83.589  23.979  1.00 48.07 LIG-0.23  N 
ATOM     10 HE   ARG B   2      57.420  83.782  23.145  1.00 48.07 LIG 0.18  HD
ATOM     11  CZ  ARG B   2      56.154  83.081  24.348  1.00 44.36 LIG 0.67  C 
ATOM     12  NH1 ARG B   2      55.235  82.907  23.379  1.00 36.12 LIG-0.23  N 
ATOM     13  NH2 ARG B   2      55.878  82.743  25.629  1.00 39.61 LIG-0.23  N 
ATOM     14 1HH1 ARG B   2      55.421  83.120  22.567  1.00 36.12 LIG 0.17  HD
ATOM     15 2HH1 ARG B   2      54.463  82.584  23.572  1.00 36.12 LIG 0.17  HD
ATOM     16 1HH2 ARG B   2      56.473  82.852  26.240  1.00 39.61 LIG 0.17  HD
ATOM     17 2HH2 ARG B   2      55.107  82.420  25.832  1.00 39.61 LIG 0.17  HD
ENDBRANCH 8 9
ENDBRANCH 7 8
ENDBRANCH 6 7
ENDBRANCH 5 6
BRANCH 5 18
ATOM     18  N   ARG B   2      58.331  88.292  26.237  1.00 32.37 LIG-0.35  N 
ATOM     19 H    ARG B   2      59.145  88.523  26.087  1.00 32.37 LIG 0.16  HD
ATOM     20  C   ASN B   1      57.289  89.100  26.264  1.00 31.22 LIG 0.25  C 
ATOM     21 O    ASN B   1      56.186  88.682  26.547  1.00 24.61 LIG-0.27  OA
BRANCH 20 22
ATOM     22  CA  ASN B   1      57.463  90.584  25.989  1.00 32.89 LIG 0.28  C 
BRANCH 22 23
ATOM     23  CB  ASN B   1      57.377  90.754  24.471  1.00 38.07 LIG 0.14  C 
BRANCH 23 24
ATOM     24  CG  ASN B   1      58.698  90.980  23.851  1.00 44.05 LIG 0.22  C 
ATOM     25  ND2 ASN B   1      58.817  92.069  23.139  1.00 47.62 LIG-0.37  N 
ATOM     26 21HD ASN B   1      59.569  92.259  22.767  1.00 47.62 LIG 0.16  HD
ATOM     27 22HD ASN B   1      58.145  92.595  23.042  1.00 47.62 LIG 0.16  HD
ATOM     28 OD1  ASN B   1      59.632  90.184  24.026  1.00 47.48 LIG-0.27  OA
ENDBRANCH 23 24
ENDBRANCH 22 23
BRANCH 22 29
ATOM     29  N   ASN B   1      58.697  91.242  26.510  1.00 44.58 LIG-0.07  N 
ATOM     30 H1   ASN B   1      59.318  91.256  25.873  1.00 44.58 LIG 0.28  HD
ATOM     31 H3   ASN B   1      59.002  90.788  27.212  1.00 44.58 LIG 0.28  HD
ATOM     32 H2   ASN B   1      58.507  92.077  26.755  1.00 44.58 LIG 0.28  HD
ENDBRANCH 22 29
ENDBRANCH 20 22
ENDBRANCH 5 18
ENDBRANCH 1 5
BRANCH 3 33
ATOM     33  CA  LEU B   3      58.171  87.462  30.219  1.00 27.74 LIG 0.18  C 
BRANCH 33 34
ATOM     34  C   LEU B   3      56.949  88.213  30.578  1.00 25.40 LIG 0.24  C 
ATOM     35 O    LEU B   3      56.847  89.406  30.324  1.00 26.81 LIG-0.27  OA
ATOM     36  N   ILE B   4      55.994  87.539  31.172  1.00 26.13 LIG-0.35  N 
ATOM     37 H    ILE B   4      55.994  86.687  31.285  1.00 26.13 LIG 0.16  HD
BRANCH 36 38
ATOM     38  CA  ILE B   4      54.880  88.202  31.672  1.00 24.17 LIG 0.18  C 
BRANCH 38 39
ATOM     39  CB  ILE B   4      53.769  88.060  30.610  1.00 29.09 LIG 0.01  C 
ATOM     40  CG2 ILE B   4      54.260  87.131  29.552  1.00 25.20 LIG 0.01  C 
BRANCH 39 41
ATOM     41  CG1 ILE B   4      52.491  87.454  31.172  1.00 28.67 LIG 0.00  C 
ATOM     42  CD1 ILE B   4      52.466  85.951  31.039  1.00 34.41 LIG 0.01  C 
ENDBRANCH 39 41
ENDBRANCH 38 39
BRANCH 38 43
ATOM     43  C   ILE B   4      54.484  87.699  33.064  1.00 29.58 LIG 0.24  C 
ATOM     44  N   LEU B   5      53.854  88.583  33.828  1.00 36.70 LIG-0.35  N 
ATOM     45 H    LEU B   5      53.764  89.413  33.626  1.00 36.70 LIG 0.16  HD
ATOM     46 O    ILE B   4      54.757  86.523  33.456  1.00 23.70 LIG-0.27  OA
BRANCH 44 47
ATOM     47  CA  LEU B   5      53.258  88.210  35.086  1.00 37.00 LIG 0.16  C 
BRANCH 47 48
ATOM     48  C   LEU B   5      52.403  89.358  35.658  1.00 42.59 LIG 0.22  C 
ATOM     49 O    LEU B   5      52.480  90.525  35.190  1.00 38.80 LIG-0.29  OA
ENDBRANCH 47 48
BRANCH 47 50
ATOM     50  CB  LEU B   5      54.381  87.866  36.056  1.00 50.59 LIG 0.04  C 
BRANCH 50 51
ATOM     51  CG  LEU B   5      54.385  86.441  36.578  1.00 50.85 LIG-0.02  C 
ATOM     52  CD1 LEU B   5      54.653  86.482  38.066  1.00 54.07 LIG 0.01  C 
ATOM     53  CD2 LEU B   5      53.014  85.850  36.274  1.00 54.33 LIG 0.01  C 
ENDBRANCH 50 51
ENDBRANCH 47 50
ENDBRANCH 44 47
ENDBRANCH 38 43
ENDBRANCH 36 38
ENDBRANCH 33 34
BRANCH 33 54
ATOM     54  CB  LEU B   3      59.343  88.102  30.925  1.00 34.11 LIG 0.04  C 
BRANCH 54 55
ATOM     55  CG  LEU B   3      59.273  87.713  32.363  1.00 35.49 LIG-0.02  C 
ATOM     56  CD1 LEU B   3      59.538  86.224  32.466  1.00 39.12 LIG 0.01  C 
ATOM     57  CD2 LEU B   3      60.398  88.503  32.983  1.00 34.32 LIG 0.01  C 
ENDBRANCH 54 55
ENDBRANCH 33 54
ENDBRANCH 3 33
TORSDOF 22
ENDMDL
MODEL 45
USER: ADFR SOLUTION from run 76
USER: SCORE 18.895461 LL:  -3.758 LR: -16.117 RR:   0.000 FEB:  -9.555
USER: RMSD 4.420319
USER: SEED 75
USER: STATUS no improvement in best in 9 clusters for 5 generations
USER: GENES 24
USER: genes 0 Translation |==|  0.39776 0.51691 0.39028
USER: genes 1 Rotation |==|  0.50582 0.59116 0.28733 0.94320
USER: genes 2 Torsion [N]-C--CA-[N] |==|  0.11659
USER: genes 3 Torsion [C]-CA--CB-[CG] |==|  0.34227
USER: genes 4 Torsion [CA]-CB--CG-[CD] |==|  0.26267
USER: genes 5 Torsion [CB]-CG--CD-[NE] |==|  0.78526
USER: genes 6 Torsion [CG]-CD--NE-[HE] |==|  0.04053
USER: genes 7 Torsion [C]-CA--N-[C] |==|  0.64032
USER: genes 8 Torsion [N]-C--CA-[N] |==|  0.39099
USER: genes 9 Torsion [C]-CA--CB-[CG] |==|  0.19107
USER: genes 10 Torsion [CA]-CB--CG-[OD1] |==|  0.05795
USER: genes 11 Torsion [C]-CA--N-[H1] |==|  0.40605
USER: genes 12 Torsion [C]-N--CA-[CB] |==|  0.53598
USER: genes 13 Torsion [N]-CA--C-[N] |==|  0.34860
USER: genes 14 Torsion [C]-N--CA-[C] |==|  0.76411
USER: genes 15 Torsion [N]-CA--CB-[CG1] |==|  0.66065
USER: genes 16 Torsion [CA]-CB--CG1-[CD1] |==|  0.54795
USER: genes 17 Torsion [N]-CA--C-[N] |==|  0.46177
USER: genes 18 Torsion [C]-N--CA-[C] |==|  0.20363
USER: genes 19 Torsion [N]-CA--C-[O] |==|  0.05533
USER: genes 20 Torsion [N]-CA--CB-[CG] |==|  0.66510
USER: genes 21 Torsion [CA]-CB--CG-[CD1] |==|  0.23650
USER: genes 22 Torsion [N]-CA--CB-[CG] |==|  0.71326
USER: genes 23 Torsion [CA]-CB--CG-[CD1] |==|  0.46017
ROOT
ATOM      1  C   ARG B   2      54.860  87.294  27.367  1.00 25.54 LIG 0.24  C 
ATOM      2 O    ARG B   2      54.381  86.231  27.875  1.00 21.45 LIG-0.27  OA
ATOM      3  N   LEU B   3      55.742  88.041  28.013  1.00 32.00 LIG-0.35  N 
ATOM      4 H    LEU B   3      56.162  88.705  27.661  1.00 32.00 LIG 0.16  HD
ENDROOT
BRANCH 1 5
ATOM      5  CA  ARG B   2      54.431  87.801  25.998  1.00 29.44 LIG 0.18  C 
BRANCH 5 6
ATOM      6  CB  ARG B   2      53.738  86.653  25.198  1.00 37.02 LIG 0.04  C 
BRANCH 6 7
ATOM      7  CG  ARG B   2      52.323  86.994  24.734  1.00 39.92 LIG 0.02  C 
BRANCH 7 8
ATOM      8  CD  ARG B   2      52.344  87.542  23.302  1.00 40.77 LIG 0.14  C 
BRANCH 8 9
ATOM      9  NE  ARG B   2      52.806  88.934  23.412  1.00 48.07 LIG-0.23  N 
ATOM     10 HE   ARG B   2      53.164  89.153  24.162  1.00 48.07 LIG 0.18  HD
ATOM     11  CZ  ARG B   2      52.739  89.906  22.490  1.00 44.36 LIG 0.67  C 
ATOM     12  NH1 ARG B   2      53.257  91.102  22.826  1.00 36.12 LIG-0.23  N 
ATOM     13  NH2 ARG B   2      52.189  89.710  21.270  1.00 39.61 LIG-0.23  N 
ATOM     14 1HH1 ARG B   2      53.610  91.216  23.602  1.00 36.12 LIG 0.17  HD
ATOM     15 2HH1 ARG B   2      53.235  91.753  22.265  1.00 36.12 LIG 0.17  HD
ATOM     16 1HH2 ARG B   2      51.866  88.941  21.062  1.00 39.61 LIG 0.17  HD
ATOM     17 2HH2 ARG B   2      52.162  90.355  20.702  1.00 39.61 LIG 0.17  HD
ENDBRANCH 8 9
ENDBRANCH 7 8
ENDBRANCH 6 7
ENDBRANCH 5 6
BRANCH 5 18
ATOM     18  N   ARG B   2      55.584  88.313  25.235  1.00 32.37 LIG-0.35  N 
ATOM     19 H    ARG B   2      56.268  87.794  25.184  1.00 32.37 LIG 0.16  HD
ATOM     20  C   ASN B   1      55.480  89.512  24.696  1.00 31.22 LIG 0.25  C 
ATOM     21 O    ASN B   1      54.492  90.191  24.878  1.00 24.61 LIG-0.27  OA
BRANCH 20 22
ATOM     22  CA  ASN B   1      56.623  90.084  23.874  1.00 32.89 LIG 0.28  C 
BRANCH 22 23
ATOM     23  CB  ASN B   1      57.447  90.952  24.827  1.00 38.07 LIG 0.14  C 
BRANCH 23 24
ATOM     24  CG  ASN B   1      58.160  90.154  25.844  1.00 44.05 LIG 0.22  C 
ATOM     25  ND2 ASN B   1      58.507  90.792  26.931  1.00 47.62 LIG-0.37  N 
ATOM     26 21HD ASN B   1      58.912  90.374  27.565  1.00 47.62 LIG 0.16  HD
ATOM     27 22HD ASN B   1      58.331  91.629  27.014  1.00 47.62 LIG 0.16  HD
ATOM     28 OD1  ASN B   1      58.387  88.949  25.670  1.00 47.48 LIG-0.27  OA
ENDBRANCH 23 24
ENDBRANCH 22 23
BRANCH 22 29
ATOM     29  N   ASN B   1      56.271  90.858  22.648  1.00 44.58 LIG-0.07  N 
ATOM     30 H1   ASN B   1      56.863  91.512  22.529  1.00 44.58 LIG 0.28  HD
ATOM     31 H3   ASN B   1      55.458  91.207  22.740  1.00 44.58 LIG 0.28  HD
ATOM     32 H2   ASN B   1      56.283  90.316  21.941  1.00 44.58 LIG 0.28  HD
ENDBRANCH 22 29
ENDBRANCH 20 22
ENDBRANCH 5 18
ENDBRANCH 1 5
BRANCH 3 33
ATOM     33  CA  LEU B   3      56.073  87.784  29.406  1.00 27.74 LIG 0.18  C 
BRANCH 33 34
ATOM     34  C   LEU B   3      54.849  87.624  30.220  1.00 25.40 LIG 0.24  C 
ATOM     35 O    LEU B   3      53.979  88.485  30.224  1.00 26.81 LIG-0.27  OA
ATOM     36  N   ILE B   4      54.747  86.523  30.925  1.00 26.13 LIG-0.35  N 
ATOM     37 H    ILE B   4      55.292  85.860  30.878  1.00 26.13 LIG 0.16  HD
BRANCH 36 38
ATOM     38  CA  ILE B   4      53.702  86.366  31.826  1.00 24.17 LIG 0.18  C 
BRANCH 38 39
ATOM     39  CB  ILE B   4      53.390  84.855  31.882  1.00 29.09 LIG 0.01  C 
ATOM     40  CG2 ILE B   4      53.592  84.396  33.286  1.00 25.20 LIG 0.01  C 
BRANCH 39 41
ATOM     41  CG1 ILE B   4      51.947  84.537  31.516  1.00 28.67 LIG 0.00  C 
ATOM     42  CD1 ILE B   4      51.537  83.156  31.964  1.00 34.41 LIG 0.01  C 
ENDBRANCH 39 41
ENDBRANCH 38 39
BRANCH 38 43
ATOM     43  C   ILE B   4      54.013  86.992  33.189  1.00 29.58 LIG 0.24  C 
ATOM     44  N   LEU B   5      52.972  87.134  34.000  1.00 36.70 LIG-0.35  N 
ATOM     45 H    LEU B   5      52.157  86.999  33.761  1.00 36.70 LIG 0.16  HD
ATOM     46 O    ILE B   4      55.186  87.360  33.506  1.00 23.70 LIG-0.27  OA
BRANCH 44 47
ATOM     47  CA  LEU B   5      53.130  87.535  35.375  1.00 37.00 LIG 0.16  C 
BRANCH 47 48
ATOM     48  C   LEU B   5      53.491  89.030  35.481  1.00 42.59 LIG 0.22  C 
ATOM     49 O    LEU B   5      53.259  89.826  34.532  1.00 38.80 LIG-0.29  OA
ENDBRANCH 47 48
BRANCH 47 50
ATOM     50  CB  LEU B   5      54.238  86.688  35.988  1.00 50.59 LIG 0.04  C 
BRANCH 50 51
ATOM     51  CG  LEU B   5      53.837  85.847  37.185  1.00 50.85 LIG-0.02  C 
ATOM     52  CD1 LEU B   5      53.256  84.545  36.676  1.00 54.07 LIG 0.01  C 
ATOM     53  CD2 LEU B   5      55.099  85.610  38.007  1.00 54.33 LIG 0.01  C 
ENDBRANCH 50 51
ENDBRANCH 47 50
ENDBRANCH 44 47
ENDBRANCH 38 43
ENDBRANCH 36 38
ENDBRANCH 33 34
BRANCH 33 54
ATOM     54  CB  LEU B   3      56.841  88.971  29.936  1.00 34.11 LIG 0.04  C 
BRANCH 54 55
ATOM     55  CG  LEU B   3      58.281  88.590  29.994  1.00 35.49 LIG-0.02  C 
ATOM     56  CD1 LEU B   3      59.100  89.853  30.176  1.00 39.12 LIG 0.01  C 
ATOM     57  CD2 LEU B   3      58.352  87.722  31.224  1.00 34.32 LIG 0.01  C 
ENDBRANCH 54 55
ENDBRANCH 33 54
ENDBRANCH 3 33
TORSDOF 22
ENDMDL
MODEL 46
USER: ADFR SOLUTION from run 77
USER: SCORE 19.028699 LL:  -3.850 LR: -16.116 RR:   0.000 FEB:  -9.553
USER: RMSD 5.604817
USER: SEED 76
USER: STATUS searching
USER: GENES 24
USER: genes 0 Translation |==|  0.51299 0.48186 0.39028
USER: genes 1 Rotation |==|  0.50910 0.43875 0.46612 0.99499
USER: genes 2 Torsion [N]-C--CA-[N] |==|  0.99224
USER: genes 3 Torsion [C]-CA--CB-[CG] |==|  0.26667
USER: genes 4 Torsion [CA]-CB--CG-[CD] |==|  0.35008
USER: genes 5 Torsion [CB]-CG--CD-[NE] |==|  0.20198
USER: genes 6 Torsion [CG]-CD--NE-[HE] |==|  0.72198
USER: genes 7 Torsion [C]-CA--N-[C] |==|  0.72761
USER: genes 8 Torsion [N]-C--CA-[N] |==|  0.28001
USER: genes 9 Torsion [C]-CA--CB-[CG] |==|  0.76074
USER: genes 10 Torsion [CA]-CB--CG-[OD1] |==|  0.27712
USER: genes 11 Torsion [C]-CA--N-[H1] |==|  0.41924
USER: genes 12 Torsion [C]-N--CA-[CB] |==|  0.47785
USER: genes 13 Torsion [N]-CA--C-[N] |==|  0.44771
USER: genes 14 Torsion [C]-N--CA-[C] |==|  0.80544
USER: genes 15 Torsion [N]-CA--CB-[CG1] |==|  0.56123
USER: genes 16 Torsion [CA]-CB--CG1-[CD1] |==|  0.54329
USER: genes 17 Torsion [N]-CA--C-[N] |==|  0.47203
USER: genes 18 Torsion [C]-N--CA-[C] |==|  0.84759
USER: genes 19 Torsion [N]-CA--C-[O] |==|  0.90274
USER: genes 20 Torsion [N]-CA--CB-[CG] |==|  0.06442
USER: genes 21 Torsion [CA]-CB--CG-[CD1] |==|  0.27169
USER: genes 22 Torsion [N]-CA--CB-[CG] |==|  0.71510
USER: genes 23 Torsion [CA]-CB--CG-[CD1] |==|  0.93255
ROOT
ATOM      1  C   ARG B   2      57.280  86.637  27.368  1.00 25.54 LIG 0.24  C 
ATOM      2 O    ARG B   2      57.351  85.480  27.889  1.00 21.45 LIG-0.27  OA
ATOM      3  N   LEU B   3      56.974  87.708  28.082  1.00 32.00 LIG-0.35  N 
ATOM      4 H    LEU B   3      57.018  88.515  27.787  1.00 32.00 LIG 0.16  HD
ENDROOT
BRANCH 1 5
ATOM      5  CA  ARG B   2      57.509  86.870  25.881  1.00 29.44 LIG 0.18  C 
BRANCH 5 6
ATOM      6  CB  ARG B   2      58.968  86.466  25.497  1.00 37.02 LIG 0.04  C 
BRANCH 6 7
ATOM      7  CG  ARG B   2      59.087  85.049  24.938  1.00 39.92 LIG 0.02  C 
BRANCH 7 8
ATOM      8  CD  ARG B   2      59.792  85.065  23.577  1.00 40.77 LIG 0.14  C 
BRANCH 8 9
ATOM      9  NE  ARG B   2      61.208  85.345  23.862  1.00 48.07 LIG-0.23  N 
ATOM     10 HE   ARG B   2      61.462  86.158  23.741  1.00 48.07 LIG 0.18  HD
ATOM     11  CZ  ARG B   2      62.153  84.494  24.286  1.00 44.36 LIG 0.67  C 
ATOM     12  NH1 ARG B   2      63.381  85.002  24.498  1.00 36.12 LIG-0.23  N 
ATOM     13  NH2 ARG B   2      61.901  83.182  24.505  1.00 39.61 LIG-0.23  N 
ATOM     14 1HH1 ARG B   2      63.531  85.838  24.362  1.00 36.12 LIG 0.17  HD
ATOM     15 2HH1 ARG B   2      64.016  84.491  24.771  1.00 36.12 LIG 0.17  HD
ATOM     16 1HH2 ARG B   2      61.112  82.868  24.372  1.00 39.61 LIG 0.17  HD
ATOM     17 2HH2 ARG B   2      62.530  82.663  24.777  1.00 39.61 LIG 0.17  HD
ENDBRANCH 8 9
ENDBRANCH 7 8
ENDBRANCH 6 7
ENDBRANCH 5 6
BRANCH 5 18
ATOM     18  N   ARG B   2      57.272  88.280  25.520  1.00 32.37 LIG-0.35  N 
ATOM     19 H    ARG B   2      57.920  88.824  25.668  1.00 32.37 LIG 0.16  HD
ATOM     20  C   ASN B   1      56.098  88.593  25.006  1.00 31.22 LIG 0.25  C 
ATOM     21 O    ASN B   1      55.227  87.757  24.894  1.00 24.61 LIG-0.27  OA
BRANCH 20 22
ATOM     22  CA  ASN B   1      55.803  90.023  24.588  1.00 32.89 LIG 0.28  C 
BRANCH 22 23
ATOM     23  CB  ASN B   1      54.402  90.345  25.111  1.00 38.07 LIG 0.14  C 
BRANCH 23 24
ATOM     24  CG  ASN B   1      53.339  89.927  24.175  1.00 44.05 LIG 0.22  C 
ATOM     25  ND2 ASN B   1      53.127  90.722  23.158  1.00 47.62 LIG-0.37  N 
ATOM     26 21HD ASN B   1      52.531  90.521  22.573  1.00 47.62 LIG 0.16  HD
ATOM     27 22HD ASN B   1      53.584  91.445  23.075  1.00 47.62 LIG 0.16  HD
ATOM     28 OD1  ASN B   1      52.712  88.873  24.347  1.00 47.48 LIG-0.27  OA
ENDBRANCH 23 24
ENDBRANCH 22 23
BRANCH 22 29
ATOM     29  N   ASN B   1      55.896  90.350  23.135  1.00 44.58 LIG-0.07  N 
ATOM     30 H1   ASN B   1      55.337  91.015  22.943  1.00 44.58 LIG 0.28  HD
ATOM     31 H3   ASN B   1      55.680  89.633  22.654  1.00 44.58 LIG 0.28  HD
ATOM     32 H2   ASN B   1      56.729  90.599  22.939  1.00 44.58 LIG 0.28  HD
ENDBRANCH 22 29
ENDBRANCH 20 22
ENDBRANCH 5 18
ENDBRANCH 1 5
BRANCH 3 33
ATOM     33  CA  LEU B   3      56.527  87.592  29.462  1.00 27.74 LIG 0.18  C 
BRANCH 33 34
ATOM     34  C   LEU B   3      55.181  86.984  29.534  1.00 25.40 LIG 0.24  C 
ATOM     35 O    LEU B   3      54.449  86.960  28.553  1.00 26.81 LIG-0.27  OA
ATOM     36  N   ILE B   4      54.821  86.478  30.688  1.00 26.13 LIG-0.35  N 
ATOM     37 H    ILE B   4      55.338  86.397  31.369  1.00 26.13 LIG 0.16  HD
BRANCH 36 38
ATOM     38  CA  ILE B   4      53.521  86.024  30.876  1.00 24.17 LIG 0.18  C 
BRANCH 38 39
ATOM     39  CB  ILE B   4      53.539  85.150  32.148  1.00 29.09 LIG 0.01  C 
ATOM     40  CG2 ILE B   4      53.401  86.052  33.327  1.00 25.20 LIG 0.01  C 
BRANCH 39 41
ATOM     41  CG1 ILE B   4      52.377  84.168  32.205  1.00 28.67 LIG 0.00  C 
ATOM     42  CD1 ILE B   4      52.182  83.594  33.586  1.00 34.41 LIG 0.01  C 
ENDBRANCH 39 41
ENDBRANCH 38 39
BRANCH 38 43
ATOM     43  C   ILE B   4      52.507  87.172  30.919  1.00 29.58 LIG 0.24  C 
ATOM     44  N   LEU B   5      51.233  86.804  30.886  1.00 36.70 LIG-0.35  N 
ATOM     45 H    LEU B   5      50.969  86.000  30.738  1.00 36.70 LIG 0.16  HD
ATOM     46 O    ILE B   4      52.871  88.387  30.967  1.00 23.70 LIG-0.27  OA
BRANCH 44 47
ATOM     47  CA  LEU B   5      50.165  87.749  31.103  1.00 37.00 LIG 0.16  C 
BRANCH 47 48
ATOM     48  C   LEU B   5      50.344  88.493  32.441  1.00 42.59 LIG 0.22  C 
ATOM     49 O    LEU B   5      50.832  87.915  33.449  1.00 38.80 LIG-0.29  OA
ENDBRANCH 47 48
BRANCH 47 50
ATOM     50  CB  LEU B   5      48.850  86.980  31.108  1.00 50.59 LIG 0.04  C 
BRANCH 50 51
ATOM     51  CG  LEU B   5      48.953  85.504  31.446  1.00 50.85 LIG-0.02  C 
ATOM     52  CD1 LEU B   5      48.621  85.328  32.911  1.00 54.07 LIG 0.01  C 
ATOM     53  CD2 LEU B   5      47.956  84.772  30.556  1.00 54.33 LIG 0.01  C 
ENDBRANCH 50 51
ENDBRANCH 47 50
ENDBRANCH 44 47
ENDBRANCH 38 43
ENDBRANCH 36 38
ENDBRANCH 33 34
BRANCH 33 54
ATOM     54  CB  LEU B   3      56.451  88.980  30.052  1.00 34.11 LIG 0.04  C 
BRANCH 54 55
ATOM     55  CG  LEU B   3      57.651  89.171  30.916  1.00 35.49 LIG-0.02  C 
ATOM     56  CD1 LEU B   3      58.140  87.806  31.359  1.00 39.12 LIG 0.01  C 
ATOM     57  CD2 LEU B   3      58.641  89.819  29.982  1.00 34.32 LIG 0.01  C 
ENDBRANCH 54 55
ENDBRANCH 33 54
ENDBRANCH 3 33
TORSDOF 22
ENDMDL
MODEL 47
USER: ADFR SOLUTION from run 189
USER: SCORE 19.143006 LL:  -4.397 LR: -16.061 RR:   0.000 FEB:  -9.498
USER: RMSD 3.572259
USER: SEED 188
USER: STATUS no improvement in best in 8 clusters for 5 generations
USER: GENES 24
USER: genes 0 Translation |==|  0.48296 0.44571 0.41590
USER: genes 1 Rotation |==|  0.55295 0.43435 0.44673 0.98995
USER: genes 2 Torsion [N]-C--CA-[N] |==|  0.45484
USER: genes 3 Torsion [C]-CA--CB-[CG] |==|  0.18298
USER: genes 4 Torsion [CA]-CB--CG-[CD] |==|  0.23989
USER: genes 5 Torsion [CB]-CG--CD-[NE] |==|  0.71575
USER: genes 6 Torsion [CG]-CD--NE-[HE] |==|  0.77073
USER: genes 7 Torsion [C]-CA--N-[C] |==|  0.71673
USER: genes 8 Torsion [N]-C--CA-[N] |==|  0.07799
USER: genes 9 Torsion [C]-CA--CB-[CG] |==|  0.37185
USER: genes 10 Torsion [CA]-CB--CG-[OD1] |==|  0.10138
USER: genes 11 Torsion [C]-CA--N-[H1] |==|  0.41232
USER: genes 12 Torsion [C]-N--CA-[CB] |==|  0.45794
USER: genes 13 Torsion [N]-CA--C-[N] |==|  0.42783
USER: genes 14 Torsion [C]-N--CA-[C] |==|  0.81046
USER: genes 15 Torsion [N]-CA--CB-[CG1] |==|  0.49646
USER: genes 16 Torsion [CA]-CB--CG1-[CD1] |==|  0.46696
USER: genes 17 Torsion [N]-CA--C-[N] |==|  0.86348
USER: genes 18 Torsion [C]-N--CA-[C] |==|  0.81358
USER: genes 19 Torsion [N]-CA--C-[O] |==|  0.96894
USER: genes 20 Torsion [N]-CA--CB-[CG] |==|  0.03427
USER: genes 21 Torsion [CA]-CB--CG-[CD1] |==|  0.19083
USER: genes 22 Torsion [N]-CA--CB-[CG] |==|  0.90209
USER: genes 23 Torsion [CA]-CB--CG-[CD1] |==|  0.40219
ROOT
ATOM      1  C   ARG B   2      56.649  85.959  27.925  1.00 25.54 LIG 0.24  C 
ATOM      2 O    ARG B   2      56.639  84.725  28.228  1.00 21.45 LIG-0.27  OA
ATOM      3  N   LEU B   3      56.376  86.900  28.815  1.00 32.00 LIG-0.35  N 
ATOM      4 H    LEU B   3      56.475  87.743  28.673  1.00 32.00 LIG 0.16  HD
ENDROOT
BRANCH 1 5
ATOM      5  CA  ARG B   2      56.943  86.442  26.511  1.00 29.44 LIG 0.18  C 
BRANCH 5 6
ATOM      6  CB  ARG B   2      55.619  86.884  25.813  1.00 37.02 LIG 0.04  C 
BRANCH 6 7
ATOM      7  CG  ARG B   2      54.967  88.111  26.451  1.00 39.92 LIG 0.02  C 
BRANCH 7 8
ATOM      8  CD  ARG B   2      55.552  89.399  25.859  1.00 40.77 LIG 0.14  C 
BRANCH 8 9
ATOM      9  NE  ARG B   2      56.499  89.908  26.862  1.00 48.07 LIG-0.23  N 
ATOM     10 HE   ARG B   2      56.155  90.366  27.504  1.00 48.07 LIG 0.18  HD
ATOM     11  CZ  ARG B   2      57.829  89.749  26.904  1.00 44.36 LIG 0.67  C 
ATOM     12  NH1 ARG B   2      58.477  90.298  27.948  1.00 36.12 LIG-0.23  N 
ATOM     13  NH2 ARG B   2      58.507  89.065  25.953  1.00 39.61 LIG-0.23  N 
ATOM     14 1HH1 ARG B   2      58.037  90.727  28.550  1.00 36.12 LIG 0.17  HD
ATOM     15 2HH1 ARG B   2      59.330  90.220  28.014  1.00 36.12 LIG 0.17  HD
ATOM     16 1HH2 ARG B   2      58.084  88.713  25.293  1.00 39.61 LIG 0.17  HD
ATOM     17 2HH2 ARG B   2      59.361  88.982  26.010  1.00 39.61 LIG 0.17  HD
ENDBRANCH 8 9
ENDBRANCH 7 8
ENDBRANCH 6 7
ENDBRANCH 5 6
BRANCH 5 18
ATOM     18  N   ARG B   2      57.598  85.389  25.715  1.00 32.37 LIG-0.35  N 
ATOM     19 H    ARG B   2      57.087  84.769  25.409  1.00 32.37 LIG 0.16  HD
ATOM     20  C   ASN B   1      58.902  85.477  25.534  1.00 31.22 LIG 0.25  C 
ATOM     21 O    ASN B   1      59.543  86.361  26.060  1.00 24.61 LIG-0.27  OA
BRANCH 20 22
ATOM     22  CA  ASN B   1      59.631  84.438  24.699  1.00 32.89 LIG 0.28  C 
BRANCH 22 23
ATOM     23  CB  ASN B   1      60.854  85.141  24.107  1.00 38.07 LIG 0.14  C 
BRANCH 23 24
ATOM     24  CG  ASN B   1      62.086  84.338  24.241  1.00 44.05 LIG 0.22  C 
ATOM     25  ND2 ASN B   1      63.179  85.006  24.503  1.00 47.62 LIG-0.37  N 
ATOM     26 21HD ASN B   1      63.923  84.589  24.607  1.00 47.62 LIG 0.16  HD
ATOM     27 22HD ASN B   1      63.153  85.863  24.573  1.00 47.62 LIG 0.16  HD
ATOM     28 OD1  ASN B   1      62.062  83.104  24.129  1.00 47.48 LIG-0.27  OA
ENDBRANCH 23 24
ENDBRANCH 22 23
BRANCH 22 29
ATOM     29  N   ASN B   1      58.859  83.755  23.620  1.00 44.58 LIG-0.07  N 
ATOM     30 H1   ASN B   1      59.405  83.551  22.947  1.00 44.58 LIG 0.28  HD
ATOM     31 H3   ASN B   1      58.216  84.296  23.326  1.00 44.58 LIG 0.28  HD
ATOM     32 H2   ASN B   1      58.495  83.009  23.942  1.00 44.58 LIG 0.28  HD
ENDBRANCH 22 29
ENDBRANCH 20 22
ENDBRANCH 5 18
ENDBRANCH 1 5
BRANCH 3 33
ATOM     33  CA  LEU B   3      55.875  86.563  30.139  1.00 27.74 LIG 0.18  C 
BRANCH 33 34
ATOM     34  C   LEU B   3      54.444  86.197  30.086  1.00 25.40 LIG 0.24  C 
ATOM     35 O    LEU B   3      53.717  86.623  29.198  1.00 26.81 LIG-0.27  OA
ATOM     36  N   ILE B   4      54.002  85.399  31.028  1.00 26.13 LIG-0.35  N 
ATOM     37 H    ILE B   4      54.498  85.011  31.613  1.00 26.13 LIG 0.16  HD
BRANCH 36 38
ATOM     38  CA  ILE B   4      52.644  85.128  31.133  1.00 24.17 LIG 0.18  C 
BRANCH 38 39
ATOM     39  CB  ILE B   4      52.507  83.916  32.079  1.00 29.09 LIG 0.01  C 
ATOM     40  CG2 ILE B   4      53.075  84.301  33.403  1.00 25.20 LIG 0.01  C 
BRANCH 39 41
ATOM     41  CG1 ILE B   4      51.058  83.516  32.319  1.00 28.67 LIG 0.00  C 
ATOM     42  CD1 ILE B   4      50.942  82.175  33.001  1.00 34.41 LIG 0.01  C 
ENDBRANCH 39 41
ENDBRANCH 38 39
BRANCH 38 43
ATOM     43  C   ILE B   4      51.840  86.358  31.570  1.00 29.58 LIG 0.24  C 
ATOM     44  N   LEU B   5      52.317  87.001  32.628  1.00 36.70 LIG-0.35  N 
ATOM     45 H    LEU B   5      52.960  86.707  33.118  1.00 36.70 LIG 0.16  HD
ATOM     46 O    ILE B   4      50.784  86.719  30.965  1.00 23.70 LIG-0.27  OA
BRANCH 44 47
ATOM     47  CA  LEU B   5      51.783  88.273  33.048  1.00 37.00 LIG 0.16  C 
BRANCH 47 48
ATOM     48  C   LEU B   5      52.089  89.373  32.012  1.00 42.59 LIG 0.22  C 
ATOM     49 O    LEU B   5      52.898  89.173  31.067  1.00 38.80 LIG-0.29  OA
ENDBRANCH 47 48
BRANCH 47 50
ATOM     50  CB  LEU B   5      52.416  88.630  34.386  1.00 50.59 LIG 0.04  C 
BRANCH 50 51
ATOM     51  CG  LEU B   5      53.606  87.784  34.798  1.00 50.85 LIG-0.02  C 
ATOM     52  CD1 LEU B   5      54.757  88.102  33.868  1.00 54.07 LIG 0.01  C 
ATOM     53  CD2 LEU B   5      53.938  88.151  36.239  1.00 54.33 LIG 0.01  C 
ENDBRANCH 50 51
ENDBRANCH 47 50
ENDBRANCH 44 47
ENDBRANCH 38 43
ENDBRANCH 36 38
ENDBRANCH 33 34
BRANCH 33 54
ATOM     54  CB  LEU B   3      56.019  87.780  31.022  1.00 34.11 LIG 0.04  C 
BRANCH 54 55
ATOM     55  CG  LEU B   3      57.269  88.486  30.619  1.00 35.49 LIG-0.02  C 
ATOM     56  CD1 LEU B   3      57.040  89.978  30.766  1.00 39.12 LIG 0.01  C 
ATOM     57  CD2 LEU B   3      58.276  87.996  31.630  1.00 34.32 LIG 0.01  C 
ENDBRANCH 54 55
ENDBRANCH 33 54
ENDBRANCH 3 33
TORSDOF 22
ENDMDL
MODEL 48
USER: ADFR SOLUTION from run 61
USER: SCORE 17.943582 LL:  -3.457 LR: -16.002 RR:   0.000 FEB:  -9.439
USER: RMSD 4.385794
USER: SEED 60
USER: STATUS no improvement in best in 14 clusters for 5 generations
USER: GENES 24
USER: genes 0 Translation |==|  0.49211 0.60653 0.37679
USER: genes 1 Rotation |==|  0.71084 0.49135 0.52947 0.95233
USER: genes 2 Torsion [N]-C--CA-[N] |==|  0.44757
USER: genes 3 Torsion [C]-CA--CB-[CG] |==|  0.79125
USER: genes 4 Torsion [CA]-CB--CG-[CD] |==|  0.52153
USER: genes 5 Torsion [CB]-CG--CD-[NE] |==|  0.23676
USER: genes 6 Torsion [CG]-CD--NE-[HE] |==|  0.85352
USER: genes 7 Torsion [C]-CA--N-[C] |==|  0.69253
USER: genes 8 Torsion [N]-C--CA-[N] |==|  0.94421
USER: genes 9 Torsion [C]-CA--CB-[CG] |==|  0.60981
USER: genes 10 Torsion [CA]-CB--CG-[OD1] |==|  0.22866
USER: genes 11 Torsion [C]-CA--N-[H1] |==|  0.53664
USER: genes 12 Torsion [C]-N--CA-[CB] |==|  0.28271
USER: genes 13 Torsion [N]-CA--C-[N] |==|  0.48333
USER: genes 14 Torsion [C]-N--CA-[C] |==|  0.78874
USER: genes 15 Torsion [N]-CA--CB-[CG1] |==|  0.77027
USER: genes 16 Torsion [CA]-CB--CG1-[CD1] |==|  0.58826
USER: genes 17 Torsion [N]-CA--C-[N] |==|  0.38365
USER: genes 18 Torsion [C]-N--CA-[C] |==|  0.79163
USER: genes 19 Torsion [N]-CA--C-[O] |==|  0.30482
USER: genes 20 Torsion [N]-CA--CB-[CG] |==|  0.77871
USER: genes 21 Torsion [CA]-CB--CG-[CD1] |==|  0.34148
USER: genes 22 Torsion [N]-CA--CB-[CG] |==|  0.06737
USER: genes 23 Torsion [CA]-CB--CG-[CD1] |==|  0.31109
ROOT
ATOM      1  C   ARG B   2      56.841  88.974  27.074  1.00 25.54 LIG 0.24  C 
ATOM      2 O    ARG B   2      57.336  87.910  26.587  1.00 21.45 LIG-0.27  OA
ATOM      3  N   LEU B   3      56.458  89.053  28.339  1.00 32.00 LIG-0.35  N 
ATOM      4 H    LEU B   3      56.217  89.782  28.726  1.00 32.00 LIG 0.16  HD
ENDROOT
BRANCH 1 5
ATOM      5  CA  ARG B   2      56.624  90.224  26.232  1.00 29.44 LIG 0.18  C 
BRANCH 5 6
ATOM      6  CB  ARG B   2      55.120  90.340  25.830  1.00 37.02 LIG 0.04  C 
BRANCH 6 7
ATOM      7  CG  ARG B   2      54.701  89.369  24.727  1.00 39.92 LIG 0.02  C 
BRANCH 7 8
ATOM      8  CD  ARG B   2      53.274  89.672  24.257  1.00 40.77 LIG 0.14  C 
BRANCH 8 9
ATOM      9  NE  ARG B   2      53.402  90.725  23.238  1.00 48.07 LIG-0.23  N 
ATOM     10 HE   ARG B   2      53.847  91.423  23.473  1.00 48.07 LIG 0.18  HD
ATOM     11  CZ  ARG B   2      52.914  90.736  21.989  1.00 44.36 LIG 0.67  C 
ATOM     12  NH1 ARG B   2      53.190  91.817  21.235  1.00 36.12 LIG-0.23  N 
ATOM     13  NH2 ARG B   2      52.183  89.713  21.488  1.00 39.61 LIG-0.23  N 
ATOM     14 1HH1 ARG B   2      53.660  92.459  21.560  1.00 36.12 LIG 0.17  HD
ATOM     15 2HH1 ARG B   2      52.897  91.864  20.429  1.00 36.12 LIG 0.17  HD
ATOM     16 1HH2 ARG B   2      52.017  89.025  21.976  1.00 39.61 LIG 0.17  HD
ATOM     17 2HH2 ARG B   2      51.885  89.753  20.683  1.00 39.61 LIG 0.17  HD
ENDBRANCH 8 9
ENDBRANCH 7 8
ENDBRANCH 6 7
ENDBRANCH 5 6
BRANCH 5 18
ATOM     18  N   ARG B   2      57.462  90.200  25.019  1.00 32.37 LIG-0.35  N 
ATOM     19 H    ARG B   2      57.251  89.619  24.422  1.00 32.37 LIG 0.16  HD
ATOM     20  C   ASN B   1      58.458  91.062  24.945  1.00 31.22 LIG 0.25  C 
ATOM     21 O    ASN B   1      58.710  91.802  25.872  1.00 24.61 LIG-0.27  OA
BRANCH 20 22
ATOM     22  CA  ASN B   1      59.341  91.106  23.709  1.00 32.89 LIG 0.28  C 
BRANCH 22 23
ATOM     23  CB  ASN B   1      58.906  92.337  22.912  1.00 38.07 LIG 0.14  C 
BRANCH 23 24
ATOM     24  CG  ASN B   1      58.891  92.092  21.456  1.00 44.05 LIG 0.22  C 
ATOM     25  ND2 ASN B   1      59.957  92.470  20.801  1.00 47.62 LIG-0.37  N 
ATOM     26 21HD ASN B   1      60.010  92.339  19.953  1.00 47.62 LIG 0.16  HD
ATOM     27 22HD ASN B   1      60.606  92.851  21.218  1.00 47.62 LIG 0.16  HD
ATOM     28 OD1  ASN B   1      57.927  91.539  20.909  1.00 47.48 LIG-0.27  OA
ENDBRANCH 23 24
ENDBRANCH 22 23
BRANCH 22 29
ATOM     29  N   ASN B   1      59.355  89.902  22.827  1.00 44.58 LIG-0.07  N 
ATOM     30 H1   ASN B   1      60.034  89.961  22.255  1.00 44.58 LIG 0.28  HD
ATOM     31 H3   ASN B   1      58.589  89.856  22.375  1.00 44.58 LIG 0.28  HD
ATOM     32 H2   ASN B   1      59.449  89.170  23.325  1.00 44.58 LIG 0.28  HD
ENDBRANCH 22 29
ENDBRANCH 20 22
ENDBRANCH 5 18
ENDBRANCH 1 5
BRANCH 3 33
ATOM     33  CA  LEU B   3      56.415  87.873  29.188  1.00 27.74 LIG 0.18  C 
BRANCH 33 34
ATOM     34  C   LEU B   3      55.216  87.884  30.052  1.00 25.40 LIG 0.24  C 
ATOM     35 O    LEU B   3      54.467  88.852  30.077  1.00 26.81 LIG-0.27  OA
ATOM     36  N   ILE B   4      54.999  86.814  30.778  1.00 26.13 LIG-0.35  N 
ATOM     37 H    ILE B   4      55.450  86.085  30.721  1.00 26.13 LIG 0.16  HD
BRANCH 36 38
ATOM     38  CA  ILE B   4      53.980  86.806  31.722  1.00 24.17 LIG 0.18  C 
BRANCH 38 39
ATOM     39  CB  ILE B   4      53.631  85.325  31.982  1.00 29.09 LIG 0.01  C 
ATOM     40  CG2 ILE B   4      52.938  85.241  33.299  1.00 25.20 LIG 0.01  C 
BRANCH 39 41
ATOM     41  CG1 ILE B   4      52.676  84.754  30.943  1.00 28.67 LIG 0.00  C 
ATOM     42  CD1 ILE B   4      51.767  83.698  31.522  1.00 34.41 LIG 0.01  C 
ENDBRANCH 39 41
ENDBRANCH 38 39
BRANCH 38 43
ATOM     43  C   ILE B   4      54.352  87.592  32.984  1.00 29.58 LIG 0.24  C 
ATOM     44  N   LEU B   5      53.388  88.356  33.482  1.00 36.70 LIG-0.35  N 
ATOM     45 H    LEU B   5      52.640  88.504  33.084  1.00 36.70 LIG 0.16  HD
ATOM     46 O    ILE B   4      55.510  87.523  33.500  1.00 23.70 LIG-0.27  OA
BRANCH 44 47
ATOM     47  CA  LEU B   5      53.521  89.010  34.759  1.00 37.00 LIG 0.16  C 
BRANCH 47 48
ATOM     48  C   LEU B   5      53.357  88.006  35.918  1.00 42.59 LIG 0.22  C 
ATOM     49 O    LEU B   5      54.337  87.671  36.635  1.00 38.80 LIG-0.29  OA
ENDBRANCH 47 48
BRANCH 47 50
ATOM     50  CB  LEU B   5      52.449  90.088  34.851  1.00 50.59 LIG 0.04  C 
BRANCH 50 51
ATOM     51  CG  LEU B   5      52.755  91.383  34.121  1.00 50.85 LIG-0.02  C 
ATOM     52  CD1 LEU B   5      51.642  91.644  33.131  1.00 54.07 LIG 0.01  C 
ATOM     53  CD2 LEU B   5      52.833  92.481  35.175  1.00 54.33 LIG 0.01  C 
ENDBRANCH 50 51
ENDBRANCH 47 50
ENDBRANCH 44 47
ENDBRANCH 38 43
ENDBRANCH 36 38
ENDBRANCH 33 34
BRANCH 33 54
ATOM     54  CB  LEU B   3      57.637  87.886  30.076  1.00 34.11 LIG 0.04  C 
BRANCH 54 55
ATOM     55  CG  LEU B   3      58.092  89.300  30.200  1.00 35.49 LIG-0.02  C 
ATOM     56  CD1 LEU B   3      57.862  89.750  31.629  1.00 39.12 LIG 0.01  C 
ATOM     57  CD2 LEU B   3      59.566  89.210  29.896  1.00 34.32 LIG 0.01  C 
ENDBRANCH 54 55
ENDBRANCH 33 54
ENDBRANCH 3 33
TORSDOF 22
ENDMDL
MODEL 49
USER: ADFR SOLUTION from run 147
USER: SCORE 17.863157 LL:  -3.610 LR: -15.965 RR:   0.000 FEB:  -9.402
USER: RMSD 4.656760
USER: SEED 146
USER: STATUS no improvement in best in 23 clusters for 5 generations
USER: GENES 24
USER: genes 0 Translation |==|  0.52561 0.47285 0.42086
USER: genes 1 Rotation |==|  0.52501 0.46576 0.48567 0.99799
USER: genes 2 Torsion [N]-C--CA-[N] |==|  0.09104
USER: genes 3 Torsion [C]-CA--CB-[CG] |==|  0.52400
USER: genes 4 Torsion [CA]-CB--CG-[CD] |==|  0.51802
USER: genes 5 Torsion [CB]-CG--CD-[NE] |==|  0.76266
USER: genes 6 Torsion [CG]-CD--NE-[HE] |==|  0.87567
USER: genes 7 Torsion [C]-CA--N-[C] |==|  0.69444
USER: genes 8 Torsion [N]-C--CA-[N] |==|  0.89050
USER: genes 9 Torsion [C]-CA--CB-[CG] |==|  0.58333
USER: genes 10 Torsion [CA]-CB--CG-[OD1] |==|  0.18102
USER: genes 11 Torsion [C]-CA--N-[H1] |==|  0.56411
USER: genes 12 Torsion [C]-N--CA-[CB] |==|  0.29909
USER: genes 13 Torsion [N]-CA--C-[N] |==|  0.43863
USER: genes 14 Torsion [C]-N--CA-[C] |==|  0.61663
USER: genes 15 Torsion [N]-CA--CB-[CG1] |==|  0.48401
USER: genes 16 Torsion [CA]-CB--CG1-[CD1] |==|  0.31502
USER: genes 17 Torsion [N]-CA--C-[N] |==|  0.44069
USER: genes 18 Torsion [C]-N--CA-[C] |==|  0.76264
USER: genes 19 Torsion [N]-CA--C-[O] |==|  0.00861
USER: genes 20 Torsion [N]-CA--CB-[CG] |==|  0.57875
USER: genes 21 Torsion [CA]-CB--CG-[CD1] |==|  0.19281
USER: genes 22 Torsion [N]-CA--CB-[CG] |==|  0.07127
USER: genes 23 Torsion [CA]-CB--CG-[CD1] |==|  0.27953
ROOT
ATOM      1  C   ARG B   2      57.545  86.468  28.033  1.00 25.54 LIG 0.24  C 
ATOM      2 O    ARG B   2      57.768  85.295  28.468  1.00 21.45 LIG-0.27  OA
ATOM      3  N   LEU B   3      57.226  87.466  28.842  1.00 32.00 LIG-0.35  N 
ATOM      4 H    LEU B   3      57.171  88.288  28.597  1.00 32.00 LIG 0.16  HD
ENDROOT
BRANCH 1 5
ATOM      5  CA  ARG B   2      57.596  86.803  26.549  1.00 29.44 LIG 0.18  C 
BRANCH 5 6
ATOM      6  CB  ARG B   2      58.559  85.819  25.813  1.00 37.02 LIG 0.04  C 
BRANCH 6 7
ATOM      7  CG  ARG B   2      58.839  86.203  24.360  1.00 39.92 LIG 0.02  C 
BRANCH 7 8
ATOM      8  CD  ARG B   2      59.657  85.110  23.663  1.00 40.77 LIG 0.14  C 
BRANCH 8 9
ATOM      9  NE  ARG B   2      61.064  85.401  23.974  1.00 48.07 LIG-0.23  N 
ATOM     10 HE   ARG B   2      61.302  86.224  23.899  1.00 48.07 LIG 0.18  HD
ATOM     11  CZ  ARG B   2      62.023  84.547  24.359  1.00 44.36 LIG 0.67  C 
ATOM     12  NH1 ARG B   2      63.239  85.067  24.608  1.00 36.12 LIG-0.23  N 
ATOM     13  NH2 ARG B   2      61.797  83.221  24.504  1.00 39.61 LIG-0.23  N 
ATOM     14 1HH1 ARG B   2      63.373  85.912  24.518  1.00 36.12 LIG 0.17  HD
ATOM     15 2HH1 ARG B   2      63.883  84.555  24.857  1.00 36.12 LIG 0.17  HD
ATOM     16 1HH2 ARG B   2      61.015  82.899  24.348  1.00 39.61 LIG 0.17  HD
ATOM     17 2HH2 ARG B   2      62.435  82.700  24.752  1.00 39.61 LIG 0.17  HD
ENDBRANCH 8 9
ENDBRANCH 7 8
ENDBRANCH 6 7
ENDBRANCH 5 6
BRANCH 5 18
ATOM     18  N   ARG B   2      58.043  88.192  26.332  1.00 32.37 LIG-0.35  N 
ATOM     19 H    ARG B   2      58.868  88.358  26.510  1.00 32.37 LIG 0.16  HD
ATOM     20  C   ASN B   1      57.156  89.061  25.889  1.00 31.22 LIG 0.25  C 
ATOM     21 O    ASN B   1      55.998  88.738  25.727  1.00 24.61 LIG-0.27  OA
BRANCH 20 22
ATOM     22  CA  ASN B   1      57.562  90.499  25.619  1.00 32.89 LIG 0.28  C 
BRANCH 22 23
ATOM     23  CB  ASN B   1      58.149  90.525  24.207  1.00 38.07 LIG 0.14  C 
BRANCH 23 24
ATOM     24  CG  ASN B   1      59.181  91.568  24.043  1.00 44.05 LIG 0.22  C 
ATOM     25  ND2 ASN B   1      58.883  92.544  23.227  1.00 47.62 LIG-0.37  N 
ATOM     26 21HD ASN B   1      59.441  93.187  23.104  1.00 47.62 LIG 0.16  HD
ATOM     27 22HD ASN B   1      58.130  92.544  22.813  1.00 47.62 LIG 0.16  HD
ATOM     28 OD1  ASN B   1      60.250  91.515  24.667  1.00 47.48 LIG-0.27  OA
ENDBRANCH 23 24
ENDBRANCH 22 23
BRANCH 22 29
ATOM     29  N   ASN B   1      58.506  91.142  26.580  1.00 44.58 LIG-0.07  N 
ATOM     30 H1   ASN B   1      58.418  92.026  26.537  1.00 44.58 LIG 0.28  HD
ATOM     31 H3   ASN B   1      59.341  90.917  26.371  1.00 44.58 LIG 0.28  HD
ATOM     32 H2   ASN B   1      58.322  90.865  27.406  1.00 44.58 LIG 0.28  HD
ENDBRANCH 22 29
ENDBRANCH 20 22
ENDBRANCH 5 18
ENDBRANCH 1 5
BRANCH 3 33
ATOM     33  CA  LEU B   3      56.938  87.232  30.249  1.00 27.74 LIG 0.18  C 
BRANCH 33 34
ATOM     34  C   LEU B   3      55.714  87.949  30.666  1.00 25.40 LIG 0.24  C 
ATOM     35 O    LEU B   3      55.306  88.916  30.036  1.00 26.81 LIG-0.27  OA
ATOM     36  N   ILE B   4      55.097  87.497  31.731  1.00 26.13 LIG-0.35  N 
ATOM     37 H    ILE B   4      55.302  86.771  32.144  1.00 26.13 LIG 0.16  HD
BRANCH 36 38
ATOM     38  CA  ILE B   4      54.029  88.202  32.270  1.00 24.17 LIG 0.18  C 
BRANCH 38 39
ATOM     39  CB  ILE B   4      52.745  87.562  31.700  1.00 29.09 LIG 0.01  C 
ATOM     40  CG2 ILE B   4      52.765  86.111  32.040  1.00 25.20 LIG 0.01  C 
BRANCH 39 41
ATOM     41  CG1 ILE B   4      51.476  88.141  32.312  1.00 28.67 LIG 0.00  C 
ATOM     42  CD1 ILE B   4      50.658  88.912  31.305  1.00 34.41 LIG 0.01  C 
ENDBRANCH 39 41
ENDBRANCH 38 39
BRANCH 38 43
ATOM     43  C   ILE B   4      54.079  88.249  33.801  1.00 29.58 LIG 0.24  C 
ATOM     44  N   LEU B   5      53.388  89.233  34.362  1.00 36.70 LIG-0.35  N 
ATOM     45 H    LEU B   5      53.025  89.876  33.921  1.00 36.70 LIG 0.16  HD
ATOM     46 O    ILE B   4      54.750  87.409  34.476  1.00 23.70 LIG-0.27  OA
BRANCH 44 47
ATOM     47  CA  LEU B   5      53.188  89.303  35.788  1.00 37.00 LIG 0.16  C 
BRANCH 47 48
ATOM     48  C   LEU B   5      51.968  88.465  36.219  1.00 42.59 LIG 0.22  C 
ATOM     49 O    LEU B   5      51.317  87.782  35.384  1.00 38.80 LIG-0.29  OA
ENDBRANCH 47 48
BRANCH 47 50
ATOM     50  CB  LEU B   5      52.973  90.764  36.162  1.00 50.59 LIG 0.04  C 
BRANCH 50 51
ATOM     51  CG  LEU B   5      53.399  91.152  37.565  1.00 50.85 LIG-0.02  C 
ATOM     52  CD1 LEU B   5      54.909  91.096  37.635  1.00 54.07 LIG 0.01  C 
ATOM     53  CD2 LEU B   5      52.882  92.564  37.814  1.00 54.33 LIG 0.01  C 
ENDBRANCH 50 51
ENDBRANCH 47 50
ENDBRANCH 44 47
ENDBRANCH 38 43
ENDBRANCH 36 38
ENDBRANCH 33 34
BRANCH 33 54
ATOM     54  CB  LEU B   3      58.096  87.761  31.062  1.00 34.11 LIG 0.04  C 
BRANCH 54 55
ATOM     55  CG  LEU B   3      58.757  88.833  30.264  1.00 35.49 LIG-0.02  C 
ATOM     56  CD1 LEU B   3      58.291  90.175  30.793  1.00 39.12 LIG 0.01  C 
ATOM     57  CD2 LEU B   3      60.221  88.619  30.558  1.00 34.32 LIG 0.01  C 
ENDBRANCH 54 55
ENDBRANCH 33 54
ENDBRANCH 3 33
TORSDOF 22
ENDMDL
MODEL 50
USER: ADFR SOLUTION from run 97
USER: SCORE 18.032993 LL:  -3.575 LR: -15.946 RR:   0.000 FEB:  -9.384
USER: RMSD 3.750488
USER: SEED 96
USER: STATUS no improvement in best in 16 clusters for 5 generations
USER: GENES 24
USER: genes 0 Translation |==|  0.49012 0.46238 0.39301
USER: genes 1 Rotation |==|  0.53009 0.48245 0.43015 0.99387
USER: genes 2 Torsion [N]-C--CA-[N] |==|  0.39672
USER: genes 3 Torsion [C]-CA--CB-[CG] |==|  0.22080
USER: genes 4 Torsion [CA]-CB--CG-[CD] |==|  0.45457
USER: genes 5 Torsion [CB]-CG--CD-[NE] |==|  0.75267
USER: genes 6 Torsion [CG]-CD--NE-[HE] |==|  0.29175
USER: genes 7 Torsion [C]-CA--N-[C] |==|  0.76457
USER: genes 8 Torsion [N]-C--CA-[N] |==|  0.49588
USER: genes 9 Torsion [C]-CA--CB-[CG] |==|  0.26781
USER: genes 10 Torsion [CA]-CB--CG-[OD1] |==|  0.23228
USER: genes 11 Torsion [C]-CA--N-[H1] |==|  0.35724
USER: genes 12 Torsion [C]-N--CA-[CB] |==|  0.46438
USER: genes 13 Torsion [N]-CA--C-[N] |==|  0.52400
USER: genes 14 Torsion [C]-N--CA-[C] |==|  0.82167
USER: genes 15 Torsion [N]-CA--CB-[CG1] |==|  0.10027
USER: genes 16 Torsion [CA]-CB--CG1-[CD1] |==|  0.36751
USER: genes 17 Torsion [N]-CA--C-[N] |==|  0.46111
USER: genes 18 Torsion [C]-N--CA-[C] |==|  0.89578
USER: genes 19 Torsion [N]-CA--C-[O] |==|  0.40142
USER: genes 20 Torsion [N]-CA--CB-[CG] |==|  0.01877
USER: genes 21 Torsion [CA]-CB--CG-[CD1] |==|  0.36681
USER: genes 22 Torsion [N]-CA--CB-[CG] |==|  0.81525
USER: genes 23 Torsion [CA]-CB--CG-[CD1] |==|  0.40413
ROOT
ATOM      1  C   ARG B   2      56.799  86.272  27.427  1.00 25.54 LIG 0.24  C 
ATOM      2 O    ARG B   2      56.793  85.059  27.808  1.00 21.45 LIG-0.27  OA
ATOM      3  N   LEU B   3      56.763  87.276  28.289  1.00 32.00 LIG-0.35  N 
ATOM      4 H    LEU B   3      56.870  88.102  28.073  1.00 32.00 LIG 0.16  HD
ENDROOT
BRANCH 1 5
ATOM      5  CA  ARG B   2      56.816  86.656  25.954  1.00 29.44 LIG 0.18  C 
BRANCH 5 6
ATOM      6  CB  ARG B   2      55.366  86.624  25.379  1.00 37.02 LIG 0.04  C 
BRANCH 6 7
ATOM      7  CG  ARG B   2      54.539  87.862  25.724  1.00 39.92 LIG 0.02  C 
BRANCH 7 8
ATOM      8  CD  ARG B   2      53.307  87.956  24.816  1.00 40.77 LIG 0.14  C 
BRANCH 8 9
ATOM      9  NE  ARG B   2      53.736  88.719  23.634  1.00 48.07 LIG-0.23  N 
ATOM     10 HE   ARG B   2      53.862  88.261  22.917  1.00 48.07 LIG 0.18  HD
ATOM     11  CZ  ARG B   2      53.957  90.037  23.532  1.00 44.36 LIG 0.67  C 
ATOM     12  NH1 ARG B   2      54.325  90.503  22.324  1.00 36.12 LIG-0.23  N 
ATOM     13  NH2 ARG B   2      53.813  90.879  24.582  1.00 39.61 LIG-0.23  N 
ATOM     14 1HH1 ARG B   2      54.409  89.961  21.661  1.00 36.12 LIG 0.17  HD
ATOM     15 2HH1 ARG B   2      54.476  91.342  22.214  1.00 36.12 LIG 0.17  HD
ATOM     16 1HH2 ARG B   2      53.572  90.573  25.348  1.00 39.61 LIG 0.17  HD
ATOM     17 2HH2 ARG B   2      53.963  91.720  24.482  1.00 39.61 LIG 0.17  HD
ENDBRANCH 8 9
ENDBRANCH 7 8
ENDBRANCH 6 7
ENDBRANCH 5 6
BRANCH 5 18
ATOM     18  N   ARG B   2      57.681  85.749  25.177  1.00 32.37 LIG-0.35  N 
ATOM     19 H    ARG B   2      57.289  85.089  24.791  1.00 32.37 LIG 0.16  HD
ATOM     20  C   ASN B   1      58.972  86.016  25.136  1.00 31.22 LIG 0.25  C 
ATOM     21 O    ASN B   1      59.434  86.940  25.769  1.00 24.61 LIG-0.27  OA
BRANCH 20 22
ATOM     22  CA  ASN B   1      59.910  85.135  24.329  1.00 32.89 LIG 0.28  C 
BRANCH 22 23
ATOM     23  CB  ASN B   1      59.748  83.716  24.878  1.00 38.07 LIG 0.14  C 
BRANCH 23 24
ATOM     24  CG  ASN B   1      58.801  82.908  24.084  1.00 44.05 LIG 0.22  C 
ATOM     25  ND2 ASN B   1      57.570  82.874  24.522  1.00 47.62 LIG-0.37  N 
ATOM     26 21HD ASN B   1      56.972  82.431  24.092  1.00 47.62 LIG 0.16  HD
ATOM     27 22HD ASN B   1      57.358  83.295  25.241  1.00 47.62 LIG 0.16  HD
ATOM     28 OD1  ASN B   1      59.166  82.321  23.055  1.00 47.48 LIG-0.27  OA
ENDBRANCH 23 24
ENDBRANCH 22 23
BRANCH 22 29
ATOM     29  N   ASN B   1      61.353  85.512  24.297  1.00 44.58 LIG-0.07  N 
ATOM     30 H1   ASN B   1      61.850  84.806  24.513  1.00 44.58 LIG 0.28  HD
ATOM     31 H3   ASN B   1      61.502  86.168  24.880  1.00 44.58 LIG 0.28  HD
ATOM     32 H2   ASN B   1      61.570  85.787  23.479  1.00 44.58 LIG 0.28  HD
ENDBRANCH 22 29
ENDBRANCH 20 22
ENDBRANCH 5 18
ENDBRANCH 1 5
BRANCH 3 33
ATOM     33  CA  LEU B   3      56.532  87.045  29.706  1.00 27.74 LIG 0.18  C 
BRANCH 33 34
ATOM     34  C   LEU B   3      55.116  86.710  29.965  1.00 25.40 LIG 0.24  C 
ATOM     35 O    LEU B   3      54.341  86.498  29.042  1.00 26.81 LIG-0.27  OA
ATOM     36  N   ILE B   4      54.741  86.650  31.220  1.00 26.13 LIG-0.35  N 
ATOM     37 H    ILE B   4      55.274  86.704  31.893  1.00 26.13 LIG 0.16  HD
BRANCH 36 38
ATOM     38  CA  ILE B   4      53.400  86.488  31.541  1.00 24.17 LIG 0.18  C 
BRANCH 38 39
ATOM     39  CB  ILE B   4      53.340  86.207  33.058  1.00 29.09 LIG 0.01  C 
ATOM     40  CG2 ILE B   4      53.631  84.760  33.269  1.00 25.20 LIG 0.01  C 
BRANCH 39 41
ATOM     41  CG1 ILE B   4      54.384  86.987  33.844  1.00 28.67 LIG 0.00  C 
ATOM     42  CD1 ILE B   4      53.795  87.670  35.054  1.00 34.41 LIG 0.01  C 
ENDBRANCH 39 41
ENDBRANCH 38 39
BRANCH 38 43
ATOM     43  C   ILE B   4      52.548  87.679  31.091  1.00 29.58 LIG 0.24  C 
ATOM     44  N   LEU B   5      51.237  87.474  31.098  1.00 36.70 LIG-0.35  N 
ATOM     45 H    LEU B   5      50.872  86.708  31.232  1.00 36.70 LIG 0.16  HD
ATOM     46 O    ILE B   4      53.070  88.776  30.723  1.00 23.70 LIG-0.27  OA
BRANCH 44 47
ATOM     47  CA  LEU B   5      50.300  88.548  30.879  1.00 37.00 LIG 0.16  C 
BRANCH 47 48
ATOM     48  C   LEU B   5      50.785  89.853  31.540  1.00 42.59 LIG 0.22  C 
ATOM     49 O    LEU B   5      50.574  90.974  31.005  1.00 38.80 LIG-0.29  OA
ENDBRANCH 47 48
BRANCH 47 50
ATOM     50  CB  LEU B   5      48.960  88.132  31.473  1.00 50.59 LIG 0.04  C 
BRANCH 50 51
ATOM     51  CG  LEU B   5      48.964  86.835  32.259  1.00 50.85 LIG-0.02  C 
ATOM     52  CD1 LEU B   5      48.252  87.075  33.572  1.00 54.07 LIG 0.01  C 
ATOM     53  CD2 LEU B   5      48.236  85.797  31.412  1.00 54.33 LIG 0.01  C 
ENDBRANCH 50 51
ENDBRANCH 47 50
ENDBRANCH 44 47
ENDBRANCH 38 43
ENDBRANCH 36 38
ENDBRANCH 33 34
BRANCH 33 54
ATOM     54  CB  LEU B   3      56.861  88.317  30.452  1.00 34.11 LIG 0.04  C 
BRANCH 54 55
ATOM     55  CG  LEU B   3      58.327  88.552  30.322  1.00 35.49 LIG-0.02  C 
ATOM     56  CD1 LEU B   3      58.564  90.048  30.249  1.00 39.12 LIG 0.01  C 
ATOM     57  CD2 LEU B   3      58.876  87.984  31.607  1.00 34.32 LIG 0.01  C 
ENDBRANCH 54 55
ENDBRANCH 33 54
ENDBRANCH 3 33
TORSDOF 22
ENDMDL
MODEL 51
USER: ADFR SOLUTION from run 20
USER: SCORE 18.762604 LL:  -3.284 LR: -15.934 RR:   0.000 FEB:  -9.371
USER: RMSD 4.650275
USER: SEED 19
USER: STATUS no improvement in best in 12 clusters for 5 generations
USER: GENES 24
USER: genes 0 Translation |==|  0.50069 0.41616 0.31550
USER: genes 1 Rotation |==|  0.26759 0.52655 0.62184 0.92478
USER: genes 2 Torsion [N]-C--CA-[N] |==|  0.42972
USER: genes 3 Torsion [C]-CA--CB-[CG] |==|  0.33319
USER: genes 4 Torsion [CA]-CB--CG-[CD] |==|  0.68699
USER: genes 5 Torsion [CB]-CG--CD-[NE] |==|  0.65373
USER: genes 6 Torsion [CG]-CD--NE-[HE] |==|  0.91364
USER: genes 7 Torsion [C]-CA--N-[C] |==|  0.83057
USER: genes 8 Torsion [N]-C--CA-[N] |==|  0.99798
USER: genes 9 Torsion [C]-CA--CB-[CG] |==|  0.25229
USER: genes 10 Torsion [CA]-CB--CG-[OD1] |==|  0.21780
USER: genes 11 Torsion [C]-CA--N-[H1] |==|  0.20862
USER: genes 12 Torsion [C]-N--CA-[CB] |==|  0.56667
USER: genes 13 Torsion [N]-CA--C-[N] |==|  0.37021
USER: genes 14 Torsion [C]-N--CA-[C] |==|  0.84678
USER: genes 15 Torsion [N]-CA--CB-[CG1] |==|  0.13095
USER: genes 16 Torsion [CA]-CB--CG1-[CD1] |==|  0.68559
USER: genes 17 Torsion [N]-CA--C-[N] |==|  0.35579
USER: genes 18 Torsion [C]-N--CA-[C] |==|  0.77017
USER: genes 19 Torsion [N]-CA--C-[O] |==|  0.96387
USER: genes 20 Torsion [N]-CA--CB-[CG] |==|  0.69489
USER: genes 21 Torsion [CA]-CB--CG-[CD1] |==|  0.52633
USER: genes 22 Torsion [N]-CA--CB-[CG] |==|  0.65884
USER: genes 23 Torsion [CA]-CB--CG-[CD1] |==|  0.98429
ROOT
ATOM      1  C   ARG B   2      57.021  85.405  25.741  1.00 25.54 LIG 0.24  C 
ATOM      2 O    ARG B   2      57.776  85.452  26.763  1.00 21.45 LIG-0.27  OA
ATOM      3  N   LEU B   3      56.192  86.391  25.438  1.00 32.00 LIG-0.35  N 
ATOM      4 H    LEU B   3      55.746  86.439  24.704  1.00 32.00 LIG 0.16  HD
ENDROOT
BRANCH 1 5
ATOM      5  CA  ARG B   2      56.994  84.200  24.811  1.00 29.44 LIG 0.18  C 
BRANCH 5 6
ATOM      6  CB  ARG B   2      55.837  83.236  25.223  1.00 37.02 LIG 0.04  C 
BRANCH 6 7
ATOM      7  CG  ARG B   2      54.800  83.015  24.121  1.00 39.92 LIG 0.02  C 
BRANCH 7 8
ATOM      8  CD  ARG B   2      53.453  83.630  24.520  1.00 40.77 LIG 0.14  C 
BRANCH 8 9
ATOM      9  NE  ARG B   2      52.470  82.541  24.423  1.00 48.07 LIG-0.23  N 
ATOM     10 HE   ARG B   2      52.629  81.944  23.826  1.00 48.07 LIG 0.18  HD
ATOM     11  CZ  ARG B   2      51.357  82.361  25.148  1.00 44.36 LIG 0.67  C 
ATOM     12  NH1 ARG B   2      50.626  81.262  24.883  1.00 36.12 LIG-0.23  N 
ATOM     13  NH2 ARG B   2      50.973  83.229  26.113  1.00 39.61 LIG-0.23  N 
ATOM     14 1HH1 ARG B   2      50.881  80.714  24.271  1.00 36.12 LIG 0.17  HD
ATOM     15 2HH1 ARG B   2      49.905  81.108  25.325  1.00 36.12 LIG 0.17  HD
ATOM     16 1HH2 ARG B   2      51.449  83.925  26.280  1.00 39.61 LIG 0.17  HD
ATOM     17 2HH2 ARG B   2      50.252  83.084  26.560  1.00 39.61 LIG 0.17  HD
ENDBRANCH 8 9
ENDBRANCH 7 8
ENDBRANCH 6 7
ENDBRANCH 5 6
BRANCH 5 18
ATOM     18  N   ARG B   2      58.278  83.476  24.840  1.00 32.37 LIG-0.35  N 
ATOM     19 H    ARG B   2      58.249  82.659  25.105  1.00 32.37 LIG 0.16  HD
ATOM     20  C   ASN B   1      59.360  84.130  24.463  1.00 31.22 LIG 0.25  C 
ATOM     21 O    ASN B   1      59.303  85.304  24.164  1.00 24.61 LIG-0.27  OA
BRANCH 20 22
ATOM     22  CA  ASN B   1      60.709  83.431  24.444  1.00 32.89 LIG 0.28  C 
BRANCH 22 23
ATOM     23  CB  ASN B   1      61.242  83.563  23.017  1.00 38.07 LIG 0.14  C 
BRANCH 23 24
ATOM     24  CG  ASN B   1      62.068  84.774  22.831  1.00 44.05 LIG 0.22  C 
ATOM     25  ND2 ASN B   1      61.476  85.788  22.258  1.00 47.62 LIG-0.37  N 
ATOM     26 21HD ASN B   1      61.903  86.524  22.138  1.00 47.62 LIG 0.16  HD
ATOM     27 22HD ASN B   1      60.658  85.720  22.000  1.00 47.62 LIG 0.16  HD
ATOM     28 OD1  ASN B   1      63.243  84.814  23.223  1.00 47.48 LIG-0.27  OA
ENDBRANCH 23 24
ENDBRANCH 22 23
BRANCH 22 29
ATOM     29  N   ASN B   1      60.753  82.005  24.879  1.00 44.58 LIG-0.07  N 
ATOM     30 H1   ASN B   1      60.415  81.487  24.238  1.00 44.58 LIG 0.28  HD
ATOM     31 H3   ASN B   1      60.274  81.906  25.623  1.00 44.58 LIG 0.28  HD
ATOM     32 H2   ASN B   1      61.597  81.768  25.036  1.00 44.58 LIG 0.28  HD
ENDBRANCH 22 29
ENDBRANCH 20 22
ENDBRANCH 5 18
ENDBRANCH 1 5
BRANCH 3 33
ATOM     33  CA  LEU B   3      55.969  87.498  26.356  1.00 27.74 LIG 0.18  C 
BRANCH 33 34
ATOM     34  C   LEU B   3      55.959  87.030  27.758  1.00 25.40 LIG 0.24  C 
ATOM     35 O    LEU B   3      55.319  86.039  28.086  1.00 26.81 LIG-0.27  OA
ATOM     36  N   ILE B   4      56.666  87.722  28.618  1.00 26.13 LIG-0.35  N 
ATOM     37 H    ILE B   4      57.197  88.366  28.410  1.00 26.13 LIG 0.16  HD
BRANCH 36 38
ATOM     38  CA  ILE B   4      56.591  87.435  29.975  1.00 24.17 LIG 0.18  C 
BRANCH 38 39
ATOM     39  CB  ILE B   4      57.552  88.411  30.687  1.00 29.09 LIG 0.01  C 
ATOM     40  CG2 ILE B   4      58.947  88.005  30.353  1.00 25.20 LIG 0.01  C 
BRANCH 39 41
ATOM     41  CG1 ILE B   4      57.386  89.850  30.217  1.00 28.67 LIG 0.00  C 
ATOM     42  CD1 ILE B   4      58.598  90.350  29.472  1.00 34.41 LIG 0.01  C 
ENDBRANCH 39 41
ENDBRANCH 38 39
BRANCH 38 43
ATOM     43  C   ILE B   4      55.151  87.482  30.498  1.00 29.58 LIG 0.24  C 
ATOM     44  N   LEU B   5      54.756  86.407  31.169  1.00 36.70 LIG-0.35  N 
ATOM     45 H    LEU B   5      55.213  85.682  31.224  1.00 36.70 LIG 0.16  HD
ATOM     46 O    ILE B   4      54.392  88.476  30.284  1.00 23.70 LIG-0.27  OA
BRANCH 44 47
ATOM     47  CA  LEU B   5      53.500  86.374  31.877  1.00 37.00 LIG 0.16  C 
BRANCH 47 48
ATOM     48  C   LEU B   5      53.629  87.026  33.268  1.00 42.59 LIG 0.22  C 
ATOM     49 O    LEU B   5      54.757  87.286  33.766  1.00 38.80 LIG-0.29  OA
ENDBRANCH 47 48
BRANCH 47 50
ATOM     50  CB  LEU B   5      53.081  84.917  32.023  1.00 50.59 LIG 0.04  C 
BRANCH 50 51
ATOM     51  CG  LEU B   5      51.885  84.491  31.194  1.00 50.85 LIG-0.02  C 
ATOM     52  CD1 LEU B   5      51.471  83.104  31.636  1.00 54.07 LIG 0.01  C 
ATOM     53  CD2 LEU B   5      50.780  85.509  31.447  1.00 54.33 LIG 0.01  C 
ENDBRANCH 50 51
ENDBRANCH 47 50
ENDBRANCH 44 47
ENDBRANCH 38 43
ENDBRANCH 36 38
ENDBRANCH 33 34
BRANCH 33 54
ATOM     54  CB  LEU B   3      54.619  88.100  26.050  1.00 34.11 LIG 0.04  C 
BRANCH 54 55
ATOM     55  CG  LEU B   3      54.826  89.544  25.742  1.00 35.49 LIG-0.02  C 
ATOM     56  CD1 LEU B   3      56.283  89.879  25.992  1.00 39.12 LIG 0.01  C 
ATOM     57  CD2 LEU B   3      54.500  89.628  24.272  1.00 34.32 LIG 0.01  C 
ENDBRANCH 54 55
ENDBRANCH 33 54
ENDBRANCH 3 33
TORSDOF 22
ENDMDL
MODEL 52
USER: ADFR SOLUTION from run 169
USER: SCORE 18.953751 LL:  -3.972 LR: -15.865 RR:   0.000 FEB:  -9.302
USER: RMSD 2.527046
USER: SEED 168
USER: STATUS no improvement in best in 20 clusters for 5 generations
USER: GENES 24
USER: genes 0 Translation |==|  0.48520 0.42627 0.38272
USER: genes 1 Rotation |==|  0.44680 0.45395 0.43111 0.99021
USER: genes 2 Torsion [N]-C--CA-[N] |==|  0.34257
USER: genes 3 Torsion [C]-CA--CB-[CG] |==|  0.15808
USER: genes 4 Torsion [CA]-CB--CG-[CD] |==|  0.42072
USER: genes 5 Torsion [CB]-CG--CD-[NE] |==|  0.27171
USER: genes 6 Torsion [CG]-CD--NE-[HE] |==|  0.18110
USER: genes 7 Torsion [C]-CA--N-[C] |==|  0.78282
USER: genes 8 Torsion [N]-C--CA-[N] |==|  0.95733
USER: genes 9 Torsion [C]-CA--CB-[CG] |==|  0.47126
USER: genes 10 Torsion [CA]-CB--CG-[OD1] |==|  0.06305
USER: genes 11 Torsion [C]-CA--N-[H1] |==|  0.19157
USER: genes 12 Torsion [C]-N--CA-[CB] |==|  0.48912
USER: genes 13 Torsion [N]-CA--C-[N] |==|  0.42163
USER: genes 14 Torsion [C]-N--CA-[C] |==|  0.79046
USER: genes 15 Torsion [N]-CA--CB-[CG1] |==|  0.54246
USER: genes 16 Torsion [CA]-CB--CG1-[CD1] |==|  0.18635
USER: genes 17 Torsion [N]-CA--C-[N] |==|  0.45883
USER: genes 18 Torsion [C]-N--CA-[C] |==|  0.52472
USER: genes 19 Torsion [N]-CA--C-[O] |==|  0.94190
USER: genes 20 Torsion [N]-CA--CB-[CG] |==|  0.64113
USER: genes 21 Torsion [CA]-CB--CG-[CD1] |==|  0.69051
USER: genes 22 Torsion [N]-CA--CB-[CG] |==|  0.62716
USER: genes 23 Torsion [CA]-CB--CG-[CD1] |==|  0.74212
ROOT
ATOM      1  C   ARG B   2      56.696  85.595  27.203  1.00 25.54 LIG 0.24  C 
ATOM      2 O    ARG B   2      56.632  84.583  27.970  1.00 21.45 LIG-0.27  OA
ATOM      3  N   LEU B   3      56.634  86.832  27.670  1.00 32.00 LIG-0.35  N 
ATOM      4 H    LEU B   3      56.778  87.535  27.195  1.00 32.00 LIG 0.16  HD
ENDROOT
BRANCH 1 5
ATOM      5  CA  ARG B   2      56.816  85.456  25.692  1.00 29.44 LIG 0.18  C 
BRANCH 5 6
ATOM      6  CB  ARG B   2      55.541  84.763  25.117  1.00 37.02 LIG 0.04  C 
BRANCH 6 7
ATOM      7  CG  ARG B   2      54.240  85.488  25.460  1.00 39.92 LIG 0.02  C 
BRANCH 7 8
ATOM      8  CD  ARG B   2      53.185  85.240  24.375  1.00 40.77 LIG 0.14  C 
BRANCH 8 9
ATOM      9  NE  ARG B   2      52.335  84.152  24.882  1.00 48.07 LIG-0.23  N 
ATOM     10 HE   ARG B   2      51.875  84.333  25.586  1.00 48.07 LIG 0.18  HD
ATOM     11  CZ  ARG B   2      52.187  82.915  24.388  1.00 44.36 LIG 0.67  C 
ATOM     12  NH1 ARG B   2      51.324  82.102  25.025  1.00 36.12 LIG-0.23  N 
ATOM     13  NH2 ARG B   2      52.860  82.487  23.294  1.00 39.61 LIG-0.23  N 
ATOM     14 1HH1 ARG B   2      50.897  82.385  25.716  1.00 36.12 LIG 0.17  HD
ATOM     15 2HH1 ARG B   2      51.199  81.301  24.741  1.00 36.12 LIG 0.17  HD
ATOM     16 1HH2 ARG B   2      53.405  83.015  22.891  1.00 39.61 LIG 0.17  HD
ATOM     17 2HH2 ARG B   2      52.742  81.686  23.003  1.00 39.61 LIG 0.17  HD
ENDBRANCH 8 9
ENDBRANCH 7 8
ENDBRANCH 6 7
ENDBRANCH 5 6
BRANCH 5 18
ATOM     18  N   ARG B   2      58.014  84.680  25.322  1.00 32.37 LIG-0.35  N 
ATOM     19 H    ARG B   2      57.883  83.860  25.100  1.00 32.37 LIG 0.16  HD
ATOM     20  C   ASN B   1      59.180  85.295  25.361  1.00 31.22 LIG 0.25  C 
ATOM     21 O    ASN B   1      59.265  86.441  25.748  1.00 24.61 LIG-0.27  OA
BRANCH 20 22
ATOM     22  CA  ASN B   1      60.448  84.557  24.964  1.00 32.89 LIG 0.28  C 
BRANCH 22 23
ATOM     23  CB  ASN B   1      60.885  85.143  23.620  1.00 38.07 LIG 0.14  C 
BRANCH 23 24
ATOM     24  CG  ASN B   1      62.236  84.697  23.223  1.00 44.05 LIG 0.22  C 
ATOM     25  ND2 ASN B   1      62.874  85.477  22.390  1.00 47.62 LIG-0.37  N 
ATOM     26 21HD ASN B   1      63.670  85.275  22.136  1.00 47.62 LIG 0.16  HD
ATOM     27 22HD ASN B   1      62.499  86.192  22.097  1.00 47.62 LIG 0.16  HD
ATOM     28 OD1  ASN B   1      62.726  83.654  23.678  1.00 47.48 LIG-0.27  OA
ENDBRANCH 23 24
ENDBRANCH 22 23
BRANCH 22 29
ATOM     29  N   ASN B   1      60.382  83.069  24.879  1.00 44.58 LIG-0.07  N 
ATOM     30 H1   ASN B   1      59.873  82.833  24.188  1.00 44.58 LIG 0.28  HD
ATOM     31 H3   ASN B   1      60.032  82.744  25.630  1.00 44.58 LIG 0.28  HD
ATOM     32 H2   ASN B   1      61.203  82.741  24.768  1.00 44.58 LIG 0.28  HD
ENDBRANCH 22 29
ENDBRANCH 20 22
ENDBRANCH 5 18
ENDBRANCH 1 5
BRANCH 3 33
ATOM     33  CA  LEU B   3      56.308  87.097  29.062  1.00 27.74 LIG 0.18  C 
BRANCH 33 34
ATOM     34  C   LEU B   3      54.925  86.676  29.373  1.00 25.40 LIG 0.24  C 
ATOM     35 O    LEU B   3      54.062  86.664  28.505  1.00 26.81 LIG-0.27  OA
ATOM     36  N   ILE B   4      54.678  86.319  30.609  1.00 26.13 LIG-0.35  N 
ATOM     37 H    ILE B   4      55.276  86.230  31.221  1.00 26.13 LIG 0.16  HD
BRANCH 36 38
ATOM     38  CA  ILE B   4      53.376  86.054  31.013  1.00 24.17 LIG 0.18  C 
BRANCH 38 39
ATOM     39  CB  ILE B   4      53.476  85.177  32.279  1.00 29.09 LIG 0.01  C 
ATOM     40  CG2 ILE B   4      53.825  86.063  33.425  1.00 25.20 LIG 0.01  C 
BRANCH 39 41
ATOM     41  CG1 ILE B   4      52.160  84.497  32.631  1.00 28.67 LIG 0.00  C 
ATOM     42  CD1 ILE B   4      51.758  83.465  31.606  1.00 34.41 LIG 0.01  C 
ENDBRANCH 39 41
ENDBRANCH 38 39
BRANCH 38 43
ATOM     43  C   ILE B   4      52.556  87.334  31.201  1.00 29.58 LIG 0.24  C 
ATOM     44  N   LEU B   5      51.242  87.160  31.283  1.00 36.70 LIG-0.35  N 
ATOM     45 H    LEU B   5      50.848  86.412  31.131  1.00 36.70 LIG 0.16  HD
ATOM     46 O    ILE B   4      53.102  88.479  31.258  1.00 23.70 LIG-0.27  OA
BRANCH 44 47
ATOM     47  CA  LEU B   5      50.355  88.238  31.641  1.00 37.00 LIG 0.16  C 
BRANCH 47 48
ATOM     48  C   LEU B   5      48.921  87.722  31.878  1.00 42.59 LIG 0.22  C 
ATOM     49 O    LEU B   5      48.536  86.623  31.398  1.00 38.80 LIG-0.29  OA
ENDBRANCH 47 48
BRANCH 47 50
ATOM     50  CB  LEU B   5      50.361  89.251  30.504  1.00 50.59 LIG 0.04  C 
BRANCH 50 51
ATOM     51  CG  LEU B   5      50.609  90.692  30.908  1.00 50.85 LIG-0.02  C 
ATOM     52  CD1 LEU B   5      49.332  91.473  30.689  1.00 54.07 LIG 0.01  C 
ATOM     53  CD2 LEU B   5      51.010  90.680  32.379  1.00 54.33 LIG 0.01  C 
ENDBRANCH 50 51
ENDBRANCH 47 50
ENDBRANCH 44 47
ENDBRANCH 38 43
ENDBRANCH 36 38
ENDBRANCH 33 34
BRANCH 33 54
ATOM     54  CB  LEU B   3      56.413  88.585  29.297  1.00 34.11 LIG 0.04  C 
BRANCH 54 55
ATOM     55  CG  LEU B   3      57.169  88.792  30.565  1.00 35.49 LIG-0.02  C 
ATOM     56  CD1 LEU B   3      56.171  88.899  31.701  1.00 39.12 LIG 0.01  C 
ATOM     57  CD2 LEU B   3      57.984  87.529  30.684  1.00 34.32 LIG 0.01  C 
ENDBRANCH 54 55
ENDBRANCH 33 54
ENDBRANCH 3 33
TORSDOF 22
ENDMDL
MODEL 53
USER: ADFR SOLUTION from run 137
USER: SCORE 18.640942 LL:  -4.133 LR: -15.850 RR:   0.000 FEB:  -9.288
USER: RMSD 5.056301
USER: SEED 136
USER: STATUS no improvement in best in 23 clusters for 5 generations
USER: GENES 24
USER: genes 0 Translation |==|  0.50758 0.45765 0.40938
USER: genes 1 Rotation |==|  0.46855 0.42693 0.44135 0.99013
USER: genes 2 Torsion [N]-C--CA-[N] |==|  0.85747
USER: genes 3 Torsion [C]-CA--CB-[CG] |==|  0.52848
USER: genes 4 Torsion [CA]-CB--CG-[CD] |==|  0.23737
USER: genes 5 Torsion [CB]-CG--CD-[NE] |==|  0.08889
USER: genes 6 Torsion [CG]-CD--NE-[HE] |==|  0.04263
USER: genes 7 Torsion [C]-CA--N-[C] |==|  0.81388
USER: genes 8 Torsion [N]-C--CA-[N] |==|  0.50585
USER: genes 9 Torsion [C]-CA--CB-[CG] |==|  0.45700
USER: genes 10 Torsion [CA]-CB--CG-[OD1] |==|  0.11173
USER: genes 11 Torsion [C]-CA--N-[H1] |==|  0.64322
USER: genes 12 Torsion [C]-N--CA-[CB] |==|  0.47497
USER: genes 13 Torsion [N]-CA--C-[N] |==|  0.37229
USER: genes 14 Torsion [C]-N--CA-[C] |==|  0.82776
USER: genes 15 Torsion [N]-CA--CB-[CG1] |==|  0.54534
USER: genes 16 Torsion [CA]-CB--CG1-[CD1] |==|  0.11742
USER: genes 17 Torsion [N]-CA--C-[N] |==|  0.44437
USER: genes 18 Torsion [C]-N--CA-[C] |==|  0.57135
USER: genes 19 Torsion [N]-CA--C-[O] |==|  0.88744
USER: genes 20 Torsion [N]-CA--CB-[CG] |==|  0.65354
USER: genes 21 Torsion [CA]-CB--CG-[CD1] |==|  0.67170
USER: genes 22 Torsion [N]-CA--CB-[CG] |==|  0.69838
USER: genes 23 Torsion [CA]-CB--CG-[CD1] |==|  0.96988
ROOT
ATOM      1  C   ARG B   2      57.166  86.183  27.783  1.00 25.54 LIG 0.24  C 
ATOM      2 O    ARG B   2      57.081  85.119  28.473  1.00 21.45 LIG-0.27  OA
ATOM      3  N   LEU B   3      56.974  87.379  28.316  1.00 32.00 LIG-0.35  N 
ATOM      4 H    LEU B   3      57.125  88.121  27.907  1.00 32.00 LIG 0.16  HD
ENDROOT
BRANCH 1 5
ATOM      5  CA  ARG B   2      57.462  86.157  26.290  1.00 29.44 LIG 0.18  C 
BRANCH 5 6
ATOM      6  CB  ARG B   2      58.886  86.738  26.019  1.00 37.02 LIG 0.04  C 
BRANCH 6 7
ATOM      7  CG  ARG B   2      59.178  86.985  24.540  1.00 39.92 LIG 0.02  C 
BRANCH 7 8
ATOM      8  CD  ARG B   2      58.658  88.362  24.111  1.00 40.77 LIG 0.14  C 
BRANCH 8 9
ATOM      9  NE  ARG B   2      58.784  89.226  25.294  1.00 48.07 LIG-0.23  N 
ATOM     10 HE   ARG B   2      59.286  88.927  25.925  1.00 48.07 LIG 0.18  HD
ATOM     11  CZ  ARG B   2      58.215  90.419  25.515  1.00 44.36 LIG 0.67  C 
ATOM     12  NH1 ARG B   2      58.507  91.028  26.679  1.00 36.12 LIG-0.23  N 
ATOM     13  NH2 ARG B   2      57.389  91.005  24.617  1.00 39.61 LIG-0.23  N 
ATOM     14 1HH1 ARG B   2      59.037  90.651  27.242  1.00 36.12 LIG 0.17  HD
ATOM     15 2HH1 ARG B   2      58.164  91.795  26.861  1.00 36.12 LIG 0.17  HD
ATOM     16 1HH2 ARG B   2      57.214  90.611  23.874  1.00 39.61 LIG 0.17  HD
ATOM     17 2HH2 ARG B   2      57.041  91.772  24.791  1.00 39.61 LIG 0.17  HD
ENDBRANCH 8 9
ENDBRANCH 7 8
ENDBRANCH 6 7
ENDBRANCH 5 6
BRANCH 5 18
ATOM     18  N   ARG B   2      56.458  86.930  25.535  1.00 32.37 LIG-0.35  N 
ATOM     19 H    ARG B   2      56.739  87.647  25.152  1.00 32.37 LIG 0.16  HD
ATOM     20  C   ASN B   1      55.223  86.468  25.506  1.00 31.22 LIG 0.25  C 
ATOM     21 O    ASN B   1      54.917  85.476  26.132  1.00 24.61 LIG-0.27  OA
BRANCH 20 22
ATOM     22  CA  ASN B   1      54.150  87.203  24.722  1.00 32.89 LIG 0.28  C 
BRANCH 22 23
ATOM     23  CB  ASN B   1      54.161  88.647  25.224  1.00 38.07 LIG 0.14  C 
BRANCH 23 24
ATOM     24  CG  ASN B   1      53.439  89.565  24.321  1.00 44.05 LIG 0.22  C 
ATOM     25  ND2 ASN B   1      54.002  90.727  24.115  1.00 47.62 LIG-0.37  N 
ATOM     26 21HD ASN B   1      53.634  91.296  23.587  1.00 47.62 LIG 0.16  HD
ATOM     27 22HD ASN B   1      54.741  90.922  24.509  1.00 47.62 LIG 0.16  HD
ATOM     28 OD1  ASN B   1      52.375  89.229  23.782  1.00 47.48 LIG-0.27  OA
ENDBRANCH 23 24
ENDBRANCH 22 23
BRANCH 22 29
ATOM     29  N   ASN B   1      52.763  86.653  24.770  1.00 44.58 LIG-0.07  N 
ATOM     30 H1   ASN B   1      52.453  86.557  23.941  1.00 44.58 LIG 0.28  HD
ATOM     31 H3   ASN B   1      52.237  87.213  25.219  1.00 44.58 LIG 0.28  HD
ATOM     32 H2   ASN B   1      52.771  85.862  25.177  1.00 44.58 LIG 0.28  HD
ENDBRANCH 22 29
ENDBRANCH 20 22
ENDBRANCH 5 18
ENDBRANCH 1 5
BRANCH 3 33
ATOM     33  CA  LEU B   3      56.479  87.528  29.676  1.00 27.74 LIG 0.18  C 
BRANCH 33 34
ATOM     34  C   LEU B   3      55.060  87.123  29.771  1.00 25.40 LIG 0.24  C 
ATOM     35 O    LEU B   3      54.242  87.500  28.942  1.00 26.81 LIG-0.27  OA
ATOM     36  N   ILE B   4      54.732  86.347  30.775  1.00 26.13 LIG-0.35  N 
ATOM     37 H    ILE B   4      55.292  85.992  31.322  1.00 26.13 LIG 0.16  HD
BRANCH 36 38
ATOM     38  CA  ILE B   4      53.398  86.045  31.017  1.00 24.17 LIG 0.18  C 
BRANCH 38 39
ATOM     39  CB  ILE B   4      53.382  84.973  32.126  1.00 29.09 LIG 0.01  C 
ATOM     40  CG2 ILE B   4      53.609  85.658  33.431  1.00 25.20 LIG 0.01  C 
BRANCH 39 41
ATOM     41  CG1 ILE B   4      52.044  84.254  32.232  1.00 28.67 LIG 0.00  C 
ATOM     42  CD1 ILE B   4      51.470  83.915  30.879  1.00 34.41 LIG 0.01  C 
ENDBRANCH 39 41
ENDBRANCH 38 39
BRANCH 38 43
ATOM     43  C   ILE B   4      52.571  87.294  31.340  1.00 29.58 LIG 0.24  C 
ATOM     44  N   LEU B   5      51.260  87.165  31.175  1.00 36.70 LIG-0.35  N 
ATOM     45 H    LEU B   5      50.888  86.483  30.808  1.00 36.70 LIG 0.16  HD
ATOM     46 O    ILE B   4      53.112  88.376  31.724  1.00 23.70 LIG-0.27  OA
BRANCH 44 47
ATOM     47  CA  LEU B   5      50.337  88.184  31.610  1.00 37.00 LIG 0.16  C 
BRANCH 47 48
ATOM     48  C   LEU B   5      48.947  87.585  31.903  1.00 42.59 LIG 0.22  C 
ATOM     49 O    LEU B   5      48.447  86.701  31.158  1.00 38.80 LIG-0.29  OA
ENDBRANCH 47 48
BRANCH 47 50
ATOM     50  CB  LEU B   5      50.231  89.226  30.504  1.00 50.59 LIG 0.04  C 
BRANCH 50 51
ATOM     51  CG  LEU B   5      50.528  90.655  30.917  1.00 50.85 LIG-0.02  C 
ATOM     52  CD1 LEU B   5      49.282  91.483  30.691  1.00 54.07 LIG 0.01  C 
ATOM     53  CD2 LEU B   5      50.915  90.623  32.391  1.00 54.33 LIG 0.01  C 
ENDBRANCH 50 51
ENDBRANCH 47 50
ENDBRANCH 44 47
ENDBRANCH 38 43
ENDBRANCH 36 38
ENDBRANCH 33 34
BRANCH 33 54
ATOM     54  CB  LEU B   3      56.582  88.985  30.059  1.00 34.11 LIG 0.04  C 
BRANCH 54 55
ATOM     55  CG  LEU B   3      57.682  89.115  31.057  1.00 35.49 LIG-0.02  C 
ATOM     56  CD1 LEU B   3      58.087  87.723  31.501  1.00 39.12 LIG 0.01  C 
ATOM     57  CD2 LEU B   3      58.784  89.768  30.262  1.00 34.32 LIG 0.01  C 
ENDBRANCH 54 55
ENDBRANCH 33 54
ENDBRANCH 3 33
TORSDOF 22
ENDMDL
MODEL 54
USER: ADFR SOLUTION from run 52
USER: SCORE 18.921056 LL:  -4.184 LR: -15.829 RR:   0.000 FEB:  -9.266
USER: RMSD 4.916778
USER: SEED 51
USER: STATUS no improvement in best in 23 clusters for 5 generations
USER: GENES 24
USER: genes 0 Translation |==|  0.47967 0.46638 0.40253
USER: genes 1 Rotation |==|  0.46582 0.51152 0.42805 0.99348
USER: genes 2 Torsion [N]-C--CA-[N] |==|  0.02130
USER: genes 3 Torsion [C]-CA--CB-[CG] |==|  0.89548
USER: genes 4 Torsion [CA]-CB--CG-[CD] |==|  0.63812
USER: genes 5 Torsion [CB]-CG--CD-[NE] |==|  0.68603
USER: genes 6 Torsion [CG]-CD--NE-[HE] |==|  0.99972
USER: genes 7 Torsion [C]-CA--N-[C] |==|  0.73985
USER: genes 8 Torsion [N]-C--CA-[N] |==|  0.46840
USER: genes 9 Torsion [C]-CA--CB-[CG] |==|  0.19870
USER: genes 10 Torsion [CA]-CB--CG-[OD1] |==|  0.12526
USER: genes 11 Torsion [C]-CA--N-[H1] |==|  0.54869
USER: genes 12 Torsion [C]-N--CA-[CB] |==|  0.44665
USER: genes 13 Torsion [N]-CA--C-[N] |==|  0.42922
USER: genes 14 Torsion [C]-N--CA-[C] |==|  0.83874
USER: genes 15 Torsion [N]-CA--CB-[CG1] |==|  0.62063
USER: genes 16 Torsion [CA]-CB--CG1-[CD1] |==|  0.19687
USER: genes 17 Torsion [N]-CA--C-[N] |==|  0.36424
USER: genes 18 Torsion [C]-N--CA-[C] |==|  0.86492
USER: genes 19 Torsion [N]-CA--C-[O] |==|  0.64888
USER: genes 20 Torsion [N]-CA--CB-[CG] |==|  0.11350
USER: genes 21 Torsion [CA]-CB--CG-[CD1] |==|  0.38870
USER: genes 22 Torsion [N]-CA--CB-[CG] |==|  0.68179
USER: genes 23 Torsion [CA]-CB--CG-[CD1] |==|  0.93352
ROOT
ATOM      1  C   ARG B   2      56.580  86.347  27.634  1.00 25.54 LIG 0.24  C 
ATOM      2 O    ARG B   2      56.641  85.258  28.287  1.00 21.45 LIG-0.27  OA
ATOM      3  N   LEU B   3      56.667  87.526  28.230  1.00 32.00 LIG-0.35  N 
ATOM      4 H    LEU B   3      56.734  88.275  27.812  1.00 32.00 LIG 0.16  HD
ENDROOT
BRANCH 1 5
ATOM      5  CA  ARG B   2      56.372  86.375  26.126  1.00 29.44 LIG 0.18  C 
BRANCH 5 6
ATOM      6  CB  ARG B   2      57.417  85.451  25.426  1.00 37.02 LIG 0.04  C 
BRANCH 6 7
ATOM      7  CG  ARG B   2      58.800  85.486  26.076  1.00 39.92 LIG 0.02  C 
BRANCH 7 8
ATOM      8  CD  ARG B   2      59.886  85.714  25.017  1.00 40.77 LIG 0.14  C 
BRANCH 8 9
ATOM      9  NE  ARG B   2      60.668  84.469  24.968  1.00 48.07 LIG-0.23  N 
ATOM     10 HE   ARG B   2      60.416  83.847  25.505  1.00 48.07 LIG 0.18  HD
ATOM     11  CZ  ARG B   2      61.724  84.183  24.194  1.00 44.36 LIG 0.67  C 
ATOM     12  NH1 ARG B   2      62.257  82.953  24.320  1.00 36.12 LIG-0.23  N 
ATOM     13  NH2 ARG B   2      62.239  85.071  23.313  1.00 39.61 LIG-0.23  N 
ATOM     14 1HH1 ARG B   2      61.920  82.393  24.879  1.00 36.12 LIG 0.17  HD
ATOM     15 2HH1 ARG B   2      62.935  82.728  23.842  1.00 36.12 LIG 0.17  HD
ATOM     16 1HH2 ARG B   2      61.888  85.852  23.235  1.00 39.61 LIG 0.17  HD
ATOM     17 2HH2 ARG B   2      62.917  84.855  22.831  1.00 39.61 LIG 0.17  HD
ENDBRANCH 8 9
ENDBRANCH 7 8
ENDBRANCH 6 7
ENDBRANCH 5 6
BRANCH 5 18
ATOM     18  N   ARG B   2      56.489  87.747  25.599  1.00 32.37 LIG-0.35  N 
ATOM     19 H    ARG B   2      57.282  88.013  25.402  1.00 32.37 LIG 0.16  HD
ATOM     20  C   ASN B   1      55.382  88.453  25.472  1.00 31.22 LIG 0.25  C 
ATOM     21 O    ASN B   1      54.316  88.006  25.837  1.00 24.61 LIG-0.27  OA
BRANCH 20 22
ATOM     22  CA  ASN B   1      55.433  89.862  24.908  1.00 32.89 LIG 0.28  C 
BRANCH 22 23
ATOM     23  CB  ASN B   1      56.177  90.713  25.939  1.00 38.07 LIG 0.14  C 
BRANCH 23 24
ATOM     24  CG  ASN B   1      57.620  90.406  25.990  1.00 44.05 LIG 0.22  C 
ATOM     25  ND2 ASN B   1      58.132  90.256  27.184  1.00 47.62 LIG-0.37  N 
ATOM     26 21HD ASN B   1      58.965  90.061  27.273  1.00 47.62 LIG 0.16  HD
ATOM     27 22HD ASN B   1      57.636  90.352  27.879  1.00 47.62 LIG 0.16  HD
ATOM     28 OD1  ASN B   1      58.285  90.279  24.952  1.00 47.48 LIG-0.27  OA
ENDBRANCH 23 24
ENDBRANCH 22 23
BRANCH 22 29
ATOM     29  N   ASN B   1      54.137  90.509  24.547  1.00 44.58 LIG-0.07  N 
ATOM     30 H1   ASN B   1      54.290  91.200  24.008  1.00 44.58 LIG 0.28  HD
ATOM     31 H3   ASN B   1      53.732  90.794  25.287  1.00 44.58 LIG 0.28  HD
ATOM     32 H2   ASN B   1      53.616  89.919  24.132  1.00 44.58 LIG 0.28  HD
ENDBRANCH 22 29
ENDBRANCH 20 22
ENDBRANCH 5 18
ENDBRANCH 1 5
BRANCH 3 33
ATOM     33  CA  LEU B   3      56.654  87.639  29.681  1.00 27.74 LIG 0.18  C 
BRANCH 33 34
ATOM     34  C   LEU B   3      55.274  87.566  30.206  1.00 25.40 LIG 0.24  C 
ATOM     35 O    LEU B   3      54.319  87.884  29.511  1.00 26.81 LIG-0.27  OA
ATOM     36  N   ILE B   4      55.132  87.145  31.440  1.00 26.13 LIG-0.35  N 
ATOM     37 H    ILE B   4      55.768  86.831  31.925  1.00 26.13 LIG 0.16  HD
BRANCH 36 38
ATOM     38  CA  ILE B   4      53.887  87.189  32.053  1.00 24.17 LIG 0.18  C 
BRANCH 38 39
ATOM     39  CB  ILE B   4      54.056  86.540  33.443  1.00 29.09 LIG 0.01  C 
ATOM     40  CG2 ILE B   4      54.042  87.628  34.462  1.00 25.20 LIG 0.01  C 
BRANCH 39 41
ATOM     41  CG1 ILE B   4      52.918  85.592  33.794  1.00 28.67 LIG 0.00  C 
ATOM     42  CD1 ILE B   4      52.958  84.325  32.975  1.00 34.41 LIG 0.01  C 
ENDBRANCH 39 41
ENDBRANCH 38 39
BRANCH 38 43
ATOM     43  C   ILE B   4      53.309  88.608  32.090  1.00 29.58 LIG 0.24  C 
ATOM     44  N   LEU B   5      52.054  88.720  31.674  1.00 36.70 LIG-0.35  N 
ATOM     45 H    LEU B   5      51.614  88.083  31.300  1.00 36.70 LIG 0.16  HD
ATOM     46 O    ILE B   4      53.995  89.602  32.479  1.00 23.70 LIG-0.27  OA
BRANCH 44 47
ATOM     47  CA  LEU B   5      51.313  89.948  31.819  1.00 37.00 LIG 0.16  C 
BRANCH 47 48
ATOM     48  C   LEU B   5      51.432  90.502  33.253  1.00 42.59 LIG 0.22  C 
ATOM     49 O    LEU B   5      50.408  90.780  33.933  1.00 38.80 LIG-0.29  OA
ENDBRANCH 47 48
BRANCH 47 50
ATOM     50  CB  LEU B   5      49.854  89.659  31.494  1.00 50.59 LIG 0.04  C 
BRANCH 50 51
ATOM     51  CG  LEU B   5      49.307  88.350  32.031  1.00 50.85 LIG-0.02  C 
ATOM     52  CD1 LEU B   5      47.899  88.593  32.529  1.00 54.07 LIG 0.01  C 
ATOM     53  CD2 LEU B   5      49.326  87.352  30.879  1.00 54.33 LIG 0.01  C 
ENDBRANCH 50 51
ENDBRANCH 47 50
ENDBRANCH 44 47
ENDBRANCH 38 43
ENDBRANCH 36 38
ENDBRANCH 33 34
BRANCH 33 54
ATOM     54  CB  LEU B   3      57.231  88.984  30.054  1.00 34.11 LIG 0.04  C 
BRANCH 54 55
ATOM     55  CG  LEU B   3      58.506  88.742  30.788  1.00 35.49 LIG-0.02  C 
ATOM     56  CD1 LEU B   3      58.450  87.353  31.393  1.00 39.12 LIG 0.01  C 
ATOM     57  CD2 LEU B   3      59.544  88.812  29.696  1.00 34.32 LIG 0.01  C 
ENDBRANCH 54 55
ENDBRANCH 33 54
ENDBRANCH 3 33
TORSDOF 22
ENDMDL
