MODEL 1
USER: ADFR SOLUTION from run 22
USER: SCORE 26.461934 LL:  -6.974 LR: -20.767 RR:   0.000 FEB: -12.415
USER: RMSD 4.179038
USER: SEED 21
USER: STATUS no improvement in best in 7 clusters for 5 generations
USER: GENES 30
USER: genes 0 Translation |==|  0.58633 0.57263 0.47127
USER: genes 1 Rotation |==|  0.52198 0.58238 0.40823 0.98406
USER: genes 2 Torsion [N]-CA--C-[N] |==|  0.36763
USER: genes 3 Torsion [C]-N--CA-[C] |==|  0.50556
USER: genes 4 Torsion [N]-CA--CB-[CG2] |==|  0.55936
USER: genes 5 Torsion [N]-CA--C-[N] |==|  0.37979
USER: genes 6 Torsion [C]-N--CA-[C] |==|  0.84078
USER: genes 7 Torsion [N]-CA--C-[N] |==|  0.34503
USER: genes 8 Torsion [C]-N--CA-[CB] |==|  0.19770
USER: genes 9 Torsion [N]-CA--CB-[CG1] |==|  0.48420
USER: genes 10 Torsion [CA]-CB--CG1-[CD1] |==|  0.58064
USER: genes 11 Torsion [N]-CA--C-[OXT] |==|  0.33605
USER: genes 12 Torsion [N]-CA--CB-[CG] |==|  0.89900
USER: genes 13 Torsion [CA]-CB--CG-[CD] |==|  0.25791
USER: genes 14 Torsion [CB]-CG--CD-[CE] |==|  0.29287
USER: genes 15 Torsion [CG]-CD--CE-[NZ] |==|  0.32146
USER: genes 16 Torsion [CD]-CE--NZ-[HZ1] |==|  0.45186
USER: genes 17 Torsion [C]-CA--CB-[CG] |==|  0.14529
USER: genes 18 Torsion [CA]-CB--CG-[CD2] |==|  0.53187
USER: genes 19 Torsion [C]-CA--N-[C] |==|  0.86581
USER: genes 20 Torsion [N]-C--CA-[CB] |==|  0.62550
USER: genes 21 Torsion [N]-C--CA-[N] |==|  0.25280
USER: genes 22 Torsion [C]-CA--N-[C] |==|  0.60715
USER: genes 23 Torsion [N]-C--CA-[N] |==|  0.99309
USER: genes 24 Torsion [C]-CA--CB-[CG] |==|  0.86098
USER: genes 25 Torsion [CA]-CB--CG-[CD] |==|  0.75757
USER: genes 26 Torsion [CB]-CG--CD-[OE1] |==|  0.54316
USER: genes 27 Torsion [C]-CA--N-[H1] |==|  0.57351
USER: genes 28 Torsion [C]-CA--CB-[CG] |==|  0.62448
USER: genes 29 Torsion [CA]-CB--CG-[CD2] |==|  0.59010
ROOT
ATOM      1  CA  LEU B   4      57.452  87.960  29.913  1.00 30.07 LIG 0.18  C 
ENDROOT
BRANCH 1 2
ATOM      2  C   LEU B   4      56.271  88.437  30.718  1.00 30.58 LIG 0.24  C 
ATOM      3 O    LEU B   4      56.027  89.642  30.811  1.00 35.83 LIG-0.27  OA
ATOM      4  N   VAL B   5      55.579  87.505  31.369  1.00 32.24 LIG-0.35  N 
ATOM      5 H    VAL B   5      55.757  86.665  31.327  1.00 32.24 LIG 0.16  HD
BRANCH 4 6
ATOM      6  CA  VAL B   5      54.436  87.833  32.227  1.00 32.53 LIG 0.18  C 
BRANCH 6 7
ATOM      7  CB  VAL B   5      53.308  88.520  31.436  1.00 34.70 LIG 0.01  C 
ATOM      8  CG2 VAL B   5      52.431  89.287  32.392  1.00 38.22 LIG 0.01  C 
ATOM      9  CG1 VAL B   5      52.474  87.520  30.646  1.00 39.77 LIG 0.01  C 
ENDBRANCH 6 7
BRANCH 6 10
ATOM     10  C   VAL B   5      53.882  86.590  32.868  1.00 39.16 LIG 0.24  C 
ATOM     11 O    VAL B   5      53.764  85.536  32.229  1.00 33.69 LIG-0.27  OA
ATOM     12  N   LYS B   6      53.579  86.710  34.150  1.00 40.12 LIG-0.35  N 
ATOM     13 H    LYS B   6      53.706  87.427  34.608  1.00 40.12 LIG 0.16  HD
BRANCH 12 14
ATOM     14  CA  LYS B   6      53.001  85.629  34.889  1.00 45.41 LIG 0.18  C 
BRANCH 14 15
ATOM     15  C   LYS B   6      51.746  85.315  34.104  1.00 44.99 LIG 0.24  C 
ATOM     16 O    LYS B   6      50.959  86.199  33.834  1.00 45.85 LIG-0.27  OA
ATOM     17  N   ILE B   7      51.554  84.091  33.660  1.00 47.54 LIG-0.34  N 
ATOM     18 H    ILE B   7      52.060  83.410  33.803  1.00 47.54 LIG 0.16  HD
BRANCH 17 19
ATOM     19  CA  ILE B   7      50.353  83.864  32.835  1.00 57.67 LIG 0.19  C 
BRANCH 19 20
ATOM     20  CB  ILE B   7      50.402  84.498  31.390  1.00 59.41 LIG 0.01  C 
ATOM     21  CG2 ILE B   7      51.689  84.146  30.653  1.00 60.58 LIG 0.01  C 
BRANCH 20 22
ATOM     22  CG1 ILE B   7      49.158  84.086  30.550  1.00 65.20 LIG 0.00  C 
ATOM     23  CD1 ILE B   7      49.332  84.006  29.031  1.00 51.92 LIG 0.01  C 
ENDBRANCH 20 22
ENDBRANCH 19 20
BRANCH 19 24
ATOM     24  C   ILE B   7      49.876  82.405  32.875  1.00 61.74 LIG 0.20  C 
ATOM     25 O    ILE B   7      50.570  81.452  32.554  1.00 61.53 LIG-0.65  OA
ATOM     26 OXT  ILE B   7      48.741  82.138  33.271  1.00 68.92 LIG-0.65  OA
ENDBRANCH 19 24
ENDBRANCH 17 19
ENDBRANCH 14 15
BRANCH 14 27
ATOM     27  CB  LYS B   6      52.714  86.132  36.314  1.00 46.87 LIG 0.04  C 
BRANCH 27 28
ATOM     28  CG  LYS B   6      53.740  87.100  36.870  1.00 55.56 LIG 0.00  C 
BRANCH 28 29
ATOM     29  CD  LYS B   6      53.365  88.553  36.613  1.00 60.95 LIG 0.03  C 
BRANCH 29 30
ATOM     30  CE  LYS B   6      52.863  89.238  37.889  1.00 62.93 LIG 0.23  C 
BRANCH 30 31
ATOM     31  NZ  LYS B   6      53.763  90.351  38.323  1.00 65.77 LIG-0.08  N 
ATOM     32 HZ1  LYS B   6      53.331  90.877  38.896  1.00 65.77 LIG 0.27  HD
ATOM     33 HZ2  LYS B   6      54.485  90.011  38.720  1.00 65.77 LIG 0.27  HD
ATOM     34 HZ3  LYS B   6      54.012  90.826  37.613  1.00 65.77 LIG 0.27  HD
ENDBRANCH 30 31
ENDBRANCH 29 30
ENDBRANCH 28 29
ENDBRANCH 27 28
ENDBRANCH 14 27
ENDBRANCH 12 14
ENDBRANCH 6 10
ENDBRANCH 4 6
ENDBRANCH 1 2
BRANCH 1 35
ATOM     35  CB  LEU B   4      58.699  88.371  30.669  1.00 28.63 LIG 0.04  C 
BRANCH 35 36
ATOM     36  CG  LEU B   4      58.647  87.904  32.119  1.00 30.56 LIG-0.02  C 
ATOM     37  CD2 LEU B   4      59.765  88.576  32.887  1.00 33.80 LIG 0.01  C 
ATOM     38  CD1 LEU B   4      58.820  86.376  32.144  1.00 28.87 LIG 0.01  C 
ENDBRANCH 35 36
ENDBRANCH 1 35
BRANCH 1 39
ATOM     39  N   LEU B   4      57.580  88.463  28.526  1.00 28.62 LIG-0.35  N 
ATOM     40 H    LEU B   4      58.360  88.761  28.321  1.00 28.62 LIG 0.16  HD
ATOM     41  C   PRO B   3      56.553  88.438  27.701  1.00 33.12 LIG 0.24  C 
ATOM     42 O    PRO B   3      55.506  87.804  27.923  1.00 32.36 LIG-0.27  OA
BRANCH 41 43
ATOM     43  CA  PRO B   3      56.739  89.212  26.398  1.00 33.48 LIG 0.18  C 
ATOM     44  CB  PRO B   3      55.484  90.068  26.082  1.00 32.62 LIG 0.04  C 
ATOM     45  CG  PRO B   3      55.252  89.903  24.603  1.00 32.85 LIG 0.02  C 
ATOM     46  CD  PRO B   3      55.771  88.509  24.260  1.00 29.95 LIG 0.13  C 
ATOM     47  N   PRO B   3      56.775  88.231  25.328  1.00 33.01 LIG-0.34  N 
ATOM     48  C   LEU B   2      57.722  87.268  25.386  1.00 31.97 LIG 0.24  C 
ATOM     49 O    LEU B   2      58.639  87.249  26.214  1.00 33.64 LIG-0.27  OA
BRANCH 48 50
ATOM     50  CA  LEU B   2      57.669  86.193  24.325  1.00 32.67 LIG 0.18  C 
BRANCH 50 51
ATOM     51  N   LEU B   2      58.510  86.675  23.236  1.00 33.85 LIG-0.35  N 
ATOM     52 H    LEU B   2      59.219  87.080  23.504  1.00 33.85 LIG 0.16  HD
ATOM     53  C   GLU B   1      58.214  86.507  21.951  1.00 36.42 LIG 0.25  C 
ATOM     54 O    GLU B   1      57.351  85.699  21.573  1.00 32.31 LIG-0.27  OA
BRANCH 53 55
ATOM     55  CA  GLU B   1      59.084  87.289  20.942  1.00 35.71 LIG 0.28  C 
BRANCH 55 56
ATOM     56  CB  GLU B   1      59.805  86.285  20.035  1.00 39.23 LIG 0.05  C 
BRANCH 56 57
ATOM     57  CG  GLU B   1      60.519  85.185  20.819  1.00 48.64 LIG 0.12  C 
BRANCH 57 58
ATOM     58  CD  GLU B   1      61.951  85.515  21.263  1.00 56.94 LIG 0.17  C 
ATOM     59 OE1  GLU B   1      62.656  84.561  21.631  1.00 65.53 LIG-0.65  OA
ATOM     60 OE2  GLU B   1      62.386  86.701  21.271  1.00 53.19 LIG-0.65  OA
ENDBRANCH 57 58
ENDBRANCH 56 57
ENDBRANCH 55 56
BRANCH 55 61
ATOM     61  N   GLU B   1      60.093  88.163  21.633  1.00 36.67 LIG-0.07  N 
ATOM     62 H1   GLU B   1      60.299  88.852  21.108  1.00 36.67 LIG 0.28  HD
ATOM     63 H3   GLU B   1      60.828  87.691  21.804  1.00 36.67 LIG 0.28  HD
ATOM     64 H2   GLU B   1      59.751  88.465  22.397  1.00 36.67 LIG 0.28  HD
ENDBRANCH 55 61
ENDBRANCH 53 55
ENDBRANCH 50 51
BRANCH 50 65
ATOM     65  CB  LEU B   2      58.171  84.852  24.920  1.00 34.84 LIG 0.04  C 
BRANCH 65 66
ATOM     66  CG  LEU B   2      59.150  84.039  24.056  1.00 34.30 LIG-0.02  C 
ATOM     67  CD2 LEU B   2      58.978  82.525  24.266  1.00 39.39 LIG 0.01  C 
ATOM     68  CD1 LEU B   2      60.609  84.447  24.273  1.00 34.61 LIG 0.01  C 
ENDBRANCH 65 66
ENDBRANCH 50 65
ENDBRANCH 48 50
ENDBRANCH 41 43
ENDBRANCH 1 39
TORSDOF 28
ENDMDL
MODEL 2
USER: ADFR SOLUTION from run 74
USER: SCORE 25.819810 LL:  -6.123 LR: -20.539 RR:   0.000 FEB: -12.186
USER: RMSD 3.527333
USER: SEED 73
USER: STATUS no improvement in best in 8 clusters for 5 generations
USER: GENES 30
USER: genes 0 Translation |==|  0.58524 0.58062 0.48415
USER: genes 1 Rotation |==|  0.48768 0.56017 0.44674 0.99335
USER: genes 2 Torsion [N]-CA--C-[N] |==|  0.34615
USER: genes 3 Torsion [C]-N--CA-[C] |==|  0.51137
USER: genes 4 Torsion [N]-CA--CB-[CG2] |==|  0.60595
USER: genes 5 Torsion [N]-CA--C-[N] |==|  0.36850
USER: genes 6 Torsion [C]-N--CA-[C] |==|  0.82367
USER: genes 7 Torsion [N]-CA--C-[N] |==|  0.36244
USER: genes 8 Torsion [C]-N--CA-[CB] |==|  0.18707
USER: genes 9 Torsion [N]-CA--CB-[CG1] |==|  0.63829
USER: genes 10 Torsion [CA]-CB--CG1-[CD1] |==|  0.53057
USER: genes 11 Torsion [N]-CA--C-[OXT] |==|  0.36519
USER: genes 12 Torsion [N]-CA--CB-[CG] |==|  0.91901
USER: genes 13 Torsion [CA]-CB--CG-[CD] |==|  0.38391
USER: genes 14 Torsion [CB]-CG--CD-[CE] |==|  0.64467
USER: genes 15 Torsion [CG]-CD--CE-[NZ] |==|  0.68056
USER: genes 16 Torsion [CD]-CE--NZ-[HZ1] |==|  0.38875
USER: genes 17 Torsion [C]-CA--CB-[CG] |==|  0.31966
USER: genes 18 Torsion [CA]-CB--CG-[CD2] |==|  0.89637
USER: genes 19 Torsion [C]-CA--N-[C] |==|  0.83873
USER: genes 20 Torsion [N]-C--CA-[CB] |==|  0.70195
USER: genes 21 Torsion [N]-C--CA-[N] |==|  0.41706
USER: genes 22 Torsion [C]-CA--N-[C] |==|  0.67990
USER: genes 23 Torsion [N]-C--CA-[N] |==|  0.92701
USER: genes 24 Torsion [C]-CA--CB-[CG] |==|  0.81671
USER: genes 25 Torsion [CA]-CB--CG-[CD] |==|  0.62413
USER: genes 26 Torsion [CB]-CG--CD-[OE1] |==|  0.52554
USER: genes 27 Torsion [C]-CA--N-[H1] |==|  0.51699
USER: genes 28 Torsion [C]-CA--CB-[CG] |==|  0.46831
USER: genes 29 Torsion [CA]-CB--CG-[CD2] |==|  0.56424
ROOT
ATOM      1  CA  LEU B   4      57.429  88.140  30.242  1.00 30.07 LIG 0.18  C 
ENDROOT
BRANCH 1 2
ATOM      2  C   LEU B   4      56.121  88.491  30.902  1.00 30.58 LIG 0.24  C 
ATOM      3 O    LEU B   4      55.739  89.662  30.944  1.00 35.83 LIG-0.27  OA
ATOM      4  N   VAL B   5      55.466  87.493  31.491  1.00 32.24 LIG-0.35  N 
ATOM      5 H    VAL B   5      55.737  86.677  31.486  1.00 32.24 LIG 0.16  HD
BRANCH 4 6
ATOM      6  CA  VAL B   5      54.205  87.700  32.211  1.00 32.53 LIG 0.18  C 
BRANCH 6 7
ATOM      7  CB  VAL B   5      53.091  88.205  31.276  1.00 34.70 LIG 0.01  C 
ATOM      8  CG2 VAL B   5      52.254  89.221  32.009  1.00 38.22 LIG 0.01  C 
ATOM      9  CG1 VAL B   5      52.212  87.067  30.771  1.00 39.77 LIG 0.01  C 
ENDBRANCH 6 7
BRANCH 6 10
ATOM     10  C   VAL B   5      53.748  86.420  32.855  1.00 39.16 LIG 0.24  C 
ATOM     11 O    VAL B   5      53.763  85.349  32.235  1.00 33.69 LIG-0.27  OA
ATOM     12  N   LYS B   6      53.375  86.532  34.119  1.00 40.12 LIG-0.35  N 
ATOM     13 H    LYS B   6      53.410  87.266  34.567  1.00 40.12 LIG 0.16  HD
BRANCH 12 14
ATOM     14  CA  LYS B   6      52.873  85.412  34.856  1.00 45.41 LIG 0.18  C 
BRANCH 14 15
ATOM     15  C   LYS B   6      51.604  85.060  34.111  1.00 44.99 LIG 0.24  C 
ATOM     16 O    LYS B   6      50.823  85.932  33.790  1.00 45.85 LIG-0.27  OA
ATOM     17  N   ILE B   7      51.392  83.810  33.757  1.00 47.54 LIG-0.34  N 
ATOM     18 H    ILE B   7      51.891  83.134  33.942  1.00 47.54 LIG 0.16  HD
BRANCH 17 19
ATOM     19  CA  ILE B   7      50.177  83.540  32.967  1.00 57.67 LIG 0.19  C 
BRANCH 19 20
ATOM     20  CB  ILE B   7      50.173  84.152  31.511  1.00 59.41 LIG 0.01  C 
ATOM     21  CG2 ILE B   7      50.401  83.088  30.443  1.00 60.58 LIG 0.01  C 
BRANCH 20 22
ATOM     22  CG1 ILE B   7      48.861  84.939  31.231  1.00 65.20 LIG 0.00  C 
ATOM     23  CD1 ILE B   7      48.595  85.369  29.786  1.00 51.92 LIG 0.01  C 
ENDBRANCH 20 22
ENDBRANCH 19 20
BRANCH 19 24
ATOM     24  C   ILE B   7      49.737  82.070  33.041  1.00 61.74 LIG 0.20  C 
ATOM     25 O    ILE B   7      50.496  81.124  32.896  1.00 61.53 LIG-0.65  OA
ATOM     26 OXT  ILE B   7      48.563  81.789  33.283  1.00 68.92 LIG-0.65  OA
ENDBRANCH 19 24
ENDBRANCH 17 19
ENDBRANCH 14 15
BRANCH 14 27
ATOM     27  CB  LYS B   6      52.618  85.874  36.301  1.00 46.87 LIG 0.04  C 
BRANCH 27 28
ATOM     28  CG  LYS B   6      53.517  86.997  36.781  1.00 55.56 LIG 0.00  C 
BRANCH 28 29
ATOM     29  CD  LYS B   6      52.757  88.042  37.586  1.00 60.95 LIG 0.03  C 
BRANCH 29 30
ATOM     30  CE  LYS B   6      53.005  89.457  37.049  1.00 62.93 LIG 0.23  C 
BRANCH 30 31
ATOM     31  NZ  LYS B   6      53.728  90.316  38.037  1.00 65.77 LIG-0.08  N 
ATOM     32 HZ1  LYS B   6      54.330  90.815  37.612  1.00 65.77 LIG 0.27  HD
ATOM     33 HZ2  LYS B   6      53.145  90.845  38.453  1.00 65.77 LIG 0.27  HD
ATOM     34 HZ3  LYS B   6      54.139  89.800  38.634  1.00 65.77 LIG 0.27  HD
ENDBRANCH 30 31
ENDBRANCH 29 30
ENDBRANCH 28 29
ENDBRANCH 27 28
ENDBRANCH 14 27
ENDBRANCH 12 14
ENDBRANCH 6 10
ENDBRANCH 4 6
ENDBRANCH 1 2
BRANCH 1 35
ATOM     35  CB  LEU B   4      58.521  88.852  31.014  1.00 28.63 LIG 0.04  C 
BRANCH 35 36
ATOM     36  CG  LEU B   4      59.451  87.861  31.701  1.00 30.56 LIG-0.02  C 
ATOM     37  CD2 LEU B   4      58.632  86.692  32.203  1.00 33.80 LIG 0.01  C 
ATOM     38  CD1 LEU B   4      60.143  88.577  32.874  1.00 28.87 LIG 0.01  C 
ENDBRANCH 35 36
ENDBRANCH 1 35
BRANCH 1 39
ATOM     39  N   LEU B   4      57.587  88.490  28.811  1.00 28.62 LIG-0.35  N 
ATOM     40 H    LEU B   4      58.251  89.007  28.638  1.00 28.62 LIG 0.16  HD
ATOM     41  C   PRO B   3      56.751  88.024  27.905  1.00 33.12 LIG 0.24  C 
ATOM     42 O    PRO B   3      55.943  87.104  28.123  1.00 32.36 LIG-0.27  OA
BRANCH 41 43
ATOM     43  CA  PRO B   3      56.865  88.656  26.520  1.00 33.48 LIG 0.18  C 
ATOM     44  CB  PRO B   3      55.657  89.590  26.242  1.00 32.62 LIG 0.04  C 
ATOM     45  CG  PRO B   3      55.262  89.314  24.815  1.00 32.85 LIG 0.02  C 
ATOM     46  CD  PRO B   3      55.628  87.854  24.564  1.00 29.95 LIG 0.13  C 
ATOM     47  N   PRO B   3      56.711  87.584  25.554  1.00 33.01 LIG-0.34  N 
ATOM     48  C   LEU B   2      57.577  86.548  25.617  1.00 31.97 LIG 0.24  C 
ATOM     49 O    LEU B   2      58.570  86.521  26.352  1.00 33.64 LIG-0.27  OA
BRANCH 48 50
ATOM     50  CA  LEU B   2      57.327  85.391  24.678  1.00 32.67 LIG 0.18  C 
BRANCH 50 51
ATOM     51  N   LEU B   2      58.641  84.823  24.398  1.00 33.85 LIG-0.35  N 
ATOM     52 H    LEU B   2      59.022  84.482  25.089  1.00 33.85 LIG 0.16  HD
ATOM     53  C   GLU B   1      59.201  84.829  23.193  1.00 36.42 LIG 0.25  C 
ATOM     54 O    GLU B   1      58.549  85.068  22.163  1.00 32.31 LIG-0.27  OA
BRANCH 53 55
ATOM     55  CA  GLU B   1      60.687  84.409  23.127  1.00 35.71 LIG 0.28  C 
BRANCH 55 56
ATOM     56  CB  GLU B   1      60.759  82.916  22.790  1.00 39.23 LIG 0.05  C 
BRANCH 56 57
ATOM     57  CG  GLU B   1      60.191  82.030  23.899  1.00 48.64 LIG 0.12  C 
BRANCH 57 58
ATOM     58  CD  GLU B   1      61.032  80.797  24.254  1.00 56.94 LIG 0.17  C 
ATOM     59 OE1  GLU B   1      60.514  79.968  25.021  1.00 65.53 LIG-0.65  OA
ATOM     60 OE2  GLU B   1      62.202  80.640  23.803  1.00 53.19 LIG-0.65  OA
ENDBRANCH 57 58
ENDBRANCH 56 57
ENDBRANCH 55 56
BRANCH 55 61
ATOM     61  N   GLU B   1      61.400  84.672  24.424  1.00 36.67 LIG-0.07  N 
ATOM     62 H1   GLU B   1      62.268  84.503  24.325  1.00 36.67 LIG 0.28  HD
ATOM     63 H3   GLU B   1      61.066  84.145  25.059  1.00 36.67 LIG 0.28  HD
ATOM     64 H2   GLU B   1      61.287  85.524  24.657  1.00 36.67 LIG 0.28  HD
ENDBRANCH 55 61
ENDBRANCH 53 55
ENDBRANCH 50 51
BRANCH 50 65
ATOM     65  CB  LEU B   2      56.368  84.374  25.350  1.00 34.84 LIG 0.04  C 
BRANCH 65 66
ATOM     66  CG  LEU B   2      55.789  83.273  24.447  1.00 34.30 LIG-0.02  C 
ATOM     67  CD2 LEU B   2      54.476  82.701  25.010  1.00 39.39 LIG 0.01  C 
ATOM     68  CD1 LEU B   2      56.788  82.147  24.171  1.00 34.61 LIG 0.01  C 
ENDBRANCH 65 66
ENDBRANCH 50 65
ENDBRANCH 48 50
ENDBRANCH 41 43
ENDBRANCH 1 39
TORSDOF 28
ENDMDL
MODEL 3
USER: ADFR SOLUTION from run 31
USER: SCORE 25.925033 LL:  -6.867 LR: -19.669 RR:   0.000 FEB: -11.316
USER: RMSD 3.080873
USER: SEED 30
USER: STATUS no improvement in best in 4 clusters for 5 generations
USER: GENES 30
USER: genes 0 Translation |==|  0.57143 0.58316 0.47069
USER: genes 1 Rotation |==|  0.50697 0.53582 0.46769 0.99762
USER: genes 2 Torsion [N]-CA--C-[N] |==|  0.36198
USER: genes 3 Torsion [C]-N--CA-[C] |==|  0.75599
USER: genes 4 Torsion [N]-CA--CB-[CG2] |==|  0.91820
USER: genes 5 Torsion [N]-CA--C-[N] |==|  0.40242
USER: genes 6 Torsion [C]-N--CA-[C] |==|  0.83913
USER: genes 7 Torsion [N]-CA--C-[N] |==|  0.37158
USER: genes 8 Torsion [C]-N--CA-[CB] |==|  0.44174
USER: genes 9 Torsion [N]-CA--CB-[CG1] |==|  0.60234
USER: genes 10 Torsion [CA]-CB--CG1-[CD1] |==|  0.54609
USER: genes 11 Torsion [N]-CA--C-[OXT] |==|  0.41664
USER: genes 12 Torsion [N]-CA--CB-[CG] |==|  0.40632
USER: genes 13 Torsion [CA]-CB--CG-[CD] |==|  0.22485
USER: genes 14 Torsion [CB]-CG--CD-[CE] |==|  0.69493
USER: genes 15 Torsion [CG]-CD--CE-[NZ] |==|  0.33347
USER: genes 16 Torsion [CD]-CE--NZ-[HZ1] |==|  0.46488
USER: genes 17 Torsion [C]-CA--CB-[CG] |==|  0.33936
USER: genes 18 Torsion [CA]-CB--CG-[CD2] |==|  0.87407
USER: genes 19 Torsion [C]-CA--N-[C] |==|  0.86667
USER: genes 20 Torsion [N]-C--CA-[CB] |==|  0.67982
USER: genes 21 Torsion [N]-C--CA-[N] |==|  0.24826
USER: genes 22 Torsion [C]-CA--N-[C] |==|  0.65997
USER: genes 23 Torsion [N]-C--CA-[N] |==|  0.93905
USER: genes 24 Torsion [C]-CA--CB-[CG] |==|  0.60386
USER: genes 25 Torsion [CA]-CB--CG-[CD] |==|  0.22229
USER: genes 26 Torsion [CB]-CG--CD-[OE1] |==|  0.67878
USER: genes 27 Torsion [C]-CA--N-[H1] |==|  0.58790
USER: genes 28 Torsion [C]-CA--CB-[CG] |==|  0.64358
USER: genes 29 Torsion [CA]-CB--CG-[CD2] |==|  0.57425
ROOT
ATOM      1  CA  LEU B   4      57.139  88.197  29.899  1.00 30.07 LIG 0.18  C 
ENDROOT
BRANCH 1 2
ATOM      2  C   LEU B   4      55.746  88.397  30.439  1.00 30.58 LIG 0.24  C 
ATOM      3 O    LEU B   4      55.229  89.516  30.426  1.00 35.83 LIG-0.27  OA
ATOM      4  N   VAL B   5      55.164  87.334  30.988  1.00 32.24 LIG-0.35  N 
ATOM      5 H    VAL B   5      55.528  86.556  31.020  1.00 32.24 LIG 0.16  HD
BRANCH 4 6
ATOM      6  CA  VAL B   5      53.830  87.397  31.594  1.00 32.53 LIG 0.18  C 
BRANCH 6 7
ATOM      7  CB  VAL B   5      53.099  86.045  31.504  1.00 34.70 LIG 0.01  C 
ATOM      8  CG2 VAL B   5      53.572  85.309  30.276  1.00 38.22 LIG 0.01  C 
ATOM      9  CG1 VAL B   5      51.585  86.217  31.461  1.00 39.77 LIG 0.01  C 
ENDBRANCH 6 7
BRANCH 6 10
ATOM     10  C   VAL B   5      53.926  87.794  33.042  1.00 39.16 LIG 0.24  C 
ATOM     11 O    VAL B   5      54.889  87.451  33.739  1.00 33.69 LIG-0.27  OA
ATOM     12  N   LYS B   6      52.935  88.554  33.479  1.00 40.12 LIG-0.35  N 
ATOM     13 H    LYS B   6      52.290  88.834  32.984  1.00 40.12 LIG 0.16  HD
BRANCH 12 14
ATOM     14  CA  LYS B   6      52.861  88.978  34.844  1.00 45.41 LIG 0.18  C 
BRANCH 14 15
ATOM     15  C   LYS B   6      52.847  87.669  35.604  1.00 44.99 LIG 0.24  C 
ATOM     16 O    LYS B   6      52.170  86.743  35.210  1.00 45.85 LIG-0.27  OA
ATOM     17  N   ILE B   7      53.629  87.526  36.653  1.00 47.54 LIG-0.34  N 
ATOM     18 H    ILE B   7      54.139  88.127  36.997  1.00 47.54 LIG 0.16  HD
BRANCH 17 19
ATOM     19  CA  ILE B   7      53.631  86.204  37.305  1.00 57.67 LIG 0.19  C 
BRANCH 19 20
ATOM     20  CB  ILE B   7      54.900  85.893  38.191  1.00 59.41 LIG 0.01  C 
ATOM     21  CG2 ILE B   7      54.690  86.282  39.649  1.00 60.58 LIG 0.01  C 
BRANCH 20 22
ATOM     22  CG1 ILE B   7      55.317  84.398  38.076  1.00 65.20 LIG 0.00  C 
ATOM     23  CD1 ILE B   7      56.264  83.850  39.147  1.00 51.92 LIG 0.01  C 
ENDBRANCH 20 22
ENDBRANCH 19 20
BRANCH 19 24
ATOM     24  C   ILE B   7      52.289  85.874  37.978  1.00 61.74 LIG 0.20  C 
ATOM     25 O    ILE B   7      51.526  86.717  38.424  1.00 61.53 LIG-0.65  OA
ATOM     26 OXT  ILE B   7      51.916  84.704  38.069  1.00 68.92 LIG-0.65  OA
ENDBRANCH 19 24
ENDBRANCH 17 19
ENDBRANCH 14 15
BRANCH 14 27
ATOM     27  CB  LYS B   6      51.567  89.791  35.016  1.00 46.87 LIG 0.04  C 
BRANCH 27 28
ATOM     28  CG  LYS B   6      50.898  89.651  36.370  1.00 55.56 LIG 0.00  C 
BRANCH 28 29
ATOM     29  CD  LYS B   6      51.543  90.535  37.428  1.00 60.95 LIG 0.03  C 
BRANCH 29 30
ATOM     30  CE  LYS B   6      52.312  89.706  38.463  1.00 62.93 LIG 0.23  C 
BRANCH 30 31
ATOM     31  NZ  LYS B   6      53.764  90.065  38.505  1.00 65.77 LIG-0.08  N 
ATOM     32 HZ1  LYS B   6      54.138  89.705  39.229  1.00 65.77 LIG 0.27  HD
ATOM     33 HZ2  LYS B   6      54.169  89.752  37.777  1.00 65.77 LIG 0.27  HD
ATOM     34 HZ3  LYS B   6      53.850  90.950  38.536  1.00 65.77 LIG 0.27  HD
ENDBRANCH 30 31
ENDBRANCH 29 30
ENDBRANCH 28 29
ENDBRANCH 27 28
ENDBRANCH 14 27
ENDBRANCH 12 14
ENDBRANCH 6 10
ENDBRANCH 4 6
ENDBRANCH 1 2
BRANCH 1 35
ATOM     35  CB  LEU B   4      58.086  88.924  30.832  1.00 28.63 LIG 0.04  C 
BRANCH 35 36
ATOM     36  CG  LEU B   4      59.131  87.977  31.409  1.00 30.56 LIG-0.02  C 
ATOM     37  CD2 LEU B   4      58.443  86.708  31.861  1.00 33.80 LIG 0.01  C 
ATOM     38  CD1 LEU B   4      59.812  88.673  32.600  1.00 28.87 LIG 0.01  C 
ENDBRANCH 35 36
ENDBRANCH 1 35
BRANCH 1 39
ATOM     39  N   LEU B   4      57.411  88.671  28.522  1.00 28.62 LIG-0.35  N 
ATOM     40 H    LEU B   4      58.127  89.140  28.438  1.00 28.62 LIG 0.16  HD
ATOM     41  C   PRO B   3      56.595  88.375  27.531  1.00 33.12 LIG 0.24  C 
ATOM     42 O    PRO B   3      55.699  87.516  27.611  1.00 32.36 LIG-0.27  OA
BRANCH 41 43
ATOM     43  CA  PRO B   3      56.845  89.128  26.227  1.00 33.48 LIG 0.18  C 
ATOM     44  CB  PRO B   3      55.643  90.049  25.885  1.00 32.62 LIG 0.04  C 
ATOM     45  CG  PRO B   3      55.428  89.887  24.403  1.00 32.85 LIG 0.02  C 
ATOM     46  CD  PRO B   3      55.877  88.464  24.077  1.00 29.95 LIG 0.13  C 
ATOM     47  N   PRO B   3      56.847  88.140  25.164  1.00 33.01 LIG-0.34  N 
ATOM     48  C   LEU B   2      57.739  87.129  25.244  1.00 31.97 LIG 0.24  C 
ATOM     49 O    LEU B   2      58.639  87.066  26.088  1.00 33.64 LIG-0.27  OA
BRANCH 48 50
ATOM     50  CA  LEU B   2      57.646  86.050  24.189  1.00 32.67 LIG 0.18  C 
BRANCH 50 51
ATOM     51  N   LEU B   2      58.500  86.498  23.095  1.00 33.85 LIG-0.35  N 
ATOM     52 H    LEU B   2      59.314  86.638  23.331  1.00 33.85 LIG 0.16  HD
ATOM     53  C   GLU B   1      58.066  86.675  21.851  1.00 36.42 LIG 0.25  C 
ATOM     54 O    GLU B   1      56.980  86.217  21.460  1.00 32.31 LIG-0.27  OA
BRANCH 53 55
ATOM     55  CA  GLU B   1      59.039  87.382  20.882  1.00 35.71 LIG 0.28  C 
BRANCH 55 56
ATOM     56  CB  GLU B   1      59.742  86.319  20.030  1.00 39.23 LIG 0.05  C 
BRANCH 56 57
ATOM     57  CG  GLU B   1      61.207  86.655  19.754  1.00 48.64 LIG 0.12  C 
BRANCH 57 58
ATOM     58  CD  GLU B   1      62.183  86.336  20.895  1.00 56.94 LIG 0.17  C 
ATOM     59 OE1  GLU B   1      62.764  87.301  21.420  1.00 65.53 LIG-0.65  OA
ATOM     60 OE2  GLU B   1      62.399  85.150  21.271  1.00 53.19 LIG-0.65  OA
ENDBRANCH 57 58
ENDBRANCH 56 57
ENDBRANCH 55 56
BRANCH 55 61
ATOM     61  N   GLU B   1      60.064  88.201  21.617  1.00 36.67 LIG-0.07  N 
ATOM     62 H1   GLU B   1      60.288  88.908  21.125  1.00 36.67 LIG 0.28  HD
ATOM     63 H3   GLU B   1      60.787  87.705  21.769  1.00 36.67 LIG 0.28  HD
ATOM     64 H2   GLU B   1      59.724  88.475  22.393  1.00 36.67 LIG 0.28  HD
ENDBRANCH 55 61
ENDBRANCH 53 55
ENDBRANCH 50 51
BRANCH 50 65
ATOM     65  CB  LEU B   2      58.104  84.696  24.789  1.00 34.84 LIG 0.04  C 
BRANCH 65 66
ATOM     66  CG  LEU B   2      59.177  83.922  24.004  1.00 34.30 LIG-0.02  C 
ATOM     67  CD2 LEU B   2      59.093  82.408  24.259  1.00 39.39 LIG 0.01  C 
ATOM     68  CD1 LEU B   2      60.593  84.433  24.277  1.00 34.61 LIG 0.01  C 
ENDBRANCH 65 66
ENDBRANCH 50 65
ENDBRANCH 48 50
ENDBRANCH 41 43
ENDBRANCH 1 39
TORSDOF 28
ENDMDL
MODEL 4
USER: ADFR SOLUTION from run 150
USER: SCORE 25.716070 LL:  -6.417 LR: -19.574 RR:   0.000 FEB: -11.222
USER: RMSD 2.322406
USER: SEED 149
USER: STATUS no improvement in best in 6 clusters for 5 generations
USER: GENES 30
USER: genes 0 Translation |==|  0.59676 0.57358 0.46658
USER: genes 1 Rotation |==|  0.48827 0.50223 0.46898 0.99889
USER: genes 2 Torsion [N]-CA--C-[N] |==|  0.35053
USER: genes 3 Torsion [C]-N--CA-[C] |==|  0.76794
USER: genes 4 Torsion [N]-CA--CB-[CG2] |==|  0.88708
USER: genes 5 Torsion [N]-CA--C-[N] |==|  0.39762
USER: genes 6 Torsion [C]-N--CA-[C] |==|  0.83616
USER: genes 7 Torsion [N]-CA--C-[N] |==|  0.37752
USER: genes 8 Torsion [C]-N--CA-[CB] |==|  0.42866
USER: genes 9 Torsion [N]-CA--CB-[CG1] |==|  0.61159
USER: genes 10 Torsion [CA]-CB--CG1-[CD1] |==|  0.46763
USER: genes 11 Torsion [N]-CA--C-[OXT] |==|  0.40194
USER: genes 12 Torsion [N]-CA--CB-[CG] |==|  0.90910
USER: genes 13 Torsion [CA]-CB--CG-[CD] |==|  0.26816
USER: genes 14 Torsion [CB]-CG--CD-[CE] |==|  0.38347
USER: genes 15 Torsion [CG]-CD--CE-[NZ] |==|  0.26704
USER: genes 16 Torsion [CD]-CE--NZ-[HZ1] |==|  0.43413
USER: genes 17 Torsion [C]-CA--CB-[CG] |==|  0.32141
USER: genes 18 Torsion [CA]-CB--CG-[CD2] |==|  0.88435
USER: genes 19 Torsion [C]-CA--N-[C] |==|  0.86648
USER: genes 20 Torsion [N]-C--CA-[CB] |==|  0.74550
USER: genes 21 Torsion [N]-C--CA-[N] |==|  0.46909
USER: genes 22 Torsion [C]-CA--N-[C] |==|  0.77328
USER: genes 23 Torsion [N]-C--CA-[N] |==|  0.02958
USER: genes 24 Torsion [C]-CA--CB-[CG] |==|  0.63187
USER: genes 25 Torsion [CA]-CB--CG-[CD] |==|  0.83213
USER: genes 26 Torsion [CB]-CG--CD-[OE1] |==|  0.79412
USER: genes 27 Torsion [C]-CA--N-[H1] |==|  0.53844
USER: genes 28 Torsion [C]-CA--CB-[CG] |==|  0.77087
USER: genes 29 Torsion [CA]-CB--CG-[CD2] |==|  0.63125
ROOT
ATOM      1  CA  LEU B   4      57.671  87.982  29.794  1.00 30.07 LIG 0.18  C 
ENDROOT
BRANCH 1 2
ATOM      2  C   LEU B   4      56.219  88.205  30.132  1.00 30.58 LIG 0.24  C 
ATOM      3 O    LEU B   4      55.723  89.329  30.032  1.00 35.83 LIG-0.27  OA
ATOM      4  N   VAL B   5      55.552  87.157  30.609  1.00 32.24 LIG-0.35  N 
ATOM      5 H    VAL B   5      55.898  86.376  30.703  1.00 32.24 LIG 0.16  HD
BRANCH 4 6
ATOM      6  CA  VAL B   5      54.148  87.245  31.023  1.00 32.53 LIG 0.18  C 
BRANCH 6 7
ATOM      7  CB  VAL B   5      53.447  85.876  30.951  1.00 34.70 LIG 0.01  C 
ATOM      8  CG2 VAL B   5      53.892  85.159  29.702  1.00 38.22 LIG 0.01  C 
ATOM      9  CG1 VAL B   5      51.929  86.011  30.965  1.00 39.77 LIG 0.01  C 
ENDBRANCH 6 7
BRANCH 6 10
ATOM     10  C   VAL B   5      54.043  87.764  32.431  1.00 39.16 LIG 0.24  C 
ATOM     11 O    VAL B   5      54.889  87.473  33.286  1.00 33.69 LIG-0.27  OA
ATOM     12  N   LYS B   6      53.016  88.566  32.655  1.00 40.12 LIG-0.35  N 
ATOM     13 H    LYS B   6      52.455  88.808  32.050  1.00 40.12 LIG 0.16  HD
BRANCH 12 14
ATOM     14  CA  LYS B   6      52.756  89.106  33.955  1.00 45.41 LIG 0.18  C 
BRANCH 14 15
ATOM     15  C   LYS B   6      52.579  87.867  34.806  1.00 44.99 LIG 0.24  C 
ATOM     16 O    LYS B   6      51.965  86.913  34.373  1.00 45.85 LIG-0.27  OA
ATOM     17  N   ILE B   7      53.155  87.811  35.988  1.00 47.54 LIG-0.34  N 
ATOM     18 H    ILE B   7      53.606  88.437  36.367  1.00 47.54 LIG 0.16  HD
BRANCH 17 19
ATOM     19  CA  ILE B   7      53.012  86.549  36.737  1.00 57.67 LIG 0.19  C 
BRANCH 19 20
ATOM     20  CB  ILE B   7      54.159  86.254  37.781  1.00 59.41 LIG 0.01  C 
ATOM     21  CG2 ILE B   7      53.781  86.701  39.189  1.00 60.58 LIG 0.01  C 
BRANCH 20 22
ATOM     22  CG1 ILE B   7      54.560  84.750  37.771  1.00 65.20 LIG 0.00  C 
ATOM     23  CD1 ILE B   7      55.835  84.360  38.523  1.00 51.92 LIG 0.01  C 
ENDBRANCH 20 22
ENDBRANCH 19 20
BRANCH 19 24
ATOM     24  C   ILE B   7      51.590  86.340  37.279  1.00 61.74 LIG 0.20  C 
ATOM     25 O    ILE B   7      50.864  87.248  37.656  1.00 61.53 LIG-0.65  OA
ATOM     26 OXT  ILE B   7      51.108  85.208  37.327  1.00 68.92 LIG-0.65  OA
ENDBRANCH 19 24
ENDBRANCH 17 19
ENDBRANCH 14 15
BRANCH 14 27
ATOM     27  CB  LYS B   6      51.482  89.963  33.863  1.00 46.87 LIG 0.04  C 
BRANCH 27 28
ATOM     28  CG  LYS B   6      51.278  90.665  32.534  1.00 55.56 LIG 0.00  C 
BRANCH 28 29
ATOM     29  CD  LYS B   6      50.353  89.890  31.606  1.00 60.95 LIG 0.03  C 
BRANCH 29 30
ATOM     30  CE  LYS B   6      49.371  90.821  30.885  1.00 62.93 LIG 0.23  C 
BRANCH 30 31
ATOM     31  NZ  LYS B   6      49.853  91.201  29.521  1.00 65.77 LIG-0.08  N 
ATOM     32 HZ1  LYS B   6      49.159  91.432  29.014  1.00 65.77 LIG 0.27  HD
ATOM     33 HZ2  LYS B   6      50.415  91.888  29.585  1.00 65.77 LIG 0.27  HD
ATOM     34 HZ3  LYS B   6      50.273  90.508  29.151  1.00 65.77 LIG 0.27  HD
ENDBRANCH 30 31
ENDBRANCH 29 30
ENDBRANCH 28 29
ENDBRANCH 27 28
ENDBRANCH 14 27
ENDBRANCH 12 14
ENDBRANCH 6 10
ENDBRANCH 4 6
ENDBRANCH 1 2
BRANCH 1 35
ATOM     35  CB  LEU B   4      58.486  88.796  30.778  1.00 28.63 LIG 0.04  C 
BRANCH 35 36
ATOM     36  CG  LEU B   4      59.336  87.899  31.670  1.00 30.56 LIG-0.02  C 
ATOM     37  CD2 LEU B   4      58.510  86.700  32.083  1.00 33.80 LIG 0.01  C 
ATOM     38  CD1 LEU B   4      59.765  88.709  32.905  1.00 28.87 LIG 0.01  C 
ENDBRANCH 35 36
ENDBRANCH 1 35
BRANCH 1 39
ATOM     39  N   LEU B   4      58.117  88.345  28.429  1.00 28.62 LIG-0.35  N 
ATOM     40 H    LEU B   4      58.836  88.817  28.398  1.00 28.62 LIG 0.16  HD
ATOM     41  C   PRO B   3      57.437  87.956  27.369  1.00 33.12 LIG 0.24  C 
ATOM     42 O    PRO B   3      56.542  87.093  27.405  1.00 32.36 LIG-0.27  OA
BRANCH 41 43
ATOM     43  CA  PRO B   3      57.851  88.603  26.050  1.00 33.48 LIG 0.18  C 
ATOM     44  CB  PRO B   3      57.013  89.882  25.778  1.00 32.62 LIG 0.04  C 
ATOM     45  CG  PRO B   3      56.670  89.827  24.312  1.00 32.85 LIG 0.02  C 
ATOM     46  CD  PRO B   3      56.592  88.343  23.965  1.00 29.95 LIG 0.13  C 
ATOM     47  N   PRO B   3      57.456  87.692  24.992  1.00 33.01 LIG-0.34  N 
ATOM     48  C   LEU B   2      57.957  86.437  25.021  1.00 31.97 LIG 0.24  C 
ATOM     49 O    LEU B   2      58.830  86.059  25.809  1.00 33.64 LIG-0.27  OA
BRANCH 48 50
ATOM     50  CA  LEU B   2      57.443  85.472  23.977  1.00 32.67 LIG 0.18  C 
BRANCH 50 51
ATOM     51  N   LEU B   2      58.319  84.308  24.054  1.00 33.85 LIG-0.35  N 
ATOM     52 H    LEU B   2      57.991  83.663  24.518  1.00 33.85 LIG 0.16  HD
ATOM     53  C   GLU B   1      59.509  84.246  23.467  1.00 36.42 LIG 0.25  C 
ATOM     54 O    GLU B   1      59.855  85.052  22.588  1.00 32.31 LIG-0.27  OA
BRANCH 53 55
ATOM     55  CA  GLU B   1      60.400  83.044  23.853  1.00 35.71 LIG 0.28  C 
BRANCH 55 56
ATOM     56  CB  GLU B   1      60.946  82.406  22.571  1.00 39.23 LIG 0.05  C 
BRANCH 56 57
ATOM     57  CG  GLU B   1      60.794  80.885  22.554  1.00 48.64 LIG 0.12  C 
BRANCH 57 58
ATOM     58  CD  GLU B   1      61.520  80.139  23.682  1.00 56.94 LIG 0.17  C 
ATOM     59 OE1  GLU B   1      62.756  80.051  23.591  1.00 65.53 LIG-0.65  OA
ATOM     60 OE2  GLU B   1      60.890  79.623  24.649  1.00 53.19 LIG-0.65  OA
ENDBRANCH 57 58
ENDBRANCH 56 57
ENDBRANCH 55 56
BRANCH 55 61
ATOM     61  N   GLU B   1      59.640  82.017  24.646  1.00 36.67 LIG-0.07  N 
ATOM     62 H1   GLU B   1      60.212  81.447  25.020  1.00 36.67 LIG 0.28  HD
ATOM     63 H3   GLU B   1      59.090  81.572  24.106  1.00 36.67 LIG 0.28  HD
ATOM     64 H2   GLU B   1      59.167  82.423  25.281  1.00 36.67 LIG 0.28  HD
ENDBRANCH 55 61
ENDBRANCH 53 55
ENDBRANCH 50 51
BRANCH 50 65
ATOM     65  CB  LEU B   2      55.961  85.126  24.274  1.00 34.84 LIG 0.04  C 
BRANCH 65 66
ATOM     66  CG  LEU B   2      55.707  84.030  25.323  1.00 34.30 LIG-0.02  C 
ATOM     67  CD2 LEU B   2      54.675  82.999  24.836  1.00 39.39 LIG 0.01  C 
ATOM     68  CD1 LEU B   2      55.295  84.597  26.684  1.00 34.61 LIG 0.01  C 
ENDBRANCH 65 66
ENDBRANCH 50 65
ENDBRANCH 48 50
ENDBRANCH 41 43
ENDBRANCH 1 39
TORSDOF 28
ENDMDL
MODEL 5
USER: ADFR SOLUTION from run 105
USER: SCORE 24.080345 LL:  -5.941 LR: -19.495 RR:   0.000 FEB: -11.142
USER: RMSD 2.913742
USER: SEED 104
USER: STATUS no improvement in best in 4 clusters for 5 generations
USER: GENES 30
USER: genes 0 Translation |==|  0.54858 0.57589 0.47179
USER: genes 1 Rotation |==|  0.47043 0.50577 0.53136 0.99811
USER: genes 2 Torsion [N]-CA--C-[N] |==|  0.38824
USER: genes 3 Torsion [C]-N--CA-[C] |==|  0.65603
USER: genes 4 Torsion [N]-CA--CB-[CG2] |==|  0.94446
USER: genes 5 Torsion [N]-CA--C-[N] |==|  0.57586
USER: genes 6 Torsion [C]-N--CA-[C] |==|  0.62222
USER: genes 7 Torsion [N]-CA--C-[N] |==|  0.86710
USER: genes 8 Torsion [C]-N--CA-[CB] |==|  0.15739
USER: genes 9 Torsion [N]-CA--CB-[CG1] |==|  0.54471
USER: genes 10 Torsion [CA]-CB--CG1-[CD1] |==|  0.59181
USER: genes 11 Torsion [N]-CA--C-[OXT] |==|  0.86841
USER: genes 12 Torsion [N]-CA--CB-[CG] |==|  0.63171
USER: genes 13 Torsion [CA]-CB--CG-[CD] |==|  0.17258
USER: genes 14 Torsion [CB]-CG--CD-[CE] |==|  0.41991
USER: genes 15 Torsion [CG]-CD--CE-[NZ] |==|  0.35569
USER: genes 16 Torsion [CD]-CE--NZ-[HZ1] |==|  0.49160
USER: genes 17 Torsion [C]-CA--CB-[CG] |==|  0.39277
USER: genes 18 Torsion [CA]-CB--CG-[CD2] |==|  0.86622
USER: genes 19 Torsion [C]-CA--N-[C] |==|  0.84984
USER: genes 20 Torsion [N]-C--CA-[CB] |==|  0.73291
USER: genes 21 Torsion [N]-C--CA-[N] |==|  0.40725
USER: genes 22 Torsion [C]-CA--N-[C] |==|  0.64088
USER: genes 23 Torsion [N]-C--CA-[N] |==|  0.93678
USER: genes 24 Torsion [C]-CA--CB-[CG] |==|  0.89056
USER: genes 25 Torsion [CA]-CB--CG-[CD] |==|  0.55403
USER: genes 26 Torsion [CB]-CG--CD-[OE1] |==|  0.47746
USER: genes 27 Torsion [C]-CA--N-[H1] |==|  0.29215
USER: genes 28 Torsion [C]-CA--CB-[CG] |==|  0.41664
USER: genes 29 Torsion [CA]-CB--CG-[CD2] |==|  0.66350
ROOT
ATOM      1  CA  LEU B   4      56.659  88.033  29.927  1.00 30.07 LIG 0.18  C 
ENDROOT
BRANCH 1 2
ATOM      2  C   LEU B   4      55.203  87.917  30.297  1.00 30.58 LIG 0.24  C 
ATOM      3 O    LEU B   4      54.395  88.767  29.918  1.00 35.83 LIG-0.27  OA
ATOM      4  N   VAL B   5      54.873  86.911  31.104  1.00 32.24 LIG-0.35  N 
ATOM      5 H    VAL B   5      55.436  86.328  31.391  1.00 32.24 LIG 0.16  HD
BRANCH 4 6
ATOM      6  CA  VAL B   5      53.502  86.707  31.582  1.00 32.53 LIG 0.18  C 
BRANCH 6 7
ATOM      7  CB  VAL B   5      52.903  85.393  31.048  1.00 34.70 LIG 0.01  C 
ATOM      8  CG2 VAL B   5      53.679  84.955  29.833  1.00 38.22 LIG 0.01  C 
ATOM      9  CG1 VAL B   5      51.426  85.539  30.702  1.00 39.77 LIG 0.01  C 
ENDBRANCH 6 7
BRANCH 6 10
ATOM     10  C   VAL B   5      53.466  86.675  33.085  1.00 39.16 LIG 0.24  C 
ATOM     11 O    VAL B   5      54.292  87.301  33.761  1.00 33.69 LIG-0.27  OA
ATOM     12  N   LYS B   6      52.476  85.968  33.605  1.00 40.12 LIG-0.35  N 
ATOM     13 H    LYS B   6      51.871  85.572  33.138  1.00 40.12 LIG 0.16  HD
BRANCH 12 14
ATOM     14  CA  LYS B   6      52.332  85.806  35.020  1.00 45.41 LIG 0.18  C 
BRANCH 14 15
ATOM     15  C   LYS B   6      52.012  84.333  35.160  1.00 44.99 LIG 0.24  C 
ATOM     16 O    LYS B   6      52.559  83.670  36.016  1.00 45.85 LIG-0.27  OA
ATOM     17  N   ILE B   7      51.088  83.800  34.389  1.00 47.54 LIG-0.34  N 
ATOM     18 H    ILE B   7      50.653  84.197  33.762  1.00 47.54 LIG 0.16  HD
BRANCH 17 19
ATOM     19  CA  ILE B   7      50.765  82.381  34.624  1.00 57.67 LIG 0.19  C 
BRANCH 19 20
ATOM     20  CB  ILE B   7      50.309  82.030  36.095  1.00 59.41 LIG 0.01  C 
ATOM     21  CG2 ILE B   7      48.916  82.565  36.405  1.00 60.58 LIG 0.01  C 
BRANCH 20 22
ATOM     22  CG1 ILE B   7      50.381  80.498  36.359  1.00 65.20 LIG 0.00  C 
ATOM     23  CD1 ILE B   7      49.338  79.901  37.308  1.00 51.92 LIG 0.01  C 
ENDBRANCH 20 22
ENDBRANCH 19 20
BRANCH 19 24
ATOM     24  C   ILE B   7      49.874  81.786  33.523  1.00 61.74 LIG 0.20  C 
ATOM     25 O    ILE B   7      50.075  80.705  32.993  1.00 61.53 LIG-0.65  OA
ATOM     26 OXT  ILE B   7      48.874  82.397  33.143  1.00 68.92 LIG-0.65  OA
ENDBRANCH 19 24
ENDBRANCH 17 19
ENDBRANCH 14 15
BRANCH 14 27
ATOM     27  CB  LYS B   6      51.186  86.720  35.486  1.00 46.87 LIG 0.04  C 
BRANCH 27 28
ATOM     28  CG  LYS B   6      51.496  87.562  36.708  1.00 55.56 LIG 0.00  C 
BRANCH 28 29
ATOM     29  CD  LYS B   6      52.645  88.531  36.468  1.00 60.95 LIG 0.03  C 
BRANCH 29 30
ATOM     30  CE  LYS B   6      52.511  89.789  37.334  1.00 62.93 LIG 0.23  C 
BRANCH 30 31
ATOM     31  NZ  LYS B   6      53.758  90.075  38.108  1.00 65.77 LIG-0.08  N 
ATOM     32 HZ1  LYS B   6      53.658  90.834  38.563  1.00 65.77 LIG 0.27  HD
ATOM     33 HZ2  LYS B   6      53.915  89.408  38.676  1.00 65.77 LIG 0.27  HD
ATOM     34 HZ3  LYS B   6      54.445  90.155  37.547  1.00 65.77 LIG 0.27  HD
ENDBRANCH 30 31
ENDBRANCH 29 30
ENDBRANCH 28 29
ENDBRANCH 27 28
ENDBRANCH 14 27
ENDBRANCH 12 14
ENDBRANCH 6 10
ENDBRANCH 4 6
ENDBRANCH 1 2
BRANCH 1 35
ATOM     35  CB  LEU B   4      57.263  89.091  30.828  1.00 28.63 LIG 0.04  C 
BRANCH 35 36
ATOM     36  CG  LEU B   4      58.671  88.708  31.267  1.00 30.56 LIG-0.02  C 
ATOM     37  CD2 LEU B   4      58.655  87.277  31.759  1.00 33.80 LIG 0.01  C 
ATOM     38  CD1 LEU B   4      59.103  89.661  32.395  1.00 28.87 LIG 0.01  C 
ENDBRANCH 35 36
ENDBRANCH 1 35
BRANCH 1 39
ATOM     39  N   LEU B   4      56.980  88.397  28.527  1.00 28.62 LIG-0.35  N 
ATOM     40 H    LEU B   4      57.497  89.079  28.441  1.00 28.62 LIG 0.16  HD
ATOM     41  C   PRO B   3      56.492  87.702  27.520  1.00 33.12 LIG 0.24  C 
ATOM     42 O    PRO B   3      55.943  86.594  27.650  1.00 32.36 LIG-0.27  OA
BRANCH 41 43
ATOM     43  CA  PRO B   3      56.686  88.324  26.139  1.00 33.48 LIG 0.18  C 
ATOM     44  CB  PRO B   3      55.422  89.117  25.711  1.00 32.62 LIG 0.04  C 
ATOM     45  CG  PRO B   3      55.214  88.780  24.258  1.00 32.85 LIG 0.02  C 
ATOM     46  CD  PRO B   3      55.759  87.365  24.084  1.00 29.95 LIG 0.13  C 
ATOM     47  N   PRO B   3      56.752  87.228  25.189  1.00 33.01 LIG-0.34  N 
ATOM     48  C   LEU B   2      57.713  86.295  25.369  1.00 31.97 LIG 0.24  C 
ATOM     49 O    LEU B   2      58.618  86.386  26.205  1.00 33.64 LIG-0.27  OA
BRANCH 48 50
ATOM     50  CA  LEU B   2      57.691  85.104  24.438  1.00 32.67 LIG 0.18  C 
BRANCH 50 51
ATOM     51  N   LEU B   2      59.088  84.732  24.245  1.00 33.85 LIG-0.35  N 
ATOM     52 H    LEU B   2      59.524  84.643  24.980  1.00 33.85 LIG 0.16  HD
ATOM     53  C   GLU B   1      59.639  84.549  23.049  1.00 36.42 LIG 0.25  C 
ATOM     54 O    GLU B   1      58.955  84.410  22.021  1.00 32.31 LIG-0.27  OA
BRANCH 53 55
ATOM     55  CA  GLU B   1      61.177  84.401  23.021  1.00 35.71 LIG 0.28  C 
BRANCH 55 56
ATOM     56  CB  GLU B   1      61.525  82.910  22.957  1.00 39.23 LIG 0.05  C 
BRANCH 56 57
ATOM     57  CG  GLU B   1      60.613  82.050  23.831  1.00 48.64 LIG 0.12  C 
BRANCH 57 58
ATOM     58  CD  GLU B   1      61.160  80.662  24.188  1.00 56.94 LIG 0.17  C 
ATOM     59 OE1  GLU B   1      60.515  80.003  25.021  1.00 65.53 LIG-0.65  OA
ATOM     60 OE2  GLU B   1      62.225  80.216  23.675  1.00 53.19 LIG-0.65  OA
ENDBRANCH 57 58
ENDBRANCH 56 57
ENDBRANCH 55 56
BRANCH 55 61
ATOM     61  N   GLU B   1      61.820  85.020  24.231  1.00 36.67 LIG-0.07  N 
ATOM     62 H1   GLU B   1      62.085  84.378  24.787  1.00 36.67 LIG 0.28  HD
ATOM     63 H3   GLU B   1      61.233  85.546  24.643  1.00 36.67 LIG 0.28  HD
ATOM     64 H2   GLU B   1      62.524  85.503  23.978  1.00 36.67 LIG 0.28  HD
ENDBRANCH 55 61
ENDBRANCH 53 55
ENDBRANCH 50 51
BRANCH 50 65
ATOM     65  CB  LEU B   2      56.852  83.964  25.073  1.00 34.84 LIG 0.04  C 
BRANCH 65 66
ATOM     66  CG  LEU B   2      56.125  83.021  24.100  1.00 34.30 LIG-0.02  C 
ATOM     67  CD2 LEU B   2      54.604  83.021  24.331  1.00 39.39 LIG 0.01  C 
ATOM     68  CD1 LEU B   2      56.672  81.592  24.141  1.00 34.61 LIG 0.01  C 
ENDBRANCH 65 66
ENDBRANCH 50 65
ENDBRANCH 48 50
ENDBRANCH 41 43
ENDBRANCH 1 39
TORSDOF 28
ENDMDL
MODEL 6
USER: ADFR SOLUTION from run 148
USER: SCORE 25.394418 LL:  -6.622 LR: -19.465 RR:   0.000 FEB: -11.112
USER: RMSD 3.079114
USER: SEED 147
USER: STATUS no improvement in best in 5 clusters for 5 generations
USER: GENES 30
USER: genes 0 Translation |==|  0.55268 0.57835 0.46410
USER: genes 1 Rotation |==|  0.49022 0.52912 0.51113 0.99893
USER: genes 2 Torsion [N]-CA--C-[N] |==|  0.40556
USER: genes 3 Torsion [C]-N--CA-[C] |==|  0.73434
USER: genes 4 Torsion [N]-CA--CB-[CG2] |==|  0.67302
USER: genes 5 Torsion [N]-CA--C-[N] |==|  0.35751
USER: genes 6 Torsion [C]-N--CA-[C] |==|  0.83583
USER: genes 7 Torsion [N]-CA--C-[N] |==|  0.35709
USER: genes 8 Torsion [C]-N--CA-[CB] |==|  0.38852
USER: genes 9 Torsion [N]-CA--CB-[CG1] |==|  0.67299
USER: genes 10 Torsion [CA]-CB--CG1-[CD1] |==|  0.50440
USER: genes 11 Torsion [N]-CA--C-[OXT] |==|  0.35331
USER: genes 12 Torsion [N]-CA--CB-[CG] |==|  0.04989
USER: genes 13 Torsion [CA]-CB--CG-[CD] |==|  0.71679
USER: genes 14 Torsion [CB]-CG--CD-[CE] |==|  0.48475
USER: genes 15 Torsion [CG]-CD--CE-[NZ] |==|  0.51877
USER: genes 16 Torsion [CD]-CE--NZ-[HZ1] |==|  0.62375
USER: genes 17 Torsion [C]-CA--CB-[CG] |==|  0.35610
USER: genes 18 Torsion [CA]-CB--CG-[CD2] |==|  0.86079
USER: genes 19 Torsion [C]-CA--N-[C] |==|  0.85458
USER: genes 20 Torsion [N]-C--CA-[CB] |==|  0.69042
USER: genes 21 Torsion [N]-C--CA-[N] |==|  0.24952
USER: genes 22 Torsion [C]-CA--N-[C] |==|  0.68489
USER: genes 23 Torsion [N]-C--CA-[N] |==|  0.93714
USER: genes 24 Torsion [C]-CA--CB-[CG] |==|  0.85494
USER: genes 25 Torsion [CA]-CB--CG-[CD] |==|  0.74559
USER: genes 26 Torsion [CB]-CG--CD-[OE1] |==|  0.57700
USER: genes 27 Torsion [C]-CA--N-[H1] |==|  0.93609
USER: genes 28 Torsion [C]-CA--CB-[CG] |==|  0.60938
USER: genes 29 Torsion [CA]-CB--CG-[CD2] |==|  0.61391
ROOT
ATOM      1  CA  LEU B   4      56.745  88.089  29.731  1.00 30.07 LIG 0.18  C 
ENDROOT
BRANCH 1 2
ATOM      2  C   LEU B   4      55.324  88.067  30.230  1.00 30.58 LIG 0.24  C 
ATOM      3 O    LEU B   4      54.532  88.950  29.894  1.00 35.83 LIG-0.27  OA
ATOM      4  N   VAL B   5      55.013  87.106  31.097  1.00 32.24 LIG-0.35  N 
ATOM      5 H    VAL B   5      55.566  86.500  31.354  1.00 32.24 LIG 0.16  HD
BRANCH 4 6
ATOM      6  CA  VAL B   5      53.681  86.994  31.699  1.00 32.53 LIG 0.18  C 
BRANCH 6 7
ATOM      7  CB  VAL B   5      53.256  85.525  31.874  1.00 34.70 LIG 0.01  C 
ATOM      8  CG2 VAL B   5      52.024  85.266  31.044  1.00 38.22 LIG 0.01  C 
ATOM      9  CG1 VAL B   5      52.988  85.178  33.333  1.00 39.77 LIG 0.01  C 
ENDBRANCH 6 7
BRANCH 6 10
ATOM     10  C   VAL B   5      53.651  87.665  33.046  1.00 39.16 LIG 0.24  C 
ATOM     11 O    VAL B   5      54.517  87.429  33.899  1.00 33.69 LIG-0.27  OA
ATOM     12  N   LYS B   6      52.668  88.532  33.217  1.00 40.12 LIG-0.35  N 
ATOM     13 H    LYS B   6      52.094  88.733  32.608  1.00 40.12 LIG 0.16  HD
BRANCH 12 14
ATOM     14  CA  LYS B   6      52.480  89.218  34.459  1.00 45.41 LIG 0.18  C 
BRANCH 14 15
ATOM     15  C   LYS B   6      52.282  88.086  35.444  1.00 44.99 LIG 0.24  C 
ATOM     16 O    LYS B   6      51.508  87.187  35.191  1.00 45.85 LIG-0.27  OA
ATOM     17  N   ILE B   7      53.009  88.054  36.541  1.00 47.54 LIG-0.34  N 
ATOM     18 H    ILE B   7      53.578  88.647  36.794  1.00 47.54 LIG 0.16  HD
BRANCH 17 19
ATOM     19  CA  ILE B   7      52.828  86.887  37.423  1.00 57.67 LIG 0.19  C 
BRANCH 19 20
ATOM     20  CB  ILE B   7      54.155  86.316  38.061  1.00 59.41 LIG 0.01  C 
ATOM     21  CG2 ILE B   7      54.144  86.408  39.583  1.00 60.58 LIG 0.01  C 
BRANCH 20 22
ATOM     22  CG1 ILE B   7      54.418  84.853  37.602  1.00 65.20 LIG 0.00  C 
ATOM     23  CD1 ILE B   7      55.655  84.151  38.171  1.00 51.92 LIG 0.01  C 
ENDBRANCH 20 22
ENDBRANCH 19 20
BRANCH 19 24
ATOM     24  C   ILE B   7      51.671  87.071  38.417  1.00 61.74 LIG 0.20  C 
ATOM     25 O    ILE B   7      51.544  88.045  39.142  1.00 61.53 LIG-0.65  OA
ATOM     26 OXT  ILE B   7      50.787  86.218  38.498  1.00 68.92 LIG-0.65  OA
ENDBRANCH 19 24
ENDBRANCH 17 19
ENDBRANCH 14 15
BRANCH 14 27
ATOM     27  CB  LYS B   6      51.241  90.119  34.317  1.00 46.87 LIG 0.04  C 
BRANCH 27 28
ATOM     28  CG  LYS B   6      50.321  89.765  33.164  1.00 55.56 LIG 0.00  C 
BRANCH 28 29
ATOM     29  CD  LYS B   6      50.503  90.695  31.972  1.00 60.95 LIG 0.03  C 
BRANCH 29 30
ATOM     30  CE  LYS B   6      49.664  90.241  30.771  1.00 62.93 LIG 0.23  C 
BRANCH 30 31
ATOM     31  NZ  LYS B   6      49.954  91.047  29.545  1.00 65.77 LIG-0.08  N 
ATOM     32 HZ1  LYS B   6      49.189  91.265  29.146  1.00 65.77 LIG 0.27  HD
ATOM     33 HZ2  LYS B   6      50.392  91.788  29.773  1.00 65.77 LIG 0.27  HD
ATOM     34 HZ3  LYS B   6      50.454  90.567  28.986  1.00 65.77 LIG 0.27  HD
ENDBRANCH 30 31
ENDBRANCH 29 30
ENDBRANCH 28 29
ENDBRANCH 27 28
ENDBRANCH 14 27
ENDBRANCH 12 14
ENDBRANCH 6 10
ENDBRANCH 4 6
ENDBRANCH 1 2
BRANCH 1 35
ATOM     35  CB  LEU B   4      57.520  89.021  30.639  1.00 28.63 LIG 0.04  C 
BRANCH 35 36
ATOM     36  CG  LEU B   4      58.781  88.353  31.175  1.00 30.56 LIG-0.02  C 
ATOM     37  CD2 LEU B   4      58.410  87.001  31.746  1.00 33.80 LIG 0.01  C 
ATOM     38  CD1 LEU B   4      59.381  89.253  32.268  1.00 28.87 LIG 0.01  C 
ENDBRANCH 35 36
ENDBRANCH 1 35
BRANCH 1 39
ATOM     39  N   LEU B   4      56.971  88.529  28.335  1.00 28.62 LIG-0.35  N 
ATOM     40 H    LEU B   4      57.554  89.155  28.244  1.00 28.62 LIG 0.16  HD
ATOM     41  C   PRO B   3      56.309  87.979  27.337  1.00 33.12 LIG 0.24  C 
ATOM     42 O    PRO B   3      55.647  86.932  27.445  1.00 32.36 LIG-0.27  OA
BRANCH 41 43
ATOM     43  CA  PRO B   3      56.441  88.689  25.991  1.00 33.48 LIG 0.18  C 
ATOM     44  CB  PRO B   3      55.094  89.342  25.580  1.00 32.62 LIG 0.04  C 
ATOM     45  CG  PRO B   3      54.947  89.055  24.108  1.00 32.85 LIG 0.02  C 
ATOM     46  CD  PRO B   3      55.664  87.728  23.877  1.00 29.95 LIG 0.13  C 
ATOM     47  N   PRO B   3      56.653  87.659  24.991  1.00 33.01 LIG-0.34  N 
ATOM     48  C   LEU B   2      57.719  86.842  25.144  1.00 31.97 LIG 0.24  C 
ATOM     49 O    LEU B   2      58.596  87.001  25.999  1.00 33.64 LIG-0.27  OA
BRANCH 48 50
ATOM     50  CA  LEU B   2      57.855  85.705  24.156  1.00 32.67 LIG 0.18  C 
BRANCH 50 51
ATOM     51  N   LEU B   2      58.643  86.240  23.050  1.00 33.85 LIG-0.35  N 
ATOM     52 H    LEU B   2      59.453  86.429  23.266  1.00 33.85 LIG 0.16  HD
ATOM     53  C   GLU B   1      58.159  86.419  21.826  1.00 36.42 LIG 0.25  C 
ATOM     54 O    GLU B   1      57.094  85.900  21.453  1.00 32.31 LIG-0.27  OA
BRANCH 53 55
ATOM     55  CA  GLU B   1      59.052  87.218  20.849  1.00 35.71 LIG 0.28  C 
BRANCH 55 56
ATOM     56  CB  GLU B   1      59.810  86.227  19.958  1.00 39.23 LIG 0.05  C 
BRANCH 56 57
ATOM     57  CG  GLU B   1      60.554  85.159  20.759  1.00 48.64 LIG 0.12  C 
BRANCH 57 58
ATOM     58  CD  GLU B   1      62.007  85.499  21.119  1.00 56.94 LIG 0.17  C 
ATOM     59 OE1  GLU B   1      62.784  84.541  21.271  1.00 65.53 LIG-0.65  OA
ATOM     60 OE2  GLU B   1      62.392  86.693  21.271  1.00 53.19 LIG-0.65  OA
ENDBRANCH 57 58
ENDBRANCH 56 57
ENDBRANCH 55 56
BRANCH 55 61
ATOM     61  N   GLU B   1      60.030  88.097  21.577  1.00 36.67 LIG-0.07  N 
ATOM     62 H1   GLU B   1      59.725  88.266  22.396  1.00 36.67 LIG 0.28  HD
ATOM     63 H3   GLU B   1      60.129  88.862  21.134  1.00 36.67 LIG 0.28  HD
ATOM     64 H2   GLU B   1      60.816  87.683  21.632  1.00 36.67 LIG 0.28  HD
ENDBRANCH 55 61
ENDBRANCH 53 55
ENDBRANCH 50 51
BRANCH 50 65
ATOM     65  CB  LEU B   2      58.539  84.497  24.846  1.00 34.84 LIG 0.04  C 
BRANCH 65 66
ATOM     66  CG  LEU B   2      59.559  83.710  24.007  1.00 34.30 LIG-0.02  C 
ATOM     67  CD2 LEU B   2      59.427  82.192  24.220  1.00 39.39 LIG 0.01  C 
ATOM     68  CD1 LEU B   2      61.000  84.161  24.251  1.00 34.61 LIG 0.01  C 
ENDBRANCH 65 66
ENDBRANCH 50 65
ENDBRANCH 48 50
ENDBRANCH 41 43
ENDBRANCH 1 39
TORSDOF 28
ENDMDL
MODEL 7
USER: ADFR SOLUTION from run 174
USER: SCORE 25.930728 LL:  -6.897 LR: -19.447 RR:   0.000 FEB: -11.095
USER: RMSD 1.877465
USER: SEED 173
USER: STATUS no improvement in best in 4 clusters for 5 generations
USER: GENES 30
USER: genes 0 Translation |==|  0.58605 0.58031 0.47122
USER: genes 1 Rotation |==|  0.49190 0.51588 0.46448 0.99842
USER: genes 2 Torsion [N]-CA--C-[N] |==|  0.36375
USER: genes 3 Torsion [C]-N--CA-[C] |==|  0.74116
USER: genes 4 Torsion [N]-CA--CB-[CG2] |==|  0.92307
USER: genes 5 Torsion [N]-CA--C-[N] |==|  0.39929
USER: genes 6 Torsion [C]-N--CA-[C] |==|  0.84407
USER: genes 7 Torsion [N]-CA--C-[N] |==|  0.37058
USER: genes 8 Torsion [C]-N--CA-[CB] |==|  0.45359
USER: genes 9 Torsion [N]-CA--CB-[CG1] |==|  0.59099
USER: genes 10 Torsion [CA]-CB--CG1-[CD1] |==|  0.37564
USER: genes 11 Torsion [N]-CA--C-[OXT] |==|  0.44254
USER: genes 12 Torsion [N]-CA--CB-[CG] |==|  0.42295
USER: genes 13 Torsion [CA]-CB--CG-[CD] |==|  0.20749
USER: genes 14 Torsion [CB]-CG--CD-[CE] |==|  0.69492
USER: genes 15 Torsion [CG]-CD--CE-[NZ] |==|  0.33501
USER: genes 16 Torsion [CD]-CE--NZ-[HZ1] |==|  0.46085
USER: genes 17 Torsion [C]-CA--CB-[CG] |==|  0.33972
USER: genes 18 Torsion [CA]-CB--CG-[CD2] |==|  0.89613
USER: genes 19 Torsion [C]-CA--N-[C] |==|  0.85232
USER: genes 20 Torsion [N]-C--CA-[CB] |==|  0.74900
USER: genes 21 Torsion [N]-C--CA-[N] |==|  0.46565
USER: genes 22 Torsion [C]-CA--N-[C] |==|  0.52778
USER: genes 23 Torsion [N]-C--CA-[N] |==|  0.08289
USER: genes 24 Torsion [C]-CA--CB-[CG] |==|  0.70048
USER: genes 25 Torsion [CA]-CB--CG-[CD] |==|  0.77615
USER: genes 26 Torsion [CB]-CG--CD-[OE1] |==|  0.64938
USER: genes 27 Torsion [C]-CA--N-[H1] |==|  0.21629
USER: genes 28 Torsion [C]-CA--CB-[CG] |==|  0.76222
USER: genes 29 Torsion [CA]-CB--CG-[CD2] |==|  0.62436
ROOT
ATOM      1  CA  LEU B   4      57.446  88.133  29.912  1.00 30.07 LIG 0.18  C 
ENDROOT
BRANCH 1 2
ATOM      2  C   LEU B   4      56.019  88.378  30.331  1.00 30.58 LIG 0.24  C 
ATOM      3 O    LEU B   4      55.514  89.494  30.195  1.00 35.83 LIG-0.27  OA
ATOM      4  N   VAL B   5      55.388  87.362  30.915  1.00 32.24 LIG-0.35  N 
ATOM      5 H    VAL B   5      55.742  86.587  31.033  1.00 32.24 LIG 0.16  HD
BRANCH 4 6
ATOM      6  CA  VAL B   5      54.014  87.475  31.414  1.00 32.53 LIG 0.18  C 
BRANCH 6 7
ATOM      7  CB  VAL B   5      53.238  86.155  31.251  1.00 34.70 LIG 0.01  C 
ATOM      8  CG2 VAL B   5      53.806  85.391  30.083  1.00 38.22 LIG 0.01  C 
ATOM      9  CG1 VAL B   5      51.747  86.393  31.047  1.00 39.77 LIG 0.01  C 
ENDBRANCH 6 7
BRANCH 6 10
ATOM     10  C   VAL B   5      54.010  87.857  32.869  1.00 39.16 LIG 0.24  C 
ATOM     11 O    VAL B   5      54.889  87.451  33.641  1.00 33.69 LIG-0.27  OA
ATOM     12  N   LYS B   6      53.034  88.672  33.230  1.00 40.12 LIG-0.35  N 
ATOM     13 H    LYS B   6      52.451  88.994  32.686  1.00 40.12 LIG 0.16  HD
BRANCH 12 14
ATOM     14  CA  LYS B   6      52.870  89.090  34.589  1.00 45.41 LIG 0.18  C 
BRANCH 14 15
ATOM     15  C   LYS B   6      52.759  87.778  35.336  1.00 44.99 LIG 0.24  C 
ATOM     16 O    LYS B   6      52.080  86.878  34.888  1.00 45.85 LIG-0.27  OA
ATOM     17  N   ILE B   7      53.460  87.603  36.436  1.00 47.54 LIG-0.34  N 
ATOM     18 H    ILE B   7      53.964  88.185  36.819  1.00 47.54 LIG 0.16  HD
BRANCH 17 19
ATOM     19  CA  ILE B   7      53.371  86.278  37.076  1.00 57.67 LIG 0.19  C 
BRANCH 19 20
ATOM     20  CB  ILE B   7      54.508  85.962  38.125  1.00 59.41 LIG 0.01  C 
ATOM     21  CG2 ILE B   7      54.142  86.436  39.527  1.00 60.58 LIG 0.01  C 
BRANCH 20 22
ATOM     22  CG1 ILE B   7      54.864  84.447  38.133  1.00 65.20 LIG 0.00  C 
ATOM     23  CD1 ILE B   7      56.350  84.076  38.150  1.00 51.92 LIG 0.01  C 
ENDBRANCH 20 22
ENDBRANCH 19 20
BRANCH 19 24
ATOM     24  C   ILE B   7      51.951  85.948  37.558  1.00 61.74 LIG 0.20  C 
ATOM     25 O    ILE B   7      51.082  86.786  37.743  1.00 61.53 LIG-0.65  OA
ATOM     26 OXT  ILE B   7      51.624  84.777  37.756  1.00 68.92 LIG-0.65  OA
ENDBRANCH 19 24
ENDBRANCH 17 19
ENDBRANCH 14 15
BRANCH 14 27
ATOM     27  CB  LYS B   6      51.591  89.942  34.669  1.00 46.87 LIG 0.04  C 
BRANCH 27 28
ATOM     28  CG  LYS B   6      50.895  89.926  36.017  1.00 55.56 LIG 0.00  C 
BRANCH 28 29
ATOM     29  CD  LYS B   6      51.628  90.762  37.056  1.00 60.95 LIG 0.03  C 
BRANCH 29 30
ATOM     30  CE  LYS B   6      52.282  89.881  38.128  1.00 62.93 LIG 0.23  C 
BRANCH 30 31
ATOM     31  NZ  LYS B   6      53.764  90.076  38.191  1.00 65.77 LIG-0.08  N 
ATOM     32 HZ1  LYS B   6      54.079  89.716  38.941  1.00 65.77 LIG 0.27  HD
ATOM     33 HZ2  LYS B   6      54.145  89.681  37.489  1.00 65.77 LIG 0.27  HD
ATOM     34 HZ3  LYS B   6      53.949  90.947  38.178  1.00 65.77 LIG 0.27  HD
ENDBRANCH 30 31
ENDBRANCH 29 30
ENDBRANCH 28 29
ENDBRANCH 27 28
ENDBRANCH 14 27
ENDBRANCH 12 14
ENDBRANCH 6 10
ENDBRANCH 4 6
ENDBRANCH 1 2
BRANCH 1 35
ATOM     35  CB  LEU B   4      58.328  88.913  30.865  1.00 28.63 LIG 0.04  C 
BRANCH 35 36
ATOM     36  CG  LEU B   4      59.318  88.000  31.578  1.00 30.56 LIG-0.02  C 
ATOM     37  CD2 LEU B   4      58.635  86.685  31.884  1.00 33.80 LIG 0.01  C 
ATOM     38  CD1 LEU B   4      59.765  88.690  32.878  1.00 28.87 LIG 0.01  C 
ENDBRANCH 35 36
ENDBRANCH 1 35
BRANCH 1 39
ATOM     39  N   LEU B   4      57.827  88.513  28.532  1.00 28.62 LIG-0.35  N 
ATOM     40 H    LEU B   4      58.513  89.028  28.476  1.00 28.62 LIG 0.16  HD
ATOM     41  C   PRO B   3      57.140  88.073  27.497  1.00 33.12 LIG 0.24  C 
ATOM     42 O    PRO B   3      56.303  87.156  27.565  1.00 32.36 LIG-0.27  OA
BRANCH 41 43
ATOM     43  CA  PRO B   3      57.472  88.735  26.161  1.00 33.48 LIG 0.18  C 
ATOM     44  CB  PRO B   3      56.569  89.974  25.922  1.00 32.62 LIG 0.04  C 
ATOM     45  CG  PRO B   3      56.170  89.901  24.471  1.00 32.85 LIG 0.02  C 
ATOM     46  CD  PRO B   3      56.143  88.414  24.129  1.00 29.95 LIG 0.13  C 
ATOM     47  N   PRO B   3      57.076  87.804  25.120  1.00 33.01 LIG-0.34  N 
ATOM     48  C   LEU B   2      57.631  86.572  25.131  1.00 31.97 LIG 0.24  C 
ATOM     49 O    LEU B   2      58.552  86.235  25.883  1.00 33.64 LIG-0.27  OA
BRANCH 48 50
ATOM     50  CA  LEU B   2      57.119  85.583  24.108  1.00 32.67 LIG 0.18  C 
BRANCH 50 51
ATOM     51  N   LEU B   2      58.064  84.472  24.130  1.00 33.85 LIG-0.35  N 
ATOM     52 H    LEU B   2      58.625  84.512  24.780  1.00 33.85 LIG 0.16  HD
ATOM     53  C   GLU B   1      58.062  83.491  23.234  1.00 36.42 LIG 0.25  C 
ATOM     54 O    GLU B   1      57.100  83.291  22.475  1.00 32.31 LIG-0.27  OA
BRANCH 53 55
ATOM     55  CA  GLU B   1      59.277  82.536  23.264  1.00 35.71 LIG 0.28  C 
BRANCH 55 56
ATOM     56  CB  GLU B   1      58.830  81.159  22.761  1.00 39.23 LIG 0.05  C 
BRANCH 56 57
ATOM     57  CG  GLU B   1      58.746  80.119  23.878  1.00 48.64 LIG 0.12  C 
BRANCH 57 58
ATOM     58  CD  GLU B   1      60.081  79.484  24.288  1.00 56.94 LIG 0.17  C 
ATOM     59 OE1  GLU B   1      60.138  78.243  24.276  1.00 65.53 LIG-0.65  OA
ATOM     60 OE2  GLU B   1      61.071  80.187  24.639  1.00 53.19 LIG-0.65  OA
ENDBRANCH 57 58
ENDBRANCH 56 57
ENDBRANCH 55 56
BRANCH 55 61
ATOM     61  N   GLU B   1      59.853  82.408  24.646  1.00 36.67 LIG-0.07  N 
ATOM     62 H1   GLU B   1      59.345  81.862  25.131  1.00 36.67 LIG 0.28  HD
ATOM     63 H3   GLU B   1      59.880  83.210  25.033  1.00 36.67 LIG 0.28  HD
ATOM     64 H2   GLU B   1      60.678  82.078  24.594  1.00 36.67 LIG 0.28  HD
ENDBRANCH 55 61
ENDBRANCH 53 55
ENDBRANCH 50 51
BRANCH 50 65
ATOM     65  CB  LEU B   2      55.678  85.149  24.483  1.00 34.84 LIG 0.04  C 
BRANCH 65 66
ATOM     66  CG  LEU B   2      55.546  83.986  25.481  1.00 34.30 LIG-0.02  C 
ATOM     67  CD2 LEU B   2      54.486  82.965  25.034  1.00 39.39 LIG 0.01  C 
ATOM     68  CD1 LEU B   2      55.265  84.460  26.908  1.00 34.61 LIG 0.01  C 
ENDBRANCH 65 66
ENDBRANCH 50 65
ENDBRANCH 48 50
ENDBRANCH 41 43
ENDBRANCH 1 39
TORSDOF 28
ENDMDL
MODEL 8
USER: ADFR SOLUTION from run 105
USER: SCORE 24.817611 LL:  -7.322 LR: -19.437 RR:   0.000 FEB: -11.085
USER: RMSD 3.634049
USER: SEED 104
USER: STATUS no improvement in best in 4 clusters for 5 generations
USER: GENES 30
USER: genes 0 Translation |==|  0.51741 0.60305 0.46643
USER: genes 1 Rotation |==|  0.50832 0.52769 0.59115 0.99077
USER: genes 2 Torsion [N]-CA--C-[N] |==|  0.40651
USER: genes 3 Torsion [C]-N--CA-[C] |==|  0.65949
USER: genes 4 Torsion [N]-CA--CB-[CG2] |==|  0.95530
USER: genes 5 Torsion [N]-CA--C-[N] |==|  0.55200
USER: genes 6 Torsion [C]-N--CA-[C] |==|  0.57778
USER: genes 7 Torsion [N]-CA--C-[N] |==|  0.88986
USER: genes 8 Torsion [C]-N--CA-[CB] |==|  0.20625
USER: genes 9 Torsion [N]-CA--CB-[CG1] |==|  0.67617
USER: genes 10 Torsion [CA]-CB--CG1-[CD1] |==|  0.63769
USER: genes 11 Torsion [N]-CA--C-[OXT] |==|  0.91922
USER: genes 12 Torsion [N]-CA--CB-[CG] |==|  0.62896
USER: genes 13 Torsion [CA]-CB--CG-[CD] |==|  0.34873
USER: genes 14 Torsion [CB]-CG--CD-[CE] |==|  0.47365
USER: genes 15 Torsion [CG]-CD--CE-[NZ] |==|  0.36036
USER: genes 16 Torsion [CD]-CE--NZ-[HZ1] |==|  0.50163
USER: genes 17 Torsion [C]-CA--CB-[CG] |==|  0.32131
USER: genes 18 Torsion [CA]-CB--CG-[CD2] |==|  0.26839
USER: genes 19 Torsion [C]-CA--N-[C] |==|  0.58514
USER: genes 20 Torsion [N]-C--CA-[CB] |==|  0.05824
USER: genes 21 Torsion [N]-C--CA-[N] |==|  0.32110
USER: genes 22 Torsion [C]-CA--N-[C] |==|  0.58933
USER: genes 23 Torsion [N]-C--CA-[N] |==|  0.94089
USER: genes 24 Torsion [C]-CA--CB-[CG] |==|  0.83426
USER: genes 25 Torsion [CA]-CB--CG-[CD] |==|  0.77604
USER: genes 26 Torsion [CB]-CG--CD-[OE1] |==|  0.49093
USER: genes 27 Torsion [C]-CA--N-[H1] |==|  0.61774
USER: genes 28 Torsion [C]-CA--CB-[CG] |==|  0.12494
USER: genes 29 Torsion [CA]-CB--CG-[CD2] |==|  0.09790
ROOT
ATOM      1  CA  LEU B   4      56.005  88.645  29.790  1.00 30.07 LIG 0.18  C 
ENDROOT
BRANCH 1 2
ATOM      2  C   LEU B   4      54.670  88.136  30.271  1.00 30.58 LIG 0.24  C 
ATOM      3 O    LEU B   4      53.636  88.751  30.002  1.00 35.83 LIG-0.27  OA
ATOM      4  N   VAL B   5      54.691  87.057  31.050  1.00 32.24 LIG-0.35  N 
ATOM      5 H    VAL B   5      55.410  86.636  31.261  1.00 32.24 LIG 0.16  HD
BRANCH 4 6
ATOM      6  CA  VAL B   5      53.471  86.484  31.627  1.00 32.53 LIG 0.18  C 
BRANCH 6 7
ATOM      7  CB  VAL B   5      53.206  85.061  31.102  1.00 34.70 LIG 0.01  C 
ATOM      8  CG2 VAL B   5      54.043  84.827  29.870  1.00 38.22 LIG 0.01  C 
ATOM      9  CG1 VAL B   5      51.733  84.834  30.786  1.00 39.77 LIG 0.01  C 
ENDBRANCH 6 7
BRANCH 6 10
ATOM     10  C   VAL B   5      53.570  86.430  33.127  1.00 39.16 LIG 0.24  C 
ATOM     11 O    VAL B   5      54.368  87.147  33.744  1.00 33.69 LIG-0.27  OA
ATOM     12  N   LYS B   6      52.724  85.599  33.713  1.00 40.12 LIG-0.35  N 
ATOM     13 H    LYS B   6      52.135  85.136  33.291  1.00 40.12 LIG 0.16  HD
BRANCH 12 14
ATOM     14  CA  LYS B   6      52.725  85.404  35.132  1.00 45.41 LIG 0.18  C 
BRANCH 14 15
ATOM     15  C   LYS B   6      52.203  83.991  35.278  1.00 44.99 LIG 0.24  C 
ATOM     16 O    LYS B   6      52.640  83.267  36.149  1.00 45.85 LIG-0.27  OA
ATOM     17  N   ILE B   7      51.226  83.582  34.497  1.00 47.54 LIG-0.34  N 
ATOM     18 H    ILE B   7      50.859  84.029  33.860  1.00 47.54 LIG 0.16  HD
BRANCH 17 19
ATOM     19  CA  ILE B   7      50.707  82.224  34.739  1.00 57.67 LIG 0.19  C 
BRANCH 19 20
ATOM     20  CB  ILE B   7      49.804  82.068  36.024  1.00 59.41 LIG 0.01  C 
ATOM     21  CG2 ILE B   7      48.390  81.612  35.679  1.00 60.58 LIG 0.01  C 
BRANCH 20 22
ATOM     22  CG1 ILE B   7      50.454  81.105  37.059  1.00 65.20 LIG 0.00  C 
ATOM     23  CD1 ILE B   7      49.574  79.990  37.629  1.00 51.92 LIG 0.01  C 
ENDBRANCH 20 22
ENDBRANCH 19 20
BRANCH 19 24
ATOM     24  C   ILE B   7      50.126  81.579  33.471  1.00 61.74 LIG 0.20  C 
ATOM     25 O    ILE B   7      50.090  80.374  33.275  1.00 61.53 LIG-0.65  OA
ATOM     26 OXT  ILE B   7      49.636  82.285  32.589  1.00 68.92 LIG-0.65  OA
ENDBRANCH 19 24
ENDBRANCH 17 19
ENDBRANCH 14 15
BRANCH 14 27
ATOM     27  CB  LYS B   6      51.796  86.460  35.754  1.00 46.87 LIG 0.04  C 
BRANCH 27 28
ATOM     28  CG  LYS B   6      52.364  87.180  36.961  1.00 55.56 LIG 0.00  C 
BRANCH 28 29
ATOM     29  CD  LYS B   6      52.340  88.693  36.797  1.00 60.95 LIG 0.03  C 
BRANCH 29 30
ATOM     30  CE  LYS B   6      52.696  89.408  38.106  1.00 62.93 LIG 0.23  C 
BRANCH 30 31
ATOM     31  NZ  LYS B   6      53.760  90.440  37.913  1.00 65.77 LIG-0.08  N 
ATOM     32 HZ1  LYS B   6      53.945  90.826  38.694  1.00 65.77 LIG 0.27  HD
ATOM     33 HZ2  LYS B   6      54.495  90.053  37.592  1.00 65.77 LIG 0.27  HD
ATOM     34 HZ3  LYS B   6      53.475  91.057  37.338  1.00 65.77 LIG 0.27  HD
ENDBRANCH 30 31
ENDBRANCH 29 30
ENDBRANCH 28 29
ENDBRANCH 27 28
ENDBRANCH 14 27
ENDBRANCH 12 14
ENDBRANCH 6 10
ENDBRANCH 4 6
ENDBRANCH 1 2
BRANCH 1 35
ATOM     35  CB  LEU B   4      56.467  89.688  30.787  1.00 28.63 LIG 0.04  C 
BRANCH 35 36
ATOM     36  CG  LEU B   4      57.740  89.247  31.500  1.00 30.56 LIG-0.02  C 
ATOM     37  CD2 LEU B   4      58.930  89.868  30.801  1.00 33.80 LIG 0.01  C 
ATOM     38  CD1 LEU B   4      57.822  87.713  31.443  1.00 28.87 LIG 0.01  C 
ENDBRANCH 35 36
ENDBRANCH 1 35
BRANCH 1 39
ATOM     39  N   LEU B   4      56.056  89.255  28.442  1.00 28.62 LIG-0.35  N 
ATOM     40 H    LEU B   4      55.332  89.648  28.196  1.00 28.62 LIG 0.16  HD
ATOM     41  C   PRO B   3      57.147  89.179  27.707  1.00 33.12 LIG 0.24  C 
ATOM     42 O    PRO B   3      58.252  88.817  28.149  1.00 32.36 LIG-0.27  OA
BRANCH 41 43
ATOM     43  CA  PRO B   3      56.991  89.619  26.253  1.00 33.48 LIG 0.18  C 
ATOM     44  CB  PRO B   3      55.750  90.535  26.085  1.00 32.62 LIG 0.04  C 
ATOM     45  CG  PRO B   3      55.090  90.081  24.810  1.00 32.85 LIG 0.02  C 
ATOM     46  CD  PRO B   3      55.405  88.592  24.695  1.00 29.95 LIG 0.13  C 
ATOM     47  N   PRO B   3      56.658  88.431  25.487  1.00 33.01 LIG-0.34  N 
ATOM     48  C   LEU B   2      57.524  87.394  25.524  1.00 31.97 LIG 0.24  C 
ATOM     49 O    LEU B   2      58.639  87.442  26.054  1.00 33.64 LIG-0.27  OA
BRANCH 48 50
ATOM     50  CA  LEU B   2      57.102  86.127  24.814  1.00 32.67 LIG 0.18  C 
BRANCH 50 51
ATOM     51  N   LEU B   2      58.059  85.950  23.728  1.00 33.85 LIG-0.35  N 
ATOM     52 H    LEU B   2      58.846  86.242  23.912  1.00 33.85 LIG 0.16  HD
ATOM     53  C   GLU B   1      57.748  85.393  22.562  1.00 36.42 LIG 0.25  C 
ATOM     54 O    GLU B   1      56.707  84.736  22.400  1.00 32.31 LIG-0.27  OA
BRANCH 53 55
ATOM     55  CA  GLU B   1      58.810  85.508  21.445  1.00 35.71 LIG 0.28  C 
BRANCH 55 56
ATOM     56  CB  GLU B   1      59.585  84.187  21.368  1.00 39.23 LIG 0.05  C 
BRANCH 56 57
ATOM     57  CG  GLU B   1      60.293  83.838  22.676  1.00 48.64 LIG 0.12  C 
BRANCH 57 58
ATOM     58  CD  GLU B   1      61.630  84.553  22.912  1.00 56.94 LIG 0.17  C 
ATOM     59 OE1  GLU B   1      62.197  84.335  23.996  1.00 65.53 LIG-0.65  OA
ATOM     60 OE2  GLU B   1      62.123  85.339  22.055  1.00 53.19 LIG-0.65  OA
ENDBRANCH 57 58
ENDBRANCH 56 57
ENDBRANCH 55 56
BRANCH 55 61
ATOM     61  N   GLU B   1      59.765  86.641  21.697  1.00 36.67 LIG-0.07  N 
ATOM     62 H1   GLU B   1      59.916  87.078  20.936  1.00 36.67 LIG 0.28  HD
ATOM     63 H3   GLU B   1      60.534  86.319  22.010  1.00 36.67 LIG 0.28  HD
ATOM     64 H2   GLU B   1      59.413  87.199  22.294  1.00 36.67 LIG 0.28  HD
ENDBRANCH 55 61
ENDBRANCH 53 55
ENDBRANCH 50 51
BRANCH 50 65
ATOM     65  CB  LEU B   2      57.111  84.943  25.816  1.00 34.84 LIG 0.04  C 
BRANCH 65 66
ATOM     66  CG  LEU B   2      56.477  85.202  27.193  1.00 34.30 LIG-0.02  C 
ATOM     67  CD2 LEU B   2      55.263  86.141  27.098  1.00 39.39 LIG 0.01  C 
ATOM     68  CD1 LEU B   2      57.483  85.729  28.218  1.00 34.61 LIG 0.01  C 
ENDBRANCH 65 66
ENDBRANCH 50 65
ENDBRANCH 48 50
ENDBRANCH 41 43
ENDBRANCH 1 39
TORSDOF 28
ENDMDL
MODEL 9
USER: ADFR SOLUTION from run 84
USER: SCORE 25.478168 LL:  -7.235 LR: -19.170 RR:   0.000 FEB: -10.817
USER: RMSD 4.085482
USER: SEED 83
USER: STATUS no improvement in best in 8 clusters for 5 generations
USER: GENES 30
USER: genes 0 Translation |==|  0.53465 0.58471 0.47985
USER: genes 1 Rotation |==|  0.48482 0.46896 0.55907 0.99529
USER: genes 2 Torsion [N]-CA--C-[N] |==|  0.38001
USER: genes 3 Torsion [C]-N--CA-[C] |==|  0.74446
USER: genes 4 Torsion [N]-CA--CB-[CG2] |==|  0.63483
USER: genes 5 Torsion [N]-CA--C-[N] |==|  0.40888
USER: genes 6 Torsion [C]-N--CA-[C] |==|  0.64456
USER: genes 7 Torsion [N]-CA--C-[N] |==|  0.04077
USER: genes 8 Torsion [C]-N--CA-[CB] |==|  0.27905
USER: genes 9 Torsion [N]-CA--CB-[CG1] |==|  0.12218
USER: genes 10 Torsion [CA]-CB--CG1-[CD1] |==|  0.35567
USER: genes 11 Torsion [N]-CA--C-[OXT] |==|  0.23888
USER: genes 12 Torsion [N]-CA--CB-[CG] |==|  0.01140
USER: genes 13 Torsion [CA]-CB--CG-[CD] |==|  0.25112
USER: genes 14 Torsion [CB]-CG--CD-[CE] |==|  0.34769
USER: genes 15 Torsion [CG]-CD--CE-[NZ] |==|  0.20664
USER: genes 16 Torsion [CD]-CE--NZ-[HZ1] |==|  0.59052
USER: genes 17 Torsion [C]-CA--CB-[CG] |==|  0.41737
USER: genes 18 Torsion [CA]-CB--CG-[CD2] |==|  0.22965
USER: genes 19 Torsion [C]-CA--N-[C] |==|  0.85765
USER: genes 20 Torsion [N]-C--CA-[CB] |==|  0.75652
USER: genes 21 Torsion [N]-C--CA-[N] |==|  0.22518
USER: genes 22 Torsion [C]-CA--N-[C] |==|  0.61920
USER: genes 23 Torsion [N]-C--CA-[N] |==|  0.97501
USER: genes 24 Torsion [C]-CA--CB-[CG] |==|  0.85940
USER: genes 25 Torsion [CA]-CB--CG-[CD] |==|  0.74448
USER: genes 26 Torsion [CB]-CG--CD-[OE1] |==|  0.58291
USER: genes 27 Torsion [C]-CA--N-[H1] |==|  0.26703
USER: genes 28 Torsion [C]-CA--CB-[CG] |==|  0.62285
USER: genes 29 Torsion [CA]-CB--CG-[CD2] |==|  0.59702
ROOT
ATOM      1  CA  LEU B   4      56.367  88.232  30.132  1.00 30.07 LIG 0.18  C 
ENDROOT
BRANCH 1 2
ATOM      2  C   LEU B   4      54.900  87.923  30.288  1.00 30.58 LIG 0.24  C 
ATOM      3 O    LEU B   4      54.050  88.726  29.898  1.00 35.83 LIG-0.27  OA
ATOM      4  N   VAL B   5      54.594  86.797  30.928  1.00 32.24 LIG-0.35  N 
ATOM      5 H    VAL B   5      55.182  86.242  31.222  1.00 32.24 LIG 0.16  HD
BRANCH 4 6
ATOM      6  CA  VAL B   5      53.209  86.396  31.191  1.00 32.53 LIG 0.18  C 
BRANCH 6 7
ATOM      7  CB  VAL B   5      53.042  84.866  31.159  1.00 34.70 LIG 0.01  C 
ATOM      8  CG2 VAL B   5      51.859  84.516  30.294  1.00 38.22 LIG 0.01  C 
ATOM      9  CG1 VAL B   5      52.862  84.282  32.555  1.00 39.77 LIG 0.01  C 
ENDBRANCH 6 7
BRANCH 6 10
ATOM     10  C   VAL B   5      52.759  86.899  32.536  1.00 39.16 LIG 0.24  C 
ATOM     11 O    VAL B   5      53.559  87.032  33.471  1.00 33.69 LIG-0.27  OA
ATOM     12  N   LYS B   6      51.478  87.214  32.614  1.00 40.12 LIG-0.35  N 
ATOM     13 H    LYS B   6      50.930  87.169  31.952  1.00 40.12 LIG 0.16  HD
BRANCH 12 14
ATOM     14  CA  LYS B   6      50.889  87.666  33.839  1.00 45.41 LIG 0.18  C 
BRANCH 14 15
ATOM     15  C   LYS B   6      49.695  86.750  33.997  1.00 44.99 LIG 0.24  C 
ATOM     16 O    LYS B   6      48.789  87.054  34.745  1.00 45.85 LIG-0.27  OA
ATOM     17  N   ILE B   7      49.619  85.659  33.265  1.00 47.54 LIG-0.34  N 
ATOM     18 H    ILE B   7      50.212  85.372  32.712  1.00 47.54 LIG 0.16  HD
BRANCH 17 19
ATOM     19  CA  ILE B   7      48.396  84.848  33.406  1.00 57.67 LIG 0.19  C 
BRANCH 19 20
ATOM     20  CB  ILE B   7      47.324  85.045  32.263  1.00 59.41 LIG 0.01  C 
ATOM     21  CG2 ILE B   7      46.479  86.296  32.480  1.00 60.58 LIG 0.01  C 
BRANCH 20 22
ATOM     22  CG1 ILE B   7      47.993  85.071  30.858  1.00 65.20 LIG 0.00  C 
ATOM     23  CD1 ILE B   7      47.427  84.127  29.795  1.00 51.92 LIG 0.01  C 
ENDBRANCH 20 22
ENDBRANCH 19 20
BRANCH 19 24
ATOM     24  C   ILE B   7      48.695  83.382  33.751  1.00 61.74 LIG 0.20  C 
ATOM     25 O    ILE B   7      48.819  82.497  32.919  1.00 61.53 LIG-0.65  OA
ATOM     26 OXT  ILE B   7      48.851  83.045  34.925  1.00 68.92 LIG-0.65  OA
ENDBRANCH 19 24
ENDBRANCH 17 19
ENDBRANCH 14 15
BRANCH 14 27
ATOM     27  CB  LYS B   6      50.500  89.143  33.659  1.00 46.87 LIG 0.04  C 
BRANCH 27 28
ATOM     28  CG  LYS B   6      50.730  89.699  32.267  1.00 55.56 LIG 0.00  C 
BRANCH 28 29
ATOM     29  CD  LYS B   6      49.512  89.532  31.368  1.00 60.95 LIG 0.03  C 
BRANCH 29 30
ATOM     30  CE  LYS B   6      49.066  90.872  30.770  1.00 62.93 LIG 0.23  C 
BRANCH 30 31
ATOM     31  NZ  LYS B   6      49.981  91.334  29.681  1.00 65.77 LIG-0.08  N 
ATOM     32 HZ1  LYS B   6      50.017  92.224  29.680  1.00 65.77 LIG 0.27  HD
ATOM     33 HZ2  LYS B   6      50.797  91.006  29.818  1.00 65.77 LIG 0.27  HD
ATOM     34 HZ3  LYS B   6      49.675  91.049  28.895  1.00 65.77 LIG 0.27  HD
ENDBRANCH 30 31
ENDBRANCH 29 30
ENDBRANCH 28 29
ENDBRANCH 27 28
ENDBRANCH 14 27
ENDBRANCH 12 14
ENDBRANCH 6 10
ENDBRANCH 4 6
ENDBRANCH 1 2
BRANCH 1 35
ATOM     35  CB  LEU B   4      56.711  89.281  31.169  1.00 28.63 LIG 0.04  C 
BRANCH 35 36
ATOM     36  CG  LEU B   4      58.162  89.161  31.619  1.00 30.56 LIG-0.02  C 
ATOM     37  CD2 LEU B   4      59.044  89.872  30.617  1.00 33.80 LIG 0.01  C 
ATOM     38  CD1 LEU B   4      58.526  87.668  31.692  1.00 28.87 LIG 0.01  C 
ENDBRANCH 35 36
ENDBRANCH 1 35
BRANCH 1 39
ATOM     39  N   LEU B   4      56.822  88.733  28.815  1.00 28.62 LIG-0.35  N 
ATOM     40 H    LEU B   4      57.290  89.454  28.846  1.00 28.62 LIG 0.16  HD
ATOM     41  C   PRO B   3      56.513  88.094  27.705  1.00 33.12 LIG 0.24  C 
ATOM     42 O    PRO B   3      56.042  86.944  27.681  1.00 32.36 LIG-0.27  OA
BRANCH 41 43
ATOM     43  CA  PRO B   3      56.820  88.842  26.410  1.00 33.48 LIG 0.18  C 
ATOM     44  CB  PRO B   3      55.627  89.748  26.003  1.00 32.62 LIG 0.04  C 
ATOM     45  CG  PRO B   3      55.487  89.575  24.513  1.00 32.85 LIG 0.02  C 
ATOM     46  CD  PRO B   3      55.965  88.156  24.219  1.00 29.95 LIG 0.13  C 
ATOM     47  N   PRO B   3      56.883  87.848  25.354  1.00 33.01 LIG-0.34  N 
ATOM     48  C   LEU B   2      57.781  86.846  25.485  1.00 31.97 LIG 0.24  C 
ATOM     49 O    LEU B   2      58.639  86.797  26.372  1.00 33.64 LIG-0.27  OA
BRANCH 48 50
ATOM     50  CA  LEU B   2      57.750  85.761  24.433  1.00 32.67 LIG 0.18  C 
BRANCH 50 51
ATOM     51  N   LEU B   2      58.488  86.297  23.295  1.00 33.85 LIG-0.35  N 
ATOM     52 H    LEU B   2      59.210  86.708  23.517  1.00 33.85 LIG 0.16  HD
ATOM     53  C   GLU B   1      58.089  86.166  22.034  1.00 36.42 LIG 0.25  C 
ATOM     54 O    GLU B   1      57.211  85.353  21.701  1.00 32.31 LIG-0.27  OA
BRANCH 53 55
ATOM     55  CA  GLU B   1      58.856  87.001  20.984  1.00 35.71 LIG 0.28  C 
BRANCH 55 56
ATOM     56  CB  GLU B   1      59.648  86.046  20.084  1.00 39.23 LIG 0.05  C 
BRANCH 56 57
ATOM     57  CG  GLU B   1      60.493  85.049  20.876  1.00 48.64 LIG 0.12  C 
BRANCH 57 58
ATOM     58  CD  GLU B   1      61.934  85.490  21.166  1.00 56.94 LIG 0.17  C 
ATOM     59 OE1  GLU B   1      62.785  84.590  21.266  1.00 65.53 LIG-0.65  OA
ATOM     60 OE2  GLU B   1      62.238  86.707  21.315  1.00 53.19 LIG-0.65  OA
ENDBRANCH 57 58
ENDBRANCH 56 57
ENDBRANCH 55 56
BRANCH 55 61
ATOM     61  N   GLU B   1      59.792  87.985  21.628  1.00 36.67 LIG-0.07  N 
ATOM     62 H1   GLU B   1      60.611  87.636  21.664  1.00 36.67 LIG 0.28  HD
ATOM     63 H3   GLU B   1      59.512  88.167  22.453  1.00 36.67 LIG 0.28  HD
ATOM     64 H2   GLU B   1      59.810  88.735  21.149  1.00 36.67 LIG 0.28  HD
ENDBRANCH 55 61
ENDBRANCH 53 55
ENDBRANCH 50 51
BRANCH 50 65
ATOM     65  CB  LEU B   2      58.388  84.467  25.003  1.00 34.84 LIG 0.04  C 
BRANCH 65 66
ATOM     66  CG  LEU B   2      59.366  83.718  24.082  1.00 34.30 LIG-0.02  C 
ATOM     67  CD2 LEU B   2      59.276  82.194  24.270  1.00 39.39 LIG 0.01  C 
ATOM     68  CD1 LEU B   2      60.812  84.192  24.243  1.00 34.61 LIG 0.01  C 
ENDBRANCH 65 66
ENDBRANCH 50 65
ENDBRANCH 48 50
ENDBRANCH 41 43
ENDBRANCH 1 39
TORSDOF 28
ENDMDL
MODEL 10
USER: ADFR SOLUTION from run 5
USER: SCORE 25.174077 LL:  -6.634 LR: -19.039 RR:   0.000 FEB: -10.687
USER: RMSD 3.332456
USER: SEED 924800
USER: STATUS searching
USER: GENES 30
USER: genes 0 Translation |==|  0.54035 0.59139 0.48276
USER: genes 1 Rotation |==|  0.45683 0.46469 0.56930 0.99202
USER: genes 2 Torsion [N]-CA--C-[N] |==|  0.36857
USER: genes 3 Torsion [C]-N--CA-[C] |==|  0.73046
USER: genes 4 Torsion [N]-CA--CB-[CG2] |==|  0.64020
USER: genes 5 Torsion [N]-CA--C-[N] |==|  0.41314
USER: genes 6 Torsion [C]-N--CA-[C] |==|  0.65685
USER: genes 7 Torsion [N]-CA--C-[N] |==|  0.02416
USER: genes 8 Torsion [C]-N--CA-[CB] |==|  0.24966
USER: genes 9 Torsion [N]-CA--CB-[CG1] |==|  0.07113
USER: genes 10 Torsion [CA]-CB--CG1-[CD1] |==|  0.19891
USER: genes 11 Torsion [N]-CA--C-[OXT] |==|  0.06215
USER: genes 12 Torsion [N]-CA--CB-[CG] |==|  0.94031
USER: genes 13 Torsion [CA]-CB--CG-[CD] |==|  0.24079
USER: genes 14 Torsion [CB]-CG--CD-[CE] |==|  0.30870
USER: genes 15 Torsion [CG]-CD--CE-[NZ] |==|  0.36627
USER: genes 16 Torsion [CD]-CE--NZ-[HZ1] |==|  0.68893
USER: genes 17 Torsion [C]-CA--CB-[CG] |==|  0.42987
USER: genes 18 Torsion [CA]-CB--CG-[CD2] |==|  0.22863
USER: genes 19 Torsion [C]-CA--N-[C] |==|  0.85313
USER: genes 20 Torsion [N]-C--CA-[CB] |==|  0.78771
USER: genes 21 Torsion [N]-C--CA-[N] |==|  0.39098
USER: genes 22 Torsion [C]-CA--N-[C] |==|  0.67428
USER: genes 23 Torsion [N]-C--CA-[N] |==|  0.92902
USER: genes 24 Torsion [C]-CA--CB-[CG] |==|  0.85176
USER: genes 25 Torsion [CA]-CB--CG-[CD] |==|  0.62354
USER: genes 26 Torsion [CB]-CG--CD-[OE1] |==|  0.00112
USER: genes 27 Torsion [C]-CA--N-[H1] |==|  0.52456
USER: genes 28 Torsion [C]-CA--CB-[CG] |==|  0.44831
USER: genes 29 Torsion [CA]-CB--CG-[CD2] |==|  0.57763
ROOT
ATOM      1  CA  LEU B   4      56.486  88.382  30.206  1.00 30.07 LIG 0.18  C 
ENDROOT
BRANCH 1 2
ATOM      2  C   LEU B   4      55.027  88.038  30.355  1.00 30.58 LIG 0.24  C 
ATOM      3 O    LEU B   4      54.160  88.800  29.921  1.00 35.83 LIG-0.27  OA
ATOM      4  N   VAL B   5      54.744  86.931  31.038  1.00 32.24 LIG-0.35  N 
ATOM      5 H    VAL B   5      55.342  86.407  31.363  1.00 32.24 LIG 0.16  HD
BRANCH 4 6
ATOM      6  CA  VAL B   5      53.366  86.502  31.299  1.00 32.53 LIG 0.18  C 
BRANCH 6 7
ATOM      7  CB  VAL B   5      53.218  84.973  31.206  1.00 34.70 LIG 0.01  C 
ATOM      8  CG2 VAL B   5      52.059  84.643  30.302  1.00 38.22 LIG 0.01  C 
ATOM      9  CG1 VAL B   5      53.013  84.336  32.575  1.00 39.77 LIG 0.01  C 
ENDBRANCH 6 7
BRANCH 6 10
ATOM     10  C   VAL B   5      52.925  86.945  32.668  1.00 39.16 LIG 0.24  C 
ATOM     11 O    VAL B   5      53.738  87.076  33.592  1.00 33.69 LIG-0.27  OA
ATOM     12  N   LYS B   6      51.634  87.209  32.781  1.00 40.12 LIG-0.35  N 
ATOM     13 H    LYS B   6      51.076  87.165  32.127  1.00 40.12 LIG 0.16  HD
BRANCH 12 14
ATOM     14  CA  LYS B   6      51.054  87.598  34.030  1.00 45.41 LIG 0.18  C 
BRANCH 14 15
ATOM     15  C   LYS B   6      49.968  86.565  34.235  1.00 44.99 LIG 0.24  C 
ATOM     16 O    LYS B   6      49.129  86.725  35.097  1.00 45.85 LIG-0.27  OA
ATOM     17  N   ILE B   7      49.905  85.529  33.425  1.00 47.54 LIG-0.34  N 
ATOM     18 H    ILE B   7      50.455  85.342  32.790  1.00 47.54 LIG 0.16  HD
BRANCH 17 19
ATOM     19  CA  ILE B   7      48.780  84.598  33.624  1.00 57.67 LIG 0.19  C 
BRANCH 19 20
ATOM     20  CB  ILE B   7      47.473  84.938  32.805  1.00 59.41 LIG 0.01  C 
ATOM     21  CG2 ILE B   7      46.439  85.669  33.654  1.00 60.58 LIG 0.01  C 
BRANCH 20 22
ATOM     22  CG1 ILE B   7      47.806  85.753  31.522  1.00 65.20 LIG 0.00  C 
ATOM     23  CD1 ILE B   7      48.505  85.009  30.380  1.00 51.92 LIG 0.01  C 
ENDBRANCH 20 22
ENDBRANCH 19 20
BRANCH 19 24
ATOM     24  C   ILE B   7      49.211  83.125  33.552  1.00 61.74 LIG 0.20  C 
ATOM     25 O    ILE B   7      48.457  82.207  33.271  1.00 61.53 LIG-0.65  OA
ATOM     26 OXT  ILE B   7      50.385  82.816  33.759  1.00 68.92 LIG-0.65  OA
ENDBRANCH 19 24
ENDBRANCH 17 19
ENDBRANCH 14 15
BRANCH 14 27
ATOM     27  CB  LYS B   6      50.507  89.027  33.871  1.00 46.87 LIG 0.04  C 
BRANCH 27 28
ATOM     28  CG  LYS B   6      51.122  89.825  32.737  1.00 55.56 LIG 0.00  C 
BRANCH 28 29
ATOM     29  CD  LYS B   6      50.411  89.589  31.412  1.00 60.95 LIG 0.03  C 
BRANCH 29 30
ATOM     30  CE  LYS B   6      49.647  90.837  30.953  1.00 62.93 LIG 0.23  C 
BRANCH 30 31
ATOM     31  NZ  LYS B   6      49.921  91.170  29.521  1.00 65.77 LIG-0.08  N 
ATOM     32 HZ1  LYS B   6      50.381  91.931  29.477  1.00 65.77 LIG 0.27  HD
ATOM     33 HZ2  LYS B   6      50.395  90.515  29.149  1.00 65.77 LIG 0.27  HD
ATOM     34 HZ3  LYS B   6      49.150  91.264  29.085  1.00 65.77 LIG 0.27  HD
ENDBRANCH 30 31
ENDBRANCH 29 30
ENDBRANCH 28 29
ENDBRANCH 27 28
ENDBRANCH 14 27
ENDBRANCH 12 14
ENDBRANCH 6 10
ENDBRANCH 4 6
ENDBRANCH 1 2
BRANCH 1 35
ATOM     35  CB  LEU B   4      56.762  89.552  31.128  1.00 28.63 LIG 0.04  C 
BRANCH 35 36
ATOM     36  CG  LEU B   4      58.228  89.600  31.541  1.00 30.56 LIG-0.02  C 
ATOM     37  CD2 LEU B   4      59.022  90.275  30.444  1.00 33.80 LIG 0.01  C 
ATOM     38  CD1 LEU B   4      58.720  88.158  31.752  1.00 28.87 LIG 0.01  C 
ENDBRANCH 35 36
ENDBRANCH 1 35
BRANCH 1 39
ATOM     39  N   LEU B   4      56.966  88.751  28.855  1.00 28.62 LIG-0.35  N 
ATOM     40 H    LEU B   4      57.389  89.499  28.813  1.00 28.62 LIG 0.16  HD
ATOM     41  C   PRO B   3      56.742  87.966  27.820  1.00 33.12 LIG 0.24  C 
ATOM     42 O    PRO B   3      56.340  86.793  27.921  1.00 32.36 LIG-0.27  OA
BRANCH 41 43
ATOM     43  CA  PRO B   3      57.057  88.572  26.455  1.00 33.48 LIG 0.18  C 
ATOM     44  CB  PRO B   3      55.949  89.571  26.027  1.00 32.62 LIG 0.04  C 
ATOM     45  CG  PRO B   3      55.712  89.299  24.565  1.00 32.85 LIG 0.02  C 
ATOM     46  CD  PRO B   3      56.019  87.816  24.370  1.00 29.95 LIG 0.13  C 
ATOM     47  N   PRO B   3      56.958  87.498  25.484  1.00 33.01 LIG-0.34  N 
ATOM     48  C   LEU B   2      57.748  86.415  25.658  1.00 31.97 LIG 0.24  C 
ATOM     49 O    LEU B   2      58.642  86.340  26.507  1.00 33.64 LIG-0.27  OA
BRANCH 48 50
ATOM     50  CA  LEU B   2      57.545  85.261  24.702  1.00 32.67 LIG 0.18  C 
BRANCH 50 51
ATOM     51  N   LEU B   2      58.882  84.757  24.408  1.00 33.85 LIG-0.35  N 
ATOM     52 H    LEU B   2      59.291  84.448  25.098  1.00 33.85 LIG 0.16  HD
ATOM     53  C   GLU B   1      59.419  84.770  23.193  1.00 36.42 LIG 0.25  C 
ATOM     54 O    GLU B   1      58.737  84.957  22.171  1.00 32.31 LIG-0.27  OA
BRANCH 53 55
ATOM     55  CA  GLU B   1      60.923  84.426  23.107  1.00 35.71 LIG 0.28  C 
BRANCH 55 56
ATOM     56  CB  GLU B   1      61.067  82.936  22.777  1.00 39.23 LIG 0.05  C 
BRANCH 56 57
ATOM     57  CG  GLU B   1      60.293  82.038  23.741  1.00 48.64 LIG 0.12  C 
BRANCH 57 58
ATOM     58  CD  GLU B   1      61.050  80.800  24.240  1.00 56.94 LIG 0.17  C 
ATOM     59 OE1  GLU B   1      62.211  80.649  23.824  1.00 65.53 LIG-0.65  OA
ATOM     60 OE2  GLU B   1      60.514  79.964  25.021  1.00 53.19 LIG-0.65  OA
ENDBRANCH 57 58
ENDBRANCH 56 57
ENDBRANCH 55 56
BRANCH 55 61
ATOM     61  N   GLU B   1      61.641  84.732  24.392  1.00 36.67 LIG-0.07  N 
ATOM     62 H1   GLU B   1      62.518  84.645  24.270  1.00 36.67 LIG 0.28  HD
ATOM     63 H3   GLU B   1      61.372  84.166  25.024  1.00 36.67 LIG 0.28  HD
ATOM     64 H2   GLU B   1      61.457  85.566  24.644  1.00 36.67 LIG 0.28  HD
ENDBRANCH 55 61
ENDBRANCH 53 55
ENDBRANCH 50 51
BRANCH 50 65
ATOM     65  CB  LEU B   2      56.636  84.193  25.364  1.00 34.84 LIG 0.04  C 
BRANCH 65 66
ATOM     66  CG  LEU B   2      55.963  83.181  24.421  1.00 34.30 LIG-0.02  C 
ATOM     67  CD2 LEU B   2      54.636  82.657  24.995  1.00 39.39 LIG 0.01  C 
ATOM     68  CD1 LEU B   2      56.883  82.016  24.050  1.00 34.61 LIG 0.01  C 
ENDBRANCH 65 66
ENDBRANCH 50 65
ENDBRANCH 48 50
ENDBRANCH 41 43
ENDBRANCH 1 39
TORSDOF 28
ENDMDL
