MODEL 1
USER: ADFR SOLUTION from run 179
USER: SCORE 16.121550 LL:  -1.446 LR: -15.109 RR:   0.000 FEB: -10.038
USER: RMSD 4.877719
USER: SEED 178
USER: STATUS no improvement in best in 5 clusters for 5 generations
USER: GENES 19
USER: genes 0 Translation |==|  0.62727 0.38797 0.45196
USER: genes 1 Rotation |==|  0.43726 0.49451 0.55445 0.99302
USER: genes 2 Torsion [N]-CA--C-[N] |==|  0.33648
USER: genes 3 Torsion [C]-N--CA-[C] |==|  0.13010
USER: genes 4 Torsion [N]-CA--C-[OXT] |==|  0.60977
USER: genes 5 Torsion [N]-CA--CB-[CG] |==|  0.64630
USER: genes 6 Torsion [CA]-CB--CG-[CD1] |==|  0.04124
USER: genes 7 Torsion [CE1]-CZ--OH-[HH] |==|  0.02755
USER: genes 8 Torsion [C]-CA--CB-[CG] |==|  0.46415
USER: genes 9 Torsion [CA]-CB--CG-[ND2] |==|  0.31703
USER: genes 10 Torsion [C]-CA--N-[C] |==|  0.63378
USER: genes 11 Torsion [N]-C--CA-[N] |==|  0.26452
USER: genes 12 Torsion [C]-CA--CB-[CG] |==|  0.18079
USER: genes 13 Torsion [CA]-CB--CG-[CD] |==|  0.64020
USER: genes 14 Torsion [CB]-CG--CD-[NE2] |==|  0.24694
USER: genes 15 Torsion [C]-CA--N-[C] |==|  0.75809
USER: genes 16 Torsion [N]-C--CA-[N] |==|  0.99042
USER: genes 17 Torsion [C]-CA--CB-[OG] |==|  0.17219
USER: genes 18 Torsion [CA]-CB--OG-[HG] |==|  0.34688
ROOT
ATOM      1  CA  ASN C   4      23.346   1.344  19.221  1.00 23.87 LIG 0.18  C 
ENDROOT
BRANCH 1 2
ATOM      2  C   ASN C   4      22.712  -0.031  18.998  1.00 24.50 LIG 0.24  C 
ATOM      3 O    ASN C   4      22.648  -0.860  19.903  1.00 25.26 LIG-0.27  OA
ATOM      4  N   TYR C   5      22.244  -0.247  17.772  1.00 25.46 LIG-0.34  N 
ATOM      5 H    TYR C   5      22.302   0.335  17.142  1.00 25.46 LIG 0.16  HD
BRANCH 4 6
ATOM      6  CA  TYR C   5      21.583  -1.489  17.357  1.00 27.53 LIG 0.19  C 
BRANCH 6 7
ATOM      7  C   TYR C   5      20.547  -1.894  18.393  1.00 27.73 LIG 0.20  C 
ATOM      8 OXT  TYR C   5      20.401  -3.086  18.698  1.00 28.08 LIG-0.65  OA
ATOM      9 O    TYR C   5      19.887  -1.011  18.949  1.00 30.08 LIG-0.65  OA
ENDBRANCH 6 7
BRANCH 6 10
ATOM     10  CB  TYR C   5      22.618  -2.607  17.203  1.00 26.02 LIG 0.07  C 
BRANCH 10 11
ATOM     11  CG  TYR C   5      22.499  -3.246  15.858  1.00 28.29 LIG-0.06  A 
ATOM     12  CD1 TYR C   5      21.772  -2.621  14.854  1.00 28.93 LIG 0.01  A 
ATOM     13  CE1 TYR C   5      21.691  -3.170  13.592  1.00 31.65 LIG 0.04  A 
ATOM     14  CZ  TYR C   5      22.363  -4.344  13.308  1.00 33.19 LIG 0.07  A 
ATOM     15  CE2 TYR C   5      23.111  -4.975  14.283  1.00 31.83 LIG 0.04  A 
ATOM     16  CD2 TYR C   5      23.180  -4.419  15.557  1.00 30.09 LIG 0.01  A 
BRANCH 14 17
ATOM     17 OH   TYR C   5      22.270  -4.866  12.039  1.00 32.69 LIG-0.36  OA
ATOM     18 HH   TYR C   5      21.901  -4.308  11.532  1.00 32.69 LIG 0.22  HD
ENDBRANCH 14 17
ENDBRANCH 10 11
ENDBRANCH 6 10
ENDBRANCH 4 6
ENDBRANCH 1 2
BRANCH 1 19
ATOM     19  CB  ASN C   4      24.834   1.240  19.528  1.00 21.84 LIG 0.14  C 
BRANCH 19 20
ATOM     20  CG  ASN C   4      25.510   2.588  19.437  1.00 23.44 LIG 0.22  C 
ATOM     21 OD1  ASN C   4      25.521   3.192  18.374  1.00 24.15 LIG-0.27  OA
ATOM     22  ND2 ASN C   4      26.002   3.101  20.562  1.00 22.78 LIG-0.37  N 
ATOM     23 21HD ASN C   4      26.346   3.890  20.561  1.00 22.78 LIG 0.16  HD
ATOM     24 22HD ASN C   4      25.976   2.645  21.291  1.00 22.78 LIG 0.16  HD
ENDBRANCH 19 20
ENDBRANCH 1 19
BRANCH 1 25
ATOM     25  N   ASN C   4      22.708   2.128  20.280  1.00 22.84 LIG-0.35  N 
ATOM     26 H    ASN C   4      22.582   1.692  21.011  1.00 22.84 LIG 0.16  HD
ATOM     27  C   GLN C   3      22.358   3.402  20.117  1.00 20.90 LIG 0.24  C 
ATOM     28 O    GLN C   3      22.311   3.953  19.021  1.00 18.13 LIG-0.27  OA
BRANCH 27 29
ATOM     29  CA  GLN C   3      21.939   4.151  21.385  1.00 23.72 LIG 0.18  C 
BRANCH 29 30
ATOM     30  CB  GLN C   3      20.713   5.024  21.077  1.00 25.20 LIG 0.04  C 
BRANCH 30 31
ATOM     31  CG  GLN C   3      19.463   4.236  20.711  1.00 28.81 LIG 0.10  C 
BRANCH 31 32
ATOM     32  CD  GLN C   3      18.813   4.731  19.421  1.00 35.20 LIG 0.21  C 
ATOM     33  NE2 GLN C   3      19.244   4.174  18.283  1.00 25.96 LIG-0.37  N 
ATOM     34 21HE GLN C   3      19.852   3.566  18.305  1.00 25.96 LIG 0.16  HD
ATOM     35 22HE GLN C   3      18.913   4.424  17.529  1.00 25.96 LIG 0.16  HD
ATOM     36 OE1  GLN C   3      17.938   5.614  19.451  1.00 36.24 LIG-0.27  OA
ENDBRANCH 31 32
ENDBRANCH 30 31
ENDBRANCH 29 30
BRANCH 29 37
ATOM     37  N   GLN C   3      23.044   4.922  22.008  1.00 22.58 LIG-0.35  N 
ATOM     38 H    GLN C   3      23.099   5.743  21.760  1.00 22.58 LIG 0.16  HD
ATOM     39  C   SER C   2      23.864   4.337  22.882  1.00 24.53 LIG 0.26  C 
ATOM     40 O    SER C   2      23.716   3.168  23.248  1.00 22.38 LIG-0.27  OA
BRANCH 39 41
ATOM     41  CA  SER C   2      25.032   5.135  23.442  1.00 25.92 LIG 0.42  C 
ATOM     42  N   SER C   2      25.055   6.480  22.780  1.00 33.46 LIG 0.62  N 
BRANCH 41 43
ATOM     43  CB  SER C   2      24.951   5.217  24.968  1.00 31.59 LIG 0.21  C 
BRANCH 43 44
ATOM     44 OG   SER C   2      25.026   3.942  25.597  1.00 27.93 LIG-0.40  OA
ATOM     45 HG   SER C   2      25.651   3.942  26.158  1.00 27.93 LIG 0.21  HD
ENDBRANCH 43 44
ENDBRANCH 41 43
ENDBRANCH 39 41
ENDBRANCH 29 37
ENDBRANCH 27 29
ENDBRANCH 1 25
TORSDOF 17
ENDMDL
MODEL 2
USER: ADFR SOLUTION from run 75
USER: SCORE 15.173970 LL:  -0.961 LR: -14.703 RR:   0.000 FEB:  -9.631
USER: RMSD 3.811393
USER: SEED 74
USER: STATUS no improvement in best in 6 clusters for 5 generations
USER: GENES 19
USER: genes 0 Translation |==|  0.60556 0.38398 0.44960
USER: genes 1 Rotation |==|  0.43903 0.50794 0.52922 0.99534
USER: genes 2 Torsion [N]-CA--C-[N] |==|  0.30012
USER: genes 3 Torsion [C]-N--CA-[C] |==|  0.93151
USER: genes 4 Torsion [N]-CA--C-[OXT] |==|  0.34677
USER: genes 5 Torsion [N]-CA--CB-[CG] |==|  0.56109
USER: genes 6 Torsion [CA]-CB--CG-[CD1] |==|  0.08338
USER: genes 7 Torsion [CE1]-CZ--OH-[HH] |==|  0.07373
USER: genes 8 Torsion [C]-CA--CB-[CG] |==|  0.48516
USER: genes 9 Torsion [CA]-CB--CG-[ND2] |==|  0.35093
USER: genes 10 Torsion [C]-CA--N-[C] |==|  0.62933
USER: genes 11 Torsion [N]-C--CA-[N] |==|  0.28025
USER: genes 12 Torsion [C]-CA--CB-[CG] |==|  0.15701
USER: genes 13 Torsion [CA]-CB--CG-[CD] |==|  0.65898
USER: genes 14 Torsion [CB]-CG--CD-[NE2] |==|  0.24175
USER: genes 15 Torsion [C]-CA--N-[C] |==|  0.73643
USER: genes 16 Torsion [N]-C--CA-[N] |==|  0.00968
USER: genes 17 Torsion [C]-CA--CB-[OG] |==|  0.15765
USER: genes 18 Torsion [CA]-CB--OG-[HG] |==|  0.38247
ROOT
ATOM      1  CA  ASN C   4      22.972   1.278  19.175  1.00 23.87 LIG 0.18  C 
ENDROOT
BRANCH 1 2
ATOM      2  C   ASN C   4      22.185  -0.019  18.976  1.00 24.50 LIG 0.24  C 
ATOM      3 O    ASN C   4      22.263  -0.944  19.783  1.00 25.26 LIG-0.27  OA
ATOM      4  N   TYR C   5      21.427  -0.062  17.885  1.00 25.46 LIG-0.34  N 
ATOM      5 H    TYR C   5      21.386   0.586  17.321  1.00 25.46 LIG 0.16  HD
BRANCH 4 6
ATOM      6  CA  TYR C   5      20.581  -1.204  17.521  1.00 27.53 LIG 0.19  C 
BRANCH 6 7
ATOM      7  C   TYR C   5      21.127  -2.473  18.154  1.00 27.73 LIG 0.20  C 
ATOM      8 OXT  TYR C   5      20.401  -3.175  18.872  1.00 28.08 LIG-0.65  OA
ATOM      9 O    TYR C   5      22.290  -2.808  17.907  1.00 30.08 LIG-0.65  OA
ENDBRANCH 6 7
BRANCH 6 10
ATOM     10  CB  TYR C   5      20.546  -1.365  15.999  1.00 26.02 LIG 0.07  C 
BRANCH 10 11
ATOM     11  CG  TYR C   5      19.331  -2.128  15.583  1.00 28.29 LIG-0.06  A 
ATOM     12  CD1 TYR C   5      18.170  -2.051  16.339  1.00 28.93 LIG 0.01  A 
ATOM     13  CE1 TYR C   5      17.024  -2.708  15.946  1.00 31.65 LIG 0.04  A 
ATOM     14  CZ  TYR C   5      17.015  -3.434  14.770  1.00 33.19 LIG 0.07  A 
ATOM     15  CE2 TYR C   5      18.152  -3.509  13.987  1.00 31.83 LIG 0.04  A 
ATOM     16  CD2 TYR C   5      19.307  -2.849  14.396  1.00 30.09 LIG 0.01  A 
BRANCH 14 17
ATOM     17 OH   TYR C   5      15.857  -4.075  14.398  1.00 32.69 LIG-0.36  OA
ATOM     18 HH   TYR C   5      15.196  -3.673  14.727  1.00 32.69 LIG 0.22  HD
ENDBRANCH 14 17
ENDBRANCH 10 11
ENDBRANCH 6 10
ENDBRANCH 4 6
ENDBRANCH 1 2
BRANCH 1 19
ATOM     19  CB  ASN C   4      24.452   1.014  19.420  1.00 21.84 LIG 0.14  C 
BRANCH 19 20
ATOM     20  CG  ASN C   4      25.237   2.302  19.485  1.00 23.44 LIG 0.22  C 
ATOM     21 OD1  ASN C   4      25.101   3.142  18.607  1.00 24.15 LIG-0.27  OA
ATOM     22  ND2 ASN C   4      25.995   2.502  20.562  1.00 22.78 LIG-0.37  N 
ATOM     23 21HD ASN C   4      26.414   3.247  20.660  1.00 22.78 LIG 0.16  HD
ATOM     24 22HD ASN C   4      26.065   1.886  21.159  1.00 22.78 LIG 0.16  HD
ENDBRANCH 19 20
ENDBRANCH 1 19
BRANCH 1 25
ATOM     25  N   ASN C   4      22.466   2.120  20.261  1.00 22.84 LIG-0.35  N 
ATOM     26 H    ASN C   4      22.303   1.692  20.989  1.00 22.84 LIG 0.16  HD
ATOM     27  C   GLN C   3      22.277   3.431  20.123  1.00 20.90 LIG 0.24  C 
ATOM     28 O    GLN C   3      22.273   4.001  19.035  1.00 18.13 LIG-0.27  OA
BRANCH 27 29
ATOM     29  CA  GLN C   3      21.988   4.207  21.411  1.00 23.72 LIG 0.18  C 
BRANCH 29 30
ATOM     30  CB  GLN C   3      20.783   5.133  21.187  1.00 25.20 LIG 0.04  C 
BRANCH 30 31
ATOM     31  CG  GLN C   3      19.523   4.414  20.721  1.00 28.81 LIG 0.10  C 
BRANCH 31 32
ATOM     32  CD  GLN C   3      18.993   4.956  19.396  1.00 35.20 LIG 0.21  C 
ATOM     33  NE2 GLN C   3      19.504   4.415  18.283  1.00 25.96 LIG-0.37  N 
ATOM     34 21HE GLN C   3      20.094   3.793  18.339  1.00 25.96 LIG 0.16  HD
ATOM     35 22HE GLN C   3      19.242   4.692  17.511  1.00 25.96 LIG 0.16  HD
ATOM     36 OE1  GLN C   3      18.138   5.859  19.378  1.00 36.24 LIG-0.27  OA
ENDBRANCH 31 32
ENDBRANCH 30 31
ENDBRANCH 29 30
BRANCH 29 37
ATOM     37  N   GLN C   3      23.170   4.931  21.942  1.00 22.58 LIG-0.35  N 
ATOM     38 H    GLN C   3      23.302   5.709  21.602  1.00 22.58 LIG 0.16  HD
ATOM     39  C   SER C   2      23.939   4.371  22.876  1.00 24.53 LIG 0.26  C 
ATOM     40 O    SER C   2      23.682   3.271  23.372  1.00 22.38 LIG-0.27  OA
BRANCH 39 41
ATOM     41  CA  SER C   2      25.186   5.108  23.341  1.00 25.92 LIG 0.42  C 
ATOM     42  N   SER C   2      25.240   6.439  22.653  1.00 33.46 LIG 0.62  N 
BRANCH 41 43
ATOM     43  CB  SER C   2      25.213   5.218  24.867  1.00 31.59 LIG 0.21  C 
BRANCH 43 44
ATOM     44 OG   SER C   2      25.139   3.953  25.516  1.00 27.93 LIG-0.40  OA
ATOM     45 HG   SER C   2      25.681   3.935  26.158  1.00 27.93 LIG 0.21  HD
ENDBRANCH 43 44
ENDBRANCH 41 43
ENDBRANCH 39 41
ENDBRANCH 29 37
ENDBRANCH 27 29
ENDBRANCH 1 25
TORSDOF 17
ENDMDL
MODEL 3
USER: ADFR SOLUTION from run 77
USER: SCORE 14.916203 LL:  -1.433 LR: -13.954 RR:   0.000 FEB:  -8.883
USER: RMSD 4.414770
USER: SEED 76
USER: STATUS no improvement in best in 9 clusters for 5 generations
USER: GENES 19
USER: genes 0 Translation |==|  0.60290 0.40207 0.44229
USER: genes 1 Rotation |==|  0.48075 0.49808 0.49411 0.99959
USER: genes 2 Torsion [N]-CA--C-[N] |==|  0.49444
USER: genes 3 Torsion [C]-N--CA-[C] |==|  0.83836
USER: genes 4 Torsion [N]-CA--C-[OXT] |==|  0.25256
USER: genes 5 Torsion [N]-CA--CB-[CG] |==|  0.55410
USER: genes 6 Torsion [CA]-CB--CG-[CD1] |==|  0.62251
USER: genes 7 Torsion [CE1]-CZ--OH-[HH] |==|  0.78487
USER: genes 8 Torsion [C]-CA--CB-[CG] |==|  0.45588
USER: genes 9 Torsion [CA]-CB--CG-[ND2] |==|  0.29205
USER: genes 10 Torsion [C]-CA--N-[C] |==|  0.65399
USER: genes 11 Torsion [N]-C--CA-[N] |==|  0.29507
USER: genes 12 Torsion [C]-CA--CB-[CG] |==|  0.43598
USER: genes 13 Torsion [CA]-CB--CG-[CD] |==|  0.14699
USER: genes 14 Torsion [CB]-CG--CD-[NE2] |==|  0.12277
USER: genes 15 Torsion [C]-CA--N-[C] |==|  0.72438
USER: genes 16 Torsion [N]-C--CA-[N] |==|  0.01428
USER: genes 17 Torsion [C]-CA--CB-[OG] |==|  0.11499
USER: genes 18 Torsion [CA]-CB--OG-[HG] |==|  0.37994
ROOT
ATOM      1  CA  ASN C   4      22.926   1.576  19.033  1.00 23.87 LIG 0.18  C 
ENDROOT
BRANCH 1 2
ATOM      2  C   ASN C   4      21.986   0.453  18.589  1.00 24.50 LIG 0.24  C 
ATOM      3 O    ASN C   4      20.970   0.181  19.226  1.00 25.26 LIG-0.27  OA
ATOM      4  N   TYR C   5      22.351  -0.188  17.483  1.00 25.46 LIG-0.34  N 
ATOM      5 H    TYR C   5      23.069   0.002  17.049  1.00 25.46 LIG 0.16  HD
BRANCH 4 6
ATOM      6  CA  TYR C   5      21.580  -1.282  16.880  1.00 27.53 LIG 0.19  C 
BRANCH 6 7
ATOM      7  C   TYR C   5      21.413  -2.410  17.885  1.00 27.73 LIG 0.20  C 
ATOM      8 OXT  TYR C   5      20.428  -2.436  18.636  1.00 28.08 LIG-0.65  OA
ATOM      9 O    TYR C   5      22.253  -3.315  17.908  1.00 30.08 LIG-0.65  OA
ENDBRANCH 6 7
BRANCH 6 10
ATOM     10  CB  TYR C   5      22.302  -1.806  15.636  1.00 26.02 LIG 0.07  C 
BRANCH 10 11
ATOM     11  CG  TYR C   5      21.353  -2.559  14.762  1.00 28.29 LIG-0.06  A 
ATOM     12  CD1 TYR C   5      21.736  -3.769  14.201  1.00 28.93 LIG 0.01  A 
ATOM     13  CE1 TYR C   5      20.858  -4.503  13.433  1.00 31.65 LIG 0.04  A 
ATOM     14  CZ  TYR C   5      19.568  -4.048  13.236  1.00 33.19 LIG 0.07  A 
ATOM     15  CE2 TYR C   5      19.154  -2.856  13.801  1.00 31.83 LIG 0.04  A 
ATOM     16  CD2 TYR C   5      20.049  -2.118  14.569  1.00 30.09 LIG 0.01  A 
BRANCH 14 17
ATOM     17 OH   TYR C   5      18.711  -4.803  12.470  1.00 32.69 LIG-0.36  OA
ATOM     18 HH   TYR C   5      18.891  -4.693  11.657  1.00 32.69 LIG 0.22  HD
ENDBRANCH 14 17
ENDBRANCH 10 11
ENDBRANCH 6 10
ENDBRANCH 4 6
ENDBRANCH 1 2
BRANCH 1 19
ATOM     19  CB  ASN C   4      24.340   1.070  19.281  1.00 21.84 LIG 0.14  C 
BRANCH 19 20
ATOM     20  CG  ASN C   4      25.331   2.209  19.336  1.00 23.44 LIG 0.22  C 
ATOM     21 OD1  ASN C   4      25.617   2.817  18.315  1.00 24.15 LIG-0.27  OA
ATOM     22  ND2 ASN C   4      25.794   2.557  20.535  1.00 22.78 LIG-0.37  N 
ATOM     23 21HD ASN C   4      26.317   3.236  20.614  1.00 22.78 LIG 0.16  HD
ATOM     24 22HD ASN C   4      25.570   2.104  21.232  1.00 22.78 LIG 0.16  HD
ENDBRANCH 19 20
ENDBRANCH 1 19
BRANCH 1 25
ATOM     25  N   ASN C   4      22.474   2.293  20.227  1.00 22.84 LIG-0.35  N 
ATOM     26 H    ASN C   4      22.329   1.785  20.906  1.00 22.84 LIG 0.16  HD
ATOM     27  C   GLN C   3      22.306   3.613  20.250  1.00 20.90 LIG 0.24  C 
ATOM     28 O    GLN C   3      22.275   4.307  19.237  1.00 18.13 LIG-0.27  OA
BRANCH 27 29
ATOM     29  CA  GLN C   3      22.077   4.237  21.630  1.00 23.72 LIG 0.18  C 
BRANCH 29 30
ATOM     30  CB  GLN C   3      20.805   5.097  21.594  1.00 25.20 LIG 0.04  C 
BRANCH 30 31
ATOM     31  CG  GLN C   3      20.161   5.315  22.957  1.00 28.81 LIG 0.10  C 
BRANCH 31 32
ATOM     32  CD  GLN C   3      21.144   5.857  23.991  1.00 35.20 LIG 0.21  C 
ATOM     33  NE2 GLN C   3      21.953   6.844  23.587  1.00 25.96 LIG-0.37  N 
ATOM     34 21HE GLN C   3      21.896   7.143  22.782  1.00 25.96 LIG 0.16  HD
ATOM     35 22HE GLN C   3      22.529   7.179  24.131  1.00 25.96 LIG 0.16  HD
ATOM     36 OE1  GLN C   3      21.180   5.384  25.141  1.00 36.24 LIG-0.27  OA
ENDBRANCH 31 32
ENDBRANCH 30 31
ENDBRANCH 29 30
BRANCH 29 37
ATOM     37  N   GLN C   3      23.253   4.984  22.142  1.00 22.58 LIG-0.35  N 
ATOM     38 H    GLN C   3      23.343   5.780  21.831  1.00 22.58 LIG 0.16  HD
ATOM     39  C   SER C   2      24.081   4.417  23.021  1.00 24.53 LIG 0.26  C 
ATOM     40 O    SER C   2      23.886   3.288  23.480  1.00 22.38 LIG-0.27  OA
BRANCH 39 41
ATOM     41  CA  SER C   2      25.319   5.182  23.466  1.00 25.92 LIG 0.42  C 
ATOM     42  N   SER C   2      25.274   6.554  22.865  1.00 33.46 LIG 0.62  N 
BRANCH 41 43
ATOM     43  CB  SER C   2      25.428   5.195  24.992  1.00 31.59 LIG 0.21  C 
BRANCH 43 44
ATOM     44 OG   SER C   2      25.101   3.942  25.583  1.00 27.93 LIG-0.40  OA
ATOM     45 HG   SER C   2      25.656   3.764  26.187  1.00 27.93 LIG 0.21  HD
ENDBRANCH 43 44
ENDBRANCH 41 43
ENDBRANCH 39 41
ENDBRANCH 29 37
ENDBRANCH 27 29
ENDBRANCH 1 25
TORSDOF 17
ENDMDL
MODEL 4
USER: ADFR SOLUTION from run 191
USER: SCORE 15.134220 LL:  -1.733 LR: -13.935 RR:   0.000 FEB:  -8.864
USER: RMSD 4.542135
USER: SEED 190
USER: STATUS no improvement in best in 12 clusters for 5 generations
USER: GENES 19
USER: genes 0 Translation |==|  0.55103 0.39744 0.44346
USER: genes 1 Rotation |==|  0.46807 0.51975 0.47778 0.99809
USER: genes 2 Torsion [N]-CA--C-[N] |==|  0.50759
USER: genes 3 Torsion [C]-N--CA-[C] |==|  0.77551
USER: genes 4 Torsion [N]-CA--C-[OXT] |==|  0.45209
USER: genes 5 Torsion [N]-CA--CB-[CG] |==|  0.21982
USER: genes 6 Torsion [CA]-CB--CG-[CD1] |==|  0.86352
USER: genes 7 Torsion [CE1]-CZ--OH-[HH] |==|  0.10018
USER: genes 8 Torsion [C]-CA--CB-[CG] |==|  0.54493
USER: genes 9 Torsion [CA]-CB--CG-[ND2] |==|  0.24560
USER: genes 10 Torsion [C]-CA--N-[C] |==|  0.62118
USER: genes 11 Torsion [N]-C--CA-[N] |==|  0.32222
USER: genes 12 Torsion [C]-CA--CB-[CG] |==|  0.28158
USER: genes 13 Torsion [CA]-CB--CG-[CD] |==|  0.00180
USER: genes 14 Torsion [CB]-CG--CD-[NE2] |==|  0.27093
USER: genes 15 Torsion [C]-CA--N-[C] |==|  0.70275
USER: genes 16 Torsion [N]-C--CA-[N] |==|  0.02170
USER: genes 17 Torsion [C]-CA--CB-[OG] |==|  0.15361
USER: genes 18 Torsion [CA]-CB--OG-[HG] |==|  0.40741
ROOT
ATOM      1  CA  ASN C   4      22.031   1.500  19.056  1.00 23.87 LIG 0.18  C 
ENDROOT
BRANCH 1 2
ATOM      2  C   ASN C   4      20.984   0.426  18.751  1.00 24.50 LIG 0.24  C 
ATOM      3 O    ASN C   4      19.967   0.314  19.433  1.00 25.26 LIG-0.27  OA
ATOM      4  N   TYR C   5      21.258  -0.354  17.710  1.00 25.46 LIG-0.34  N 
ATOM      5 H    TYR C   5      21.977  -0.275  17.245  1.00 25.46 LIG 0.16  HD
BRANCH 4 6
ATOM      6  CA  TYR C   5      20.377  -1.430  17.241  1.00 27.53 LIG 0.19  C 
BRANCH 6 7
ATOM      7  C   TYR C   5      20.575  -2.670  18.097  1.00 27.73 LIG 0.20  C 
ATOM      8 OXT  TYR C   5      19.729  -3.575  18.091  1.00 28.08 LIG-0.65  OA
ATOM      9 O    TYR C   5      21.610  -2.773  18.763  1.00 30.08 LIG-0.65  OA
ENDBRANCH 6 7
BRANCH 6 10
ATOM     10  CB  TYR C   5      20.689  -1.761  15.779  1.00 26.02 LIG 0.07  C 
BRANCH 10 11
ATOM     11  CG  TYR C   5      21.906  -2.623  15.688  1.00 28.29 LIG-0.06  A 
ATOM     12  CD1 TYR C   5      23.060  -2.268  16.372  1.00 28.93 LIG 0.01  A 
ATOM     13  CE1 TYR C   5      24.177  -3.075  16.342  1.00 31.65 LIG 0.04  A 
ATOM     14  CZ  TYR C   5      24.146  -4.269  15.645  1.00 33.19 LIG 0.07  A 
ATOM     15  CE2 TYR C   5      23.001  -4.656  14.974  1.00 31.83 LIG 0.04  A 
ATOM     16  CD2 TYR C   5      21.881  -3.831  15.003  1.00 30.09 LIG 0.01  A 
BRANCH 14 17
ATOM     17 OH   TYR C   5      25.272  -5.058  15.637  1.00 32.69 LIG-0.36  OA
ATOM     18 HH   TYR C   5      25.654  -5.009  16.383  1.00 32.69 LIG 0.22  HD
ENDBRANCH 14 17
ENDBRANCH 10 11
ENDBRANCH 6 10
ENDBRANCH 4 6
ENDBRANCH 1 2
BRANCH 1 19
ATOM     19  CB  ASN C   4      23.425   0.907  19.212  1.00 21.84 LIG 0.14  C 
BRANCH 19 20
ATOM     20  CG  ASN C   4      24.364   1.879  19.886  1.00 23.44 LIG 0.22  C 
ATOM     21 OD1  ASN C   4      24.982   2.693  19.215  1.00 24.15 LIG-0.27  OA
ATOM     22  ND2 ASN C   4      24.414   1.856  21.217  1.00 22.78 LIG-0.37  N 
ATOM     23 21HD ASN C   4      24.896   2.430  21.639  1.00 22.78 LIG 0.16  HD
ATOM     24 22HD ASN C   4      23.965   1.267  21.654  1.00 22.78 LIG 0.16  HD
ENDBRANCH 19 20
ENDBRANCH 1 19
BRANCH 1 25
ATOM     25  N   ASN C   4      21.733   2.302  20.244  1.00 22.84 LIG-0.35  N 
ATOM     26 H    ASN C   4      21.457   1.841  20.916  1.00 22.84 LIG 0.16  HD
ATOM     27  C   GLN C   3      21.878   3.625  20.272  1.00 20.90 LIG 0.24  C 
ATOM     28 O    GLN C   3      22.035   4.307  19.262  1.00 18.13 LIG-0.27  OA
BRANCH 27 29
ATOM     29  CA  GLN C   3      21.771   4.284  21.650  1.00 23.72 LIG 0.18  C 
BRANCH 29 30
ATOM     30  CB  GLN C   3      20.574   5.246  21.660  1.00 25.20 LIG 0.04  C 
BRANCH 30 31
ATOM     31  CG  GLN C   3      19.333   4.689  22.346  1.00 28.81 LIG 0.10  C 
BRANCH 31 32
ATOM     32  CD  GLN C   3      19.548   3.282  22.898  1.00 35.20 LIG 0.21  C 
ATOM     33  NE2 GLN C   3      19.848   3.190  24.199  1.00 25.96 LIG-0.37  N 
ATOM     34 21HE GLN C   3      19.904   3.902  24.678  1.00 25.96 LIG 0.16  HD
ATOM     35 22HE GLN C   3      19.985   2.419  24.556  1.00 25.96 LIG 0.16  HD
ATOM     36 OE1  GLN C   3      19.454   2.289  22.155  1.00 36.24 LIG-0.27  OA
ENDBRANCH 31 32
ENDBRANCH 30 31
ENDBRANCH 29 30
BRANCH 29 37
ATOM     37  N   GLN C   3      23.029   4.936  22.091  1.00 22.58 LIG-0.35  N 
ATOM     38 H    GLN C   3      23.220   5.669  21.685  1.00 22.58 LIG 0.16  HD
ATOM     39  C   SER C   2      23.771   4.387  23.053  1.00 24.53 LIG 0.26  C 
ATOM     40 O    SER C   2      23.431   3.359  23.645  1.00 22.38 LIG-0.27  OA
BRANCH 39 41
ATOM     41  CA  SER C   2      25.093   5.041  23.427  1.00 25.92 LIG 0.42  C 
ATOM     42  N   SER C   2      25.198   6.353  22.708  1.00 33.46 LIG 0.62  N 
BRANCH 41 43
ATOM     43  CB  SER C   2      25.220   5.175  24.946  1.00 31.59 LIG 0.21  C 
BRANCH 43 44
ATOM     44 OG   SER C   2      25.065   3.935  25.627  1.00 27.93 LIG-0.40  OA
ATOM     45 HG   SER C   2      25.553   3.927  26.311  1.00 27.93 LIG 0.21  HD
ENDBRANCH 43 44
ENDBRANCH 41 43
ENDBRANCH 39 41
ENDBRANCH 29 37
ENDBRANCH 27 29
ENDBRANCH 1 25
TORSDOF 17
ENDMDL
MODEL 5
USER: ADFR SOLUTION from run 164
USER: SCORE 15.220423 LL:  -2.008 LR: -13.834 RR:   0.000 FEB:  -8.762
USER: RMSD 2.302714
USER: SEED 163
USER: STATUS no improvement in best in 4 clusters for 5 generations
USER: GENES 19
USER: genes 0 Translation |==|  0.62264 0.38830 0.46548
USER: genes 1 Rotation |==|  0.41466 0.50841 0.56023 0.98890
USER: genes 2 Torsion [N]-CA--C-[N] |==|  0.27307
USER: genes 3 Torsion [C]-N--CA-[C] |==|  0.76640
USER: genes 4 Torsion [N]-CA--C-[OXT] |==|  0.92956
USER: genes 5 Torsion [N]-CA--CB-[CG] |==|  0.81181
USER: genes 6 Torsion [CA]-CB--CG-[CD1] |==|  0.08592
USER: genes 7 Torsion [CE1]-CZ--OH-[HH] |==|  0.98890
USER: genes 8 Torsion [C]-CA--CB-[CG] |==|  0.47094
USER: genes 9 Torsion [CA]-CB--CG-[ND2] |==|  0.31549
USER: genes 10 Torsion [C]-CA--N-[C] |==|  0.63413
USER: genes 11 Torsion [N]-C--CA-[N] |==|  0.24211
USER: genes 12 Torsion [C]-CA--CB-[CG] |==|  0.18445
USER: genes 13 Torsion [CA]-CB--CG-[CD] |==|  0.64622
USER: genes 14 Torsion [CB]-CG--CD-[NE2] |==|  0.22233
USER: genes 15 Torsion [C]-CA--N-[C] |==|  0.77222
USER: genes 16 Torsion [N]-C--CA-[N] |==|  0.98788
USER: genes 17 Torsion [C]-CA--CB-[OG] |==|  0.17803
USER: genes 18 Torsion [CA]-CB--OG-[HG] |==|  0.34931
ROOT
ATOM      1  CA  ASN C   4      23.267   1.349  19.485  1.00 23.87 LIG 0.18  C 
ENDROOT
BRANCH 1 2
ATOM      2  C   ASN C   4      22.648  -0.049  19.427  1.00 24.50 LIG 0.24  C 
ATOM      3 O    ASN C   4      22.982  -0.929  20.218  1.00 25.26 LIG-0.27  OA
ATOM      4  N   TYR C   5      21.739  -0.229  18.473  1.00 25.46 LIG-0.34  N 
ATOM      5 H    TYR C   5      21.519   0.390  17.918  1.00 25.46 LIG 0.16  HD
BRANCH 4 6
ATOM      6  CA  TYR C   5      21.015  -1.487  18.260  1.00 27.53 LIG 0.19  C 
BRANCH 6 7
ATOM      7  C   TYR C   5      21.853  -2.426  17.407  1.00 27.73 LIG 0.20  C 
ATOM      8 OXT  TYR C   5      22.706  -1.971  16.632  1.00 28.08 LIG-0.65  OA
ATOM      9 O    TYR C   5      21.694  -3.644  17.533  1.00 30.08 LIG-0.65  OA
ENDBRANCH 6 7
BRANCH 6 10
ATOM     10  CB  TYR C   5      19.681  -1.211  17.561  1.00 26.02 LIG 0.07  C 
BRANCH 10 11
ATOM     11  CG  TYR C   5      18.761  -0.463  18.469  1.00 28.29 LIG-0.06  A 
ATOM     12  CD1 TYR C   5      19.279   0.414  19.413  1.00 28.93 LIG 0.01  A 
ATOM     13  CE1 TYR C   5      18.446   1.151  20.226  1.00 31.65 LIG 0.04  A 
ATOM     14  CZ  TYR C   5      17.075   1.041  20.088  1.00 33.19 LIG 0.07  A 
ATOM     15  CE2 TYR C   5      16.533   0.192  19.141  1.00 31.83 LIG 0.04  A 
ATOM     16  CD2 TYR C   5      17.382  -0.554  18.329  1.00 30.09 LIG 0.01  A 
BRANCH 14 17
ATOM     17 OH   TYR C   5      16.266   1.793  20.908  1.00 32.69 LIG-0.36  OA
ATOM     18 HH   TYR C   5      16.740   2.213  21.460  1.00 32.69 LIG 0.22  HD
ENDBRANCH 14 17
ENDBRANCH 10 11
ENDBRANCH 6 10
ENDBRANCH 4 6
ENDBRANCH 1 2
BRANCH 1 19
ATOM     19  CB  ASN C   4      24.769   1.297  19.728  1.00 21.84 LIG 0.14  C 
BRANCH 19 20
ATOM     20  CG  ASN C   4      25.405   2.653  19.532  1.00 23.44 LIG 0.22  C 
ATOM     21 OD1  ASN C   4      25.361   3.192  18.435  1.00 24.15 LIG-0.27  OA
ATOM     22  ND2 ASN C   4      25.924   3.245  20.605  1.00 22.78 LIG-0.37  N 
ATOM     23 21HD ASN C   4      26.246   4.041  20.544  1.00 22.78 LIG 0.16  HD
ATOM     24 22HD ASN C   4      25.936   2.833  21.361  1.00 22.78 LIG 0.16  HD
ENDBRANCH 19 20
ENDBRANCH 1 19
BRANCH 1 25
ATOM     25  N   ASN C   4      22.664   2.224  20.493  1.00 22.84 LIG-0.35  N 
ATOM     26 H    ASN C   4      22.582   1.860  21.268  1.00 22.84 LIG 0.16  HD
ATOM     27  C   GLN C   3      22.280   3.470  20.223  1.00 20.90 LIG 0.24  C 
ATOM     28 O    GLN C   3      22.169   3.909  19.082  1.00 18.13 LIG-0.27  OA
BRANCH 27 29
ATOM     29  CA  GLN C   3      21.907   4.334  21.431  1.00 23.72 LIG 0.18  C 
BRANCH 29 30
ATOM     30  CB  GLN C   3      20.779   5.298  21.037  1.00 25.20 LIG 0.04  C 
BRANCH 30 31
ATOM     31  CG  GLN C   3      19.457   4.612  20.714  1.00 28.81 LIG 0.10  C 
BRANCH 31 32
ATOM     32  CD  GLN C   3      18.897   5.026  19.356  1.00 35.20 LIG 0.21  C 
ATOM     33  NE2 GLN C   3      19.426   4.425  18.283  1.00 25.96 LIG-0.37  N 
ATOM     34 21HE GLN C   3      20.044   3.835  18.382  1.00 25.96 LIG 0.16  HD
ATOM     35 22HE GLN C   3      19.149   4.629  17.495  1.00 25.96 LIG 0.16  HD
ATOM     36 OE1  GLN C   3      18.002   5.886  19.274  1.00 36.24 LIG-0.27  OA
ENDBRANCH 31 32
ENDBRANCH 30 31
ENDBRANCH 29 30
BRANCH 29 37
ATOM     37  N   GLN C   3      23.067   5.034  22.037  1.00 22.58 LIG-0.35  N 
ATOM     38 H    GLN C   3      23.166   5.852  21.792  1.00 22.58 LIG 0.16  HD
ATOM     39  C   SER C   2      23.867   4.397  22.893  1.00 24.53 LIG 0.26  C 
ATOM     40 O    SER C   2      23.657   3.236  23.255  1.00 22.38 LIG-0.27  OA
BRANCH 39 41
ATOM     41  CA  SER C   2      25.091   5.121  23.434  1.00 25.92 LIG 0.42  C 
ATOM     42  N   SER C   2      25.193   6.457  22.762  1.00 33.46 LIG 0.62  N 
BRANCH 41 43
ATOM     43  CB  SER C   2      25.032   5.217  24.960  1.00 31.59 LIG 0.21  C 
BRANCH 43 44
ATOM     44 OG   SER C   2      25.079   3.946  25.599  1.00 27.93 LIG-0.40  OA
ATOM     45 HG   SER C   2      25.704   3.937  26.161  1.00 27.93 LIG 0.21  HD
ENDBRANCH 43 44
ENDBRANCH 41 43
ENDBRANCH 39 41
ENDBRANCH 29 37
ENDBRANCH 27 29
ENDBRANCH 1 25
TORSDOF 17
ENDMDL
