MODEL 1
USER: ADFR SOLUTION from run 173
USER: SCORE 17.035379 LL:  -2.259 LR: -16.991 RR:   0.000 FEB: -11.025
USER: RMSD 3.431146
USER: SEED 172
USER: STATUS no improvement in best in 8 clusters for 5 generations
USER: GENES 22
USER: genes 0 Translation |==|  0.46621 0.48947 0.45084
USER: genes 1 Rotation |==|  0.40283 0.67905 0.65658 0.92893
USER: genes 2 Torsion [C]-CA--N-[C] |==|  0.62779
USER: genes 3 Torsion [N]-C--CA-[N] |==|  0.80137
USER: genes 4 Torsion [C]-CA--CB-[CG] |==|  0.02566
USER: genes 5 Torsion [CA]-CB--CG-[CD] |==|  0.39027
USER: genes 6 Torsion [CB]-CG--CD-[NE] |==|  0.55369
USER: genes 7 Torsion [CG]-CD--NE-[CZ] |==|  0.70585
USER: genes 8 Torsion [N]-CA--C-[N] |==|  0.89200
USER: genes 9 Torsion [C]-N--CA-[CB] |==|  0.41056
USER: genes 10 Torsion [N]-CA--C-[N] |==|  0.21444
USER: genes 11 Torsion [C]-N--CA-[C] |==|  0.80605
USER: genes 12 Torsion [N]-CA--C-[O] |==|  0.71615
USER: genes 13 Torsion [N]-CA--CB-[CG] |==|  0.84232
USER: genes 14 Torsion [CA]-CB--CG-[CD1] |==|  0.91699
USER: genes 15 Torsion [N]-CA--CB-[CG2] |==|  0.63038
USER: genes 16 Torsion [CA]-CB--CG1-[CD1] |==|  0.69571
USER: genes 17 Torsion [N]-CA--CB-[CG] |==|  0.22883
USER: genes 18 Torsion [CA]-CB--CG-[CD] |==|  0.63973
USER: genes 19 Torsion [CB]-CG--CD-[CE] |==|  0.35582
USER: genes 20 Torsion [CG]-CD--CE-[NZ] |==|  0.35396
USER: genes 21 Torsion [CD]-CE--NZ-[HZ2] |==|  0.29869
ROOT
ATOM      1  CA  LYS C   3      20.477   3.360  20.279  1.00 27.41 LIG 0.18  C 
ENDROOT
BRANCH 1 2
ATOM      2  N   LYS C   3      20.394   3.099  21.726  1.00 28.91 LIG-0.35  N 
ATOM      3  C   ARG C   2      19.513   3.761  22.471  1.00 30.62 LIG 0.26  C 
ATOM      4 O    ARG C   2      18.628   4.447  21.958  1.00 31.16 LIG-0.27  OA
ATOM      5 H    LYS C   3      20.943   2.507  22.023  1.00 28.91 LIG 0.16  HD
BRANCH 3 6
ATOM      6  CA  ARG C   2      19.600   3.686  24.010  1.00 31.50 LIG 0.40  C 
ATOM      7  N   ARG C   2      19.185   2.347  24.489  1.00 33.48 LIG 0.61  N 
BRANCH 6 8
ATOM      8  CB  ARG C   2      20.968   4.064  24.585  1.00 31.91 LIG 0.05  C 
BRANCH 8 9
ATOM      9  CG  ARG C   2      21.956   4.663  23.583  1.00 31.74 LIG 0.02  C 
BRANCH 9 10
ATOM     10  CD  ARG C   2      22.754   5.803  24.202  1.00 33.46 LIG 0.14  C 
BRANCH 10 11
ATOM     11  NE  ARG C   2      23.381   6.707  23.225  1.00 33.35 LIG-0.23  N 
ATOM     12  CZ  ARG C   2      24.677   6.753  22.924  1.00 33.45 LIG 0.67  C 
ATOM     13  NH1 ARG C   2      25.534   5.929  23.497  1.00 31.52 LIG-0.23  N 
ATOM     14  NH2 ARG C   2      25.121   7.629  22.024  1.00 34.66 LIG-0.23  N 
ATOM     15 1HH1 ARG C   2      25.258   5.353  24.072  1.00 31.52 LIG 0.17  HD
ATOM     16 2HH1 ARG C   2      26.369   5.968  23.295  1.00 31.52 LIG 0.17  HD
ATOM     17 1HH2 ARG C   2      24.571   8.166  21.638  1.00 34.66 LIG 0.17  HD
ATOM     18 2HH2 ARG C   2      25.959   7.659  21.830  1.00 34.66 LIG 0.17  HD
ATOM     19 HE   ARG C   2      22.863   7.255  22.811  1.00 33.35 LIG 0.18  HD
ENDBRANCH 10 11
ENDBRANCH 9 10
ENDBRANCH 8 9
ENDBRANCH 6 8
ENDBRANCH 3 6
ENDBRANCH 1 2
BRANCH 1 20
ATOM     20  C   LYS C   3      20.543   2.144  19.361  1.00 25.28 LIG 0.24  C 
ATOM     21 O    LYS C   3      19.955   2.184  18.297  1.00 21.80 LIG-0.27  OA
ATOM     22  N   ILE C   4      21.262   1.096  19.742  1.00 24.70 LIG-0.35  N 
ATOM     23 H    ILE C   4      21.618   1.005  20.520  1.00 24.70 LIG 0.16  HD
BRANCH 22 24
ATOM     24  CA  ILE C   4      21.501  -0.018  18.822  1.00 24.27 LIG 0.18  C 
BRANCH 24 25
ATOM     25  C   ILE C   4      20.397  -1.083  18.863  1.00 24.50 LIG 0.24  C 
ATOM     26  N   LEU C   5      19.269  -0.776  18.223  1.00 23.50 LIG-0.34  N 
ATOM     27 H    LEU C   5      19.131  -0.014  17.851  1.00 23.50 LIG 0.16  HD
ATOM     28 O    ILE C   4      20.575  -2.160  19.440  1.00 23.85 LIG-0.27  OA
BRANCH 26 29
ATOM     29  CA  LEU C   5      18.152  -1.707  18.091  1.00 24.14 LIG 0.18  C 
BRANCH 29 30
ATOM     30  C   LEU C   5      18.542  -2.848  17.143  1.00 24.32 LIG 0.20  C 
ATOM     31 O    LEU C   5      18.125  -2.839  15.976  1.00 24.96 LIG-0.65  OA
ATOM     32 OXT  LEU C   5      19.293  -3.772  17.483  1.00 24.51 LIG-0.65  OA
ENDBRANCH 29 30
BRANCH 29 33
ATOM     33  CB  LEU C   5      16.912  -0.966  17.579  1.00 23.93 LIG 0.04  C 
BRANCH 33 34
ATOM     34  CG  LEU C   5      16.386   0.246  18.379  1.00 26.81 LIG-0.02  C 
ATOM     35  CD1 LEU C   5      16.694   0.099  19.874  1.00 29.09 LIG 0.01  C 
ATOM     36  CD2 LEU C   5      16.944   1.558  17.865  1.00 28.70 LIG 0.01  C 
ENDBRANCH 33 34
ENDBRANCH 29 33
ENDBRANCH 26 29
ENDBRANCH 24 25
BRANCH 24 37
ATOM     37  CB  ILE C   4      22.865  -0.679  19.059  1.00 24.66 LIG 0.01  C 
ATOM     38  CG2 ILE C   4      23.604  -0.883  17.729  1.00 24.52 LIG 0.01  C 
BRANCH 37 39
ATOM     39  CG1 ILE C   4      23.705   0.130  20.053  1.00 25.15 LIG 0.00  C 
ATOM     40  CD1 ILE C   4      24.890   0.839  19.449  1.00 24.74 LIG 0.01  C 
ENDBRANCH 37 39
ENDBRANCH 24 37
ENDBRANCH 22 24
ENDBRANCH 1 20
BRANCH 1 41
ATOM     41  CB  LYS C   3      21.600   4.319  19.901  1.00 27.76 LIG 0.04  C 
BRANCH 41 42
ATOM     42  CG  LYS C   3      22.935   3.648  19.790  1.00 29.79 LIG 0.00  C 
BRANCH 42 43
ATOM     43  CD  LYS C   3      23.974   4.386  20.582  1.00 31.63 LIG 0.03  C 
BRANCH 43 44
ATOM     44  CE  LYS C   3      24.713   3.443  21.516  1.00 35.23 LIG 0.23  C 
BRANCH 44 45
ATOM     45  NZ  LYS C   3      26.188   3.534  21.356  1.00 39.07 LIG-0.08  N 
ATOM     46 HZ3  LYS C   3      26.531   2.715  21.293  1.00 39.07 LIG 0.27  HD
ATOM     47 HZ2  LYS C   3      26.538   3.949  22.061  1.00 39.07 LIG 0.27  HD
ATOM     48 HZ1  LYS C   3      26.379   3.992  20.616  1.00 39.07 LIG 0.27  HD
ENDBRANCH 44 45
ENDBRANCH 43 44
ENDBRANCH 42 43
ENDBRANCH 41 42
ENDBRANCH 1 41
TORSDOF 20
ENDMDL
MODEL 2
USER: ADFR SOLUTION from run 175
USER: SCORE 17.590781 LL:  -2.167 LR: -16.843 RR:   0.000 FEB: -10.877
USER: RMSD 3.076462
USER: SEED 174
USER: STATUS no improvement in best in 7 clusters for 5 generations
USER: GENES 22
USER: genes 0 Translation |==|  0.59267 0.53292 0.50550
USER: genes 1 Rotation |==|  0.52683 0.63917 0.53693 0.97807
USER: genes 2 Torsion [C]-CA--N-[C] |==|  0.72023
USER: genes 3 Torsion [N]-C--CA-[N] |==|  0.28072
USER: genes 4 Torsion [C]-CA--CB-[CG] |==|  0.24614
USER: genes 5 Torsion [CA]-CB--CG-[CD] |==|  0.22563
USER: genes 6 Torsion [CB]-CG--CD-[NE] |==|  0.48911
USER: genes 7 Torsion [CG]-CD--NE-[CZ] |==|  0.70715
USER: genes 8 Torsion [N]-CA--C-[N] |==|  0.97003
USER: genes 9 Torsion [C]-N--CA-[CB] |==|  0.25492
USER: genes 10 Torsion [N]-CA--C-[N] |==|  0.57961
USER: genes 11 Torsion [C]-N--CA-[C] |==|  0.60007
USER: genes 12 Torsion [N]-CA--C-[O] |==|  0.15337
USER: genes 13 Torsion [N]-CA--CB-[CG] |==|  0.75543
USER: genes 14 Torsion [CA]-CB--CG-[CD1] |==|  0.89379
USER: genes 15 Torsion [N]-CA--CB-[CG2] |==|  0.61450
USER: genes 16 Torsion [CA]-CB--CG1-[CD1] |==|  0.65327
USER: genes 17 Torsion [N]-CA--CB-[CG] |==|  0.92784
USER: genes 18 Torsion [CA]-CB--CG-[CD] |==|  0.84402
USER: genes 19 Torsion [CB]-CG--CD-[CE] |==|  0.72722
USER: genes 20 Torsion [CG]-CD--CE-[NZ] |==|  0.16442
USER: genes 21 Torsion [CD]-CE--NZ-[HZ2] |==|  0.89754
ROOT
ATOM      1  CA  LYS C   3      22.564   4.077  21.426  1.00 27.41 LIG 0.18  C 
ENDROOT
BRANCH 1 2
ATOM      2  N   LYS C   3      22.004   3.534  22.676  1.00 28.91 LIG-0.35  N 
ATOM      3  C   ARG C   2      20.964   4.130  23.253  1.00 30.62 LIG 0.26  C 
ATOM      4 O    ARG C   2      20.328   5.010  22.671  1.00 31.16 LIG-0.27  OA
ATOM      5 H    LYS C   3      22.397   2.832  22.978  1.00 28.91 LIG 0.16  HD
BRANCH 3 6
ATOM      6  CA  ARG C   2      20.545   3.728  24.682  1.00 31.50 LIG 0.40  C 
ATOM      7  N   ARG C   2      21.035   4.722  25.666  1.00 33.48 LIG 0.61  N 
BRANCH 6 8
ATOM      8  CB  ARG C   2      19.043   3.491  24.857  1.00 31.91 LIG 0.05  C 
BRANCH 8 9
ATOM      9  CG  ARG C   2      18.568   2.065  24.575  1.00 31.74 LIG 0.02  C 
BRANCH 9 10
ATOM     10  CD  ARG C   2      18.807   1.151  25.770  1.00 33.46 LIG 0.14  C 
BRANCH 10 11
ATOM     11  NE  ARG C   2      18.291  -0.216  25.603  1.00 33.35 LIG-0.23  N 
ATOM     12  CZ  ARG C   2      17.202  -0.715  26.183  1.00 33.45 LIG 0.67  C 
ATOM     13  NH1 ARG C   2      16.454   0.032  26.975  1.00 31.52 LIG-0.23  N 
ATOM     14  NH2 ARG C   2      16.846  -1.979  25.957  1.00 34.66 LIG-0.23  N 
ATOM     15 1HH1 ARG C   2      16.669   0.851  27.121  1.00 31.52 LIG 0.17  HD
ATOM     16 2HH1 ARG C   2      15.753  -0.301  27.344  1.00 31.52 LIG 0.17  HD
ATOM     17 1HH2 ARG C   2      17.320  -2.472  25.436  1.00 34.66 LIG 0.17  HD
ATOM     18 2HH2 ARG C   2      16.142  -2.301  26.332  1.00 34.66 LIG 0.17  HD
ATOM     19 HE   ARG C   2      18.733  -0.740  25.084  1.00 33.35 LIG 0.18  HD
ENDBRANCH 10 11
ENDBRANCH 9 10
ENDBRANCH 8 9
ENDBRANCH 6 8
ENDBRANCH 3 6
ENDBRANCH 1 2
BRANCH 1 20
ATOM     20  C   LYS C   3      22.166   3.377  20.131  1.00 25.28 LIG 0.24  C 
ATOM     21 O    LYS C   3      22.464   3.896  19.072  1.00 21.80 LIG-0.27  OA
ATOM     22  N   ILE C   4      21.533   2.213  20.204  1.00 24.70 LIG-0.35  N 
ATOM     23 H    ILE C   4      21.236   1.865  20.932  1.00 24.70 LIG 0.16  HD
BRANCH 22 24
ATOM     24  CA  ILE C   4      21.290   1.420  18.998  1.00 24.27 LIG 0.18  C 
BRANCH 24 25
ATOM     25  C   ILE C   4      19.940   0.691  19.015  1.00 24.50 LIG 0.24  C 
ATOM     26  N   LEU C   5      19.884  -0.446  18.322  1.00 23.50 LIG-0.34  N 
ATOM     27 H    LEU C   5      20.537  -0.740  17.846  1.00 23.50 LIG 0.16  HD
ATOM     28 O    ILE C   4      18.985   1.137  19.658  1.00 23.85 LIG-0.27  OA
BRANCH 26 29
ATOM     29  CA  LEU C   5      18.705  -1.308  18.302  1.00 24.14 LIG 0.18  C 
BRANCH 29 30
ATOM     30  C   LEU C   5      19.141  -2.777  18.254  1.00 24.32 LIG 0.20  C 
ATOM     31 O    LEU C   5      19.910  -3.212  19.123  1.00 24.96 LIG-0.65  OA
ATOM     32 OXT  LEU C   5      18.728  -3.569  17.397  1.00 24.51 LIG-0.65  OA
ENDBRANCH 29 30
BRANCH 29 33
ATOM     33  CB  LEU C   5      17.822  -0.956  17.100  1.00 23.93 LIG 0.04  C 
BRANCH 33 34
ATOM     34  CG  LEU C   5      16.753   0.147  17.259  1.00 26.81 LIG-0.02  C 
ATOM     35  CD1 LEU C   5      16.091   0.082  18.641  1.00 29.09 LIG 0.01  C 
ATOM     36  CD2 LEU C   5      17.319   1.533  17.024  1.00 28.70 LIG 0.01  C 
ENDBRANCH 33 34
ENDBRANCH 29 33
ENDBRANCH 26 29
ENDBRANCH 24 25
BRANCH 24 37
ATOM     37  CB  ILE C   4      22.416   0.414  18.734  1.00 24.66 LIG 0.01  C 
ATOM     38  CG2 ILE C   4      22.756   0.363  17.237  1.00 24.52 LIG 0.01  C 
BRANCH 37 39
ATOM     39  CG1 ILE C   4      23.653   0.733  19.582  1.00 25.15 LIG 0.00  C 
ATOM     40  CD1 ILE C   4      24.928   0.908  18.800  1.00 24.74 LIG 0.01  C 
ENDBRANCH 37 39
ENDBRANCH 24 37
ENDBRANCH 22 24
ENDBRANCH 1 20
BRANCH 1 41
ATOM     41  CB  LYS C   3      24.081   4.224  21.457  1.00 27.76 LIG 0.04  C 
BRANCH 41 42
ATOM     42  CG  LYS C   3      24.627   4.395  22.841  1.00 29.79 LIG 0.00  C 
BRANCH 42 43
ATOM     43  CD  LYS C   3      23.991   5.566  23.528  1.00 31.63 LIG 0.03  C 
BRANCH 43 44
ATOM     44  CE  LYS C   3      24.880   6.795  23.439  1.00 35.23 LIG 0.23  C 
BRANCH 44 45
ATOM     45  NZ  LYS C   3      25.160   7.186  22.033  1.00 39.07 LIG-0.08  N 
ATOM     46 HZ3  LYS C   3      24.485   7.676  21.720  1.00 39.07 LIG 0.27  HD
ATOM     47 HZ2  LYS C   3      25.251   6.454  21.534  1.00 39.07 LIG 0.27  HD
ATOM     48 HZ1  LYS C   3      25.911   7.663  22.001  1.00 39.07 LIG 0.27  HD
ENDBRANCH 44 45
ENDBRANCH 43 44
ENDBRANCH 42 43
ENDBRANCH 41 42
ENDBRANCH 1 41
TORSDOF 20
ENDMDL
MODEL 3
USER: ADFR SOLUTION from run 73
USER: SCORE 17.342518 LL:  -2.661 LR: -16.728 RR:   0.000 FEB: -10.762
USER: RMSD 3.911862
USER: SEED 72
USER: STATUS no improvement in best in 6 clusters for 5 generations
USER: GENES 22
USER: genes 0 Translation |==|  0.43977 0.47975 0.45363
USER: genes 1 Rotation |==|  0.39636 0.68098 0.69867 0.90870
USER: genes 2 Torsion [C]-CA--N-[C] |==|  0.67224
USER: genes 3 Torsion [N]-C--CA-[N] |==|  0.73415
USER: genes 4 Torsion [C]-CA--CB-[CG] |==|  0.12920
USER: genes 5 Torsion [CA]-CB--CG-[CD] |==|  0.68386
USER: genes 6 Torsion [CB]-CG--CD-[NE] |==|  0.51328
USER: genes 7 Torsion [CG]-CD--NE-[CZ] |==|  0.40165
USER: genes 8 Torsion [N]-CA--C-[N] |==|  0.91370
USER: genes 9 Torsion [C]-N--CA-[CB] |==|  0.41878
USER: genes 10 Torsion [N]-CA--C-[N] |==|  0.18552
USER: genes 11 Torsion [C]-N--CA-[C] |==|  0.81782
USER: genes 12 Torsion [N]-CA--C-[O] |==|  0.31410
USER: genes 13 Torsion [N]-CA--CB-[CG] |==|  0.85492
USER: genes 14 Torsion [CA]-CB--CG-[CD1] |==|  0.91778
USER: genes 15 Torsion [N]-CA--CB-[CG2] |==|  0.63921
USER: genes 16 Torsion [CA]-CB--CG1-[CD1] |==|  0.75715
USER: genes 17 Torsion [N]-CA--CB-[CG] |==|  0.72952
USER: genes 18 Torsion [CA]-CB--CG-[CD] |==|  0.85870
USER: genes 19 Torsion [CB]-CG--CD-[CE] |==|  0.70626
USER: genes 20 Torsion [CG]-CD--CE-[NZ] |==|  0.07501
USER: genes 21 Torsion [CD]-CE--NZ-[HZ2] |==|  0.10283
ROOT
ATOM      1  CA  LYS C   3      20.041   3.200  20.337  1.00 27.41 LIG 0.18  C 
ENDROOT
BRANCH 1 2
ATOM      2  N   LYS C   3      20.095   2.907  21.780  1.00 28.91 LIG-0.35  N 
ATOM      3  C   ARG C   2      19.021   3.107  22.539  1.00 30.62 LIG 0.26  C 
ATOM      4 O    ARG C   2      17.920   3.345  22.040  1.00 31.16 LIG-0.27  OA
ATOM      5 H    LYS C   3      20.849   2.610  22.065  1.00 28.91 LIG 0.16  HD
BRANCH 3 6
ATOM      6  CA  ARG C   2      19.147   3.054  24.076  1.00 31.50 LIG 0.40  C 
ATOM      7  N   ARG C   2      18.785   1.709  24.581  1.00 33.48 LIG 0.61  N 
BRANCH 6 8
ATOM      8  CB  ARG C   2      20.516   3.482  24.612  1.00 31.91 LIG 0.05  C 
BRANCH 8 9
ATOM      9  CG  ARG C   2      21.081   4.769  24.011  1.00 31.74 LIG 0.02  C 
BRANCH 9 10
ATOM     10  CD  ARG C   2      22.334   4.497  23.189  1.00 33.46 LIG 0.14  C 
BRANCH 10 11
ATOM     11  NE  ARG C   2      22.996   5.704  22.671  1.00 33.35 LIG-0.23  N 
ATOM     12  CZ  ARG C   2      24.309   5.876  22.535  1.00 33.45 LIG 0.67  C 
ATOM     13  NH1 ARG C   2      25.155   4.912  22.850  1.00 31.52 LIG-0.23  N 
ATOM     14  NH2 ARG C   2      24.785   7.027  22.061  1.00 34.66 LIG-0.23  N 
ATOM     15 1HH1 ARG C   2      24.859   4.161  23.147  1.00 31.52 LIG 0.17  HD
ATOM     16 2HH1 ARG C   2      26.000   5.034  22.757  1.00 31.52 LIG 0.17  HD
ATOM     17 1HH2 ARG C   2      24.244   7.659  21.844  1.00 34.66 LIG 0.17  HD
ATOM     18 2HH2 ARG C   2      25.633   7.137  21.973  1.00 34.66 LIG 0.17  HD
ATOM     19 HE   ARG C   2      22.490   6.358  22.436  1.00 33.35 LIG 0.18  HD
ENDBRANCH 10 11
ENDBRANCH 9 10
ENDBRANCH 8 9
ENDBRANCH 6 8
ENDBRANCH 3 6
ENDBRANCH 1 2
BRANCH 1 20
ATOM     20  C   LYS C   3      20.263   2.028  19.387  1.00 25.28 LIG 0.24  C 
ATOM     21 O    LYS C   3      19.723   2.050  18.297  1.00 21.80 LIG-0.27  OA
ATOM     22  N   ILE C   4      21.060   1.039  19.770  1.00 24.70 LIG-0.35  N 
ATOM     23 H    ILE C   4      21.388   0.955  20.561  1.00 24.70 LIG 0.16  HD
BRANCH 22 24
ATOM     24  CA  ILE C   4      21.446  -0.015  18.829  1.00 24.27 LIG 0.18  C 
BRANCH 24 25
ATOM     25  C   ILE C   4      20.411  -1.145  18.731  1.00 24.50 LIG 0.24  C 
ATOM     26  N   LEU C   5      19.236  -0.812  18.198  1.00 23.50 LIG-0.34  N 
ATOM     27 H    LEU C   5      19.033  -0.009  17.967  1.00 23.50 LIG 0.16  HD
ATOM     28 O    ILE C   4      20.683  -2.289  19.107  1.00 23.85 LIG-0.27  OA
BRANCH 26 29
ATOM     29  CA  LEU C   5      18.172  -1.782  17.953  1.00 24.14 LIG 0.18  C 
BRANCH 29 30
ATOM     30  C   LEU C   5      18.624  -2.783  16.882  1.00 24.32 LIG 0.20  C 
ATOM     31 O    LEU C   5      18.805  -3.968  17.195  1.00 24.96 LIG-0.65  OA
ATOM     32 OXT  LEU C   5      18.785  -2.466  15.696  1.00 24.51 LIG-0.65  OA
ENDBRANCH 29 30
BRANCH 29 33
ATOM     33  CB  LEU C   5      16.893  -1.056  17.522  1.00 23.93 LIG 0.04  C 
BRANCH 33 34
ATOM     34  CG  LEU C   5      16.360   0.098  18.400  1.00 26.81 LIG-0.02  C 
ATOM     35  CD1 LEU C   5      16.731  -0.110  19.873  1.00 29.09 LIG 0.01  C 
ATOM     36  CD2 LEU C   5      16.854   1.452  17.930  1.00 28.70 LIG 0.01  C 
ENDBRANCH 33 34
ENDBRANCH 29 33
ENDBRANCH 26 29
ENDBRANCH 24 25
BRANCH 24 37
ATOM     37  CB  ILE C   4      22.824  -0.604  19.155  1.00 24.66 LIG 0.01  C 
ATOM     38  CG2 ILE C   4      23.710  -0.629  17.902  1.00 24.52 LIG 0.01  C 
BRANCH 37 39
ATOM     39  CG1 ILE C   4      23.492   0.159  20.304  1.00 25.15 LIG 0.00  C 
ATOM     40  CD1 ILE C   4      24.296   1.362  19.882  1.00 24.74 LIG 0.01  C 
ENDBRANCH 37 39
ENDBRANCH 24 37
ENDBRANCH 22 24
ENDBRANCH 1 20
BRANCH 1 41
ATOM     41  CB  LYS C   3      20.952   4.348  19.920  1.00 27.76 LIG 0.04  C 
BRANCH 41 42
ATOM     42  CG  LYS C   3      20.234   5.658  19.808  1.00 29.79 LIG 0.00  C 
BRANCH 42 43
ATOM     43  CD  LYS C   3      19.005   5.526  18.960  1.00 31.63 LIG 0.03  C 
BRANCH 43 44
ATOM     44  CE  LYS C   3      19.218   6.159  17.596  1.00 35.23 LIG 0.23  C 
BRANCH 44 45
ATOM     45  NZ  LYS C   3      20.649   6.159  17.193  1.00 39.07 LIG-0.08  N 
ATOM     46 HZ3  LYS C   3      20.708   6.215  16.306  1.00 39.07 LIG 0.27  HD
ATOM     47 HZ2  LYS C   3      21.035   5.406  17.469  1.00 39.07 LIG 0.27  HD
ATOM     48 HZ1  LYS C   3      21.062   6.857  17.561  1.00 39.07 LIG 0.27  HD
ENDBRANCH 44 45
ENDBRANCH 43 44
ENDBRANCH 42 43
ENDBRANCH 41 42
ENDBRANCH 1 41
TORSDOF 20
ENDMDL
MODEL 4
USER: ADFR SOLUTION from run 193
USER: SCORE 17.805823 LL:  -2.750 LR: -16.655 RR:   0.000 FEB: -10.689
USER: RMSD 3.452684
USER: SEED 192
USER: STATUS no improvement in best in 9 clusters for 5 generations
USER: GENES 22
USER: genes 0 Translation |==|  0.61839 0.51650 0.50545
USER: genes 1 Rotation |==|  0.52280 0.56687 0.41437 0.98752
USER: genes 2 Torsion [C]-CA--N-[C] |==|  0.74444
USER: genes 3 Torsion [N]-C--CA-[N] |==|  0.34295
USER: genes 4 Torsion [C]-CA--CB-[CG] |==|  0.85768
USER: genes 5 Torsion [CA]-CB--CG-[CD] |==|  0.24485
USER: genes 6 Torsion [CB]-CG--CD-[NE] |==|  0.66298
USER: genes 7 Torsion [CG]-CD--NE-[CZ] |==|  0.43417
USER: genes 8 Torsion [N]-CA--C-[N] |==|  0.88839
USER: genes 9 Torsion [C]-N--CA-[CB] |==|  0.26042
USER: genes 10 Torsion [N]-CA--C-[N] |==|  0.57660
USER: genes 11 Torsion [C]-N--CA-[C] |==|  0.60639
USER: genes 12 Torsion [N]-CA--C-[O] |==|  0.15472
USER: genes 13 Torsion [N]-CA--CB-[CG] |==|  0.73840
USER: genes 14 Torsion [CA]-CB--CG-[CD1] |==|  0.89347
USER: genes 15 Torsion [N]-CA--CB-[CG2] |==|  0.63277
USER: genes 16 Torsion [CA]-CB--CG1-[CD1] |==|  0.70999
USER: genes 17 Torsion [N]-CA--CB-[CG] |==|  0.77519
USER: genes 18 Torsion [CA]-CB--CG-[CD] |==|  0.10775
USER: genes 19 Torsion [CB]-CG--CD-[CE] |==|  0.61135
USER: genes 20 Torsion [CG]-CD--CE-[NZ] |==|  0.15341
USER: genes 21 Torsion [CD]-CE--NZ-[HZ2] |==|  0.04773
ROOT
ATOM      1  CA  LYS C   3      22.988   3.806  21.426  1.00 27.41 LIG 0.18  C 
ENDROOT
BRANCH 1 2
ATOM      2  N   LYS C   3      21.978   3.818  22.498  1.00 28.91 LIG-0.35  N 
ATOM      3  C   ARG C   2      21.138   4.844  22.607  1.00 30.62 LIG 0.26  C 
ATOM      4 O    ARG C   2      21.047   5.694  21.720  1.00 31.16 LIG-0.27  OA
ATOM      5 H    LYS C   3      21.987   3.133  23.017  1.00 28.91 LIG 0.16  HD
BRANCH 3 6
ATOM      6  CA  ARG C   2      20.263   4.987  23.870  1.00 31.50 LIG 0.40  C 
ATOM      7  N   ARG C   2      20.491   6.302  24.513  1.00 33.48 LIG 0.61  N 
BRANCH 6 8
ATOM      8  CB  ARG C   2      18.768   4.754  23.633  1.00 31.91 LIG 0.05  C 
BRANCH 8 9
ATOM      9  CG  ARG C   2      18.155   5.556  22.483  1.00 31.74 LIG 0.02  C 
BRANCH 9 10
ATOM     10  CD  ARG C   2      18.279   4.815  21.159  1.00 33.46 LIG 0.14  C 
BRANCH 10 11
ATOM     11  NE  ARG C   2      19.016   5.549  20.118  1.00 33.35 LIG-0.23  N 
ATOM     12  CZ  ARG C   2      19.641   5.007  19.075  1.00 33.45 LIG 0.67  C 
ATOM     13  NH1 ARG C   2      19.621   3.701  18.879  1.00 31.52 LIG-0.23  N 
ATOM     14  NH2 ARG C   2      20.284   5.784  18.206  1.00 34.66 LIG-0.23  N 
ATOM     15 1HH1 ARG C   2      19.201   3.190  19.428  1.00 31.52 LIG 0.17  HD
ATOM     16 2HH1 ARG C   2      20.028   3.362  18.202  1.00 31.52 LIG 0.17  HD
ATOM     17 1HH2 ARG C   2      20.296   6.637  18.318  1.00 34.66 LIG 0.17  HD
ATOM     18 2HH2 ARG C   2      20.688   5.433  17.532  1.00 34.66 LIG 0.17  HD
ATOM     19 HE   ARG C   2      19.046   6.405  20.190  1.00 33.35 LIG 0.18  HD
ENDBRANCH 10 11
ENDBRANCH 9 10
ENDBRANCH 8 9
ENDBRANCH 6 8
ENDBRANCH 3 6
ENDBRANCH 1 2
BRANCH 1 20
ATOM     20  C   LYS C   3      22.598   3.125  20.118  1.00 25.28 LIG 0.24  C 
ATOM     21 O    LYS C   3      22.958   3.625  19.069  1.00 21.80 LIG-0.27  OA
ATOM     22  N   ILE C   4      21.904   1.996  20.171  1.00 24.70 LIG-0.35  N 
ATOM     23 H    ILE C   4      21.565   1.664  20.888  1.00 24.70 LIG 0.16  HD
BRANCH 22 24
ATOM     24  CA  ILE C   4      21.661   1.213  18.957  1.00 24.27 LIG 0.18  C 
BRANCH 24 25
ATOM     25  C   ILE C   4      20.257   0.594  18.907  1.00 24.50 LIG 0.24  C 
ATOM     26  N   LEU C   5      20.142  -0.529  18.199  1.00 23.50 LIG-0.34  N 
ATOM     27 H    LEU C   5      20.790  -0.871  17.749  1.00 23.50 LIG 0.16  HD
ATOM     28 O    ILE C   4      19.314   1.110  19.513  1.00 23.85 LIG-0.27  OA
BRANCH 26 29
ATOM     29  CA  LEU C   5      18.901  -1.293  18.118  1.00 24.14 LIG 0.18  C 
BRANCH 29 30
ATOM     30  C   LEU C   5      19.217  -2.793  18.129  1.00 24.32 LIG 0.20  C 
ATOM     31 O    LEU C   5      19.882  -3.269  19.061  1.00 24.96 LIG-0.65  OA
ATOM     32 OXT  LEU C   5      18.804  -3.570  17.258  1.00 24.51 LIG-0.65  OA
ENDBRANCH 29 30
BRANCH 29 33
ATOM     33  CB  LEU C   5      18.128  -0.903  16.853  1.00 23.93 LIG 0.04  C 
BRANCH 33 34
ATOM     34  CG  LEU C   5      17.042   0.191  16.951  1.00 26.81 LIG-0.02  C 
ATOM     35  CD1 LEU C   5      16.255   0.073  18.262  1.00 29.09 LIG 0.01  C 
ATOM     36  CD2 LEU C   5      17.619   1.586  16.820  1.00 28.70 LIG 0.01  C 
ENDBRANCH 33 34
ENDBRANCH 29 33
ENDBRANCH 26 29
ENDBRANCH 24 25
BRANCH 24 37
ATOM     37  CB  ILE C   4      22.715   0.117  18.757  1.00 24.66 LIG 0.01  C 
ATOM     38  CG2 ILE C   4      23.245   0.134  17.316  1.00 24.52 LIG 0.01  C 
BRANCH 37 39
ATOM     39  CG1 ILE C   4      23.851   0.251  19.778  1.00 25.15 LIG 0.00  C 
ATOM     40  CD1 ILE C   4      25.132   0.821  19.227  1.00 24.74 LIG 0.01  C 
ENDBRANCH 37 39
ENDBRANCH 24 37
ENDBRANCH 22 24
ENDBRANCH 1 20
BRANCH 1 41
ATOM     41  CB  LYS C   3      24.340   3.265  21.875  1.00 27.76 LIG 0.04  C 
BRANCH 41 42
ATOM     42  CG  LYS C   3      25.170   4.281  22.599  1.00 29.79 LIG 0.00  C 
BRANCH 42 43
ATOM     43  CD  LYS C   3      24.318   5.130  23.494  1.00 31.63 LIG 0.03  C 
BRANCH 43 44
ATOM     44  CE  LYS C   3      24.762   6.582  23.447  1.00 35.23 LIG 0.23  C 
BRANCH 44 45
ATOM     45  NZ  LYS C   3      24.779   7.120  22.061  1.00 39.07 LIG-0.08  N 
ATOM     46 HZ3  LYS C   3      24.432   7.940  22.056  1.00 39.07 LIG 0.27  HD
ATOM     47 HZ2  LYS C   3      24.297   6.591  21.531  1.00 39.07 LIG 0.27  HD
ATOM     48 HZ1  LYS C   3      25.618   7.152  21.765  1.00 39.07 LIG 0.27  HD
ENDBRANCH 44 45
ENDBRANCH 43 44
ENDBRANCH 42 43
ENDBRANCH 41 42
ENDBRANCH 1 41
TORSDOF 20
ENDMDL
MODEL 5
USER: ADFR SOLUTION from run 86
USER: SCORE 16.933755 LL:  -2.392 LR: -16.529 RR:   0.000 FEB: -10.563
USER: RMSD 2.939852
USER: SEED 85
USER: STATUS no improvement in best in 8 clusters for 5 generations
USER: GENES 22
USER: genes 0 Translation |==|  0.59163 0.53649 0.50137
USER: genes 1 Rotation |==|  0.51241 0.62761 0.52427 0.98267
USER: genes 2 Torsion [C]-CA--N-[C] |==|  0.69060
USER: genes 3 Torsion [N]-C--CA-[N] |==|  0.74551
USER: genes 4 Torsion [C]-CA--CB-[CG] |==|  0.17114
USER: genes 5 Torsion [CA]-CB--CG-[CD] |==|  0.37052
USER: genes 6 Torsion [CB]-CG--CD-[NE] |==|  0.40639
USER: genes 7 Torsion [CG]-CD--NE-[CZ] |==|  0.36199
USER: genes 8 Torsion [N]-CA--C-[N] |==|  0.93205
USER: genes 9 Torsion [C]-N--CA-[CB] |==|  0.30296
USER: genes 10 Torsion [N]-CA--C-[N] |==|  0.57912
USER: genes 11 Torsion [C]-N--CA-[C] |==|  0.59490
USER: genes 12 Torsion [N]-CA--C-[O] |==|  0.13735
USER: genes 13 Torsion [N]-CA--CB-[CG] |==|  0.72483
USER: genes 14 Torsion [CA]-CB--CG-[CD1] |==|  0.90759
USER: genes 15 Torsion [N]-CA--CB-[CG2] |==|  0.64266
USER: genes 16 Torsion [CA]-CB--CG1-[CD1] |==|  0.68440
USER: genes 17 Torsion [N]-CA--CB-[CG] |==|  0.99342
USER: genes 18 Torsion [CA]-CB--CG-[CD] |==|  0.68591
USER: genes 19 Torsion [CB]-CG--CD-[CE] |==|  0.11925
USER: genes 20 Torsion [CG]-CD--CE-[NZ] |==|  0.73053
USER: genes 21 Torsion [CD]-CE--NZ-[HZ2] |==|  0.57866
ROOT
ATOM      1  CA  LYS C   3      22.547   4.136  21.340  1.00 27.41 LIG 0.18  C 
ENDROOT
BRANCH 1 2
ATOM      2  N   LYS C   3      21.906   3.698  22.592  1.00 28.91 LIG-0.35  N 
ATOM      3  C   ARG C   2      21.007   4.478  23.186  1.00 30.62 LIG 0.26  C 
ATOM      4 O    ARG C   2      20.546   5.471  22.619  1.00 31.16 LIG-0.27  OA
ATOM      5 H    LYS C   3      22.158   2.930  22.883  1.00 28.91 LIG 0.16  HD
BRANCH 3 6
ATOM      6  CA  ARG C   2      20.532   4.150  24.617  1.00 31.50 LIG 0.40  C 
ATOM      7  N   ARG C   2      19.328   3.288  24.580  1.00 33.48 LIG 0.61  N 
BRANCH 6 8
ATOM      8  CB  ARG C   2      21.609   3.534  25.513  1.00 31.91 LIG 0.05  C 
BRANCH 8 9
ATOM      9  CG  ARG C   2      22.833   4.416  25.767  1.00 31.74 LIG 0.02  C 
BRANCH 9 10
ATOM     10  CD  ARG C   2      23.207   4.439  27.243  1.00 33.46 LIG 0.14  C 
BRANCH 10 11
ATOM     11  NE  ARG C   2      24.651   4.545  27.503  1.00 33.35 LIG-0.23  N 
ATOM     12  CZ  ARG C   2      25.233   5.410  28.331  1.00 33.45 LIG 0.67  C 
ATOM     13  NH1 ARG C   2      24.512   6.265  29.033  1.00 31.52 LIG-0.23  N 
ATOM     14  NH2 ARG C   2      26.558   5.410  28.470  1.00 34.66 LIG-0.23  N 
ATOM     15 1HH1 ARG C   2      23.656   6.268  28.958  1.00 31.52 LIG 0.17  HD
ATOM     16 2HH1 ARG C   2      24.900   6.819  29.564  1.00 31.52 LIG 0.17  HD
ATOM     17 1HH2 ARG C   2      27.038   4.852  28.025  1.00 34.66 LIG 0.17  HD
ATOM     18 2HH2 ARG C   2      26.934   5.969  29.005  1.00 34.66 LIG 0.17  HD
ATOM     19 HE   ARG C   2      25.165   3.999  27.083  1.00 33.35 LIG 0.18  HD
ENDBRANCH 10 11
ENDBRANCH 9 10
ENDBRANCH 8 9
ENDBRANCH 6 8
ENDBRANCH 3 6
ENDBRANCH 1 2
BRANCH 1 20
ATOM     20  C   LYS C   3      22.187   3.364  20.075  1.00 25.28 LIG 0.24  C 
ATOM     21 O    LYS C   3      22.329   3.911  18.997  1.00 21.80 LIG-0.27  OA
ATOM     22  N   ILE C   4      21.759   2.114  20.191  1.00 24.70 LIG-0.35  N 
ATOM     23 H    ILE C   4      21.570   1.730  20.937  1.00 24.70 LIG 0.16  HD
BRANCH 22 24
ATOM     24  CA  ILE C   4      21.573   1.277  19.004  1.00 24.27 LIG 0.18  C 
BRANCH 24 25
ATOM     25  C   ILE C   4      20.171   0.659  18.913  1.00 24.50 LIG 0.24  C 
ATOM     26  N   LEU C   5      20.089  -0.505  18.269  1.00 23.50 LIG-0.34  N 
ATOM     27 H    LEU C   5      20.759  -0.875  17.878  1.00 23.50 LIG 0.16  HD
ATOM     28 O    ILE C   4      19.198   1.214  19.433  1.00 23.85 LIG-0.27  OA
BRANCH 26 29
ATOM     29  CA  LEU C   5      18.849  -1.269  18.165  1.00 24.14 LIG 0.18  C 
BRANCH 29 30
ATOM     30  C   LEU C   5      19.166  -2.769  18.181  1.00 24.32 LIG 0.20  C 
ATOM     31 O    LEU C   5      19.910  -3.225  19.061  1.00 24.96 LIG-0.65  OA
ATOM     32 OXT  LEU C   5      18.678  -3.564  17.367  1.00 24.51 LIG-0.65  OA
ENDBRANCH 29 30
BRANCH 29 33
ATOM     33  CB  LEU C   5      18.100  -0.878  16.886  1.00 23.93 LIG 0.04  C 
BRANCH 33 34
ATOM     34  CG  LEU C   5      16.935   0.131  16.984  1.00 26.81 LIG-0.02  C 
ATOM     35  CD1 LEU C   5      16.185  -0.017  18.313  1.00 29.09 LIG 0.01  C 
ATOM     36  CD2 LEU C   5      17.401   1.563  16.811  1.00 28.70 LIG 0.01  C 
ENDBRANCH 33 34
ENDBRANCH 29 33
ENDBRANCH 26 29
ENDBRANCH 24 25
BRANCH 24 37
ATOM     37  CB  ILE C   4      22.631   0.170  18.908  1.00 24.66 LIG 0.01  C 
ATOM     38  CG2 ILE C   4      23.294   0.176  17.524  1.00 24.52 LIG 0.01  C 
BRANCH 37 39
ATOM     39  CG1 ILE C   4      23.666   0.297  20.031  1.00 25.15 LIG 0.00  C 
ATOM     40  CD1 ILE C   4      25.059   0.643  19.571  1.00 24.74 LIG 0.01  C 
ENDBRANCH 37 39
ENDBRANCH 24 37
ENDBRANCH 22 24
ENDBRANCH 1 20
BRANCH 1 41
ATOM     41  CB  LYS C   3      24.064   4.232  21.440  1.00 27.76 LIG 0.04  C 
BRANCH 41 42
ATOM     42  CG  LYS C   3      24.585   3.916  22.808  1.00 29.79 LIG 0.00  C 
BRANCH 42 43
ATOM     43  CD  LYS C   3      25.185   5.133  23.448  1.00 31.63 LIG 0.03  C 
BRANCH 43 44
ATOM     44  CE  LYS C   3      24.312   6.354  23.212  1.00 35.23 LIG 0.23  C 
BRANCH 44 45
ATOM     45  NZ  LYS C   3      24.784   7.168  22.061  1.00 39.07 LIG-0.08  N 
ATOM     46 HZ3  LYS C   3      25.670   7.106  21.995  1.00 39.07 LIG 0.27  HD
ATOM     47 HZ2  LYS C   3      24.555   8.019  22.186  1.00 39.07 LIG 0.27  HD
ATOM     48 HZ1  LYS C   3      24.410   6.867  21.311  1.00 39.07 LIG 0.27  HD
ENDBRANCH 44 45
ENDBRANCH 43 44
ENDBRANCH 42 43
ENDBRANCH 41 42
ENDBRANCH 1 41
TORSDOF 20
ENDMDL
MODEL 6
USER: ADFR SOLUTION from run 143
USER: SCORE 18.008224 LL:  -2.370 LR: -16.503 RR:   0.000 FEB: -10.537
USER: RMSD 4.048612
USER: SEED 142
USER: STATUS no improvement in best in 4 clusters for 5 generations
USER: GENES 22
USER: genes 0 Translation |==|  0.59675 0.52152 0.51352
USER: genes 1 Rotation |==|  0.54718 0.47835 0.48638 0.99711
USER: genes 2 Torsion [C]-CA--N-[C] |==|  0.76217
USER: genes 3 Torsion [N]-C--CA-[N] |==|  0.37890
USER: genes 4 Torsion [C]-CA--CB-[CG] |==|  0.98599
USER: genes 5 Torsion [CA]-CB--CG-[CD] |==|  0.77811
USER: genes 6 Torsion [CB]-CG--CD-[NE] |==|  0.49625
USER: genes 7 Torsion [CG]-CD--NE-[CZ] |==|  0.22295
USER: genes 8 Torsion [N]-CA--C-[N] |==|  0.90230
USER: genes 9 Torsion [C]-N--CA-[CB] |==|  0.24706
USER: genes 10 Torsion [N]-CA--C-[N] |==|  0.96111
USER: genes 11 Torsion [C]-N--CA-[C] |==|  0.24340
USER: genes 12 Torsion [N]-CA--C-[O] |==|  0.97344
USER: genes 13 Torsion [N]-CA--CB-[CG] |==|  0.53188
USER: genes 14 Torsion [CA]-CB--CG-[CD1] |==|  0.72208
USER: genes 15 Torsion [N]-CA--CB-[CG2] |==|  0.37093
USER: genes 16 Torsion [CA]-CB--CG1-[CD1] |==|  0.23126
USER: genes 17 Torsion [N]-CA--CB-[CG] |==|  0.85285
USER: genes 18 Torsion [CA]-CB--CG-[CD] |==|  0.66840
USER: genes 19 Torsion [CB]-CG--CD-[CE] |==|  0.24042
USER: genes 20 Torsion [CG]-CD--CE-[NZ] |==|  0.73333
USER: genes 21 Torsion [CD]-CE--NZ-[HZ2] |==|  0.73428
ROOT
ATOM      1  CA  LYS C   3      22.631   3.889  21.595  1.00 27.41 LIG 0.18  C 
ENDROOT
BRANCH 1 2
ATOM      2  N   LYS C   3      21.338   3.534  22.204  1.00 28.91 LIG-0.35  N 
ATOM      3  C   ARG C   2      20.248   4.236  21.906  1.00 30.62 LIG 0.26  C 
ATOM      4 O    ARG C   2      20.245   5.053  20.984  1.00 31.16 LIG-0.27  OA
ATOM      5 H    LYS C   3      21.359   2.864  22.743  1.00 28.91 LIG 0.16  HD
BRANCH 3 6
ATOM      6  CA  ARG C   2      18.959   4.039  22.732  1.00 31.50 LIG 0.40  C 
ATOM      7  N   ARG C   2      18.337   5.347  23.043  1.00 33.48 LIG 0.61  N 
BRANCH 6 8
ATOM      8  CB  ARG C   2      17.938   3.094  22.093  1.00 31.91 LIG 0.05  C 
BRANCH 8 9
ATOM      9  CG  ARG C   2      18.296   2.592  20.693  1.00 31.74 LIG 0.02  C 
BRANCH 9 10
ATOM     10  CD  ARG C   2      17.978   3.634  19.629  1.00 33.46 LIG 0.14  C 
BRANCH 10 11
ATOM     11  NE  ARG C   2      18.327   3.230  18.258  1.00 33.35 LIG-0.23  N 
ATOM     12  CZ  ARG C   2      17.605   2.434  17.472  1.00 33.45 LIG 0.67  C 
ATOM     13  NH1 ARG C   2      16.449   1.945  17.883  1.00 31.52 LIG-0.23  N 
ATOM     14  NH2 ARG C   2      18.038   2.134  16.249  1.00 34.66 LIG-0.23  N 
ATOM     15 1HH1 ARG C   2      16.154   2.139  18.667  1.00 31.52 LIG 0.17  HD
ATOM     16 2HH1 ARG C   2      15.991   1.432  17.366  1.00 31.52 LIG 0.17  HD
ATOM     17 1HH2 ARG C   2      18.785   2.454  15.967  1.00 34.66 LIG 0.17  HD
ATOM     18 2HH2 ARG C   2      17.571   1.621  15.741  1.00 34.66 LIG 0.17  HD
ATOM     19 HE   ARG C   2      19.063   3.534  17.936  1.00 33.35 LIG 0.18  HD
ENDBRANCH 10 11
ENDBRANCH 9 10
ENDBRANCH 8 9
ENDBRANCH 6 8
ENDBRANCH 3 6
ENDBRANCH 1 2
BRANCH 1 20
ATOM     20  C   LYS C   3      22.934   3.294  20.224  1.00 25.28 LIG 0.24  C 
ATOM     21 O    LYS C   3      23.582   3.953  19.432  1.00 21.80 LIG-0.27  OA
ATOM     22  N   ILE C   4      22.504   2.069  19.951  1.00 24.70 LIG-0.35  N 
ATOM     23 H    ILE C   4      21.976   1.614  20.455  1.00 24.70 LIG 0.16  HD
BRANCH 22 24
ATOM     24  CA  ILE C   4      22.921   1.389  18.723  1.00 24.27 LIG 0.18  C 
BRANCH 24 25
ATOM     25  C   ILE C   4      21.837   0.469  18.145  1.00 24.50 LIG 0.24  C 
ATOM     26  N   LEU C   5      20.817   0.190  18.957  1.00 23.50 LIG-0.34  N 
ATOM     27 H    LEU C   5      20.779   0.455  19.774  1.00 23.50 LIG 0.16  HD
ATOM     28 O    ILE C   4      21.914   0.046  16.988  1.00 23.85 LIG-0.27  OA
BRANCH 26 29
ATOM     29  CA  LEU C   5      19.661  -0.598  18.539  1.00 24.14 LIG 0.18  C 
BRANCH 29 30
ATOM     30  C   LEU C   5      19.945  -2.088  18.760  1.00 24.32 LIG 0.20  C 
ATOM     31 O    LEU C   5      21.091  -2.451  19.061  1.00 24.96 LIG-0.65  OA
ATOM     32 OXT  LEU C   5      19.064  -2.955  18.686  1.00 24.51 LIG-0.65  OA
ENDBRANCH 29 30
BRANCH 29 33
ATOM     33  CB  LEU C   5      19.339  -0.312  17.067  1.00 23.93 LIG 0.04  C 
BRANCH 33 34
ATOM     34  CG  LEU C   5      18.003  -0.823  16.485  1.00 26.81 LIG-0.02  C 
ATOM     35  CD1 LEU C   5      18.207  -2.114  15.683  1.00 29.09 LIG 0.01  C 
ATOM     36  CD2 LEU C   5      16.956  -1.042  17.558  1.00 28.70 LIG 0.01  C 
ENDBRANCH 33 34
ENDBRANCH 29 33
ENDBRANCH 26 29
ENDBRANCH 24 25
BRANCH 24 37
ATOM     37  CB  ILE C   4      24.220   0.597  18.915  1.00 24.66 LIG 0.01  C 
ATOM     38  CG2 ILE C   4      24.089  -0.809  18.314  1.00 24.52 LIG 0.01  C 
BRANCH 37 39
ATOM     39  CG1 ILE C   4      25.418   1.352  18.330  1.00 25.15 LIG 0.00  C 
ATOM     40  CD1 ILE C   4      26.013   2.397  19.238  1.00 24.74 LIG 0.01  C 
ENDBRANCH 37 39
ENDBRANCH 24 37
ENDBRANCH 22 24
ENDBRANCH 1 20
BRANCH 1 41
ATOM     41  CB  LYS C   3      23.821   3.635  22.512  1.00 27.76 LIG 0.04  C 
BRANCH 41 42
ATOM     42  CG  LYS C   3      23.676   4.280  23.856  1.00 29.79 LIG 0.00  C 
BRANCH 42 43
ATOM     43  CD  LYS C   3      24.779   5.267  24.100  1.00 31.63 LIG 0.03  C 
BRANCH 43 44
ATOM     44  CE  LYS C   3      24.419   6.630  23.534  1.00 35.23 LIG 0.23  C 
BRANCH 44 45
ATOM     45  NZ  LYS C   3      24.984   6.843  22.175  1.00 39.07 LIG-0.08  N 
ATOM     46 HZ3  LYS C   3      25.124   6.055  21.785  1.00 39.07 LIG 0.27  HD
ATOM     47 HZ2  LYS C   3      25.754   7.284  22.240  1.00 39.07 LIG 0.27  HD
ATOM     48 HZ1  LYS C   3      24.410   7.317  21.686  1.00 39.07 LIG 0.27  HD
ENDBRANCH 44 45
ENDBRANCH 43 44
ENDBRANCH 42 43
ENDBRANCH 41 42
ENDBRANCH 1 41
TORSDOF 20
ENDMDL
MODEL 7
USER: ADFR SOLUTION from run 173
USER: SCORE 17.297548 LL:  -2.352 LR: -16.461 RR:   0.000 FEB: -10.495
USER: RMSD 4.005189
USER: SEED 172
USER: STATUS no improvement in best in 8 clusters for 5 generations
USER: GENES 22
USER: genes 0 Translation |==|  0.58714 0.55021 0.48391
USER: genes 1 Rotation |==|  0.51183 0.67351 0.54004 0.96707
USER: genes 2 Torsion [C]-CA--N-[C] |==|  0.64332
USER: genes 3 Torsion [N]-C--CA-[N] |==|  0.83686
USER: genes 4 Torsion [C]-CA--CB-[CG] |==|  0.97051
USER: genes 5 Torsion [CA]-CB--CG-[CD] |==|  0.31320
USER: genes 6 Torsion [CB]-CG--CD-[NE] |==|  0.62893
USER: genes 7 Torsion [CG]-CD--NE-[CZ] |==|  0.22954
USER: genes 8 Torsion [N]-CA--C-[N] |==|  0.96234
USER: genes 9 Torsion [C]-N--CA-[CB] |==|  0.25000
USER: genes 10 Torsion [N]-CA--C-[N] |==|  0.52756
USER: genes 11 Torsion [C]-N--CA-[C] |==|  0.64742
USER: genes 12 Torsion [N]-CA--C-[O] |==|  0.66334
USER: genes 13 Torsion [N]-CA--CB-[CG] |==|  0.82214
USER: genes 14 Torsion [CA]-CB--CG-[CD1] |==|  0.88243
USER: genes 15 Torsion [N]-CA--CB-[CG2] |==|  0.25367
USER: genes 16 Torsion [CA]-CB--CG1-[CD1] |==|  0.46292
USER: genes 17 Torsion [N]-CA--CB-[CG] |==|  0.32131
USER: genes 18 Torsion [CA]-CB--CG-[CD] |==|  0.69596
USER: genes 19 Torsion [CB]-CG--CD-[CE] |==|  0.30253
USER: genes 20 Torsion [CG]-CD--CE-[NZ] |==|  0.79310
USER: genes 21 Torsion [CD]-CE--NZ-[HZ2] |==|  0.28099
ROOT
ATOM      1  CA  LYS C   3      22.473   4.363  20.973  1.00 27.41 LIG 0.18  C 
ENDROOT
BRANCH 1 2
ATOM      2  N   LYS C   3      22.114   3.882  22.318  1.00 28.91 LIG-0.35  N 
ATOM      3  C   ARG C   2      21.586   4.722  23.205  1.00 30.62 LIG 0.26  C 
ATOM      4 O    ARG C   2      21.206   5.846  22.875  1.00 31.16 LIG-0.27  OA
ATOM      5 H    LYS C   3      22.271   3.049  22.464  1.00 28.91 LIG 0.16  HD
BRANCH 3 6
ATOM      6  CA  ARG C   2      21.454   4.294  24.682  1.00 31.50 LIG 0.40  C 
ATOM      7  N   ARG C   2      20.626   3.071  24.797  1.00 33.48 LIG 0.61  N 
BRANCH 6 8
ATOM      8  CB  ARG C   2      22.789   4.111  25.408  1.00 31.91 LIG 0.05  C 
BRANCH 8 9
ATOM      9  CG  ARG C   2      24.030   4.127  24.513  1.00 31.74 LIG 0.02  C 
BRANCH 9 10
ATOM     10  CD  ARG C   2      24.894   5.352  24.780  1.00 33.46 LIG 0.14  C 
BRANCH 10 11
ATOM     11  NE  ARG C   2      25.344   6.055  23.569  1.00 33.35 LIG-0.23  N 
ATOM     12  CZ  ARG C   2      24.639   6.947  22.877  1.00 33.45 LIG 0.67  C 
ATOM     13  NH1 ARG C   2      23.428   7.301  23.265  1.00 31.52 LIG-0.23  N 
ATOM     14  NH2 ARG C   2      25.160   7.507  21.786  1.00 34.66 LIG-0.23  N 
ATOM     15 1HH1 ARG C   2      23.085   6.954  23.973  1.00 31.52 LIG 0.17  HD
ATOM     16 2HH1 ARG C   2      22.982   7.878  22.811  1.00 31.52 LIG 0.17  HD
ATOM     17 1HH2 ARG C   2      25.952   7.291  21.528  1.00 34.66 LIG 0.17  HD
ATOM     18 2HH2 ARG C   2      24.704   8.083  21.339  1.00 34.66 LIG 0.17  HD
ATOM     19 HE   ARG C   2      26.134   5.873  23.282  1.00 33.35 LIG 0.18  HD
ENDBRANCH 10 11
ENDBRANCH 9 10
ENDBRANCH 8 9
ENDBRANCH 6 8
ENDBRANCH 3 6
ENDBRANCH 1 2
BRANCH 1 20
ATOM     20  C   LYS C   3      21.932   3.567  19.790  1.00 25.28 LIG 0.24  C 
ATOM     21 O    LYS C   3      22.014   4.050  18.676  1.00 21.80 LIG-0.27  OA
ATOM     22  N   ILE C   4      21.416   2.365  20.012  1.00 24.70 LIG-0.35  N 
ATOM     23 H    ILE C   4      21.269   2.034  20.792  1.00 24.70 LIG 0.16  HD
BRANCH 22 24
ATOM     24  CA  ILE C   4      21.050   1.494  18.893  1.00 24.27 LIG 0.18  C 
BRANCH 24 25
ATOM     25  C   ILE C   4      19.809   0.636  19.177  1.00 24.50 LIG 0.24  C 
ATOM     26  N   LEU C   5      19.548  -0.320  18.286  1.00 23.50 LIG-0.34  N 
ATOM     27 H    LEU C   5      20.003  -0.430  17.565  1.00 23.50 LIG 0.16  HD
ATOM     28 O    ILE C   4      19.124   0.824  20.186  1.00 23.85 LIG-0.27  OA
BRANCH 26 29
ATOM     29  CA  LEU C   5      18.458  -1.279  18.447  1.00 24.14 LIG 0.18  C 
BRANCH 29 30
ATOM     30  C   LEU C   5      19.003  -2.706  18.310  1.00 24.32 LIG 0.20  C 
ATOM     31 O    LEU C   5      18.547  -3.449  17.429  1.00 24.96 LIG-0.65  OA
ATOM     32 OXT  LEU C   5      19.913  -3.145  19.024  1.00 24.51 LIG-0.65  OA
ENDBRANCH 29 30
BRANCH 29 33
ATOM     33  CB  LEU C   5      17.364  -1.005  17.408  1.00 23.93 LIG 0.04  C 
BRANCH 33 34
ATOM     34  CG  LEU C   5      16.600   0.335  17.468  1.00 26.81 LIG-0.02  C 
ATOM     35  CD1 LEU C   5      16.245   0.707  18.912  1.00 29.09 LIG 0.01  C 
ATOM     36  CD2 LEU C   5      17.374   1.466  16.819  1.00 28.70 LIG 0.01  C 
ENDBRANCH 33 34
ENDBRANCH 29 33
ENDBRANCH 26 29
ENDBRANCH 24 25
BRANCH 24 37
ATOM     37  CB  ILE C   4      22.212   0.591  18.461  1.00 24.66 LIG 0.01  C 
ATOM     38  CG2 ILE C   4      22.166  -0.746  19.213  1.00 24.52 LIG 0.01  C 
BRANCH 37 39
ATOM     39  CG1 ILE C   4      22.217   0.385  16.943  1.00 25.15 LIG 0.00  C 
ATOM     40  CD1 ILE C   4      23.483  -0.216  16.389  1.00 24.74 LIG 0.01  C 
ENDBRANCH 37 39
ENDBRANCH 24 37
ENDBRANCH 22 24
ENDBRANCH 1 20
BRANCH 1 41
ATOM     41  CB  LYS C   3      23.971   4.564  20.784  1.00 27.76 LIG 0.04  C 
BRANCH 41 42
ATOM     42  CG  LYS C   3      24.564   3.646  19.759  1.00 29.79 LIG 0.00  C 
BRANCH 42 43
ATOM     43  CD  LYS C   3      25.435   2.611  20.405  1.00 31.63 LIG 0.03  C 
BRANCH 43 44
ATOM     44  CE  LYS C   3      24.783   1.240  20.345  1.00 35.23 LIG 0.23  C 
BRANCH 44 45
ATOM     45  NZ  LYS C   3      23.661   1.108  21.312  1.00 39.07 LIG-0.08  N 
ATOM     46 HZ3  LYS C   3      23.691   0.304  21.694  1.00 39.07 LIG 0.27  HD
ATOM     47 HZ2  LYS C   3      22.887   1.204  20.883  1.00 39.07 LIG 0.27  HD
ATOM     48 HZ1  LYS C   3      23.734   1.736  21.939  1.00 39.07 LIG 0.27  HD
ENDBRANCH 44 45
ENDBRANCH 43 44
ENDBRANCH 42 43
ENDBRANCH 41 42
ENDBRANCH 1 41
TORSDOF 20
ENDMDL
MODEL 8
USER: ADFR SOLUTION from run 61
USER: SCORE 18.326256 LL:  -2.525 LR: -16.407 RR:   0.000 FEB: -10.441
USER: RMSD 4.615721
USER: SEED 60
USER: STATUS no improvement in best in 6 clusters for 5 generations
USER: GENES 22
USER: genes 0 Translation |==|  0.56481 0.49978 0.43447
USER: genes 1 Rotation |==|  0.44293 0.36360 0.36739 0.95886
USER: genes 2 Torsion [C]-CA--N-[C] |==|  0.73731
USER: genes 3 Torsion [N]-C--CA-[N] |==|  0.56071
USER: genes 4 Torsion [C]-CA--CB-[CG] |==|  0.74016
USER: genes 5 Torsion [CA]-CB--CG-[CD] |==|  0.29721
USER: genes 6 Torsion [CB]-CG--CD-[NE] |==|  0.74508
USER: genes 7 Torsion [CG]-CD--NE-[CZ] |==|  0.66771
USER: genes 8 Torsion [N]-CA--C-[N] |==|  0.85438
USER: genes 9 Torsion [C]-N--CA-[CB] |==|  0.17137
USER: genes 10 Torsion [N]-CA--C-[N] |==|  0.14157
USER: genes 11 Torsion [C]-N--CA-[C] |==|  0.79883
USER: genes 12 Torsion [N]-CA--C-[O] |==|  0.23769
USER: genes 13 Torsion [N]-CA--CB-[CG] |==|  0.75865
USER: genes 14 Torsion [CA]-CB--CG-[CD1] |==|  0.14960
USER: genes 15 Torsion [N]-CA--CB-[CG2] |==|  0.71097
USER: genes 16 Torsion [CA]-CB--CG1-[CD1] |==|  0.66530
USER: genes 17 Torsion [N]-CA--CB-[CG] |==|  0.64878
USER: genes 18 Torsion [CA]-CB--CG-[CD] |==|  0.42770
USER: genes 19 Torsion [CB]-CG--CD-[CE] |==|  0.65132
USER: genes 20 Torsion [CG]-CD--CE-[NZ] |==|  0.96574
USER: genes 21 Torsion [CD]-CE--NZ-[HZ2] |==|  0.62048
ROOT
ATOM      1  CA  LYS C   3      22.104   3.530  19.935  1.00 27.41 LIG 0.18  C 
ENDROOT
BRANCH 1 2
ATOM      2  N   LYS C   3      20.737   4.079  19.915  1.00 28.91 LIG-0.35  N 
ATOM      3  C   ARG C   2      20.430   5.068  19.080  1.00 30.62 LIG 0.26  C 
ATOM      4 O    ARG C   2      21.201   5.409  18.181  1.00 31.16 LIG-0.27  OA
ATOM      5 H    LYS C   3      20.189   3.716  20.469  1.00 28.91 LIG 0.16  HD
BRANCH 3 6
ATOM      6  CA  ARG C   2      19.090   5.816  19.237  1.00 31.50 LIG 0.40  C 
ATOM      7  N   ARG C   2      18.710   6.474  17.965  1.00 33.48 LIG 0.61  N 
BRANCH 6 8
ATOM      8  CB  ARG C   2      17.941   4.951  19.761  1.00 31.91 LIG 0.05  C 
BRANCH 8 9
ATOM      9  CG  ARG C   2      17.058   4.314  18.686  1.00 31.74 LIG 0.02  C 
BRANCH 9 10
ATOM     10  CD  ARG C   2      17.315   2.817  18.569  1.00 33.46 LIG 0.14  C 
BRANCH 10 11
ATOM     11  NE  ARG C   2      18.337   2.452  17.575  1.00 33.35 LIG-0.23  N 
ATOM     12  CZ  ARG C   2      18.145   1.681  16.507  1.00 33.45 LIG 0.67  C 
ATOM     13  NH1 ARG C   2      16.953   1.181  16.238  1.00 31.52 LIG-0.23  N 
ATOM     14  NH2 ARG C   2      19.160   1.416  15.686  1.00 34.66 LIG-0.23  N 
ATOM     15 1HH1 ARG C   2      16.288   1.353  16.755  1.00 31.52 LIG 0.17  HD
ATOM     16 2HH1 ARG C   2      16.841   0.684  15.545  1.00 31.52 LIG 0.17  HD
ATOM     17 1HH2 ARG C   2      19.940   1.743  15.846  1.00 34.66 LIG 0.17  HD
ATOM     18 2HH2 ARG C   2      19.037   0.917  14.996  1.00 34.66 LIG 0.17  HD
ATOM     19 HE   ARG C   2      19.129   2.765  17.695  1.00 33.35 LIG 0.18  HD
ENDBRANCH 10 11
ENDBRANCH 9 10
ENDBRANCH 8 9
ENDBRANCH 6 8
ENDBRANCH 3 6
ENDBRANCH 1 2
BRANCH 1 20
ATOM     20  C   LYS C   3      22.364   2.296  19.077  1.00 25.28 LIG 0.24  C 
ATOM     21 O    LYS C   3      23.309   2.307  18.311  1.00 21.80 LIG-0.27  OA
ATOM     22  N   ILE C   4      21.568   1.244  19.217  1.00 24.70 LIG-0.35  N 
ATOM     23 H    ILE C   4      20.847   1.237  19.686  1.00 24.70 LIG 0.16  HD
BRANCH 22 24
ATOM     24  CA  ILE C   4      21.883  -0.022  18.551  1.00 24.27 LIG 0.18  C 
BRANCH 24 25
ATOM     25  C   ILE C   4      20.775  -1.074  18.700  1.00 24.50 LIG 0.24  C 
ATOM     26  N   LEU C   5      19.545  -0.672  18.380  1.00 23.50 LIG-0.34  N 
ATOM     27 H    LEU C   5      19.357   0.135  18.153  1.00 23.50 LIG 0.16  HD
ATOM     28 O    ILE C   4      21.036  -2.222  19.072  1.00 23.85 LIG-0.27  OA
BRANCH 26 29
ATOM     29  CA  LEU C   5      18.392  -1.568  18.382  1.00 24.14 LIG 0.18  C 
BRANCH 29 30
ATOM     30  C   LEU C   5      18.482  -2.527  17.189  1.00 24.32 LIG 0.20  C 
ATOM     31 O    LEU C   5      19.135  -3.574  17.298  1.00 24.96 LIG-0.65  OA
ATOM     32 OXT  LEU C   5      17.895  -2.320  16.119  1.00 24.51 LIG-0.65  OA
ENDBRANCH 29 30
BRANCH 29 33
ATOM     33  CB  LEU C   5      17.096  -0.750  18.334  1.00 23.93 LIG 0.04  C 
BRANCH 33 34
ATOM     34  CG  LEU C   5      16.480  -0.254  19.661  1.00 26.81 LIG-0.02  C 
ATOM     35  CD1 LEU C   5      17.504   0.533  20.487  1.00 29.09 LIG 0.01  C 
ATOM     36  CD2 LEU C   5      15.240   0.589  19.437  1.00 28.70 LIG 0.01  C 
ENDBRANCH 33 34
ENDBRANCH 29 33
ENDBRANCH 26 29
ENDBRANCH 24 25
BRANCH 24 37
ATOM     37  CB  ILE C   4      23.218  -0.607  19.027  1.00 24.66 LIG 0.01  C 
ATOM     38  CG2 ILE C   4      24.310  -0.388  17.970  1.00 24.52 LIG 0.01  C 
BRANCH 37 39
ATOM     39  CG1 ILE C   4      23.623  -0.026  20.386  1.00 25.15 LIG 0.00  C 
ATOM     40  CD1 ILE C   4      24.943   0.701  20.396  1.00 24.74 LIG 0.01  C 
ENDBRANCH 37 39
ENDBRANCH 24 37
ENDBRANCH 22 24
ENDBRANCH 1 20
BRANCH 1 41
ATOM     41  CB  LYS C   3      22.630   3.269  21.341  1.00 27.76 LIG 0.04  C 
BRANCH 41 42
ATOM     42  CG  LYS C   3      23.951   3.925  21.607  1.00 29.79 LIG 0.00  C 
BRANCH 42 43
ATOM     43  CD  LYS C   3      24.132   4.192  23.071  1.00 31.63 LIG 0.03  C 
BRANCH 43 44
ATOM     44  CE  LYS C   3      24.448   5.657  23.319  1.00 35.23 LIG 0.23  C 
BRANCH 44 45
ATOM     45  NZ  LYS C   3      24.785   6.380  22.064  1.00 39.07 LIG-0.08  N 
ATOM     46 HZ3  LYS C   3      24.978   5.791  21.425  1.00 39.07 LIG 0.27  HD
ATOM     47 HZ2  LYS C   3      25.489   6.906  22.205  1.00 39.07 LIG 0.27  HD
ATOM     48 HZ1  LYS C   3      24.090   6.875  21.811  1.00 39.07 LIG 0.27  HD
ENDBRANCH 44 45
ENDBRANCH 43 44
ENDBRANCH 42 43
ENDBRANCH 41 42
ENDBRANCH 1 41
TORSDOF 20
ENDMDL
MODEL 9
USER: ADFR SOLUTION from run 30
USER: SCORE 17.369606 LL:  -2.162 LR: -16.149 RR:   0.000 FEB: -10.183
USER: RMSD 4.319115
USER: SEED 29
USER: STATUS no improvement in best in 7 clusters for 5 generations
USER: GENES 22
USER: genes 0 Translation |==|  0.62864 0.54273 0.46451
USER: genes 1 Rotation |==|  0.48638 0.36456 0.37552 0.96473
USER: genes 2 Torsion [C]-CA--N-[C] |==|  0.86648
USER: genes 3 Torsion [N]-C--CA-[N] |==|  0.44702
USER: genes 4 Torsion [C]-CA--CB-[CG] |==|  0.70648
USER: genes 5 Torsion [CA]-CB--CG-[CD] |==|  0.34104
USER: genes 6 Torsion [CB]-CG--CD-[NE] |==|  0.33116
USER: genes 7 Torsion [CG]-CD--NE-[CZ] |==|  0.63121
USER: genes 8 Torsion [N]-CA--C-[N] |==|  0.89262
USER: genes 9 Torsion [C]-N--CA-[CB] |==|  0.20065
USER: genes 10 Torsion [N]-CA--C-[N] |==|  0.90000
USER: genes 11 Torsion [C]-N--CA-[C] |==|  0.23721
USER: genes 12 Torsion [N]-CA--C-[O] |==|  0.96941
USER: genes 13 Torsion [N]-CA--CB-[CG] |==|  0.52583
USER: genes 14 Torsion [CA]-CB--CG-[CD1] |==|  0.70676
USER: genes 15 Torsion [N]-CA--CB-[CG2] |==|  0.76960
USER: genes 16 Torsion [CA]-CB--CG1-[CD1] |==|  0.72697
USER: genes 17 Torsion [N]-CA--CB-[CG] |==|  0.67433
USER: genes 18 Torsion [CA]-CB--CG-[CD] |==|  0.32053
USER: genes 19 Torsion [CB]-CG--CD-[CE] |==|  0.68742
USER: genes 20 Torsion [CG]-CD--CE-[NZ] |==|  0.98169
USER: genes 21 Torsion [CD]-CE--NZ-[HZ2] |==|  0.81842
ROOT
ATOM      1  CA  LYS C   3      23.158   4.239  20.566  1.00 27.41 LIG 0.18  C 
ENDROOT
BRANCH 1 2
ATOM      2  N   LYS C   3      21.750   4.673  20.577  1.00 28.91 LIG-0.35  N 
ATOM      3  C   ARG C   2      21.146   4.998  19.438  1.00 30.62 LIG 0.26  C 
ATOM      4 O    ARG C   2      21.666   4.761  18.346  1.00 31.16 LIG-0.27  OA
ATOM      5 H    LYS C   3      21.379   4.693  21.353  1.00 28.91 LIG 0.16  HD
BRANCH 3 6
ATOM      6  CA  ARG C   2      19.770   5.697  19.471  1.00 31.50 LIG 0.40  C 
ATOM      7  N   ARG C   2      19.496   6.365  18.178  1.00 33.48 LIG 0.61  N 
BRANCH 6 8
ATOM      8  CB  ARG C   2      18.607   4.783  19.863  1.00 31.91 LIG 0.05  C 
BRANCH 8 9
ATOM      9  CG  ARG C   2      17.684   4.369  18.716  1.00 31.74 LIG 0.02  C 
BRANCH 9 10
ATOM     10  CD  ARG C   2      17.604   2.853  18.585  1.00 33.46 LIG 0.14  C 
BRANCH 10 11
ATOM     11  NE  ARG C   2      16.253   2.298  18.764  1.00 33.35 LIG-0.23  N 
ATOM     12  CZ  ARG C   2      15.933   1.255  19.526  1.00 33.45 LIG 0.67  C 
ATOM     13  NH1 ARG C   2      16.855   0.625  20.232  1.00 31.52 LIG-0.23  N 
ATOM     14  NH2 ARG C   2      14.668   0.843  19.595  1.00 34.66 LIG-0.23  N 
ATOM     15 1HH1 ARG C   2      17.673   0.888  20.203  1.00 31.52 LIG 0.17  HD
ATOM     16 2HH1 ARG C   2      16.636  -0.048  20.721  1.00 31.52 LIG 0.17  HD
ATOM     17 1HH2 ARG C   2      14.058   1.250  19.147  1.00 34.66 LIG 0.17  HD
ATOM     18 2HH2 ARG C   2      14.462   0.168  20.088  1.00 34.66 LIG 0.17  HD
ATOM     19 HE   ARG C   2      15.612   2.682  18.338  1.00 33.35 LIG 0.18  HD
ENDBRANCH 10 11
ENDBRANCH 9 10
ENDBRANCH 8 9
ENDBRANCH 6 8
ENDBRANCH 3 6
ENDBRANCH 1 2
BRANCH 1 20
ATOM     20  C   LYS C   3      23.544   3.178  19.541  1.00 25.28 LIG 0.24  C 
ATOM     21 O    LYS C   3      24.632   3.255  19.003  1.00 21.80 LIG-0.27  OA
ATOM     22  N   ILE C   4      22.691   2.192  19.292  1.00 24.70 LIG-0.35  N 
ATOM     23 H    ILE C   4      21.886   2.156  19.592  1.00 24.70 LIG 0.16  HD
BRANCH 22 24
ATOM     24  CA  ILE C   4      23.088   1.058  18.455  1.00 24.27 LIG 0.18  C 
BRANCH 24 25
ATOM     25  C   ILE C   4      21.895   0.241  17.939  1.00 24.50 LIG 0.24  C 
ATOM     26  N   LEU C   5      20.868   0.119  18.780  1.00 23.50 LIG-0.34  N 
ATOM     27 H    LEU C   5      20.877   0.425  19.583  1.00 23.50 LIG 0.16  HD
ATOM     28 O    ILE C   4      21.899  -0.242  16.804  1.00 23.85 LIG-0.27  OA
BRANCH 26 29
ATOM     29  CA  LEU C   5      19.622  -0.551  18.419  1.00 24.14 LIG 0.18  C 
BRANCH 29 30
ATOM     30  C   LEU C   5      19.759  -2.060  18.657  1.00 24.32 LIG 0.20  C 
ATOM     31 O    LEU C   5      20.877  -2.539  18.896  1.00 24.96 LIG-0.65  OA
ATOM     32 OXT  LEU C   5      18.788  -2.828  18.657  1.00 24.51 LIG-0.65  OA
ENDBRANCH 29 30
BRANCH 29 33
ATOM     33  CB  LEU C   5      19.274  -0.254  16.956  1.00 23.93 LIG 0.04  C 
BRANCH 33 34
ATOM     34  CG  LEU C   5      17.890  -0.678  16.419  1.00 26.81 LIG-0.02  C 
ATOM     35  CD1 LEU C   5      18.001  -1.908  15.510  1.00 29.09 LIG 0.01  C 
ATOM     36  CD2 LEU C   5      16.900  -0.949  17.534  1.00 28.70 LIG 0.01  C 
ENDBRANCH 33 34
ENDBRANCH 29 33
ENDBRANCH 26 29
ENDBRANCH 24 25
BRANCH 24 37
ATOM     37  CB  ILE C   4      24.076   0.130  19.172  1.00 24.66 LIG 0.01  C 
ATOM     38  CG2 ILE C   4      25.509   0.669  19.051  1.00 24.52 LIG 0.01  C 
BRANCH 37 39
ATOM     39  CG1 ILE C   4      23.674  -0.080  20.636  1.00 25.15 LIG 0.00  C 
ATOM     40  CD1 ILE C   4      24.410   0.787  21.625  1.00 24.74 LIG 0.01  C 
ENDBRANCH 37 39
ENDBRANCH 24 37
ENDBRANCH 22 24
ENDBRANCH 1 20
BRANCH 1 41
ATOM     41  CB  LYS C   3      23.668   3.806  21.935  1.00 27.76 LIG 0.04  C 
BRANCH 41 42
ATOM     42  CG  LYS C   3      24.785   4.662  22.445  1.00 29.79 LIG 0.00  C 
BRANCH 42 43
ATOM     43  CD  LYS C   3      24.373   5.403  23.682  1.00 31.63 LIG 0.03  C 
BRANCH 43 44
ATOM     44  CE  LYS C   3      24.289   6.896  23.417  1.00 35.23 LIG 0.23  C 
BRANCH 44 45
ATOM     45  NZ  LYS C   3      24.784   7.255  22.061  1.00 39.07 LIG-0.08  N 
ATOM     46 HZ3  LYS C   3      24.346   6.780  21.449  1.00 39.07 LIG 0.27  HD
ATOM     47 HZ2  LYS C   3      25.655   7.079  22.007  1.00 39.07 LIG 0.27  HD
ATOM     48 HZ1  LYS C   3      24.646   8.123  21.915  1.00 39.07 LIG 0.27  HD
ENDBRANCH 44 45
ENDBRANCH 43 44
ENDBRANCH 42 43
ENDBRANCH 41 42
ENDBRANCH 1 41
TORSDOF 20
ENDMDL
MODEL 10
USER: ADFR SOLUTION from run 40
USER: SCORE 16.610842 LL:  -2.453 LR: -16.080 RR:   0.000 FEB: -10.114
USER: RMSD 3.570706
USER: SEED 39
USER: STATUS no improvement in best in 7 clusters for 5 generations
USER: GENES 22
USER: genes 0 Translation |==|  0.45219 0.48569 0.46301
USER: genes 1 Rotation |==|  0.40522 0.67068 0.66544 0.92955
USER: genes 2 Torsion [C]-CA--N-[C] |==|  0.76112
USER: genes 3 Torsion [N]-C--CA-[N] |==|  0.30148
USER: genes 4 Torsion [C]-CA--CB-[CG] |==|  0.58480
USER: genes 5 Torsion [CA]-CB--CG-[CD] |==|  0.57577
USER: genes 6 Torsion [CB]-CG--CD-[NE] |==|  0.88692
USER: genes 7 Torsion [CG]-CD--NE-[CZ] |==|  0.69081
USER: genes 8 Torsion [N]-CA--C-[N] |==|  0.88212
USER: genes 9 Torsion [C]-N--CA-[CB] |==|  0.42016
USER: genes 10 Torsion [N]-CA--C-[N] |==|  0.20832
USER: genes 11 Torsion [C]-N--CA-[C] |==|  0.80658
USER: genes 12 Torsion [N]-CA--C-[O] |==|  0.20000
USER: genes 13 Torsion [N]-CA--CB-[CG] |==|  0.85780
USER: genes 14 Torsion [CA]-CB--CG-[CD1] |==|  0.92215
USER: genes 15 Torsion [N]-CA--CB-[CG2] |==|  0.64046
USER: genes 16 Torsion [CA]-CB--CG1-[CD1] |==|  0.72885
USER: genes 17 Torsion [N]-CA--CB-[CG] |==|  0.00670
USER: genes 18 Torsion [CA]-CB--CG-[CD] |==|  0.33238
USER: genes 19 Torsion [CB]-CG--CD-[CE] |==|  0.47416
USER: genes 20 Torsion [CG]-CD--CE-[NZ] |==|  0.76637
USER: genes 21 Torsion [CD]-CE--NZ-[HZ2] |==|  0.52002
ROOT
ATOM      1  CA  LYS C   3      20.246   3.298  20.534  1.00 27.41 LIG 0.18  C 
ENDROOT
BRANCH 1 2
ATOM      2  N   LYS C   3      20.144   2.988  21.970  1.00 28.91 LIG-0.35  N 
ATOM      3  C   ARG C   2      18.957   2.724  22.510  1.00 30.62 LIG 0.26  C 
ATOM      4 O    ARG C   2      17.962   2.537  21.809  1.00 31.16 LIG-0.27  OA
ATOM      5 H    LYS C   3      20.888   2.994  22.400  1.00 28.91 LIG 0.16  HD
BRANCH 3 6
ATOM      6  CA  ARG C   2      18.810   2.659  24.045  1.00 31.50 LIG 0.40  C 
ATOM      7  N   ARG C   2      18.057   3.833  24.545  1.00 33.48 LIG 0.61  N 
BRANCH 6 8
ATOM      8  CB  ARG C   2      18.189   1.360  24.565  1.00 31.91 LIG 0.05  C 
BRANCH 8 9
ATOM      9  CG  ARG C   2      17.378   1.492  25.856  1.00 31.74 LIG 0.02  C 
BRANCH 9 10
ATOM     10  CD  ARG C   2      17.370   0.190  26.645  1.00 33.46 LIG 0.14  C 
BRANCH 10 11
ATOM     11  NE  ARG C   2      17.224  -1.020  25.820  1.00 33.35 LIG-0.23  N 
ATOM     12  CZ  ARG C   2      16.163  -1.823  25.795  1.00 33.45 LIG 0.67  C 
ATOM     13  NH1 ARG C   2      15.099  -1.562  26.532  1.00 31.52 LIG-0.23  N 
ATOM     14  NH2 ARG C   2      16.159  -2.898  25.008  1.00 34.66 LIG-0.23  N 
ATOM     15 1HH1 ARG C   2      15.086  -0.866  27.036  1.00 31.52 LIG 0.17  HD
ATOM     16 2HH1 ARG C   2      14.419  -2.088  26.507  1.00 31.52 LIG 0.17  HD
ATOM     17 1HH2 ARG C   2      16.843  -3.074  24.516  1.00 34.66 LIG 0.17  HD
ATOM     18 2HH2 ARG C   2      15.474  -3.417  24.992  1.00 34.66 LIG 0.17  HD
ATOM     19 HE   ARG C   2      17.884  -1.227  25.309  1.00 33.35 LIG 0.18  HD
ENDBRANCH 10 11
ENDBRANCH 9 10
ENDBRANCH 8 9
ENDBRANCH 6 8
ENDBRANCH 3 6
ENDBRANCH 1 2
BRANCH 1 20
ATOM     20  C   LYS C   3      20.369   2.115  19.580  1.00 25.28 LIG 0.24  C 
ATOM     21 O    LYS C   3      19.748   2.141  18.534  1.00 21.80 LIG-0.27  OA
ATOM     22  N   ILE C   4      21.171   1.110  19.911  1.00 24.70 LIG-0.35  N 
ATOM     23 H    ILE C   4      21.556   1.025  20.675  1.00 24.70 LIG 0.16  HD
BRANCH 22 24
ATOM     24  CA  ILE C   4      21.460   0.042  18.952  1.00 24.27 LIG 0.18  C 
BRANCH 24 25
ATOM     25  C   ILE C   4      20.391  -1.059  18.934  1.00 24.50 LIG 0.24  C 
ATOM     26  N   LEU C   5      19.246  -0.747  18.327  1.00 23.50 LIG-0.34  N 
ATOM     27 H    LEU C   5      19.080   0.034  18.008  1.00 23.50 LIG 0.16  HD
ATOM     28 O    ILE C   4      20.610  -2.165  19.436  1.00 23.85 LIG-0.27  OA
BRANCH 26 29
ATOM     29  CA  LEU C   5      18.157  -1.703  18.145  1.00 24.14 LIG 0.18  C 
BRANCH 29 30
ATOM     30  C   LEU C   5      18.573  -2.768  17.123  1.00 24.32 LIG 0.20  C 
ATOM     31 O    LEU C   5      19.415  -3.620  17.441  1.00 24.96 LIG-0.65  OA
ATOM     32 OXT  LEU C   5      18.074  -2.841  15.993  1.00 24.51 LIG-0.65  OA
ENDBRANCH 29 30
BRANCH 29 33
ATOM     33  CB  LEU C   5      16.889  -0.970  17.692  1.00 23.93 LIG 0.04  C 
BRANCH 33 34
ATOM     34  CG  LEU C   5      16.408   0.254  18.500  1.00 26.81 LIG-0.02  C 
ATOM     35  CD1 LEU C   5      16.838   0.153  19.968  1.00 29.09 LIG 0.01  C 
ATOM     36  CD2 LEU C   5      16.897   1.561  17.909  1.00 28.70 LIG 0.01  C 
ENDBRANCH 33 34
ENDBRANCH 29 33
ENDBRANCH 26 29
ENDBRANCH 24 25
BRANCH 24 37
ATOM     37  CB  ILE C   4      22.841  -0.584  19.185  1.00 24.66 LIG 0.01  C 
ATOM     38  CG2 ILE C   4      23.641  -0.630  17.876  1.00 24.52 LIG 0.01  C 
BRANCH 37 39
ATOM     39  CG1 ILE C   4      23.605   0.158  20.288  1.00 25.15 LIG 0.00  C 
ATOM     40  CD1 ILE C   4      24.593   1.182  19.793  1.00 24.74 LIG 0.01  C 
ENDBRANCH 37 39
ENDBRANCH 24 37
ENDBRANCH 22 24
ENDBRANCH 1 20
BRANCH 1 41
ATOM     41  CB  LYS C   3      21.344   4.304  20.210  1.00 27.76 LIG 0.04  C 
BRANCH 41 42
ATOM     42  CG  LYS C   3      22.129   4.726  21.414  1.00 29.79 LIG 0.00  C 
BRANCH 42 43
ATOM     43  CD  LYS C   3      23.580   4.378  21.257  1.00 31.63 LIG 0.03  C 
BRANCH 43 44
ATOM     44  CE  LYS C   3      24.410   5.004  22.364  1.00 35.23 LIG 0.23  C 
BRANCH 44 45
ATOM     45  NZ  LYS C   3      24.785   6.410  22.060  1.00 39.07 LIG-0.08  N 
ATOM     46 HZ3  LYS C   3      25.171   6.448  21.259  1.00 39.07 LIG 0.27  HD
ATOM     47 HZ2  LYS C   3      25.353   6.706  22.678  1.00 39.07 LIG 0.27  HD
ATOM     48 HZ1  LYS C   3      24.055   6.919  22.061  1.00 39.07 LIG 0.27  HD
ENDBRANCH 44 45
ENDBRANCH 43 44
ENDBRANCH 42 43
ENDBRANCH 41 42
ENDBRANCH 1 41
TORSDOF 20
ENDMDL
MODEL 11
USER: ADFR SOLUTION from run 159
USER: SCORE 16.721937 LL:  -2.303 LR: -15.637 RR:   0.000 FEB:  -9.671
USER: RMSD 3.250856
USER: SEED 158
USER: STATUS no improvement in best in 3 clusters for 5 generations
USER: GENES 22
USER: genes 0 Translation |==|  0.60189 0.52287 0.53892
USER: genes 1 Rotation |==|  0.57764 0.54167 0.46288 0.99077
USER: genes 2 Torsion [C]-CA--N-[C] |==|  0.82407
USER: genes 3 Torsion [N]-C--CA-[N] |==|  0.57105
USER: genes 4 Torsion [C]-CA--CB-[CG] |==|  0.59077
USER: genes 5 Torsion [CA]-CB--CG-[CD] |==|  0.53413
USER: genes 6 Torsion [CB]-CG--CD-[NE] |==|  0.68042
USER: genes 7 Torsion [CG]-CD--NE-[CZ] |==|  0.69551
USER: genes 8 Torsion [N]-CA--C-[N] |==|  0.88516
USER: genes 9 Torsion [C]-N--CA-[CB] |==|  0.24652
USER: genes 10 Torsion [N]-CA--C-[N] |==|  0.26667
USER: genes 11 Torsion [C]-N--CA-[C] |==|  0.20483
USER: genes 12 Torsion [N]-CA--C-[O] |==|  0.78672
USER: genes 13 Torsion [N]-CA--CB-[CG] |==|  0.42975
USER: genes 14 Torsion [CA]-CB--CG-[CD1] |==|  0.34344
USER: genes 15 Torsion [N]-CA--CB-[CG2] |==|  0.80952
USER: genes 16 Torsion [CA]-CB--CG1-[CD1] |==|  0.75781
USER: genes 17 Torsion [N]-CA--CB-[CG] |==|  0.65159
USER: genes 18 Torsion [CA]-CB--CG-[CD] |==|  0.21065
USER: genes 19 Torsion [CB]-CG--CD-[CE] |==|  0.66677
USER: genes 20 Torsion [CG]-CD--CE-[NZ] |==|  0.99405
USER: genes 21 Torsion [CD]-CE--NZ-[HZ2] |==|  0.49694
ROOT
ATOM      1  CA  LYS C   3      22.716   3.911  22.128  1.00 27.41 LIG 0.18  C 
ENDROOT
BRANCH 1 2
ATOM      2  N   LYS C   3      21.591   3.535  23.001  1.00 28.91 LIG-0.35  N 
ATOM      3  C   ARG C   2      20.379   4.035  22.775  1.00 30.62 LIG 0.26  C 
ATOM      4 O    ARG C   2      20.123   4.651  21.740  1.00 31.16 LIG-0.27  OA
ATOM      5 H    LYS C   3      21.787   2.990  23.636  1.00 28.91 LIG 0.16  HD
BRANCH 3 6
ATOM      6  CA  ARG C   2      19.267   3.855  23.830  1.00 31.50 LIG 0.40  C 
ATOM      7  N   ARG C   2      17.931   3.905  23.190  1.00 33.48 LIG 0.61  N 
BRANCH 6 8
ATOM      8  CB  ARG C   2      19.407   2.595  24.687  1.00 31.91 LIG 0.05  C 
BRANCH 8 9
ATOM      9  CG  ARG C   2      18.090   1.959  25.137  1.00 31.74 LIG 0.02  C 
BRANCH 9 10
ATOM     10  CD  ARG C   2      18.319   0.908  26.215  1.00 33.46 LIG 0.14  C 
BRANCH 10 11
ATOM     11  NE  ARG C   2      17.971  -0.463  25.811  1.00 33.35 LIG-0.23  N 
ATOM     12  CZ  ARG C   2      16.938  -1.171  26.261  1.00 33.45 LIG 0.67  C 
ATOM     13  NH1 ARG C   2      16.092  -0.654  27.134  1.00 31.52 LIG-0.23  N 
ATOM     14  NH2 ARG C   2      16.738  -2.413  25.822  1.00 34.66 LIG-0.23  N 
ATOM     15 1HH1 ARG C   2      16.205   0.150  27.417  1.00 31.52 LIG 0.17  HD
ATOM     16 2HH1 ARG C   2      15.427  -1.120  27.417  1.00 31.52 LIG 0.17  HD
ATOM     17 1HH2 ARG C   2      17.277  -2.757  25.247  1.00 34.66 LIG 0.17  HD
ATOM     18 2HH2 ARG C   2      16.070  -2.869  26.113  1.00 34.66 LIG 0.17  HD
ATOM     19 HE   ARG C   2      18.482  -0.842  25.232  1.00 33.35 LIG 0.18  HD
ENDBRANCH 10 11
ENDBRANCH 9 10
ENDBRANCH 8 9
ENDBRANCH 6 8
ENDBRANCH 3 6
ENDBRANCH 1 2
BRANCH 1 20
ATOM     20  C   LYS C   3      22.618   3.503  20.662  1.00 25.28 LIG 0.24  C 
ATOM     21 O    LYS C   3      22.998   4.285  19.812  1.00 21.80 LIG-0.27  OA
ATOM     22  N   ILE C   4      22.149   2.297  20.367  1.00 24.70 LIG-0.35  N 
ATOM     23 H    ILE C   4      21.798   1.757  20.936  1.00 24.70 LIG 0.16  HD
BRANCH 22 24
ATOM     24  CA  ILE C   4      22.203   1.793  18.993  1.00 24.27 LIG 0.18  C 
BRANCH 24 25
ATOM     25  C   ILE C   4      21.017   0.888  18.634  1.00 24.50 LIG 0.24  C 
ATOM     26  N   LEU C   5      20.001   1.483  18.009  1.00 23.50 LIG-0.34  N 
ATOM     27 H    LEU C   5      19.971   2.328  17.856  1.00 23.50 LIG 0.16  HD
ATOM     28 O    ILE C   4      21.035  -0.318  18.897  1.00 23.85 LIG-0.27  OA
BRANCH 26 29
ATOM     29  CA  LEU C   5      18.833   0.755  17.521  1.00 24.14 LIG 0.18  C 
BRANCH 29 30
ATOM     30  C   LEU C   5      17.946   0.351  18.705  1.00 24.32 LIG 0.20  C 
ATOM     31 O    LEU C   5      18.280  -0.607  19.417  1.00 24.96 LIG-0.65  OA
ATOM     32 OXT  LEU C   5      16.915   0.966  19.009  1.00 24.51 LIG-0.65  OA
ENDBRANCH 29 30
BRANCH 29 33
ATOM     33  CB  LEU C   5      19.280  -0.476  16.724  1.00 23.93 LIG 0.04  C 
BRANCH 33 34
ATOM     34  CG  LEU C   5      18.322  -1.682  16.616  1.00 26.81 LIG-0.02  C 
ATOM     35  CD1 LEU C   5      18.036  -2.034  15.152  1.00 29.09 LIG 0.01  C 
ATOM     36  CD2 LEU C   5      18.851  -2.901  17.345  1.00 28.70 LIG 0.01  C 
ENDBRANCH 33 34
ENDBRANCH 29 33
ENDBRANCH 26 29
ENDBRANCH 24 25
BRANCH 24 37
ATOM     37  CB  ILE C   4      23.518   1.060  18.699  1.00 24.66 LIG 0.01  C 
ATOM     38  CG2 ILE C   4      24.695   2.046  18.686  1.00 24.52 LIG 0.01  C 
BRANCH 37 39
ATOM     39  CG1 ILE C   4      23.749  -0.081  19.696  1.00 25.15 LIG 0.00  C 
ATOM     40  CD1 ILE C   4      24.450   0.322  20.967  1.00 24.74 LIG 0.01  C 
ENDBRANCH 37 39
ENDBRANCH 24 37
ENDBRANCH 22 24
ENDBRANCH 1 20
BRANCH 1 41
ATOM     41  CB  LYS C   3      24.072   3.475  22.669  1.00 27.76 LIG 0.04  C 
BRANCH 41 42
ATOM     42  CG  LYS C   3      25.051   4.603  22.785  1.00 29.79 LIG 0.00  C 
BRANCH 42 43
ATOM     43  CD  LYS C   3      24.737   5.464  23.973  1.00 31.63 LIG 0.03  C 
BRANCH 43 44
ATOM     44  CE  LYS C   3      24.450   6.893  23.545  1.00 35.23 LIG 0.23  C 
BRANCH 44 45
ATOM     45  NZ  LYS C   3      24.602   7.082  22.078  1.00 39.07 LIG-0.08  N 
ATOM     46 HZ3  LYS C   3      25.440   6.899  21.840  1.00 39.07 LIG 0.27  HD
ATOM     47 HZ2  LYS C   3      24.410   7.925  21.866  1.00 39.07 LIG 0.27  HD
ATOM     48 HZ1  LYS C   3      24.047   6.534  21.649  1.00 39.07 LIG 0.27  HD
ENDBRANCH 44 45
ENDBRANCH 43 44
ENDBRANCH 42 43
ENDBRANCH 41 42
ENDBRANCH 1 41
TORSDOF 20
ENDMDL
MODEL 12
USER: ADFR SOLUTION from run 25
USER: SCORE 16.087434 LL:  -2.469 LR: -15.573 RR:   0.000 FEB:  -9.607
USER: RMSD 2.582785
USER: SEED 24
USER: STATUS no improvement in best in 3 clusters for 5 generations
USER: GENES 22
USER: genes 0 Translation |==|  0.45502 0.48477 0.46881
USER: genes 1 Rotation |==|  0.41470 0.64018 0.64020 0.95102
USER: genes 2 Torsion [C]-CA--N-[C] |==|  0.75720
USER: genes 3 Torsion [N]-C--CA-[N] |==|  0.76666
USER: genes 4 Torsion [C]-CA--CB-[CG] |==|  0.78775
USER: genes 5 Torsion [CA]-CB--CG-[CD] |==|  0.48415
USER: genes 6 Torsion [CB]-CG--CD-[NE] |==|  0.51583
USER: genes 7 Torsion [CG]-CD--NE-[CZ] |==|  0.54114
USER: genes 8 Torsion [N]-CA--C-[N] |==|  0.87234
USER: genes 9 Torsion [C]-N--CA-[CB] |==|  0.40220
USER: genes 10 Torsion [N]-CA--C-[N] |==|  0.20405
USER: genes 11 Torsion [C]-N--CA-[C] |==|  0.82000
USER: genes 12 Torsion [N]-CA--C-[O] |==|  0.69180
USER: genes 13 Torsion [N]-CA--CB-[CG] |==|  0.85207
USER: genes 14 Torsion [CA]-CB--CG-[CD1] |==|  0.91651
USER: genes 15 Torsion [N]-CA--CB-[CG2] |==|  0.62405
USER: genes 16 Torsion [CA]-CB--CG1-[CD1] |==|  0.73983
USER: genes 17 Torsion [N]-CA--CB-[CG] |==|  0.99226
USER: genes 18 Torsion [CA]-CB--CG-[CD] |==|  0.35107
USER: genes 19 Torsion [CB]-CG--CD-[CE] |==|  0.40414
USER: genes 20 Torsion [CG]-CD--CE-[NZ] |==|  0.75316
USER: genes 21 Torsion [CD]-CE--NZ-[HZ2] |==|  0.88562
ROOT
ATOM      1  CA  LYS C   3      20.293   3.283  20.656  1.00 27.41 LIG 0.18  C 
ENDROOT
BRANCH 1 2
ATOM      2  N   LYS C   3      19.955   2.918  22.043  1.00 28.91 LIG-0.35  N 
ATOM      3  C   ARG C   2      18.682   2.786  22.404  1.00 30.62 LIG 0.26  C 
ATOM      4 O    ARG C   2      17.778   2.768  21.567  1.00 31.16 LIG-0.27  OA
ATOM      5 H    LYS C   3      20.628   2.805  22.566  1.00 28.91 LIG 0.16  HD
BRANCH 3 6
ATOM      6  CA  ARG C   2      18.317   2.666  23.898  1.00 31.50 LIG 0.40  C 
ATOM      7  N   ARG C   2      18.453   1.262  24.355  1.00 33.48 LIG 0.61  N 
BRANCH 6 8
ATOM      8  CB  ARG C   2      19.097   3.609  24.817  1.00 31.91 LIG 0.05  C 
BRANCH 8 9
ATOM      9  CG  ARG C   2      20.540   3.194  25.109  1.00 31.74 LIG 0.02  C 
BRANCH 9 10
ATOM     10  CD  ARG C   2      21.275   4.260  25.913  1.00 33.46 LIG 0.14  C 
BRANCH 10 11
ATOM     11  NE  ARG C   2      22.706   3.988  26.117  1.00 33.35 LIG-0.23  N 
ATOM     12  CZ  ARG C   2      23.497   4.597  26.997  1.00 33.45 LIG 0.67  C 
ATOM     13  NH1 ARG C   2      23.021   5.524  27.809  1.00 31.52 LIG-0.23  N 
ATOM     14  NH2 ARG C   2      24.785   4.265  27.077  1.00 34.66 LIG-0.23  N 
ATOM     15 1HH1 ARG C   2      22.189   5.740  27.773  1.00 31.52 LIG 0.17  HD
ATOM     16 2HH1 ARG C   2      23.541   5.911  28.373  1.00 31.52 LIG 0.17  HD
ATOM     17 1HH2 ARG C   2      25.105   3.657  26.560  1.00 34.66 LIG 0.17  HD
ATOM     18 2HH2 ARG C   2      25.296   4.659  27.646  1.00 34.66 LIG 0.17  HD
ATOM     19 HE   ARG C   2      23.063   3.381  25.625  1.00 33.35 LIG 0.18  HD
ENDBRANCH 10 11
ENDBRANCH 9 10
ENDBRANCH 8 9
ENDBRANCH 6 8
ENDBRANCH 3 6
ENDBRANCH 1 2
BRANCH 1 20
ATOM     20  C   LYS C   3      20.431   2.139  19.657  1.00 25.28 LIG 0.24  C 
ATOM     21 O    LYS C   3      19.916   2.256  18.561  1.00 21.80 LIG-0.27  OA
ATOM     22  N   ILE C   4      21.133   1.068  20.006  1.00 24.70 LIG-0.35  N 
ATOM     23 H    ILE C   4      21.437   0.922  20.797  1.00 24.70 LIG 0.16  HD
BRANCH 22 24
ATOM     24  CA  ILE C   4      21.444   0.028  19.023  1.00 24.27 LIG 0.18  C 
BRANCH 24 25
ATOM     25  C   ILE C   4      20.385  -1.081  18.962  1.00 24.50 LIG 0.24  C 
ATOM     26  N   LEU C   5      19.233  -0.753  18.378  1.00 23.50 LIG-0.34  N 
ATOM     27 H    LEU C   5      19.057   0.039  18.095  1.00 23.50 LIG 0.16  HD
ATOM     28 O    ILE C   4      20.618  -2.207  19.413  1.00 23.85 LIG-0.27  OA
BRANCH 26 29
ATOM     29  CA  LEU C   5      18.153  -1.711  18.159  1.00 24.14 LIG 0.18  C 
BRANCH 29 30
ATOM     30  C   LEU C   5      18.615  -2.794  17.178  1.00 24.32 LIG 0.20  C 
ATOM     31 O    LEU C   5      18.117  -2.841  16.044  1.00 24.96 LIG-0.65  OA
ATOM     32 OXT  LEU C   5      19.499  -3.615  17.456  1.00 24.51 LIG-0.65  OA
ENDBRANCH 29 30
BRANCH 29 33
ATOM     33  CB  LEU C   5      16.910  -0.985  17.632  1.00 23.93 LIG 0.04  C 
BRANCH 33 34
ATOM     34  CG  LEU C   5      16.364   0.225  18.422  1.00 26.81 LIG-0.02  C 
ATOM     35  CD1 LEU C   5      16.654   0.086  19.920  1.00 29.09 LIG 0.01  C 
ATOM     36  CD2 LEU C   5      16.916   1.541  17.910  1.00 28.70 LIG 0.01  C 
ENDBRANCH 33 34
ENDBRANCH 29 33
ENDBRANCH 26 29
ENDBRANCH 24 25
BRANCH 24 37
ATOM     37  CB  ILE C   4      22.827  -0.591  19.258  1.00 24.66 LIG 0.01  C 
ATOM     38  CG2 ILE C   4      23.589  -0.730  17.932  1.00 24.52 LIG 0.01  C 
BRANCH 37 39
ATOM     39  CG1 ILE C   4      23.627   0.217  20.286  1.00 25.15 LIG 0.00  C 
ATOM     40  CD1 ILE C   4      24.538   1.263  19.698  1.00 24.74 LIG 0.01  C 
ENDBRANCH 37 39
ENDBRANCH 24 37
ENDBRANCH 22 24
ENDBRANCH 1 20
BRANCH 1 41
ATOM     41  CB  LYS C   3      21.521   4.178  20.549  1.00 27.76 LIG 0.04  C 
BRANCH 41 42
ATOM     42  CG  LYS C   3      22.092   4.556  21.881  1.00 29.79 LIG 0.00  C 
BRANCH 42 43
ATOM     43  CD  LYS C   3      23.552   4.221  21.953  1.00 31.63 LIG 0.03  C 
BRANCH 43 44
ATOM     44  CE  LYS C   3      24.302   5.246  22.787  1.00 35.23 LIG 0.23  C 
BRANCH 44 45
ATOM     45  NZ  LYS C   3      24.785   6.391  21.970  1.00 39.07 LIG-0.08  N 
ATOM     46 HZ3  LYS C   3      24.111   6.953  21.817  1.00 39.07 LIG 0.27  HD
ATOM     47 HZ2  LYS C   3      25.102   6.089  21.194  1.00 39.07 LIG 0.27  HD
ATOM     48 HZ1  LYS C   3      25.431   6.818  22.409  1.00 39.07 LIG 0.27  HD
ENDBRANCH 44 45
ENDBRANCH 43 44
ENDBRANCH 42 43
ENDBRANCH 41 42
ENDBRANCH 1 41
TORSDOF 20
ENDMDL
MODEL 13
USER: ADFR SOLUTION from run 175
USER: SCORE 16.262271 LL:  -2.083 LR: -15.537 RR:   0.000 FEB:  -9.571
USER: RMSD 3.330600
USER: SEED 174
USER: STATUS no improvement in best in 7 clusters for 5 generations
USER: GENES 22
USER: genes 0 Translation |==|  0.59003 0.53013 0.50476
USER: genes 1 Rotation |==|  0.51578 0.60511 0.49559 0.98855
USER: genes 2 Torsion [C]-CA--N-[C] |==|  0.81483
USER: genes 3 Torsion [N]-C--CA-[N] |==|  0.01273
USER: genes 4 Torsion [C]-CA--CB-[CG] |==|  0.15048
USER: genes 5 Torsion [CA]-CB--CG-[CD] |==|  0.41582
USER: genes 6 Torsion [CB]-CG--CD-[NE] |==|  0.80412
USER: genes 7 Torsion [CG]-CD--NE-[CZ] |==|  0.65192
USER: genes 8 Torsion [N]-CA--C-[N] |==|  0.93684
USER: genes 9 Torsion [C]-N--CA-[CB] |==|  0.25921
USER: genes 10 Torsion [N]-CA--C-[N] |==|  0.55710
USER: genes 11 Torsion [C]-N--CA-[C] |==|  0.61731
USER: genes 12 Torsion [N]-CA--C-[O] |==|  0.16522
USER: genes 13 Torsion [N]-CA--CB-[CG] |==|  0.76012
USER: genes 14 Torsion [CA]-CB--CG-[CD1] |==|  0.88636
USER: genes 15 Torsion [N]-CA--CB-[CG2] |==|  0.63609
USER: genes 16 Torsion [CA]-CB--CG1-[CD1] |==|  0.66621
USER: genes 17 Torsion [N]-CA--CB-[CG] |==|  0.91162
USER: genes 18 Torsion [CA]-CB--CG-[CD] |==|  0.85974
USER: genes 19 Torsion [CB]-CG--CD-[CE] |==|  0.71269
USER: genes 20 Torsion [CG]-CD--CE-[NZ] |==|  0.20509
USER: genes 21 Torsion [CD]-CE--NZ-[HZ2] |==|  0.86905
ROOT
ATOM      1  CA  LYS C   3      22.521   4.031  21.411  1.00 27.41 LIG 0.18  C 
ENDROOT
BRANCH 1 2
ATOM      2  N   LYS C   3      21.724   3.694  22.603  1.00 28.91 LIG-0.35  N 
ATOM      3  C   ARG C   2      20.428   3.990  22.642  1.00 30.62 LIG 0.26  C 
ATOM      4 O    ARG C   2      19.825   4.362  21.634  1.00 31.16 LIG-0.27  OA
ATOM      5 H    LYS C   3      22.159   3.307  23.236  1.00 28.91 LIG 0.16  HD
BRANCH 3 6
ATOM      6  CA  ARG C   2      19.656   3.880  23.974  1.00 31.50 LIG 0.40  C 
ATOM      7  N   ARG C   2      20.577   3.538  25.082  1.00 33.48 LIG 0.61  N 
BRANCH 6 8
ATOM      8  CB  ARG C   2      18.825   5.117  24.326  1.00 31.91 LIG 0.05  C 
BRANCH 8 9
ATOM      9  CG  ARG C   2      17.837   5.570  23.249  1.00 31.74 LIG 0.02  C 
BRANCH 9 10
ATOM     10  CD  ARG C   2      16.613   6.238  23.862  1.00 33.46 LIG 0.14  C 
BRANCH 10 11
ATOM     11  NE  ARG C   2      15.713   5.319  24.576  1.00 33.35 LIG-0.23  N 
ATOM     12  CZ  ARG C   2      14.410   5.169  24.348  1.00 33.45 LIG 0.67  C 
ATOM     13  NH1 ARG C   2      13.806   5.858  23.396  1.00 31.52 LIG-0.23  N 
ATOM     14  NH2 ARG C   2      13.701   4.306  25.074  1.00 34.66 LIG-0.23  N 
ATOM     15 1HH1 ARG C   2      14.255   6.410  22.915  1.00 31.52 LIG 0.17  HD
ATOM     16 2HH1 ARG C   2      12.964   5.753  23.258  1.00 31.52 LIG 0.17  HD
ATOM     17 1HH2 ARG C   2      14.085   3.846  25.690  1.00 34.66 LIG 0.17  HD
ATOM     18 2HH2 ARG C   2      12.859   4.210  24.926  1.00 34.66 LIG 0.17  HD
ATOM     19 HE   ARG C   2      16.060   4.834  25.196  1.00 33.35 LIG 0.18  HD
ENDBRANCH 10 11
ENDBRANCH 9 10
ENDBRANCH 8 9
ENDBRANCH 6 8
ENDBRANCH 3 6
ENDBRANCH 1 2
BRANCH 1 20
ATOM     20  C   LYS C   3      22.186   3.284  20.124  1.00 25.28 LIG 0.24  C 
ATOM     21 O    LYS C   3      22.514   3.777  19.061  1.00 21.80 LIG-0.27  OA
ATOM     22  N   ILE C   4      21.573   2.110  20.209  1.00 24.70 LIG-0.35  N 
ATOM     23 H    ILE C   4      21.256   1.778  20.936  1.00 24.70 LIG 0.16  HD
BRANCH 22 24
ATOM     24  CA  ILE C   4      21.392   1.276  19.019  1.00 24.27 LIG 0.18  C 
BRANCH 24 25
ATOM     25  C   ILE C   4      20.041   0.549  18.991  1.00 24.50 LIG 0.24  C 
ATOM     26  N   LEU C   5      19.973  -0.521  18.199  1.00 23.50 LIG-0.34  N 
ATOM     27 H    LEU C   5      20.619  -0.772  17.690  1.00 23.50 LIG 0.16  HD
ATOM     28 O    ILE C   4      19.096   0.937  19.685  1.00 23.85 LIG-0.27  OA
BRANCH 26 29
ATOM     29  CA  LEU C   5      18.793  -1.376  18.119  1.00 24.14 LIG 0.18  C 
BRANCH 29 30
ATOM     30  C   LEU C   5      19.223  -2.848  18.089  1.00 24.32 LIG 0.20  C 
ATOM     31 O    LEU C   5      19.879  -3.309  19.033  1.00 24.96 LIG-0.65  OA
ATOM     32 OXT  LEU C   5      18.912  -3.616  17.170  1.00 24.51 LIG-0.65  OA
ENDBRANCH 29 30
BRANCH 29 33
ATOM     33  CB  LEU C   5      17.971  -1.017  16.876  1.00 23.93 LIG 0.04  C 
BRANCH 33 34
ATOM     34  CG  LEU C   5      16.928   0.118  16.974  1.00 26.81 LIG-0.02  C 
ATOM     35  CD1 LEU C   5      16.161   0.051  18.300  1.00 29.09 LIG 0.01  C 
ATOM     36  CD2 LEU C   5      17.555   1.488  16.809  1.00 28.70 LIG 0.01  C 
ENDBRANCH 33 34
ENDBRANCH 29 33
ENDBRANCH 26 29
ENDBRANCH 24 25
BRANCH 24 37
ATOM     37  CB  ILE C   4      22.528   0.260  18.850  1.00 24.66 LIG 0.01  C 
ATOM     38  CG2 ILE C   4      23.076   0.296  17.416  1.00 24.52 LIG 0.01  C 
BRANCH 37 39
ATOM     39  CG1 ILE C   4      23.636   0.492  19.883  1.00 25.15 LIG 0.00  C 
ATOM     40  CD1 ILE C   4      24.992   0.794  19.300  1.00 24.74 LIG 0.01  C 
ENDBRANCH 37 39
ENDBRANCH 24 37
ENDBRANCH 22 24
ENDBRANCH 1 20
BRANCH 1 41
ATOM     41  CB  LYS C   3      24.024   3.951  21.646  1.00 27.76 LIG 0.04  C 
BRANCH 41 42
ATOM     42  CG  LYS C   3      24.420   4.300  23.048  1.00 29.79 LIG 0.00  C 
BRANCH 42 43
ATOM     43  CD  LYS C   3      23.806   5.601  23.471  1.00 31.63 LIG 0.03  C 
BRANCH 43 44
ATOM     44  CE  LYS C   3      24.833   6.720  23.439  1.00 35.23 LIG 0.23  C 
BRANCH 44 45
ATOM     45  NZ  LYS C   3      25.160   7.144  22.052  1.00 39.07 LIG-0.08  N 
ATOM     46 HZ3  LYS C   3      24.477   7.603  21.712  1.00 39.07 LIG 0.27  HD
ATOM     47 HZ2  LYS C   3      25.312   6.424  21.550  1.00 39.07 LIG 0.27  HD
ATOM     48 HZ1  LYS C   3      25.887   7.658  22.062  1.00 39.07 LIG 0.27  HD
ENDBRANCH 44 45
ENDBRANCH 43 44
ENDBRANCH 42 43
ENDBRANCH 41 42
ENDBRANCH 1 41
TORSDOF 20
ENDMDL
MODEL 14
USER: ADFR SOLUTION from run 30
USER: SCORE 17.265344 LL:  -2.618 LR: -15.427 RR:   0.000 FEB:  -9.461
USER: RMSD 3.007268
USER: SEED 29
USER: STATUS no improvement in best in 7 clusters for 5 generations
USER: GENES 22
USER: genes 0 Translation |==|  0.61802 0.52876 0.45778
USER: genes 1 Rotation |==|  0.48437 0.37914 0.37444 0.96838
USER: genes 2 Torsion [C]-CA--N-[C] |==|  0.85529
USER: genes 3 Torsion [N]-C--CA-[N] |==|  0.46713
USER: genes 4 Torsion [C]-CA--CB-[CG] |==|  0.90773
USER: genes 5 Torsion [CA]-CB--CG-[CD] |==|  0.35587
USER: genes 6 Torsion [CB]-CG--CD-[NE] |==|  0.82489
USER: genes 7 Torsion [CG]-CD--NE-[CZ] |==|  0.27720
USER: genes 8 Torsion [N]-CA--C-[N] |==|  0.90219
USER: genes 9 Torsion [C]-N--CA-[CB] |==|  0.20290
USER: genes 10 Torsion [N]-CA--C-[N] |==|  0.87582
USER: genes 11 Torsion [C]-N--CA-[C] |==|  0.22193
USER: genes 12 Torsion [N]-CA--C-[O] |==|  0.14788
USER: genes 13 Torsion [N]-CA--CB-[CG] |==|  0.65610
USER: genes 14 Torsion [CA]-CB--CG-[CD1] |==|  0.96291
USER: genes 15 Torsion [N]-CA--CB-[CG2] |==|  0.74864
USER: genes 16 Torsion [CA]-CB--CG1-[CD1] |==|  0.70549
USER: genes 17 Torsion [N]-CA--CB-[CG] |==|  0.66306
USER: genes 18 Torsion [CA]-CB--CG-[CD] |==|  0.34746
USER: genes 19 Torsion [CB]-CG--CD-[CE] |==|  0.69251
USER: genes 20 Torsion [CG]-CD--CE-[NZ] |==|  0.98535
USER: genes 21 Torsion [CD]-CE--NZ-[HZ2] |==|  0.80061
ROOT
ATOM      1  CA  LYS C   3      22.982   4.009  20.424  1.00 27.41 LIG 0.18  C 
ENDROOT
BRANCH 1 2
ATOM      2  N   LYS C   3      21.580   4.448  20.524  1.00 28.91 LIG-0.35  N 
ATOM      3  C   ARG C   2      20.934   4.861  19.437  1.00 30.62 LIG 0.26  C 
ATOM      4 O    ARG C   2      21.410   4.705  18.311  1.00 31.16 LIG-0.27  OA
ATOM      5 H    LYS C   3      21.240   4.411  21.313  1.00 28.91 LIG 0.16  HD
BRANCH 3 6
ATOM      6  CA  ARG C   2      19.567   5.563  19.577  1.00 31.50 LIG 0.40  C 
ATOM      7  N   ARG C   2      19.168   6.184  18.293  1.00 33.48 LIG 0.61  N 
BRANCH 6 8
ATOM      8  CB  ARG C   2      18.449   4.666  20.113  1.00 31.91 LIG 0.05  C 
BRANCH 8 9
ATOM      9  CG  ARG C   2      18.536   3.195  19.702  1.00 31.74 LIG 0.02  C 
BRANCH 9 10
ATOM     10  CD  ARG C   2      18.446   2.272  20.911  1.00 33.46 LIG 0.14  C 
BRANCH 10 11
ATOM     11  NE  ARG C   2      19.547   2.425  21.875  1.00 33.35 LIG-0.23  N 
ATOM     12  CZ  ARG C   2      19.497   3.113  23.013  1.00 33.45 LIG 0.67  C 
ATOM     13  NH1 ARG C   2      18.387   3.722  23.388  1.00 31.52 LIG-0.23  N 
ATOM     14  NH2 ARG C   2      20.572   3.183  23.797  1.00 34.66 LIG-0.23  N 
ATOM     15 1HH1 ARG C   2      17.684   3.676  22.895  1.00 31.52 LIG 0.17  HD
ATOM     16 2HH1 ARG C   2      18.367   4.164  24.125  1.00 31.52 LIG 0.17  HD
ATOM     17 1HH2 ARG C   2      21.298   2.783  23.568  1.00 34.66 LIG 0.17  HD
ATOM     18 2HH2 ARG C   2      20.539   3.628  24.532  1.00 34.66 LIG 0.17  HD
ATOM     19 HE   ARG C   2      20.289   2.034  21.686  1.00 33.35 LIG 0.18  HD
ENDBRANCH 10 11
ENDBRANCH 9 10
ENDBRANCH 8 9
ENDBRANCH 6 8
ENDBRANCH 3 6
ENDBRANCH 1 2
BRANCH 1 20
ATOM     20  C   LYS C   3      23.302   2.955  19.369  1.00 25.28 LIG 0.24  C 
ATOM     21 O    LYS C   3      24.383   2.995  18.813  1.00 21.80 LIG-0.27  OA
ATOM     22  N   ILE C   4      22.401   2.014  19.115  1.00 24.70 LIG-0.35  N 
ATOM     23 H    ILE C   4      21.600   2.008  19.429  1.00 24.70 LIG 0.16  HD
BRANCH 22 24
ATOM     24  CA  ILE C   4      22.731   0.883  18.246  1.00 24.27 LIG 0.18  C 
BRANCH 24 25
ATOM     25  C   ILE C   4      21.492   0.145  17.719  1.00 24.50 LIG 0.24  C 
ATOM     26  N   LEU C   5      20.539  -0.104  18.616  1.00 23.50 LIG-0.34  N 
ATOM     27 H    LEU C   5      20.617   0.083  19.451  1.00 23.50 LIG 0.16  HD
ATOM     28 O    ILE C   4      21.398  -0.168  16.528  1.00 23.85 LIG-0.27  OA
BRANCH 26 29
ATOM     29  CA  LEU C   5      19.261  -0.719  18.267  1.00 24.14 LIG 0.18  C 
BRANCH 29 30
ATOM     30  C   LEU C   5      19.439  -2.237  18.136  1.00 24.32 LIG 0.20  C 
ATOM     31 O    LEU C   5      19.952  -2.872  19.068  1.00 24.96 LIG-0.65  OA
ATOM     32 OXT  LEU C   5      19.056  -2.871  17.144  1.00 24.51 LIG-0.65  OA
ENDBRANCH 29 30
BRANCH 29 33
ATOM     33  CB  LEU C   5      18.728  -0.113  16.964  1.00 23.93 LIG 0.04  C 
BRANCH 33 34
ATOM     34  CG  LEU C   5      17.322   0.526  16.962  1.00 26.81 LIG-0.02  C 
ATOM     35  CD1 LEU C   5      16.541   0.153  18.227  1.00 29.09 LIG 0.01  C 
ATOM     36  CD2 LEU C   5      17.377   2.034  16.816  1.00 28.70 LIG 0.01  C 
ENDBRANCH 33 34
ENDBRANCH 29 33
ENDBRANCH 26 29
ENDBRANCH 24 25
BRANCH 24 37
ATOM     37  CB  ILE C   4      23.673  -0.115  18.930  1.00 24.66 LIG 0.01  C 
ATOM     38  CG2 ILE C   4      25.139   0.248  18.653  1.00 24.52 LIG 0.01  C 
BRANCH 37 39
ATOM     39  CG1 ILE C   4      23.388  -0.201  20.434  1.00 25.15 LIG 0.00  C 
ATOM     40  CD1 ILE C   4      24.410   0.475  21.311  1.00 24.74 LIG 0.01  C 
ENDBRANCH 37 39
ENDBRANCH 24 37
ENDBRANCH 22 24
ENDBRANCH 1 20
BRANCH 1 41
ATOM     41  CB  LYS C   3      23.572   3.561  21.757  1.00 27.76 LIG 0.04  C 
BRANCH 41 42
ATOM     42  CG  LYS C   3      24.781   4.348  22.159  1.00 29.79 LIG 0.00  C 
BRANCH 42 43
ATOM     43  CD  LYS C   3      24.605   4.943  23.524  1.00 31.63 LIG 0.03  C 
BRANCH 43 44
ATOM     44  CE  LYS C   3      24.469   6.453  23.443  1.00 35.23 LIG 0.23  C 
BRANCH 44 45
ATOM     45  NZ  LYS C   3      24.670   6.963  22.061  1.00 39.07 LIG-0.08  N 
ATOM     46 HZ3  LYS C   3      24.182   6.482  21.493  1.00 39.07 LIG 0.27  HD
ATOM     47 HZ2  LYS C   3      25.531   6.897  21.843  1.00 39.07 LIG 0.27  HD
ATOM     48 HZ1  LYS C   3      24.418   7.816  22.019  1.00 39.07 LIG 0.27  HD
ENDBRANCH 44 45
ENDBRANCH 43 44
ENDBRANCH 42 43
ENDBRANCH 41 42
ENDBRANCH 1 41
TORSDOF 20
ENDMDL
MODEL 15
USER: ADFR SOLUTION from run 19
USER: SCORE 17.017471 LL:  -2.302 LR: -15.415 RR:   0.000 FEB:  -9.449
USER: RMSD 4.532132
USER: SEED 18
USER: STATUS no improvement in best in 6 clusters for 5 generations
USER: GENES 22
USER: genes 0 Translation |==|  0.54629 0.48741 0.41426
USER: genes 1 Rotation |==|  0.38538 0.50407 0.50878 0.98659
USER: genes 2 Torsion [C]-CA--N-[C] |==|  0.81320
USER: genes 3 Torsion [N]-C--CA-[N] |==|  0.92266
USER: genes 4 Torsion [C]-CA--CB-[CG] |==|  0.13448
USER: genes 5 Torsion [CA]-CB--CG-[CD] |==|  0.76686
USER: genes 6 Torsion [CB]-CG--CD-[NE] |==|  0.48769
USER: genes 7 Torsion [CG]-CD--NE-[CZ] |==|  0.54893
USER: genes 8 Torsion [N]-CA--C-[N] |==|  0.97721
USER: genes 9 Torsion [C]-N--CA-[CB] |==|  0.19391
USER: genes 10 Torsion [N]-CA--C-[N] |==|  0.16487
USER: genes 11 Torsion [C]-N--CA-[C] |==|  0.79459
USER: genes 12 Torsion [N]-CA--C-[O] |==|  0.73729
USER: genes 13 Torsion [N]-CA--CB-[CG] |==|  0.88306
USER: genes 14 Torsion [CA]-CB--CG-[CD1] |==|  0.90957
USER: genes 15 Torsion [N]-CA--CB-[CG2] |==|  0.69701
USER: genes 16 Torsion [CA]-CB--CG1-[CD1] |==|  0.67991
USER: genes 17 Torsion [N]-CA--CB-[CG] |==|  0.91661
USER: genes 18 Torsion [CA]-CB--CG-[CD] |==|  0.37044
USER: genes 19 Torsion [CB]-CG--CD-[CE] |==|  0.36475
USER: genes 20 Torsion [CG]-CD--CE-[NZ] |==|  0.92218
USER: genes 21 Torsion [CD]-CE--NZ-[HZ2] |==|  0.89061
ROOT
ATOM      1  CA  LYS C   3      21.799   3.326  19.511  1.00 27.41 LIG 0.18  C 
ENDROOT
BRANCH 1 2
ATOM      2  N   LYS C   3      20.602   3.376  20.368  1.00 28.91 LIG-0.35  N 
ATOM      3  C   ARG C   2      19.390   3.352  19.819  1.00 30.62 LIG 0.26  C 
ATOM      4 O    ARG C   2      19.233   3.092  18.625  1.00 31.16 LIG-0.27  OA
ATOM      5 H    LYS C   3      20.758   3.420  21.212  1.00 28.91 LIG 0.16  HD
BRANCH 3 6
ATOM      6  CA  ARG C   2      18.151   3.667  20.683  1.00 31.50 LIG 0.40  C 
ATOM      7  N   ARG C   2      18.402   3.314  22.100  1.00 33.48 LIG 0.61  N 
BRANCH 6 8
ATOM      8  CB  ARG C   2      17.650   5.109  20.567  1.00 31.91 LIG 0.05  C 
BRANCH 8 9
ATOM      9  CG  ARG C   2      17.493   5.635  19.139  1.00 31.74 LIG 0.02  C 
BRANCH 9 10
ATOM     10  CD  ARG C   2      18.813   6.159  18.590  1.00 33.46 LIG 0.14  C 
BRANCH 10 11
ATOM     11  NE  ARG C   2      18.760   6.587  17.184  1.00 33.35 LIG-0.23  N 
ATOM     12  CZ  ARG C   2      19.807   6.765  16.382  1.00 33.45 LIG 0.67  C 
ATOM     13  NH1 ARG C   2      21.035   6.534  16.811  1.00 31.52 LIG-0.23  N 
ATOM     14  NH2 ARG C   2      19.624   7.167  15.125  1.00 34.66 LIG-0.23  N 
ATOM     15 1HH1 ARG C   2      21.165   6.265  17.617  1.00 31.52 LIG 0.17  HD
ATOM     16 2HH1 ARG C   2      21.704   6.652  16.284  1.00 31.52 LIG 0.17  HD
ATOM     17 1HH2 ARG C   2      18.829   7.312  14.832  1.00 34.66 LIG 0.17  HD
ATOM     18 2HH2 ARG C   2      20.301   7.282  14.608  1.00 34.66 LIG 0.17  HD
ATOM     19 HE   ARG C   2      17.982   6.736  16.849  1.00 33.35 LIG 0.18  HD
ENDBRANCH 10 11
ENDBRANCH 9 10
ENDBRANCH 8 9
ENDBRANCH 6 8
ENDBRANCH 3 6
ENDBRANCH 1 2
BRANCH 1 20
ATOM     20  C   LYS C   3      22.047   2.029  18.749  1.00 25.28 LIG 0.24  C 
ATOM     21 O    LYS C   3      22.953   1.993  17.937  1.00 21.80 LIG-0.27  OA
ATOM     22  N   ILE C   4      21.286   0.976  19.018  1.00 24.70 LIG-0.35  N 
ATOM     23 H    ILE C   4      20.590   0.994  19.522  1.00 24.70 LIG 0.16  HD
BRANCH 22 24
ATOM     24  CA  ILE C   4      21.600  -0.336  18.446  1.00 24.27 LIG 0.18  C 
BRANCH 24 25
ATOM     25  C   ILE C   4      20.445  -1.339  18.568  1.00 24.50 LIG 0.24  C 
ATOM     26  N   LEU C   5      19.302  -0.984  17.980  1.00 23.50 LIG-0.34  N 
ATOM     27 H    LEU C   5      19.185  -0.223  17.599  1.00 23.50 LIG 0.16  HD
ATOM     28 O    ILE C   4      20.596  -2.413  19.158  1.00 23.85 LIG-0.27  OA
BRANCH 26 29
ATOM     29  CA  LEU C   5      18.132  -1.856  17.926  1.00 24.14 LIG 0.18  C 
BRANCH 29 30
ATOM     30  C   LEU C   5      18.372  -2.977  16.908  1.00 24.32 LIG 0.20  C 
ATOM     31 O    LEU C   5      17.967  -2.839  15.745  1.00 24.96 LIG-0.65  OA
ATOM     32 OXT  LEU C   5      18.991  -4.013  17.186  1.00 24.51 LIG-0.65  OA
ENDBRANCH 29 30
BRANCH 29 33
ATOM     33  CB  LEU C   5      16.888  -1.039  17.563  1.00 23.93 LIG 0.04  C 
BRANCH 33 34
ATOM     34  CG  LEU C   5      16.687   0.345  18.220  1.00 26.81 LIG-0.02  C 
ATOM     35  CD1 LEU C   5      17.261   0.371  19.642  1.00 29.09 LIG 0.01  C 
ATOM     36  CD2 LEU C   5      17.296   1.464  17.398  1.00 28.70 LIG 0.01  C 
ENDBRANCH 33 34
ENDBRANCH 29 33
ENDBRANCH 26 29
ENDBRANCH 24 25
BRANCH 24 37
ATOM     37  CB  ILE C   4      22.873  -0.939  19.052  1.00 24.66 LIG 0.01  C 
ATOM     38  CG2 ILE C   4      24.015  -0.931  18.026  1.00 24.52 LIG 0.01  C 
BRANCH 37 39
ATOM     39  CG1 ILE C   4      23.269  -0.212  20.342  1.00 25.15 LIG 0.00  C 
ATOM     40  CD1 ILE C   4      24.580   0.527  20.276  1.00 24.74 LIG 0.01  C 
ENDBRANCH 37 39
ENDBRANCH 24 37
ENDBRANCH 22 24
ENDBRANCH 1 20
BRANCH 1 41
ATOM     41  CB  LYS C   3      23.079   3.720  20.237  1.00 27.76 LIG 0.04  C 
BRANCH 41 42
ATOM     42  CG  LYS C   3      22.850   4.708  21.340  1.00 29.79 LIG 0.00  C 
BRANCH 42 43
ATOM     43  CD  LYS C   3      23.572   4.295  22.588  1.00 31.63 LIG 0.03  C 
BRANCH 43 44
ATOM     44  CE  LYS C   3      24.364   5.456  23.164  1.00 35.23 LIG 0.23  C 
BRANCH 44 45
ATOM     45  NZ  LYS C   3      24.785   6.425  22.117  1.00 39.07 LIG-0.08  N 
ATOM     46 HZ3  LYS C   3      24.106   6.967  21.923  1.00 39.07 LIG 0.27  HD
ATOM     47 HZ2  LYS C   3      25.030   5.982  21.385  1.00 39.07 LIG 0.27  HD
ATOM     48 HZ1  LYS C   3      25.471   6.907  22.417  1.00 39.07 LIG 0.27  HD
ENDBRANCH 44 45
ENDBRANCH 43 44
ENDBRANCH 42 43
ENDBRANCH 41 42
ENDBRANCH 1 41
TORSDOF 20
ENDMDL
MODEL 16
USER: ADFR SOLUTION from run 195
USER: SCORE 16.665548 LL:  -2.493 LR: -15.371 RR:   0.000 FEB:  -9.405
USER: RMSD 5.096064
USER: SEED 194
USER: STATUS no improvement in best in 7 clusters for 5 generations
USER: GENES 22
USER: genes 0 Translation |==|  0.52934 0.54152 0.49857
USER: genes 1 Rotation |==|  0.42502 0.78482 0.89774 0.57115
USER: genes 2 Torsion [C]-CA--N-[C] |==|  0.70901
USER: genes 3 Torsion [N]-C--CA-[N] |==|  0.67284
USER: genes 4 Torsion [C]-CA--CB-[CG] |==|  0.31635
USER: genes 5 Torsion [CA]-CB--CG-[CD] |==|  0.43629
USER: genes 6 Torsion [CB]-CG--CD-[NE] |==|  0.07519
USER: genes 7 Torsion [CG]-CD--NE-[CZ] |==|  0.72882
USER: genes 8 Torsion [N]-CA--C-[N] |==|  0.33664
USER: genes 9 Torsion [C]-N--CA-[CB] |==|  0.22778
USER: genes 10 Torsion [N]-CA--C-[N] |==|  0.18706
USER: genes 11 Torsion [C]-N--CA-[C] |==|  0.82423
USER: genes 12 Torsion [N]-CA--C-[O] |==|  0.86568
USER: genes 13 Torsion [N]-CA--CB-[CG] |==|  0.90294
USER: genes 14 Torsion [CA]-CB--CG-[CD1] |==|  0.54128
USER: genes 15 Torsion [N]-CA--CB-[CG2] |==|  0.76211
USER: genes 16 Torsion [CA]-CB--CG1-[CD1] |==|  0.72137
USER: genes 17 Torsion [N]-CA--CB-[CG] |==|  0.49995
USER: genes 18 Torsion [CA]-CB--CG-[CD] |==|  0.65849
USER: genes 19 Torsion [CB]-CG--CD-[CE] |==|  0.98239
USER: genes 20 Torsion [CG]-CD--CE-[NZ] |==|  0.26197
USER: genes 21 Torsion [CD]-CE--NZ-[HZ2] |==|  0.59283
ROOT
ATOM      1  CA  LYS C   3      21.519   4.219  21.281  1.00 27.41 LIG 0.18  C 
ENDROOT
BRANCH 1 2
ATOM      2  N   LYS C   3      22.687   4.982  21.754  1.00 28.91 LIG-0.35  N 
ATOM      3  C   ARG C   2      23.311   4.617  22.871  1.00 30.62 LIG 0.26  C 
ATOM      4 O    ARG C   2      23.066   3.541  23.419  1.00 31.16 LIG-0.27  OA
ATOM      5 H    LYS C   3      22.911   5.651  21.263  1.00 28.91 LIG 0.16  HD
BRANCH 3 6
ATOM      6  CA  ARG C   2      24.358   5.556  23.506  1.00 31.50 LIG 0.40  C 
ATOM      7  N   ARG C   2      25.691   4.910  23.525  1.00 33.48 LIG 0.61  N 
BRANCH 6 8
ATOM      8  CB  ARG C   2      24.438   6.941  22.861  1.00 31.91 LIG 0.05  C 
BRANCH 8 9
ATOM      9  CG  ARG C   2      24.002   8.106  23.752  1.00 31.74 LIG 0.02  C 
BRANCH 9 10
ATOM     10  CD  ARG C   2      24.615   9.421  23.289  1.00 33.46 LIG 0.14  C 
BRANCH 10 11
ATOM     11  NE  ARG C   2      24.931   9.472  21.853  1.00 33.35 LIG-0.23  N 
ATOM     12  CZ  ARG C   2      26.126   9.249  21.310  1.00 33.45 LIG 0.67  C 
ATOM     13  NH1 ARG C   2      27.162   8.926  22.062  1.00 31.52 LIG-0.23  N 
ATOM     14  NH2 ARG C   2      26.284   9.337  19.990  1.00 34.66 LIG-0.23  N 
ATOM     15 1HH1 ARG C   2      27.070   8.856  22.913  1.00 31.52 LIG 0.17  HD
ATOM     16 2HH1 ARG C   2      27.929   8.784  21.699  1.00 31.52 LIG 0.17  HD
ATOM     17 1HH2 ARG C   2      25.615   9.538  19.489  1.00 34.66 LIG 0.17  HD
ATOM     18 2HH2 ARG C   2      27.056   9.193  19.639  1.00 34.66 LIG 0.17  HD
ATOM     19 HE   ARG C   2      24.287   9.663  21.317  1.00 33.35 LIG 0.18  HD
ENDBRANCH 10 11
ENDBRANCH 9 10
ENDBRANCH 8 9
ENDBRANCH 6 8
ENDBRANCH 3 6
ENDBRANCH 1 2
BRANCH 1 20
ATOM     20  C   LYS C   3      21.737   3.295  20.088  1.00 25.28 LIG 0.24  C 
ATOM     21 O    LYS C   3      22.161   3.770  19.051  1.00 21.80 LIG-0.27  OA
ATOM     22  N   ILE C   4      21.485   2.000  20.230  1.00 24.70 LIG-0.35  N 
ATOM     23 H    ILE C   4      21.108   1.649  20.919  1.00 24.70 LIG 0.16  HD
BRANCH 22 24
ATOM     24  CA  ILE C   4      21.847   1.050  19.176  1.00 24.27 LIG 0.18  C 
BRANCH 24 25
ATOM     25  C   ILE C   4      20.966  -0.207  19.166  1.00 24.50 LIG 0.24  C 
ATOM     26  N   LEU C   5      19.690  -0.018  18.831  1.00 23.50 LIG-0.34  N 
ATOM     27 H    LEU C   5      19.352   0.757  18.678  1.00 23.50 LIG 0.16  HD
ATOM     28 O    ILE C   4      21.437  -1.315  19.434  1.00 23.85 LIG-0.27  OA
BRANCH 26 29
ATOM     29  CA  LEU C   5      18.736  -1.115  18.689  1.00 24.14 LIG 0.18  C 
BRANCH 29 30
ATOM     30  C   LEU C   5      19.177  -2.037  17.546  1.00 24.32 LIG 0.20  C 
ATOM     31 O    LEU C   5      19.494  -1.544  16.454  1.00 24.96 LIG-0.65  OA
ATOM     32 OXT  LEU C   5      19.267  -3.265  17.674  1.00 24.51 LIG-0.65  OA
ENDBRANCH 29 30
BRANCH 29 33
ATOM     33  CB  LEU C   5      17.331  -0.556  18.434  1.00 23.93 LIG 0.04  C 
BRANCH 33 34
ATOM     34  CG  LEU C   5      16.919   0.764  19.122  1.00 26.81 LIG-0.02  C 
ATOM     35  CD1 LEU C   5      15.402   0.973  19.055  1.00 29.09 LIG 0.01  C 
ATOM     36  CD2 LEU C   5      17.386   0.830  20.563  1.00 28.70 LIG 0.01  C 
ENDBRANCH 33 34
ENDBRANCH 29 33
ENDBRANCH 26 29
ENDBRANCH 24 25
BRANCH 24 37
ATOM     37  CB  ILE C   4      23.324   0.644  19.249  1.00 24.66 LIG 0.01  C 
ATOM     38  CG2 ILE C   4      24.200   1.655  18.498  1.00 24.52 LIG 0.01  C 
BRANCH 37 39
ATOM     39  CG1 ILE C   4      23.779   0.474  20.703  1.00 25.15 LIG 0.00  C 
ATOM     40  CD1 ILE C   4      24.546   1.642  21.267  1.00 24.74 LIG 0.01  C 
ENDBRANCH 37 39
ENDBRANCH 24 37
ENDBRANCH 22 24
ENDBRANCH 1 20
BRANCH 1 41
ATOM     41  CB  LYS C   3      20.298   5.089  21.009  1.00 27.76 LIG 0.04  C 
BRANCH 41 42
ATOM     42  CG  LYS C   3      19.114   4.308  20.528  1.00 29.79 LIG 0.00  C 
BRANCH 42 43
ATOM     43  CD  LYS C   3      18.637   4.821  19.201  1.00 31.63 LIG 0.03  C 
BRANCH 43 44
ATOM     44  CE  LYS C   3      19.391   6.078  18.803  1.00 35.23 LIG 0.23  C 
BRANCH 44 45
ATOM     45  NZ  LYS C   3      20.560   5.781  17.933  1.00 39.07 LIG-0.08  N 
ATOM     46 HZ3  LYS C   3      20.849   4.954  18.095  1.00 39.07 LIG 0.27  HD
ATOM     47 HZ2  LYS C   3      21.212   6.363  18.102  1.00 39.07 LIG 0.27  HD
ATOM     48 HZ1  LYS C   3      20.318   5.846  17.078  1.00 39.07 LIG 0.27  HD
ENDBRANCH 44 45
ENDBRANCH 43 44
ENDBRANCH 42 43
ENDBRANCH 41 42
ENDBRANCH 1 41
TORSDOF 20
ENDMDL
MODEL 17
USER: ADFR SOLUTION from run 66
USER: SCORE 16.205069 LL:  -2.037 LR: -15.359 RR:   0.000 FEB:  -9.393
USER: RMSD 3.170995
USER: SEED 65
USER: STATUS no improvement in best in 7 clusters for 5 generations
USER: GENES 22
USER: genes 0 Translation |==|  0.59908 0.51756 0.49858
USER: genes 1 Rotation |==|  0.50987 0.58583 0.44905 0.98984
USER: genes 2 Torsion [C]-CA--N-[C] |==|  0.77764
USER: genes 3 Torsion [N]-C--CA-[N] |==|  0.90475
USER: genes 4 Torsion [C]-CA--CB-[CG] |==|  0.88187
USER: genes 5 Torsion [CA]-CB--CG-[CD] |==|  0.37337
USER: genes 6 Torsion [CB]-CG--CD-[NE] |==|  0.68222
USER: genes 7 Torsion [CG]-CD--NE-[CZ] |==|  0.61963
USER: genes 8 Torsion [N]-CA--C-[N] |==|  0.92123
USER: genes 9 Torsion [C]-N--CA-[CB] |==|  0.23889
USER: genes 10 Torsion [N]-CA--C-[N] |==|  0.54302
USER: genes 11 Torsion [C]-N--CA-[C] |==|  0.62187
USER: genes 12 Torsion [N]-CA--C-[O] |==|  0.20380
USER: genes 13 Torsion [N]-CA--CB-[CG] |==|  0.79196
USER: genes 14 Torsion [CA]-CB--CG-[CD1] |==|  0.87485
USER: genes 15 Torsion [N]-CA--CB-[CG2] |==|  0.71235
USER: genes 16 Torsion [CA]-CB--CG1-[CD1] |==|  0.70687
USER: genes 17 Torsion [N]-CA--CB-[CG] |==|  0.77991
USER: genes 18 Torsion [CA]-CB--CG-[CD] |==|  0.24648
USER: genes 19 Torsion [CB]-CG--CD-[CE] |==|  0.48474
USER: genes 20 Torsion [CG]-CD--CE-[NZ] |==|  0.97421
USER: genes 21 Torsion [CD]-CE--NZ-[HZ2] |==|  0.81138
ROOT
ATOM      1  CA  LYS C   3      22.670   3.824  21.281  1.00 27.41 LIG 0.18  C 
ENDROOT
BRANCH 1 2
ATOM      2  N   LYS C   3      21.751   3.715  22.427  1.00 28.91 LIG-0.35  N 
ATOM      3  C   ARG C   2      20.644   4.452  22.463  1.00 30.62 LIG 0.26  C 
ATOM      4 O    ARG C   2      20.261   5.082  21.476  1.00 31.16 LIG-0.27  OA
ATOM      5 H    LYS C   3      21.989   3.157  23.036  1.00 28.91 LIG 0.16  HD
BRANCH 3 6
ATOM      6  CA  ARG C   2      19.822   4.538  23.766  1.00 31.50 LIG 0.40  C 
ATOM      7  N   ARG C   2      19.874   3.251  24.499  1.00 33.48 LIG 0.61  N 
BRANCH 6 8
ATOM      8  CB  ARG C   2      20.213   5.698  24.685  1.00 31.91 LIG 0.05  C 
BRANCH 8 9
ATOM      9  CG  ARG C   2      21.717   5.932  24.840  1.00 31.74 LIG 0.02  C 
BRANCH 9 10
ATOM     10  CD  ARG C   2      22.066   7.409  24.717  1.00 33.46 LIG 0.14  C 
BRANCH 10 11
ATOM     11  NE  ARG C   2      22.885   7.745  23.542  1.00 33.35 LIG-0.23  N 
ATOM     12  CZ  ARG C   2      23.930   8.569  23.529  1.00 33.45 LIG 0.67  C 
ATOM     13  NH1 ARG C   2      24.343   9.157  24.637  1.00 31.52 LIG-0.23  N 
ATOM     14  NH2 ARG C   2      24.585   8.797  22.391  1.00 34.66 LIG-0.23  N 
ATOM     15 1HH1 ARG C   2      23.934   9.009  25.379  1.00 31.52 LIG 0.17  HD
ATOM     16 2HH1 ARG C   2      25.019   9.687  24.617  1.00 31.52 LIG 0.17  HD
ATOM     17 1HH2 ARG C   2      24.331   8.413  21.664  1.00 34.66 LIG 0.17  HD
ATOM     18 2HH2 ARG C   2      25.260   9.330  22.383  1.00 34.66 LIG 0.17  HD
ATOM     19 HE   ARG C   2      22.669   7.375  22.796  1.00 33.35 LIG 0.18  HD
ENDBRANCH 10 11
ENDBRANCH 9 10
ENDBRANCH 8 9
ENDBRANCH 6 8
ENDBRANCH 3 6
ENDBRANCH 1 2
BRANCH 1 20
ATOM     20  C   LYS C   3      22.289   3.061  20.017  1.00 25.28 LIG 0.24  C 
ATOM     21 O    LYS C   3      22.685   3.475  18.944  1.00 21.80 LIG-0.27  OA
ATOM     22  N   ILE C   4      21.563   1.956  20.134  1.00 24.70 LIG-0.35  N 
ATOM     23 H    ILE C   4      21.200   1.686  20.865  1.00 24.70 LIG 0.16  HD
BRANCH 22 24
ATOM     24  CA  ILE C   4      21.325   1.095  18.973  1.00 24.27 LIG 0.18  C 
BRANCH 24 25
ATOM     25  C   ILE C   4      19.978   0.362  19.031  1.00 24.50 LIG 0.24  C 
ATOM     26  N   LEU C   5      19.838  -0.663  18.191  1.00 23.50 LIG-0.34  N 
ATOM     27 H    LEU C   5      20.433  -0.881  17.610  1.00 23.50 LIG 0.16  HD
ATOM     28 O    ILE C   4      19.102   0.704  19.831  1.00 23.85 LIG-0.27  OA
BRANCH 26 29
ATOM     29  CA  LEU C   5      18.656  -1.520  18.174  1.00 24.14 LIG 0.18  C 
BRANCH 29 30
ATOM     30  C   LEU C   5      19.085  -2.988  18.062  1.00 24.32 LIG 0.20  C 
ATOM     31 O    LEU C   5      19.587  -3.552  19.045  1.00 24.96 LIG-0.65  OA
ATOM     32 OXT  LEU C   5      18.920  -3.657  17.034  1.00 24.51 LIG-0.65  OA
ENDBRANCH 29 30
BRANCH 29 33
ATOM     33  CB  LEU C   5      17.740  -1.125  17.010  1.00 23.93 LIG 0.04  C 
BRANCH 33 34
ATOM     34  CG  LEU C   5      16.899   0.165  17.130  1.00 26.81 LIG-0.02  C 
ATOM     35  CD1 LEU C   5      16.228   0.263  18.505  1.00 29.09 LIG 0.01  C 
ATOM     36  CD2 LEU C   5      17.720   1.412  16.866  1.00 28.70 LIG 0.01  C 
ENDBRANCH 33 34
ENDBRANCH 29 33
ENDBRANCH 26 29
ENDBRANCH 24 25
BRANCH 24 37
ATOM     37  CB  ILE C   4      22.456   0.080  18.767  1.00 24.66 LIG 0.01  C 
ATOM     38  CG2 ILE C   4      23.366   0.513  17.609  1.00 24.52 LIG 0.01  C 
BRANCH 37 39
ATOM     39  CG1 ILE C   4      23.251  -0.132  20.060  1.00 25.15 LIG 0.00  C 
ATOM     40  CD1 ILE C   4      24.610   0.518  20.081  1.00 24.74 LIG 0.01  C 
ENDBRANCH 37 39
ENDBRANCH 24 37
ENDBRANCH 22 24
ENDBRANCH 1 20
BRANCH 1 41
ATOM     41  CB  LYS C   3      24.116   3.497  21.634  1.00 27.76 LIG 0.04  C 
BRANCH 41 42
ATOM     42  CG  LYS C   3      24.826   4.627  22.314  1.00 29.79 LIG 0.00  C 
BRANCH 42 43
ATOM     43  CD  LYS C   3      24.640   4.559  23.801  1.00 31.63 LIG 0.03  C 
BRANCH 43 44
ATOM     44  CE  LYS C   3      25.469   5.624  24.499  1.00 35.23 LIG 0.23  C 
BRANCH 44 45
ATOM     45  NZ  LYS C   3      26.408   6.305  23.569  1.00 39.07 LIG-0.08  N 
ATOM     46 HZ3  LYS C   3      25.961   6.599  22.857  1.00 39.07 LIG 0.27  HD
ATOM     47 HZ2  LYS C   3      27.036   5.730  23.308  1.00 39.07 LIG 0.27  HD
ATOM     48 HZ1  LYS C   3      26.790   6.994  23.984  1.00 39.07 LIG 0.27  HD
ENDBRANCH 44 45
ENDBRANCH 43 44
ENDBRANCH 42 43
ENDBRANCH 41 42
ENDBRANCH 1 41
TORSDOF 20
ENDMDL
MODEL 18
USER: ADFR SOLUTION from run 78
USER: SCORE 16.371891 LL:  -2.326 LR: -15.169 RR:   0.000 FEB:  -9.203
USER: RMSD 3.696546
USER: SEED 77
USER: STATUS no improvement in best in 10 clusters for 5 generations
USER: GENES 22
USER: genes 0 Translation |==|  0.58464 0.51796 0.49768
USER: genes 1 Rotation |==|  0.51982 0.60328 0.48153 0.98847
USER: genes 2 Torsion [C]-CA--N-[C] |==|  0.82125
USER: genes 3 Torsion [N]-C--CA-[N] |==|  0.40472
USER: genes 4 Torsion [C]-CA--CB-[CG] |==|  0.45365
USER: genes 5 Torsion [CA]-CB--CG-[CD] |==|  0.66095
USER: genes 6 Torsion [CB]-CG--CD-[NE] |==|  0.76798
USER: genes 7 Torsion [CG]-CD--NE-[CZ] |==|  0.73932
USER: genes 8 Torsion [N]-CA--C-[N] |==|  0.90215
USER: genes 9 Torsion [C]-N--CA-[CB] |==|  0.20030
USER: genes 10 Torsion [N]-CA--C-[N] |==|  0.32801
USER: genes 11 Torsion [C]-N--CA-[C] |==|  0.83203
USER: genes 12 Torsion [N]-CA--C-[O] |==|  0.22589
USER: genes 13 Torsion [N]-CA--CB-[CG] |==|  0.82663
USER: genes 14 Torsion [CA]-CB--CG-[CD1] |==|  0.87222
USER: genes 15 Torsion [N]-CA--CB-[CG2] |==|  0.19861
USER: genes 16 Torsion [CA]-CB--CG1-[CD1] |==|  0.06353
USER: genes 17 Torsion [N]-CA--CB-[CG] |==|  0.51420
USER: genes 18 Torsion [CA]-CB--CG-[CD] |==|  0.60788
USER: genes 19 Torsion [CB]-CG--CD-[CE] |==|  0.23362
USER: genes 20 Torsion [CG]-CD--CE-[NZ] |==|  0.27644
USER: genes 21 Torsion [CD]-CE--NZ-[HZ2] |==|  0.84850
ROOT
ATOM      1  CA  LYS C   3      22.432   3.830  21.262  1.00 27.41 LIG 0.18  C 
ENDROOT
BRANCH 1 2
ATOM      2  N   LYS C   3      21.610   3.536  22.449  1.00 28.91 LIG-0.35  N 
ATOM      3  C   ARG C   2      20.322   3.866  22.464  1.00 30.62 LIG 0.26  C 
ATOM      4 O    ARG C   2      19.743   4.235  21.441  1.00 31.16 LIG-0.27  OA
ATOM      5 H    LYS C   3      22.026   3.150  23.095  1.00 28.91 LIG 0.16  HD
BRANCH 3 6
ATOM      6  CA  ARG C   2      19.528   3.801  23.786  1.00 31.50 LIG 0.40  C 
ATOM      7  N   ARG C   2      18.511   4.877  23.835  1.00 33.48 LIG 0.61  N 
BRANCH 6 8
ATOM      8  CB  ARG C   2      18.888   2.440  24.072  1.00 31.91 LIG 0.05  C 
BRANCH 8 9
ATOM      9  CG  ARG C   2      18.446   2.216  25.519  1.00 31.74 LIG 0.02  C 
BRANCH 9 10
ATOM     10  CD  ARG C   2      19.121   0.992  26.124  1.00 33.46 LIG 0.14  C 
BRANCH 10 11
ATOM     11  NE  ARG C   2      18.460  -0.284  25.810  1.00 33.35 LIG-0.23  N 
ATOM     12  CZ  ARG C   2      17.549  -0.897  26.564  1.00 33.45 LIG 0.67  C 
ATOM     13  NH1 ARG C   2      17.136  -0.360  27.698  1.00 31.52 LIG-0.23  N 
ATOM     14  NH2 ARG C   2      17.032  -2.060  26.171  1.00 34.66 LIG-0.23  N 
ATOM     15 1HH1 ARG C   2      17.456   0.395  27.957  1.00 31.52 LIG 0.17  HD
ATOM     16 2HH1 ARG C   2      16.548  -0.765  28.176  1.00 31.52 LIG 0.17  HD
ATOM     17 1HH2 ARG C   2      17.286  -2.415  25.430  1.00 34.66 LIG 0.17  HD
ATOM     18 2HH2 ARG C   2      16.443  -2.455  26.658  1.00 34.66 LIG 0.17  HD
ATOM     19 HE   ARG C   2      18.681  -0.669  25.074  1.00 33.35 LIG 0.18  HD
ENDBRANCH 10 11
ENDBRANCH 9 10
ENDBRANCH 8 9
ENDBRANCH 6 8
ENDBRANCH 3 6
ENDBRANCH 1 2
BRANCH 1 20
ATOM     20  C   LYS C   3      22.061   3.109  19.971  1.00 25.28 LIG 0.24  C 
ATOM     21 O    LYS C   3      22.216   3.690  18.913  1.00 21.80 LIG-0.27  OA
ATOM     22  N   ILE C   4      21.608   1.864  20.043  1.00 24.70 LIG-0.35  N 
ATOM     23 H    ILE C   4      21.410   1.459  20.775  1.00 24.70 LIG 0.16  HD
BRANCH 22 24
ATOM     24  CA  ILE C   4      21.410   1.071  18.828  1.00 24.27 LIG 0.18  C 
BRANCH 24 25
ATOM     25  C   ILE C   4      20.520  -0.159  19.048  1.00 24.50 LIG 0.24  C 
ATOM     26  N   LEU C   5      19.385  -0.187  18.350  1.00 23.50 LIG-0.34  N 
ATOM     27 H    LEU C   5      19.126   0.458  17.844  1.00 23.50 LIG 0.16  HD
ATOM     28 O    ILE C   4      20.866  -1.066  19.811  1.00 23.85 LIG-0.27  OA
BRANCH 26 29
ATOM     29  CA  LEU C   5      18.465  -1.321  18.375  1.00 24.14 LIG 0.18  C 
BRANCH 29 30
ATOM     30  C   LEU C   5      19.181  -2.577  17.865  1.00 24.32 LIG 0.20  C 
ATOM     31 O    LEU C   5      19.910  -3.217  18.636  1.00 24.96 LIG-0.65  OA
ATOM     32 OXT  LEU C   5      19.036  -3.008  16.713  1.00 24.51 LIG-0.65  OA
ENDBRANCH 29 30
BRANCH 29 33
ATOM     33  CB  LEU C   5      17.228  -1.009  17.524  1.00 23.93 LIG 0.04  C 
BRANCH 33 34
ATOM     34  CG  LEU C   5      16.319   0.169  17.936  1.00 26.81 LIG-0.02  C 
ATOM     35  CD1 LEU C   5      16.025   0.142  19.440  1.00 29.09 LIG 0.01  C 
ATOM     36  CD2 LEU C   5      16.909   1.511  17.550  1.00 28.70 LIG 0.01  C 
ENDBRANCH 33 34
ENDBRANCH 29 33
ENDBRANCH 26 29
ENDBRANCH 24 25
BRANCH 24 37
ATOM     37  CB  ILE C   4      22.740   0.640  18.198  1.00 24.66 LIG 0.01  C 
ATOM     38  CG2 ILE C   4      23.419  -0.438  19.055  1.00 24.52 LIG 0.01  C 
BRANCH 37 39
ATOM     39  CG1 ILE C   4      22.540   0.169  16.753  1.00 25.15 LIG 0.00  C 
ATOM     40  CD1 ILE C   4      21.302   0.702  16.080  1.00 24.74 LIG 0.01  C 
ENDBRANCH 37 39
ENDBRANCH 24 37
ENDBRANCH 22 24
ENDBRANCH 1 20
BRANCH 1 41
ATOM     41  CB  LYS C   3      23.927   3.662  21.505  1.00 27.76 LIG 0.04  C 
BRANCH 41 42
ATOM     42  CG  LYS C   3      24.764   4.079  20.335  1.00 29.79 LIG 0.00  C 
BRANCH 42 43
ATOM     43  CD  LYS C   3      25.927   3.150  20.150  1.00 31.63 LIG 0.03  C 
BRANCH 43 44
ATOM     44  CE  LYS C   3      25.519   1.926  19.348  1.00 35.23 LIG 0.23  C 
BRANCH 44 45
ATOM     45  NZ  LYS C   3      25.910   2.034  17.918  1.00 39.07 LIG-0.08  N 
ATOM     46 HZ3  LYS C   3      26.798   2.042  17.852  1.00 39.07 LIG 0.27  HD
ATOM     47 HZ2  LYS C   3      25.580   2.787  17.576  1.00 39.07 LIG 0.27  HD
ATOM     48 HZ1  LYS C   3      25.586   1.337  17.468  1.00 39.07 LIG 0.27  HD
ENDBRANCH 44 45
ENDBRANCH 43 44
ENDBRANCH 42 43
ENDBRANCH 41 42
ENDBRANCH 1 41
TORSDOF 20
ENDMDL
MODEL 19
USER: ADFR SOLUTION from run 187
USER: SCORE 16.367088 LL:  -2.816 LR: -15.116 RR:   0.000 FEB:  -9.150
USER: RMSD 3.867788
USER: SEED 186
USER: STATUS no improvement in best in 11 clusters for 5 generations
USER: GENES 22
USER: genes 0 Translation |==|  0.58501 0.52985 0.48585
USER: genes 1 Rotation |==|  0.53082 0.62192 0.50551 0.98390
USER: genes 2 Torsion [C]-CA--N-[C] |==|  0.70299
USER: genes 3 Torsion [N]-C--CA-[N] |==|  0.81060
USER: genes 4 Torsion [C]-CA--CB-[CG] |==|  0.02099
USER: genes 5 Torsion [CA]-CB--CG-[CD] |==|  0.23911
USER: genes 6 Torsion [CB]-CG--CD-[NE] |==|  0.66056
USER: genes 7 Torsion [CG]-CD--NE-[CZ] |==|  0.79497
USER: genes 8 Torsion [N]-CA--C-[N] |==|  0.88404
USER: genes 9 Torsion [C]-N--CA-[CB] |==|  0.38335
USER: genes 10 Torsion [N]-CA--C-[N] |==|  0.88415
USER: genes 11 Torsion [C]-N--CA-[C] |==|  0.63566
USER: genes 12 Torsion [N]-CA--C-[O] |==|  0.97329
USER: genes 13 Torsion [N]-CA--CB-[CG] |==|  0.83054
USER: genes 14 Torsion [CA]-CB--CG-[CD1] |==|  0.88190
USER: genes 15 Torsion [N]-CA--CB-[CG2] |==|  0.61687
USER: genes 16 Torsion [CA]-CB--CG1-[CD1] |==|  0.67431
USER: genes 17 Torsion [N]-CA--CB-[CG] |==|  0.48276
USER: genes 18 Torsion [CA]-CB--CG-[CD] |==|  0.67537
USER: genes 19 Torsion [CB]-CG--CD-[CE] |==|  0.88610
USER: genes 20 Torsion [CG]-CD--CE-[NZ] |==|  0.86727
USER: genes 21 Torsion [CD]-CE--NZ-[HZ2] |==|  0.85484
ROOT
ATOM      1  CA  LYS C   3      22.438   4.027  21.014  1.00 27.41 LIG 0.18  C 
ENDROOT
BRANCH 1 2
ATOM      2  N   LYS C   3      21.734   3.586  22.231  1.00 28.91 LIG-0.35  N 
ATOM      3  C   ARG C   2      20.832   4.380  22.801  1.00 30.62 LIG 0.26  C 
ATOM      4 O    ARG C   2      20.422   5.394  22.234  1.00 31.16 LIG-0.27  OA
ATOM      5 H    LYS C   3      21.954   2.806  22.518  1.00 28.91 LIG 0.16  HD
BRANCH 3 6
ATOM      6  CA  ARG C   2      20.291   4.040  24.206  1.00 31.50 LIG 0.40  C 
ATOM      7  N   ARG C   2      19.461   2.813  24.160  1.00 33.48 LIG 0.61  N 
BRANCH 6 8
ATOM      8  CB  ARG C   2      21.368   3.923  25.287  1.00 31.91 LIG 0.05  C 
BRANCH 8 9
ATOM      9  CG  ARG C   2      22.777   4.333  24.854  1.00 31.74 LIG 0.02  C 
BRANCH 9 10
ATOM     10  CD  ARG C   2      22.994   5.832  25.014  1.00 33.46 LIG 0.14  C 
BRANCH 10 11
ATOM     11  NE  ARG C   2      23.374   6.527  23.775  1.00 33.35 LIG-0.23  N 
ATOM     12  CZ  ARG C   2      24.564   6.467  23.180  1.00 33.45 LIG 0.67  C 
ATOM     13  NH1 ARG C   2      25.532   5.719  23.677  1.00 31.52 LIG-0.23  N 
ATOM     14  NH2 ARG C   2      24.785   7.155  22.061  1.00 34.66 LIG-0.23  N 
ATOM     15 1HH1 ARG C   2      25.398   5.263  24.393  1.00 31.52 LIG 0.17  HD
ATOM     16 2HH1 ARG C   2      26.296   5.688  23.285  1.00 31.52 LIG 0.17  HD
ATOM     17 1HH2 ARG C   2      24.159   7.639  21.723  1.00 34.66 LIG 0.17  HD
ATOM     18 2HH2 ARG C   2      25.554   7.116  21.677  1.00 34.66 LIG 0.17  HD
ATOM     19 HE   ARG C   2      22.774   7.016  23.400  1.00 33.35 LIG 0.18  HD
ENDBRANCH 10 11
ENDBRANCH 9 10
ENDBRANCH 8 9
ENDBRANCH 6 8
ENDBRANCH 3 6
ENDBRANCH 1 2
BRANCH 1 20
ATOM     20  C   LYS C   3      22.035   3.358  19.704  1.00 25.28 LIG 0.24  C 
ATOM     21 O    LYS C   3      21.945   4.043  18.702  1.00 21.80 LIG-0.27  OA
ATOM     22  N   ILE C   4      21.823   2.048  19.695  1.00 24.70 LIG-0.35  N 
ATOM     23 H    ILE C   4      21.796   1.554  20.398  1.00 24.70 LIG 0.16  HD
BRANCH 22 24
ATOM     24  CA  ILE C   4      21.611   1.336  18.433  1.00 24.27 LIG 0.18  C 
BRANCH 24 25
ATOM     25  C   ILE C   4      20.127   1.110  18.110  1.00 24.50 LIG 0.24  C 
ATOM     26  N   LEU C   5      19.358   0.745  19.135  1.00 23.50 LIG-0.34  N 
ATOM     27 H    LEU C   5      19.665   0.590  19.923  1.00 23.50 LIG 0.16  HD
ATOM     28 O    ILE C   4      19.693   1.284  16.968  1.00 23.85 LIG-0.27  OA
BRANCH 26 29
ATOM     29  CA  LEU C   5      17.913   0.571  19.021  1.00 24.14 LIG 0.18  C 
BRANCH 29 30
ATOM     30  C   LEU C   5      17.212   1.318  20.163  1.00 24.32 LIG 0.20  C 
ATOM     31 O    LEU C   5      17.889   1.785  21.090  1.00 24.96 LIG-0.65  OA
ATOM     32 OXT  LEU C   5      15.989   1.509  20.186  1.00 24.51 LIG-0.65  OA
ENDBRANCH 29 30
BRANCH 29 33
ATOM     33  CB  LEU C   5      17.562  -0.921  19.043  1.00 23.93 LIG 0.04  C 
BRANCH 33 34
ATOM     34  CG  LEU C   5      18.126  -1.834  17.933  1.00 26.81 LIG-0.02  C 
ATOM     35  CD1 LEU C   5      18.034  -1.159  16.560  1.00 29.09 LIG 0.01  C 
ATOM     36  CD2 LEU C   5      19.557  -2.253  18.206  1.00 28.70 LIG 0.01  C 
ENDBRANCH 33 34
ENDBRANCH 29 33
ENDBRANCH 26 29
ENDBRANCH 24 25
BRANCH 24 37
ATOM     37  CB  ILE C   4      22.357  -0.003  18.394  1.00 24.66 LIG 0.01  C 
ATOM     38  CG2 ILE C   4      23.012  -0.216  17.022  1.00 24.52 LIG 0.01  C 
BRANCH 37 39
ATOM     39  CG1 ILE C   4      23.383  -0.096  19.530  1.00 25.15 LIG 0.00  C 
ATOM     40  CD1 ILE C   4      24.816  -0.214  19.079  1.00 24.74 LIG 0.01  C 
ENDBRANCH 37 39
ENDBRANCH 24 37
ENDBRANCH 22 24
ENDBRANCH 1 20
BRANCH 1 41
ATOM     41  CB  LYS C   3      23.955   3.977  21.142  1.00 27.76 LIG 0.04  C 
BRANCH 41 42
ATOM     42  CG  LYS C   3      24.665   4.284  19.859  1.00 29.79 LIG 0.00  C 
BRANCH 42 43
ATOM     43  CD  LYS C   3      25.462   3.102  19.391  1.00 31.63 LIG 0.03  C 
BRANCH 43 44
ATOM     44  CE  LYS C   3      26.161   2.425  20.557  1.00 35.23 LIG 0.23  C 
BRANCH 44 45
ATOM     45  NZ  LYS C   3      26.867   3.397  21.432  1.00 39.07 LIG-0.08  N 
ATOM     46 HZ3  LYS C   3      26.271   3.909  21.850  1.00 39.07 LIG 0.27  HD
ATOM     47 HZ2  LYS C   3      27.401   3.909  20.936  1.00 39.07 LIG 0.27  HD
ATOM     48 HZ1  LYS C   3      27.353   2.957  22.034  1.00 39.07 LIG 0.27  HD
ENDBRANCH 44 45
ENDBRANCH 43 44
ENDBRANCH 42 43
ENDBRANCH 41 42
ENDBRANCH 1 41
TORSDOF 20
ENDMDL
MODEL 20
USER: ADFR SOLUTION from run 102
USER: SCORE 15.946863 LL:  -2.118 LR: -15.098 RR:   0.000 FEB:  -9.132
USER: RMSD 3.088138
USER: SEED 101
USER: STATUS no improvement in best in 5 clusters for 5 generations
USER: GENES 22
USER: genes 0 Translation |==|  0.59325 0.49729 0.48579
USER: genes 1 Rotation |==|  0.52726 0.59133 0.39840 0.98020
USER: genes 2 Torsion [C]-CA--N-[C] |==|  0.84557
USER: genes 3 Torsion [N]-C--CA-[N] |==|  0.75544
USER: genes 4 Torsion [C]-CA--CB-[CG] |==|  0.74251
USER: genes 5 Torsion [CA]-CB--CG-[CD] |==|  0.47709
USER: genes 6 Torsion [CB]-CG--CD-[NE] |==|  0.80055
USER: genes 7 Torsion [CG]-CD--NE-[CZ] |==|  0.58190
USER: genes 8 Torsion [N]-CA--C-[N] |==|  0.86933
USER: genes 9 Torsion [C]-N--CA-[CB] |==|  0.26667
USER: genes 10 Torsion [N]-CA--C-[N] |==|  0.31310
USER: genes 11 Torsion [C]-N--CA-[C] |==|  0.19692
USER: genes 12 Torsion [N]-CA--C-[O] |==|  0.68230
USER: genes 13 Torsion [N]-CA--CB-[CG] |==|  0.90721
USER: genes 14 Torsion [CA]-CB--CG-[CD1] |==|  0.36664
USER: genes 15 Torsion [N]-CA--CB-[CG2] |==|  0.68687
USER: genes 16 Torsion [CA]-CB--CG1-[CD1] |==|  0.70757
USER: genes 17 Torsion [N]-CA--CB-[CG] |==|  0.75894
USER: genes 18 Torsion [CA]-CB--CG-[CD] |==|  0.17294
USER: genes 19 Torsion [CB]-CG--CD-[CE] |==|  0.71262
USER: genes 20 Torsion [CG]-CD--CE-[NZ] |==|  0.88812
USER: genes 21 Torsion [CD]-CE--NZ-[HZ2] |==|  0.10803
ROOT
ATOM      1  CA  LYS C   3      22.574   3.489  21.013  1.00 27.41 LIG 0.18  C 
ENDROOT
BRANCH 1 2
ATOM      2  N   LYS C   3      21.677   3.534  22.180  1.00 28.91 LIG-0.35  N 
ATOM      3  C   ARG C   2      20.488   4.124  22.083  1.00 30.62 LIG 0.26  C 
ATOM      4 O    ARG C   2      20.030   4.464  20.992  1.00 31.16 LIG-0.27  OA
ATOM      5 H    LYS C   3      21.983   3.160  22.891  1.00 28.91 LIG 0.16  HD
BRANCH 3 6
ATOM      6  CA  ARG C   2      19.664   4.403  23.358  1.00 31.50 LIG 0.40  C 
ATOM      7  N   ARG C   2      18.815   3.236  23.693  1.00 33.48 LIG 0.61  N 
BRANCH 6 8
ATOM      8  CB  ARG C   2      20.498   4.828  24.569  1.00 31.91 LIG 0.05  C 
BRANCH 8 9
ATOM      9  CG  ARG C   2      20.932   3.692  25.497  1.00 31.74 LIG 0.02  C 
BRANCH 9 10
ATOM     10  CD  ARG C   2      21.917   4.179  26.551  1.00 33.46 LIG 0.14  C 
BRANCH 10 11
ATOM     11  NE  ARG C   2      23.258   4.491  26.031  1.00 33.35 LIG-0.23  N 
ATOM     12  CZ  ARG C   2      24.399   4.395  26.710  1.00 33.45 LIG 0.67  C 
ATOM     13  NH1 ARG C   2      24.410   3.967  27.959  1.00 31.52 LIG-0.23  N 
ATOM     14  NH2 ARG C   2      25.551   4.720  26.125  1.00 34.66 LIG-0.23  N 
ATOM     15 1HH1 ARG C   2      23.674   3.746  28.344  1.00 31.52 LIG 0.17  HD
ATOM     16 2HH1 ARG C   2      25.153   3.909  28.388  1.00 31.52 LIG 0.17  HD
ATOM     17 1HH2 ARG C   2      25.558   4.991  25.309  1.00 34.66 LIG 0.17  HD
ATOM     18 2HH2 ARG C   2      26.289   4.658  26.564  1.00 34.66 LIG 0.17  HD
ATOM     19 HE   ARG C   2      23.309   4.760  25.216  1.00 33.35 LIG 0.18  HD
ENDBRANCH 10 11
ENDBRANCH 9 10
ENDBRANCH 8 9
ENDBRANCH 6 8
ENDBRANCH 3 6
ENDBRANCH 1 2
BRANCH 1 20
ATOM     20  C   LYS C   3      22.012   2.874  19.735  1.00 25.28 LIG 0.24  C 
ATOM     21 O    LYS C   3      22.194   3.452  18.680  1.00 21.80 LIG-0.27  OA
ATOM     22  N   ILE C   4      21.370   1.716  19.814  1.00 24.70 LIG-0.35  N 
ATOM     23 H    ILE C   4      21.154   1.327  20.550  1.00 24.70 LIG 0.16  HD
BRANCH 22 24
ATOM     24  CA  ILE C   4      20.972   1.000  18.600  1.00 24.27 LIG 0.18  C 
BRANCH 24 25
ATOM     25  C   ILE C   4      19.574   0.374  18.699  1.00 24.50 LIG 0.24  C 
ATOM     26  N   LEU C   5      18.644   0.902  17.903  1.00 23.50 LIG-0.34  N 
ATOM     27 H    LEU C   5      18.786   1.584  17.399  1.00 23.50 LIG 0.16  HD
ATOM     28 O    ILE C   4      19.354  -0.574  19.458  1.00 23.85 LIG-0.27  OA
BRANCH 26 29
ATOM     29  CA  LEU C   5      17.286   0.372  17.808  1.00 24.14 LIG 0.18  C 
BRANCH 29 30
ATOM     30  C   LEU C   5      16.522   0.680  19.101  1.00 24.32 LIG 0.20  C 
ATOM     31 O    LEU C   5      16.163  -0.254  19.833  1.00 24.96 LIG-0.65  OA
ATOM     32 OXT  LEU C   5      16.272   1.834  19.472  1.00 24.51 LIG-0.65  OA
ENDBRANCH 29 30
BRANCH 29 33
ATOM     33  CB  LEU C   5      17.332  -1.136  17.541  1.00 23.93 LIG 0.04  C 
BRANCH 33 34
ATOM     34  CG  LEU C   5      18.484  -1.706  16.684  1.00 26.81 LIG-0.02  C 
ATOM     35  CD1 LEU C   5      19.121  -2.929  17.356  1.00 29.09 LIG 0.01  C 
ATOM     36  CD2 LEU C   5      18.034  -2.065  15.282  1.00 28.70 LIG 0.01  C 
ENDBRANCH 33 34
ENDBRANCH 29 33
ENDBRANCH 26 29
ENDBRANCH 24 25
BRANCH 24 37
ATOM     37  CB  ILE C   4      21.992  -0.075  18.205  1.00 24.66 LIG 0.01  C 
ATOM     38  CG2 ILE C   4      22.689   0.300  16.889  1.00 24.52 LIG 0.01  C 
BRANCH 37 39
ATOM     39  CG1 ILE C   4      23.003  -0.318  19.330  1.00 25.15 LIG 0.00  C 
ATOM     40  CD1 ILE C   4      24.371   0.264  19.088  1.00 24.74 LIG 0.01  C 
ENDBRANCH 37 39
ENDBRANCH 24 37
ENDBRANCH 22 24
ENDBRANCH 1 20
BRANCH 1 41
ATOM     41  CB  LYS C   3      23.924   2.850  21.312  1.00 27.76 LIG 0.04  C 
BRANCH 41 42
ATOM     42  CG  LYS C   3      24.931   3.822  21.844  1.00 29.79 LIG 0.00  C 
BRANCH 42 43
ATOM     43  CD  LYS C   3      24.478   4.403  23.150  1.00 31.63 LIG 0.03  C 
BRANCH 43 44
ATOM     44  CE  LYS C   3      23.957   5.818  22.962  1.00 35.23 LIG 0.23  C 
BRANCH 44 45
ATOM     45  NZ  LYS C   3      24.785   6.599  22.006  1.00 39.07 LIG-0.08  N 
ATOM     46 HZ3  LYS C   3      24.308   7.281  21.688  1.00 39.07 LIG 0.27  HD
ATOM     47 HZ2  LYS C   3      25.037   6.074  21.333  1.00 39.07 LIG 0.27  HD
ATOM     48 HZ1  LYS C   3      25.506   6.912  22.424  1.00 39.07 LIG 0.27  HD
ENDBRANCH 44 45
ENDBRANCH 43 44
ENDBRANCH 42 43
ENDBRANCH 41 42
ENDBRANCH 1 41
TORSDOF 20
ENDMDL
MODEL 21
USER: ADFR SOLUTION from run 7
USER: SCORE 17.201909 LL:  -3.868 LR: -15.035 RR:   0.000 FEB:  -9.069
USER: RMSD 3.787740
USER: SEED 428688
USER: STATUS no improvement in best in 8 clusters for 5 generations
USER: GENES 22
USER: genes 0 Translation |==|  0.59632 0.51013 0.50719
USER: genes 1 Rotation |==|  0.55360 0.55286 0.43254 0.98968
USER: genes 2 Torsion [C]-CA--N-[C] |==|  0.74290
USER: genes 3 Torsion [N]-C--CA-[N] |==|  0.32883
USER: genes 4 Torsion [C]-CA--CB-[CG] |==|  0.84830
USER: genes 5 Torsion [CA]-CB--CG-[CD] |==|  0.26849
USER: genes 6 Torsion [CB]-CG--CD-[NE] |==|  0.71398
USER: genes 7 Torsion [CG]-CD--NE-[CZ] |==|  0.43416
USER: genes 8 Torsion [N]-CA--C-[N] |==|  0.85018
USER: genes 9 Torsion [C]-N--CA-[CB] |==|  0.34670
USER: genes 10 Torsion [N]-CA--C-[N] |==|  0.92525
USER: genes 11 Torsion [C]-N--CA-[C] |==|  0.59089
USER: genes 12 Torsion [N]-CA--C-[O] |==|  0.01467
USER: genes 13 Torsion [N]-CA--CB-[CG] |==|  0.88057
USER: genes 14 Torsion [CA]-CB--CG-[CD1] |==|  0.26511
USER: genes 15 Torsion [N]-CA--CB-[CG2] |==|  0.58989
USER: genes 16 Torsion [CA]-CB--CG1-[CD1] |==|  0.77533
USER: genes 17 Torsion [N]-CA--CB-[CG] |==|  0.73062
USER: genes 18 Torsion [CA]-CB--CG-[CD] |==|  0.13751
USER: genes 19 Torsion [CB]-CG--CD-[CE] |==|  0.60354
USER: genes 20 Torsion [CG]-CD--CE-[NZ] |==|  0.07399
USER: genes 21 Torsion [CD]-CE--NZ-[HZ2] |==|  0.30655
ROOT
ATOM      1  CA  LYS C   3      22.624   3.701  21.462  1.00 27.41 LIG 0.18  C 
ENDROOT
BRANCH 1 2
ATOM      2  N   LYS C   3      21.536   3.534  22.440  1.00 28.91 LIG-0.35  N 
ATOM      3  C   ARG C   2      20.638   4.501  22.607  1.00 30.62 LIG 0.26  C 
ATOM      4 O    ARG C   2      20.571   5.454  21.828  1.00 31.16 LIG-0.27  OA
ATOM      5 H    LYS C   3      21.540   2.789  22.869  1.00 28.91 LIG 0.16  HD
BRANCH 3 6
ATOM      6  CA  ARG C   2      19.662   4.445  23.801  1.00 31.50 LIG 0.40  C 
ATOM      7  N   ARG C   2      19.858   5.617  24.687  1.00 33.48 LIG 0.61  N 
BRANCH 6 8
ATOM      8  CB  ARG C   2      18.190   4.306  23.408  1.00 31.91 LIG 0.05  C 
BRANCH 8 9
ATOM      9  CG  ARG C   2      17.667   5.368  22.439  1.00 31.74 LIG 0.02  C 
BRANCH 9 10
ATOM     10  CD  ARG C   2      17.696   4.870  20.999  1.00 33.46 LIG 0.14  C 
BRANCH 10 11
ATOM     11  NE  ARG C   2      18.805   5.404  20.194  1.00 33.35 LIG-0.23  N 
ATOM     12  CZ  ARG C   2      19.325   4.836  19.108  1.00 33.45 LIG 0.67  C 
ATOM     13  NH1 ARG C   2      18.837   3.702  18.638  1.00 31.52 LIG-0.23  N 
ATOM     14  NH2 ARG C   2      20.340   5.418  18.471  1.00 34.66 LIG-0.23  N 
ATOM     15 1HH1 ARG C   2      18.176   3.321  19.035  1.00 31.52 LIG 0.17  HD
ATOM     16 2HH1 ARG C   2      19.180   3.344  17.936  1.00 31.52 LIG 0.17  HD
ATOM     17 1HH2 ARG C   2      20.660   6.162  18.762  1.00 34.66 LIG 0.17  HD
ATOM     18 2HH2 ARG C   2      20.675   5.051  17.770  1.00 34.66 LIG 0.17  HD
ATOM     19 HE   ARG C   2      19.149   6.150  20.447  1.00 33.35 LIG 0.18  HD
ENDBRANCH 10 11
ENDBRANCH 9 10
ENDBRANCH 8 9
ENDBRANCH 6 8
ENDBRANCH 3 6
ENDBRANCH 1 2
BRANCH 1 20
ATOM     20  C   LYS C   3      22.376   3.166  20.056  1.00 25.28 LIG 0.24  C 
ATOM     21 O    LYS C   3      22.551   3.909  19.109  1.00 21.80 LIG-0.27  OA
ATOM     22  N   ILE C   4      22.004   1.900  19.912  1.00 24.70 LIG-0.35  N 
ATOM     23 H    ILE C   4      21.792   1.377  20.561  1.00 24.70 LIG 0.16  HD
BRANCH 22 24
ATOM     24  CA  ILE C   4      21.928   1.293  18.582  1.00 24.27 LIG 0.18  C 
BRANCH 24 25
ATOM     25  C   ILE C   4      20.489   0.997  18.134  1.00 24.50 LIG 0.24  C 
ATOM     26  N   LEU C   5      19.609   0.786  19.112  1.00 23.50 LIG-0.34  N 
ATOM     27 H    LEU C   5      19.825   0.761  19.944  1.00 23.50 LIG 0.16  HD
ATOM     28 O    ILE C   4      20.186   0.984  16.938  1.00 23.85 LIG-0.27  OA
BRANCH 26 29
ATOM     29  CA  LEU C   5      18.184   0.576  18.867  1.00 24.14 LIG 0.18  C 
BRANCH 29 30
ATOM     30  C   LEU C   5      17.370   1.155  20.030  1.00 24.32 LIG 0.20  C 
ATOM     31 O    LEU C   5      17.951   1.781  20.928  1.00 24.96 LIG-0.65  OA
ATOM     32 OXT  LEU C   5      16.138   1.056  20.098  1.00 24.51 LIG-0.65  OA
ENDBRANCH 29 30
BRANCH 29 33
ATOM     33  CB  LEU C   5      17.900  -0.919  18.686  1.00 23.93 LIG 0.04  C 
BRANCH 33 34
ATOM     34  CG  LEU C   5      18.867  -1.762  17.826  1.00 26.81 LIG-0.02  C 
ATOM     35  CD1 LEU C   5      19.917  -2.462  18.697  1.00 29.09 LIG 0.01  C 
ATOM     36  CD2 LEU C   5      18.137  -2.784  16.977  1.00 28.70 LIG 0.01  C 
ENDBRANCH 33 34
ENDBRANCH 29 33
ENDBRANCH 26 29
ENDBRANCH 24 25
BRANCH 24 37
ATOM     37  CB  ILE C   4      22.772   0.016  18.482  1.00 24.66 LIG 0.01  C 
ATOM     38  CG2 ILE C   4      23.335  -0.149  17.063  1.00 24.52 LIG 0.01  C 
BRANCH 37 39
ATOM     39  CG1 ILE C   4      23.884   0.006  19.536  1.00 25.15 LIG 0.00  C 
ATOM     40  CD1 ILE C   4      25.106   0.811  19.174  1.00 24.74 LIG 0.01  C 
ENDBRANCH 37 39
ENDBRANCH 24 37
ENDBRANCH 22 24
ENDBRANCH 1 20
BRANCH 1 41
ATOM     41  CB  LYS C   3      23.967   3.175  21.956  1.00 27.76 LIG 0.04  C 
BRANCH 41 42
ATOM     42  CG  LYS C   3      24.843   4.245  22.531  1.00 29.79 LIG 0.00  C 
BRANCH 42 43
ATOM     43  CD  LYS C   3      24.091   5.076  23.528  1.00 31.63 LIG 0.03  C 
BRANCH 43 44
ATOM     44  CE  LYS C   3      24.502   6.535  23.437  1.00 35.23 LIG 0.23  C 
BRANCH 44 45
ATOM     45  NZ  LYS C   3      24.997   6.897  22.082  1.00 39.07 LIG-0.08  N 
ATOM     46 HZ3  LYS C   3      25.781   7.313  22.154  1.00 39.07 LIG 0.27  HD
ATOM     47 HZ2  LYS C   3      24.410   7.435  21.686  1.00 39.07 LIG 0.27  HD
ATOM     48 HZ1  LYS C   3      25.098   6.158  21.596  1.00 39.07 LIG 0.27  HD
ENDBRANCH 44 45
ENDBRANCH 43 44
ENDBRANCH 42 43
ENDBRANCH 41 42
ENDBRANCH 1 41
TORSDOF 20
ENDMDL
MODEL 22
USER: ADFR SOLUTION from run 162
USER: SCORE 17.937929 LL:  -3.950 LR: -15.009 RR:   0.000 FEB:  -9.043
USER: RMSD 3.257498
USER: SEED 161
USER: STATUS no improvement in best in 4 clusters for 5 generations
USER: GENES 22
USER: genes 0 Translation |==|  0.62098 0.54243 0.57163
USER: genes 1 Rotation |==|  0.60570 0.53098 0.50512 0.98769
USER: genes 2 Torsion [C]-CA--N-[C] |==|  0.71675
USER: genes 3 Torsion [N]-C--CA-[N] |==|  0.41471
USER: genes 4 Torsion [C]-CA--CB-[CG] |==|  0.04080
USER: genes 5 Torsion [CA]-CB--CG-[CD] |==|  0.75316
USER: genes 6 Torsion [CB]-CG--CD-[NE] |==|  0.44581
USER: genes 7 Torsion [CG]-CD--NE-[CZ] |==|  0.68908
USER: genes 8 Torsion [N]-CA--C-[N] |==|  0.87596
USER: genes 9 Torsion [C]-N--CA-[CB] |==|  0.25475
USER: genes 10 Torsion [N]-CA--C-[N] |==|  0.97299
USER: genes 11 Torsion [C]-N--CA-[C] |==|  0.22103
USER: genes 12 Torsion [N]-CA--C-[O] |==|  0.42401
USER: genes 13 Torsion [N]-CA--CB-[CG] |==|  0.60023
USER: genes 14 Torsion [CA]-CB--CG-[CD1] |==|  0.80238
USER: genes 15 Torsion [N]-CA--CB-[CG2] |==|  0.87984
USER: genes 16 Torsion [CA]-CB--CG1-[CD1] |==|  0.82608
USER: genes 17 Torsion [N]-CA--CB-[CG] |==|  0.65009
USER: genes 18 Torsion [CA]-CB--CG-[CD] |==|  0.10841
USER: genes 19 Torsion [CB]-CG--CD-[CE] |==|  0.65318
USER: genes 20 Torsion [CG]-CD--CE-[NZ] |==|  0.08070
USER: genes 21 Torsion [CD]-CE--NZ-[HZ2] |==|  0.14931
ROOT
ATOM      1  CA  LYS C   3      23.031   4.234  22.815  1.00 27.41 LIG 0.18  C 
ENDROOT
BRANCH 1 2
ATOM      2  N   LYS C   3      21.922   3.591  23.540  1.00 28.91 LIG-0.35  N 
ATOM      3  C   ARG C   2      20.864   4.310  23.908  1.00 30.62 LIG 0.26  C 
ATOM      4 O    ARG C   2      20.691   5.456  23.490  1.00 31.16 LIG-0.27  OA
ATOM      5 H    LYS C   3      22.022   2.751  23.693  1.00 28.91 LIG 0.16  HD
BRANCH 3 6
ATOM      6  CA  ARG C   2      19.832   3.710  24.886  1.00 31.50 LIG 0.40  C 
ATOM      7  N   ARG C   2      19.215   4.776  25.709  1.00 33.48 LIG 0.61  N 
BRANCH 6 8
ATOM      8  CB  ARG C   2      18.754   2.852  24.219  1.00 31.91 LIG 0.05  C 
BRANCH 8 9
ATOM      9  CG  ARG C   2      19.049   2.432  22.778  1.00 31.74 LIG 0.02  C 
BRANCH 9 10
ATOM     10  CD  ARG C   2      18.541   3.466  21.781  1.00 33.46 LIG 0.14  C 
BRANCH 10 11
ATOM     11  NE  ARG C   2      19.159   3.381  20.449  1.00 33.35 LIG-0.23  N 
ATOM     12  CZ  ARG C   2      19.979   4.281  19.911  1.00 33.45 LIG 0.67  C 
ATOM     13  NH1 ARG C   2      20.333   5.362  20.583  1.00 31.52 LIG-0.23  N 
ATOM     14  NH2 ARG C   2      20.466   4.091  18.686  1.00 34.66 LIG-0.23  N 
ATOM     15 1HH1 ARG C   2      20.033   5.491  21.378  1.00 31.52 LIG 0.17  HD
ATOM     16 2HH1 ARG C   2      20.863   5.936  20.226  1.00 31.52 LIG 0.17  HD
ATOM     17 1HH2 ARG C   2      20.250   3.387  18.242  1.00 34.66 LIG 0.17  HD
ATOM     18 2HH2 ARG C   2      20.996   4.673  18.339  1.00 34.66 LIG 0.17  HD
ATOM     19 HE   ARG C   2      18.975   2.688  19.976  1.00 33.35 LIG 0.18  HD
ENDBRANCH 10 11
ENDBRANCH 9 10
ENDBRANCH 8 9
ENDBRANCH 6 8
ENDBRANCH 3 6
ENDBRANCH 1 2
BRANCH 1 20
ATOM     20  C   LYS C   3      23.094   4.007  21.309  1.00 25.28 LIG 0.24  C 
ATOM     21 O    LYS C   3      23.344   4.952  20.585  1.00 21.80 LIG-0.27  OA
ATOM     22  N   ILE C   4      22.900   2.780  20.841  1.00 24.70 LIG-0.35  N 
ATOM     23 H    ILE C   4      22.641   2.112  21.316  1.00 24.70 LIG 0.16  HD
BRANCH 22 24
ATOM     24  CA  ILE C   4      23.127   2.478  19.426  1.00 24.27 LIG 0.18  C 
BRANCH 24 25
ATOM     25  C   ILE C   4      22.127   1.462  18.857  1.00 24.50 LIG 0.24  C 
ATOM     26  N   LEU C   5      21.344   0.855  19.750  1.00 23.50 LIG-0.34  N 
ATOM     27 H    LEU C   5      21.417   0.974  20.598  1.00 23.50 LIG 0.16  HD
ATOM     28 O    ILE C   4      22.055   1.253  17.643  1.00 23.85 LIG-0.27  OA
BRANCH 26 29
ATOM     29  CA  LEU C   5      20.283  -0.074  19.373  1.00 24.14 LIG 0.18  C 
BRANCH 29 30
ATOM     30  C   LEU C   5      20.887  -1.448  19.061  1.00 24.32 LIG 0.20  C 
ATOM     31 O    LEU C   5      20.199  -2.466  19.220  1.00 24.96 LIG-0.65  OA
ATOM     32 OXT  LEU C   5      22.035  -1.588  18.618  1.00 24.51 LIG-0.65  OA
ENDBRANCH 29 30
BRANCH 29 33
ATOM     33  CB  LEU C   5      19.511   0.475  18.168  1.00 23.93 LIG 0.04  C 
BRANCH 33 34
ATOM     34  CG  LEU C   5      17.988   0.234  18.086  1.00 26.81 LIG-0.02  C 
ATOM     35  CD1 LEU C   5      17.675  -1.237  17.792  1.00 29.09 LIG 0.01  C 
ATOM     36  CD2 LEU C   5      17.270   0.672  19.347  1.00 28.70 LIG 0.01  C 
ENDBRANCH 33 34
ENDBRANCH 29 33
ENDBRANCH 26 29
ENDBRANCH 24 25
BRANCH 24 37
ATOM     37  CB  ILE C   4      24.559   1.997  19.161  1.00 24.66 LIG 0.01  C 
ATOM     38  CG2 ILE C   4      25.569   2.857  19.933  1.00 24.52 LIG 0.01  C 
BRANCH 37 39
ATOM     39  CG1 ILE C   4      24.712   0.509  19.495  1.00 25.15 LIG 0.00  C 
ATOM     40  CD1 ILE C   4      24.477   0.159  20.942  1.00 24.74 LIG 0.01  C 
ENDBRANCH 37 39
ENDBRANCH 24 37
ENDBRANCH 22 24
ENDBRANCH 1 20
BRANCH 1 41
ATOM     41  CB  LYS C   3      24.400   3.931  23.413  1.00 27.76 LIG 0.04  C 
BRANCH 41 42
ATOM     42  CG  LYS C   3      25.189   5.163  23.731  1.00 29.79 LIG 0.00  C 
BRANCH 42 43
ATOM     43  CD  LYS C   3      24.304   6.239  24.288  1.00 31.63 LIG 0.03  C 
BRANCH 43 44
ATOM     44  CE  LYS C   3      24.434   7.519  23.482  1.00 35.23 LIG 0.23  C 
BRANCH 44 45
ATOM     45  NZ  LYS C   3      24.785   7.256  22.061  1.00 39.07 LIG-0.08  N 
ATOM     46 HZ3  LYS C   3      24.763   8.019  21.603  1.00 39.07 LIG 0.27  HD
ATOM     47 HZ2  LYS C   3      24.199   6.683  21.712  1.00 39.07 LIG 0.27  HD
ATOM     48 HZ1  LYS C   3      25.603   6.907  22.017  1.00 39.07 LIG 0.27  HD
ENDBRANCH 44 45
ENDBRANCH 43 44
ENDBRANCH 42 43
ENDBRANCH 41 42
ENDBRANCH 1 41
TORSDOF 20
ENDMDL
MODEL 23
USER: ADFR SOLUTION from run 199
USER: SCORE 16.051357 LL:  -1.979 LR: -14.996 RR:   0.000 FEB:  -9.030
USER: RMSD 2.030858
USER: SEED 198
USER: STATUS searching
USER: GENES 22
USER: genes 0 Translation |==|  0.60002 0.51851 0.51723
USER: genes 1 Rotation |==|  0.54627 0.47636 0.45747 0.99547
USER: genes 2 Torsion [C]-CA--N-[C] |==|  0.81902
USER: genes 3 Torsion [N]-C--CA-[N] |==|  0.71853
USER: genes 4 Torsion [C]-CA--CB-[CG] |==|  0.77347
USER: genes 5 Torsion [CA]-CB--CG-[CD] |==|  0.40459
USER: genes 6 Torsion [CB]-CG--CD-[NE] |==|  0.00621
USER: genes 7 Torsion [CG]-CD--NE-[CZ] |==|  0.64815
USER: genes 8 Torsion [N]-CA--C-[N] |==|  0.86702
USER: genes 9 Torsion [C]-N--CA-[CB] |==|  0.26667
USER: genes 10 Torsion [N]-CA--C-[N] |==|  0.97268
USER: genes 11 Torsion [C]-N--CA-[C] |==|  0.21367
USER: genes 12 Torsion [N]-CA--C-[O] |==|  0.98088
USER: genes 13 Torsion [N]-CA--CB-[CG] |==|  0.53866
USER: genes 14 Torsion [CA]-CB--CG-[CD1] |==|  0.76359
USER: genes 15 Torsion [N]-CA--CB-[CG2] |==|  0.57975
USER: genes 16 Torsion [CA]-CB--CG1-[CD1] |==|  0.78322
USER: genes 17 Torsion [N]-CA--CB-[CG] |==|  0.65724
USER: genes 18 Torsion [CA]-CB--CG-[CD] |==|  0.20706
USER: genes 19 Torsion [CB]-CG--CD-[CE] |==|  0.57878
USER: genes 20 Torsion [CG]-CD--CE-[NZ] |==|  0.08809
USER: genes 21 Torsion [CD]-CE--NZ-[HZ2] |==|  0.93010
ROOT
ATOM      1  CA  LYS C   3      22.685   3.839  21.673  1.00 27.41 LIG 0.18  C 
ENDROOT
BRANCH 1 2
ATOM      2  N   LYS C   3      21.361   3.635  22.285  1.00 28.91 LIG-0.35  N 
ATOM      3  C   ARG C   2      20.279   4.163  21.720  1.00 30.62 LIG 0.26  C 
ATOM      4 O    ARG C   2      20.322   4.655  20.591  1.00 31.16 LIG-0.27  OA
ATOM      5 H    LYS C   3      21.360   3.166  23.006  1.00 28.91 LIG 0.16  HD
BRANCH 3 6
ATOM      6  CA  ARG C   2      18.941   4.177  22.489  1.00 31.50 LIG 0.40  C 
ATOM      7  N   ARG C   2      18.055   3.091  22.008  1.00 33.48 LIG 0.61  N 
BRANCH 6 8
ATOM      8  CB  ARG C   2      19.087   4.119  24.011  1.00 31.91 LIG 0.05  C 
BRANCH 8 9
ATOM      9  CG  ARG C   2      19.310   2.723  24.595  1.00 31.74 LIG 0.02  C 
BRANCH 9 10
ATOM     10  CD  ARG C   2      20.225   2.768  25.812  1.00 33.46 LIG 0.14  C 
BRANCH 10 11
ATOM     11  NE  ARG C   2      20.654   4.120  26.201  1.00 33.35 LIG-0.23  N 
ATOM     12  CZ  ARG C   2      21.912   4.518  26.378  1.00 33.45 LIG 0.67  C 
ATOM     13  NH1 ARG C   2      22.919   3.687  26.185  1.00 31.52 LIG-0.23  N 
ATOM     14  NH2 ARG C   2      22.168   5.774  26.742  1.00 34.66 LIG-0.23  N 
ATOM     15 1HH1 ARG C   2      22.766   2.877  25.941  1.00 31.52 LIG 0.17  HD
ATOM     16 2HH1 ARG C   2      23.727   3.955  26.303  1.00 31.52 LIG 0.17  HD
ATOM     17 1HH2 ARG C   2      21.521   6.328  26.862  1.00 34.66 LIG 0.17  HD
ATOM     18 2HH2 ARG C   2      22.981   6.031  26.856  1.00 34.66 LIG 0.17  HD
ATOM     19 HE   ARG C   2      20.037   4.706  26.324  1.00 33.35 LIG 0.18  HD
ENDBRANCH 10 11
ENDBRANCH 9 10
ENDBRANCH 8 9
ENDBRANCH 6 8
ENDBRANCH 3 6
ENDBRANCH 1 2
BRANCH 1 20
ATOM     20  C   LYS C   3      22.913   3.216  20.300  1.00 25.28 LIG 0.24  C 
ATOM     21 O    LYS C   3      23.430   3.893  19.430  1.00 21.80 LIG-0.27  OA
ATOM     22  N   ILE C   4      22.566   1.950  20.109  1.00 24.70 LIG-0.35  N 
ATOM     23 H    ILE C   4      22.126   1.474  20.674  1.00 24.70 LIG 0.16  HD
BRANCH 22 24
ATOM     24  CA  ILE C   4      22.927   1.257  18.871  1.00 24.27 LIG 0.18  C 
BRANCH 24 25
ATOM     25  C   ILE C   4      21.806   0.357  18.333  1.00 24.50 LIG 0.24  C 
ATOM     26  N   LEU C   5      20.768   0.172  19.148  1.00 23.50 LIG-0.34  N 
ATOM     27 H    LEU C   5      20.736   0.485  19.948  1.00 23.50 LIG 0.16  HD
ATOM     28 O    ILE C   4      21.873  -0.134  17.202  1.00 23.85 LIG-0.27  OA
BRANCH 26 29
ATOM     29  CA  LEU C   5      19.580  -0.583  18.762  1.00 24.14 LIG 0.18  C 
BRANCH 29 30
ATOM     30  C   LEU C   5      19.883  -2.085  18.817  1.00 24.32 LIG 0.20  C 
ATOM     31 O    LEU C   5      21.044  -2.464  19.030  1.00 24.96 LIG-0.65  OA
ATOM     32 OXT  LEU C   5      19.006  -2.950  18.692  1.00 24.51 LIG-0.65  OA
ENDBRANCH 29 30
BRANCH 29 33
ATOM     33  CB  LEU C   5      19.127  -0.164  17.359  1.00 23.93 LIG 0.04  C 
BRANCH 33 34
ATOM     34  CG  LEU C   5      17.722  -0.582  16.874  1.00 26.81 LIG-0.02  C 
ATOM     35  CD1 LEU C   5      17.741  -1.992  16.271  1.00 29.09 LIG 0.01  C 
ATOM     36  CD2 LEU C   5      16.688  -0.508  17.979  1.00 28.70 LIG 0.01  C 
ENDBRANCH 33 34
ENDBRANCH 29 33
ENDBRANCH 26 29
ENDBRANCH 24 25
BRANCH 24 37
ATOM     37  CB  ILE C   4      24.216   0.439  19.022  1.00 24.66 LIG 0.01  C 
ATOM     38  CG2 ILE C   4      24.946   0.328  17.676  1.00 24.52 LIG 0.01  C 
BRANCH 37 39
ATOM     39  CG1 ILE C   4      25.121   1.032  20.108  1.00 25.15 LIG 0.00  C 
ATOM     40  CD1 ILE C   4      25.900   2.250  19.687  1.00 24.74 LIG 0.01  C 
ENDBRANCH 37 39
ENDBRANCH 24 37
ENDBRANCH 22 24
ENDBRANCH 1 20
BRANCH 1 41
ATOM     41  CB  LYS C   3      23.841   3.448  22.586  1.00 27.76 LIG 0.04  C 
BRANCH 41 42
ATOM     42  CG  LYS C   3      24.811   4.564  22.821  1.00 29.79 LIG 0.00  C 
BRANCH 42 43
ATOM     43  CD  LYS C   3      24.238   5.584  23.760  1.00 31.63 LIG 0.03  C 
BRANCH 43 44
ATOM     44  CE  LYS C   3      24.820   6.960  23.486  1.00 35.23 LIG 0.23  C 
BRANCH 44 45
ATOM     45  NZ  LYS C   3      25.150   7.155  22.049  1.00 39.07 LIG-0.08  N 
ATOM     46 HZ3  LYS C   3      24.469   7.558  21.640  1.00 39.07 LIG 0.27  HD
ATOM     47 HZ2  LYS C   3      25.299   6.364  21.669  1.00 39.07 LIG 0.27  HD
ATOM     48 HZ1  LYS C   3      25.879   7.661  21.978  1.00 39.07 LIG 0.27  HD
ENDBRANCH 44 45
ENDBRANCH 43 44
ENDBRANCH 42 43
ENDBRANCH 41 42
ENDBRANCH 1 41
TORSDOF 20
ENDMDL
