MODEL 1
USER: ADFR SOLUTION from run 84
USER: SCORE 18.503409 LL:  -2.785 LR: -16.897 RR:   0.000 FEB: -10.633
USER: RMSD 2.565930
USER: SEED 83
USER: STATUS no improvement in best in 2 clusters for 5 generations
USER: GENES 23
USER: genes 0 Translation |==|  0.56344 0.48140 0.42308
USER: genes 1 Rotation |==|  0.50553 0.49676 0.51480 0.99974
USER: genes 2 Torsion [N]-CA--C-[N] |==|  0.38870
USER: genes 3 Torsion [N]-CA--C-[O] |==|  0.07162
USER: genes 4 Torsion [C]-N--CA-[CB] |==|  0.27778
USER: genes 5 Torsion [N]-CA--CB-[CG] |==|  0.04696
USER: genes 6 Torsion [CA]-CB--CG-[CD1] |==|  0.40083
USER: genes 7 Torsion [N]-CA--C-[N] |==|  0.40826
USER: genes 8 Torsion [C]-N--CA-[CB] |==|  0.37858
USER: genes 9 Torsion [N]-CA--CB-[CG1] |==|  0.54061
USER: genes 10 Torsion [N]-CA--C-[O] |==|  0.84817
USER: genes 11 Torsion [C]-CA--CB-[CG] |==|  0.09771
USER: genes 12 Torsion [CA]-CB--CG-[CD] |==|  0.22408
USER: genes 13 Torsion [CB]-CG--CD-[CE] |==|  0.28166
USER: genes 14 Torsion [CG]-CD--CE-[NZ] |==|  0.45630
USER: genes 15 Torsion [CD]-CE--NZ-[HZ2] |==|  0.14766
USER: genes 16 Torsion [C]-CA--N-[C] |==|  0.76403
USER: genes 17 Torsion [N]-C--CA-[N] |==|  0.46749
USER: genes 18 Torsion [N]-C--CA-[N] |==|  0.52619
USER: genes 19 Torsion [C]-CA--CB-[CG] |==|  0.48639
USER: genes 20 Torsion [CA]-CB--CG-[CD] |==|  0.75755
USER: genes 21 Torsion [CB]-CG--CD-[NE] |==|  0.57725
USER: genes 22 Torsion [CG]-CD--NE-[HE] |==|  0.06669
ROOT
ATOM      1  CA  LYS B  51      24.034 -23.250  -5.736  1.00 67.60 LIG 0.18  C 
ENDROOT
BRANCH 1 2
ATOM      2  C   LYS B  51      22.612 -22.841  -5.232  1.00 65.68 LIG 0.24  C 
ATOM      3  N   PRO B  52      21.902 -21.931  -5.953  1.00 68.58 LIG-0.34  N 
ATOM      4  CD  PRO B  52      22.317 -20.906  -6.941  1.00 71.17 LIG 0.13  C 
ATOM      5  CA  PRO B  52      20.495 -21.736  -5.513  1.00 62.52 LIG 0.18  C 
ATOM      6  CG  PRO B  52      21.245 -19.845  -6.806  1.00 68.49 LIG 0.02  C 
ATOM      7  CB  PRO B  52      20.006 -20.585  -6.400  1.00 62.23 LIG 0.04  C 
ATOM      8 O    LYS B  51      22.187 -23.280  -4.148  1.00 49.94 LIG-0.27  OA
BRANCH 5 9
ATOM      9  C   PRO B  52      19.627 -23.015  -5.697  1.00 62.23 LIG 0.24  C 
ATOM     10 O    PRO B  52      20.177 -24.134  -5.697  1.00 52.82 LIG-0.27  OA
ATOM     11  N   LEU B  53      18.292 -22.839  -5.774  1.00 59.38 LIG-0.35  N 
ATOM     12 H    LEU B  53      17.913 -22.081  -5.631  1.00 59.38 LIG 0.16  HD
BRANCH 11 13
ATOM     13  CA  LEU B  53      17.336 -23.916  -6.108  1.00 58.77 LIG 0.18  C 
BRANCH 13 14
ATOM     14  CB  LEU B  53      16.644 -24.504  -4.845  1.00 52.29 LIG 0.04  C 
BRANCH 14 15
ATOM     15  CG  LEU B  53      16.700 -23.686  -3.518  1.00 62.01 LIG-0.02  C 
ATOM     16  CD2 LEU B  53      17.938 -24.013  -2.672  1.00 53.58 LIG 0.01  C 
ATOM     17  CD1 LEU B  53      15.416 -23.797  -2.663  1.00 50.45 LIG 0.01  C 
ENDBRANCH 14 15
ENDBRANCH 13 14
BRANCH 13 18
ATOM     18  C   LEU B  53      16.305 -23.337  -7.105  1.00 60.22 LIG 0.24  C 
ATOM     19  N   VAL B  54      15.802 -24.168  -8.034  1.00 61.95 LIG-0.35  N 
ATOM     20 H    VAL B  54      15.973 -25.010  -8.070  1.00 61.95 LIG 0.16  HD
ATOM     21 O    LEU B  53      16.001 -22.141  -7.048  1.00 54.25 LIG-0.27  OA
BRANCH 19 22
ATOM     22  CA  VAL B  54      14.884 -23.675  -9.103  1.00 71.55 LIG 0.17  C 
BRANCH 22 23
ATOM     23  CB  VAL B  54      15.209 -24.246 -10.537  1.00 67.56 LIG 0.01  C 
ATOM     24  CG1 VAL B  54      14.496 -23.460 -11.641  1.00 60.73 LIG 0.01  C 
ATOM     25  CG2 VAL B  54      16.710 -24.276 -10.815  1.00 61.59 LIG 0.01  C 
ENDBRANCH 22 23
BRANCH 22 26
ATOM     26  C   VAL B  54      13.412 -23.894  -8.733  1.00 64.78 LIG 0.22  C 
ATOM     27 O    VAL B  54      13.013 -25.008  -8.430  1.00 73.26 LIG-0.29  OA
ENDBRANCH 22 26
ENDBRANCH 19 22
ENDBRANCH 13 18
ENDBRANCH 11 13
ENDBRANCH 5 9
ENDBRANCH 1 2
BRANCH 1 28
ATOM     28  CB  LYS B  51      24.127 -24.545  -6.584  1.00 70.72 LIG 0.04  C 
BRANCH 28 29
ATOM     29  CG  LYS B  51      22.989 -24.905  -7.542  1.00 73.15 LIG 0.00  C 
BRANCH 29 30
ATOM     30  CD  LYS B  51      23.123 -24.112  -8.847  1.00 70.67 LIG 0.03  C 
BRANCH 30 31
ATOM     31  CE  LYS B  51      23.717 -24.971  -9.957  1.00 67.82 LIG 0.23  C 
BRANCH 31 32
ATOM     32  NZ  LYS B  51      23.495 -24.334 -11.274  1.00 73.20 LIG-0.08  N 
ATOM     33 HZ2  LYS B  51      23.796 -23.497 -11.255  1.00 73.20 LIG 0.27  HD
ATOM     34 HZ3  LYS B  51      23.930 -24.791 -11.902  1.00 73.20 LIG 0.27  HD
ATOM     35 HZ1  LYS B  51      22.624 -24.331 -11.459  1.00 73.20 LIG 0.27  HD
ENDBRANCH 31 32
ENDBRANCH 30 31
ENDBRANCH 29 30
ENDBRANCH 28 29
ENDBRANCH 1 28
BRANCH 1 36
ATOM     36  N   LYS B  51      24.951 -23.376  -4.596  1.00 65.69 LIG-0.35  N 
ATOM     37 H    LYS B  51      25.034 -24.175  -4.289  1.00 65.69 LIG 0.16  HD
ATOM     38  C   PRO B  50      25.585 -22.314  -4.101  1.00 68.91 LIG 0.24  C 
ATOM     39 O    PRO B  50      25.363 -21.152  -4.512  1.00 63.49 LIG-0.27  OA
BRANCH 38 40
ATOM     40  CA  PRO B  50      26.655 -22.580  -3.000  1.00 65.85 LIG 0.18  C 
ATOM     41  N   PRO B  50      27.477 -21.376  -2.733  1.00 60.71 LIG-0.34  N 
ATOM     42  CD  PRO B  50      27.017 -20.685  -1.507  1.00 60.54 LIG 0.13  C 
ATOM     43  C   ARG B  49      28.297 -20.947  -3.748  1.00 60.43 LIG 0.26  C 
ATOM     44  CG  PRO B  50      25.834 -21.526  -1.019  1.00 54.86 LIG 0.02  C 
ATOM     45  CB  PRO B  50      25.999 -22.872  -1.636  1.00 61.52 LIG 0.04  C 
ATOM     46 O    ARG B  49      28.345 -21.521  -4.864  1.00 53.87 LIG-0.27  OA
BRANCH 43 47
ATOM     47  CA  ARG B  49      29.180 -19.687  -3.508  1.00 56.75 LIG 0.40  C 
ATOM     48  N   ARG B  49      29.859 -19.194  -4.779  1.00 50.64 LIG 0.61  N 
BRANCH 47 49
ATOM     49  CB  ARG B  49      28.334 -18.549  -2.868  1.00 51.37 LIG 0.05  C 
BRANCH 49 50
ATOM     50  CG  ARG B  49      29.118 -17.292  -2.474  1.00 44.94 LIG 0.02  C 
BRANCH 50 51
ATOM     51  CD  ARG B  49      29.708 -17.409  -1.039  1.00 41.72 LIG 0.14  C 
BRANCH 51 52
ATOM     52  NE  ARG B  49      29.872 -16.107  -0.389  1.00 39.59 LIG-0.23  N 
ATOM     53 HE   ARG B  49      29.373 -15.466  -0.671  1.00 39.59 LIG 0.18  HD
ATOM     54  CZ  ARG B  49      30.724 -15.820   0.598  1.00 39.90 LIG 0.67  C 
ATOM     55  NH1 ARG B  49      31.579 -16.745   1.051  1.00 39.18 LIG-0.23  N 
ATOM     56  NH2 ARG B  49      30.765 -14.570   1.100  1.00 31.35 LIG-0.23  N 
ATOM     57 2HH1 ARG B  49      32.125 -16.552   1.688  1.00 39.18 LIG 0.17  HD
ATOM     58 1HH1 ARG B  49      31.583 -17.533   0.706  1.00 39.18 LIG 0.17  HD
ATOM     59 1HH2 ARG B  49      30.243 -13.963   0.785  1.00 31.35 LIG 0.17  HD
ATOM     60 2HH2 ARG B  49      31.312 -14.379   1.736  1.00 31.35 LIG 0.17  HD
ENDBRANCH 51 52
ENDBRANCH 50 51
ENDBRANCH 49 50
ENDBRANCH 47 49
ENDBRANCH 43 47
ENDBRANCH 38 40
ENDBRANCH 1 36
TORSDOF 21
ENDMDL
MODEL 2
USER: ADFR SOLUTION from run 33
USER: SCORE 18.104836 LL:  -3.214 LR: -16.209 RR:   0.000 FEB:  -9.945
USER: RMSD 2.334726
USER: SEED 32
USER: STATUS 1 or 2 clusters left
USER: GENES 23
USER: genes 0 Translation |==|  0.57492 0.47622 0.43548
USER: genes 1 Rotation |==|  0.48145 0.50713 0.50029 0.99960
USER: genes 2 Torsion [N]-CA--C-[N] |==|  0.40855
USER: genes 3 Torsion [N]-CA--C-[O] |==|  0.85424
USER: genes 4 Torsion [C]-N--CA-[CB] |==|  0.46693
USER: genes 5 Torsion [N]-CA--CB-[CG] |==|  0.43625
USER: genes 6 Torsion [CA]-CB--CG-[CD1] |==|  0.17610
USER: genes 7 Torsion [N]-CA--C-[N] |==|  0.25311
USER: genes 8 Torsion [C]-N--CA-[CB] |==|  0.83540
USER: genes 9 Torsion [N]-CA--CB-[CG1] |==|  0.52962
USER: genes 10 Torsion [N]-CA--C-[O] |==|  0.86028
USER: genes 11 Torsion [C]-CA--CB-[CG] |==|  0.04632
USER: genes 12 Torsion [CA]-CB--CG-[CD] |==|  0.22273
USER: genes 13 Torsion [CB]-CG--CD-[CE] |==|  0.09598
USER: genes 14 Torsion [CG]-CD--CE-[NZ] |==|  0.51955
USER: genes 15 Torsion [CD]-CE--NZ-[HZ2] |==|  0.84429
USER: genes 16 Torsion [C]-CA--N-[C] |==|  0.81214
USER: genes 17 Torsion [N]-C--CA-[N] |==|  0.43307
USER: genes 18 Torsion [N]-C--CA-[N] |==|  0.52331
USER: genes 19 Torsion [C]-CA--CB-[CG] |==|  0.47950
USER: genes 20 Torsion [CA]-CB--CG-[CD] |==|  0.78837
USER: genes 21 Torsion [CB]-CG--CD-[NE] |==|  0.61578
USER: genes 22 Torsion [CG]-CD--NE-[HE] |==|  0.04359
ROOT
ATOM      1  CA  LYS B  51      24.336 -23.367  -5.541  1.00 67.60 LIG 0.18  C 
ENDROOT
BRANCH 1 2
ATOM      2  C   LYS B  51      22.961 -22.827  -5.028  1.00 65.68 LIG 0.24  C 
ATOM      3  N   PRO B  52      22.205 -22.067  -5.868  1.00 68.58 LIG-0.34  N 
ATOM      4  CD  PRO B  52      22.551 -21.280  -7.075  1.00 71.17 LIG 0.13  C 
ATOM      5  CA  PRO B  52      20.839 -21.751  -5.374  1.00 62.52 LIG 0.18  C 
ATOM      6  CG  PRO B  52      21.502 -20.186  -7.084  1.00 68.49 LIG 0.02  C 
ATOM      7  CB  PRO B  52      20.292 -20.796  -6.441  1.00 62.23 LIG 0.04  C 
ATOM      8 O    LYS B  51      22.618 -23.022  -3.847  1.00 49.94 LIG-0.27  OA
BRANCH 5 9
ATOM      9  C   PRO B  52      19.947 -23.018  -5.223  1.00 62.23 LIG 0.24  C 
ATOM     10 O    PRO B  52      19.825 -23.799  -6.187  1.00 52.82 LIG-0.27  OA
ATOM     11  N   LEU B  53      19.406 -23.241  -4.008  1.00 59.38 LIG-0.35  N 
ATOM     12 H    LEU B  53      19.611 -22.776  -3.314  1.00 59.38 LIG 0.16  HD
BRANCH 11 13
ATOM     13  CA  LEU B  53      18.410 -24.298  -3.730  1.00 58.77 LIG 0.18  C 
BRANCH 13 14
ATOM     14  CB  LEU B  53      18.190 -24.514  -2.205  1.00 52.29 LIG 0.04  C 
BRANCH 14 15
ATOM     15  CG  LEU B  53      16.848 -25.155  -1.732  1.00 62.01 LIG-0.02  C 
ATOM     16  CD2 LEU B  53      16.662 -25.082  -0.210  1.00 53.58 LIG 0.01  C 
ATOM     17  CD1 LEU B  53      16.639 -26.604  -2.233  1.00 50.45 LIG 0.01  C 
ENDBRANCH 14 15
ENDBRANCH 13 14
BRANCH 13 18
ATOM     18  C   LEU B  53      17.097 -23.908  -4.446  1.00 60.22 LIG 0.24  C 
ATOM     19  N   VAL B  54      16.912 -24.359  -5.698  1.00 61.95 LIG-0.35  N 
ATOM     20 H    VAL B  54      17.449 -24.897  -6.100  1.00 61.95 LIG 0.16  HD
ATOM     21 O    LEU B  53      16.281 -23.175  -3.875  1.00 54.25 LIG-0.27  OA
BRANCH 19 22
ATOM     22  CA  VAL B  54      15.727 -23.947  -6.507  1.00 71.55 LIG 0.17  C 
BRANCH 22 23
ATOM     23  CB  VAL B  54      14.343 -24.323  -5.850  1.00 67.56 LIG 0.01  C 
ATOM     24  CG1 VAL B  54      13.176 -24.122  -6.820  1.00 60.73 LIG 0.01  C 
ATOM     25  CG2 VAL B  54      14.331 -25.755  -5.320  1.00 61.59 LIG 0.01  C 
ENDBRANCH 22 23
BRANCH 22 26
ATOM     26  C   VAL B  54      15.784 -22.462  -6.883  1.00 64.78 LIG 0.22  C 
ATOM     27 O    VAL B  54      15.994 -21.618  -6.025  1.00 73.26 LIG-0.29  OA
ENDBRANCH 22 26
ENDBRANCH 19 22
ENDBRANCH 13 18
ENDBRANCH 11 13
ENDBRANCH 5 9
ENDBRANCH 1 2
BRANCH 1 28
ATOM     28  CB  LYS B  51      24.320 -24.740  -6.260  1.00 70.72 LIG 0.04  C 
BRANCH 28 29
ATOM     29  CG  LYS B  51      22.995 -25.309  -6.774  1.00 73.15 LIG 0.00  C 
BRANCH 29 30
ATOM     30  CD  LYS B  51      22.622 -24.660  -8.111  1.00 70.67 LIG 0.03  C 
BRANCH 30 31
ATOM     31  CE  LYS B  51      23.862 -24.357  -8.944  1.00 67.82 LIG 0.23  C 
BRANCH 31 32
ATOM     32  NZ  LYS B  51      23.494 -23.582 -10.150  1.00 73.20 LIG-0.08  N 
ATOM     33 HZ2  LYS B  51      22.878 -24.027 -10.614  1.00 73.20 LIG 0.27  HD
ATOM     34 HZ3  LYS B  51      23.167 -22.791  -9.906  1.00 73.20 LIG 0.27  HD
ATOM     35 HZ1  LYS B  51      24.216 -23.460 -10.656  1.00 73.20 LIG 0.27  HD
ENDBRANCH 31 32
ENDBRANCH 30 31
ENDBRANCH 29 30
ENDBRANCH 28 29
ENDBRANCH 1 28
BRANCH 1 36
ATOM     36  N   LYS B  51      25.291 -23.438  -4.428  1.00 65.69 LIG-0.35  N 
ATOM     37 H    LYS B  51      25.518 -24.235  -4.200  1.00 65.69 LIG 0.16  HD
ATOM     38  C   PRO B  50      25.746 -22.333  -3.840  1.00 68.91 LIG 0.24  C 
ATOM     39 O    PRO B  50      25.317 -21.194  -4.134  1.00 63.49 LIG-0.27  OA
BRANCH 38 40
ATOM     40  CA  PRO B  50      26.875 -22.510  -2.781  1.00 65.85 LIG 0.18  C 
ATOM     41  N   PRO B  50      27.679 -21.274  -2.624  1.00 60.71 LIG-0.34  N 
ATOM     42  CD  PRO B  50      27.263 -20.525  -1.418  1.00 60.54 LIG 0.13  C 
ATOM     43  C   ARG B  49      28.437 -20.887  -3.702  1.00 60.43 LIG 0.26  C 
ATOM     44  CG  PRO B  50      26.127 -21.362  -0.823  1.00 54.86 LIG 0.02  C 
ATOM     45  CB  PRO B  50      26.295 -22.738  -1.371  1.00 61.52 LIG 0.04  C 
ATOM     46 O    ARG B  49      28.445 -21.523  -4.785  1.00 53.87 LIG-0.27  OA
BRANCH 43 47
ATOM     47  CA  ARG B  49      29.299 -19.596  -3.579  1.00 56.75 LIG 0.40  C 
ATOM     48  N   ARG B  49      29.922 -19.176  -4.903  1.00 50.64 LIG 0.61  N 
BRANCH 47 49
ATOM     49  CB  ARG B  49      28.449 -18.434  -2.987  1.00 51.37 LIG 0.05  C 
BRANCH 49 50
ATOM     50  CG  ARG B  49      29.228 -17.157  -2.650  1.00 44.94 LIG 0.02  C 
BRANCH 50 51
ATOM     51  CD  ARG B  49      30.050 -17.315  -1.338  1.00 41.72 LIG 0.14  C 
BRANCH 51 52
ATOM     52  NE  ARG B  49      29.986 -16.124  -0.488  1.00 39.59 LIG-0.23  N 
ATOM     53 HE   ARG B  49      29.367 -15.554  -0.663  1.00 39.59 LIG 0.18  HD
ATOM     54  CZ  ARG B  49      30.799 -15.839   0.533  1.00 39.90 LIG 0.67  C 
ATOM     55  NH1 ARG B  49      31.826 -16.644   0.831  1.00 39.18 LIG-0.23  N 
ATOM     56  NH2 ARG B  49      30.619 -14.699   1.229  1.00 31.35 LIG-0.23  N 
ATOM     57 2HH1 ARG B  49      32.345 -16.453   1.490  1.00 39.18 LIG 0.17  HD
ATOM     58 1HH1 ARG B  49      31.967 -17.352   0.364  1.00 39.18 LIG 0.17  HD
ATOM     59 1HH2 ARG B  49      29.983 -14.160   1.015  1.00 31.35 LIG 0.17  HD
ATOM     60 2HH2 ARG B  49      31.140 -14.510   1.887  1.00 31.35 LIG 0.17  HD
ENDBRANCH 51 52
ENDBRANCH 50 51
ENDBRANCH 49 50
ENDBRANCH 47 49
ENDBRANCH 43 47
ENDBRANCH 38 40
ENDBRANCH 1 36
TORSDOF 21
ENDMDL
MODEL 3
USER: ADFR SOLUTION from run 189
USER: SCORE 17.664646 LL:  -3.247 LR: -15.267 RR:   0.000 FEB:  -9.003
USER: RMSD 3.710967
USER: SEED 188
USER: STATUS no improvement in best in 7 clusters for 5 generations
USER: GENES 23
USER: genes 0 Translation |==|  0.56950 0.47530 0.41432
USER: genes 1 Rotation |==|  0.48191 0.48721 0.49393 0.99947
USER: genes 2 Torsion [N]-CA--C-[N] |==|  0.38010
USER: genes 3 Torsion [N]-CA--C-[O] |==|  0.12280
USER: genes 4 Torsion [C]-N--CA-[CB] |==|  0.81652
USER: genes 5 Torsion [N]-CA--CB-[CG] |==|  0.61480
USER: genes 6 Torsion [CA]-CB--CG-[CD1] |==|  0.01553
USER: genes 7 Torsion [N]-CA--C-[N] |==|  0.12800
USER: genes 8 Torsion [C]-N--CA-[CB] |==|  0.29549
USER: genes 9 Torsion [N]-CA--CB-[CG1] |==|  0.49632
USER: genes 10 Torsion [N]-CA--C-[O] |==|  0.88402
USER: genes 11 Torsion [C]-CA--CB-[CG] |==|  0.06272
USER: genes 12 Torsion [CA]-CB--CG-[CD] |==|  0.19418
USER: genes 13 Torsion [CB]-CG--CD-[CE] |==|  0.17585
USER: genes 14 Torsion [CG]-CD--CE-[NZ] |==|  0.46762
USER: genes 15 Torsion [CD]-CE--NZ-[HZ2] |==|  0.84050
USER: genes 16 Torsion [C]-CA--N-[C] |==|  0.79084
USER: genes 17 Torsion [N]-C--CA-[N] |==|  0.45540
USER: genes 18 Torsion [N]-C--CA-[N] |==|  0.52273
USER: genes 19 Torsion [C]-CA--CB-[CG] |==|  0.48442
USER: genes 20 Torsion [CA]-CB--CG-[CD] |==|  0.78475
USER: genes 21 Torsion [CB]-CG--CD-[NE] |==|  0.59427
USER: genes 22 Torsion [CG]-CD--NE-[HE] |==|  0.06240
ROOT
ATOM      1  CA  LYS B  51      24.193 -23.388  -5.874  1.00 67.60 LIG 0.18  C 
ENDROOT
BRANCH 1 2
ATOM      2  C   LYS B  51      22.794 -22.817  -5.472  1.00 65.68 LIG 0.24  C 
ATOM      3  N   PRO B  52      22.220 -21.876  -6.271  1.00 68.58 LIG-0.34  N 
ATOM      4  CD  PRO B  52      22.791 -20.944  -7.274  1.00 71.17 LIG 0.13  C 
ATOM      5  CA  PRO B  52      20.819 -21.523  -5.923  1.00 62.52 LIG 0.18  C 
ATOM      6  CG  PRO B  52      21.826 -19.777  -7.246  1.00 68.49 LIG 0.02  C 
ATOM      7  CB  PRO B  52      20.498 -20.372  -6.884  1.00 62.23 LIG 0.04  C 
ATOM      8 O    LYS B  51      22.268 -23.161  -4.398  1.00 49.94 LIG-0.27  OA
BRANCH 5 9
ATOM      9  C   PRO B  52      19.837 -22.717  -6.106  1.00 62.23 LIG 0.24  C 
ATOM     10 O    PRO B  52      20.165 -23.848  -5.697  1.00 52.82 LIG-0.27  OA
ATOM     11  N   LEU B  53      18.630 -22.437  -6.640  1.00 59.38 LIG-0.35  N 
ATOM     12 H    LEU B  53      18.361 -21.634  -6.786  1.00 59.38 LIG 0.16  HD
BRANCH 11 13
ATOM     13  CA  LEU B  53      17.643 -23.466  -7.031  1.00 58.77 LIG 0.18  C 
BRANCH 13 14
ATOM     14  CB  LEU B  53      18.140 -24.339  -8.219  1.00 52.29 LIG 0.04  C 
BRANCH 14 15
ATOM     15  CG  LEU B  53      17.125 -24.712  -9.343  1.00 62.01 LIG-0.02  C 
ATOM     16  CD2 LEU B  53      17.687 -24.473 -10.752  1.00 53.58 LIG 0.01  C 
ATOM     17  CD1 LEU B  53      15.745 -24.030  -9.189  1.00 50.45 LIG 0.01  C 
ENDBRANCH 14 15
ENDBRANCH 13 14
BRANCH 13 18
ATOM     18  C   LEU B  53      17.337 -24.324  -5.782  1.00 60.22 LIG 0.24  C 
ATOM     19  N   VAL B  54      17.102 -23.679  -4.626  1.00 61.95 LIG-0.35  N 
ATOM     20 H    VAL B  54      17.053 -22.824  -4.553  1.00 61.95 LIG 0.16  HD
ATOM     21 O    LEU B  53      17.350 -25.557  -5.866  1.00 54.25 LIG-0.27  OA
BRANCH 19 22
ATOM     22  CA  VAL B  54      16.903 -24.423  -3.347  1.00 71.55 LIG 0.17  C 
BRANCH 22 23
ATOM     23  CB  VAL B  54      18.128 -24.332  -2.358  1.00 67.56 LIG 0.01  C 
ATOM     24  CG1 VAL B  54      17.864 -25.082  -1.049  1.00 60.73 LIG 0.01  C 
ATOM     25  CG2 VAL B  54      19.417 -24.847  -2.994  1.00 61.59 LIG 0.01  C 
ENDBRANCH 22 23
BRANCH 22 26
ATOM     26  C   VAL B  54      15.594 -24.024  -2.656  1.00 64.78 LIG 0.22  C 
ATOM     27 O    VAL B  54      15.252 -22.852  -2.615  1.00 73.26 LIG-0.29  OA
ENDBRANCH 22 26
ENDBRANCH 19 22
ENDBRANCH 13 18
ENDBRANCH 11 13
ENDBRANCH 5 9
ENDBRANCH 1 2
BRANCH 1 28
ATOM     28  CB  LYS B  51      24.205 -24.760  -6.596  1.00 70.72 LIG 0.04  C 
BRANCH 28 29
ATOM     29  CG  LYS B  51      22.951 -25.237  -7.333  1.00 73.15 LIG 0.00  C 
BRANCH 29 30
ATOM     30  CD  LYS B  51      22.719 -24.390  -8.588  1.00 70.67 LIG 0.03  C 
BRANCH 30 31
ATOM     31  CE  LYS B  51      23.861 -24.551  -9.583  1.00 67.82 LIG 0.23  C 
BRANCH 31 32
ATOM     32  NZ  LYS B  51      23.494 -23.957 -10.889  1.00 73.20 LIG-0.08  N 
ATOM     33 HZ2  LYS B  51      22.750 -24.340 -11.191  1.00 73.20 LIG 0.27  HD
ATOM     34 HZ3  LYS B  51      23.357 -23.083 -10.790  1.00 73.20 LIG 0.27  HD
ATOM     35 HZ1  LYS B  51      24.154 -24.090 -11.471  1.00 73.20 LIG 0.27  HD
ENDBRANCH 31 32
ENDBRANCH 30 31
ENDBRANCH 29 30
ENDBRANCH 28 29
ENDBRANCH 1 28
BRANCH 1 36
ATOM     36  N   LYS B  51      25.054 -23.480  -4.688  1.00 65.69 LIG-0.35  N 
ATOM     37 H    LYS B  51      25.160 -24.278  -4.383  1.00 65.69 LIG 0.16  HD
ATOM     38  C   PRO B  50      25.608 -22.394  -4.152  1.00 68.91 LIG 0.24  C 
ATOM     39 O    PRO B  50      25.351 -21.240  -4.565  1.00 63.49 LIG-0.27  OA
BRANCH 38 40
ATOM     40  CA  PRO B  50      26.630 -22.619  -2.998  1.00 65.85 LIG 0.18  C 
ATOM     41  N   PRO B  50      27.450 -21.409  -2.748  1.00 60.71 LIG-0.34  N 
ATOM     42  CD  PRO B  50      26.945 -20.665  -1.572  1.00 60.54 LIG 0.13  C 
ATOM     43  C   ARG B  49      28.313 -21.028  -3.746  1.00 60.43 LIG 0.26  C 
ATOM     44  CG  PRO B  50      25.738 -21.478  -1.098  1.00 54.86 LIG 0.02  C 
ATOM     45  CB  PRO B  50      25.918 -22.850  -1.651  1.00 61.52 LIG 0.04  C 
ATOM     46 O    ARG B  49      28.403 -21.648  -4.835  1.00 53.87 LIG-0.27  OA
BRANCH 43 47
ATOM     47  CA  ARG B  49      29.195 -19.763  -3.524  1.00 56.75 LIG 0.40  C 
ATOM     48  N   ARG B  49      29.951 -19.345  -4.777  1.00 50.64 LIG 0.61  N 
BRANCH 47 49
ATOM     49  CB  ARG B  49      28.325 -18.585  -2.996  1.00 51.37 LIG 0.05  C 
BRANCH 49 50
ATOM     50  CG  ARG B  49      29.100 -17.320  -2.609  1.00 44.94 LIG 0.02  C 
BRANCH 50 51
ATOM     51  CD  ARG B  49      29.797 -17.474  -1.226  1.00 41.72 LIG 0.14  C 
BRANCH 51 52
ATOM     52  NE  ARG B  49      29.843 -16.217  -0.476  1.00 39.59 LIG-0.23  N 
ATOM     53 HE   ARG B  49      29.263 -15.618  -0.686  1.00 39.59 LIG 0.18  HD
ATOM     54  CZ  ARG B  49      30.701 -15.913   0.501  1.00 39.90 LIG 0.67  C 
ATOM     55  NH1 ARG B  49      31.673 -16.767   0.844  1.00 39.18 LIG-0.23  N 
ATOM     56  NH2 ARG B  49      30.624 -14.710   1.104  1.00 31.35 LIG-0.23  N 
ATOM     57 2HH1 ARG B  49      32.222 -16.563   1.475  1.00 39.18 LIG 0.17  HD
ATOM     58 1HH1 ARG B  49      31.750 -17.519   0.434  1.00 39.18 LIG 0.17  HD
ATOM     59 1HH2 ARG B  49      30.024 -14.144   0.860  1.00 31.35 LIG 0.17  HD
ATOM     60 2HH2 ARG B  49      31.174 -14.509   1.734  1.00 31.35 LIG 0.17  HD
ENDBRANCH 51 52
ENDBRANCH 50 51
ENDBRANCH 49 50
ENDBRANCH 47 49
ENDBRANCH 43 47
ENDBRANCH 38 40
ENDBRANCH 1 36
TORSDOF 21
ENDMDL
MODEL 4
USER: ADFR SOLUTION from run 104
USER: SCORE 17.371719 LL:  -3.327 LR: -15.242 RR:   0.000 FEB:  -8.978
USER: RMSD 3.153214
USER: SEED 103
USER: STATUS no improvement in best in 2 clusters for 5 generations
USER: GENES 23
USER: genes 0 Translation |==|  0.58934 0.50931 0.38810
USER: genes 1 Rotation |==|  0.31521 0.59899 0.60494 0.94163
USER: genes 2 Torsion [N]-CA--C-[N] |==|  0.28608
USER: genes 3 Torsion [N]-CA--C-[O] |==|  0.11496
USER: genes 4 Torsion [C]-N--CA-[CB] |==|  0.24381
USER: genes 5 Torsion [N]-CA--CB-[CG] |==|  0.34853
USER: genes 6 Torsion [CA]-CB--CG-[CD1] |==|  0.42149
USER: genes 7 Torsion [N]-CA--C-[N] |==|  0.40962
USER: genes 8 Torsion [C]-N--CA-[CB] |==|  0.84278
USER: genes 9 Torsion [N]-CA--CB-[CG1] |==|  0.46428
USER: genes 10 Torsion [N]-CA--C-[O] |==|  0.15598
USER: genes 11 Torsion [C]-CA--CB-[CG] |==|  0.21526
USER: genes 12 Torsion [CA]-CB--CG-[CD] |==|  0.10924
USER: genes 13 Torsion [CB]-CG--CD-[CE] |==|  0.72771
USER: genes 14 Torsion [CG]-CD--CE-[NZ] |==|  0.53818
USER: genes 15 Torsion [CD]-CE--NZ-[HZ2] |==|  0.79709
USER: genes 16 Torsion [C]-CA--N-[C] |==|  0.77222
USER: genes 17 Torsion [N]-C--CA-[N] |==|  0.92420
USER: genes 18 Torsion [N]-C--CA-[N] |==|  0.81382
USER: genes 19 Torsion [C]-CA--CB-[CG] |==|  0.17072
USER: genes 20 Torsion [CA]-CB--CG-[CD] |==|  0.49520
USER: genes 21 Torsion [CB]-CG--CD-[NE] |==|  0.64171
USER: genes 22 Torsion [CG]-CD--NE-[HE] |==|  0.82932
ROOT
ATOM      1  CA  LYS B  51      24.714 -22.623  -6.287  1.00 67.60 LIG 0.18  C 
ENDROOT
BRANCH 1 2
ATOM      2  C   LYS B  51      23.396 -22.235  -5.541  1.00 65.68 LIG 0.24  C 
ATOM      3  N   PRO B  52      22.416 -21.597  -6.238  1.00 68.58 LIG-0.34  N 
ATOM      4  CD  PRO B  52      22.445 -20.809  -7.494  1.00 71.17 LIG 0.13  C 
ATOM      5  CA  PRO B  52      21.131 -21.431  -5.511  1.00 62.52 LIG 0.18  C 
ATOM      6  CG  PRO B  52      21.285 -19.850  -7.324  1.00 68.49 LIG 0.02  C 
ATOM      7  CB  PRO B  52      20.291 -20.580  -6.471  1.00 62.23 LIG 0.04  C 
ATOM      8 O    LYS B  51      23.293 -22.434  -4.317  1.00 49.94 LIG-0.27  OA
BRANCH 5 9
ATOM      9  C   PRO B  52      20.441 -22.790  -5.193  1.00 62.23 LIG 0.24  C 
ATOM     10 O    PRO B  52      21.134 -23.751  -4.804  1.00 52.82 LIG-0.27  OA
ATOM     11  N   LEU B  53      19.096 -22.828  -5.286  1.00 59.38 LIG-0.35  N 
ATOM     12 H    LEU B  53      18.619 -22.125  -5.415  1.00 59.38 LIG 0.16  HD
BRANCH 11 13
ATOM     13  CA  LEU B  53      18.297 -24.067  -5.178  1.00 58.77 LIG 0.18  C 
BRANCH 13 14
ATOM     14  CB  LEU B  53      17.921 -24.400  -3.706  1.00 52.29 LIG 0.04  C 
BRANCH 14 15
ATOM     15  CG  LEU B  53      16.416 -24.613  -3.354  1.00 62.01 LIG-0.02  C 
ATOM     16  CD2 LEU B  53      15.664 -23.292  -3.142  1.00 53.58 LIG 0.01  C 
ATOM     17  CD1 LEU B  53      16.185 -25.564  -2.155  1.00 50.45 LIG 0.01  C 
ENDBRANCH 14 15
ENDBRANCH 13 14
BRANCH 13 18
ATOM     18  C   LEU B  53      17.040 -23.894  -6.062  1.00 60.22 LIG 0.24  C 
ATOM     19  N   VAL B  54      16.541 -24.990  -6.657  1.00 61.95 LIG-0.35  N 
ATOM     20 H    VAL B  54      16.840 -25.786  -6.529  1.00 61.95 LIG 0.16  HD
ATOM     21 O    LEU B  53      16.555 -22.768  -6.226  1.00 54.25 LIG-0.27  OA
BRANCH 19 22
ATOM     22  CA  VAL B  54      15.397 -24.905  -7.612  1.00 71.55 LIG 0.17  C 
BRANCH 22 23
ATOM     23  CB  VAL B  54      14.109 -24.225  -7.007  1.00 67.56 LIG 0.01  C 
ATOM     24  CG1 VAL B  54      13.085 -23.874  -8.090  1.00 60.73 LIG 0.01  C 
ATOM     25  CG2 VAL B  54      13.449 -25.096  -5.939  1.00 61.59 LIG 0.01  C 
ENDBRANCH 22 23
BRANCH 22 26
ATOM     26  C   VAL B  54      15.809 -24.248  -8.935  1.00 64.78 LIG 0.22  C 
ATOM     27 O    VAL B  54      16.734 -24.705  -9.587  1.00 73.26 LIG-0.29  OA
ENDBRANCH 22 26
ENDBRANCH 19 22
ENDBRANCH 13 18
ENDBRANCH 11 13
ENDBRANCH 5 9
ENDBRANCH 1 2
BRANCH 1 28
ATOM     28  CB  LYS B  51      25.240 -24.065  -6.071  1.00 70.72 LIG 0.04  C 
BRANCH 28 29
ATOM     29  CG  LYS B  51      24.576 -25.230  -6.810  1.00 73.15 LIG 0.00  C 
BRANCH 29 30
ATOM     30  CD  LYS B  51      24.221 -24.816  -8.243  1.00 70.67 LIG 0.03  C 
BRANCH 30 31
ATOM     31  CE  LYS B  51      22.757 -24.408  -8.354  1.00 67.82 LIG 0.23  C 
BRANCH 31 32
ATOM     32  NZ  LYS B  51      22.351 -24.332  -9.775  1.00 73.20 LIG-0.08  N 
ATOM     33 HZ2  LYS B  51      22.712 -23.610 -10.149  1.00 73.20 LIG 0.27  HD
ATOM     34 HZ3  LYS B  51      22.632 -25.059 -10.203  1.00 73.20 LIG 0.27  HD
ATOM     35 HZ1  LYS B  51      21.464 -24.281  -9.828  1.00 73.20 LIG 0.27  HD
ENDBRANCH 31 32
ENDBRANCH 30 31
ENDBRANCH 29 30
ENDBRANCH 28 29
ENDBRANCH 1 28
BRANCH 1 36
ATOM     36  N   LYS B  51      25.784 -21.681  -5.931  1.00 65.69 LIG-0.35  N 
ATOM     37 H    LYS B  51      26.316 -21.960  -5.315  1.00 65.69 LIG 0.16  HD
ATOM     38  C   PRO B  50      25.890 -20.499  -6.534  1.00 68.91 LIG 0.24  C 
ATOM     39 O    PRO B  50      25.039 -20.089  -7.356  1.00 63.49 LIG-0.27  OA
BRANCH 38 40
ATOM     40  CA  PRO B  50      27.150 -19.646  -6.200  1.00 65.85 LIG 0.18  C 
ATOM     41  N   PRO B  50      27.677 -19.953  -4.849  1.00 60.71 LIG-0.34  N 
ATOM     42  CD  PRO B  50      28.846 -20.857  -4.931  1.00 60.54 LIG 0.13  C 
ATOM     43  C   ARG B  49      26.882 -19.612  -3.782  1.00 60.43 LIG 0.26  C 
ATOM     44  CG  PRO B  50      29.020 -21.116  -6.430  1.00 54.86 LIG 0.02  C 
ATOM     45  CB  PRO B  50      28.331 -19.995  -7.128  1.00 61.52 LIG 0.04  C 
ATOM     46 O    ARG B  49      25.750 -19.086  -3.924  1.00 53.87 LIG-0.27  OA
BRANCH 43 47
ATOM     47  CA  ARG B  49      27.399 -19.914  -2.344  1.00 56.75 LIG 0.40  C 
ATOM     48  N   ARG B  49      27.496 -21.406  -2.054  1.00 50.64 LIG 0.61  N 
BRANCH 47 49
ATOM     49  CB  ARG B  49      28.774 -19.225  -2.109  1.00 51.37 LIG 0.05  C 
BRANCH 49 50
ATOM     50  CG  ARG B  49      28.767 -17.695  -2.212  1.00 44.94 LIG 0.02  C 
BRANCH 50 51
ATOM     51  CD  ARG B  49      30.172 -17.094  -1.921  1.00 41.72 LIG 0.14  C 
BRANCH 51 52
ATOM     52  NE  ARG B  49      30.131 -16.026  -0.919  1.00 39.59 LIG-0.23  N 
ATOM     53 HE   ARG B  49      29.663 -15.330  -1.112  1.00 39.59 LIG 0.18  HD
ATOM     54  CZ  ARG B  49      30.749 -16.030   0.264  1.00 39.90 LIG 0.67  C 
ATOM     55  NH1 ARG B  49      31.545 -17.048   0.613  1.00 39.18 LIG-0.23  N 
ATOM     56  NH2 ARG B  49      30.619 -14.971   1.087  1.00 31.35 LIG-0.23  N 
ATOM     57 2HH1 ARG B  49      31.940 -17.043   1.377  1.00 39.18 LIG 0.17  HD
ATOM     58 1HH1 ARG B  49      31.662 -17.708   0.073  1.00 39.18 LIG 0.17  HD
ATOM     59 1HH2 ARG B  49      30.139 -14.298   0.849  1.00 31.35 LIG 0.17  HD
ATOM     60 2HH2 ARG B  49      31.016 -14.968   1.850  1.00 31.35 LIG 0.17  HD
ENDBRANCH 51 52
ENDBRANCH 50 51
ENDBRANCH 49 50
ENDBRANCH 47 49
ENDBRANCH 43 47
ENDBRANCH 38 40
ENDBRANCH 1 36
TORSDOF 21
ENDMDL
MODEL 5
USER: ADFR SOLUTION from run 189
USER: SCORE 17.053245 LL:  -3.657 LR: -15.139 RR:   0.000 FEB:  -8.875
USER: RMSD 3.140870
USER: SEED 188
USER: STATUS no improvement in best in 7 clusters for 5 generations
USER: GENES 23
USER: genes 0 Translation |==|  0.56854 0.48098 0.42633
USER: genes 1 Rotation |==|  0.49479 0.50685 0.50735 0.99987
USER: genes 2 Torsion [N]-CA--C-[N] |==|  0.40182
USER: genes 3 Torsion [N]-CA--C-[O] |==|  0.09208
USER: genes 4 Torsion [C]-N--CA-[CB] |==|  0.42674
USER: genes 5 Torsion [N]-CA--CB-[CG] |==|  0.66994
USER: genes 6 Torsion [CA]-CB--CG-[CD1] |==|  0.95060
USER: genes 7 Torsion [N]-CA--C-[N] |==|  0.22551
USER: genes 8 Torsion [C]-N--CA-[CB] |==|  0.21844
USER: genes 9 Torsion [N]-CA--CB-[CG1] |==|  0.66356
USER: genes 10 Torsion [N]-CA--C-[O] |==|  0.77392
USER: genes 11 Torsion [C]-CA--CB-[CG] |==|  0.06913
USER: genes 12 Torsion [CA]-CB--CG-[CD] |==|  0.21396
USER: genes 13 Torsion [CB]-CG--CD-[CE] |==|  0.17353
USER: genes 14 Torsion [CG]-CD--CE-[NZ] |==|  0.47008
USER: genes 15 Torsion [CD]-CE--NZ-[HZ2] |==|  0.84060
USER: genes 16 Torsion [C]-CA--N-[C] |==|  0.78800
USER: genes 17 Torsion [N]-C--CA-[N] |==|  0.45305
USER: genes 18 Torsion [N]-C--CA-[N] |==|  0.52186
USER: genes 19 Torsion [C]-CA--CB-[CG] |==|  0.47403
USER: genes 20 Torsion [CA]-CB--CG-[CD] |==|  0.77180
USER: genes 21 Torsion [CB]-CG--CD-[NE] |==|  0.59619
USER: genes 22 Torsion [CG]-CD--NE-[HE] |==|  0.07616
ROOT
ATOM      1  CA  LYS B  51      24.168 -23.260  -5.685  1.00 67.60 LIG 0.18  C 
ENDROOT
BRANCH 1 2
ATOM      2  C   LYS B  51      22.779 -22.786  -5.144  1.00 65.68 LIG 0.24  C 
ATOM      3  N   PRO B  52      22.024 -21.963  -5.923  1.00 68.58 LIG-0.34  N 
ATOM      4  CD  PRO B  52      22.375 -21.064  -7.048  1.00 71.17 LIG 0.13  C 
ATOM      5  CA  PRO B  52      20.647 -21.710  -5.422  1.00 62.52 LIG 0.18  C 
ATOM      6  CG  PRO B  52      21.311 -19.988  -6.973  1.00 68.49 LIG 0.02  C 
ATOM      7  CB  PRO B  52      20.101 -20.668  -6.406  1.00 62.23 LIG 0.04  C 
ATOM      8 O    LYS B  51      22.424 -23.092  -3.992  1.00 49.94 LIG-0.27  OA
BRANCH 5 9
ATOM      9  C   PRO B  52      19.771 -22.997  -5.399  1.00 62.23 LIG 0.24  C 
ATOM     10 O    PRO B  52      20.306 -24.098  -5.163  1.00 52.82 LIG-0.27  OA
ATOM     11  N   LEU B  53      18.443 -22.833  -5.566  1.00 59.38 LIG-0.35  N 
ATOM     12 H    LEU B  53      18.069 -22.059  -5.586  1.00 59.38 LIG 0.16  HD
BRANCH 11 13
ATOM     13  CA  LEU B  53      17.488 -23.949  -5.734  1.00 58.77 LIG 0.18  C 
BRANCH 13 14
ATOM     14  CB  LEU B  53      16.055 -23.575  -5.261  1.00 52.29 LIG 0.04  C 
BRANCH 14 15
ATOM     15  CG  LEU B  53      15.420 -24.391  -4.092  1.00 62.01 LIG-0.02  C 
ATOM     16  CD2 LEU B  53      15.316 -23.580  -2.793  1.00 53.58 LIG 0.01  C 
ATOM     17  CD1 LEU B  53      16.117 -25.747  -3.829  1.00 50.45 LIG 0.01  C 
ENDBRANCH 14 15
ENDBRANCH 13 14
BRANCH 13 18
ATOM     18  C   LEU B  53      17.507 -24.365  -7.222  1.00 60.22 LIG 0.24  C 
ATOM     19  N   VAL B  54      18.500 -25.174  -7.630  1.00 61.95 LIG-0.35  N 
ATOM     20 H    VAL B  54      19.087 -25.519  -7.105  1.00 61.95 LIG 0.16  HD
ATOM     21 O    LEU B  53      16.648 -23.925  -7.994  1.00 54.25 LIG-0.27  OA
BRANCH 19 22
ATOM     22  CA  VAL B  54      18.662 -25.543  -9.068  1.00 71.55 LIG 0.17  C 
BRANCH 22 23
ATOM     23  CB  VAL B  54      19.340 -24.419  -9.943  1.00 67.56 LIG 0.01  C 
ATOM     24  CG1 VAL B  54      18.439 -23.971 -11.098  1.00 60.73 LIG 0.01  C 
ATOM     25  CG2 VAL B  54      19.744 -23.207  -9.107  1.00 61.59 LIG 0.01  C 
ENDBRANCH 22 23
BRANCH 22 26
ATOM     26  C   VAL B  54      19.378 -26.889  -9.232  1.00 64.78 LIG 0.22  C 
ATOM     27 O    VAL B  54      20.596 -26.950  -9.163  1.00 73.26 LIG-0.29  OA
ENDBRANCH 22 26
ENDBRANCH 19 22
ENDBRANCH 13 18
ENDBRANCH 11 13
ENDBRANCH 5 9
ENDBRANCH 1 2
BRANCH 1 28
ATOM     28  CB  LYS B  51      24.190 -24.592  -6.477  1.00 70.72 LIG 0.04  C 
BRANCH 28 29
ATOM     29  CG  LYS B  51      22.919 -25.074  -7.182  1.00 73.15 LIG 0.00  C 
BRANCH 29 30
ATOM     30  CD  LYS B  51      22.701 -24.285  -8.478  1.00 70.67 LIG 0.03  C 
BRANCH 30 31
ATOM     31  CE  LYS B  51      23.843 -24.510  -9.462  1.00 67.82 LIG 0.23  C 
BRANCH 31 32
ATOM     32  NZ  LYS B  51      23.494 -23.957 -10.790  1.00 73.20 LIG-0.08  N 
ATOM     33 HZ2  LYS B  51      22.742 -24.333 -11.081  1.00 73.20 LIG 0.27  HD
ATOM     34 HZ3  LYS B  51      23.379 -23.077 -10.724  1.00 73.20 LIG 0.27  HD
ATOM     35 HZ1  LYS B  51      24.152 -24.128 -11.364  1.00 73.20 LIG 0.27  HD
ENDBRANCH 31 32
ENDBRANCH 30 31
ENDBRANCH 29 30
ENDBRANCH 28 29
ENDBRANCH 1 28
BRANCH 1 36
ATOM     36  N   LYS B  51      25.126 -23.364  -4.576  1.00 65.69 LIG-0.35  N 
ATOM     37 H    LYS B  51      25.285 -24.168  -4.315  1.00 65.69 LIG 0.16  HD
ATOM     38  C   PRO B  50      25.682 -22.278  -4.043  1.00 68.91 LIG 0.24  C 
ATOM     39 O    PRO B  50      25.350 -21.120  -4.385  1.00 63.49 LIG-0.27  OA
BRANCH 38 40
ATOM     40  CA  PRO B  50      26.802 -22.506  -2.984  1.00 65.85 LIG 0.18  C 
ATOM     41  N   PRO B  50      27.607 -21.280  -2.765  1.00 60.71 LIG-0.34  N 
ATOM     42  CD  PRO B  50      27.183 -20.585  -1.529  1.00 60.54 LIG 0.13  C 
ATOM     43  C   ARG B  49      28.374 -20.846  -3.819  1.00 60.43 LIG 0.26  C 
ATOM     44  CG  PRO B  50      26.042 -21.447  -0.982  1.00 54.86 LIG 0.02  C 
ATOM     45  CB  PRO B  50      26.212 -22.796  -1.590  1.00 61.52 LIG 0.04  C 
ATOM     46 O    ARG B  49      28.389 -21.432  -4.930  1.00 53.87 LIG-0.27  OA
BRANCH 43 47
ATOM     47  CA  ARG B  49      29.237 -19.563  -3.631  1.00 56.75 LIG 0.40  C 
ATOM     48  N   ARG B  49      29.881 -19.092  -4.928  1.00 50.64 LIG 0.61  N 
BRANCH 47 49
ATOM     49  CB  ARG B  49      28.382 -18.424  -3.005  1.00 51.37 LIG 0.05  C 
BRANCH 49 50
ATOM     50  CG  ARG B  49      29.166 -17.183  -2.562  1.00 44.94 LIG 0.02  C 
BRANCH 50 51
ATOM     51  CD  ARG B  49      29.808 -17.380  -1.159  1.00 41.72 LIG 0.14  C 
BRANCH 51 52
ATOM     52  NE  ARG B  49      29.837 -16.144  -0.374  1.00 39.59 LIG-0.23  N 
ATOM     53 HE   ARG B  49      29.228 -15.561  -0.544  1.00 39.59 LIG 0.18  HD
ATOM     54  CZ  ARG B  49      30.718 -15.836   0.582  1.00 39.90 LIG 0.67  C 
ATOM     55  NH1 ARG B  49      31.732 -16.663   0.865  1.00 39.18 LIG-0.23  N 
ATOM     56  NH2 ARG B  49      30.619 -14.655   1.223  1.00 31.35 LIG-0.23  N 
ATOM     57 2HH1 ARG B  49      32.295 -16.457   1.482  1.00 39.18 LIG 0.17  HD
ATOM     58 1HH1 ARG B  49      31.821 -17.400   0.430  1.00 39.18 LIG 0.17  HD
ATOM     59 1HH2 ARG B  49      29.991 -14.105   1.016  1.00 31.35 LIG 0.17  HD
ATOM     60 2HH2 ARG B  49      31.184 -14.451   1.838  1.00 31.35 LIG 0.17  HD
ENDBRANCH 51 52
ENDBRANCH 50 51
ENDBRANCH 49 50
ENDBRANCH 47 49
ENDBRANCH 43 47
ENDBRANCH 38 40
ENDBRANCH 1 36
TORSDOF 21
ENDMDL
MODEL 6
USER: ADFR SOLUTION from run 15
USER: SCORE 17.572832 LL:  -3.345 LR: -15.050 RR:   0.000 FEB:  -8.786
USER: RMSD 3.973811
USER: SEED 353665
USER: STATUS searching
USER: GENES 23
USER: genes 0 Translation |==|  0.58031 0.48118 0.39442
USER: genes 1 Rotation |==|  0.52736 0.47742 0.53078 0.99779
USER: genes 2 Torsion [N]-CA--C-[N] |==|  0.37889
USER: genes 3 Torsion [N]-CA--C-[O] |==|  0.08487
USER: genes 4 Torsion [C]-N--CA-[CB] |==|  0.48891
USER: genes 5 Torsion [N]-CA--CB-[CG] |==|  0.46432
USER: genes 6 Torsion [CA]-CB--CG-[CD1] |==|  0.37634
USER: genes 7 Torsion [N]-CA--C-[N] |==|  0.39221
USER: genes 8 Torsion [C]-N--CA-[CB] |==|  0.42680
USER: genes 9 Torsion [N]-CA--CB-[CG1] |==|  0.49984
USER: genes 10 Torsion [N]-CA--C-[O] |==|  0.98945
USER: genes 11 Torsion [C]-CA--CB-[CG] |==|  0.98492
USER: genes 12 Torsion [CA]-CB--CG-[CD] |==|  0.26467
USER: genes 13 Torsion [CB]-CG--CD-[CE] |==|  0.14900
USER: genes 14 Torsion [CG]-CD--CE-[NZ] |==|  0.55626
USER: genes 15 Torsion [CD]-CE--NZ-[HZ2] |==|  0.17046
USER: genes 16 Torsion [C]-CA--N-[C] |==|  0.78856
USER: genes 17 Torsion [N]-C--CA-[N] |==|  0.43143
USER: genes 18 Torsion [N]-C--CA-[N] |==|  0.51680
USER: genes 19 Torsion [C]-CA--CB-[CG] |==|  0.50171
USER: genes 20 Torsion [CA]-CB--CG-[CD] |==|  0.80090
USER: genes 21 Torsion [CB]-CG--CD-[NE] |==|  0.59786
USER: genes 22 Torsion [CG]-CD--NE-[HE] |==|  0.04242
ROOT
ATOM      1  CA  LYS B  51      24.477 -23.256  -6.188  1.00 67.60 LIG 0.18  C 
ENDROOT
BRANCH 1 2
ATOM      2  C   LYS B  51      22.997 -22.981  -5.762  1.00 65.68 LIG 0.24  C 
ATOM      3  N   PRO B  52      22.305 -22.002  -6.408  1.00 68.58 LIG-0.34  N 
ATOM      4  CD  PRO B  52      22.750 -20.827  -7.196  1.00 71.17 LIG 0.13  C 
ATOM      5  CA  PRO B  52      20.858 -21.929  -6.075  1.00 62.52 LIG 0.18  C 
ATOM      6  CG  PRO B  52      21.616 -19.840  -7.008  1.00 68.49 LIG 0.02  C 
ATOM      7  CB  PRO B  52      20.387 -20.679  -6.829  1.00 62.23 LIG 0.04  C 
ATOM      8 O    LYS B  51      22.505 -23.591  -4.796  1.00 49.94 LIG-0.27  OA
BRANCH 5 9
ATOM      9  C   PRO B  52      20.076 -23.199  -6.521  1.00 62.23 LIG 0.24  C 
ATOM     10 O    PRO B  52      20.660 -24.301  -6.544  1.00 52.82 LIG-0.27  OA
ATOM     11  N   LEU B  53      18.763 -23.044  -6.789  1.00 59.38 LIG-0.35  N 
ATOM     12 H    LEU B  53      18.340 -22.312  -6.633  1.00 59.38 LIG 0.16  HD
BRANCH 11 13
ATOM     13  CA  LEU B  53      17.911 -24.099  -7.375  1.00 58.77 LIG 0.18  C 
BRANCH 13 14
ATOM     14  CB  LEU B  53      16.421 -23.664  -7.479  1.00 52.29 LIG 0.04  C 
BRANCH 14 15
ATOM     15  CG  LEU B  53      15.452 -24.529  -8.344  1.00 62.01 LIG-0.02  C 
ATOM     16  CD2 LEU B  53      15.246 -23.957  -9.753  1.00 53.58 LIG 0.01  C 
ATOM     17  CD1 LEU B  53      14.088 -24.804  -7.667  1.00 50.45 LIG 0.01  C 
ENDBRANCH 14 15
ENDBRANCH 13 14
BRANCH 13 18
ATOM     18  C   LEU B  53      18.496 -24.462  -8.760  1.00 60.22 LIG 0.24  C 
ATOM     19  N   VAL B  54      18.486 -25.756  -9.121  1.00 61.95 LIG-0.35  N 
ATOM     20 H    VAL B  54      18.122 -26.382  -8.658  1.00 61.95 LIG 0.16  HD
ATOM     21 O    LEU B  53      18.981 -23.576  -9.472  1.00 54.25 LIG-0.27  OA
BRANCH 19 22
ATOM     22  CA  VAL B  54      19.124 -26.215 -10.391  1.00 71.55 LIG 0.17  C 
BRANCH 22 23
ATOM     23  CB  VAL B  54      19.600 -27.718 -10.359  1.00 67.56 LIG 0.01  C 
ATOM     24  CG1 VAL B  54      20.246 -28.141 -11.682  1.00 60.73 LIG 0.01  C 
ATOM     25  CG2 VAL B  54      20.565 -27.989  -9.207  1.00 61.59 LIG 0.01  C 
ENDBRANCH 22 23
BRANCH 22 26
ATOM     26  C   VAL B  54      18.234 -25.934 -11.607  1.00 64.78 LIG 0.22  C 
ATOM     27 O    VAL B  54      17.119 -25.460 -11.458  1.00 73.26 LIG-0.29  OA
ENDBRANCH 22 26
ENDBRANCH 19 22
ENDBRANCH 13 18
ENDBRANCH 11 13
ENDBRANCH 5 9
ENDBRANCH 1 2
BRANCH 1 28
ATOM     28  CB  LYS B  51      24.718 -24.459  -7.134  1.00 70.72 LIG 0.04  C 
BRANCH 28 29
ATOM     29  CG  LYS B  51      23.550 -25.379  -7.500  1.00 73.15 LIG 0.00  C 
BRANCH 29 30
ATOM     30  CD  LYS B  51      22.927 -24.943  -8.830  1.00 70.67 LIG 0.03  C 
BRANCH 30 31
ATOM     31  CE  LYS B  51      23.979 -24.847  -9.928  1.00 67.82 LIG 0.23  C 
BRANCH 31 32
ATOM     32  NZ  LYS B  51      23.494 -23.989 -11.032  1.00 73.20 LIG-0.08  N 
ATOM     33 HZ2  LYS B  51      23.343 -23.168 -10.726  1.00 73.20 LIG 0.27  HD
ATOM     34 HZ3  LYS B  51      24.108 -23.957 -11.675  1.00 73.20 LIG 0.27  HD
ATOM     35 HZ1  LYS B  51      22.739 -24.327 -11.361  1.00 73.20 LIG 0.27  HD
ENDBRANCH 31 32
ENDBRANCH 30 31
ENDBRANCH 29 30
ENDBRANCH 28 29
ENDBRANCH 1 28
BRANCH 1 36
ATOM     36  N   LYS B  51      25.315 -23.429  -4.994  1.00 65.69 LIG-0.35  N 
ATOM     37 H    LYS B  51      25.528 -24.245  -4.821  1.00 65.69 LIG 0.16  HD
ATOM     38  C   PRO B  50      25.695 -22.385  -4.261  1.00 68.91 LIG 0.24  C 
ATOM     39 O    PRO B  50      25.284 -21.224  -4.489  1.00 63.49 LIG-0.27  OA
BRANCH 38 40
ATOM     40  CA  PRO B  50      26.712 -22.659  -3.114  1.00 65.85 LIG 0.18  C 
ATOM     41  N   PRO B  50      27.491 -21.446  -2.769  1.00 60.71 LIG-0.34  N 
ATOM     42  CD  PRO B  50      26.953 -20.802  -1.550  1.00 60.54 LIG 0.13  C 
ATOM     43  C   ARG B  49      28.352 -20.969  -3.728  1.00 60.43 LIG 0.26  C 
ATOM     44  CG  PRO B  50      25.767 -21.683  -1.148  1.00 54.86 LIG 0.02  C 
ATOM     45  CB  PRO B  50      25.995 -23.007  -1.794  1.00 61.52 LIG 0.04  C 
ATOM     46 O    ARG B  49      28.471 -21.508  -4.856  1.00 53.87 LIG-0.27  OA
BRANCH 43 47
ATOM     47  CA  ARG B  49      29.192 -19.697  -3.406  1.00 56.75 LIG 0.40  C 
ATOM     48  N   ARG B  49      29.988 -19.199  -4.605  1.00 50.64 LIG 0.61  N 
BRANCH 47 49
ATOM     49  CB  ARG B  49      28.272 -18.568  -2.858  1.00 51.37 LIG 0.05  C 
BRANCH 49 50
ATOM     50  CG  ARG B  49      28.982 -17.253  -2.516  1.00 44.94 LIG 0.02  C 
BRANCH 50 51
ATOM     51  CD  ARG B  49      29.858 -17.388  -1.236  1.00 41.72 LIG 0.14  C 
BRANCH 51 52
ATOM     52  NE  ARG B  49      29.869 -16.165  -0.430  1.00 39.59 LIG-0.23  N 
ATOM     53 HE   ARG B  49      29.263 -15.580  -0.602  1.00 39.59 LIG 0.18  HD
ATOM     54  CZ  ARG B  49      30.731 -15.873   0.547  1.00 39.90 LIG 0.67  C 
ATOM     55  NH1 ARG B  49      31.741 -16.704   0.835  1.00 39.18 LIG-0.23  N 
ATOM     56  NH2 ARG B  49      30.619 -14.703   1.206  1.00 31.35 LIG-0.23  N 
ATOM     57 2HH1 ARG B  49      32.292 -16.508   1.466  1.00 39.18 LIG 0.17  HD
ATOM     58 1HH1 ARG B  49      31.839 -17.433   0.390  1.00 39.18 LIG 0.17  HD
ATOM     59 1HH2 ARG B  49      29.994 -14.150   0.997  1.00 31.35 LIG 0.17  HD
ATOM     60 2HH2 ARG B  49      31.172 -14.510   1.836  1.00 31.35 LIG 0.17  HD
ENDBRANCH 51 52
ENDBRANCH 50 51
ENDBRANCH 49 50
ENDBRANCH 47 49
ENDBRANCH 43 47
ENDBRANCH 38 40
ENDBRANCH 1 36
TORSDOF 21
ENDMDL
