MODEL 1
USER: ADFR SOLUTION from run 72
USER: SCORE 27.490231 LL:  -5.173 LR: -23.382 RR:   0.000 FEB: -17.118
USER: RMSD 3.108100
USER: SEED 71
USER: STATUS no improvement in best in 3 clusters for 5 generations
USER: GENES 23
USER: genes 0 Translation |==|  0.56206 0.49780 0.61262
USER: genes 1 Rotation |==|  0.34732 0.56803 0.41421 0.96336
USER: genes 2 Torsion [N]-C--CA-[N] |==|  0.44005
USER: genes 3 Torsion [C]-CA--CB-[CG2] |==|  0.16416
USER: genes 4 Torsion [CA]-CB--CG1-[CD1] |==|  0.92872
USER: genes 5 Torsion [C]-CA--N-[C] |==|  0.79878
USER: genes 6 Torsion [N]-C--CA-[N] |==|  0.22409
USER: genes 7 Torsion [C]-CA--CB-[CG] |==|  0.28299
USER: genes 8 Torsion [CA]-CB--CG-[CD2] |==|  0.92469
USER: genes 9 Torsion [CE2]-CZ--OH-[HH] |==|  0.15469
USER: genes 10 Torsion [C]-CA--N-[C] |==|  0.70434
USER: genes 11 Torsion [N]-C--CA-[N] |==|  0.46737
USER: genes 12 Torsion [C]-CA--CB-[CG1] |==|  0.39794
USER: genes 13 Torsion [C]-CA--N-[H3] |==|  0.72761
USER: genes 14 Torsion [C]-N--CA-[C] |==|  0.66719
USER: genes 15 Torsion [N]-CA--C-[N] |==|  0.17217
USER: genes 16 Torsion [N]-CA--C-[O] |==|  0.85608
USER: genes 17 Torsion [C]-N--CA-[C] |==|  0.83283
USER: genes 18 Torsion [N]-CA--C-[O] |==|  0.25458
USER: genes 19 Torsion [N]-CA--CB-[CG] |==|  0.65260
USER: genes 20 Torsion [CA]-CB--CG-[CD1] |==|  0.07914
USER: genes 21 Torsion [N]-CA--CB-[CG] |==|  0.86113
USER: genes 22 Torsion [CA]-CB--CG-[CD2] |==|  0.81994
ROOT
ATOM      1  C   ILE C   3     103.408  17.912  19.341  1.00 36.59 LIG 0.24  C 
ATOM      2 O    ILE C   3     103.380  18.945  18.671  1.00 38.27 LIG-0.27  OA
ATOM      3  N   HIS C   4     102.451  16.987  19.249  1.00 46.08 LIG-0.35  N 
ATOM      4 H    HIS C   4     102.422  16.245  19.682  1.00 46.08 LIG 0.16  HD
ENDROOT
BRANCH 1 5
ATOM      5  CA  ILE C   3     104.583  17.672  20.299  1.00 34.07 LIG 0.18  C 
BRANCH 5 6
ATOM      6  CB  ILE C   3     104.209  18.053  21.744  1.00 34.47 LIG 0.01  C 
ATOM      7  CG2 ILE C   3     103.008  17.247  22.249  1.00 38.92 LIG 0.01  C 
BRANCH 6 8
ATOM      8  CG1 ILE C   3     105.425  17.852  22.645  1.00 35.39 LIG 0.00  C 
ATOM      9  CD1 ILE C   3     106.391  16.823  22.114  1.00 37.65 LIG 0.01  C 
ENDBRANCH 6 8
ENDBRANCH 5 6
BRANCH 5 10
ATOM     10  N   ILE C   3     105.690  18.511  19.850  1.00 27.24 LIG-0.35  N 
ATOM     11 H    ILE C   3     105.848  19.187  20.357  1.00 27.24 LIG 0.16  HD
ATOM     12  C   TYR C   2     106.380  18.237  18.755  1.00 25.56 LIG 0.24  C 
ATOM     13 O    TYR C   2     106.253  17.198  18.123  1.00 25.11 LIG-0.27  OA
BRANCH 12 14
ATOM     14  CA  TYR C   2     107.410  19.279  18.335  1.00 24.41 LIG 0.18  C 
BRANCH 14 15
ATOM     15  CB  TYR C   2     107.702  19.151  16.848  1.00 23.53 LIG 0.07  C 
BRANCH 15 16
ATOM     16  CG  TYR C   2     106.982  20.214  16.054  1.00 26.01 LIG-0.06  A 
ATOM     17  CD2 TYR C   2     105.779  20.780  16.528  1.00 25.97 LIG 0.01  A 
ATOM     18  CE2 TYR C   2     105.133  21.777  15.822  1.00 26.70 LIG 0.04  A 
ATOM     19  CZ  TYR C   2     105.664  22.219  14.640  1.00 26.24 LIG 0.07  A 
ATOM     20  CE1 TYR C   2     106.857  21.696  14.148  1.00 24.75 LIG 0.04  A 
ATOM     21  CD1 TYR C   2     107.511  20.699  14.862  1.00 24.78 LIG 0.01  A 
BRANCH 19 22
ATOM     22 OH   TYR C   2     104.999  23.198  13.957  1.00 29.14 LIG-0.36  OA
ATOM     23 HH   TYR C   2     104.889  23.863  14.458  1.00 29.14 LIG 0.22  HD
ENDBRANCH 19 22
ENDBRANCH 15 16
ENDBRANCH 14 15
BRANCH 14 24
ATOM     24  N   TYR C   2     108.586  19.061  19.152  1.00 21.44 LIG-0.35  N 
ATOM     25 H    TYR C   2     109.049  18.366  18.946  1.00 21.44 LIG 0.16  HD
ATOM     26  C   VAL C   1     108.884  19.896  20.133  1.00 22.04 LIG 0.25  C 
ATOM     27 O    VAL C   1     108.306  20.985  20.305  1.00 22.28 LIG-0.27  OA
BRANCH 26 28
ATOM     28  CA  VAL C   1     109.955  19.420  21.103  1.00 20.62 LIG 0.28  C 
BRANCH 28 29
ATOM     29  CB  VAL C   1     109.263  18.234  21.873  1.00 21.07 LIG 0.02  C 
ATOM     30  CG1 VAL C   1     110.221  17.100  22.185  1.00 24.54 LIG 0.01  C 
ATOM     31  CG2 VAL C   1     108.529  18.709  23.145  1.00 20.31 LIG 0.01  C 
ENDBRANCH 28 29
BRANCH 28 32
ATOM     32  N   VAL C   1     110.401  20.574  21.989  1.00 19.14 LIG-0.07  N 
ATOM     33 H1   VAL C   1     109.767  21.198  22.007  1.00 19.14 LIG 0.28  HD
ATOM     34 H2   VAL C   1     110.546  20.275  22.815  1.00 19.14 LIG 0.28  HD
ATOM     35 H3   VAL C   1     111.152  20.925  21.664  1.00 19.14 LIG 0.28  HD
ENDBRANCH 28 32
ENDBRANCH 26 28
ENDBRANCH 14 24
ENDBRANCH 12 14
ENDBRANCH 5 10
ENDBRANCH 1 5
BRANCH 3 36
ATOM     36  CA  HIS C   4     101.336  17.248  18.326  1.00 52.11 LIG 0.18  C 
BRANCH 36 37
ATOM     37  C   HIS C   4     100.002  17.284  19.049  1.00 56.91 LIG 0.24  C 
ATOM     38  N   PRO C   5      99.857  18.248  19.985  1.00 60.52 LIG-0.34  N 
ATOM     39  CD  PRO C   5     100.951  19.114  20.471  1.00 64.10 LIG 0.13  C 
ATOM     40  CA  PRO C   5      98.604  18.595  20.630  1.00 66.68 LIG 0.18  C 
ATOM     41  CG  PRO C   5     100.243  20.193  21.261  1.00 63.73 LIG 0.02  C 
ATOM     42  CB  PRO C   5      98.799  20.087  20.933  1.00 65.87 LIG 0.04  C 
ATOM     43 O    HIS C   4      99.134  16.449  18.777  1.00 55.90 LIG-0.27  OA
BRANCH 40 44
ATOM     44  C   PRO C   5      97.399  18.384  19.706  1.00 66.75 LIG 0.24  C 
ATOM     45 O    PRO C   5      97.385  18.876  18.577  1.00 68.20 LIG-0.27  OA
ATOM     46  N   PHE C   6      96.422  17.615  20.177  1.00 67.82 LIG-0.34  N 
ATOM     47 H    PHE C   6      96.456  17.198  20.928  1.00 67.82 LIG 0.16  HD
BRANCH 46 48
ATOM     48  CA  PHE C   6      95.187  17.419  19.431  1.00 66.93 LIG 0.19  C 
BRANCH 48 49
ATOM     49  C   PHE C   6      94.495  18.765  19.220  1.00 69.04 LIG 0.20  C 
ATOM     50 O    PHE C   6      94.706  19.448  18.211  1.00 69.16 LIG-0.65  OA
ATOM     51 OXT  PHE C   6      93.700  19.189  20.059  1.00 68.12 LIG-0.65  OA
ENDBRANCH 48 49
BRANCH 48 52
ATOM     52  CB  PHE C   6      94.261  16.427  20.145  1.00 62.34 LIG 0.07  C 
BRANCH 52 53
ATOM     53  CG  PHE C   6      93.833  15.263  19.285  1.00 57.42 LIG-0.06  A 
ATOM     54  CD1 PHE C   6      94.653  14.801  18.252  1.00 55.80 LIG 0.01  A 
ATOM     55  CE1 PHE C   6      94.261  13.729  17.459  1.00 52.49 LIG 0.00  A 
ATOM     56  CZ  PHE C   6      93.041  13.097  17.707  1.00 53.54 LIG 0.00  A 
ATOM     57  CE2 PHE C   6      92.222  13.545  18.732  1.00 53.16 LIG 0.00  A 
ATOM     58  CD2 PHE C   6      92.617  14.622  19.514  1.00 55.01 LIG 0.01  A 
ENDBRANCH 52 53
ENDBRANCH 48 52
ENDBRANCH 46 48
ENDBRANCH 40 44
ENDBRANCH 36 37
BRANCH 36 59
ATOM     59  CB  HIS C   4     101.246  16.309  17.120  1.00 57.66 LIG 0.10  C 
BRANCH 59 60
ATOM     60  CG  HIS C   4     102.556  16.180  16.390  1.00 65.67 LIG 0.06  A 
ATOM     61  CD2 HIS C   4     103.291  17.087  15.701  1.00 66.99 LIG 0.14  A 
ATOM     62 NE2  HIS C   4     104.430  16.446  15.270  1.00 66.34 LIG-0.25  NA
ATOM     63  CE1 HIS C   4     104.404  15.193  15.690  1.00 66.88 LIG 0.23  A 
ATOM     64 ND1  HIS C   4     103.291  15.008  16.378  1.00 66.49 LIG-0.24  NA
ENDBRANCH 59 60
ENDBRANCH 36 59
ENDBRANCH 3 36
TORSDOF 21
ENDMDL
MODEL 2
USER: ADFR SOLUTION from run 55
USER: SCORE 26.915030 LL:  -5.129 LR: -22.684 RR:   0.000 FEB: -16.420
USER: RMSD 4.427886
USER: SEED 54
USER: STATUS no improvement in best in 1 clusters for 5 generations
USER: GENES 23
USER: genes 0 Translation |==|  0.54173 0.58140 0.58275
USER: genes 1 Rotation |==|  0.50625 0.70364 0.41800 0.94918
USER: genes 2 Torsion [N]-C--CA-[N] |==|  0.46730
USER: genes 3 Torsion [C]-CA--CB-[CG2] |==|  0.40487
USER: genes 4 Torsion [CA]-CB--CG1-[CD1] |==|  0.50563
USER: genes 5 Torsion [C]-CA--N-[C] |==|  0.55273
USER: genes 6 Torsion [N]-C--CA-[N] |==|  0.34017
USER: genes 7 Torsion [C]-CA--CB-[CG] |==|  0.24051
USER: genes 8 Torsion [CA]-CB--CG-[CD2] |==|  0.45663
USER: genes 9 Torsion [CE2]-CZ--OH-[HH] |==|  0.71407
USER: genes 10 Torsion [C]-CA--N-[C] |==|  0.69352
USER: genes 11 Torsion [N]-C--CA-[N] |==|  0.47059
USER: genes 12 Torsion [C]-CA--CB-[CG1] |==|  0.39989
USER: genes 13 Torsion [C]-CA--N-[H3] |==|  0.73638
USER: genes 14 Torsion [C]-N--CA-[C] |==|  0.58519
USER: genes 15 Torsion [N]-CA--C-[N] |==|  0.13602
USER: genes 16 Torsion [N]-CA--C-[O] |==|  0.90512
USER: genes 17 Torsion [C]-N--CA-[C] |==|  0.21985
USER: genes 18 Torsion [N]-CA--C-[O] |==|  0.67262
USER: genes 19 Torsion [N]-CA--CB-[CG] |==|  0.80432
USER: genes 20 Torsion [CA]-CB--CG-[CD1] |==|  0.21919
USER: genes 21 Torsion [N]-CA--CB-[CG] |==|  0.72848
USER: genes 22 Torsion [CA]-CB--CG-[CD2] |==|  0.43848
ROOT
ATOM      1  C   ILE C   3     102.874  19.291  18.759  1.00 36.59 LIG 0.24  C 
ATOM      2 O    ILE C   3     103.030  20.507  18.882  1.00 38.27 LIG-0.27  OA
ATOM      3  N   HIS C   4     101.665  18.748  18.612  1.00 46.08 LIG-0.35  N 
ATOM      4 H    HIS C   4     101.495  17.911  18.512  1.00 46.08 LIG 0.16  HD
ENDROOT
BRANCH 1 5
ATOM      5  CA  ILE C   3     104.105  18.374  18.759  1.00 34.07 LIG 0.18  C 
BRANCH 5 6
ATOM      6  CB  ILE C   3     104.189  17.556  20.061  1.00 34.47 LIG 0.01  C 
ATOM      7  CG2 ILE C   3     104.773  16.161  19.817  1.00 38.92 LIG 0.01  C 
BRANCH 6 8
ATOM      8  CG1 ILE C   3     105.020  18.329  21.085  1.00 35.39 LIG 0.00  C 
ATOM      9  CD1 ILE C   3     105.200  17.584  22.383  1.00 37.65 LIG 0.01  C 
ENDBRANCH 6 8
ENDBRANCH 5 6
BRANCH 5 10
ATOM     10  N   ILE C   3     105.285  19.228  18.648  1.00 27.24 LIG-0.35  N 
ATOM     11 H    ILE C   3     105.146  20.050  18.858  1.00 27.24 LIG 0.16  HD
ATOM     12  C   TYR C   2     106.458  18.758  18.256  1.00 25.56 LIG 0.24  C 
ATOM     13 O    TYR C   2     106.688  17.567  18.104  1.00 25.11 LIG-0.27  OA
BRANCH 12 14
ATOM     14  CA  TYR C   2     107.557  19.793  18.050  1.00 24.41 LIG 0.18  C 
BRANCH 14 15
ATOM     15  CB  TYR C   2     107.959  19.839  16.584  1.00 23.53 LIG 0.07  C 
BRANCH 15 16
ATOM     16  CG  TYR C   2     107.076  20.781  15.802  1.00 26.01 LIG-0.06  A 
ATOM     17  CD2 TYR C   2     107.456  21.232  14.519  1.00 25.97 LIG 0.01  A 
ATOM     18  CE2 TYR C   2     106.636  22.068  13.784  1.00 26.70 LIG 0.04  A 
ATOM     19  CZ  TYR C   2     105.439  22.471  14.312  1.00 26.24 LIG 0.07  A 
ATOM     20  CE1 TYR C   2     105.022  22.035  15.567  1.00 24.75 LIG 0.04  A 
ATOM     21  CD1 TYR C   2     105.843  21.188  16.303  1.00 24.78 LIG 0.01  A 
BRANCH 19 22
ATOM     22 OH   TYR C   2     104.653  23.306  13.569  1.00 29.14 LIG-0.36  OA
ATOM     23 HH   TYR C   2     104.717  24.089  13.865  1.00 29.14 LIG 0.22  HD
ENDBRANCH 19 22
ENDBRANCH 15 16
ENDBRANCH 14 15
BRANCH 14 24
ATOM     24  N   TYR C   2     108.657  19.416  18.915  1.00 21.44 LIG-0.35  N 
ATOM     25 H    TYR C   2     109.073  18.700  18.683  1.00 21.44 LIG 0.16  HD
ATOM     26  C   VAL C   1     108.959  20.150  19.973  1.00 22.04 LIG 0.25  C 
ATOM     27 O    VAL C   1     108.462  21.269  20.194  1.00 22.28 LIG-0.27  OA
BRANCH 26 28
ATOM     28  CA  VAL C   1     109.923  19.515  20.963  1.00 20.62 LIG 0.28  C 
BRANCH 28 29
ATOM     29  CB  VAL C   1     109.098  18.322  21.576  1.00 21.07 LIG 0.02  C 
ATOM     30  CG1 VAL C   1     109.955  17.103  21.862  1.00 24.54 LIG 0.01  C 
ATOM     31  CG2 VAL C   1     108.295  18.743  22.825  1.00 20.31 LIG 0.01  C 
ENDBRANCH 28 29
BRANCH 28 32
ATOM     32  N   VAL C   1     110.382  20.553  21.977  1.00 19.14 LIG-0.07  N 
ATOM     33 H1   VAL C   1     109.769  21.195  22.043  1.00 19.14 LIG 0.28  HD
ATOM     34 H2   VAL C   1     110.491  20.164  22.771  1.00 19.14 LIG 0.28  HD
ATOM     35 H3   VAL C   1     111.154  20.906  21.712  1.00 19.14 LIG 0.28  HD
ENDBRANCH 28 32
ENDBRANCH 26 28
ENDBRANCH 14 24
ENDBRANCH 12 14
ENDBRANCH 5 10
ENDBRANCH 1 5
BRANCH 3 36
ATOM     36  CA  HIS C   4     100.505  19.651  18.621  1.00 52.11 LIG 0.18  C 
BRANCH 36 37
ATOM     37  C   HIS C   4      99.268  18.976  19.183  1.00 56.91 LIG 0.24  C 
ATOM     38  N   PRO C   5      99.425  18.325  20.357  1.00 60.52 LIG-0.34  N 
ATOM     39  CD  PRO C   5     100.728  18.072  21.006  1.00 64.10 LIG 0.13  C 
ATOM     40  CA  PRO C   5      98.340  17.804  21.168  1.00 66.68 LIG 0.18  C 
ATOM     41  CG  PRO C   5     100.362  17.597  22.395  1.00 63.73 LIG 0.02  C 
ATOM     42  CB  PRO C   5      98.921  17.900  22.586  1.00 65.87 LIG 0.04  C 
ATOM     43 O    HIS C   4      98.203  19.029  18.559  1.00 55.90 LIG-0.27  OA
BRANCH 40 44
ATOM     44  C   PRO C   5      97.069  18.653  21.047  1.00 66.75 LIG 0.24  C 
ATOM     45 O    PRO C   5      97.144  19.874  20.898  1.00 68.20 LIG-0.27  OA
ATOM     46  N   PHE C   6      95.915  17.993  21.066  1.00 67.82 LIG-0.34  N 
ATOM     47 H    PHE C   6      95.850  17.136  21.085  1.00 67.82 LIG 0.16  HD
BRANCH 46 48
ATOM     48  CA  PHE C   6      94.640  18.696  21.055  1.00 66.93 LIG 0.19  C 
BRANCH 48 49
ATOM     49  C   PHE C   6      94.316  19.150  19.632  1.00 69.04 LIG 0.20  C 
ATOM     50 O    PHE C   6      94.201  20.349  19.348  1.00 69.16 LIG-0.65  OA
ATOM     51 OXT  PHE C   6      94.171  18.319  18.736  1.00 68.12 LIG-0.65  OA
ENDBRANCH 48 49
BRANCH 48 52
ATOM     52  CB  PHE C   6      94.655  19.884  22.024  1.00 62.34 LIG 0.07  C 
BRANCH 52 53
ATOM     53  CG  PHE C   6      94.661  19.485  23.480  1.00 57.42 LIG-0.06  A 
ATOM     54  CD1 PHE C   6      95.843  19.066  24.099  1.00 55.80 LIG 0.01  A 
ATOM     55  CE1 PHE C   6      95.851  18.698  25.439  1.00 52.49 LIG 0.00  A 
ATOM     56  CZ  PHE C   6      94.669  18.763  26.180  1.00 53.54 LIG 0.00  A 
ATOM     57  CE2 PHE C   6      93.493  19.180  25.576  1.00 53.16 LIG 0.00  A 
ATOM     58  CD2 PHE C   6      93.491  19.538  24.234  1.00 55.01 LIG 0.01  A 
ENDBRANCH 52 53
ENDBRANCH 48 52
ENDBRANCH 46 48
ENDBRANCH 40 44
ENDBRANCH 36 37
BRANCH 36 59
ATOM     59  CB  HIS C   4     100.172  20.309  17.279  1.00 57.66 LIG 0.10  C 
BRANCH 59 60
ATOM     60  CG  HIS C   4     100.727  21.703  17.165  1.00 65.67 LIG 0.06  A 
ATOM     61  CD2 HIS C   4     101.014  22.467  16.082  1.00 66.99 LIG 0.14  A 
ATOM     62 NE2  HIS C   4     101.460  23.683  16.548  1.00 66.34 LIG-0.25  NA
ATOM     63  CE1 HIS C   4     101.436  23.673  17.870  1.00 66.88 LIG 0.23  A 
ATOM     64 ND1  HIS C   4     100.986  22.495  18.268  1.00 66.49 LIG-0.24  NA
ENDBRANCH 59 60
ENDBRANCH 36 59
ENDBRANCH 3 36
TORSDOF 21
ENDMDL
MODEL 3
USER: ADFR SOLUTION from run 149
USER: SCORE 26.638226 LL:  -5.466 LR: -22.210 RR:   0.000 FEB: -15.946
USER: RMSD 3.845818
USER: SEED 148
USER: STATUS no improvement in best in 7 clusters for 5 generations
USER: GENES 23
USER: genes 0 Translation |==|  0.56024 0.50199 0.61266
USER: genes 1 Rotation |==|  0.37406 0.57903 0.42779 0.97189
USER: genes 2 Torsion [N]-C--CA-[N] |==|  0.42535
USER: genes 3 Torsion [C]-CA--CB-[CG2] |==|  0.15522
USER: genes 4 Torsion [CA]-CB--CG1-[CD1] |==|  0.92610
USER: genes 5 Torsion [C]-CA--N-[C] |==|  0.79619
USER: genes 6 Torsion [N]-C--CA-[N] |==|  0.21152
USER: genes 7 Torsion [C]-CA--CB-[CG] |==|  0.28628
USER: genes 8 Torsion [CA]-CB--CG-[CD2] |==|  0.87916
USER: genes 9 Torsion [CE2]-CZ--OH-[HH] |==|  0.25660
USER: genes 10 Torsion [C]-CA--N-[C] |==|  0.71333
USER: genes 11 Torsion [N]-C--CA-[N] |==|  0.45879
USER: genes 12 Torsion [C]-CA--CB-[CG1] |==|  0.38150
USER: genes 13 Torsion [C]-CA--N-[H3] |==|  0.70864
USER: genes 14 Torsion [C]-N--CA-[C] |==|  0.67299
USER: genes 15 Torsion [N]-CA--C-[N] |==|  0.18604
USER: genes 16 Torsion [N]-CA--C-[O] |==|  0.87242
USER: genes 17 Torsion [C]-N--CA-[C] |==|  0.21742
USER: genes 18 Torsion [N]-CA--C-[O] |==|  0.40277
USER: genes 19 Torsion [N]-CA--CB-[CG] |==|  0.79841
USER: genes 20 Torsion [CA]-CB--CG-[CD1] |==|  0.53541
USER: genes 21 Torsion [N]-CA--CB-[CG] |==|  0.90026
USER: genes 22 Torsion [CA]-CB--CG-[CD2] |==|  0.72472
ROOT
ATOM      1  C   ILE C   3     103.360  17.981  19.342  1.00 36.59 LIG 0.24  C 
ATOM      2 O    ILE C   3     103.281  19.088  18.807  1.00 38.27 LIG-0.27  OA
ATOM      3  N   HIS C   4     102.425  17.046  19.167  1.00 46.08 LIG-0.35  N 
ATOM      4 H    HIS C   4     102.431  16.256  19.504  1.00 46.08 LIG 0.16  HD
ENDROOT
BRANCH 1 5
ATOM      5  CA  ILE C   3     104.575  17.660  20.224  1.00 34.07 LIG 0.18  C 
BRANCH 5 6
ATOM      6  CB  ILE C   3     104.285  17.973  21.704  1.00 34.47 LIG 0.01  C 
ATOM      7  CG2 ILE C   3     103.041  17.233  22.206  1.00 38.92 LIG 0.01  C 
BRANCH 6 8
ATOM      8  CG1 ILE C   3     105.513  17.617  22.540  1.00 35.39 LIG 0.00  C 
ATOM      9  CD1 ILE C   3     106.359  16.536  21.916  1.00 37.65 LIG 0.01  C 
ENDBRANCH 6 8
ENDBRANCH 5 6
BRANCH 5 10
ATOM     10  N   ILE C   3     105.682  18.493  19.762  1.00 27.24 LIG-0.35  N 
ATOM     11 H    ILE C   3     105.876  19.145  20.288  1.00 27.24 LIG 0.16  HD
ATOM     12  C   TYR C   2     106.319  18.249  18.629  1.00 25.56 LIG 0.24  C 
ATOM     13 O    TYR C   2     106.142  17.240  17.961  1.00 25.11 LIG-0.27  OA
BRANCH 12 14
ATOM     14  CA  TYR C   2     107.354  19.285  18.207  1.00 24.41 LIG 0.18  C 
BRANCH 14 15
ATOM     15  CB  TYR C   2     107.664  19.137  16.725  1.00 23.53 LIG 0.07  C 
BRANCH 15 16
ATOM     16  CG  TYR C   2     106.977  20.207  15.912  1.00 26.01 LIG-0.06  A 
ATOM     17  CD2 TYR C   2     105.633  20.559  16.167  1.00 25.97 LIG 0.01  A 
ATOM     18  CE2 TYR C   2     105.009  21.561  15.449  1.00 26.70 LIG 0.04  A 
ATOM     19  CZ  TYR C   2     105.702  22.219  14.468  1.00 26.24 LIG 0.07  A 
ATOM     20  CE1 TYR C   2     107.033  21.912  14.198  1.00 24.75 LIG 0.04  A 
ATOM     21  CD1 TYR C   2     107.664  20.910  14.926  1.00 24.78 LIG 0.01  A 
BRANCH 19 22
ATOM     22 OH   TYR C   2     105.057  23.198  13.766  1.00 29.14 LIG-0.36  OA
ATOM     23 HH   TYR C   2     105.191  23.941  14.133  1.00 29.14 LIG 0.22  HD
ENDBRANCH 19 22
ENDBRANCH 15 16
ENDBRANCH 14 15
BRANCH 14 24
ATOM     24  N   TYR C   2     108.520  19.077  19.041  1.00 21.44 LIG-0.35  N 
ATOM     25 H    TYR C   2     109.009  18.404  18.822  1.00 21.44 LIG 0.16  HD
ATOM     26  C   VAL C   1     108.772  19.889  20.054  1.00 22.04 LIG 0.25  C 
ATOM     27 O    VAL C   1     108.156  20.953  20.249  1.00 22.28 LIG-0.27  OA
BRANCH 26 28
ATOM     28  CA  VAL C   1     109.839  19.416  21.030  1.00 20.62 LIG 0.28  C 
BRANCH 28 29
ATOM     29  CB  VAL C   1     109.140  18.235  21.804  1.00 21.07 LIG 0.02  C 
ATOM     30  CG1 VAL C   1     110.056  17.041  21.999  1.00 24.54 LIG 0.01  C 
ATOM     31  CG2 VAL C   1     108.529  18.693  23.145  1.00 20.31 LIG 0.01  C 
ENDBRANCH 28 29
BRANCH 28 32
ATOM     32  N   VAL C   1     110.285  20.573  21.912  1.00 19.14 LIG-0.07  N 
ATOM     33 H1   VAL C   1     109.699  21.240  21.846  1.00 19.14 LIG 0.28  HD
ATOM     34 H2   VAL C   1     110.331  20.301  22.758  1.00 19.14 LIG 0.28  HD
ATOM     35 H3   VAL C   1     111.086  20.856  21.647  1.00 19.14 LIG 0.28  HD
ENDBRANCH 28 32
ENDBRANCH 26 28
ENDBRANCH 14 24
ENDBRANCH 12 14
ENDBRANCH 5 10
ENDBRANCH 1 5
BRANCH 3 36
ATOM     36  CA  HIS C   4     101.272  17.385  18.320  1.00 52.11 LIG 0.18  C 
BRANCH 36 37
ATOM     37  C   HIS C   4      99.969  17.341  19.098  1.00 56.91 LIG 0.24  C 
ATOM     38  N   PRO C   5      99.816  18.277  20.060  1.00 60.52 LIG-0.34  N 
ATOM     39  CD  PRO C   5     100.885  19.187  20.519  1.00 64.10 LIG 0.13  C 
ATOM     40  CA  PRO C   5      98.576  18.549  20.763  1.00 66.68 LIG 0.18  C 
ATOM     41  CG  PRO C   5     100.160  20.214  21.361  1.00 63.73 LIG 0.02  C 
ATOM     42  CB  PRO C   5      98.711  20.043  21.090  1.00 65.87 LIG 0.04  C 
ATOM     43 O    HIS C   4      99.132  16.468  18.843  1.00 55.90 LIG-0.27  OA
BRANCH 40 44
ATOM     44  C   PRO C   5      97.345  18.296  19.885  1.00 66.75 LIG 0.24  C 
ATOM     45 O    PRO C   5      97.306  18.719  18.728  1.00 68.20 LIG-0.27  OA
ATOM     46  N   PHE C   6      96.373  17.569  20.427  1.00 67.82 LIG-0.34  N 
ATOM     47 H    PHE C   6      96.423  17.198  21.201  1.00 67.82 LIG 0.16  HD
BRANCH 46 48
ATOM     48  CA  PHE C   6      95.117  17.343  19.727  1.00 66.93 LIG 0.19  C 
BRANCH 48 49
ATOM     49  C   PHE C   6      95.308  16.263  18.663  1.00 69.04 LIG 0.20  C 
ATOM     50 O    PHE C   6      94.409  15.458  18.392  1.00 69.16 LIG-0.65  OA
ATOM     51 OXT  PHE C   6      96.371  16.183  18.047  1.00 68.12 LIG-0.65  OA
ENDBRANCH 48 49
BRANCH 48 52
ATOM     52  CB  PHE C   6      94.588  18.642  19.106  1.00 62.34 LIG 0.07  C 
BRANCH 52 53
ATOM     53  CG  PHE C   6      94.040  19.622  20.114  1.00 57.42 LIG-0.06  A 
ATOM     54  CD1 PHE C   6      93.286  20.724  19.700  1.00 55.80 LIG 0.01  A 
ATOM     55  CE1 PHE C   6      92.781  21.628  20.627  1.00 52.49 LIG 0.00  A 
ATOM     56  CZ  PHE C   6      93.016  21.426  21.988  1.00 53.54 LIG 0.00  A 
ATOM     57  CE2 PHE C   6      93.760  20.334  22.409  1.00 53.16 LIG 0.00  A 
ATOM     58  CD2 PHE C   6      94.268  19.440  21.477  1.00 55.01 LIG 0.01  A 
ENDBRANCH 52 53
ENDBRANCH 48 52
ENDBRANCH 46 48
ENDBRANCH 40 44
ENDBRANCH 36 37
BRANCH 36 59
ATOM     59  CB  HIS C   4     101.135  16.566  17.033  1.00 57.66 LIG 0.10  C 
BRANCH 59 60
ATOM     60  CG  HIS C   4     102.466  16.232  16.418  1.00 65.67 LIG 0.06  A 
ATOM     61  CD2 HIS C   4     103.149  16.804  15.395  1.00 66.99 LIG 0.14  A 
ATOM     62 NE2  HIS C   4     104.341  16.127  15.272  1.00 66.34 LIG-0.25  NA
ATOM     63  CE1 HIS C   4     104.396  15.180  16.194  1.00 66.88 LIG 0.23  A 
ATOM     64 ND1  HIS C   4     103.284  15.229  16.907  1.00 66.49 LIG-0.24  NA
ENDBRANCH 59 60
ENDBRANCH 36 59
ENDBRANCH 3 36
TORSDOF 21
ENDMDL
MODEL 4
USER: ADFR SOLUTION from run 84
USER: SCORE 26.210301 LL:  -4.866 LR: -22.192 RR:   0.000 FEB: -15.928
USER: RMSD 3.614374
USER: SEED 83
USER: STATUS no improvement in best in 8 clusters for 5 generations
USER: GENES 23
USER: genes 0 Translation |==|  0.54814 0.56342 0.62633
USER: genes 1 Rotation |==|  0.52357 0.63614 0.44261 0.97709
USER: genes 2 Torsion [N]-C--CA-[N] |==|  0.38468
USER: genes 3 Torsion [C]-CA--CB-[CG2] |==|  0.96903
USER: genes 4 Torsion [CA]-CB--CG1-[CD1] |==|  0.01282
USER: genes 5 Torsion [C]-CA--N-[C] |==|  0.62703
USER: genes 6 Torsion [N]-C--CA-[N] |==|  0.29481
USER: genes 7 Torsion [C]-CA--CB-[CG] |==|  0.28842
USER: genes 8 Torsion [CA]-CB--CG-[CD2] |==|  0.89705
USER: genes 9 Torsion [CE2]-CZ--OH-[HH] |==|  0.13117
USER: genes 10 Torsion [C]-CA--N-[C] |==|  0.73594
USER: genes 11 Torsion [N]-C--CA-[N] |==|  0.45042
USER: genes 12 Torsion [C]-CA--CB-[CG1] |==|  0.91089
USER: genes 13 Torsion [C]-CA--N-[H3] |==|  0.14687
USER: genes 14 Torsion [C]-N--CA-[C] |==|  0.60859
USER: genes 15 Torsion [N]-CA--C-[N] |==|  0.14927
USER: genes 16 Torsion [N]-CA--C-[O] |==|  0.88124
USER: genes 17 Torsion [C]-N--CA-[C] |==|  0.89275
USER: genes 18 Torsion [N]-CA--C-[O] |==|  0.32771
USER: genes 19 Torsion [N]-CA--CB-[CG] |==|  0.84233
USER: genes 20 Torsion [CA]-CB--CG-[CD1] |==|  0.92625
USER: genes 21 Torsion [N]-CA--CB-[CG] |==|  0.67386
USER: genes 22 Torsion [CA]-CB--CG-[CD2] |==|  0.63392
ROOT
ATOM      1  C   ILE C   3     103.043  18.994  19.608  1.00 36.59 LIG 0.24  C 
ATOM      2 O    ILE C   3     103.054  20.207  19.827  1.00 38.27 LIG-0.27  OA
ATOM      3  N   HIS C   4     101.979  18.384  19.083  1.00 46.08 LIG-0.35  N 
ATOM      4 H    HIS C   4     101.917  17.547  18.899  1.00 46.08 LIG 0.16  HD
ENDROOT
BRANCH 1 5
ATOM      5  CA  ILE C   3     104.290  18.162  19.936  1.00 34.07 LIG 0.18  C 
BRANCH 5 6
ATOM      6  CB  ILE C   3     104.380  17.866  21.444  1.00 34.47 LIG 0.01  C 
ATOM      7  CG2 ILE C   3     103.372  18.695  22.246  1.00 38.92 LIG 0.01  C 
BRANCH 6 8
ATOM      8  CG1 ILE C   3     104.167  16.370  21.673  1.00 35.39 LIG 0.00  C 
ATOM      9  CD1 ILE C   3     104.042  15.588  20.390  1.00 37.65 LIG 0.01  C 
ENDBRANCH 6 8
ENDBRANCH 5 6
BRANCH 5 10
ATOM     10  N   ILE C   3     105.455  18.943  19.527  1.00 27.24 LIG-0.35  N 
ATOM     11 H    ILE C   3     105.428  19.768  19.768  1.00 27.24 LIG 0.16  HD
ATOM     12  C   TYR C   2     106.454  18.409  18.845  1.00 25.56 LIG 0.24  C 
ATOM     13 O    TYR C   2     106.560  17.209  18.634  1.00 25.11 LIG-0.27  OA
BRANCH 12 14
ATOM     14  CA  TYR C   2     107.529  19.378  18.364  1.00 24.41 LIG 0.18  C 
BRANCH 14 15
ATOM     15  CB  TYR C   2     107.823  19.138  16.892  1.00 23.53 LIG 0.07  C 
BRANCH 15 16
ATOM     16  CG  TYR C   2     107.192  20.202  16.026  1.00 26.01 LIG-0.06  A 
ATOM     17  CD2 TYR C   2     105.924  20.736  16.346  1.00 25.97 LIG 0.01  A 
ATOM     18  CE2 TYR C   2     105.356  21.734  15.576  1.00 26.70 LIG 0.04  A 
ATOM     19  CZ  TYR C   2     106.030  22.208  14.483  1.00 26.24 LIG 0.07  A 
ATOM     20  CE1 TYR C   2     107.289  21.718  14.145  1.00 24.75 LIG 0.04  A 
ATOM     21  CD1 TYR C   2     107.864  20.720  14.923  1.00 24.78 LIG 0.01  A 
BRANCH 19 22
ATOM     22 OH   TYR C   2     105.440  23.187  13.734  1.00 29.14 LIG-0.36  OA
ATOM     23 HH   TYR C   2     105.146  23.789  14.240  1.00 29.14 LIG 0.22  HD
ENDBRANCH 19 22
ENDBRANCH 15 16
ENDBRANCH 14 15
BRANCH 14 24
ATOM     24  N   TYR C   2     108.690  19.166  19.204  1.00 21.44 LIG-0.35  N 
ATOM     25 H    TYR C   2     109.209  18.527  18.953  1.00 21.44 LIG 0.16  HD
ATOM     26  C   VAL C   1     108.894  19.924  20.269  1.00 22.04 LIG 0.25  C 
ATOM     27 O    VAL C   1     108.233  20.948  20.517  1.00 22.28 LIG-0.27  OA
BRANCH 26 28
ATOM     28  CA  VAL C   1     109.965  19.434  21.232  1.00 20.62 LIG 0.28  C 
BRANCH 28 29
ATOM     29  CB  VAL C   1     109.275  18.231  21.978  1.00 21.07 LIG 0.02  C 
ATOM     30  CG1 VAL C   1     107.779  18.422  22.139  1.00 24.54 LIG 0.01  C 
ATOM     31  CG2 VAL C   1     109.595  16.871  21.320  1.00 20.31 LIG 0.01  C 
ENDBRANCH 28 29
BRANCH 28 32
ATOM     32  N   VAL C   1     110.404  20.573  22.141  1.00 19.14 LIG-0.07  N 
ATOM     33 H1   VAL C   1     110.952  20.258  22.768  1.00 19.14 LIG 0.28  HD
ATOM     34 H2   VAL C   1     110.828  21.190  21.660  1.00 19.14 LIG 0.28  HD
ATOM     35 H3   VAL C   1     109.690  20.937  22.527  1.00 19.14 LIG 0.28  HD
ENDBRANCH 28 32
ENDBRANCH 26 28
ENDBRANCH 14 24
ENDBRANCH 12 14
ENDBRANCH 5 10
ENDBRANCH 1 5
BRANCH 3 36
ATOM     36  CA  HIS C   4     100.798  19.207  18.785  1.00 52.11 LIG 0.18  C 
BRANCH 36 37
ATOM     37  C   HIS C   4      99.507  18.482  19.117  1.00 56.91 LIG 0.24  C 
ATOM     38  N   PRO C   5      99.403  17.994  20.373  1.00 60.52 LIG-0.34  N 
ATOM     39  CD  PRO C   5     100.510  17.952  21.349  1.00 64.10 LIG 0.13  C 
ATOM     40  CA  PRO C   5      98.184  17.466  20.959  1.00 66.68 LIG 0.18  C 
ATOM     41  CG  PRO C   5      99.835  17.611  22.659  1.00 63.73 LIG 0.02  C 
ATOM     42  CB  PRO C   5      98.376  17.788  22.448  1.00 65.87 LIG 0.04  C 
ATOM     43 O    HIS C   4      98.635  18.352  18.250  1.00 55.90 LIG-0.27  OA
BRANCH 40 44
ATOM     44  C   PRO C   5      96.931  18.162  20.413  1.00 66.75 LIG 0.24  C 
ATOM     45 O    PRO C   5      96.910  19.385  20.266  1.00 68.20 LIG-0.27  OA
ATOM     46  N   PHE C   6      95.918  17.371  20.075  1.00 67.82 LIG-0.34  N 
ATOM     47 H    PHE C   6      95.949  16.512  20.094  1.00 67.82 LIG 0.16  HD
BRANCH 46 48
ATOM     48  CA  PHE C   6      94.643  17.920  19.636  1.00 66.93 LIG 0.19  C 
BRANCH 48 49
ATOM     49  C   PHE C   6      94.308  19.164  20.458  1.00 69.04 LIG 0.20  C 
ATOM     50 O    PHE C   6      94.189  20.275  19.929  1.00 69.16 LIG-0.65  OA
ATOM     51 OXT  PHE C   6      94.140  19.073  21.674  1.00 68.12 LIG-0.65  OA
ENDBRANCH 48 49
BRANCH 48 52
ATOM     52  CB  PHE C   6      93.526  16.874  19.734  1.00 62.34 LIG 0.07  C 
BRANCH 52 53
ATOM     53  CG  PHE C   6      93.802  15.610  18.958  1.00 57.42 LIG-0.06  A 
ATOM     54  CD1 PHE C   6      94.639  15.629  17.838  1.00 55.80 LIG 0.01  A 
ATOM     55  CE1 PHE C   6      94.895  14.466  17.122  1.00 52.49 LIG 0.00  A 
ATOM     56  CZ  PHE C   6      94.321  13.261  17.534  1.00 53.54 LIG 0.00  A 
ATOM     57  CE2 PHE C   6      93.492  13.231  18.645  1.00 53.16 LIG 0.00  A 
ATOM     58  CD2 PHE C   6      93.235  14.399  19.350  1.00 55.01 LIG 0.01  A 
ENDBRANCH 52 53
ENDBRANCH 48 52
ENDBRANCH 46 48
ENDBRANCH 40 44
ENDBRANCH 36 37
BRANCH 36 59
ATOM     59  CB  HIS C   4     100.726  19.767  17.361  1.00 57.66 LIG 0.10  C 
BRANCH 59 60
ATOM     60  CG  HIS C   4     100.754  21.271  17.330  1.00 65.67 LIG 0.06  A 
ATOM     61  CD2 HIS C   4      99.973  22.167  16.678  1.00 66.99 LIG 0.14  A 
ATOM     62 NE2  HIS C   4     100.408  23.423  17.037  1.00 66.34 LIG-0.25  NA
ATOM     63  CE1 HIS C   4     101.413  23.304  17.889  1.00 66.88 LIG 0.23  A 
ATOM     64 ND1  HIS C   4     101.634  22.017  18.093  1.00 66.49 LIG-0.24  NA
ENDBRANCH 59 60
ENDBRANCH 36 59
ENDBRANCH 3 36
TORSDOF 21
ENDMDL
