MODEL 1
USER: ADFR SOLUTION from run 93
USER: SCORE 17.840325 LL:  -4.167 LR: -16.106 RR:   0.000 FEB:  -9.543
USER: RMSD 2.999169
USER: SEED 92
USER: STATUS no improvement in best in 2 clusters for 5 generations
USER: GENES 24
USER: genes 0 Translation |==|  0.48870 0.53389 0.48654
USER: genes 1 Rotation |==|  0.50405 0.49355 0.50174 0.99994
USER: genes 2 Torsion [CB]-CA--N-[C] |==|  0.26260
USER: genes 3 Torsion [N]-C--CA-[N] |==|  0.34479
USER: genes 4 Torsion [C]-CA--CB-[CG] |==|  0.40954
USER: genes 5 Torsion [CA]-CB--CG-[CD1] |==|  0.32290
USER: genes 6 Torsion [C]-CA--N-[C] |==|  0.68335
USER: genes 7 Torsion [N]-C--CA-[N] |==|  0.44963
USER: genes 8 Torsion [C]-CA--CB-[CG] |==|  0.19448
USER: genes 9 Torsion [CA]-CB--CG-[CD1] |==|  0.19689
USER: genes 10 Torsion [CE1]-CZ--OH-[HH] |==|  0.93319
USER: genes 11 Torsion [N]-CA--CB-[CG2] |==|  0.79277
USER: genes 12 Torsion [N]-CA--C-[N] |==|  0.40177
USER: genes 13 Torsion [C]-N--CA-[CB] |==|  0.27169
USER: genes 14 Torsion [N]-CA--CB-[CG2] |==|  0.49898
USER: genes 15 Torsion [CA]-CB--OG1-[HG1] |==|  0.16215
USER: genes 16 Torsion [N]-CA--C-[N] |==|  0.34017
USER: genes 17 Torsion [C]-N--CA-[C] |==|  0.78071
USER: genes 18 Torsion [N]-CA--C-[N] |==|  0.44647
USER: genes 19 Torsion [C]-N--CA-[C] |==|  0.63787
USER: genes 20 Torsion [N]-CA--C-[OXT] |==|  0.94735
USER: genes 21 Torsion [N]-CA--CB-[CG2] |==|  0.96856
USER: genes 22 Torsion [N]-CA--CB-[OG] |==|  0.62179
USER: genes 23 Torsion [CA]-CB--OG-[HG] |==|  0.12732
ROOT
ATOM      1  CA  VAL B2840      -3.276 -13.624  21.099  1.00 12.24 LIG 0.18  C 
ENDROOT
BRANCH 1 2
ATOM      2  N   VAL B2840      -3.422 -13.999  22.504  1.00  7.10 LIG-0.35  N 
ATOM      3  C   LEU B2839      -2.982 -13.212  23.481  1.00  9.29 LIG 0.24  C 
ATOM      4 O    LEU B2839      -2.318 -12.190  23.277  1.00  7.82 LIG-0.27  OA
ATOM      5 H    VAL B2840      -3.809 -14.756  22.633  1.00  7.10 LIG 0.16  HD
BRANCH 3 6
ATOM      6  CA  LEU B2839      -3.316 -13.647  24.896  1.00  6.33 LIG 0.18  C 
BRANCH 6 7
ATOM      7  CB  LEU B2839      -4.282 -12.631  25.516  1.00 14.59 LIG 0.04  C 
BRANCH 7 8
ATOM      8  CG  LEU B2839      -5.284 -13.212  26.507  1.00 24.41 LIG-0.02  C 
ATOM      9  CD1 LEU B2839      -5.071 -12.648  27.921  1.00 21.70 LIG 0.01  C 
ATOM     10  CD2 LEU B2839      -6.708 -12.961  26.012  1.00 24.63 LIG 0.01  C 
ENDBRANCH 7 8
ENDBRANCH 6 7
BRANCH 6 11
ATOM     11  N   LEU B2839      -2.100 -13.775  25.703  1.00 12.50 LIG-0.35  N 
ATOM     12 H    LEU B2839      -1.689 -13.033  25.844  1.00 12.50 LIG 0.16  HD
ATOM     13  C   TYR B2838      -1.685 -14.956  26.171  1.00 14.62 LIG 0.26  C 
ATOM     14 O    TYR B2838      -2.313 -16.003  26.018  1.00 16.58 LIG-0.27  OA
BRANCH 13 15
ATOM     15  CA  TYR B2838      -0.367 -14.980  26.934  1.00 17.58 LIG 0.40  C 
ATOM     16  N   TYR B2838      -0.200 -16.176  27.750  1.00 19.10 LIG 0.61  N 
BRANCH 15 17
ATOM     17  CB  TYR B2838       0.811 -14.784  25.981  1.00 37.20 LIG 0.09  C 
BRANCH 17 18
ATOM     18  CG  TYR B2838       0.884 -13.382  25.422  1.00 53.42 LIG-0.06  A 
ATOM     19  CD1 TYR B2838       1.250 -12.309  26.230  1.00 57.26 LIG 0.01  A 
ATOM     20  CE1 TYR B2838       1.323 -11.019  25.722  1.00 58.59 LIG 0.04  A 
ATOM     21  CZ  TYR B2838       1.033 -10.791  24.389  1.00 63.46 LIG 0.07  A 
ATOM     22  CE2 TYR B2838       0.670 -11.840  23.565  1.00 67.17 LIG 0.04  A 
ATOM     23  CD2 TYR B2838       0.598 -13.130  24.085  1.00 64.10 LIG 0.01  A 
BRANCH 21 24
ATOM     24 OH   TYR B2838       1.103  -9.511  23.880  1.00 64.89 LIG-0.36  OA
ATOM     25 HH   TYR B2838       1.003  -8.956  24.503  1.00 64.89 LIG 0.22  HD
ENDBRANCH 21 24
ENDBRANCH 17 18
ENDBRANCH 15 17
ENDBRANCH 13 15
ENDBRANCH 6 11
ENDBRANCH 3 6
ENDBRANCH 1 2
BRANCH 1 26
ATOM     26  CB  VAL B2840      -2.001 -14.228  20.469  1.00 14.53 LIG 0.01  C 
ATOM     27  CG1 VAL B2840      -2.088 -14.169  18.952  1.00 16.85 LIG 0.01  C 
ATOM     28  CG2 VAL B2840      -0.765 -13.479  20.959  1.00 19.78 LIG 0.01  C 
ENDBRANCH 1 26
BRANCH 1 29
ATOM     29  C   VAL B2840      -4.506 -14.065  20.302  1.00 10.08 LIG 0.24  C 
ATOM     30 O    VAL B2840      -5.078 -15.115  20.570  1.00 13.99 LIG-0.27  OA
ATOM     31  N   THR B2841      -4.905 -13.274  19.313  1.00  7.81 LIG-0.34  N 
ATOM     32 H    THR B2841      -4.480 -12.574  19.051  1.00  7.81 LIG 0.16  HD
BRANCH 31 33
ATOM     33  CA  THR B2841      -6.136 -13.551  18.579  1.00  9.28 LIG 0.20  C 
BRANCH 33 34
ATOM     34  CB  THR B2841      -7.306 -12.712  19.113  1.00  5.66 LIG 0.15  C 
ATOM     35  CG2 THR B2841      -8.595 -13.006  18.325  1.00  2.82 LIG 0.04  C 
BRANCH 34 36
ATOM     36 OG1  THR B2841      -7.521 -13.033  20.492  1.00  4.58 LIG-0.39  OA
ATOM     37 HG1  THR B2841      -6.819 -12.882  20.928  1.00  4.58 LIG 0.21  HD
ENDBRANCH 34 36
ENDBRANCH 33 34
BRANCH 33 38
ATOM     38  C   THR B2841      -5.992 -13.287  17.086  1.00 11.02 LIG 0.24  C 
ATOM     39  N   SER B2842      -6.249 -14.318  16.276  1.00  4.17 LIG-0.34  N 
ATOM     40 H    SER B2842      -6.399 -15.118  16.550  1.00  4.17 LIG 0.16  HD
ATOM     41 O    THR B2841      -5.647 -12.174  16.682  1.00  9.65 LIG-0.27  OA
BRANCH 39 42
ATOM     42  CA  SER B2842      -6.294 -14.157  14.829  1.00  7.92 LIG 0.20  C 
BRANCH 42 43
ATOM     43  C   SER B2842      -7.624 -13.551  14.425  1.00  8.41 LIG 0.24  C 
ATOM     44  N   VAL B2843      -7.661 -12.987  13.223  1.00 12.74 LIG-0.34  N 
ATOM     45 H    VAL B2843      -6.997 -12.982  12.678  1.00 12.74 LIG 0.16  HD
ATOM     46 O    SER B2842      -8.585 -13.586  15.184  1.00  7.66 LIG-0.27  OA
BRANCH 44 47
ATOM     47  CA  VAL B2843      -8.848 -12.320  12.719  1.00 16.92 LIG 0.19  C 
BRANCH 47 48
ATOM     48  C   VAL B2843      -9.189 -12.815  11.313  1.00 17.95 LIG 0.20  C 
ATOM     49 OXT  VAL B2843      -8.335 -13.388  10.621  1.00 12.52 LIG-0.65  OA
ATOM     50 O    VAL B2843     -10.316 -12.658  10.843  1.00 13.13 LIG-0.65  OA
ENDBRANCH 47 48
BRANCH 47 51
ATOM     51  CB  VAL B2843      -8.655 -10.785  12.712  1.00 12.90 LIG 0.01  C 
ATOM     52  CG2 VAL B2843      -7.399 -10.384  13.486  1.00 11.86 LIG 0.01  C 
ATOM     53  CG1 VAL B2843      -9.878 -10.100  13.293  1.00 11.26 LIG 0.01  C 
ENDBRANCH 47 51
ENDBRANCH 44 47
ENDBRANCH 42 43
BRANCH 42 54
ATOM     54  CB  SER B2842      -6.077 -15.494  14.109  1.00 13.40 LIG 0.20  C 
BRANCH 54 55
ATOM     55 OG   SER B2842      -5.188 -15.348  13.017  1.00 24.06 LIG-0.40  OA
ATOM     56 HG   SER B2842      -4.522 -14.895  13.257  1.00 24.06 LIG 0.21  HD
ENDBRANCH 54 55
ENDBRANCH 42 54
ENDBRANCH 39 42
ENDBRANCH 33 38
ENDBRANCH 31 33
ENDBRANCH 1 29
TORSDOF 22
ENDMDL
MODEL 2
USER: ADFR SOLUTION from run 183
USER: SCORE 16.173995 LL:  -3.550 LR: -15.109 RR:   0.000 FEB:  -8.546
USER: RMSD 2.297076
USER: SEED 182
USER: STATUS searching
USER: GENES 24
USER: genes 0 Translation |==|  0.51567 0.53585 0.46617
USER: genes 1 Rotation |==|  0.50511 0.52065 0.52017 0.99914
USER: genes 2 Torsion [CB]-CA--N-[C] |==|  0.30000
USER: genes 3 Torsion [N]-C--CA-[N] |==|  0.38011
USER: genes 4 Torsion [C]-CA--CB-[CG] |==|  0.56008
USER: genes 5 Torsion [CA]-CB--CG-[CD1] |==|  0.47533
USER: genes 6 Torsion [C]-CA--N-[C] |==|  0.84962
USER: genes 7 Torsion [N]-C--CA-[N] |==|  0.81340
USER: genes 8 Torsion [C]-CA--CB-[CG] |==|  0.60334
USER: genes 9 Torsion [CA]-CB--CG-[CD1] |==|  0.84533
USER: genes 10 Torsion [CE1]-CZ--OH-[HH] |==|  0.82073
USER: genes 11 Torsion [N]-CA--CB-[CG2] |==|  0.81840
USER: genes 12 Torsion [N]-CA--C-[N] |==|  0.40825
USER: genes 13 Torsion [C]-N--CA-[CB] |==|  0.25819
USER: genes 14 Torsion [N]-CA--CB-[CG2] |==|  0.49552
USER: genes 15 Torsion [CA]-CB--OG1-[HG1] |==|  0.23870
USER: genes 16 Torsion [N]-CA--C-[N] |==|  0.33086
USER: genes 17 Torsion [C]-N--CA-[C] |==|  0.80907
USER: genes 18 Torsion [N]-CA--C-[N] |==|  0.43865
USER: genes 19 Torsion [C]-N--CA-[C] |==|  0.62998
USER: genes 20 Torsion [N]-CA--C-[OXT] |==|  0.95967
USER: genes 21 Torsion [N]-CA--CB-[CG2] |==|  0.95637
USER: genes 22 Torsion [N]-CA--CB-[OG] |==|  0.69105
USER: genes 23 Torsion [CA]-CB--OG-[HG] |==|  0.00850
ROOT
ATOM      1  CA  VAL B2840      -2.669 -13.593  20.488  1.00 12.24 LIG 0.18  C 
ENDROOT
BRANCH 1 2
ATOM      2  N   VAL B2840      -2.635 -13.976  21.898  1.00  7.10 LIG-0.35  N 
ATOM      3  C   LEU B2839      -2.405 -13.082  22.854  1.00  9.29 LIG 0.24  C 
ATOM      4 O    LEU B2839      -2.084 -11.912  22.621  1.00  7.82 LIG-0.27  OA
ATOM      5 H    VAL B2840      -2.774 -14.812  22.043  1.00  7.10 LIG 0.16  HD
BRANCH 3 6
ATOM      6  CA  LEU B2839      -2.532 -13.578  24.282  1.00  6.33 LIG 0.18  C 
BRANCH 6 7
ATOM      7  CB  LEU B2839      -3.891 -13.142  24.844  1.00 14.59 LIG 0.04  C 
BRANCH 7 8
ATOM      8  CG  LEU B2839      -3.976 -13.096  26.366  1.00 24.41 LIG-0.02  C 
ATOM      9  CD1 LEU B2839      -5.288 -12.444  26.836  1.00 21.70 LIG 0.01  C 
ATOM     10  CD2 LEU B2839      -3.813 -14.503  26.938  1.00 24.63 LIG 0.01  C 
ENDBRANCH 7 8
ENDBRANCH 6 7
BRANCH 6 11
ATOM     11  N   LEU B2839      -1.435 -13.071  25.110  1.00 12.50 LIG-0.35  N 
ATOM     12 H    LEU B2839      -1.690 -12.658  25.821  1.00 12.50 LIG 0.16  HD
ATOM     13  C   TYR B2838      -0.155 -13.246  24.771  1.00 14.62 LIG 0.26  C 
ATOM     14 O    TYR B2838       0.201 -13.893  23.786  1.00 16.58 LIG-0.27  OA
BRANCH 13 15
ATOM     15  CA  TYR B2838       0.898 -12.610  25.668  1.00 17.58 LIG 0.40  C 
ATOM     16  N   TYR B2838       0.880 -11.153  25.629  1.00 19.10 LIG 0.61  N 
BRANCH 15 17
ATOM     17  CB  TYR B2838       0.775 -13.133  27.099  1.00 37.20 LIG 0.09  C 
BRANCH 17 18
ATOM     18  CG  TYR B2838       1.049 -12.069  28.136  1.00 53.42 LIG-0.06  A 
ATOM     19  CD1 TYR B2838       2.245 -11.357  28.131  1.00 57.26 LIG 0.01  A 
ATOM     20  CE1 TYR B2838       2.501 -10.376  29.078  1.00 58.59 LIG 0.04  A 
ATOM     21  CZ  TYR B2838       1.553 -10.093  30.045  1.00 63.46 LIG 0.07  A 
ATOM     22  CE2 TYR B2838       0.356 -10.783  30.070  1.00 67.17 LIG 0.04  A 
ATOM     23  CD2 TYR B2838       0.109 -11.767  29.115  1.00 64.10 LIG 0.01  A 
BRANCH 21 24
ATOM     24 OH   TYR B2838       1.804  -9.119  30.989  1.00 64.89 LIG-0.36  OA
ATOM     25 HH   TYR B2838       2.451  -9.355  31.470  1.00 64.89 LIG 0.22  HD
ENDBRANCH 21 24
ENDBRANCH 17 18
ENDBRANCH 15 17
ENDBRANCH 13 15
ENDBRANCH 6 11
ENDBRANCH 3 6
ENDBRANCH 1 2
BRANCH 1 26
ATOM     26  CB  VAL B2840      -1.429 -14.101  19.720  1.00 14.53 LIG 0.01  C 
ATOM     27  CG1 VAL B2840      -1.590 -13.840  18.231  1.00 16.85 LIG 0.01  C 
ATOM     28  CG2 VAL B2840      -0.169 -13.418  20.244  1.00 19.78 LIG 0.01  C 
ENDBRANCH 1 26
BRANCH 1 29
ATOM     29  C   VAL B2840      -3.942 -14.126  19.824  1.00 10.08 LIG 0.24  C 
ATOM     30 O    VAL B2840      -4.426 -15.196  20.175  1.00 13.99 LIG-0.27  OA
ATOM     31  N   THR B2841      -4.476 -13.390  18.857  1.00  7.81 LIG-0.34  N 
ATOM     32 H    THR B2841      -4.118 -12.677  18.536  1.00  7.81 LIG 0.16  HD
BRANCH 31 33
ATOM     33  CA  THR B2841      -5.753 -13.757  18.251  1.00  9.28 LIG 0.20  C 
BRANCH 33 34
ATOM     34  CB  THR B2841      -6.925 -13.055  18.951  1.00  5.66 LIG 0.15  C 
ATOM     35  CG2 THR B2841      -8.261 -13.418  18.279  1.00  2.82 LIG 0.04  C 
BRANCH 34 36
ATOM     36 OG1  THR B2841      -6.968 -13.469  20.322  1.00  4.58 LIG-0.39  OA
ATOM     37 HG1  THR B2841      -6.455 -12.983  20.777  1.00  4.58 LIG 0.21  HD
ENDBRANCH 34 36
ENDBRANCH 33 34
BRANCH 33 38
ATOM     38  C   THR B2841      -5.807 -13.425  16.766  1.00 11.02 LIG 0.24  C 
ATOM     39  N   SER B2842      -5.990 -14.456  15.936  1.00  4.17 LIG-0.34  N 
ATOM     40 H    SER B2842      -5.991 -15.279  16.185  1.00  4.17 LIG 0.16  HD
ATOM     41 O    THR B2841      -5.675 -12.259  16.384  1.00  9.65 LIG-0.27  OA
BRANCH 39 42
ATOM     42  CA  SER B2842      -6.210 -14.256  14.510  1.00  7.92 LIG 0.20  C 
BRANCH 42 43
ATOM     43  C   SER B2842      -7.563 -13.610  14.288  1.00  8.41 LIG 0.24  C 
ATOM     44  N   VAL B2843      -7.714 -12.964  13.138  1.00 12.74 LIG-0.34  N 
ATOM     45 H    VAL B2843      -7.109 -12.928  12.529  1.00 12.74 LIG 0.16  HD
ATOM     46 O    SER B2842      -8.441 -13.686  15.140  1.00  7.66 LIG-0.27  OA
BRANCH 44 47
ATOM     47  CA  VAL B2843      -8.935 -12.251  12.806  1.00 16.92 LIG 0.19  C 
BRANCH 47 48
ATOM     48  C   VAL B2843      -9.389 -12.590  11.387  1.00 17.95 LIG 0.20  C 
ATOM     49 OXT  VAL B2843      -8.620 -13.156  10.596  1.00 12.52 LIG-0.65  OA
ATOM     50 O    VAL B2843     -10.526 -12.314  11.003  1.00 13.13 LIG-0.65  OA
ENDBRANCH 47 48
BRANCH 47 51
ATOM     51  CB  VAL B2843      -8.735 -10.724  12.951  1.00 12.90 LIG 0.01  C 
ATOM     52  CG2 VAL B2843      -7.475 -10.405  13.756  1.00 11.86 LIG 0.01  C 
ATOM     53  CG1 VAL B2843      -9.953 -10.096  13.603  1.00 11.26 LIG 0.01  C 
ENDBRANCH 47 51
ENDBRANCH 44 47
ENDBRANCH 42 43
BRANCH 42 54
ATOM     54  CB  SER B2842      -6.118 -15.579  13.738  1.00 13.40 LIG 0.20  C 
BRANCH 54 55
ATOM     55 OG   SER B2842      -4.969 -15.610  12.912  1.00 24.06 LIG-0.40  OA
ATOM     56 HG   SER B2842      -4.521 -14.909  13.028  1.00 24.06 LIG 0.21  HD
ENDBRANCH 54 55
ENDBRANCH 42 54
ENDBRANCH 39 42
ENDBRANCH 33 38
ENDBRANCH 31 33
ENDBRANCH 1 29
TORSDOF 22
ENDMDL
MODEL 3
USER: ADFR SOLUTION from run 191
USER: SCORE 16.275953 LL:  -4.094 LR: -15.042 RR:   0.000 FEB:  -8.480
USER: RMSD 3.653588
USER: SEED 190
USER: STATUS no improvement in best in 6 clusters for 5 generations
USER: GENES 24
USER: genes 0 Translation |==|  0.51943 0.53552 0.46529
USER: genes 1 Rotation |==|  0.50957 0.54917 0.47831 0.99701
USER: genes 2 Torsion [CB]-CA--N-[C] |==|  0.35729
USER: genes 3 Torsion [N]-C--CA-[N] |==|  0.37142
USER: genes 4 Torsion [C]-CA--CB-[CG] |==|  0.26447
USER: genes 5 Torsion [CA]-CB--CG-[CD1] |==|  0.65079
USER: genes 6 Torsion [C]-CA--N-[C] |==|  0.85218
USER: genes 7 Torsion [N]-C--CA-[N] |==|  0.34600
USER: genes 8 Torsion [C]-CA--CB-[CG] |==|  0.73592
USER: genes 9 Torsion [CA]-CB--CG-[CD1] |==|  0.72357
USER: genes 10 Torsion [CE1]-CZ--OH-[HH] |==|  0.38621
USER: genes 11 Torsion [N]-CA--CB-[CG2] |==|  0.92285
USER: genes 12 Torsion [N]-CA--C-[N] |==|  0.47226
USER: genes 13 Torsion [C]-N--CA-[CB] |==|  0.21106
USER: genes 14 Torsion [N]-CA--CB-[CG2] |==|  0.44447
USER: genes 15 Torsion [CA]-CB--OG1-[HG1] |==|  0.21620
USER: genes 16 Torsion [N]-CA--C-[N] |==|  0.29796
USER: genes 17 Torsion [C]-N--CA-[C] |==|  0.81519
USER: genes 18 Torsion [N]-CA--C-[N] |==|  0.42541
USER: genes 19 Torsion [C]-N--CA-[C] |==|  0.63130
USER: genes 20 Torsion [N]-CA--C-[OXT] |==|  0.96057
USER: genes 21 Torsion [N]-CA--CB-[CG2] |==|  0.96159
USER: genes 22 Torsion [N]-CA--CB-[OG] |==|  0.70756
USER: genes 23 Torsion [CA]-CB--OG-[HG] |==|  0.00569
ROOT
ATOM      1  CA  VAL B2840      -2.585 -13.599  20.462  1.00 12.24 LIG 0.18  C 
ENDROOT
BRANCH 1 2
ATOM      2  N   VAL B2840      -2.452 -14.005  21.859  1.00  7.10 LIG-0.35  N 
ATOM      3  C   LEU B2839      -2.364 -13.108  22.836  1.00  9.29 LIG 0.24  C 
ATOM      4 O    LEU B2839      -2.262 -11.894  22.631  1.00  7.82 LIG-0.27  OA
ATOM      5 H    VAL B2840      -2.436 -14.855  21.983  1.00  7.10 LIG 0.16  HD
BRANCH 3 6
ATOM      6  CA  LEU B2839      -2.370 -13.654  24.252  1.00  6.33 LIG 0.18  C 
BRANCH 6 7
ATOM      7  CB  LEU B2839      -3.748 -13.412  24.876  1.00 14.59 LIG 0.04  C 
BRANCH 7 8
ATOM      8  CG  LEU B2839      -4.720 -14.583  24.774  1.00 24.41 LIG-0.02  C 
ATOM      9  CD1 LEU B2839      -6.047 -14.159  24.123  1.00 21.70 LIG 0.01  C 
ATOM     10  CD2 LEU B2839      -4.065 -15.735  24.013  1.00 24.63 LIG 0.01  C 
ENDBRANCH 7 8
ENDBRANCH 6 7
BRANCH 6 11
ATOM     11  N   LEU B2839      -1.314 -13.033  25.055  1.00 12.50 LIG-0.35  N 
ATOM     12 H    LEU B2839      -1.588 -12.687  25.793  1.00 12.50 LIG 0.16  HD
ATOM     13  C   TYR B2838      -0.039 -13.018  24.655  1.00 14.62 LIG 0.26  C 
ATOM     14 O    TYR B2838       0.355 -13.571  23.629  1.00 16.58 LIG-0.27  OA
BRANCH 13 15
ATOM     15  CA  TYR B2838       0.960 -12.277  25.535  1.00 17.58 LIG 0.40  C 
ATOM     16  N   TYR B2838       2.083 -13.108  25.950  1.00 19.10 LIG 0.61  N 
BRANCH 15 17
ATOM     17  CB  TYR B2838       1.434 -10.996  24.850  1.00 37.20 LIG 0.09  C 
BRANCH 17 18
ATOM     18  CG  TYR B2838       2.729 -11.181  24.094  1.00 53.42 LIG-0.06  A 
ATOM     19  CD1 TYR B2838       3.943 -10.787  24.649  1.00 57.26 LIG 0.01  A 
ATOM     20  CE1 TYR B2838       5.137 -10.958  23.961  1.00 58.59 LIG 0.04  A 
ATOM     21  CZ  TYR B2838       5.126 -11.533  22.703  1.00 63.46 LIG 0.07  A 
ATOM     22  CE2 TYR B2838       3.933 -11.935  22.131  1.00 67.17 LIG 0.04  A 
ATOM     23  CD2 TYR B2838       2.741 -11.758  22.829  1.00 64.10 LIG 0.01  A 
BRANCH 21 24
ATOM     24 OH   TYR B2838       6.309 -11.704  22.015  1.00 64.89 LIG-0.36  OA
ATOM     25 HH   TYR B2838       6.306 -12.452  21.634  1.00 64.89 LIG 0.22  HD
ENDBRANCH 21 24
ENDBRANCH 17 18
ENDBRANCH 15 17
ENDBRANCH 13 15
ENDBRANCH 6 11
ENDBRANCH 3 6
ENDBRANCH 1 2
BRANCH 1 26
ATOM     26  CB  VAL B2840      -1.543 -14.292  19.556  1.00 14.53 LIG 0.01  C 
ATOM     27  CG1 VAL B2840      -1.186 -13.392  18.383  1.00 16.85 LIG 0.01  C 
ATOM     28  CG2 VAL B2840      -0.291 -14.635  20.360  1.00 19.78 LIG 0.01  C 
ENDBRANCH 1 26
BRANCH 1 29
ATOM     29  C   VAL B2840      -3.996 -13.903  19.953  1.00 10.08 LIG 0.24  C 
ATOM     30 O    VAL B2840      -4.764 -14.588  20.618  1.00 13.99 LIG-0.27  OA
ATOM     31  N   THR B2841      -4.335 -13.408  18.768  1.00  7.81 LIG-0.34  N 
ATOM     32 H    THR B2841      -3.794 -12.991  18.244  1.00  7.81 LIG 0.16  HD
BRANCH 31 33
ATOM     33  CA  THR B2841      -5.696 -13.544  18.258  1.00  9.28 LIG 0.20  C 
BRANCH 33 34
ATOM     34  CB  THR B2841      -6.652 -12.564  18.951  1.00  5.66 LIG 0.15  C 
ATOM     35  CG2 THR B2841      -7.922 -12.349  18.108  1.00  2.82 LIG 0.04  C 
BRANCH 34 36
ATOM     36 OG1  THR B2841      -7.027 -13.099  20.226  1.00  4.58 LIG-0.39  OA
ATOM     37 HG1  THR B2841      -6.402 -12.980  20.775  1.00  4.58 LIG 0.21  HD
ENDBRANCH 34 36
ENDBRANCH 33 34
BRANCH 33 38
ATOM     38  C   THR B2841      -5.776 -13.317  16.754  1.00 11.02 LIG 0.24  C 
ATOM     39  N   SER B2842      -5.980 -14.403  16.002  1.00  4.17 LIG-0.34  N 
ATOM     40 H    SER B2842      -5.979 -15.206  16.309  1.00  4.17 LIG 0.16  HD
ATOM     41 O    THR B2841      -5.647 -12.182  16.288  1.00  9.65 LIG-0.27  OA
BRANCH 39 42
ATOM     42  CA  SER B2842      -6.225 -14.303  14.570  1.00  7.92 LIG 0.20  C 
BRANCH 42 43
ATOM     43  C   SER B2842      -7.556 -13.617  14.328  1.00  8.41 LIG 0.24  C 
ATOM     44  N   VAL B2843      -7.672 -12.971  13.174  1.00 12.74 LIG-0.34  N 
ATOM     45 H    VAL B2843      -7.058 -12.955  12.573  1.00 12.74 LIG 0.16  HD
ATOM     46 O    SER B2842      -8.447 -13.665  15.167  1.00  7.66 LIG-0.27  OA
BRANCH 44 47
ATOM     47  CA  VAL B2843      -8.866 -12.223  12.823  1.00 16.92 LIG 0.19  C 
BRANCH 47 48
ATOM     48  C   VAL B2843      -9.317 -12.562  11.403  1.00 17.95 LIG 0.20  C 
ATOM     49 OXT  VAL B2843      -8.561 -13.165  10.627  1.00 12.52 LIG-0.65  OA
ATOM     50 O    VAL B2843     -10.439 -12.248  11.003  1.00 13.13 LIG-0.65  OA
ENDBRANCH 47 48
BRANCH 47 51
ATOM     51  CB  VAL B2843      -8.619 -10.701  12.955  1.00 12.90 LIG 0.01  C 
ATOM     52  CG2 VAL B2843      -7.332 -10.415  13.730  1.00 11.86 LIG 0.01  C 
ATOM     53  CG1 VAL B2843      -9.804 -10.035  13.631  1.00 11.26 LIG 0.01  C 
ENDBRANCH 47 51
ENDBRANCH 44 47
ENDBRANCH 42 43
BRANCH 42 54
ATOM     54  CB  SER B2842      -6.208 -15.683  13.900  1.00 13.40 LIG 0.20  C 
BRANCH 54 55
ATOM     55 OG   SER B2842      -5.015 -15.878  13.163  1.00 24.06 LIG-0.40  OA
ATOM     56 HG   SER B2842      -4.518 -15.207  13.251  1.00 24.06 LIG 0.21  HD
ENDBRANCH 54 55
ENDBRANCH 42 54
ENDBRANCH 39 42
ENDBRANCH 33 38
ENDBRANCH 31 33
ENDBRANCH 1 29
TORSDOF 22
ENDMDL
MODEL 4
USER: ADFR SOLUTION from run 61
USER: SCORE 15.867950 LL:  -3.585 LR: -14.937 RR:   0.000 FEB:  -8.374
USER: RMSD 4.274709
USER: SEED 60
USER: STATUS no improvement in best in 7 clusters for 5 generations
USER: GENES 24
USER: genes 0 Translation |==|  0.53106 0.53170 0.45829
USER: genes 1 Rotation |==|  0.39019 0.53378 0.41092 0.97840
USER: genes 2 Torsion [CB]-CA--N-[C] |==|  0.17461
USER: genes 3 Torsion [N]-C--CA-[N] |==|  0.12412
USER: genes 4 Torsion [C]-CA--CB-[CG] |==|  0.29716
USER: genes 5 Torsion [CA]-CB--CG-[CD1] |==|  0.37074
USER: genes 6 Torsion [C]-CA--N-[C] |==|  0.75201
USER: genes 7 Torsion [N]-C--CA-[N] |==|  0.84828
USER: genes 8 Torsion [C]-CA--CB-[CG] |==|  0.18764
USER: genes 9 Torsion [CA]-CB--CG-[CD1] |==|  0.54014
USER: genes 10 Torsion [CE1]-CZ--OH-[HH] |==|  0.58054
USER: genes 11 Torsion [N]-CA--CB-[CG2] |==|  0.61868
USER: genes 12 Torsion [N]-CA--C-[N] |==|  0.40030
USER: genes 13 Torsion [C]-N--CA-[CB] |==|  0.19511
USER: genes 14 Torsion [N]-CA--CB-[CG2] |==|  0.43065
USER: genes 15 Torsion [CA]-CB--OG1-[HG1] |==|  0.24283
USER: genes 16 Torsion [N]-CA--C-[N] |==|  0.27654
USER: genes 17 Torsion [C]-N--CA-[C] |==|  0.81244
USER: genes 18 Torsion [N]-CA--C-[N] |==|  0.43129
USER: genes 19 Torsion [C]-N--CA-[C] |==|  0.60833
USER: genes 20 Torsion [N]-CA--C-[OXT] |==|  0.97645
USER: genes 21 Torsion [N]-CA--CB-[CG2] |==|  0.04510
USER: genes 22 Torsion [N]-CA--CB-[OG] |==|  0.69385
USER: genes 23 Torsion [CA]-CB--OG-[HG] |==|  0.02111
ROOT
ATOM      1  CA  VAL B2840      -2.323 -13.659  20.252  1.00 12.24 LIG 0.18  C 
ENDROOT
BRANCH 1 2
ATOM      2  N   VAL B2840      -2.243 -13.352  21.678  1.00  7.10 LIG-0.35  N 
ATOM      3  C   LEU B2839      -1.090 -13.025  22.253  1.00  9.29 LIG 0.24  C 
ATOM      4 O    LEU B2839      -0.004 -13.080  21.667  1.00  7.82 LIG-0.27  OA
ATOM      5 H    VAL B2840      -2.992 -13.402  22.096  1.00  7.10 LIG 0.16  HD
BRANCH 3 6
ATOM      6  CA  LEU B2839      -1.162 -12.595  23.707  1.00  6.33 LIG 0.18  C 
BRANCH 6 7
ATOM      7  CB  LEU B2839       0.255 -12.569  24.292  1.00 14.59 LIG 0.04  C 
BRANCH 7 8
ATOM      8  CG  LEU B2839       0.832 -11.178  24.527  1.00 24.41 LIG-0.02  C 
ATOM      9  CD1 LEU B2839       1.479 -11.065  25.917  1.00 21.70 LIG 0.01  C 
ATOM     10  CD2 LEU B2839       1.825 -10.834  23.417  1.00 24.63 LIG 0.01  C 
ENDBRANCH 7 8
ENDBRANCH 6 7
BRANCH 6 11
ATOM     11  N   LEU B2839      -2.030 -13.492  24.474  1.00 12.50 LIG-0.35  N 
ATOM     12 H    LEU B2839      -1.622 -14.158  24.833  1.00 12.50 LIG 0.16  HD
ATOM     13  C   TYR B2838      -3.343 -13.273  24.593  1.00 14.62 LIG 0.26  C 
ATOM     14 O    TYR B2838      -3.908 -12.283  24.130  1.00 16.58 LIG-0.27  OA
BRANCH 13 15
ATOM     15  CA  TYR B2838      -4.158 -14.312  25.350  1.00 17.58 LIG 0.40  C 
ATOM     16  N   TYR B2838      -3.996 -15.662  24.824  1.00 19.10 LIG 0.61  N 
BRANCH 15 17
ATOM     17  CB  TYR B2838      -3.849 -14.254  26.846  1.00 37.20 LIG 0.09  C 
BRANCH 17 18
ATOM     18  CG  TYR B2838      -4.331 -12.978  27.494  1.00 53.42 LIG-0.06  A 
ATOM     19  CD1 TYR B2838      -3.888 -12.609  28.761  1.00 57.26 LIG 0.01  A 
ATOM     20  CE1 TYR B2838      -4.324 -11.435  29.361  1.00 58.59 LIG 0.04  A 
ATOM     21  CZ  TYR B2838      -5.211 -10.612  28.691  1.00 63.46 LIG 0.07  A 
ATOM     22  CE2 TYR B2838      -5.664 -10.955  27.431  1.00 67.17 LIG 0.04  A 
ATOM     23  CD2 TYR B2838      -5.222 -12.135  26.838  1.00 64.10 LIG 0.01  A 
BRANCH 21 24
ATOM     24 OH   TYR B2838      -5.647  -9.445  29.284  1.00 64.89 LIG-0.36  OA
ATOM     25 HH   TYR B2838      -6.417  -9.259  29.003  1.00 64.89 LIG 0.22  HD
ENDBRANCH 21 24
ENDBRANCH 17 18
ENDBRANCH 15 17
ENDBRANCH 13 15
ENDBRANCH 6 11
ENDBRANCH 3 6
ENDBRANCH 1 2
BRANCH 1 26
ATOM     26  CB  VAL B2840      -1.490 -14.906  19.881  1.00 14.53 LIG 0.01  C 
ATOM     27  CG1 VAL B2840      -2.395 -16.119  19.738  1.00 16.85 LIG 0.01  C 
ATOM     28  CG2 VAL B2840      -0.724 -14.661  18.583  1.00 19.78 LIG 0.01  C 
ENDBRANCH 1 26
BRANCH 1 29
ATOM     29  C   VAL B2840      -3.781 -13.869  19.835  1.00 10.08 LIG 0.24  C 
ATOM     30 O    VAL B2840      -4.571 -14.421  20.592  1.00 13.99 LIG-0.27  OA
ATOM     31  N   THR B2841      -4.136 -13.442  18.629  1.00  7.81 LIG-0.34  N 
ATOM     32 H    THR B2841      -3.588 -13.123  18.047  1.00  7.81 LIG 0.16  HD
BRANCH 31 33
ATOM     33  CA  THR B2841      -5.529 -13.490  18.194  1.00  9.28 LIG 0.20  C 
BRANCH 33 34
ATOM     34  CB  THR B2841      -6.384 -12.462  18.949  1.00  5.66 LIG 0.15  C 
ATOM     35  CG2 THR B2841      -7.622 -12.069  18.123  1.00  2.82 LIG 0.04  C 
BRANCH 34 36
ATOM     36 OG1  THR B2841      -6.817 -13.033  20.189  1.00  4.58 LIG-0.39  OA
ATOM     37 HG1  THR B2841      -6.235 -12.896  20.779  1.00  4.58 LIG 0.21  HD
ENDBRANCH 34 36
ENDBRANCH 33 34
BRANCH 33 38
ATOM     38  C   THR B2841      -5.678 -13.241  16.700  1.00 11.02 LIG 0.24  C 
ATOM     39  N   SER B2842      -5.830 -14.324  15.932  1.00  4.17 LIG-0.34  N 
ATOM     40 H    SER B2842      -5.761 -15.131  16.221  1.00  4.17 LIG 0.16  HD
ATOM     41 O    THR B2841      -5.647 -12.091  16.254  1.00  9.65 LIG-0.27  OA
BRANCH 39 42
ATOM     42  CA  SER B2842      -6.133 -14.215  14.511  1.00  7.92 LIG 0.20  C 
BRANCH 42 43
ATOM     43  C   SER B2842      -7.526 -13.645  14.330  1.00  8.41 LIG 0.24  C 
ATOM     44  N   VAL B2843      -7.751 -13.024  13.178  1.00 12.74 LIG-0.34  N 
ATOM     45 H    VAL B2843      -7.170 -12.964  12.547  1.00 12.74 LIG 0.16  HD
ATOM     46 O    SER B2842      -8.369 -13.757  15.212  1.00  7.66 LIG-0.27  OA
BRANCH 44 47
ATOM     47  CA  VAL B2843      -9.019 -12.382  12.880  1.00 16.92 LIG 0.19  C 
BRANCH 47 48
ATOM     48  C   VAL B2843      -9.408 -12.607  11.419  1.00 17.95 LIG 0.20  C 
ATOM     49 OXT  VAL B2843      -8.609 -13.126  10.625  1.00 12.52 LIG-0.65  OA
ATOM     50 O    VAL B2843     -10.521 -12.283  11.003  1.00 13.13 LIG-0.65  OA
ENDBRANCH 47 48
BRANCH 47 51
ATOM     51  CB  VAL B2843      -8.953 -10.867  13.187  1.00 12.90 LIG 0.01  C 
ATOM     52  CG2 VAL B2843      -7.506 -10.395  13.327  1.00 11.86 LIG 0.01  C 
ATOM     53  CG1 VAL B2843      -9.738 -10.554  14.447  1.00 11.26 LIG 0.01  C 
ENDBRANCH 47 51
ENDBRANCH 44 47
ENDBRANCH 42 43
BRANCH 42 54
ATOM     54  CB  SER B2842      -6.016 -15.573  13.807  1.00 13.40 LIG 0.20  C 
BRANCH 54 55
ATOM     55 OG   SER B2842      -4.898 -15.604  12.940  1.00 24.06 LIG-0.40  OA
ATOM     56 HG   SER B2842      -4.441 -14.908  13.047  1.00 24.06 LIG 0.21  HD
ENDBRANCH 54 55
ENDBRANCH 42 54
ENDBRANCH 39 42
ENDBRANCH 33 38
ENDBRANCH 31 33
ENDBRANCH 1 29
TORSDOF 22
ENDMDL
MODEL 5
USER: ADFR SOLUTION from run 4
USER: SCORE 17.092916 LL:  -3.797 LR: -14.873 RR:   0.000 FEB:  -8.310
USER: RMSD 4.441177
USER: SEED 742353
USER: STATUS searching
USER: GENES 24
USER: genes 0 Translation |==|  0.50417 0.52306 0.47525
USER: genes 1 Rotation |==|  0.52900 0.51640 0.51091 0.99877
USER: genes 2 Torsion [CB]-CA--N-[C] |==|  0.55000
USER: genes 3 Torsion [N]-C--CA-[N] |==|  0.40347
USER: genes 4 Torsion [C]-CA--CB-[CG] |==|  0.89158
USER: genes 5 Torsion [CA]-CB--CG-[CD1] |==|  0.46133
USER: genes 6 Torsion [C]-CA--N-[C] |==|  0.85555
USER: genes 7 Torsion [N]-C--CA-[N] |==|  0.88421
USER: genes 8 Torsion [C]-CA--CB-[CG] |==|  0.37720
USER: genes 9 Torsion [CA]-CB--CG-[CD1] |==|  0.45502
USER: genes 10 Torsion [CE1]-CZ--OH-[HH] |==|  0.46671
USER: genes 11 Torsion [N]-CA--CB-[CG2] |==|  0.82613
USER: genes 12 Torsion [N]-CA--C-[N] |==|  0.41670
USER: genes 13 Torsion [C]-N--CA-[CB] |==|  0.27213
USER: genes 14 Torsion [N]-CA--CB-[CG2] |==|  0.50027
USER: genes 15 Torsion [CA]-CB--OG1-[HG1] |==|  0.15384
USER: genes 16 Torsion [N]-CA--C-[N] |==|  0.32926
USER: genes 17 Torsion [C]-N--CA-[C] |==|  0.78949
USER: genes 18 Torsion [N]-CA--C-[N] |==|  0.43610
USER: genes 19 Torsion [C]-N--CA-[C] |==|  0.63929
USER: genes 20 Torsion [N]-CA--C-[OXT] |==|  0.94663
USER: genes 21 Torsion [N]-CA--CB-[CG2] |==|  0.97224
USER: genes 22 Torsion [N]-CA--CB-[OG] |==|  0.65522
USER: genes 23 Torsion [CA]-CB--OG-[HG] |==|  0.07397
ROOT
ATOM      1  CA  VAL B2840      -2.928 -13.795  20.761  1.00 12.24 LIG 0.18  C 
ENDROOT
BRANCH 1 2
ATOM      2  N   VAL B2840      -2.930 -14.310  22.128  1.00  7.10 LIG-0.35  N 
ATOM      3  C   LEU B2839      -4.036 -14.318  22.864  1.00  9.29 LIG 0.24  C 
ATOM      4 O    LEU B2839      -5.091 -13.786  22.504  1.00  7.82 LIG-0.27  OA
ATOM      5 H    VAL B2840      -2.167 -14.599  22.401  1.00  7.10 LIG 0.16  HD
BRANCH 3 6
ATOM      6  CA  LEU B2839      -3.940 -15.004  24.215  1.00  6.33 LIG 0.18  C 
BRANCH 6 7
ATOM      7  CB  LEU B2839      -4.359 -16.471  24.062  1.00 14.59 LIG 0.04  C 
BRANCH 7 8
ATOM      8  CG  LEU B2839      -5.534 -16.712  23.120  1.00 24.41 LIG-0.02  C 
ATOM      9  CD1 LEU B2839      -5.668 -18.201  22.757  1.00 21.70 LIG 0.01  C 
ATOM     10  CD2 LEU B2839      -6.819 -16.170  23.745  1.00 24.63 LIG 0.01  C 
ENDBRANCH 7 8
ENDBRANCH 6 7
BRANCH 6 11
ATOM     11  N   LEU B2839      -4.772 -14.321  25.208  1.00 12.50 LIG-0.35  N 
ATOM     12 H    LEU B2839      -5.313 -14.839  25.632  1.00 12.50 LIG 0.16  HD
ATOM     13  C   TYR B2838      -4.683 -13.005  25.420  1.00 14.62 LIG 0.26  C 
ATOM     14 O    TYR B2838      -3.863 -12.283  24.854  1.00 16.58 LIG-0.27  OA
BRANCH 13 15
ATOM     15  CA  TYR B2838      -5.651 -12.392  26.423  1.00 17.58 LIG 0.40  C 
ATOM     16  N   TYR B2838      -7.005 -12.917  26.306  1.00 19.10 LIG 0.61  N 
BRANCH 15 17
ATOM     17  CB  TYR B2838      -5.116 -12.537  27.847  1.00 37.20 LIG 0.09  C 
BRANCH 17 18
ATOM     18  CG  TYR B2838      -5.267 -11.273  28.660  1.00 53.42 LIG-0.06  A 
ATOM     19  CD1 TYR B2838      -5.155 -11.299  30.048  1.00 57.26 LIG 0.01  A 
ATOM     20  CE1 TYR B2838      -5.288 -10.141  30.801  1.00 58.59 LIG 0.04  A 
ATOM     21  CZ  TYR B2838      -5.534  -8.936  30.167  1.00 63.46 LIG 0.07  A 
ATOM     22  CE2 TYR B2838      -5.647  -8.883  28.791  1.00 67.17 LIG 0.04  A 
ATOM     23  CD2 TYR B2838      -5.513 -10.051  28.044  1.00 64.10 LIG 0.01  A 
BRANCH 21 24
ATOM     24 OH   TYR B2838      -5.668  -7.783  30.912  1.00 64.89 LIG-0.36  OA
ATOM     25 HH   TYR B2838      -5.649  -7.116  30.401  1.00 64.89 LIG 0.22  HD
ENDBRANCH 21 24
ENDBRANCH 17 18
ENDBRANCH 15 17
ENDBRANCH 13 15
ENDBRANCH 6 11
ENDBRANCH 3 6
ENDBRANCH 1 2
BRANCH 1 26
ATOM     26  CB  VAL B2840      -1.698 -14.279  19.962  1.00 14.53 LIG 0.01  C 
ATOM     27  CG1 VAL B2840      -1.794 -13.814  18.517  1.00 16.85 LIG 0.01  C 
ATOM     28  CG2 VAL B2840      -0.415 -13.757  20.602  1.00 19.78 LIG 0.01  C 
ENDBRANCH 1 26
BRANCH 1 29
ATOM     29  C   VAL B2840      -4.211 -14.209  20.036  1.00 10.08 LIG 0.24  C 
ATOM     30 O    VAL B2840      -4.774 -15.261  20.318  1.00 13.99 LIG-0.27  OA
ATOM     31  N   THR B2841      -4.667 -13.393  19.093  1.00  7.81 LIG-0.34  N 
ATOM     32 H    THR B2841      -4.254 -12.690  18.819  1.00  7.81 LIG 0.16  HD
BRANCH 31 33
ATOM     33  CA  THR B2841      -5.946 -13.645  18.434  1.00  9.28 LIG 0.20  C 
BRANCH 33 34
ATOM     34  CB  THR B2841      -7.070 -12.806  19.059  1.00  5.66 LIG 0.15  C 
ATOM     35  CG2 THR B2841      -8.412 -13.082  18.359  1.00  2.82 LIG 0.04  C 
BRANCH 34 36
ATOM     36 OG1  THR B2841      -7.192 -13.145  20.446  1.00  4.58 LIG-0.39  OA
ATOM     37 HG1  THR B2841      -6.449 -13.044  20.825  1.00  4.58 LIG 0.21  HD
ENDBRANCH 34 36
ENDBRANCH 33 34
BRANCH 33 38
ATOM     38  C   THR B2841      -5.896 -13.352  16.941  1.00 11.02 LIG 0.24  C 
ATOM     39  N   SER B2842      -6.135 -14.385  16.128  1.00  4.17 LIG-0.34  N 
ATOM     40 H    SER B2842      -6.225 -15.197  16.396  1.00  4.17 LIG 0.16  HD
ATOM     41 O    THR B2841      -5.637 -12.215  16.538  1.00  9.65 LIG-0.27  OA
BRANCH 39 42
ATOM     42  CA  SER B2842      -6.265 -14.208  14.688  1.00  7.92 LIG 0.20  C 
BRANCH 42 43
ATOM     43  C   SER B2842      -7.619 -13.602  14.370  1.00  8.41 LIG 0.24  C 
ATOM     44  N   VAL B2843      -7.706 -12.957  13.213  1.00 12.74 LIG-0.34  N 
ATOM     45 H    VAL B2843      -7.060 -12.901  12.649  1.00 12.74 LIG 0.16  HD
ATOM     46 O    SER B2842      -8.553 -13.708  15.156  1.00  7.66 LIG-0.27  OA
BRANCH 44 47
ATOM     47  CA  VAL B2843      -8.921 -12.280  12.794  1.00 16.92 LIG 0.19  C 
BRANCH 47 48
ATOM     48  C   VAL B2843      -9.306 -12.693  11.374  1.00 17.95 LIG 0.20  C 
ATOM     49 OXT  VAL B2843      -8.469 -13.204  10.615  1.00 12.52 LIG-0.65  OA
ATOM     50 O    VAL B2843     -10.454 -12.531  10.957  1.00 13.13 LIG-0.65  OA
ENDBRANCH 47 48
BRANCH 47 51
ATOM     51  CB  VAL B2843      -8.750 -10.745  12.876  1.00 12.90 LIG 0.01  C 
ATOM     52  CG2 VAL B2843      -7.456 -10.371  13.600  1.00 11.86 LIG 0.01  C 
ATOM     53  CG1 VAL B2843      -9.946 -10.121  13.572  1.00 11.26 LIG 0.01  C 
ENDBRANCH 47 51
ENDBRANCH 44 47
ENDBRANCH 42 43
BRANCH 42 54
ATOM     54  CB  SER B2842      -6.087 -15.536  13.941  1.00 13.40 LIG 0.20  C 
BRANCH 54 55
ATOM     55 OG   SER B2842      -5.059 -15.443  12.973  1.00 24.06 LIG-0.40  OA
ATOM     56 HG   SER B2842      -4.506 -14.854  13.206  1.00 24.06 LIG 0.21  HD
ENDBRANCH 54 55
ENDBRANCH 42 54
ENDBRANCH 39 42
ENDBRANCH 33 38
ENDBRANCH 31 33
ENDBRANCH 1 29
TORSDOF 22
ENDMDL
MODEL 6
USER: ADFR SOLUTION from run 10
USER: SCORE 15.983630 LL:  -3.790 LR: -14.864 RR:   0.000 FEB:  -8.302
USER: RMSD 6.068326
USER: SEED 241461
USER: STATUS no improvement in best in 4 clusters for 5 generations
USER: GENES 24
USER: genes 0 Translation |==|  0.49368 0.54337 0.47906
USER: genes 1 Rotation |==|  0.49697 0.51158 0.49622 0.99984
USER: genes 2 Torsion [CB]-CA--N-[C] |==|  0.27693
USER: genes 3 Torsion [N]-C--CA-[N] |==|  0.87135
USER: genes 4 Torsion [C]-CA--CB-[CG] |==|  0.27081
USER: genes 5 Torsion [CA]-CB--CG-[CD1] |==|  0.46436
USER: genes 6 Torsion [C]-CA--N-[C] |==|  0.65787
USER: genes 7 Torsion [N]-C--CA-[N] |==|  0.51887
USER: genes 8 Torsion [C]-CA--CB-[CG] |==|  0.60030
USER: genes 9 Torsion [CA]-CB--CG-[CD1] |==|  0.75300
USER: genes 10 Torsion [CE1]-CZ--OH-[HH] |==|  0.13223
USER: genes 11 Torsion [N]-CA--CB-[CG2] |==|  0.80487
USER: genes 12 Torsion [N]-CA--C-[N] |==|  0.41911
USER: genes 13 Torsion [C]-N--CA-[CB] |==|  0.25177
USER: genes 14 Torsion [N]-CA--CB-[CG2] |==|  0.47881
USER: genes 15 Torsion [CA]-CB--OG1-[HG1] |==|  0.15509
USER: genes 16 Torsion [N]-CA--C-[N] |==|  0.32398
USER: genes 17 Torsion [C]-N--CA-[C] |==|  0.79721
USER: genes 18 Torsion [N]-CA--C-[N] |==|  0.42961
USER: genes 19 Torsion [C]-N--CA-[C] |==|  0.64039
USER: genes 20 Torsion [N]-CA--C-[OXT] |==|  0.94402
USER: genes 21 Torsion [N]-CA--CB-[CG2] |==|  0.96874
USER: genes 22 Torsion [N]-CA--CB-[OG] |==|  0.69979
USER: genes 23 Torsion [CA]-CB--OG-[HG] |==|  0.00594
ROOT
ATOM      1  CA  VAL B2840      -3.164 -13.475  20.875  1.00 12.24 LIG 0.18  C 
ENDROOT
BRANCH 1 2
ATOM      2  N   VAL B2840      -3.216 -13.807  22.297  1.00  7.10 LIG-0.35  N 
ATOM      3  C   LEU B2839      -2.781 -12.960  23.223  1.00  9.29 LIG 0.24  C 
ATOM      4 O    LEU B2839      -2.197 -11.905  22.953  1.00  7.82 LIG-0.27  OA
ATOM      5 H    VAL B2840      -3.545 -14.583  22.470  1.00  7.10 LIG 0.16  HD
BRANCH 3 6
ATOM      6  CA  LEU B2839      -3.016 -13.363  24.667  1.00  6.33 LIG 0.18  C 
BRANCH 6 7
ATOM      7  CB  LEU B2839      -2.003 -14.446  25.055  1.00 14.59 LIG 0.04  C 
BRANCH 7 8
ATOM      8  CG  LEU B2839      -0.770 -13.942  25.797  1.00 24.41 LIG-0.02  C 
ATOM      9  CD1 LEU B2839       0.026 -15.102  26.420  1.00 21.70 LIG 0.01  C 
ATOM     10  CD2 LEU B2839       0.099 -13.110  24.855  1.00 24.63 LIG 0.01  C 
ENDBRANCH 7 8
ENDBRANCH 6 7
BRANCH 6 11
ATOM     11  N   LEU B2839      -4.389 -13.837  24.860  1.00 12.50 LIG-0.35  N 
ATOM     12 H    LEU B2839      -4.611 -14.494  24.351  1.00 12.50 LIG 0.16  HD
ATOM     13  C   TYR B2838      -5.209 -13.280  25.756  1.00 14.62 LIG 0.26  C 
ATOM     14 O    TYR B2838      -4.862 -12.382  26.524  1.00 16.58 LIG-0.27  OA
BRANCH 13 15
ATOM     15  CA  TYR B2838      -6.637 -13.804  25.816  1.00 17.58 LIG 0.40  C 
ATOM     16  N   TYR B2838      -7.493 -13.033  26.709  1.00 19.10 LIG 0.61  N 
BRANCH 15 17
ATOM     17  CB  TYR B2838      -7.235 -13.901  24.413  1.00 37.20 LIG 0.09  C 
BRANCH 17 18
ATOM     18  CG  TYR B2838      -8.706 -13.557  24.379  1.00 53.42 LIG-0.06  A 
ATOM     19  CD1 TYR B2838      -9.674 -14.537  24.581  1.00 57.26 LIG 0.01  A 
ATOM     20  CE1 TYR B2838     -11.027 -14.226  24.555  1.00 58.59 LIG 0.04  A 
ATOM     21  CZ  TYR B2838     -11.426 -12.921  24.328  1.00 63.46 LIG 0.07  A 
ATOM     22  CE2 TYR B2838     -10.484 -11.930  24.127  1.00 67.17 LIG 0.04  A 
ATOM     23  CD2 TYR B2838      -9.129 -12.251  24.154  1.00 64.10 LIG 0.01  A 
BRANCH 21 24
ATOM     24 OH   TYR B2838     -12.769 -12.609  24.300  1.00 64.89 LIG-0.36  OA
ATOM     25 HH   TYR B2838     -13.151 -12.953  24.965  1.00 64.89 LIG 0.22  HD
ENDBRANCH 21 24
ENDBRANCH 17 18
ENDBRANCH 15 17
ENDBRANCH 13 15
ENDBRANCH 6 11
ENDBRANCH 3 6
ENDBRANCH 1 2
BRANCH 1 26
ATOM     26  CB  VAL B2840      -1.951 -14.125  20.172  1.00 14.53 LIG 0.01  C 
ATOM     27  CG1 VAL B2840      -2.096 -14.010  18.663  1.00 16.85 LIG 0.01  C 
ATOM     28  CG2 VAL B2840      -0.657 -13.460  20.633  1.00 19.78 LIG 0.01  C 
ENDBRANCH 1 26
BRANCH 1 29
ATOM     29  C   VAL B2840      -4.458 -13.909  20.181  1.00 10.08 LIG 0.24  C 
ATOM     30 O    VAL B2840      -5.092 -14.874  20.593  1.00 13.99 LIG-0.27  OA
ATOM     31  N   THR B2841      -4.843 -13.210  19.120  1.00  7.81 LIG-0.34  N 
ATOM     32 H    THR B2841      -4.380 -12.580  18.761  1.00  7.81 LIG 0.16  HD
BRANCH 31 33
ATOM     33  CA  THR B2841      -6.123 -13.475  18.469  1.00  9.28 LIG 0.20  C 
BRANCH 33 34
ATOM     34  CB  THR B2841      -7.242 -12.612  19.068  1.00  5.66 LIG 0.15  C 
ATOM     35  CG2 THR B2841      -8.540 -12.758  18.254  1.00  2.82 LIG 0.04  C 
BRANCH 34 36
ATOM     36 OG1  THR B2841      -7.489 -13.033  20.414  1.00  4.58 LIG-0.39  OA
ATOM     37 HG1  THR B2841      -6.775 -12.997  20.855  1.00  4.58 LIG 0.21  HD
ENDBRANCH 34 36
ENDBRANCH 33 34
BRANCH 33 38
ATOM     38  C   THR B2841      -6.071 -13.228  16.968  1.00 11.02 LIG 0.24  C 
ATOM     39  N   SER B2842      -6.276 -14.292  16.186  1.00  4.17 LIG-0.34  N 
ATOM     40 H    SER B2842      -6.345 -15.097  16.479  1.00  4.17 LIG 0.16  HD
ATOM     41 O    THR B2841      -5.840 -12.097  16.530  1.00  9.65 LIG-0.27  OA
BRANCH 39 42
ATOM     42  CA  SER B2842      -6.402 -14.163  14.740  1.00  7.92 LIG 0.20  C 
BRANCH 42 43
ATOM     43  C   SER B2842      -7.742 -13.541  14.399  1.00  8.41 LIG 0.24  C 
ATOM     44  N   VAL B2843      -7.801 -12.895  13.241  1.00 12.74 LIG-0.34  N 
ATOM     45 H    VAL B2843      -7.145 -12.846  12.688  1.00 12.74 LIG 0.16  HD
ATOM     46 O    SER B2842      -8.691 -13.637  15.168  1.00  7.66 LIG-0.27  OA
BRANCH 44 47
ATOM     47  CA  VAL B2843      -9.000 -12.203  12.802  1.00 16.92 LIG 0.19  C 
BRANCH 47 48
ATOM     48  C   VAL B2843      -9.371 -12.618  11.378  1.00 17.95 LIG 0.20  C 
ATOM     49 OXT  VAL B2843      -8.526 -13.128  10.628  1.00 12.52 LIG-0.65  OA
ATOM     50 O    VAL B2843     -10.514 -12.458  10.949  1.00 13.13 LIG-0.65  OA
ENDBRANCH 47 48
BRANCH 47 51
ATOM     51  CB  VAL B2843      -8.810 -10.670  12.878  1.00 12.90 LIG 0.01  C 
ATOM     52  CG2 VAL B2843      -7.537 -10.310  13.645  1.00 11.86 LIG 0.01  C 
ATOM     53  CG1 VAL B2843     -10.020 -10.023  13.525  1.00 11.26 LIG 0.01  C 
ENDBRANCH 47 51
ENDBRANCH 44 47
ENDBRANCH 42 43
BRANCH 42 54
ATOM     54  CB  SER B2842      -6.250 -15.520  14.041  1.00 13.40 LIG 0.20  C 
BRANCH 54 55
ATOM     55 OG   SER B2842      -5.016 -15.606  13.354  1.00 24.06 LIG-0.40  OA
ATOM     56 HG   SER B2842      -4.575 -14.902  13.480  1.00 24.06 LIG 0.21  HD
ENDBRANCH 54 55
ENDBRANCH 42 54
ENDBRANCH 39 42
ENDBRANCH 33 38
ENDBRANCH 31 33
ENDBRANCH 1 29
TORSDOF 22
ENDMDL
MODEL 7
USER: ADFR SOLUTION from run 179
USER: SCORE 16.268640 LL:  -4.148 LR: -14.513 RR:   0.000 FEB:  -7.950
USER: RMSD 2.850443
USER: SEED 178
USER: STATUS searching
USER: GENES 24
USER: genes 0 Translation |==|  0.48482 0.52872 0.49019
USER: genes 1 Rotation |==|  0.49693 0.48557 0.49793 0.99978
USER: genes 2 Torsion [CB]-CA--N-[C] |==|  0.25508
USER: genes 3 Torsion [N]-C--CA-[N] |==|  0.37431
USER: genes 4 Torsion [C]-CA--CB-[CG] |==|  0.31796
USER: genes 5 Torsion [CA]-CB--CG-[CD1] |==|  0.52502
USER: genes 6 Torsion [C]-CA--N-[C] |==|  0.65660
USER: genes 7 Torsion [N]-C--CA-[N] |==|  0.93991
USER: genes 8 Torsion [C]-CA--CB-[CG] |==|  0.91430
USER: genes 9 Torsion [CA]-CB--CG-[CD1] |==|  0.73263
USER: genes 10 Torsion [CE1]-CZ--OH-[HH] |==|  0.35379
USER: genes 11 Torsion [N]-CA--CB-[CG2] |==|  0.75059
USER: genes 12 Torsion [N]-CA--C-[N] |==|  0.39654
USER: genes 13 Torsion [C]-N--CA-[CB] |==|  0.27187
USER: genes 14 Torsion [N]-CA--CB-[CG2] |==|  0.51294
USER: genes 15 Torsion [CA]-CB--OG1-[HG1] |==|  0.13129
USER: genes 16 Torsion [N]-CA--C-[N] |==|  0.34826
USER: genes 17 Torsion [C]-N--CA-[C] |==|  0.78143
USER: genes 18 Torsion [N]-CA--C-[N] |==|  0.44759
USER: genes 19 Torsion [C]-N--CA-[C] |==|  0.64069
USER: genes 20 Torsion [N]-CA--C-[OXT] |==|  0.93298
USER: genes 21 Torsion [N]-CA--CB-[CG2] |==|  0.96899
USER: genes 22 Torsion [N]-CA--CB-[OG] |==|  0.68522
USER: genes 23 Torsion [CA]-CB--OG-[HG] |==|  0.98751
ROOT
ATOM      1  CA  VAL B2840      -3.364 -13.706  21.209  1.00 12.24 LIG 0.18  C 
ENDROOT
BRANCH 1 2
ATOM      2  N   VAL B2840      -3.560 -14.038  22.618  1.00  7.10 LIG-0.35  N 
ATOM      3  C   LEU B2839      -3.092 -13.257  23.586  1.00  9.29 LIG 0.24  C 
ATOM      4 O    LEU B2839      -2.362 -12.283  23.374  1.00  7.82 LIG-0.27  OA
ATOM      5 H    VAL B2840      -3.995 -14.767  22.755  1.00  7.10 LIG 0.16  HD
BRANCH 3 6
ATOM      6  CA  LEU B2839      -3.480 -13.637  25.003  1.00  6.33 LIG 0.18  C 
BRANCH 6 7
ATOM      7  CB  LEU B2839      -4.593 -12.701  25.485  1.00 14.59 LIG 0.04  C 
BRANCH 7 8
ATOM      8  CG  LEU B2839      -5.938 -13.373  25.741  1.00 24.41 LIG-0.02  C 
ATOM      9  CD1 LEU B2839      -7.044 -12.337  26.003  1.00 21.70 LIG 0.01  C 
ATOM     10  CD2 LEU B2839      -6.292 -14.287  24.570  1.00 24.63 LIG 0.01  C 
ENDBRANCH 7 8
ENDBRANCH 6 7
BRANCH 6 11
ATOM     11  N   LEU B2839      -2.320 -13.576  25.896  1.00 12.50 LIG-0.35  N 
ATOM     12 H    LEU B2839      -1.924 -12.813  25.910  1.00 12.50 LIG 0.16  HD
ATOM     13  C   TYR B2838      -1.929 -14.630  26.619  1.00 14.62 LIG 0.26  C 
ATOM     14 O    TYR B2838      -2.538 -15.699  26.641  1.00 16.58 LIG-0.27  OA
BRANCH 13 15
ATOM     15  CA  TYR B2838      -0.665 -14.473  27.454  1.00 17.58 LIG 0.40  C 
ATOM     16  N   TYR B2838       0.204 -13.403  26.982  1.00 19.10 LIG 0.61  N 
BRANCH 15 17
ATOM     17  CB  TYR B2838      -1.013 -14.300  28.932  1.00 37.20 LIG 0.09  C 
BRANCH 17 18
ATOM     18  CG  TYR B2838      -2.338 -13.606  29.143  1.00 53.42 LIG-0.06  A 
ATOM     19  CD1 TYR B2838      -2.397 -12.234  29.379  1.00 57.26 LIG 0.01  A 
ATOM     20  CE1 TYR B2838      -3.611 -11.590  29.570  1.00 58.59 LIG 0.04  A 
ATOM     21  CZ  TYR B2838      -4.787 -12.316  29.523  1.00 63.46 LIG 0.07  A 
ATOM     22  CE2 TYR B2838      -4.756 -13.678  29.288  1.00 67.17 LIG 0.04  A 
ATOM     23  CD2 TYR B2838      -3.533 -14.316  29.099  1.00 64.10 LIG 0.01  A 
BRANCH 21 24
ATOM     24 OH   TYR B2838      -5.996 -11.680  29.713  1.00 64.89 LIG-0.36  OA
ATOM     25 HH   TYR B2838      -6.512 -11.862  29.076  1.00 64.89 LIG 0.22  HD
ENDBRANCH 21 24
ENDBRANCH 17 18
ENDBRANCH 15 17
ENDBRANCH 13 15
ENDBRANCH 6 11
ENDBRANCH 3 6
ENDBRANCH 1 2
BRANCH 1 26
ATOM     26  CB  VAL B2840      -2.079 -14.347  20.637  1.00 14.53 LIG 0.01  C 
ATOM     27  CG1 VAL B2840      -2.267 -14.672  19.163  1.00 16.85 LIG 0.01  C 
ATOM     28  CG2 VAL B2840      -0.892 -13.406  20.824  1.00 19.78 LIG 0.01  C 
ENDBRANCH 1 26
BRANCH 1 29
ATOM     29  C   VAL B2840      -4.575 -14.150  20.385  1.00 10.08 LIG 0.24  C 
ATOM     30 O    VAL B2840      -5.151 -15.201  20.642  1.00 13.99 LIG-0.27  OA
ATOM     31  N   THR B2841      -4.953 -13.361  19.386  1.00  7.81 LIG-0.34  N 
ATOM     32 H    THR B2841      -4.523 -12.661  19.132  1.00  7.81 LIG 0.16  HD
BRANCH 31 33
ATOM     33  CA  THR B2841      -6.167 -13.642  18.624  1.00  9.28 LIG 0.20  C 
BRANCH 33 34
ATOM     34  CB  THR B2841      -7.348 -12.802  19.130  1.00  5.66 LIG 0.15  C 
ATOM     35  CG2 THR B2841      -8.647 -13.189  18.399  1.00  2.82 LIG 0.04  C 
BRANCH 34 36
ATOM     36 OG1  THR B2841      -7.520 -13.032  20.533  1.00  4.58 LIG-0.39  OA
ATOM     37 HG1  THR B2841      -6.776 -12.978  20.919  1.00  4.58 LIG 0.21  HD
ENDBRANCH 34 36
ENDBRANCH 33 34
BRANCH 33 38
ATOM     38  C   THR B2841      -5.989 -13.382  17.135  1.00 11.02 LIG 0.24  C 
ATOM     39  N   SER B2842      -6.284 -14.397  16.318  1.00  4.17 LIG-0.34  N 
ATOM     40 H    SER B2842      -6.477 -15.190  16.588  1.00  4.17 LIG 0.16  HD
ATOM     41 O    THR B2841      -5.584 -12.286  16.738  1.00  9.65 LIG-0.27  OA
BRANCH 39 42
ATOM     42  CA  SER B2842      -6.301 -14.231  14.871  1.00  7.92 LIG 0.20  C 
BRANCH 42 43
ATOM     43  C   SER B2842      -7.592 -13.555  14.451  1.00  8.41 LIG 0.24  C 
ATOM     44  N   VAL B2843      -7.586 -12.994  13.247  1.00 12.74 LIG-0.34  N 
ATOM     45 H    VAL B2843      -6.916 -13.028  12.709  1.00 12.74 LIG 0.16  HD
ATOM     46 O    SER B2842      -8.561 -13.533  15.201  1.00  7.66 LIG-0.27  OA
BRANCH 44 47
ATOM     47  CA  VAL B2843      -8.729 -12.265  12.728  1.00 16.92 LIG 0.19  C 
BRANCH 47 48
ATOM     48  C   VAL B2843      -9.098 -12.763  11.331  1.00 17.95 LIG 0.20  C 
ATOM     49 OXT  VAL B2843      -8.251 -13.316  10.614  1.00 12.52 LIG-0.65  OA
ATOM     50 O    VAL B2843     -10.241 -12.629  10.893  1.00 13.13 LIG-0.65  OA
ENDBRANCH 47 48
BRANCH 47 51
ATOM     51  CB  VAL B2843      -8.442 -10.745  12.694  1.00 12.90 LIG 0.01  C 
ATOM     52  CG2 VAL B2843      -7.163 -10.408  13.461  1.00 11.86 LIG 0.01  C 
ATOM     53  CG1 VAL B2843      -9.619  -9.976  13.263  1.00 11.26 LIG 0.01  C 
ENDBRANCH 47 51
ENDBRANCH 44 47
ENDBRANCH 42 43
BRANCH 42 54
ATOM     54  CB  SER B2842      -6.146 -15.577  14.150  1.00 13.40 LIG 0.20  C 
BRANCH 54 55
ATOM     55 OG   SER B2842      -4.918 -15.643  13.451  1.00 24.06 LIG-0.40  OA
ATOM     56 HG   SER B2842      -4.522 -14.904  13.508  1.00 24.06 LIG 0.21  HD
ENDBRANCH 54 55
ENDBRANCH 42 54
ENDBRANCH 39 42
ENDBRANCH 33 38
ENDBRANCH 31 33
ENDBRANCH 1 29
TORSDOF 22
ENDMDL
MODEL 8
USER: ADFR SOLUTION from run 121
USER: SCORE 15.909783 LL:  -3.966 LR: -14.355 RR:   0.000 FEB:  -7.793
USER: RMSD 3.622806
USER: SEED 120
USER: STATUS no improvement in best in 4 clusters for 5 generations
USER: GENES 24
USER: genes 0 Translation |==|  0.50435 0.54726 0.47898
USER: genes 1 Rotation |==|  0.49461 0.52363 0.49533 0.99939
USER: genes 2 Torsion [CB]-CA--N-[C] |==|  0.26632
USER: genes 3 Torsion [N]-C--CA-[N] |==|  0.87778
USER: genes 4 Torsion [C]-CA--CB-[CG] |==|  0.49050
USER: genes 5 Torsion [CA]-CB--CG-[CD1] |==|  0.35508
USER: genes 6 Torsion [C]-CA--N-[C] |==|  0.74032
USER: genes 7 Torsion [N]-C--CA-[N] |==|  0.92501
USER: genes 8 Torsion [C]-CA--CB-[CG] |==|  0.02785
USER: genes 9 Torsion [CA]-CB--CG-[CD1] |==|  0.72994
USER: genes 10 Torsion [CE1]-CZ--OH-[HH] |==|  0.50241
USER: genes 11 Torsion [N]-CA--CB-[CG2] |==|  0.82955
USER: genes 12 Torsion [N]-CA--C-[N] |==|  0.44791
USER: genes 13 Torsion [C]-N--CA-[CB] |==|  0.22686
USER: genes 14 Torsion [N]-CA--CB-[CG2] |==|  0.46544
USER: genes 15 Torsion [CA]-CB--OG1-[HG1] |==|  0.23980
USER: genes 16 Torsion [N]-CA--C-[N] |==|  0.32120
USER: genes 17 Torsion [C]-N--CA-[C] |==|  0.80973
USER: genes 18 Torsion [N]-CA--C-[N] |==|  0.42743
USER: genes 19 Torsion [C]-N--CA-[C] |==|  0.62924
USER: genes 20 Torsion [N]-CA--C-[OXT] |==|  0.93864
USER: genes 21 Torsion [N]-CA--CB-[CG2] |==|  0.95690
USER: genes 22 Torsion [N]-CA--CB-[OG] |==|  0.70124
USER: genes 23 Torsion [CA]-CB--OG-[HG] |==|  0.99812
ROOT
ATOM      1  CA  VAL B2840      -2.924 -13.414  20.873  1.00 12.24 LIG 0.18  C 
ENDROOT
BRANCH 1 2
ATOM      2  N   VAL B2840      -2.908 -13.733  22.298  1.00  7.10 LIG-0.35  N 
ATOM      3  C   LEU B2839      -2.359 -12.911  23.187  1.00  9.29 LIG 0.24  C 
ATOM      4 O    LEU B2839      -1.722 -11.901  22.869  1.00  7.82 LIG-0.27  OA
ATOM      5 H    VAL B2840      -3.278 -14.483  22.500  1.00  7.10 LIG 0.16  HD
BRANCH 3 6
ATOM      6  CA  LEU B2839      -2.529 -13.289  24.647  1.00  6.33 LIG 0.18  C 
BRANCH 6 7
ATOM      7  CB  LEU B2839      -1.529 -14.397  24.996  1.00 14.59 LIG 0.04  C 
BRANCH 7 8
ATOM      8  CG  LEU B2839      -1.525 -14.827  26.459  1.00 24.41 LIG-0.02  C 
ATOM      9  CD1 LEU B2839      -1.678 -16.351  26.599  1.00 21.70 LIG 0.01  C 
ATOM     10  CD2 LEU B2839      -0.254 -14.326  27.144  1.00 24.63 LIG 0.01  C 
ENDBRANCH 7 8
ENDBRANCH 6 7
BRANCH 6 11
ATOM     11  N   LEU B2839      -3.903 -13.718  24.918  1.00 12.50 LIG-0.35  N 
ATOM     12 H    LEU B2839      -4.049 -14.553  24.770  1.00 12.50 LIG 0.16  HD
ATOM     13  C   TYR B2838      -4.835 -12.867  25.358  1.00 14.62 LIG 0.26  C 
ATOM     14 O    TYR B2838      -4.602 -11.689  25.628  1.00 16.58 LIG-0.27  OA
BRANCH 13 15
ATOM     15  CA  TYR B2838      -6.247 -13.408  25.534  1.00 17.58 LIG 0.40  C 
ATOM     16  N   TYR B2838      -6.544 -14.531  24.654  1.00 19.10 LIG 0.61  N 
BRANCH 15 17
ATOM     17  CB  TYR B2838      -6.513 -13.759  26.997  1.00 37.20 LIG 0.09  C 
BRANCH 17 18
ATOM     18  CG  TYR B2838      -5.426 -13.266  27.923  1.00 53.42 LIG-0.06  A 
ATOM     19  CD1 TYR B2838      -4.403 -14.115  28.339  1.00 57.26 LIG 0.01  A 
ATOM     20  CE1 TYR B2838      -3.399 -13.667  29.187  1.00 58.59 LIG 0.04  A 
ATOM     21  CZ  TYR B2838      -3.407 -12.356  29.627  1.00 63.46 LIG 0.07  A 
ATOM     22  CE2 TYR B2838      -4.410 -11.493  29.227  1.00 67.17 LIG 0.04  A 
ATOM     23  CD2 TYR B2838      -5.414 -11.952  28.377  1.00 64.10 LIG 0.01  A 
BRANCH 21 24
ATOM     24 OH   TYR B2838      -2.412 -11.908  30.470  1.00 64.89 LIG-0.36  OA
ATOM     25 HH   TYR B2838      -2.550 -11.102  30.663  1.00 64.89 LIG 0.22  HD
ENDBRANCH 21 24
ENDBRANCH 17 18
ENDBRANCH 15 17
ENDBRANCH 13 15
ENDBRANCH 6 11
ENDBRANCH 3 6
ENDBRANCH 1 2
BRANCH 1 26
ATOM     26  CB  VAL B2840      -1.749 -14.074  20.118  1.00 14.53 LIG 0.01  C 
ATOM     27  CG1 VAL B2840      -1.851 -13.784  18.629  1.00 16.85 LIG 0.01  C 
ATOM     28  CG2 VAL B2840      -0.418 -13.567  20.667  1.00 19.78 LIG 0.01  C 
ENDBRANCH 1 26
BRANCH 1 29
ATOM     29  C   VAL B2840      -4.251 -13.849  20.246  1.00 10.08 LIG 0.24  C 
ATOM     30 O    VAL B2840      -4.960 -14.679  20.804  1.00 13.99 LIG-0.27  OA
ATOM     31  N   THR B2841      -4.581 -13.304  19.081  1.00  7.81 LIG-0.34  N 
ATOM     32 H    THR B2841      -4.070 -12.780  18.629  1.00  7.81 LIG 0.16  HD
BRANCH 31 33
ATOM     33  CA  THR B2841      -5.881 -13.567  18.470  1.00  9.28 LIG 0.20  C 
BRANCH 33 34
ATOM     34  CB  THR B2841      -6.973 -12.673  19.073  1.00  5.66 LIG 0.15  C 
ATOM     35  CG2 THR B2841      -8.257 -12.729  18.226  1.00  2.82 LIG 0.04  C 
BRANCH 34 36
ATOM     36 OG1  THR B2841      -7.272 -13.128  20.398  1.00  4.58 LIG-0.39  OA
ATOM     37 HG1  THR B2841      -6.740 -12.772  20.943  1.00  4.58 LIG 0.21  HD
ENDBRANCH 34 36
ENDBRANCH 33 34
BRANCH 33 38
ATOM     38  C   THR B2841      -5.864 -13.359  16.961  1.00 11.02 LIG 0.24  C 
ATOM     39  N   SER B2842      -6.083 -14.444  16.213  1.00  4.17 LIG-0.34  N 
ATOM     40 H    SER B2842      -6.143 -15.241  16.528  1.00  4.17 LIG 0.16  HD
ATOM     41 O    THR B2841      -5.647 -12.240  16.490  1.00  9.65 LIG-0.27  OA
BRANCH 39 42
ATOM     42  CA  SER B2842      -6.241 -14.353  14.767  1.00  7.92 LIG 0.20  C 
BRANCH 42 43
ATOM     43  C   SER B2842      -7.541 -13.644  14.441  1.00  8.41 LIG 0.24  C 
ATOM     44  N   VAL B2843      -7.581 -13.019  13.270  1.00 12.74 LIG-0.34  N 
ATOM     45 H    VAL B2843      -6.935 -13.029  12.702  1.00 12.74 LIG 0.16  HD
ATOM     46 O    SER B2842      -8.476 -13.654  15.232  1.00  7.66 LIG-0.27  OA
BRANCH 44 47
ATOM     47  CA  VAL B2843      -8.737 -12.253  12.841  1.00 16.92 LIG 0.19  C 
BRANCH 47 48
ATOM     48  C   VAL B2843      -9.109 -12.598  11.399  1.00 17.95 LIG 0.20  C 
ATOM     49 OXT  VAL B2843      -8.270 -13.092  10.632  1.00 12.52 LIG-0.65  OA
ATOM     50 O    VAL B2843     -10.247 -12.398  10.974  1.00 13.13 LIG-0.65  OA
ENDBRANCH 47 48
BRANCH 47 51
ATOM     51  CB  VAL B2843      -8.470 -10.735  12.974  1.00 12.90 LIG 0.01  C 
ATOM     52  CG2 VAL B2843      -7.251 -10.464  13.856  1.00 11.86 LIG 0.01  C 
ATOM     53  CG1 VAL B2843      -9.695 -10.034  13.532  1.00 11.26 LIG 0.01  C 
ENDBRANCH 47 51
ENDBRANCH 44 47
ENDBRANCH 42 43
BRANCH 42 54
ATOM     54  CB  SER B2842      -6.212 -15.740  14.112  1.00 13.40 LIG 0.20  C 
BRANCH 54 55
ATOM     55 OG   SER B2842      -5.003 -15.945  13.405  1.00 24.06 LIG-0.40  OA
ATOM     56 HG   SER B2842      -4.522 -15.259  13.467  1.00 24.06 LIG 0.21  HD
ENDBRANCH 54 55
ENDBRANCH 42 54
ENDBRANCH 39 42
ENDBRANCH 33 38
ENDBRANCH 31 33
ENDBRANCH 1 29
TORSDOF 22
ENDMDL
