MODEL 1
USER: ADFR SOLUTION from run 30
USER: SCORE 22.561031 LL:  -3.230 LR: -20.997 RR:   0.000 FEB: -12.644
USER: RMSD 1.038918
USER: SEED 29
USER: STATUS no improvement in best in 2 clusters for 5 generations
USER: GENES 30
USER: genes 0 Translation |==|  0.53100 0.49301 0.53700
USER: genes 1 Rotation |==|  0.48722 0.52930 0.51577 0.99873
USER: genes 2 Torsion [N]-C--CA-[N] |==|  0.40510
USER: genes 3 Torsion [C]-CA--CB-[CG2] |==|  0.34567
USER: genes 4 Torsion [CA]-CB--OG1-[HG1] |==|  0.55485
USER: genes 5 Torsion [C]-CA--N-[C] |==|  0.67985
USER: genes 6 Torsion [N]-C--CA-[N] |==|  0.46540
USER: genes 7 Torsion [C]-CA--N-[C] |==|  0.78985
USER: genes 8 Torsion [N]-C--CA-[N] |==|  0.18183
USER: genes 9 Torsion [C]-CA--N-[H1] |==|  0.51679
USER: genes 10 Torsion [C]-CA--CB-[CG] |==|  0.45795
USER: genes 11 Torsion [CA]-CB--CG-[CD] |==|  0.43613
USER: genes 12 Torsion [CB]-CG--CD-[NE] |==|  0.79066
USER: genes 13 Torsion [CG]-CD--NE-[HE] |==|  0.88068
USER: genes 14 Torsion [C]-N--CA-[CB] |==|  0.29444
USER: genes 15 Torsion [N]-CA--CB-[CG] |==|  0.17756
USER: genes 16 Torsion [CA]-CB--CG-[CD] |==|  0.43987
USER: genes 17 Torsion [CB]-CG--CD-[CE] |==|  0.88135
USER: genes 18 Torsion [CG]-CD--CE-[NZ] |==|  0.63183
USER: genes 19 Torsion [CD]-CE--NZ-[HZ3] |==|  0.00298
USER: genes 20 Torsion [N]-CA--C-[N] |==|  0.36751
USER: genes 21 Torsion [C]-N--CA-[C] |==|  0.72130
USER: genes 22 Torsion [N]-CA--CB-[CG] |==|  0.54266
USER: genes 23 Torsion [CA]-CB--CG-[CD] |==|  0.19773
USER: genes 24 Torsion [CB]-CG--CD-[OE1] |==|  0.64686
USER: genes 25 Torsion [N]-CA--C-[N] |==|  0.30587
USER: genes 26 Torsion [C]-N--CA-[C] |==|  0.71183
USER: genes 27 Torsion [N]-CA--CB-[CG2] |==|  0.93610
USER: genes 28 Torsion [CA]-CB--OG1-[HG1] |==|  0.45585
USER: genes 29 Torsion [N]-CA--C-[O] |==|  0.00560
ROOT
ATOM      1  C   THR B   3       9.295 -22.040  11.056  1.00 20.25 LIG 0.24  C 
ATOM      2 O    THR B   3      10.520 -21.998  10.853  1.00 21.22 LIG-0.27  OA
ATOM      3  N   LYS B   4       8.524 -20.965  11.023  1.00 19.99 LIG-0.35  N 
ATOM      4 H    LYS B   4       7.665 -20.992  11.019  1.00 19.99 LIG 0.16  HD
ENDROOT
BRANCH 1 5
ATOM      5  CA  THR B   3       8.558 -23.349  11.356  1.00 18.41 LIG 0.20  C 
BRANCH 5 6
ATOM      6  CB  THR B   3       8.540 -23.532  12.885  1.00 21.88 LIG 0.15  C 
ATOM      7  CG2 THR B   3       7.111 -23.704  13.406  1.00 22.89 LIG 0.04  C 
BRANCH 6 8
ATOM      8 OG1  THR B   3       9.335 -24.668  13.234  1.00 27.36 LIG-0.39  OA
ATOM      9 HG1  THR B   3       9.122 -24.935  14.001  1.00 27.36 LIG 0.21  HD
ENDBRANCH 6 8
ENDBRANCH 5 6
BRANCH 5 10
ATOM     10  N   THR B   3       9.129 -24.491  10.662  1.00 19.27 LIG-0.34  N 
ATOM     11  C   ARG B   2       8.447 -25.157   9.735  1.00 14.36 LIG 0.24  C 
ATOM     12 O    ARG B   2       7.266 -24.947   9.473  1.00 14.31 LIG-0.27  OA
ATOM     13 H    THR B   3       9.930 -24.689  10.902  1.00 19.27 LIG 0.16  HD
BRANCH 11 14
ATOM     14  CA  ARG B   2       9.239 -26.161   8.935  1.00 14.00 LIG 0.18  C 
BRANCH 14 15
ATOM     15  N   ARG B   2       8.403 -27.056   8.147  1.00 14.23 LIG-0.35  N 
ATOM     16 H    ARG B   2       8.397 -26.864   7.309  1.00 14.23 LIG 0.16  HD
ATOM     17  C   ALA B   1       7.710 -28.074   8.654  1.00 14.69 LIG 0.25  C 
ATOM     18 O    ALA B   1       7.580 -28.274   9.866  1.00 15.97 LIG-0.27  OA
BRANCH 17 19
ATOM     19  CA  ALA B   1       7.058 -29.007   7.638  1.00 13.70 LIG 0.27  C 
ATOM     20  CB  ALA B   1       6.159 -30.005   8.340  1.00 15.23 LIG 0.05  C 
BRANCH 19 21
ATOM     21  N   ALA B   1       8.105 -29.721   6.849  1.00 12.70 LIG-0.07  N 
ATOM     22 H1   ALA B   1       7.719 -30.195   6.202  1.00 12.70 LIG 0.28  HD
ATOM     23 H3   ALA B   1       8.560 -30.267   7.385  1.00 12.70 LIG 0.28  HD
ATOM     24 H2   ALA B   1       8.662 -29.128   6.489  1.00 12.70 LIG 0.28  HD
ENDBRANCH 19 21
ENDBRANCH 17 19
ENDBRANCH 14 15
BRANCH 14 25
ATOM     25  CB  ARG B   2      10.136 -25.366   7.997  1.00 15.26 LIG 0.04  C 
BRANCH 25 26
ATOM     26  CG  ARG B   2      11.255 -26.177   7.376  1.00 16.76 LIG 0.02  C 
BRANCH 26 27
ATOM     27  CD  ARG B   2      11.720 -25.513   6.082  1.00 19.38 LIG 0.14  C 
BRANCH 27 28
ATOM     28  NE  ARG B   2      10.747 -25.748   5.011  1.00 21.76 LIG-0.23  N 
ATOM     29 HE   ARG B   2      10.417 -26.539   4.943  1.00 21.76 LIG 0.18  HD
ATOM     30  CZ  ARG B   2      10.335 -24.836   4.139  1.00 17.86 LIG 0.67  C 
ATOM     31  NH2 ARG B   2       9.431 -25.170   3.223  1.00 21.34 LIG-0.23  N 
ATOM     32  NH1 ARG B   2      10.835 -23.603   4.166  1.00 18.80 LIG-0.23  N 
ATOM     33 2HH2 ARG B   2       9.159 -24.585   2.654  1.00 21.34 LIG 0.17  HD
ATOM     34 1HH2 ARG B   2       9.118 -25.971   3.199  1.00 21.34 LIG 0.17  HD
ATOM     35 2HH1 ARG B   2      10.564 -23.017   3.598  1.00 18.80 LIG 0.17  HD
ATOM     36 1HH1 ARG B   2      11.429 -23.392   4.751  1.00 18.80 LIG 0.17  HD
ENDBRANCH 27 28
ENDBRANCH 26 27
ENDBRANCH 25 26
ENDBRANCH 14 25
ENDBRANCH 11 14
ENDBRANCH 5 10
ENDBRANCH 1 5
BRANCH 3 37
ATOM     37  CA  LYS B   4       9.076 -19.630  10.991  1.00 20.35 LIG 0.18  C 
BRANCH 37 38
ATOM     38  CB  LYS B   4       8.934 -19.002   9.601  1.00 22.30 LIG 0.04  C 
BRANCH 38 39
ATOM     39  CG  LYS B   4       7.515 -18.771   9.124  1.00 24.16 LIG 0.00  C 
BRANCH 39 40
ATOM     40  CD  LYS B   4       7.476 -17.706   8.039  1.00 24.93 LIG 0.03  C 
BRANCH 40 41
ATOM     41  CE  LYS B   4       8.375 -16.530   8.372  1.00 25.90 LIG 0.23  C 
BRANCH 41 42
ATOM     42  NZ  LYS B   4       7.676 -15.231   8.168  1.00 28.03 LIG-0.08  N 
ATOM     43 HZ3  LYS B   4       6.841 -15.382   7.898  1.00 28.03 LIG 0.27  HD
ATOM     44 HZ1  LYS B   4       7.663 -14.777   8.933  1.00 28.03 LIG 0.27  HD
ATOM     45 HZ2  LYS B   4       8.105 -14.757   7.549  1.00 28.03 LIG 0.27  HD
ENDBRANCH 41 42
ENDBRANCH 40 41
ENDBRANCH 39 40
ENDBRANCH 38 39
ENDBRANCH 37 38
BRANCH 37 46
ATOM     46  C   LYS B   4       8.329 -18.806  12.036  1.00 21.64 LIG 0.24  C 
ATOM     47 O    LYS B   4       7.090 -18.837  12.103  1.00 22.31 LIG-0.27  OA
ATOM     48  N   GLN B   5       9.086 -18.083  12.852  1.00 26.13 LIG-0.35  N 
ATOM     49 H    GLN B   5       9.944 -18.055  12.805  1.00 26.13 LIG 0.16  HD
BRANCH 48 50
ATOM     50  CA  GLN B   5       8.525 -17.266  13.908  1.00 25.39 LIG 0.18  C 
BRANCH 50 51
ATOM     51  CB  GLN B   5       9.390 -17.375  15.167  1.00 28.67 LIG 0.04  C 
BRANCH 51 52
ATOM     52  CG  GLN B   5       8.697 -16.863  16.414  1.00 31.68 LIG 0.10  C 
BRANCH 52 53
ATOM     53  CD  GLN B   5       7.577 -17.766  16.890  1.00 33.20 LIG 0.21  C 
ATOM     54 OE1  GLN B   5       6.445 -17.312  17.094  1.00 36.95 LIG-0.27  OA
ATOM     55  NE2 GLN B   5       7.884 -19.046  17.080  1.00 36.99 LIG-0.37  N 
ATOM     56 22HE GLN B   5       7.284 -19.596  17.357  1.00 36.99 LIG 0.16  HD
ATOM     57 21HE GLN B   5       8.684 -19.324  16.928  1.00 36.99 LIG 0.16  HD
ENDBRANCH 52 53
ENDBRANCH 51 52
ENDBRANCH 50 51
BRANCH 50 58
ATOM     58  C   GLN B   5       8.492 -15.828  13.435  1.00 30.80 LIG 0.24  C 
ATOM     59  N   THR B   6       7.286 -15.319  13.190  1.00 32.96 LIG-0.34  N 
ATOM     60 H    THR B   6       6.559 -15.777  13.224  1.00 32.96 LIG 0.16  HD
ATOM     61 O    GLN B   5       9.543 -15.195  13.291  1.00 36.06 LIG-0.27  OA
BRANCH 59 62
ATOM     62  CA  THR B   6       7.094 -13.911  12.836  1.00 38.52 LIG 0.19  C 
BRANCH 62 63
ATOM     63  CB  THR B   6       6.155 -13.769  11.635  1.00 33.66 LIG 0.14  C 
ATOM     64  CG2 THR B   6       6.159 -15.050  10.842  1.00 38.34 LIG 0.04  C 
BRANCH 63 65
ATOM     65 OG1  THR B   6       4.821 -13.511  12.099  1.00 35.05 LIG-0.39  OA
ATOM     66 HG1  THR B   6       4.354 -13.221  11.464  1.00 35.05 LIG 0.21  HD
ENDBRANCH 63 65
ENDBRANCH 62 63
BRANCH 62 67
ATOM     67  C   THR B   6       6.549 -13.089  14.003  1.00 43.93 LIG 0.22  C 
ATOM     68 O    THR B   6       6.353 -13.604  15.107  1.00 48.58 LIG-0.29  OA
ENDBRANCH 62 67
ENDBRANCH 59 62
ENDBRANCH 50 58
ENDBRANCH 48 50
ENDBRANCH 37 46
ENDBRANCH 3 37
TORSDOF 28
ENDMDL
MODEL 2
USER: ADFR SOLUTION from run 17
USER: SCORE 21.613645 LL:  -3.996 LR: -19.581 RR:   0.000 FEB: -11.229
USER: RMSD 2.922011
USER: SEED 16
USER: STATUS no improvement in best in 4 clusters for 5 generations
USER: GENES 30
USER: genes 0 Translation |==|  0.51125 0.49530 0.56304
USER: genes 1 Rotation |==|  0.50527 0.54469 0.48431 0.99772
USER: genes 2 Torsion [N]-C--CA-[N] |==|  0.40971
USER: genes 3 Torsion [C]-CA--CB-[CG2] |==|  0.40421
USER: genes 4 Torsion [CA]-CB--OG1-[HG1] |==|  0.67698
USER: genes 5 Torsion [C]-CA--N-[C] |==|  0.83024
USER: genes 6 Torsion [N]-C--CA-[N] |==|  0.59209
USER: genes 7 Torsion [C]-CA--N-[C] |==|  0.65313
USER: genes 8 Torsion [N]-C--CA-[N] |==|  0.35078
USER: genes 9 Torsion [C]-CA--N-[H1] |==|  0.70083
USER: genes 10 Torsion [C]-CA--CB-[CG] |==|  0.36937
USER: genes 11 Torsion [CA]-CB--CG-[CD] |==|  0.91940
USER: genes 12 Torsion [CB]-CG--CD-[NE] |==|  0.23595
USER: genes 13 Torsion [CG]-CD--NE-[HE] |==|  0.83743
USER: genes 14 Torsion [C]-N--CA-[CB] |==|  0.25550
USER: genes 15 Torsion [N]-CA--CB-[CG] |==|  0.13202
USER: genes 16 Torsion [CA]-CB--CG-[CD] |==|  0.28282
USER: genes 17 Torsion [CB]-CG--CD-[CE] |==|  0.14710
USER: genes 18 Torsion [CG]-CD--CE-[NZ] |==|  0.42113
USER: genes 19 Torsion [CD]-CE--NZ-[HZ3] |==|  0.59050
USER: genes 20 Torsion [N]-CA--C-[N] |==|  0.37573
USER: genes 21 Torsion [C]-N--CA-[C] |==|  0.73730
USER: genes 22 Torsion [N]-CA--CB-[CG] |==|  0.59363
USER: genes 23 Torsion [CA]-CB--CG-[CD] |==|  0.19323
USER: genes 24 Torsion [CB]-CG--CD-[OE1] |==|  0.63698
USER: genes 25 Torsion [N]-CA--C-[N] |==|  0.30107
USER: genes 26 Torsion [C]-N--CA-[C] |==|  0.73465
USER: genes 27 Torsion [N]-CA--CB-[CG2] |==|  0.93733
USER: genes 28 Torsion [CA]-CB--OG1-[HG1] |==|  0.46714
USER: genes 29 Torsion [N]-CA--C-[O] |==|  0.97608
ROOT
ATOM      1  C   THR B   3       8.970 -21.976  11.642  1.00 20.25 LIG 0.24  C 
ATOM      2 O    THR B   3      10.175 -22.079  11.363  1.00 21.22 LIG-0.27  OA
ATOM      3  N   LYS B   4       8.347 -20.811  11.722  1.00 19.99 LIG-0.35  N 
ATOM      4 H    LYS B   4       7.493 -20.727  11.771  1.00 19.99 LIG 0.16  HD
ENDROOT
BRANCH 1 5
ATOM      5  CA  THR B   3       8.083 -23.196  11.912  1.00 18.41 LIG 0.20  C 
BRANCH 5 6
ATOM      6  CB  THR B   3       8.094 -23.452  13.431  1.00 21.88 LIG 0.15  C 
ATOM      7  CG2 THR B   3       6.741 -23.980  13.914  1.00 22.89 LIG 0.04  C 
BRANCH 6 8
ATOM      8 OG1  THR B   3       9.131 -24.384  13.746  1.00 27.36 LIG-0.39  OA
ATOM      9 HG1  THR B   3       8.792 -25.085  14.060  1.00 27.36 LIG 0.21  HD
ENDBRANCH 6 8
ENDBRANCH 5 6
BRANCH 5 10
ATOM     10  N   THR B   3       8.481 -24.365  11.145  1.00 19.27 LIG-0.34  N 
ATOM     11  C   ARG B   2       8.474 -24.363   9.816  1.00 14.36 LIG 0.24  C 
ATOM     12 O    ARG B   2       8.033 -23.440   9.136  1.00 14.31 LIG-0.27  OA
ATOM     13 H    THR B   3       8.715 -25.040  11.622  1.00 19.27 LIG 0.16  HD
BRANCH 11 14
ATOM     14  CA  ARG B   2       9.132 -25.550   9.157  1.00 14.00 LIG 0.18  C 
BRANCH 14 15
ATOM     15  N   ARG B   2       9.781 -25.220   7.895  1.00 14.23 LIG-0.35  N 
ATOM     16 H    ARG B   2      10.355 -24.584   7.966  1.00 14.23 LIG 0.16  HD
ATOM     17  C   ALA B   1       9.525 -25.831   6.739  1.00 14.69 LIG 0.25  C 
ATOM     18 O    ALA B   1       8.602 -26.635   6.583  1.00 15.97 LIG-0.27  OA
BRANCH 17 19
ATOM     19  CA  ALA B   1      10.451 -25.474   5.579  1.00 13.70 LIG 0.27  C 
ATOM     20  CB  ALA B   1       9.694 -24.694   4.523  1.00 15.23 LIG 0.05  C 
BRANCH 19 21
ATOM     21  N   ALA B   1      11.034 -26.714   4.987  1.00 12.70 LIG-0.07  N 
ATOM     22 H1   ALA B   1      11.894 -26.772   5.206  1.00 12.70 LIG 0.28  HD
ATOM     23 H3   ALA B   1      10.955 -26.685   4.101  1.00 12.70 LIG 0.28  HD
ATOM     24 H2   ALA B   1      10.601 -27.425   5.300  1.00 12.70 LIG 0.28  HD
ENDBRANCH 19 21
ENDBRANCH 17 19
ENDBRANCH 14 15
BRANCH 14 25
ATOM     25  CB  ARG B   2      10.178 -26.070  10.131  1.00 15.26 LIG 0.04  C 
BRANCH 25 26
ATOM     26  CG  ARG B   2      10.147 -27.571  10.330  1.00 16.76 LIG 0.02  C 
BRANCH 26 27
ATOM     27  CD  ARG B   2       8.728 -28.093  10.117  1.00 19.38 LIG 0.14  C 
BRANCH 27 28
ATOM     28  NE  ARG B   2       8.484 -28.336   8.692  1.00 21.76 LIG-0.23  N 
ATOM     29 HE   ARG B   2       8.574 -27.670   8.155  1.00 21.76 LIG 0.18  HD
ATOM     30  CZ  ARG B   2       8.135 -29.503   8.164  1.00 17.86 LIG 0.67  C 
ATOM     31  NH2 ARG B   2       7.962 -29.600   6.849  1.00 21.34 LIG-0.23  N 
ATOM     32  NH1 ARG B   2       7.942 -30.565   8.942  1.00 18.80 LIG-0.23  N 
ATOM     33 2HH2 ARG B   2       7.736 -30.352   6.499  1.00 21.34 LIG 0.17  HD
ATOM     34 1HH2 ARG B   2       8.074 -28.909   6.348  1.00 21.34 LIG 0.17  HD
ATOM     35 2HH1 ARG B   2       7.717 -31.318   8.594  1.00 18.80 LIG 0.17  HD
ATOM     36 1HH1 ARG B   2       8.043 -30.498   9.793  1.00 18.80 LIG 0.17  HD
ENDBRANCH 27 28
ENDBRANCH 26 27
ENDBRANCH 25 26
ENDBRANCH 14 25
ENDBRANCH 11 14
ENDBRANCH 5 10
ENDBRANCH 1 5
BRANCH 3 37
ATOM     37  CA  LYS B   4       9.069 -19.560  11.732  1.00 20.35 LIG 0.18  C 
BRANCH 37 38
ATOM     38  CB  LYS B   4       9.228 -18.997  10.316  1.00 22.30 LIG 0.04  C 
BRANCH 38 39
ATOM     39  CG  LYS B   4       7.972 -18.979   9.469  1.00 24.16 LIG 0.00  C 
BRANCH 39 40
ATOM     40  CD  LYS B   4       7.373 -17.581   9.420  1.00 24.93 LIG 0.03  C 
BRANCH 40 41
ATOM     41  CE  LYS B   4       8.394 -16.546   8.989  1.00 25.90 LIG 0.23  C 
BRANCH 41 42
ATOM     42  NZ  LYS B   4       7.749 -15.394   8.300  1.00 28.03 LIG-0.08  N 
ATOM     43 HZ3  LYS B   4       8.300 -15.073   7.679  1.00 28.03 LIG 0.27  HD
ATOM     44 HZ1  LYS B   4       6.993 -15.663   7.915  1.00 28.03 LIG 0.27  HD
ATOM     45 HZ2  LYS B   4       7.569 -14.756   8.894  1.00 28.03 LIG 0.27  HD
ENDBRANCH 41 42
ENDBRANCH 40 41
ENDBRANCH 39 40
ENDBRANCH 38 39
ENDBRANCH 37 38
BRANCH 37 46
ATOM     46  C   LYS B   4       8.284 -18.592  12.614  1.00 21.64 LIG 0.24  C 
ATOM     47 O    LYS B   4       7.049 -18.505  12.519  1.00 22.31 LIG-0.27  OA
ATOM     48  N   GLN B   5       9.002 -17.880  13.473  1.00 26.13 LIG-0.35  N 
ATOM     49 H    GLN B   5       9.858 -17.935  13.538  1.00 26.13 LIG 0.16  HD
BRANCH 48 50
ATOM     50  CA  GLN B   5       8.400 -16.936  14.391  1.00 25.39 LIG 0.18  C 
BRANCH 50 51
ATOM     51  CB  GLN B   5       9.177 -16.923  15.710  1.00 28.67 LIG 0.04  C 
BRANCH 51 52
ATOM     52  CG  GLN B   5       8.296 -16.676  16.920  1.00 31.68 LIG 0.10  C 
BRANCH 52 53
ATOM     53  CD  GLN B   5       7.370 -17.834  17.232  1.00 33.20 LIG 0.21  C 
ATOM     54 OE1  GLN B   5       6.164 -17.642  17.425  1.00 36.95 LIG-0.27  OA
ATOM     55  NE2 GLN B   5       7.925 -19.041  17.293  1.00 36.99 LIG-0.37  N 
ATOM     56 22HE GLN B   5       7.441 -19.729  17.474  1.00 36.99 LIG 0.16  HD
ATOM     57 21HE GLN B   5       8.769 -19.135  17.153  1.00 36.99 LIG 0.16  HD
ENDBRANCH 52 53
ENDBRANCH 51 52
ENDBRANCH 50 51
BRANCH 50 58
ATOM     58  C   GLN B   5       8.443 -15.560  13.760  1.00 30.80 LIG 0.24  C 
ATOM     59  N   THR B   6       7.278 -15.068  13.346  1.00 32.96 LIG-0.34  N 
ATOM     60 H    THR B   6       6.541 -15.511  13.360  1.00 32.96 LIG 0.16  HD
ATOM     61 O    GLN B   5       9.517 -14.960  13.648  1.00 36.06 LIG-0.27  OA
BRANCH 59 62
ATOM     62  CA  THR B   6       7.150 -13.707  12.820  1.00 38.52 LIG 0.19  C 
BRANCH 62 63
ATOM     63  CB  THR B   6       6.169 -13.660  11.646  1.00 33.66 LIG 0.14  C 
ATOM     64  CG2 THR B   6       6.056 -15.031  11.032  1.00 38.34 LIG 0.04  C 
BRANCH 63 65
ATOM     65 OG1  THR B   6       4.876 -13.252  12.120  1.00 35.05 LIG-0.39  OA
ATOM     66 HG1  THR B   6       4.382 -13.070  11.465  1.00 35.05 LIG 0.21  HD
ENDBRANCH 63 65
ENDBRANCH 62 63
BRANCH 62 67
ATOM     67  C   THR B   6       6.707 -12.712  13.890  1.00 43.93 LIG 0.22  C 
ATOM     68 O    THR B   6       6.344 -13.096  15.005  1.00 48.58 LIG-0.29  OA
ENDBRANCH 62 67
ENDBRANCH 59 62
ENDBRANCH 50 58
ENDBRANCH 48 50
ENDBRANCH 37 46
ENDBRANCH 3 37
TORSDOF 28
ENDMDL
