MODEL 1
USER: ADFR SOLUTION from run 168
USER: SCORE 24.325958 LL:  -3.120 LR: -21.463 RR:   0.000 FEB: -14.900
USER: RMSD 0.496672
USER: SEED 167
USER: STATUS 1 or 2 clusters left
USER: GENES 24
USER: genes 0 Translation |==|  0.59283 0.43333 0.52137
USER: genes 1 Rotation |==|  0.51858 0.52318 0.49664 0.99911
USER: genes 2 Torsion [N]-CA--C-[N] |==|  0.39770
USER: genes 3 Torsion [C]-N--CA-[C] |==|  0.81638
USER: genes 4 Torsion [N]-CA--C-[N] |==|  0.46541
USER: genes 5 Torsion [C]-N--CA-[C] |==|  0.73540
USER: genes 6 Torsion [N]-CA--C-[N] |==|  0.44168
USER: genes 7 Torsion [C]-N--CA-[C] |==|  0.61552
USER: genes 8 Torsion [N]-CA--C-[OXT] |==|  0.46728
USER: genes 9 Torsion [N]-CA--CB-[CG2] |==|  0.73958
USER: genes 10 Torsion [CA]-CB--OG1-[HG1] |==|  0.43428
USER: genes 11 Torsion [N]-CA--CB-[CG] |==|  0.83261
USER: genes 12 Torsion [CA]-CB--CG-[SD] |==|  0.49133
USER: genes 13 Torsion [CB]-CG--SD-[CE] |==|  0.50005
USER: genes 14 Torsion [C]-CA--CB-[CG] |==|  0.46241
USER: genes 15 Torsion [CA]-CB--CG-[CD] |==|  0.81410
USER: genes 16 Torsion [CB]-CG--CD-[NE] |==|  0.18798
USER: genes 17 Torsion [CG]-CD--NE-[CZ] |==|  0.47381
USER: genes 18 Torsion [C]-CA--N-[C] |==|  0.81251
USER: genes 19 Torsion [N]-C--CA-[N] |==|  0.28171
USER: genes 20 Torsion [C]-CA--CB-[CG] |==|  0.45338
USER: genes 21 Torsion [CA]-CB--CG-[CD] |==|  0.82907
USER: genes 22 Torsion [CB]-CG--CD-[OE1] |==|  0.80720
USER: genes 23 Torsion [C]-CA--N-[H1] |==|  0.00935
ROOT
ATOM      1  CA  ARG C   2       8.603  58.738  94.857  1.00 28.55 LIG 0.18  C 
ENDROOT
BRANCH 1 2
ATOM      2  C   ARG C   2       7.497  59.764  94.648  1.00 27.63 LIG 0.24  C 
ATOM      3  N   GLY C   3       7.686  60.645  93.672  1.00 28.98 LIG-0.35  N 
ATOM      4 H    GLY C   3       8.409  60.704  93.210  1.00 28.98 LIG 0.16  HD
ATOM      5 O    ARG C   2       6.492  59.757  95.358  1.00 38.18 LIG-0.27  OA
BRANCH 3 6
ATOM      6  CA  GLY C   3       6.658  61.601  93.304  1.00 28.70 LIG 0.23  C 
BRANCH 6 7
ATOM      7  C   GLY C   3       5.448  60.899  92.716  1.00 32.52 LIG 0.24  C 
ATOM      8  N   MET C   4       4.348  61.631  92.578  1.00 24.44 LIG-0.35  N 
ATOM      9 H    MET C   4       4.304  62.472  92.755  1.00 24.44 LIG 0.16  HD
ATOM     10 O    GLY C   3       5.508  59.711  92.389  1.00 29.09 LIG-0.27  OA
BRANCH 8 11
ATOM     11  CA  MET C   4       3.097  61.047  92.102  1.00 28.81 LIG 0.18  C 
BRANCH 11 12
ATOM     12  C   MET C   4       2.881  61.215  90.604  1.00 31.65 LIG 0.24  C 
ATOM     13  N   THR C   5       2.023  60.362  90.050  1.00 30.68 LIG-0.34  N 
ATOM     14 H    THR C   5       1.703  59.676  90.459  1.00 30.68 LIG 0.16  HD
ATOM     15 O    MET C   4       3.468  62.094  89.973  1.00 27.41 LIG-0.27  OA
BRANCH 13 16
ATOM     16  CA  THR C   5       1.542  60.513  88.683  1.00 35.68 LIG 0.21  C 
BRANCH 16 17
ATOM     17  C   THR C   5       0.050  60.208  88.625  1.00 44.01 LIG 0.20  C 
ATOM     18 OXT  THR C   5      -0.618  60.475  87.626  1.00 37.19 LIG-0.65  OA
ATOM     19 O    THR C   5      -0.522  59.686  89.582  1.00 36.37 LIG-0.65  OA
ENDBRANCH 16 17
BRANCH 16 20
ATOM     20  CB  THR C   5       2.279  59.586  87.702  1.00 39.19 LIG 0.15  C 
ATOM     21  CG2 THR C   5       3.449  60.310  87.065  1.00 34.97 LIG 0.04  C 
BRANCH 20 22
ATOM     22 OG1  THR C   5       2.758  58.430  88.401  1.00 33.33 LIG-0.39  OA
ATOM     23 HG1  THR C   5       2.861  57.797  87.859  1.00 33.33 LIG 0.21  HD
ENDBRANCH 20 22
ENDBRANCH 16 20
ENDBRANCH 13 16
ENDBRANCH 11 12
BRANCH 11 24
ATOM     24  CB  MET C   4       1.908  61.665  92.837  1.00 29.60 LIG 0.04  C 
BRANCH 24 25
ATOM     25  CG  MET C   4       1.918  61.467  94.336  1.00 30.85 LIG 0.08  C 
BRANCH 25 26
ATOM     26 SD   MET C   4       0.520  62.315  95.084  1.00 29.25 LIG-0.17  SA
ATOM     27  CE  MET C   4       0.768  61.928  96.815  1.00 27.46 LIG 0.09  C 
ENDBRANCH 25 26
ENDBRANCH 24 25
ENDBRANCH 11 24
ENDBRANCH 8 11
ENDBRANCH 6 7
ENDBRANCH 3 6
ENDBRANCH 1 2
BRANCH 1 28
ATOM     28  CB  ARG C   2       8.260  57.453  94.093  1.00 31.53 LIG 0.04  C 
BRANCH 28 29
ATOM     29  CG  ARG C   2       9.412  56.461  93.942  1.00 24.41 LIG 0.02  C 
BRANCH 29 30
ATOM     30  CD  ARG C   2      10.520  57.005  93.050  1.00 21.67 LIG 0.14  C 
BRANCH 30 31
ATOM     31  NE  ARG C   2      11.218  58.134  93.657  1.00 22.58 LIG-0.23  N 
ATOM     32  CZ  ARG C   2      12.332  58.673  93.172  1.00 29.43 LIG 0.67  C 
ATOM     33  NH1 ARG C   2      12.877  58.190  92.063  1.00 25.92 LIG-0.23  N 
ATOM     34  NH2 ARG C   2      12.896  59.701  93.793  1.00 25.80 LIG-0.23  N 
ATOM     35 1HH1 ARG C   2      12.509  57.528  91.656  1.00 25.92 LIG 0.17  HD
ATOM     36 2HH1 ARG C   2      13.599  58.540  91.751  1.00 25.92 LIG 0.17  HD
ATOM     37 2HH2 ARG C   2      13.616  60.050  93.479  1.00 25.80 LIG 0.17  HD
ATOM     38 1HH2 ARG C   2      12.540  60.018  94.509  1.00 25.80 LIG 0.17  HD
ATOM     39 HE   ARG C   2      10.887  58.473  94.374  1.00 22.58 LIG 0.18  HD
ENDBRANCH 30 31
ENDBRANCH 29 30
ENDBRANCH 28 29
ENDBRANCH 1 28
BRANCH 1 40
ATOM     40  N   ARG C   2       8.773  58.457  96.277  1.00 27.17 LIG-0.35  N 
ATOM     41 H    ARG C   2       8.546  57.660  96.509  1.00 27.17 LIG 0.16  HD
ATOM     42  C   GLU C   1       9.239  59.367  97.125  1.00 28.98 LIG 0.25  C 
ATOM     43 O    GLU C   1       9.623  60.483  96.771  1.00 27.13 LIG-0.27  OA
BRANCH 42 44
ATOM     44  CA  GLU C   1       9.288  58.953  98.591  1.00 33.23 LIG 0.28  C 
BRANCH 44 45
ATOM     45  CB  GLU C   1       8.755  60.083  99.478  1.00 35.26 LIG 0.05  C 
BRANCH 45 46
ATOM     46  CG  GLU C   1       8.384  59.646 100.888  1.00 36.87 LIG 0.12  C 
BRANCH 46 47
ATOM     47  CD  GLU C   1       7.275  58.608 100.903  1.00 40.37 LIG 0.17  C 
ATOM     48 OE1  GLU C   1       6.124  58.960 100.571  1.00 44.48 LIG-0.65  OA
ATOM     49 OE2  GLU C   1       7.555  57.438 101.240  1.00 35.28 LIG-0.65  OA
ENDBRANCH 46 47
ENDBRANCH 45 46
ENDBRANCH 44 45
BRANCH 44 50
ATOM     50  N   GLU C   1      10.638  58.579  98.995  1.00 29.71 LIG-0.07  N 
ATOM     51 H1   GLU C   1      11.197  58.710  98.316  1.00 29.71 LIG 0.28  HD
ATOM     52 H2   GLU C   1      10.890  59.079  99.688  1.00 29.71 LIG 0.28  HD
ATOM     53 H3   GLU C   1      10.651  57.720  99.228  1.00 29.71 LIG 0.28  HD
ENDBRANCH 44 50
ENDBRANCH 42 44
ENDBRANCH 1 40
TORSDOF 22
ENDMDL
MODEL 2
USER: ADFR SOLUTION from run 61
USER: SCORE 23.455470 LL:  -4.355 LR: -19.477 RR:   0.000 FEB: -12.915
USER: RMSD 2.534855
USER: SEED 60
USER: STATUS no improvement in best in 2 clusters for 5 generations
USER: GENES 24
USER: genes 0 Translation |==|  0.58729 0.50891 0.52201
USER: genes 1 Rotation |==|  0.53711 0.46727 0.54064 0.99588
USER: genes 2 Torsion [N]-CA--C-[N] |==|  0.43387
USER: genes 3 Torsion [C]-N--CA-[C] |==|  0.82212
USER: genes 4 Torsion [N]-CA--C-[N] |==|  0.41673
USER: genes 5 Torsion [C]-N--CA-[C] |==|  0.73922
USER: genes 6 Torsion [N]-CA--C-[N] |==|  0.42428
USER: genes 7 Torsion [C]-N--CA-[C] |==|  0.65702
USER: genes 8 Torsion [N]-CA--C-[OXT] |==|  0.48806
USER: genes 9 Torsion [N]-CA--CB-[CG2] |==|  0.72144
USER: genes 10 Torsion [CA]-CB--OG1-[HG1] |==|  0.38379
USER: genes 11 Torsion [N]-CA--CB-[CG] |==|  0.94816
USER: genes 12 Torsion [CA]-CB--CG-[SD] |==|  0.46101
USER: genes 13 Torsion [CB]-CG--SD-[CE] |==|  0.33989
USER: genes 14 Torsion [C]-CA--CB-[CG] |==|  0.62945
USER: genes 15 Torsion [CA]-CB--CG-[CD] |==|  0.25909
USER: genes 16 Torsion [CB]-CG--CD-[NE] |==|  0.66484
USER: genes 17 Torsion [CG]-CD--NE-[CZ] |==|  0.37199
USER: genes 18 Torsion [C]-CA--N-[C] |==|  0.59617
USER: genes 19 Torsion [N]-C--CA-[N] |==|  0.46632
USER: genes 20 Torsion [C]-CA--CB-[CG] |==|  0.45532
USER: genes 21 Torsion [CA]-CB--CG-[CD] |==|  0.87980
USER: genes 22 Torsion [CB]-CG--CD-[OE1] |==|  0.75463
USER: genes 23 Torsion [C]-CA--N-[H1] |==|  0.76351
ROOT
ATOM      1  CA  ARG C   2       8.478  59.815  94.871  1.00 28.55 LIG 0.18  C 
ENDROOT
BRANCH 1 2
ATOM      2  C   ARG C   2       7.286  60.676  94.473  1.00 27.63 LIG 0.24  C 
ATOM      3  N   GLY C   3       7.465  61.487  93.436  1.00 28.98 LIG-0.35  N 
ATOM      4 H    GLY C   3       8.216  61.594  93.032  1.00 28.98 LIG 0.16  HD
ATOM      5 O    ARG C   2       6.227  60.606  95.094  1.00 38.18 LIG-0.27  OA
BRANCH 3 6
ATOM      6  CA  GLY C   3       6.373  62.274  92.893  1.00 28.70 LIG 0.23  C 
BRANCH 6 7
ATOM      7  C   GLY C   3       5.289  61.379  92.321  1.00 32.52 LIG 0.24  C 
ATOM      8  N   MET C   4       4.048  61.852  92.364  1.00 24.44 LIG-0.35  N 
ATOM      9 H    MET C   4       3.841  62.637  92.646  1.00 24.44 LIG 0.16  HD
ATOM     10 O    GLY C   3       5.570  60.276  91.846  1.00 29.09 LIG-0.27  OA
BRANCH 8 11
ATOM     11  CA  MET C   4       2.910  61.050  91.921  1.00 28.81 LIG 0.18  C 
BRANCH 11 12
ATOM     12  C   MET C   4       2.527  61.293  90.467  1.00 31.65 LIG 0.24  C 
ATOM     13  N   THR C   5       1.936  60.271  89.852  1.00 30.68 LIG-0.34  N 
ATOM     14 H    THR C   5       1.883  59.480  90.188  1.00 30.68 LIG 0.16  HD
ATOM     15 O    MET C   4       2.753  62.373  89.923  1.00 27.41 LIG-0.27  OA
BRANCH 13 16
ATOM     16  CA  THR C   5       1.318  60.399  88.539  1.00 35.68 LIG 0.21  C 
BRANCH 16 17
ATOM     17  C   THR C   5      -0.142  59.970  88.612  1.00 44.01 LIG 0.20  C 
ATOM     18 OXT  THR C   5      -0.887  60.069  87.637  1.00 37.19 LIG-0.65  OA
ATOM     19 O    THR C   5      -0.611  59.514  89.655  1.00 36.37 LIG-0.65  OA
ENDBRANCH 16 17
BRANCH 16 20
ATOM     20  CB  THR C   5       2.034  59.550  87.475  1.00 39.19 LIG 0.15  C 
ATOM     21  CG2 THR C   5       2.960  60.416  86.641  1.00 34.97 LIG 0.04  C 
BRANCH 20 22
ATOM     22 OG1  THR C   5       2.795  58.519  88.115  1.00 33.33 LIG-0.39  OA
ATOM     23 HG1  THR C   5       2.707  57.800  87.690  1.00 33.33 LIG 0.21  HD
ENDBRANCH 20 22
ENDBRANCH 16 20
ENDBRANCH 13 16
ENDBRANCH 11 12
BRANCH 11 24
ATOM     24  CB  MET C   4       1.690  61.327  92.798  1.00 29.60 LIG 0.04  C 
BRANCH 24 25
ATOM     25  CG  MET C   4       2.002  61.969  94.131  1.00 30.85 LIG 0.08  C 
BRANCH 25 26
ATOM     26 SD   MET C   4       0.498  62.610  94.879  1.00 29.25 LIG-0.17  SA
ATOM     27  CE  MET C   4       0.487  61.733  96.440  1.00 27.46 LIG 0.09  C 
ENDBRANCH 25 26
ENDBRANCH 24 25
ENDBRANCH 11 24
ENDBRANCH 8 11
ENDBRANCH 6 7
ENDBRANCH 3 6
ENDBRANCH 1 2
BRANCH 1 28
ATOM     28  CB  ARG C   2       8.538  58.575  93.971  1.00 31.53 LIG 0.04  C 
BRANCH 28 29
ATOM     29  CG  ARG C   2       8.760  57.252  94.701  1.00 24.41 LIG 0.02  C 
BRANCH 29 30
ATOM     30  CD  ARG C   2       7.446  56.557  95.034  1.00 21.67 LIG 0.14  C 
BRANCH 30 31
ATOM     31  NE  ARG C   2       7.279  56.344  96.469  1.00 22.58 LIG-0.23  N 
ATOM     32  CZ  ARG C   2       6.162  56.607  97.139  1.00 29.43 LIG 0.67  C 
ATOM     33  NH1 ARG C   2       5.102  57.090  96.503  1.00 25.92 LIG-0.23  N 
ATOM     34  NH2 ARG C   2       6.102  56.379  98.444  1.00 25.80 LIG-0.23  N 
ATOM     35 1HH1 ARG C   2       5.138  57.232  95.656  1.00 25.92 LIG 0.17  HD
ATOM     36 2HH1 ARG C   2       4.380  57.260  96.938  1.00 25.92 LIG 0.17  HD
ATOM     37 2HH2 ARG C   2       5.379  56.549  98.878  1.00 25.80 LIG 0.17  HD
ATOM     38 1HH2 ARG C   2       6.786  56.060  98.856  1.00 25.80 LIG 0.17  HD
ATOM     39 HE   ARG C   2       7.945  56.027  96.909  1.00 22.58 LIG 0.18  HD
ENDBRANCH 30 31
ENDBRANCH 29 30
ENDBRANCH 28 29
ENDBRANCH 1 28
BRANCH 1 40
ATOM     40  N   ARG C   2       8.376  59.424  96.272  1.00 27.17 LIG-0.35  N 
ATOM     41 H    ARG C   2       7.571  59.288  96.543  1.00 27.17 LIG 0.16  HD
ATOM     42  C   GLU C   1       9.447  59.294  97.047  1.00 28.98 LIG 0.25  C 
ATOM     43 O    GLU C   1      10.600  59.426  96.631  1.00 27.13 LIG-0.27  OA
BRANCH 42 44
ATOM     44  CA  GLU C   1       9.178  58.955  98.509  1.00 33.23 LIG 0.28  C 
BRANCH 44 45
ATOM     45  CB  GLU C   1       8.525  60.148  99.215  1.00 35.26 LIG 0.05  C 
BRANCH 45 46
ATOM     46  CG  GLU C   1       7.869  59.801 100.544  1.00 36.87 LIG 0.12  C 
BRANCH 46 47
ATOM     47  CD  GLU C   1       7.071  58.510 100.481  1.00 40.37 LIG 0.17  C 
ATOM     48 OE1  GLU C   1       5.873  58.566 100.133  1.00 44.48 LIG-0.65  OA
ATOM     49 OE2  GLU C   1       7.642  57.438 100.773  1.00 35.28 LIG-0.65  OA
ENDBRANCH 46 47
ENDBRANCH 45 46
ENDBRANCH 44 45
BRANCH 44 50
ATOM     50  N   GLU C   1      10.400  58.559  99.198  1.00 29.71 LIG-0.07  N 
ATOM     51 H1   GLU C   1      10.546  57.691  99.068  1.00 29.71 LIG 0.28  HD
ATOM     52 H2   GLU C   1      11.086  59.027  98.878  1.00 29.71 LIG 0.28  HD
ATOM     53 H3   GLU C   1      10.313  58.718 100.069  1.00 29.71 LIG 0.28  HD
ENDBRANCH 44 50
ENDBRANCH 42 44
ENDBRANCH 1 40
TORSDOF 22
ENDMDL
