MODEL 1
USER: ADFR SOLUTION from run 54
USER: SCORE 8.909790 LL:  -0.788 LR:  -8.232 RR:   0.000 FEB:  -4.951
USER: RMSD 5.202088
USER: SEED 53
USER: STATUS no improvement in best in 13 clusters for 5 generations
USER: GENES 13
USER: genes 0 Translation |==|  0.31844 0.49214 0.53324
USER: genes 1 Rotation |==|  0.25220 0.68760 0.48901 0.89151
USER: genes 2 Torsion [N]-C--CA-[N] |==|  0.37291
USER: genes 3 Torsion [C]-CA--CB-[CG] |==|  0.79385
USER: genes 4 Torsion [CA]-CB--CG-[CD] |==|  0.63891
USER: genes 5 Torsion [CB]-CG--CD-[NE] |==|  0.62019
USER: genes 6 Torsion [CG]-CD--NE-[CZ] |==|  0.41298
USER: genes 7 Torsion [C]-N--CA-[C] |==|  0.20330
USER: genes 8 Torsion [N]-CA--C-[N] |==|  0.57167
USER: genes 9 Torsion [C]-N--CA-[C] |==|  0.75896
USER: genes 10 Torsion [N]-CA--C-[OXT] |==|  0.09787
USER: genes 11 Torsion [N]-CA--CB-[OG1] |==|  0.98201
USER: genes 12 Torsion [CA]-CB--OG1-[HG1] |==|  0.13757
ROOT
ATOM      1  C   ARG C 760      14.156 -17.106  18.764  1.00 56.34 LIG 0.26  C 
ATOM      2 O    ARG C 760      13.538 -16.053  18.880  1.00 53.76 LIG-0.27  OA
ATOM      3  N   GLY C 761      15.435 -17.233  19.107  1.00 59.89 LIG-0.35  N 
ATOM      4 H    GLY C 761      15.938 -17.881  18.851  1.00 59.89 LIG 0.16  HD
ENDROOT
BRANCH 1 5
ATOM      5  CA  ARG C 760      13.469 -18.351  18.202  1.00 61.16 LIG 0.40  C 
ATOM      6  N   ARG C 760      12.161 -18.523  18.831  1.00 59.95 LIG 0.61  N 
BRANCH 5 7
ATOM      7  CB  ARG C 760      13.323 -18.269  16.683  1.00 63.40 LIG 0.05  C 
BRANCH 7 8
ATOM      8  CG  ARG C 760      12.248 -17.312  16.211  1.00 63.69 LIG 0.02  C 
BRANCH 8 9
ATOM      9  CD  ARG C 760      11.328 -17.980  15.202  1.00 63.30 LIG 0.14  C 
BRANCH 9 10
ATOM     10  NE  ARG C 760      11.035 -17.097  14.076  1.00 65.15 LIG-0.23  N 
ATOM     11  CZ  ARG C 760      10.803 -17.513  12.835  1.00 66.46 LIG 0.67  C 
ATOM     12  NH1 ARG C 760      10.819 -18.809  12.548  1.00 66.43 LIG-0.23  N 
ATOM     13  NH2 ARG C 760      10.549 -16.632  11.879  1.00 66.89 LIG-0.23  N 
ATOM     14 2HH1 ARG C 760      10.668 -19.073  11.743  1.00 66.43 LIG 0.17  HD
ATOM     15 1HH1 ARG C 760      10.980 -19.385  13.166  1.00 66.43 LIG 0.17  HD
ATOM     16 2HH2 ARG C 760      10.399 -16.900  11.076  1.00 66.89 LIG 0.17  HD
ATOM     17 1HH2 ARG C 760      10.535 -15.792  12.062  1.00 66.89 LIG 0.17  HD
ATOM     18 HE   ARG C 760      11.012 -16.251  14.226  1.00 65.15 LIG 0.18  HD
ENDBRANCH 9 10
ENDBRANCH 8 9
ENDBRANCH 7 8
ENDBRANCH 5 7
ENDBRANCH 1 5
BRANCH 3 19
ATOM     19  CA  GLY C 761      16.095 -16.259  19.960  1.00 62.83 LIG 0.23  C 
BRANCH 19 20
ATOM     20  C   GLY C 761      15.792 -16.197  21.450  1.00 67.24 LIG 0.24  C 
ATOM     21 O    GLY C 761      15.383 -17.189  22.053  1.00 65.14 LIG-0.27  OA
ATOM     22  N   THR C 762      15.995 -15.012  22.024  1.00 72.11 LIG-0.34  N 
ATOM     23 H    THR C 762      16.003 -14.278  21.577  1.00 72.11 LIG 0.16  HD
BRANCH 22 24
ATOM     24  CA  THR C 762      16.226 -14.812  23.460  1.00 75.13 LIG 0.21  C 
BRANCH 24 25
ATOM     25  C   THR C 762      14.861 -14.688  24.132  1.00 73.09 LIG 0.20  C 
ATOM     26 OXT  THR C 762      13.912 -15.348  23.715  1.00 76.95 LIG-0.65  OA
ATOM     27 O    THR C 762      14.663 -13.945  25.094  1.00 68.26 LIG-0.65  OA
ENDBRANCH 24 25
BRANCH 24 28
ATOM     28  CB  THR C 762      17.065 -13.561  23.802  1.00 77.67 LIG 0.15  C 
ATOM     29  CG2 THR C 762      18.246 -13.946  24.676  1.00 76.40 LIG 0.04  C 
BRANCH 28 30
ATOM     30 OG1  THR C 762      17.556 -12.957  22.601  1.00 80.43 LIG-0.39  OA
ATOM     31 HG1  THR C 762      16.924 -12.862  22.057  1.00 80.43 LIG 0.21  HD
ENDBRANCH 28 30
ENDBRANCH 24 28
ENDBRANCH 22 24
ENDBRANCH 19 20
ENDBRANCH 3 19
TORSDOF 11
ENDMDL
MODEL 2
USER: ADFR SOLUTION from run 114
USER: SCORE 8.438105 LL:  -0.819 LR:  -8.102 RR:   0.000 FEB:  -4.821
USER: RMSD 3.367240
USER: SEED 113
USER: STATUS no improvement in best in 14 clusters for 5 generations
USER: GENES 13
USER: genes 0 Translation |==|  0.28996 0.49383 0.53631
USER: genes 1 Rotation |==|  0.43992 0.50814 0.25577 0.93206
USER: genes 2 Torsion [N]-C--CA-[N] |==|  0.28522
USER: genes 3 Torsion [C]-CA--CB-[CG] |==|  0.60912
USER: genes 4 Torsion [CA]-CB--CG-[CD] |==|  0.49256
USER: genes 5 Torsion [CB]-CG--CD-[NE] |==|  0.65458
USER: genes 6 Torsion [CG]-CD--NE-[CZ] |==|  0.40390
USER: genes 7 Torsion [C]-N--CA-[C] |==|  0.73035
USER: genes 8 Torsion [N]-CA--C-[N] |==|  0.36930
USER: genes 9 Torsion [C]-N--CA-[C] |==|  0.58259
USER: genes 10 Torsion [N]-CA--C-[OXT] |==|  0.71156
USER: genes 11 Torsion [N]-CA--CB-[OG1] |==|  0.88276
USER: genes 12 Torsion [CA]-CB--OG1-[HG1] |==|  0.29427
ROOT
ATOM      1  C   ARG C 760      13.665 -17.085  18.826  1.00 56.34 LIG 0.26  C 
ATOM      2 O    ARG C 760      13.789 -15.882  19.034  1.00 53.76 LIG-0.27  OA
ATOM      3  N   GLY C 761      13.536 -17.975  19.806  1.00 59.89 LIG-0.35  N 
ATOM      4 H    GLY C 761      13.652 -18.820  19.704  1.00 59.89 LIG 0.16  HD
ENDROOT
BRANCH 1 5
ATOM      5  CA  ARG C 760      13.658 -17.629  17.398  1.00 61.16 LIG 0.40  C 
ATOM      6  N   ARG C 760      12.357 -17.385  16.779  1.00 59.95 LIG 0.61  N 
BRANCH 5 7
ATOM      7  CB  ARG C 760      14.772 -17.004  16.558  1.00 63.40 LIG 0.05  C 
BRANCH 7 8
ATOM      8  CG  ARG C 760      14.374 -16.688  15.131  1.00 63.69 LIG 0.02  C 
BRANCH 8 9
ATOM      9  CD  ARG C 760      15.511 -16.012  14.384  1.00 63.30 LIG 0.14  C 
BRANCH 9 10
ATOM     10  NE  ARG C 760      15.097 -14.730  13.820  1.00 65.15 LIG-0.23  N 
ATOM     11  CZ  ARG C 760      15.885 -13.665  13.714  1.00 66.46 LIG 0.67  C 
ATOM     12  NH1 ARG C 760      17.144 -13.719  14.128  1.00 66.43 LIG-0.23  N 
ATOM     13  NH2 ARG C 760      15.413 -12.543  13.189  1.00 66.89 LIG-0.23  N 
ATOM     14 2HH1 ARG C 760      17.650 -13.027  14.057  1.00 66.43 LIG 0.17  HD
ATOM     15 1HH1 ARG C 760      17.456 -14.446  14.467  1.00 66.43 LIG 0.17  HD
ATOM     16 2HH2 ARG C 760      15.922 -11.854  13.120  1.00 66.89 LIG 0.17  HD
ATOM     17 1HH2 ARG C 760      14.599 -12.506  12.917  1.00 66.89 LIG 0.17  HD
ATOM     18 HE   ARG C 760      14.288 -14.661  13.536  1.00 65.15 LIG 0.18  HD
ENDBRANCH 9 10
ENDBRANCH 8 9
ENDBRANCH 7 8
ENDBRANCH 5 7
ENDBRANCH 1 5
BRANCH 3 19
ATOM     19  CA  GLY C 761      13.178 -17.575  21.157  1.00 62.83 LIG 0.23  C 
BRANCH 19 20
ATOM     20  C   GLY C 761      14.249 -17.376  22.219  1.00 67.24 LIG 0.24  C 
ATOM     21 O    GLY C 761      15.134 -18.215  22.388  1.00 65.14 LIG-0.27  OA
ATOM     22  N   THR C 762      14.144 -16.256  22.932  1.00 72.11 LIG-0.34  N 
ATOM     23 H    THR C 762      13.403 -15.828  23.013  1.00 72.11 LIG 0.16  HD
BRANCH 22 24
ATOM     24  CA  THR C 762      15.254 -15.623  23.654  1.00 75.13 LIG 0.21  C 
BRANCH 24 25
ATOM     25  C   THR C 762      14.663 -14.898  24.860  1.00 73.09 LIG 0.20  C 
ATOM     26 OXT  THR C 762      14.543 -13.675  24.841  1.00 76.95 LIG-0.65  OA
ATOM     27 O    THR C 762      14.288 -15.494  25.871  1.00 68.26 LIG-0.65  OA
ENDBRANCH 24 25
BRANCH 24 28
ATOM     28  CB  THR C 762      16.065 -14.611  22.814  1.00 77.67 LIG 0.15  C 
ATOM     29  CG2 THR C 762      17.410 -14.347  23.468  1.00 76.40 LIG 0.04  C 
BRANCH 28 30
ATOM     30 OG1  THR C 762      16.285 -15.131  21.499  1.00 80.43 LIG-0.39  OA
ATOM     31 HG1  THR C 762      15.789 -14.729  20.952  1.00 80.43 LIG 0.21  HD
ENDBRANCH 28 30
ENDBRANCH 24 28
ENDBRANCH 22 24
ENDBRANCH 19 20
ENDBRANCH 3 19
TORSDOF 11
ENDMDL
MODEL 3
USER: ADFR SOLUTION from run 183
USER: SCORE 8.175663 LL:  -0.537 LR:  -7.960 RR:   0.000 FEB:  -4.678
USER: RMSD 5.455753
USER: SEED 182
USER: STATUS no improvement in best in 36 clusters for 5 generations
USER: GENES 13
USER: genes 0 Translation |==|  0.32516 0.51804 0.54445
USER: genes 1 Rotation |==|  0.46462 0.55457 0.59140 0.98726
USER: genes 2 Torsion [N]-C--CA-[N] |==|  0.10239
USER: genes 3 Torsion [C]-CA--CB-[CG] |==|  0.58547
USER: genes 4 Torsion [CA]-CB--CG-[CD] |==|  0.48908
USER: genes 5 Torsion [CB]-CG--CD-[NE] |==|  0.27975
USER: genes 6 Torsion [CG]-CD--NE-[CZ] |==|  0.35132
USER: genes 7 Torsion [C]-N--CA-[C] |==|  0.82051
USER: genes 8 Torsion [N]-CA--C-[N] |==|  0.84730
USER: genes 9 Torsion [C]-N--CA-[C] |==|  0.38839
USER: genes 10 Torsion [N]-CA--C-[OXT] |==|  0.36956
USER: genes 11 Torsion [N]-CA--CB-[OG1] |==|  0.66219
USER: genes 12 Torsion [CA]-CB--OG1-[HG1] |==|  0.88478
ROOT
ATOM      1  C   ARG C 760      14.272 -16.776  18.991  1.00 56.34 LIG 0.26  C 
ATOM      2 O    ARG C 760      13.262 -16.413  19.586  1.00 53.76 LIG-0.27  OA
ATOM      3  N   GLY C 761      15.404 -17.085  19.617  1.00 59.89 LIG-0.35  N 
ATOM      4 H    GLY C 761      16.168 -17.140  19.227  1.00 59.89 LIG 0.16  HD
ENDROOT
BRANCH 1 5
ATOM      5  CA  ARG C 760      14.278 -16.887  17.466  1.00 61.16 LIG 0.40  C 
ATOM      6  N   ARG C 760      15.084 -18.034  17.055  1.00 59.95 LIG 0.61  N 
BRANCH 5 7
ATOM      7  CB  ARG C 760      12.858 -17.008  16.911  1.00 63.40 LIG 0.05  C 
BRANCH 7 8
ATOM      8  CG  ARG C 760      12.756 -17.816  15.634  1.00 63.69 LIG 0.02  C 
BRANCH 8 9
ATOM      9  CD  ARG C 760      11.307 -17.970  15.200  1.00 63.30 LIG 0.14  C 
BRANCH 9 10
ATOM     10  NE  ARG C 760      10.965 -17.038  14.130  1.00 65.15 LIG-0.23  N 
ATOM     11  CZ  ARG C 760      10.424 -17.393  12.968  1.00 66.46 LIG 0.67  C 
ATOM     12  NH1 ARG C 760      10.150 -18.667  12.718  1.00 66.43 LIG-0.23  N 
ATOM     13  NH2 ARG C 760      10.152 -16.470  12.057  1.00 66.89 LIG-0.23  N 
ATOM     14 2HH1 ARG C 760       9.799 -18.891  11.965  1.00 66.43 LIG 0.17  HD
ATOM     15 1HH1 ARG C 760      10.322 -19.269  13.308  1.00 66.43 LIG 0.17  HD
ATOM     16 2HH2 ARG C 760       9.802 -16.699  11.306  1.00 66.89 LIG 0.17  HD
ATOM     17 1HH2 ARG C 760      10.325 -15.644  12.217  1.00 66.89 LIG 0.17  HD
ATOM     18 HE   ARG C 760      11.124 -16.203  14.260  1.00 65.15 LIG 0.18  HD
ENDBRANCH 9 10
ENDBRANCH 8 9
ENDBRANCH 7 8
ENDBRANCH 5 7
ENDBRANCH 1 5
BRANCH 3 19
ATOM     19  CA  GLY C 761      15.436 -17.359  21.044  1.00 62.83 LIG 0.23  C 
BRANCH 19 20
ATOM     20  C   GLY C 761      15.093 -16.274  22.054  1.00 67.24 LIG 0.24  C 
ATOM     21 O    GLY C 761      14.212 -16.449  22.894  1.00 65.14 LIG-0.27  OA
ATOM     22  N   THR C 762      15.802 -15.151  21.947  1.00 72.11 LIG-0.34  N 
ATOM     23 H    THR C 762      16.197 -14.922  21.218  1.00 72.11 LIG 0.16  HD
BRANCH 22 24
ATOM     24  CA  THR C 762      15.995 -14.183  23.032  1.00 75.13 LIG 0.21  C 
BRANCH 24 25
ATOM     25  C   THR C 762      17.443 -13.707  22.972  1.00 73.09 LIG 0.20  C 
ATOM     26 OXT  THR C 762      17.696 -12.506  23.043  1.00 76.95 LIG-0.65  OA
ATOM     27 O    THR C 762      18.391 -14.485  22.859  1.00 68.26 LIG-0.65  OA
ENDBRANCH 24 25
BRANCH 24 28
ATOM     28  CB  THR C 762      15.714 -14.744  24.444  1.00 77.67 LIG 0.15  C 
ATOM     29  CG2 THR C 762      16.972 -14.683  25.292  1.00 76.40 LIG 0.04  C 
BRANCH 28 30
ATOM     30 OG1  THR C 762      14.688 -13.976  25.082  1.00 80.43 LIG-0.39  OA
ATOM     31 HG1  THR C 762      14.812 -13.160  24.926  1.00 80.43 LIG 0.21  HD
ENDBRANCH 28 30
ENDBRANCH 24 28
ENDBRANCH 22 24
ENDBRANCH 19 20
ENDBRANCH 3 19
TORSDOF 11
ENDMDL
MODEL 4
USER: ADFR SOLUTION from run 21
USER: SCORE 8.600013 LL:  -0.908 LR:  -7.839 RR:   0.000 FEB:  -4.558
USER: RMSD 3.769868
USER: SEED 20
USER: STATUS no improvement in best in 30 clusters for 5 generations
USER: GENES 13
USER: genes 0 Translation |==|  0.33854 0.50915 0.53525
USER: genes 1 Rotation |==|  0.28969 0.70893 0.52000 0.90214
USER: genes 2 Torsion [N]-C--CA-[N] |==|  0.42328
USER: genes 3 Torsion [C]-CA--CB-[CG] |==|  0.99155
USER: genes 4 Torsion [CA]-CB--CG-[CD] |==|  0.45731
USER: genes 5 Torsion [CB]-CG--CD-[NE] |==|  0.37931
USER: genes 6 Torsion [CG]-CD--NE-[CZ] |==|  0.49442
USER: genes 7 Torsion [C]-N--CA-[C] |==|  0.16818
USER: genes 8 Torsion [N]-CA--C-[N] |==|  0.62690
USER: genes 9 Torsion [C]-N--CA-[C] |==|  0.73238
USER: genes 10 Torsion [N]-CA--C-[OXT] |==|  0.10294
USER: genes 11 Torsion [N]-CA--CB-[OG1] |==|  0.99835
USER: genes 12 Torsion [CA]-CB--OG1-[HG1] |==|  0.11217
ROOT
ATOM      1  C   ARG C 760      14.503 -16.889  18.805  1.00 56.34 LIG 0.26  C 
ATOM      2 O    ARG C 760      13.912 -15.881  19.180  1.00 53.76 LIG-0.27  OA
ATOM      3  N   GLY C 761      15.810 -17.065  18.977  1.00 59.89 LIG-0.35  N 
ATOM      4 H    GLY C 761      16.275 -17.650  18.553  1.00 59.89 LIG 0.16  HD
ENDROOT
BRANCH 1 5
ATOM      5  CA  ARG C 760      13.746 -18.015  18.099  1.00 61.16 LIG 0.40  C 
ATOM      6  N   ARG C 760      12.352 -18.028  18.539  1.00 59.95 LIG 0.61  N 
BRANCH 5 7
ATOM      7  CB  ARG C 760      13.824 -17.871  16.579  1.00 63.40 LIG 0.05  C 
BRANCH 7 8
ATOM      8  CG  ARG C 760      14.555 -16.631  16.107  1.00 63.69 LIG 0.02  C 
BRANCH 8 9
ATOM      9  CD  ARG C 760      14.921 -16.740  14.636  1.00 63.30 LIG 0.14  C 
BRANCH 9 10
ATOM     10  NE  ARG C 760      14.654 -15.494  13.923  1.00 65.15 LIG-0.23  N 
ATOM     11  CZ  ARG C 760      14.914 -15.295  12.634  1.00 66.46 LIG 0.67  C 
ATOM     12  NH1 ARG C 760      15.446 -16.264  11.900  1.00 66.43 LIG-0.23  N 
ATOM     13  NH2 ARG C 760      14.637 -14.125  12.078  1.00 66.89 LIG-0.23  N 
ATOM     14 2HH1 ARG C 760      15.612 -16.130  11.067  1.00 66.43 LIG 0.17  HD
ATOM     15 1HH1 ARG C 760      15.624 -17.026  12.257  1.00 66.43 LIG 0.17  HD
ATOM     16 2HH2 ARG C 760      14.805 -13.995  11.245  1.00 66.89 LIG 0.17  HD
ATOM     17 1HH2 ARG C 760      14.289 -13.496  12.549  1.00 66.89 LIG 0.17  HD
ATOM     18 HE   ARG C 760      14.304 -14.846  14.366  1.00 65.15 LIG 0.18  HD
ENDBRANCH 9 10
ENDBRANCH 8 9
ENDBRANCH 7 8
ENDBRANCH 5 7
ENDBRANCH 1 5
BRANCH 3 19
ATOM     19  CA  GLY C 761      16.569 -16.260  19.920  1.00 62.83 LIG 0.23  C 
BRANCH 19 20
ATOM     20  C   GLY C 761      16.230 -16.272  21.403  1.00 67.24 LIG 0.24  C 
ATOM     21 O    GLY C 761      16.016 -17.331  21.993  1.00 65.14 LIG-0.27  OA
ATOM     22  N   THR C 762      16.180 -15.075  21.987  1.00 72.11 LIG-0.34  N 
ATOM     23 H    THR C 762      16.050 -14.351  21.543  1.00 72.11 LIG 0.16  HD
BRANCH 22 24
ATOM     24  CA  THR C 762      16.338 -14.845  23.428  1.00 75.13 LIG 0.21  C 
BRANCH 24 25
ATOM     25  C   THR C 762      14.941 -14.763  24.035  1.00 73.09 LIG 0.20  C 
ATOM     26 OXT  THR C 762      14.045 -15.490  23.610  1.00 76.95 LIG-0.65  OA
ATOM     27 O    THR C 762      14.663 -13.991  24.954  1.00 68.26 LIG-0.65  OA
ENDBRANCH 24 25
BRANCH 24 28
ATOM     28  CB  THR C 762      17.113 -13.558  23.786  1.00 77.67 LIG 0.15  C 
ATOM     29  CG2 THR C 762      18.350 -13.900  24.599  1.00 76.40 LIG 0.04  C 
BRANCH 28 30
ATOM     30 OG1  THR C 762      17.518 -12.881  22.591  1.00 80.43 LIG-0.39  OA
ATOM     31 HG1  THR C 762      16.898 -12.915  22.026  1.00 80.43 LIG 0.21  HD
ENDBRANCH 28 30
ENDBRANCH 24 28
ENDBRANCH 22 24
ENDBRANCH 19 20
ENDBRANCH 3 19
TORSDOF 11
ENDMDL
MODEL 5
USER: ADFR SOLUTION from run 151
USER: SCORE 8.952530 LL:  -1.259 LR:  -7.816 RR:   0.000 FEB:  -4.535
USER: RMSD 6.436842
USER: SEED 150
USER: STATUS no improvement in best in 17 clusters for 5 generations
USER: GENES 13
USER: genes 0 Translation |==|  0.29453 0.49791 0.55348
USER: genes 1 Rotation |==|  0.22316 0.68589 0.36665 0.84788
USER: genes 2 Torsion [N]-C--CA-[N] |==|  0.68886
USER: genes 3 Torsion [C]-CA--CB-[CG] |==|  0.21589
USER: genes 4 Torsion [CA]-CB--CG-[CD] |==|  0.57742
USER: genes 5 Torsion [CB]-CG--CD-[NE] |==|  0.39355
USER: genes 6 Torsion [CG]-CD--NE-[CZ] |==|  0.69511
USER: genes 7 Torsion [C]-N--CA-[C] |==|  0.24828
USER: genes 8 Torsion [N]-CA--C-[N] |==|  0.52776
USER: genes 9 Torsion [C]-N--CA-[C] |==|  0.80182
USER: genes 10 Torsion [N]-CA--C-[OXT] |==|  0.82455
USER: genes 11 Torsion [N]-CA--CB-[OG1] |==|  0.03219
USER: genes 12 Torsion [CA]-CB--OG1-[HG1] |==|  0.06492
ROOT
ATOM      1  C   ARG C 760      13.744 -17.033  19.174  1.00 56.34 LIG 0.26  C 
ATOM      2 O    ARG C 760      13.538 -15.882  18.800  1.00 53.76 LIG-0.27  OA
ATOM      3  N   GLY C 761      14.844 -17.392  19.829  1.00 59.89 LIG-0.35  N 
ATOM      4 H    GLY C 761      15.104 -18.206  19.919  1.00 59.89 LIG 0.16  HD
ENDROOT
BRANCH 1 5
ATOM      5  CA  ARG C 760      12.722 -18.134  18.892  1.00 61.16 LIG 0.40  C 
ATOM      6  N   ARG C 760      12.663 -18.402  17.456  1.00 59.95 LIG 0.61  N 
BRANCH 5 7
ATOM      7  CB  ARG C 760      13.056 -19.414  19.659  1.00 63.40 LIG 0.05  C 
BRANCH 7 8
ATOM      8  CG  ARG C 760      12.680 -19.376  21.126  1.00 63.69 LIG 0.02  C 
BRANCH 8 9
ATOM      9  CD  ARG C 760      13.584 -20.284  21.944  1.00 63.30 LIG 0.14  C 
BRANCH 9 10
ATOM     10  NE  ARG C 760      13.911 -19.692  23.238  1.00 65.15 LIG-0.23  N 
ATOM     11  CZ  ARG C 760      15.113 -19.233  23.573  1.00 66.46 LIG 0.67  C 
ATOM     12  NH1 ARG C 760      16.117 -19.285  22.707  1.00 66.43 LIG-0.23  N 
ATOM     13  NH2 ARG C 760      15.310 -18.714  24.777  1.00 66.89 LIG-0.23  N 
ATOM     14 2HH1 ARG C 760      16.892 -18.987  22.928  1.00 66.43 LIG 0.17  HD
ATOM     15 1HH1 ARG C 760      15.992 -19.618  21.923  1.00 66.43 LIG 0.17  HD
ATOM     16 2HH2 ARG C 760      16.087 -18.417  24.994  1.00 66.89 LIG 0.17  HD
ATOM     17 1HH2 ARG C 760      14.662 -18.676  25.339  1.00 66.89 LIG 0.17  HD
ATOM     18 HE   ARG C 760      13.283 -19.636  23.823  1.00 65.15 LIG 0.18  HD
ENDBRANCH 9 10
ENDBRANCH 8 9
ENDBRANCH 7 8
ENDBRANCH 5 7
ENDBRANCH 1 5
BRANCH 3 19
ATOM     19  CA  GLY C 761      15.710 -16.409  20.459  1.00 62.83 LIG 0.23  C 
BRANCH 19 20
ATOM     20  C   GLY C 761      15.476 -15.972  21.897  1.00 67.24 LIG 0.24  C 
ATOM     21 O    GLY C 761      14.665 -16.561  22.612  1.00 65.14 LIG-0.27  OA
ATOM     22  N   THR C 762      16.195 -14.925  22.299  1.00 72.11 LIG-0.34  N 
ATOM     23 H    THR C 762      16.531 -14.357  21.748  1.00 72.11 LIG 0.16  HD
BRANCH 22 24
ATOM     24  CA  THR C 762      16.498 -14.613  23.701  1.00 75.13 LIG 0.21  C 
BRANCH 24 25
ATOM     25  C   THR C 762      15.206 -14.134  24.355  1.00 73.09 LIG 0.20  C 
ATOM     26 OXT  THR C 762      14.663 -13.105  23.956  1.00 76.95 LIG-0.65  OA
ATOM     27 O    THR C 762      14.666 -14.744  25.279  1.00 68.26 LIG-0.65  OA
ENDBRANCH 24 25
BRANCH 24 28
ATOM     28  CB  THR C 762      17.584 -13.531  23.892  1.00 77.67 LIG 0.15  C 
ATOM     29  CG2 THR C 762      18.865 -14.160  24.411  1.00 76.40 LIG 0.04  C 
BRANCH 28 30
ATOM     30 OG1  THR C 762      17.858 -12.886  22.644  1.00 80.43 LIG-0.39  OA
ATOM     31 HG1  THR C 762      17.196 -12.969  22.134  1.00 80.43 LIG 0.21  HD
ENDBRANCH 28 30
ENDBRANCH 24 28
ENDBRANCH 22 24
ENDBRANCH 19 20
ENDBRANCH 3 19
TORSDOF 11
ENDMDL
MODEL 6
USER: ADFR SOLUTION from run 26
USER: SCORE 8.069656 LL:  -0.693 LR:  -7.656 RR:   0.000 FEB:  -4.375
USER: RMSD 5.263114
USER: SEED 25
USER: STATUS no improvement in best in 12 clusters for 5 generations
USER: GENES 13
USER: genes 0 Translation |==|  0.29743 0.49203 0.53769
USER: genes 1 Rotation |==|  0.30748 0.64625 0.38224 0.92152
USER: genes 2 Torsion [N]-C--CA-[N] |==|  0.23707
USER: genes 3 Torsion [C]-CA--CB-[CG] |==|  0.43866
USER: genes 4 Torsion [CA]-CB--CG-[CD] |==|  0.35917
USER: genes 5 Torsion [CB]-CG--CD-[NE] |==|  0.27340
USER: genes 6 Torsion [CG]-CD--NE-[CZ] |==|  0.24407
USER: genes 7 Torsion [C]-N--CA-[C] |==|  0.23574
USER: genes 8 Torsion [N]-CA--C-[N] |==|  0.60428
USER: genes 9 Torsion [C]-N--CA-[C] |==|  0.48187
USER: genes 10 Torsion [N]-CA--C-[OXT] |==|  0.99361
USER: genes 11 Torsion [N]-CA--CB-[OG1] |==|  0.82694
USER: genes 12 Torsion [CA]-CB--OG1-[HG1] |==|  0.85417
ROOT
ATOM      1  C   ARG C 760      13.794 -17.108  18.854  1.00 56.34 LIG 0.26  C 
ATOM      2 O    ARG C 760      13.537 -15.908  18.873  1.00 53.76 LIG-0.27  OA
ATOM      3  N   GLY C 761      14.732 -17.655  19.621  1.00 59.89 LIG-0.35  N 
ATOM      4 H    GLY C 761      15.068 -18.435  19.485  1.00 59.89 LIG 0.16  HD
ENDROOT
BRANCH 1 5
ATOM      5  CA  ARG C 760      13.033 -18.050  17.921  1.00 61.16 LIG 0.40  C 
ATOM      6  N   ARG C 760      11.915 -18.662  18.637  1.00 59.95 LIG 0.61  N 
BRANCH 5 7
ATOM      7  CB  ARG C 760      12.531 -17.317  16.677  1.00 63.40 LIG 0.05  C 
BRANCH 7 8
ATOM      8  CG  ARG C 760      12.249 -18.221  15.494  1.00 63.69 LIG 0.02  C 
BRANCH 8 9
ATOM      9  CD  ARG C 760      10.865 -17.959  14.925  1.00 63.30 LIG 0.14  C 
BRANCH 9 10
ATOM     10  NE  ARG C 760      10.920 -17.082  13.758  1.00 65.15 LIG-0.23  N 
ATOM     11  CZ  ARG C 760      11.092 -17.503  12.509  1.00 66.46 LIG 0.67  C 
ATOM     12  NH1 ARG C 760      11.219 -18.798  12.249  1.00 66.43 LIG-0.23  N 
ATOM     13  NH2 ARG C 760      11.131 -16.626  11.516  1.00 66.89 LIG-0.23  N 
ATOM     14 2HH1 ARG C 760      11.329 -19.065  11.439  1.00 66.43 LIG 0.17  HD
ATOM     15 1HH1 ARG C 760      11.190 -19.371  12.890  1.00 66.43 LIG 0.17  HD
ATOM     16 2HH2 ARG C 760      11.242 -16.897  10.708  1.00 66.89 LIG 0.17  HD
ATOM     17 1HH2 ARG C 760      11.046 -15.787  11.680  1.00 66.89 LIG 0.17  HD
ATOM     18 HE   ARG C 760      10.836 -16.236  13.889  1.00 65.15 LIG 0.18  HD
ENDBRANCH 9 10
ENDBRANCH 8 9
ENDBRANCH 7 8
ENDBRANCH 5 7
ENDBRANCH 1 5
BRANCH 3 19
ATOM     19  CA  GLY C 761      15.273 -16.960  20.778  1.00 62.83 LIG 0.23  C 
BRANCH 19 20
ATOM     20  C   GLY C 761      14.570 -17.026  22.125  1.00 67.24 LIG 0.24  C 
ATOM     21 O    GLY C 761      14.022 -18.062  22.502  1.00 65.14 LIG-0.27  OA
ATOM     22  N   THR C 762      14.591 -15.899  22.836  1.00 72.11 LIG-0.34  N 
ATOM     23 H    THR C 762      14.713 -15.128  22.475  1.00 72.11 LIG 0.16  HD
BRANCH 22 24
ATOM     24  CA  THR C 762      14.414 -15.830  24.291  1.00 75.13 LIG 0.21  C 
BRANCH 24 25
ATOM     25  C   THR C 762      14.670 -14.387  24.717  1.00 73.09 LIG 0.20  C 
ATOM     26 OXT  THR C 762      15.006 -13.552  23.879  1.00 76.95 LIG-0.65  OA
ATOM     27 O    THR C 762      14.549 -14.010  25.883  1.00 68.26 LIG-0.65  OA
ENDBRANCH 24 25
BRANCH 24 28
ATOM     28  CB  THR C 762      15.353 -16.760  25.092  1.00 77.67 LIG 0.15  C 
ATOM     29  CG2 THR C 762      15.131 -16.571  26.582  1.00 76.40 LIG 0.04  C 
BRANCH 28 30
ATOM     30 OG1  THR C 762      15.094 -18.127  24.755  1.00 80.43 LIG-0.39  OA
ATOM     31 HG1  THR C 762      14.274 -18.286  24.842  1.00 80.43 LIG 0.21  HD
ENDBRANCH 28 30
ENDBRANCH 24 28
ENDBRANCH 22 24
ENDBRANCH 19 20
ENDBRANCH 3 19
TORSDOF 11
ENDMDL
MODEL 7
USER: ADFR SOLUTION from run 192
USER: SCORE 8.067924 LL:  -0.661 LR:  -7.618 RR:   0.000 FEB:  -4.337
USER: RMSD 4.313652
USER: SEED 191
USER: STATUS no improvement in best in 17 clusters for 5 generations
USER: GENES 13
USER: genes 0 Translation |==|  0.26687 0.46975 0.53992
USER: genes 1 Rotation |==|  0.39876 0.52580 0.23513 0.91101
USER: genes 2 Torsion [N]-C--CA-[N] |==|  0.13211
USER: genes 3 Torsion [C]-CA--CB-[CG] |==|  0.33716
USER: genes 4 Torsion [CA]-CB--CG-[CD] |==|  0.28183
USER: genes 5 Torsion [CB]-CG--CD-[NE] |==|  0.25863
USER: genes 6 Torsion [CG]-CD--NE-[CZ] |==|  0.34597
USER: genes 7 Torsion [C]-N--CA-[C] |==|  0.74454
USER: genes 8 Torsion [N]-CA--C-[N] |==|  0.43728
USER: genes 9 Torsion [C]-N--CA-[C] |==|  0.53388
USER: genes 10 Torsion [N]-CA--C-[OXT] |==|  0.68421
USER: genes 11 Torsion [N]-CA--CB-[OG1] |==|  0.86434
USER: genes 12 Torsion [CA]-CB--OG1-[HG1] |==|  0.33163
ROOT
ATOM      1  C   ARG C 760      13.266 -17.392  18.899  1.00 56.34 LIG 0.26  C 
ATOM      2 O    ARG C 760      13.549 -16.198  18.936  1.00 53.76 LIG-0.27  OA
ATOM      3  N   GLY C 761      13.178 -18.145  19.992  1.00 59.89 LIG-0.35  N 
ATOM      4 H    GLY C 761      13.186 -19.004  19.984  1.00 59.89 LIG 0.16  HD
ENDROOT
BRANCH 1 5
ATOM      5  CA  ARG C 760      13.002 -18.086  17.563  1.00 61.16 LIG 0.40  C 
ATOM      6  N   ARG C 760      11.780 -18.884  17.651  1.00 59.95 LIG 0.61  N 
BRANCH 5 7
ATOM      7  CB  ARG C 760      12.895 -17.075  16.421  1.00 63.40 LIG 0.05  C 
BRANCH 7 8
ATOM      8  CG  ARG C 760      13.899 -17.288  15.306  1.00 63.69 LIG 0.02  C 
BRANCH 8 9
ATOM      9  CD  ARG C 760      13.254 -17.974  14.114  1.00 63.30 LIG 0.14  C 
BRANCH 9 10
ATOM     10  NE  ARG C 760      12.766 -17.007  13.136  1.00 65.15 LIG-0.23  N 
ATOM     11  CZ  ARG C 760      13.112 -16.996  11.852  1.00 66.46 LIG 0.67  C 
ATOM     12  NH1 ARG C 760      13.948 -17.909  11.375  1.00 66.43 LIG-0.23  N 
ATOM     13  NH2 ARG C 760      12.616 -16.072  11.042  1.00 66.89 LIG-0.23  N 
ATOM     14 2HH1 ARG C 760      14.168 -17.898  10.544  1.00 66.43 LIG 0.17  HD
ATOM     15 1HH1 ARG C 760      14.270 -18.513  11.897  1.00 66.43 LIG 0.17  HD
ATOM     16 2HH2 ARG C 760      12.839 -16.064  10.212  1.00 66.89 LIG 0.17  HD
ATOM     17 1HH2 ARG C 760      12.072 -15.481  11.347  1.00 66.89 LIG 0.17  HD
ATOM     18 HE   ARG C 760      12.218 -16.403  13.409  1.00 65.15 LIG 0.18  HD
ENDBRANCH 9 10
ENDBRANCH 8 9
ENDBRANCH 7 8
ENDBRANCH 5 7
ENDBRANCH 1 5
BRANCH 3 19
ATOM     19  CA  GLY C 761      13.058 -17.556  21.315  1.00 62.83 LIG 0.23  C 
BRANCH 19 20
ATOM     20  C   GLY C 761      14.294 -17.271  22.156  1.00 67.24 LIG 0.24  C 
ATOM     21 O    GLY C 761      15.346 -17.879  21.958  1.00 65.14 LIG-0.27  OA
ATOM     22  N   THR C 762      14.141 -16.342  23.098  1.00 72.11 LIG-0.34  N 
ATOM     23 H    THR C 762      13.371 -16.131  23.417  1.00 72.11 LIG 0.16  HD
BRANCH 22 24
ATOM     24  CA  THR C 762      15.240 -15.577  23.698  1.00 75.13 LIG 0.21  C 
BRANCH 24 25
ATOM     25  C   THR C 762      14.684 -14.858  24.924  1.00 73.09 LIG 0.20  C 
ATOM     26 OXT  THR C 762      14.615 -13.631  24.935  1.00 76.95 LIG-0.65  OA
ATOM     27 O    THR C 762      14.288 -15.463  25.922  1.00 68.26 LIG-0.65  OA
ENDBRANCH 24 25
BRANCH 24 28
ATOM     28  CB  THR C 762      15.878 -14.531  22.755  1.00 77.67 LIG 0.15  C 
ATOM     29  CG2 THR C 762      17.162 -13.994  23.361  1.00 76.40 LIG 0.04  C 
BRANCH 28 30
ATOM     30 OG1  THR C 762      16.178 -15.131  21.491  1.00 80.43 LIG-0.39  OA
ATOM     31 HG1  THR C 762      15.751 -14.736  20.885  1.00 80.43 LIG 0.21  HD
ENDBRANCH 28 30
ENDBRANCH 24 28
ENDBRANCH 22 24
ENDBRANCH 19 20
ENDBRANCH 3 19
TORSDOF 11
ENDMDL
MODEL 8
USER: ADFR SOLUTION from run 149
USER: SCORE 7.576727 LL:  -0.439 LR:  -7.591 RR:   0.000 FEB:  -4.309
USER: RMSD 2.767679
USER: SEED 148
USER: STATUS no improvement in best in 24 clusters for 5 generations
USER: GENES 13
USER: genes 0 Translation |==|  0.32783 0.52872 0.38170
USER: genes 1 Rotation |==|  0.49612 0.43195 0.64253 0.97438
USER: genes 2 Torsion [N]-C--CA-[N] |==|  0.47638
USER: genes 3 Torsion [C]-CA--CB-[CG] |==|  0.47412
USER: genes 4 Torsion [CA]-CB--CG-[CD] |==|  0.37835
USER: genes 5 Torsion [CB]-CG--CD-[NE] |==|  0.97670
USER: genes 6 Torsion [CG]-CD--NE-[CZ] |==|  0.27873
USER: genes 7 Torsion [C]-N--CA-[C] |==|  0.68523
USER: genes 8 Torsion [N]-CA--C-[N] |==|  0.69578
USER: genes 9 Torsion [C]-N--CA-[C] |==|  0.17520
USER: genes 10 Torsion [N]-CA--C-[OXT] |==|  0.84697
USER: genes 11 Torsion [N]-CA--CB-[OG1] |==|  0.76442
USER: genes 12 Torsion [CA]-CB--OG1-[HG1] |==|  0.36844
ROOT
ATOM      1  C   ARG C 760      14.318 -16.640  15.695  1.00 56.34 LIG 0.26  C 
ATOM      2 O    ARG C 760      13.099 -16.631  15.831  1.00 53.76 LIG-0.27  OA
ATOM      3  N   GLY C 761      15.152 -16.909  16.696  1.00 59.89 LIG-0.35  N 
ATOM      4 H    GLY C 761      15.991 -16.725  16.683  1.00 59.89 LIG 0.16  HD
ENDROOT
BRANCH 1 5
ATOM      5  CA  ARG C 760      14.951 -16.329  14.339  1.00 61.16 LIG 0.40  C 
ATOM      6  N   ARG C 760      13.913 -16.256  13.312  1.00 59.95 LIG 0.61  N 
BRANCH 5 7
ATOM      7  CB  ARG C 760      15.749 -15.026  14.382  1.00 63.40 LIG 0.05  C 
BRANCH 7 8
ATOM      8  CG  ARG C 760      16.584 -14.766  13.144  1.00 63.69 LIG 0.02  C 
BRANCH 8 9
ATOM      9  CD  ARG C 760      16.462 -13.318  12.698  1.00 63.30 LIG 0.14  C 
BRANCH 9 10
ATOM     10  NE  ARG C 760      15.430 -12.610  13.450  1.00 65.15 LIG-0.23  N 
ATOM     11  CZ  ARG C 760      15.671 -11.792  14.470  1.00 66.46 LIG 0.67  C 
ATOM     12  NH1 ARG C 760      16.916 -11.564  14.868  1.00 66.43 LIG-0.23  N 
ATOM     13  NH2 ARG C 760      14.663 -11.197  15.091  1.00 66.89 LIG-0.23  N 
ATOM     14 2HH1 ARG C 760      17.066 -11.034  15.528  1.00 66.43 LIG 0.17  HD
ATOM     15 1HH1 ARG C 760      17.573 -11.946  14.465  1.00 66.43 LIG 0.17  HD
ATOM     16 2HH2 ARG C 760      14.817 -10.667  15.751  1.00 66.89 LIG 0.17  HD
ATOM     17 1HH2 ARG C 760      13.855 -11.339  14.834  1.00 66.89 LIG 0.17  HD
ATOM     18 HE   ARG C 760      14.612 -12.729  13.216  1.00 65.15 LIG 0.18  HD
ENDBRANCH 9 10
ENDBRANCH 8 9
ENDBRANCH 7 8
ENDBRANCH 5 7
ENDBRANCH 1 5
BRANCH 3 19
ATOM     19  CA  GLY C 761      14.695 -17.552  17.917  1.00 62.83 LIG 0.23  C 
BRANCH 19 20
ATOM     20  C   GLY C 761      14.702 -16.803  19.241  1.00 67.24 LIG 0.24  C 
ATOM     21 O    GLY C 761      13.913 -15.881  19.449  1.00 65.14 LIG-0.27  OA
ATOM     22  N   THR C 762      15.611 -17.214  20.124  1.00 72.11 LIG-0.34  N 
ATOM     23 H    THR C 762      16.319 -17.641  19.892  1.00 72.11 LIG 0.16  HD
BRANCH 22 24
ATOM     24  CA  THR C 762      15.521 -16.996  21.572  1.00 75.13 LIG 0.21  C 
BRANCH 24 25
ATOM     25  C   THR C 762      14.285 -17.738  22.073  1.00 73.09 LIG 0.20  C 
ATOM     26 OXT  THR C 762      13.188 -17.509  21.568  1.00 76.95 LIG-0.65  OA
ATOM     27 O    THR C 762      14.337 -18.576  22.974  1.00 68.26 LIG-0.65  OA
ENDBRANCH 24 25
BRANCH 24 28
ATOM     28  CB  THR C 762      15.413 -15.512  21.988  1.00 77.67 LIG 0.15  C 
ATOM     29  CG2 THR C 762      14.734 -15.394  23.341  1.00 76.40 LIG 0.04  C 
BRANCH 28 30
ATOM     30 OG1  THR C 762      16.719 -14.930  22.073  1.00 80.43 LIG-0.39  OA
ATOM     31 HG1  THR C 762      16.724 -14.193  21.671  1.00 80.43 LIG 0.21  HD
ENDBRANCH 28 30
ENDBRANCH 24 28
ENDBRANCH 22 24
ENDBRANCH 19 20
ENDBRANCH 3 19
TORSDOF 11
ENDMDL
MODEL 9
USER: ADFR SOLUTION from run 91
USER: SCORE 7.862601 LL:  -0.685 LR:  -7.588 RR:   0.000 FEB:  -4.307
USER: RMSD 3.513008
USER: SEED 90
USER: STATUS no improvement in best in 22 clusters for 5 generations
USER: GENES 13
USER: genes 0 Translation |==|  0.32118 0.50161 0.51133
USER: genes 1 Rotation |==|  0.39365 0.59317 0.53536 0.97829
USER: genes 2 Torsion [N]-C--CA-[N] |==|  0.46447
USER: genes 3 Torsion [C]-CA--CB-[CG] |==|  0.57590
USER: genes 4 Torsion [CA]-CB--CG-[CD] |==|  0.47739
USER: genes 5 Torsion [CB]-CG--CD-[NE] |==|  0.76664
USER: genes 6 Torsion [CG]-CD--NE-[CZ] |==|  0.30906
USER: genes 7 Torsion [C]-N--CA-[C] |==|  0.82119
USER: genes 8 Torsion [N]-CA--C-[N] |==|  0.54049
USER: genes 9 Torsion [C]-N--CA-[C] |==|  0.65509
USER: genes 10 Torsion [N]-CA--C-[OXT] |==|  0.18308
USER: genes 11 Torsion [N]-CA--CB-[OG1] |==|  0.46708
USER: genes 12 Torsion [CA]-CB--OG1-[HG1] |==|  0.87413
ROOT
ATOM      1  C   ARG C 760      14.203 -16.985  18.320  1.00 56.34 LIG 0.26  C 
ATOM      2 O    ARG C 760      13.348 -16.256  18.813  1.00 53.76 LIG-0.27  OA
ATOM      3  N   GLY C 761      15.330 -17.302  18.952  1.00 59.89 LIG-0.35  N 
ATOM      4 H    GLY C 761      16.022 -17.632  18.563  1.00 59.89 LIG 0.16  HD
ENDROOT
BRANCH 1 5
ATOM      5  CA  ARG C 760      14.011 -17.573  16.922  1.00 61.16 LIG 0.40  C 
ATOM      6  N   ARG C 760      12.626 -17.391  16.493  1.00 59.95 LIG 0.61  N 
BRANCH 5 7
ATOM      7  CB  ARG C 760      14.969 -16.937  15.914  1.00 63.40 LIG 0.05  C 
BRANCH 7 8
ATOM      8  CG  ARG C 760      14.461 -16.938  14.487  1.00 63.69 LIG 0.02  C 
BRANCH 8 9
ATOM      9  CD  ARG C 760      15.369 -16.119  13.584  1.00 63.30 LIG 0.14  C 
BRANCH 9 10
ATOM     10  NE  ARG C 760      15.038 -14.697  13.637  1.00 65.15 LIG-0.23  N 
ATOM     11  CZ  ARG C 760      15.815 -13.764  14.178  1.00 66.46 LIG 0.67  C 
ATOM     12  NH1 ARG C 760      16.984 -14.092  14.712  1.00 66.43 LIG-0.23  N 
ATOM     13  NH2 ARG C 760      15.424 -12.498  14.179  1.00 66.89 LIG-0.23  N 
ATOM     14 2HH1 ARG C 760      17.483 -13.484  15.061  1.00 66.43 LIG 0.17  HD
ATOM     15 1HH1 ARG C 760      17.244 -14.912  14.711  1.00 66.43 LIG 0.17  HD
ATOM     16 2HH2 ARG C 760      15.926 -11.893  14.528  1.00 66.89 LIG 0.17  HD
ATOM     17 1HH2 ARG C 760      14.669 -12.281  13.830  1.00 66.89 LIG 0.17  HD
ATOM     18 HE   ARG C 760      14.290 -14.448  13.295  1.00 65.15 LIG 0.18  HD
ENDBRANCH 9 10
ENDBRANCH 8 9
ENDBRANCH 7 8
ENDBRANCH 5 7
ENDBRANCH 1 5
BRANCH 3 19
ATOM     19  CA  GLY C 761      15.480 -17.110  20.385  1.00 62.83 LIG 0.23  C 
BRANCH 19 20
ATOM     20  C   GLY C 761      15.446 -15.716  20.992  1.00 67.24 LIG 0.24  C 
ATOM     21 O    GLY C 761      15.038 -14.754  20.341  1.00 65.14 LIG-0.27  OA
ATOM     22  N   THR C 762      15.889 -15.628  22.245  1.00 72.11 LIG-0.34  N 
ATOM     23 H    THR C 762      16.418 -16.211  22.590  1.00 72.11 LIG 0.16  HD
BRANCH 22 24
ATOM     24  CA  THR C 762      15.539 -14.550  23.178  1.00 75.13 LIG 0.21  C 
BRANCH 24 25
ATOM     25  C   THR C 762      16.841 -13.923  23.666  1.00 73.09 LIG 0.20  C 
ATOM     26 OXT  THR C 762      17.563 -13.319  22.875  1.00 76.95 LIG-0.65  OA
ATOM     27 O    THR C 762      17.209 -13.990  24.839  1.00 68.26 LIG-0.65  OA
ENDBRANCH 24 25
BRANCH 24 28
ATOM     28  CB  THR C 762      14.718 -15.010  24.403  1.00 77.67 LIG 0.15  C 
ATOM     29  CG2 THR C 762      15.359 -16.234  25.034  1.00 76.40 LIG 0.04  C 
BRANCH 28 30
ATOM     30 OG1  THR C 762      14.663 -13.962  25.378  1.00 80.43 LIG-0.39  OA
ATOM     31 HG1  THR C 762      15.428 -13.631  25.476  1.00 80.43 LIG 0.21  HD
ENDBRANCH 28 30
ENDBRANCH 24 28
ENDBRANCH 22 24
ENDBRANCH 19 20
ENDBRANCH 3 19
TORSDOF 11
ENDMDL
MODEL 10
USER: ADFR SOLUTION from run 178
USER: SCORE 7.549962 LL:  -0.368 LR:  -7.546 RR:   0.000 FEB:  -4.265
USER: RMSD 3.198141
USER: SEED 177
USER: STATUS no improvement in best in 19 clusters for 5 generations
USER: GENES 13
USER: genes 0 Translation |==|  0.33158 0.53021 0.37906
USER: genes 1 Rotation |==|  0.52111 0.43812 0.64020 0.97547
USER: genes 2 Torsion [N]-C--CA-[N] |==|  0.44123
USER: genes 3 Torsion [C]-CA--CB-[CG] |==|  0.42648
USER: genes 4 Torsion [CA]-CB--CG-[CD] |==|  0.32328
USER: genes 5 Torsion [CB]-CG--CD-[NE] |==|  0.91374
USER: genes 6 Torsion [CG]-CD--NE-[CZ] |==|  0.68274
USER: genes 7 Torsion [C]-N--CA-[C] |==|  0.71951
USER: genes 8 Torsion [N]-CA--C-[N] |==|  0.65409
USER: genes 9 Torsion [C]-N--CA-[C] |==|  0.16582
USER: genes 10 Torsion [N]-CA--C-[OXT] |==|  0.27686
USER: genes 11 Torsion [N]-CA--CB-[OG1] |==|  0.85711
USER: genes 12 Torsion [CA]-CB--OG1-[HG1] |==|  0.36158
ROOT
ATOM      1  C   ARG C 760      14.383 -16.621  15.642  1.00 56.34 LIG 0.26  C 
ATOM      2 O    ARG C 760      13.172 -16.631  15.841  1.00 53.76 LIG-0.27  OA
ATOM      3  N   GLY C 761      15.268 -16.973  16.569  1.00 59.89 LIG-0.35  N 
ATOM      4 H    GLY C 761      16.106 -16.784  16.530  1.00 59.89 LIG 0.16  HD
ENDROOT
BRANCH 1 5
ATOM      5  CA  ARG C 760      14.943 -16.187  14.287  1.00 61.16 LIG 0.40  C 
ATOM      6  N   ARG C 760      13.913 -16.318  13.259  1.00 59.95 LIG 0.61  N 
BRANCH 5 7
ATOM      7  CB  ARG C 760      15.468 -14.752  14.335  1.00 63.40 LIG 0.05  C 
BRANCH 7 8
ATOM      8  CG  ARG C 760      16.558 -14.453  13.326  1.00 63.69 LIG 0.02  C 
BRANCH 8 9
ATOM      9  CD  ARG C 760      16.102 -13.402  12.326  1.00 63.30 LIG 0.14  C 
BRANCH 9 10
ATOM     10  NE  ARG C 760      14.663 -13.472  12.092  1.00 65.15 LIG-0.23  N 
ATOM     11  CZ  ARG C 760      14.105 -13.811  10.933  1.00 66.46 LIG 0.67  C 
ATOM     12  NH1 ARG C 760      14.863 -14.123   9.890  1.00 66.43 LIG-0.23  N 
ATOM     13  NH2 ARG C 760      12.785 -13.843  10.820  1.00 66.89 LIG-0.23  N 
ATOM     14 2HH1 ARG C 760      14.498 -14.342   9.143  1.00 66.43 LIG 0.17  HD
ATOM     15 1HH1 ARG C 760      15.721 -14.107   9.961  1.00 66.43 LIG 0.17  HD
ATOM     16 2HH2 ARG C 760      12.424 -14.062  10.071  1.00 66.89 LIG 0.17  HD
ATOM     17 1HH2 ARG C 760      12.291 -13.644  11.494  1.00 66.89 LIG 0.17  HD
ATOM     18 HE   ARG C 760      14.141 -13.282  12.748  1.00 65.15 LIG 0.18  HD
ENDBRANCH 9 10
ENDBRANCH 8 9
ENDBRANCH 7 8
ENDBRANCH 5 7
ENDBRANCH 1 5
BRANCH 3 19
ATOM     19  CA  GLY C 761      14.877 -17.725  17.750  1.00 62.83 LIG 0.23  C 
BRANCH 19 20
ATOM     20  C   GLY C 761      14.684 -17.028  19.089  1.00 67.24 LIG 0.24  C 
ATOM     21 O    GLY C 761      13.913 -16.074  19.199  1.00 65.14 LIG-0.27  OA
ATOM     22  N   THR C 762      15.404 -17.518  20.097  1.00 72.11 LIG-0.34  N 
ATOM     23 H    THR C 762      16.123 -17.973  19.972  1.00 72.11 LIG 0.16  HD
BRANCH 22 24
ATOM     24  CA  THR C 762      15.071 -17.350  21.516  1.00 75.13 LIG 0.21  C 
BRANCH 24 25
ATOM     25  C   THR C 762      13.695 -17.971  21.742  1.00 73.09 LIG 0.20  C 
ATOM     26 OXT  THR C 762      13.604 -19.100  22.221  1.00 76.95 LIG-0.65  OA
ATOM     27 O    THR C 762      12.650 -17.381  21.466  1.00 68.26 LIG-0.65  OA
ENDBRANCH 24 25
BRANCH 24 28
ATOM     28  CB  THR C 762      15.038 -15.881  21.993  1.00 77.67 LIG 0.15  C 
ATOM     29  CG2 THR C 762      14.895 -15.824  23.504  1.00 76.40 LIG 0.04  C 
BRANCH 28 30
ATOM     30 OG1  THR C 762      16.250 -15.217  21.618  1.00 80.43 LIG-0.39  OA
ATOM     31 HG1  THR C 762      16.065 -14.492  21.237  1.00 80.43 LIG 0.21  HD
ENDBRANCH 28 30
ENDBRANCH 24 28
ENDBRANCH 22 24
ENDBRANCH 19 20
ENDBRANCH 3 19
TORSDOF 11
ENDMDL
MODEL 11
USER: ADFR SOLUTION from run 38
USER: SCORE 8.063060 LL:  -0.720 LR:  -7.549 RR:   0.000 FEB:  -4.268
USER: RMSD 4.181001
USER: SEED 37
USER: STATUS no improvement in best in 19 clusters for 5 generations
USER: GENES 13
USER: genes 0 Translation |==|  0.29589 0.46943 0.53646
USER: genes 1 Rotation |==|  0.24524 0.72314 0.42736 0.86060
USER: genes 2 Torsion [N]-C--CA-[N] |==|  0.30574
USER: genes 3 Torsion [C]-CA--CB-[CG] |==|  0.03893
USER: genes 4 Torsion [CA]-CB--CG-[CD] |==|  0.34138
USER: genes 5 Torsion [CB]-CG--CD-[NE] |==|  0.42030
USER: genes 6 Torsion [CG]-CD--NE-[CZ] |==|  0.29122
USER: genes 7 Torsion [C]-N--CA-[C] |==|  0.19037
USER: genes 8 Torsion [N]-CA--C-[N] |==|  0.64792
USER: genes 9 Torsion [C]-N--CA-[C] |==|  0.23731
USER: genes 10 Torsion [N]-CA--C-[OXT] |==|  0.26921
USER: genes 11 Torsion [N]-CA--CB-[OG1] |==|  0.84328
USER: genes 12 Torsion [CA]-CB--OG1-[HG1] |==|  0.06143
ROOT
ATOM      1  C   ARG C 760      13.767 -17.396  18.829  1.00 56.34 LIG 0.26  C 
ATOM      2 O    ARG C 760      13.439 -16.215  18.767  1.00 53.76 LIG-0.27  OA
ATOM      3  N   GLY C 761      14.991 -17.786  19.171  1.00 59.89 LIG-0.35  N 
ATOM      4 H    GLY C 761      15.301 -18.575  19.026  1.00 59.89 LIG 0.16  HD
ENDROOT
BRANCH 1 5
ATOM      5  CA  ARG C 760      12.760 -18.499  18.503  1.00 61.16 LIG 0.40  C 
ATOM      6  N   ARG C 760      11.744 -18.570  19.552  1.00 59.95 LIG 0.61  N 
BRANCH 5 7
ATOM      7  CB  ARG C 760      12.104 -18.270  17.142  1.00 63.40 LIG 0.05  C 
BRANCH 7 8
ATOM      8  CG  ARG C 760      12.802 -17.238  16.280  1.00 63.69 LIG 0.02  C 
BRANCH 8 9
ATOM      9  CD  ARG C 760      13.212 -17.831  14.942  1.00 63.30 LIG 0.14  C 
BRANCH 9 10
ATOM     10  NE  ARG C 760      13.247 -16.817  13.892  1.00 65.15 LIG-0.23  N 
ATOM     11  CZ  ARG C 760      14.361 -16.293  13.390  1.00 66.46 LIG 0.67  C 
ATOM     12  NH1 ARG C 760      15.548 -16.689  13.833  1.00 66.43 LIG-0.23  N 
ATOM     13  NH2 ARG C 760      14.288 -15.373  12.439  1.00 66.89 LIG-0.23  N 
ATOM     14 2HH1 ARG C 760      16.265 -16.347  13.504  1.00 66.43 LIG 0.17  HD
ATOM     15 1HH1 ARG C 760      15.599 -17.289  14.448  1.00 66.43 LIG 0.17  HD
ATOM     16 2HH2 ARG C 760      15.008 -15.034  12.113  1.00 66.89 LIG 0.17  HD
ATOM     17 1HH2 ARG C 760      13.521 -15.116  12.148  1.00 66.89 LIG 0.17  HD
ATOM     18 HE   ARG C 760      12.496 -16.540  13.578  1.00 65.15 LIG 0.18  HD
ENDBRANCH 9 10
ENDBRANCH 8 9
ENDBRANCH 7 8
ENDBRANCH 5 7
ENDBRANCH 1 5
BRANCH 3 19
ATOM     19  CA  GLY C 761      15.922 -16.886  19.832  1.00 62.83 LIG 0.23  C 
BRANCH 19 20
ATOM     20  C   GLY C 761      15.674 -16.420  21.259  1.00 67.24 LIG 0.24  C 
ATOM     21 O    GLY C 761      15.466 -17.231  22.161  1.00 65.14 LIG-0.27  OA
ATOM     22  N   THR C 762      15.692 -15.100  21.439  1.00 72.11 LIG-0.34  N 
ATOM     23 H    THR C 762      15.555 -14.545  20.797  1.00 72.11 LIG 0.16  HD
BRANCH 22 24
ATOM     24  CA  THR C 762      15.943 -14.439  22.725  1.00 75.13 LIG 0.21  C 
BRANCH 24 25
ATOM     25  C   THR C 762      17.455 -14.316  22.891  1.00 73.09 LIG 0.20  C 
ATOM     26 OXT  THR C 762      18.020 -13.267  22.591  1.00 76.95 LIG-0.65  OA
ATOM     27 O    THR C 762      18.150 -15.236  23.326  1.00 68.26 LIG-0.65  OA
ENDBRANCH 24 25
BRANCH 24 28
ATOM     28  CB  THR C 762      15.367 -15.187  23.948  1.00 77.67 LIG 0.15  C 
ATOM     29  CG2 THR C 762      15.603 -14.381  25.213  1.00 76.40 LIG 0.04  C 
BRANCH 28 30
ATOM     30 OG1  THR C 762      13.959 -15.386  23.782  1.00 80.43 LIG-0.39  OA
ATOM     31 HG1  THR C 762      13.765 -15.345  22.966  1.00 80.43 LIG 0.21  HD
ENDBRANCH 28 30
ENDBRANCH 24 28
ENDBRANCH 22 24
ENDBRANCH 19 20
ENDBRANCH 3 19
TORSDOF 11
ENDMDL
MODEL 12
USER: ADFR SOLUTION from run 78
USER: SCORE 8.085915 LL:  -0.713 LR:  -7.552 RR:   0.000 FEB:  -4.271
USER: RMSD 3.748050
USER: SEED 77
USER: STATUS no improvement in best in 17 clusters for 5 generations
USER: GENES 13
USER: genes 0 Translation |==|  0.30781 0.49975 0.35454
USER: genes 1 Rotation |==|  0.67938 0.52880 0.16177 0.82031
USER: genes 2 Torsion [N]-C--CA-[N] |==|  0.11654
USER: genes 3 Torsion [C]-CA--CB-[CG] |==|  0.44266
USER: genes 4 Torsion [CA]-CB--CG-[CD] |==|  0.39554
USER: genes 5 Torsion [CB]-CG--CD-[NE] |==|  0.98246
USER: genes 6 Torsion [CG]-CD--NE-[CZ] |==|  0.31219
USER: genes 7 Torsion [C]-N--CA-[C] |==|  0.81176
USER: genes 8 Torsion [N]-CA--C-[N] |==|  0.36153
USER: genes 9 Torsion [C]-N--CA-[C] |==|  0.63710
USER: genes 10 Torsion [N]-CA--C-[OXT] |==|  0.95689
USER: genes 11 Torsion [N]-CA--CB-[OG1] |==|  0.98597
USER: genes 12 Torsion [CA]-CB--OG1-[HG1] |==|  0.39652
ROOT
ATOM      1  C   ARG C 760      13.973 -17.009  15.145  1.00 56.34 LIG 0.26  C 
ATOM      2 O    ARG C 760      14.306 -16.590  16.249  1.00 53.76 LIG-0.27  OA
ATOM      3  N   GLY C 761      13.024 -17.926  14.979  1.00 59.89 LIG-0.35  N 
ATOM      4 H    GLY C 761      12.915 -18.378  14.256  1.00 59.89 LIG 0.16  HD
ENDROOT
BRANCH 1 5
ATOM      5  CA  ARG C 760      14.654 -16.488  13.879  1.00 61.16 LIG 0.40  C 
ATOM      6  N   ARG C 760      13.656 -16.267  12.834  1.00 59.95 LIG 0.61  N 
BRANCH 5 7
ATOM      7  CB  ARG C 760      15.431 -15.201  14.154  1.00 63.40 LIG 0.05  C 
BRANCH 7 8
ATOM      8  CG  ARG C 760      16.505 -14.891  13.131  1.00 63.69 LIG 0.02  C 
BRANCH 8 9
ATOM      9  CD  ARG C 760      16.584 -13.398  12.858  1.00 63.30 LIG 0.14  C 
BRANCH 9 10
ATOM     10  NE  ARG C 760      15.515 -12.671  13.535  1.00 65.15 LIG-0.23  N 
ATOM     11  CZ  ARG C 760      15.702 -11.821  14.540  1.00 66.46 LIG 0.67  C 
ATOM     12  NH1 ARG C 760      16.925 -11.575  14.991  1.00 66.43 LIG-0.23  N 
ATOM     13  NH2 ARG C 760      14.663 -11.210  15.091  1.00 66.89 LIG-0.23  N 
ATOM     14 2HH1 ARG C 760      17.041 -11.023  15.641  1.00 66.43 LIG 0.17  HD
ATOM     15 1HH1 ARG C 760      17.603 -11.966  14.633  1.00 66.43 LIG 0.17  HD
ATOM     16 2HH2 ARG C 760      14.783 -10.660  15.740  1.00 66.89 LIG 0.17  HD
ATOM     17 1HH2 ARG C 760      13.870 -11.364  14.799  1.00 66.89 LIG 0.17  HD
ATOM     18 HE   ARG C 760      14.709 -12.802  13.265  1.00 65.15 LIG 0.18  HD
ENDBRANCH 9 10
ENDBRANCH 8 9
ENDBRANCH 7 8
ENDBRANCH 5 7
ENDBRANCH 1 5
BRANCH 3 19
ATOM     19  CA  GLY C 761      12.074 -18.240  16.034  1.00 62.83 LIG 0.23  C 
BRANCH 19 20
ATOM     20  C   GLY C 761      12.530 -18.925  17.314  1.00 67.24 LIG 0.24  C 
ATOM     21 O    GLY C 761      13.217 -19.946  17.273  1.00 65.14 LIG-0.27  OA
ATOM     22  N   THR C 762      12.128 -18.348  18.445  1.00 72.11 LIG-0.34  N 
ATOM     23 H    THR C 762      11.444 -17.829  18.480  1.00 72.11 LIG 0.16  HD
BRANCH 22 24
ATOM     24  CA  THR C 762      12.787 -18.519  19.745  1.00 75.13 LIG 0.21  C 
BRANCH 24 25
ATOM     25  C   THR C 762      11.706 -18.867  20.765  1.00 73.09 LIG 0.20  C 
ATOM     26 OXT  THR C 762      10.523 -18.677  20.491  1.00 76.95 LIG-0.65  OA
ATOM     27 O    THR C 762      11.968 -19.343  21.870  1.00 68.26 LIG-0.65  OA
ENDBRANCH 24 25
BRANCH 24 28
ATOM     28  CB  THR C 762      13.555 -17.273  20.240  1.00 77.67 LIG 0.15  C 
ATOM     29  CG2 THR C 762      14.997 -17.634  20.548  1.00 76.40 LIG 0.04  C 
BRANCH 28 30
ATOM     30 OG1  THR C 762      13.538 -16.256  19.232  1.00 80.43 LIG-0.39  OA
ATOM     31 HG1  THR C 762      13.465 -15.502  19.596  1.00 80.43 LIG 0.21  HD
ENDBRANCH 28 30
ENDBRANCH 24 28
ENDBRANCH 22 24
ENDBRANCH 19 20
ENDBRANCH 3 19
TORSDOF 11
ENDMDL
MODEL 13
USER: ADFR SOLUTION from run 6
USER: SCORE 8.119233 LL:  -0.815 LR:  -7.513 RR:   0.000 FEB:  -4.232
USER: RMSD 3.901161
USER: SEED 405702
USER: STATUS no improvement in best in 27 clusters for 5 generations
USER: GENES 13
USER: genes 0 Translation |==|  0.30686 0.49283 0.52883
USER: genes 1 Rotation |==|  0.31567 0.64370 0.42123 0.93493
USER: genes 2 Torsion [N]-C--CA-[N] |==|  0.29105
USER: genes 3 Torsion [C]-CA--CB-[CG] |==|  0.14582
USER: genes 4 Torsion [CA]-CB--CG-[CD] |==|  0.36081
USER: genes 5 Torsion [CB]-CG--CD-[NE] |==|  0.25414
USER: genes 6 Torsion [CG]-CD--NE-[CZ] |==|  0.32311
USER: genes 7 Torsion [C]-N--CA-[C] |==|  0.20733
USER: genes 8 Torsion [N]-CA--C-[N] |==|  0.61085
USER: genes 9 Torsion [C]-N--CA-[C] |==|  0.47041
USER: genes 10 Torsion [N]-CA--C-[OXT] |==|  0.96171
USER: genes 11 Torsion [N]-CA--CB-[OG1] |==|  0.83102
USER: genes 12 Torsion [CA]-CB--OG1-[HG1] |==|  0.75929
ROOT
ATOM      1  C   ARG C 760      13.956 -17.097  18.675  1.00 56.34 LIG 0.26  C 
ATOM      2 O    ARG C 760      13.538 -15.952  18.811  1.00 53.76 LIG-0.27  OA
ATOM      3  N   GLY C 761      14.986 -17.575  19.367  1.00 59.89 LIG-0.35  N 
ATOM      4 H    GLY C 761      15.421 -18.285  19.152  1.00 59.89 LIG 0.16  HD
ENDROOT
BRANCH 1 5
ATOM      5  CA  ARG C 760      13.300 -18.050  17.675  1.00 61.16 LIG 0.40  C 
ATOM      6  N   ARG C 760      12.026 -18.529  18.208  1.00 59.95 LIG 0.61  N 
BRANCH 5 7
ATOM      7  CB  ARG C 760      13.089 -17.376  16.319  1.00 63.40 LIG 0.05  C 
BRANCH 7 8
ATOM      8  CG  ARG C 760      14.336 -16.736  15.742  1.00 63.69 LIG 0.02  C 
BRANCH 8 9
ATOM      9  CD  ARG C 760      14.556 -17.172  14.302  1.00 63.30 LIG 0.14  C 
BRANCH 9 10
ATOM     10  NE  ARG C 760      13.922 -16.254  13.360  1.00 65.15 LIG-0.23  N 
ATOM     11  CZ  ARG C 760      14.580 -15.520  12.468  1.00 66.46 LIG 0.67  C 
ATOM     12  NH1 ARG C 760      15.902 -15.594  12.382  1.00 66.43 LIG-0.23  N 
ATOM     13  NH2 ARG C 760      13.913 -14.713  11.656  1.00 66.89 LIG-0.23  N 
ATOM     14 2HH1 ARG C 760      16.323 -15.117  11.804  1.00 66.43 LIG 0.17  HD
ATOM     15 1HH1 ARG C 760      16.339 -16.119  12.905  1.00 66.43 LIG 0.17  HD
ATOM     16 2HH2 ARG C 760      14.337 -14.237  11.079  1.00 66.89 LIG 0.17  HD
ATOM     17 1HH2 ARG C 760      13.056 -14.665  11.707  1.00 66.89 LIG 0.17  HD
ATOM     18 HE   ARG C 760      13.066 -16.185  13.383  1.00 65.15 LIG 0.18  HD
ENDBRANCH 9 10
ENDBRANCH 8 9
ENDBRANCH 7 8
ENDBRANCH 5 7
ENDBRANCH 1 5
BRANCH 3 19
ATOM     19  CA  GLY C 761      15.466 -16.917  20.571  1.00 62.83 LIG 0.23  C 
BRANCH 19 20
ATOM     20  C   GLY C 761      14.690 -17.017  21.876  1.00 67.24 LIG 0.24  C 
ATOM     21 O    GLY C 761      14.152 -18.072  22.211  1.00 65.14 LIG-0.27  OA
ATOM     22  N   THR C 762      14.637 -15.897  22.595  1.00 72.11 LIG-0.34  N 
ATOM     23 H    THR C 762      14.756 -15.120  22.248  1.00 72.11 LIG 0.16  HD
BRANCH 22 24
ATOM     24  CA  THR C 762      14.375 -15.847  24.038  1.00 75.13 LIG 0.21  C 
BRANCH 24 25
ATOM     25  C   THR C 762      14.663 -14.424  24.509  1.00 73.09 LIG 0.20  C 
ATOM     26 OXT  THR C 762      15.276 -13.650  23.776  1.00 76.95 LIG-0.65  OA
ATOM     27 O    THR C 762      14.298 -14.004  25.608  1.00 68.26 LIG-0.65  OA
ENDBRANCH 24 25
BRANCH 24 28
ATOM     28  CB  THR C 762      15.224 -16.830  24.874  1.00 77.67 LIG 0.15  C 
ATOM     29  CG2 THR C 762      14.894 -16.685  26.349  1.00 76.40 LIG 0.04  C 
BRANCH 28 30
ATOM     30 OG1  THR C 762      14.956 -18.177  24.470  1.00 80.43 LIG-0.39  OA
ATOM     31 HG1  THR C 762      14.293 -18.470  24.896  1.00 80.43 LIG 0.21  HD
ENDBRANCH 28 30
ENDBRANCH 24 28
ENDBRANCH 22 24
ENDBRANCH 19 20
ENDBRANCH 3 19
TORSDOF 11
ENDMDL
MODEL 14
USER: ADFR SOLUTION from run 152
USER: SCORE 7.580975 LL:  -0.437 LR:  -7.427 RR:   0.000 FEB:  -4.145
USER: RMSD 3.195821
USER: SEED 151
USER: STATUS no improvement in best in 17 clusters for 5 generations
USER: GENES 13
USER: genes 0 Translation |==|  0.29002 0.49988 0.44125
USER: genes 1 Rotation |==|  0.35602 0.51036 0.60255 0.96759
USER: genes 2 Torsion [N]-C--CA-[N] |==|  0.54152
USER: genes 3 Torsion [C]-CA--CB-[CG] |==|  0.79926
USER: genes 4 Torsion [CA]-CB--CG-[CD] |==|  0.70946
USER: genes 5 Torsion [CB]-CG--CD-[NE] |==|  0.32660
USER: genes 6 Torsion [CG]-CD--NE-[CZ] |==|  0.38992
USER: genes 7 Torsion [C]-N--CA-[C] |==|  0.49488
USER: genes 8 Torsion [N]-CA--C-[N] |==|  0.46146
USER: genes 9 Torsion [C]-N--CA-[C] |==|  0.71197
USER: genes 10 Torsion [N]-CA--C-[OXT] |==|  0.92755
USER: genes 11 Torsion [N]-CA--CB-[OG1] |==|  0.62393
USER: genes 12 Torsion [CA]-CB--OG1-[HG1] |==|  0.15306
ROOT
ATOM      1  C   ARG C 760      13.666 -17.008  16.901  1.00 56.34 LIG 0.26  C 
ATOM      2 O    ARG C 760      12.515 -16.621  17.078  1.00 53.76 LIG-0.27  OA
ATOM      3  N   GLY C 761      14.618 -16.878  17.821  1.00 59.89 LIG-0.35  N 
ATOM      4 H    GLY C 761      15.458 -16.949  17.654  1.00 59.89 LIG 0.16  HD
ENDROOT
BRANCH 1 5
ATOM      5  CA  ARG C 760      14.069 -17.667  15.582  1.00 61.16 LIG 0.40  C 
ATOM      6  N   ARG C 760      13.045 -17.420  14.569  1.00 59.95 LIG 0.61  N 
BRANCH 5 7
ATOM      7  CB  ARG C 760      15.428 -17.161  15.099  1.00 63.40 LIG 0.05  C 
BRANCH 7 8
ATOM      8  CG  ARG C 760      15.413 -15.739  14.574  1.00 63.69 LIG 0.02  C 
BRANCH 8 9
ATOM      9  CD  ARG C 760      15.483 -15.717  13.056  1.00 63.30 LIG 0.14  C 
BRANCH 9 10
ATOM     10  NE  ARG C 760      14.288 -15.115  12.472  1.00 65.15 LIG-0.23  N 
ATOM     11  CZ  ARG C 760      14.294 -14.301  11.421  1.00 66.46 LIG 0.67  C 
ATOM     12  NH1 ARG C 760      15.435 -13.989  10.820  1.00 66.43 LIG-0.23  N 
ATOM     13  NH2 ARG C 760      13.154 -13.803  10.965  1.00 66.89 LIG-0.23  N 
ATOM     14 2HH1 ARG C 760      15.433 -13.462  10.140  1.00 66.43 LIG 0.17  HD
ATOM     15 1HH1 ARG C 760      16.177 -14.313  11.111  1.00 66.43 LIG 0.17  HD
ATOM     16 2HH2 ARG C 760      13.156 -13.277  10.285  1.00 66.89 LIG 0.17  HD
ATOM     17 1HH2 ARG C 760      12.412 -14.006  11.349  1.00 66.89 LIG 0.17  HD
ATOM     18 HE   ARG C 760      13.530 -15.300  12.832  1.00 65.15 LIG 0.18  HD
ENDBRANCH 9 10
ENDBRANCH 8 9
ENDBRANCH 7 8
ENDBRANCH 5 7
ENDBRANCH 1 5
BRANCH 3 19
ATOM     19  CA  GLY C 761      14.301 -16.602  19.212  1.00 62.83 LIG 0.23  C 
BRANCH 19 20
ATOM     20  C   GLY C 761      15.403 -16.499  20.256  1.00 67.24 LIG 0.24  C 
ATOM     21 O    GLY C 761      16.542 -16.897  20.013  1.00 65.14 LIG-0.27  OA
ATOM     22  N   THR C 762      15.038 -15.965  21.421  1.00 72.11 LIG-0.34  N 
ATOM     23 H    THR C 762      14.220 -15.952  21.686  1.00 72.11 LIG 0.16  HD
BRANCH 22 24
ATOM     24  CA  THR C 762      15.962 -15.345  22.378  1.00 75.13 LIG 0.21  C 
BRANCH 24 25
ATOM     25  C   THR C 762      16.172 -16.335  23.520  1.00 73.09 LIG 0.20  C 
ATOM     26 OXT  THR C 762      15.303 -17.165  23.778  1.00 76.95 LIG-0.65  OA
ATOM     27 O    THR C 762      17.196 -16.346  24.205  1.00 68.26 LIG-0.65  OA
ENDBRANCH 24 25
BRANCH 24 28
ATOM     28  CB  THR C 762      15.466 -14.005  22.966  1.00 77.67 LIG 0.15  C 
ATOM     29  CG2 THR C 762      14.984 -14.205  24.392  1.00 76.40 LIG 0.04  C 
BRANCH 28 30
ATOM     30 OG1  THR C 762      16.529 -13.047  22.966  1.00 80.43 LIG-0.39  OA
ATOM     31 HG1  THR C 762      16.838 -12.972  22.189  1.00 80.43 LIG 0.21  HD
ENDBRANCH 28 30
ENDBRANCH 24 28
ENDBRANCH 22 24
ENDBRANCH 19 20
ENDBRANCH 3 19
TORSDOF 11
ENDMDL
MODEL 15
USER: ADFR SOLUTION from run 21
USER: SCORE 7.707040 LL:  -0.406 LR:  -7.402 RR:   0.000 FEB:  -4.121
USER: RMSD 4.189892
USER: SEED 20
USER: STATUS no improvement in best in 30 clusters for 5 generations
USER: GENES 13
USER: genes 0 Translation |==|  0.31587 0.52033 0.35288
USER: genes 1 Rotation |==|  0.64940 0.52547 0.14435 0.81709
USER: genes 2 Torsion [N]-C--CA-[N] |==|  0.09855
USER: genes 3 Torsion [C]-CA--CB-[CG] |==|  0.46405
USER: genes 4 Torsion [CA]-CB--CG-[CD] |==|  0.32076
USER: genes 5 Torsion [CB]-CG--CD-[NE] |==|  0.88241
USER: genes 6 Torsion [CG]-CD--NE-[CZ] |==|  0.69191
USER: genes 7 Torsion [C]-N--CA-[C] |==|  0.79057
USER: genes 8 Torsion [N]-CA--C-[N] |==|  0.44072
USER: genes 9 Torsion [C]-N--CA-[C] |==|  0.59509
USER: genes 10 Torsion [N]-CA--C-[OXT] |==|  0.93848
USER: genes 11 Torsion [N]-CA--CB-[OG1] |==|  0.96878
USER: genes 12 Torsion [CA]-CB--OG1-[HG1] |==|  0.43395
ROOT
ATOM      1  C   ARG C 760      14.112 -16.747  15.112  1.00 56.34 LIG 0.26  C 
ATOM      2 O    ARG C 760      14.574 -16.257  16.138  1.00 53.76 LIG-0.27  OA
ATOM      3  N   GLY C 761      13.109 -17.620  15.118  1.00 59.89 LIG-0.35  N 
ATOM      4 H    GLY C 761      12.907 -18.123  14.452  1.00 59.89 LIG 0.16  HD
ENDROOT
BRANCH 1 5
ATOM      5  CA  ARG C 760      14.686 -16.370  13.746  1.00 61.16 LIG 0.40  C 
ATOM      6  N   ARG C 760      13.616 -16.332  12.750  1.00 59.95 LIG 0.61  N 
BRANCH 5 7
ATOM      7  CB  ARG C 760      15.413 -15.027  13.798  1.00 63.40 LIG 0.05  C 
BRANCH 7 8
ATOM      8  CG  ARG C 760      16.265 -14.732  12.580  1.00 63.69 LIG 0.02  C 
BRANCH 8 9
ATOM      9  CD  ARG C 760      15.733 -13.527  11.821  1.00 63.30 LIG 0.14  C 
BRANCH 9 10
ATOM     10  NE  ARG C 760      14.277 -13.555  11.721  1.00 65.15 LIG-0.23  N 
ATOM     11  CZ  ARG C 760      13.604 -13.755  10.592  1.00 66.46 LIG 0.67  C 
ATOM     12  NH1 ARG C 760      14.253 -13.956   9.451  1.00 66.43 LIG-0.23  N 
ATOM     13  NH2 ARG C 760      12.279 -13.760  10.604  1.00 66.89 LIG-0.23  N 
ATOM     14 2HH1 ARG C 760      13.813 -14.086   8.724  1.00 66.43 LIG 0.17  HD
ATOM     15 1HH1 ARG C 760      15.113 -13.958   9.440  1.00 66.43 LIG 0.17  HD
ATOM     16 2HH2 ARG C 760      11.843 -13.890   9.874  1.00 66.89 LIG 0.17  HD
ATOM     17 1HH2 ARG C 760      11.856 -13.634  11.341  1.00 66.89 LIG 0.17  HD
ATOM     18 HE   ARG C 760      13.824 -13.434  12.441  1.00 65.15 LIG 0.18  HD
ENDBRANCH 9 10
ENDBRANCH 8 9
ENDBRANCH 7 8
ENDBRANCH 5 7
ENDBRANCH 1 5
BRANCH 3 19
ATOM     19  CA  GLY C 761      12.257 -17.793  16.283  1.00 62.83 LIG 0.23  C 
BRANCH 19 20
ATOM     20  C   GLY C 761      12.753 -18.549  17.506  1.00 67.24 LIG 0.24  C 
ATOM     21 O    GLY C 761      13.683 -19.351  17.419  1.00 65.14 LIG-0.27  OA
ATOM     22  N   THR C 762      12.110 -18.281  18.642  1.00 72.11 LIG-0.34  N 
ATOM     23 H    THR C 762      11.314 -17.958  18.656  1.00 72.11 LIG 0.16  HD
BRANCH 22 24
ATOM     24  CA  THR C 762      12.665 -18.500  19.983  1.00 75.13 LIG 0.21  C 
BRANCH 24 25
ATOM     25  C   THR C 762      11.513 -18.910  20.896  1.00 73.09 LIG 0.20  C 
ATOM     26 OXT  THR C 762      10.358 -18.619  20.592  1.00 76.95 LIG-0.65  OA
ATOM     27 O    THR C 762      11.688 -19.538  21.941  1.00 68.26 LIG-0.65  OA
ENDBRANCH 24 25
BRANCH 24 28
ATOM     28  CB  THR C 762      13.365 -17.264  20.591  1.00 77.67 LIG 0.15  C 
ATOM     29  CG2 THR C 762      14.728 -17.651  21.138  1.00 76.40 LIG 0.04  C 
BRANCH 28 30
ATOM     30 OG1  THR C 762      13.538 -16.256  19.590  1.00 80.43 LIG-0.39  OA
ATOM     31 HG1  THR C 762      13.605 -15.504  19.958  1.00 80.43 LIG 0.21  HD
ENDBRANCH 28 30
ENDBRANCH 24 28
ENDBRANCH 22 24
ENDBRANCH 19 20
ENDBRANCH 3 19
TORSDOF 11
ENDMDL
MODEL 16
USER: ADFR SOLUTION from run 90
USER: SCORE 7.566410 LL:  -0.772 LR:  -7.398 RR:   0.000 FEB:  -4.117
USER: RMSD 2.912102
USER: SEED 89
USER: STATUS no improvement in best in 13 clusters for 5 generations
USER: GENES 13
USER: genes 0 Translation |==|  0.30109 0.49919 0.39156
USER: genes 1 Rotation |==|  0.46781 0.51901 0.57991 0.99216
USER: genes 2 Torsion [N]-C--CA-[N] |==|  0.45568
USER: genes 3 Torsion [C]-CA--CB-[CG] |==|  0.50085
USER: genes 4 Torsion [CA]-CB--CG-[CD] |==|  0.43351
USER: genes 5 Torsion [CB]-CG--CD-[NE] |==|  0.93509
USER: genes 6 Torsion [CG]-CD--NE-[CZ] |==|  0.29972
USER: genes 7 Torsion [C]-N--CA-[C] |==|  0.77153
USER: genes 8 Torsion [N]-CA--C-[N] |==|  0.70461
USER: genes 9 Torsion [C]-N--CA-[C] |==|  0.51889
USER: genes 10 Torsion [N]-CA--C-[OXT] |==|  0.97801
USER: genes 11 Torsion [N]-CA--CB-[OG1] |==|  0.87706
USER: genes 12 Torsion [CA]-CB--OG1-[HG1] |==|  0.88469
ROOT
ATOM      1  C   ARG C 760      13.857 -17.016  15.895  1.00 56.34 LIG 0.26  C 
ATOM      2 O    ARG C 760      12.786 -16.631  16.355  1.00 53.76 LIG-0.27  OA
ATOM      3  N   GLY C 761      14.876 -17.392  16.662  1.00 59.89 LIG-0.35  N 
ATOM      4 H    GLY C 761      15.685 -17.467  16.381  1.00 59.89 LIG 0.16  HD
ENDROOT
BRANCH 1 5
ATOM      5  CA  ARG C 760      14.075 -17.079  14.383  1.00 61.16 LIG 0.40  C 
ATOM      6  N   ARG C 760      12.788 -17.009  13.693  1.00 59.95 LIG 0.61  N 
BRANCH 5 7
ATOM      7  CB  ARG C 760      14.996 -15.956  13.906  1.00 63.40 LIG 0.05  C 
BRANCH 7 8
ATOM      8  CG  ARG C 760      15.251 -15.952  12.412  1.00 63.69 LIG 0.02  C 
BRANCH 8 9
ATOM      9  CD  ARG C 760      15.645 -14.566  11.930  1.00 63.30 LIG 0.14  C 
BRANCH 9 10
ATOM     10  NE  ARG C 760      15.166 -13.526  12.836  1.00 65.15 LIG-0.23  N 
ATOM     11  CZ  ARG C 760      15.945 -12.818  13.647  1.00 66.46 LIG 0.67  C 
ATOM     12  NH1 ARG C 760      17.255 -13.026  13.670  1.00 66.43 LIG-0.23  N 
ATOM     13  NH2 ARG C 760      15.413 -11.895  14.436  1.00 66.89 LIG-0.23  N 
ATOM     14 2HH1 ARG C 760      17.755 -12.566  14.196  1.00 66.43 LIG 0.17  HD
ATOM     15 1HH1 ARG C 760      17.605 -13.622  13.157  1.00 66.43 LIG 0.17  HD
ATOM     16 2HH2 ARG C 760      15.916 -11.437  14.961  1.00 66.89 LIG 0.17  HD
ATOM     17 1HH2 ARG C 760      14.565 -11.755  14.422  1.00 66.89 LIG 0.17  HD
ATOM     18 HE   ARG C 760      14.322 -13.360  12.844  1.00 65.15 LIG 0.18  HD
ENDBRANCH 9 10
ENDBRANCH 8 9
ENDBRANCH 7 8
ENDBRANCH 5 7
ENDBRANCH 1 5
BRANCH 3 19
ATOM     19  CA  GLY C 761      14.695 -17.713  18.068  1.00 62.83 LIG 0.23  C 
BRANCH 19 20
ATOM     20  C   GLY C 761      14.648 -16.613  19.118  1.00 67.24 LIG 0.24  C 
ATOM     21 O    GLY C 761      13.663 -15.882  19.222  1.00 65.14 LIG-0.27  OA
ATOM     22  N   THR C 762      15.733 -16.509  19.884  1.00 72.11 LIG-0.34  N 
ATOM     23 H    THR C 762      16.500 -16.810  19.641  1.00 72.11 LIG 0.16  HD
BRANCH 22 24
ATOM     24  CA  THR C 762      15.756 -15.883  21.211  1.00 75.13 LIG 0.21  C 
BRANCH 24 25
ATOM     25  C   THR C 762      17.212 -15.822  21.664  1.00 73.09 LIG 0.20  C 
ATOM     26 OXT  THR C 762      18.082 -16.389  21.006  1.00 76.95 LIG-0.65  OA
ATOM     27 O    THR C 762      17.565 -15.215  22.676  1.00 68.26 LIG-0.65  OA
ENDBRANCH 24 25
BRANCH 24 28
ATOM     28  CB  THR C 762      14.932 -16.631  22.283  1.00 77.67 LIG 0.15  C 
ATOM     29  CG2 THR C 762      14.697 -15.732  23.485  1.00 76.40 LIG 0.04  C 
BRANCH 28 30
ATOM     30 OG1  THR C 762      13.665 -17.021  21.743  1.00 80.43 LIG-0.39  OA
ATOM     31 HG1  THR C 762      13.355 -16.396  21.276  1.00 80.43 LIG 0.21  HD
ENDBRANCH 28 30
ENDBRANCH 24 28
ENDBRANCH 22 24
ENDBRANCH 19 20
ENDBRANCH 3 19
TORSDOF 11
ENDMDL
MODEL 17
USER: ADFR SOLUTION from run 95
USER: SCORE 7.825989 LL:  -0.956 LR:  -7.347 RR:   0.000 FEB:  -4.066
USER: RMSD 3.136239
USER: SEED 94
USER: STATUS no improvement in best in 14 clusters for 5 generations
USER: GENES 13
USER: genes 0 Translation |==|  0.29705 0.49479 0.52542
USER: genes 1 Rotation |==|  0.44365 0.51727 0.32647 0.96520
USER: genes 2 Torsion [N]-C--CA-[N] |==|  0.35743
USER: genes 3 Torsion [C]-CA--CB-[CG] |==|  0.61992
USER: genes 4 Torsion [CA]-CB--CG-[CD] |==|  0.43774
USER: genes 5 Torsion [CB]-CG--CD-[NE] |==|  0.63454
USER: genes 6 Torsion [CG]-CD--NE-[CZ] |==|  0.42047
USER: genes 7 Torsion [C]-N--CA-[C] |==|  0.77210
USER: genes 8 Torsion [N]-CA--C-[N] |==|  0.12550
USER: genes 9 Torsion [C]-N--CA-[C] |==|  0.14647
USER: genes 10 Torsion [N]-CA--C-[OXT] |==|  0.61539
USER: genes 11 Torsion [N]-CA--CB-[OG1] |==|  0.94687
USER: genes 12 Torsion [CA]-CB--OG1-[HG1] |==|  0.95902
ROOT
ATOM      1  C   ARG C 760      13.787 -17.072  18.606  1.00 56.34 LIG 0.26  C 
ATOM      2 O    ARG C 760      13.558 -15.898  18.878  1.00 53.76 LIG-0.27  OA
ATOM      3  N   GLY C 761      13.993 -18.000  19.536  1.00 59.89 LIG-0.35  N 
ATOM      4 H    GLY C 761      14.350 -18.766  19.379  1.00 59.89 LIG 0.16  HD
ENDROOT
BRANCH 1 5
ATOM      5  CA  ARG C 760      13.854 -17.533  17.149  1.00 61.16 LIG 0.40  C 
ATOM      6  N   ARG C 760      12.656 -17.095  16.435  1.00 59.95 LIG 0.61  N 
BRANCH 5 7
ATOM      7  CB  ARG C 760      15.110 -17.007  16.455  1.00 63.40 LIG 0.05  C 
BRANCH 7 8
ATOM      8  CG  ARG C 760      14.873 -16.480  15.055  1.00 63.69 LIG 0.02  C 
BRANCH 8 9
ATOM      9  CD  ARG C 760      15.968 -15.508  14.646  1.00 63.30 LIG 0.14  C 
BRANCH 9 10
ATOM     10  NE  ARG C 760      15.413 -14.279  14.084  1.00 65.15 LIG-0.23  N 
ATOM     11  CZ  ARG C 760      16.006 -13.091  14.142  1.00 66.46 LIG 0.67  C 
ATOM     12  NH1 ARG C 760      17.187 -12.959  14.732  1.00 66.43 LIG-0.23  N 
ATOM     13  NH2 ARG C 760      15.419 -12.033  13.602  1.00 66.89 LIG-0.23  N 
ATOM     14 2HH1 ARG C 760      17.567 -12.188  14.767  1.00 66.43 LIG 0.17  HD
ATOM     15 1HH1 ARG C 760      17.573 -13.644  15.081  1.00 66.43 LIG 0.17  HD
ATOM     16 2HH2 ARG C 760      15.802 -11.264  13.639  1.00 66.89 LIG 0.17  HD
ATOM     17 1HH2 ARG C 760      14.656 -12.115  13.216  1.00 66.89 LIG 0.17  HD
ATOM     18 HE   ARG C 760      14.651 -14.329  13.688  1.00 65.15 LIG 0.18  HD
ENDBRANCH 9 10
ENDBRANCH 8 9
ENDBRANCH 7 8
ENDBRANCH 5 7
ENDBRANCH 1 5
BRANCH 3 19
ATOM     19  CA  GLY C 761      13.618 -17.785  20.924  1.00 62.83 LIG 0.23  C 
BRANCH 19 20
ATOM     20  C   GLY C 761      14.526 -17.006  21.864  1.00 67.24 LIG 0.24  C 
ATOM     21 O    GLY C 761      14.756 -17.414  23.002  1.00 65.14 LIG-0.27  OA
ATOM     22  N   THR C 762      15.029 -15.877  21.366  1.00 72.11 LIG-0.34  N 
ATOM     23 H    THR C 762      14.663 -15.458  20.711  1.00 72.11 LIG 0.16  HD
BRANCH 22 24
ATOM     24  CA  THR C 762      16.243 -15.218  21.861  1.00 75.13 LIG 0.21  C 
BRANCH 24 25
ATOM     25  C   THR C 762      17.359 -16.260  21.872  1.00 73.09 LIG 0.20  C 
ATOM     26 OXT  THR C 762      18.142 -16.308  22.819  1.00 76.95 LIG-0.65  OA
ATOM     27 O    THR C 762      17.512 -17.074  20.961  1.00 68.26 LIG-0.65  OA
ENDBRANCH 24 25
BRANCH 24 28
ATOM     28  CB  THR C 762      16.110 -14.617  23.278  1.00 77.67 LIG 0.15  C 
ATOM     29  CG2 THR C 762      16.799 -13.265  23.341  1.00 76.40 LIG 0.04  C 
BRANCH 28 30
ATOM     30 OG1  THR C 762      14.728 -14.448  23.610  1.00 80.43 LIG-0.39  OA
ATOM     31 HG1  THR C 762      14.262 -14.513  22.914  1.00 80.43 LIG 0.21  HD
ENDBRANCH 28 30
ENDBRANCH 24 28
ENDBRANCH 22 24
ENDBRANCH 19 20
ENDBRANCH 3 19
TORSDOF 11
ENDMDL
MODEL 18
USER: ADFR SOLUTION from run 99
USER: SCORE 7.382384 LL:  -0.497 LR:  -7.258 RR:   0.000 FEB:  -3.977
USER: RMSD 4.519160
USER: SEED 98
USER: STATUS no improvement in best in 17 clusters for 5 generations
USER: GENES 13
USER: genes 0 Translation |==|  0.11137 0.45579 0.31751
USER: genes 1 Rotation |==|  0.49818 0.54326 0.73541 0.93899
USER: genes 2 Torsion [N]-C--CA-[N] |==|  0.71152
USER: genes 3 Torsion [C]-CA--CB-[CG] |==|  0.45866
USER: genes 4 Torsion [CA]-CB--CG-[CD] |==|  0.30674
USER: genes 5 Torsion [CB]-CG--CD-[NE] |==|  0.02595
USER: genes 6 Torsion [CG]-CD--NE-[CZ] |==|  0.35863
USER: genes 7 Torsion [C]-N--CA-[C] |==|  0.48426
USER: genes 8 Torsion [N]-CA--C-[N] |==|  0.56422
USER: genes 9 Torsion [C]-N--CA-[C] |==|  0.53170
USER: genes 10 Torsion [N]-CA--C-[OXT] |==|  0.04753
USER: genes 11 Torsion [N]-CA--CB-[OG1] |==|  0.87871
USER: genes 12 Torsion [CA]-CB--OG1-[HG1] |==|  0.48395
ROOT
ATOM      1  C   ARG C 760      10.584 -17.570  14.396  1.00 56.34 LIG 0.26  C 
ATOM      2 O    ARG C 760       9.604 -17.941  15.033  1.00 53.76 LIG-0.27  OA
ATOM      3  N   GLY C 761      11.752 -17.290  14.967  1.00 59.89 LIG-0.35  N 
ATOM      4 H    GLY C 761      12.378 -16.841  14.585  1.00 59.89 LIG 0.16  HD
ENDROOT
BRANCH 1 5
ATOM      5  CA  ARG C 760      10.505 -17.402  12.878  1.00 61.16 LIG 0.40  C 
ATOM      6  N   ARG C 760       9.781 -16.175  12.551  1.00 59.95 LIG 0.61  N 
BRANCH 5 7
ATOM      7  CB  ARG C 760      11.896 -17.385  12.246  1.00 63.40 LIG 0.05  C 
BRANCH 7 8
ATOM      8  CG  ARG C 760      11.900 -17.579  10.743  1.00 63.69 LIG 0.02  C 
BRANCH 8 9
ATOM      9  CD  ARG C 760      12.301 -16.299  10.028  1.00 63.30 LIG 0.14  C 
BRANCH 9 10
ATOM     10  NE  ARG C 760      12.786 -15.290  10.966  1.00 65.15 LIG-0.23  N 
ATOM     11  CZ  ARG C 760      13.933 -14.631  10.834  1.00 66.46 LIG 0.67  C 
ATOM     12  NH1 ARG C 760      14.724 -14.863   9.793  1.00 66.43 LIG-0.23  N 
ATOM     13  NH2 ARG C 760      14.288 -13.734  11.742  1.00 66.89 LIG-0.23  N 
ATOM     14 2HH1 ARG C 760      15.465 -14.433   9.712  1.00 66.43 LIG 0.17  HD
ATOM     15 1HH1 ARG C 760      14.496 -15.442   9.200  1.00 66.43 LIG 0.17  HD
ATOM     16 2HH2 ARG C 760      15.030 -13.307  11.657  1.00 66.89 LIG 0.17  HD
ATOM     17 1HH2 ARG C 760      13.777 -13.579  12.415  1.00 66.89 LIG 0.17  HD
ATOM     18 HE   ARG C 760      12.297 -15.110  11.649  1.00 65.15 LIG 0.18  HD
ENDBRANCH 9 10
ENDBRANCH 8 9
ENDBRANCH 7 8
ENDBRANCH 5 7
ENDBRANCH 1 5
BRANCH 3 19
ATOM     19  CA  GLY C 761      12.066 -17.732  16.316  1.00 62.83 LIG 0.23  C 
BRANCH 19 20
ATOM     20  C   GLY C 761      13.451 -17.513  16.905  1.00 67.24 LIG 0.24  C 
ATOM     21 O    GLY C 761      14.190 -16.631  16.468  1.00 65.14 LIG-0.27  OA
ATOM     22  N   THR C 762      13.787 -18.337  17.896  1.00 72.11 LIG-0.34  N 
ATOM     23 H    THR C 762      13.411 -19.103  18.007  1.00 72.11 LIG 0.16  HD
BRANCH 22 24
ATOM     24  CA  THR C 762      14.816 -18.052  18.903  1.00 75.13 LIG 0.21  C 
BRANCH 24 25
ATOM     25  C   THR C 762      15.085 -19.346  19.665  1.00 73.09 LIG 0.20  C 
ATOM     26 OXT  THR C 762      14.723 -20.422  19.190  1.00 76.95 LIG-0.65  OA
ATOM     27 O    THR C 762      15.664 -19.366  20.752  1.00 68.26 LIG-0.65  OA
ENDBRANCH 24 25
BRANCH 24 28
ATOM     28  CB  THR C 762      14.428 -16.950  19.915  1.00 77.67 LIG 0.15  C 
ATOM     29  CG2 THR C 762      15.664 -16.449  20.641  1.00 76.40 LIG 0.04  C 
BRANCH 28 30
ATOM     30 OG1  THR C 762      13.815 -15.851  19.232  1.00 80.43 LIG-0.39  OA
ATOM     31 HG1  THR C 762      13.537 -15.293  19.794  1.00 80.43 LIG 0.21  HD
ENDBRANCH 28 30
ENDBRANCH 24 28
ENDBRANCH 22 24
ENDBRANCH 19 20
ENDBRANCH 3 19
TORSDOF 11
ENDMDL
MODEL 19
USER: ADFR SOLUTION from run 71
USER: SCORE 7.607993 LL:  -0.545 LR:  -7.164 RR:   0.000 FEB:  -3.882
USER: RMSD 3.130548
USER: SEED 70
USER: STATUS no improvement in best in 22 clusters for 5 generations
USER: GENES 13
USER: genes 0 Translation |==|  0.24760 0.48247 0.40169
USER: genes 1 Rotation |==|  0.36259 0.55021 0.15685 0.83294
USER: genes 2 Torsion [N]-C--CA-[N] |==|  0.30275
USER: genes 3 Torsion [C]-CA--CB-[CG] |==|  0.70422
USER: genes 4 Torsion [CA]-CB--CG-[CD] |==|  0.32930
USER: genes 5 Torsion [CB]-CG--CD-[NE] |==|  0.66672
USER: genes 6 Torsion [CG]-CD--NE-[CZ] |==|  0.47064
USER: genes 7 Torsion [C]-N--CA-[C] |==|  0.76979
USER: genes 8 Torsion [N]-CA--C-[N] |==|  0.51410
USER: genes 9 Torsion [C]-N--CA-[C] |==|  0.85404
USER: genes 10 Torsion [N]-CA--C-[OXT] |==|  0.33549
USER: genes 11 Torsion [N]-CA--CB-[OG1] |==|  0.76367
USER: genes 12 Torsion [CA]-CB--OG1-[HG1] |==|  0.95537
ROOT
ATOM      1  C   ARG C 760      12.934 -17.230  16.100  1.00 56.34 LIG 0.26  C 
ATOM      2 O    ARG C 760      13.688 -16.279  15.916  1.00 53.76 LIG-0.27  OA
ATOM      3  N   GLY C 761      12.693 -17.736  17.306  1.00 59.89 LIG-0.35  N 
ATOM      4 H    GLY C 761      12.343 -18.509  17.441  1.00 59.89 LIG 0.16  HD
ENDROOT
BRANCH 1 5
ATOM      5  CA  ARG C 760      12.223 -17.895  14.922  1.00 61.16 LIG 0.40  C 
ATOM      6  N   ARG C 760      11.186 -17.006  14.401  1.00 59.95 LIG 0.61  N 
BRANCH 5 7
ATOM      7  CB  ARG C 760      13.209 -18.268  13.815  1.00 63.40 LIG 0.05  C 
BRANCH 7 8
ATOM      8  CG  ARG C 760      13.135 -17.380  12.589  1.00 63.69 LIG 0.02  C 
BRANCH 8 9
ATOM      9  CD  ARG C 760      14.453 -16.660  12.358  1.00 63.30 LIG 0.14  C 
BRANCH 9 10
ATOM     10  NE  ARG C 760      14.288 -15.210  12.398  1.00 65.15 LIG-0.23  N 
ATOM     11  CZ  ARG C 760      15.292 -14.339  12.428  1.00 66.46 LIG 0.67  C 
ATOM     12  NH1 ARG C 760      16.549 -14.764  12.415  1.00 66.43 LIG-0.23  N 
ATOM     13  NH2 ARG C 760      15.038 -13.039  12.466  1.00 66.89 LIG-0.23  N 
ATOM     14 2HH1 ARG C 760      17.195 -14.196  12.434  1.00 66.43 LIG 0.17  HD
ATOM     15 1HH1 ARG C 760      16.718 -15.607  12.386  1.00 66.43 LIG 0.17  HD
ATOM     16 2HH2 ARG C 760      15.687 -12.475  12.485  1.00 66.89 LIG 0.17  HD
ATOM     17 1HH2 ARG C 760      14.225 -12.760  12.471  1.00 66.89 LIG 0.17  HD
ATOM     18 HE   ARG C 760      13.487 -14.898  12.402  1.00 65.15 LIG 0.18  HD
ENDBRANCH 9 10
ENDBRANCH 8 9
ENDBRANCH 7 8
ENDBRANCH 5 7
ENDBRANCH 1 5
BRANCH 3 19
ATOM     19  CA  GLY C 761      13.013 -17.001  18.519  1.00 62.83 LIG 0.23  C 
BRANCH 19 20
ATOM     20  C   GLY C 761      14.422 -17.017  19.091  1.00 67.24 LIG 0.24  C 
ATOM     21 O    GLY C 761      15.339 -17.581  18.495  1.00 65.14 LIG-0.27  OA
ATOM     22  N   THR C 762      14.571 -16.395  20.260  1.00 72.11 LIG-0.34  N 
ATOM     23 H    THR C 762      13.913 -16.257  20.796  1.00 72.11 LIG 0.16  HD
BRANCH 22 24
ATOM     24  CA  THR C 762      15.846 -15.879  20.771  1.00 75.13 LIG 0.21  C 
BRANCH 24 25
ATOM     25  C   THR C 762      16.859 -17.018  20.714  1.00 73.09 LIG 0.20  C 
ATOM     26 OXT  THR C 762      17.886 -16.892  20.049  1.00 76.95 LIG-0.65  OA
ATOM     27 O    THR C 762      16.697 -18.078  21.320  1.00 68.26 LIG-0.65  OA
ENDBRANCH 24 25
BRANCH 24 28
ATOM     28  CB  THR C 762      15.781 -15.342  22.218  1.00 77.67 LIG 0.15  C 
ATOM     29  CG2 THR C 762      17.153 -15.413  22.866  1.00 76.40 LIG 0.04  C 
BRANCH 28 30
ATOM     30 OG1  THR C 762      15.341 -13.979  22.216  1.00 80.43 LIG-0.39  OA
ATOM     31 HG1  THR C 762      15.412 -13.663  21.441  1.00 80.43 LIG 0.21  HD
ENDBRANCH 28 30
ENDBRANCH 24 28
ENDBRANCH 22 24
ENDBRANCH 19 20
ENDBRANCH 3 19
TORSDOF 11
ENDMDL
MODEL 20
USER: ADFR SOLUTION from run 163
USER: SCORE 7.891866 LL:  -0.971 LR:  -7.090 RR:   0.000 FEB:  -3.809
USER: RMSD 4.703230
USER: SEED 162
USER: STATUS no improvement in best in 30 clusters for 5 generations
USER: GENES 13
USER: genes 0 Translation |==|  0.31611 0.55468 0.35064
USER: genes 1 Rotation |==|  0.69235 0.58171 0.12732 0.75969
USER: genes 2 Torsion [N]-C--CA-[N] |==|  0.41470
USER: genes 3 Torsion [C]-CA--CB-[CG] |==|  0.22650
USER: genes 4 Torsion [CA]-CB--CG-[CD] |==|  0.17808
USER: genes 5 Torsion [CB]-CG--CD-[NE] |==|  0.75885
USER: genes 6 Torsion [CG]-CD--NE-[CZ] |==|  0.77379
USER: genes 7 Torsion [C]-N--CA-[C] |==|  0.84833
USER: genes 8 Torsion [N]-CA--C-[N] |==|  0.36920
USER: genes 9 Torsion [C]-N--CA-[C] |==|  0.61845
USER: genes 10 Torsion [N]-CA--C-[OXT] |==|  0.00452
USER: genes 11 Torsion [N]-CA--CB-[OG1] |==|  0.00642
USER: genes 12 Torsion [CA]-CB--OG1-[HG1] |==|  0.33860
ROOT
ATOM      1  C   ARG C 760      14.116 -16.309  15.066  1.00 56.34 LIG 0.26  C 
ATOM      2 O    ARG C 760      14.675 -16.256  16.157  1.00 53.76 LIG-0.27  OA
ATOM      3  N   GLY C 761      12.991 -16.989  14.866  1.00 59.89 LIG-0.35  N 
ATOM      4 H    GLY C 761      12.696 -17.210  14.089  1.00 59.89 LIG 0.16  HD
ENDROOT
BRANCH 1 5
ATOM      5  CA  ARG C 760      14.704 -15.582  13.857  1.00 61.16 LIG 0.40  C 
ATOM      6  N   ARG C 760      15.412 -14.380  14.295  1.00 59.95 LIG 0.61  N 
BRANCH 5 7
ATOM      7  CB  ARG C 760      15.641 -16.491  13.062  1.00 63.40 LIG 0.05  C 
BRANCH 7 8
ATOM      8  CG  ARG C 760      14.935 -17.431  12.106  1.00 63.69 LIG 0.02  C 
BRANCH 8 9
ATOM      9  CD  ARG C 760      14.207 -16.657  11.018  1.00 63.30 LIG 0.14  C 
BRANCH 9 10
ATOM     10  NE  ARG C 760      12.864 -16.272  11.440  1.00 65.15 LIG-0.23  N 
ATOM     11  CZ  ARG C 760      11.805 -17.076  11.402  1.00 66.46 LIG 0.67  C 
ATOM     12  NH1 ARG C 760      11.925 -18.324  10.967  1.00 66.43 LIG-0.23  N 
ATOM     13  NH2 ARG C 760      10.623 -16.631  11.806  1.00 66.89 LIG-0.23  N 
ATOM     14 2HH1 ARG C 760      11.237 -18.839  10.945  1.00 66.43 LIG 0.17  HD
ATOM     15 1HH1 ARG C 760      12.691 -18.617  10.708  1.00 66.43 LIG 0.17  HD
ATOM     16 2HH2 ARG C 760       9.938 -17.150  11.782  1.00 66.89 LIG 0.17  HD
ATOM     17 1HH2 ARG C 760      10.543 -15.824  12.091  1.00 66.89 LIG 0.17  HD
ATOM     18 HE   ARG C 760      12.750 -15.472  11.733  1.00 65.15 LIG 0.18  HD
ENDBRANCH 9 10
ENDBRANCH 8 9
ENDBRANCH 7 8
ENDBRANCH 5 7
ENDBRANCH 1 5
BRANCH 3 19
ATOM     19  CA  GLY C 761      12.154 -17.420  15.973  1.00 62.83 LIG 0.23  C 
BRANCH 19 20
ATOM     20  C   GLY C 761      12.732 -18.251  17.109  1.00 67.24 LIG 0.24  C 
ATOM     21 O    GLY C 761      13.437 -19.233  16.878  1.00 65.14 LIG-0.27  OA
ATOM     22  N   THR C 762      12.412 -17.840  18.336  1.00 72.11 LIG-0.34  N 
ATOM     23 H    THR C 762      11.721 -17.355  18.494  1.00 72.11 LIG 0.16  HD
BRANCH 22 24
ATOM     24  CA  THR C 762      13.181 -18.156  19.545  1.00 75.13 LIG 0.21  C 
BRANCH 24 25
ATOM     25  C   THR C 762      12.183 -18.510  20.644  1.00 73.09 LIG 0.20  C 
ATOM     26 OXT  THR C 762      10.979 -18.518  20.398  1.00 76.95 LIG-0.65  OA
ATOM     27 O    THR C 762      12.535 -18.799  21.789  1.00 68.26 LIG-0.65  OA
ENDBRANCH 24 25
BRANCH 24 28
ATOM     28  CB  THR C 762      14.084 -17.006  20.044  1.00 77.67 LIG 0.15  C 
ATOM     29  CG2 THR C 762      15.542 -17.429  20.002  1.00 76.40 LIG 0.04  C 
BRANCH 28 30
ATOM     30 OG1  THR C 762      13.913 -15.853  19.213  1.00 80.43 LIG-0.39  OA
ATOM     31 HG1  THR C 762      13.663 -15.203  19.684  1.00 80.43 LIG 0.21  HD
ENDBRANCH 28 30
ENDBRANCH 24 28
ENDBRANCH 22 24
ENDBRANCH 19 20
ENDBRANCH 3 19
TORSDOF 11
ENDMDL
MODEL 21
USER: ADFR SOLUTION from run 101
USER: SCORE 7.187845 LL:  -0.481 LR:  -7.092 RR:   0.000 FEB:  -3.811
USER: RMSD 3.922091
USER: SEED 100
USER: STATUS no improvement in best in 27 clusters for 5 generations
USER: GENES 13
USER: genes 0 Translation |==|  0.34108 0.53575 0.37472
USER: genes 1 Rotation |==|  0.54106 0.44402 0.64863 0.97232
USER: genes 2 Torsion [N]-C--CA-[N] |==|  0.43219
USER: genes 3 Torsion [C]-CA--CB-[CG] |==|  0.39780
USER: genes 4 Torsion [CA]-CB--CG-[CD] |==|  0.27812
USER: genes 5 Torsion [CB]-CG--CD-[NE] |==|  0.99908
USER: genes 6 Torsion [CG]-CD--NE-[CZ] |==|  0.59584
USER: genes 7 Torsion [C]-N--CA-[C] |==|  0.82777
USER: genes 8 Torsion [N]-CA--C-[N] |==|  0.52096
USER: genes 9 Torsion [C]-N--CA-[C] |==|  0.56596
USER: genes 10 Torsion [N]-CA--C-[OXT] |==|  0.68578
USER: genes 11 Torsion [N]-CA--CB-[OG1] |==|  0.84684
USER: genes 12 Torsion [CA]-CB--OG1-[HG1] |==|  0.09424
ROOT
ATOM      1  C   ARG C 760      14.547 -16.550  15.554  1.00 56.34 LIG 0.26  C 
ATOM      2 O    ARG C 760      13.347 -16.631  15.801  1.00 53.76 LIG-0.27  OA
ATOM      3  N   GLY C 761      15.486 -16.919  16.420  1.00 59.89 LIG-0.35  N 
ATOM      4 H    GLY C 761      16.312 -16.688  16.359  1.00 59.89 LIG 0.16  HD
ENDROOT
BRANCH 1 5
ATOM      5  CA  ARG C 760      15.027 -16.003  14.210  1.00 61.16 LIG 0.40  C 
ATOM      6  N   ARG C 760      13.989 -16.187  13.198  1.00 59.95 LIG 0.61  N 
BRANCH 5 7
ATOM      7  CB  ARG C 760      15.413 -14.528  14.314  1.00 63.40 LIG 0.05  C 
BRANCH 7 8
ATOM      8  CG  ARG C 760      16.610 -14.136  13.472  1.00 63.69 LIG 0.02  C 
BRANCH 8 9
ATOM      9  CD  ARG C 760      16.172 -13.462  12.182  1.00 63.30 LIG 0.14  C 
BRANCH 9 10
ATOM     10  NE  ARG C 760      14.718 -13.376  12.088  1.00 65.15 LIG-0.23  N 
ATOM     11  CZ  ARG C 760      14.031 -13.475  10.954  1.00 66.46 LIG 0.67  C 
ATOM     12  NH1 ARG C 760      14.661 -13.673   9.803  1.00 66.43 LIG-0.23  N 
ATOM     13  NH2 ARG C 760      12.709 -13.381  10.972  1.00 66.89 LIG-0.23  N 
ATOM     14 2HH1 ARG C 760      14.211 -13.737   9.072  1.00 66.43 LIG 0.17  HD
ATOM     15 1HH1 ARG C 760      15.519 -13.738   9.787  1.00 66.43 LIG 0.17  HD
ATOM     16 2HH2 ARG C 760      12.264 -13.445  10.239  1.00 66.89 LIG 0.17  HD
ATOM     17 1HH2 ARG C 760      12.298 -13.256  11.716  1.00 66.89 LIG 0.17  HD
ATOM     18 HE   ARG C 760      14.276 -13.254  12.815  1.00 65.15 LIG 0.18  HD
ENDBRANCH 9 10
ENDBRANCH 8 9
ENDBRANCH 7 8
ENDBRANCH 5 7
ENDBRANCH 1 5
BRANCH 3 19
ATOM     19  CA  GLY C 761      15.181 -17.763  17.563  1.00 62.83 LIG 0.23  C 
BRANCH 19 20
ATOM     20  C   GLY C 761      14.211 -17.297  18.639  1.00 67.24 LIG 0.24  C 
ATOM     21 O    GLY C 761      13.568 -16.256  18.501  1.00 65.14 LIG-0.27  OA
ATOM     22  N   THR C 762      14.129 -18.082  19.712  1.00 72.11 LIG-0.34  N 
ATOM     23 H    THR C 762      14.755 -18.627  19.934  1.00 72.11 LIG 0.16  HD
BRANCH 22 24
ATOM     24  CA  THR C 762      12.986 -18.116  20.631  1.00 75.13 LIG 0.21  C 
BRANCH 24 25
ATOM     25  C   THR C 762      13.490 -18.640  21.973  1.00 73.09 LIG 0.20  C 
ATOM     26 OXT  THR C 762      13.107 -19.732  22.386  1.00 76.95 LIG-0.65  OA
ATOM     27 O    THR C 762      14.284 -18.009  22.672  1.00 68.26 LIG-0.65  OA
ENDBRANCH 24 25
BRANCH 24 28
ATOM     28  CB  THR C 762      11.815 -19.007  20.158  1.00 77.67 LIG 0.15  C 
ATOM     29  CG2 THR C 762      10.641 -18.881  21.114  1.00 76.40 LIG 0.04  C 
BRANCH 28 30
ATOM     30 OG1  THR C 762      11.391 -18.606  18.851  1.00 80.43 LIG-0.39  OA
ATOM     31 HG1  THR C 762      12.055 -18.340  18.410  1.00 80.43 LIG 0.21  HD
ENDBRANCH 28 30
ENDBRANCH 24 28
ENDBRANCH 22 24
ENDBRANCH 19 20
ENDBRANCH 3 19
TORSDOF 11
ENDMDL
MODEL 22
USER: ADFR SOLUTION from run 62
USER: SCORE 7.649938 LL:  -0.921 LR:  -7.068 RR:   0.000 FEB:  -3.786
USER: RMSD 3.394126
USER: SEED 61
USER: STATUS no improvement in best in 11 clusters for 5 generations
USER: GENES 13
USER: genes 0 Translation |==|  0.32689 0.51882 0.37613
USER: genes 1 Rotation |==|  0.52507 0.44280 0.60875 0.98402
USER: genes 2 Torsion [N]-C--CA-[N] |==|  0.45124
USER: genes 3 Torsion [C]-CA--CB-[CG] |==|  0.46218
USER: genes 4 Torsion [CA]-CB--CG-[CD] |==|  0.39728
USER: genes 5 Torsion [CB]-CG--CD-[NE] |==|  0.96180
USER: genes 6 Torsion [CG]-CD--NE-[CZ] |==|  0.29835
USER: genes 7 Torsion [C]-N--CA-[C] |==|  0.79025
USER: genes 8 Torsion [N]-CA--C-[N] |==|  0.57354
USER: genes 9 Torsion [C]-N--CA-[C] |==|  0.63009
USER: genes 10 Torsion [N]-CA--C-[OXT] |==|  0.79974
USER: genes 11 Torsion [N]-CA--CB-[OG1] |==|  0.15711
USER: genes 12 Torsion [CA]-CB--OG1-[HG1] |==|  0.10737
ROOT
ATOM      1  C   ARG C 760      14.302 -16.766  15.583  1.00 56.34 LIG 0.26  C 
ATOM      2 O    ARG C 760      13.106 -16.629  15.822  1.00 53.76 LIG-0.27  OA
ATOM      3  N   GLY C 761      15.163 -17.251  16.472  1.00 59.89 LIG-0.35  N 
ATOM      4 H    GLY C 761      16.016 -17.168  16.409  1.00 59.89 LIG 0.16  HD
ENDROOT
BRANCH 1 5
ATOM      5  CA  ARG C 760      14.871 -16.371  14.220  1.00 61.16 LIG 0.40  C 
ATOM      6  N   ARG C 760      13.790 -16.261  13.242  1.00 59.95 LIG 0.61  N 
BRANCH 5 7
ATOM      7  CB  ARG C 760      15.651 -15.058  14.301  1.00 63.40 LIG 0.05  C 
BRANCH 7 8
ATOM      8  CG  ARG C 760      16.509 -14.768  13.086  1.00 63.69 LIG 0.02  C 
BRANCH 8 9
ATOM      9  CD  ARG C 760      16.509 -13.283  12.761  1.00 63.30 LIG 0.14  C 
BRANCH 9 10
ATOM     10  NE  ARG C 760      15.451 -12.576  13.478  1.00 65.15 LIG-0.23  N 
ATOM     11  CZ  ARG C 760      15.657 -11.756  14.503  1.00 66.46 LIG 0.67  C 
ATOM     12  NH1 ARG C 760      16.888 -11.523  14.940  1.00 66.43 LIG-0.23  N 
ATOM     13  NH2 ARG C 760      14.628 -11.162  15.091  1.00 66.89 LIG-0.23  N 
ATOM     14 2HH1 ARG C 760      17.016 -10.991  15.603  1.00 66.43 LIG 0.17  HD
ATOM     15 1HH1 ARG C 760      17.559 -11.904  14.558  1.00 66.43 LIG 0.17  HD
ATOM     16 2HH2 ARG C 760      14.760 -10.631  15.754  1.00 66.89 LIG 0.17  HD
ATOM     17 1HH2 ARG C 760      13.830 -11.308  14.809  1.00 66.89 LIG 0.17  HD
ATOM     18 HE   ARG C 760      14.641 -12.699  13.219  1.00 65.15 LIG 0.18  HD
ENDBRANCH 9 10
ENDBRANCH 8 9
ENDBRANCH 7 8
ENDBRANCH 5 7
ENDBRANCH 1 5
BRANCH 3 19
ATOM     19  CA  GLY C 761      14.715 -17.978  17.649  1.00 62.83 LIG 0.23  C 
BRANCH 19 20
ATOM     20  C   GLY C 761      14.106 -17.243  18.834  1.00 67.24 LIG 0.24  C 
ATOM     21 O    GLY C 761      13.545 -16.158  18.682  1.00 65.14 LIG-0.27  OA
ATOM     22  N   THR C 762      14.236 -17.852  20.011  1.00 72.11 LIG-0.34  N 
ATOM     23 H    THR C 762      14.847 -18.437  20.163  1.00 72.11 LIG 0.16  HD
BRANCH 22 24
ATOM     24  CA  THR C 762      13.374 -17.608  21.173  1.00 75.13 LIG 0.21  C 
BRANCH 24 25
ATOM     25  C   THR C 762      14.280 -17.429  22.388  1.00 73.09 LIG 0.20  C 
ATOM     26 OXT  THR C 762      14.864 -18.401  22.863  1.00 76.95 LIG-0.65  OA
ATOM     27 O    THR C 762      14.461 -16.335  22.923  1.00 68.26 LIG-0.65  OA
ENDBRANCH 24 25
BRANCH 24 28
ATOM     28  CB  THR C 762      12.365 -18.741  21.467  1.00 77.67 LIG 0.15  C 
ATOM     29  CG2 THR C 762      11.389 -18.886  20.312  1.00 76.40 LIG 0.04  C 
BRANCH 28 30
ATOM     30 OG1  THR C 762      13.059 -19.981  21.644  1.00 80.43 LIG-0.39  OA
ATOM     31 HG1  THR C 762      13.772 -19.845  22.066  1.00 80.43 LIG 0.21  HD
ENDBRANCH 28 30
ENDBRANCH 24 28
ENDBRANCH 22 24
ENDBRANCH 19 20
ENDBRANCH 3 19
TORSDOF 11
ENDMDL
MODEL 23
USER: ADFR SOLUTION from run 71
USER: SCORE 7.307150 LL:  -0.468 LR:  -6.999 RR:   0.000 FEB:  -3.718
USER: RMSD 5.168227
USER: SEED 70
USER: STATUS no improvement in best in 22 clusters for 5 generations
USER: GENES 13
USER: genes 0 Translation |==|  0.27006 0.45968 0.45840
USER: genes 1 Rotation |==|  0.29894 0.51229 0.17932 0.82648
USER: genes 2 Torsion [N]-C--CA-[N] |==|  0.02029
USER: genes 3 Torsion [C]-CA--CB-[CG] |==|  0.60230
USER: genes 4 Torsion [CA]-CB--CG-[CD] |==|  0.47184
USER: genes 5 Torsion [CB]-CG--CD-[NE] |==|  0.08592
USER: genes 6 Torsion [CG]-CD--NE-[CZ] |==|  0.27695
USER: genes 7 Torsion [C]-N--CA-[C] |==|  0.73751
USER: genes 8 Torsion [N]-CA--C-[N] |==|  0.57766
USER: genes 9 Torsion [C]-N--CA-[C] |==|  0.82213
USER: genes 10 Torsion [N]-CA--C-[OXT] |==|  0.40583
USER: genes 11 Torsion [N]-CA--CB-[OG1] |==|  0.94105
USER: genes 12 Torsion [CA]-CB--OG1-[HG1] |==|  0.95816
ROOT
ATOM      1  C   ARG C 760      13.322 -17.520  17.249  1.00 56.34 LIG 0.26  C 
ATOM      2 O    ARG C 760      13.936 -16.590  16.736  1.00 53.76 LIG-0.27  OA
ATOM      3  N   GLY C 761      13.248 -17.697  18.564  1.00 59.89 LIG-0.35  N 
ATOM      4 H    GLY C 761      13.007 -18.433  18.937  1.00 59.89 LIG 0.16  HD
ENDROOT
BRANCH 1 5
ATOM      5  CA  ARG C 760      12.599 -18.547  16.376  1.00 61.16 LIG 0.40  C 
ATOM      6  N   ARG C 760      11.811 -19.446  17.216  1.00 59.95 LIG 0.61  N 
BRANCH 5 7
ATOM      7  CB  ARG C 760      11.705 -17.867  15.340  1.00 63.40 LIG 0.05  C 
BRANCH 7 8
ATOM      8  CG  ARG C 760      10.402 -18.592  15.069  1.00 63.69 LIG 0.02  C 
BRANCH 8 9
ATOM      9  CD  ARG C 760       9.468 -17.739  14.227  1.00 63.30 LIG 0.14  C 
BRANCH 9 10
ATOM     10  NE  ARG C 760      10.208 -16.863  13.323  1.00 65.15 LIG-0.23  N 
ATOM     11  CZ  ARG C 760      10.413 -17.114  12.034  1.00 66.46 LIG 0.67  C 
ATOM     12  NH1 ARG C 760       9.925 -18.216  11.479  1.00 66.43 LIG-0.23  N 
ATOM     13  NH2 ARG C 760      11.102 -16.256  11.295  1.00 66.89 LIG-0.23  N 
ATOM     14 2HH1 ARG C 760      10.060 -18.373  10.644  1.00 66.43 LIG 0.17  HD
ATOM     15 1HH1 ARG C 760       9.474 -18.774  11.954  1.00 66.43 LIG 0.17  HD
ATOM     16 2HH2 ARG C 760      11.234 -16.417  10.461  1.00 66.89 LIG 0.17  HD
ATOM     17 1HH2 ARG C 760      11.416 -15.539  11.650  1.00 66.89 LIG 0.17  HD
ATOM     18 HE   ARG C 760      10.534 -16.136  13.647  1.00 65.15 LIG 0.18  HD
ENDBRANCH 9 10
ENDBRANCH 8 9
ENDBRANCH 7 8
ENDBRANCH 5 7
ENDBRANCH 1 5
BRANCH 3 19
ATOM     19  CA  GLY C 761      13.577 -16.631  19.496  1.00 62.83 LIG 0.23  C 
BRANCH 19 20
ATOM     20  C   GLY C 761      14.973 -16.520  20.091  1.00 67.24 LIG 0.24  C 
ATOM     21 O    GLY C 761      15.954 -16.948  19.482  1.00 65.14 LIG-0.27  OA
ATOM     22  N   THR C 762      15.039 -15.945  21.291  1.00 72.11 LIG-0.34  N 
ATOM     23 H    THR C 762      14.363 -15.907  21.821  1.00 72.11 LIG 0.16  HD
BRANCH 22 24
ATOM     24  CA  THR C 762      16.242 -15.316  21.847  1.00 75.13 LIG 0.21  C 
BRANCH 24 25
ATOM     25  C   THR C 762      17.293 -16.409  22.020  1.00 73.09 LIG 0.20  C 
ATOM     26 OXT  THR C 762      18.483 -16.144  21.859  1.00 76.95 LIG-0.65  OA
ATOM     27 O    THR C 762      17.001 -17.566  22.324  1.00 68.26 LIG-0.65  OA
ENDBRANCH 24 25
BRANCH 24 28
ATOM     28  CB  THR C 762      16.024 -14.616  23.207  1.00 77.67 LIG 0.15  C 
ATOM     29  CG2 THR C 762      16.820 -13.324  23.266  1.00 76.40 LIG 0.04  C 
BRANCH 28 30
ATOM     30 OG1  THR C 762      14.636 -14.312  23.385  1.00 80.43 LIG-0.39  OA
ATOM     31 HG1  THR C 762      14.238 -14.380  22.648  1.00 80.43 LIG 0.21  HD
ENDBRANCH 28 30
ENDBRANCH 24 28
ENDBRANCH 22 24
ENDBRANCH 19 20
ENDBRANCH 3 19
TORSDOF 11
ENDMDL
MODEL 24
USER: ADFR SOLUTION from run 182
USER: SCORE 7.274655 LL:  -0.705 LR:  -6.982 RR:   0.000 FEB:  -3.701
USER: RMSD 3.912694
USER: SEED 181
USER: STATUS no improvement in best in 30 clusters for 5 generations
USER: GENES 13
USER: genes 0 Translation |==|  0.34416 0.51088 0.53792
USER: genes 1 Rotation |==|  0.35571 0.47406 0.53867 0.97646
USER: genes 2 Torsion [N]-C--CA-[N] |==|  0.21914
USER: genes 3 Torsion [C]-CA--CB-[CG] |==|  0.31079
USER: genes 4 Torsion [CA]-CB--CG-[CD] |==|  0.41002
USER: genes 5 Torsion [CB]-CG--CD-[NE] |==|  0.30702
USER: genes 6 Torsion [CG]-CD--NE-[CZ] |==|  0.43779
USER: genes 7 Torsion [C]-N--CA-[C] |==|  0.61740
USER: genes 8 Torsion [N]-CA--C-[N] |==|  0.02619
USER: genes 9 Torsion [C]-N--CA-[C] |==|  0.13298
USER: genes 10 Torsion [N]-CA--C-[OXT] |==|  0.69941
USER: genes 11 Torsion [N]-CA--CB-[OG1] |==|  0.83964
USER: genes 12 Torsion [CA]-CB--OG1-[HG1] |==|  0.06793
ROOT
ATOM      1  C   ARG C 760      14.600 -16.867  18.859  1.00 56.34 LIG 0.26  C 
ATOM      2 O    ARG C 760      13.538 -16.254  18.817  1.00 53.76 LIG-0.27  OA
ATOM      3  N   GLY C 761      15.342 -16.947  19.959  1.00 59.89 LIG-0.35  N 
ATOM      4 H    GLY C 761      16.168 -17.187  19.965  1.00 59.89 LIG 0.16  HD
ENDROOT
BRANCH 1 5
ATOM      5  CA  ARG C 760      15.134 -17.580  17.616  1.00 61.16 LIG 0.40  C 
ATOM      6  N   ARG C 760      14.863 -19.013  17.711  1.00 59.95 LIG 0.61  N 
BRANCH 5 7
ATOM      7  CB  ARG C 760      14.522 -17.006  16.338  1.00 63.40 LIG 0.05  C 
BRANCH 7 8
ATOM      8  CG  ARG C 760      15.504 -16.256  15.461  1.00 63.69 LIG 0.02  C 
BRANCH 8 9
ATOM      9  CD  ARG C 760      15.145 -16.405  13.991  1.00 63.30 LIG 0.14  C 
BRANCH 9 10
ATOM     10  NE  ARG C 760      14.663 -15.148  13.426  1.00 65.15 LIG-0.23  N 
ATOM     11  CZ  ARG C 760      14.681 -14.850  12.131  1.00 66.46 LIG 0.67  C 
ATOM     12  NH1 ARG C 760      15.151 -15.722  11.248  1.00 66.43 LIG-0.23  N 
ATOM     13  NH2 ARG C 760      14.221 -13.678  11.716  1.00 66.89 LIG-0.23  N 
ATOM     14 2HH1 ARG C 760      15.160 -15.524  10.411  1.00 66.43 LIG 0.17  HD
ATOM     15 1HH1 ARG C 760      15.447 -16.485  11.513  1.00 66.43 LIG 0.17  HD
ATOM     16 2HH2 ARG C 760      14.232 -13.484  10.878  1.00 66.89 LIG 0.17  HD
ATOM     17 1HH2 ARG C 760      13.913 -13.112  12.284  1.00 66.89 LIG 0.17  HD
ATOM     18 HE   ARG C 760      14.346 -14.561  13.969  1.00 65.15 LIG 0.18  HD
ENDBRANCH 9 10
ENDBRANCH 8 9
ENDBRANCH 7 8
ENDBRANCH 5 7
ENDBRANCH 1 5
BRANCH 3 19
ATOM     19  CA  GLY C 761      14.800 -16.628  21.269  1.00 62.83 LIG 0.23  C 
BRANCH 19 20
ATOM     20  C   GLY C 761      15.610 -15.818  22.271  1.00 67.24 LIG 0.24  C 
ATOM     21 O    GLY C 761      15.226 -15.686  23.433  1.00 65.14 LIG-0.27  OA
ATOM     22  N   THR C 762      16.729 -15.275  21.794  1.00 72.11 LIG-0.34  N 
ATOM     23 H    THR C 762      16.849 -15.128  20.956  1.00 72.11 LIG 0.16  HD
BRANCH 22 24
ATOM     24  CA  THR C 762      17.873 -14.869  22.618  1.00 75.13 LIG 0.21  C 
BRANCH 24 25
ATOM     25  C   THR C 762      18.189 -16.022  23.566  1.00 73.09 LIG 0.20  C 
ATOM     26 OXT  THR C 762      17.933 -15.917  24.764  1.00 76.95 LIG-0.65  OA
ATOM     27 O    THR C 762      18.694 -17.077  23.179  1.00 68.26 LIG-0.65  OA
ENDBRANCH 24 25
BRANCH 24 28
ATOM     28  CB  THR C 762      17.635 -13.590  23.453  1.00 77.67 LIG 0.15  C 
ATOM     29  CG2 THR C 762      18.892 -13.226  24.223  1.00 76.40 LIG 0.04  C 
BRANCH 28 30
ATOM     30 OG1  THR C 762      17.288 -12.500  22.591  1.00 80.43 LIG-0.39  OA
ATOM     31 HG1  THR C 762      16.958 -12.800  21.879  1.00 80.43 LIG 0.21  HD
ENDBRANCH 28 30
ENDBRANCH 24 28
ENDBRANCH 22 24
ENDBRANCH 19 20
ENDBRANCH 3 19
TORSDOF 11
ENDMDL
MODEL 25
USER: ADFR SOLUTION from run 53
USER: SCORE 7.114970 LL:  -0.434 LR:  -6.950 RR:   0.000 FEB:  -3.668
USER: RMSD 5.008495
USER: SEED 52
USER: STATUS no improvement in best in 22 clusters for 5 generations
USER: GENES 13
USER: genes 0 Translation |==|  0.28269 0.51936 0.38512
USER: genes 1 Rotation |==|  0.42205 0.55971 0.07896 0.75117
USER: genes 2 Torsion [N]-C--CA-[N] |==|  0.56662
USER: genes 3 Torsion [C]-CA--CB-[CG] |==|  0.23928
USER: genes 4 Torsion [CA]-CB--CG-[CD] |==|  0.25398
USER: genes 5 Torsion [CB]-CG--CD-[NE] |==|  0.85789
USER: genes 6 Torsion [CG]-CD--NE-[CZ] |==|  0.39122
USER: genes 7 Torsion [C]-N--CA-[C] |==|  0.65153
USER: genes 8 Torsion [N]-CA--C-[N] |==|  0.51773
USER: genes 9 Torsion [C]-N--CA-[C] |==|  0.81504
USER: genes 10 Torsion [N]-CA--C-[OXT] |==|  0.93579
USER: genes 11 Torsion [N]-CA--CB-[OG1] |==|  0.88615
USER: genes 12 Torsion [CA]-CB--OG1-[HG1] |==|  0.15613
ROOT
ATOM      1  C   ARG C 760      13.539 -16.759  15.765  1.00 56.34 LIG 0.26  C 
ATOM      2 O    ARG C 760      14.657 -16.256  15.813  1.00 53.76 LIG-0.27  OA
ATOM      3  N   GLY C 761      12.864 -17.120  16.852  1.00 59.89 LIG-0.35  N 
ATOM      4 H    GLY C 761      12.187 -17.649  16.843  1.00 59.89 LIG 0.16  HD
ENDROOT
BRANCH 1 5
ATOM      5  CA  ARG C 760      12.857 -17.006  14.419  1.00 61.16 LIG 0.40  C 
ATOM      6  N   ARG C 760      13.863 -17.111  13.364  1.00 59.95 LIG 0.61  N 
BRANCH 5 7
ATOM      7  CB  ARG C 760      11.991 -18.265  14.456  1.00 63.40 LIG 0.05  C 
BRANCH 7 8
ATOM      8  CG  ARG C 760      10.583 -18.038  14.968  1.00 63.69 LIG 0.02  C 
BRANCH 8 9
ATOM      9  CD  ARG C 760       9.630 -17.728  13.825  1.00 63.30 LIG 0.14  C 
BRANCH 9 10
ATOM     10  NE  ARG C 760      10.142 -16.656  12.975  1.00 65.15 LIG-0.23  N 
ATOM     11  CZ  ARG C 760      10.037 -16.632  11.650  1.00 66.46 LIG 0.67  C 
ATOM     12  NH1 ARG C 760       9.428 -17.621  11.008  1.00 66.43 LIG-0.23  N 
ATOM     13  NH2 ARG C 760      10.538 -15.614  10.966  1.00 66.89 LIG-0.23  N 
ATOM     14 2HH1 ARG C 760       9.362 -17.600  10.151  1.00 66.43 LIG 0.17  HD
ATOM     15 1HH1 ARG C 760       9.098 -18.282  11.449  1.00 66.43 LIG 0.17  HD
ATOM     16 2HH2 ARG C 760      10.470 -15.597  10.109  1.00 66.89 LIG 0.17  HD
ATOM     17 1HH2 ARG C 760      10.930 -14.970  11.379  1.00 66.89 LIG 0.17  HD
ATOM     18 HE   ARG C 760      10.538 -15.996  13.358  1.00 65.15 LIG 0.18  HD
ENDBRANCH 9 10
ENDBRANCH 8 9
ENDBRANCH 7 8
ENDBRANCH 5 7
ENDBRANCH 1 5
BRANCH 3 19
ATOM     19  CA  GLY C 761      13.228 -16.632  18.172  1.00 62.83 LIG 0.23  C 
BRANCH 19 20
ATOM     20  C   GLY C 761      13.505 -17.602  19.311  1.00 67.24 LIG 0.24  C 
ATOM     21 O    GLY C 761      13.534 -18.816  19.114  1.00 65.14 LIG-0.27  OA
ATOM     22  N   THR C 762      13.699 -17.040  20.504  1.00 72.11 LIG-0.34  N 
ATOM     23 H    THR C 762      13.409 -16.254  20.696  1.00 72.11 LIG 0.16  HD
BRANCH 22 24
ATOM     24  CA  THR C 762      14.416 -17.676  21.615  1.00 75.13 LIG 0.21  C 
BRANCH 24 25
ATOM     25  C   THR C 762      13.587 -18.873  22.072  1.00 73.09 LIG 0.20  C 
ATOM     26 OXT  THR C 762      12.380 -18.905  21.841  1.00 76.95 LIG-0.65  OA
ATOM     27 O    THR C 762      14.081 -19.830  22.670  1.00 68.26 LIG-0.65  OA
ENDBRANCH 24 25
BRANCH 24 28
ATOM     28  CB  THR C 762      14.662 -16.749  22.827  1.00 77.67 LIG 0.15  C 
ATOM     29  CG2 THR C 762      15.776 -17.308  23.696  1.00 76.40 LIG 0.04  C 
BRANCH 28 30
ATOM     30 OG1  THR C 762      15.038 -15.443  22.377  1.00 80.43 LIG-0.39  OA
ATOM     31 HG1  THR C 762      14.446 -15.143  21.862  1.00 80.43 LIG 0.21  HD
ENDBRANCH 28 30
ENDBRANCH 24 28
ENDBRANCH 22 24
ENDBRANCH 19 20
ENDBRANCH 3 19
TORSDOF 11
ENDMDL
MODEL 26
USER: ADFR SOLUTION from run 171
USER: SCORE 7.270242 LL:  -0.630 LR:  -6.952 RR:   0.000 FEB:  -3.671
USER: RMSD 5.362337
USER: SEED 170
USER: STATUS no improvement in best in 28 clusters for 5 generations
USER: GENES 13
USER: genes 0 Translation |==|  0.32124 0.50383 0.55388
USER: genes 1 Rotation |==|  0.37927 0.50272 0.42077 0.97868
USER: genes 2 Torsion [N]-C--CA-[N] |==|  0.15791
USER: genes 3 Torsion [C]-CA--CB-[CG] |==|  0.60117
USER: genes 4 Torsion [CA]-CB--CG-[CD] |==|  0.32658
USER: genes 5 Torsion [CB]-CG--CD-[NE] |==|  0.28513
USER: genes 6 Torsion [CG]-CD--NE-[CZ] |==|  0.35819
USER: genes 7 Torsion [C]-N--CA-[C] |==|  0.71746
USER: genes 8 Torsion [N]-CA--C-[N] |==|  0.63293
USER: genes 9 Torsion [C]-N--CA-[C] |==|  0.58159
USER: genes 10 Torsion [N]-CA--C-[OXT] |==|  0.89386
USER: genes 11 Torsion [N]-CA--CB-[OG1] |==|  0.74378
USER: genes 12 Torsion [CA]-CB--OG1-[HG1] |==|  0.76578
ROOT
ATOM      1  C   ARG C 760      14.204 -16.957  19.182  1.00 56.34 LIG 0.26  C 
ATOM      2 O    ARG C 760      13.550 -15.920  19.215  1.00 53.76 LIG-0.27  OA
ATOM      3  N   GLY C 761      14.776 -17.483  20.261  1.00 59.89 LIG-0.35  N 
ATOM      4 H    GLY C 761      15.396 -18.078  20.235  1.00 59.89 LIG 0.16  HD
ENDROOT
BRANCH 1 5
ATOM      5  CA  ARG C 760      14.403 -17.708  17.865  1.00 61.16 LIG 0.40  C 
ATOM      6  N   ARG C 760      13.925 -19.083  18.001  1.00 59.95 LIG 0.61  N 
BRANCH 5 7
ATOM      7  CB  ARG C 760      13.686 -17.008  16.711  1.00 63.40 LIG 0.05  C 
BRANCH 7 8
ATOM      8  CG  ARG C 760      13.079 -17.950  15.691  1.00 63.69 LIG 0.02  C 
BRANCH 8 9
ATOM      9  CD  ARG C 760      11.568 -17.792  15.635  1.00 63.30 LIG 0.14  C 
BRANCH 9 10
ATOM     10  NE  ARG C 760      11.152 -17.018  14.469  1.00 65.15 LIG-0.23  N 
ATOM     11  CZ  ARG C 760      10.221 -17.405  13.603  1.00 66.46 LIG 0.67  C 
ATOM     12  NH1 ARG C 760       9.590 -18.561  13.768  1.00 66.43 LIG-0.23  N 
ATOM     13  NH2 ARG C 760       9.915 -16.631  12.572  1.00 66.89 LIG-0.23  N 
ATOM     14 2HH1 ARG C 760       8.988 -18.807  13.205  1.00 66.43 LIG 0.17  HD
ATOM     15 1HH1 ARG C 760       9.783 -19.065  14.438  1.00 66.43 LIG 0.17  HD
ATOM     16 2HH2 ARG C 760       9.312 -16.880  12.011  1.00 66.89 LIG 0.17  HD
ATOM     17 1HH2 ARG C 760      10.318 -15.880  12.464  1.00 66.89 LIG 0.17  HD
ATOM     18 HE   ARG C 760      11.535 -16.260  14.334  1.00 65.15 LIG 0.18  HD
ENDBRANCH 9 10
ENDBRANCH 8 9
ENDBRANCH 7 8
ENDBRANCH 5 7
ENDBRANCH 1 5
BRANCH 3 19
ATOM     19  CA  GLY C 761      14.386 -17.081  21.603  1.00 62.83 LIG 0.23  C 
BRANCH 19 20
ATOM     20  C   GLY C 761      15.240 -16.110  22.405  1.00 67.24 LIG 0.24  C 
ATOM     21 O    GLY C 761      15.655 -15.068  21.899  1.00 65.14 LIG-0.27  OA
ATOM     22  N   THR C 762      15.498 -16.479  23.659  1.00 72.11 LIG-0.34  N 
ATOM     23 H    THR C 762      15.457 -17.298  23.916  1.00 72.11 LIG 0.16  HD
BRANCH 22 24
ATOM     24  CA  THR C 762      15.874 -15.556  24.736  1.00 75.13 LIG 0.21  C 
BRANCH 24 25
ATOM     25  C   THR C 762      16.754 -16.328  25.715  1.00 73.09 LIG 0.20  C 
ATOM     26 OXT  THR C 762      16.499 -17.502  25.973  1.00 76.95 LIG-0.65  OA
ATOM     27 O    THR C 762      17.732 -15.821  26.266  1.00 68.26 LIG-0.65  OA
ENDBRANCH 24 25
BRANCH 24 28
ATOM     28  CB  THR C 762      14.678 -14.957  25.509  1.00 77.67 LIG 0.15  C 
ATOM     29  CG2 THR C 762      15.058 -14.715  26.959  1.00 76.40 LIG 0.04  C 
BRANCH 28 30
ATOM     30 OG1  THR C 762      14.288 -13.712  24.919  1.00 80.43 LIG-0.39  OA
ATOM     31 HG1  THR C 762      14.767 -13.095  25.226  1.00 80.43 LIG 0.21  HD
ENDBRANCH 28 30
ENDBRANCH 24 28
ENDBRANCH 22 24
ENDBRANCH 19 20
ENDBRANCH 3 19
TORSDOF 11
ENDMDL
MODEL 27
USER: ADFR SOLUTION from run 114
USER: SCORE 7.352037 LL:  -0.833 LR:  -6.941 RR:   0.000 FEB:  -3.660
USER: RMSD 7.051012
USER: SEED 113
USER: STATUS no improvement in best in 14 clusters for 5 generations
USER: GENES 13
USER: genes 0 Translation |==|  0.31707 0.48422 0.53459
USER: genes 1 Rotation |==|  0.67959 0.53357 0.96452 0.52893
USER: genes 2 Torsion [N]-C--CA-[N] |==|  0.37947
USER: genes 3 Torsion [C]-CA--CB-[CG] |==|  0.10311
USER: genes 4 Torsion [CA]-CB--CG-[CD] |==|  0.40499
USER: genes 5 Torsion [CB]-CG--CD-[NE] |==|  0.26110
USER: genes 6 Torsion [CG]-CD--NE-[CZ] |==|  0.36211
USER: genes 7 Torsion [C]-N--CA-[C] |==|  0.64475
USER: genes 8 Torsion [N]-CA--C-[N] |==|  0.63317
USER: genes 9 Torsion [C]-N--CA-[C] |==|  0.77099
USER: genes 10 Torsion [N]-CA--C-[OXT] |==|  0.99340
USER: genes 11 Torsion [N]-CA--CB-[OG1] |==|  0.94937
USER: genes 12 Torsion [CA]-CB--OG1-[HG1] |==|  0.13944
ROOT
ATOM      1  C   ARG C 760      14.132 -17.207  18.791  1.00 56.34 LIG 0.26  C 
ATOM      2 O    ARG C 760      15.087 -17.957  18.612  1.00 53.76 LIG-0.27  OA
ATOM      3  N   GLY C 761      14.122 -16.268  19.733  1.00 59.89 LIG-0.35  N 
ATOM      4 H    GLY C 761      13.409 -15.876  20.012  1.00 59.89 LIG 0.16  HD
ENDROOT
BRANCH 1 5
ATOM      5  CA  ARG C 760      12.879 -17.324  17.924  1.00 61.16 LIG 0.40  C 
ATOM      6  N   ARG C 760      13.259 -17.495  16.522  1.00 59.95 LIG 0.61  N 
BRANCH 5 7
ATOM      7  CB  ARG C 760      11.992 -18.482  18.379  1.00 63.40 LIG 0.05  C 
BRANCH 7 8
ATOM      8  CG  ARG C 760      11.944 -18.677  19.881  1.00 63.69 LIG 0.02  C 
BRANCH 8 9
ATOM      9  CD  ARG C 760      10.573 -19.159  20.326  1.00 63.30 LIG 0.14  C 
BRANCH 9 10
ATOM     10  NE  ARG C 760      10.520 -20.615  20.419  1.00 65.15 LIG-0.23  N 
ATOM     11  CZ  ARG C 760      10.057 -21.284  21.470  1.00 66.46 LIG 0.67  C 
ATOM     12  NH1 ARG C 760       9.594 -20.633  22.530  1.00 66.43 LIG-0.23  N 
ATOM     13  NH2 ARG C 760      10.053 -22.610  21.460  1.00 66.89 LIG-0.23  N 
ATOM     14 2HH1 ARG C 760       9.296 -21.071  23.207  1.00 66.43 LIG 0.17  HD
ATOM     15 1HH1 ARG C 760       9.592 -19.773  22.539  1.00 66.43 LIG 0.17  HD
ATOM     16 2HH2 ARG C 760       9.754 -23.044  22.139  1.00 66.89 LIG 0.17  HD
ATOM     17 1HH2 ARG C 760      10.349 -23.035  20.774  1.00 66.89 LIG 0.17  HD
ATOM     18 HE   ARG C 760      10.806 -21.070  19.748  1.00 65.15 LIG 0.18  HD
ENDBRANCH 9 10
ENDBRANCH 8 9
ENDBRANCH 7 8
ENDBRANCH 5 7
ENDBRANCH 1 5
BRANCH 3 19
ATOM     19  CA  GLY C 761      15.346 -15.822  20.378  1.00 62.83 LIG 0.23  C 
BRANCH 19 20
ATOM     20  C   GLY C 761      15.462 -15.795  21.894  1.00 67.24 LIG 0.24  C 
ATOM     21 O    GLY C 761      15.115 -16.762  22.571  1.00 65.14 LIG-0.27  OA
ATOM     22  N   THR C 762      15.949 -14.667  22.409  1.00 72.11 LIG-0.34  N 
ATOM     23 H    THR C 762      15.923 -13.918  21.987  1.00 72.11 LIG 0.16  HD
BRANCH 22 24
ATOM     24  CA  THR C 762      16.577 -14.559  23.731  1.00 75.13 LIG 0.21  C 
BRANCH 24 25
ATOM     25  C   THR C 762      15.459 -14.426  24.761  1.00 73.09 LIG 0.20  C 
ATOM     26 OXT  THR C 762      14.288 -14.381  24.391  1.00 76.95 LIG-0.65  OA
ATOM     27 O    THR C 762      15.679 -14.366  25.972  1.00 68.26 LIG-0.65  OA
ENDBRANCH 24 25
BRANCH 24 28
ATOM     28  CB  THR C 762      17.540 -13.360  23.883  1.00 77.67 LIG 0.15  C 
ATOM     29  CG2 THR C 762      18.787 -13.782  24.640  1.00 76.40 LIG 0.04  C 
BRANCH 28 30
ATOM     30 OG1  THR C 762      17.924 -12.874  22.593  1.00 80.43 LIG-0.39  OA
ATOM     31 HG1  THR C 762      17.239 -12.754  22.123  1.00 80.43 LIG 0.21  HD
ENDBRANCH 28 30
ENDBRANCH 24 28
ENDBRANCH 22 24
ENDBRANCH 19 20
ENDBRANCH 3 19
TORSDOF 11
ENDMDL
MODEL 28
USER: ADFR SOLUTION from run 183
USER: SCORE 7.084333 LL:  -0.459 LR:  -6.943 RR:   0.000 FEB:  -3.661
USER: RMSD 3.884599
USER: SEED 182
USER: STATUS no improvement in best in 36 clusters for 5 generations
USER: GENES 13
USER: genes 0 Translation |==|  0.30819 0.52941 0.37210
USER: genes 1 Rotation |==|  0.54594 0.47930 0.63063 0.98000
USER: genes 2 Torsion [N]-C--CA-[N] |==|  0.83559
USER: genes 3 Torsion [C]-CA--CB-[CG] |==|  0.23368
USER: genes 4 Torsion [CA]-CB--CG-[CD] |==|  0.24851
USER: genes 5 Torsion [CB]-CG--CD-[NE] |==|  0.83041
USER: genes 6 Torsion [CG]-CD--NE-[CZ] |==|  0.42339
USER: genes 7 Torsion [C]-N--CA-[C] |==|  0.75266
USER: genes 8 Torsion [N]-CA--C-[N] |==|  0.61856
USER: genes 9 Torsion [C]-N--CA-[C] |==|  0.15903
USER: genes 10 Torsion [N]-CA--C-[OXT] |==|  0.76528
USER: genes 11 Torsion [N]-CA--CB-[OG1] |==|  0.89979
USER: genes 12 Torsion [CA]-CB--OG1-[HG1] |==|  0.36538
ROOT
ATOM      1  C   ARG C 760      13.979 -16.631  15.501  1.00 56.34 LIG 0.26  C 
ATOM      2 O    ARG C 760      12.827 -16.631  15.923  1.00 53.76 LIG-0.27  OA
ATOM      3  N   GLY C 761      15.012 -17.048  16.227  1.00 59.89 LIG-0.35  N 
ATOM      4 H    GLY C 761      15.833 -16.871  16.040  1.00 59.89 LIG 0.16  HD
ENDROOT
BRANCH 1 5
ATOM      5  CA  ARG C 760      14.288 -16.134  14.089  1.00 61.16 LIG 0.40  C 
ATOM      6  N   ARG C 760      15.221 -15.010  14.150  1.00 59.95 LIG 0.61  N 
BRANCH 5 7
ATOM      7  CB  ARG C 760      14.859 -17.252  13.216  1.00 63.40 LIG 0.05  C 
BRANCH 7 8
ATOM      8  CG  ARG C 760      13.810 -18.137  12.573  1.00 63.69 LIG 0.02  C 
BRANCH 8 9
ATOM      9  CD  ARG C 760      13.388 -17.587  11.220  1.00 63.30 LIG 0.14  C 
BRANCH 9 10
ATOM     10  NE  ARG C 760      12.800 -16.256  11.341  1.00 65.15 LIG-0.23  N 
ATOM     11  CZ  ARG C 760      12.821 -15.335  10.383  1.00 66.46 LIG 0.67  C 
ATOM     12  NH1 ARG C 760      13.396 -15.593   9.216  1.00 66.43 LIG-0.23  N 
ATOM     13  NH2 ARG C 760      12.260 -14.152  10.591  1.00 66.89 LIG-0.23  N 
ATOM     14 2HH1 ARG C 760      13.407 -14.994   8.599  1.00 66.43 LIG 0.17  HD
ATOM     15 1HH1 ARG C 760      13.759 -16.361   9.075  1.00 66.43 LIG 0.17  HD
ATOM     16 2HH2 ARG C 760      12.272 -13.556   9.972  1.00 66.89 LIG 0.17  HD
ATOM     17 1HH2 ARG C 760      11.883 -13.982  11.344  1.00 66.89 LIG 0.17  HD
ATOM     18 HE   ARG C 760      12.413 -16.055  12.082  1.00 65.15 LIG 0.18  HD
ENDBRANCH 9 10
ENDBRANCH 8 9
ENDBRANCH 7 8
ENDBRANCH 5 7
ENDBRANCH 1 5
BRANCH 3 19
ATOM     19  CA  GLY C 761      14.828 -17.856  17.421  1.00 62.83 LIG 0.23  C 
BRANCH 19 20
ATOM     20  C   GLY C 761      14.638 -17.202  18.782  1.00 67.24 LIG 0.24  C 
ATOM     21 O    GLY C 761      13.913 -16.216  18.913  1.00 65.14 LIG-0.27  OA
ATOM     22  N   THR C 762      15.310 -17.766  19.785  1.00 72.11 LIG-0.34  N 
ATOM     23 H    THR C 762      16.008 -18.251  19.657  1.00 72.11 LIG 0.16  HD
BRANCH 22 24
ATOM     24  CA  THR C 762      14.952 -17.637  21.202  1.00 75.13 LIG 0.21  C 
BRANCH 24 25
ATOM     25  C   THR C 762      13.521 -18.139  21.362  1.00 73.09 LIG 0.20  C 
ATOM     26 OXT  THR C 762      12.578 -17.381  21.145  1.00 76.95 LIG-0.65  OA
ATOM     27 O    THR C 762      13.259 -19.295  21.701  1.00 68.26 LIG-0.65  OA
ENDBRANCH 24 25
BRANCH 24 28
ATOM     28  CB  THR C 762      15.038 -16.195  21.751  1.00 77.67 LIG 0.15  C 
ATOM     29  CG2 THR C 762      15.237 -16.219  23.257  1.00 76.40 LIG 0.04  C 
BRANCH 28 30
ATOM     30 OG1  THR C 762      16.140 -15.506  21.150  1.00 80.43 LIG-0.39  OA
ATOM     31 HG1  THR C 762      15.884 -14.755  20.876  1.00 80.43 LIG 0.21  HD
ENDBRANCH 28 30
ENDBRANCH 24 28
ENDBRANCH 22 24
ENDBRANCH 19 20
ENDBRANCH 3 19
TORSDOF 11
ENDMDL
MODEL 29
USER: ADFR SOLUTION from run 195
USER: SCORE 6.900125 LL:  -0.568 LR:  -6.926 RR:   0.000 FEB:  -3.645
USER: RMSD 3.916824
USER: SEED 194
USER: STATUS no improvement in best in 24 clusters for 5 generations
USER: GENES 13
USER: genes 0 Translation |==|  0.30641 0.52941 0.37769
USER: genes 1 Rotation |==|  0.51141 0.50032 0.64545 0.97824
USER: genes 2 Torsion [N]-C--CA-[N] |==|  0.84533
USER: genes 3 Torsion [C]-CA--CB-[CG] |==|  0.32566
USER: genes 4 Torsion [CA]-CB--CG-[CD] |==|  0.20692
USER: genes 5 Torsion [CB]-CG--CD-[NE] |==|  0.80526
USER: genes 6 Torsion [CG]-CD--NE-[CZ] |==|  0.43924
USER: genes 7 Torsion [C]-N--CA-[C] |==|  0.76667
USER: genes 8 Torsion [N]-CA--C-[N] |==|  0.71274
USER: genes 9 Torsion [C]-N--CA-[C] |==|  0.49364
USER: genes 10 Torsion [N]-CA--C-[OXT] |==|  0.91919
USER: genes 11 Torsion [N]-CA--CB-[OG1] |==|  0.79863
USER: genes 12 Torsion [CA]-CB--OG1-[HG1] |==|  0.00852
ROOT
ATOM      1  C   ARG C 760      13.949 -16.631  15.614  1.00 56.34 LIG 0.26  C 
ATOM      2 O    ARG C 760      12.814 -16.631  16.081  1.00 53.76 LIG-0.27  OA
ATOM      3  N   GLY C 761      15.030 -16.869  16.350  1.00 59.89 LIG-0.35  N 
ATOM      4 H    GLY C 761      15.831 -16.677  16.102  1.00 59.89 LIG 0.16  HD
ENDROOT
BRANCH 1 5
ATOM      5  CA  ARG C 760      14.177 -16.345  14.130  1.00 61.16 LIG 0.40  C 
ATOM      6  N   ARG C 760      15.104 -15.226  13.976  1.00 59.95 LIG 0.61  N 
BRANCH 5 7
ATOM      7  CB  ARG C 760      14.707 -17.579  13.399  1.00 63.40 LIG 0.05  C 
BRANCH 7 8
ATOM      8  CG  ARG C 760      13.786 -18.104  12.316  1.00 63.69 LIG 0.02  C 
BRANCH 8 9
ATOM      9  CD  ARG C 760      13.824 -17.210  11.088  1.00 63.30 LIG 0.14  C 
BRANCH 9 10
ATOM     10  NE  ARG C 760      13.183 -15.923  11.341  1.00 65.15 LIG-0.23  N 
ATOM     11  CZ  ARG C 760      13.415 -14.817  10.640  1.00 66.46 LIG 0.67  C 
ATOM     12  NH1 ARG C 760      14.271 -14.833   9.626  1.00 66.43 LIG-0.23  N 
ATOM     13  NH2 ARG C 760      12.784 -13.694  10.950  1.00 66.89 LIG-0.23  N 
ATOM     14 2HH1 ARG C 760      14.417 -14.115   9.176  1.00 66.43 LIG 0.17  HD
ATOM     15 1HH1 ARG C 760      14.680 -15.561   9.419  1.00 66.43 LIG 0.17  HD
ATOM     16 2HH2 ARG C 760      12.933 -12.978  10.497  1.00 66.89 LIG 0.17  HD
ATOM     17 1HH2 ARG C 760      12.226 -13.681  11.604  1.00 66.89 LIG 0.17  HD
ATOM     18 HE   ARG C 760      12.618 -15.877  11.987  1.00 65.15 LIG 0.18  HD
ENDBRANCH 9 10
ENDBRANCH 8 9
ENDBRANCH 7 8
ENDBRANCH 5 7
ENDBRANCH 1 5
BRANCH 3 19
ATOM     19  CA  GLY C 761      14.938 -17.488  17.662  1.00 62.83 LIG 0.23  C 
BRANCH 19 20
ATOM     20  C   GLY C 761      14.640 -16.653  18.898  1.00 67.24 LIG 0.24  C 
ATOM     21 O    GLY C 761      13.500 -16.250  19.128  1.00 65.14 LIG-0.27  OA
ATOM     22  N   THR C 762      15.688 -16.399  19.681  1.00 72.11 LIG-0.34  N 
ATOM     23 H    THR C 762      16.497 -16.430  19.393  1.00 72.11 LIG 0.16  HD
BRANCH 22 24
ATOM     24  CA  THR C 762      15.597 -16.043  21.102  1.00 75.13 LIG 0.21  C 
BRANCH 24 25
ATOM     25  C   THR C 762      17.021 -15.893  21.630  1.00 73.09 LIG 0.20  C 
ATOM     26 OXT  THR C 762      17.933 -16.544  21.124  1.00 76.95 LIG-0.65  OA
ATOM     27 O    THR C 762      17.307 -15.131  22.554  1.00 68.26 LIG-0.65  OA
ENDBRANCH 24 25
BRANCH 24 28
ATOM     28  CB  THR C 762      14.850 -17.078  21.972  1.00 77.67 LIG 0.15  C 
ATOM     29  CG2 THR C 762      15.073 -16.784  23.445  1.00 76.40 LIG 0.04  C 
BRANCH 28 30
ATOM     30 OG1  THR C 762      13.446 -17.027  21.697  1.00 80.43 LIG-0.39  OA
ATOM     31 HG1  THR C 762      13.301 -16.472  21.084  1.00 80.43 LIG 0.21  HD
ENDBRANCH 28 30
ENDBRANCH 24 28
ENDBRANCH 22 24
ENDBRANCH 19 20
ENDBRANCH 3 19
TORSDOF 11
ENDMDL
MODEL 30
USER: ADFR SOLUTION from run 162
USER: SCORE 7.368028 LL:  -0.651 LR:  -6.906 RR:   0.000 FEB:  -3.624
USER: RMSD 3.398675
USER: SEED 161
USER: STATUS no improvement in best in 21 clusters for 5 generations
USER: GENES 13
USER: genes 0 Translation |==|  0.27680 0.48267 0.34823
USER: genes 1 Rotation |==|  0.57741 0.49876 0.22721 0.91181
USER: genes 2 Torsion [N]-C--CA-[N] |==|  0.21025
USER: genes 3 Torsion [C]-CA--CB-[CG] |==|  0.47716
USER: genes 4 Torsion [CA]-CB--CG-[CD] |==|  0.32184
USER: genes 5 Torsion [CB]-CG--CD-[NE] |==|  0.07560
USER: genes 6 Torsion [CG]-CD--NE-[CZ] |==|  0.28956
USER: genes 7 Torsion [C]-N--CA-[C] |==|  0.84671
USER: genes 8 Torsion [N]-CA--C-[N] |==|  0.93821
USER: genes 9 Torsion [C]-N--CA-[C] |==|  0.15807
USER: genes 10 Torsion [N]-CA--C-[OXT] |==|  0.74176
USER: genes 11 Torsion [N]-CA--CB-[OG1] |==|  0.96823
USER: genes 12 Torsion [CA]-CB--OG1-[HG1] |==|  0.33708
ROOT
ATOM      1  C   ARG C 760      13.438 -17.227  15.018  1.00 56.34 LIG 0.26  C 
ATOM      2 O    ARG C 760      13.566 -16.265  15.769  1.00 53.76 LIG-0.27  OA
ATOM      3  N   GLY C 761      12.931 -18.390  15.417  1.00 59.89 LIG-0.35  N 
ATOM      4 H    GLY C 761      13.018 -19.126  14.981  1.00 59.89 LIG 0.16  HD
ENDROOT
BRANCH 1 5
ATOM      5  CA  ARG C 760      13.870 -17.132  13.554  1.00 61.16 LIG 0.40  C 
ATOM      6  N   ARG C 760      12.694 -17.006  12.696  1.00 59.95 LIG 0.61  N 
BRANCH 5 7
ATOM      7  CB  ARG C 760      14.822 -15.957  13.329  1.00 63.40 LIG 0.05  C 
BRANCH 7 8
ATOM      8  CG  ARG C 760      15.446 -15.916  11.949  1.00 63.69 LIG 0.02  C 
BRANCH 8 9
ATOM      9  CD  ARG C 760      15.003 -14.678  11.187  1.00 63.30 LIG 0.14  C 
BRANCH 9 10
ATOM     10  NE  ARG C 760      14.663 -13.584  12.091  1.00 65.15 LIG-0.23  N 
ATOM     11  CZ  ARG C 760      15.435 -12.524  12.312  1.00 66.46 LIG 0.67  C 
ATOM     12  NH1 ARG C 760      16.600 -12.400  11.688  1.00 66.43 LIG-0.23  N 
ATOM     13  NH2 ARG C 760      15.038 -11.582  13.156  1.00 66.89 LIG-0.23  N 
ATOM     14 2HH1 ARG C 760      17.095 -11.713  11.834  1.00 66.43 LIG 0.17  HD
ATOM     15 1HH1 ARG C 760      16.859 -13.008  11.137  1.00 66.43 LIG 0.17  HD
ATOM     16 2HH2 ARG C 760      15.537 -10.896  13.299  1.00 66.89 LIG 0.17  HD
ATOM     17 1HH2 ARG C 760      14.283 -11.657  13.559  1.00 66.89 LIG 0.17  HD
ATOM     18 HE   ARG C 760      13.913 -13.627  12.509  1.00 65.15 LIG 0.18  HD
ENDBRANCH 9 10
ENDBRANCH 8 9
ENDBRANCH 7 8
ENDBRANCH 5 7
ENDBRANCH 1 5
BRANCH 3 19
ATOM     19  CA  GLY C 761      12.172 -18.507  16.651  1.00 62.83 LIG 0.23  C 
BRANCH 19 20
ATOM     20  C   GLY C 761      12.765 -18.051  17.976  1.00 67.24 LIG 0.24  C 
ATOM     21 O    GLY C 761      12.038 -17.756  18.925  1.00 65.14 LIG-0.27  OA
ATOM     22  N   THR C 762      14.095 -17.993  18.016  1.00 72.11 LIG-0.34  N 
ATOM     23 H    THR C 762      14.576 -17.922  17.307  1.00 72.11 LIG 0.16  HD
BRANCH 22 24
ATOM     24  CA  THR C 762      14.893 -18.042  19.247  1.00 75.13 LIG 0.21  C 
BRANCH 24 25
ATOM     25  C   THR C 762      14.533 -19.333  19.977  1.00 73.09 LIG 0.20  C 
ATOM     26 OXT  THR C 762      13.650 -19.326  20.832  1.00 76.95 LIG-0.65  OA
ATOM     27 O    THR C 762      15.092 -20.405  19.741  1.00 68.26 LIG-0.65  OA
ENDBRANCH 24 25
BRANCH 24 28
ATOM     28  CB  THR C 762      14.665 -16.850  20.202  1.00 77.67 LIG 0.15  C 
ATOM     29  CG2 THR C 762      15.997 -16.270  20.645  1.00 76.40 LIG 0.04  C 
BRANCH 28 30
ATOM     30 OG1  THR C 762      13.913 -15.828  19.539  1.00 80.43 LIG-0.39  OA
ATOM     31 HG1  THR C 762      13.205 -15.679  19.966  1.00 80.43 LIG 0.21  HD
ENDBRANCH 28 30
ENDBRANCH 24 28
ENDBRANCH 22 24
ENDBRANCH 19 20
ENDBRANCH 3 19
TORSDOF 11
ENDMDL
MODEL 31
USER: ADFR SOLUTION from run 134
USER: SCORE 6.914978 LL:  -0.639 LR:  -6.870 RR:   0.000 FEB:  -3.589
USER: RMSD 4.854987
USER: SEED 133
USER: STATUS no improvement in best in 27 clusters for 5 generations
USER: GENES 13
USER: genes 0 Translation |==|  0.27216 0.49998 0.39653
USER: genes 1 Rotation |==|  0.47906 0.56232 0.58349 0.98858
USER: genes 2 Torsion [N]-C--CA-[N] |==|  0.90796
USER: genes 3 Torsion [C]-CA--CB-[CG] |==|  0.16948
USER: genes 4 Torsion [CA]-CB--CG-[CD] |==|  0.26085
USER: genes 5 Torsion [CB]-CG--CD-[NE] |==|  0.90184
USER: genes 6 Torsion [CG]-CD--NE-[CZ] |==|  0.35188
USER: genes 7 Torsion [C]-N--CA-[C] |==|  0.78333
USER: genes 8 Torsion [N]-CA--C-[N] |==|  0.67217
USER: genes 9 Torsion [C]-N--CA-[C] |==|  0.52886
USER: genes 10 Torsion [N]-CA--C-[OXT] |==|  0.92818
USER: genes 11 Torsion [N]-CA--CB-[OG1] |==|  0.87766
USER: genes 12 Torsion [CA]-CB--OG1-[HG1] |==|  0.91338
ROOT
ATOM      1  C   ARG C 760      13.358 -17.006  15.996  1.00 56.34 LIG 0.26  C 
ATOM      2 O    ARG C 760      12.386 -16.633  16.645  1.00 53.76 LIG-0.27  OA
ATOM      3  N   GLY C 761      14.498 -17.389  16.562  1.00 59.89 LIG-0.35  N 
ATOM      4 H    GLY C 761      15.245 -17.456  16.140  1.00 59.89 LIG 0.16  HD
ENDROOT
BRANCH 1 5
ATOM      5  CA  ARG C 760      13.302 -17.044  14.468  1.00 61.16 LIG 0.40  C 
ATOM      6  N   ARG C 760      14.619 -16.733  13.916  1.00 59.95 LIG 0.61  N 
BRANCH 5 7
ATOM      7  CB  ARG C 760      12.819 -18.402  13.961  1.00 63.40 LIG 0.05  C 
BRANCH 7 8
ATOM      8  CG  ARG C 760      11.424 -18.777  14.418  1.00 63.69 LIG 0.02  C 
BRANCH 8 9
ATOM      9  CD  ARG C 760      10.385 -18.374  13.384  1.00 63.30 LIG 0.14  C 
BRANCH 9 10
ATOM     10  NE  ARG C 760      10.745 -17.124  12.720  1.00 65.15 LIG-0.23  N 
ATOM     11  CZ  ARG C 760      10.822 -16.968  11.402  1.00 66.46 LIG 0.67  C 
ATOM     12  NH1 ARG C 760      10.555 -17.983  10.590  1.00 66.43 LIG-0.23  N 
ATOM     13  NH2 ARG C 760      11.161 -15.792  10.895  1.00 66.89 LIG-0.23  N 
ATOM     14 2HH1 ARG C 760      10.605 -17.877   9.738  1.00 66.43 LIG 0.17  HD
ATOM     15 1HH1 ARG C 760      10.331 -18.747  10.915  1.00 66.43 LIG 0.17  HD
ATOM     16 2HH2 ARG C 760      11.210 -15.690  10.042  1.00 66.89 LIG 0.17  HD
ATOM     17 1HH2 ARG C 760      11.331 -15.132  11.418  1.00 66.89 LIG 0.17  HD
ATOM     18 HE   ARG C 760      10.920 -16.444  13.215  1.00 65.15 LIG 0.18  HD
ENDBRANCH 9 10
ENDBRANCH 8 9
ENDBRANCH 7 8
ENDBRANCH 5 7
ENDBRANCH 1 5
BRANCH 3 19
ATOM     19  CA  GLY C 761      14.572 -17.733  17.972  1.00 62.83 LIG 0.23  C 
BRANCH 19 20
ATOM     20  C   GLY C 761      14.614 -16.648  19.037  1.00 67.24 LIG 0.24  C 
ATOM     21 O    GLY C 761      13.682 -15.854  19.168  1.00 65.14 LIG-0.27  OA
ATOM     22  N   THR C 762      15.715 -16.626  19.787  1.00 72.11 LIG-0.34  N 
ATOM     23 H    THR C 762      16.457 -16.974  19.527  1.00 72.11 LIG 0.16  HD
BRANCH 22 24
ATOM     24  CA  THR C 762      15.801 -16.023  21.122  1.00 75.13 LIG 0.21  C 
BRANCH 24 25
ATOM     25  C   THR C 762      17.275 -15.982  21.514  1.00 73.09 LIG 0.20  C 
ATOM     26 OXT  THR C 762      18.060 -16.793  21.027  1.00 76.95 LIG-0.65  OA
ATOM     27 O    THR C 762      17.726 -15.155  22.307  1.00 68.26 LIG-0.65  OA
ENDBRANCH 24 25
BRANCH 24 28
ATOM     28  CB  THR C 762      15.015 -16.781  22.216  1.00 77.67 LIG 0.15  C 
ATOM     29  CG2 THR C 762      14.835 -15.898  23.438  1.00 76.40 LIG 0.04  C 
BRANCH 28 30
ATOM     30 OG1  THR C 762      13.725 -17.155  21.722  1.00 80.43 LIG-0.39  OA
ATOM     31 HG1  THR C 762      13.462 -16.585  21.164  1.00 80.43 LIG 0.21  HD
ENDBRANCH 28 30
ENDBRANCH 24 28
ENDBRANCH 22 24
ENDBRANCH 19 20
ENDBRANCH 3 19
TORSDOF 11
ENDMDL
MODEL 32
USER: ADFR SOLUTION from run 59
USER: SCORE 7.141577 LL:  -0.570 LR:  -6.863 RR:   0.000 FEB:  -3.582
USER: RMSD 4.120433
USER: SEED 58
USER: STATUS no improvement in best in 29 clusters for 5 generations
USER: GENES 13
USER: genes 0 Translation |==|  0.26705 0.46196 0.44889
USER: genes 1 Rotation |==|  0.31285 0.60368 0.16445 0.80270
USER: genes 2 Torsion [N]-C--CA-[N] |==|  0.37398
USER: genes 3 Torsion [C]-CA--CB-[CG] |==|  0.78854
USER: genes 4 Torsion [CA]-CB--CG-[CD] |==|  0.72712
USER: genes 5 Torsion [CB]-CG--CD-[NE] |==|  0.34112
USER: genes 6 Torsion [CG]-CD--NE-[CZ] |==|  0.26521
USER: genes 7 Torsion [C]-N--CA-[C] |==|  0.41673
USER: genes 8 Torsion [N]-CA--C-[N] |==|  0.52532
USER: genes 9 Torsion [C]-N--CA-[C] |==|  0.55356
USER: genes 10 Torsion [N]-CA--C-[OXT] |==|  0.39983
USER: genes 11 Torsion [N]-CA--CB-[OG1] |==|  0.70396
USER: genes 12 Torsion [CA]-CB--OG1-[HG1] |==|  0.86298
ROOT
ATOM      1  C   ARG C 760      13.270 -17.491  17.056  1.00 56.34 LIG 0.26  C 
ATOM      2 O    ARG C 760      14.025 -16.623  16.629  1.00 53.76 LIG-0.27  OA
ATOM      3  N   GLY C 761      13.349 -17.969  18.294  1.00 59.89 LIG-0.35  N 
ATOM      4 H    GLY C 761      12.980 -18.702  18.550  1.00 59.89 LIG 0.16  HD
ENDROOT
BRANCH 1 5
ATOM      5  CA  ARG C 760      12.179 -18.080  16.161  1.00 61.16 LIG 0.40  C 
ATOM      6  N   ARG C 760      11.483 -17.007  15.454  1.00 59.95 LIG 0.61  N 
BRANCH 5 7
ATOM      7  CB  ARG C 760      12.759 -19.085  15.165  1.00 63.40 LIG 0.05  C 
BRANCH 7 8
ATOM      8  CG  ARG C 760      13.490 -18.454  13.998  1.00 63.69 LIG 0.02  C 
BRANCH 8 9
ATOM      9  CD  ARG C 760      12.596 -18.377  12.771  1.00 63.30 LIG 0.14  C 
BRANCH 9 10
ATOM     10  NE  ARG C 760      12.464 -17.006  12.288  1.00 65.15 LIG-0.23  N 
ATOM     11  CZ  ARG C 760      13.204 -16.475  11.319  1.00 66.46 LIG 0.67  C 
ATOM     12  NH1 ARG C 760      14.134 -17.201  10.711  1.00 66.43 LIG-0.23  N 
ATOM     13  NH2 ARG C 760      13.008 -15.217  10.953  1.00 66.89 LIG-0.23  N 
ATOM     14 2HH1 ARG C 760      14.609 -16.853  10.085  1.00 66.43 LIG 0.17  HD
ATOM     15 1HH1 ARG C 760      14.261 -18.020  10.944  1.00 66.43 LIG 0.17  HD
ATOM     16 2HH2 ARG C 760      13.486 -14.873  10.326  1.00 66.89 LIG 0.17  HD
ATOM     17 1HH2 ARG C 760      12.405 -14.745  11.342  1.00 66.89 LIG 0.17  HD
ATOM     18 HE   ARG C 760      11.867 -16.508  12.655  1.00 65.15 LIG 0.18  HD
ENDBRANCH 9 10
ENDBRANCH 8 9
ENDBRANCH 7 8
ENDBRANCH 5 7
ENDBRANCH 1 5
BRANCH 3 19
ATOM     19  CA  GLY C 761      14.084 -17.270  19.336  1.00 62.83 LIG 0.23  C 
BRANCH 19 20
ATOM     20  C   GLY C 761      13.664 -17.381  20.794  1.00 67.24 LIG 0.24  C 
ATOM     21 O    GLY C 761      12.799 -18.184  21.142  1.00 65.14 LIG-0.27  OA
ATOM     22  N   THR C 762      14.288 -16.554  21.631  1.00 72.11 LIG-0.34  N 
ATOM     23 H    THR C 762      14.664 -15.827  21.368  1.00 72.11 LIG 0.16  HD
BRANCH 22 24
ATOM     24  CA  THR C 762      14.411 -16.771  23.077  1.00 75.13 LIG 0.21  C 
BRANCH 24 25
ATOM     25  C   THR C 762      14.740 -15.426  23.718  1.00 73.09 LIG 0.20  C 
ATOM     26 OXT  THR C 762      14.276 -15.144  24.821  1.00 76.95 LIG-0.65  OA
ATOM     27 O    THR C 762      15.468 -14.595  23.174  1.00 68.26 LIG-0.65  OA
ENDBRANCH 24 25
BRANCH 24 28
ATOM     28  CB  THR C 762      15.499 -17.793  23.478  1.00 77.67 LIG 0.15  C 
ATOM     29  CG2 THR C 762      16.342 -17.242  24.614  1.00 76.40 LIG 0.04  C 
BRANCH 28 30
ATOM     30 OG1  THR C 762      14.889 -19.016  23.905  1.00 80.43 LIG-0.39  OA
ATOM     31 HG1  THR C 762      14.288 -18.847  24.467  1.00 80.43 LIG 0.21  HD
ENDBRANCH 28 30
ENDBRANCH 24 28
ENDBRANCH 22 24
ENDBRANCH 19 20
ENDBRANCH 3 19
TORSDOF 11
ENDMDL
MODEL 33
USER: ADFR SOLUTION from run 108
USER: SCORE 7.166283 LL:  -0.660 LR:  -6.842 RR:   0.000 FEB:  -3.560
USER: RMSD 4.374256
USER: SEED 107
USER: STATUS no improvement in best in 28 clusters for 5 generations
USER: GENES 13
USER: genes 0 Translation |==|  0.30765 0.52510 0.37094
USER: genes 1 Rotation |==|  0.54330 0.48300 0.62009 0.98313
USER: genes 2 Torsion [N]-C--CA-[N] |==|  0.81637
USER: genes 3 Torsion [C]-CA--CB-[CG] |==|  0.33437
USER: genes 4 Torsion [CA]-CB--CG-[CD] |==|  0.81797
USER: genes 5 Torsion [CB]-CG--CD-[NE] |==|  0.20721
USER: genes 6 Torsion [CG]-CD--NE-[CZ] |==|  0.58734
USER: genes 7 Torsion [C]-N--CA-[C] |==|  0.75633
USER: genes 8 Torsion [N]-CA--C-[N] |==|  0.62218
USER: genes 9 Torsion [C]-N--CA-[C] |==|  0.16271
USER: genes 10 Torsion [N]-CA--C-[OXT] |==|  0.73378
USER: genes 11 Torsion [N]-CA--CB-[OG1] |==|  0.88561
USER: genes 12 Torsion [CA]-CB--OG1-[HG1] |==|  0.37896
ROOT
ATOM      1  C   ARG C 760      13.970 -16.686  15.478  1.00 56.34 LIG 0.26  C 
ATOM      2 O    ARG C 760      12.826 -16.631  15.918  1.00 53.76 LIG-0.27  OA
ATOM      3  N   GLY C 761      14.996 -17.138  16.193  1.00 59.89 LIG-0.35  N 
ATOM      4 H    GLY C 761      15.820 -16.999  15.991  1.00 59.89 LIG 0.16  HD
ENDROOT
BRANCH 1 5
ATOM      5  CA  ARG C 760      14.277 -16.221  14.054  1.00 61.16 LIG 0.40  C 
ATOM      6  N   ARG C 760      15.129 -15.034  14.091  1.00 59.95 LIG 0.61  N 
BRANCH 5 7
ATOM      7  CB  ARG C 760      14.943 -17.328  13.237  1.00 63.40 LIG 0.05  C 
BRANCH 7 8
ATOM      8  CG  ARG C 760      14.175 -17.736  11.996  1.00 63.69 LIG 0.02  C 
BRANCH 8 9
ATOM      9  CD  ARG C 760      12.846 -18.376  12.363  1.00 63.30 LIG 0.14  C 
BRANCH 9 10
ATOM     10  NE  ARG C 760      11.876 -17.381  12.813  1.00 65.15 LIG-0.23  N 
ATOM     11  CZ  ARG C 760      10.924 -17.611  13.712  1.00 66.46 LIG 0.67  C 
ATOM     12  NH1 ARG C 760      10.809 -18.807  14.275  1.00 66.43 LIG-0.23  N 
ATOM     13  NH2 ARG C 760      10.089 -16.641  14.053  1.00 66.89 LIG-0.23  N 
ATOM     14 2HH1 ARG C 760      10.191 -18.951  14.856  1.00 66.43 LIG 0.17  HD
ATOM     15 1HH1 ARG C 760      11.352 -19.439  14.059  1.00 66.43 LIG 0.17  HD
ATOM     16 2HH2 ARG C 760       9.473 -16.789  14.634  1.00 66.89 LIG 0.17  HD
ATOM     17 1HH2 ARG C 760      10.163 -15.864  13.693  1.00 66.89 LIG 0.17  HD
ATOM     18 HE   ARG C 760      11.925 -16.593  12.473  1.00 65.15 LIG 0.18  HD
ENDBRANCH 9 10
ENDBRANCH 8 9
ENDBRANCH 7 8
ENDBRANCH 5 7
ENDBRANCH 1 5
BRANCH 3 19
ATOM     19  CA  GLY C 761      14.797 -17.921  17.401  1.00 62.83 LIG 0.23  C 
BRANCH 19 20
ATOM     20  C   GLY C 761      14.627 -17.241  18.751  1.00 67.24 LIG 0.24  C 
ATOM     21 O    GLY C 761      13.907 -16.250  18.873  1.00 65.14 LIG-0.27  OA
ATOM     22  N   THR C 762      15.310 -17.788  19.756  1.00 72.11 LIG-0.34  N 
ATOM     23 H    THR C 762      16.005 -18.277  19.628  1.00 72.11 LIG 0.16  HD
BRANCH 22 24
ATOM     24  CA  THR C 762      14.971 -17.630  21.175  1.00 75.13 LIG 0.21  C 
BRANCH 24 25
ATOM     25  C   THR C 762      13.552 -18.155  21.370  1.00 73.09 LIG 0.20  C 
ATOM     26 OXT  THR C 762      12.603 -17.374  21.354  1.00 76.95 LIG-0.65  OA
ATOM     27 O    THR C 762      13.307 -19.350  21.540  1.00 68.26 LIG-0.65  OA
ENDBRANCH 24 25
BRANCH 24 28
ATOM     28  CB  THR C 762      15.038 -16.174  21.687  1.00 77.67 LIG 0.15  C 
ATOM     29  CG2 THR C 762      15.134 -16.156  23.203  1.00 76.40 LIG 0.04  C 
BRANCH 28 30
ATOM     30 OG1  THR C 762      16.187 -15.515  21.143  1.00 80.43 LIG-0.39  OA
ATOM     31 HG1  THR C 762      15.973 -14.743  20.891  1.00 80.43 LIG 0.21  HD
ENDBRANCH 28 30
ENDBRANCH 24 28
ENDBRANCH 22 24
ENDBRANCH 19 20
ENDBRANCH 3 19
TORSDOF 11
ENDMDL
MODEL 34
USER: ADFR SOLUTION from run 14
USER: SCORE 7.284654 LL:  -0.757 LR:  -6.809 RR:   0.000 FEB:  -3.528
USER: RMSD 3.158597
USER: SEED 318960
USER: STATUS no improvement in best in 16 clusters for 5 generations
USER: GENES 13
USER: genes 0 Translation |==|  0.24645 0.49237 0.37217
USER: genes 1 Rotation |==|  0.36521 0.57114 0.13891 0.81046
USER: genes 2 Torsion [N]-C--CA-[N] |==|  0.21575
USER: genes 3 Torsion [C]-CA--CB-[CG] |==|  0.12974
USER: genes 4 Torsion [CA]-CB--CG-[CD] |==|  0.62046
USER: genes 5 Torsion [CB]-CG--CD-[NE] |==|  0.07684
USER: genes 6 Torsion [CG]-CD--NE-[CZ] |==|  0.57083
USER: genes 7 Torsion [C]-N--CA-[C] |==|  0.57795
USER: genes 8 Torsion [N]-CA--C-[N] |==|  0.51656
USER: genes 9 Torsion [C]-N--CA-[C] |==|  0.83192
USER: genes 10 Torsion [N]-CA--C-[OXT] |==|  0.92532
USER: genes 11 Torsion [N]-CA--CB-[OG1] |==|  0.85492
USER: genes 12 Torsion [CA]-CB--OG1-[HG1] |==|  0.26911
ROOT
ATOM      1  C   ARG C 760      12.914 -17.103  15.502  1.00 56.34 LIG 0.26  C 
ATOM      2 O    ARG C 760      13.782 -16.256  15.317  1.00 53.76 LIG-0.27  OA
ATOM      3  N   GLY C 761      12.651 -17.615  16.701  1.00 59.89 LIG-0.35  N 
ATOM      4 H    GLY C 761      12.205 -18.339  16.827  1.00 59.89 LIG 0.16  HD
ENDROOT
BRANCH 1 5
ATOM      5  CA  ARG C 760      12.079 -17.627  14.334  1.00 61.16 LIG 0.40  C 
ATOM      6  N   ARG C 760      10.756 -17.006  14.352  1.00 59.95 LIG 0.61  N 
BRANCH 5 7
ATOM      7  CB  ARG C 760      12.770 -17.368  12.995  1.00 63.40 LIG 0.05  C 
BRANCH 7 8
ATOM      8  CG  ARG C 760      14.238 -17.742  12.970  1.00 63.69 LIG 0.02  C 
BRANCH 8 9
ATOM      9  CD  ARG C 760      15.061 -16.672  12.272  1.00 63.30 LIG 0.14  C 
BRANCH 9 10
ATOM     10  NE  ARG C 760      14.438 -15.356  12.385  1.00 65.15 LIG-0.23  N 
ATOM     11  CZ  ARG C 760      14.623 -14.360  11.524  1.00 66.46 LIG 0.67  C 
ATOM     12  NH1 ARG C 760      15.411 -14.523  10.469  1.00 66.43 LIG-0.23  N 
ATOM     13  NH2 ARG C 760      14.013 -13.199  11.716  1.00 66.89 LIG-0.23  N 
ATOM     14 2HH1 ARG C 760      15.526 -13.875   9.915  1.00 66.43 LIG 0.17  HD
ATOM     15 1HH1 ARG C 760      15.806 -15.276  10.339  1.00 66.43 LIG 0.17  HD
ATOM     16 2HH2 ARG C 760      14.131 -12.554  11.160  1.00 66.89 LIG 0.17  HD
ATOM     17 1HH2 ARG C 760      13.499 -13.091  12.396  1.00 66.89 LIG 0.17  HD
ATOM     18 HE   ARG C 760      13.916 -15.216  13.054  1.00 65.15 LIG 0.18  HD
ENDBRANCH 9 10
ENDBRANCH 8 9
ENDBRANCH 7 8
ENDBRANCH 5 7
ENDBRANCH 1 5
BRANCH 3 19
ATOM     19  CA  GLY C 761      13.109 -16.972  17.922  1.00 62.83 LIG 0.23  C 
BRANCH 19 20
ATOM     20  C   GLY C 761      13.384 -17.787  19.176  1.00 67.24 LIG 0.24  C 
ATOM     21 O    GLY C 761      13.324 -19.016  19.156  1.00 65.14 LIG-0.27  OA
ATOM     22  N   THR C 762      13.679 -17.078  20.265  1.00 72.11 LIG-0.34  N 
ATOM     23 H    THR C 762      13.451 -16.254  20.354  1.00 72.11 LIG 0.16  HD
BRANCH 22 24
ATOM     24  CA  THR C 762      14.413 -17.599  21.424  1.00 75.13 LIG 0.21  C 
BRANCH 24 25
ATOM     25  C   THR C 762      13.604 -18.760  21.995  1.00 73.09 LIG 0.20  C 
ATOM     26 OXT  THR C 762      12.386 -18.793  21.837  1.00 76.95 LIG-0.65  OA
ATOM     27 O    THR C 762      14.126 -19.687  22.616  1.00 68.26 LIG-0.65  OA
ENDBRANCH 24 25
BRANCH 24 28
ATOM     28  CB  THR C 762      14.655 -16.562  22.543  1.00 77.67 LIG 0.15  C 
ATOM     29  CG2 THR C 762      15.579 -17.140  23.601  1.00 76.40 LIG 0.04  C 
BRANCH 28 30
ATOM     30 OG1  THR C 762      15.257 -15.383  21.997  1.00 80.43 LIG-0.39  OA
ATOM     31 HG1  THR C 762      14.663 -14.809  21.849  1.00 80.43 LIG 0.21  HD
ENDBRANCH 28 30
ENDBRANCH 24 28
ENDBRANCH 22 24
ENDBRANCH 19 20
ENDBRANCH 3 19
TORSDOF 11
ENDMDL
MODEL 35
USER: ADFR SOLUTION from run 141
USER: SCORE 8.426707 LL:  -2.109 LR:  -6.791 RR:   0.000 FEB:  -3.510
USER: RMSD 4.415527
USER: SEED 140
USER: STATUS no improvement in best in 19 clusters for 5 generations
USER: GENES 13
USER: genes 0 Translation |==|  0.29267 0.48991 0.54412
USER: genes 1 Rotation |==|  0.38789 0.48528 0.30997 0.94844
USER: genes 2 Torsion [N]-C--CA-[N] |==|  0.43112
USER: genes 3 Torsion [C]-CA--CB-[CG] |==|  0.94983
USER: genes 4 Torsion [CA]-CB--CG-[CD] |==|  0.26575
USER: genes 5 Torsion [CB]-CG--CD-[NE] |==|  0.51297
USER: genes 6 Torsion [CG]-CD--NE-[CZ] |==|  0.17561
USER: genes 7 Torsion [C]-N--CA-[C] |==|  0.66542
USER: genes 8 Torsion [N]-CA--C-[N] |==|  0.40847
USER: genes 9 Torsion [C]-N--CA-[C] |==|  0.63920
USER: genes 10 Torsion [N]-CA--C-[OXT] |==|  0.16309
USER: genes 11 Torsion [N]-CA--CB-[OG1] |==|  0.93598
USER: genes 12 Torsion [CA]-CB--OG1-[HG1] |==|  0.13687
ROOT
ATOM      1  C   ARG C 760      13.712 -17.135  18.984  1.00 56.34 LIG 0.26  C 
ATOM      2 O    ARG C 760      13.553 -15.919  18.931  1.00 53.76 LIG-0.27  OA
ATOM      3  N   GLY C 761      13.818 -17.798  20.132  1.00 59.89 LIG-0.35  N 
ATOM      4 H    GLY C 761      14.128 -18.597  20.197  1.00 59.89 LIG 0.16  HD
ENDROOT
BRANCH 1 5
ATOM      5  CA  ARG C 760      13.802 -17.962  17.702  1.00 61.16 LIG 0.40  C 
ATOM      6  N   ARG C 760      13.111 -17.271  16.615  1.00 59.95 LIG 0.61  N 
BRANCH 5 7
ATOM      7  CB  ARG C 760      15.256 -18.238  17.318  1.00 63.40 LIG 0.05  C 
BRANCH 7 8
ATOM      8  CG  ARG C 760      16.261 -17.320  17.984  1.00 63.69 LIG 0.02  C 
BRANCH 8 9
ATOM      9  CD  ARG C 760      16.839 -17.961  19.235  1.00 63.30 LIG 0.14  C 
BRANCH 9 10
ATOM     10  NE  ARG C 760      17.726 -17.045  19.946  1.00 65.15 LIG-0.23  N 
ATOM     11  CZ  ARG C 760      17.340 -15.895  20.492  1.00 66.46 LIG 0.67  C 
ATOM     12  NH1 ARG C 760      16.072 -15.512  20.420  1.00 66.43 LIG-0.23  N 
ATOM     13  NH2 ARG C 760      18.224 -15.130  21.116  1.00 66.89 LIG-0.23  N 
ATOM     14 2HH1 ARG C 760      15.827 -14.768  20.775  1.00 66.43 LIG 0.17  HD
ATOM     15 1HH1 ARG C 760      15.494 -16.007  20.018  1.00 66.43 LIG 0.17  HD
ATOM     16 2HH2 ARG C 760      17.975 -14.387  21.469  1.00 66.89 LIG 0.17  HD
ATOM     17 1HH2 ARG C 760      19.045 -15.377  21.168  1.00 66.89 LIG 0.17  HD
ATOM     18 HE   ARG C 760      18.555 -17.264  20.018  1.00 65.15 LIG 0.18  HD
ENDBRANCH 9 10
ENDBRANCH 8 9
ENDBRANCH 7 8
ENDBRANCH 5 7
ENDBRANCH 1 5
BRANCH 3 19
ATOM     19  CA  GLY C 761      13.406 -17.207  21.395  1.00 62.83 LIG 0.23  C 
BRANCH 19 20
ATOM     20  C   GLY C 761      14.401 -17.029  22.532  1.00 67.24 LIG 0.24  C 
ATOM     21 O    GLY C 761      15.312 -17.838  22.707  1.00 65.14 LIG-0.27  OA
ATOM     22  N   THR C 762      14.201 -15.961  23.302  1.00 72.11 LIG-0.34  N 
ATOM     23 H    THR C 762      13.437 -15.571  23.362  1.00 72.11 LIG 0.16  HD
BRANCH 22 24
ATOM     24  CA  THR C 762      15.235 -15.327  24.129  1.00 75.13 LIG 0.21  C 
BRANCH 24 25
ATOM     25  C   THR C 762      14.663 -15.163  25.534  1.00 73.09 LIG 0.20  C 
ATOM     26 OXT  THR C 762      14.282 -16.151  26.158  1.00 76.95 LIG-0.65  OA
ATOM     27 O    THR C 762      14.569 -14.066  26.087  1.00 68.26 LIG-0.65  OA
ENDBRANCH 24 25
BRANCH 24 28
ATOM     28  CB  THR C 762      15.701 -13.945  23.617  1.00 77.67 LIG 0.15  C 
ATOM     29  CG2 THR C 762      17.192 -13.776  23.849  1.00 76.40 LIG 0.04  C 
BRANCH 28 30
ATOM     30 OG1  THR C 762      15.434 -13.826  22.216  1.00 80.43 LIG-0.39  OA
ATOM     31 HG1  THR C 762      14.640 -14.051  22.062  1.00 80.43 LIG 0.21  HD
ENDBRANCH 28 30
ENDBRANCH 24 28
ENDBRANCH 22 24
ENDBRANCH 19 20
ENDBRANCH 3 19
TORSDOF 11
ENDMDL
MODEL 36
USER: ADFR SOLUTION from run 36
USER: SCORE 7.121422 LL:  -0.681 LR:  -6.780 RR:   0.000 FEB:  -3.499
USER: RMSD 3.580039
USER: SEED 35
USER: STATUS no improvement in best in 20 clusters for 5 generations
USER: GENES 13
USER: genes 0 Translation |==|  0.30489 0.49504 0.55444
USER: genes 1 Rotation |==|  0.38392 0.51482 0.35044 0.96253
USER: genes 2 Torsion [N]-C--CA-[N] |==|  0.28241
USER: genes 3 Torsion [C]-CA--CB-[CG] |==|  0.23459
USER: genes 4 Torsion [CA]-CB--CG-[CD] |==|  0.49087
USER: genes 5 Torsion [CB]-CG--CD-[NE] |==|  0.91091
USER: genes 6 Torsion [CG]-CD--NE-[CZ] |==|  0.33228
USER: genes 7 Torsion [C]-N--CA-[C] |==|  0.74588
USER: genes 8 Torsion [N]-CA--C-[N] |==|  0.62978
USER: genes 9 Torsion [C]-N--CA-[C] |==|  0.59533
USER: genes 10 Torsion [N]-CA--C-[OXT] |==|  0.90831
USER: genes 11 Torsion [N]-CA--CB-[OG1] |==|  0.74969
USER: genes 12 Torsion [CA]-CB--OG1-[HG1] |==|  0.75326
ROOT
ATOM      1  C   ARG C 760      13.922 -17.069  19.193  1.00 56.34 LIG 0.26  C 
ATOM      2 O    ARG C 760      13.594 -15.887  19.224  1.00 53.76 LIG-0.27  OA
ATOM      3  N   GLY C 761      14.291 -17.742  20.279  1.00 59.89 LIG-0.35  N 
ATOM      4 H    GLY C 761      14.713 -18.491  20.259  1.00 59.89 LIG 0.16  HD
ENDROOT
BRANCH 1 5
ATOM      5  CA  ARG C 760      13.929 -17.839  17.873  1.00 61.16 LIG 0.40  C 
ATOM      6  N   ARG C 760      12.565 -18.227  17.517  1.00 59.95 LIG 0.61  N 
BRANCH 5 7
ATOM      7  CB  ARG C 760      14.557 -17.014  16.750  1.00 63.40 LIG 0.05  C 
BRANCH 7 8
ATOM      8  CG  ARG C 760      16.069 -17.097  16.687  1.00 63.69 LIG 0.02  C 
BRANCH 8 9
ATOM      9  CD  ARG C 760      16.609 -16.318  15.499  1.00 63.30 LIG 0.14  C 
BRANCH 9 10
ATOM     10  NE  ARG C 760      15.678 -16.338  14.375  1.00 65.15 LIG-0.23  N 
ATOM     11  CZ  ARG C 760      15.126 -15.256  13.835  1.00 66.46 LIG 0.67  C 
ATOM     12  NH1 ARG C 760      15.413 -14.050  14.309  1.00 66.43 LIG-0.23  N 
ATOM     13  NH2 ARG C 760      14.288 -15.379  12.816  1.00 66.89 LIG-0.23  N 
ATOM     14 2HH1 ARG C 760      15.054 -13.353  13.956  1.00 66.43 LIG 0.17  HD
ATOM     15 1HH1 ARG C 760      15.959 -13.965  14.968  1.00 66.43 LIG 0.17  HD
ATOM     16 2HH2 ARG C 760      13.931 -14.680  12.466  1.00 66.89 LIG 0.17  HD
ATOM     17 1HH2 ARG C 760      14.102 -16.158  12.505  1.00 66.89 LIG 0.17  HD
ATOM     18 HE   ARG C 760      15.473 -17.103  14.038  1.00 65.15 LIG 0.18  HD
ENDBRANCH 9 10
ENDBRANCH 8 9
ENDBRANCH 7 8
ENDBRANCH 5 7
ENDBRANCH 1 5
BRANCH 3 19
ATOM     19  CA  GLY C 761      13.999 -17.251  21.616  1.00 62.83 LIG 0.23  C 
BRANCH 19 20
ATOM     20  C   GLY C 761      14.996 -16.373  22.358  1.00 67.24 LIG 0.24  C 
ATOM     21 O    GLY C 761      15.538 -15.422  21.797  1.00 65.14 LIG-0.27  OA
ATOM     22  N   THR C 762      15.228 -16.718  23.624  1.00 72.11 LIG-0.34  N 
ATOM     23 H    THR C 762      15.081 -17.511  23.920  1.00 72.11 LIG 0.16  HD
BRANCH 22 24
ATOM     24  CA  THR C 762      15.751 -15.809  24.650  1.00 75.13 LIG 0.21  C 
BRANCH 24 25
ATOM     25  C   THR C 762      16.641 -16.629  25.580  1.00 73.09 LIG 0.20  C 
ATOM     26 OXT  THR C 762      16.369 -17.806  25.805  1.00 76.95 LIG-0.65  OA
ATOM     27 O    THR C 762      17.642 -16.159  26.122  1.00 68.26 LIG-0.65  OA
ENDBRANCH 24 25
BRANCH 24 28
ATOM     28  CB  THR C 762      14.663 -15.107  25.494  1.00 77.67 LIG 0.15  C 
ATOM     29  CG2 THR C 762      15.185 -14.824  26.891  1.00 76.40 LIG 0.04  C 
BRANCH 28 30
ATOM     30 OG1  THR C 762      14.290 -13.868  24.879  1.00 80.43 LIG-0.39  OA
ATOM     31 HG1  THR C 762      14.790 -13.255  25.161  1.00 80.43 LIG 0.21  HD
ENDBRANCH 28 30
ENDBRANCH 24 28
ENDBRANCH 22 24
ENDBRANCH 19 20
ENDBRANCH 3 19
TORSDOF 11
ENDMDL
MODEL 37
USER: ADFR SOLUTION from run 90
USER: SCORE 7.142115 LL:  -0.852 LR:  -6.785 RR:   0.000 FEB:  -3.503
USER: RMSD 3.716236
USER: SEED 89
USER: STATUS no improvement in best in 13 clusters for 5 generations
USER: GENES 13
USER: genes 0 Translation |==|  0.29679 0.48390 0.52484
USER: genes 1 Rotation |==|  0.43741 0.51332 0.31517 0.96016
USER: genes 2 Torsion [N]-C--CA-[N] |==|  0.35844
USER: genes 3 Torsion [C]-CA--CB-[CG] |==|  0.69867
USER: genes 4 Torsion [CA]-CB--CG-[CD] |==|  0.70798
USER: genes 5 Torsion [CB]-CG--CD-[NE] |==|  0.38901
USER: genes 6 Torsion [CG]-CD--NE-[CZ] |==|  0.58576
USER: genes 7 Torsion [C]-N--CA-[C] |==|  0.77576
USER: genes 8 Torsion [N]-CA--C-[N] |==|  0.14258
USER: genes 9 Torsion [C]-N--CA-[C] |==|  0.14729
USER: genes 10 Torsion [N]-CA--C-[OXT] |==|  0.09191
USER: genes 11 Torsion [N]-CA--CB-[OG1] |==|  0.92766
USER: genes 12 Torsion [CA]-CB--OG1-[HG1] |==|  0.88238
ROOT
ATOM      1  C   ARG C 760      13.783 -17.211  18.594  1.00 56.34 LIG 0.26  C 
ATOM      2 O    ARG C 760      13.606 -16.019  18.825  1.00 53.76 LIG-0.27  OA
ATOM      3  N   GLY C 761      13.936 -18.117  19.556  1.00 59.89 LIG-0.35  N 
ATOM      4 H    GLY C 761      14.259 -18.903  19.427  1.00 59.89 LIG 0.16  HD
ENDROOT
BRANCH 1 5
ATOM      5  CA  ARG C 760      13.842 -17.722  17.154  1.00 61.16 LIG 0.40  C 
ATOM      6  N   ARG C 760      12.677 -17.245  16.410  1.00 59.95 LIG 0.61  N 
BRANCH 5 7
ATOM      7  CB  ARG C 760      15.132 -17.285  16.460  1.00 63.40 LIG 0.05  C 
BRANCH 7 8
ATOM      8  CG  ARG C 760      14.939 -16.219  15.401  1.00 63.69 LIG 0.02  C 
BRANCH 8 9
ATOM      9  CD  ARG C 760      15.055 -16.810  14.005  1.00 63.30 LIG 0.14  C 
BRANCH 9 10
ATOM     10  NE  ARG C 760      14.066 -16.238  13.096  1.00 65.15 LIG-0.23  N 
ATOM     11  CZ  ARG C 760      13.521 -16.888  12.072  1.00 66.46 LIG 0.67  C 
ATOM     12  NH1 ARG C 760      13.859 -18.146  11.820  1.00 66.43 LIG-0.23  N 
ATOM     13  NH2 ARG C 760      12.632 -16.279  11.301  1.00 66.89 LIG-0.23  N 
ATOM     14 2HH1 ARG C 760      13.504 -18.562  11.156  1.00 66.43 LIG 0.17  HD
ATOM     15 1HH1 ARG C 760      14.433 -18.546  12.320  1.00 66.43 LIG 0.17  HD
ATOM     16 2HH2 ARG C 760      12.279 -16.698  10.638  1.00 66.89 LIG 0.17  HD
ATOM     17 1HH2 ARG C 760      12.408 -15.465  11.463  1.00 66.89 LIG 0.17  HD
ATOM     18 HE   ARG C 760      13.819 -15.426  13.233  1.00 65.15 LIG 0.18  HD
ENDBRANCH 9 10
ENDBRANCH 8 9
ENDBRANCH 7 8
ENDBRANCH 5 7
ENDBRANCH 1 5
BRANCH 3 19
ATOM     19  CA  GLY C 761      13.558 -17.839  20.932  1.00 62.83 LIG 0.23  C 
BRANCH 19 20
ATOM     20  C   GLY C 761      14.480 -17.047  21.847  1.00 67.24 LIG 0.24  C 
ATOM     21 O    GLY C 761      14.781 -17.474  22.962  1.00 65.14 LIG-0.27  OA
ATOM     22  N   THR C 762      14.911 -15.886  21.357  1.00 72.11 LIG-0.34  N 
ATOM     23 H    THR C 762      14.497 -15.466  20.731  1.00 72.11 LIG 0.16  HD
BRANCH 22 24
ATOM     24  CA  THR C 762      16.121 -15.190  21.810  1.00 75.13 LIG 0.21  C 
BRANCH 24 25
ATOM     25  C   THR C 762      17.278 -16.181  21.732  1.00 73.09 LIG 0.20  C 
ATOM     26 OXT  THR C 762      17.291 -17.038  20.850  1.00 76.95 LIG-0.65  OA
ATOM     27 O    THR C 762      18.222 -16.160  22.523  1.00 68.26 LIG-0.65  OA
ENDBRANCH 24 25
BRANCH 24 28
ATOM     28  CB  THR C 762      16.036 -14.637  23.250  1.00 77.67 LIG 0.15  C 
ATOM     29  CG2 THR C 762      16.817 -13.339  23.360  1.00 76.40 LIG 0.04  C 
BRANCH 28 30
ATOM     30 OG1  THR C 762      14.671 -14.385  23.599  1.00 80.43 LIG-0.39  OA
ATOM     31 HG1  THR C 762      14.278 -14.025  22.950  1.00 80.43 LIG 0.21  HD
ENDBRANCH 28 30
ENDBRANCH 24 28
ENDBRANCH 22 24
ENDBRANCH 19 20
ENDBRANCH 3 19
TORSDOF 11
ENDMDL
MODEL 38
USER: ADFR SOLUTION from run 36
USER: SCORE 7.221356 LL:  -0.693 LR:  -6.685 RR:   0.000 FEB:  -3.404
USER: RMSD 3.996319
USER: SEED 35
USER: STATUS no improvement in best in 20 clusters for 5 generations
USER: GENES 13
USER: genes 0 Translation |==|  0.32558 0.50090 0.28031
USER: genes 1 Rotation |==|  0.53884 0.47903 0.81143 0.88867
USER: genes 2 Torsion [N]-C--CA-[N] |==|  0.55712
USER: genes 3 Torsion [C]-CA--CB-[CG] |==|  0.23794
USER: genes 4 Torsion [CA]-CB--CG-[CD] |==|  0.52072
USER: genes 5 Torsion [CB]-CG--CD-[NE] |==|  0.08803
USER: genes 6 Torsion [CG]-CD--NE-[CZ] |==|  0.34469
USER: genes 7 Torsion [C]-N--CA-[C] |==|  0.79531
USER: genes 8 Torsion [N]-CA--C-[N] |==|  0.50556
USER: genes 9 Torsion [C]-N--CA-[C] |==|  0.20165
USER: genes 10 Torsion [N]-CA--C-[OXT] |==|  0.72110
USER: genes 11 Torsion [N]-CA--CB-[OG1] |==|  0.89806
USER: genes 12 Torsion [CA]-CB--OG1-[HG1] |==|  0.45818
ROOT
ATOM      1  C   ARG C 760      14.279 -16.994  13.642  1.00 56.34 LIG 0.26  C 
ATOM      2 O    ARG C 760      13.451 -17.835  13.978  1.00 53.76 LIG-0.27  OA
ATOM      3  N   GLY C 761      15.222 -16.543  14.464  1.00 59.89 LIG-0.35  N 
ATOM      4 H    GLY C 761      15.673 -15.824  14.328  1.00 59.89 LIG 0.16  HD
ENDROOT
BRANCH 1 5
ATOM      5  CA  ARG C 760      14.261 -16.408  12.230  1.00 61.16 LIG 0.40  C 
ATOM      6  N   ARG C 760      12.944 -16.605  11.628  1.00 59.95 LIG 0.61  N 
BRANCH 5 7
ATOM      7  CB  ARG C 760      14.627 -14.924  12.238  1.00 63.40 LIG 0.05  C 
BRANCH 7 8
ATOM      8  CG  ARG C 760      16.116 -14.649  12.193  1.00 63.69 LIG 0.02  C 
BRANCH 8 9
ATOM      9  CD  ARG C 760      16.404 -13.170  12.388  1.00 63.30 LIG 0.14  C 
BRANCH 9 10
ATOM     10  NE  ARG C 760      15.413 -12.540  13.255  1.00 65.15 LIG-0.23  N 
ATOM     11  CZ  ARG C 760      15.704 -11.871  14.367  1.00 66.46 LIG 0.67  C 
ATOM     12  NH1 ARG C 760      16.965 -11.732  14.755  1.00 66.43 LIG-0.23  N 
ATOM     13  NH2 ARG C 760      14.731 -11.336  15.090  1.00 66.89 LIG-0.23  N 
ATOM     14 2HH1 ARG C 760      17.148 -11.298  15.475  1.00 66.43 LIG 0.17  HD
ATOM     15 1HH1 ARG C 760      17.600 -12.074  14.287  1.00 66.43 LIG 0.17  HD
ATOM     16 2HH2 ARG C 760      14.918 -10.904  15.809  1.00 66.89 LIG 0.17  HD
ATOM     17 1HH2 ARG C 760      13.913 -11.422  14.840  1.00 66.89 LIG 0.17  HD
ATOM     18 HE   ARG C 760      14.586 -12.605  13.031  1.00 65.15 LIG 0.18  HD
ENDBRANCH 9 10
ENDBRANCH 8 9
ENDBRANCH 7 8
ENDBRANCH 5 7
ENDBRANCH 1 5
BRANCH 3 19
ATOM     19  CA  GLY C 761      15.570 -17.250  15.686  1.00 62.83 LIG 0.23  C 
BRANCH 19 20
ATOM     20  C   GLY C 761      14.642 -17.225  16.892  1.00 67.24 LIG 0.24  C 
ATOM     21 O    GLY C 761      13.565 -16.631  16.847  1.00 65.14 LIG-0.27  OA
ATOM     22  N   THR C 762      15.085 -17.874  17.967  1.00 72.11 LIG-0.34  N 
ATOM     23 H    THR C 762      15.920 -18.037  18.096  1.00 72.11 LIG 0.16  HD
BRANCH 22 24
ATOM     24  CA  THR C 762      14.228 -18.382  19.044  1.00 75.13 LIG 0.21  C 
BRANCH 24 25
ATOM     25  C   THR C 762      13.478 -19.595  18.501  1.00 73.09 LIG 0.20  C 
ATOM     26 OXT  THR C 762      12.312 -19.476  18.130  1.00 76.95 LIG-0.65  OA
ATOM     27 O    THR C 762      13.998 -20.708  18.409  1.00 68.26 LIG-0.65  OA
ENDBRANCH 24 25
BRANCH 24 28
ATOM     28  CB  THR C 762      13.201 -17.359  19.578  1.00 77.67 LIG 0.15  C 
ATOM     29  CG2 THR C 762      12.782 -17.725  20.991  1.00 76.40 LIG 0.04  C 
BRANCH 28 30
ATOM     30 OG1  THR C 762      13.777 -16.048  19.591  1.00 80.43 LIG-0.39  OA
ATOM     31 HG1  THR C 762      13.168 -15.476  19.680  1.00 80.43 LIG 0.21  HD
ENDBRANCH 28 30
ENDBRANCH 24 28
ENDBRANCH 22 24
ENDBRANCH 19 20
ENDBRANCH 3 19
TORSDOF 11
ENDMDL
MODEL 39
USER: ADFR SOLUTION from run 22
USER: SCORE 7.168554 LL:  -0.690 LR:  -6.683 RR:   0.000 FEB:  -3.402
USER: RMSD 4.560011
USER: SEED 21
USER: STATUS no improvement in best in 32 clusters for 5 generations
USER: GENES 13
USER: genes 0 Translation |==|  0.36402 0.55623 0.34692
USER: genes 1 Rotation |==|  0.62183 0.56815 0.61511 0.96611
USER: genes 2 Torsion [N]-C--CA-[N] |==|  0.80739
USER: genes 3 Torsion [C]-CA--CB-[CG] |==|  0.55352
USER: genes 4 Torsion [CA]-CB--CG-[CD] |==|  0.70403
USER: genes 5 Torsion [CB]-CG--CD-[NE] |==|  0.11488
USER: genes 6 Torsion [CG]-CD--NE-[CZ] |==|  0.66532
USER: genes 7 Torsion [C]-N--CA-[C] |==|  0.81423
USER: genes 8 Torsion [N]-CA--C-[N] |==|  0.34605
USER: genes 9 Torsion [C]-N--CA-[C] |==|  0.58212
USER: genes 10 Torsion [N]-CA--C-[OXT] |==|  0.89866
USER: genes 11 Torsion [N]-CA--CB-[OG1] |==|  0.77503
USER: genes 12 Torsion [CA]-CB--OG1-[HG1] |==|  0.75389
ROOT
ATOM      1  C   ARG C 760      14.942 -16.289  14.991  1.00 56.34 LIG 0.26  C 
ATOM      2 O    ARG C 760      14.068 -16.424  15.841  1.00 53.76 LIG-0.27  OA
ATOM      3  N   GLY C 761      16.163 -16.798  15.127  1.00 59.89 LIG-0.35  N 
ATOM      4 H    GLY C 761      16.841 -16.551  14.658  1.00 59.89 LIG 0.16  HD
ENDROOT
BRANCH 1 5
ATOM      5  CA  ARG C 760      14.663 -15.506  13.708  1.00 61.16 LIG 0.40  C 
ATOM      6  N   ARG C 760      15.413 -14.251  13.719  1.00 59.95 LIG 0.61  N 
BRANCH 5 7
ATOM      7  CB  ARG C 760      15.015 -16.326  12.467  1.00 63.40 LIG 0.05  C 
BRANCH 7 8
ATOM      8  CG  ARG C 760      15.209 -15.502  11.210  1.00 63.69 LIG 0.02  C 
BRANCH 8 9
ATOM      9  CD  ARG C 760      14.035 -15.672  10.260  1.00 63.30 LIG 0.14  C 
BRANCH 9 10
ATOM     10  NE  ARG C 760      12.762 -15.677  10.975  1.00 65.15 LIG-0.23  N 
ATOM     11  CZ  ARG C 760      11.894 -16.684  10.957  1.00 66.46 LIG 0.67  C 
ATOM     12  NH1 ARG C 760      12.157 -17.785  10.266  1.00 66.43 LIG-0.23  N 
ATOM     13  NH2 ARG C 760      10.761 -16.591  11.639  1.00 66.89 LIG-0.23  N 
ATOM     14 2HH1 ARG C 760      11.593 -18.433  10.258  1.00 66.43 LIG 0.17  HD
ATOM     15 1HH1 ARG C 760      12.894 -17.850   9.825  1.00 66.43 LIG 0.17  HD
ATOM     16 2HH2 ARG C 760      10.199 -17.242  11.629  1.00 66.89 LIG 0.17  HD
ATOM     17 1HH2 ARG C 760      10.588 -15.881  12.091  1.00 66.89 LIG 0.17  HD
ATOM     18 HE   ARG C 760      12.560 -14.981  11.439  1.00 65.15 LIG 0.18  HD
ENDBRANCH 9 10
ENDBRANCH 8 9
ENDBRANCH 7 8
ENDBRANCH 5 7
ENDBRANCH 1 5
BRANCH 3 19
ATOM     19  CA  GLY C 761      16.453 -17.835  16.103  1.00 62.83 LIG 0.23  C 
BRANCH 19 20
ATOM     20  C   GLY C 761      16.377 -17.545  17.594  1.00 67.24 LIG 0.24  C 
ATOM     21 O    GLY C 761      17.032 -16.631  18.094  1.00 65.14 LIG-0.27  OA
ATOM     22  N   THR C 762      15.571 -18.346  18.291  1.00 72.11 LIG-0.34  N 
ATOM     23 H    THR C 762      15.346 -19.128  18.014  1.00 72.11 LIG 0.16  HD
BRANCH 22 24
ATOM     24  CA  THR C 762      14.979 -18.004  19.589  1.00 75.13 LIG 0.21  C 
BRANCH 24 25
ATOM     25  C   THR C 762      14.786 -19.305  20.363  1.00 73.09 LIG 0.20  C 
ATOM     26 OXT  THR C 762      14.457 -20.329  19.766  1.00 76.95 LIG-0.65  OA
ATOM     27 O    THR C 762      14.953 -19.382  21.581  1.00 68.26 LIG-0.65  OA
ENDBRANCH 24 25
BRANCH 24 28
ATOM     28  CB  THR C 762      13.621 -17.273  19.498  1.00 77.67 LIG 0.15  C 
ATOM     29  CG2 THR C 762      12.858 -17.420  20.802  1.00 76.40 LIG 0.04  C 
BRANCH 28 30
ATOM     30 OG1  THR C 762      13.830 -15.881  19.238  1.00 80.43 LIG-0.39  OA
ATOM     31 HG1  THR C 762      13.914 -15.470  19.966  1.00 80.43 LIG 0.21  HD
ENDBRANCH 28 30
ENDBRANCH 24 28
ENDBRANCH 22 24
ENDBRANCH 19 20
ENDBRANCH 3 19
TORSDOF 11
ENDMDL
MODEL 40
USER: ADFR SOLUTION from run 111
USER: SCORE 7.223677 LL:  -0.590 LR:  -6.684 RR:   0.000 FEB:  -3.403
USER: RMSD 5.132277
USER: SEED 110
USER: STATUS no improvement in best in 24 clusters for 5 generations
USER: GENES 13
USER: genes 0 Translation |==|  0.30096 0.49541 0.56368
USER: genes 1 Rotation |==|  0.36640 0.52410 0.30059 0.93795
USER: genes 2 Torsion [N]-C--CA-[N] |==|  0.12084
USER: genes 3 Torsion [C]-CA--CB-[CG] |==|  0.47598
USER: genes 4 Torsion [CA]-CB--CG-[CD] |==|  0.31890
USER: genes 5 Torsion [CB]-CG--CD-[NE] |==|  0.28986
USER: genes 6 Torsion [CG]-CD--NE-[CZ] |==|  0.34932
USER: genes 7 Torsion [C]-N--CA-[C] |==|  0.77185
USER: genes 8 Torsion [N]-CA--C-[N] |==|  0.02773
USER: genes 9 Torsion [C]-N--CA-[C] |==|  0.21184
USER: genes 10 Torsion [N]-CA--C-[OXT] |==|  0.88012
USER: genes 11 Torsion [N]-CA--CB-[OG1] |==|  0.67696
USER: genes 12 Torsion [CA]-CB--OG1-[HG1] |==|  0.16000
ROOT
ATOM      1  C   ARG C 760      13.855 -17.064  19.381  1.00 56.34 LIG 0.26  C 
ATOM      2 O    ARG C 760      13.793 -15.841  19.313  1.00 53.76 LIG-0.27  OA
ATOM      3  N   GLY C 761      14.090 -17.712  20.518  1.00 59.89 LIG-0.35  N 
ATOM      4 H    GLY C 761      14.338 -18.534  20.559  1.00 59.89 LIG 0.16  HD
ENDROOT
BRANCH 1 5
ATOM      5  CA  ARG C 760      13.665 -17.921  18.128  1.00 61.16 LIG 0.40  C 
ATOM      6  N   ARG C 760      12.809 -19.065  18.434  1.00 59.95 LIG 0.61  N 
BRANCH 5 7
ATOM      7  CB  ARG C 760      13.073 -17.105  16.979  1.00 63.40 LIG 0.05  C 
BRANCH 7 8
ATOM      8  CG  ARG C 760      13.048 -17.830  15.649  1.00 63.69 LIG 0.02  C 
BRANCH 8 9
ATOM      9  CD  ARG C 760      11.621 -18.077  15.189  1.00 63.30 LIG 0.14  C 
BRANCH 9 10
ATOM     10  NE  ARG C 760      11.235 -17.161  14.119  1.00 65.15 LIG-0.23  N 
ATOM     11  CZ  ARG C 760      10.752 -17.541  12.941  1.00 66.46 LIG 0.67  C 
ATOM     12  NH1 ARG C 760      10.583 -18.829  12.670  1.00 66.43 LIG-0.23  N 
ATOM     13  NH2 ARG C 760      10.433 -16.631  12.032  1.00 66.89 LIG-0.23  N 
ATOM     14 2HH1 ARG C 760      10.269 -19.070  11.906  1.00 66.43 LIG 0.17  HD
ATOM     15 1HH1 ARG C 760      10.786 -19.424  13.258  1.00 66.43 LIG 0.17  HD
ATOM     16 2HH2 ARG C 760      10.120 -16.876  11.270  1.00 66.89 LIG 0.17  HD
ATOM     17 1HH2 ARG C 760      10.538 -15.796  12.206  1.00 66.89 LIG 0.17  HD
ATOM     18 HE   ARG C 760      11.326 -16.318  14.262  1.00 65.15 LIG 0.18  HD
ENDBRANCH 9 10
ENDBRANCH 8 9
ENDBRANCH 7 8
ENDBRANCH 5 7
ENDBRANCH 1 5
BRANCH 3 19
ATOM     19  CA  GLY C 761      13.940 -17.063  21.810  1.00 62.83 LIG 0.23  C 
BRANCH 19 20
ATOM     20  C   GLY C 761      15.051 -16.191  22.376  1.00 67.24 LIG 0.24  C 
ATOM     21 O    GLY C 761      15.004 -15.785  23.537  1.00 65.14 LIG-0.27  OA
ATOM     22  N   THR C 762      16.042 -15.909  21.532  1.00 72.11 LIG-0.34  N 
ATOM     23 H    THR C 762      15.945 -15.946  20.678  1.00 72.11 LIG 0.16  HD
BRANCH 22 24
ATOM     24  CA  THR C 762      17.394 -15.509  21.939  1.00 75.13 LIG 0.21  C 
BRANCH 24 25
ATOM     25  C   THR C 762      18.121 -16.764  22.412  1.00 73.09 LIG 0.20  C 
ATOM     26 OXT  THR C 762      17.540 -17.575  23.129  1.00 76.95 LIG-0.65  OA
ATOM     27 O    THR C 762      19.286 -17.012  22.097  1.00 68.26 LIG-0.65  OA
ENDBRANCH 24 25
BRANCH 24 28
ATOM     28  CB  THR C 762      17.433 -14.456  23.070  1.00 77.67 LIG 0.15  C 
ATOM     29  CG2 THR C 762      18.249 -14.975  24.241  1.00 76.40 LIG 0.04  C 
BRANCH 28 30
ATOM     30 OG1  THR C 762      18.028 -13.245  22.591  1.00 80.43 LIG-0.39  OA
ATOM     31 HG1  THR C 762      17.594 -12.963  21.929  1.00 80.43 LIG 0.21  HD
ENDBRANCH 28 30
ENDBRANCH 24 28
ENDBRANCH 22 24
ENDBRANCH 19 20
ENDBRANCH 3 19
TORSDOF 11
ENDMDL
MODEL 41
USER: ADFR SOLUTION from run 94
USER: SCORE 8.052370 LL:  -1.849 LR:  -6.674 RR:   0.000 FEB:  -3.393
USER: RMSD 6.377983
USER: SEED 93
USER: STATUS no improvement in best in 15 clusters for 5 generations
USER: GENES 13
USER: genes 0 Translation |==|  0.30737 0.49616 0.53101
USER: genes 1 Rotation |==|  0.32124 0.70162 0.37123 0.90102
USER: genes 2 Torsion [N]-C--CA-[N] |==|  0.77031
USER: genes 3 Torsion [C]-CA--CB-[CG] |==|  0.19342
USER: genes 4 Torsion [CA]-CB--CG-[CD] |==|  0.62336
USER: genes 5 Torsion [CB]-CG--CD-[NE] |==|  0.25934
USER: genes 6 Torsion [CG]-CD--NE-[CZ] |==|  0.45074
USER: genes 7 Torsion [C]-N--CA-[C] |==|  0.11111
USER: genes 8 Torsion [N]-CA--C-[N] |==|  0.66447
USER: genes 9 Torsion [C]-N--CA-[C] |==|  0.37289
USER: genes 10 Torsion [N]-CA--C-[OXT] |==|  0.88297
USER: genes 11 Torsion [N]-CA--CB-[OG1] |==|  0.76187
USER: genes 12 Torsion [CA]-CB--OG1-[HG1] |==|  0.08371
ROOT
ATOM      1  C   ARG C 760      13.965 -17.055  18.719  1.00 56.34 LIG 0.26  C 
ATOM      2 O    ARG C 760      13.913 -15.834  18.832  1.00 53.76 LIG-0.27  OA
ATOM      3  N   GLY C 761      14.922 -17.789  19.278  1.00 59.89 LIG-0.35  N 
ATOM      4 H    GLY C 761      15.099 -18.600  19.052  1.00 59.89 LIG 0.16  HD
ENDROOT
BRANCH 1 5
ATOM      5  CA  ARG C 760      12.910 -17.805  17.905  1.00 61.16 LIG 0.40  C 
ATOM      6  N   ARG C 760      13.412 -18.059  16.556  1.00 59.95 LIG 0.61  N 
BRANCH 5 7
ATOM      7  CB  ARG C 760      12.515 -19.118  18.581  1.00 63.40 LIG 0.05  C 
BRANCH 7 8
ATOM      8  CG  ARG C 760      11.723 -18.945  19.862  1.00 63.69 LIG 0.02  C 
BRANCH 8 9
ATOM      9  CD  ARG C 760      12.234 -19.876  20.949  1.00 63.30 LIG 0.14  C 
BRANCH 9 10
ATOM     10  NE  ARG C 760      13.231 -19.221  21.792  1.00 65.15 LIG-0.23  N 
ATOM     11  CZ  ARG C 760      13.598 -19.652  22.995  1.00 66.46 LIG 0.67  C 
ATOM     12  NH1 ARG C 760      13.058 -20.750  23.508  1.00 66.43 LIG-0.23  N 
ATOM     13  NH2 ARG C 760      14.511 -18.985  23.686  1.00 66.89 LIG-0.23  N 
ATOM     14 2HH1 ARG C 760      13.299 -21.025  24.286  1.00 66.43 LIG 0.17  HD
ATOM     15 1HH1 ARG C 760      12.467 -21.188  23.061  1.00 66.43 LIG 0.17  HD
ATOM     16 2HH2 ARG C 760      14.749 -19.262  24.464  1.00 66.89 LIG 0.17  HD
ATOM     17 1HH2 ARG C 760      14.865 -18.275  23.355  1.00 66.89 LIG 0.17  HD
ATOM     18 HE   ARG C 760      13.606 -18.509  21.489  1.00 65.15 LIG 0.18  HD
ENDBRANCH 9 10
ENDBRANCH 8 9
ENDBRANCH 7 8
ENDBRANCH 5 7
ENDBRANCH 1 5
BRANCH 3 19
ATOM     19  CA  GLY C 761      15.762 -17.264  20.342  1.00 62.83 LIG 0.23  C 
BRANCH 19 20
ATOM     20  C   GLY C 761      15.174 -16.391  21.440  1.00 67.24 LIG 0.24  C 
ATOM     21 O    GLY C 761      14.268 -16.807  22.161  1.00 65.14 LIG-0.27  OA
ATOM     22  N   THR C 762      15.702 -15.172  21.544  1.00 72.11 LIG-0.34  N 
ATOM     23 H    THR C 762      16.112 -14.790  20.892  1.00 72.11 LIG 0.16  HD
BRANCH 22 24
ATOM     24  CA  THR C 762      15.653 -14.345  22.755  1.00 75.13 LIG 0.21  C 
BRANCH 24 25
ATOM     25  C   THR C 762      17.050 -13.770  22.975  1.00 73.09 LIG 0.20  C 
ATOM     26 OXT  THR C 762      18.038 -14.483  22.811  1.00 76.95 LIG-0.65  OA
ATOM     27 O    THR C 762      17.238 -12.600  23.311  1.00 68.26 LIG-0.65  OA
ENDBRANCH 24 25
BRANCH 24 28
ATOM     28  CB  THR C 762      15.222 -15.106  24.029  1.00 77.67 LIG 0.15  C 
ATOM     29  CG2 THR C 762      15.783 -14.421  25.263  1.00 76.40 LIG 0.04  C 
BRANCH 28 30
ATOM     30 OG1  THR C 762      13.793 -15.132  24.124  1.00 80.43 LIG-0.39  OA
ATOM     31 HG1  THR C 762      13.462 -15.123  23.352  1.00 80.43 LIG 0.21  HD
ENDBRANCH 28 30
ENDBRANCH 24 28
ENDBRANCH 22 24
ENDBRANCH 19 20
ENDBRANCH 3 19
TORSDOF 11
ENDMDL
MODEL 42
USER: ADFR SOLUTION from run 71
USER: SCORE 7.226310 LL:  -0.780 LR:  -6.621 RR:   0.000 FEB:  -3.340
USER: RMSD 3.484254
USER: SEED 70
USER: STATUS no improvement in best in 22 clusters for 5 generations
USER: GENES 13
USER: genes 0 Translation |==|  0.22750 0.44445 0.39866
USER: genes 1 Rotation |==|  0.55049 0.55948 0.22366 0.90933
USER: genes 2 Torsion [N]-C--CA-[N] |==|  0.25911
USER: genes 3 Torsion [C]-CA--CB-[CG] |==|  0.37289
USER: genes 4 Torsion [CA]-CB--CG-[CD] |==|  0.31949
USER: genes 5 Torsion [CB]-CG--CD-[NE] |==|  0.09164
USER: genes 6 Torsion [CG]-CD--NE-[CZ] |==|  0.27468
USER: genes 7 Torsion [C]-N--CA-[C] |==|  0.81667
USER: genes 8 Torsion [N]-CA--C-[N] |==|  0.35781
USER: genes 9 Torsion [C]-N--CA-[C] |==|  0.15080
USER: genes 10 Torsion [N]-CA--C-[OXT] |==|  0.14153
USER: genes 11 Torsion [N]-CA--CB-[OG1] |==|  0.86611
USER: genes 12 Torsion [CA]-CB--OG1-[HG1] |==|  0.63940
ROOT
ATOM      1  C   ARG C 760      12.587 -17.714  16.039  1.00 56.34 LIG 0.26  C 
ATOM      2 O    ARG C 760      12.892 -16.782  16.776  1.00 53.76 LIG-0.27  OA
ATOM      3  N   GLY C 761      12.218 -18.906  16.499  1.00 59.89 LIG-0.35  N 
ATOM      4 H    GLY C 761      12.199 -19.620  16.022  1.00 59.89 LIG 0.16  HD
ENDROOT
BRANCH 1 5
ATOM      5  CA  ARG C 760      12.624 -17.546  14.520  1.00 61.16 LIG 0.40  C 
ATOM      6  N   ARG C 760      11.351 -17.006  14.048  1.00 59.95 LIG 0.61  N 
BRANCH 5 7
ATOM      7  CB  ARG C 760      13.779 -16.643  14.087  1.00 63.40 LIG 0.05  C 
BRANCH 7 8
ATOM      8  CG  ARG C 760      14.581 -17.174  12.916  1.00 63.69 LIG 0.02  C 
BRANCH 8 9
ATOM      9  CD  ARG C 760      14.439 -16.270  11.702  1.00 63.30 LIG 0.14  C 
BRANCH 9 10
ATOM     10  NE  ARG C 760      14.288 -14.870  12.090  1.00 65.15 LIG-0.23  N 
ATOM     11  CZ  ARG C 760      15.276 -13.981  12.094  1.00 66.46 LIG 0.67  C 
ATOM     12  NH1 ARG C 760      16.499 -14.335  11.722  1.00 66.43 LIG-0.23  N 
ATOM     13  NH2 ARG C 760      15.038 -12.731  12.466  1.00 66.89 LIG-0.23  N 
ATOM     14 2HH1 ARG C 760      17.135 -13.755  11.726  1.00 66.43 LIG 0.17  HD
ATOM     15 1HH1 ARG C 760      16.657 -15.144  11.476  1.00 66.43 LIG 0.17  HD
ATOM     16 2HH2 ARG C 760      15.676 -12.155  12.469  1.00 66.89 LIG 0.17  HD
ATOM     17 1HH2 ARG C 760      14.246 -12.497  12.705  1.00 66.89 LIG 0.17  HD
ATOM     18 HE   ARG C 760      13.507 -14.604  12.332  1.00 65.15 LIG 0.18  HD
ENDBRANCH 9 10
ENDBRANCH 8 9
ENDBRANCH 7 8
ENDBRANCH 5 7
ENDBRANCH 1 5
BRANCH 3 19
ATOM     19  CA  GLY C 761      11.807 -19.095  17.881  1.00 62.83 LIG 0.23  C 
BRANCH 19 20
ATOM     20  C   GLY C 761      12.798 -18.912  19.020  1.00 67.24 LIG 0.24  C 
ATOM     21 O    GLY C 761      13.884 -19.491  19.011  1.00 65.14 LIG-0.27  OA
ATOM     22  N   THR C 762      12.397 -18.105  20.001  1.00 72.11 LIG-0.34  N 
ATOM     23 H    THR C 762      11.567 -17.935  20.149  1.00 72.11 LIG 0.16  HD
BRANCH 22 24
ATOM     24  CA  THR C 762      13.298 -17.417  20.933  1.00 75.13 LIG 0.21  C 
BRANCH 24 25
ATOM     25  C   THR C 762      14.307 -16.631  20.101  1.00 73.09 LIG 0.20  C 
ATOM     26 OXT  THR C 762      13.913 -15.881  19.210  1.00 76.95 LIG-0.65  OA
ATOM     27 O    THR C 762      15.522 -16.709  20.287  1.00 68.26 LIG-0.65  OA
ENDBRANCH 24 25
BRANCH 24 28
ATOM     28  CB  THR C 762      14.067 -18.359  21.888  1.00 77.67 LIG 0.15  C 
ATOM     29  CG2 THR C 762      14.738 -17.555  22.988  1.00 76.40 LIG 0.04  C 
BRANCH 28 30
ATOM     30 OG1  THR C 762      13.163 -19.295  22.484  1.00 80.43 LIG-0.39  OA
ATOM     31 HG1  THR C 762      13.274 -19.300  23.317  1.00 80.43 LIG 0.21  HD
ENDBRANCH 28 30
ENDBRANCH 24 28
ENDBRANCH 22 24
ENDBRANCH 19 20
ENDBRANCH 3 19
TORSDOF 11
ENDMDL
MODEL 43
USER: ADFR SOLUTION from run 131
USER: SCORE 7.715351 LL:  -1.299 LR:  -6.605 RR:   0.000 FEB:  -3.324
USER: RMSD 3.882055
USER: SEED 130
USER: STATUS no improvement in best in 26 clusters for 5 generations
USER: GENES 13
USER: genes 0 Translation |==|  0.30311 0.47420 0.36529
USER: genes 1 Rotation |==|  0.36996 0.72419 0.45442 0.92515
USER: genes 2 Torsion [N]-C--CA-[N] |==|  0.49986
USER: genes 3 Torsion [C]-CA--CB-[CG] |==|  0.91880
USER: genes 4 Torsion [CA]-CB--CG-[CD] |==|  0.66916
USER: genes 5 Torsion [CB]-CG--CD-[NE] |==|  0.29937
USER: genes 6 Torsion [CG]-CD--NE-[CZ] |==|  0.30427
USER: genes 7 Torsion [C]-N--CA-[C] |==|  0.18889
USER: genes 8 Torsion [N]-CA--C-[N] |==|  0.99043
USER: genes 9 Torsion [C]-N--CA-[C] |==|  0.45722
USER: genes 10 Torsion [N]-CA--C-[OXT] |==|  0.97122
USER: genes 11 Torsion [N]-CA--CB-[OG1] |==|  0.07106
USER: genes 12 Torsion [CA]-CB--OG1-[HG1] |==|  0.47903
ROOT
ATOM      1  C   ARG C 760      13.892 -17.335  15.363  1.00 56.34 LIG 0.26  C 
ATOM      2 O    ARG C 760      13.660 -16.256  15.900  1.00 53.76 LIG-0.27  OA
ATOM      3  N   GLY C 761      15.019 -18.012  15.563  1.00 59.89 LIG-0.35  N 
ATOM      4 H    GLY C 761      15.291 -18.650  15.056  1.00 59.89 LIG 0.16  HD
ENDROOT
BRANCH 1 5
ATOM      5  CA  ARG C 760      12.872 -17.963  14.413  1.00 61.16 LIG 0.40  C 
ATOM      6  N   ARG C 760      11.697 -17.100  14.303  1.00 59.95 LIG 0.61  N 
BRANCH 5 7
ATOM      7  CB  ARG C 760      13.478 -18.214  13.032  1.00 63.40 LIG 0.05  C 
BRANCH 7 8
ATOM      8  CG  ARG C 760      14.581 -17.247  12.651  1.00 63.69 LIG 0.02  C 
BRANCH 8 9
ATOM      9  CD  ARG C 760      14.211 -16.465  11.401  1.00 63.30 LIG 0.14  C 
BRANCH 9 10
ATOM     10  NE  ARG C 760      13.896 -15.073  11.713  1.00 65.15 LIG-0.23  N 
ATOM     11  CZ  ARG C 760      14.661 -14.037  11.385  1.00 66.46 LIG 0.67  C 
ATOM     12  NH1 ARG C 760      15.795 -14.224  10.722  1.00 66.43 LIG-0.23  N 
ATOM     13  NH2 ARG C 760      14.288 -12.809  11.716  1.00 66.89 LIG-0.23  N 
ATOM     14 2HH1 ARG C 760      16.286 -13.550  10.512  1.00 66.43 LIG 0.17  HD
ATOM     15 1HH1 ARG C 760      16.039 -15.019  10.502  1.00 66.43 LIG 0.17  HD
ATOM     16 2HH2 ARG C 760      14.782 -12.138  11.504  1.00 66.89 LIG 0.17  HD
ATOM     17 1HH2 ARG C 760      13.552 -12.684  12.142  1.00 66.89 LIG 0.17  HD
ATOM     18 HE   ARG C 760      13.165 -14.914  12.137  1.00 65.15 LIG 0.18  HD
ENDBRANCH 9 10
ENDBRANCH 8 9
ENDBRANCH 7 8
ENDBRANCH 5 7
ENDBRANCH 1 5
BRANCH 3 19
ATOM     19  CA  GLY C 761      15.897 -17.717  16.683  1.00 62.83 LIG 0.23  C 
BRANCH 19 20
ATOM     20  C   GLY C 761      15.461 -18.004  18.112  1.00 67.24 LIG 0.24  C 
ATOM     21 O    GLY C 761      16.229 -17.820  19.055  1.00 65.14 LIG-0.27  OA
ATOM     22  N   THR C 762      14.218 -18.465  18.247  1.00 72.11 LIG-0.34  N 
ATOM     23 H    THR C 762      13.797 -18.851  17.605  1.00 72.11 LIG 0.16  HD
BRANCH 22 24
ATOM     24  CA  THR C 762      13.428 -18.376  19.480  1.00 75.13 LIG 0.21  C 
BRANCH 24 25
ATOM     25  C   THR C 762      11.973 -18.654  19.115  1.00 73.09 LIG 0.20  C 
ATOM     26 OXT  THR C 762      11.638 -18.706  17.933  1.00 76.95 LIG-0.65  OA
ATOM     27 O    THR C 762      11.101 -18.839  19.965  1.00 68.26 LIG-0.65  OA
ENDBRANCH 24 25
BRANCH 24 28
ATOM     28  CB  THR C 762      13.509 -17.006  20.191  1.00 77.67 LIG 0.15  C 
ATOM     29  CG2 THR C 762      14.587 -17.034  21.261  1.00 76.40 LIG 0.04  C 
BRANCH 28 30
ATOM     30 OG1  THR C 762      13.824 -15.980  19.243  1.00 80.43 LIG-0.39  OA
ATOM     31 HG1  THR C 762      13.766 -15.229  19.614  1.00 80.43 LIG 0.21  HD
ENDBRANCH 28 30
ENDBRANCH 24 28
ENDBRANCH 22 24
ENDBRANCH 19 20
ENDBRANCH 3 19
TORSDOF 11
ENDMDL
MODEL 44
USER: ADFR SOLUTION from run 183
USER: SCORE 7.122242 LL:  -0.738 LR:  -6.568 RR:   0.000 FEB:  -3.287
USER: RMSD 4.422767
USER: SEED 182
USER: STATUS no improvement in best in 36 clusters for 5 generations
USER: GENES 13
USER: genes 0 Translation |==|  0.31561 0.50540 0.34167
USER: genes 1 Rotation |==|  0.67883 0.49284 0.29328 0.91861
USER: genes 2 Torsion [N]-C--CA-[N] |==|  0.20604
USER: genes 3 Torsion [C]-CA--CB-[CG] |==|  0.41910
USER: genes 4 Torsion [CA]-CB--CG-[CD] |==|  0.33077
USER: genes 5 Torsion [CB]-CG--CD-[NE] |==|  0.95663
USER: genes 6 Torsion [CG]-CD--NE-[CZ] |==|  0.67465
USER: genes 7 Torsion [C]-N--CA-[C] |==|  0.82100
USER: genes 8 Torsion [N]-CA--C-[N] |==|  0.35268
USER: genes 9 Torsion [C]-N--CA-[C] |==|  0.13305
USER: genes 10 Torsion [N]-CA--C-[OXT] |==|  0.13473
USER: genes 11 Torsion [N]-CA--CB-[OG1] |==|  0.99271
USER: genes 12 Torsion [CA]-CB--OG1-[HG1] |==|  0.15566
ROOT
ATOM      1  C   ARG C 760      14.107 -16.937  14.885  1.00 56.34 LIG 0.26  C 
ATOM      2 O    ARG C 760      13.792 -16.281  15.872  1.00 53.76 LIG-0.27  OA
ATOM      3  N   GLY C 761      13.851 -18.237  14.772  1.00 59.89 LIG-0.35  N 
ATOM      4 H    GLY C 761      14.232 -18.753  14.200  1.00 59.89 LIG 0.16  HD
ENDROOT
BRANCH 1 5
ATOM      5  CA  ARG C 760      14.833 -16.276  13.713  1.00 61.16 LIG 0.40  C 
ATOM      6  N   ARG C 760      13.913 -16.111  12.589  1.00 59.95 LIG 0.61  N 
BRANCH 5 7
ATOM      7  CB  ARG C 760      15.428 -14.927  14.115  1.00 63.40 LIG 0.05  C 
BRANCH 7 8
ATOM      8  CG  ARG C 760      16.673 -14.540  13.342  1.00 63.69 LIG 0.02  C 
BRANCH 8 9
ATOM      9  CD  ARG C 760      16.456 -13.248  12.572  1.00 63.30 LIG 0.14  C 
BRANCH 9 10
ATOM     10  NE  ARG C 760      15.038 -12.913  12.472  1.00 65.15 LIG-0.23  N 
ATOM     11  CZ  ARG C 760      14.362 -12.835  11.330  1.00 66.46 LIG 0.67  C 
ATOM     12  NH1 ARG C 760      14.968 -13.076  10.174  1.00 66.43 LIG-0.23  N 
ATOM     13  NH2 ARG C 760      13.075 -12.521  11.344  1.00 66.89 LIG-0.23  N 
ATOM     14 2HH1 ARG C 760      14.526 -13.025   9.438  1.00 66.43 LIG 0.17  HD
ATOM     15 1HH1 ARG C 760      15.803 -13.284  10.161  1.00 66.43 LIG 0.17  HD
ATOM     16 2HH2 ARG C 760      12.637 -12.471  10.606  1.00 66.89 LIG 0.17  HD
ATOM     17 1HH2 ARG C 760      12.678 -12.368  12.091  1.00 66.89 LIG 0.17  HD
ATOM     18 HE   ARG C 760      14.612 -12.756  13.202  1.00 65.15 LIG 0.18  HD
ENDBRANCH 9 10
ENDBRANCH 8 9
ENDBRANCH 7 8
ENDBRANCH 5 7
ENDBRANCH 1 5
BRANCH 3 19
ATOM     19  CA  GLY C 761      12.881 -18.900  15.628  1.00 62.83 LIG 0.23  C 
BRANCH 19 20
ATOM     20  C   GLY C 761      13.108 -19.002  17.129  1.00 67.24 LIG 0.24  C 
ATOM     21 O    GLY C 761      14.153 -19.472  17.578  1.00 65.14 LIG-0.27  OA
ATOM     22  N   THR C 762      12.108 -18.560  17.889  1.00 72.11 LIG-0.34  N 
ATOM     23 H    THR C 762      11.300 -18.501  17.601  1.00 72.11 LIG 0.16  HD
BRANCH 22 24
ATOM     24  CA  THR C 762      12.252 -18.125  19.283  1.00 75.13 LIG 0.21  C 
BRANCH 24 25
ATOM     25  C   THR C 762      13.444 -17.175  19.348  1.00 73.09 LIG 0.20  C 
ATOM     26 OXT  THR C 762      13.538 -16.256  18.537  1.00 76.95 LIG-0.65  OA
ATOM     27 O    THR C 762      14.331 -17.283  20.195  1.00 68.26 LIG-0.65  OA
ENDBRANCH 24 25
BRANCH 24 28
ATOM     28  CB  THR C 762      12.478 -19.276  20.289  1.00 77.67 LIG 0.15  C 
ATOM     29  CG2 THR C 762      11.400 -19.257  21.359  1.00 76.40 LIG 0.04  C 
BRANCH 28 30
ATOM     30 OG1  THR C 762      12.433 -20.536  19.610  1.00 80.43 LIG-0.39  OA
ATOM     31 HG1  THR C 762      12.997 -20.539  18.989  1.00 80.43 LIG 0.21  HD
ENDBRANCH 28 30
ENDBRANCH 24 28
ENDBRANCH 22 24
ENDBRANCH 19 20
ENDBRANCH 3 19
TORSDOF 11
ENDMDL
MODEL 45
USER: ADFR SOLUTION from run 38
USER: SCORE 7.488995 LL:  -1.025 LR:  -6.564 RR:   0.000 FEB:  -3.282
USER: RMSD 3.148799
USER: SEED 37
USER: STATUS no improvement in best in 19 clusters for 5 generations
USER: GENES 13
USER: genes 0 Translation |==|  0.27304 0.48316 0.35615
USER: genes 1 Rotation |==|  0.45165 0.52730 0.23813 0.92230
USER: genes 2 Torsion [N]-C--CA-[N] |==|  0.24000
USER: genes 3 Torsion [C]-CA--CB-[CG] |==|  0.10856
USER: genes 4 Torsion [CA]-CB--CG-[CD] |==|  0.56446
USER: genes 5 Torsion [CB]-CG--CD-[NE] |==|  0.22418
USER: genes 6 Torsion [CG]-CD--NE-[CZ] |==|  0.31776
USER: genes 7 Torsion [C]-N--CA-[C] |==|  0.83333
USER: genes 8 Torsion [N]-CA--C-[N] |==|  0.89783
USER: genes 9 Torsion [C]-N--CA-[C] |==|  0.39708
USER: genes 10 Torsion [N]-CA--C-[OXT] |==|  0.89792
USER: genes 11 Torsion [N]-CA--CB-[OG1] |==|  0.76198
USER: genes 12 Torsion [CA]-CB--OG1-[HG1] |==|  0.27183
ROOT
ATOM      1  C   ARG C 760      13.373 -17.221  15.178  1.00 56.34 LIG 0.26  C 
ATOM      2 O    ARG C 760      13.613 -16.052  15.465  1.00 53.76 LIG-0.27  OA
ATOM      3  N   GLY C 761      13.195 -18.166  16.097  1.00 59.89 LIG-0.35  N 
ATOM      4 H    GLY C 761      13.231 -19.009  15.931  1.00 59.89 LIG 0.16  HD
ENDROOT
BRANCH 1 5
ATOM      5  CA  ARG C 760      13.271 -17.656  13.716  1.00 61.16 LIG 0.40  C 
ATOM      6  N   ARG C 760      11.876 -17.611  13.280  1.00 59.95 LIG 0.61  N 
BRANCH 5 7
ATOM      7  CB  ARG C 760      14.139 -16.781  12.812  1.00 63.40 LIG 0.05  C 
BRANCH 7 8
ATOM      8  CG  ARG C 760      15.478 -16.401  13.412  1.00 63.69 LIG 0.02  C 
BRANCH 8 9
ATOM      9  CD  ARG C 760      16.023 -15.135  12.773  1.00 63.30 LIG 0.14  C 
BRANCH 9 10
ATOM     10  NE  ARG C 760      15.413 -13.938  13.346  1.00 65.15 LIG-0.23  N 
ATOM     11  CZ  ARG C 760      16.070 -13.025  14.055  1.00 66.46 LIG 0.67  C 
ATOM     12  NH1 ARG C 760      17.371 -13.159  14.279  1.00 66.43 LIG-0.23  N 
ATOM     13  NH2 ARG C 760      15.425 -11.973  14.536  1.00 66.89 LIG-0.23  N 
ATOM     14 2HH1 ARG C 760      17.791 -12.566  14.738  1.00 66.43 LIG 0.17  HD
ATOM     15 1HH1 ARG C 760      17.794 -13.839  13.966  1.00 66.43 LIG 0.17  HD
ATOM     16 2HH2 ARG C 760      15.848 -11.382  14.994  1.00 66.89 LIG 0.17  HD
ATOM     17 1HH2 ARG C 760      14.583 -11.881  14.389  1.00 66.89 LIG 0.17  HD
ATOM     18 HE   ARG C 760      14.572 -13.816  13.215  1.00 65.15 LIG 0.18  HD
ENDBRANCH 9 10
ENDBRANCH 8 9
ENDBRANCH 7 8
ENDBRANCH 5 7
ENDBRANCH 1 5
BRANCH 3 19
ATOM     19  CA  GLY C 761      12.919 -17.836  17.485  1.00 62.83 LIG 0.23  C 
BRANCH 19 20
ATOM     20  C   GLY C 761      13.908 -17.019  18.303  1.00 67.24 LIG 0.24  C 
ATOM     21 O    GLY C 761      13.515 -16.191  19.124  1.00 65.14 LIG-0.27  OA
ATOM     22  N   THR C 762      15.194 -17.265  18.056  1.00 72.11 LIG-0.34  N 
ATOM     23 H    THR C 762      15.463 -17.614  17.318  1.00 72.11 LIG 0.16  HD
BRANCH 22 24
ATOM     24  CA  THR C 762      16.290 -16.979  18.989  1.00 75.13 LIG 0.21  C 
BRANCH 24 25
ATOM     25  C   THR C 762      17.310 -18.105  18.858  1.00 73.09 LIG 0.20  C 
ATOM     26 OXT  THR C 762      16.928 -19.258  18.670  1.00 76.95 LIG-0.65  OA
ATOM     27 O    THR C 762      18.525 -17.910  18.929  1.00 68.26 LIG-0.65  OA
ENDBRANCH 24 25
BRANCH 24 28
ATOM     28  CB  THR C 762      15.855 -16.869  20.468  1.00 77.67 LIG 0.15  C 
ATOM     29  CG2 THR C 762      17.021 -17.204  21.382  1.00 76.40 LIG 0.04  C 
BRANCH 28 30
ATOM     30 OG1  THR C 762      15.413 -15.537  20.751  1.00 80.43 LIG-0.39  OA
ATOM     31 HG1  THR C 762      14.575 -15.506  20.709  1.00 80.43 LIG 0.21  HD
ENDBRANCH 28 30
ENDBRANCH 24 28
ENDBRANCH 22 24
ENDBRANCH 19 20
ENDBRANCH 3 19
TORSDOF 11
ENDMDL
MODEL 46
USER: ADFR SOLUTION from run 26
USER: SCORE 6.867178 LL:  -0.432 LR:  -6.554 RR:   0.000 FEB:  -3.273
USER: RMSD 4.518418
USER: SEED 25
USER: STATUS no improvement in best in 12 clusters for 5 generations
USER: GENES 13
USER: genes 0 Translation |==|  0.25643 0.43020 0.28871
USER: genes 1 Rotation |==|  0.39647 0.38819 0.96977 0.57809
USER: genes 2 Torsion [N]-C--CA-[N] |==|  0.85551
USER: genes 3 Torsion [C]-CA--CB-[CG] |==|  0.44361
USER: genes 4 Torsion [CA]-CB--CG-[CD] |==|  0.27893
USER: genes 5 Torsion [CB]-CG--CD-[NE] |==|  0.12944
USER: genes 6 Torsion [CG]-CD--NE-[CZ] |==|  0.48989
USER: genes 7 Torsion [C]-N--CA-[C] |==|  0.19888
USER: genes 8 Torsion [N]-CA--C-[N] |==|  0.52943
USER: genes 9 Torsion [C]-N--CA-[C] |==|  0.78644
USER: genes 10 Torsion [N]-CA--C-[OXT] |==|  0.93900
USER: genes 11 Torsion [N]-CA--CB-[OG1] |==|  0.49192
USER: genes 12 Torsion [CA]-CB--OG1-[HG1] |==|  0.08247
ROOT
ATOM      1  C   ARG C 760      13.086 -17.896  13.812  1.00 56.34 LIG 0.26  C 
ATOM      2 O    ARG C 760      13.560 -18.973  14.162  1.00 53.76 LIG-0.27  OA
ATOM      3  N   GLY C 761      12.221 -17.214  14.556  1.00 59.89 LIG-0.35  N 
ATOM      4 H    GLY C 761      11.727 -16.578  14.256  1.00 59.89 LIG 0.16  HD
ENDROOT
BRANCH 1 5
ATOM      5  CA  ARG C 760      13.476 -17.276  12.470  1.00 61.16 LIG 0.40  C 
ATOM      6  N   ARG C 760      12.273 -16.937  11.712  1.00 59.95 LIG 0.61  N 
BRANCH 5 7
ATOM      7  CB  ARG C 760      14.351 -16.037  12.661  1.00 63.40 LIG 0.05  C 
BRANCH 7 8
ATOM      8  CG  ARG C 760      15.163 -15.655  11.440  1.00 63.69 LIG 0.02  C 
BRANCH 8 9
ATOM      9  CD  ARG C 760      14.508 -14.510  10.686  1.00 63.30 LIG 0.14  C 
BRANCH 9 10
ATOM     10  NE  ARG C 760      14.094 -13.439  11.588  1.00 65.15 LIG-0.23  N 
ATOM     11  CZ  ARG C 760      13.558 -12.288  11.193  1.00 66.46 LIG 0.67  C 
ATOM     12  NH1 ARG C 760      13.356 -12.050   9.903  1.00 66.43 LIG-0.23  N 
ATOM     13  NH2 ARG C 760      13.216 -11.376  12.091  1.00 66.89 LIG-0.23  N 
ATOM     14 2HH1 ARG C 760      13.009 -11.304   9.653  1.00 66.43 LIG 0.17  HD
ATOM     15 1HH1 ARG C 760      13.573 -12.641   9.317  1.00 66.43 LIG 0.17  HD
ATOM     16 2HH2 ARG C 760      12.869 -10.631  11.837  1.00 66.89 LIG 0.17  HD
ATOM     17 1HH2 ARG C 760      13.342 -11.528  12.927  1.00 66.89 LIG 0.17  HD
ATOM     18 HE   ARG C 760      14.204 -13.562  12.432  1.00 65.15 LIG 0.18  HD
ENDBRANCH 9 10
ENDBRANCH 8 9
ENDBRANCH 7 8
ENDBRANCH 5 7
ENDBRANCH 1 5
BRANCH 3 19
ATOM     19  CA  GLY C 761      12.039 -17.501  15.970  1.00 62.83 LIG 0.23  C 
BRANCH 19 20
ATOM     20  C   GLY C 761      13.113 -17.132  16.983  1.00 67.24 LIG 0.24  C 
ATOM     21 O    GLY C 761      14.066 -16.423  16.663  1.00 65.14 LIG-0.27  OA
ATOM     22  N   THR C 762      12.940 -17.635  18.205  1.00 72.11 LIG-0.34  N 
ATOM     23 H    THR C 762      12.458 -18.331  18.354  1.00 72.11 LIG 0.16  HD
BRANCH 22 24
ATOM     24  CA  THR C 762      13.536 -17.078  19.425  1.00 75.13 LIG 0.21  C 
BRANCH 24 25
ATOM     25  C   THR C 762      15.004 -17.491  19.450  1.00 73.09 LIG 0.20  C 
ATOM     26 OXT  THR C 762      15.376 -18.467  18.801  1.00 76.95 LIG-0.65  OA
ATOM     27 O    THR C 762      15.854 -16.878  20.097  1.00 68.26 LIG-0.65  OA
ENDBRANCH 24 25
BRANCH 24 28
ATOM     28  CB  THR C 762      12.864 -17.549  20.734  1.00 77.67 LIG 0.15  C 
ATOM     29  CG2 THR C 762      12.894 -19.065  20.823  1.00 76.40 LIG 0.04  C 
BRANCH 28 30
ATOM     30 OG1  THR C 762      13.557 -17.006  21.864  1.00 80.43 LIG-0.39  OA
ATOM     31 HG1  THR C 762      13.898 -16.267  21.654  1.00 80.43 LIG 0.21  HD
ENDBRANCH 28 30
ENDBRANCH 24 28
ENDBRANCH 22 24
ENDBRANCH 19 20
ENDBRANCH 3 19
TORSDOF 11
ENDMDL
MODEL 47
USER: ADFR SOLUTION from run 50
USER: SCORE 6.917992 LL:  -0.950 LR:  -6.552 RR:   0.000 FEB:  -3.271
USER: RMSD 4.042959
USER: SEED 49
USER: STATUS no improvement in best in 28 clusters for 5 generations
USER: GENES 13
USER: genes 0 Translation |==|  0.26360 0.47126 0.37054
USER: genes 1 Rotation |==|  0.37197 0.66904 0.24247 0.87244
USER: genes 2 Torsion [N]-C--CA-[N] |==|  0.30452
USER: genes 3 Torsion [C]-CA--CB-[CG] |==|  0.06257
USER: genes 4 Torsion [CA]-CB--CG-[CD] |==|  0.57506
USER: genes 5 Torsion [CB]-CG--CD-[NE] |==|  0.18776
USER: genes 6 Torsion [CG]-CD--NE-[CZ] |==|  0.38941
USER: genes 7 Torsion [C]-N--CA-[C] |==|  0.25000
USER: genes 8 Torsion [N]-CA--C-[N] |==|  0.24851
USER: genes 9 Torsion [C]-N--CA-[C] |==|  0.60836
USER: genes 10 Torsion [N]-CA--C-[OXT] |==|  0.54906
USER: genes 11 Torsion [N]-CA--CB-[OG1] |==|  0.91058
USER: genes 12 Torsion [CA]-CB--OG1-[HG1] |==|  0.11173
ROOT
ATOM      1  C   ARG C 760      13.210 -17.372  15.469  1.00 56.34 LIG 0.26  C 
ATOM      2 O    ARG C 760      13.717 -16.256  15.507  1.00 53.76 LIG-0.27  OA
ATOM      3  N   GLY C 761      13.525 -18.336  16.330  1.00 59.89 LIG-0.35  N 
ATOM      4 H    GLY C 761      13.346 -19.167  16.206  1.00 59.89 LIG 0.16  HD
ENDROOT
BRANCH 1 5
ATOM      5  CA  ARG C 760      12.172 -17.718  14.402  1.00 61.16 LIG 0.40  C 
ATOM      6  N   ARG C 760      10.924 -17.006  14.673  1.00 59.95 LIG 0.61  N 
BRANCH 5 7
ATOM      7  CB  ARG C 760      12.681 -17.384  13.000  1.00 63.40 LIG 0.05  C 
BRANCH 7 8
ATOM      8  CG  ARG C 760      14.191 -17.316  12.886  1.00 63.69 LIG 0.02  C 
BRANCH 8 9
ATOM      9  CD  ARG C 760      14.611 -16.386  11.759  1.00 63.30 LIG 0.14  C 
BRANCH 9 10
ATOM     10  NE  ARG C 760      14.279 -14.996  12.058  1.00 65.15 LIG-0.23  N 
ATOM     11  CZ  ARG C 760      15.061 -13.959  11.776  1.00 66.46 LIG 0.67  C 
ATOM     12  NH1 ARG C 760      16.230 -14.143  11.176  1.00 66.43 LIG-0.23  N 
ATOM     13  NH2 ARG C 760      14.671 -12.732  12.091  1.00 66.89 LIG-0.23  N 
ATOM     14 2HH1 ARG C 760      16.732 -13.469  10.995  1.00 66.43 LIG 0.17  HD
ATOM     15 1HH1 ARG C 760      16.485 -14.938  10.967  1.00 66.43 LIG 0.17  HD
ATOM     16 2HH2 ARG C 760      15.176 -12.060  11.909  1.00 66.89 LIG 0.17  HD
ATOM     17 1HH2 ARG C 760      13.913 -12.608  12.477  1.00 66.89 LIG 0.17  HD
ATOM     18 HE   ARG C 760      13.526 -14.838  12.442  1.00 65.15 LIG 0.18  HD
ENDBRANCH 9 10
ENDBRANCH 8 9
ENDBRANCH 7 8
ENDBRANCH 5 7
ENDBRANCH 1 5
BRANCH 3 19
ATOM     19  CA  GLY C 761      14.212 -18.047  17.579  1.00 62.83 LIG 0.23  C 
BRANCH 19 20
ATOM     20  C   GLY C 761      13.429 -17.735  18.845  1.00 67.24 LIG 0.24  C 
ATOM     21 O    GLY C 761      13.132 -16.576  19.134  1.00 65.14 LIG-0.27  OA
ATOM     22  N   THR C 762      13.110 -18.790  19.593  1.00 72.11 LIG-0.34  N 
ATOM     23 H    THR C 762      13.540 -19.533  19.551  1.00 72.11 LIG 0.16  HD
BRANCH 22 24
ATOM     24  CA  THR C 762      12.009 -18.820  20.562  1.00 75.13 LIG 0.21  C 
BRANCH 24 25
ATOM     25  C   THR C 762      12.488 -19.608  21.778  1.00 73.09 LIG 0.20  C 
ATOM     26 OXT  THR C 762      11.669 -20.053  22.580  1.00 76.95 LIG-0.65  OA
ATOM     27 O    THR C 762      13.680 -19.828  21.996  1.00 68.26 LIG-0.65  OA
ENDBRANCH 24 25
BRANCH 24 28
ATOM     28  CB  THR C 762      10.710 -19.466  20.031  1.00 77.67 LIG 0.15  C 
ATOM     29  CG2 THR C 762       9.503 -18.881  20.745  1.00 76.40 LIG 0.04  C 
BRANCH 28 30
ATOM     30 OG1  THR C 762      10.579 -19.221  18.626  1.00 80.43 LIG-0.39  OA
ATOM     31 HG1  THR C 762      11.330 -19.299  18.258  1.00 80.43 LIG 0.21  HD
ENDBRANCH 28 30
ENDBRANCH 24 28
ENDBRANCH 22 24
ENDBRANCH 19 20
ENDBRANCH 3 19
TORSDOF 11
ENDMDL
MODEL 48
USER: ADFR SOLUTION from run 105
USER: SCORE 6.985782 LL:  -0.883 LR:  -6.499 RR:   0.000 FEB:  -3.218
USER: RMSD 4.928241
USER: SEED 104
USER: STATUS no improvement in best in 23 clusters for 5 generations
USER: GENES 13
USER: genes 0 Translation |==|  0.31027 0.52976 0.36952
USER: genes 1 Rotation |==|  0.54819 0.48413 0.63077 0.97992
USER: genes 2 Torsion [N]-C--CA-[N] |==|  0.84434
USER: genes 3 Torsion [C]-CA--CB-[CG] |==|  0.13272
USER: genes 4 Torsion [CA]-CB--CG-[CD] |==|  0.22363
USER: genes 5 Torsion [CB]-CG--CD-[NE] |==|  0.81306
USER: genes 6 Torsion [CG]-CD--NE-[CZ] |==|  0.77789
USER: genes 7 Torsion [C]-N--CA-[C] |==|  0.84437
USER: genes 8 Torsion [N]-CA--C-[N] |==|  0.48888
USER: genes 9 Torsion [C]-N--CA-[C] |==|  0.59721
USER: genes 10 Torsion [N]-CA--C-[OXT] |==|  0.20525
USER: genes 11 Torsion [N]-CA--CB-[OG1] |==|  0.85821
USER: genes 12 Torsion [CA]-CB--OG1-[HG1] |==|  0.97561
ROOT
ATOM      1  C   ARG C 760      14.015 -16.627  15.449  1.00 56.34 LIG 0.26  C 
ATOM      2 O    ARG C 760      12.872 -16.631  15.895  1.00 53.76 LIG-0.27  OA
ATOM      3  N   GLY C 761      15.064 -17.043  16.151  1.00 59.89 LIG-0.35  N 
ATOM      4 H    GLY C 761      15.880 -16.864  15.948  1.00 59.89 LIG 0.16  HD
ENDROOT
BRANCH 1 5
ATOM      5  CA  ARG C 760      14.293 -16.124  14.032  1.00 61.16 LIG 0.40  C 
ATOM      6  N   ARG C 760      15.281 -15.047  14.072  1.00 59.95 LIG 0.61  N 
BRANCH 5 7
ATOM      7  CB  ARG C 760      14.775 -17.255  13.124  1.00 63.40 LIG 0.05  C 
BRANCH 7 8
ATOM      8  CG  ARG C 760      13.937 -18.515  13.200  1.00 63.69 LIG 0.02  C 
BRANCH 8 9
ATOM      9  CD  ARG C 760      12.680 -18.386  12.354  1.00 63.30 LIG 0.14  C 
BRANCH 9 10
ATOM     10  NE  ARG C 760      11.765 -17.388  12.900  1.00 65.15 LIG-0.23  N 
ATOM     11  CZ  ARG C 760      10.938 -17.603  13.919  1.00 66.46 LIG 0.67  C 
ATOM     12  NH1 ARG C 760      10.909 -18.786  14.520  1.00 66.43 LIG-0.23  N 
ATOM     13  NH2 ARG C 760      10.143 -16.631  14.341  1.00 66.89 LIG-0.23  N 
ATOM     14 2HH1 ARG C 760      10.372 -18.920  15.179  1.00 66.43 LIG 0.17  HD
ATOM     15 1HH1 ARG C 760      11.426 -19.418  14.251  1.00 66.43 LIG 0.17  HD
ATOM     16 2HH2 ARG C 760       9.608 -16.769  15.000  1.00 66.89 LIG 0.17  HD
ATOM     17 1HH2 ARG C 760      10.162 -15.863  13.956  1.00 66.89 LIG 0.17  HD
ATOM     18 HE   ARG C 760      11.762 -16.607  12.539  1.00 65.15 LIG 0.18  HD
ENDBRANCH 9 10
ENDBRANCH 8 9
ENDBRANCH 7 8
ENDBRANCH 5 7
ENDBRANCH 1 5
BRANCH 3 19
ATOM     19  CA  GLY C 761      14.907 -17.856  17.346  1.00 62.83 LIG 0.23  C 
BRANCH 19 20
ATOM     20  C   GLY C 761      14.050 -17.375  18.508  1.00 67.24 LIG 0.24  C 
ATOM     21 O    GLY C 761      13.538 -16.256  18.494  1.00 65.14 LIG-0.27  OA
ATOM     22  N   THR C 762      13.914 -18.239  19.512  1.00 72.11 LIG-0.34  N 
ATOM     23 H    THR C 762      14.475 -18.875  19.653  1.00 72.11 LIG 0.16  HD
BRANCH 22 24
ATOM     24  CA  THR C 762      12.815 -18.219  20.484  1.00 75.13 LIG 0.21  C 
BRANCH 24 25
ATOM     25  C   THR C 762      13.383 -18.659  21.830  1.00 73.09 LIG 0.20  C 
ATOM     26 OXT  THR C 762      14.096 -17.892  22.473  1.00 76.95 LIG-0.65  OA
ATOM     27 O    THR C 762      13.150 -19.767  22.316  1.00 68.26 LIG-0.65  OA
ENDBRANCH 24 25
BRANCH 24 28
ATOM     28  CB  THR C 762      11.626 -19.137  20.121  1.00 77.67 LIG 0.15  C 
ATOM     29  CG2 THR C 762      10.460 -18.881  21.060  1.00 76.40 LIG 0.04  C 
BRANCH 28 30
ATOM     30 OG1  THR C 762      11.202 -18.882  18.777  1.00 80.43 LIG-0.39  OA
ATOM     31 HG1  THR C 762      11.599 -18.202  18.483  1.00 80.43 LIG 0.21  HD
ENDBRANCH 28 30
ENDBRANCH 24 28
ENDBRANCH 22 24
ENDBRANCH 19 20
ENDBRANCH 3 19
TORSDOF 11
ENDMDL
MODEL 49
USER: ADFR SOLUTION from run 33
USER: SCORE 6.662325 LL:  -0.516 LR:  -6.457 RR:   0.000 FEB:  -3.175
USER: RMSD 4.989333
USER: SEED 32
USER: STATUS no improvement in best in 18 clusters for 5 generations
USER: GENES 13
USER: genes 0 Translation |==|  0.23496 0.45699 0.36903
USER: genes 1 Rotation |==|  0.55321 0.55314 0.24899 0.92584
USER: genes 2 Torsion [N]-C--CA-[N] |==|  0.69373
USER: genes 3 Torsion [C]-CA--CB-[CG] |==|  0.22351
USER: genes 4 Torsion [CA]-CB--CG-[CD] |==|  0.25006
USER: genes 5 Torsion [CB]-CG--CD-[NE] |==|  0.84920
USER: genes 6 Torsion [CG]-CD--NE-[CZ] |==|  0.42379
USER: genes 7 Torsion [C]-N--CA-[C] |==|  0.87221
USER: genes 8 Torsion [N]-CA--C-[N] |==|  0.88526
USER: genes 9 Torsion [C]-N--CA-[C] |==|  0.17209
USER: genes 10 Torsion [N]-CA--C-[OXT] |==|  0.81930
USER: genes 11 Torsion [N]-CA--CB-[OG1] |==|  0.94891
USER: genes 12 Torsion [CA]-CB--OG1-[HG1] |==|  0.33275
ROOT
ATOM      1  C   ARG C 760      12.716 -17.554  15.439  1.00 56.34 LIG 0.26  C 
ATOM      2 O    ARG C 760      12.878 -16.595  16.187  1.00 53.76 LIG-0.27  OA
ATOM      3  N   GLY C 761      12.466 -18.782  15.885  1.00 59.89 LIG-0.35  N 
ATOM      4 H    GLY C 761      12.551 -19.492  15.409  1.00 59.89 LIG 0.16  HD
ENDROOT
BRANCH 1 5
ATOM      5  CA  ARG C 760      12.802 -17.379  13.922  1.00 61.16 LIG 0.40  C 
ATOM      6  N   ARG C 760      14.182 -17.100  13.532  1.00 59.95 LIG 0.61  N 
BRANCH 5 7
ATOM      7  CB  ARG C 760      12.280 -18.614  13.188  1.00 63.40 LIG 0.05  C 
BRANCH 7 8
ATOM      8  CG  ARG C 760      10.770 -18.684  13.081  1.00 63.69 LIG 0.02  C 
BRANCH 8 9
ATOM      9  CD  ARG C 760      10.282 -18.002  11.814  1.00 63.30 LIG 0.14  C 
BRANCH 9 10
ATOM     10  NE  ARG C 760      10.774 -16.631  11.717  1.00 65.15 LIG-0.23  N 
ATOM     11  CZ  ARG C 760      10.971 -15.981  10.574  1.00 66.46 LIG 0.67  C 
ATOM     12  NH1 ARG C 760      10.710 -16.571   9.414  1.00 66.43 LIG-0.23  N 
ATOM     13  NH2 ARG C 760      11.425 -14.736  10.591  1.00 66.89 LIG-0.23  N 
ATOM     14 2HH1 ARG C 760      10.838 -16.146   8.677  1.00 66.43 LIG 0.17  HD
ATOM     15 1HH1 ARG C 760      10.412 -17.378   9.399  1.00 66.43 LIG 0.17  HD
ATOM     16 2HH2 ARG C 760      11.552 -14.315   9.852  1.00 66.89 LIG 0.17  HD
ATOM     17 1HH2 ARG C 760      11.591 -14.350  11.340  1.00 66.89 LIG 0.17  HD
ATOM     18 HE   ARG C 760      10.948 -16.216  12.449  1.00 65.15 LIG 0.18  HD
ENDBRANCH 9 10
ENDBRANCH 8 9
ENDBRANCH 7 8
ENDBRANCH 5 7
ENDBRANCH 1 5
BRANCH 3 19
ATOM     19  CA  GLY C 761      12.018 -19.021  17.247  1.00 62.83 LIG 0.23  C 
BRANCH 19 20
ATOM     20  C   GLY C 761      12.700 -18.337  18.423  1.00 67.24 LIG 0.24  C 
ATOM     21 O    GLY C 761      12.040 -17.878  19.355  1.00 65.14 LIG-0.27  OA
ATOM     22  N   THR C 762      14.029 -18.274  18.354  1.00 72.11 LIG-0.34  N 
ATOM     23 H    THR C 762      14.455 -18.331  17.610  1.00 72.11 LIG 0.16  HD
BRANCH 22 24
ATOM     24  CA  THR C 762      14.914 -18.105  19.512  1.00 75.13 LIG 0.21  C 
BRANCH 24 25
ATOM     25  C   THR C 762      14.715 -19.312  20.423  1.00 73.09 LIG 0.20  C 
ATOM     26 OXT  THR C 762      13.629 -19.493  20.971  1.00 76.95 LIG-0.65  OA
ATOM     27 O    THR C 762      15.607 -20.135  20.637  1.00 68.26 LIG-0.65  OA
ENDBRANCH 24 25
BRANCH 24 28
ATOM     28  CB  THR C 762      14.658 -16.818  20.327  1.00 77.67 LIG 0.15  C 
ATOM     29  CG2 THR C 762      15.977 -16.181  20.730  1.00 76.40 LIG 0.04  C 
BRANCH 28 30
ATOM     30 OG1  THR C 762      13.913 -15.881  19.542  1.00 80.43 LIG-0.39  OA
ATOM     31 HG1  THR C 762      13.186 -15.710  19.925  1.00 80.43 LIG 0.21  HD
ENDBRANCH 28 30
ENDBRANCH 24 28
ENDBRANCH 22 24
ENDBRANCH 19 20
ENDBRANCH 3 19
TORSDOF 11
ENDMDL
MODEL 50
USER: ADFR SOLUTION from run 25
USER: SCORE 7.156355 LL:  -0.864 LR:  -6.424 RR:   0.000 FEB:  -3.143
USER: RMSD 6.360910
USER: SEED 24
USER: STATUS no improvement in best in 10 clusters for 5 generations
USER: GENES 13
USER: genes 0 Translation |==|  0.30524 0.49765 0.55074
USER: genes 1 Rotation |==|  0.40111 0.52475 0.30075 0.94711
USER: genes 2 Torsion [N]-C--CA-[N] |==|  0.76022
USER: genes 3 Torsion [C]-CA--CB-[CG] |==|  0.11649
USER: genes 4 Torsion [CA]-CB--CG-[CD] |==|  0.59864
USER: genes 5 Torsion [CB]-CG--CD-[NE] |==|  0.22553
USER: genes 6 Torsion [CG]-CD--NE-[CZ] |==|  0.26868
USER: genes 7 Torsion [C]-N--CA-[C] |==|  0.73950
USER: genes 8 Torsion [N]-CA--C-[N] |==|  0.48969
USER: genes 9 Torsion [C]-N--CA-[C] |==|  0.50807
USER: genes 10 Torsion [N]-CA--C-[OXT] |==|  0.61848
USER: genes 11 Torsion [N]-CA--CB-[OG1] |==|  0.99059
USER: genes 12 Torsion [CA]-CB--OG1-[HG1] |==|  0.12281
ROOT
ATOM      1  C   ARG C 760      13.928 -17.036  19.118  1.00 56.34 LIG 0.26  C 
ATOM      2 O    ARG C 760      13.856 -15.814  19.210  1.00 53.76 LIG-0.27  OA
ATOM      3  N   GLY C 761      14.109 -17.828  20.171  1.00 59.89 LIG-0.35  N 
ATOM      4 H    GLY C 761      14.364 -18.647  20.117  1.00 59.89 LIG 0.16  HD
ENDROOT
BRANCH 1 5
ATOM      5  CA  ARG C 760      13.817 -17.720  17.756  1.00 61.16 LIG 0.40  C 
ATOM      6  N   ARG C 760      15.149 -17.924  17.191  1.00 59.95 LIG 0.61  N 
BRANCH 5 7
ATOM      7  CB  ARG C 760      13.074 -19.052  17.860  1.00 63.40 LIG 0.05  C 
BRANCH 7 8
ATOM      8  CG  ARG C 760      11.856 -19.017  18.761  1.00 63.69 LIG 0.02  C 
BRANCH 8 9
ATOM      9  CD  ARG C 760      11.690 -20.331  19.505  1.00 63.30 LIG 0.14  C 
BRANCH 9 10
ATOM     10  NE  ARG C 760      12.557 -20.398  20.678  1.00 65.15 LIG-0.23  N 
ATOM     11  CZ  ARG C 760      12.171 -20.106  21.916  1.00 66.46 LIG 0.67  C 
ATOM     12  NH1 ARG C 760      10.922 -19.731  22.158  1.00 66.43 LIG-0.23  N 
ATOM     13  NH2 ARG C 760      13.037 -20.195  22.916  1.00 66.89 LIG-0.23  N 
ATOM     14 2HH1 ARG C 760      10.677 -19.544  22.961  1.00 66.43 LIG 0.17  HD
ATOM     15 1HH1 ARG C 760      10.356 -19.676  21.513  1.00 66.43 LIG 0.17  HD
ATOM     16 2HH2 ARG C 760      12.788 -20.007  23.717  1.00 66.89 LIG 0.17  HD
ATOM     17 1HH2 ARG C 760      13.846 -20.441  22.763  1.00 66.89 LIG 0.17  HD
ATOM     18 HE   ARG C 760      13.373 -20.643  20.559  1.00 65.15 LIG 0.18  HD
ENDBRANCH 9 10
ENDBRANCH 8 9
ENDBRANCH 7 8
ENDBRANCH 5 7
ENDBRANCH 1 5
BRANCH 3 19
ATOM     19  CA  GLY C 761      13.883 -17.356  21.527  1.00 62.83 LIG 0.23  C 
BRANCH 19 20
ATOM     20  C   GLY C 761      15.028 -16.798  22.359  1.00 67.24 LIG 0.24  C 
ATOM     21 O    GLY C 761      16.181 -16.803  21.929  1.00 65.14 LIG-0.27  OA
ATOM     22  N   THR C 762      14.686 -16.326  23.557  1.00 72.11 LIG-0.34  N 
ATOM     23 H    THR C 762      13.967 -16.570  23.961  1.00 72.11 LIG 0.16  HD
BRANCH 22 24
ATOM     24  CA  THR C 762      15.472 -15.351  24.323  1.00 75.13 LIG 0.21  C 
BRANCH 24 25
ATOM     25  C   THR C 762      14.767 -15.140  25.659  1.00 73.09 LIG 0.20  C 
ATOM     26 OXT  THR C 762      14.653 -14.006  26.119  1.00 76.95 LIG-0.65  OA
ATOM     27 O    THR C 762      14.291 -16.071  26.311  1.00 68.26 LIG-0.65  OA
ENDBRANCH 24 25
BRANCH 24 28
ATOM     28  CB  THR C 762      15.641 -13.982  23.627  1.00 77.67 LIG 0.15  C 
ATOM     29  CG2 THR C 762      17.115 -13.650  23.476  1.00 76.40 LIG 0.04  C 
BRANCH 28 30
ATOM     30 OG1  THR C 762      15.038 -14.014  22.329  1.00 80.43 LIG-0.39  OA
ATOM     31 HG1  THR C 762      14.289 -14.390  22.378  1.00 80.43 LIG 0.21  HD
ENDBRANCH 28 30
ENDBRANCH 24 28
ENDBRANCH 22 24
ENDBRANCH 19 20
ENDBRANCH 3 19
TORSDOF 11
ENDMDL
MODEL 51
USER: ADFR SOLUTION from run 184
USER: SCORE 7.611903 LL:  -1.306 LR:  -6.408 RR:   0.000 FEB:  -3.127
USER: RMSD 3.986743
USER: SEED 183
USER: STATUS no improvement in best in 13 clusters for 5 generations
USER: GENES 13
USER: genes 0 Translation |==|  0.31308 0.49620 0.49001
USER: genes 1 Rotation |==|  0.39073 0.52889 0.50188 0.98705
USER: genes 2 Torsion [N]-C--CA-[N] |==|  0.44383
USER: genes 3 Torsion [C]-CA--CB-[CG] |==|  0.65329
USER: genes 4 Torsion [CA]-CB--CG-[CD] |==|  0.45267
USER: genes 5 Torsion [CB]-CG--CD-[NE] |==|  0.67461
USER: genes 6 Torsion [CG]-CD--NE-[CZ] |==|  0.37513
USER: genes 7 Torsion [C]-N--CA-[C] |==|  0.18114
USER: genes 8 Torsion [N]-CA--C-[N] |==|  0.11110
USER: genes 9 Torsion [C]-N--CA-[C] |==|  0.16525
USER: genes 10 Torsion [N]-CA--C-[OXT] |==|  0.14004
USER: genes 11 Torsion [N]-CA--CB-[OG1] |==|  0.86975
USER: genes 12 Torsion [CA]-CB--OG1-[HG1] |==|  0.36373
ROOT
ATOM      1  C   ARG C 760      14.064 -17.054  17.889  1.00 56.34 LIG 0.26  C 
ATOM      2 O    ARG C 760      13.162 -16.256  18.122  1.00 53.76 LIG-0.27  OA
ATOM      3  N   GLY C 761      14.943 -17.438  18.810  1.00 59.89 LIG-0.35  N 
ATOM      4 H    GLY C 761      15.689 -17.824  18.629  1.00 59.89 LIG 0.16  HD
ENDROOT
BRANCH 1 5
ATOM      5  CA  ARG C 760      14.225 -17.656  16.492  1.00 61.16 LIG 0.40  C 
ATOM      6  N   ARG C 760      12.970 -17.540  15.753  1.00 59.95 LIG 0.61  N 
BRANCH 5 7
ATOM      7  CB  ARG C 760      15.360 -16.980  15.723  1.00 63.40 LIG 0.05  C 
BRANCH 7 8
ATOM      8  CG  ARG C 760      14.950 -16.413  14.378  1.00 63.69 LIG 0.02  C 
BRANCH 8 9
ATOM      9  CD  ARG C 760      15.980 -15.418  13.869  1.00 63.30 LIG 0.14  C 
BRANCH 9 10
ATOM     10  NE  ARG C 760      15.413 -14.079  13.738  1.00 65.15 LIG-0.23  N 
ATOM     11  CZ  ARG C 760      16.012 -12.965  14.147  1.00 66.46 LIG 0.67  C 
ATOM     12  NH1 ARG C 760      17.211 -13.018  14.714  1.00 66.43 LIG-0.23  N 
ATOM     13  NH2 ARG C 760      15.413 -11.794  13.985  1.00 66.89 LIG-0.23  N 
ATOM     14 2HH1 ARG C 760      17.595 -12.294  14.977  1.00 66.43 LIG 0.17  HD
ATOM     15 1HH1 ARG C 760      17.605 -13.776  14.818  1.00 66.43 LIG 0.17  HD
ATOM     16 2HH2 ARG C 760      15.800 -11.073  14.249  1.00 66.89 LIG 0.17  HD
ATOM     17 1HH2 ARG C 760      14.638 -11.756  13.616  1.00 66.89 LIG 0.17  HD
ATOM     18 HE   ARG C 760      14.639 -14.006  13.370  1.00 65.15 LIG 0.18  HD
ENDBRANCH 9 10
ENDBRANCH 8 9
ENDBRANCH 7 8
ENDBRANCH 5 7
ENDBRANCH 1 5
BRANCH 3 19
ATOM     19  CA  GLY C 761      14.702 -17.227  20.228  1.00 62.83 LIG 0.23  C 
BRANCH 19 20
ATOM     20  C   GLY C 761      13.560 -17.939  20.938  1.00 67.24 LIG 0.24  C 
ATOM     21 O    GLY C 761      12.883 -17.356  21.784  1.00 65.14 LIG-0.27  OA
ATOM     22  N   THR C 762      13.369 -19.208  20.581  1.00 72.11 LIG-0.34  N 
ATOM     23 H    THR C 762      13.988 -19.684  20.221  1.00 72.11 LIG 0.16  HD
BRANCH 22 24
ATOM     24  CA  THR C 762      12.108 -19.939  20.751  1.00 75.13 LIG 0.21  C 
BRANCH 24 25
ATOM     25  C   THR C 762      11.034 -19.191  19.966  1.00 73.09 LIG 0.20  C 
ATOM     26 OXT  THR C 762      11.236 -18.882  18.794  1.00 76.95 LIG-0.65  OA
ATOM     27 O    THR C 762       9.949 -18.881  20.460  1.00 68.26 LIG-0.65  OA
ENDBRANCH 24 25
BRANCH 24 28
ATOM     28  CB  THR C 762      11.645 -20.079  22.219  1.00 77.67 LIG 0.15  C 
ATOM     29  CG2 THR C 762      10.531 -21.105  22.321  1.00 76.40 LIG 0.04  C 
BRANCH 28 30
ATOM     30 OG1  THR C 762      12.740 -20.500  23.039  1.00 80.43 LIG-0.39  OA
ATOM     31 HG1  THR C 762      12.789 -20.006  23.716  1.00 80.43 LIG 0.21  HD
ENDBRANCH 28 30
ENDBRANCH 24 28
ENDBRANCH 22 24
ENDBRANCH 19 20
ENDBRANCH 3 19
TORSDOF 11
ENDMDL
MODEL 52
USER: ADFR SOLUTION from run 72
USER: SCORE 6.700400 LL:  -0.652 LR:  -6.404 RR:   0.000 FEB:  -3.123
USER: RMSD 4.442565
USER: SEED 71
USER: STATUS no improvement in best in 26 clusters for 5 generations
USER: GENES 13
USER: genes 0 Translation |==|  0.24192 0.46862 0.40961
USER: genes 1 Rotation |==|  0.60821 0.43566 0.29797 0.93970
USER: genes 2 Torsion [N]-C--CA-[N] |==|  0.24923
USER: genes 3 Torsion [C]-CA--CB-[CG] |==|  0.39005
USER: genes 4 Torsion [CA]-CB--CG-[CD] |==|  0.40047
USER: genes 5 Torsion [CB]-CG--CD-[NE] |==|  0.91823
USER: genes 6 Torsion [CG]-CD--NE-[CZ] |==|  0.68417
USER: genes 7 Torsion [C]-N--CA-[C] |==|  0.76616
USER: genes 8 Torsion [N]-CA--C-[N] |==|  0.61812
USER: genes 9 Torsion [C]-N--CA-[C] |==|  0.64611
USER: genes 10 Torsion [N]-CA--C-[OXT] |==|  0.85849
USER: genes 11 Torsion [N]-CA--CB-[OG1] |==|  0.20779
USER: genes 12 Torsion [CA]-CB--OG1-[HG1] |==|  0.04323
ROOT
ATOM      1  C   ARG C 760      12.836 -17.406  16.261  1.00 56.34 LIG 0.26  C 
ATOM      2 O    ARG C 760      12.483 -16.434  16.921  1.00 53.76 LIG-0.27  OA
ATOM      3  N   GLY C 761      12.525 -18.655  16.593  1.00 59.89 LIG-0.35  N 
ATOM      4 H    GLY C 761      12.921 -19.349  16.276  1.00 59.89 LIG 0.16  HD
ENDROOT
BRANCH 1 5
ATOM      5  CA  ARG C 760      13.676 -17.221  14.997  1.00 61.16 LIG 0.40  C 
ATOM      6  N   ARG C 760      12.801 -17.081  13.834  1.00 59.95 LIG 0.61  N 
BRANCH 5 7
ATOM      7  CB  ARG C 760      14.602 -16.010  15.115  1.00 63.40 LIG 0.05  C 
BRANCH 7 8
ATOM      8  CG  ARG C 760      15.982 -16.222  14.528  1.00 63.69 LIG 0.02  C 
BRANCH 8 9
ATOM      9  CD  ARG C 760      16.501 -14.948  13.880  1.00 63.30 LIG 0.14  C 
BRANCH 9 10
ATOM     10  NE  ARG C 760      15.410 -14.123  13.369  1.00 65.15 LIG-0.23  N 
ATOM     11  CZ  ARG C 760      15.197 -13.872  12.081  1.00 66.46 LIG 0.67  C 
ATOM     12  NH1 ARG C 760      15.996 -14.389  11.156  1.00 66.43 LIG-0.23  N 
ATOM     13  NH2 ARG C 760      14.178 -13.107  11.716  1.00 66.89 LIG-0.23  N 
ATOM     14 2HH1 ARG C 760      15.854 -14.224  10.324  1.00 66.43 LIG 0.17  HD
ATOM     15 1HH1 ARG C 760      16.657 -14.889  11.388  1.00 66.43 LIG 0.17  HD
ATOM     16 2HH2 ARG C 760      14.040 -12.945  10.883  1.00 66.89 LIG 0.17  HD
ATOM     17 1HH2 ARG C 760      13.657 -12.774  12.312  1.00 66.89 LIG 0.17  HD
ATOM     18 HE   ARG C 760      14.868 -13.776  13.940  1.00 65.15 LIG 0.18  HD
ENDBRANCH 9 10
ENDBRANCH 8 9
ENDBRANCH 7 8
ENDBRANCH 5 7
ENDBRANCH 1 5
BRANCH 3 19
ATOM     19  CA  GLY C 761      11.464 -18.949  17.543  1.00 62.83 LIG 0.23  C 
BRANCH 19 20
ATOM     20  C   GLY C 761      11.732 -18.932  19.040  1.00 67.24 LIG 0.24  C 
ATOM     21 O    GLY C 761      12.421 -18.047  19.548  1.00 65.14 LIG-0.27  OA
ATOM     22  N   THR C 762      11.182 -19.930  19.730  1.00 72.11 LIG-0.34  N 
ATOM     23 H    THR C 762      10.953 -20.673  19.363  1.00 72.11 LIG 0.16  HD
BRANCH 22 24
ATOM     24  CA  THR C 762      10.900 -19.890  21.170  1.00 75.13 LIG 0.21  C 
BRANCH 24 25
ATOM     25  C   THR C 762      11.536 -21.127  21.797  1.00 73.09 LIG 0.20  C 
ATOM     26 OXT  THR C 762      11.314 -22.237  21.320  1.00 76.95 LIG-0.65  OA
ATOM     27 O    THR C 762      12.281 -21.063  22.776  1.00 68.26 LIG-0.65  OA
ENDBRANCH 24 25
BRANCH 24 28
ATOM     28  CB  THR C 762       9.396 -19.869  21.524  1.00 77.67 LIG 0.15  C 
ATOM     29  CG2 THR C 762       8.663 -18.875  20.640  1.00 76.40 LIG 0.04  C 
BRANCH 28 30
ATOM     30 OG1  THR C 762       8.828 -21.168  21.328  1.00 80.43 LIG-0.39  OA
ATOM     31 HG1  THR C 762       9.444 -21.736  21.266  1.00 80.43 LIG 0.21  HD
ENDBRANCH 28 30
ENDBRANCH 24 28
ENDBRANCH 22 24
ENDBRANCH 19 20
ENDBRANCH 3 19
TORSDOF 11
ENDMDL
MODEL 53
USER: ADFR SOLUTION from run 86
USER: SCORE 6.893847 LL:  -0.642 LR:  -6.399 RR:   0.000 FEB:  -3.118
USER: RMSD 4.328705
USER: SEED 85
USER: STATUS no improvement in best in 31 clusters for 5 generations
USER: GENES 13
USER: genes 0 Translation |==|  0.27624 0.50000 0.43997
USER: genes 1 Rotation |==|  0.44675 0.45836 0.51049 0.99530
USER: genes 2 Torsion [N]-C--CA-[N] |==|  0.43079
USER: genes 3 Torsion [C]-CA--CB-[CG] |==|  0.50137
USER: genes 4 Torsion [CA]-CB--CG-[CD] |==|  0.37171
USER: genes 5 Torsion [CB]-CG--CD-[NE] |==|  0.78216
USER: genes 6 Torsion [CG]-CD--NE-[CZ] |==|  0.76873
USER: genes 7 Torsion [C]-N--CA-[C] |==|  0.21111
USER: genes 8 Torsion [N]-CA--C-[N] |==|  0.47927
USER: genes 9 Torsion [C]-N--CA-[C] |==|  0.67126
USER: genes 10 Torsion [N]-CA--C-[OXT] |==|  0.05182
USER: genes 11 Torsion [N]-CA--CB-[OG1] |==|  0.02948
USER: genes 12 Torsion [CA]-CB--OG1-[HG1] |==|  0.33658
ROOT
ATOM      1  C   ARG C 760      13.428 -17.006  16.875  1.00 56.34 LIG 0.26  C 
ATOM      2 O    ARG C 760      12.413 -16.332  17.019  1.00 53.76 LIG-0.27  OA
ATOM      3  N   GLY C 761      14.081 -17.551  17.897  1.00 59.89 LIG-0.35  N 
ATOM      4 H    GLY C 761      14.887 -17.846  17.850  1.00 59.89 LIG 0.16  HD
ENDROOT
BRANCH 1 5
ATOM      5  CA  ARG C 760      14.006 -17.252  15.481  1.00 61.16 LIG 0.40  C 
ATOM      6  N   ARG C 760      12.949 -17.138  14.478  1.00 59.95 LIG 0.61  N 
BRANCH 5 7
ATOM      7  CB  ARG C 760      15.143 -16.279  15.170  1.00 63.40 LIG 0.05  C 
BRANCH 7 8
ATOM      8  CG  ARG C 760      15.757 -16.458  13.796  1.00 63.69 LIG 0.02  C 
BRANCH 8 9
ATOM      9  CD  ARG C 760      15.925 -15.120  13.095  1.00 63.30 LIG 0.14  C 
BRANCH 9 10
ATOM     10  NE  ARG C 760      14.663 -14.644  12.537  1.00 65.15 LIG-0.23  N 
ATOM     11  CZ  ARG C 760      14.171 -15.020  11.361  1.00 66.46 LIG 0.67  C 
ATOM     12  NH1 ARG C 760      14.829 -15.891  10.606  1.00 66.43 LIG-0.23  N 
ATOM     13  NH2 ARG C 760      13.015 -14.527  10.940  1.00 66.89 LIG-0.23  N 
ATOM     14 2HH1 ARG C 760      14.507 -16.131   9.846  1.00 66.43 LIG 0.17  HD
ATOM     15 1HH1 ARG C 760      15.579 -16.216  10.878  1.00 66.43 LIG 0.17  HD
ATOM     16 2HH2 ARG C 760      12.697 -14.770  10.179  1.00 66.89 LIG 0.17  HD
ATOM     17 1HH2 ARG C 760      12.585 -13.965  11.427  1.00 66.89 LIG 0.17  HD
ATOM     18 HE   ARG C 760      14.207 -14.082  13.002  1.00 65.15 LIG 0.18  HD
ENDBRANCH 9 10
ENDBRANCH 8 9
ENDBRANCH 7 8
ENDBRANCH 5 7
ENDBRANCH 1 5
BRANCH 3 19
ATOM     19  CA  GLY C 761      13.465 -17.693  19.206  1.00 62.83 LIG 0.23  C 
BRANCH 19 20
ATOM     20  C   GLY C 761      12.433 -18.780  19.468  1.00 67.24 LIG 0.24  C 
ATOM     21 O    GLY C 761      11.992 -19.467  18.546  1.00 65.14 LIG-0.27  OA
ATOM     22  N   THR C 762      12.054 -18.913  20.738  1.00 72.11 LIG-0.34  N 
ATOM     23 H    THR C 762      12.135 -18.279  21.313  1.00 72.11 LIG 0.16  HD
BRANCH 22 24
ATOM     24  CA  THR C 762      11.463 -20.130  21.306  1.00 75.13 LIG 0.21  C 
BRANCH 24 25
ATOM     25  C   THR C 762      10.062 -19.776  21.795  1.00 73.09 LIG 0.20  C 
ATOM     26 OXT  THR C 762       9.506 -18.762  21.378  1.00 76.95 LIG-0.65  OA
ATOM     27 O    THR C 762       9.446 -20.475  22.601  1.00 68.26 LIG-0.65  OA
ENDBRANCH 24 25
BRANCH 24 28
ATOM     28  CB  THR C 762      12.262 -20.738  22.481  1.00 77.67 LIG 0.15  C 
ATOM     29  CG2 THR C 762      12.919 -22.038  22.052  1.00 76.40 LIG 0.04  C 
BRANCH 28 30
ATOM     30 OG1  THR C 762      13.279 -19.824  22.906  1.00 80.43 LIG-0.39  OA
ATOM     31 HG1  THR C 762      13.163 -19.633  23.716  1.00 80.43 LIG 0.21  HD
ENDBRANCH 28 30
ENDBRANCH 24 28
ENDBRANCH 22 24
ENDBRANCH 19 20
ENDBRANCH 3 19
TORSDOF 11
ENDMDL
MODEL 54
USER: ADFR SOLUTION from run 56
USER: SCORE 6.794034 LL:  -0.693 LR:  -6.374 RR:   0.000 FEB:  -3.093
USER: RMSD 6.105536
USER: SEED 55
USER: STATUS no improvement in best in 33 clusters for 5 generations
USER: GENES 13
USER: genes 0 Translation |==|  0.25010 0.48155 0.41086
USER: genes 1 Rotation |==|  0.49351 0.62671 0.12342 0.80347
USER: genes 2 Torsion [N]-C--CA-[N] |==|  0.58888
USER: genes 3 Torsion [C]-CA--CB-[CG] |==|  0.26617
USER: genes 4 Torsion [CA]-CB--CG-[CD] |==|  0.28419
USER: genes 5 Torsion [CB]-CG--CD-[NE] |==|  0.86391
USER: genes 6 Torsion [CG]-CD--NE-[CZ] |==|  0.43255
USER: genes 7 Torsion [C]-N--CA-[C] |==|  0.44036
USER: genes 8 Torsion [N]-CA--C-[N] |==|  0.51825
USER: genes 9 Torsion [C]-N--CA-[C] |==|  0.23507
USER: genes 10 Torsion [N]-CA--C-[OXT] |==|  0.95192
USER: genes 11 Torsion [N]-CA--CB-[OG1] |==|  0.86526
USER: genes 12 Torsion [CA]-CB--OG1-[HG1] |==|  0.20388
ROOT
ATOM      1  C   ARG C 760      12.977 -17.241  16.286  1.00 56.34 LIG 0.26  C 
ATOM      2 O    ARG C 760      13.963 -16.631  16.689  1.00 53.76 LIG-0.27  OA
ATOM      3  N   GLY C 761      12.326 -18.130  17.030  1.00 59.89 LIG-0.35  N 
ATOM      4 H    GLY C 761      11.775 -18.709  16.714  1.00 59.89 LIG 0.16  HD
ENDROOT
BRANCH 1 5
ATOM      5  CA  ARG C 760      12.443 -17.006  14.873  1.00 61.16 LIG 0.40  C 
ATOM      6  N   ARG C 760      13.547 -16.676  13.973  1.00 59.95 LIG 0.61  N 
BRANCH 5 7
ATOM      7  CB  ARG C 760      11.681 -18.226  14.355  1.00 63.40 LIG 0.05  C 
BRANCH 7 8
ATOM      8  CG  ARG C 760      10.180 -18.150  14.548  1.00 63.69 LIG 0.02  C 
BRANCH 8 9
ATOM      9  CD  ARG C 760       9.480 -17.787  13.249  1.00 63.30 LIG 0.14  C 
BRANCH 9 10
ATOM     10  NE  ARG C 760      10.101 -16.631  12.609  1.00 65.15 LIG-0.23  N 
ATOM     11  CZ  ARG C 760      10.035 -16.366  11.308  1.00 66.46 LIG 0.67  C 
ATOM     12  NH1 ARG C 760       9.366 -17.171  10.492  1.00 66.43 LIG-0.23  N 
ATOM     13  NH2 ARG C 760      10.636 -15.290  10.821  1.00 66.89 LIG-0.23  N 
ATOM     14 2HH1 ARG C 760       9.327 -16.995   9.651  1.00 66.43 LIG 0.17  HD
ATOM     15 1HH1 ARG C 760       8.972 -17.869  10.804  1.00 66.43 LIG 0.17  HD
ATOM     16 2HH2 ARG C 760      10.594 -15.118   9.980  1.00 66.89 LIG 0.17  HD
ATOM     17 1HH2 ARG C 760      11.067 -14.764  11.347  1.00 66.89 LIG 0.17  HD
ATOM     18 HE   ARG C 760      10.538 -16.084  13.108  1.00 65.15 LIG 0.18  HD
ENDBRANCH 9 10
ENDBRANCH 8 9
ENDBRANCH 7 8
ENDBRANCH 5 7
ENDBRANCH 1 5
BRANCH 3 19
ATOM     19  CA  GLY C 761      12.502 -18.191  18.472  1.00 62.83 LIG 0.23  C 
BRANCH 19 20
ATOM     20  C   GLY C 761      11.448 -18.836  19.359  1.00 67.24 LIG 0.24  C 
ATOM     21 O    GLY C 761      10.480 -19.418  18.868  1.00 65.14 LIG-0.27  OA
ATOM     22  N   THR C 762      11.651 -18.713  20.669  1.00 72.11 LIG-0.34  N 
ATOM     23 H    THR C 762      12.143 -18.093  21.004  1.00 72.11 LIG 0.16  HD
BRANCH 22 24
ATOM     24  CA  THR C 762      11.077 -19.601  21.687  1.00 75.13 LIG 0.21  C 
BRANCH 24 25
ATOM     25  C   THR C 762      11.993 -20.814  21.809  1.00 73.09 LIG 0.20  C 
ATOM     26 OXT  THR C 762      12.805 -21.060  20.919  1.00 76.95 LIG-0.65  OA
ATOM     27 O    THR C 762      11.963 -21.572  22.780  1.00 68.26 LIG-0.65  OA
ENDBRANCH 24 25
BRANCH 24 28
ATOM     28  CB  THR C 762       9.645 -20.088  21.372  1.00 77.67 LIG 0.15  C 
ATOM     29  CG2 THR C 762       9.038 -20.756  22.594  1.00 76.40 LIG 0.04  C 
BRANCH 28 30
ATOM     30 OG1  THR C 762       8.821 -18.979  20.995  1.00 80.43 LIG-0.39  OA
ATOM     31 HG1  THR C 762       9.031 -18.725  20.222  1.00 80.43 LIG 0.21  HD
ENDBRANCH 28 30
ENDBRANCH 24 28
ENDBRANCH 22 24
ENDBRANCH 19 20
ENDBRANCH 3 19
TORSDOF 11
ENDMDL
MODEL 55
USER: ADFR SOLUTION from run 50
USER: SCORE 7.016083 LL:  -0.814 LR:  -6.350 RR:   0.000 FEB:  -3.068
USER: RMSD 4.378020
USER: SEED 49
USER: STATUS no improvement in best in 28 clusters for 5 generations
USER: GENES 13
USER: genes 0 Translation |==|  0.30644 0.52934 0.37835
USER: genes 1 Rotation |==|  0.53141 0.47671 0.63609 0.97953
USER: genes 2 Torsion [N]-C--CA-[N] |==|  0.86900
USER: genes 3 Torsion [C]-CA--CB-[CG] |==|  0.14490
USER: genes 4 Torsion [CA]-CB--CG-[CD] |==|  0.27022
USER: genes 5 Torsion [CB]-CG--CD-[NE] |==|  0.88356
USER: genes 6 Torsion [CG]-CD--NE-[CZ] |==|  0.35316
USER: genes 7 Torsion [C]-N--CA-[C] |==|  0.78889
USER: genes 8 Torsion [N]-CA--C-[N] |==|  0.52182
USER: genes 9 Torsion [C]-N--CA-[C] |==|  0.65710
USER: genes 10 Torsion [N]-CA--C-[OXT] |==|  0.84825
USER: genes 11 Torsion [N]-CA--CB-[OG1] |==|  0.17253
USER: genes 12 Torsion [CA]-CB--OG1-[HG1] |==|  0.08347
ROOT
ATOM      1  C   ARG C 760      13.949 -16.632  15.628  1.00 56.34 LIG 0.26  C 
ATOM      2 O    ARG C 760      12.786 -16.631  16.018  1.00 53.76 LIG-0.27  OA
ATOM      3  N   GLY C 761      14.969 -16.990  16.402  1.00 59.89 LIG-0.35  N 
ATOM      4 H    GLY C 761      15.791 -16.808  16.228  1.00 59.89 LIG 0.16  HD
ENDROOT
BRANCH 1 5
ATOM      5  CA  ARG C 760      14.288 -16.205  14.199  1.00 61.16 LIG 0.40  C 
ATOM      6  N   ARG C 760      15.406 -15.263  14.214  1.00 59.95 LIG 0.61  N 
BRANCH 5 7
ATOM      7  CB  ARG C 760      14.621 -17.412  13.321  1.00 63.40 LIG 0.05  C 
BRANCH 7 8
ATOM      8  CG  ARG C 760      13.575 -18.508  13.347  1.00 63.69 LIG 0.02  C 
BRANCH 8 9
ATOM      9  CD  ARG C 760      12.635 -18.394  12.158  1.00 63.30 LIG 0.14  C 
BRANCH 9 10
ATOM     10  NE  ARG C 760      12.261 -17.006  11.901  1.00 65.15 LIG-0.23  N 
ATOM     11  CZ  ARG C 760      12.382 -16.401  10.723  1.00 66.46 LIG 0.67  C 
ATOM     12  NH1 ARG C 760      12.862 -17.060   9.677  1.00 66.43 LIG-0.23  N 
ATOM     13  NH2 ARG C 760      12.016 -15.134  10.591  1.00 66.89 LIG-0.23  N 
ATOM     14 2HH1 ARG C 760      12.938 -16.664   8.917  1.00 66.43 LIG 0.17  HD
ATOM     15 1HH1 ARG C 760      13.097 -17.884   9.757  1.00 66.43 LIG 0.17  HD
ATOM     16 2HH2 ARG C 760      12.094 -14.742   9.830  1.00 66.89 LIG 0.17  HD
ATOM     17 1HH2 ARG C 760      11.702 -14.705  11.266  1.00 66.89 LIG 0.17  HD
ATOM     18 HE   ARG C 760      11.941 -16.550  12.555  1.00 65.15 LIG 0.18  HD
ENDBRANCH 9 10
ENDBRANCH 8 9
ENDBRANCH 7 8
ENDBRANCH 5 7
ENDBRANCH 1 5
BRANCH 3 19
ATOM     19  CA  GLY C 761      14.766 -17.736  17.633  1.00 62.83 LIG 0.23  C 
BRANCH 19 20
ATOM     20  C   GLY C 761      14.240 -17.047  18.884  1.00 67.24 LIG 0.24  C 
ATOM     21 O    GLY C 761      13.847 -15.881  18.844  1.00 65.14 LIG-0.27  OA
ATOM     22  N   THR C 762      14.248 -17.789  19.990  1.00 72.11 LIG-0.34  N 
ATOM     23 H    THR C 762      14.763 -18.471  20.084  1.00 72.11 LIG 0.16  HD
BRANCH 22 24
ATOM     24  CA  THR C 762      13.401 -17.543  21.163  1.00 75.13 LIG 0.21  C 
BRANCH 24 25
ATOM     25  C   THR C 762      14.321 -17.386  22.370  1.00 73.09 LIG 0.20  C 
ATOM     26 OXT  THR C 762      15.135 -18.266  22.637  1.00 76.95 LIG-0.65  OA
ATOM     27 O    THR C 762      14.289 -16.395  23.101  1.00 68.26 LIG-0.65  OA
ENDBRANCH 24 25
BRANCH 24 28
ATOM     28  CB  THR C 762      12.381 -18.666  21.457  1.00 77.67 LIG 0.15  C 
ATOM     29  CG2 THR C 762      11.477 -18.881  20.256  1.00 76.40 LIG 0.04  C 
BRANCH 28 30
ATOM     30 OG1  THR C 762      13.067 -19.889  21.745  1.00 80.43 LIG-0.39  OA
ATOM     31 HG1  THR C 762      13.810 -19.716  22.097  1.00 80.43 LIG 0.21  HD
ENDBRANCH 28 30
ENDBRANCH 24 28
ENDBRANCH 22 24
ENDBRANCH 19 20
ENDBRANCH 3 19
TORSDOF 11
ENDMDL
MODEL 56
USER: ADFR SOLUTION from run 101
USER: SCORE 6.608536 LL:  -0.596 LR:  -6.317 RR:   0.000 FEB:  -3.035
USER: RMSD 4.487015
USER: SEED 100
USER: STATUS no improvement in best in 27 clusters for 5 generations
USER: GENES 13
USER: genes 0 Translation |==|  0.29460 0.48983 0.36487
USER: genes 1 Rotation |==|  0.66030 0.44376 0.28656 0.91903
USER: genes 2 Torsion [N]-C--CA-[N] |==|  0.22363
USER: genes 3 Torsion [C]-CA--CB-[CG] |==|  0.45218
USER: genes 4 Torsion [CA]-CB--CG-[CD] |==|  0.39116
USER: genes 5 Torsion [CB]-CG--CD-[NE] |==|  0.97924
USER: genes 6 Torsion [CG]-CD--NE-[CZ] |==|  0.33665
USER: genes 7 Torsion [C]-N--CA-[C] |==|  0.81456
USER: genes 8 Torsion [N]-CA--C-[N] |==|  0.52690
USER: genes 9 Torsion [C]-N--CA-[C] |==|  0.80054
USER: genes 10 Torsion [N]-CA--C-[OXT] |==|  0.90255
USER: genes 11 Torsion [N]-CA--CB-[OG1] |==|  0.93713
USER: genes 12 Torsion [CA]-CB--OG1-[HG1] |==|  0.89634
ROOT
ATOM      1  C   ARG C 760      13.745 -17.136  15.355  1.00 56.34 LIG 0.26  C 
ATOM      2 O    ARG C 760      13.385 -16.316  16.193  1.00 53.76 LIG-0.27  OA
ATOM      3  N   GLY C 761      13.373 -18.412  15.388  1.00 59.89 LIG-0.35  N 
ATOM      4 H    GLY C 761      13.764 -19.037  14.947  1.00 59.89 LIG 0.16  HD
ENDROOT
BRANCH 1 5
ATOM      5  CA  ARG C 760      14.665 -16.719  14.207  1.00 61.16 LIG 0.40  C 
ATOM      6  N   ARG C 760      13.880 -16.500  12.994  1.00 59.95 LIG 0.61  N 
BRANCH 5 7
ATOM      7  CB  ARG C 760      15.461 -15.462  14.560  1.00 63.40 LIG 0.05  C 
BRANCH 7 8
ATOM      8  CG  ARG C 760      16.668 -15.221  13.676  1.00 63.69 LIG 0.02  C 
BRANCH 8 9
ATOM      9  CD  ARG C 760      16.828 -13.742  13.363  1.00 63.30 LIG 0.14  C 
BRANCH 9 10
ATOM     10  NE  ARG C 760      15.689 -12.965  13.844  1.00 65.15 LIG-0.23  N 
ATOM     11  CZ  ARG C 760      15.775 -11.963  14.714  1.00 66.46 LIG 0.67  C 
ATOM     12  NH1 ARG C 760      16.954 -11.600  15.203  1.00 66.43 LIG-0.23  N 
ATOM     13  NH2 ARG C 760      14.680 -11.320  15.091  1.00 66.89 LIG-0.23  N 
ATOM     14 2HH1 ARG C 760      17.005 -10.951  15.765  1.00 66.43 LIG 0.17  HD
ATOM     15 1HH1 ARG C 760      17.668 -12.013  14.958  1.00 66.43 LIG 0.17  HD
ATOM     16 2HH2 ARG C 760      14.735 -10.672  15.653  1.00 66.89 LIG 0.17  HD
ATOM     17 1HH2 ARG C 760      13.916 -11.550  14.774  1.00 66.89 LIG 0.17  HD
ATOM     18 HE   ARG C 760      14.910 -13.169  13.543  1.00 65.15 LIG 0.18  HD
ENDBRANCH 9 10
ENDBRANCH 8 9
ENDBRANCH 7 8
ENDBRANCH 5 7
ENDBRANCH 1 5
BRANCH 3 19
ATOM     19  CA  GLY C 761      12.247 -18.857  16.194  1.00 62.83 LIG 0.23  C 
BRANCH 19 20
ATOM     20  C   GLY C 761      12.307 -18.802  17.713  1.00 67.24 LIG 0.24  C 
ATOM     21 O    GLY C 761      13.231 -18.228  18.288  1.00 65.14 LIG-0.27  OA
ATOM     22  N   THR C 762      11.309 -19.417  18.346  1.00 72.11 LIG-0.34  N 
ATOM     23 H    THR C 762      10.840 -20.036  17.976  1.00 72.11 LIG 0.16  HD
BRANCH 22 24
ATOM     24  CA  THR C 762      10.891 -19.124  19.721  1.00 75.13 LIG 0.21  C 
BRANCH 24 25
ATOM     25  C   THR C 762      11.969 -19.667  20.655  1.00 73.09 LIG 0.20  C 
ATOM     26 OXT  THR C 762      12.564 -20.703  20.365  1.00 76.95 LIG-0.65  OA
ATOM     27 O    THR C 762      12.281 -19.101  21.704  1.00 68.26 LIG-0.65  OA
ENDBRANCH 24 25
BRANCH 24 28
ATOM     28  CB  THR C 762       9.531 -19.742  20.119  1.00 77.67 LIG 0.15  C 
ATOM     29  CG2 THR C 762       8.762 -18.785  21.013  1.00 76.40 LIG 0.04  C 
BRANCH 28 30
ATOM     30 OG1  THR C 762       8.752 -20.007  18.947  1.00 80.43 LIG-0.39  OA
ATOM     31 HG1  THR C 762       8.873 -19.394  18.386  1.00 80.43 LIG 0.21  HD
ENDBRANCH 28 30
ENDBRANCH 24 28
ENDBRANCH 22 24
ENDBRANCH 19 20
ENDBRANCH 3 19
TORSDOF 11
ENDMDL
MODEL 57
USER: ADFR SOLUTION from run 101
USER: SCORE 7.081294 LL:  -1.024 LR:  -6.320 RR:   0.000 FEB:  -3.039
USER: RMSD 3.718079
USER: SEED 100
USER: STATUS no improvement in best in 27 clusters for 5 generations
USER: GENES 13
USER: genes 0 Translation |==|  0.25769 0.46236 0.37155
USER: genes 1 Rotation |==|  0.63866 0.42751 0.32820 0.94272
USER: genes 2 Torsion [N]-C--CA-[N] |==|  0.24618
USER: genes 3 Torsion [C]-CA--CB-[CG] |==|  0.40847
USER: genes 4 Torsion [CA]-CB--CG-[CD] |==|  0.34491
USER: genes 5 Torsion [CB]-CG--CD-[NE] |==|  0.08650
USER: genes 6 Torsion [CG]-CD--NE-[CZ] |==|  0.26795
USER: genes 7 Torsion [C]-N--CA-[C] |==|  0.83666
USER: genes 8 Torsion [N]-CA--C-[N] |==|  0.98333
USER: genes 9 Torsion [C]-N--CA-[C] |==|  0.54092
USER: genes 10 Torsion [N]-CA--C-[OXT] |==|  0.07189
USER: genes 11 Torsion [N]-CA--CB-[OG1] |==|  0.98215
USER: genes 12 Torsion [CA]-CB--OG1-[HG1] |==|  0.14371
ROOT
ATOM      1  C   ARG C 760      13.108 -17.486  15.490  1.00 56.34 LIG 0.26  C 
ATOM      2 O    ARG C 760      12.575 -16.619  16.175  1.00 53.76 LIG-0.27  OA
ATOM      3  N   GLY C 761      12.922 -18.786  15.700  1.00 59.89 LIG-0.35  N 
ATOM      4 H    GLY C 761      13.429 -19.401  15.379  1.00 59.89 LIG 0.16  HD
ENDROOT
BRANCH 1 5
ATOM      5  CA  ARG C 760      14.038 -17.102  14.339  1.00 61.16 LIG 0.40  C 
ATOM      6  N   ARG C 760      13.274 -16.995  13.097  1.00 59.95 LIG 0.61  N 
BRANCH 5 7
ATOM      7  CB  ARG C 760      14.771 -15.792  14.627  1.00 63.40 LIG 0.05  C 
BRANCH 7 8
ATOM      8  CG  ARG C 760      16.168 -15.719  14.045  1.00 63.69 LIG 0.02  C 
BRANCH 8 9
ATOM      9  CD  ARG C 760      16.323 -14.500  13.151  1.00 63.30 LIG 0.14  C 
BRANCH 9 10
ATOM     10  NE  ARG C 760      15.486 -13.392  13.602  1.00 65.15 LIG-0.23  N 
ATOM     11  CZ  ARG C 760      15.910 -12.394  14.371  1.00 66.46 LIG 0.67  C 
ATOM     12  NH1 ARG C 760      17.173 -12.350  14.777  1.00 66.43 LIG-0.23  N 
ATOM     13  NH2 ARG C 760      15.070 -11.434  14.731  1.00 66.89 LIG-0.23  N 
ATOM     14 2HH1 ARG C 760      17.442 -11.702  15.274  1.00 66.43 LIG 0.17  HD
ATOM     15 1HH1 ARG C 760      17.722 -12.969  14.543  1.00 66.43 LIG 0.17  HD
ATOM     16 2HH2 ARG C 760      15.344 -10.788  15.228  1.00 66.89 LIG 0.17  HD
ATOM     17 1HH2 ARG C 760      14.253 -11.458  14.467  1.00 66.89 LIG 0.17  HD
ATOM     18 HE   ARG C 760      14.663 -13.385  13.354  1.00 65.15 LIG 0.18  HD
ENDBRANCH 9 10
ENDBRANCH 8 9
ENDBRANCH 7 8
ENDBRANCH 5 7
ENDBRANCH 1 5
BRANCH 3 19
ATOM     19  CA  GLY C 761      11.818 -19.277  16.508  1.00 62.83 LIG 0.23  C 
BRANCH 19 20
ATOM     20  C   GLY C 761      11.665 -18.848  17.960  1.00 67.24 LIG 0.24  C 
ATOM     21 O    GLY C 761      10.671 -19.168  18.611  1.00 65.14 LIG-0.27  OA
ATOM     22  N   THR C 762      12.664 -18.114  18.447  1.00 72.11 LIG-0.34  N 
ATOM     23 H    THR C 762      13.196 -17.665  17.942  1.00 72.11 LIG 0.16  HD
BRANCH 22 24
ATOM     24  CA  THR C 762      12.979 -17.979  19.874  1.00 75.13 LIG 0.21  C 
BRANCH 24 25
ATOM     25  C   THR C 762      13.925 -16.791  20.026  1.00 73.09 LIG 0.20  C 
ATOM     26 OXT  THR C 762      13.911 -15.888  19.192  1.00 76.95 LIG-0.65  OA
ATOM     27 O    THR C 762      14.714 -16.690  20.966  1.00 68.26 LIG-0.65  OA
ENDBRANCH 24 25
BRANCH 24 28
ATOM     28  CB  THR C 762      13.641 -19.226  20.500  1.00 77.67 LIG 0.15  C 
ATOM     29  CG2 THR C 762      12.866 -19.670  21.729  1.00 76.40 LIG 0.04  C 
BRANCH 28 30
ATOM     30 OG1  THR C 762      13.660 -20.299  19.553  1.00 80.43 LIG-0.39  OA
ATOM     31 HG1  THR C 762      13.997 -20.031  18.832  1.00 80.43 LIG 0.21  HD
ENDBRANCH 28 30
ENDBRANCH 24 28
ENDBRANCH 22 24
ENDBRANCH 19 20
ENDBRANCH 3 19
TORSDOF 11
ENDMDL
MODEL 58
USER: ADFR SOLUTION from run 65
USER: SCORE 7.213785 LL:  -0.973 LR:  -6.308 RR:   0.000 FEB:  -3.026
USER: RMSD 2.403893
USER: SEED 64
USER: STATUS no improvement in best in 20 clusters for 5 generations
USER: GENES 13
USER: genes 0 Translation |==|  0.24567 0.45415 0.42681
USER: genes 1 Rotation |==|  0.49150 0.52318 0.30286 0.95883
USER: genes 2 Torsion [N]-C--CA-[N] |==|  0.37176
USER: genes 3 Torsion [C]-CA--CB-[CG] |==|  0.90980
USER: genes 4 Torsion [CA]-CB--CG-[CD] |==|  0.58351
USER: genes 5 Torsion [CB]-CG--CD-[NE] |==|  0.29373
USER: genes 6 Torsion [CG]-CD--NE-[CZ] |==|  0.35130
USER: genes 7 Torsion [C]-N--CA-[C] |==|  0.81317
USER: genes 8 Torsion [N]-CA--C-[N] |==|  0.91147
USER: genes 9 Torsion [C]-N--CA-[C] |==|  0.15904
USER: genes 10 Torsion [N]-CA--C-[OXT] |==|  0.17166
USER: genes 11 Torsion [N]-CA--CB-[OG1] |==|  0.89586
USER: genes 12 Torsion [CA]-CB--OG1-[HG1] |==|  0.23292
ROOT
ATOM      1  C   ARG C 760      12.901 -17.591  16.609  1.00 56.34 LIG 0.26  C 
ATOM      2 O    ARG C 760      12.774 -16.465  17.080  1.00 53.76 LIG-0.27  OA
ATOM      3  N   GLY C 761      12.953 -18.685  17.363  1.00 59.89 LIG-0.35  N 
ATOM      4 H    GLY C 761      13.241 -19.446  17.085  1.00 59.89 LIG 0.16  HD
ENDROOT
BRANCH 1 5
ATOM      5  CA  ARG C 760      13.013 -17.792  15.097  1.00 61.16 LIG 0.40  C 
ATOM      6  N   ARG C 760      11.987 -17.006  14.414  1.00 59.95 LIG 0.61  N 
BRANCH 5 7
ATOM      7  CB  ARG C 760      14.403 -17.412  14.586  1.00 63.40 LIG 0.05  C 
BRANCH 7 8
ATOM      8  CG  ARG C 760      15.061 -16.283  15.353  1.00 63.69 LIG 0.02  C 
BRANCH 8 9
ATOM      9  CD  ARG C 760      15.990 -15.482  14.455  1.00 63.30 LIG 0.14  C 
BRANCH 9 10
ATOM     10  NE  ARG C 760      15.413 -14.188  14.104  1.00 65.15 LIG-0.23  N 
ATOM     11  CZ  ARG C 760      16.023 -13.020  14.281  1.00 66.46 LIG 0.67  C 
ATOM     12  NH1 ARG C 760      17.242 -12.972  14.802  1.00 66.43 LIG-0.23  N 
ATOM     13  NH2 ARG C 760      15.413 -11.896  13.932  1.00 66.89 LIG-0.23  N 
ATOM     14 2HH1 ARG C 760      17.633 -12.214  14.915  1.00 66.43 LIG 0.17  HD
ATOM     15 1HH1 ARG C 760      17.643 -13.700  15.027  1.00 66.43 LIG 0.17  HD
ATOM     16 2HH2 ARG C 760      15.807 -11.140  14.046  1.00 66.89 LIG 0.17  HD
ATOM     17 1HH2 ARG C 760      14.625 -11.923  13.591  1.00 66.89 LIG 0.17  HD
ATOM     18 HE   ARG C 760      14.626 -14.180  13.758  1.00 65.15 LIG 0.18  HD
ENDBRANCH 9 10
ENDBRANCH 8 9
ENDBRANCH 7 8
ENDBRANCH 5 7
ENDBRANCH 1 5
BRANCH 3 19
ATOM     19  CA  GLY C 761      12.514 -18.677  18.749  1.00 62.83 LIG 0.23  C 
BRANCH 19 20
ATOM     20  C   GLY C 761      13.278 -17.889  19.802  1.00 67.24 LIG 0.24  C 
ATOM     21 O    GLY C 761      12.691 -17.381  20.758  1.00 65.14 LIG-0.27  OA
ATOM     22  N   THR C 762      14.591 -17.792  19.603  1.00 72.11 LIG-0.34  N 
ATOM     23 H    THR C 762      14.948 -17.891  18.827  1.00 72.11 LIG 0.16  HD
BRANCH 22 24
ATOM     24  CA  THR C 762      15.574 -17.511  20.655  1.00 75.13 LIG 0.21  C 
BRANCH 24 25
ATOM     25  C   THR C 762      15.423 -18.589  21.725  1.00 73.09 LIG 0.20  C 
ATOM     26 OXT  THR C 762      15.624 -19.768  21.438  1.00 76.95 LIG-0.65  OA
ATOM     27 O    THR C 762      15.108 -18.329  22.887  1.00 68.26 LIG-0.65  OA
ENDBRANCH 24 25
BRANCH 24 28
ATOM     28  CB  THR C 762      15.417 -16.125  21.320  1.00 77.67 LIG 0.15  C 
ATOM     29  CG2 THR C 762      16.729 -15.697  21.955  1.00 76.40 LIG 0.04  C 
BRANCH 28 30
ATOM     30 OG1  THR C 762      15.038 -15.152  20.341  1.00 80.43 LIG-0.39  OA
ATOM     31 HG1  THR C 762      14.206 -15.175  20.231  1.00 80.43 LIG 0.21  HD
ENDBRANCH 28 30
ENDBRANCH 24 28
ENDBRANCH 22 24
ENDBRANCH 19 20
ENDBRANCH 3 19
TORSDOF 11
ENDMDL
MODEL 59
USER: ADFR SOLUTION from run 82
USER: SCORE 6.956406 LL:  -0.824 LR:  -6.315 RR:   0.000 FEB:  -3.033
USER: RMSD 4.744475
USER: SEED 81
USER: STATUS no improvement in best in 17 clusters for 5 generations
USER: GENES 13
USER: genes 0 Translation |==|  0.32036 0.51856 0.34070
USER: genes 1 Rotation |==|  0.61691 0.55389 0.44220 0.97968
USER: genes 2 Torsion [N]-C--CA-[N] |==|  0.69949
USER: genes 3 Torsion [C]-CA--CB-[CG] |==|  0.31442
USER: genes 4 Torsion [CA]-CB--CG-[CD] |==|  0.82516
USER: genes 5 Torsion [CB]-CG--CD-[NE] |==|  0.21174
USER: genes 6 Torsion [CG]-CD--NE-[CZ] |==|  0.58504
USER: genes 7 Torsion [C]-N--CA-[C] |==|  0.85392
USER: genes 8 Torsion [N]-CA--C-[N] |==|  0.90489
USER: genes 9 Torsion [C]-N--CA-[C] |==|  0.16229
USER: genes 10 Torsion [N]-CA--C-[OXT] |==|  0.10961
USER: genes 11 Torsion [N]-CA--CB-[OG1] |==|  0.90690
USER: genes 12 Torsion [CA]-CB--OG1-[HG1] |==|  0.61487
ROOT
ATOM      1  C   ARG C 760      14.189 -16.769  14.865  1.00 56.34 LIG 0.26  C 
ATOM      2 O    ARG C 760      13.545 -16.259  15.776  1.00 53.76 LIG-0.27  OA
ATOM      3  N   GLY C 761      14.833 -17.925  14.998  1.00 59.89 LIG-0.35  N 
ATOM      4 H    GLY C 761      15.445 -18.198  14.460  1.00 59.89 LIG 0.16  HD
ENDROOT
BRANCH 1 5
ATOM      5  CA  ARG C 760      14.288 -16.081  13.504  1.00 61.16 LIG 0.40  C 
ATOM      6  N   ARG C 760      15.139 -14.897  13.606  1.00 59.95 LIG 0.61  N 
BRANCH 5 7
ATOM      7  CB  ARG C 760      14.826 -17.032  12.436  1.00 63.40 LIG 0.05  C 
BRANCH 7 8
ATOM      8  CG  ARG C 760      13.823 -17.390  11.358  1.00 63.69 LIG 0.02  C 
BRANCH 8 9
ATOM      9  CD  ARG C 760      12.635 -18.136  11.944  1.00 63.30 LIG 0.14  C 
BRANCH 9 10
ATOM     10  NE  ARG C 760      11.726 -17.232  12.643  1.00 65.15 LIG-0.23  N 
ATOM     11  CZ  ARG C 760      10.982 -17.575  13.690  1.00 66.46 LIG 0.67  C 
ATOM     12  NH1 ARG C 760      11.037 -18.809  14.176  1.00 66.43 LIG-0.23  N 
ATOM     13  NH2 ARG C 760      10.184 -16.681  14.255  1.00 66.89 LIG-0.23  N 
ATOM     14 2HH1 ARG C 760      10.554 -19.026  14.854  1.00 66.43 LIG 0.17  HD
ATOM     15 1HH1 ARG C 760      11.557 -19.391  13.815  1.00 66.43 LIG 0.17  HD
ATOM     16 2HH2 ARG C 760       9.702 -16.902  14.932  1.00 66.89 LIG 0.17  HD
ATOM     17 1HH2 ARG C 760      10.148 -15.881  13.945  1.00 66.89 LIG 0.17  HD
ATOM     18 HE   ARG C 760      11.669 -16.423  12.359  1.00 65.15 LIG 0.18  HD
ENDBRANCH 9 10
ENDBRANCH 8 9
ENDBRANCH 7 8
ENDBRANCH 5 7
ENDBRANCH 1 5
BRANCH 3 19
ATOM     19  CA  GLY C 761      14.542 -18.838  16.091  1.00 62.83 LIG 0.23  C 
BRANCH 19 20
ATOM     20  C   GLY C 761      14.557 -18.356  17.534  1.00 67.24 LIG 0.24  C 
ATOM     21 O    GLY C 761      13.773 -18.819  18.362  1.00 65.14 LIG-0.27  OA
ATOM     22  N   THR C 762      15.458 -17.415  17.812  1.00 72.11 LIG-0.34  N 
ATOM     23 H    THR C 762      15.795 -16.906  17.206  1.00 72.11 LIG 0.16  HD
BRANCH 22 24
ATOM     24  CA  THR C 762      15.979 -17.133  19.154  1.00 75.13 LIG 0.21  C 
BRANCH 24 25
ATOM     25  C   THR C 762      16.615 -18.417  19.679  1.00 73.09 LIG 0.20  C 
ATOM     26 OXT  THR C 762      17.266 -19.132  18.920  1.00 76.95 LIG-0.65  OA
ATOM     27 O    THR C 762      16.510 -18.775  20.853  1.00 68.26 LIG-0.65  OA
ENDBRANCH 24 25
BRANCH 24 28
ATOM     28  CB  THR C 762      14.912 -16.656  20.165  1.00 77.67 LIG 0.15  C 
ATOM     29  CG2 THR C 762      15.555 -15.801  21.242  1.00 76.40 LIG 0.04  C 
BRANCH 28 30
ATOM     30 OG1  THR C 762      13.913 -15.881  19.493  1.00 80.43 LIG-0.39  OA
ATOM     31 HG1  THR C 762      13.710 -15.217  19.966  1.00 80.43 LIG 0.21  HD
ENDBRANCH 28 30
ENDBRANCH 24 28
ENDBRANCH 22 24
ENDBRANCH 19 20
ENDBRANCH 3 19
TORSDOF 11
ENDMDL
MODEL 60
USER: ADFR SOLUTION from run 157
USER: SCORE 6.840528 LL:  -0.717 LR:  -6.277 RR:   0.000 FEB:  -2.996
USER: RMSD 5.627916
USER: SEED 156
USER: STATUS no improvement in best in 26 clusters for 5 generations
USER: GENES 13
USER: genes 0 Translation |==|  0.20768 0.45707 0.39642
USER: genes 1 Rotation |==|  0.53665 0.59547 0.22176 0.90265
USER: genes 2 Torsion [N]-C--CA-[N] |==|  0.72668
USER: genes 3 Torsion [C]-CA--CB-[CG] |==|  0.19708
USER: genes 4 Torsion [CA]-CB--CG-[CD] |==|  0.27297
USER: genes 5 Torsion [CB]-CG--CD-[NE] |==|  0.89605
USER: genes 6 Torsion [CG]-CD--NE-[CZ] |==|  0.35871
USER: genes 7 Torsion [C]-N--CA-[C] |==|  0.82568
USER: genes 8 Torsion [N]-CA--C-[N] |==|  0.36951
USER: genes 9 Torsion [C]-N--CA-[C] |==|  0.13814
USER: genes 10 Torsion [N]-CA--C-[OXT] |==|  0.61635
USER: genes 11 Torsion [N]-CA--CB-[OG1] |==|  0.92242
USER: genes 12 Torsion [CA]-CB--OG1-[HG1] |==|  0.94289
ROOT
ATOM      1  C   ARG C 760      12.246 -17.553  15.994  1.00 56.34 LIG 0.26  C 
ATOM      2 O    ARG C 760      12.661 -16.647  16.709  1.00 53.76 LIG-0.27  OA
ATOM      3  N   GLY C 761      11.947 -18.762  16.462  1.00 59.89 LIG-0.35  N 
ATOM      4 H    GLY C 761      11.854 -19.458  15.967  1.00 59.89 LIG 0.16  HD
ENDROOT
BRANCH 1 5
ATOM      5  CA  ARG C 760      12.052 -17.331  14.493  1.00 61.16 LIG 0.40  C 
ATOM      6  N   ARG C 760      13.331 -17.472  13.801  1.00 59.95 LIG 0.61  N 
BRANCH 5 7
ATOM      7  CB  ARG C 760      11.023 -18.302  13.914  1.00 63.40 LIG 0.05  C 
BRANCH 7 8
ATOM      8  CG  ARG C 760       9.595 -18.021  14.337  1.00 63.69 LIG 0.02  C 
BRANCH 8 9
ATOM      9  CD  ARG C 760       8.853 -17.241  13.264  1.00 63.30 LIG 0.14  C 
BRANCH 9 10
ATOM     10  NE  ARG C 760       9.718 -16.258  12.619  1.00 65.15 LIG-0.23  N 
ATOM     11  CZ  ARG C 760       9.865 -16.134  11.303  1.00 66.46 LIG 0.67  C 
ATOM     12  NH1 ARG C 760       9.196 -16.927  10.476  1.00 66.43 LIG-0.23  N 
ATOM     13  NH2 ARG C 760      10.679 -15.210  10.813  1.00 66.89 LIG-0.23  N 
ATOM     14 2HH1 ARG C 760       9.294 -16.843   9.626  1.00 66.43 LIG 0.17  HD
ATOM     15 1HH1 ARG C 760       8.664 -17.526  10.790  1.00 66.43 LIG 0.17  HD
ATOM     16 2HH2 ARG C 760      10.774 -15.129   9.963  1.00 66.89 LIG 0.17  HD
ATOM     17 1HH2 ARG C 760      11.111 -14.692  11.346  1.00 66.89 LIG 0.17  HD
ATOM     18 HE   ARG C 760      10.163 -15.723  13.124  1.00 65.15 LIG 0.18  HD
ENDBRANCH 9 10
ENDBRANCH 8 9
ENDBRANCH 7 8
ENDBRANCH 5 7
ENDBRANCH 1 5
BRANCH 3 19
ATOM     19  CA  GLY C 761      11.750 -19.001  17.882  1.00 62.83 LIG 0.23  C 
BRANCH 19 20
ATOM     20  C   GLY C 761      12.884 -18.786  18.873  1.00 67.24 LIG 0.24  C 
ATOM     21 O    GLY C 761      14.008 -19.238  18.654  1.00 65.14 LIG-0.27  OA
ATOM     22  N   THR C 762      12.563 -18.096  19.966  1.00 72.11 LIG-0.34  N 
ATOM     23 H    THR C 762      11.754 -18.030  20.249  1.00 72.11 LIG 0.16  HD
BRANCH 22 24
ATOM     24  CA  THR C 762      13.526 -17.376  20.808  1.00 75.13 LIG 0.21  C 
BRANCH 24 25
ATOM     25  C   THR C 762      14.385 -16.513  19.888  1.00 73.09 LIG 0.20  C 
ATOM     26 OXT  THR C 762      15.598 -16.437  20.077  1.00 76.95 LIG-0.65  OA
ATOM     27 O    THR C 762      13.913 -15.881  18.943  1.00 68.26 LIG-0.65  OA
ENDBRANCH 24 25
BRANCH 24 28
ATOM     28  CB  THR C 762      14.452 -18.291  21.641  1.00 77.67 LIG 0.15  C 
ATOM     29  CG2 THR C 762      14.807 -17.618  22.956  1.00 76.40 LIG 0.04  C 
BRANCH 28 30
ATOM     30 OG1  THR C 762      13.794 -19.532  21.919  1.00 80.43 LIG-0.39  OA
ATOM     31 HG1  THR C 762      12.964 -19.434  21.834  1.00 80.43 LIG 0.21  HD
ENDBRANCH 28 30
ENDBRANCH 24 28
ENDBRANCH 22 24
ENDBRANCH 19 20
ENDBRANCH 3 19
TORSDOF 11
ENDMDL
MODEL 61
USER: ADFR SOLUTION from run 66
USER: SCORE 7.050783 LL:  -0.984 LR:  -6.281 RR:   0.000 FEB:  -2.999
USER: RMSD 3.900573
USER: SEED 65
USER: STATUS no improvement in best in 18 clusters for 5 generations
USER: GENES 13
USER: genes 0 Translation |==|  0.31599 0.49867 0.54088
USER: genes 1 Rotation |==|  0.32341 0.57013 0.39344 0.95005
USER: genes 2 Torsion [N]-C--CA-[N] |==|  0.40357
USER: genes 3 Torsion [C]-CA--CB-[CG] |==|  0.03703
USER: genes 4 Torsion [CA]-CB--CG-[CD] |==|  0.60139
USER: genes 5 Torsion [CB]-CG--CD-[NE] |==|  0.01463
USER: genes 6 Torsion [CG]-CD--NE-[CZ] |==|  0.35232
USER: genes 7 Torsion [C]-N--CA-[C] |==|  0.75170
USER: genes 8 Torsion [N]-CA--C-[N] |==|  0.91262
USER: genes 9 Torsion [C]-N--CA-[C] |==|  0.37873
USER: genes 10 Torsion [N]-CA--C-[OXT] |==|  0.37352
USER: genes 11 Torsion [N]-CA--CB-[OG1] |==|  0.73975
USER: genes 12 Torsion [CA]-CB--OG1-[HG1] |==|  0.14144
ROOT
ATOM      1  C   ARG C 760      14.114 -17.023  18.919  1.00 56.34 LIG 0.26  C 
ATOM      2 O    ARG C 760      13.666 -15.881  18.881  1.00 53.76 LIG-0.27  OA
ATOM      3  N   GLY C 761      14.876 -17.465  19.914  1.00 59.89 LIG-0.35  N 
ATOM      4 H    GLY C 761      15.362 -18.172  19.869  1.00 59.89 LIG 0.16  HD
ENDROOT
BRANCH 1 5
ATOM      5  CA  ARG C 760      13.813 -18.012  17.793  1.00 61.16 LIG 0.40  C 
ATOM      6  N   ARG C 760      12.463 -17.787  17.281  1.00 59.95 LIG 0.61  N 
BRANCH 5 7
ATOM      7  CB  ARG C 760      14.837 -17.899  16.663  1.00 63.40 LIG 0.05  C 
BRANCH 7 8
ATOM      8  CG  ARG C 760      16.072 -17.097  17.020  1.00 63.69 LIG 0.02  C 
BRANCH 8 9
ATOM      9  CD  ARG C 760      16.557 -16.284  15.831  1.00 63.30 LIG 0.14  C 
BRANCH 9 10
ATOM     10  NE  ARG C 760      15.641 -16.389  14.699  1.00 65.15 LIG-0.23  N 
ATOM     11  CZ  ARG C 760      15.113 -15.350  14.060  1.00 66.46 LIG 0.67  C 
ATOM     12  NH1 ARG C 760      15.413 -14.112  14.431  1.00 66.43 LIG-0.23  N 
ATOM     13  NH2 ARG C 760      14.288 -15.550  13.042  1.00 66.89 LIG-0.23  N 
ATOM     14 2HH1 ARG C 760      15.069 -13.443  14.014  1.00 66.43 LIG 0.17  HD
ATOM     15 1HH1 ARG C 760      15.951 -13.978  15.089  1.00 66.43 LIG 0.17  HD
ATOM     16 2HH2 ARG C 760      13.946 -14.878  12.628  1.00 66.89 LIG 0.17  HD
ATOM     17 1HH2 ARG C 760      14.095 -16.350  12.797  1.00 66.89 LIG 0.17  HD
ATOM     18 HE   ARG C 760      15.429 -17.177  14.427  1.00 65.15 LIG 0.18  HD
ENDBRANCH 9 10
ENDBRANCH 8 9
ENDBRANCH 7 8
ENDBRANCH 5 7
ENDBRANCH 1 5
BRANCH 3 19
ATOM     19  CA  GLY C 761      14.947 -16.767  21.188  1.00 62.83 LIG 0.23  C 
BRANCH 19 20
ATOM     20  C   GLY C 761      15.975 -15.669  21.418  1.00 67.24 LIG 0.24  C 
ATOM     21 O    GLY C 761      15.727 -14.718  22.160  1.00 65.14 LIG-0.27  OA
ATOM     22  N   THR C 762      17.124 -15.816  20.761  1.00 72.11 LIG-0.34  N 
ATOM     23 H    THR C 762      17.192 -16.298  20.053  1.00 72.11 LIG 0.16  HD
BRANCH 22 24
ATOM     24  CA  THR C 762      18.392 -15.189  21.152  1.00 75.13 LIG 0.21  C 
BRANCH 24 25
ATOM     25  C   THR C 762      19.487 -16.243  21.017  1.00 73.09 LIG 0.20  C 
ATOM     26 OXT  THR C 762      20.550 -15.955  20.472  1.00 76.95 LIG-0.65  OA
ATOM     27 O    THR C 762      19.355 -17.392  21.443  1.00 68.26 LIG-0.65  OA
ENDBRANCH 24 25
BRANCH 24 28
ATOM     28  CB  THR C 762      18.410 -14.635  22.594  1.00 77.67 LIG 0.15  C 
ATOM     29  CG2 THR C 762      19.797 -14.781  23.195  1.00 76.40 LIG 0.04  C 
BRANCH 28 30
ATOM     30 OG1  THR C 762      18.051 -13.249  22.591  1.00 80.43 LIG-0.39  OA
ATOM     31 HG1  THR C 762      17.337 -13.145  22.160  1.00 80.43 LIG 0.21  HD
ENDBRANCH 28 30
ENDBRANCH 24 28
ENDBRANCH 22 24
ENDBRANCH 19 20
ENDBRANCH 3 19
TORSDOF 11
ENDMDL
MODEL 62
USER: ADFR SOLUTION from run 86
USER: SCORE 6.944227 LL:  -0.870 LR:  -6.237 RR:   0.000 FEB:  -2.956
USER: RMSD 4.709323
USER: SEED 85
USER: STATUS no improvement in best in 31 clusters for 5 generations
USER: GENES 13
USER: genes 0 Translation |==|  0.28800 0.51397 0.35207
USER: genes 1 Rotation |==|  0.65463 0.55481 0.17718 0.84478
USER: genes 2 Torsion [N]-C--CA-[N] |==|  0.51280
USER: genes 3 Torsion [C]-CA--CB-[CG] |==|  0.25058
USER: genes 4 Torsion [CA]-CB--CG-[CD] |==|  0.23016
USER: genes 5 Torsion [CB]-CG--CD-[NE] |==|  0.82817
USER: genes 6 Torsion [CG]-CD--NE-[CZ] |==|  0.42098
USER: genes 7 Torsion [C]-N--CA-[C] |==|  0.84274
USER: genes 8 Torsion [N]-CA--C-[N] |==|  0.36259
USER: genes 9 Torsion [C]-N--CA-[C] |==|  0.17572
USER: genes 10 Torsion [N]-CA--C-[OXT] |==|  0.12467
USER: genes 11 Torsion [N]-CA--CB-[OG1] |==|  0.91786
USER: genes 12 Torsion [CA]-CB--OG1-[HG1] |==|  0.23635
ROOT
ATOM      1  C   ARG C 760      13.631 -16.828  15.095  1.00 56.34 LIG 0.26  C 
ATOM      2 O    ARG C 760      14.011 -16.329  16.150  1.00 53.76 LIG-0.27  OA
ATOM      3  N   GLY C 761      12.817 -17.878  15.047  1.00 59.89 LIG-0.35  N 
ATOM      4 H    GLY C 761      12.703 -18.365  14.348  1.00 59.89 LIG 0.16  HD
ENDROOT
BRANCH 1 5
ATOM      5  CA  ARG C 760      14.091 -16.254  13.755  1.00 61.16 LIG 0.40  C 
ATOM      6  N   ARG C 760      15.059 -15.182  13.980  1.00 59.95 LIG 0.61  N 
BRANCH 5 7
ATOM      7  CB  ARG C 760      14.696 -17.338  12.863  1.00 63.40 LIG 0.05  C 
BRANCH 7 8
ATOM      8  CG  ARG C 760      13.696 -18.029  11.958  1.00 63.69 LIG 0.02  C 
BRANCH 8 9
ATOM      9  CD  ARG C 760      13.449 -17.218  10.697  1.00 63.30 LIG 0.14  C 
BRANCH 9 10
ATOM     10  NE  ARG C 760      12.880 -15.908  11.004  1.00 65.15 LIG-0.23  N 
ATOM     11  CZ  ARG C 760      13.048 -14.822  10.256  1.00 66.46 LIG 0.67  C 
ATOM     12  NH1 ARG C 760      13.766 -14.879   9.142  1.00 66.43 LIG-0.23  N 
ATOM     13  NH2 ARG C 760      12.492 -13.676  10.622  1.00 66.89 LIG-0.23  N 
ATOM     14 2HH1 ARG C 760      13.871 -14.173   8.662  1.00 66.43 LIG 0.17  HD
ATOM     15 1HH1 ARG C 760      14.126 -15.622   8.899  1.00 66.43 LIG 0.17  HD
ATOM     16 2HH2 ARG C 760      12.599 -12.973  10.139  1.00 66.89 LIG 0.17  HD
ATOM     17 1HH2 ARG C 760      12.023 -13.636  11.341  1.00 66.89 LIG 0.17  HD
ATOM     18 HE   ARG C 760      12.404 -15.835  11.716  1.00 65.15 LIG 0.18  HD
ENDBRANCH 9 10
ENDBRANCH 8 9
ENDBRANCH 7 8
ENDBRANCH 5 7
ENDBRANCH 1 5
BRANCH 3 19
ATOM     19  CA  GLY C 761      12.040 -18.294  16.203  1.00 62.83 LIG 0.23  C 
BRANCH 19 20
ATOM     20  C   GLY C 761      12.722 -18.624  17.522  1.00 67.24 LIG 0.24  C 
ATOM     21 O    GLY C 761      13.682 -19.394  17.562  1.00 65.14 LIG-0.27  OA
ATOM     22  N   THR C 762      12.201 -18.034  18.597  1.00 72.11 LIG-0.34  N 
ATOM     23 H    THR C 762      11.394 -17.739  18.616  1.00 72.11 LIG 0.16  HD
BRANCH 22 24
ATOM     24  CA  THR C 762      12.922 -17.815  19.857  1.00 75.13 LIG 0.21  C 
BRANCH 24 25
ATOM     25  C   THR C 762      14.090 -16.878  19.562  1.00 73.09 LIG 0.20  C 
ATOM     26 OXT  THR C 762      13.913 -15.881  18.865  1.00 76.95 LIG-0.65  OA
ATOM     27 O    THR C 762      15.223 -17.075  20.002  1.00 68.26 LIG-0.65  OA
ENDBRANCH 24 25
BRANCH 24 28
ATOM     28  CB  THR C 762      13.470 -19.104  20.509  1.00 77.67 LIG 0.15  C 
ATOM     29  CG2 THR C 762      13.504 -18.954  22.020  1.00 76.40 LIG 0.04  C 
BRANCH 28 30
ATOM     30 OG1  THR C 762      12.634 -20.217  20.174  1.00 80.43 LIG-0.39  OA
ATOM     31 HG1  THR C 762      12.870 -20.531  19.431  1.00 80.43 LIG 0.21  HD
ENDBRANCH 28 30
ENDBRANCH 24 28
ENDBRANCH 22 24
ENDBRANCH 19 20
ENDBRANCH 3 19
TORSDOF 11
ENDMDL
MODEL 63
USER: ADFR SOLUTION from run 160
USER: SCORE 8.081566 LL:  -2.270 LR:  -6.242 RR:   0.000 FEB:  -2.960
USER: RMSD 6.321450
USER: SEED 159
USER: STATUS no improvement in best in 22 clusters for 5 generations
USER: GENES 13
USER: genes 0 Translation |==|  0.32307 0.47159 0.56392
USER: genes 1 Rotation |==|  0.73755 0.57138 0.93102 0.55193
USER: genes 2 Torsion [N]-C--CA-[N] |==|  0.38183
USER: genes 3 Torsion [C]-CA--CB-[CG] |==|  0.10328
USER: genes 4 Torsion [CA]-CB--CG-[CD] |==|  0.75133
USER: genes 5 Torsion [CB]-CG--CD-[NE] |==|  0.49842
USER: genes 6 Torsion [CG]-CD--NE-[CZ] |==|  0.67066
USER: genes 7 Torsion [C]-N--CA-[C] |==|  0.66111
USER: genes 8 Torsion [N]-CA--C-[N] |==|  0.93768
USER: genes 9 Torsion [C]-N--CA-[C] |==|  0.82093
USER: genes 10 Torsion [N]-CA--C-[OXT] |==|  0.44151
USER: genes 11 Torsion [N]-CA--CB-[OG1] |==|  0.59371
USER: genes 12 Torsion [CA]-CB--OG1-[HG1] |==|  0.89856
ROOT
ATOM      1  C   ARG C 760      14.236 -17.368  19.385  1.00 56.34 LIG 0.26  C 
ATOM      2 O    ARG C 760      15.083 -18.208  19.099  1.00 53.76 LIG-0.27  OA
ATOM      3  N   GLY C 761      14.507 -16.293  20.119  1.00 59.89 LIG-0.35  N 
ATOM      4 H    GLY C 761      13.907 -15.808  20.500  1.00 59.89 LIG 0.16  HD
ENDROOT
BRANCH 1 5
ATOM      5  CA  ARG C 760      12.793 -17.526  18.905  1.00 61.16 LIG 0.40  C 
ATOM      6  N   ARG C 760      12.779 -17.967  17.511  1.00 59.95 LIG 0.61  N 
BRANCH 5 7
ATOM      7  CB  ARG C 760      12.018 -18.510  19.781  1.00 63.40 LIG 0.05  C 
BRANCH 7 8
ATOM      8  CG  ARG C 760      12.365 -18.438  21.255  1.00 63.69 LIG 0.02  C 
BRANCH 8 9
ATOM      9  CD  ARG C 760      13.513 -19.374  21.591  1.00 63.30 LIG 0.14  C 
BRANCH 9 10
ATOM     10  NE  ARG C 760      13.866 -19.304  23.006  1.00 65.15 LIG-0.23  N 
ATOM     11  CZ  ARG C 760      15.053 -18.923  23.467  1.00 66.46 LIG 0.67  C 
ATOM     12  NH1 ARG C 760      16.015 -18.563  22.627  1.00 66.43 LIG-0.23  N 
ATOM     13  NH2 ARG C 760      15.277 -18.895  24.773  1.00 66.89 LIG-0.23  N 
ATOM     14 2HH1 ARG C 760      16.781 -18.316  22.930  1.00 66.43 LIG 0.17  HD
ATOM     15 1HH1 ARG C 760      15.873 -18.576  21.778  1.00 66.43 LIG 0.17  HD
ATOM     16 2HH2 ARG C 760      16.045 -18.648  25.072  1.00 66.89 LIG 0.17  HD
ATOM     17 1HH2 ARG C 760      14.656 -19.124  25.320  1.00 66.89 LIG 0.17  HD
ATOM     18 HE   ARG C 760      13.265 -19.525  23.580  1.00 65.15 LIG 0.18  HD
ENDBRANCH 9 10
ENDBRANCH 8 9
ENDBRANCH 7 8
ENDBRANCH 5 7
ENDBRANCH 1 5
BRANCH 3 19
ATOM     19  CA  GLY C 761      15.872 -15.844  20.338  1.00 62.83 LIG 0.23  C 
BRANCH 19 20
ATOM     20  C   GLY C 761      16.432 -15.712  21.747  1.00 67.24 LIG 0.24  C 
ATOM     21 O    GLY C 761      17.645 -15.745  21.949  1.00 65.14 LIG-0.27  OA
ATOM     22  N   THR C 762      15.524 -15.570  22.711  1.00 72.11 LIG-0.34  N 
ATOM     23 H    THR C 762      14.707 -15.823  22.617  1.00 72.11 LIG 0.16  HD
BRANCH 22 24
ATOM     24  CA  THR C 762      15.793 -14.976  24.026  1.00 75.13 LIG 0.21  C 
BRANCH 24 25
ATOM     25  C   THR C 762      16.789 -15.882  24.744  1.00 73.09 LIG 0.20  C 
ATOM     26 OXT  THR C 762      17.464 -15.436  25.669  1.00 76.95 LIG-0.65  OA
ATOM     27 O    THR C 762      16.948 -17.064  24.437  1.00 68.26 LIG-0.65  OA
ENDBRANCH 24 25
BRANCH 24 28
ATOM     28  CB  THR C 762      14.541 -14.808  24.917  1.00 77.67 LIG 0.15  C 
ATOM     29  CG2 THR C 762      14.381 -16.012  25.828  1.00 76.40 LIG 0.04  C 
BRANCH 28 30
ATOM     30 OG1  THR C 762      14.668 -13.631  25.723  1.00 80.43 LIG-0.39  OA
ATOM     31 HG1  THR C 762      15.469 -13.539  25.959  1.00 80.43 LIG 0.21  HD
ENDBRANCH 28 30
ENDBRANCH 24 28
ENDBRANCH 22 24
ENDBRANCH 19 20
ENDBRANCH 3 19
TORSDOF 11
ENDMDL
