MODEL 1
USER: ADFR SOLUTION from run 113
USER: SCORE 13.366433 LL:  -2.992 LR: -10.688 RR:   0.000 FEB:  -6.512
USER: RMSD 3.864558
USER: SEED 112
USER: STATUS no improvement in best in 10 clusters for 5 generations
USER: GENES 16
USER: genes 0 Translation |==|  0.44033 0.53125 0.46271
USER: genes 1 Rotation |==|  0.48552 0.47249 0.36153 0.97944
USER: genes 2 Torsion [N]-C--CA-[N] |==|  0.46248
USER: genes 3 Torsion [C]-CA--N-[C] |==|  0.45079
USER: genes 4 Torsion [N]-C--CA-[N] |==|  0.99403
USER: genes 5 Torsion [C]-CA--N-[C] |==|  0.74757
USER: genes 6 Torsion [N]-C--CA-[N] |==|  0.85411
USER: genes 7 Torsion [C]-CA--CB-[CG2] |==|  0.04614
USER: genes 8 Torsion [C]-CA--CB-[CG] |==|  0.87131
USER: genes 9 Torsion [CA]-CB--CG-[SD] |==|  0.49514
USER: genes 10 Torsion [CB]-CG--SD-[CE] |==|  0.35310
USER: genes 11 Torsion [N]-CA--C-[O] |==|  0.52167
USER: genes 12 Torsion [C]-N--CA-[C] |==|  0.69182
USER: genes 13 Torsion [N]-CA--C-[O] |==|  0.08330
USER: genes 14 Torsion [N]-CA--CB-[CG] |==|  0.83930
USER: genes 15 Torsion [CA]-CB--CG-[CD2] |==|  0.46618
ROOT
ATOM      1  C   GLY E2013      -0.465 -15.216 -28.780  1.00 21.81 LIG 0.24  C 
ATOM      2 O    GLY E2013      -0.609 -16.078 -27.898  1.00 22.84 LIG-0.27  OA
ATOM      3  N   PRO E2014       0.725 -14.696 -29.091  1.00 21.64 LIG-0.34  N 
ATOM      4  CA  PRO E2014       1.992 -15.138 -28.500  1.00 21.53 LIG 0.18  C 
ATOM      5  CB  PRO E2014       3.026 -14.638 -29.514  1.00 21.78 LIG 0.04  C 
ATOM      6  CG  PRO E2014       2.397 -13.441 -30.166  1.00 22.21 LIG 0.02  C 
ATOM      7  CD  PRO E2014       0.906 -13.666 -30.130  1.00 21.52 LIG 0.13  C 
ENDROOT
BRANCH 1 8
ATOM      8  CA  GLY E2013      -1.661 -14.716 -29.580  1.00 23.09 LIG 0.23  C 
BRANCH 8 9
ATOM      9  N   GLY E2013      -2.791 -15.611 -29.333  1.00 25.21 LIG-0.35  N 
ATOM     10  C   MET E2012      -4.046 -15.257 -29.604  1.00 26.98 LIG 0.24  C 
ATOM     11 O    MET E2012      -4.380 -14.102 -29.909  1.00 24.85 LIG-0.27  OA
ATOM     12 H    GLY E2013      -2.570 -16.373 -29.002  1.00 25.21 LIG 0.16  HD
BRANCH 10 13
ATOM     13  CA  MET E2012      -5.072 -16.383 -29.559  1.00 29.83 LIG 0.18  C 
BRANCH 13 14
ATOM     14  N   MET E2012      -4.452 -17.677 -29.268  1.00 30.84 LIG-0.35  N 
ATOM     15  C   VAL E2011      -4.019 -18.492 -30.221  1.00 36.49 LIG 0.26  C 
ATOM     16 O    VAL E2011      -4.172 -18.260 -31.429  1.00 38.00 LIG-0.27  OA
ATOM     17 H    MET E2012      -4.396 -17.856 -28.429  1.00 30.84 LIG 0.16  HD
BRANCH 15 18
ATOM     18  CA  VAL E2011      -3.316 -19.774 -29.731  1.00 39.95 LIG 0.40  C 
ATOM     19  N   VAL E2011      -2.218 -19.451 -28.762  1.00 39.42 LIG 0.61  N 
BRANCH 18 20
ATOM     20  CB  VAL E2011      -4.323 -20.807 -29.137  1.00 43.12 LIG 0.03  C 
ATOM     21  CG2 VAL E2011      -5.748 -20.464 -29.563  1.00 41.73 LIG 0.01  C 
ATOM     22  CG1 VAL E2011      -4.221 -20.910 -27.613  1.00 40.75 LIG 0.01  C 
ENDBRANCH 18 20
ENDBRANCH 15 18
ENDBRANCH 13 14
BRANCH 13 23
ATOM     23  CB  MET E2012      -6.103 -16.024 -28.471  1.00 32.11 LIG 0.04  C 
BRANCH 23 24
ATOM     24  CG  MET E2012      -5.557 -15.535 -27.124  1.00 37.34 LIG 0.08  C 
BRANCH 24 25
ATOM     25 SD   MET E2012      -6.813 -15.086 -25.910  1.00 39.45 LIG-0.17  SA
ATOM     26  CE  MET E2012      -6.272 -16.083 -24.512  1.00 39.28 LIG 0.09  C 
ENDBRANCH 24 25
ENDBRANCH 23 24
ENDBRANCH 13 23
ENDBRANCH 10 13
ENDBRANCH 8 9
ENDBRANCH 1 8
BRANCH 4 27
ATOM     27  C   PRO E2014       2.275 -14.534 -27.108  1.00 21.57 LIG 0.24  C 
ATOM     28 O    PRO E2014       3.392 -14.704 -26.536  1.00 21.05 LIG-0.27  OA
ATOM     29  N   TRP E2015       1.283 -13.819 -26.569  1.00 20.29 LIG-0.34  N 
ATOM     30 H    TRP E2015       0.490 -13.760 -26.898  1.00 20.29 LIG 0.16  HD
BRANCH 29 31
ATOM     31  CA  TRP E2015       1.498 -13.060 -25.333  1.00 20.70 LIG 0.19  C 
BRANCH 31 32
ATOM     32  C   TRP E2015       0.746 -13.625 -24.135  1.00 20.18 LIG 0.20  C 
ATOM     33 O    TRP E2015       0.488 -14.819 -24.015  1.00 21.31 LIG-0.65  OA
ATOM     34 OXT  TRP E2015       0.344 -12.860 -23.264  1.00 19.23 LIG-0.65  OA
ENDBRANCH 31 32
BRANCH 31 35
ATOM     35  CB  TRP E2015       1.067 -11.597 -25.518  1.00 21.64 LIG 0.08  C 
BRANCH 35 36
ATOM     36  CG  TRP E2015       1.758 -10.825 -26.641  1.00 22.27 LIG-0.03  A 
ATOM     37  CD2 TRP E2015       1.343  -9.553 -27.143  1.00 22.85 LIG-0.00  A 
ATOM     38  CE2 TRP E2015       2.258  -9.172 -28.155  1.00 23.44 LIG 0.04  A 
ATOM     39  CE3 TRP E2015       0.284  -8.682 -26.820  1.00 23.10 LIG 0.01  A 
ATOM     40  CZ2 TRP E2015       2.133  -7.961 -28.862  1.00 22.82 LIG 0.03  A 
ATOM     41  NE1 TRP E2015       3.192 -10.173 -28.271  1.00 23.03 LIG-0.36  N 
ATOM     42  CH2 TRP E2015       1.080  -7.139 -28.544  1.00 23.08 LIG 0.00  A 
ATOM     43  CZ3 TRP E2015       0.160  -7.476 -27.536  1.00 24.27 LIG 0.00  A 
ATOM     44 HE1  TRP E2015       3.846 -10.184 -28.829  1.00 23.03 LIG 0.17  HD
ATOM     45  CD1 TRP E2015       2.905 -11.164 -27.338  1.00 22.46 LIG 0.10  A 
ENDBRANCH 35 36
ENDBRANCH 31 35
ENDBRANCH 29 31
ENDBRANCH 4 27
TORSDOF 14
ENDMDL
MODEL 2
USER: ADFR SOLUTION from run 178
USER: SCORE 12.604250 LL:  -2.673 LR: -10.514 RR:   0.000 FEB:  -6.338
USER: RMSD 4.592231
USER: SEED 177
USER: STATUS no improvement in best in 11 clusters for 5 generations
USER: GENES 16
USER: genes 0 Translation |==|  0.46383 0.49534 0.55338
USER: genes 1 Rotation |==|  0.28605 0.25732 0.28910 0.81757
USER: genes 2 Torsion [N]-C--CA-[N] |==|  0.49218
USER: genes 3 Torsion [C]-CA--N-[C] |==|  0.45561
USER: genes 4 Torsion [N]-C--CA-[N] |==|  0.87568
USER: genes 5 Torsion [C]-CA--N-[C] |==|  0.71572
USER: genes 6 Torsion [N]-C--CA-[N] |==|  0.79056
USER: genes 7 Torsion [C]-CA--CB-[CG2] |==|  0.48043
USER: genes 8 Torsion [C]-CA--CB-[CG] |==|  0.63001
USER: genes 9 Torsion [CA]-CB--CG-[SD] |==|  0.23767
USER: genes 10 Torsion [CB]-CG--SD-[CE] |==|  0.54120
USER: genes 11 Torsion [N]-CA--C-[O] |==|  0.60556
USER: genes 12 Torsion [C]-N--CA-[C] |==|  0.78615
USER: genes 13 Torsion [N]-CA--C-[O] |==|  0.02036
USER: genes 14 Torsion [N]-CA--CB-[CG] |==|  0.56077
USER: genes 15 Torsion [CA]-CB--CG-[CD2] |==|  0.65677
ROOT
ATOM      1  C   GLY E2013      -0.095 -16.132 -27.216  1.00 21.81 LIG 0.24  C 
ATOM      2 O    GLY E2013      -1.013 -15.639 -26.542  1.00 22.84 LIG-0.27  OA
ATOM      3  N   PRO E2014       1.149 -16.266 -26.749  1.00 21.64 LIG-0.34  N 
ATOM      4  CA  PRO E2014       1.550 -15.936 -25.378  1.00 21.53 LIG 0.18  C 
ATOM      5  CB  PRO E2014       2.854 -16.723 -25.213  1.00 21.78 LIG 0.04  C 
ATOM      6  CG  PRO E2014       3.423 -16.846 -26.597  1.00 22.21 LIG 0.02  C 
ATOM      7  CD  PRO E2014       2.249 -16.842 -27.545  1.00 21.52 LIG 0.13  C 
ENDROOT
BRANCH 1 8
ATOM      8  CA  GLY E2013      -0.354 -16.636 -28.631  1.00 23.09 LIG 0.23  C 
BRANCH 8 9
ATOM      9  N   GLY E2013      -1.774 -16.464 -28.931  1.00 25.21 LIG-0.35  N 
ATOM     10  C   MET E2012      -2.246 -16.517 -30.176  1.00 26.98 LIG 0.24  C 
ATOM     11 O    MET E2012      -1.520 -16.534 -31.181  1.00 24.85 LIG-0.27  OA
ATOM     12 H    GLY E2013      -2.266 -16.327 -28.239  1.00 25.21 LIG 0.16  HD
BRANCH 10 13
ATOM     13  CA  MET E2012      -3.762 -16.603 -30.303  1.00 29.83 LIG 0.18  C 
BRANCH 13 14
ATOM     14  N   MET E2012      -4.336 -17.571 -29.366  1.00 30.84 LIG-0.35  N 
ATOM     15  C   VAL E2011      -4.727 -18.782 -29.740  1.00 36.49 LIG 0.26  C 
ATOM     16 O    VAL E2011      -4.710 -19.161 -30.920  1.00 38.00 LIG-0.27  OA
ATOM     17 H    MET E2012      -4.394 -17.283 -28.558  1.00 30.84 LIG 0.16  HD
BRANCH 15 18
ATOM     18  CA  VAL E2011      -5.229 -19.699 -28.606  1.00 39.95 LIG 0.40  C 
ATOM     19  N   VAL E2011      -4.085 -20.227 -27.794  1.00 39.42 LIG 0.61  N 
BRANCH 18 20
ATOM     20  CB  VAL E2011      -6.297 -18.999 -27.711  1.00 43.12 LIG 0.03  C 
ATOM     21  CG2 VAL E2011      -6.890 -19.993 -26.717  1.00 41.73 LIG 0.01  C 
ATOM     22  CG1 VAL E2011      -7.400 -18.331 -28.536  1.00 40.75 LIG 0.01  C 
ENDBRANCH 18 20
ENDBRANCH 15 18
ENDBRANCH 13 14
BRANCH 13 23
ATOM     23  CB  MET E2012      -4.327 -15.194 -30.033  1.00 32.11 LIG 0.04  C 
BRANCH 23 24
ATOM     24  CG  MET E2012      -5.519 -15.092 -29.074  1.00 37.34 LIG 0.08  C 
BRANCH 24 25
ATOM     25 SD   MET E2012      -5.084 -14.996 -27.325  1.00 39.45 LIG-0.17  SA
ATOM     26  CE  MET E2012      -6.686 -15.348 -26.582  1.00 39.28 LIG 0.09  C 
ENDBRANCH 24 25
ENDBRANCH 23 24
ENDBRANCH 13 23
ENDBRANCH 10 13
ENDBRANCH 8 9
ENDBRANCH 1 8
BRANCH 4 27
ATOM     27  C   PRO E2014       1.801 -14.431 -25.147  1.00 21.57 LIG 0.24  C 
ATOM     28 O    PRO E2014       2.742 -14.033 -24.400  1.00 21.05 LIG-0.27  OA
ATOM     29  N   TRP E2015       0.981 -13.597 -25.793  1.00 20.29 LIG-0.34  N 
ATOM     30 H    TRP E2015       0.285 -13.842 -26.236  1.00 20.29 LIG 0.16  HD
BRANCH 29 31
ATOM     31  CA  TRP E2015       1.231 -12.152 -25.784  1.00 20.70 LIG 0.19  C 
BRANCH 31 32
ATOM     32  C   TRP E2015       0.831 -11.474 -24.480  1.00 20.18 LIG 0.20  C 
ATOM     33 O    TRP E2015       0.470 -12.102 -23.489  1.00 21.31 LIG-0.65  OA
ATOM     34 OXT  TRP E2015       0.831 -10.249 -24.417  1.00 19.23 LIG-0.65  OA
ENDBRANCH 31 32
BRANCH 31 35
ATOM     35  CB  TRP E2015       0.469 -11.467 -26.930  1.00 21.64 LIG 0.08  C 
BRANCH 35 36
ATOM     36  CG  TRP E2015       1.002 -10.108 -27.379  1.00 22.27 LIG-0.03  A 
ATOM     37  CD2 TRP E2015       0.243  -8.898 -27.417  1.00 22.85 LIG-0.00  A 
ATOM     38  CE2 TRP E2015       1.104  -7.866 -27.864  1.00 23.44 LIG 0.04  A 
ATOM     39  CE3 TRP E2015      -1.092  -8.580 -27.098  1.00 23.10 LIG 0.01  A 
ATOM     40  CZ2 TRP E2015       0.665  -6.537 -28.019  1.00 22.82 LIG 0.03  A 
ATOM     41  NE1 TRP E2015       2.338  -8.423 -28.095  1.00 23.03 LIG-0.36  N 
ATOM     42  CH2 TRP E2015      -0.645  -6.256 -27.722  1.00 23.08 LIG 0.00  A 
ATOM     43  CZ3 TRP E2015      -1.525  -7.250 -27.262  1.00 24.27 LIG 0.00  A 
ATOM     44 HE1  TRP E2015       3.030  -8.004 -28.388  1.00 23.03 LIG 0.17  HD
ATOM     45  CD1 TRP E2015       2.285  -9.777 -27.779  1.00 22.46 LIG 0.10  A 
ENDBRANCH 35 36
ENDBRANCH 31 35
ENDBRANCH 29 31
ENDBRANCH 4 27
TORSDOF 14
ENDMDL
MODEL 3
USER: ADFR SOLUTION from run 39
USER: SCORE 13.368725 LL:  -3.382 LR: -10.503 RR:   0.000 FEB:  -6.327
USER: RMSD 4.129195
USER: SEED 38
USER: STATUS no improvement in best in 10 clusters for 5 generations
USER: GENES 16
USER: genes 0 Translation |==|  0.44307 0.51836 0.52471
USER: genes 1 Rotation |==|  0.33073 0.38090 0.24913 0.87977
USER: genes 2 Torsion [N]-C--CA-[N] |==|  0.36900
USER: genes 3 Torsion [C]-CA--N-[C] |==|  0.39396
USER: genes 4 Torsion [N]-C--CA-[N] |==|  0.99825
USER: genes 5 Torsion [C]-CA--N-[C] |==|  0.73023
USER: genes 6 Torsion [N]-C--CA-[N] |==|  0.33866
USER: genes 7 Torsion [C]-CA--CB-[CG2] |==|  0.41491
USER: genes 8 Torsion [C]-CA--CB-[CG] |==|  0.74650
USER: genes 9 Torsion [CA]-CB--CG-[SD] |==|  0.33419
USER: genes 10 Torsion [CB]-CG--SD-[CE] |==|  0.05862
USER: genes 11 Torsion [N]-CA--C-[O] |==|  0.62561
USER: genes 12 Torsion [C]-N--CA-[C] |==|  0.60645
USER: genes 13 Torsion [N]-CA--C-[O] |==|  0.08459
USER: genes 14 Torsion [N]-CA--CB-[CG] |==|  0.15834
USER: genes 15 Torsion [CA]-CB--CG-[CD2] |==|  0.34102
ROOT
ATOM      1  C   GLY E2013      -0.422 -15.545 -27.711  1.00 21.81 LIG 0.24  C 
ATOM      2 O    GLY E2013      -1.034 -15.418 -26.639  1.00 22.84 LIG-0.27  OA
ATOM      3  N   PRO E2014       0.850 -15.947 -27.769  1.00 21.64 LIG-0.34  N 
ATOM      4  CA  PRO E2014       1.632 -16.366 -26.602  1.00 21.53 LIG 0.18  C 
ATOM      5  CB  PRO E2014       2.764 -17.184 -27.233  1.00 21.78 LIG 0.04  C 
ATOM      6  CG  PRO E2014       2.939 -16.621 -28.614  1.00 22.21 LIG 0.02  C 
ATOM      7  CD  PRO E2014       1.590 -16.093 -29.037  1.00 21.52 LIG 0.13  C 
ENDROOT
BRANCH 1 8
ATOM      8  CA  GLY E2013      -1.113 -15.261 -29.039  1.00 23.09 LIG 0.23  C 
BRANCH 8 9
ATOM      9  N   GLY E2013      -2.421 -15.912 -29.029  1.00 25.21 LIG-0.35  N 
ATOM     10  C   MET E2012      -3.498 -15.345 -29.570  1.00 26.98 LIG 0.24  C 
ATOM     11 O    MET E2012      -3.528 -14.168 -29.957  1.00 24.85 LIG-0.27  OA
ATOM     12 H    GLY E2013      -2.428 -16.683 -28.647  1.00 25.21 LIG 0.16  HD
BRANCH 10 13
ATOM     13  CA  MET E2012      -4.710 -16.254 -29.732  1.00 29.83 LIG 0.18  C 
BRANCH 13 14
ATOM     14  N   MET E2012      -4.441 -17.614 -29.262  1.00 30.84 LIG-0.35  N 
ATOM     15  C   VAL E2011      -4.091 -18.598 -30.081  1.00 36.49 LIG 0.26  C 
ATOM     16 O    VAL E2011      -4.039 -18.464 -31.312  1.00 38.00 LIG-0.27  OA
ATOM     17 H    MET E2012      -4.531 -17.714 -28.413  1.00 30.84 LIG 0.16  HD
BRANCH 15 18
ATOM     18  CA  VAL E2011      -3.764 -19.944 -29.402  1.00 39.95 LIG 0.40  C 
ATOM     19  N   VAL E2011      -4.646 -21.038 -29.923  1.00 39.42 LIG 0.61  N 
BRANCH 18 20
ATOM     20  CB  VAL E2011      -2.254 -20.313 -29.525  1.00 43.12 LIG 0.03  C 
ATOM     21  CG2 VAL E2011      -1.809 -21.132 -28.317  1.00 41.73 LIG 0.01  C 
ATOM     22  CG1 VAL E2011      -1.365 -19.080 -29.704  1.00 40.75 LIG 0.01  C 
ENDBRANCH 18 20
ENDBRANCH 15 18
ENDBRANCH 13 14
BRANCH 13 23
ATOM     23  CB  MET E2012      -5.868 -15.628 -28.930  1.00 32.11 LIG 0.04  C 
BRANCH 23 24
ATOM     24  CG  MET E2012      -6.028 -16.073 -27.471  1.00 37.34 LIG 0.08  C 
BRANCH 24 25
ATOM     25 SD   MET E2012      -5.907 -14.748 -26.253  1.00 39.45 LIG-0.17  SA
ATOM     26  CE  MET E2012      -6.273 -13.327 -27.295  1.00 39.28 LIG 0.09  C 
ENDBRANCH 24 25
ENDBRANCH 23 24
ENDBRANCH 13 23
ENDBRANCH 10 13
ENDBRANCH 8 9
ENDBRANCH 1 8
BRANCH 4 27
ATOM     27  C   PRO E2014       2.213 -15.191 -25.787  1.00 21.57 LIG 0.24  C 
ATOM     28 O    PRO E2014       3.414 -15.203 -25.387  1.00 21.05 LIG-0.27  OA
ATOM     29  N   TRP E2015       1.379 -14.173 -25.555  1.00 20.29 LIG-0.34  N 
ATOM     30 H    TRP E2015       0.539 -14.178 -25.741  1.00 20.29 LIG 0.16  HD
BRANCH 29 31
ATOM     31  CA  TRP E2015       1.868 -12.934 -24.941  1.00 20.70 LIG 0.19  C 
BRANCH 31 32
ATOM     32  C   TRP E2015       0.888 -12.318 -23.951  1.00 20.18 LIG 0.20  C 
ATOM     33 O    TRP E2015       0.105 -12.990 -23.286  1.00 21.31 LIG-0.65  OA
ATOM     34 OXT  TRP E2015       0.846 -11.098 -23.830  1.00 19.23 LIG-0.65  OA
ENDBRANCH 31 32
BRANCH 31 35
ATOM     35  CB  TRP E2015       2.176 -11.885 -26.021  1.00 21.64 LIG 0.08  C 
BRANCH 35 36
ATOM     36  CG  TRP E2015       1.025 -11.515 -26.953  1.00 22.27 LIG-0.03  A 
ATOM     37  CD2 TRP E2015       0.510 -10.194 -27.143  1.00 22.85 LIG-0.00  A 
ATOM     38  CE2 TRP E2015      -0.529 -10.273 -28.102  1.00 23.44 LIG 0.04  A 
ATOM     39  CE3 TRP E2015       0.842  -8.937 -26.601  1.00 23.10 LIG 0.01  A 
ATOM     40  CZ2 TRP E2015      -1.255  -9.140 -28.517  1.00 22.82 LIG 0.03  A 
ATOM     41  NE1 TRP E2015      -0.649 -11.589 -28.479  1.00 23.03 LIG-0.36  N 
ATOM     42  CH2 TRP E2015      -0.927  -7.930 -27.959  1.00 23.08 LIG 0.00  A 
ATOM     43  CZ3 TRP E2015       0.108  -7.810 -27.015  1.00 24.27 LIG 0.00  A 
ATOM     44 HE1  TRP E2015      -1.222 -11.898 -29.042  1.00 23.03 LIG 0.17  HD
ATOM     45  CD1 TRP E2015       0.307 -12.338 -27.803  1.00 22.46 LIG 0.10  A 
ENDBRANCH 35 36
ENDBRANCH 31 35
ENDBRANCH 29 31
ENDBRANCH 4 27
TORSDOF 14
ENDMDL
MODEL 4
USER: ADFR SOLUTION from run 69
USER: SCORE 12.240078 LL:  -2.677 LR:  -9.974 RR:   0.000 FEB:  -5.798
USER: RMSD 4.412952
USER: SEED 68
USER: STATUS no improvement in best in 22 clusters for 5 generations
USER: GENES 16
USER: genes 0 Translation |==|  0.47325 0.50599 0.53366
USER: genes 1 Rotation |==|  0.33276 0.29524 0.29794 0.87320
USER: genes 2 Torsion [N]-C--CA-[N] |==|  0.47224
USER: genes 3 Torsion [C]-CA--N-[C] |==|  0.38157
USER: genes 4 Torsion [N]-C--CA-[N] |==|  0.93016
USER: genes 5 Torsion [C]-CA--N-[C] |==|  0.75252
USER: genes 6 Torsion [N]-C--CA-[N] |==|  0.85821
USER: genes 7 Torsion [C]-CA--CB-[CG2] |==|  0.12715
USER: genes 8 Torsion [C]-CA--CB-[CG] |==|  0.69308
USER: genes 9 Torsion [CA]-CB--CG-[SD] |==|  0.41708
USER: genes 10 Torsion [CB]-CG--SD-[CE] |==|  0.50728
USER: genes 11 Torsion [N]-CA--C-[O] |==|  0.58461
USER: genes 12 Torsion [C]-N--CA-[C] |==|  0.78276
USER: genes 13 Torsion [N]-CA--C-[O] |==|  0.98397
USER: genes 14 Torsion [N]-CA--CB-[CG] |==|  0.64633
USER: genes 15 Torsion [CA]-CB--CG-[CD2] |==|  0.11050
ROOT
ATOM      1  C   GLY E2013       0.054 -15.860 -27.556  1.00 21.81 LIG 0.24  C 
ATOM      2 O    GLY E2013      -0.800 -15.701 -26.670  1.00 22.84 LIG-0.27  OA
ATOM      3  N   PRO E2014       1.362 -15.907 -27.295  1.00 21.64 LIG-0.34  N 
ATOM      4  CA  PRO E2014       1.931 -15.867 -25.944  1.00 21.53 LIG 0.18  C 
ATOM      5  CB  PRO E2014       3.331 -16.453 -26.153  1.00 21.78 LIG 0.04  C 
ATOM      6  CG  PRO E2014       3.685 -16.139 -27.578  1.00 22.21 LIG 0.02  C 
ATOM      7  CD  PRO E2014       2.385 -16.086 -28.342  1.00 21.52 LIG 0.13  C 
ENDROOT
BRANCH 1 8
ATOM      8  CA  GLY E2013      -0.362 -16.033 -29.012  1.00 23.09 LIG 0.23  C 
BRANCH 8 9
ATOM      9  N   GLY E2013      -1.814 -16.192 -29.064  1.00 25.21 LIG-0.35  N 
ATOM     10  C   MET E2012      -2.560 -15.581 -29.983  1.00 26.98 LIG 0.24  C 
ATOM     11 O    MET E2012      -2.125 -14.702 -30.742  1.00 24.85 LIG-0.27  OA
ATOM     12 H    GLY E2013      -2.133 -16.708 -28.456  1.00 25.21 LIG 0.16  HD
BRANCH 10 13
ATOM     13  CA  MET E2012      -4.002 -16.060 -30.086  1.00 29.83 LIG 0.18  C 
BRANCH 13 14
ATOM     14  N   MET E2012      -4.156 -17.438 -29.613  1.00 30.84 LIG-0.35  N 
ATOM     15  C   VAL E2011      -4.015 -18.487 -30.411  1.00 36.49 LIG 0.26  C 
ATOM     16 O    VAL E2011      -3.819 -18.386 -31.630  1.00 38.00 LIG-0.27  OA
ATOM     17 H    MET E2012      -4.345 -17.500 -28.776  1.00 30.84 LIG 0.16  HD
BRANCH 15 18
ATOM     18  CA  VAL E2011      -4.128 -19.864 -29.725  1.00 39.95 LIG 0.40  C 
ATOM     19  N   VAL E2011      -3.230 -19.946 -28.528  1.00 39.42 LIG 0.61  N 
BRANCH 18 20
ATOM     20  CB  VAL E2011      -5.602 -20.224 -29.366  1.00 43.12 LIG 0.03  C 
ATOM     21  CG2 VAL E2011      -6.524 -19.924 -30.545  1.00 41.73 LIG 0.01  C 
ATOM     22  CG1 VAL E2011      -6.085 -19.508 -28.102  1.00 40.75 LIG 0.01  C 
ENDBRANCH 18 20
ENDBRANCH 15 18
ENDBRANCH 13 14
BRANCH 13 23
ATOM     23  CB  MET E2012      -4.868 -15.103 -29.242  1.00 32.11 LIG 0.04  C 
BRANCH 23 24
ATOM     24  CG  MET E2012      -5.475 -15.664 -27.951  1.00 37.34 LIG 0.08  C 
BRANCH 24 25
ATOM     25 SD   MET E2012      -5.722 -14.453 -26.637  1.00 39.45 LIG-0.17  SA
ATOM     26  CE  MET E2012      -6.352 -15.526 -25.335  1.00 39.28 LIG 0.09  C 
ENDBRANCH 24 25
ENDBRANCH 23 24
ENDBRANCH 13 23
ENDBRANCH 10 13
ENDBRANCH 8 9
ENDBRANCH 1 8
BRANCH 4 27
ATOM     27  C   PRO E2014       2.029 -14.445 -25.351  1.00 21.57 LIG 0.24  C 
ATOM     28 O    PRO E2014       2.944 -14.142 -24.531  1.00 21.05 LIG-0.27  OA
ATOM     29  N   TRP E2015       1.109 -13.572 -25.772  1.00 20.29 LIG-0.34  N 
ATOM     30 H    TRP E2015       0.431 -13.776 -26.260  1.00 20.29 LIG 0.16  HD
BRANCH 29 31
ATOM     31  CA  TRP E2015       1.207 -12.154 -25.409  1.00 20.70 LIG 0.19  C 
BRANCH 31 32
ATOM     32  C   TRP E2015       0.748 -11.858 -23.987  1.00 20.18 LIG 0.20  C 
ATOM     33 O    TRP E2015       0.241 -12.709 -23.262  1.00 21.31 LIG-0.65  OA
ATOM     34 OXT  TRP E2015       0.850 -10.716 -23.550  1.00 19.23 LIG-0.65  OA
ENDBRANCH 31 32
BRANCH 31 35
ATOM     35  CB  TRP E2015       0.371 -11.295 -26.369  1.00 21.64 LIG 0.08  C 
BRANCH 35 36
ATOM     36  CG  TRP E2015       1.093 -10.125 -27.034  1.00 22.27 LIG-0.03  A 
ATOM     37  CD2 TRP E2015       2.434 -10.159 -27.529  1.00 22.85 LIG-0.00  A 
ATOM     38  CE2 TRP E2015       2.715  -8.890 -28.092  1.00 23.44 LIG 0.04  A 
ATOM     39  CE3 TRP E2015       3.429 -11.155 -27.565  1.00 23.10 LIG 0.01  A 
ATOM     40  CZ2 TRP E2015       3.963  -8.585 -28.668  1.00 22.82 LIG 0.03  A 
ATOM     41  NE1 TRP E2015       1.594  -8.110 -27.942  1.00 23.03 LIG-0.36  N 
ATOM     42  CH2 TRP E2015       4.923  -9.565 -28.673  1.00 23.08 LIG 0.00  A 
ATOM     43  CZ3 TRP E2015       4.677 -10.841 -28.137  1.00 24.27 LIG 0.00  A 
ATOM     44 HE1  TRP E2015       1.518  -7.290 -28.190  1.00 23.03 LIG 0.17  HD
ATOM     45  CD1 TRP E2015       0.602  -8.864 -27.324  1.00 22.46 LIG 0.10  A 
ENDBRANCH 35 36
ENDBRANCH 31 35
ENDBRANCH 29 31
ENDBRANCH 4 27
TORSDOF 14
ENDMDL
MODEL 5
USER: ADFR SOLUTION from run 142
USER: SCORE 11.898125 LL:  -2.711 LR:  -9.898 RR:   0.000 FEB:  -5.722
USER: RMSD 4.446882
USER: SEED 141
USER: STATUS no improvement in best in 25 clusters for 5 generations
USER: GENES 16
USER: genes 0 Translation |==|  0.43112 0.52022 0.54744
USER: genes 1 Rotation |==|  0.31221 0.27722 0.21843 0.79296
USER: genes 2 Torsion [N]-C--CA-[N] |==|  0.34655
USER: genes 3 Torsion [C]-CA--N-[C] |==|  0.38681
USER: genes 4 Torsion [N]-C--CA-[N] |==|  0.00174
USER: genes 5 Torsion [C]-CA--N-[C] |==|  0.66515
USER: genes 6 Torsion [N]-C--CA-[N] |==|  0.87088
USER: genes 7 Torsion [C]-CA--CB-[CG2] |==|  0.61255
USER: genes 8 Torsion [C]-CA--CB-[CG] |==|  0.39440
USER: genes 9 Torsion [CA]-CB--CG-[SD] |==|  0.99931
USER: genes 10 Torsion [CB]-CG--SD-[CE] |==|  0.28006
USER: genes 11 Torsion [N]-CA--C-[O] |==|  0.52729
USER: genes 12 Torsion [C]-N--CA-[C] |==|  0.78089
USER: genes 13 Torsion [N]-CA--C-[O] |==|  0.09907
USER: genes 14 Torsion [N]-CA--CB-[CG] |==|  0.17483
USER: genes 15 Torsion [CA]-CB--CG-[CD2] |==|  0.30101
ROOT
ATOM      1  C   GLY E2013      -0.610 -15.497 -27.319  1.00 21.81 LIG 0.24  C 
ATOM      2 O    GLY E2013      -1.527 -14.943 -26.692  1.00 22.84 LIG-0.27  OA
ATOM      3  N   PRO E2014       0.482 -15.979 -26.720  1.00 21.64 LIG-0.34  N 
ATOM      4  CA  PRO E2014       0.684 -15.991 -25.268  1.00 21.53 LIG 0.18  C 
ATOM      5  CB  PRO E2014       1.768 -17.058 -25.090  1.00 21.78 LIG 0.04  C 
ATOM      6  CG  PRO E2014       2.543 -17.057 -26.375  1.00 22.21 LIG 0.02  C 
ATOM      7  CD  PRO E2014       1.581 -16.631 -27.456  1.00 21.52 LIG 0.13  C 
ENDROOT
BRANCH 1 8
ATOM      8  CA  GLY E2013      -0.699 -15.676 -28.829  1.00 23.09 LIG 0.23  C 
BRANCH 8 9
ATOM      9  N   GLY E2013      -1.950 -16.365 -29.141  1.00 25.21 LIG-0.35  N 
ATOM     10  C   MET E2012      -2.707 -16.020 -30.182  1.00 26.98 LIG 0.24  C 
ATOM     11 O    MET E2012      -2.520 -14.994 -30.853  1.00 24.85 LIG-0.27  OA
ATOM     12 H    GLY E2013      -2.146 -17.003 -28.599  1.00 25.21 LIG 0.16  HD
BRANCH 10 13
ATOM     13  CA  MET E2012      -3.818 -16.999 -30.541  1.00 29.83 LIG 0.18  C 
BRANCH 13 14
ATOM     14  N   MET E2012      -3.845 -18.151 -29.638  1.00 30.84 LIG-0.35  N 
ATOM     15  C   VAL E2011      -3.697 -19.398 -30.066  1.00 36.49 LIG 0.26  C 
ATOM     16 O    VAL E2011      -3.602 -19.692 -31.266  1.00 38.00 LIG-0.27  OA
ATOM     17 H    MET E2012      -3.965 -17.945 -28.812  1.00 30.84 LIG 0.16  HD
BRANCH 15 18
ATOM     18  CA  VAL E2011      -3.667 -20.480 -28.967  1.00 39.95 LIG 0.40  C 
ATOM     19  N   VAL E2011      -2.760 -20.081 -27.843  1.00 39.42 LIG 0.61  N 
BRANCH 18 20
ATOM     20  CB  VAL E2011      -5.096 -20.839 -28.455  1.00 43.12 LIG 0.03  C 
ATOM     21  CG2 VAL E2011      -5.086 -21.021 -26.940  1.00 41.73 LIG 0.01  C 
ATOM     22  CG1 VAL E2011      -5.669 -22.077 -29.148  1.00 40.75 LIG 0.01  C 
ENDBRANCH 18 20
ENDBRANCH 15 18
ENDBRANCH 13 14
BRANCH 13 23
ATOM     23  CB  MET E2012      -5.152 -16.229 -30.469  1.00 32.11 LIG 0.04  C 
BRANCH 23 24
ATOM     24  CG  MET E2012      -6.210 -16.563 -31.528  1.00 37.34 LIG 0.08  C 
BRANCH 24 25
ATOM     25 SD   MET E2012      -5.720 -17.823 -32.722  1.00 39.45 LIG-0.17  SA
ATOM     26  CE  MET E2012      -6.580 -19.252 -32.043  1.00 39.28 LIG 0.09  C 
ENDBRANCH 24 25
ENDBRANCH 23 24
ENDBRANCH 13 23
ENDBRANCH 10 13
ENDBRANCH 8 9
ENDBRANCH 1 8
BRANCH 4 27
ATOM     27  C   PRO E2014       1.164 -14.641 -24.694  1.00 21.57 LIG 0.24  C 
ATOM     28 O    PRO E2014       1.557 -14.543 -23.495  1.00 21.05 LIG-0.27  OA
ATOM     29  N   TRP E2015       1.153 -13.609 -25.543  1.00 20.29 LIG-0.34  N 
ATOM     30 H    TRP E2015       0.812 -13.630 -26.333  1.00 20.29 LIG 0.16  HD
BRANCH 29 31
ATOM     31  CA  TRP E2015       1.745 -12.323 -25.160  1.00 20.70 LIG 0.19  C 
BRANCH 31 32
ATOM     32  C   TRP E2015       0.850 -11.488 -24.253  1.00 20.18 LIG 0.20  C 
ATOM     33 O    TRP E2015       0.125 -11.984 -23.396  1.00 21.31 LIG-0.65  OA
ATOM     34 OXT  TRP E2015       0.817 -10.270 -24.400  1.00 19.23 LIG-0.65  OA
ENDBRANCH 31 32
BRANCH 31 35
ATOM     35  CB  TRP E2015       2.070 -11.488 -26.408  1.00 21.64 LIG 0.08  C 
BRANCH 35 36
ATOM     36  CG  TRP E2015       0.882 -11.077 -27.276  1.00 22.27 LIG-0.03  A 
ATOM     37  CD2 TRP E2015       0.357  -9.752 -27.381  1.00 22.85 LIG-0.00  A 
ATOM     38  CE2 TRP E2015      -0.718  -9.788 -28.301  1.00 23.44 LIG 0.04  A 
ATOM     39  CE3 TRP E2015       0.707  -8.521 -26.790  1.00 23.10 LIG 0.01  A 
ATOM     40  CZ2 TRP E2015      -1.462  -8.639 -28.632  1.00 22.82 LIG 0.03  A 
ATOM     41  NE1 TRP E2015      -0.850 -11.084 -28.738  1.00 23.03 LIG-0.36  N 
ATOM     42  CH2 TRP E2015      -1.116  -7.456 -28.028  1.00 23.08 LIG 0.00  A 
ATOM     43  CZ3 TRP E2015      -0.045  -7.378 -27.120  1.00 24.27 LIG 0.00  A 
ATOM     44 HE1  TRP E2015      -1.443 -11.367 -29.292  1.00 23.03 LIG 0.17  HD
ATOM     45  CD1 TRP E2015       0.134 -11.861 -28.137  1.00 22.46 LIG 0.10  A 
ENDBRANCH 35 36
ENDBRANCH 31 35
ENDBRANCH 29 31
ENDBRANCH 4 27
TORSDOF 14
ENDMDL
MODEL 6
USER: ADFR SOLUTION from run 151
USER: SCORE 12.329841 LL:  -2.861 LR:  -9.881 RR:   0.000 FEB:  -5.705
USER: RMSD 4.207896
USER: SEED 150
USER: STATUS no improvement in best in 11 clusters for 5 generations
USER: GENES 16
USER: genes 0 Translation |==|  0.48176 0.51073 0.46410
USER: genes 1 Rotation |==|  0.49311 0.43789 0.39899 0.98569
USER: genes 2 Torsion [N]-C--CA-[N] |==|  0.46020
USER: genes 3 Torsion [C]-CA--N-[C] |==|  0.69455
USER: genes 4 Torsion [N]-C--CA-[N] |==|  0.09311
USER: genes 5 Torsion [C]-CA--N-[C] |==|  0.18322
USER: genes 6 Torsion [N]-C--CA-[N] |==|  0.90890
USER: genes 7 Torsion [C]-CA--CB-[CG2] |==|  0.44185
USER: genes 8 Torsion [C]-CA--CB-[CG] |==|  0.52872
USER: genes 9 Torsion [CA]-CB--CG-[SD] |==|  0.81652
USER: genes 10 Torsion [CB]-CG--SD-[CE] |==|  0.24777
USER: genes 11 Torsion [N]-CA--C-[O] |==|  0.47885
USER: genes 12 Torsion [C]-N--CA-[C] |==|  0.73307
USER: genes 13 Torsion [N]-CA--C-[O] |==|  0.06390
USER: genes 14 Torsion [N]-CA--CB-[CG] |==|  0.83838
USER: genes 15 Torsion [CA]-CB--CG-[CD2] |==|  0.48847
ROOT
ATOM      1  C   GLY E2013       0.188 -15.739 -28.756  1.00 21.81 LIG 0.24  C 
ATOM      2 O    GLY E2013       0.060 -16.608 -27.878  1.00 22.84 LIG-0.27  OA
ATOM      3  N   PRO E2014       1.314 -15.041 -28.919  1.00 21.64 LIG-0.34  N 
ATOM      4  CA  PRO E2014       2.542 -15.276 -28.153  1.00 21.53 LIG 0.18  C 
ATOM      5  CB  PRO E2014       3.615 -14.626 -29.034  1.00 21.78 LIG 0.04  C 
ATOM      6  CG  PRO E2014       2.903 -13.546 -29.796  1.00 22.21 LIG 0.02  C 
ATOM      7  CD  PRO E2014       1.474 -14.002 -29.953  1.00 21.52 LIG 0.13  C 
ENDROOT
BRANCH 1 8
ATOM      8  CA  GLY E2013      -0.952 -15.438 -29.722  1.00 23.09 LIG 0.23  C 
BRANCH 8 9
ATOM      9  N   GLY E2013      -1.943 -16.507 -29.617  1.00 25.21 LIG-0.35  N 
ATOM     10  C   MET E2012      -2.136 -17.391 -30.595  1.00 26.98 LIG 0.24  C 
ATOM     11 O    MET E2012      -1.638 -17.280 -31.725  1.00 24.85 LIG-0.27  OA
ATOM     12 H    GLY E2013      -2.381 -16.510 -28.877  1.00 25.21 LIG 0.16  HD
BRANCH 10 13
ATOM     13  CA  MET E2012      -2.990 -18.599 -30.231  1.00 29.83 LIG 0.18  C 
BRANCH 13 14
ATOM     14  N   MET E2012      -4.034 -18.260 -29.263  1.00 30.84 LIG-0.35  N 
ATOM     15  C   VAL E2011      -5.038 -17.443 -29.551  1.00 36.49 LIG 0.26  C 
ATOM     16 O    VAL E2011      -5.130 -16.843 -30.631  1.00 38.00 LIG-0.27  OA
ATOM     17 H    MET E2012      -3.936 -18.638 -28.496  1.00 30.84 LIG 0.16  HD
BRANCH 15 18
ATOM     18  CA  VAL E2011      -6.092 -17.265 -28.439  1.00 39.95 LIG 0.40  C 
ATOM     19  N   VAL E2011      -6.253 -18.525 -27.642  1.00 39.42 LIG 0.61  N 
BRANCH 18 20
ATOM     20  CB  VAL E2011      -5.783 -16.040 -27.524  1.00 43.12 LIG 0.03  C 
ATOM     21  CG2 VAL E2011      -7.048 -15.586 -26.801  1.00 41.73 LIG 0.01  C 
ATOM     22  CG1 VAL E2011      -5.152 -14.881 -28.298  1.00 40.75 LIG 0.01  C 
ENDBRANCH 18 20
ENDBRANCH 15 18
ENDBRANCH 13 14
BRANCH 13 23
ATOM     23  CB  MET E2012      -3.619 -19.129 -31.536  1.00 32.11 LIG 0.04  C 
BRANCH 23 24
ATOM     24  CG  MET E2012      -4.714 -20.194 -31.401  1.00 37.34 LIG 0.08  C 
BRANCH 24 25
ATOM     25 SD   MET E2012      -4.159 -21.777 -30.737  1.00 39.45 LIG-0.17  SA
ATOM     26  CE  MET E2012      -4.388 -21.478 -28.976  1.00 39.28 LIG 0.09  C 
ENDBRANCH 24 25
ENDBRANCH 23 24
ENDBRANCH 13 23
ENDBRANCH 10 13
ENDBRANCH 8 9
ENDBRANCH 1 8
BRANCH 4 27
ATOM     27  C   PRO E2014       2.536 -14.627 -26.753  1.00 21.57 LIG 0.24  C 
ATOM     28 O    PRO E2014       3.462 -14.859 -25.921  1.00 21.05 LIG-0.27  OA
ATOM     29  N   TRP E2015       1.514 -13.806 -26.494  1.00 20.29 LIG-0.34  N 
ATOM     30 H    TRP E2015       0.832 -13.699 -27.008  1.00 20.29 LIG 0.16  HD
BRANCH 29 31
ATOM     31  CA  TRP E2015       1.495 -13.004 -25.266  1.00 20.70 LIG 0.19  C 
BRANCH 31 32
ATOM     32  C   TRP E2015       0.697 -13.643 -24.136  1.00 20.18 LIG 0.20  C 
ATOM     33 O    TRP E2015       0.478 -14.850 -24.077  1.00 21.31 LIG-0.65  OA
ATOM     34 OXT  TRP E2015       0.216 -12.928 -23.263  1.00 19.23 LIG-0.65  OA
ENDBRANCH 31 32
BRANCH 31 35
ATOM     35  CB  TRP E2015       0.902 -11.614 -25.540  1.00 21.64 LIG 0.08  C 
BRANCH 35 36
ATOM     36  CG  TRP E2015       1.610 -10.774 -26.601  1.00 22.27 LIG-0.03  A 
ATOM     37  CD2 TRP E2015       1.174  -9.494 -27.065  1.00 22.85 LIG-0.00  A 
ATOM     38  CE2 TRP E2015       2.114  -9.042 -28.024  1.00 23.44 LIG 0.04  A 
ATOM     39  CE3 TRP E2015       0.076  -8.671 -26.748  1.00 23.10 LIG 0.01  A 
ATOM     40  CZ2 TRP E2015       1.977  -7.806 -28.684  1.00 22.82 LIG 0.03  A 
ATOM     41  NE1 TRP E2015       3.083 -10.008 -28.145  1.00 23.03 LIG-0.36  N 
ATOM     42  CH2 TRP E2015       0.887  -7.032 -28.373  1.00 23.08 LIG 0.00  A 
ATOM     43  CZ3 TRP E2015      -0.059  -7.440 -27.417  1.00 24.27 LIG 0.00  A 
ATOM     44 HE1  TRP E2015       3.758  -9.976 -28.677  1.00 23.03 LIG 0.17  HD
ATOM     45  CD1 TRP E2015       2.793 -11.047 -27.266  1.00 22.46 LIG 0.10  A 
ENDBRANCH 35 36
ENDBRANCH 31 35
ENDBRANCH 29 31
ENDBRANCH 4 27
TORSDOF 14
ENDMDL
MODEL 7
USER: ADFR SOLUTION from run 118
USER: SCORE 12.269928 LL:  -3.024 LR:  -9.860 RR:   0.000 FEB:  -5.684
USER: RMSD 4.950959
USER: SEED 117
USER: STATUS no improvement in best in 10 clusters for 5 generations
USER: GENES 16
USER: genes 0 Translation |==|  0.46375 0.53266 0.58553
USER: genes 1 Rotation |==|  0.25385 0.12845 0.34689 0.66708
USER: genes 2 Torsion [N]-C--CA-[N] |==|  0.49310
USER: genes 3 Torsion [C]-CA--N-[C] |==|  0.40024
USER: genes 4 Torsion [N]-C--CA-[N] |==|  0.87055
USER: genes 5 Torsion [C]-CA--N-[C] |==|  0.71706
USER: genes 6 Torsion [N]-C--CA-[N] |==|  0.36175
USER: genes 7 Torsion [C]-CA--CB-[CG2] |==|  0.41379
USER: genes 8 Torsion [C]-CA--CB-[CG] |==|  0.08850
USER: genes 9 Torsion [CA]-CB--CG-[SD] |==|  0.64973
USER: genes 10 Torsion [CB]-CG--SD-[CE] |==|  0.34998
USER: genes 11 Torsion [N]-CA--C-[O] |==|  0.68246
USER: genes 12 Torsion [C]-N--CA-[C] |==|  0.16753
USER: genes 13 Torsion [N]-CA--C-[O] |==|  0.04455
USER: genes 14 Torsion [N]-CA--CB-[CG] |==|  0.56711
USER: genes 15 Torsion [CA]-CB--CG-[CD2] |==|  0.17669
ROOT
ATOM      1  C   GLY E2013      -0.096 -15.180 -26.662  1.00 21.81 LIG 0.24  C 
ATOM      2 O    GLY E2013      -1.158 -14.581 -26.894  1.00 22.84 LIG-0.27  OA
ATOM      3  N   PRO E2014       0.789 -14.753 -25.758  1.00 21.64 LIG-0.34  N 
ATOM      4  CA  PRO E2014       0.575 -13.595 -24.884  1.00 21.53 LIG 0.18  C 
ATOM      5  CB  PRO E2014       1.577 -13.841 -23.752  1.00 21.78 LIG 0.04  C 
ATOM      6  CG  PRO E2014       2.682 -14.651 -24.366  1.00 22.21 LIG 0.02  C 
ATOM      7  CD  PRO E2014       2.058 -15.452 -25.481  1.00 21.52 LIG 0.13  C 
ENDROOT
BRANCH 1 8
ATOM      8  CA  GLY E2013       0.244 -16.470 -27.398  1.00 23.09 LIG 0.23  C 
BRANCH 8 9
ATOM      9  N   GLY E2013      -0.864 -16.800 -28.292  1.00 25.21 LIG-0.35  N 
ATOM     10  C   MET E2012      -0.669 -17.355 -29.487  1.00 26.98 LIG 0.24  C 
ATOM     11 O    MET E2012       0.449 -17.471 -30.012  1.00 24.85 LIG-0.27  OA
ATOM     12 H    GLY E2013      -1.640 -16.604 -27.977  1.00 25.21 LIG 0.16  HD
BRANCH 10 13
ATOM     13  CA  MET E2012      -1.917 -17.894 -30.175  1.00 29.83 LIG 0.18  C 
BRANCH 13 14
ATOM     14  N   MET E2012      -2.742 -18.692 -29.265  1.00 30.84 LIG-0.35  N 
ATOM     15  C   VAL E2011      -2.747 -20.018 -29.281  1.00 36.49 LIG 0.26  C 
ATOM     16 O    VAL E2011      -2.115 -20.684 -30.113  1.00 38.00 LIG-0.27  OA
ATOM     17 H    MET E2012      -3.219 -18.222 -28.725  1.00 30.84 LIG 0.16  HD
BRANCH 15 18
ATOM     18  CA  VAL E2011      -3.611 -20.694 -28.197  1.00 39.95 LIG 0.40  C 
ATOM     19  N   VAL E2011      -4.512 -21.731 -28.795  1.00 39.42 LIG 0.61  N 
BRANCH 18 20
ATOM     20  CB  VAL E2011      -2.748 -21.279 -27.037  1.00 43.12 LIG 0.03  C 
ATOM     21  CG2 VAL E2011      -3.523 -21.229 -25.723  1.00 41.73 LIG 0.01  C 
ATOM     22  CG1 VAL E2011      -1.398 -20.571 -26.900  1.00 40.75 LIG 0.01  C 
ENDBRANCH 18 20
ENDBRANCH 15 18
ENDBRANCH 13 14
BRANCH 13 23
ATOM     23  CB  MET E2012      -2.713 -16.683 -30.700  1.00 32.11 LIG 0.04  C 
BRANCH 23 24
ATOM     24  CG  MET E2012      -1.908 -15.454 -31.138  1.00 37.34 LIG 0.08  C 
BRANCH 24 25
ATOM     25 SD   MET E2012      -2.400 -13.904 -30.356  1.00 39.45 LIG-0.17  SA
ATOM     26  CE  MET E2012      -0.813 -13.366 -29.698  1.00 39.28 LIG 0.09  C 
ENDBRANCH 24 25
ENDBRANCH 23 24
ENDBRANCH 13 23
ENDBRANCH 10 13
ENDBRANCH 8 9
ENDBRANCH 1 8
BRANCH 4 27
ATOM     27  C   PRO E2014       0.861 -12.239 -25.565  1.00 21.57 LIG 0.24  C 
ATOM     28 O    PRO E2014       1.815 -11.503 -25.179  1.00 21.05 LIG-0.27  OA
ATOM     29  N   TRP E2015       0.056 -11.915 -26.581  1.00 20.29 LIG-0.34  N 
ATOM     30 H    TRP E2015      -0.647 -12.356 -26.806  1.00 20.29 LIG 0.16  HD
BRANCH 29 31
ATOM     31  CA  TRP E2015       0.338 -10.737 -27.408  1.00 20.70 LIG 0.19  C 
BRANCH 31 32
ATOM     32  C   TRP E2015       1.685 -10.801 -28.117  1.00 20.18 LIG 0.20  C 
ATOM     33 O    TRP E2015       2.323 -11.843 -28.240  1.00 21.31 LIG-0.65  OA
ATOM     34 OXT  TRP E2015       2.181  -9.768 -28.555  1.00 19.23 LIG-0.65  OA
ENDBRANCH 31 32
BRANCH 31 35
ATOM     35  CB  TRP E2015       0.310  -9.461 -26.553  1.00 21.64 LIG 0.08  C 
BRANCH 35 36
ATOM     36  CG  TRP E2015       0.015  -8.158 -27.293  1.00 22.27 LIG-0.03  A 
ATOM     37  CD2 TRP E2015      -1.207  -7.852 -27.969  1.00 22.85 LIG-0.00  A 
ATOM     38  CE2 TRP E2015      -1.088  -6.544 -28.498  1.00 23.44 LIG 0.04  A 
ATOM     39  CE3 TRP E2015      -2.408  -8.561 -28.168  1.00 23.10 LIG 0.01  A 
ATOM     40  CZ2 TRP E2015      -2.124  -5.935 -29.232  1.00 22.82 LIG 0.03  A 
ATOM     41  NE1 TRP E2015       0.157  -6.070 -28.163  1.00 23.03 LIG-0.36  N 
ATOM     42  CH2 TRP E2015      -3.277  -6.653 -29.430  1.00 23.08 LIG 0.00  A 
ATOM     43  CZ3 TRP E2015      -3.437  -7.949 -28.909  1.00 24.27 LIG 0.00  A 
ATOM     44 HE1  TRP E2015       0.475  -5.301 -28.382  1.00 23.03 LIG 0.17  HD
ATOM     45  CD1 TRP E2015       0.817  -7.036 -27.412  1.00 22.46 LIG 0.10  A 
ENDBRANCH 35 36
ENDBRANCH 31 35
ENDBRANCH 29 31
ENDBRANCH 4 27
TORSDOF 14
ENDMDL
MODEL 8
USER: ADFR SOLUTION from run 14
USER: SCORE 11.984776 LL:  -3.001 LR:  -9.821 RR:   0.000 FEB:  -5.645
USER: RMSD 4.401885
USER: SEED 542797
USER: STATUS no improvement in best in 12 clusters for 5 generations
USER: GENES 16
USER: genes 0 Translation |==|  0.41579 0.52102 0.54068
USER: genes 1 Rotation |==|  0.32117 0.28247 0.22666 0.80982
USER: genes 2 Torsion [N]-C--CA-[N] |==|  0.37248
USER: genes 3 Torsion [C]-CA--N-[C] |==|  0.48352
USER: genes 4 Torsion [N]-C--CA-[N] |==|  0.94057
USER: genes 5 Torsion [C]-CA--N-[C] |==|  0.68770
USER: genes 6 Torsion [N]-C--CA-[N] |==|  0.35178
USER: genes 7 Torsion [C]-CA--CB-[CG2] |==|  0.10033
USER: genes 8 Torsion [C]-CA--CB-[CG] |==|  0.84392
USER: genes 9 Torsion [CA]-CB--CG-[SD] |==|  0.77613
USER: genes 10 Torsion [CB]-CG--SD-[CE] |==|  0.36829
USER: genes 11 Torsion [N]-CA--C-[O] |==|  0.49953
USER: genes 12 Torsion [C]-N--CA-[C] |==|  0.81180
USER: genes 13 Torsion [N]-CA--C-[O] |==|  0.12289
USER: genes 14 Torsion [N]-CA--CB-[CG] |==|  0.80433
USER: genes 15 Torsion [CA]-CB--CG-[CD2] |==|  0.65705
ROOT
ATOM      1  C   GLY E2013      -0.851 -15.477 -27.435  1.00 21.81 LIG 0.24  C 
ATOM      2 O    GLY E2013      -1.779 -15.012 -26.754  1.00 22.84 LIG-0.27  OA
ATOM      3  N   PRO E2014       0.290 -15.910 -26.895  1.00 21.64 LIG-0.34  N 
ATOM      4  CA  PRO E2014       0.544 -15.970 -25.453  1.00 21.53 LIG 0.18  C 
ATOM      5  CB  PRO E2014       1.701 -16.971 -25.358  1.00 21.78 LIG 0.04  C 
ATOM      6  CG  PRO E2014       2.428 -16.864 -26.667  1.00 22.21 LIG 0.02  C 
ATOM      7  CD  PRO E2014       1.402 -16.457 -27.696  1.00 21.52 LIG 0.13  C 
ENDROOT
BRANCH 1 8
ATOM      8  CA  GLY E2013      -0.983 -15.597 -28.949  1.00 23.09 LIG 0.23  C 
BRANCH 8 9
ATOM      9  N   GLY E2013      -2.300 -16.153 -29.257  1.00 25.21 LIG-0.35  N 
ATOM     10  C   MET E2012      -2.745 -16.264 -30.507  1.00 26.98 LIG 0.24  C 
ATOM     11 O    MET E2012      -2.177 -15.753 -31.483  1.00 24.85 LIG-0.27  OA
ATOM     12 H    GLY E2013      -2.750 -16.396 -28.565  1.00 25.21 LIG 0.16  HD
BRANCH 10 13
ATOM     13  CA  MET E2012      -3.999 -17.111 -30.686  1.00 29.83 LIG 0.18  C 
BRANCH 13 14
ATOM     14  N   MET E2012      -4.198 -18.038 -29.569  1.00 30.84 LIG-0.35  N 
ATOM     15  C   VAL E2011      -4.095 -19.353 -29.705  1.00 36.49 LIG 0.26  C 
ATOM     16 O    VAL E2011      -3.900 -19.905 -30.798  1.00 38.00 LIG-0.27  OA
ATOM     17 H    MET E2012      -4.386 -17.652 -28.824  1.00 30.84 LIG 0.16  HD
BRANCH 15 18
ATOM     18  CA  VAL E2011      -4.252 -20.171 -28.407  1.00 39.95 LIG 0.40  C 
ATOM     19  N   VAL E2011      -5.300 -21.231 -28.561  1.00 39.42 LIG 0.61  N 
BRANCH 18 20
ATOM     20  CB  VAL E2011      -2.896 -20.768 -27.920  1.00 43.12 LIG 0.03  C 
ATOM     21  CG2 VAL E2011      -1.755 -19.793 -28.203  1.00 41.73 LIG 0.01  C 
ATOM     22  CG1 VAL E2011      -2.607 -22.137 -28.538  1.00 40.75 LIG 0.01  C 
ENDBRANCH 18 20
ENDBRANCH 15 18
ENDBRANCH 13 14
BRANCH 13 23
ATOM     23  CB  MET E2012      -5.196 -16.146 -30.801  1.00 32.11 LIG 0.04  C 
BRANCH 23 24
ATOM     24  CG  MET E2012      -5.405 -15.151 -29.653  1.00 37.34 LIG 0.08  C 
BRANCH 24 25
ATOM     25 SD   MET E2012      -6.232 -15.829 -28.200  1.00 39.45 LIG-0.17  SA
ATOM     26  CE  MET E2012      -5.144 -15.216 -26.903  1.00 39.28 LIG 0.09  C 
ENDBRANCH 24 25
ENDBRANCH 23 24
ENDBRANCH 13 23
ENDBRANCH 10 13
ENDBRANCH 8 9
ENDBRANCH 1 8
BRANCH 4 27
ATOM     27  C   PRO E2014       0.957 -14.617 -24.836  1.00 21.57 LIG 0.24  C 
ATOM     28 O    PRO E2014       1.206 -14.511 -23.599  1.00 21.05 LIG-0.27  OA
ATOM     29  N   TRP E2015       1.048 -13.591 -25.687  1.00 20.29 LIG-0.34  N 
ATOM     30 H    TRP E2015       0.803 -13.618 -26.511  1.00 20.29 LIG 0.16  HD
BRANCH 29 31
ATOM     31  CA  TRP E2015       1.594 -12.303 -25.245  1.00 20.70 LIG 0.19  C 
BRANCH 31 32
ATOM     32  C   TRP E2015       0.708 -11.581 -24.238  1.00 20.18 LIG 0.20  C 
ATOM     33 O    TRP E2015       0.178 -12.152 -23.290  1.00 21.31 LIG-0.65  OA
ATOM     34 OXT  TRP E2015       0.478 -10.385 -24.392  1.00 19.23 LIG-0.65  OA
ENDBRANCH 31 32
BRANCH 31 35
ATOM     35  CB  TRP E2015       1.808 -11.370 -26.447  1.00 21.64 LIG 0.08  C 
BRANCH 35 36
ATOM     36  CG  TRP E2015       2.942 -11.743 -27.400  1.00 22.27 LIG-0.03  A 
ATOM     37  CD2 TRP E2015       4.037 -10.894 -27.750  1.00 22.85 LIG-0.00  A 
ATOM     38  CE2 TRP E2015       4.876 -11.618 -28.632  1.00 23.44 LIG 0.04  A 
ATOM     39  CE3 TRP E2015       4.402  -9.583 -27.387  1.00 23.10 LIG 0.01  A 
ATOM     40  CZ2 TRP E2015       6.052 -11.064 -29.172  1.00 22.82 LIG 0.03  A 
ATOM     41  NE1 TRP E2015       4.315 -12.858 -28.818  1.00 23.03 LIG-0.36  N 
ATOM     42  CH2 TRP E2015       6.375  -9.778 -28.820  1.00 23.08 LIG 0.00  A 
ATOM     43  CZ3 TRP E2015       5.575  -9.033 -27.937  1.00 24.27 LIG 0.00  A 
ATOM     44 HE1  TRP E2015       4.628 -13.479 -29.324  1.00 23.03 LIG 0.17  HD
ATOM     45  CD1 TRP E2015       3.156 -12.945 -28.053  1.00 22.46 LIG 0.10  A 
ENDBRANCH 35 36
ENDBRANCH 31 35
ENDBRANCH 29 31
ENDBRANCH 4 27
TORSDOF 14
ENDMDL
MODEL 9
USER: ADFR SOLUTION from run 85
USER: SCORE 12.803333 LL:  -3.592 LR:  -9.769 RR:   0.000 FEB:  -5.592
USER: RMSD 4.111340
USER: SEED 84
USER: STATUS no improvement in best in 15 clusters for 5 generations
USER: GENES 16
USER: genes 0 Translation |==|  0.52571 0.45551 0.55835
USER: genes 1 Rotation |==|  0.26423 0.26849 0.37416 0.85353
USER: genes 2 Torsion [N]-C--CA-[N] |==|  0.60536
USER: genes 3 Torsion [C]-CA--N-[C] |==|  0.38262
USER: genes 4 Torsion [N]-C--CA-[N] |==|  0.88566
USER: genes 5 Torsion [C]-CA--N-[C] |==|  0.80001
USER: genes 6 Torsion [N]-C--CA-[N] |==|  0.30104
USER: genes 7 Torsion [C]-CA--CB-[CG2] |==|  0.44499
USER: genes 8 Torsion [C]-CA--CB-[CG] |==|  0.06693
USER: genes 9 Torsion [CA]-CB--CG-[SD] |==|  0.74305
USER: genes 10 Torsion [CB]-CG--SD-[CE] |==|  0.38949
USER: genes 11 Torsion [N]-CA--C-[O] |==|  0.80633
USER: genes 12 Torsion [C]-N--CA-[C] |==|  0.49858
USER: genes 13 Torsion [N]-CA--C-[O] |==|  0.44352
USER: genes 14 Torsion [N]-CA--CB-[CG] |==|  0.61507
USER: genes 15 Torsion [CA]-CB--CG-[CD2] |==|  0.67553
ROOT
ATOM      1  C   GLY E2013       0.880 -17.147 -27.131  1.00 21.81 LIG 0.24  C 
ATOM      2 O    GLY E2013       0.081 -16.734 -26.275  1.00 22.84 LIG-0.27  OA
ATOM      3  N   PRO E2014       2.199 -16.961 -27.033  1.00 21.64 LIG-0.34  N 
ATOM      4  CA  PRO E2014       2.855 -16.335 -25.882  1.00 21.53 LIG 0.18  C 
ATOM      5  CB  PRO E2014       4.303 -16.817 -26.019  1.00 21.78 LIG 0.04  C 
ATOM      6  CG  PRO E2014       4.504 -17.060 -27.487  1.00 22.21 LIG 0.02  C 
ATOM      7  CD  PRO E2014       3.156 -17.440 -28.048  1.00 21.52 LIG 0.13  C 
ENDROOT
BRANCH 1 8
ATOM      8  CA  GLY E2013       0.385 -17.922 -28.346  1.00 23.09 LIG 0.23  C 
BRANCH 8 9
ATOM      9  N   GLY E2013      -0.867 -17.320 -28.801  1.00 25.21 LIG-0.35  N 
ATOM     10  C   MET E2012      -1.130 -17.125 -30.092  1.00 26.98 LIG 0.24  C 
ATOM     11 O    MET E2012      -0.286 -17.263 -30.990  1.00 24.85 LIG-0.27  OA
ATOM     12 H    GLY E2013      -1.407 -17.107 -28.166  1.00 25.21 LIG 0.16  HD
BRANCH 10 13
ATOM     13  CA  MET E2012      -2.571 -16.756 -30.422  1.00 29.83 LIG 0.18  C 
BRANCH 13 14
ATOM     14  N   MET E2012      -3.530 -17.536 -29.637  1.00 30.84 LIG-0.35  N 
ATOM     15  C   VAL E2011      -3.753 -18.825 -29.858  1.00 36.49 LIG 0.26  C 
ATOM     16 O    VAL E2011      -3.229 -19.450 -30.791  1.00 38.00 LIG-0.27  OA
ATOM     17 H    MET E2012      -3.930 -17.084 -29.025  1.00 30.84 LIG 0.16  HD
BRANCH 15 18
ATOM     18  CA  VAL E2011      -4.733 -19.507 -28.881  1.00 39.95 LIG 0.40  C 
ATOM     19  N   VAL E2011      -6.037 -19.815 -29.553  1.00 39.42 LIG 0.61  N 
BRANCH 18 20
ATOM     20  CB  VAL E2011      -4.113 -20.775 -28.217  1.00 43.12 LIG 0.03  C 
ATOM     21  CG2 VAL E2011      -4.873 -21.130 -26.942  1.00 41.73 LIG 0.01  C 
ATOM     22  CG1 VAL E2011      -2.619 -20.612 -27.932  1.00 40.75 LIG 0.01  C 
ENDBRANCH 18 20
ENDBRANCH 15 18
ENDBRANCH 13 14
BRANCH 13 23
ATOM     23  CB  MET E2012      -2.739 -15.250 -30.133  1.00 32.11 LIG 0.04  C 
BRANCH 23 24
ATOM     24  CG  MET E2012      -1.474 -14.386 -30.169  1.00 37.34 LIG 0.08  C 
BRANCH 24 25
ATOM     25 SD   MET E2012      -0.647 -14.179 -28.579  1.00 39.45 LIG-0.17  SA
ATOM     26  CE  MET E2012       1.073 -14.293 -29.100  1.00 39.28 LIG 0.09  C 
ENDBRANCH 24 25
ENDBRANCH 23 24
ENDBRANCH 13 23
ENDBRANCH 10 13
ENDBRANCH 8 9
ENDBRANCH 1 8
BRANCH 4 27
ATOM     27  C   PRO E2014       2.803 -14.792 -25.896  1.00 21.57 LIG 0.24  C 
ATOM     28 O    PRO E2014       3.469 -14.124 -26.741  1.00 21.05 LIG-0.27  OA
ATOM     29  N   TRP E2015       2.006 -14.226 -24.985  1.00 20.29 LIG-0.34  N 
ATOM     30 H    TRP E2015       1.613 -14.652 -24.349  1.00 20.29 LIG 0.16  HD
BRANCH 29 31
ATOM     31  CA  TRP E2015       1.747 -12.783 -25.015  1.00 20.70 LIG 0.19  C 
BRANCH 31 32
ATOM     32  C   TRP E2015       0.809 -12.311 -23.912  1.00 20.18 LIG 0.20  C 
ATOM     33 O    TRP E2015       0.753 -11.142 -23.542  1.00 21.31 LIG-0.65  OA
ATOM     34 OXT  TRP E2015       0.100 -13.131 -23.337  1.00 19.23 LIG-0.65  OA
ENDBRANCH 31 32
BRANCH 31 35
ATOM     35  CB  TRP E2015       1.137 -12.375 -26.365  1.00 21.64 LIG 0.08  C 
BRANCH 35 36
ATOM     36  CG  TRP E2015       1.658 -11.077 -26.978  1.00 22.27 LIG-0.03  A 
ATOM     37  CD2 TRP E2015       0.872  -9.908 -27.223  1.00 22.85 LIG-0.00  A 
ATOM     38  CE2 TRP E2015       1.729  -8.922 -27.771  1.00 23.44 LIG 0.04  A 
ATOM     39  CE3 TRP E2015      -0.485  -9.591 -27.015  1.00 23.10 LIG 0.01  A 
ATOM     40  CZ2 TRP E2015       1.265  -7.643 -28.133  1.00 22.82 LIG 0.03  A 
ATOM     41  NE1 TRP E2015       2.986  -9.467 -27.862  1.00 23.03 LIG-0.36  N 
ATOM     42  CH2 TRP E2015      -0.065  -7.365 -27.940  1.00 23.08 LIG 0.00  A 
ATOM     43  CZ3 TRP E2015      -0.943  -8.313 -27.385  1.00 24.27 LIG 0.00  A 
ATOM     44 HE1  TRP E2015       3.681  -9.071 -28.179  1.00 23.03 LIG 0.17  HD
ATOM     45  CD1 TRP E2015       2.951 -10.763 -27.360  1.00 22.46 LIG 0.10  A 
ENDBRANCH 35 36
ENDBRANCH 31 35
ENDBRANCH 29 31
ENDBRANCH 4 27
TORSDOF 14
ENDMDL
MODEL 10
USER: ADFR SOLUTION from run 20
USER: SCORE 11.487510 LL:  -2.859 LR:  -9.763 RR:   0.000 FEB:  -5.587
USER: RMSD 4.074126
USER: SEED 19
USER: STATUS no improvement in best in 21 clusters for 5 generations
USER: GENES 16
USER: genes 0 Translation |==|  0.42413 0.51689 0.54721
USER: genes 1 Rotation |==|  0.32400 0.27856 0.23177 0.81312
USER: genes 2 Torsion [N]-C--CA-[N] |==|  0.25102
USER: genes 3 Torsion [C]-CA--N-[C] |==|  0.68889
USER: genes 4 Torsion [N]-C--CA-[N] |==|  0.06499
USER: genes 5 Torsion [C]-CA--N-[C] |==|  0.65281
USER: genes 6 Torsion [N]-C--CA-[N] |==|  0.55429
USER: genes 7 Torsion [C]-CA--CB-[CG2] |==|  0.59365
USER: genes 8 Torsion [C]-CA--CB-[CG] |==|  0.24558
USER: genes 9 Torsion [CA]-CB--CG-[SD] |==|  0.02738
USER: genes 10 Torsion [CB]-CG--SD-[CE] |==|  0.48607
USER: genes 11 Torsion [N]-CA--C-[O] |==|  0.48327
USER: genes 12 Torsion [C]-N--CA-[C] |==|  0.81532
USER: genes 13 Torsion [N]-CA--C-[O] |==|  0.10579
USER: genes 14 Torsion [N]-CA--CB-[CG] |==|  0.18286
USER: genes 15 Torsion [CA]-CB--CG-[CD2] |==|  0.31555
ROOT
ATOM      1  C   GLY E2013      -0.720 -15.582 -27.323  1.00 21.81 LIG 0.24  C 
ATOM      2 O    GLY E2013      -1.663 -15.142 -26.647  1.00 22.84 LIG-0.27  OA
ATOM      3  N   PRO E2014       0.433 -15.978 -26.777  1.00 21.64 LIG-0.34  N 
ATOM      4  CA  PRO E2014       0.684 -16.022 -25.333  1.00 21.53 LIG 0.18  C 
ATOM      5  CB  PRO E2014       1.870 -16.986 -25.230  1.00 21.78 LIG 0.04  C 
ATOM      6  CG  PRO E2014       2.598 -16.864 -26.538  1.00 22.21 LIG 0.02  C 
ATOM      7  CD  PRO E2014       1.563 -16.494 -27.571  1.00 21.52 LIG 0.13  C 
ENDROOT
BRANCH 1 8
ATOM      8  CA  GLY E2013      -0.844 -15.715 -28.836  1.00 23.09 LIG 0.23  C 
BRANCH 8 9
ATOM      9  N   GLY E2013      -1.401 -17.031 -29.142  1.00 25.21 LIG-0.35  N 
ATOM     10  C   MET E2012      -0.686 -17.979 -29.747  1.00 26.98 LIG 0.24  C 
ATOM     11 O    MET E2012       0.425 -17.775 -30.257  1.00 24.85 LIG-0.27  OA
ATOM     12 H    GLY E2013      -2.219 -17.132 -28.897  1.00 25.21 LIG 0.16  HD
BRANCH 10 13
ATOM     13  CA  MET E2012      -1.303 -19.372 -29.743  1.00 29.83 LIG 0.18  C 
BRANCH 13 14
ATOM     14  N   MET E2012      -2.757 -19.327 -29.577  1.00 30.84 LIG-0.35  N 
ATOM     15  C   VAL E2011      -3.388 -19.987 -28.615  1.00 36.49 LIG 0.26  C 
ATOM     16 O    VAL E2011      -2.808 -20.752 -27.830  1.00 38.00 LIG-0.27  OA
ATOM     17 H    MET E2012      -3.160 -18.836 -30.157  1.00 30.84 LIG 0.16  HD
BRANCH 15 18
ATOM     18  CA  VAL E2011      -4.911 -19.757 -28.538  1.00 39.95 LIG 0.40  C 
ATOM     19  N   VAL E2011      -5.446 -20.138 -27.190  1.00 39.42 LIG 0.61  N 
BRANCH 18 20
ATOM     20  CB  VAL E2011      -5.306 -18.299 -28.923  1.00 43.12 LIG 0.03  C 
ATOM     21  CG2 VAL E2011      -6.516 -17.845 -28.110  1.00 41.73 LIG 0.01  C 
ATOM     22  CG1 VAL E2011      -5.570 -18.144 -30.423  1.00 40.75 LIG 0.01  C 
ENDBRANCH 18 20
ENDBRANCH 15 18
ENDBRANCH 13 14
BRANCH 13 23
ATOM     23  CB  MET E2012      -0.936 -20.043 -31.082  1.00 32.11 LIG 0.04  C 
BRANCH 23 24
ATOM     24  CG  MET E2012       0.386 -20.817 -31.136  1.00 37.34 LIG 0.08  C 
BRANCH 24 25
ATOM     25 SD   MET E2012       1.190 -21.064 -29.540  1.00 39.45 LIG-0.17  SA
ATOM     26  CE  MET E2012       2.567 -22.111 -30.038  1.00 39.28 LIG 0.09  C 
ENDBRANCH 24 25
ENDBRANCH 23 24
ENDBRANCH 13 23
ENDBRANCH 10 13
ENDBRANCH 8 9
ENDBRANCH 1 8
BRANCH 4 27
ATOM     27  C   PRO E2014       1.054 -14.653 -24.723  1.00 21.57 LIG 0.24  C 
ATOM     28 O    PRO E2014       1.188 -14.510 -23.472  1.00 21.05 LIG-0.27  OA
ATOM     29  N   TRP E2015       1.235 -13.656 -25.594  1.00 20.29 LIG-0.34  N 
ATOM     30 H    TRP E2015       1.068 -13.707 -26.436  1.00 20.29 LIG 0.16  HD
BRANCH 29 31
ATOM     31  CA  TRP E2015       1.753 -12.359 -25.144  1.00 20.70 LIG 0.19  C 
BRANCH 31 32
ATOM     32  C   TRP E2015       0.799 -11.611 -24.221  1.00 20.18 LIG 0.20  C 
ATOM     33 O    TRP E2015       0.115 -12.176 -23.373  1.00 21.31 LIG-0.65  OA
ATOM     34 OXT  TRP E2015       0.673 -10.397 -24.347  1.00 19.23 LIG-0.65  OA
ENDBRANCH 31 32
BRANCH 31 35
ATOM     35  CB  TRP E2015       2.059 -11.455 -26.347  1.00 21.64 LIG 0.08  C 
BRANCH 35 36
ATOM     36  CG  TRP E2015       0.860 -11.012 -27.183  1.00 22.27 LIG-0.03  A 
ATOM     37  CD2 TRP E2015       0.385  -9.669 -27.295  1.00 22.85 LIG-0.00  A 
ATOM     38  CE2 TRP E2015      -0.721  -9.677 -28.179  1.00 23.44 LIG 0.04  A 
ATOM     39  CE3 TRP E2015       0.803  -8.443 -26.740  1.00 23.10 LIG 0.01  A 
ATOM     40  CZ2 TRP E2015      -1.430  -8.505 -28.506  1.00 22.82 LIG 0.03  A 
ATOM     41  NE1 TRP E2015      -0.919 -10.974 -28.587  1.00 23.03 LIG-0.36  N 
ATOM     42  CH2 TRP E2015      -1.016  -7.327 -27.936  1.00 23.08 LIG 0.00  A 
ATOM     43  CZ3 TRP E2015       0.086  -7.276 -27.066  1.00 24.27 LIG 0.00  A 
ATOM     44 HE1  TRP E2015      -1.542 -11.243 -29.116  1.00 23.03 LIG 0.17  HD
ATOM     45  CD1 TRP E2015       0.053 -11.780 -28.004  1.00 22.46 LIG 0.10  A 
ENDBRANCH 35 36
ENDBRANCH 31 35
ENDBRANCH 29 31
ENDBRANCH 4 27
TORSDOF 14
ENDMDL
MODEL 11
USER: ADFR SOLUTION from run 182
USER: SCORE 11.703482 LL:  -2.606 LR:  -9.746 RR:   0.000 FEB:  -5.570
USER: RMSD 3.135007
USER: SEED 181
USER: STATUS no improvement in best in 16 clusters for 5 generations
USER: GENES 16
USER: genes 0 Translation |==|  0.54125 0.45552 0.58456
USER: genes 1 Rotation |==|  0.36631 0.33795 0.45699 0.95168
USER: genes 2 Torsion [N]-C--CA-[N] |==|  0.45826
USER: genes 3 Torsion [C]-CA--N-[C] |==|  0.80500
USER: genes 4 Torsion [N]-C--CA-[N] |==|  0.14162
USER: genes 5 Torsion [C]-CA--N-[C] |==|  0.59325
USER: genes 6 Torsion [N]-C--CA-[N] |==|  0.69806
USER: genes 7 Torsion [C]-CA--CB-[CG2] |==|  0.55791
USER: genes 8 Torsion [C]-CA--CB-[CG] |==|  0.25994
USER: genes 9 Torsion [CA]-CB--CG-[SD] |==|  0.98915
USER: genes 10 Torsion [CB]-CG--SD-[CE] |==|  0.23141
USER: genes 11 Torsion [N]-CA--C-[O] |==|  0.44171
USER: genes 12 Torsion [C]-N--CA-[C] |==|  0.81121
USER: genes 13 Torsion [N]-CA--C-[O] |==|  0.97106
USER: genes 14 Torsion [N]-CA--CB-[CG] |==|  0.67394
USER: genes 15 Torsion [CA]-CB--CG-[CD2] |==|  0.62269
ROOT
ATOM      1  C   GLY E2013       1.125 -17.147 -26.678  1.00 21.81 LIG 0.24  C 
ATOM      2 O    GLY E2013       0.755 -17.397 -25.520  1.00 22.84 LIG-0.27  OA
ATOM      3  N   PRO E2014       2.214 -16.422 -26.946  1.00 21.64 LIG-0.34  N 
ATOM      4  CA  PRO E2014       3.136 -15.920 -25.923  1.00 21.53 LIG 0.18  C 
ATOM      5  CB  PRO E2014       4.408 -15.638 -26.729  1.00 21.78 LIG 0.04  C 
ATOM      6  CG  PRO E2014       3.938 -15.340 -28.123  1.00 22.21 LIG 0.02  C 
ATOM      7  CD  PRO E2014       2.656 -16.112 -28.318  1.00 21.52 LIG 0.13  C 
ENDROOT
BRANCH 1 8
ATOM      8  CA  GLY E2013       0.348 -17.685 -27.874  1.00 23.09 LIG 0.23  C 
BRANCH 8 9
ATOM      9  N   GLY E2013      -0.567 -18.723 -27.404  1.00 25.21 LIG-0.35  N 
ATOM     10  C   MET E2012      -0.133 -19.908 -26.977  1.00 26.98 LIG 0.24  C 
ATOM     11 O    MET E2012       1.037 -20.294 -27.108  1.00 24.85 LIG-0.27  OA
ATOM     12 H    GLY E2013      -1.397 -18.499 -27.429  1.00 25.21 LIG 0.16  HD
BRANCH 10 13
ATOM     13  CA  MET E2012      -1.167 -20.769 -26.261  1.00 29.83 LIG 0.18  C 
BRANCH 13 14
ATOM     14  N   MET E2012      -2.402 -20.900 -27.036  1.00 30.84 LIG-0.35  N 
ATOM     15  C   VAL E2011      -3.596 -20.994 -26.467  1.00 36.49 LIG 0.26  C 
ATOM     16 O    VAL E2011      -3.755 -21.056 -25.240  1.00 38.00 LIG-0.27  OA
ATOM     17 H    MET E2012      -2.280 -20.910 -27.888  1.00 30.84 LIG 0.16  HD
BRANCH 15 18
ATOM     18  CA  VAL E2011      -4.794 -21.040 -27.438  1.00 39.95 LIG 0.40  C 
ATOM     19  N   VAL E2011      -5.578 -19.763 -27.387  1.00 39.42 LIG 0.61  N 
BRANCH 18 20
ATOM     20  CB  VAL E2011      -4.359 -21.392 -28.893  1.00 43.12 LIG 0.03  C 
ATOM     21  CG2 VAL E2011      -5.423 -20.936 -29.889  1.00 41.73 LIG 0.01  C 
ATOM     22  CG1 VAL E2011      -4.055 -22.881 -29.066  1.00 40.75 LIG 0.01  C 
ENDBRANCH 18 20
ENDBRANCH 15 18
ENDBRANCH 13 14
BRANCH 13 23
ATOM     23  CB  MET E2012      -0.531 -22.154 -26.026  1.00 32.11 LIG 0.04  C 
BRANCH 23 24
ATOM     24  CG  MET E2012       0.166 -22.384 -24.680  1.00 37.34 LIG 0.08  C 
BRANCH 24 25
ATOM     25 SD   MET E2012       0.231 -20.940 -23.599  1.00 39.45 LIG-0.17  SA
ATOM     26  CE  MET E2012      -1.397 -21.043 -22.837  1.00 39.28 LIG 0.09  C 
ENDBRANCH 24 25
ENDBRANCH 23 24
ENDBRANCH 13 23
ENDBRANCH 10 13
ENDBRANCH 8 9
ENDBRANCH 1 8
BRANCH 4 27
ATOM     27  C   PRO E2014       2.650 -14.632 -25.224  1.00 21.57 LIG 0.24  C 
ATOM     28 O    PRO E2014       3.100 -14.295 -24.089  1.00 21.05 LIG-0.27  OA
ATOM     29  N   TRP E2015       1.753 -13.906 -25.897  1.00 20.29 LIG-0.34  N 
ATOM     30 H    TRP E2015       1.371 -14.156 -26.626  1.00 20.29 LIG 0.16  HD
BRANCH 29 31
ATOM     31  CA  TRP E2015       1.350 -12.582 -25.410  1.00 20.70 LIG 0.19  C 
BRANCH 31 32
ATOM     32  C   TRP E2015       0.552 -12.629 -24.113  1.00 20.18 LIG 0.20  C 
ATOM     33 O    TRP E2015       0.119 -13.675 -23.637  1.00 21.31 LIG-0.65  OA
ATOM     34 OXT  TRP E2015       0.295 -11.581 -23.529  1.00 19.23 LIG-0.65  OA
ENDBRANCH 31 32
BRANCH 31 35
ATOM     35  CB  TRP E2015       0.502 -11.856 -26.464  1.00 21.64 LIG 0.08  C 
BRANCH 35 36
ATOM     36  CG  TRP E2015       1.081 -10.558 -27.023  1.00 22.27 LIG-0.03  A 
ATOM     37  CD2 TRP E2015       0.347  -9.348 -27.225  1.00 22.85 LIG-0.00  A 
ATOM     38  CE2 TRP E2015       1.249  -8.379 -27.730  1.00 23.44 LIG 0.04  A 
ATOM     39  CE3 TRP E2015      -0.996  -8.982 -27.012  1.00 23.10 LIG 0.01  A 
ATOM     40  CZ2 TRP E2015       0.842  -7.068 -28.043  1.00 22.82 LIG 0.03  A 
ATOM     41  NE1 TRP E2015       2.483  -8.973 -27.836  1.00 23.03 LIG-0.36  N 
ATOM     42  CH2 TRP E2015      -0.476  -6.742 -27.846  1.00 23.08 LIG 0.00  A 
ATOM     43  CZ3 TRP E2015      -1.397  -7.672 -27.334  1.00 24.27 LIG 0.00  A 
ATOM     44 HE1  TRP E2015       3.196  -8.595 -28.133  1.00 23.03 LIG 0.17  HD
ATOM     45  CD1 TRP E2015       2.389 -10.286 -27.385  1.00 22.46 LIG 0.10  A 
ENDBRANCH 35 36
ENDBRANCH 31 35
ENDBRANCH 29 31
ENDBRANCH 4 27
TORSDOF 14
ENDMDL
MODEL 12
USER: ADFR SOLUTION from run 136
USER: SCORE 12.350518 LL:  -3.337 LR:  -9.447 RR:   0.000 FEB:  -5.271
USER: RMSD 4.071342
USER: SEED 135
USER: STATUS no improvement in best in 13 clusters for 5 generations
USER: GENES 16
USER: genes 0 Translation |==|  0.36230 0.51969 0.42908
USER: genes 1 Rotation |==|  0.56002 0.48087 0.49954 0.99602
USER: genes 2 Torsion [N]-C--CA-[N] |==|  0.57078
USER: genes 3 Torsion [C]-CA--N-[C] |==|  0.53037
USER: genes 4 Torsion [N]-C--CA-[N] |==|  0.95716
USER: genes 5 Torsion [C]-CA--N-[C] |==|  0.76115
USER: genes 6 Torsion [N]-C--CA-[N] |==|  0.27981
USER: genes 7 Torsion [C]-CA--CB-[CG2] |==|  0.64147
USER: genes 8 Torsion [C]-CA--CB-[CG] |==|  0.93834
USER: genes 9 Torsion [CA]-CB--CG-[SD] |==|  0.71368
USER: genes 10 Torsion [CB]-CG--SD-[CE] |==|  0.38846
USER: genes 11 Torsion [N]-CA--C-[O] |==|  0.03043
USER: genes 12 Torsion [C]-N--CA-[C] |==|  0.09983
USER: genes 13 Torsion [N]-CA--C-[O] |==|  0.13983
USER: genes 14 Torsion [N]-CA--CB-[CG] |==|  0.94621
USER: genes 15 Torsion [CA]-CB--CG-[CD2] |==|  0.86800
ROOT
ATOM      1  C   GLY E2013      -1.694 -15.511 -29.360  1.00 21.81 LIG 0.24  C 
ATOM      2 O    GLY E2013      -1.310 -16.513 -28.736  1.00 22.84 LIG-0.27  OA
ATOM      3  N   PRO E2014      -0.988 -14.379 -29.408  1.00 21.64 LIG-0.34  N 
ATOM      4  CA  PRO E2014       0.343 -14.217 -28.815  1.00 21.53 LIG 0.18  C 
ATOM      5  CB  PRO E2014       0.897 -12.999 -29.562  1.00 21.78 LIG 0.04  C 
ATOM      6  CG  PRO E2014      -0.308 -12.197 -29.964  1.00 22.21 LIG 0.02  C 
ATOM      7  CD  PRO E2014      -1.438 -13.180 -30.140  1.00 21.52 LIG 0.13  C 
ENDROOT
BRANCH 1 8
ATOM      8  CA  GLY E2013      -3.006 -15.534 -30.134  1.00 23.09 LIG 0.23  C 
BRANCH 8 9
ATOM      9  N   GLY E2013      -3.891 -16.519 -29.516  1.00 25.21 LIG-0.35  N 
ATOM     10  C   MET E2012      -5.023 -16.916 -30.097  1.00 26.98 LIG 0.24  C 
ATOM     11 O    MET E2012      -5.508 -16.365 -31.096  1.00 24.85 LIG-0.27  OA
ATOM     12 H    GLY E2013      -3.616 -16.813 -28.757  1.00 25.21 LIG 0.16  HD
BRANCH 10 13
ATOM     13  CA  MET E2012      -5.687 -18.140 -29.477  1.00 29.83 LIG 0.18  C 
BRANCH 13 14
ATOM     14  N   MET E2012      -4.777 -18.865 -28.589  1.00 30.84 LIG-0.35  N 
ATOM     15  C   VAL E2011      -3.933 -19.789 -29.030  1.00 36.49 LIG 0.26  C 
ATOM     16 O    VAL E2011      -3.901 -20.164 -30.211  1.00 38.00 LIG-0.27  OA
ATOM     17 H    MET E2012      -4.841 -18.638 -27.762  1.00 30.84 LIG 0.16  HD
BRANCH 15 18
ATOM     18  CA  VAL E2011      -2.990 -20.390 -27.968  1.00 39.95 LIG 0.40  C 
ATOM     19  N   VAL E2011      -3.481 -21.730 -27.508  1.00 39.42 LIG 0.61  N 
BRANCH 18 20
ATOM     20  CB  VAL E2011      -1.513 -20.456 -28.462  1.00 43.12 LIG 0.03  C 
ATOM     21  CG2 VAL E2011      -0.946 -21.858 -28.255  1.00 41.73 LIG 0.01  C 
ATOM     22  CG1 VAL E2011      -0.626 -19.406 -27.789  1.00 40.75 LIG 0.01  C 
ENDBRANCH 18 20
ENDBRANCH 15 18
ENDBRANCH 13 14
BRANCH 13 23
ATOM     23  CB  MET E2012      -6.922 -17.648 -28.696  1.00 32.11 LIG 0.04  C 
BRANCH 23 24
ATOM     24  CG  MET E2012      -6.932 -16.179 -28.256  1.00 37.34 LIG 0.08  C 
BRANCH 24 25
ATOM     25 SD   MET E2012      -6.563 -15.904 -26.512  1.00 39.45 LIG-0.17  SA
ATOM     26  CE  MET E2012      -5.525 -14.438 -26.637  1.00 39.28 LIG 0.09  C 
ENDBRANCH 24 25
ENDBRANCH 23 24
ENDBRANCH 13 23
ENDBRANCH 10 13
ENDBRANCH 8 9
ENDBRANCH 1 8
BRANCH 4 27
ATOM     27  C   PRO E2014       0.319 -13.945 -27.296  1.00 21.57 LIG 0.24  C 
ATOM     28 O    PRO E2014      -0.746 -14.078 -26.625  1.00 21.05 LIG-0.27  OA
ATOM     29  N   TRP E2015       1.484 -13.584 -26.749  1.00 20.29 LIG-0.34  N 
ATOM     30 H    TRP E2015       2.197 -13.405 -27.195  1.00 20.29 LIG 0.16  HD
BRANCH 29 31
ATOM     31  CA  TRP E2015       1.618 -13.467 -25.293  1.00 20.70 LIG 0.19  C 
BRANCH 31 32
ATOM     32  C   TRP E2015       0.814 -14.507 -24.523  1.00 20.18 LIG 0.20  C 
ATOM     33 O    TRP E2015       0.869 -15.708 -24.773  1.00 21.31 LIG-0.65  OA
ATOM     34 OXT  TRP E2015       0.050 -14.138 -23.637  1.00 19.23 LIG-0.65  OA
ENDBRANCH 31 32
BRANCH 31 35
ATOM     35  CB  TRP E2015       1.170 -12.075 -24.822  1.00 21.64 LIG 0.08  C 
BRANCH 35 36
ATOM     36  CG  TRP E2015       1.129 -10.981 -25.887  1.00 22.27 LIG-0.03  A 
ATOM     37  CD2 TRP E2015       2.172 -10.705 -26.825  1.00 22.85 LIG-0.00  A 
ATOM     38  CE2 TRP E2015       1.735  -9.641 -27.651  1.00 23.44 LIG 0.04  A 
ATOM     39  CE3 TRP E2015       3.440 -11.272 -27.060  1.00 23.10 LIG 0.01  A 
ATOM     40  CZ2 TRP E2015       2.534  -9.118 -28.686  1.00 22.82 LIG 0.03  A 
ATOM     41  NE1 TRP E2015       0.479  -9.276 -27.232  1.00 23.03 LIG-0.36  N 
ATOM     42  CH2 TRP E2015       3.774  -9.673 -28.881  1.00 23.08 LIG 0.00  A 
ATOM     43  CZ3 TRP E2015       4.236 -10.740 -28.092  1.00 24.27 LIG 0.00  A 
ATOM     44 HE1  TRP E2015       0.005  -8.641 -27.565  1.00 23.03 LIG 0.17  HD
ATOM     45  CD1 TRP E2015       0.100 -10.103 -26.179  1.00 22.46 LIG 0.10  A 
ENDBRANCH 35 36
ENDBRANCH 31 35
ENDBRANCH 29 31
ENDBRANCH 4 27
TORSDOF 14
ENDMDL
MODEL 13
USER: ADFR SOLUTION from run 185
USER: SCORE 12.428600 LL:  -3.362 LR:  -9.405 RR:   0.000 FEB:  -5.228
USER: RMSD 4.552088
USER: SEED 184
USER: STATUS no improvement in best in 21 clusters for 5 generations
USER: GENES 16
USER: genes 0 Translation |==|  0.48991 0.44797 0.47358
USER: genes 1 Rotation |==|  0.44850 0.38391 0.28963 0.93545
USER: genes 2 Torsion [N]-C--CA-[N] |==|  0.53838
USER: genes 3 Torsion [C]-CA--N-[C] |==|  0.45372
USER: genes 4 Torsion [N]-C--CA-[N] |==|  0.96189
USER: genes 5 Torsion [C]-CA--N-[C] |==|  0.75385
USER: genes 6 Torsion [N]-C--CA-[N] |==|  0.80205
USER: genes 7 Torsion [C]-CA--CB-[CG2] |==|  0.49058
USER: genes 8 Torsion [C]-CA--CB-[CG] |==|  0.47893
USER: genes 9 Torsion [CA]-CB--CG-[SD] |==|  0.32406
USER: genes 10 Torsion [CB]-CG--SD-[CE] |==|  0.95980
USER: genes 11 Torsion [N]-CA--C-[O] |==|  0.60627
USER: genes 12 Torsion [C]-N--CA-[C] |==|  0.47331
USER: genes 13 Torsion [N]-CA--C-[O] |==|  0.95206
USER: genes 14 Torsion [N]-CA--CB-[CG] |==|  0.18821
USER: genes 15 Torsion [CA]-CB--CG-[CD2] |==|  0.23423
ROOT
ATOM      1  C   GLY E2013       0.316 -17.340 -28.593  1.00 21.81 LIG 0.24  C 
ATOM      2 O    GLY E2013      -0.351 -17.853 -27.680  1.00 22.84 LIG-0.27  OA
ATOM      3  N   PRO E2014       1.649 -17.273 -28.560  1.00 21.64 LIG-0.34  N 
ATOM      4  CA  PRO E2014       2.474 -17.868 -27.504  1.00 21.53 LIG 0.18  C 
ATOM      5  CB  PRO E2014       3.850 -17.969 -28.171  1.00 21.78 LIG 0.04  C 
ATOM      6  CG  PRO E2014       3.878 -16.870 -29.194  1.00 22.21 LIG 0.02  C 
ATOM      7  CD  PRO E2014       2.450 -16.657 -29.634  1.00 21.52 LIG 0.13  C 
ENDROOT
BRANCH 1 8
ATOM      8  CA  GLY E2013      -0.369 -16.768 -29.828  1.00 23.09 LIG 0.23  C 
BRANCH 8 9
ATOM      9  N   GLY E2013      -1.796 -16.628 -29.544  1.00 25.21 LIG-0.35  N 
ATOM     10  C   MET E2012      -2.594 -15.867 -30.291  1.00 26.98 LIG 0.24  C 
ATOM     11 O    MET E2012      -2.178 -15.085 -31.158  1.00 24.85 LIG-0.27  OA
ATOM     12 H    GLY E2013      -2.064 -17.076 -28.861  1.00 25.21 LIG 0.16  HD
BRANCH 10 13
ATOM     13  CA  MET E2012      -4.088 -16.042 -30.046  1.00 29.83 LIG 0.18  C 
BRANCH 13 14
ATOM     14  N   MET E2012      -4.377 -17.244 -29.262  1.00 30.84 LIG-0.35  N 
ATOM     15  C   VAL E2011      -4.576 -18.431 -29.820  1.00 36.49 LIG 0.26  C 
ATOM     16 O    VAL E2011      -4.609 -18.602 -31.047  1.00 38.00 LIG-0.27  OA
ATOM     17 H    MET E2012      -4.406 -17.109 -28.413  1.00 30.84 LIG 0.16  HD
BRANCH 15 18
ATOM     18  CA  VAL E2011      -4.784 -19.602 -28.838  1.00 39.95 LIG 0.40  C 
ATOM     19  N   VAL E2011      -3.505 -19.952 -28.138  1.00 39.42 LIG 0.61  N 
BRANCH 18 20
ATOM     20  CB  VAL E2011      -5.937 -19.324 -27.826  1.00 43.12 LIG 0.03  C 
ATOM     21  CG2 VAL E2011      -6.161 -20.540 -26.931  1.00 41.73 LIG 0.01  C 
ATOM     22  CG1 VAL E2011      -7.236 -18.913 -28.522  1.00 40.75 LIG 0.01  C 
ENDBRANCH 18 20
ENDBRANCH 15 18
ENDBRANCH 13 14
BRANCH 13 23
ATOM     23  CB  MET E2012      -4.585 -14.785 -29.305  1.00 32.11 LIG 0.04  C 
BRANCH 23 24
ATOM     24  CG  MET E2012      -6.099 -14.645 -29.104  1.00 37.34 LIG 0.08  C 
BRANCH 24 25
ATOM     25 SD   MET E2012      -6.642 -14.648 -27.383  1.00 39.45 LIG-0.17  SA
ATOM     26  CE  MET E2012      -5.151 -15.262 -26.583  1.00 39.28 LIG 0.09  C 
ENDBRANCH 24 25
ENDBRANCH 23 24
ENDBRANCH 13 23
ENDBRANCH 10 13
ENDBRANCH 8 9
ENDBRANCH 1 8
BRANCH 4 27
ATOM     27  C   PRO E2014       2.563 -17.010 -26.224  1.00 21.57 LIG 0.24  C 
ATOM     28 O    PRO E2014       3.643 -16.921 -25.570  1.00 21.05 LIG-0.27  OA
ATOM     29  N   TRP E2015       1.445 -16.366 -25.874  1.00 20.29 LIG-0.34  N 
ATOM     30 H    TRP E2015       0.680 -16.477 -26.252  1.00 20.29 LIG 0.16  HD
BRANCH 29 31
ATOM     31  CA  TRP E2015       1.459 -15.391 -24.779  1.00 20.70 LIG 0.19  C 
BRANCH 31 32
ATOM     32  C   TRP E2015       0.170 -14.587 -24.665  1.00 20.18 LIG 0.20  C 
ATOM     33 O    TRP E2015      -0.650 -14.513 -25.576  1.00 21.31 LIG-0.65  OA
ATOM     34 OXT  TRP E2015      -0.052 -13.953 -23.638  1.00 19.23 LIG-0.65  OA
ENDBRANCH 31 32
BRANCH 31 35
ATOM     35  CB  TRP E2015       2.622 -14.403 -24.953  1.00 21.64 LIG 0.08  C 
BRANCH 35 36
ATOM     36  CG  TRP E2015       2.525 -13.444 -26.137  1.00 22.27 LIG-0.03  A 
ATOM     37  CD2 TRP E2015       1.816 -12.203 -26.136  1.00 22.85 LIG-0.00  A 
ATOM     38  CE2 TRP E2015       1.993 -11.607 -27.410  1.00 23.44 LIG 0.04  A 
ATOM     39  CE3 TRP E2015       1.055 -11.522 -25.167  1.00 23.10 LIG 0.01  A 
ATOM     40  CZ2 TRP E2015       1.416 -10.367 -27.744  1.00 22.82 LIG 0.03  A 
ATOM     41  NE1 TRP E2015       2.773 -12.453 -28.161  1.00 23.03 LIG-0.36  N 
ATOM     42  CH2 TRP E2015       0.661  -9.734 -26.789  1.00 23.08 LIG 0.00  A 
ATOM     43  CZ3 TRP E2015       0.475 -10.286 -25.510  1.00 24.27 LIG 0.00  A 
ATOM     44 HE1  TRP E2015       3.009 -12.322 -28.977  1.00 23.03 LIG 0.17  HD
ATOM     45  CD1 TRP E2015       3.117 -13.554 -27.384  1.00 22.46 LIG 0.10  A 
ENDBRANCH 35 36
ENDBRANCH 31 35
ENDBRANCH 29 31
ENDBRANCH 4 27
TORSDOF 14
ENDMDL
MODEL 14
USER: ADFR SOLUTION from run 119
USER: SCORE 12.746228 LL:  -3.730 LR:  -9.367 RR:   0.000 FEB:  -5.191
USER: RMSD 3.537011
USER: SEED 118
USER: STATUS no improvement in best in 18 clusters for 5 generations
USER: GENES 16
USER: genes 0 Translation |==|  0.44648 0.53541 0.44966
USER: genes 1 Rotation |==|  0.53812 0.50421 0.42967 0.99354
USER: genes 2 Torsion [N]-C--CA-[N] |==|  0.46679
USER: genes 3 Torsion [C]-CA--N-[C] |==|  0.63241
USER: genes 4 Torsion [N]-C--CA-[N] |==|  0.94745
USER: genes 5 Torsion [C]-CA--N-[C] |==|  0.80025
USER: genes 6 Torsion [N]-C--CA-[N] |==|  0.25185
USER: genes 7 Torsion [C]-CA--CB-[CG2] |==|  0.65994
USER: genes 8 Torsion [C]-CA--CB-[CG] |==|  0.93526
USER: genes 9 Torsion [CA]-CB--CG-[SD] |==|  0.69961
USER: genes 10 Torsion [CB]-CG--SD-[CE] |==|  0.34592
USER: genes 11 Torsion [N]-CA--C-[O] |==|  0.49814
USER: genes 12 Torsion [C]-N--CA-[C] |==|  0.65607
USER: genes 13 Torsion [N]-CA--C-[O] |==|  0.07312
USER: genes 14 Torsion [N]-CA--CB-[CG] |==|  0.87462
USER: genes 15 Torsion [CA]-CB--CG-[CD2] |==|  0.41432
ROOT
ATOM      1  C   GLY E2013      -0.368 -15.110 -29.005  1.00 21.81 LIG 0.24  C 
ATOM      2 O    GLY E2013      -0.179 -16.141 -28.340  1.00 22.84 LIG-0.27  OA
ATOM      3  N   PRO E2014       0.597 -14.216 -29.237  1.00 21.64 LIG-0.34  N 
ATOM      4  CA  PRO E2014       1.991 -14.387 -28.816  1.00 21.53 LIG 0.18  C 
ATOM      5  CB  PRO E2014       2.738 -13.410 -29.730  1.00 21.78 LIG 0.04  C 
ATOM      6  CG  PRO E2014       1.742 -12.336 -30.062  1.00 22.21 LIG 0.02  C 
ATOM      7  CD  PRO E2014       0.381 -12.984 -30.018  1.00 21.52 LIG 0.13  C 
ENDROOT
BRANCH 1 8
ATOM      8  CA  GLY E2013      -1.733 -14.821 -29.619  1.00 23.09 LIG 0.23  C 
BRANCH 8 9
ATOM      9  N   GLY E2013      -2.557 -16.022 -29.504  1.00 25.21 LIG-0.35  N 
ATOM     10  C   MET E2012      -3.252 -16.504 -30.533  1.00 26.98 LIG 0.24  C 
ATOM     11 O    MET E2012      -3.405 -15.893 -31.600  1.00 24.85 LIG-0.27  OA
ATOM     12 H    GLY E2013      -2.549 -16.381 -28.723  1.00 25.21 LIG 0.16  HD
BRANCH 10 13
ATOM     13  CA  MET E2012      -3.828 -17.902 -30.342  1.00 29.83 LIG 0.18  C 
BRANCH 13 14
ATOM     14  N   MET E2012      -3.156 -18.628 -29.262  1.00 30.84 LIG-0.35  N 
ATOM     15  C   VAL E2011      -1.919 -19.094 -29.375  1.00 36.49 LIG 0.26  C 
ATOM     16 O    VAL E2011      -1.265 -19.020 -30.425  1.00 38.00 LIG-0.27  OA
ATOM     17 H    MET E2012      -3.635 -18.723 -28.554  1.00 30.84 LIG 0.16  HD
BRANCH 15 18
ATOM     18  CA  VAL E2011      -1.340 -19.758 -28.110  1.00 39.95 LIG 0.40  C 
ATOM     19  N   VAL E2011      -1.627 -21.230 -28.094  1.00 39.42 LIG 0.61  N 
BRANCH 18 20
ATOM     20  CB  VAL E2011       0.182 -19.466 -27.936  1.00 43.12 LIG 0.03  C 
ATOM     21  CG2 VAL E2011       0.969 -20.773 -27.872  1.00 41.73 LIG 0.01  C 
ATOM     22  CG1 VAL E2011       0.472 -18.597 -26.711  1.00 40.75 LIG 0.01  C 
ENDBRANCH 18 20
ENDBRANCH 15 18
ENDBRANCH 13 14
BRANCH 13 23
ATOM     23  CB  MET E2012      -5.329 -17.743 -30.029  1.00 32.11 LIG 0.04  C 
BRANCH 23 24
ATOM     24  CG  MET E2012      -5.783 -16.400 -29.445  1.00 37.34 LIG 0.08  C 
BRANCH 24 25
ATOM     25 SD   MET E2012      -6.246 -16.445 -27.702  1.00 39.45 LIG-0.17  SA
ATOM     26  CE  MET E2012      -5.157 -15.167 -27.053  1.00 39.28 LIG 0.09  C 
ENDBRANCH 24 25
ENDBRANCH 23 24
ENDBRANCH 13 23
ENDBRANCH 10 13
ENDBRANCH 8 9
ENDBRANCH 1 8
BRANCH 4 27
ATOM     27  C   PRO E2014       2.243 -14.033 -27.335  1.00 21.57 LIG 0.24  C 
ATOM     28 O    PRO E2014       3.396 -14.143 -26.824  1.00 21.05 LIG-0.27  OA
ATOM     29  N   TRP E2015       1.183 -13.593 -26.651  1.00 20.29 LIG-0.34  N 
ATOM     30 H    TRP E2015       0.376 -13.591 -26.951  1.00 20.29 LIG 0.16  HD
BRANCH 29 31
ATOM     31  CA  TRP E2015       1.339 -13.068 -25.291  1.00 20.70 LIG 0.19  C 
BRANCH 31 32
ATOM     32  C   TRP E2015       0.475 -13.783 -24.260  1.00 20.18 LIG 0.20  C 
ATOM     33 O    TRP E2015       0.100 -14.944 -24.398  1.00 21.31 LIG-0.65  OA
ATOM     34 OXT  TRP E2015       0.101 -13.172 -23.264  1.00 19.23 LIG-0.65  OA
ENDBRANCH 31 32
BRANCH 31 35
ATOM     35  CB  TRP E2015       0.991 -11.572 -25.249  1.00 21.64 LIG 0.08  C 
BRANCH 35 36
ATOM     36  CG  TRP E2015       1.571 -10.711 -26.369  1.00 22.27 LIG-0.03  A 
ATOM     37  CD2 TRP E2015       0.954  -9.540 -26.911  1.00 22.85 LIG-0.00  A 
ATOM     38  CE2 TRP E2015       1.820  -9.021 -27.905  1.00 23.44 LIG 0.04  A 
ATOM     39  CE3 TRP E2015      -0.252  -8.865 -26.639  1.00 23.10 LIG 0.01  A 
ATOM     40  CZ2 TRP E2015       1.506  -7.864 -28.643  1.00 22.82 LIG 0.03  A 
ATOM     41  NE1 TRP E2015       2.918  -9.844 -27.972  1.00 23.03 LIG-0.36  N 
ATOM     42  CH2 TRP E2015       0.316  -7.236 -28.374  1.00 23.08 LIG 0.00  A 
ATOM     43  CZ3 TRP E2015      -0.562  -7.713 -27.385  1.00 24.27 LIG 0.00  A 
ATOM     44 HE1  TRP E2015       3.582  -9.749 -28.511  1.00 23.03 LIG 0.17  HD
ATOM     45  CD1 TRP E2015       2.781 -10.853 -27.025  1.00 22.46 LIG 0.10  A 
ENDBRANCH 35 36
ENDBRANCH 31 35
ENDBRANCH 29 31
ENDBRANCH 4 27
TORSDOF 14
ENDMDL
MODEL 15
USER: ADFR SOLUTION from run 71
USER: SCORE 12.330672 LL:  -4.060 LR:  -9.304 RR:   0.000 FEB:  -5.128
USER: RMSD 4.516866
USER: SEED 70
USER: STATUS no improvement in best in 13 clusters for 5 generations
USER: GENES 16
USER: genes 0 Translation |==|  0.43772 0.52074 0.53743
USER: genes 1 Rotation |==|  0.31004 0.33969 0.19431 0.80785
USER: genes 2 Torsion [N]-C--CA-[N] |==|  0.33376
USER: genes 3 Torsion [C]-CA--N-[C] |==|  0.50711
USER: genes 4 Torsion [N]-C--CA-[N] |==|  0.92067
USER: genes 5 Torsion [C]-CA--N-[C] |==|  0.69975
USER: genes 6 Torsion [N]-C--CA-[N] |==|  0.80415
USER: genes 7 Torsion [C]-CA--CB-[CG2] |==|  0.50239
USER: genes 8 Torsion [C]-CA--CB-[CG] |==|  0.89630
USER: genes 9 Torsion [CA]-CB--CG-[SD] |==|  0.66542
USER: genes 10 Torsion [CB]-CG--SD-[CE] |==|  0.33847
USER: genes 11 Torsion [N]-CA--C-[O] |==|  0.65517
USER: genes 12 Torsion [C]-N--CA-[C] |==|  0.56200
USER: genes 13 Torsion [N]-CA--C-[O] |==|  0.62980
USER: genes 14 Torsion [N]-CA--CB-[CG] |==|  0.07262
USER: genes 15 Torsion [CA]-CB--CG-[CD2] |==|  0.21729
ROOT
ATOM      1  C   GLY E2013      -0.506 -15.484 -27.491  1.00 21.81 LIG 0.24  C 
ATOM      2 O    GLY E2013      -1.253 -14.979 -26.638  1.00 22.84 LIG-0.27  OA
ATOM      3  N   PRO E2014       0.580 -16.192 -27.169  1.00 21.64 LIG-0.34  N 
ATOM      4  CA  PRO E2014       0.962 -16.526 -25.794  1.00 21.53 LIG 0.18  C 
ATOM      5  CB  PRO E2014       1.908 -17.716 -25.990  1.00 21.78 LIG 0.04  C 
ATOM      6  CG  PRO E2014       2.505 -17.529 -27.354  1.00 22.21 LIG 0.02  C 
ATOM      7  CD  PRO E2014       1.478 -16.789 -28.175  1.00 21.52 LIG 0.13  C 
ENDROOT
BRANCH 1 8
ATOM      8  CA  GLY E2013      -0.811 -15.335 -28.977  1.00 23.09 LIG 0.23  C 
BRANCH 8 9
ATOM      9  N   GLY E2013      -2.129 -15.909 -29.239  1.00 25.21 LIG-0.35  N 
ATOM     10  C   MET E2012      -2.644 -15.967 -30.466  1.00 26.98 LIG 0.24  C 
ATOM     11 O    MET E2012      -2.146 -15.390 -31.444  1.00 24.85 LIG-0.27  OA
ATOM     12 H    GLY E2013      -2.532 -16.201 -28.538  1.00 25.21 LIG 0.16  HD
BRANCH 10 13
ATOM     13  CA  MET E2012      -3.885 -16.838 -30.619  1.00 29.83 LIG 0.18  C 
BRANCH 13 14
ATOM     14  N   MET E2012      -3.910 -17.932 -29.647  1.00 30.84 LIG-0.35  N 
ATOM     15  C   VAL E2011      -3.703 -19.197 -29.988  1.00 36.49 LIG 0.26  C 
ATOM     16 O    VAL E2011      -3.551 -19.562 -31.163  1.00 38.00 LIG-0.27  OA
ATOM     17 H    MET E2012      -4.069 -17.679 -28.840  1.00 30.84 LIG 0.16  HD
BRANCH 15 18
ATOM     18  CA  VAL E2011      -3.681 -20.206 -28.822  1.00 39.95 LIG 0.40  C 
ATOM     19  N   VAL E2011      -2.450 -20.034 -27.984  1.00 39.42 LIG 0.61  N 
BRANCH 18 20
ATOM     20  CB  VAL E2011      -4.979 -20.140 -27.961  1.00 43.12 LIG 0.03  C 
ATOM     21  CG2 VAL E2011      -4.903 -21.139 -26.809  1.00 41.73 LIG 0.01  C 
ATOM     22  CG1 VAL E2011      -6.243 -20.364 -28.794  1.00 40.75 LIG 0.01  C 
ENDBRANCH 18 20
ENDBRANCH 15 18
ENDBRANCH 13 14
BRANCH 13 23
ATOM     23  CB  MET E2012      -5.115 -15.926 -30.433  1.00 32.11 LIG 0.04  C 
BRANCH 23 24
ATOM     24  CG  MET E2012      -5.008 -14.817 -29.380  1.00 37.34 LIG 0.08  C 
BRANCH 24 25
ATOM     25 SD   MET E2012      -6.231 -14.902 -28.056  1.00 39.45 LIG-0.17  SA
ATOM     26  CE  MET E2012      -5.142 -15.008 -26.627  1.00 39.28 LIG 0.09  C 
ENDBRANCH 24 25
ENDBRANCH 23 24
ENDBRANCH 13 23
ENDBRANCH 10 13
ENDBRANCH 8 9
ENDBRANCH 1 8
BRANCH 4 27
ATOM     27  C   PRO E2014       1.688 -15.383 -25.054  1.00 21.57 LIG 0.24  C 
ATOM     28 O    PRO E2014       2.832 -15.560 -24.540  1.00 21.05 LIG-0.27  OA
ATOM     29  N   TRP E2015       1.044 -14.213 -25.011  1.00 20.29 LIG-0.34  N 
ATOM     30 H    TRP E2015       0.235 -14.092 -25.277  1.00 20.29 LIG 0.16  HD
BRANCH 29 31
ATOM     31  CA  TRP E2015       1.708 -13.015 -24.486  1.00 20.70 LIG 0.19  C 
BRANCH 31 32
ATOM     32  C   TRP E2015       0.738 -11.943 -24.007  1.00 20.18 LIG 0.20  C 
ATOM     33 O    TRP E2015       0.856 -10.758 -24.306  1.00 21.31 LIG-0.65  OA
ATOM     34 OXT  TRP E2015      -0.184 -12.259 -23.262  1.00 19.23 LIG-0.65  OA
ENDBRANCH 31 32
BRANCH 31 35
ATOM     35  CB  TRP E2015       2.617 -12.392 -25.556  1.00 21.64 LIG 0.08  C 
BRANCH 35 36
ATOM     36  CG  TRP E2015       2.235 -12.662 -27.010  1.00 22.27 LIG-0.03  A 
ATOM     37  CD2 TRP E2015       1.191 -11.996 -27.725  1.00 22.85 LIG-0.00  A 
ATOM     38  CE2 TRP E2015       1.177 -12.513 -29.044  1.00 23.44 LIG 0.04  A 
ATOM     39  CE3 TRP E2015       0.267 -10.991 -27.379  1.00 23.10 LIG 0.01  A 
ATOM     40  CZ2 TRP E2015       0.259 -12.069 -30.014  1.00 22.82 LIG 0.03  A 
ATOM     41  NE1 TRP E2015       2.168 -13.460 -29.130  1.00 23.03 LIG-0.36  N 
ATOM     42  CH2 TRP E2015      -0.645 -11.104 -29.646  1.00 23.08 LIG 0.00  A 
ATOM     43  CZ3 TRP E2015      -0.653 -10.557 -28.351  1.00 24.27 LIG 0.00  A 
ATOM     44 HE1  TRP E2015       2.352 -13.930 -29.827  1.00 23.03 LIG 0.17  HD
ATOM     45  CD1 TRP E2015       2.826 -13.535 -27.907  1.00 22.46 LIG 0.10  A 
ENDBRANCH 35 36
ENDBRANCH 31 35
ENDBRANCH 29 31
ENDBRANCH 4 27
TORSDOF 14
ENDMDL
MODEL 16
USER: ADFR SOLUTION from run 90
USER: SCORE 12.010823 LL:  -3.683 LR:  -9.286 RR:   0.000 FEB:  -5.110
USER: RMSD 3.646374
USER: SEED 89
USER: STATUS no improvement in best in 17 clusters for 5 generations
USER: GENES 16
USER: genes 0 Translation |==|  0.42358 0.53087 0.52045
USER: genes 1 Rotation |==|  0.32899 0.42300 0.27597 0.90576
USER: genes 2 Torsion [N]-C--CA-[N] |==|  0.26526
USER: genes 3 Torsion [C]-CA--N-[C] |==|  0.70104
USER: genes 4 Torsion [N]-C--CA-[N] |==|  0.89143
USER: genes 5 Torsion [C]-CA--N-[C] |==|  0.77305
USER: genes 6 Torsion [N]-C--CA-[N] |==|  0.22139
USER: genes 7 Torsion [C]-CA--CB-[CG2] |==|  0.48850
USER: genes 8 Torsion [C]-CA--CB-[CG] |==|  0.48461
USER: genes 9 Torsion [CA]-CB--CG-[SD] |==|  0.90066
USER: genes 10 Torsion [CB]-CG--SD-[CE] |==|  0.28830
USER: genes 11 Torsion [N]-CA--C-[O] |==|  0.67239
USER: genes 12 Torsion [C]-N--CA-[C] |==|  0.52653
USER: genes 13 Torsion [N]-CA--C-[O] |==|  0.09078
USER: genes 14 Torsion [N]-CA--CB-[CG] |==|  0.15413
USER: genes 15 Torsion [CA]-CB--CG-[CD2] |==|  0.35063
ROOT
ATOM      1  C   GLY E2013      -0.729 -15.226 -27.784  1.00 21.81 LIG 0.24  C 
ATOM      2 O    GLY E2013      -1.128 -15.237 -26.609  1.00 22.84 LIG-0.27  OA
ATOM      3  N   PRO E2014       0.531 -15.515 -28.119  1.00 21.64 LIG-0.34  N 
ATOM      4  CA  PRO E2014       1.551 -15.960 -27.165  1.00 21.53 LIG 0.18  C 
ATOM      5  CB  PRO E2014       2.590 -16.627 -28.072  1.00 21.78 LIG 0.04  C 
ATOM      6  CG  PRO E2014       2.455 -15.942 -29.402  1.00 22.21 LIG 0.02  C 
ATOM      7  CD  PRO E2014       1.018 -15.496 -29.511  1.00 21.52 LIG 0.13  C 
ENDROOT
BRANCH 1 8
ATOM      8  CA  GLY E2013      -1.682 -14.894 -28.926  1.00 23.09 LIG 0.23  C 
BRANCH 8 9
ATOM      9  N   GLY E2013      -2.406 -16.109 -29.293  1.00 25.21 LIG-0.35  N 
ATOM     10  C   MET E2012      -2.156 -16.766 -30.425  1.00 26.98 LIG 0.24  C 
ATOM     11 O    MET E2012      -1.438 -16.318 -31.331  1.00 24.85 LIG-0.27  OA
ATOM     12 H    GLY E2013      -2.997 -16.355 -28.719  1.00 25.21 LIG 0.16  HD
BRANCH 10 13
ATOM     13  CA  MET E2012      -2.781 -18.152 -30.534  1.00 29.83 LIG 0.18  C 
BRANCH 13 14
ATOM     14  N   MET E2012      -2.732 -18.876 -29.262  1.00 30.84 LIG-0.35  N 
ATOM     15  C   VAL E2011      -1.651 -19.525 -28.851  1.00 36.49 LIG 0.26  C 
ATOM     16 O    VAL E2011      -0.627 -19.635 -29.541  1.00 38.00 LIG-0.27  OA
ATOM     17 H    MET E2012      -3.463 -18.841 -28.811  1.00 30.84 LIG 0.16  HD
BRANCH 15 18
ATOM     18  CA  VAL E2011      -1.748 -20.160 -27.449  1.00 39.95 LIG 0.40  C 
ATOM     19  N   VAL E2011      -2.500 -21.456 -27.495  1.00 39.42 LIG 0.61  N 
BRANCH 18 20
ATOM     20  CB  VAL E2011      -0.350 -20.329 -26.780  1.00 43.12 LIG 0.03  C 
ATOM     21  CG2 VAL E2011      -0.503 -20.864 -25.359  1.00 41.73 LIG 0.01  C 
ATOM     22  CG1 VAL E2011       0.460 -19.030 -26.788  1.00 40.75 LIG 0.01  C 
ENDBRANCH 18 20
ENDBRANCH 15 18
ENDBRANCH 13 14
BRANCH 13 23
ATOM     23  CB  MET E2012      -4.243 -17.964 -30.988  1.00 32.11 LIG 0.04  C 
BRANCH 23 24
ATOM     24  CG  MET E2012      -5.047 -19.233 -31.296  1.00 37.34 LIG 0.08  C 
BRANCH 24 25
ATOM     25 SD   MET E2012      -4.102 -20.568 -32.056  1.00 39.45 LIG-0.17  SA
ATOM     26  CE  MET E2012      -3.904 -21.661 -30.640  1.00 39.28 LIG 0.09  C 
ENDBRANCH 24 25
ENDBRANCH 23 24
ENDBRANCH 13 23
ENDBRANCH 10 13
ENDBRANCH 8 9
ENDBRANCH 1 8
BRANCH 4 27
ATOM     27  C   PRO E2014       2.201 -14.811 -26.365  1.00 21.57 LIG 0.24  C 
ATOM     28 O    PRO E2014       3.440 -14.569 -26.457  1.00 21.05 LIG-0.27  OA
ATOM     29  N   TRP E2015       1.374 -14.093 -25.598  1.00 20.29 LIG-0.34  N 
ATOM     30 H    TRP E2015       0.549 -14.290 -25.454  1.00 20.29 LIG 0.16  HD
BRANCH 29 31
ATOM     31  CA  TRP E2015       1.846 -12.877 -24.930  1.00 20.70 LIG 0.19  C 
BRANCH 31 32
ATOM     32  C   TRP E2015       0.853 -12.313 -23.921  1.00 20.18 LIG 0.20  C 
ATOM     33 O    TRP E2015       0.100 -13.024 -23.262  1.00 21.31 LIG-0.65  OA
ATOM     34 OXT  TRP E2015       0.768 -11.098 -23.779  1.00 19.23 LIG-0.65  OA
ENDBRANCH 31 32
BRANCH 31 35
ATOM     35  CB  TRP E2015       2.151 -11.780 -25.961  1.00 21.64 LIG 0.08  C 
BRANCH 35 36
ATOM     36  CG  TRP E2015       1.013 -11.408 -26.909  1.00 22.27 LIG-0.03  A 
ATOM     37  CD2 TRP E2015       0.512 -10.085 -27.116  1.00 22.85 LIG-0.00  A 
ATOM     38  CE2 TRP E2015      -0.517 -10.163 -28.086  1.00 23.44 LIG 0.04  A 
ATOM     39  CE3 TRP E2015       0.849  -8.826 -26.581  1.00 23.10 LIG 0.01  A 
ATOM     40  CZ2 TRP E2015      -1.228  -9.026 -28.518  1.00 22.82 LIG 0.03  A 
ATOM     41  NE1 TRP E2015      -0.645 -11.480 -28.453  1.00 23.03 LIG-0.36  N 
ATOM     42  CH2 TRP E2015      -0.896  -7.815 -27.966  1.00 23.08 LIG 0.00  A 
ATOM     43  CZ3 TRP E2015       0.130  -7.696 -27.012  1.00 24.27 LIG 0.00  A 
ATOM     44 HE1  TRP E2015      -1.214 -11.789 -29.019  1.00 23.03 LIG 0.17  HD
ATOM     45  CD1 TRP E2015       0.298 -12.232 -27.760  1.00 22.46 LIG 0.10  A 
ENDBRANCH 35 36
ENDBRANCH 31 35
ENDBRANCH 29 31
ENDBRANCH 4 27
TORSDOF 14
ENDMDL
MODEL 17
USER: ADFR SOLUTION from run 46
USER: SCORE 11.704635 LL:  -3.462 LR:  -9.269 RR:   0.000 FEB:  -5.093
USER: RMSD 3.063850
USER: SEED 45
USER: STATUS no improvement in best in 15 clusters for 5 generations
USER: GENES 16
USER: genes 0 Translation |==|  0.53709 0.48582 0.44989
USER: genes 1 Rotation |==|  0.56001 0.56178 0.63298 0.97424
USER: genes 2 Torsion [N]-C--CA-[N] |==|  0.65534
USER: genes 3 Torsion [C]-CA--N-[C] |==|  0.74157
USER: genes 4 Torsion [N]-C--CA-[N] |==|  0.27092
USER: genes 5 Torsion [C]-CA--N-[C] |==|  0.53889
USER: genes 6 Torsion [N]-C--CA-[N] |==|  0.79522
USER: genes 7 Torsion [C]-CA--CB-[CG2] |==|  0.10980
USER: genes 8 Torsion [C]-CA--CB-[CG] |==|  0.24625
USER: genes 9 Torsion [CA]-CB--CG-[SD] |==|  0.07421
USER: genes 10 Torsion [CB]-CG--SD-[CE] |==|  0.66739
USER: genes 11 Torsion [N]-CA--C-[O] |==|  0.37503
USER: genes 12 Torsion [C]-N--CA-[C] |==|  0.65392
USER: genes 13 Torsion [N]-CA--C-[O] |==|  0.04357
USER: genes 14 Torsion [N]-CA--CB-[CG] |==|  0.88141
USER: genes 15 Torsion [CA]-CB--CG-[CD2] |==|  0.41165
ROOT
ATOM      1  C   GLY E2013       1.059 -16.375 -29.001  1.00 21.81 LIG 0.24  C 
ATOM      2 O    GLY E2013       2.060 -16.957 -28.554  1.00 22.84 LIG-0.27  OA
ATOM      3  N   PRO E2014       1.004 -15.049 -29.149  1.00 21.64 LIG-0.34  N 
ATOM      4  CA  PRO E2014       2.131 -14.147 -28.889  1.00 21.53 LIG 0.18  C 
ATOM      5  CB  PRO E2014       1.740 -12.889 -29.671  1.00 21.78 LIG 0.04  C 
ATOM      6  CG  PRO E2014       0.240 -12.898 -29.715  1.00 22.21 LIG 0.02  C 
ATOM      7  CD  PRO E2014      -0.182 -14.346 -29.671  1.00 21.52 LIG 0.13  C 
ENDROOT
BRANCH 1 8
ATOM      8  CA  GLY E2013      -0.171 -17.164 -29.432  1.00 23.09 LIG 0.23  C 
BRANCH 8 9
ATOM      9  N   GLY E2013      -0.628 -17.965 -28.298  1.00 25.21 LIG-0.35  N 
ATOM     10  C   MET E2012      -0.232 -19.224 -28.116  1.00 26.98 LIG 0.24  C 
ATOM     11 O    MET E2012       0.396 -19.872 -28.966  1.00 24.85 LIG-0.27  OA
ATOM     12 H    GLY E2013      -1.167 -17.553 -27.770  1.00 25.21 LIG 0.16  HD
BRANCH 10 13
ATOM     13  CA  MET E2012      -0.562 -19.828 -26.757  1.00 29.83 LIG 0.18  C 
BRANCH 13 14
ATOM     14  N   MET E2012      -1.781 -20.638 -26.799  1.00 30.84 LIG-0.35  N 
ATOM     15  C   VAL E2011      -2.412 -21.037 -25.702  1.00 36.49 LIG 0.26  C 
ATOM     16 O    VAL E2011      -1.981 -20.823 -24.560  1.00 38.00 LIG-0.27  OA
ATOM     17 H    MET E2012      -2.046 -20.829 -27.594  1.00 30.84 LIG 0.16  HD
BRANCH 15 18
ATOM     18  CA  VAL E2011      -3.726 -21.810 -25.935  1.00 39.95 LIG 0.40  C 
ATOM     19  N   VAL E2011      -4.823 -20.888 -26.378  1.00 39.42 LIG 0.61  N 
BRANCH 18 20
ATOM     20  CB  VAL E2011      -3.541 -23.002 -26.923  1.00 43.12 LIG 0.03  C 
ATOM     21  CG2 VAL E2011      -2.210 -23.703 -26.665  1.00 41.73 LIG 0.01  C 
ATOM     22  CG1 VAL E2011      -3.654 -22.568 -28.387  1.00 40.75 LIG 0.01  C 
ENDBRANCH 18 20
ENDBRANCH 15 18
ENDBRANCH 13 14
BRANCH 13 23
ATOM     23  CB  MET E2012       0.643 -20.693 -26.331  1.00 32.11 LIG 0.04  C 
BRANCH 23 24
ATOM     24  CG  MET E2012       1.762 -19.995 -25.550  1.00 37.34 LIG 0.08  C 
BRANCH 24 25
ATOM     25 SD   MET E2012       1.243 -18.551 -24.601  1.00 39.45 LIG-0.17  SA
ATOM     26  CE  MET E2012       2.265 -17.284 -25.371  1.00 39.28 LIG 0.09  C 
ENDBRANCH 24 25
ENDBRANCH 23 24
ENDBRANCH 13 23
ENDBRANCH 10 13
ENDBRANCH 8 9
ENDBRANCH 1 8
BRANCH 4 27
ATOM     27  C   PRO E2014       2.327 -13.809 -27.396  1.00 21.57 LIG 0.24  C 
ATOM     28 O    PRO E2014       3.477 -13.829 -26.866  1.00 21.05 LIG-0.27  OA
ATOM     29  N   TRP E2015       1.220 -13.483 -26.721  1.00 20.29 LIG-0.34  N 
ATOM     30 H    TRP E2015       0.422 -13.544 -27.035  1.00 20.29 LIG 0.16  HD
BRANCH 29 31
ATOM     31  CA  TRP E2015       1.307 -12.979 -25.346  1.00 20.70 LIG 0.19  C 
BRANCH 31 32
ATOM     32  C   TRP E2015       0.478 -13.783 -24.352  1.00 20.18 LIG 0.20  C 
ATOM     33 O    TRP E2015       0.036 -14.900 -24.605  1.00 21.31 LIG-0.65  OA
ATOM     34 OXT  TRP E2015       0.204 -13.288 -23.263  1.00 19.23 LIG-0.65  OA
ENDBRANCH 31 32
BRANCH 31 35
ATOM     35  CB  TRP E2015       0.844 -11.516 -25.279  1.00 21.64 LIG 0.08  C 
BRANCH 35 36
ATOM     36  CG  TRP E2015       1.333 -10.600 -26.399  1.00 22.27 LIG-0.03  A 
ATOM     37  CD2 TRP E2015       0.609  -9.487 -26.928  1.00 22.85 LIG-0.00  A 
ATOM     38  CE2 TRP E2015       1.415  -8.887 -27.927  1.00 23.44 LIG 0.04  A 
ATOM     39  CE3 TRP E2015      -0.650  -8.925 -26.641  1.00 23.10 LIG 0.01  A 
ATOM     40  CZ2 TRP E2015       0.991  -7.758 -28.655  1.00 22.82 LIG 0.03  A 
ATOM     41  NE1 TRP E2015       2.582  -9.606 -28.008  1.00 23.03 LIG-0.36  N 
ATOM     42  CH2 TRP E2015      -0.248  -7.242 -28.371  1.00 23.08 LIG 0.00  A 
ATOM     43  CZ3 TRP E2015      -1.071  -7.801 -27.377  1.00 24.27 LIG 0.00  A 
ATOM     44 HE1  TRP E2015       3.230  -9.449 -28.552  1.00 23.03 LIG 0.17  HD
ATOM     45  CD1 TRP E2015       2.545 -10.629 -27.066  1.00 22.46 LIG 0.10  A 
ENDBRANCH 35 36
ENDBRANCH 31 35
ENDBRANCH 29 31
ENDBRANCH 4 27
TORSDOF 14
ENDMDL
MODEL 18
USER: ADFR SOLUTION from run 49
USER: SCORE 11.539096 LL:  -2.776 LR:  -9.238 RR:   0.000 FEB:  -5.062
USER: RMSD 4.017653
USER: SEED 48
USER: STATUS no improvement in best in 24 clusters for 5 generations
USER: GENES 16
USER: genes 0 Translation |==|  0.52111 0.46607 0.53235
USER: genes 1 Rotation |==|  0.41177 0.33297 0.33016 0.93067
USER: genes 2 Torsion [N]-C--CA-[N] |==|  0.42778
USER: genes 3 Torsion [C]-CA--N-[C] |==|  0.69134
USER: genes 4 Torsion [N]-C--CA-[N] |==|  0.09032
USER: genes 5 Torsion [C]-CA--N-[C] |==|  0.17769
USER: genes 6 Torsion [N]-C--CA-[N] |==|  0.00429
USER: genes 7 Torsion [C]-CA--CB-[CG2] |==|  0.21209
USER: genes 8 Torsion [C]-CA--CB-[CG] |==|  0.33931
USER: genes 9 Torsion [CA]-CB--CG-[SD] |==|  0.97234
USER: genes 10 Torsion [CB]-CG--SD-[CE] |==|  0.33476
USER: genes 11 Torsion [N]-CA--C-[O] |==|  0.46517
USER: genes 12 Torsion [C]-N--CA-[C] |==|  0.73898
USER: genes 13 Torsion [N]-CA--C-[O] |==|  0.06443
USER: genes 14 Torsion [N]-CA--CB-[CG] |==|  0.17499
USER: genes 15 Torsion [CA]-CB--CG-[CD2] |==|  0.37882
ROOT
ATOM      1  C   GLY E2013       0.807 -16.878 -27.579  1.00 21.81 LIG 0.24  C 
ATOM      2 O    GLY E2013       0.096 -17.237 -26.627  1.00 22.84 LIG-0.27  OA
ATOM      3  N   PRO E2014       2.113 -16.631 -27.448  1.00 21.64 LIG-0.34  N 
ATOM      4  CA  PRO E2014       2.866 -16.835 -26.207  1.00 21.53 LIG 0.18  C 
ATOM      5  CB  PRO E2014       4.314 -16.914 -26.704  1.00 21.78 LIG 0.04  C 
ATOM      6  CG  PRO E2014       4.345 -16.105 -27.968  1.00 22.21 LIG 0.02  C 
ATOM      7  CD  PRO E2014       2.965 -16.196 -28.570  1.00 21.52 LIG 0.13  C 
ENDROOT
BRANCH 1 8
ATOM      8  CA  GLY E2013       0.216 -16.721 -28.974  1.00 23.09 LIG 0.23  C 
BRANCH 8 9
ATOM      9  N   GLY E2013      -0.962 -17.580 -29.078  1.00 25.21 LIG-0.35  N 
ATOM     10  C   MET E2012      -0.983 -18.660 -29.857  1.00 26.98 LIG 0.24  C 
ATOM     11 O    MET E2012      -0.096 -18.925 -30.682  1.00 24.85 LIG-0.27  OA
ATOM     12 H    GLY E2013      -1.627 -17.325 -28.597  1.00 25.21 LIG 0.16  HD
BRANCH 10 13
ATOM     13  CA  MET E2012      -2.163 -19.601 -29.646  1.00 29.83 LIG 0.18  C 
BRANCH 13 14
ATOM     14  N   MET E2012      -3.375 -18.880 -29.252  1.00 30.84 LIG-0.35  N 
ATOM     15  C   VAL E2011      -3.974 -18.003 -30.046  1.00 36.49 LIG 0.26  C 
ATOM     16 O    VAL E2011      -3.516 -17.668 -31.148  1.00 38.00 LIG-0.27  OA
ATOM     17 H    MET E2012      -3.658 -19.078 -28.465  1.00 30.84 LIG 0.16  HD
BRANCH 15 18
ATOM     18  CA  VAL E2011      -5.286 -17.401 -29.503  1.00 39.95 LIG 0.40  C 
ATOM     19  N   VAL E2011      -5.594 -17.928 -28.133  1.00 39.42 LIG 0.61  N 
BRANCH 18 20
ATOM     20  CB  VAL E2011      -5.276 -15.842 -29.532  1.00 43.12 LIG 0.03  C 
ATOM     21  CG2 VAL E2011      -5.501 -15.337 -30.955  1.00 41.73 LIG 0.01  C 
ATOM     22  CG1 VAL E2011      -3.990 -15.257 -28.944  1.00 40.75 LIG 0.01  C 
ENDBRANCH 18 20
ENDBRANCH 15 18
ENDBRANCH 13 14
BRANCH 13 23
ATOM     23  CB  MET E2012      -2.394 -20.356 -30.971  1.00 32.11 LIG 0.04  C 
BRANCH 23 24
ATOM     24  CG  MET E2012      -2.329 -21.887 -30.924  1.00 37.34 LIG 0.08  C 
BRANCH 24 25
ATOM     25 SD   MET E2012      -1.714 -22.576 -29.374  1.00 39.45 LIG-0.17  SA
ATOM     26  CE  MET E2012      -3.133 -23.571 -28.886  1.00 39.28 LIG 0.09  C 
ENDBRANCH 24 25
ENDBRANCH 23 24
ENDBRANCH 13 23
ENDBRANCH 10 13
ENDBRANCH 8 9
ENDBRANCH 1 8
BRANCH 4 27
ATOM     27  C   PRO E2014       2.713 -15.687 -25.188  1.00 21.57 LIG 0.24  C 
ATOM     28 O    PRO E2014       3.103 -15.818 -23.991  1.00 21.05 LIG-0.27  OA
ATOM     29  N   TRP E2015       2.167 -14.560 -25.656  1.00 20.29 LIG-0.34  N 
ATOM     30 H    TRP E2015       1.819 -14.475 -26.438  1.00 20.29 LIG 0.16  HD
BRANCH 29 31
ATOM     31  CA  TRP E2015       2.129 -13.351 -24.827  1.00 20.70 LIG 0.19  C 
BRANCH 31 32
ATOM     32  C   TRP E2015       0.830 -13.191 -24.046  1.00 20.18 LIG 0.20  C 
ATOM     33 O    TRP E2015       0.101 -14.138 -23.769  1.00 21.31 LIG-0.65  OA
ATOM     34 OXT  TRP E2015       0.470 -12.068 -23.706  1.00 19.23 LIG-0.65  OA
ENDBRANCH 31 32
BRANCH 31 35
ATOM     35  CB  TRP E2015       2.320 -12.098 -25.695  1.00 21.64 LIG 0.08  C 
BRANCH 35 36
ATOM     36  CG  TRP E2015       1.244 -11.831 -26.745  1.00 22.27 LIG-0.03  A 
ATOM     37  CD2 TRP E2015       0.659 -10.556 -27.021  1.00 22.85 LIG-0.00  A 
ATOM     38  CE2 TRP E2015      -0.272 -10.730 -28.074  1.00 23.44 LIG 0.04  A 
ATOM     39  CE3 TRP E2015       0.846  -9.267 -26.483  1.00 23.10 LIG 0.01  A 
ATOM     40  CZ2 TRP E2015      -1.030  -9.661 -28.589  1.00 22.82 LIG 0.03  A 
ATOM     41  NE1 TRP E2015      -0.261 -12.058 -28.425  1.00 23.03 LIG-0.36  N 
ATOM     42  CH2 TRP E2015      -0.845  -8.419 -28.035  1.00 23.08 LIG 0.00  A 
ATOM     43  CZ3 TRP E2015       0.080  -8.205 -26.998  1.00 24.27 LIG 0.00  A 
ATOM     44 HE1  TRP E2015      -0.752 -12.419 -29.032  1.00 23.03 LIG 0.17  HD
ATOM     45  CD1 TRP E2015       0.674 -12.722 -27.638  1.00 22.46 LIG 0.10  A 
ENDBRANCH 35 36
ENDBRANCH 31 35
ENDBRANCH 29 31
ENDBRANCH 4 27
TORSDOF 14
ENDMDL
MODEL 19
USER: ADFR SOLUTION from run 182
USER: SCORE 11.772586 LL:  -3.026 LR:  -9.190 RR:   0.000 FEB:  -5.014
USER: RMSD 3.777017
USER: SEED 181
USER: STATUS no improvement in best in 16 clusters for 5 generations
USER: GENES 16
USER: genes 0 Translation |==|  0.53549 0.46735 0.56265
USER: genes 1 Rotation |==|  0.37393 0.31965 0.42186 0.94212
USER: genes 2 Torsion [N]-C--CA-[N] |==|  0.44918
USER: genes 3 Torsion [C]-CA--N-[C] |==|  0.63011
USER: genes 4 Torsion [N]-C--CA-[N] |==|  0.89445
USER: genes 5 Torsion [C]-CA--N-[C] |==|  0.80354
USER: genes 6 Torsion [N]-C--CA-[N] |==|  0.37603
USER: genes 7 Torsion [C]-CA--CB-[CG2] |==|  0.86655
USER: genes 8 Torsion [C]-CA--CB-[CG] |==|  0.50745
USER: genes 9 Torsion [CA]-CB--CG-[SD] |==|  0.96216
USER: genes 10 Torsion [CB]-CG--SD-[CE] |==|  0.31637
USER: genes 11 Torsion [N]-CA--C-[O] |==|  0.47023
USER: genes 12 Torsion [C]-N--CA-[C] |==|  0.81128
USER: genes 13 Torsion [N]-CA--C-[O] |==|  0.96363
USER: genes 14 Torsion [N]-CA--CB-[CG] |==|  0.67357
USER: genes 15 Torsion [CA]-CB--CG-[CD2] |==|  0.61767
ROOT
ATOM      1  C   GLY E2013       1.034 -16.845 -27.056  1.00 21.81 LIG 0.24  C 
ATOM      2 O    GLY E2013       0.505 -17.114 -25.966  1.00 22.84 LIG-0.27  OA
ATOM      3  N   PRO E2014       2.213 -16.225 -27.151  1.00 21.64 LIG-0.34  N 
ATOM      4  CA  PRO E2014       3.048 -15.873 -25.999  1.00 21.53 LIG 0.18  C 
ATOM      5  CB  PRO E2014       4.430 -15.685 -26.633  1.00 21.78 LIG 0.04  C 
ATOM      6  CG  PRO E2014       4.163 -15.270 -28.051  1.00 22.21 LIG 0.02  C 
ATOM      7  CD  PRO E2014       2.846 -15.893 -28.440  1.00 21.52 LIG 0.13  C 
ENDROOT
BRANCH 1 8
ATOM      8  CA  GLY E2013       0.359 -17.238 -28.365  1.00 23.09 LIG 0.23  C 
BRANCH 8 9
ATOM      9  N   GLY E2013      -0.650 -18.256 -28.079  1.00 25.21 LIG-0.35  N 
ATOM     10  C   MET E2012      -0.757 -19.369 -28.803  1.00 26.98 LIG 0.24  C 
ATOM     11 O    MET E2012      -0.150 -19.552 -29.868  1.00 24.85 LIG-0.27  OA
ATOM     12 H    GLY E2013      -1.157 -18.071 -27.410  1.00 25.21 LIG 0.16  HD
BRANCH 10 13
ATOM     13  CA  MET E2012      -1.656 -20.452 -28.218  1.00 29.83 LIG 0.18  C 
BRANCH 13 14
ATOM     14  N   MET E2012      -1.530 -20.540 -26.762  1.00 30.84 LIG-0.35  N 
ATOM     15  C   VAL E2011      -0.444 -21.014 -26.166  1.00 36.49 LIG 0.26  C 
ATOM     16 O    VAL E2011       0.515 -21.489 -26.790  1.00 38.00 LIG-0.27  OA
ATOM     17 H    MET E2012      -2.221 -20.257 -26.334  1.00 30.84 LIG 0.16  HD
BRANCH 15 18
ATOM     18  CA  VAL E2011      -0.451 -20.954 -24.624  1.00 39.95 LIG 0.40  C 
ATOM     19  N   VAL E2011       0.044 -22.239 -24.033  1.00 39.42 LIG 0.61  N 
BRANCH 18 20
ATOM     20  CB  VAL E2011       0.341 -19.726 -24.079  1.00 43.12 LIG 0.03  C 
ATOM     21  CG2 VAL E2011       1.701 -19.626 -24.764  1.00 41.73 LIG 0.01  C 
ATOM     22  CG1 VAL E2011       0.498 -19.763 -22.558  1.00 40.75 LIG 0.01  C 
ENDBRANCH 18 20
ENDBRANCH 15 18
ENDBRANCH 13 14
BRANCH 13 23
ATOM     23  CB  MET E2012      -3.107 -20.109 -28.611  1.00 32.11 LIG 0.04  C 
BRANCH 23 24
ATOM     24  CG  MET E2012      -4.211 -21.029 -28.078  1.00 37.34 LIG 0.08  C 
BRANCH 24 25
ATOM     25 SD   MET E2012      -3.633 -22.593 -27.389  1.00 39.45 LIG-0.17  SA
ATOM     26  CE  MET E2012      -4.081 -22.360 -25.661  1.00 39.28 LIG 0.09  C 
ENDBRANCH 24 25
ENDBRANCH 23 24
ENDBRANCH 13 23
ENDBRANCH 10 13
ENDBRANCH 8 9
ENDBRANCH 1 8
BRANCH 4 27
ATOM     27  C   PRO E2014       2.609 -14.579 -25.281  1.00 21.57 LIG 0.24  C 
ATOM     28 O    PRO E2014       3.100 -14.254 -24.161  1.00 21.05 LIG-0.27  OA
ATOM     29  N   TRP E2015       1.705 -13.834 -25.924  1.00 20.29 LIG-0.34  N 
ATOM     30 H    TRP E2015       1.296 -14.074 -26.642  1.00 20.29 LIG 0.16  HD
BRANCH 29 31
ATOM     31  CA  TRP E2015       1.343 -12.504 -25.421  1.00 20.70 LIG 0.19  C 
BRANCH 31 32
ATOM     32  C   TRP E2015       0.585 -12.541 -24.100  1.00 20.18 LIG 0.20  C 
ATOM     33 O    TRP E2015       0.106 -13.572 -23.637  1.00 21.31 LIG-0.65  OA
ATOM     34 OXT  TRP E2015       0.409 -11.496 -23.481  1.00 19.23 LIG-0.65  OA
ENDBRANCH 31 32
BRANCH 31 35
ATOM     35  CB  TRP E2015       0.475 -11.760 -26.447  1.00 21.64 LIG 0.08  C 
BRANCH 35 36
ATOM     36  CG  TRP E2015       1.059 -10.469 -27.018  1.00 22.27 LIG-0.03  A 
ATOM     37  CD2 TRP E2015       0.331  -9.257 -27.227  1.00 22.85 LIG-0.00  A 
ATOM     38  CE2 TRP E2015       1.236  -8.297 -27.742  1.00 23.44 LIG 0.04  A 
ATOM     39  CE3 TRP E2015      -1.010  -8.882 -27.012  1.00 23.10 LIG 0.01  A 
ATOM     40  CZ2 TRP E2015       0.836  -6.986 -28.065  1.00 22.82 LIG 0.03  A 
ATOM     41  NE1 TRP E2015       2.466  -8.898 -27.849  1.00 23.03 LIG-0.36  N 
ATOM     42  CH2 TRP E2015      -0.480  -6.651 -27.866  1.00 23.08 LIG 0.00  A 
ATOM     43  CZ3 TRP E2015      -1.404  -7.572 -27.343  1.00 24.27 LIG 0.00  A 
ATOM     44 HE1  TRP E2015       3.181  -8.527 -28.151  1.00 23.03 LIG 0.17  HD
ATOM     45  CD1 TRP E2015       2.367 -10.207 -27.387  1.00 22.46 LIG 0.10  A 
ENDBRANCH 35 36
ENDBRANCH 31 35
ENDBRANCH 29 31
ENDBRANCH 4 27
TORSDOF 14
ENDMDL
MODEL 20
USER: ADFR SOLUTION from run 69
USER: SCORE 11.670025 LL:  -2.780 LR:  -9.169 RR:   0.000 FEB:  -4.993
USER: RMSD 3.235819
USER: SEED 68
USER: STATUS no improvement in best in 22 clusters for 5 generations
USER: GENES 16
USER: genes 0 Translation |==|  0.51774 0.47359 0.56973
USER: genes 1 Rotation |==|  0.36578 0.35677 0.43994 0.95592
USER: genes 2 Torsion [N]-C--CA-[N] |==|  0.37441
USER: genes 3 Torsion [C]-CA--N-[C] |==|  0.82923
USER: genes 4 Torsion [N]-C--CA-[N] |==|  0.07156
USER: genes 5 Torsion [C]-CA--N-[C] |==|  0.68505
USER: genes 6 Torsion [N]-C--CA-[N] |==|  0.82477
USER: genes 7 Torsion [C]-CA--CB-[CG2] |==|  0.74811
USER: genes 8 Torsion [C]-CA--CB-[CG] |==|  0.86053
USER: genes 9 Torsion [CA]-CB--CG-[SD] |==|  0.81783
USER: genes 10 Torsion [CB]-CG--SD-[CE] |==|  0.31320
USER: genes 11 Torsion [N]-CA--C-[O] |==|  0.44302
USER: genes 12 Torsion [C]-N--CA-[C] |==|  0.82333
USER: genes 13 Torsion [N]-CA--C-[O] |==|  0.97086
USER: genes 14 Torsion [N]-CA--CB-[CG] |==|  0.67548
USER: genes 15 Torsion [CA]-CB--CG-[CD2] |==|  0.60833
ROOT
ATOM      1  C   GLY E2013       0.754 -16.686 -26.934  1.00 21.81 LIG 0.24  C 
ATOM      2 O    GLY E2013       0.429 -16.945 -25.764  1.00 22.84 LIG-0.27  OA
ATOM      3  N   PRO E2014       1.883 -16.042 -27.242  1.00 21.64 LIG-0.34  N 
ATOM      4  CA  PRO E2014       2.897 -15.650 -26.259  1.00 21.53 LIG 0.18  C 
ATOM      5  CB  PRO E2014       4.142 -15.444 -27.127  1.00 21.78 LIG 0.04  C 
ATOM      6  CG  PRO E2014       3.623 -15.063 -28.483  1.00 22.21 LIG 0.02  C 
ATOM      7  CD  PRO E2014       2.274 -15.723 -28.627  1.00 21.52 LIG 0.13  C 
ENDROOT
BRANCH 1 8
ATOM      8  CA  GLY E2013      -0.127 -17.120 -28.099  1.00 23.09 LIG 0.23  C 
BRANCH 8 9
ATOM      9  N   GLY E2013      -0.556 -18.498 -27.868  1.00 25.21 LIG-0.35  N 
ATOM     10  C   MET E2012       0.313 -19.503 -27.776  1.00 26.98 LIG 0.24  C 
ATOM     11 O    MET E2012       1.516 -19.394 -28.054  1.00 24.85 LIG-0.27  OA
ATOM     12 H    GLY E2013      -1.408 -18.594 -27.798  1.00 25.21 LIG 0.16  HD
BRANCH 10 13
ATOM     13  CA  MET E2012      -0.255 -20.819 -27.258  1.00 29.83 LIG 0.18  C 
BRANCH 13 14
ATOM     14  N   MET E2012      -1.691 -20.936 -27.518  1.00 30.84 LIG-0.35  N 
ATOM     15  C   VAL E2011      -2.595 -20.949 -26.547  1.00 36.49 LIG 0.26  C 
ATOM     16 O    VAL E2011      -2.293 -20.941 -25.345  1.00 38.00 LIG-0.27  OA
ATOM     17 H    MET E2012      -1.891 -20.995 -28.352  1.00 30.84 LIG 0.16  HD
BRANCH 15 18
ATOM     18  CA  VAL E2011      -4.066 -20.993 -27.007  1.00 39.95 LIG 0.40  C 
ATOM     19  N   VAL E2011      -4.424 -19.763 -27.786  1.00 39.42 LIG 0.61  N 
BRANCH 18 20
ATOM     20  CB  VAL E2011      -4.396 -22.294 -27.801  1.00 43.12 LIG 0.03  C 
ATOM     21  CG2 VAL E2011      -4.162 -22.078 -29.294  1.00 41.73 LIG 0.01  C 
ATOM     22  CG1 VAL E2011      -5.820 -22.790 -27.540  1.00 40.75 LIG 0.01  C 
ENDBRANCH 18 20
ENDBRANCH 15 18
ENDBRANCH 13 14
BRANCH 13 23
ATOM     23  CB  MET E2012       0.512 -21.959 -27.957  1.00 32.11 LIG 0.04  C 
BRANCH 23 24
ATOM     24  CG  MET E2012       0.630 -21.889 -29.484  1.00 37.34 LIG 0.08  C 
BRANCH 24 25
ATOM     25 SD   MET E2012      -0.930 -22.047 -30.376  1.00 39.45 LIG-0.17  SA
ATOM     26  CE  MET E2012      -1.066 -20.390 -31.068  1.00 39.28 LIG 0.09  C 
ENDBRANCH 24 25
ENDBRANCH 23 24
ENDBRANCH 13 23
ENDBRANCH 10 13
ENDBRANCH 8 9
ENDBRANCH 1 8
BRANCH 4 27
ATOM     27  C   PRO E2014       2.557 -14.352 -25.496  1.00 21.57 LIG 0.24  C 
ATOM     28 O    PRO E2014       3.100 -14.085 -24.384  1.00 21.05 LIG-0.27  OA
ATOM     29  N   TRP E2015       1.679 -13.538 -26.091  1.00 20.29 LIG-0.34  N 
ATOM     30 H    TRP E2015       1.235 -13.735 -26.801  1.00 20.29 LIG 0.16  HD
BRANCH 29 31
ATOM     31  CA  TRP E2015       1.411 -12.204 -25.545  1.00 20.70 LIG 0.19  C 
BRANCH 31 32
ATOM     32  C   TRP E2015       0.788 -12.231 -24.155  1.00 20.18 LIG 0.20  C 
ATOM     33 O    TRP E2015       0.367 -13.260 -23.635  1.00 21.31 LIG-0.65  OA
ATOM     34 OXT  TRP E2015       0.665 -11.180 -23.533  1.00 19.23 LIG-0.65  OA
ENDBRANCH 31 32
BRANCH 31 35
ATOM     35  CB  TRP E2015       0.470 -11.421 -26.473  1.00 21.64 LIG 0.08  C 
BRANCH 35 36
ATOM     36  CG  TRP E2015       1.041 -10.152 -27.102  1.00 22.27 LIG-0.03  A 
ATOM     37  CD2 TRP E2015       0.321  -8.932 -27.295  1.00 22.85 LIG-0.00  A 
ATOM     38  CE2 TRP E2015       1.210  -7.998 -27.880  1.00 23.44 LIG 0.04  A 
ATOM     39  CE3 TRP E2015      -0.999  -8.531 -27.012  1.00 23.10 LIG 0.01  A 
ATOM     40  CZ2 TRP E2015       0.812  -6.687 -28.206  1.00 22.82 LIG 0.03  A 
ATOM     41  NE1 TRP E2015       2.423  -8.622 -28.044  1.00 23.03 LIG-0.36  N 
ATOM     42  CH2 TRP E2015      -0.485  -6.326 -27.940  1.00 23.08 LIG 0.00  A 
ATOM     43  CZ3 TRP E2015      -1.392  -7.221 -27.347  1.00 24.27 LIG 0.00  A 
ATOM     44 HE1  TRP E2015       3.125  -8.268 -28.393  1.00 23.03 LIG 0.17  HD
ATOM     45  CD1 TRP E2015       2.330  -9.919 -27.550  1.00 22.46 LIG 0.10  A 
ENDBRANCH 35 36
ENDBRANCH 31 35
ENDBRANCH 29 31
ENDBRANCH 4 27
TORSDOF 14
ENDMDL
MODEL 21
USER: ADFR SOLUTION from run 59
USER: SCORE 12.046313 LL:  -3.163 LR:  -9.113 RR:   0.000 FEB:  -4.937
USER: RMSD 2.988374
USER: SEED 58
USER: STATUS no improvement in best in 12 clusters for 5 generations
USER: GENES 16
USER: genes 0 Translation |==|  0.49240 0.49554 0.46435
USER: genes 1 Rotation |==|  0.51900 0.48206 0.48717 0.99915
USER: genes 2 Torsion [N]-C--CA-[N] |==|  0.47504
USER: genes 3 Torsion [C]-CA--N-[C] |==|  0.76967
USER: genes 4 Torsion [N]-C--CA-[N] |==|  0.06795
USER: genes 5 Torsion [C]-CA--N-[C] |==|  0.18132
USER: genes 6 Torsion [N]-C--CA-[N] |==|  0.33396
USER: genes 7 Torsion [C]-CA--CB-[CG2] |==|  0.37143
USER: genes 8 Torsion [C]-CA--CB-[CG] |==|  0.48668
USER: genes 9 Torsion [CA]-CB--CG-[SD] |==|  0.91937
USER: genes 10 Torsion [CB]-CG--SD-[CE] |==|  0.30181
USER: genes 11 Torsion [N]-CA--C-[O] |==|  0.43836
USER: genes 12 Torsion [C]-N--CA-[C] |==|  0.69886
USER: genes 13 Torsion [N]-CA--C-[O] |==|  0.04406
USER: genes 14 Torsion [N]-CA--CB-[CG] |==|  0.85847
USER: genes 15 Torsion [CA]-CB--CG-[CD2] |==|  0.46460
ROOT
ATOM      1  C   GLY E2013       0.355 -16.127 -28.752  1.00 21.81 LIG 0.24  C 
ATOM      2 O    GLY E2013       0.695 -17.034 -27.976  1.00 22.84 LIG-0.27  OA
ATOM      3  N   PRO E2014       1.120 -15.058 -28.988  1.00 21.64 LIG-0.34  N 
ATOM      4  CA  PRO E2014       2.467 -14.876 -28.437  1.00 21.53 LIG 0.18  C 
ATOM      5  CB  PRO E2014       3.073 -13.828 -29.376  1.00 21.78 LIG 0.04  C 
ATOM      6  CG  PRO E2014       1.908 -13.036 -29.894  1.00 22.21 LIG 0.02  C 
ATOM      7  CD  PRO E2014       0.723 -13.970 -29.901  1.00 21.52 LIG 0.13  C 
ENDROOT
BRANCH 1 8
ATOM      8  CA  GLY E2013      -0.969 -16.201 -29.503  1.00 23.09 LIG 0.23  C 
BRANCH 8 9
ATOM      9  N   GLY E2013      -1.553 -17.523 -29.282  1.00 25.21 LIG-0.35  N 
ATOM     10  C   MET E2012      -1.191 -18.585 -30.001  1.00 26.98 LIG 0.24  C 
ATOM     11 O    MET E2012      -0.482 -18.514 -31.015  1.00 24.85 LIG-0.27  OA
ATOM     12 H    GLY E2013      -2.141 -17.548 -28.656  1.00 25.21 LIG 0.16  HD
BRANCH 10 13
ATOM     13  CA  MET E2012      -1.671 -19.931 -29.473  1.00 29.83 LIG 0.18  C 
BRANCH 13 14
ATOM     14  N   MET E2012      -2.872 -19.798 -28.645  1.00 30.84 LIG-0.35  N 
ATOM     15  C   VAL E2011      -4.034 -19.387 -29.133  1.00 36.49 LIG 0.26  C 
ATOM     16 O    VAL E2011      -4.178 -19.011 -30.305  1.00 38.00 LIG-0.27  OA
ATOM     17 H    MET E2012      -2.752 -20.011 -27.820  1.00 30.84 LIG 0.16  HD
BRANCH 15 18
ATOM     18  CA  VAL E2011      -5.212 -19.388 -28.137  1.00 39.95 LIG 0.40  C 
ATOM     19  N   VAL E2011      -5.783 -18.011 -27.975  1.00 39.42 LIG 0.61  N 
BRANCH 18 20
ATOM     20  CB  VAL E2011      -6.310 -20.425 -28.525  1.00 43.12 LIG 0.03  C 
ATOM     21  CG2 VAL E2011      -6.735 -21.230 -27.299  1.00 41.73 LIG 0.01  C 
ATOM     22  CG1 VAL E2011      -5.862 -21.352 -29.656  1.00 40.75 LIG 0.01  C 
ENDBRANCH 18 20
ENDBRANCH 15 18
ENDBRANCH 13 14
BRANCH 13 23
ATOM     23  CB  MET E2012      -1.957 -20.830 -30.693  1.00 32.11 LIG 0.04  C 
BRANCH 23 24
ATOM     24  CG  MET E2012      -2.349 -22.285 -30.413  1.00 37.34 LIG 0.08  C 
BRANCH 24 25
ATOM     25 SD   MET E2012      -1.669 -22.978 -28.893  1.00 39.45 LIG-0.17  SA
ATOM     26  CE  MET E2012      -3.161 -23.064 -27.889  1.00 39.28 LIG 0.09  C 
ENDBRANCH 24 25
ENDBRANCH 23 24
ENDBRANCH 13 23
ENDBRANCH 10 13
ENDBRANCH 8 9
ENDBRANCH 1 8
BRANCH 4 27
ATOM     27  C   PRO E2014       2.481 -14.362 -26.982  1.00 21.57 LIG 0.24  C 
ATOM     28 O    PRO E2014       3.488 -14.542 -26.235  1.00 21.05 LIG-0.27  OA
ATOM     29  N   TRP E2015       1.385 -13.711 -26.582  1.00 20.29 LIG-0.34  N 
ATOM     30 H    TRP E2015       0.660 -13.650 -27.040  1.00 20.29 LIG 0.16  HD
BRANCH 29 31
ATOM     31  CA  TRP E2015       1.355 -13.032 -25.282  1.00 20.70 LIG 0.19  C 
BRANCH 31 32
ATOM     32  C   TRP E2015       0.475 -13.731 -24.253  1.00 20.18 LIG 0.20  C 
ATOM     33 O    TRP E2015       0.086 -14.888 -24.387  1.00 21.31 LIG-0.65  OA
ATOM     34 OXT  TRP E2015       0.104 -13.111 -23.262  1.00 19.23 LIG-0.65  OA
ENDBRANCH 31 32
BRANCH 31 35
ATOM     35  CB  TRP E2015       0.849 -11.590 -25.440  1.00 21.64 LIG 0.08  C 
BRANCH 35 36
ATOM     36  CG  TRP E2015       1.537 -10.745 -26.509  1.00 22.27 LIG-0.03  A 
ATOM     37  CD2 TRP E2015       1.063  -9.487 -26.997  1.00 22.85 LIG-0.00  A 
ATOM     38  CE2 TRP E2015       1.995  -9.020 -27.956  1.00 23.44 LIG 0.04  A 
ATOM     39  CE3 TRP E2015      -0.063  -8.695 -26.700  1.00 23.10 LIG 0.01  A 
ATOM     40  CZ2 TRP E2015       1.823  -7.800 -28.636  1.00 22.82 LIG 0.03  A 
ATOM     41  NE1 TRP E2015       2.996  -9.956 -28.055  1.00 23.03 LIG-0.36  N 
ATOM     42  CH2 TRP E2015       0.708  -7.056 -28.345  1.00 23.08 LIG 0.00  A 
ATOM     43  CZ3 TRP E2015      -0.232  -7.479 -27.390  1.00 24.27 LIG 0.00  A 
ATOM     44 HE1  TRP E2015       3.673  -9.910 -28.582  1.00 23.03 LIG 0.17  HD
ATOM     45  CD1 TRP E2015       2.733 -10.990 -27.162  1.00 22.46 LIG 0.10  A 
ENDBRANCH 35 36
ENDBRANCH 31 35
ENDBRANCH 29 31
ENDBRANCH 4 27
TORSDOF 14
ENDMDL
MODEL 22
USER: ADFR SOLUTION from run 56
USER: SCORE 12.269133 LL:  -3.463 LR:  -9.048 RR:   0.000 FEB:  -4.872
USER: RMSD 3.448025
USER: SEED 55
USER: STATUS no improvement in best in 10 clusters for 5 generations
USER: GENES 16
USER: genes 0 Translation |==|  0.44183 0.51828 0.47751
USER: genes 1 Rotation |==|  0.49607 0.50742 0.44136 0.99648
USER: genes 2 Torsion [N]-C--CA-[N] |==|  0.35861
USER: genes 3 Torsion [C]-CA--N-[C] |==|  0.80896
USER: genes 4 Torsion [N]-C--CA-[N] |==|  0.03214
USER: genes 5 Torsion [C]-CA--N-[C] |==|  0.73822
USER: genes 6 Torsion [N]-C--CA-[N] |==|  0.87201
USER: genes 7 Torsion [C]-CA--CB-[CG2] |==|  0.10648
USER: genes 8 Torsion [C]-CA--CB-[CG] |==|  0.85028
USER: genes 9 Torsion [CA]-CB--CG-[SD] |==|  0.81896
USER: genes 10 Torsion [CB]-CG--SD-[CE] |==|  0.28999
USER: genes 11 Torsion [N]-CA--C-[O] |==|  0.48483
USER: genes 12 Torsion [C]-N--CA-[C] |==|  0.67035
USER: genes 13 Torsion [N]-CA--C-[O] |==|  0.08214
USER: genes 14 Torsion [N]-CA--CB-[CG] |==|  0.84593
USER: genes 15 Torsion [CA]-CB--CG-[CD2] |==|  0.46213
ROOT
ATOM      1  C   GLY E2013      -0.441 -15.547 -28.525  1.00 21.81 LIG 0.24  C 
ATOM      2 O    GLY E2013      -0.179 -16.444 -27.708  1.00 22.84 LIG-0.27  OA
ATOM      3  N   PRO E2014       0.468 -14.659 -28.934  1.00 21.64 LIG-0.34  N 
ATOM      4  CA  PRO E2014       1.881 -14.692 -28.543  1.00 21.53 LIG 0.18  C 
ATOM      5  CB  PRO E2014       2.549 -13.845 -29.631  1.00 21.78 LIG 0.04  C 
ATOM      6  CG  PRO E2014       1.489 -12.889 -30.098  1.00 22.21 LIG 0.02  C 
ATOM      7  CD  PRO E2014       0.166 -13.584 -29.898  1.00 21.52 LIG 0.13  C 
ENDROOT
BRANCH 1 8
ATOM      8  CA  GLY E2013      -1.836 -15.428 -29.127  1.00 23.09 LIG 0.23  C 
BRANCH 8 9
ATOM      9  N   GLY E2013      -2.236 -16.739 -29.634  1.00 25.21 LIG-0.35  N 
ATOM     10  C   MET E2012      -1.649 -17.298 -30.691  1.00 26.98 LIG 0.24  C 
ATOM     11 O    MET E2012      -0.859 -16.695 -31.432  1.00 24.85 LIG-0.27  OA
ATOM     12 H    GLY E2013      -2.874 -17.108 -29.191  1.00 25.21 LIG 0.16  HD
BRANCH 10 13
ATOM     13  CA  MET E2012      -1.974 -18.768 -30.924  1.00 29.83 LIG 0.18  C 
BRANCH 13 14
ATOM     14  N   MET E2012      -3.089 -19.221 -30.089  1.00 30.84 LIG-0.35  N 
ATOM     15  C   VAL E2011      -2.910 -19.804 -28.911  1.00 36.49 LIG 0.26  C 
ATOM     16 O    VAL E2011      -1.789 -20.080 -28.460  1.00 38.00 LIG-0.27  OA
ATOM     17 H    MET E2012      -3.864 -19.075 -30.433  1.00 30.84 LIG 0.16  HD
BRANCH 15 18
ATOM     18  CA  VAL E2011      -4.197 -20.139 -28.132  1.00 39.95 LIG 0.40  C 
ATOM     19  N   VAL E2011      -5.148 -18.980 -28.137  1.00 39.42 LIG 0.61  N 
BRANCH 18 20
ATOM     20  CB  VAL E2011      -4.877 -21.444 -28.649  1.00 43.12 LIG 0.03  C 
ATOM     21  CG2 VAL E2011      -3.820 -22.484 -29.011  1.00 41.73 LIG 0.01  C 
ATOM     22  CG1 VAL E2011      -5.812 -21.184 -29.832  1.00 40.75 LIG 0.01  C 
ENDBRANCH 18 20
ENDBRANCH 15 18
ENDBRANCH 13 14
BRANCH 13 23
ATOM     23  CB  MET E2012      -2.320 -18.934 -32.417  1.00 32.11 LIG 0.04  C 
BRANCH 23 24
ATOM     24  CG  MET E2012      -3.414 -18.023 -32.986  1.00 37.34 LIG 0.08  C 
BRANCH 24 25
ATOM     25 SD   MET E2012      -5.061 -18.293 -32.303  1.00 39.45 LIG-0.17  SA
ATOM     26  CE  MET E2012      -5.188 -16.867 -31.211  1.00 39.28 LIG 0.09  C 
ENDBRANCH 24 25
ENDBRANCH 23 24
ENDBRANCH 13 23
ENDBRANCH 10 13
ENDBRANCH 8 9
ENDBRANCH 1 8
BRANCH 4 27
ATOM     27  C   PRO E2014       2.156 -14.087 -27.150  1.00 21.57 LIG 0.24  C 
ATOM     28 O    PRO E2014       3.310 -14.137 -26.632  1.00 21.05 LIG-0.27  OA
ATOM     29  N   TRP E2015       1.114 -13.502 -26.551  1.00 20.29 LIG-0.34  N 
ATOM     30 H    TRP E2015       0.305 -13.530 -26.843  1.00 20.29 LIG 0.16  HD
BRANCH 29 31
ATOM     31  CA  TRP E2015       1.297 -12.747 -25.307  1.00 20.70 LIG 0.19  C 
BRANCH 31 32
ATOM     32  C   TRP E2015       0.517 -13.319 -24.130  1.00 20.18 LIG 0.20  C 
ATOM     33 O    TRP E2015       0.253 -14.513 -24.025  1.00 21.31 LIG-0.65  OA
ATOM     34 OXT  TRP E2015       0.100 -12.558 -23.262  1.00 19.23 LIG-0.65  OA
ENDBRANCH 31 32
BRANCH 31 35
ATOM     35  CB  TRP E2015       0.868 -11.285 -25.498  1.00 21.64 LIG 0.08  C 
BRANCH 35 36
ATOM     36  CG  TRP E2015       1.544 -10.524 -26.637  1.00 22.27 LIG-0.03  A 
ATOM     37  CD2 TRP E2015       1.107  -9.268 -27.162  1.00 22.85 LIG-0.00  A 
ATOM     38  CE2 TRP E2015       2.014  -8.892 -28.183  1.00 23.44 LIG 0.04  A 
ATOM     39  CE3 TRP E2015       0.035  -8.409 -26.853  1.00 23.10 LIG 0.01  A 
ATOM     40  CZ2 TRP E2015       1.867  -7.697 -28.913  1.00 22.82 LIG 0.03  A 
ATOM     41  NE1 TRP E2015       2.963  -9.880 -28.283  1.00 23.03 LIG-0.36  N 
ATOM     42  CH2 TRP E2015       0.803  -6.887 -28.608  1.00 23.08 LIG 0.00  A 
ATOM     43  CZ3 TRP E2015      -0.109  -7.219 -27.592  1.00 24.27 LIG 0.00  A 
ATOM     44 HE1  TRP E2015       3.616  -9.892 -28.842  1.00 23.03 LIG 0.17  HD
ATOM     45  CD1 TRP E2015       2.694 -10.858 -27.330  1.00 22.46 LIG 0.10  A 
ENDBRANCH 35 36
ENDBRANCH 31 35
ENDBRANCH 29 31
ENDBRANCH 4 27
TORSDOF 14
ENDMDL
MODEL 23
USER: ADFR SOLUTION from run 122
USER: SCORE 11.867906 LL:  -3.291 LR:  -9.053 RR:   0.000 FEB:  -4.876
USER: RMSD 4.378905
USER: SEED 121
USER: STATUS no improvement in best in 15 clusters for 5 generations
USER: GENES 16
USER: genes 0 Translation |==|  0.52700 0.45822 0.52232
USER: genes 1 Rotation |==|  0.50796 0.65084 0.66259 0.94805
USER: genes 2 Torsion [N]-C--CA-[N] |==|  0.12760
USER: genes 3 Torsion [C]-CA--N-[C] |==|  0.24335
USER: genes 4 Torsion [N]-C--CA-[N] |==|  0.01577
USER: genes 5 Torsion [C]-CA--N-[C] |==|  0.77748
USER: genes 6 Torsion [N]-C--CA-[N] |==|  0.54604
USER: genes 7 Torsion [C]-CA--CB-[CG2] |==|  0.62800
USER: genes 8 Torsion [C]-CA--CB-[CG] |==|  0.61247
USER: genes 9 Torsion [CA]-CB--CG-[SD] |==|  0.23695
USER: genes 10 Torsion [CB]-CG--SD-[CE] |==|  0.07752
USER: genes 11 Torsion [N]-CA--C-[O] |==|  0.34754
USER: genes 12 Torsion [C]-N--CA-[C] |==|  0.65538
USER: genes 13 Torsion [N]-CA--C-[O] |==|  0.12267
USER: genes 14 Torsion [N]-CA--CB-[CG] |==|  0.79748
USER: genes 15 Torsion [CA]-CB--CG-[CD2] |==|  0.46891
ROOT
ATOM      1  C   GLY E2013       0.900 -17.078 -27.752  1.00 21.81 LIG 0.24  C 
ATOM      2 O    GLY E2013       2.090 -17.332 -27.506  1.00 22.84 LIG-0.27  OA
ATOM      3  N   PRO E2014       0.493 -15.879 -28.176  1.00 21.64 LIG-0.34  N 
ATOM      4  CA  PRO E2014       1.398 -14.767 -28.482  1.00 21.53 LIG 0.18  C 
ATOM      5  CB  PRO E2014       0.535 -13.871 -29.376  1.00 21.78 LIG 0.04  C 
ATOM      6  CG  PRO E2014      -0.882 -14.142 -28.962  1.00 22.21 LIG 0.02  C 
ATOM      7  CD  PRO E2014      -0.919 -15.565 -28.462  1.00 21.52 LIG 0.13  C 
ENDROOT
BRANCH 1 8
ATOM      8  CA  GLY E2013      -0.171 -18.151 -27.598  1.00 23.09 LIG 0.23  C 
BRANCH 8 9
ATOM      9  N   GLY E2013      -1.019 -18.134 -28.788  1.00 25.21 LIG-0.35  N 
ATOM     10  C   MET E2012      -0.723 -18.840 -29.878  1.00 26.98 LIG 0.24  C 
ATOM     11 O    MET E2012       0.362 -19.416 -30.045  1.00 24.85 LIG-0.27  OA
ATOM     12 H    GLY E2013      -1.714 -17.633 -28.717  1.00 25.21 LIG 0.16  HD
BRANCH 10 13
ATOM     13  CA  MET E2012      -1.833 -18.943 -30.917  1.00 29.83 LIG 0.18  C 
BRANCH 13 14
ATOM     14  N   MET E2012      -2.990 -18.118 -30.566  1.00 30.84 LIG-0.35  N 
ATOM     15  C   VAL E2011      -3.903 -18.504 -29.684  1.00 36.49 LIG 0.26  C 
ATOM     16 O    VAL E2011      -3.891 -19.621 -29.147  1.00 38.00 LIG-0.27  OA
ATOM     17 H    MET E2012      -3.022 -17.366 -30.982  1.00 30.84 LIG 0.16  HD
BRANCH 15 18
ATOM     18  CA  VAL E2011      -5.007 -17.473 -29.373  1.00 39.95 LIG 0.40  C 
ATOM     19  N   VAL E2011      -5.733 -17.825 -28.110  1.00 39.42 LIG 0.61  N 
BRANCH 18 20
ATOM     20  CB  VAL E2011      -4.456 -16.014 -29.334  1.00 43.12 LIG 0.03  C 
ATOM     21  CG2 VAL E2011      -4.988 -15.280 -28.106  1.00 41.73 LIG 0.01  C 
ATOM     22  CG1 VAL E2011      -4.774 -15.237 -30.613  1.00 40.75 LIG 0.01  C 
ENDBRANCH 18 20
ENDBRANCH 15 18
ENDBRANCH 13 14
BRANCH 13 23
ATOM     23  CB  MET E2012      -1.243 -18.493 -32.269  1.00 32.11 LIG 0.04  C 
BRANCH 23 24
ATOM     24  CG  MET E2012      -2.132 -17.622 -33.164  1.00 37.34 LIG 0.08  C 
BRANCH 24 25
ATOM     25 SD   MET E2012      -2.072 -15.854 -32.809  1.00 39.45 LIG-0.17  SA
ATOM     26  CE  MET E2012      -0.409 -15.725 -32.131  1.00 39.28 LIG 0.09  C 
ENDBRANCH 24 25
ENDBRANCH 23 24
ENDBRANCH 13 23
ENDBRANCH 10 13
ENDBRANCH 8 9
ENDBRANCH 1 8
BRANCH 4 27
ATOM     27  C   PRO E2014       1.868 -13.986 -27.237  1.00 21.57 LIG 0.24  C 
ATOM     28 O    PRO E2014       3.100 -13.821 -26.995  1.00 21.05 LIG-0.27  OA
ATOM     29  N   TRP E2015       0.901 -13.490 -26.459  1.00 20.29 LIG-0.34  N 
ATOM     30 H    TRP E2015       0.063 -13.659 -26.555  1.00 20.29 LIG 0.16  HD
BRANCH 29 31
ATOM     31  CA  TRP E2015       1.227 -12.589 -25.348  1.00 20.70 LIG 0.19  C 
BRANCH 31 32
ATOM     32  C   TRP E2015       0.705 -13.073 -24.001  1.00 20.18 LIG 0.20  C 
ATOM     33 O    TRP E2015       0.802 -14.240 -23.631  1.00 21.31 LIG-0.65  OA
ATOM     34 OXT  TRP E2015       0.130 -12.280 -23.262  1.00 19.23 LIG-0.65  OA
ENDBRANCH 31 32
BRANCH 31 35
ATOM     35  CB  TRP E2015       0.654 -11.188 -25.606  1.00 21.64 LIG 0.08  C 
BRANCH 35 36
ATOM     36  CG  TRP E2015       1.358 -10.354 -26.674  1.00 22.27 LIG-0.03  A 
ATOM     37  CD2 TRP E2015       0.862  -9.133 -27.226  1.00 22.85 LIG-0.00  A 
ATOM     38  CE2 TRP E2015       1.819  -8.664 -28.159  1.00 23.44 LIG 0.04  A 
ATOM     39  CE3 TRP E2015      -0.305  -8.374 -27.009  1.00 23.10 LIG 0.01  A 
ATOM     40  CZ2 TRP E2015       1.634  -7.475 -28.891  1.00 22.82 LIG 0.03  A 
ATOM     41  NE1 TRP E2015       2.856  -9.564 -28.181  1.00 23.03 LIG-0.36  N 
ATOM     42  CH2 TRP E2015       0.479  -6.764 -28.676  1.00 23.08 LIG 0.00  A 
ATOM     43  CZ3 TRP E2015      -0.487  -7.190 -27.748  1.00 24.27 LIG 0.00  A 
ATOM     44 HE1  TRP E2015       3.555  -9.511 -28.679  1.00 23.03 LIG 0.17  HD
ATOM     45  CD1 TRP E2015       2.591 -10.576 -27.263  1.00 22.46 LIG 0.10  A 
ENDBRANCH 35 36
ENDBRANCH 31 35
ENDBRANCH 29 31
ENDBRANCH 4 27
TORSDOF 14
ENDMDL
MODEL 24
USER: ADFR SOLUTION from run 4
USER: SCORE 12.568021 LL:  -3.898 LR:  -9.034 RR:   0.000 FEB:  -4.858
USER: RMSD 4.202989
USER: SEED 793859
USER: STATUS no improvement in best in 19 clusters for 5 generations
USER: GENES 16
USER: genes 0 Translation |==|  0.44481 0.53457 0.46114
USER: genes 1 Rotation |==|  0.50886 0.51487 0.36672 0.98160
USER: genes 2 Torsion [N]-C--CA-[N] |==|  0.46984
USER: genes 3 Torsion [C]-CA--N-[C] |==|  0.48252
USER: genes 4 Torsion [N]-C--CA-[N] |==|  0.93889
USER: genes 5 Torsion [C]-CA--N-[C] |==|  0.75000
USER: genes 6 Torsion [N]-C--CA-[N] |==|  0.39780
USER: genes 7 Torsion [C]-CA--CB-[CG2] |==|  0.13173
USER: genes 8 Torsion [C]-CA--CB-[CG] |==|  0.21598
USER: genes 9 Torsion [CA]-CB--CG-[SD] |==|  0.69859
USER: genes 10 Torsion [CB]-CG--SD-[CE] |==|  0.37243
USER: genes 11 Torsion [N]-CA--C-[O] |==|  0.61175
USER: genes 12 Torsion [C]-N--CA-[C] |==|  0.48934
USER: genes 13 Torsion [N]-CA--C-[O] |==|  0.05937
USER: genes 14 Torsion [N]-CA--CB-[CG] |==|  0.09849
USER: genes 15 Torsion [CA]-CB--CG-[CD2] |==|  0.62232
ROOT
ATOM      1  C   GLY E2013      -0.394 -15.132 -28.807  1.00 21.81 LIG 0.24  C 
ATOM      2 O    GLY E2013      -0.403 -16.107 -28.040  1.00 22.84 LIG-0.27  OA
ATOM      3  N   PRO E2014       0.734 -14.537 -29.202  1.00 21.64 LIG-0.34  N 
ATOM      4  CA  PRO E2014       2.077 -15.013 -28.855  1.00 21.53 LIG 0.18  C 
ATOM      5  CB  PRO E2014       2.953 -14.350 -29.922  1.00 21.78 LIG 0.04  C 
ATOM      6  CG  PRO E2014       2.224 -13.097 -30.313  1.00 22.21 LIG 0.02  C 
ATOM      7  CD  PRO E2014       0.756 -13.373 -30.106  1.00 21.52 LIG 0.13  C 
ENDROOT
BRANCH 1 8
ATOM      8  CA  GLY E2013      -1.697 -14.568 -29.362  1.00 23.09 LIG 0.23  C 
BRANCH 8 9
ATOM      9  N   GLY E2013      -2.780 -15.493 -29.033  1.00 25.21 LIG-0.35  N 
ATOM     10  C   MET E2012      -4.056 -15.205 -29.282  1.00 26.98 LIG 0.24  C 
ATOM     11 O    MET E2012      -4.447 -14.083 -29.637  1.00 24.85 LIG-0.27  OA
ATOM     12 H    GLY E2013      -2.518 -16.226 -28.669  1.00 25.21 LIG 0.16  HD
BRANCH 10 13
ATOM     13  CA  MET E2012      -5.032 -16.367 -29.147  1.00 29.83 LIG 0.18  C 
BRANCH 13 14
ATOM     14  N   MET E2012      -4.361 -17.663 -29.273  1.00 30.84 LIG-0.35  N 
ATOM     15  C   VAL E2011      -4.208 -18.277 -30.439  1.00 36.49 LIG 0.26  C 
ATOM     16 O    VAL E2011      -4.685 -17.844 -31.497  1.00 38.00 LIG-0.27  OA
ATOM     17 H    MET E2012      -4.079 -17.984 -28.527  1.00 30.84 LIG 0.16  HD
BRANCH 15 18
ATOM     18  CA  VAL E2011      -3.403 -19.592 -30.397  1.00 39.95 LIG 0.40  C 
ATOM     19  N   VAL E2011      -3.965 -20.599 -31.355  1.00 39.42 LIG 0.61  N 
BRANCH 18 20
ATOM     20  CB  VAL E2011      -1.880 -19.358 -30.635  1.00 43.12 LIG 0.03  C 
ATOM     21  CG2 VAL E2011      -1.378 -18.206 -29.768  1.00 41.73 LIG 0.01  C 
ATOM     22  CG1 VAL E2011      -1.552 -19.111 -32.110  1.00 40.75 LIG 0.01  C 
ENDBRANCH 18 20
ENDBRANCH 15 18
ENDBRANCH 13 14
BRANCH 13 23
ATOM     23  CB  MET E2012      -5.707 -16.245 -27.765  1.00 32.11 LIG 0.04  C 
BRANCH 23 24
ATOM     24  CG  MET E2012      -6.823 -15.203 -27.623  1.00 37.34 LIG 0.08  C 
BRANCH 24 25
ATOM     25 SD   MET E2012      -6.392 -13.755 -26.637  1.00 39.45 LIG-0.17  SA
ATOM     26  CE  MET E2012      -7.027 -12.449 -27.701  1.00 39.28 LIG 0.09  C 
ENDBRANCH 24 25
ENDBRANCH 23 24
ENDBRANCH 13 23
ENDBRANCH 10 13
ENDBRANCH 8 9
ENDBRANCH 1 8
BRANCH 4 27
ATOM     27  C   PRO E2014       2.541 -14.592 -27.444  1.00 21.57 LIG 0.24  C 
ATOM     28 O    PRO E2014       3.734 -14.221 -27.233  1.00 21.05 LIG-0.27  OA
ATOM     29  N   TRP E2015       1.609 -14.629 -26.487  1.00 20.29 LIG-0.34  N 
ATOM     30 H    TRP E2015       0.820 -14.956 -26.588  1.00 20.29 LIG 0.16  HD
BRANCH 29 31
ATOM     31  CA  TRP E2015       1.891 -14.090 -25.153  1.00 20.70 LIG 0.19  C 
BRANCH 31 32
ATOM     32  C   TRP E2015       0.690 -14.129 -24.216  1.00 20.18 LIG 0.20  C 
ATOM     33 O    TRP E2015      -0.262 -14.885 -24.388  1.00 21.31 LIG-0.65  OA
ATOM     34 OXT  TRP E2015       0.645 -13.353 -23.267  1.00 19.23 LIG-0.65  OA
ENDBRANCH 31 32
BRANCH 31 35
ATOM     35  CB  TRP E2015       2.371 -12.634 -25.250  1.00 21.64 LIG 0.08  C 
BRANCH 35 36
ATOM     36  CG  TRP E2015       1.733 -11.784 -26.347  1.00 22.27 LIG-0.03  A 
ATOM     37  CD2 TRP E2015       2.439 -10.895 -27.216  1.00 22.85 LIG-0.00  A 
ATOM     38  CE2 TRP E2015       1.494 -10.321 -28.101  1.00 23.44 LIG 0.04  A 
ATOM     39  CE3 TRP E2015       3.796 -10.538 -27.343  1.00 23.10 LIG 0.01  A 
ATOM     40  CZ2 TRP E2015       1.863  -9.390 -29.091  1.00 22.82 LIG 0.03  A 
ATOM     41  NE1 TRP E2015       0.260 -10.833 -27.783  1.00 23.03 LIG-0.36  N 
ATOM     42  CH2 TRP E2015       3.187  -9.042 -29.182  1.00 23.08 LIG 0.00  A 
ATOM     43  CZ3 TRP E2015       4.156  -9.602 -28.331  1.00 24.27 LIG 0.00  A 
ATOM     44 HE1  TRP E2015      -0.482 -10.627 -28.167  1.00 23.03 LIG 0.17  HD
ATOM     45  CD1 TRP E2015       0.406 -11.737 -26.737  1.00 22.46 LIG 0.10  A 
ENDBRANCH 35 36
ENDBRANCH 31 35
ENDBRANCH 29 31
ENDBRANCH 4 27
TORSDOF 14
ENDMDL
MODEL 25
USER: ADFR SOLUTION from run 144
USER: SCORE 11.737495 LL:  -2.829 LR:  -9.018 RR:   0.000 FEB:  -4.842
USER: RMSD 2.716034
USER: SEED 143
USER: STATUS no improvement in best in 9 clusters for 5 generations
USER: GENES 16
USER: genes 0 Translation |==|  0.53674 0.45508 0.58895
USER: genes 1 Rotation |==|  0.35365 0.32431 0.43895 0.94044
USER: genes 2 Torsion [N]-C--CA-[N] |==|  0.44033
USER: genes 3 Torsion [C]-CA--N-[C] |==|  0.78470
USER: genes 4 Torsion [N]-C--CA-[N] |==|  0.38966
USER: genes 5 Torsion [C]-CA--N-[C] |==|  0.82299
USER: genes 6 Torsion [N]-C--CA-[N] |==|  0.46733
USER: genes 7 Torsion [C]-CA--CB-[CG2] |==|  0.23649
USER: genes 8 Torsion [C]-CA--CB-[CG] |==|  0.97572
USER: genes 9 Torsion [CA]-CB--CG-[SD] |==|  0.46341
USER: genes 10 Torsion [CB]-CG--SD-[CE] |==|  0.04388
USER: genes 11 Torsion [N]-CA--C-[O] |==|  0.45612
USER: genes 12 Torsion [C]-N--CA-[C] |==|  0.80938
USER: genes 13 Torsion [N]-CA--C-[O] |==|  0.96785
USER: genes 14 Torsion [N]-CA--CB-[CG] |==|  0.65135
USER: genes 15 Torsion [CA]-CB--CG-[CD2] |==|  0.63437
ROOT
ATOM      1  C   GLY E2013       1.054 -17.159 -26.603  1.00 21.81 LIG 0.24  C 
ATOM      2 O    GLY E2013       0.579 -17.334 -25.469  1.00 22.84 LIG-0.27  OA
ATOM      3  N   PRO E2014       2.210 -16.522 -26.808  1.00 21.64 LIG-0.34  N 
ATOM      4  CA  PRO E2014       3.084 -16.043 -25.733  1.00 21.53 LIG 0.18  C 
ATOM      5  CB  PRO E2014       4.431 -15.884 -26.445  1.00 21.78 LIG 0.04  C 
ATOM      6  CG  PRO E2014       4.093 -15.613 -27.882  1.00 22.21 LIG 0.02  C 
ATOM      7  CD  PRO E2014       2.778 -16.301 -28.151  1.00 21.52 LIG 0.13  C 
ENDROOT
BRANCH 1 8
ATOM      8  CA  GLY E2013       0.335 -17.690 -27.837  1.00 23.09 LIG 0.23  C 
BRANCH 8 9
ATOM      9  N   GLY E2013      -0.578 -18.753 -27.419  1.00 25.21 LIG-0.35  N 
ATOM     10  C   MET E2012      -0.149 -19.981 -27.131  1.00 26.98 LIG 0.24  C 
ATOM     11 O    MET E2012       1.004 -20.373 -27.361  1.00 24.85 LIG-0.27  OA
ATOM     12 H    GLY E2013      -1.403 -18.513 -27.378  1.00 25.21 LIG 0.16  HD
BRANCH 10 13
ATOM     13  CA  MET E2012      -1.163 -20.889 -26.446  1.00 29.83 LIG 0.18  C 
BRANCH 13 14
ATOM     14  N   MET E2012      -1.096 -22.262 -26.949  1.00 30.84 LIG-0.35  N 
ATOM     15  C   VAL E2011      -1.376 -22.577 -28.207  1.00 36.49 LIG 0.26  C 
ATOM     16 O    VAL E2011      -1.788 -21.750 -29.033  1.00 38.00 LIG-0.27  OA
ATOM     17 H    MET E2012      -0.861 -22.840 -26.357  1.00 30.84 LIG 0.16  HD
BRANCH 15 18
ATOM     18  CA  VAL E2011      -1.170 -24.059 -28.584  1.00 39.95 LIG 0.40  C 
ATOM     19  N   VAL E2011      -1.775 -24.364 -29.921  1.00 39.42 LIG 0.61  N 
BRANCH 18 20
ATOM     20  CB  VAL E2011       0.330 -24.480 -28.520  1.00 43.12 LIG 0.03  C 
ATOM     21  CG2 VAL E2011       0.707 -24.881 -27.096  1.00 41.73 LIG 0.01  C 
ATOM     22  CG1 VAL E2011       1.264 -23.387 -29.043  1.00 40.75 LIG 0.01  C 
ENDBRANCH 18 20
ENDBRANCH 15 18
ENDBRANCH 13 14
BRANCH 13 23
ATOM     23  CB  MET E2012      -0.865 -20.856 -24.933  1.00 32.11 LIG 0.04  C 
BRANCH 23 24
ATOM     24  CG  MET E2012       0.422 -20.151 -24.490  1.00 37.34 LIG 0.08  C 
BRANCH 24 25
ATOM     25 SD   MET E2012       0.537 -19.816 -22.721  1.00 39.45 LIG-0.17  SA
ATOM     26  CE  MET E2012      -0.760 -20.904 -22.110  1.00 39.28 LIG 0.09  C 
ENDBRANCH 24 25
ENDBRANCH 23 24
ENDBRANCH 13 23
ENDBRANCH 10 13
ENDBRANCH 8 9
ENDBRANCH 1 8
BRANCH 4 27
ATOM     27  C   PRO E2014       2.640 -14.697 -25.123  1.00 21.57 LIG 0.24  C 
ATOM     28 O    PRO E2014       3.100 -14.299 -24.012  1.00 21.05 LIG-0.27  OA
ATOM     29  N   TRP E2015       1.767 -13.988 -25.845  1.00 20.29 LIG-0.34  N 
ATOM     30 H    TRP E2015       1.378 -14.273 -26.557  1.00 20.29 LIG 0.16  HD
BRANCH 29 31
ATOM     31  CA  TRP E2015       1.407 -12.622 -25.447  1.00 20.70 LIG 0.19  C 
BRANCH 31 32
ATOM     32  C   TRP E2015       0.594 -12.559 -24.161  1.00 20.18 LIG 0.20  C 
ATOM     33 O    TRP E2015       0.100 -13.553 -23.637  1.00 21.31 LIG-0.65  OA
ATOM     34 OXT  TRP E2015       0.387 -11.469 -23.636  1.00 19.23 LIG-0.65  OA
ENDBRANCH 31 32
BRANCH 31 35
ATOM     35  CB  TRP E2015       0.597 -11.935 -26.557  1.00 21.64 LIG 0.08  C 
BRANCH 35 36
ATOM     36  CG  TRP E2015       1.133 -10.594 -27.055  1.00 22.27 LIG-0.03  A 
ATOM     37  CD2 TRP E2015       0.355  -9.406 -27.220  1.00 22.85 LIG-0.00  A 
ATOM     38  CE2 TRP E2015       1.225  -8.384 -27.672  1.00 23.44 LIG 0.04  A 
ATOM     39  CE3 TRP E2015      -1.004  -9.101 -27.012  1.00 23.10 LIG 0.01  A 
ATOM     40  CZ2 TRP E2015       0.772  -7.078 -27.939  1.00 22.82 LIG 0.03  A 
ATOM     41  NE1 TRP E2015       2.482  -8.925 -27.784  1.00 23.03 LIG-0.36  N 
ATOM     42  CH2 TRP E2015      -0.560  -6.810 -27.749  1.00 23.08 LIG 0.00  A 
ATOM     43  CZ3 TRP E2015      -1.451  -7.795 -27.288  1.00 24.27 LIG 0.00  A 
ATOM     44 HE1  TRP E2015       3.184  -8.509 -28.055  1.00 23.03 LIG 0.17  HD
ATOM     45  CD1 TRP E2015       2.434 -10.258 -27.387  1.00 22.46 LIG 0.10  A 
ENDBRANCH 35 36
ENDBRANCH 31 35
ENDBRANCH 29 31
ENDBRANCH 4 27
TORSDOF 14
ENDMDL
MODEL 26
USER: ADFR SOLUTION from run 137
USER: SCORE 12.256451 LL:  -3.642 LR:  -9.011 RR:   0.000 FEB:  -4.835
USER: RMSD 3.570563
USER: SEED 136
USER: STATUS no improvement in best in 15 clusters for 5 generations
USER: GENES 16
USER: genes 0 Translation |==|  0.35979 0.53009 0.42033
USER: genes 1 Rotation |==|  0.55415 0.50050 0.49431 0.99703
USER: genes 2 Torsion [N]-C--CA-[N] |==|  0.54949
USER: genes 3 Torsion [C]-CA--N-[C] |==|  0.58658
USER: genes 4 Torsion [N]-C--CA-[N] |==|  0.90064
USER: genes 5 Torsion [C]-CA--N-[C] |==|  0.80264
USER: genes 6 Torsion [N]-C--CA-[N] |==|  0.78179
USER: genes 7 Torsion [C]-CA--CB-[CG2] |==|  0.55970
USER: genes 8 Torsion [C]-CA--CB-[CG] |==|  0.54033
USER: genes 9 Torsion [CA]-CB--CG-[SD] |==|  0.92058
USER: genes 10 Torsion [CB]-CG--SD-[CE] |==|  0.40478
USER: genes 11 Torsion [N]-CA--C-[O] |==|  0.92267
USER: genes 12 Torsion [C]-N--CA-[C] |==|  0.13234
USER: genes 13 Torsion [N]-CA--C-[O] |==|  0.06897
USER: genes 14 Torsion [N]-CA--CB-[CG] |==|  0.96454
USER: genes 15 Torsion [CA]-CB--CG-[CD2] |==|  0.31408
ROOT
ATOM      1  C   GLY E2013      -1.733 -15.246 -29.511  1.00 21.81 LIG 0.24  C 
ATOM      2 O    GLY E2013      -1.312 -16.238 -28.896  1.00 22.84 LIG-0.27  OA
ATOM      3  N   PRO E2014      -1.021 -14.124 -29.643  1.00 21.64 LIG-0.34  N 
ATOM      4  CA  PRO E2014       0.355 -13.966 -29.162  1.00 21.53 LIG 0.18  C 
ATOM      5  CB  PRO E2014       0.861 -12.774 -29.980  1.00 21.78 LIG 0.04  C 
ATOM      6  CG  PRO E2014      -0.363 -11.965 -30.302  1.00 22.21 LIG 0.02  C 
ATOM      7  CD  PRO E2014      -1.515 -12.937 -30.363  1.00 21.52 LIG 0.13  C 
ENDROOT
BRANCH 1 8
ATOM      8  CA  GLY E2013      -3.104 -15.269 -30.177  1.00 23.09 LIG 0.23  C 
BRANCH 8 9
ATOM      9  N   GLY E2013      -3.887 -16.354 -29.588  1.00 25.21 LIG-0.35  N 
ATOM     10  C   MET E2012      -4.805 -17.022 -30.285  1.00 26.98 LIG 0.24  C 
ATOM     11 O    MET E2012      -5.199 -16.673 -31.407  1.00 24.85 LIG-0.27  OA
ATOM     12 H    GLY E2013      -3.700 -16.517 -28.765  1.00 25.21 LIG 0.16  HD
BRANCH 10 13
ATOM     13  CA  MET E2012      -5.330 -18.295 -29.632  1.00 29.83 LIG 0.18  C 
BRANCH 13 14
ATOM     14  N   MET E2012      -4.284 -18.999 -28.887  1.00 30.84 LIG-0.35  N 
ATOM     15  C   VAL E2011      -3.285 -19.635 -29.485  1.00 36.49 LIG 0.26  C 
ATOM     16 O    VAL E2011      -3.200 -19.749 -30.716  1.00 38.00 LIG-0.27  OA
ATOM     17 H    MET E2012      -4.378 -18.962 -28.033  1.00 30.84 LIG 0.16  HD
BRANCH 15 18
ATOM     18  CA  VAL E2011      -2.229 -20.249 -28.544  1.00 39.95 LIG 0.40  C 
ATOM     19  N   VAL E2011      -1.283 -19.202 -28.039  1.00 39.42 LIG 0.61  N 
BRANCH 18 20
ATOM     20  CB  VAL E2011      -2.877 -21.053 -27.376  1.00 43.12 LIG 0.03  C 
ATOM     21  CG2 VAL E2011      -1.895 -21.184 -26.214  1.00 41.73 LIG 0.01  C 
ATOM     22  CG1 VAL E2011      -3.379 -22.427 -27.822  1.00 40.75 LIG 0.01  C 
ENDBRANCH 18 20
ENDBRANCH 15 18
ENDBRANCH 13 14
BRANCH 13 23
ATOM     23  CB  MET E2012      -6.480 -17.889 -28.688  1.00 32.11 LIG 0.04  C 
BRANCH 23 24
ATOM     24  CG  MET E2012      -6.945 -18.932 -27.665  1.00 37.34 LIG 0.08  C 
BRANCH 24 25
ATOM     25 SD   MET E2012      -6.716 -20.649 -28.169  1.00 39.45 LIG-0.17  SA
ATOM     26  CE  MET E2012      -6.344 -21.398 -26.575  1.00 39.28 LIG 0.09  C 
ENDBRANCH 24 25
ENDBRANCH 23 24
ENDBRANCH 13 23
ENDBRANCH 10 13
ENDBRANCH 8 9
ENDBRANCH 1 8
BRANCH 4 27
ATOM     27  C   PRO E2014       0.457 -13.660 -27.652  1.00 21.57 LIG 0.24  C 
ATOM     28 O    PRO E2014      -0.478 -13.064 -27.042  1.00 21.05 LIG-0.27  OA
ATOM     29  N   TRP E2015       1.572 -14.079 -27.046  1.00 20.29 LIG-0.34  N 
ATOM     30 H    TRP E2015       2.254 -14.408 -27.453  1.00 20.29 LIG 0.16  HD
BRANCH 29 31
ATOM     31  CA  TRP E2015       1.702 -13.995 -25.587  1.00 20.70 LIG 0.19  C 
BRANCH 31 32
ATOM     32  C   TRP E2015       0.490 -14.533 -24.837  1.00 20.18 LIG 0.20  C 
ATOM     33 O    TRP E2015      -0.275 -15.364 -25.319  1.00 21.31 LIG-0.65  OA
ATOM     34 OXT  TRP E2015       0.236 -14.099 -23.718  1.00 19.23 LIG-0.65  OA
ENDBRANCH 31 32
BRANCH 31 35
ATOM     35  CB  TRP E2015       1.925 -12.540 -25.150  1.00 21.64 LIG 0.08  C 
BRANCH 35 36
ATOM     36  CG  TRP E2015       2.268 -11.545 -26.257  1.00 22.27 LIG-0.03  A 
ATOM     37  CD2 TRP E2015       1.431 -10.469 -26.687  1.00 22.85 LIG-0.00  A 
ATOM     38  CE2 TRP E2015       2.120  -9.771 -27.708  1.00 23.44 LIG 0.04  A 
ATOM     39  CE3 TRP E2015       0.158 -10.015 -26.291  1.00 23.10 LIG 0.01  A 
ATOM     40  CZ2 TRP E2015       1.567  -8.650 -28.355  1.00 22.82 LIG 0.03  A 
ATOM     41  NE1 TRP E2015       3.328 -10.398 -27.900  1.00 23.03 LIG-0.36  N 
ATOM     42  CH2 TRP E2015       0.316  -8.239 -27.967  1.00 23.08 LIG 0.00  A 
ATOM     43  CZ3 TRP E2015      -0.392  -8.897 -26.947  1.00 24.27 LIG 0.00  A 
ATOM     44 HE1  TRP E2015       3.923 -10.171 -28.478  1.00 23.03 LIG 0.17  HD
ATOM     45  CD1 TRP E2015       3.430 -11.457 -27.004  1.00 22.46 LIG 0.10  A 
ENDBRANCH 35 36
ENDBRANCH 31 35
ENDBRANCH 29 31
ENDBRANCH 4 27
TORSDOF 14
ENDMDL
MODEL 27
USER: ADFR SOLUTION from run 173
USER: SCORE 12.219932 LL:  -3.749 LR:  -8.999 RR:   0.000 FEB:  -4.823
USER: RMSD 3.325478
USER: SEED 172
USER: STATUS no improvement in best in 10 clusters for 5 generations
USER: GENES 16
USER: genes 0 Translation |==|  0.47308 0.52466 0.44817
USER: genes 1 Rotation |==|  0.55170 0.53684 0.51825 0.99562
USER: genes 2 Torsion [N]-C--CA-[N] |==|  0.48333
USER: genes 3 Torsion [C]-CA--N-[C] |==|  0.80248
USER: genes 4 Torsion [N]-C--CA-[N] |==|  0.87931
USER: genes 5 Torsion [C]-CA--N-[C] |==|  0.67367
USER: genes 6 Torsion [N]-C--CA-[N] |==|  0.36388
USER: genes 7 Torsion [C]-CA--CB-[CG2] |==|  0.52338
USER: genes 8 Torsion [C]-CA--CB-[CG] |==|  0.66404
USER: genes 9 Torsion [CA]-CB--CG-[SD] |==|  0.79850
USER: genes 10 Torsion [CB]-CG--SD-[CE] |==|  0.39508
USER: genes 11 Torsion [N]-CA--C-[O] |==|  0.46916
USER: genes 12 Torsion [C]-N--CA-[C] |==|  0.64265
USER: genes 13 Torsion [N]-CA--C-[O] |==|  0.08527
USER: genes 14 Torsion [N]-CA--CB-[CG] |==|  0.87845
USER: genes 15 Torsion [CA]-CB--CG-[CD2] |==|  0.40078
ROOT
ATOM      1  C   GLY E2013       0.051 -15.384 -29.031  1.00 21.81 LIG 0.24  C 
ATOM      2 O    GLY E2013       0.658 -16.315 -28.478  1.00 22.84 LIG-0.27  OA
ATOM      3  N   PRO E2014       0.611 -14.193 -29.257  1.00 21.64 LIG-0.34  N 
ATOM      4  CA  PRO E2014       2.013 -13.878 -28.965  1.00 21.53 LIG 0.18  C 
ATOM      5  CB  PRO E2014       2.269 -12.649 -29.843  1.00 21.78 LIG 0.04  C 
ATOM      6  CG  PRO E2014       0.931 -11.985 -29.998  1.00 22.21 LIG 0.02  C 
ATOM      7  CD  PRO E2014      -0.104 -13.078 -29.904  1.00 21.52 LIG 0.13  C 
ENDROOT
BRANCH 1 8
ATOM      8  CA  GLY E2013      -1.385 -15.568 -29.506  1.00 23.09 LIG 0.23  C 
BRANCH 8 9
ATOM      9  N   GLY E2013      -1.766 -16.964 -29.302  1.00 25.21 LIG-0.35  N 
ATOM     10  C   MET E2012      -1.265 -17.950 -30.044  1.00 26.98 LIG 0.24  C 
ATOM     11 O    MET E2012      -0.590 -17.760 -31.066  1.00 24.85 LIG-0.27  OA
ATOM     12 H    GLY E2013      -2.335 -17.085 -28.668  1.00 25.21 LIG 0.16  HD
BRANCH 10 13
ATOM     13  CA  MET E2012      -1.535 -19.360 -29.534  1.00 29.83 LIG 0.18  C 
BRANCH 13 14
ATOM     14  N   MET E2012      -1.337 -19.467 -28.087  1.00 30.84 LIG-0.35  N 
ATOM     15  C   VAL E2011      -0.415 -20.254 -27.548  1.00 36.49 LIG 0.26  C 
ATOM     16 O    VAL E2011       0.297 -21.016 -28.218  1.00 38.00 LIG-0.27  OA
ATOM     17 H    MET E2012      -1.870 -18.975 -27.625  1.00 30.84 LIG 0.16  HD
BRANCH 15 18
ATOM     18  CA  VAL E2011      -0.289 -20.177 -26.013  1.00 39.95 LIG 0.40  C 
ATOM     19  N   VAL E2011      -0.289 -21.546 -25.403  1.00 39.42 LIG 0.61  N 
BRANCH 18 20
ATOM     20  CB  VAL E2011       0.952 -19.346 -25.564  1.00 43.12 LIG 0.03  C 
ATOM     21  CG2 VAL E2011       1.155 -19.469 -24.056  1.00 41.73 LIG 0.01  C 
ATOM     22  CG1 VAL E2011       0.851 -17.877 -25.982  1.00 40.75 LIG 0.01  C 
ENDBRANCH 18 20
ENDBRANCH 15 18
ENDBRANCH 13 14
BRANCH 13 23
ATOM     23  CB  MET E2012      -2.989 -19.714 -29.904  1.00 32.11 LIG 0.04  C 
BRANCH 23 24
ATOM     24  CG  MET E2012      -3.938 -20.066 -28.752  1.00 37.34 LIG 0.08  C 
BRANCH 24 25
ATOM     25 SD   MET E2012      -3.646 -21.674 -27.988  1.00 39.45 LIG-0.17  SA
ATOM     26  CE  MET E2012      -3.970 -21.268 -26.265  1.00 39.28 LIG 0.09  C 
ENDBRANCH 24 25
ENDBRANCH 23 24
ENDBRANCH 13 23
ENDBRANCH 10 13
ENDBRANCH 8 9
ENDBRANCH 1 8
BRANCH 4 27
ATOM     27  C   PRO E2014       2.280 -13.540 -27.482  1.00 21.57 LIG 0.24  C 
ATOM     28 O    PRO E2014       3.461 -13.452 -27.035  1.00 21.05 LIG-0.27  OA
ATOM     29  N   TRP E2015       1.198 -13.335 -26.726  1.00 20.29 LIG-0.34  N 
ATOM     30 H    TRP E2015       0.389 -13.472 -26.985  1.00 20.29 LIG 0.16  HD
BRANCH 29 31
ATOM     31  CA  TRP E2015       1.333 -12.842 -25.351  1.00 20.70 LIG 0.19  C 
BRANCH 31 32
ATOM     32  C   TRP E2015       0.579 -13.683 -24.328  1.00 20.18 LIG 0.20  C 
ATOM     33 O    TRP E2015       0.397 -14.890 -24.464  1.00 21.31 LIG-0.65  OA
ATOM     34 OXT  TRP E2015       0.098 -13.136 -23.341  1.00 19.23 LIG-0.65  OA
ENDBRANCH 31 32
BRANCH 31 35
ATOM     35  CB  TRP E2015       0.825 -11.396 -25.246  1.00 21.64 LIG 0.08  C 
BRANCH 35 36
ATOM     36  CG  TRP E2015       1.251 -10.447 -26.363  1.00 22.27 LIG-0.03  A 
ATOM     37  CD2 TRP E2015       0.445  -9.399 -26.906  1.00 22.85 LIG-0.00  A 
ATOM     38  CE2 TRP E2015       1.211  -8.738 -27.897  1.00 23.44 LIG 0.04  A 
ATOM     39  CE3 TRP E2015      -0.860  -8.941 -26.637  1.00 23.10 LIG 0.01  A 
ATOM     40  CZ2 TRP E2015       0.705  -7.651 -28.635  1.00 22.82 LIG 0.03  A 
ATOM     41  NE1 TRP E2015       2.435  -9.359 -27.961  1.00 23.03 LIG-0.36  N 
ATOM     42  CH2 TRP E2015      -0.576  -7.237 -28.369  1.00 23.08 LIG 0.00  A 
ATOM     43  CZ3 TRP E2015      -1.362  -7.858 -27.384  1.00 24.27 LIG 0.00  A 
ATOM     44 HE1  TRP E2015       3.074  -9.151 -28.498  1.00 23.03 LIG 0.17  HD
ATOM     45  CD1 TRP E2015       2.470 -10.378 -27.016  1.00 22.46 LIG 0.10  A 
ENDBRANCH 35 36
ENDBRANCH 31 35
ENDBRANCH 29 31
ENDBRANCH 4 27
TORSDOF 14
ENDMDL
MODEL 28
USER: ADFR SOLUTION from run 48
USER: SCORE 11.980034 LL:  -3.329 LR:  -8.962 RR:   0.000 FEB:  -4.785
USER: RMSD 3.851926
USER: SEED 47
USER: STATUS no improvement in best in 15 clusters for 5 generations
USER: GENES 16
USER: genes 0 Translation |==|  0.58411 0.48638 0.48438
USER: genes 1 Rotation |==|  0.49531 0.31273 0.33673 0.93388
USER: genes 2 Torsion [N]-C--CA-[N] |==|  0.51439
USER: genes 3 Torsion [C]-CA--N-[C] |==|  0.21454
USER: genes 4 Torsion [N]-C--CA-[N] |==|  0.20110
USER: genes 5 Torsion [C]-CA--N-[C] |==|  0.75710
USER: genes 6 Torsion [N]-C--CA-[N] |==|  0.38021
USER: genes 7 Torsion [C]-CA--CB-[CG2] |==|  0.38286
USER: genes 8 Torsion [C]-CA--CB-[CG] |==|  0.66816
USER: genes 9 Torsion [CA]-CB--CG-[SD] |==|  0.79522
USER: genes 10 Torsion [CB]-CG--SD-[CE] |==|  0.34303
USER: genes 11 Torsion [N]-CA--C-[O] |==|  0.47377
USER: genes 12 Torsion [C]-N--CA-[C] |==|  0.74356
USER: genes 13 Torsion [N]-CA--C-[O] |==|  0.51411
USER: genes 14 Torsion [N]-CA--CB-[CG] |==|  0.16265
USER: genes 15 Torsion [CA]-CB--CG-[CD2] |==|  0.45115
ROOT
ATOM      1  C   GLY E2013       1.800 -16.360 -28.406  1.00 21.81 LIG 0.24  C 
ATOM      2 O    GLY E2013       1.024 -17.045 -27.720  1.00 22.84 LIG-0.27  OA
ATOM      3  N   PRO E2014       3.008 -15.990 -27.974  1.00 21.64 LIG-0.34  N 
ATOM      4  CA  PRO E2014       3.587 -16.416 -26.696  1.00 21.53 LIG 0.18  C 
ATOM      5  CB  PRO E2014       5.084 -16.175 -26.911  1.00 21.78 LIG 0.04  C 
ATOM      6  CG  PRO E2014       5.168 -15.064 -27.918  1.00 22.21 LIG 0.02  C 
ATOM      7  CD  PRO E2014       3.933 -15.169 -28.777  1.00 21.52 LIG 0.13  C 
ENDROOT
BRANCH 1 8
ATOM      8  CA  GLY E2013       1.410 -15.918 -29.812  1.00 23.09 LIG 0.23  C 
BRANCH 8 9
ATOM      9  N   GLY E2013       0.022 -16.309 -30.052  1.00 25.21 LIG-0.35  N 
ATOM     10  C   MET E2012      -1.003 -15.629 -29.540  1.00 26.98 LIG 0.24  C 
ATOM     11 O    MET E2012      -0.874 -14.738 -28.687  1.00 24.85 LIG-0.27  OA
ATOM     12 H    GLY E2013      -0.067 -17.007 -30.546  1.00 25.21 LIG 0.16  HD
BRANCH 10 13
ATOM     13  CA  MET E2012      -2.375 -15.982 -30.102  1.00 29.83 LIG 0.18  C 
BRANCH 13 14
ATOM     14  N   MET E2012      -2.836 -17.292 -29.637  1.00 30.84 LIG-0.35  N 
ATOM     15  C   VAL E2011      -2.534 -18.421 -30.263  1.00 36.49 LIG 0.26  C 
ATOM     16 O    VAL E2011      -1.904 -18.452 -31.330  1.00 38.00 LIG-0.27  OA
ATOM     17 H    MET E2012      -3.318 -17.259 -28.925  1.00 30.84 LIG 0.16  HD
BRANCH 15 18
ATOM     18  CA  VAL E2011      -3.034 -19.713 -29.586  1.00 39.95 LIG 0.40  C 
ATOM     19  N   VAL E2011      -3.608 -20.663 -30.593  1.00 39.42 LIG 0.61  N 
BRANCH 18 20
ATOM     20  CB  VAL E2011      -1.927 -20.390 -28.721  1.00 43.12 LIG 0.03  C 
ATOM     21  CG2 VAL E2011      -2.513 -20.882 -27.400  1.00 41.73 LIG 0.01  C 
ATOM     22  CG1 VAL E2011      -0.733 -19.465 -28.475  1.00 40.75 LIG 0.01  C 
ENDBRANCH 18 20
ENDBRANCH 15 18
ENDBRANCH 13 14
BRANCH 13 23
ATOM     23  CB  MET E2012      -3.354 -14.878 -29.657  1.00 32.11 LIG 0.04  C 
BRANCH 23 24
ATOM     24  CG  MET E2012      -4.544 -15.307 -28.790  1.00 37.34 LIG 0.08  C 
BRANCH 24 25
ATOM     25 SD   MET E2012      -5.846 -16.194 -29.668  1.00 39.45 LIG-0.17  SA
ATOM     26  CE  MET E2012      -5.906 -17.709 -28.697  1.00 39.28 LIG 0.09  C 
ENDBRANCH 24 25
ENDBRANCH 23 24
ENDBRANCH 13 23
ENDBRANCH 10 13
ENDBRANCH 8 9
ENDBRANCH 1 8
BRANCH 4 27
ATOM     27  C   PRO E2014       3.084 -15.605 -25.483  1.00 21.57 LIG 0.24  C 
ATOM     28 O    PRO E2014       3.353 -15.966 -24.299  1.00 21.05 LIG-0.27  OA
ATOM     29  N   TRP E2015       2.374 -14.509 -25.767  1.00 20.29 LIG-0.34  N 
ATOM     30 H    TRP E2015       2.107 -14.292 -26.555  1.00 20.29 LIG 0.16  HD
BRANCH 29 31
ATOM     31  CA  TRP E2015       1.992 -13.574 -24.704  1.00 20.70 LIG 0.19  C 
BRANCH 31 32
ATOM     32  C   TRP E2015       0.625 -13.867 -24.099  1.00 20.18 LIG 0.20  C 
ATOM     33 O    TRP E2015       0.099 -13.139 -23.262  1.00 21.31 LIG-0.65  OA
ATOM     34 OXT  TRP E2015       0.031 -14.889 -24.427  1.00 19.23 LIG-0.65  OA
ENDBRANCH 31 32
BRANCH 31 35
ATOM     35  CB  TRP E2015       1.978 -12.133 -25.235  1.00 21.64 LIG 0.08  C 
BRANCH 35 36
ATOM     36  CG  TRP E2015       1.045 -11.855 -26.412  1.00 22.27 LIG-0.03  A 
ATOM     37  CD2 TRP E2015       0.607 -10.559 -26.828  1.00 22.85 LIG-0.00  A 
ATOM     38  CE2 TRP E2015      -0.220 -10.730 -27.965  1.00 23.44 LIG 0.04  A 
ATOM     39  CE3 TRP E2015       0.849  -9.255 -26.353  1.00 23.10 LIG 0.01  A 
ATOM     40  CZ2 TRP E2015      -0.824  -9.643 -28.625  1.00 22.82 LIG 0.03  A 
ATOM     41  NE1 TRP E2015      -0.289 -12.076 -28.231  1.00 23.03 LIG-0.36  N 
ATOM     42  CH2 TRP E2015      -0.589  -8.384 -28.130  1.00 23.08 LIG 0.00  A 
ATOM     43  CZ3 TRP E2015       0.237  -8.173 -27.013  1.00 24.27 LIG 0.00  A 
ATOM     44 HE1  TRP E2015      -0.744 -12.439 -28.865  1.00 23.03 LIG 0.17  HD
ATOM     45  CD1 TRP E2015       0.496 -12.757 -27.307  1.00 22.46 LIG 0.10  A 
ENDBRANCH 35 36
ENDBRANCH 31 35
ENDBRANCH 29 31
ENDBRANCH 4 27
TORSDOF 14
ENDMDL
MODEL 29
USER: ADFR SOLUTION from run 40
USER: SCORE 12.155586 LL:  -3.546 LR:  -8.942 RR:   0.000 FEB:  -4.765
USER: RMSD 4.424047
USER: SEED 39
USER: STATUS no improvement in best in 8 clusters for 5 generations
USER: GENES 16
USER: genes 0 Translation |==|  0.56491 0.54907 0.38631
USER: genes 1 Rotation |==|  0.59698 0.38275 0.45221 0.97388
USER: genes 2 Torsion [N]-C--CA-[N] |==|  0.57973
USER: genes 3 Torsion [C]-CA--N-[C] |==|  0.18800
USER: genes 4 Torsion [N]-C--CA-[N] |==|  0.26809
USER: genes 5 Torsion [C]-CA--N-[C] |==|  0.76111
USER: genes 6 Torsion [N]-C--CA-[N] |==|  0.37924
USER: genes 7 Torsion [C]-CA--CB-[CG2] |==|  0.06154
USER: genes 8 Torsion [C]-CA--CB-[CG] |==|  0.24117
USER: genes 9 Torsion [CA]-CB--CG-[SD] |==|  0.60284
USER: genes 10 Torsion [CB]-CG--SD-[CE] |==|  0.25504
USER: genes 11 Torsion [N]-CA--C-[O] |==|  0.45048
USER: genes 12 Torsion [C]-N--CA-[C] |==|  0.73510
USER: genes 13 Torsion [N]-CA--C-[O] |==|  0.89989
USER: genes 14 Torsion [N]-CA--CB-[CG] |==|  0.89978
USER: genes 15 Torsion [CA]-CB--CG-[CD2] |==|  0.44305
ROOT
ATOM      1  C   GLY E2013       1.497 -14.762 -30.098  1.00 21.81 LIG 0.24  C 
ATOM      2 O    GLY E2013       1.415 -15.894 -29.596  1.00 22.84 LIG-0.27  OA
ATOM      3  N   PRO E2014       2.373 -13.848 -29.673  1.00 21.64 LIG-0.34  N 
ATOM      4  CA  PRO E2014       3.384 -14.099 -28.641  1.00 21.53 LIG 0.18  C 
ATOM      5  CB  PRO E2014       4.403 -12.983 -28.892  1.00 21.78 LIG 0.04  C 
ATOM      6  CG  PRO E2014       3.619 -11.860 -29.510  1.00 22.21 LIG 0.02  C 
ATOM      7  CD  PRO E2014       2.473 -12.497 -30.255  1.00 21.52 LIG 0.13  C 
ENDROOT
BRANCH 1 8
ATOM      8  CA  GLY E2013       0.598 -14.360 -31.261  1.00 23.09 LIG 0.23  C 
BRANCH 8 9
ATOM      9  N   GLY E2013      -0.659 -15.099 -31.151  1.00 25.21 LIG-0.35  N 
ATOM     10  C   MET E2012      -1.526 -14.876 -30.165  1.00 26.98 LIG 0.24  C 
ATOM     11 O    MET E2012      -1.270 -14.174 -29.176  1.00 24.85 LIG-0.27  OA
ATOM     12 H    GLY E2013      -0.781 -15.679 -31.773  1.00 25.21 LIG 0.16  HD
BRANCH 10 13
ATOM     13  CA  MET E2012      -2.900 -15.511 -30.340  1.00 29.83 LIG 0.18  C 
BRANCH 13 14
ATOM     14  N   MET E2012      -3.005 -16.791 -29.637  1.00 30.84 LIG-0.35  N 
ATOM     15  C   VAL E2011      -2.621 -17.939 -30.180  1.00 36.49 LIG 0.26  C 
ATOM     16 O    VAL E2011      -2.217 -18.030 -31.348  1.00 38.00 LIG-0.27  OA
ATOM     17 H    MET E2012      -3.336 -16.729 -28.846  1.00 30.84 LIG 0.16  HD
BRANCH 15 18
ATOM     18  CA  VAL E2011      -2.725 -19.176 -29.265  1.00 39.95 LIG 0.40  C 
ATOM     19  N   VAL E2011      -3.301 -20.346 -30.003  1.00 39.42 LIG 0.61  N 
BRANCH 18 20
ATOM     20  CB  VAL E2011      -1.361 -19.530 -28.597  1.00 43.12 LIG 0.03  C 
ATOM     21  CG2 VAL E2011      -0.450 -18.306 -28.570  1.00 41.73 LIG 0.01  C 
ATOM     22  CG1 VAL E2011      -0.667 -20.711 -29.281  1.00 40.75 LIG 0.01  C 
ENDBRANCH 18 20
ENDBRANCH 15 18
ENDBRANCH 13 14
BRANCH 13 23
ATOM     23  CB  MET E2012      -3.942 -14.513 -29.797  1.00 32.11 LIG 0.04  C 
BRANCH 23 24
ATOM     24  CG  MET E2012      -4.462 -13.448 -30.770  1.00 37.34 LIG 0.08  C 
BRANCH 24 25
ATOM     25 SD   MET E2012      -4.761 -11.827 -30.036  1.00 39.45 LIG-0.17  SA
ATOM     26  CE  MET E2012      -3.164 -11.050 -30.329  1.00 39.28 LIG 0.09  C 
ENDBRANCH 24 25
ENDBRANCH 23 24
ENDBRANCH 13 23
ENDBRANCH 10 13
ENDBRANCH 8 9
ENDBRANCH 1 8
BRANCH 4 27
ATOM     27  C   PRO E2014       2.839 -14.010 -27.199  1.00 21.57 LIG 0.24  C 
ATOM     28 O    PRO E2014       3.474 -14.516 -26.228  1.00 21.05 LIG-0.27  OA
ATOM     29  N   TRP E2015       1.682 -13.358 -27.052  1.00 20.29 LIG-0.34  N 
ATOM     30 H    TRP E2015       1.191 -13.082 -27.703  1.00 20.29 LIG 0.16  HD
BRANCH 29 31
ATOM     31  CA  TRP E2015       1.157 -13.065 -25.714  1.00 20.70 LIG 0.19  C 
BRANCH 31 32
ATOM     32  C   TRP E2015       0.154 -14.097 -25.215  1.00 20.18 LIG 0.20  C 
ATOM     33 O    TRP E2015      -0.650 -14.654 -25.957  1.00 21.31 LIG-0.65  OA
ATOM     34 OXT  TRP E2015       0.114 -14.364 -24.018  1.00 19.23 LIG-0.65  OA
ENDBRANCH 31 32
BRANCH 31 35
ATOM     35  CB  TRP E2015       0.475 -11.689 -25.694  1.00 21.64 LIG 0.08  C 
BRANCH 35 36
ATOM     36  CG  TRP E2015       1.114 -10.604 -26.558  1.00 22.27 LIG-0.03  A 
ATOM     37  CD2 TRP E2015       0.455  -9.421 -27.018  1.00 22.85 LIG-0.00  A 
ATOM     38  CE2 TRP E2015       1.396  -8.668 -27.762  1.00 23.44 LIG 0.04  A 
ATOM     39  CE3 TRP E2015      -0.849  -8.914 -26.857  1.00 23.10 LIG 0.01  A 
ATOM     40  CZ2 TRP E2015       1.065  -7.438 -28.362  1.00 22.82 LIG 0.03  A 
ATOM     41  NE1 TRP E2015       2.580  -9.363 -27.762  1.00 23.03 LIG-0.36  N 
ATOM     42  CH2 TRP E2015      -0.218  -6.975 -28.209  1.00 23.08 LIG 0.00  A 
ATOM     43  CZ3 TRP E2015      -1.175  -7.688 -27.466  1.00 24.27 LIG 0.00  A 
ATOM     44 HE1  TRP E2015       3.303  -9.120 -28.160  1.00 23.03 LIG 0.17  HD
ATOM     45  CD1 TRP E2015       2.419 -10.524 -27.013  1.00 22.46 LIG 0.10  A 
ENDBRANCH 35 36
ENDBRANCH 31 35
ENDBRANCH 29 31
ENDBRANCH 4 27
TORSDOF 14
ENDMDL
MODEL 30
USER: ADFR SOLUTION from run 4
USER: SCORE 11.914808 LL:  -3.295 LR:  -8.931 RR:   0.000 FEB:  -4.755
USER: RMSD 4.119880
USER: SEED 793859
USER: STATUS no improvement in best in 19 clusters for 5 generations
USER: GENES 16
USER: genes 0 Translation |==|  0.51401 0.47420 0.55014
USER: genes 1 Rotation |==|  0.33639 0.25169 0.30626 0.85219
USER: genes 2 Torsion [N]-C--CA-[N] |==|  0.48524
USER: genes 3 Torsion [C]-CA--N-[C] |==|  0.47778
USER: genes 4 Torsion [N]-C--CA-[N] |==|  0.91413
USER: genes 5 Torsion [C]-CA--N-[C] |==|  0.79750
USER: genes 6 Torsion [N]-C--CA-[N] |==|  0.30328
USER: genes 7 Torsion [C]-CA--CB-[CG2] |==|  0.11571
USER: genes 8 Torsion [C]-CA--CB-[CG] |==|  0.89351
USER: genes 9 Torsion [CA]-CB--CG-[SD] |==|  0.27283
USER: genes 10 Torsion [CB]-CG--SD-[CE] |==|  0.64454
USER: genes 11 Torsion [N]-CA--C-[O] |==|  0.58650
USER: genes 12 Torsion [C]-N--CA-[C] |==|  0.79592
USER: genes 13 Torsion [N]-CA--C-[O] |==|  0.96292
USER: genes 14 Torsion [N]-CA--CB-[CG] |==|  0.60633
USER: genes 15 Torsion [CA]-CB--CG-[CD2] |==|  0.15153
ROOT
ATOM      1  C   GLY E2013       0.696 -16.671 -27.272  1.00 21.81 LIG 0.24  C 
ATOM      2 O    GLY E2013      -0.297 -16.481 -26.551  1.00 22.84 LIG-0.27  OA
ATOM      3  N   PRO E2014       1.946 -16.610 -26.807  1.00 21.64 LIG-0.34  N 
ATOM      4  CA  PRO E2014       2.286 -16.404 -25.396  1.00 21.53 LIG 0.18  C 
ATOM      5  CB  PRO E2014       3.728 -16.918 -25.322  1.00 21.78 LIG 0.04  C 
ATOM      6  CG  PRO E2014       4.292 -16.721 -26.699  1.00 22.21 LIG 0.02  C 
ATOM      7  CD  PRO E2014       3.131 -16.825 -27.657  1.00 21.52 LIG 0.13  C 
ENDROOT
BRANCH 1 8
ATOM      8  CA  GLY E2013       0.529 -17.009 -28.749  1.00 23.09 LIG 0.23  C 
BRANCH 8 9
ATOM      9  N   GLY E2013      -0.897 -17.153 -29.033  1.00 25.21 LIG-0.35  N 
ATOM     10  C   MET E2012      -1.361 -17.295 -30.274  1.00 26.98 LIG 0.24  C 
ATOM     11 O    MET E2012      -0.662 -17.137 -31.286  1.00 24.85 LIG-0.27  OA
ATOM     12 H    GLY E2013      -1.399 -17.138 -28.335  1.00 25.21 LIG 0.16  HD
BRANCH 10 13
ATOM     13  CA  MET E2012      -2.821 -17.714 -30.388  1.00 29.83 LIG 0.18  C 
BRANCH 13 14
ATOM     14  N   MET E2012      -3.240 -18.551 -29.262  1.00 30.84 LIG-0.35  N 
ATOM     15  C   VAL E2011      -2.851 -19.811 -29.125  1.00 36.49 LIG 0.26  C 
ATOM     16 O    VAL E2011      -2.167 -20.402 -29.973  1.00 38.00 LIG-0.27  OA
ATOM     17 H    MET E2012      -3.758 -18.151 -28.704  1.00 30.84 LIG 0.16  HD
BRANCH 15 18
ATOM     18  CA  VAL E2011      -3.319 -20.516 -27.835  1.00 39.95 LIG 0.40  C 
ATOM     19  N   VAL E2011      -4.361 -21.552 -28.135  1.00 39.42 LIG 0.61  N 
BRANCH 18 20
ATOM     20  CB  VAL E2011      -2.128 -21.114 -27.025  1.00 43.12 LIG 0.03  C 
ATOM     21  CG2 VAL E2011      -0.954 -20.138 -27.011  1.00 41.73 LIG 0.01  C 
ATOM     22  CG1 VAL E2011      -1.692 -22.482 -27.554  1.00 40.75 LIG 0.01  C 
ENDBRANCH 18 20
ENDBRANCH 15 18
ENDBRANCH 13 14
BRANCH 13 23
ATOM     23  CB  MET E2012      -3.667 -16.426 -30.443  1.00 32.11 LIG 0.04  C 
BRANCH 23 24
ATOM     24  CG  MET E2012      -3.224 -15.259 -29.552  1.00 37.34 LIG 0.08  C 
BRANCH 24 25
ATOM     25 SD   MET E2012      -2.250 -13.991 -30.387  1.00 39.45 LIG-0.17  SA
ATOM     26  CE  MET E2012      -0.833 -13.901 -29.280  1.00 39.28 LIG 0.09  C 
ENDBRANCH 24 25
ENDBRANCH 23 24
ENDBRANCH 13 23
ENDBRANCH 10 13
ENDBRANCH 8 9
ENDBRANCH 1 8
BRANCH 4 27
ATOM     27  C   PRO E2014       2.222 -14.929 -24.948  1.00 21.57 LIG 0.24  C 
ATOM     28 O    PRO E2014       2.986 -14.487 -24.040  1.00 21.05 LIG-0.27  OA
ATOM     29  N   TRP E2015       1.332 -14.163 -25.586  1.00 20.29 LIG-0.34  N 
ATOM     30 H    TRP E2015       0.746 -14.457 -26.143  1.00 20.29 LIG 0.16  HD
BRANCH 29 31
ATOM     31  CA  TRP E2015       1.301 -12.714 -25.364  1.00 20.70 LIG 0.19  C 
BRANCH 31 32
ATOM     32  C   TRP E2015       0.722 -12.319 -24.012  1.00 20.18 LIG 0.20  C 
ATOM     33 O    TRP E2015       0.108 -13.105 -23.296  1.00 21.31 LIG-0.65  OA
ATOM     34 OXT  TRP E2015       0.835 -11.159 -23.627  1.00 19.23 LIG-0.65  OA
ENDBRANCH 31 32
BRANCH 31 35
ATOM     35  CB  TRP E2015       0.475 -12.020 -26.457  1.00 21.64 LIG 0.08  C 
BRANCH 35 36
ATOM     36  CG  TRP E2015       1.001 -10.674 -26.952  1.00 22.27 LIG-0.03  A 
ATOM     37  CD2 TRP E2015       2.318 -10.440 -27.459  1.00 22.85 LIG-0.00  A 
ATOM     38  CE2 TRP E2015       2.397  -9.077 -27.834  1.00 23.44 LIG 0.04  A 
ATOM     39  CE3 TRP E2015       3.444 -11.265 -27.647  1.00 23.10 LIG 0.01  A 
ATOM     40  CZ2 TRP E2015       3.570  -8.514 -28.371  1.00 22.82 LIG 0.03  A 
ATOM     41  NE1 TRP E2015       1.180  -8.499 -27.563  1.00 23.03 LIG-0.36  N 
ATOM     42  CH2 TRP E2015       4.661  -9.332 -28.526  1.00 23.08 LIG 0.00  A 
ATOM     43  CZ3 TRP E2015       4.616 -10.693 -28.179  1.00 24.27 LIG 0.00  A 
ATOM     44 HE1  TRP E2015       0.980  -7.672 -27.689  1.00 23.03 LIG 0.17  HD
ATOM     45  CD1 TRP E2015       0.326  -9.470 -27.052  1.00 22.46 LIG 0.10  A 
ENDBRANCH 35 36
ENDBRANCH 31 35
ENDBRANCH 29 31
ENDBRANCH 4 27
TORSDOF 14
ENDMDL
MODEL 31
USER: ADFR SOLUTION from run 119
USER: SCORE 11.375131 LL:  -3.245 LR:  -8.924 RR:   0.000 FEB:  -4.748
USER: RMSD 3.163241
USER: SEED 118
USER: STATUS no improvement in best in 18 clusters for 5 generations
USER: GENES 16
USER: genes 0 Translation |==|  0.42557 0.52248 0.55067
USER: genes 1 Rotation |==|  0.31196 0.25971 0.23838 0.79742
USER: genes 2 Torsion [N]-C--CA-[N] |==|  0.25956
USER: genes 3 Torsion [C]-CA--N-[C] |==|  0.71781
USER: genes 4 Torsion [N]-C--CA-[N] |==|  0.40556
USER: genes 5 Torsion [C]-CA--N-[C] |==|  0.83216
USER: genes 6 Torsion [N]-C--CA-[N] |==|  0.47169
USER: genes 7 Torsion [C]-CA--CB-[CG2] |==|  0.24359
USER: genes 8 Torsion [C]-CA--CB-[CG] |==|  0.77547
USER: genes 9 Torsion [CA]-CB--CG-[SD] |==|  0.29277
USER: genes 10 Torsion [CB]-CG--SD-[CE] |==|  0.20103
USER: genes 11 Torsion [N]-CA--C-[O] |==|  0.49509
USER: genes 12 Torsion [C]-N--CA-[C] |==|  0.81374
USER: genes 13 Torsion [N]-CA--C-[O] |==|  0.12004
USER: genes 14 Torsion [N]-CA--CB-[CG] |==|  0.19466
USER: genes 15 Torsion [CA]-CB--CG-[CD2] |==|  0.30621
ROOT
ATOM      1  C   GLY E2013      -0.697 -15.440 -27.263  1.00 21.81 LIG 0.24  C 
ATOM      2 O    GLY E2013      -1.660 -14.921 -26.675  1.00 22.84 LIG-0.27  OA
ATOM      3  N   PRO E2014       0.428 -15.787 -26.633  1.00 21.64 LIG-0.34  N 
ATOM      4  CA  PRO E2014       0.622 -15.682 -25.184  1.00 21.53 LIG 0.18  C 
ATOM      5  CB  PRO E2014       1.789 -16.642 -24.932  1.00 21.78 LIG 0.04  C 
ATOM      6  CG  PRO E2014       2.569 -16.665 -26.216  1.00 22.21 LIG 0.02  C 
ATOM      7  CD  PRO E2014       1.581 -16.395 -27.323  1.00 21.52 LIG 0.13  C 
ENDROOT
BRANCH 1 8
ATOM      8  CA  GLY E2013      -0.763 -15.728 -28.758  1.00 23.09 LIG 0.23  C 
BRANCH 8 9
ATOM      9  N   GLY E2013      -1.394 -17.033 -28.950  1.00 25.21 LIG-0.35  N 
ATOM     10  C   MET E2012      -0.685 -18.128 -29.218  1.00 26.98 LIG 0.24  C 
ATOM     11 O    MET E2012       0.521 -18.109 -29.502  1.00 24.85 LIG-0.27  OA
ATOM     12 H    GLY E2013      -2.251 -17.024 -28.875  1.00 25.21 LIG 0.16  HD
BRANCH 10 13
ATOM     13  CA  MET E2012      -1.444 -19.446 -29.112  1.00 29.83 LIG 0.18  C 
BRANCH 13 14
ATOM     14  N   MET E2012      -0.979 -20.426 -30.095  1.00 30.84 LIG-0.35  N 
ATOM     15  C   VAL E2011      -1.041 -20.213 -31.402  1.00 36.49 LIG 0.26  C 
ATOM     16 O    VAL E2011      -1.566 -19.205 -31.897  1.00 38.00 LIG-0.27  OA
ATOM     17 H    MET E2012      -0.664 -21.147 -29.746  1.00 30.84 LIG 0.16  HD
BRANCH 15 18
ATOM     18  CA  VAL E2011      -0.427 -21.318 -32.287  1.00 39.95 LIG 0.40  C 
ATOM     19  N   VAL E2011      -0.765 -21.102 -33.731  1.00 39.42 LIG 0.61  N 
BRANCH 18 20
ATOM     20  CB  VAL E2011       1.110 -21.460 -32.070  1.00 43.12 LIG 0.03  C 
ATOM     21  CG2 VAL E2011       1.397 -22.425 -30.922  1.00 41.73 LIG 0.01  C 
ATOM     22  CG1 VAL E2011       1.792 -20.111 -31.829  1.00 40.75 LIG 0.01  C 
ENDBRANCH 18 20
ENDBRANCH 15 18
ENDBRANCH 13 14
BRANCH 13 23
ATOM     23  CB  MET E2012      -1.241 -19.981 -27.681  1.00 32.11 LIG 0.04  C 
BRANCH 23 24
ATOM     24  CG  MET E2012       0.073 -20.717 -27.390  1.00 37.34 LIG 0.08  C 
BRANCH 24 25
ATOM     25 SD   MET E2012       1.271 -19.780 -26.419  1.00 39.45 LIG-0.17  SA
ATOM     26  CE  MET E2012       0.475 -19.827 -24.805  1.00 39.28 LIG 0.09  C 
ENDBRANCH 24 25
ENDBRANCH 23 24
ENDBRANCH 13 23
ENDBRANCH 10 13
ENDBRANCH 8 9
ENDBRANCH 1 8
BRANCH 4 27
ATOM     27  C   PRO E2014       0.986 -14.261 -24.705  1.00 21.57 LIG 0.24  C 
ATOM     28 O    PRO E2014       1.152 -14.008 -23.475  1.00 21.05 LIG-0.27  OA
ATOM     29  N   TRP E2015       1.129 -13.341 -25.663  1.00 20.29 LIG-0.34  N 
ATOM     30 H    TRP E2015       0.940 -13.467 -26.492  1.00 20.29 LIG 0.16  HD
BRANCH 29 31
ATOM     31  CA  TRP E2015       1.639 -12.004 -25.341  1.00 20.70 LIG 0.19  C 
BRANCH 31 32
ATOM     32  C   TRP E2015       0.691 -11.186 -24.473  1.00 20.18 LIG 0.20  C 
ATOM     33 O    TRP E2015       0.100 -11.659 -23.506  1.00 21.31 LIG-0.65  OA
ATOM     34 OXT  TRP E2015       0.475 -10.013 -24.762  1.00 19.23 LIG-0.65  OA
ENDBRANCH 31 32
BRANCH 31 35
ATOM     35  CB  TRP E2015       1.911 -11.209 -26.627  1.00 21.64 LIG 0.08  C 
BRANCH 35 36
ATOM     36  CG  TRP E2015       0.685 -10.769 -27.424  1.00 22.27 LIG-0.03  A 
ATOM     37  CD2 TRP E2015       0.228  -9.421 -27.557  1.00 22.85 LIG-0.00  A 
ATOM     38  CE2 TRP E2015      -0.915  -9.436 -28.392  1.00 23.44 LIG 0.04  A 
ATOM     39  CE3 TRP E2015       0.690  -8.188 -27.057  1.00 23.10 LIG 0.01  A 
ATOM     40  CZ2 TRP E2015      -1.617  -8.262 -28.724  1.00 22.82 LIG 0.03  A 
ATOM     41  NE1 TRP E2015      -1.152 -10.741 -28.752  1.00 23.03 LIG-0.36  N 
ATOM     42  CH2 TRP E2015      -1.161  -7.075 -28.208  1.00 23.08 LIG 0.00  A 
ATOM     43  CZ3 TRP E2015      -0.021  -7.018 -27.387  1.00 24.27 LIG 0.00  A 
ATOM     44 HE1  TRP E2015      -1.801 -11.014 -29.246  1.00 23.03 LIG 0.17  HD
ATOM     45  CD1 TRP E2015      -0.169 -11.547 -28.187  1.00 22.46 LIG 0.10  A 
ENDBRANCH 35 36
ENDBRANCH 31 35
ENDBRANCH 29 31
ENDBRANCH 4 27
TORSDOF 14
ENDMDL
MODEL 32
USER: ADFR SOLUTION from run 101
USER: SCORE 12.185997 LL:  -3.848 LR:  -8.899 RR:   0.000 FEB:  -4.723
USER: RMSD 4.708587
USER: SEED 100
USER: STATUS no improvement in best in 13 clusters for 5 generations
USER: GENES 16
USER: genes 0 Translation |==|  0.66449 0.48229 0.42417
USER: genes 1 Rotation |==|  0.53372 0.37644 0.62977 0.96557
USER: genes 2 Torsion [N]-C--CA-[N] |==|  0.82787
USER: genes 3 Torsion [C]-CA--N-[C] |==|  0.84297
USER: genes 4 Torsion [N]-C--CA-[N] |==|  0.37923
USER: genes 5 Torsion [C]-CA--N-[C] |==|  0.70865
USER: genes 6 Torsion [N]-C--CA-[N] |==|  0.89005
USER: genes 7 Torsion [C]-CA--CB-[CG2] |==|  0.89562
USER: genes 8 Torsion [C]-CA--CB-[CG] |==|  0.29101
USER: genes 9 Torsion [CA]-CB--CG-[SD] |==|  0.18380
USER: genes 10 Torsion [CB]-CG--SD-[CE] |==|  0.48803
USER: genes 11 Torsion [N]-CA--C-[O] |==|  0.35580
USER: genes 12 Torsion [C]-N--CA-[C] |==|  0.74734
USER: genes 13 Torsion [N]-CA--C-[O] |==|  0.26969
USER: genes 14 Torsion [N]-CA--CB-[CG] |==|  0.84732
USER: genes 15 Torsion [CA]-CB--CG-[CD2] |==|  0.52713
ROOT
ATOM      1  C   GLY E2013       3.066 -16.465 -29.445  1.00 21.81 LIG 0.24  C 
ATOM      2 O    GLY E2013       3.475 -17.181 -28.517  1.00 22.84 LIG-0.27  OA
ATOM      3  N   PRO E2014       3.175 -15.134 -29.429  1.00 21.64 LIG-0.34  N 
ATOM      4  CA  PRO E2014       3.859 -14.380 -28.373  1.00 21.53 LIG 0.18  C 
ATOM      5  CB  PRO E2014       4.149 -13.039 -29.055  1.00 21.78 LIG 0.04  C 
ATOM      6  CG  PRO E2014       3.078 -12.881 -30.095  1.00 22.21 LIG 0.02  C 
ATOM      7  CD  PRO E2014       2.685 -14.273 -30.521  1.00 21.52 LIG 0.13  C 
ENDROOT
BRANCH 1 8
ATOM      8  CA  GLY E2013       2.425 -17.085 -30.681  1.00 23.09 LIG 0.23  C 
BRANCH 8 9
ATOM      9  N   GLY E2013       1.052 -16.596 -30.786  1.00 25.21 LIG-0.35  N 
ATOM     10  C   MET E2012       0.169 -16.750 -29.800  1.00 26.98 LIG 0.24  C 
ATOM     11 O    MET E2012       0.372 -17.463 -28.806  1.00 24.85 LIG-0.27  OA
ATOM     12 H    GLY E2013       0.872 -16.208 -31.532  1.00 25.21 LIG 0.16  HD
BRANCH 10 13
ATOM     13  CA  MET E2012      -1.120 -15.949 -29.940  1.00 29.83 LIG 0.18  C 
BRANCH 13 14
ATOM     14  N   MET E2012      -2.299 -16.747 -29.600  1.00 30.84 LIG-0.35  N 
ATOM     15  C   VAL E2011      -3.128 -17.226 -30.519  1.00 36.49 LIG 0.26  C 
ATOM     16 O    VAL E2011      -3.013 -16.973 -31.727  1.00 38.00 LIG-0.27  OA
ATOM     17 H    MET E2012      -2.403 -16.875 -28.756  1.00 30.84 LIG 0.16  HD
BRANCH 15 18
ATOM     18  CA  VAL E2011      -4.269 -18.116 -29.987  1.00 39.95 LIG 0.40  C 
ATOM     19  N   VAL E2011      -3.786 -19.013 -28.887  1.00 39.42 LIG 0.61  N 
BRANCH 18 20
ATOM     20  CB  VAL E2011      -5.510 -17.281 -29.546  1.00 43.12 LIG 0.03  C 
ATOM     21  CG2 VAL E2011      -5.066 -15.981 -28.881  1.00 41.73 LIG 0.01  C 
ATOM     22  CG1 VAL E2011      -6.447 -18.069 -28.627  1.00 40.75 LIG 0.01  C 
ENDBRANCH 18 20
ENDBRANCH 15 18
ENDBRANCH 13 14
BRANCH 13 23
ATOM     23  CB  MET E2012      -1.009 -14.729 -29.003  1.00 32.11 LIG 0.04  C 
BRANCH 23 24
ATOM     24  CG  MET E2012      -0.733 -13.370 -29.657  1.00 37.34 LIG 0.08  C 
BRANCH 24 25
ATOM     25 SD   MET E2012      -2.060 -12.747 -30.708  1.00 39.45 LIG-0.17  SA
ATOM     26  CE  MET E2012      -1.391 -11.132 -31.138  1.00 39.28 LIG 0.09  C 
ENDBRANCH 24 25
ENDBRANCH 23 24
ENDBRANCH 13 23
ENDBRANCH 10 13
ENDBRANCH 8 9
ENDBRANCH 1 8
BRANCH 4 27
ATOM     27  C   PRO E2014       3.002 -14.162 -27.108  1.00 21.57 LIG 0.24  C 
ATOM     28 O    PRO E2014       3.442 -14.465 -25.960  1.00 21.05 LIG-0.27  OA
ATOM     29  N   TRP E2015       1.795 -13.625 -27.306  1.00 20.29 LIG-0.34  N 
ATOM     30 H    TRP E2015       1.442 -13.490 -28.079  1.00 20.29 LIG 0.16  HD
BRANCH 29 31
ATOM     31  CA  TRP E2015       0.965 -13.216 -26.167  1.00 20.70 LIG 0.19  C 
BRANCH 31 32
ATOM     32  C   TRP E2015       0.032 -14.313 -25.671  1.00 20.18 LIG 0.20  C 
ATOM     33 O    TRP E2015       0.306 -15.039 -24.720  1.00 21.31 LIG-0.65  OA
ATOM     34 OXT  TRP E2015      -1.025 -14.513 -26.262  1.00 19.23 LIG-0.65  OA
ENDBRANCH 31 32
BRANCH 31 35
ATOM     35  CB  TRP E2015       0.111 -11.994 -26.536  1.00 21.64 LIG 0.08  C 
BRANCH 35 36
ATOM     36  CG  TRP E2015       0.864 -10.777 -27.067  1.00 22.27 LIG-0.03  A 
ATOM     37  CD2 TRP E2015       0.294  -9.483 -27.279  1.00 22.85 LIG-0.00  A 
ATOM     38  CE2 TRP E2015       1.324  -8.633 -27.751  1.00 23.44 LIG 0.04  A 
ATOM     39  CE3 TRP E2015      -0.998  -8.952 -27.099  1.00 23.10 LIG 0.01  A 
ATOM     40  CZ2 TRP E2015       1.095  -7.279 -28.064  1.00 22.82 LIG 0.03  A 
ATOM     41  NE1 TRP E2015       2.476  -9.377 -27.829  1.00 23.03 LIG-0.36  N 
ATOM     42  CH2 TRP E2015      -0.177  -6.790 -27.900  1.00 23.08 LIG 0.00  A 
ATOM     43  CZ3 TRP E2015      -1.222  -7.599 -27.421  1.00 24.27 LIG 0.00  A 
ATOM     44 HE1  TRP E2015       3.239  -9.091 -28.104  1.00 23.03 LIG 0.17  HD
ATOM     45  CD1 TRP E2015       2.205 -10.669 -27.392  1.00 22.46 LIG 0.10  A 
ENDBRANCH 35 36
ENDBRANCH 31 35
ENDBRANCH 29 31
ENDBRANCH 4 27
TORSDOF 14
ENDMDL
MODEL 33
USER: ADFR SOLUTION from run 144
USER: SCORE 11.615158 LL:  -3.627 LR:  -8.841 RR:   0.000 FEB:  -4.665
USER: RMSD 4.120853
USER: SEED 143
USER: STATUS no improvement in best in 9 clusters for 5 generations
USER: GENES 16
USER: genes 0 Translation |==|  0.53560 0.48056 0.46373
USER: genes 1 Rotation |==|  0.55891 0.61799 0.68212 0.94659
USER: genes 2 Torsion [N]-C--CA-[N] |==|  0.69542
USER: genes 3 Torsion [C]-CA--N-[C] |==|  0.78772
USER: genes 4 Torsion [N]-C--CA-[N] |==|  0.40000
USER: genes 5 Torsion [C]-CA--N-[C] |==|  0.72726
USER: genes 6 Torsion [N]-C--CA-[N] |==|  0.83218
USER: genes 7 Torsion [C]-CA--CB-[CG2] |==|  0.11709
USER: genes 8 Torsion [C]-CA--CB-[CG] |==|  0.12000
USER: genes 9 Torsion [CA]-CB--CG-[SD] |==|  0.57735
USER: genes 10 Torsion [CB]-CG--SD-[CE] |==|  0.20496
USER: genes 11 Torsion [N]-CA--C-[O] |==|  0.32907
USER: genes 12 Torsion [C]-N--CA-[C] |==|  0.65358
USER: genes 13 Torsion [N]-CA--C-[O] |==|  0.09047
USER: genes 14 Torsion [N]-CA--CB-[CG] |==|  0.85701
USER: genes 15 Torsion [CA]-CB--CG-[CD2] |==|  0.41166
ROOT
ATOM      1  C   GLY E2013       1.036 -16.509 -28.763  1.00 21.81 LIG 0.24  C 
ATOM      2 O    GLY E2013       2.216 -16.813 -28.526  1.00 22.84 LIG-0.27  OA
ATOM      3  N   PRO E2014       0.632 -15.243 -28.898  1.00 21.64 LIG-0.34  N 
ATOM      4  CA  PRO E2014       1.535 -14.088 -28.873  1.00 21.53 LIG 0.18  C 
ATOM      5  CB  PRO E2014       0.705 -13.000 -29.561  1.00 21.78 LIG 0.04  C 
ATOM      6  CG  PRO E2014      -0.728 -13.368 -29.301  1.00 22.21 LIG 0.02  C 
ATOM      7  CD  PRO E2014      -0.768 -14.870 -29.170  1.00 21.52 LIG 0.13  C 
ENDROOT
BRANCH 1 8
ATOM      8  CA  GLY E2013      -0.026 -17.589 -28.933  1.00 23.09 LIG 0.23  C 
BRANCH 8 9
ATOM      9  N   GLY E2013      -0.288 -18.192 -27.628  1.00 25.21 LIG-0.35  N 
ATOM     10  C   MET E2012       0.550 -19.065 -27.071  1.00 26.98 LIG 0.24  C 
ATOM     11 O    MET E2012       1.508 -19.571 -27.673  1.00 24.85 LIG-0.27  OA
ATOM     12 H    GLY E2013      -1.021 -17.933 -27.261  1.00 25.21 LIG 0.16  HD
BRANCH 10 13
ATOM     13  CA  MET E2012       0.288 -19.386 -25.605  1.00 29.83 LIG 0.18  C 
BRANCH 13 14
ATOM     14  N   MET E2012       0.570 -20.788 -25.292  1.00 30.84 LIG-0.35  N 
ATOM     15  C   VAL E2011      -0.379 -21.712 -25.233  1.00 36.49 LIG 0.26  C 
ATOM     16 O    VAL E2011      -1.584 -21.449 -25.360  1.00 38.00 LIG-0.27  OA
ATOM     17 H    MET E2012       1.402 -20.954 -25.152  1.00 30.84 LIG 0.16  HD
BRANCH 15 18
ATOM     18  CA  VAL E2011       0.108 -23.152 -24.975  1.00 39.95 LIG 0.40  C 
ATOM     19  N   VAL E2011       1.032 -23.611 -26.062  1.00 39.42 LIG 0.61  N 
BRANCH 18 20
ATOM     20  CB  VAL E2011       0.754 -23.311 -23.564  1.00 43.12 LIG 0.03  C 
ATOM     21  CG2 VAL E2011      -0.068 -22.564 -22.517  1.00 41.73 LIG 0.01  C 
ATOM     22  CG1 VAL E2011       2.214 -22.854 -23.537  1.00 40.75 LIG 0.01  C 
ENDBRANCH 18 20
ENDBRANCH 15 18
ENDBRANCH 13 14
BRANCH 13 23
ATOM     23  CB  MET E2012       1.186 -18.457 -24.762  1.00 32.11 LIG 0.04  C 
BRANCH 23 24
ATOM     24  CG  MET E2012       1.273 -16.988 -25.195  1.00 37.34 LIG 0.08  C 
BRANCH 24 25
ATOM     25 SD   MET E2012       2.815 -16.157 -24.762  1.00 39.45 LIG-0.17  SA
ATOM     26  CE  MET E2012       3.925 -16.907 -25.965  1.00 39.28 LIG 0.09  C 
ENDBRANCH 24 25
ENDBRANCH 23 24
ENDBRANCH 13 23
ENDBRANCH 10 13
ENDBRANCH 8 9
ENDBRANCH 1 8
BRANCH 4 27
ATOM     27  C   PRO E2014       1.932 -13.637 -27.451  1.00 21.57 LIG 0.24  C 
ATOM     28 O    PRO E2014       3.140 -13.655 -27.073  1.00 21.05 LIG-0.27  OA
ATOM     29  N   TRP E2015       0.931 -13.220 -26.670  1.00 20.29 LIG-0.34  N 
ATOM     30 H    TRP E2015       0.097 -13.279 -26.873  1.00 20.29 LIG 0.16  HD
BRANCH 29 31
ATOM     31  CA  TRP E2015       1.208 -12.611 -25.365  1.00 20.70 LIG 0.19  C 
BRANCH 31 32
ATOM     32  C   TRP E2015       0.495 -13.301 -24.209  1.00 20.18 LIG 0.20  C 
ATOM     33 O    TRP E2015       0.263 -14.506 -24.196  1.00 21.31 LIG-0.65  OA
ATOM     34 OXT  TRP E2015       0.100 -12.628 -23.262  1.00 19.23 LIG-0.65  OA
ENDBRANCH 31 32
BRANCH 31 35
ATOM     35  CB  TRP E2015       0.796 -11.131 -25.364  1.00 21.64 LIG 0.08  C 
BRANCH 35 36
ATOM     36  CG  TRP E2015       1.337 -10.277 -26.509  1.00 22.27 LIG-0.03  A 
ATOM     37  CD2 TRP E2015       0.661  -9.162 -27.095  1.00 22.85 LIG-0.00  A 
ATOM     38  CE2 TRP E2015       1.505  -8.629 -28.100  1.00 23.44 LIG 0.04  A 
ATOM     39  CE3 TRP E2015      -0.582  -8.545 -26.853  1.00 23.10 LIG 0.01  A 
ATOM     40  CZ2 TRP E2015       1.133  -7.517 -28.880  1.00 22.82 LIG 0.03  A 
ATOM     41  NE1 TRP E2015       2.647  -9.391 -28.132  1.00 23.03 LIG-0.36  N 
ATOM     42  CH2 TRP E2015      -0.092  -6.947 -28.639  1.00 23.08 LIG 0.00  A 
ATOM     43  CZ3 TRP E2015      -0.950  -7.438 -27.640  1.00 24.27 LIG 0.00  A 
ATOM     44 HE1  TRP E2015       3.309  -9.279 -28.670  1.00 23.03 LIG 0.17  HD
ATOM     45  CD1 TRP E2015       2.558 -10.374 -27.152  1.00 22.46 LIG 0.10  A 
ENDBRANCH 35 36
ENDBRANCH 31 35
ENDBRANCH 29 31
ENDBRANCH 4 27
TORSDOF 14
ENDMDL
MODEL 34
USER: ADFR SOLUTION from run 117
USER: SCORE 11.337459 LL:  -3.126 LR:  -8.834 RR:   0.000 FEB:  -4.658
USER: RMSD 4.540409
USER: SEED 116
USER: STATUS no improvement in best in 8 clusters for 5 generations
USER: GENES 16
USER: genes 0 Translation |==|  0.58970 0.49748 0.46670
USER: genes 1 Rotation |==|  0.52148 0.31774 0.35842 0.94303
USER: genes 2 Torsion [N]-C--CA-[N] |==|  0.53108
USER: genes 3 Torsion [C]-CA--N-[C] |==|  0.20662
USER: genes 4 Torsion [N]-C--CA-[N] |==|  0.24470
USER: genes 5 Torsion [C]-CA--N-[C] |==|  0.58566
USER: genes 6 Torsion [N]-C--CA-[N] |==|  0.23437
USER: genes 7 Torsion [C]-CA--CB-[CG2] |==|  0.49421
USER: genes 8 Torsion [C]-CA--CB-[CG] |==|  0.22094
USER: genes 9 Torsion [CA]-CB--CG-[SD] |==|  0.83522
USER: genes 10 Torsion [CB]-CG--SD-[CE] |==|  0.35193
USER: genes 11 Torsion [N]-CA--C-[O] |==|  0.44080
USER: genes 12 Torsion [C]-N--CA-[C] |==|  0.77139
USER: genes 13 Torsion [N]-CA--C-[O] |==|  0.01302
USER: genes 14 Torsion [N]-CA--CB-[CG] |==|  0.15750
USER: genes 15 Torsion [CA]-CB--CG-[CD2] |==|  0.47782
ROOT
ATOM      1  C   GLY E2013       1.888 -16.077 -28.711  1.00 21.81 LIG 0.24  C 
ATOM      2 O    GLY E2013       1.206 -16.898 -28.076  1.00 22.84 LIG-0.27  OA
ATOM      3  N   PRO E2014       3.040 -15.587 -28.248  1.00 21.64 LIG-0.34  N 
ATOM      4  CA  PRO E2014       3.671 -16.019 -26.997  1.00 21.53 LIG 0.18  C 
ATOM      5  CB  PRO E2014       5.126 -15.578 -27.186  1.00 21.78 LIG 0.04  C 
ATOM      6  CG  PRO E2014       5.067 -14.402 -28.118  1.00 22.21 LIG 0.02  C 
ATOM      7  CD  PRO E2014       3.853 -14.606 -28.990  1.00 21.52 LIG 0.13  C 
ENDROOT
BRANCH 1 8
ATOM      8  CA  GLY E2013       1.442 -15.597 -30.087  1.00 23.09 LIG 0.23  C 
BRANCH 8 9
ATOM      9  N   GLY E2013       0.060 -16.022 -30.301  1.00 25.21 LIG-0.35  N 
ATOM     10  C   MET E2012      -0.965 -15.429 -29.691  1.00 26.98 LIG 0.24  C 
ATOM     11 O    MET E2012      -0.830 -14.607 -28.773  1.00 24.85 LIG-0.27  OA
ATOM     12 H    GLY E2013      -0.025 -16.680 -30.849  1.00 25.21 LIG 0.16  HD
BRANCH 10 13
ATOM     13  CA  MET E2012      -2.346 -15.789 -30.224  1.00 29.83 LIG 0.18  C 
BRANCH 13 14
ATOM     14  N   MET E2012      -2.895 -16.975 -29.564  1.00 30.84 LIG-0.35  N 
ATOM     15  C   VAL E2011      -3.715 -17.819 -30.177  1.00 36.49 LIG 0.26  C 
ATOM     16 O    VAL E2011      -4.141 -17.631 -31.325  1.00 38.00 LIG-0.27  OA
ATOM     17 H    MET E2012      -2.637 -17.072 -28.749  1.00 30.84 LIG 0.16  HD
BRANCH 15 18
ATOM     18  CA  VAL E2011      -4.127 -19.059 -29.358  1.00 39.95 LIG 0.40  C 
ATOM     19  N   VAL E2011      -5.289 -18.752 -28.462  1.00 39.42 LIG 0.61  N 
BRANCH 18 20
ATOM     20  CB  VAL E2011      -4.410 -20.296 -30.265  1.00 43.12 LIG 0.03  C 
ATOM     21  CG2 VAL E2011      -4.764 -21.510 -29.410  1.00 41.73 LIG 0.01  C 
ATOM     22  CG1 VAL E2011      -3.241 -20.611 -31.201  1.00 40.75 LIG 0.01  C 
ENDBRANCH 18 20
ENDBRANCH 15 18
ENDBRANCH 13 14
BRANCH 13 23
ATOM     23  CB  MET E2012      -3.263 -14.572 -29.989  1.00 32.11 LIG 0.04  C 
BRANCH 23 24
ATOM     24  CG  MET E2012      -3.152 -13.411 -30.985  1.00 37.34 LIG 0.08  C 
BRANCH 24 25
ATOM     25 SD   MET E2012      -1.516 -12.658 -31.098  1.00 39.45 LIG-0.17  SA
ATOM     26  CE  MET E2012      -1.242 -12.764 -32.874  1.00 39.28 LIG 0.09  C 
ENDBRANCH 24 25
ENDBRANCH 23 24
ENDBRANCH 13 23
ENDBRANCH 10 13
ENDBRANCH 8 9
ENDBRANCH 1 8
BRANCH 4 27
ATOM     27  C   PRO E2014       3.072 -15.359 -25.737  1.00 21.57 LIG 0.24  C 
ATOM     28 O    PRO E2014       3.206 -15.890 -24.595  1.00 21.05 LIG-0.27  OA
ATOM     29  N   TRP E2015       2.432 -14.203 -25.932  1.00 20.29 LIG-0.34  N 
ATOM     30 H    TRP E2015       2.255 -13.867 -26.704  1.00 20.29 LIG 0.16  HD
BRANCH 29 31
ATOM     31  CA  TRP E2015       1.973 -13.404 -24.790  1.00 20.70 LIG 0.19  C 
BRANCH 31 32
ATOM     32  C   TRP E2015       0.642 -13.874 -24.216  1.00 20.18 LIG 0.20  C 
ATOM     33 O    TRP E2015       0.063 -14.879 -24.617  1.00 21.31 LIG-0.65  OA
ATOM     34 OXT  TRP E2015       0.099 -13.208 -23.340  1.00 19.23 LIG-0.65  OA
ENDBRANCH 31 32
BRANCH 31 35
ATOM     35  CB  TRP E2015       1.824 -11.929 -25.192  1.00 21.64 LIG 0.08  C 
BRANCH 35 36
ATOM     36  CG  TRP E2015       0.895 -11.638 -26.369  1.00 22.27 LIG-0.03  A 
ATOM     37  CD2 TRP E2015       0.492 -10.336 -26.798  1.00 22.85 LIG-0.00  A 
ATOM     38  CE2 TRP E2015      -0.343 -10.497 -27.931  1.00 23.44 LIG 0.04  A 
ATOM     39  CE3 TRP E2015       0.771  -9.034 -26.339  1.00 23.10 LIG 0.01  A 
ATOM     40  CZ2 TRP E2015      -0.919  -9.400 -28.601  1.00 22.82 LIG 0.03  A 
ATOM     41  NE1 TRP E2015      -0.451 -11.843 -28.181  1.00 23.03 LIG-0.36  N 
ATOM     42  CH2 TRP E2015      -0.648  -8.143 -28.122  1.00 23.08 LIG 0.00  A 
ATOM     43  CZ3 TRP E2015       0.187  -7.942 -27.009  1.00 24.27 LIG 0.00  A 
ATOM     44 HE1  TRP E2015      -0.917 -12.200 -28.810  1.00 23.03 LIG 0.17  HD
ATOM     45  CD1 TRP E2015       0.319 -12.535 -27.252  1.00 22.46 LIG 0.10  A 
ENDBRANCH 35 36
ENDBRANCH 31 35
ENDBRANCH 29 31
ENDBRANCH 4 27
TORSDOF 14
ENDMDL
MODEL 35
USER: ADFR SOLUTION from run 164
USER: SCORE 12.352927 LL:  -3.909 LR:  -8.831 RR:   0.000 FEB:  -4.655
USER: RMSD 3.605474
USER: SEED 163
USER: STATUS no improvement in best in 14 clusters for 5 generations
USER: GENES 16
USER: genes 0 Translation |==|  0.43780 0.54640 0.45134
USER: genes 1 Rotation |==|  0.54757 0.50587 0.42792 0.99245
USER: genes 2 Torsion [N]-C--CA-[N] |==|  0.46264
USER: genes 3 Torsion [C]-CA--N-[C] |==|  0.59916
USER: genes 4 Torsion [N]-C--CA-[N] |==|  0.96142
USER: genes 5 Torsion [C]-CA--N-[C] |==|  0.74664
USER: genes 6 Torsion [N]-C--CA-[N] |==|  0.80559
USER: genes 7 Torsion [C]-CA--CB-[CG2] |==|  0.58876
USER: genes 8 Torsion [C]-CA--CB-[CG] |==|  0.70375
USER: genes 9 Torsion [CA]-CB--CG-[SD] |==|  0.66706
USER: genes 10 Torsion [CB]-CG--SD-[CE] |==|  0.26578
USER: genes 11 Torsion [N]-CA--C-[O] |==|  0.46965
USER: genes 12 Torsion [C]-N--CA-[C] |==|  0.72238
USER: genes 13 Torsion [N]-CA--C-[O] |==|  0.11874
USER: genes 14 Torsion [N]-CA--CB-[CG] |==|  0.89458
USER: genes 15 Torsion [CA]-CB--CG-[CD2] |==|  0.88306
ROOT
ATOM      1  C   GLY E2013      -0.505 -14.830 -28.976  1.00 21.81 LIG 0.24  C 
ATOM      2 O    GLY E2013      -0.322 -15.887 -28.352  1.00 22.84 LIG-0.27  OA
ATOM      3  N   PRO E2014       0.466 -13.935 -29.175  1.00 21.64 LIG-0.34  N 
ATOM      4  CA  PRO E2014       1.860 -14.132 -28.764  1.00 21.53 LIG 0.18  C 
ATOM      5  CB  PRO E2014       2.612 -13.126 -29.641  1.00 21.78 LIG 0.04  C 
ATOM      6  CG  PRO E2014       1.624 -12.033 -29.930  1.00 22.21 LIG 0.02  C 
ATOM      7  CD  PRO E2014       0.258 -12.672 -29.908  1.00 21.52 LIG 0.13  C 
ENDROOT
BRANCH 1 8
ATOM      8  CA  GLY E2013      -1.868 -14.507 -29.576  1.00 23.09 LIG 0.23  C 
BRANCH 8 9
ATOM      9  N   GLY E2013      -2.689 -15.716 -29.538  1.00 25.21 LIG-0.35  N 
ATOM     10  C   MET E2012      -3.556 -16.012 -30.505  1.00 26.98 LIG 0.24  C 
ATOM     11 O    MET E2012      -3.872 -15.221 -31.406  1.00 24.85 LIG-0.27  OA
ATOM     12 H    GLY E2013      -2.559 -16.208 -28.845  1.00 25.21 LIG 0.16  HD
BRANCH 10 13
ATOM     13  CA  MET E2012      -4.124 -17.426 -30.469  1.00 29.83 LIG 0.18  C 
BRANCH 13 14
ATOM     14  N   MET E2012      -3.366 -18.298 -29.570  1.00 30.84 LIG-0.35  N 
ATOM     15  C   VAL E2011      -2.341 -19.032 -29.982  1.00 36.49 LIG 0.26  C 
ATOM     16 O    VAL E2011      -1.993 -19.097 -31.169  1.00 38.00 LIG-0.27  OA
ATOM     17 H    MET E2012      -3.647 -18.289 -28.757  1.00 30.84 LIG 0.16  HD
BRANCH 15 18
ATOM     18  CA  VAL E2011      -1.606 -19.825 -28.882  1.00 39.95 LIG 0.40  C 
ATOM     19  N   VAL E2011      -0.843 -18.909 -27.974  1.00 39.42 LIG 0.61  N 
BRANCH 18 20
ATOM     20  CB  VAL E2011      -2.570 -20.756 -28.084  1.00 43.12 LIG 0.03  C 
ATOM     21  CG2 VAL E2011      -2.100 -20.892 -26.638  1.00 41.73 LIG 0.01  C 
ATOM     22  CG1 VAL E2011      -2.726 -22.131 -28.737  1.00 40.75 LIG 0.01  C 
ENDBRANCH 18 20
ENDBRANCH 15 18
ENDBRANCH 13 14
BRANCH 13 23
ATOM     23  CB  MET E2012      -5.592 -17.322 -30.007  1.00 32.11 LIG 0.04  C 
BRANCH 23 24
ATOM     24  CG  MET E2012      -5.909 -17.786 -28.580  1.00 37.34 LIG 0.08  C 
BRANCH 24 25
ATOM     25 SD   MET E2012      -7.095 -19.141 -28.466  1.00 39.45 LIG-0.17  SA
ATOM     26  CE  MET E2012      -5.967 -20.539 -28.357  1.00 39.28 LIG 0.09  C 
ENDBRANCH 24 25
ENDBRANCH 23 24
ENDBRANCH 13 23
ENDBRANCH 10 13
ENDBRANCH 8 9
ENDBRANCH 1 8
BRANCH 4 27
ATOM     27  C   PRO E2014       2.117 -13.837 -27.271  1.00 21.57 LIG 0.24  C 
ATOM     28 O    PRO E2014       3.213 -14.154 -26.722  1.00 21.05 LIG-0.27  OA
ATOM     29  N   TRP E2015       1.128 -13.218 -26.620  1.00 20.29 LIG-0.34  N 
ATOM     30 H    TRP E2015       0.346 -13.070 -26.947  1.00 20.29 LIG 0.16  HD
BRANCH 29 31
ATOM     31  CA  TRP E2015       1.326 -12.737 -25.248  1.00 20.70 LIG 0.19  C 
BRANCH 31 32
ATOM     32  C   TRP E2015       0.746 -13.665 -24.189  1.00 20.18 LIG 0.20  C 
ATOM     33 O    TRP E2015       0.866 -14.886 -24.238  1.00 21.31 LIG-0.65  OA
ATOM     34 OXT  TRP E2015       0.100 -13.187 -23.262  1.00 19.23 LIG-0.65  OA
ENDBRANCH 31 32
BRANCH 31 35
ATOM     35  CB  TRP E2015       0.688 -11.351 -25.067  1.00 21.64 LIG 0.08  C 
BRANCH 35 36
ATOM     36  CG  TRP E2015       0.807 -10.392 -26.250  1.00 22.27 LIG-0.03  A 
ATOM     37  CD2 TRP E2015       1.981 -10.205 -27.044  1.00 22.85 LIG-0.00  A 
ATOM     38  CE2 TRP E2015       1.671  -9.256 -28.049  1.00 23.44 LIG 0.04  A 
ATOM     39  CE3 TRP E2015       3.273 -10.765 -27.012  1.00 23.10 LIG 0.01  A 
ATOM     40  CZ2 TRP E2015       2.618  -8.840 -29.005  1.00 22.82 LIG 0.03  A 
ATOM     41  NE1 TRP E2015       0.364  -8.874 -27.874  1.00 23.03 LIG-0.36  N 
ATOM     42  CH2 TRP E2015       3.876  -9.385 -28.940  1.00 23.08 LIG 0.00  A 
ATOM     43  CZ3 TRP E2015       4.216 -10.340 -27.966  1.00 24.27 LIG 0.00  A 
ATOM     44 HE1  TRP E2015      -0.057  -8.294 -28.350  1.00 23.03 LIG 0.17  HD
ATOM     45  CD1 TRP E2015      -0.169  -9.579 -26.800  1.00 22.46 LIG 0.10  A 
ENDBRANCH 35 36
ENDBRANCH 31 35
ENDBRANCH 29 31
ENDBRANCH 4 27
TORSDOF 14
ENDMDL
MODEL 36
USER: ADFR SOLUTION from run 69
USER: SCORE 11.538648 LL:  -2.957 LR:  -8.806 RR:   0.000 FEB:  -4.630
USER: RMSD 3.294689
USER: SEED 68
USER: STATUS no improvement in best in 22 clusters for 5 generations
USER: GENES 16
USER: genes 0 Translation |==|  0.54504 0.44021 0.54793
USER: genes 1 Rotation |==|  0.44511 0.36747 0.43683 0.97480
USER: genes 2 Torsion [N]-C--CA-[N] |==|  0.48333
USER: genes 3 Torsion [C]-CA--N-[C] |==|  0.73557
USER: genes 4 Torsion [N]-C--CA-[N] |==|  0.09194
USER: genes 5 Torsion [C]-CA--N-[C] |==|  0.16318
USER: genes 6 Torsion [N]-C--CA-[N] |==|  0.34863
USER: genes 7 Torsion [C]-CA--CB-[CG2] |==|  0.35538
USER: genes 8 Torsion [C]-CA--CB-[CG] |==|  0.42612
USER: genes 9 Torsion [CA]-CB--CG-[SD] |==|  0.19766
USER: genes 10 Torsion [CB]-CG--SD-[CE] |==|  0.74584
USER: genes 11 Torsion [N]-CA--C-[O] |==|  0.39715
USER: genes 12 Torsion [C]-N--CA-[C] |==|  0.73130
USER: genes 13 Torsion [N]-CA--C-[O] |==|  0.00885
USER: genes 14 Torsion [N]-CA--CB-[CG] |==|  0.17283
USER: genes 15 Torsion [CA]-CB--CG-[CD2] |==|  0.42554
ROOT
ATOM      1  C   GLY E2013       1.184 -17.538 -27.310  1.00 21.81 LIG 0.24  C 
ATOM      2 O    GLY E2013       0.916 -18.174 -26.279  1.00 22.84 LIG-0.27  OA
ATOM      3  N   PRO E2014       2.253 -16.742 -27.407  1.00 21.64 LIG-0.34  N 
ATOM      4  CA  PRO E2014       3.266 -16.599 -26.357  1.00 21.53 LIG 0.18  C 
ATOM      5  CB  PRO E2014       4.465 -16.033 -27.125  1.00 21.78 LIG 0.04  C 
ATOM      6  CG  PRO E2014       3.877 -15.289 -28.289  1.00 22.21 LIG 0.02  C 
ATOM      7  CD  PRO E2014       2.576 -15.975 -28.624  1.00 21.52 LIG 0.13  C 
ENDROOT
BRANCH 1 8
ATOM      8  CA  GLY E2013       0.301 -17.653 -28.546  1.00 23.09 LIG 0.23  C 
BRANCH 8 9
ATOM      9  N   GLY E2013      -0.721 -18.667 -28.293  1.00 25.21 LIG-0.35  N 
ATOM     10  C   MET E2012      -0.571 -19.933 -28.678  1.00 26.98 LIG 0.24  C 
ATOM     11 O    MET E2012       0.339 -20.316 -29.427  1.00 24.85 LIG-0.27  OA
ATOM     12 H    GLY E2013      -1.415 -18.372 -27.879  1.00 25.21 LIG 0.16  HD
BRANCH 10 13
ATOM     13  CA  MET E2012      -1.579 -20.920 -28.101  1.00 29.83 LIG 0.18  C 
BRANCH 13 14
ATOM     14  N   MET E2012      -2.893 -20.307 -27.899  1.00 30.84 LIG-0.35  N 
ATOM     15  C   VAL E2011      -3.586 -19.760 -28.889  1.00 36.49 LIG 0.26  C 
ATOM     16 O    VAL E2011      -3.146 -19.657 -30.044  1.00 38.00 LIG-0.27  OA
ATOM     17 H    MET E2012      -3.169 -20.334 -27.086  1.00 30.84 LIG 0.16  HD
BRANCH 15 18
ATOM     18  CA  VAL E2011      -4.987 -19.237 -28.511  1.00 39.95 LIG 0.40  C 
ATOM     19  N   VAL E2011      -5.147 -17.798 -28.898  1.00 39.42 LIG 0.61  N 
BRANCH 18 20
ATOM     20  CB  VAL E2011      -6.125 -20.123 -29.103  1.00 43.12 LIG 0.03  C 
ATOM     21  CG2 VAL E2011      -7.101 -20.536 -28.004  1.00 41.73 LIG 0.01  C 
ATOM     22  CG1 VAL E2011      -5.585 -21.351 -29.840  1.00 40.75 LIG 0.01  C 
ENDBRANCH 18 20
ENDBRANCH 15 18
ENDBRANCH 13 14
BRANCH 13 23
ATOM     23  CB  MET E2012      -1.683 -22.102 -29.087  1.00 32.11 LIG 0.04  C 
BRANCH 23 24
ATOM     24  CG  MET E2012      -2.099 -23.459 -28.509  1.00 37.34 LIG 0.08  C 
BRANCH 24 25
ATOM     25 SD   MET E2012      -3.826 -23.572 -27.997  1.00 39.45 LIG-0.17  SA
ATOM     26  CE  MET E2012      -3.676 -23.081 -26.272  1.00 39.28 LIG 0.09  C 
ENDBRANCH 24 25
ENDBRANCH 23 24
ENDBRANCH 13 23
ENDBRANCH 10 13
ENDBRANCH 8 9
ENDBRANCH 1 8
BRANCH 4 27
ATOM     27  C   PRO E2014       2.855 -15.636 -25.223  1.00 21.57 LIG 0.24  C 
ATOM     28 O    PRO E2014       3.169 -15.872 -24.019  1.00 21.05 LIG-0.27  OA
ATOM     29  N   TRP E2015       2.175 -14.549 -25.597  1.00 20.29 LIG-0.34  N 
ATOM     30 H    TRP E2015       1.877 -14.409 -26.392  1.00 20.29 LIG 0.16  HD
BRANCH 29 31
ATOM     31  CA  TRP E2015       1.882 -13.484 -24.632  1.00 20.70 LIG 0.19  C 
BRANCH 31 32
ATOM     32  C   TRP E2015       0.493 -13.588 -24.015  1.00 20.18 LIG 0.20  C 
ATOM     33 O    TRP E2015      -0.276 -14.512 -24.262  1.00 21.31 LIG-0.65  OA
ATOM     34 OXT  TRP E2015       0.102 -12.698 -23.266  1.00 19.23 LIG-0.65  OA
ENDBRANCH 31 32
BRANCH 31 35
ATOM     35  CB  TRP E2015       2.005 -12.105 -25.299  1.00 21.64 LIG 0.08  C 
BRANCH 35 36
ATOM     36  CG  TRP E2015       1.042 -11.823 -26.451  1.00 22.27 LIG-0.03  A 
ATOM     37  CD2 TRP E2015       0.590 -10.526 -26.847  1.00 22.85 LIG-0.00  A 
ATOM     38  CE2 TRP E2015      -0.264 -10.693 -27.965  1.00 23.44 LIG 0.04  A 
ATOM     39  CE3 TRP E2015       0.840  -9.224 -26.370  1.00 23.10 LIG 0.01  A 
ATOM     40  CZ2 TRP E2015      -0.887  -9.603 -28.602  1.00 22.82 LIG 0.03  A 
ATOM     41  NE1 TRP E2015      -0.336 -12.038 -28.237  1.00 23.03 LIG-0.36  N 
ATOM     42  CH2 TRP E2015      -0.645  -8.347 -28.106  1.00 23.08 LIG 0.00  A 
ATOM     43  CZ3 TRP E2015       0.208  -8.140 -27.008  1.00 24.27 LIG 0.00  A 
ATOM     44 HE1  TRP E2015      -0.805 -12.397 -28.862  1.00 23.03 LIG 0.17  HD
ATOM     45  CD1 TRP E2015       0.474 -12.721 -27.337  1.00 22.46 LIG 0.10  A 
ENDBRANCH 35 36
ENDBRANCH 31 35
ENDBRANCH 29 31
ENDBRANCH 4 27
TORSDOF 14
ENDMDL
MODEL 37
USER: ADFR SOLUTION from run 90
USER: SCORE 12.670638 LL:  -4.557 LR:  -8.767 RR:   0.000 FEB:  -4.590
USER: RMSD 4.919349
USER: SEED 89
USER: STATUS no improvement in best in 17 clusters for 5 generations
USER: GENES 16
USER: genes 0 Translation |==|  0.44418 0.51873 0.54792
USER: genes 1 Rotation |==|  0.29042 0.30265 0.19046 0.76705
USER: genes 2 Torsion [N]-C--CA-[N] |==|  0.33468
USER: genes 3 Torsion [C]-CA--N-[C] |==|  0.41638
USER: genes 4 Torsion [N]-C--CA-[N] |==|  0.96856
USER: genes 5 Torsion [C]-CA--N-[C] |==|  0.75722
USER: genes 6 Torsion [N]-C--CA-[N] |==|  0.32067
USER: genes 7 Torsion [C]-CA--CB-[CG2] |==|  0.44061
USER: genes 8 Torsion [C]-CA--CB-[CG] |==|  0.87943
USER: genes 9 Torsion [CA]-CB--CG-[SD] |==|  0.76869
USER: genes 10 Torsion [CB]-CG--SD-[CE] |==|  0.55691
USER: genes 11 Torsion [N]-CA--C-[O] |==|  0.68569
USER: genes 12 Torsion [C]-N--CA-[C] |==|  0.54387
USER: genes 13 Torsion [N]-CA--C-[O] |==|  0.16892
USER: genes 14 Torsion [N]-CA--CB-[CG] |==|  0.08850
USER: genes 15 Torsion [CA]-CB--CG-[CD2] |==|  0.69874
ROOT
ATOM      1  C   GLY E2013      -0.404 -15.535 -27.310  1.00 21.81 LIG 0.24  C 
ATOM      2 O    GLY E2013      -1.180 -14.821 -26.655  1.00 22.84 LIG-0.27  OA
ATOM      3  N   PRO E2014       0.581 -16.237 -26.744  1.00 21.64 LIG-0.34  N 
ATOM      4  CA  PRO E2014       0.803 -16.316 -25.297  1.00 21.53 LIG 0.18  C 
ATOM      5  CB  PRO E2014       1.654 -17.582 -25.158  1.00 21.78 LIG 0.04  C 
ATOM      6  CG  PRO E2014       2.390 -17.711 -26.461  1.00 22.21 LIG 0.02  C 
ATOM      7  CD  PRO E2014       1.513 -17.081 -27.513  1.00 21.52 LIG 0.13  C 
ENDROOT
BRANCH 1 8
ATOM      8  CA  GLY E2013      -0.556 -15.664 -28.821  1.00 23.09 LIG 0.23  C 
BRANCH 8 9
ATOM      9  N   GLY E2013      -1.892 -16.181 -29.111  1.00 25.21 LIG-0.35  N 
ATOM     10  C   MET E2012      -2.542 -15.873 -30.232  1.00 26.98 LIG 0.24  C 
ATOM     11 O    MET E2012      -2.161 -14.999 -31.024  1.00 24.85 LIG-0.27  OA
ATOM     12 H    GLY E2013      -2.211 -16.693 -28.499  1.00 25.21 LIG 0.16  HD
BRANCH 10 13
ATOM     13  CA  MET E2012      -3.787 -16.702 -30.520  1.00 29.83 LIG 0.18  C 
BRANCH 13 14
ATOM     14  N   MET E2012      -3.887 -17.865 -29.636  1.00 30.84 LIG-0.35  N 
ATOM     15  C   VAL E2011      -3.317 -19.029 -29.917  1.00 36.49 LIG 0.26  C 
ATOM     16 O    VAL E2011      -2.721 -19.247 -30.982  1.00 38.00 LIG-0.27  OA
ATOM     17 H    MET E2012      -4.347 -17.723 -28.923  1.00 30.84 LIG 0.16  HD
BRANCH 15 18
ATOM     18  CA  VAL E2011      -3.454 -20.117 -28.833  1.00 39.95 LIG 0.40  C 
ATOM     19  N   VAL E2011      -4.263 -21.276 -29.332  1.00 39.42 LIG 0.61  N 
BRANCH 18 20
ATOM     20  CB  VAL E2011      -2.070 -20.576 -28.281  1.00 43.12 LIG 0.03  C 
ATOM     21  CG2 VAL E2011      -2.233 -21.218 -26.906  1.00 41.73 LIG 0.01  C 
ATOM     22  CG1 VAL E2011      -1.055 -19.431 -28.230  1.00 40.75 LIG 0.01  C 
ENDBRANCH 18 20
ENDBRANCH 15 18
ENDBRANCH 13 14
BRANCH 13 23
ATOM     23  CB  MET E2012      -5.009 -15.780 -30.335  1.00 32.11 LIG 0.04  C 
BRANCH 23 24
ATOM     24  CG  MET E2012      -5.006 -14.854 -29.113  1.00 37.34 LIG 0.08  C 
BRANCH 24 25
ATOM     25 SD   MET E2012      -5.572 -15.616 -27.579  1.00 39.45 LIG-0.17  SA
ATOM     26  CE  MET E2012      -6.007 -14.144 -26.637  1.00 39.28 LIG 0.09  C 
ENDBRANCH 24 25
ENDBRANCH 23 24
ENDBRANCH 13 23
ENDBRANCH 10 13
ENDBRANCH 8 9
ENDBRANCH 1 8
BRANCH 4 27
ATOM     27  C   PRO E2014       1.554 -15.101 -24.714  1.00 21.57 LIG 0.24  C 
ATOM     28 O    PRO E2014       2.721 -15.221 -24.237  1.00 21.05 LIG-0.27  OA
ATOM     29  N   TRP E2015       0.905 -13.934 -24.765  1.00 20.29 LIG-0.34  N 
ATOM     30 H    TRP E2015       0.084 -13.843 -25.004  1.00 20.29 LIG 0.16  HD
BRANCH 29 31
ATOM     31  CA  TRP E2015       1.584 -12.687 -24.398  1.00 20.70 LIG 0.19  C 
BRANCH 31 32
ATOM     32  C   TRP E2015       0.630 -11.527 -24.143  1.00 20.18 LIG 0.20  C 
ATOM     33 O    TRP E2015      -0.225 -11.552 -23.262  1.00 21.31 LIG-0.65  OA
ATOM     34 OXT  TRP E2015       0.684 -10.536 -24.865  1.00 19.23 LIG-0.65  OA
ENDBRANCH 31 32
BRANCH 31 35
ATOM     35  CB  TRP E2015       2.563 -12.263 -25.503  1.00 21.64 LIG 0.08  C 
BRANCH 35 36
ATOM     36  CG  TRP E2015       2.171 -12.632 -26.932  1.00 22.27 LIG-0.03  A 
ATOM     37  CD2 TRP E2015       2.803 -13.639 -27.727  1.00 22.85 LIG-0.00  A 
ATOM     38  CE2 TRP E2015       2.130 -13.688 -28.972  1.00 23.44 LIG 0.04  A 
ATOM     39  CE3 TRP E2015       3.875 -14.523 -27.497  1.00 23.10 LIG 0.01  A 
ATOM     40  CZ2 TRP E2015       2.509 -14.578 -29.995  1.00 22.82 LIG 0.03  A 
ATOM     41  NE1 TRP E2015       1.130 -12.746 -28.943  1.00 23.03 LIG-0.36  N 
ATOM     42  CH2 TRP E2015       3.569 -15.416 -29.755  1.00 23.08 LIG 0.00  A 
ATOM     43  CZ3 TRP E2015       4.253 -15.406 -28.527  1.00 24.27 LIG 0.00  A 
ATOM     44 HE1  TRP E2015       0.589 -12.571 -29.588  1.00 23.03 LIG 0.17  HD
ATOM     45  CD1 TRP E2015       1.138 -12.122 -27.700  1.00 22.46 LIG 0.10  A 
ENDBRANCH 35 36
ENDBRANCH 31 35
ENDBRANCH 29 31
ENDBRANCH 4 27
TORSDOF 14
ENDMDL
MODEL 38
USER: ADFR SOLUTION from run 109
USER: SCORE 10.782199 LL:  -2.922 LR:  -8.746 RR:   0.000 FEB:  -4.570
USER: RMSD 3.197651
USER: SEED 108
USER: STATUS no improvement in best in 9 clusters for 5 generations
USER: GENES 16
USER: genes 0 Translation |==|  0.49384 0.48928 0.46420
USER: genes 1 Rotation |==|  0.51946 0.48460 0.47707 0.99886
USER: genes 2 Torsion [N]-C--CA-[N] |==|  0.45457
USER: genes 3 Torsion [C]-CA--N-[C] |==|  0.79360
USER: genes 4 Torsion [N]-C--CA-[N] |==|  0.97316
USER: genes 5 Torsion [C]-CA--N-[C] |==|  0.56952
USER: genes 6 Torsion [N]-C--CA-[N] |==|  0.25748
USER: genes 7 Torsion [C]-CA--CB-[CG2] |==|  0.51268
USER: genes 8 Torsion [C]-CA--CB-[CG] |==|  0.46019
USER: genes 9 Torsion [CA]-CB--CG-[SD] |==|  0.69107
USER: genes 10 Torsion [CB]-CG--SD-[CE] |==|  0.36315
USER: genes 11 Torsion [N]-CA--C-[O] |==|  0.44747
USER: genes 12 Torsion [C]-N--CA-[C] |==|  0.68365
USER: genes 13 Torsion [N]-CA--C-[O] |==|  0.04641
USER: genes 14 Torsion [N]-CA--CB-[CG] |==|  0.85505
USER: genes 15 Torsion [CA]-CB--CG-[CD2] |==|  0.45446
ROOT
ATOM      1  C   GLY E2013       0.378 -16.286 -28.755  1.00 21.81 LIG 0.24  C 
ATOM      2 O    GLY E2013       0.690 -17.210 -27.986  1.00 22.84 LIG-0.27  OA
ATOM      3  N   PRO E2014       1.182 -15.248 -28.996  1.00 21.64 LIG-0.34  N 
ATOM      4  CA  PRO E2014       2.542 -15.122 -28.460  1.00 21.53 LIG 0.18  C 
ATOM      5  CB  PRO E2014       3.178 -14.096 -29.403  1.00 21.78 LIG 0.04  C 
ATOM      6  CG  PRO E2014       2.039 -13.256 -29.904  1.00 22.21 LIG 0.02  C 
ATOM      7  CD  PRO E2014       0.818 -14.142 -29.900  1.00 21.52 LIG 0.13  C 
ENDROOT
BRANCH 1 8
ATOM      8  CA  GLY E2013      -0.956 -16.305 -29.490  1.00 23.09 LIG 0.23  C 
BRANCH 8 9
ATOM      9  N   GLY E2013      -1.507 -17.657 -29.416  1.00 25.21 LIG-0.35  N 
ATOM     10  C   MET E2012      -1.018 -18.661 -30.142  1.00 26.98 LIG 0.24  C 
ATOM     11 O    MET E2012      -0.195 -18.506 -31.056  1.00 24.85 LIG-0.27  OA
ATOM     12 H    GLY E2013      -2.165 -17.739 -28.868  1.00 25.21 LIG 0.16  HD
BRANCH 10 13
ATOM     13  CA  MET E2012      -1.502 -20.052 -29.751  1.00 29.83 LIG 0.18  C 
BRANCH 13 14
ATOM     14  N   MET E2012      -2.251 -20.039 -28.493  1.00 30.84 LIG-0.35  N 
ATOM     15  C   VAL E2011      -2.353 -21.105 -27.710  1.00 36.49 LIG 0.26  C 
ATOM     16 O    VAL E2011      -1.891 -22.213 -28.017  1.00 38.00 LIG-0.27  OA
ATOM     17 H    MET E2012      -2.614 -19.281 -28.311  1.00 30.84 LIG 0.16  HD
BRANCH 15 18
ATOM     18  CA  VAL E2011      -3.107 -20.886 -26.383  1.00 39.95 LIG 0.40  C 
ATOM     19  N   VAL E2011      -4.562 -21.217 -26.529  1.00 39.42 LIG 0.61  N 
BRANCH 18 20
ATOM     20  CB  VAL E2011      -2.455 -21.665 -25.200  1.00 43.12 LIG 0.03  C 
ATOM     21  CG2 VAL E2011      -3.296 -21.511 -23.936  1.00 41.73 LIG 0.01  C 
ATOM     22  CG1 VAL E2011      -1.008 -21.236 -24.947  1.00 40.75 LIG 0.01  C 
ENDBRANCH 18 20
ENDBRANCH 15 18
ENDBRANCH 13 14
BRANCH 13 23
ATOM     23  CB  MET E2012      -2.392 -20.570 -30.899  1.00 32.11 LIG 0.04  C 
BRANCH 23 24
ATOM     24  CG  MET E2012      -2.725 -22.067 -30.905  1.00 37.34 LIG 0.08  C 
BRANCH 24 25
ATOM     25 SD   MET E2012      -1.966 -23.011 -32.241  1.00 39.45 LIG-0.17  SA
ATOM     26  CE  MET E2012      -1.268 -24.380 -31.303  1.00 39.28 LIG 0.09  C 
ENDBRANCH 24 25
ENDBRANCH 23 24
ENDBRANCH 13 23
ENDBRANCH 10 13
ENDBRANCH 8 9
ENDBRANCH 1 8
BRANCH 4 27
ATOM     27  C   PRO E2014       2.593 -14.615 -27.004  1.00 21.57 LIG 0.24  C 
ATOM     28 O    PRO E2014       3.624 -14.784 -26.289  1.00 21.05 LIG-0.27  OA
ATOM     29  N   TRP E2015       1.501 -13.981 -26.567  1.00 20.29 LIG-0.34  N 
ATOM     30 H    TRP E2015       0.761 -13.928 -27.003  1.00 20.29 LIG 0.16  HD
BRANCH 29 31
ATOM     31  CA  TRP E2015       1.500 -13.309 -25.264  1.00 20.70 LIG 0.19  C 
BRANCH 31 32
ATOM     32  C   TRP E2015       0.560 -13.949 -24.251  1.00 20.18 LIG 0.20  C 
ATOM     33 O    TRP E2015       0.104 -15.081 -24.390  1.00 21.31 LIG-0.65  OA
ATOM     34 OXT  TRP E2015       0.207 -13.304 -23.269  1.00 19.23 LIG-0.65  OA
ENDBRANCH 31 32
BRANCH 31 35
ATOM     35  CB  TRP E2015       1.100 -11.834 -25.419  1.00 21.64 LIG 0.08  C 
BRANCH 35 36
ATOM     36  CG  TRP E2015       1.880 -11.026 -26.453  1.00 22.27 LIG-0.03  A 
ATOM     37  CD2 TRP E2015       1.473  -9.767 -26.994  1.00 22.85 LIG-0.00  A 
ATOM     38  CE2 TRP E2015       2.480  -9.341 -27.895  1.00 23.44 LIG 0.04  A 
ATOM     39  CE3 TRP E2015       0.349  -8.942 -26.790  1.00 23.10 LIG 0.01  A 
ATOM     40  CZ2 TRP E2015       2.386  -8.130 -28.607  1.00 22.82 LIG 0.03  A 
ATOM     41  NE1 TRP E2015       3.461 -10.303 -27.909  1.00 23.03 LIG-0.36  N 
ATOM     42  CH2 TRP E2015       1.272  -7.354 -28.407  1.00 23.08 LIG 0.00  A 
ATOM     43  CZ3 TRP E2015       0.259  -7.736 -27.510  1.00 24.27 LIG 0.00  A 
ATOM     44 HE1  TRP E2015       4.174 -10.283 -28.389  1.00 23.03 LIG 0.17  HD
ATOM     45  CD1 TRP E2015       3.112 -11.312 -27.018  1.00 22.46 LIG 0.10  A 
ENDBRANCH 35 36
ENDBRANCH 31 35
ENDBRANCH 29 31
ENDBRANCH 4 27
TORSDOF 14
ENDMDL
MODEL 39
USER: ADFR SOLUTION from run 46
USER: SCORE 11.120072 LL:  -2.873 LR:  -8.741 RR:   0.000 FEB:  -4.564
USER: RMSD 3.802191
USER: SEED 45
USER: STATUS no improvement in best in 15 clusters for 5 generations
USER: GENES 16
USER: genes 0 Translation |==|  0.49491 0.45924 0.47214
USER: genes 1 Rotation |==|  0.52107 0.57688 0.74044 0.93108
USER: genes 2 Torsion [N]-C--CA-[N] |==|  0.69403
USER: genes 3 Torsion [C]-CA--N-[C] |==|  0.71811
USER: genes 4 Torsion [N]-C--CA-[N] |==|  0.12777
USER: genes 5 Torsion [C]-CA--N-[C] |==|  0.14085
USER: genes 6 Torsion [N]-C--CA-[N] |==|  0.47364
USER: genes 7 Torsion [C]-CA--CB-[CG2] |==|  0.23950
USER: genes 8 Torsion [C]-CA--CB-[CG] |==|  0.49396
USER: genes 9 Torsion [CA]-CB--CG-[SD] |==|  0.97175
USER: genes 10 Torsion [CB]-CG--SD-[CE] |==|  0.80671
USER: genes 11 Torsion [N]-CA--C-[O] |==|  0.86560
USER: genes 12 Torsion [C]-N--CA-[C] |==|  0.12248
USER: genes 13 Torsion [N]-CA--C-[O] |==|  0.15396
USER: genes 14 Torsion [N]-CA--CB-[CG] |==|  0.90540
USER: genes 15 Torsion [CA]-CB--CG-[CD2] |==|  0.88001
ROOT
ATOM      1  C   GLY E2013       0.395 -17.052 -28.618  1.00 21.81 LIG 0.24  C 
ATOM      2 O    GLY E2013       1.535 -17.061 -28.126  1.00 22.84 LIG-0.27  OA
ATOM      3  N   PRO E2014      -0.265 -15.922 -28.884  1.00 21.64 LIG-0.34  N 
ATOM      4  CA  PRO E2014       0.304 -14.582 -28.715  1.00 21.53 LIG 0.18  C 
ATOM      5  CB  PRO E2014      -0.599 -13.721 -29.605  1.00 21.78 LIG 0.04  C 
ATOM      6  CG  PRO E2014      -1.921 -14.433 -29.638  1.00 22.21 LIG 0.02  C 
ATOM      7  CD  PRO E2014      -1.623 -15.901 -29.459  1.00 21.52 LIG 0.13  C 
ENDROOT
BRANCH 1 8
ATOM      8  CA  GLY E2013      -0.311 -18.357 -28.965  1.00 23.09 LIG 0.23  C 
BRANCH 8 9
ATOM      9  N   GLY E2013      -0.681 -19.030 -27.721  1.00 25.21 LIG-0.35  N 
ATOM     10  C   MET E2012       0.022 -20.051 -27.233  1.00 26.98 LIG 0.24  C 
ATOM     11 O    MET E2012       0.920 -20.626 -27.865  1.00 24.85 LIG-0.27  OA
ATOM     12 H    GLY E2013      -1.383 -18.708 -27.342  1.00 25.21 LIG 0.16  HD
BRANCH 10 13
ATOM     13  CA  MET E2012      -0.315 -20.458 -25.804  1.00 29.83 LIG 0.18  C 
BRANCH 13 14
ATOM     14  N   MET E2012      -1.760 -20.547 -25.586  1.00 30.84 LIG-0.35  N 
ATOM     15  C   VAL E2011      -2.562 -21.236 -26.386  1.00 36.49 LIG 0.26  C 
ATOM     16 O    VAL E2011      -2.167 -21.794 -27.420  1.00 38.00 LIG-0.27  OA
ATOM     17 H    MET E2012      -2.036 -20.114 -24.896  1.00 30.84 LIG 0.16  HD
BRANCH 15 18
ATOM     18  CA  VAL E2011      -4.043 -21.291 -25.957  1.00 39.95 LIG 0.40  C 
ATOM     19  N   VAL E2011      -4.895 -21.890 -27.035  1.00 39.42 LIG 0.61  N 
BRANCH 18 20
ATOM     20  CB  VAL E2011      -4.235 -22.026 -24.596  1.00 43.12 LIG 0.03  C 
ATOM     21  CG2 VAL E2011      -4.052 -21.051 -23.436  1.00 41.73 LIG 0.01  C 
ATOM     22  CG1 VAL E2011      -3.301 -23.229 -24.447  1.00 40.75 LIG 0.01  C 
ENDBRANCH 18 20
ENDBRANCH 15 18
ENDBRANCH 13 14
BRANCH 13 23
ATOM     23  CB  MET E2012       0.353 -21.824 -25.545  1.00 32.11 LIG 0.04  C 
BRANCH 23 24
ATOM     24  CG  MET E2012       0.197 -22.422 -24.142  1.00 37.34 LIG 0.08  C 
BRANCH 24 25
ATOM     25 SD   MET E2012      -0.505 -21.306 -22.911  1.00 39.45 LIG-0.17  SA
ATOM     26  CE  MET E2012       0.856 -20.140 -22.730  1.00 39.28 LIG 0.09  C 
ENDBRANCH 24 25
ENDBRANCH 23 24
ENDBRANCH 13 23
ENDBRANCH 10 13
ENDBRANCH 8 9
ENDBRANCH 1 8
BRANCH 4 27
ATOM     27  C   PRO E2014       0.266 -14.067 -27.261  1.00 21.57 LIG 0.24  C 
ATOM     28 O    PRO E2014      -0.793 -14.137 -26.570  1.00 21.05 LIG-0.27  OA
ATOM     29  N   TRP E2015       1.413 -13.571 -26.788  1.00 20.29 LIG-0.34  N 
ATOM     30 H    TRP E2015       2.118 -13.435 -27.261  1.00 20.29 LIG 0.16  HD
BRANCH 29 31
ATOM     31  CA  TRP E2015       1.541 -13.212 -25.371  1.00 20.70 LIG 0.19  C 
BRANCH 31 32
ATOM     32  C   TRP E2015       0.953 -14.252 -24.426  1.00 20.18 LIG 0.20  C 
ATOM     33 O    TRP E2015       1.295 -15.431 -24.440  1.00 21.31 LIG-0.65  OA
ATOM     34 OXT  TRP E2015       0.075 -13.916 -23.637  1.00 19.23 LIG-0.65  OA
ENDBRANCH 31 32
BRANCH 31 35
ATOM     35  CB  TRP E2015       0.848 -11.869 -25.092  1.00 21.64 LIG 0.08  C 
BRANCH 35 36
ATOM     36  CG  TRP E2015       0.901 -10.835 -26.214  1.00 22.27 LIG-0.03  A 
ATOM     37  CD2 TRP E2015       2.055 -10.531 -27.002  1.00 22.85 LIG-0.00  A 
ATOM     38  CE2 TRP E2015       1.682  -9.542 -27.945  1.00 23.44 LIG 0.04  A 
ATOM     39  CE3 TRP E2015       3.377 -11.017 -27.011  1.00 23.10 LIG 0.01  A 
ATOM     40  CZ2 TRP E2015       2.594  -9.015 -28.879  1.00 22.82 LIG 0.03  A 
ATOM     41  NE1 TRP E2015       0.356  -9.249 -27.739  1.00 23.03 LIG-0.36  N 
ATOM     42  CH2 TRP E2015       3.882  -9.489 -28.854  1.00 23.08 LIG 0.00  A 
ATOM     43  CZ3 TRP E2015       4.285 -10.480 -27.943  1.00 24.27 LIG 0.00  A 
ATOM     44 HE1  TRP E2015      -0.101  -8.666 -28.176  1.00 23.03 LIG 0.17  HD
ATOM     45  CD1 TRP E2015      -0.126 -10.048 -26.708  1.00 22.46 LIG 0.10  A 
ENDBRANCH 35 36
ENDBRANCH 31 35
ENDBRANCH 29 31
ENDBRANCH 4 27
TORSDOF 14
ENDMDL
MODEL 40
USER: ADFR SOLUTION from run 94
USER: SCORE 11.117089 LL:  -2.904 LR:  -8.726 RR:   0.000 FEB:  -4.550
USER: RMSD 3.808237
USER: SEED 93
USER: STATUS no improvement in best in 9 clusters for 5 generations
USER: GENES 16
USER: genes 0 Translation |==|  0.49749 0.45329 0.47647
USER: genes 1 Rotation |==|  0.49354 0.57709 0.72157 0.94150
USER: genes 2 Torsion [N]-C--CA-[N] |==|  0.67314
USER: genes 3 Torsion [C]-CA--N-[C] |==|  0.72471
USER: genes 4 Torsion [N]-C--CA-[N] |==|  0.43794
USER: genes 5 Torsion [C]-CA--N-[C] |==|  0.73901
USER: genes 6 Torsion [N]-C--CA-[N] |==|  0.71952
USER: genes 7 Torsion [C]-CA--CB-[CG2] |==|  0.55435
USER: genes 8 Torsion [C]-CA--CB-[CG] |==|  0.58391
USER: genes 9 Torsion [CA]-CB--CG-[SD] |==|  0.84606
USER: genes 10 Torsion [CB]-CG--SD-[CE] |==|  0.58771
USER: genes 11 Torsion [N]-CA--C-[O] |==|  0.80754
USER: genes 12 Torsion [C]-N--CA-[C] |==|  0.15265
USER: genes 13 Torsion [N]-CA--C-[O] |==|  0.09395
USER: genes 14 Torsion [N]-CA--CB-[CG] |==|  0.87801
USER: genes 15 Torsion [CA]-CB--CG-[CD2] |==|  0.42269
ROOT
ATOM      1  C   GLY E2013       0.435 -17.204 -28.543  1.00 21.81 LIG 0.24  C 
ATOM      2 O    GLY E2013       1.545 -17.233 -27.987  1.00 22.84 LIG-0.27  OA
ATOM      3  N   PRO E2014      -0.128 -16.070 -28.967  1.00 21.64 LIG-0.34  N 
ATOM      4  CA  PRO E2014       0.525 -14.759 -28.909  1.00 21.53 LIG 0.18  C 
ATOM      5  CB  PRO E2014      -0.267 -13.945 -29.937  1.00 21.78 LIG 0.04  C 
ATOM      6  CG  PRO E2014      -1.633 -14.568 -29.971  1.00 22.21 LIG 0.02  C 
ATOM      7  CD  PRO E2014      -1.449 -16.024 -29.620  1.00 21.52 LIG 0.13  C 
ENDROOT
BRANCH 1 8
ATOM      8  CA  GLY E2013      -0.343 -18.491 -28.791  1.00 23.09 LIG 0.23  C 
BRANCH 8 9
ATOM      9  N   GLY E2013      -0.668 -19.091 -27.499  1.00 25.21 LIG-0.35  N 
ATOM     10  C   MET E2012       0.047 -20.090 -26.982  1.00 26.98 LIG 0.24  C 
ATOM     11 O    MET E2012       0.917 -20.706 -27.616  1.00 24.85 LIG-0.27  OA
ATOM     12 H    GLY E2013      -1.353 -18.744 -27.111  1.00 25.21 LIG 0.16  HD
BRANCH 10 13
ATOM     13  CA  MET E2012      -0.236 -20.416 -25.521  1.00 29.83 LIG 0.18  C 
BRANCH 13 14
ATOM     14  N   MET E2012       0.158 -21.784 -25.179  1.00 30.84 LIG-0.35  N 
ATOM     15  C   VAL E2011      -0.690 -22.803 -25.218  1.00 36.49 LIG 0.26  C 
ATOM     16 O    VAL E2011      -1.896 -22.667 -25.471  1.00 38.00 LIG-0.27  OA
ATOM     17 H    MET E2012       0.984 -21.863 -24.953  1.00 30.84 LIG 0.16  HD
BRANCH 15 18
ATOM     18  CA  VAL E2011      -0.083 -24.187 -24.909  1.00 39.95 LIG 0.40  C 
ATOM     19  N   VAL E2011       0.165 -24.960 -26.169  1.00 39.42 LIG 0.61  N 
BRANCH 18 20
ATOM     20  CB  VAL E2011       1.204 -24.083 -24.034  1.00 43.12 LIG 0.03  C 
ATOM     21  CG2 VAL E2011       2.028 -25.362 -24.149  1.00 41.73 LIG 0.01  C 
ATOM     22  CG1 VAL E2011       0.888 -23.769 -22.569  1.00 40.75 LIG 0.01  C 
ENDBRANCH 18 20
ENDBRANCH 15 18
ENDBRANCH 13 14
BRANCH 13 23
ATOM     23  CB  MET E2012       0.545 -19.401 -24.662  1.00 32.11 LIG 0.04  C 
BRANCH 23 24
ATOM     24  CG  MET E2012       1.021 -19.874 -23.283  1.00 37.34 LIG 0.08  C 
BRANCH 24 25
ATOM     25 SD   MET E2012      -0.277 -20.514 -22.207  1.00 39.45 LIG-0.17  SA
ATOM     26  CE  MET E2012       0.381 -20.037 -20.601  1.00 39.28 LIG 0.09  C 
ENDBRANCH 24 25
ENDBRANCH 23 24
ENDBRANCH 13 23
ENDBRANCH 10 13
ENDBRANCH 8 9
ENDBRANCH 1 8
BRANCH 4 27
ATOM     27  C   PRO E2014       0.449 -14.086 -27.522  1.00 21.57 LIG 0.24  C 
ATOM     28 O    PRO E2014      -0.650 -13.656 -27.063  1.00 21.05 LIG-0.27  OA
ATOM     29  N   TRP E2015       1.600 -14.008 -26.847  1.00 20.29 LIG-0.34  N 
ATOM     30 H    TRP E2015       2.370 -14.214 -27.171  1.00 20.29 LIG 0.16  HD
BRANCH 29 31
ATOM     31  CA  TRP E2015       1.617 -13.545 -25.455  1.00 20.70 LIG 0.19  C 
BRANCH 31 32
ATOM     32  C   TRP E2015       0.690 -14.336 -24.541  1.00 20.18 LIG 0.20  C 
ATOM     33 O    TRP E2015       0.475 -15.535 -24.689  1.00 21.31 LIG-0.65  OA
ATOM     34 OXT  TRP E2015       0.100 -13.753 -23.637  1.00 19.23 LIG-0.65  OA
ENDBRANCH 31 32
BRANCH 31 35
ATOM     35  CB  TRP E2015       1.216 -12.065 -25.376  1.00 21.64 LIG 0.08  C 
BRANCH 35 36
ATOM     36  CG  TRP E2015       1.840 -11.137 -26.416  1.00 22.27 LIG-0.03  A 
ATOM     37  CD2 TRP E2015       1.248  -9.932 -26.907  1.00 22.85 LIG-0.00  A 
ATOM     38  CE2 TRP E2015       2.153  -9.356 -27.832  1.00 23.44 LIG 0.04  A 
ATOM     39  CE3 TRP E2015       0.035  -9.269 -26.638  1.00 23.10 LIG 0.01  A 
ATOM     40  CZ2 TRP E2015       1.870  -8.153 -28.507  1.00 22.82 LIG 0.03  A 
ATOM     41  NE1 TRP E2015       3.251 -10.178 -27.909  1.00 23.03 LIG-0.36  N 
ATOM     42  CH2 TRP E2015       0.673  -7.536 -28.244  1.00 23.08 LIG 0.00  A 
ATOM     43  CZ3 TRP E2015      -0.244  -8.070 -27.321  1.00 24.27 LIG 0.00  A 
ATOM     44 HE1  TRP E2015       3.935 -10.053 -28.415  1.00 23.03 LIG 0.17  HD
ATOM     45  CD1 TRP E2015       3.074 -11.244 -27.034  1.00 22.46 LIG 0.10  A 
ENDBRANCH 35 36
ENDBRANCH 31 35
ENDBRANCH 29 31
ENDBRANCH 4 27
TORSDOF 14
ENDMDL
MODEL 41
USER: ADFR SOLUTION from run 93
USER: SCORE 12.062007 LL:  -3.785 LR:  -8.705 RR:   0.000 FEB:  -4.528
USER: RMSD 3.757138
USER: SEED 92
USER: STATUS no improvement in best in 12 clusters for 5 generations
USER: GENES 16
USER: genes 0 Translation |==|  0.45165 0.47001 0.44632
USER: genes 1 Rotation |==|  0.52729 0.55273 0.67236 0.96558
USER: genes 2 Torsion [N]-C--CA-[N] |==|  0.59432
USER: genes 3 Torsion [C]-CA--N-[C] |==|  0.63907
USER: genes 4 Torsion [N]-C--CA-[N] |==|  0.88171
USER: genes 5 Torsion [C]-CA--N-[C] |==|  0.84100
USER: genes 6 Torsion [N]-C--CA-[N] |==|  0.50835
USER: genes 7 Torsion [C]-CA--CB-[CG2] |==|  0.63064
USER: genes 8 Torsion [C]-CA--CB-[CG] |==|  0.51441
USER: genes 9 Torsion [CA]-CB--CG-[SD] |==|  0.23332
USER: genes 10 Torsion [CB]-CG--SD-[CE] |==|  0.23940
USER: genes 11 Torsion [N]-CA--C-[O] |==|  0.82511
USER: genes 12 Torsion [C]-N--CA-[C] |==|  0.14702
USER: genes 13 Torsion [N]-CA--C-[O] |==|  0.57424
USER: genes 14 Torsion [N]-CA--CB-[CG] |==|  0.91814
USER: genes 15 Torsion [CA]-CB--CG-[CD2] |==|  0.38778
ROOT
ATOM      1  C   GLY E2013      -0.287 -16.778 -29.063  1.00 21.81 LIG 0.24  C 
ATOM      2 O    GLY E2013       0.752 -17.139 -28.486  1.00 22.84 LIG-0.27  OA
ATOM      3  N   PRO E2014      -0.547 -15.498 -29.343  1.00 21.64 LIG-0.34  N 
ATOM      4  CA  PRO E2014       0.387 -14.397 -29.087  1.00 21.53 LIG 0.18  C 
ATOM      5  CB  PRO E2014      -0.134 -13.295 -30.016  1.00 21.78 LIG 0.04  C 
ATOM      6  CG  PRO E2014      -1.602 -13.568 -30.172  1.00 22.21 LIG 0.02  C 
ATOM      7  CD  PRO E2014      -1.781 -15.058 -30.020  1.00 21.52 LIG 0.13  C 
ENDROOT
BRANCH 1 8
ATOM      8  CA  GLY E2013      -1.325 -17.801 -29.506  1.00 23.09 LIG 0.23  C 
BRANCH 8 9
ATOM      9  N   GLY E2013      -1.359 -18.883 -28.523  1.00 25.21 LIG-0.35  N 
ATOM     10  C   MET E2012      -1.281 -20.164 -28.878  1.00 26.98 LIG 0.24  C 
ATOM     11 O    MET E2012      -1.357 -20.553 -30.053  1.00 24.85 LIG-0.27  OA
ATOM     12 H    GLY E2013      -1.432 -18.616 -27.709  1.00 25.21 LIG 0.16  HD
BRANCH 10 13
ATOM     13  CA  MET E2012      -1.046 -21.150 -27.740  1.00 29.83 LIG 0.18  C 
BRANCH 13 14
ATOM     14  N   MET E2012      -0.044 -20.661 -26.791  1.00 30.84 LIG-0.35  N 
ATOM     15  C   VAL E2011       1.189 -20.335 -27.157  1.00 36.49 LIG 0.26  C 
ATOM     16 O    VAL E2011       1.612 -20.491 -28.312  1.00 38.00 LIG-0.27  OA
ATOM     17 H    MET E2012      -0.328 -20.605 -25.981  1.00 30.84 LIG 0.16  HD
BRANCH 15 18
ATOM     18  CA  VAL E2011       2.085 -19.759 -26.042  1.00 39.95 LIG 0.40  C 
ATOM     19  N   VAL E2011       3.426 -19.359 -26.580  1.00 39.42 LIG 0.61  N 
BRANCH 18 20
ATOM     20  CB  VAL E2011       1.395 -18.584 -25.282  1.00 43.12 LIG 0.03  C 
ATOM     21  CG2 VAL E2011       2.358 -17.409 -25.137  1.00 41.73 LIG 0.01  C 
ATOM     22  CG1 VAL E2011       0.851 -19.013 -23.917  1.00 40.75 LIG 0.01  C 
ENDBRANCH 18 20
ENDBRANCH 15 18
ENDBRANCH 13 14
BRANCH 13 23
ATOM     23  CB  MET E2012      -2.397 -21.366 -27.030  1.00 32.11 LIG 0.04  C 
BRANCH 23 24
ATOM     24  CG  MET E2012      -2.391 -22.231 -25.764  1.00 37.34 LIG 0.08  C 
BRANCH 24 25
ATOM     25 SD   MET E2012      -1.956 -21.358 -24.247  1.00 39.45 LIG-0.17  SA
ATOM     26  CE  MET E2012      -3.572 -20.724 -23.773  1.00 39.28 LIG 0.09  C 
ENDBRANCH 24 25
ENDBRANCH 23 24
ENDBRANCH 13 23
ENDBRANCH 10 13
ENDBRANCH 8 9
ENDBRANCH 1 8
BRANCH 4 27
ATOM     27  C   PRO E2014       0.387 -13.907 -27.624  1.00 21.57 LIG 0.24  C 
ATOM     28 O    PRO E2014      -0.650 -13.397 -27.105  1.00 21.05 LIG-0.27  OA
ATOM     29  N   TRP E2015       1.530 -14.072 -26.953  1.00 20.29 LIG-0.34  N 
ATOM     30 H    TRP E2015       2.269 -14.336 -27.306  1.00 20.29 LIG 0.16  HD
BRANCH 29 31
ATOM     31  CA  TRP E2015       1.595 -13.802 -25.513  1.00 20.70 LIG 0.19  C 
BRANCH 31 32
ATOM     32  C   TRP E2015       0.529 -14.536 -24.709  1.00 20.18 LIG 0.20  C 
ATOM     33 O    TRP E2015       0.100 -14.118 -23.637  1.00 21.31 LIG-0.65  OA
ATOM     34 OXT  TRP E2015       0.100 -15.609 -25.122  1.00 19.23 LIG-0.65  OA
ENDBRANCH 31 32
BRANCH 31 35
ATOM     35  CB  TRP E2015       1.444 -12.297 -25.241  1.00 21.64 LIG 0.08  C 
BRANCH 35 36
ATOM     36  CG  TRP E2015       1.946 -11.358 -26.336  1.00 22.27 LIG-0.03  A 
ATOM     37  CD2 TRP E2015       1.290 -10.161 -26.759  1.00 22.85 LIG-0.00  A 
ATOM     38  CE2 TRP E2015       2.087  -9.569 -27.769  1.00 23.44 LIG 0.04  A 
ATOM     39  CE3 TRP E2015       0.101  -9.516 -26.365  1.00 23.10 LIG 0.01  A 
ATOM     40  CZ2 TRP E2015       1.720  -8.369 -28.407  1.00 22.82 LIG 0.03  A 
ATOM     41  NE1 TRP E2015       3.183 -10.375 -27.961  1.00 23.03 LIG-0.36  N 
ATOM     42  CH2 TRP E2015       0.547  -7.771 -28.021  1.00 23.08 LIG 0.00  A 
ATOM     43  CZ3 TRP E2015      -0.263  -8.320 -27.012  1.00 24.27 LIG 0.00  A 
ATOM     44 HE1  TRP E2015       3.810 -10.239 -28.534  1.00 23.03 LIG 0.17  HD
ATOM     45  CD1 TRP E2015       3.112 -11.446 -27.076  1.00 22.46 LIG 0.10  A 
ENDBRANCH 35 36
ENDBRANCH 31 35
ENDBRANCH 29 31
ENDBRANCH 4 27
TORSDOF 14
ENDMDL
