MODEL 1
USER: ADFR SOLUTION from run 9
USER: SCORE 21.275050 LL:  -4.793 LR: -16.817 RR:   0.000 FEB:  -9.658
USER: RMSD 2.166816
USER: SEED 133630
USER: STATUS no improvement in best in 4 clusters for 5 generations
USER: GENES 26
USER: genes 0 Translation |==|  0.58764 0.52967 0.48784
USER: genes 1 Rotation |==|  0.50252 0.46132 0.46257 0.99709
USER: genes 2 Torsion [C]-CA--N-[C] |==|  0.80304
USER: genes 3 Torsion [N]-C--CA-[N] |==|  0.25119
USER: genes 4 Torsion [C]-CA--CB-[CG] |==|  0.42668
USER: genes 5 Torsion [CA]-CB--CG-[CD2] |==|  0.84540
USER: genes 6 Torsion [CE2]-CZ--OH-[HH] |==|  0.15439
USER: genes 7 Torsion [C]-CA--N-[C] |==|  0.77534
USER: genes 8 Torsion [N]-C--CA-[N] |==|  0.94091
USER: genes 9 Torsion [C]-CA--CB-[CG] |==|  0.47011
USER: genes 10 Torsion [CA]-CB--CG-[OD1] |==|  0.58819
USER: genes 11 Torsion [C]-CA--N-[H1] |==|  0.46582
USER: genes 12 Torsion [N]-CA--CB-[CG] |==|  0.20374
USER: genes 13 Torsion [CA]-CB--CG-[CD] |==|  0.52186
USER: genes 14 Torsion [CB]-CG--CD-[OE1] |==|  0.53161
USER: genes 15 Torsion [N]-CA--C-[N] |==|  0.43858
USER: genes 16 Torsion [C]-N--CA-[C] |==|  0.82778
USER: genes 17 Torsion [N]-CA--CB-[CG] |==|  0.59313
USER: genes 18 Torsion [CA]-CB--CG-[CD] |==|  0.11347
USER: genes 19 Torsion [CB]-CG--CD-[NE] |==|  0.62197
USER: genes 20 Torsion [CG]-CD--NE-[CZ] |==|  0.77701
USER: genes 21 Torsion [N]-CA--C-[N] |==|  0.42156
USER: genes 22 Torsion [C]-N--CA-[CB] |==|  0.31818
USER: genes 23 Torsion [N]-CA--CB-[CG] |==|  0.78263
USER: genes 24 Torsion [CA]-CB--CG-[CD1] |==|  0.53630
USER: genes 25 Torsion [N]-CA--C-[O] |==|  0.97491
ROOT
ATOM      1  CA  GLN B   3     -12.132  -4.792   5.834  1.00 33.56 LIG 0.18  C 
ENDROOT
BRANCH 1 2
ATOM      2  N   GLN B   3     -12.688  -5.063   4.531  1.00 33.33 LIG-0.35  N 
ATOM      3  C   TYR B   2     -13.637  -5.977   4.349  1.00 35.73 LIG 0.24  C 
ATOM      4 O    TYR B   2     -13.968  -6.775   5.232  1.00 36.38 LIG-0.27  OA
ATOM      5 H    GLN B   3     -12.353  -4.588   3.897  1.00 33.33 LIG 0.16  HD
BRANCH 3 6
ATOM      6  CA  TYR B   2     -14.325  -6.034   2.987  1.00 35.98 LIG 0.18  C 
BRANCH 6 7
ATOM      7  CB  TYR B   2     -15.784  -6.520   3.104  1.00 34.22 LIG 0.07  C 
BRANCH 7 8
ATOM      8  CG  TYR B   2     -16.624  -5.999   1.982  1.00 30.67 LIG-0.06  A 
ATOM      9  CD2 TYR B   2     -16.726  -4.623   1.708  1.00 29.09 LIG 0.01  A 
ATOM     10  CE2 TYR B   2     -17.592  -4.154   0.665  1.00 27.51 LIG 0.04  A 
ATOM     11  CZ  TYR B   2     -18.278  -5.082  -0.055  1.00 25.86 LIG 0.07  A 
ATOM     12  CE1 TYR B   2     -18.145  -6.460   0.200  1.00 26.16 LIG 0.04  A 
ATOM     13  CD1 TYR B   2     -17.344  -6.890   1.196  1.00 21.15 LIG 0.01  A 
BRANCH 11 14
ATOM     14 OH   TYR B   2     -19.079  -4.732  -1.106  1.00 29.83 LIG-0.36  OA
ATOM     15 HH   TYR B   2     -18.633  -4.290  -1.664  1.00 29.83 LIG 0.22  HD
ENDBRANCH 11 14
ENDBRANCH 7 8
ENDBRANCH 6 7
BRANCH 6 16
ATOM     16  N   TYR B   2     -13.575  -6.966   2.141  1.00 39.83 LIG-0.35  N 
ATOM     17  C   ASP B   1     -12.462  -6.597   1.515  1.00 42.84 LIG 0.25  C 
ATOM     18 O    ASP B   1     -12.068  -5.415   1.502  1.00 42.82 LIG-0.27  OA
ATOM     19 H    TYR B   2     -13.916  -7.754   2.090  1.00 39.83 LIG 0.16  HD
BRANCH 17 20
ATOM     20  CA  ASP B   1     -11.719  -7.722   0.743  1.00 44.92 LIG 0.28  C 
BRANCH 20 21
ATOM     21  CB  ASP B   1     -12.037  -7.582  -0.748  1.00 46.02 LIG 0.15  C 
BRANCH 21 22
ATOM     22  CG  ASP B   1     -11.150  -8.474  -1.617  1.00 51.60 LIG 0.17  C 
ATOM     23 OD1  ASP B   1     -10.821  -8.100  -2.798  1.00 55.22 LIG-0.65  OA
ATOM     24 OD2  ASP B   1     -10.770  -9.552  -1.089  1.00 56.25 LIG-0.65  OA
ENDBRANCH 21 22
ENDBRANCH 20 21
BRANCH 20 25
ATOM     25  N   ASP B   1     -12.077  -9.116   1.235  1.00 44.71 LIG-0.07  N 
ATOM     26 H1   ASP B   1     -11.773  -9.721   0.658  1.00 44.71 LIG 0.28  HD
ATOM     27 H2   ASP B   1     -11.706  -9.253   2.032  1.00 44.71 LIG 0.28  HD
ATOM     28 H3   ASP B   1     -12.961  -9.188   1.303  1.00 44.71 LIG 0.28  HD
ENDBRANCH 20 25
ENDBRANCH 17 20
ENDBRANCH 6 16
ENDBRANCH 3 6
ENDBRANCH 1 2
BRANCH 1 29
ATOM     29  CB  GLN B   3     -10.898  -3.905   5.720  1.00 34.45 LIG 0.04  C 
BRANCH 29 30
ATOM     30  CG  GLN B   3     -11.166  -2.430   5.378  1.00 38.50 LIG 0.10  C 
BRANCH 30 31
ATOM     31  CD  GLN B   3      -9.887  -1.608   5.082  1.00 47.01 LIG 0.21  C 
ATOM     32  NE2 GLN B   3      -8.724  -2.292   4.955  1.00 44.49 LIG-0.37  N 
ATOM     33 21HE GLN B   3      -8.721  -3.150   5.017  1.00 44.49 LIG 0.16  HD
ATOM     34 22HE GLN B   3      -7.990  -1.869   4.813  1.00 44.49 LIG 0.16  HD
ATOM     35 OE1  GLN B   3      -9.950  -0.361   5.001  1.00 47.46 LIG-0.27  OA
ENDBRANCH 30 31
ENDBRANCH 29 30
ENDBRANCH 1 29
BRANCH 1 36
ATOM     36  C   GLN B   3     -13.224  -4.071   6.645  1.00 32.58 LIG 0.24  C 
ATOM     37 O    GLN B   3     -14.122  -3.460   6.053  1.00 27.04 LIG-0.27  OA
ATOM     38  N   ARG B   4     -13.117  -4.126   7.984  1.00 32.15 LIG-0.35  N 
ATOM     39 H    ARG B   4     -12.474  -4.520   8.396  1.00 32.15 LIG 0.16  HD
BRANCH 38 40
ATOM     40  CA  ARG B   4     -14.124  -3.498   8.879  1.00 32.56 LIG 0.18  C 
BRANCH 40 41
ATOM     41  CB  ARG B   4     -13.841  -3.898  10.368  1.00 33.81 LIG 0.04  C 
BRANCH 41 42
ATOM     42  CG  ARG B   4     -15.071  -4.054  11.257  1.00 39.16 LIG 0.02  C 
BRANCH 42 43
ATOM     43  CD  ARG B   4     -16.250  -4.773  10.522  1.00 48.45 LIG 0.14  C 
BRANCH 43 44
ATOM     44  NE  ARG B   4     -17.523  -4.085  10.795  1.00 55.69 LIG-0.23  N 
ATOM     45  CZ  ARG B   4     -18.251  -4.238  11.916  1.00 58.57 LIG 0.67  C 
ATOM     46  NH1 ARG B   4     -19.400  -3.579  12.074  1.00 57.02 LIG-0.23  N 
ATOM     47  NH2 ARG B   4     -17.824  -5.040  12.896  1.00 58.84 LIG-0.23  N 
ATOM     48 2HH1 ARG B   4     -19.860  -3.683  12.793  1.00 57.02 LIG 0.17  HD
ATOM     49 1HH1 ARG B   4     -19.681  -3.051  11.456  1.00 57.02 LIG 0.17  HD
ATOM     50 2HH2 ARG B   4     -18.293  -5.134  13.609  1.00 58.84 LIG 0.17  HD
ATOM     51 1HH2 ARG B   4     -17.079  -5.462  12.811  1.00 58.84 LIG 0.17  HD
ATOM     52 HE   ARG B   4     -17.823  -3.547  10.195  1.00 55.69 LIG 0.18  HD
ENDBRANCH 43 44
ENDBRANCH 42 43
ENDBRANCH 41 42
ENDBRANCH 40 41
BRANCH 40 53
ATOM     53  C   ARG B   4     -14.219  -1.966   8.702  1.00 31.57 LIG 0.24  C 
ATOM     54  N   LEU B   5     -15.386  -1.402   8.972  1.00 29.97 LIG-0.34  N 
ATOM     55 H    LEU B   5     -16.111  -1.833   9.144  1.00 29.97 LIG 0.16  HD
ATOM     56 O    ARG B   4     -13.247  -1.299   8.360  1.00 31.05 LIG-0.27  OA
BRANCH 54 57
ATOM     57  CA  LEU B   5     -15.510   0.045   8.994  1.00 29.37 LIG 0.18  C 
BRANCH 57 58
ATOM     58  CB  LEU B   5     -16.431   0.505   7.865  1.00 29.49 LIG 0.04  C 
BRANCH 58 59
ATOM     59  CG  LEU B   5     -15.768   0.533   6.450  1.00 26.43 LIG-0.02  C 
ATOM     60  CD1 LEU B   5     -16.666   1.334   5.375  1.00 22.49 LIG 0.01  C 
ATOM     61  CD2 LEU B   5     -14.252   0.965   6.501  1.00 25.84 LIG 0.01  C 
ENDBRANCH 58 59
ENDBRANCH 57 58
BRANCH 57 62
ATOM     62  C   LEU B   5     -16.004   0.500  10.394  1.00 31.79 LIG 0.20  C 
ATOM     63 O    LEU B   5     -16.400  -0.320  11.265  1.00 32.21 LIG-0.65  OA
ATOM     64 OXT  LEU B   5     -16.025   1.710  10.654  1.00 32.71 LIG-0.65  OA
ENDBRANCH 57 62
ENDBRANCH 54 57
ENDBRANCH 40 53
ENDBRANCH 38 40
ENDBRANCH 1 36
TORSDOF 24
ENDMDL
MODEL 2
USER: ADFR SOLUTION from run 83
USER: SCORE 20.687724 LL:  -5.148 LR: -15.927 RR:   0.000 FEB:  -8.768
USER: RMSD 3.870601
USER: SEED 82
USER: STATUS no improvement in best in 5 clusters for 5 generations
USER: GENES 26
USER: genes 0 Translation |==|  0.59208 0.53226 0.49293
USER: genes 1 Rotation |==|  0.51312 0.44768 0.44425 0.99395
USER: genes 2 Torsion [C]-CA--N-[C] |==|  0.69380
USER: genes 3 Torsion [N]-C--CA-[N] |==|  0.33973
USER: genes 4 Torsion [C]-CA--CB-[CG] |==|  0.39417
USER: genes 5 Torsion [CA]-CB--CG-[CD2] |==|  0.25194
USER: genes 6 Torsion [CE2]-CZ--OH-[HH] |==|  0.80735
USER: genes 7 Torsion [C]-CA--N-[C] |==|  0.76686
USER: genes 8 Torsion [N]-C--CA-[N] |==|  0.88536
USER: genes 9 Torsion [C]-CA--CB-[CG] |==|  0.27633
USER: genes 10 Torsion [CA]-CB--CG-[OD1] |==|  0.88703
USER: genes 11 Torsion [C]-CA--N-[H1] |==|  0.58576
USER: genes 12 Torsion [N]-CA--CB-[CG] |==|  0.11060
USER: genes 13 Torsion [CA]-CB--CG-[CD] |==|  0.34379
USER: genes 14 Torsion [CB]-CG--CD-[OE1] |==|  0.40628
USER: genes 15 Torsion [N]-CA--C-[N] |==|  0.47220
USER: genes 16 Torsion [C]-N--CA-[C] |==|  0.82949
USER: genes 17 Torsion [N]-CA--CB-[CG] |==|  0.18652
USER: genes 18 Torsion [CA]-CB--CG-[CD] |==|  0.20933
USER: genes 19 Torsion [CB]-CG--CD-[NE] |==|  0.62514
USER: genes 20 Torsion [CG]-CD--NE-[CZ] |==|  0.45362
USER: genes 21 Torsion [N]-CA--C-[N] |==|  0.42966
USER: genes 22 Torsion [C]-N--CA-[CB] |==|  0.32634
USER: genes 23 Torsion [N]-CA--CB-[CG] |==|  0.75210
USER: genes 24 Torsion [CA]-CB--CG-[CD1] |==|  0.54930
USER: genes 25 Torsion [N]-CA--C-[O] |==|  0.33299
ROOT
ATOM      1  CA  GLN B   3     -12.049  -4.738   5.956  1.00 33.56 LIG 0.18  C 
ENDROOT
BRANCH 1 2
ATOM      2  N   GLN B   3     -12.544  -4.914   4.613  1.00 33.33 LIG-0.35  N 
ATOM      3  C   TYR B   2     -12.899  -6.108   4.147  1.00 35.73 LIG 0.24  C 
ATOM      4 O    TYR B   2     -12.657  -7.156   4.752  1.00 36.38 LIG-0.27  OA
ATOM      5 H    GLN B   3     -12.586  -4.188   4.153  1.00 33.33 LIG 0.16  HD
BRANCH 3 6
ATOM      6  CA  TYR B   2     -13.624  -6.165   2.804  1.00 35.98 LIG 0.18  C 
BRANCH 6 7
ATOM      7  CB  TYR B   2     -15.043  -6.752   2.946  1.00 34.22 LIG 0.07  C 
BRANCH 7 8
ATOM      8  CG  TYR B   2     -16.016  -6.049   2.055  1.00 30.67 LIG-0.06  A 
ATOM      9  CD2 TYR B   2     -16.274  -6.490   0.744  1.00 29.09 LIG 0.01  A 
ATOM     10  CE2 TYR B   2     -17.164  -5.754  -0.106  1.00 27.51 LIG 0.04  A 
ATOM     11  CZ  TYR B   2     -17.759  -4.644   0.408  1.00 25.86 LIG 0.07  A 
ATOM     12  CE1 TYR B   2     -17.526  -4.228   1.732  1.00 26.16 LIG 0.04  A 
ATOM     13  CD1 TYR B   2     -16.671  -4.914   2.517  1.00 21.15 LIG 0.01  A 
BRANCH 11 14
ATOM     14 OH   TYR B   2     -18.668  -3.915  -0.308  1.00 29.83 LIG-0.36  OA
ATOM     15 HH   TYR B   2     -18.278  -3.522  -0.939  1.00 29.83 LIG 0.22  HD
ENDBRANCH 11 14
ENDBRANCH 7 8
ENDBRANCH 6 7
BRANCH 6 16
ATOM     16  N   TYR B   2     -12.841  -7.015   1.903  1.00 39.83 LIG-0.35  N 
ATOM     17  C   ASP B   1     -11.812  -6.536   1.213  1.00 42.84 LIG 0.25  C 
ATOM     18 O    ASP B   1     -11.538  -5.321   1.186  1.00 42.82 LIG-0.27  OA
ATOM     19 H    TYR B   2     -13.105  -7.833   1.866  1.00 39.83 LIG 0.16  HD
BRANCH 17 20
ATOM     20  CA  ASP B   1     -11.011  -7.579   0.384  1.00 44.92 LIG 0.28  C 
BRANCH 20 21
ATOM     21  CB  ASP B   1     -11.751  -7.828  -0.932  1.00 46.02 LIG 0.15  C 
BRANCH 21 22
ATOM     22  CG  ASP B   1     -11.146  -7.043  -2.095  1.00 51.60 LIG 0.17  C 
ATOM     23 OD1  ASP B   1     -10.756  -5.835  -1.923  1.00 55.22 LIG-0.65  OA
ATOM     24 OD2  ASP B   1     -11.050  -7.665  -3.186  1.00 56.25 LIG-0.65  OA
ENDBRANCH 21 22
ENDBRANCH 20 21
BRANCH 20 25
ATOM     25  N   ASP B   1     -10.795  -8.887   1.129  1.00 44.71 LIG-0.07  N 
ATOM     26 H1   ASP B   1     -10.025  -9.252   0.871  1.00 44.71 LIG 0.28  HD
ATOM     27 H2   ASP B   1     -10.769  -8.729   2.005  1.00 44.71 LIG 0.28  HD
ATOM     28 H3   ASP B   1     -11.463  -9.446   0.948  1.00 44.71 LIG 0.28  HD
ENDBRANCH 20 25
ENDBRANCH 17 20
ENDBRANCH 6 16
ENDBRANCH 3 6
ENDBRANCH 1 2
BRANCH 1 29
ATOM     29  CB  GLN B   3     -10.752  -3.938   5.953  1.00 34.45 LIG 0.04  C 
BRANCH 29 30
ATOM     30  CG  GLN B   3     -10.696  -2.763   4.963  1.00 38.50 LIG 0.10  C 
BRANCH 30 31
ATOM     31  CD  GLN B   3     -10.382  -1.396   5.622  1.00 47.01 LIG 0.21  C 
ATOM     32  NE2 GLN B   3     -10.890  -1.172   6.858  1.00 44.49 LIG-0.37  N 
ATOM     33 21HE GLN B   3     -11.346  -1.785   7.253  1.00 44.49 LIG 0.16  HD
ATOM     34 22HE GLN B   3     -10.756  -0.417   7.247  1.00 44.49 LIG 0.16  HD
ATOM     35 OE1  GLN B   3      -9.713  -0.541   5.001  1.00 47.46 LIG-0.27  OA
ENDBRANCH 30 31
ENDBRANCH 29 30
ENDBRANCH 1 29
BRANCH 1 36
ATOM     36  C   GLN B   3     -13.135  -3.974   6.736  1.00 32.58 LIG 0.24  C 
ATOM     37 O    GLN B   3     -14.080  -3.463   6.126  1.00 27.04 LIG-0.27  OA
ATOM     38  N   ARG B   4     -12.970  -3.883   8.067  1.00 32.15 LIG-0.35  N 
ATOM     39 H    ARG B   4     -12.294  -4.208   8.489  1.00 32.15 LIG 0.16  HD
BRANCH 38 40
ATOM     40  CA  ARG B   4     -13.963  -3.200   8.937  1.00 32.56 LIG 0.18  C 
BRANCH 40 41
ATOM     41  CB  ARG B   4     -13.593  -3.416  10.445  1.00 33.81 LIG 0.04  C 
BRANCH 41 42
ATOM     42  CG  ARG B   4     -12.307  -2.742  10.913  1.00 39.16 LIG 0.02  C 
BRANCH 42 43
ATOM     43  CD  ARG B   4     -12.478  -1.198  11.103  1.00 48.45 LIG 0.14  C 
BRANCH 43 44
ATOM     44  NE  ARG B   4     -11.339  -0.478  10.511  1.00 55.69 LIG-0.23  N 
ATOM     45  CZ  ARG B   4     -11.331   0.837  10.222  1.00 58.57 LIG 0.67  C 
ATOM     46  NH1 ARG B   4     -10.254   1.405   9.678  1.00 57.02 LIG-0.23  N 
ATOM     47  NH2 ARG B   4     -12.397   1.595  10.494  1.00 58.84 LIG-0.23  N 
ATOM     48 2HH1 ARG B   4     -10.257   2.246   9.496  1.00 57.02 LIG 0.17  HD
ATOM     49 1HH1 ARG B   4      -9.557   0.931   9.508  1.00 57.02 LIG 0.17  HD
ATOM     50 2HH2 ARG B   4     -12.386   2.434  10.307  1.00 58.84 LIG 0.17  HD
ATOM     51 1HH2 ARG B   4     -13.093   1.243  10.855  1.00 58.84 LIG 0.17  HD
ATOM     52 HE   ARG B   4     -10.627  -0.928  10.337  1.00 55.69 LIG 0.18  HD
ENDBRANCH 43 44
ENDBRANCH 42 43
ENDBRANCH 41 42
ENDBRANCH 40 41
BRANCH 40 53
ATOM     53  C   ARG B   4     -14.138  -1.703   8.595  1.00 31.57 LIG 0.24  C 
ATOM     54  N   LEU B   5     -15.297  -1.147   8.915  1.00 29.97 LIG-0.34  N 
ATOM     55 H    LEU B   5     -15.982  -1.576   9.207  1.00 29.97 LIG 0.16  HD
ATOM     56 O    ARG B   4     -13.232  -1.052   8.084  1.00 31.05 LIG-0.27  OA
BRANCH 54 57
ATOM     57  CA  LEU B   5     -15.477   0.288   8.782  1.00 29.37 LIG 0.18  C 
BRANCH 57 58
ATOM     58  CB  LEU B   5     -16.573   0.581   7.758  1.00 29.49 LIG 0.04  C 
BRANCH 58 59
ATOM     59  CG  LEU B   5     -16.072   0.716   6.284  1.00 26.43 LIG-0.02  C 
ATOM     60  CD1 LEU B   5     -17.150   1.459   5.342  1.00 22.49 LIG 0.01  C 
ATOM     61  CD2 LEU B   5     -14.605   1.289   6.194  1.00 25.84 LIG 0.01  C 
ENDBRANCH 58 59
ENDBRANCH 57 58
BRANCH 57 62
ATOM     62  C   LEU B   5     -15.781   0.902  10.177  1.00 31.79 LIG 0.20  C 
ATOM     63 O    LEU B   5     -15.040   1.776  10.700  1.00 32.21 LIG-0.65  OA
ATOM     64 OXT  LEU B   5     -16.774   0.504  10.799  1.00 32.71 LIG-0.65  OA
ENDBRANCH 57 62
ENDBRANCH 54 57
ENDBRANCH 40 53
ENDBRANCH 38 40
ENDBRANCH 1 36
TORSDOF 24
ENDMDL
MODEL 3
USER: ADFR SOLUTION from run 88
USER: SCORE 19.141034 LL:  -4.119 LR: -15.268 RR:   0.000 FEB:  -8.109
USER: RMSD 2.216954
USER: SEED 87
USER: STATUS no improvement in best in 2 clusters for 5 generations
USER: GENES 26
USER: genes 0 Translation |==|  0.56385 0.52696 0.49127
USER: genes 1 Rotation |==|  0.49318 0.46400 0.41426 0.99123
USER: genes 2 Torsion [C]-CA--N-[C] |==|  0.76758
USER: genes 3 Torsion [N]-C--CA-[N] |==|  0.36260
USER: genes 4 Torsion [C]-CA--CB-[CG] |==|  0.49724
USER: genes 5 Torsion [CA]-CB--CG-[CD2] |==|  0.22166
USER: genes 6 Torsion [CE2]-CZ--OH-[HH] |==|  0.55745
USER: genes 7 Torsion [C]-CA--N-[C] |==|  0.66007
USER: genes 8 Torsion [N]-C--CA-[N] |==|  0.93127
USER: genes 9 Torsion [C]-CA--CB-[CG] |==|  0.23537
USER: genes 10 Torsion [CA]-CB--CG-[OD1] |==|  0.61170
USER: genes 11 Torsion [C]-CA--N-[H1] |==|  0.50211
USER: genes 12 Torsion [N]-CA--CB-[CG] |==|  0.81243
USER: genes 13 Torsion [CA]-CB--CG-[CD] |==|  0.20411
USER: genes 14 Torsion [CB]-CG--CD-[OE1] |==|  0.54870
USER: genes 15 Torsion [N]-CA--C-[N] |==|  0.41518
USER: genes 16 Torsion [C]-N--CA-[C] |==|  0.82538
USER: genes 17 Torsion [N]-CA--CB-[CG] |==|  0.48208
USER: genes 18 Torsion [CA]-CB--CG-[CD] |==|  0.41271
USER: genes 19 Torsion [CB]-CG--CD-[NE] |==|  0.64974
USER: genes 20 Torsion [CG]-CD--NE-[CZ] |==|  0.16357
USER: genes 21 Torsion [N]-CA--C-[N] |==|  0.41261
USER: genes 22 Torsion [C]-N--CA-[CB] |==|  0.22660
USER: genes 23 Torsion [N]-CA--CB-[CG] |==|  0.20549
USER: genes 24 Torsion [CA]-CB--CG-[CD1] |==|  0.48176
USER: genes 25 Torsion [N]-CA--C-[O] |==|  0.89093
ROOT
ATOM      1  CA  GLN B   3     -12.578  -4.849   5.916  1.00 33.56 LIG 0.18  C 
ENDROOT
BRANCH 1 2
ATOM      2  N   GLN B   3     -13.195  -5.032   4.626  1.00 33.33 LIG-0.35  N 
ATOM      3  C   TYR B   2     -14.151  -5.936   4.426  1.00 35.73 LIG 0.24  C 
ATOM      4 O    TYR B   2     -14.438  -6.795   5.266  1.00 36.38 LIG-0.27  OA
ATOM      5 H    GLN B   3     -12.892  -4.512   4.011  1.00 33.33 LIG 0.16  HD
BRANCH 3 6
ATOM      6  CA  TYR B   2     -14.903  -5.901   3.098  1.00 35.98 LIG 0.18  C 
BRANCH 6 7
ATOM      7  CB  TYR B   2     -16.357  -5.419   3.278  1.00 34.22 LIG 0.07  C 
BRANCH 7 8
ATOM      8  CG  TYR B   2     -17.079  -5.365   1.970  1.00 30.67 LIG-0.06  A 
ATOM      9  CD2 TYR B   2     -17.614  -6.519   1.369  1.00 29.09 LIG 0.01  A 
ATOM     10  CE2 TYR B   2     -18.243  -6.441   0.083  1.00 27.51 LIG 0.04  A 
ATOM     11  CZ  TYR B   2     -18.324  -5.220  -0.511  1.00 25.86 LIG 0.07  A 
ATOM     12  CE1 TYR B   2     -17.819  -4.062   0.110  1.00 26.16 LIG 0.04  A 
ATOM     13  CD1 TYR B   2     -17.210  -4.149   1.311  1.00 21.15 LIG 0.01  A 
BRANCH 11 14
ATOM     14 OH   TYR B   2     -18.960  -5.040  -1.708  1.00 29.83 LIG-0.36  OA
ATOM     15 HH   TYR B   2     -18.688  -4.331  -2.066  1.00 29.83 LIG 0.22  HD
ENDBRANCH 11 14
ENDBRANCH 7 8
ENDBRANCH 6 7
BRANCH 6 16
ATOM     16  N   TYR B   2     -14.912  -7.260   2.548  1.00 39.83 LIG-0.35  N 
ATOM     17  C   ASP B   1     -14.410  -7.529   1.348  1.00 42.84 LIG 0.25  C 
ATOM     18 O    ASP B   1     -14.028  -6.632   0.571  1.00 42.82 LIG-0.27  OA
ATOM     19 H    TYR B   2     -15.265  -7.851   3.065  1.00 39.83 LIG 0.16  HD
BRANCH 17 20
ATOM     20  CA  ASP B   1     -14.392  -9.029   0.945  1.00 44.92 LIG 0.28  C 
BRANCH 20 21
ATOM     21  CB  ASP B   1     -15.609  -9.312   0.060  1.00 46.02 LIG 0.15  C 
BRANCH 21 22
ATOM     22  CG  ASP B   1     -15.348  -8.978  -1.408  1.00 51.60 LIG 0.17  C 
ATOM     23 OD1  ASP B   1     -16.259  -8.415  -2.112  1.00 55.22 LIG-0.65  OA
ATOM     24 OD2  ASP B   1     -14.204  -9.274  -1.844  1.00 56.25 LIG-0.65  OA
ENDBRANCH 21 22
ENDBRANCH 20 21
BRANCH 20 25
ATOM     25  N   ASP B   1     -14.378  -9.965   2.145  1.00 44.71 LIG-0.07  N 
ATOM     26 H1   ASP B   1     -14.356 -10.808   1.863  1.00 44.71 LIG 0.28  HD
ATOM     27 H2   ASP B   1     -13.658  -9.799   2.641  1.00 44.71 LIG 0.28  HD
ATOM     28 H3   ASP B   1     -15.110  -9.833   2.632  1.00 44.71 LIG 0.28  HD
ENDBRANCH 20 25
ENDBRANCH 17 20
ENDBRANCH 6 16
ENDBRANCH 3 6
ENDBRANCH 1 2
BRANCH 1 29
ATOM     29  CB  GLN B   3     -11.196  -4.223   5.770  1.00 34.45 LIG 0.04  C 
BRANCH 29 30
ATOM     30  CG  GLN B   3     -10.133  -5.107   5.096  1.00 38.50 LIG 0.10  C 
BRANCH 30 31
ATOM     31  CD  GLN B   3     -10.320  -5.267   3.567  1.00 47.01 LIG 0.21  C 
ATOM     32  NE2 GLN B   3     -11.148  -4.390   2.948  1.00 44.49 LIG-0.37  N 
ATOM     33 21HE GLN B   3     -11.526  -3.764   3.399  1.00 44.49 LIG 0.16  HD
ATOM     34 22HE GLN B   3     -11.295  -4.461   2.104  1.00 44.49 LIG 0.16  HD
ATOM     35 OE1  GLN B   3      -9.744  -6.196   2.960  1.00 47.46 LIG-0.27  OA
ENDBRANCH 30 31
ENDBRANCH 29 30
ENDBRANCH 1 29
BRANCH 1 36
ATOM     36  C   GLN B   3     -13.496  -3.911   6.722  1.00 32.58 LIG 0.24  C 
ATOM     37 O    GLN B   3     -14.150  -3.042   6.134  1.00 27.04 LIG-0.27  OA
ATOM     38  N   ARG B   4     -13.511  -4.081   8.056  1.00 32.15 LIG-0.35  N 
ATOM     39 H    ARG B   4     -13.030  -4.662   8.469  1.00 32.15 LIG 0.16  HD
BRANCH 38 40
ATOM     40  CA  ARG B   4     -14.379  -3.263   8.943  1.00 32.56 LIG 0.18  C 
BRANCH 40 41
ATOM     41  CB  ARG B   4     -14.344  -3.834  10.402  1.00 33.81 LIG 0.04  C 
BRANCH 41 42
ATOM     42  CG  ARG B   4     -15.069  -3.003  11.455  1.00 39.16 LIG 0.02  C 
BRANCH 42 43
ATOM     43  CD  ARG B   4     -15.676  -3.884  12.597  1.00 48.45 LIG 0.14  C 
BRANCH 43 44
ATOM     44  NE  ARG B   4     -17.112  -3.601  12.758  1.00 55.69 LIG-0.23  N 
ATOM     45  CZ  ARG B   4     -18.034  -3.746  11.788  1.00 58.57 LIG 0.67  C 
ATOM     46  NH1 ARG B   4     -19.315  -3.457  12.022  1.00 57.02 LIG-0.23  N 
ATOM     47  NH2 ARG B   4     -17.682  -4.199  10.582  1.00 58.84 LIG-0.23  N 
ATOM     48 2HH1 ARG B   4     -19.898  -3.552  11.397  1.00 57.02 LIG 0.17  HD
ATOM     49 1HH1 ARG B   4     -19.557  -3.175  12.798  1.00 57.02 LIG 0.17  HD
ATOM     50 2HH2 ARG B   4     -18.275  -4.290   9.967  1.00 58.84 LIG 0.17  HD
ATOM     51 1HH2 ARG B   4     -16.861  -4.400  10.422  1.00 58.84 LIG 0.17  HD
ATOM     52 HE   ARG B   4     -17.381  -3.323  13.526  1.00 55.69 LIG 0.18  HD
ENDBRANCH 43 44
ENDBRANCH 42 43
ENDBRANCH 41 42
ENDBRANCH 40 41
BRANCH 40 53
ATOM     53  C   ARG B   4     -14.031  -1.757   8.905  1.00 31.57 LIG 0.24  C 
ATOM     54  N   LEU B   5     -15.030  -0.907   9.090  1.00 29.97 LIG-0.34  N 
ATOM     55 H    LEU B   5     -15.860  -1.128   9.133  1.00 29.97 LIG 0.16  HD
ATOM     56 O    ARG B   4     -12.878  -1.368   8.746  1.00 31.05 LIG-0.27  OA
BRANCH 54 57
ATOM     57  CA  LEU B   5     -14.762   0.513   9.237  1.00 29.37 LIG 0.18  C 
BRANCH 57 58
ATOM     58  CB  LEU B   5     -14.577   1.152   7.862  1.00 29.49 LIG 0.04  C 
BRANCH 58 59
ATOM     59  CG  LEU B   5     -15.896   1.337   7.044  1.00 26.43 LIG-0.02  C 
ATOM     60  CD1 LEU B   5     -15.653   2.167   5.681  1.00 22.49 LIG 0.01  C 
ATOM     61  CD2 LEU B   5     -16.691  -0.013   6.865  1.00 25.84 LIG 0.01  C 
ENDBRANCH 58 59
ENDBRANCH 57 58
BRANCH 57 62
ATOM     62  C   LEU B   5     -15.905   1.173  10.056  1.00 31.79 LIG 0.20  C 
ATOM     63 O    LEU B   5     -17.113   0.848   9.903  1.00 32.21 LIG-0.65  OA
ATOM     64 OXT  LEU B   5     -15.618   2.057  10.873  1.00 32.71 LIG-0.65  OA
ENDBRANCH 57 62
ENDBRANCH 54 57
ENDBRANCH 40 53
ENDBRANCH 38 40
ENDBRANCH 1 36
TORSDOF 24
ENDMDL
MODEL 4
USER: ADFR SOLUTION from run 75
USER: SCORE 20.868942 LL:  -5.962 LR: -15.198 RR:   0.000 FEB:  -8.039
USER: RMSD 3.979798
USER: SEED 74
USER: STATUS no improvement in best in 7 clusters for 5 generations
USER: GENES 26
USER: genes 0 Translation |==|  0.65286 0.59176 0.48299
USER: genes 1 Rotation |==|  0.47946 0.44414 0.57426 0.99086
USER: genes 2 Torsion [C]-CA--N-[C] |==|  0.57949
USER: genes 3 Torsion [N]-C--CA-[N] |==|  0.93108
USER: genes 4 Torsion [C]-CA--CB-[CG] |==|  0.49204
USER: genes 5 Torsion [CA]-CB--CG-[CD2] |==|  0.99872
USER: genes 6 Torsion [CE2]-CZ--OH-[HH] |==|  0.62369
USER: genes 7 Torsion [C]-CA--N-[C] |==|  0.78124
USER: genes 8 Torsion [N]-C--CA-[N] |==|  0.91530
USER: genes 9 Torsion [C]-CA--CB-[CG] |==|  0.74926
USER: genes 10 Torsion [CA]-CB--CG-[OD1] |==|  0.33807
USER: genes 11 Torsion [C]-CA--N-[H1] |==|  0.51597
USER: genes 12 Torsion [N]-CA--CB-[CG] |==|  0.39974
USER: genes 13 Torsion [CA]-CB--CG-[CD] |==|  0.51839
USER: genes 14 Torsion [CB]-CG--CD-[OE1] |==|  0.02849
USER: genes 15 Torsion [N]-CA--C-[N] |==|  0.40603
USER: genes 16 Torsion [C]-N--CA-[C] |==|  0.78961
USER: genes 17 Torsion [N]-CA--CB-[CG] |==|  0.47513
USER: genes 18 Torsion [CA]-CB--CG-[CD] |==|  0.22335
USER: genes 19 Torsion [CB]-CG--CD-[NE] |==|  0.59596
USER: genes 20 Torsion [CG]-CD--NE-[CZ] |==|  0.65487
USER: genes 21 Torsion [N]-CA--C-[N] |==|  0.42216
USER: genes 22 Torsion [C]-N--CA-[CB] |==|  0.33257
USER: genes 23 Torsion [N]-CA--CB-[CG] |==|  0.82611
USER: genes 24 Torsion [CA]-CB--CG-[CD1] |==|  0.52824
USER: genes 25 Torsion [N]-CA--C-[O] |==|  0.94737
ROOT
ATOM      1  CA  GLN B   3     -10.909  -3.488   5.718  1.00 33.56 LIG 0.18  C 
ENDROOT
BRANCH 1 2
ATOM      2  N   GLN B   3     -11.177  -4.117   4.448  1.00 33.33 LIG-0.35  N 
ATOM      3  C   TYR B   2     -10.315  -4.961   3.887  1.00 35.73 LIG 0.24  C 
ATOM      4 O    TYR B   2      -9.166  -5.117   4.311  1.00 36.38 LIG-0.27  OA
ATOM      5 H    GLN B   3     -11.931  -3.898   4.096  1.00 33.33 LIG 0.16  HD
BRANCH 3 6
ATOM      6  CA  TYR B   2     -10.780  -5.752   2.666  1.00 35.98 LIG 0.18  C 
BRANCH 6 7
ATOM      7  CB  TYR B   2     -10.372  -5.060   1.349  1.00 34.22 LIG 0.07  C 
BRANCH 7 8
ATOM      8  CG  TYR B   2     -10.770  -5.874   0.159  1.00 30.67 LIG-0.06  A 
ATOM      9  CD2 TYR B   2     -11.424  -7.113   0.293  1.00 29.09 LIG 0.01  A 
ATOM     10  CE2 TYR B   2     -11.732  -7.897  -0.867  1.00 27.51 LIG 0.04  A 
ATOM     11  CZ  TYR B   2     -11.397  -7.391  -2.084  1.00 25.86 LIG 0.07  A 
ATOM     12  CE1 TYR B   2     -10.775  -6.135  -2.214  1.00 26.16 LIG 0.04  A 
ATOM     13  CD1 TYR B   2     -10.470  -5.413  -1.117  1.00 21.15 LIG 0.01  A 
BRANCH 11 14
ATOM     14 OH   TYR B   2     -11.706  -8.040  -3.247  1.00 29.83 LIG-0.36  OA
ATOM     15 HH   TYR B   2     -11.042  -8.029  -3.760  1.00 29.83 LIG 0.22  HD
ENDBRANCH 11 14
ENDBRANCH 7 8
ENDBRANCH 6 7
BRANCH 6 16
ATOM     16  N   TYR B   2     -12.242  -5.852   2.722  1.00 39.83 LIG-0.35  N 
ATOM     17  C   ASP B   1     -12.849  -6.728   3.515  1.00 42.84 LIG 0.25  C 
ATOM     18 O    ASP B   1     -12.221  -7.597   4.149  1.00 42.82 LIG-0.27  OA
ATOM     19 H    TYR B   2     -12.656  -5.303   2.206  1.00 39.83 LIG 0.16  HD
BRANCH 17 20
ATOM     20  CA  ASP B   1     -14.400  -6.644   3.549  1.00 44.92 LIG 0.28  C 
BRANCH 20 21
ATOM     21  CB  ASP B   1     -14.964  -7.606   2.500  1.00 46.02 LIG 0.15  C 
BRANCH 21 22
ATOM     22  CG  ASP B   1     -15.149  -6.936   1.139  1.00 51.60 LIG 0.17  C 
ATOM     23 OD1  ASP B   1     -14.553  -7.404   0.105  1.00 55.22 LIG-0.65  OA
ATOM     24 OD2  ASP B   1     -15.918  -5.939   1.117  1.00 56.25 LIG-0.65  OA
ENDBRANCH 21 22
ENDBRANCH 20 21
BRANCH 20 25
ATOM     25  N   ASP B   1     -14.923  -5.235   3.314  1.00 44.71 LIG-0.07  N 
ATOM     26 H1   ASP B   1     -15.806  -5.223   3.425  1.00 44.71 LIG 0.28  HD
ATOM     27 H2   ASP B   1     -14.543  -4.677   3.895  1.00 44.71 LIG 0.28  HD
ATOM     28 H3   ASP B   1     -14.725  -4.979   2.485  1.00 44.71 LIG 0.28  HD
ENDBRANCH 20 25
ENDBRANCH 17 20
ENDBRANCH 6 16
ENDBRANCH 3 6
ENDBRANCH 1 2
BRANCH 1 29
ATOM     29  CB  GLN B   3     -10.155  -2.178   5.523  1.00 34.45 LIG 0.04  C 
BRANCH 29 30
ATOM     30  CG  GLN B   3     -10.522  -1.046   6.497  1.00 38.50 LIG 0.10  C 
BRANCH 30 31
ATOM     31  CD  GLN B   3      -9.856   0.313   6.166  1.00 47.01 LIG 0.21  C 
ATOM     32  NE2 GLN B   3      -9.988   1.307   7.077  1.00 44.49 LIG-0.37  N 
ATOM     33 21HE GLN B   3     -10.409   1.164   7.812  1.00 44.49 LIG 0.16  HD
ATOM     34 22HE GLN B   3      -9.651   2.082   6.918  1.00 44.49 LIG 0.16  HD
ATOM     35 OE1  GLN B   3      -9.255   0.466   5.080  1.00 47.46 LIG-0.27  OA
ENDBRANCH 30 31
ENDBRANCH 29 30
ENDBRANCH 1 29
BRANCH 1 36
ATOM     36  C   GLN B   3     -12.273  -3.216   6.379  1.00 32.58 LIG 0.24  C 
ATOM     37 O    GLN B   3     -13.241  -2.905   5.676  1.00 27.04 LIG-0.27  OA
ATOM     38  N   ARG B   4     -12.323  -3.309   7.719  1.00 32.15 LIG-0.35  N 
ATOM     39 H    ARG B   4     -11.642  -3.491   8.212  1.00 32.15 LIG 0.16  HD
BRANCH 38 40
ATOM     40  CA  ARG B   4     -13.586  -3.102   8.474  1.00 32.56 LIG 0.18  C 
BRANCH 40 41
ATOM     41  CB  ARG B   4     -13.488  -3.787   9.881  1.00 33.81 LIG 0.04  C 
BRANCH 41 42
ATOM     42  CG  ARG B   4     -14.626  -3.478  10.848  1.00 39.16 LIG 0.02  C 
BRANCH 42 43
ATOM     43  CD  ARG B   4     -15.901  -4.340  10.563  1.00 48.45 LIG 0.14  C 
BRANCH 43 44
ATOM     44  NE  ARG B   4     -17.121  -3.565  10.847  1.00 55.69 LIG-0.23  N 
ATOM     45  CZ  ARG B   4     -18.094  -3.951  11.692  1.00 58.57 LIG 0.67  C 
ATOM     46  NH1 ARG B   4     -19.170  -3.187  11.881  1.00 57.02 LIG-0.23  N 
ATOM     47  NH2 ARG B   4     -17.986  -5.098  12.369  1.00 58.84 LIG-0.23  N 
ATOM     48 2HH1 ARG B   4     -19.788  -3.440  12.423  1.00 57.02 LIG 0.17  HD
ATOM     49 1HH1 ARG B   4     -19.247  -2.440  11.460  1.00 57.02 LIG 0.17  HD
ATOM     50 2HH2 ARG B   4     -18.611  -5.339  12.908  1.00 58.84 LIG 0.17  HD
ATOM     51 1HH2 ARG B   4     -17.292  -5.594  12.265  1.00 58.84 LIG 0.17  HD
ATOM     52 HE   ARG B   4     -17.218  -2.812  10.443  1.00 55.69 LIG 0.18  HD
ENDBRANCH 43 44
ENDBRANCH 42 43
ENDBRANCH 41 42
ENDBRANCH 40 41
BRANCH 40 53
ATOM     53  C   ARG B   4     -13.987  -1.613   8.585  1.00 31.57 LIG 0.24  C 
ATOM     54  N   LEU B   5     -15.279  -1.347   8.700  1.00 29.97 LIG-0.34  N 
ATOM     55 H    LEU B   5     -15.908  -1.929   8.622  1.00 29.97 LIG 0.16  HD
ATOM     56 O    ARG B   4     -13.144  -0.721   8.601  1.00 31.05 LIG-0.27  OA
BRANCH 54 57
ATOM     57  CA  LEU B   5     -15.723   0.007   8.977  1.00 29.37 LIG 0.18  C 
BRANCH 57 58
ATOM     58  CB  LEU B   5     -16.621   0.502   7.845  1.00 29.49 LIG 0.04  C 
BRANCH 58 59
ATOM     59  CG  LEU B   5     -15.923   0.597   6.450  1.00 26.43 LIG-0.02  C 
ATOM     60  CD1 LEU B   5     -16.836   1.367   5.365  1.00 22.49 LIG 0.01  C 
ATOM     61  CD2 LEU B   5     -14.436   1.116   6.552  1.00 25.84 LIG 0.01  C 
ENDBRANCH 58 59
ENDBRANCH 57 58
BRANCH 57 62
ATOM     62  C   LEU B   5     -16.428   0.047  10.361  1.00 31.79 LIG 0.20  C 
ATOM     63 O    LEU B   5     -16.870  -0.993  10.918  1.00 32.21 LIG-0.65  OA
ATOM     64 OXT  LEU B   5     -16.573   1.139  10.925  1.00 32.71 LIG-0.65  OA
ENDBRANCH 57 62
ENDBRANCH 54 57
ENDBRANCH 40 53
ENDBRANCH 38 40
ENDBRANCH 1 36
TORSDOF 24
ENDMDL
MODEL 5
USER: ADFR SOLUTION from run 75
USER: SCORE 20.749125 LL:  -6.034 LR: -14.950 RR:   0.000 FEB:  -7.791
USER: RMSD 4.912664
USER: SEED 74
USER: STATUS no improvement in best in 7 clusters for 5 generations
USER: GENES 26
USER: genes 0 Translation |==|  0.64904 0.58050 0.47647
USER: genes 1 Rotation |==|  0.48638 0.44368 0.56418 0.99247
USER: genes 2 Torsion [C]-CA--N-[C] |==|  0.63289
USER: genes 3 Torsion [N]-C--CA-[N] |==|  0.88977
USER: genes 4 Torsion [C]-CA--CB-[CG] |==|  0.15433
USER: genes 5 Torsion [CA]-CB--CG-[CD2] |==|  0.11185
USER: genes 6 Torsion [CE2]-CZ--OH-[HH] |==|  0.36335
USER: genes 7 Torsion [C]-CA--N-[C] |==|  0.79236
USER: genes 8 Torsion [N]-C--CA-[N] |==|  0.91436
USER: genes 9 Torsion [C]-CA--CB-[CG] |==|  0.74499
USER: genes 10 Torsion [CA]-CB--CG-[OD1] |==|  0.83273
USER: genes 11 Torsion [C]-CA--N-[H1] |==|  0.18257
USER: genes 12 Torsion [N]-CA--CB-[CG] |==|  0.36649
USER: genes 13 Torsion [CA]-CB--CG-[CD] |==|  0.52933
USER: genes 14 Torsion [CB]-CG--CD-[OE1] |==|  0.98909
USER: genes 15 Torsion [N]-CA--C-[N] |==|  0.40621
USER: genes 16 Torsion [C]-N--CA-[C] |==|  0.78971
USER: genes 17 Torsion [N]-CA--CB-[CG] |==|  0.47476
USER: genes 18 Torsion [CA]-CB--CG-[CD] |==|  0.22321
USER: genes 19 Torsion [CB]-CG--CD-[NE] |==|  0.59618
USER: genes 20 Torsion [CG]-CD--NE-[CZ] |==|  0.65498
USER: genes 21 Torsion [N]-CA--C-[N] |==|  0.42218
USER: genes 22 Torsion [C]-N--CA-[CB] |==|  0.33260
USER: genes 23 Torsion [N]-CA--CB-[CG] |==|  0.82611
USER: genes 24 Torsion [CA]-CB--CG-[CD1] |==|  0.52823
USER: genes 25 Torsion [N]-CA--C-[O] |==|  0.94560
ROOT
ATOM      1  CA  GLN B   3     -10.980  -3.724   5.561  1.00 33.56 LIG 0.18  C 
ENDROOT
BRANCH 1 2
ATOM      2  N   GLN B   3     -11.273  -4.302   4.272  1.00 33.33 LIG-0.35  N 
ATOM      3  C   TYR B   2     -10.673  -5.410   3.847  1.00 35.73 LIG 0.24  C 
ATOM      4 O    TYR B   2      -9.705  -5.907   4.431  1.00 36.38 LIG-0.27  OA
ATOM      5 H    GLN B   3     -11.860  -3.870   3.815  1.00 33.33 LIG 0.16  HD
BRANCH 3 6
ATOM      6  CA  TYR B   2     -11.209  -6.073   2.580  1.00 35.98 LIG 0.18  C 
BRANCH 6 7
ATOM      7  CB  TYR B   2     -10.694  -5.370   1.307  1.00 34.22 LIG 0.07  C 
BRANCH 7 8
ATOM      8  CG  TYR B   2      -9.201  -5.311   1.282  1.00 30.67 LIG-0.06  A 
ATOM      9  CD2 TYR B   2      -8.408  -6.394   1.706  1.00 29.09 LIG 0.01  A 
ATOM     10  CE2 TYR B   2      -6.979  -6.280   1.731  1.00 27.51 LIG 0.04  A 
ATOM     11  CZ  TYR B   2      -6.429  -5.109   1.310  1.00 25.86 LIG 0.07  A 
ATOM     12  CE1 TYR B   2      -7.224  -4.042   0.853  1.00 26.16 LIG 0.04  A 
ATOM     13  CD1 TYR B   2      -8.568  -4.151   0.853  1.00 21.15 LIG 0.01  A 
BRANCH 11 14
ATOM     14 OH   TYR B   2      -5.074  -4.932   1.242  1.00 29.83 LIG-0.36  OA
ATOM     15 HH   TYR B   2      -4.871  -4.615   0.491  1.00 29.83 LIG 0.22  HD
ENDBRANCH 11 14
ENDBRANCH 7 8
ENDBRANCH 6 7
BRANCH 6 16
ATOM     16  N   TYR B   2     -12.672  -5.995   2.614  1.00 39.83 LIG-0.35  N 
ATOM     17  C   ASP B   1     -13.393  -6.776   3.410  1.00 42.84 LIG 0.25  C 
ATOM     18 O    ASP B   1     -12.884  -7.704   4.069  1.00 42.82 LIG-0.27  OA
ATOM     19 H    TYR B   2     -13.010  -5.409   2.082  1.00 39.83 LIG 0.16  HD
BRANCH 17 20
ATOM     20  CA  ASP B   1     -14.923  -6.504   3.417  1.00 44.92 LIG 0.28  C 
BRANCH 20 21
ATOM     21  CB  ASP B   1     -15.582  -7.404   2.369  1.00 46.02 LIG 0.15  C 
BRANCH 21 22
ATOM     22  CG  ASP B   1     -15.697  -6.720   1.007  1.00 51.60 LIG 0.17  C 
ATOM     23 OD1  ASP B   1     -16.370  -5.635   0.886  1.00 55.22 LIG-0.65  OA
ATOM     24 OD2  ASP B   1     -15.086  -7.278   0.059  1.00 56.25 LIG-0.65  OA
ENDBRANCH 21 22
ENDBRANCH 20 21
BRANCH 20 25
ATOM     25  N   ASP B   1     -15.266  -5.046   3.159  1.00 44.71 LIG-0.07  N 
ATOM     26 H1   ASP B   1     -15.026  -4.826   2.331  1.00 44.71 LIG 0.28  HD
ATOM     27 H2   ASP B   1     -16.143  -4.926   3.255  1.00 44.71 LIG 0.28  HD
ATOM     28 H3   ASP B   1     -14.832  -4.531   3.740  1.00 44.71 LIG 0.28  HD
ENDBRANCH 20 25
ENDBRANCH 17 20
ENDBRANCH 6 16
ENDBRANCH 3 6
ENDBRANCH 1 2
BRANCH 1 29
ATOM     29  CB  GLN B   3     -10.179  -2.438   5.407  1.00 34.45 LIG 0.04  C 
BRANCH 29 30
ATOM     30  CG  GLN B   3     -10.688  -1.234   6.216  1.00 38.50 LIG 0.10  C 
BRANCH 30 31
ATOM     31  CD  GLN B   3     -10.014   0.110   5.841  1.00 47.01 LIG 0.21  C 
ATOM     32  NE2 GLN B   3     -10.494   1.232   6.430  1.00 44.49 LIG-0.37  N 
ATOM     33 21HE GLN B   3     -11.133   1.176   7.003  1.00 44.49 LIG 0.16  HD
ATOM     34 22HE GLN B   3     -10.161   1.998   6.231  1.00 44.49 LIG 0.16  HD
ATOM     35 OE1  GLN B   3      -9.088   0.132   5.001  1.00 47.46 LIG-0.27  OA
ENDBRANCH 30 31
ENDBRANCH 29 30
ENDBRANCH 1 29
BRANCH 1 36
ATOM     36  C   GLN B   3     -12.333  -3.423   6.233  1.00 32.58 LIG 0.24  C 
ATOM     37 O    GLN B   3     -13.290  -3.055   5.543  1.00 27.04 LIG-0.27  OA
ATOM     38  N   ARG B   4     -12.385  -3.556   7.570  1.00 32.15 LIG-0.35  N 
ATOM     39 H    ARG B   4     -11.710  -3.778   8.055  1.00 32.15 LIG 0.16  HD
BRANCH 38 40
ATOM     40  CA  ARG B   4     -13.639  -3.326   8.335  1.00 32.56 LIG 0.18  C 
BRANCH 40 41
ATOM     41  CB  ARG B   4     -13.564  -4.057   9.719  1.00 33.81 LIG 0.04  C 
BRANCH 41 42
ATOM     42  CG  ARG B   4     -14.687  -3.734  10.699  1.00 39.16 LIG 0.02  C 
BRANCH 42 43
ATOM     43  CD  ARG B   4     -15.996  -4.536  10.392  1.00 48.45 LIG 0.14  C 
BRANCH 43 44
ATOM     44  NE  ARG B   4     -17.184  -3.723  10.701  1.00 55.69 LIG-0.23  N 
ATOM     45  CZ  ARG B   4     -18.169  -4.095  11.538  1.00 58.57 LIG 0.67  C 
ATOM     46  NH1 ARG B   4     -19.215  -3.295  11.752  1.00 57.02 LIG-0.23  N 
ATOM     47  NH2 ARG B   4     -18.106  -5.265  12.180  1.00 58.84 LIG-0.23  N 
ATOM     48 2HH1 ARG B   4     -19.841  -3.540  12.288  1.00 57.02 LIG 0.17  HD
ATOM     49 1HH1 ARG B   4     -19.263  -2.534  11.354  1.00 57.02 LIG 0.17  HD
ATOM     50 2HH2 ARG B   4     -18.739  -5.497  12.713  1.00 58.84 LIG 0.17  HD
ATOM     51 1HH2 ARG B   4     -17.432  -5.785  12.059  1.00 58.84 LIG 0.17  HD
ATOM     52 HE   ARG B   4     -17.252  -2.955  10.320  1.00 55.69 LIG 0.18  HD
ENDBRANCH 43 44
ENDBRANCH 42 43
ENDBRANCH 41 42
ENDBRANCH 40 41
BRANCH 40 53
ATOM     53  C   ARG B   4     -13.985  -1.828   8.491  1.00 31.57 LIG 0.24  C 
ATOM     54  N   LEU B   5     -15.266  -1.519   8.617  1.00 29.97 LIG-0.34  N 
ATOM     55 H    LEU B   5     -15.916  -2.075   8.523  1.00 29.97 LIG 0.16  HD
ATOM     56 O    ARG B   4     -13.109  -0.968   8.533  1.00 31.05 LIG-0.27  OA
BRANCH 54 57
ATOM     57  CA  LEU B   5     -15.660  -0.158   8.937  1.00 29.37 LIG 0.18  C 
BRANCH 57 58
ATOM     58  CB  LEU B   5     -16.541   0.404   7.823  1.00 29.49 LIG 0.04  C 
BRANCH 58 59
ATOM     59  CG  LEU B   5     -15.841   0.516   6.430  1.00 26.43 LIG-0.02  C 
ATOM     60  CD1 LEU B   5     -16.728   1.351   5.371  1.00 22.49 LIG 0.01  C 
ATOM     61  CD2 LEU B   5     -14.337   0.976   6.544  1.00 25.84 LIG 0.01  C 
ENDBRANCH 58 59
ENDBRANCH 57 58
BRANCH 57 62
ATOM     62  C   LEU B   5     -16.361  -0.135  10.324  1.00 31.79 LIG 0.20  C 
ATOM     63 O    LEU B   5     -16.850  -1.173  10.845  1.00 32.21 LIG-0.65  OA
ATOM     64 OXT  LEU B   5     -16.455   0.941  10.926  1.00 32.71 LIG-0.65  OA
ENDBRANCH 57 62
ENDBRANCH 54 57
ENDBRANCH 40 53
ENDBRANCH 38 40
ENDBRANCH 1 36
TORSDOF 24
ENDMDL
MODEL 6
USER: ADFR SOLUTION from run 76
USER: SCORE 19.733737 LL:  -5.166 LR: -14.923 RR:   0.000 FEB:  -7.764
USER: RMSD 2.622117
USER: SEED 75
USER: STATUS 1 or 2 clusters left
USER: GENES 26
USER: genes 0 Translation |==|  0.57343 0.52637 0.49358
USER: genes 1 Rotation |==|  0.50317 0.44892 0.43849 0.99356
USER: genes 2 Torsion [C]-CA--N-[C] |==|  0.74247
USER: genes 3 Torsion [N]-C--CA-[N] |==|  0.29251
USER: genes 4 Torsion [C]-CA--CB-[CG] |==|  0.40508
USER: genes 5 Torsion [CA]-CB--CG-[CD2] |==|  0.33914
USER: genes 6 Torsion [CE2]-CZ--OH-[HH] |==|  0.78322
USER: genes 7 Torsion [C]-CA--N-[C] |==|  0.75352
USER: genes 8 Torsion [N]-C--CA-[N] |==|  0.08764
USER: genes 9 Torsion [C]-CA--CB-[CG] |==|  0.57633
USER: genes 10 Torsion [CA]-CB--CG-[OD1] |==|  0.38151
USER: genes 11 Torsion [C]-CA--N-[H1] |==|  0.48364
USER: genes 12 Torsion [N]-CA--CB-[CG] |==|  0.09918
USER: genes 13 Torsion [CA]-CB--CG-[CD] |==|  0.71569
USER: genes 14 Torsion [CB]-CG--CD-[OE1] |==|  0.74659
USER: genes 15 Torsion [N]-CA--C-[N] |==|  0.41243
USER: genes 16 Torsion [C]-N--CA-[C] |==|  0.84356
USER: genes 17 Torsion [N]-CA--CB-[CG] |==|  0.76516
USER: genes 18 Torsion [CA]-CB--CG-[CD] |==|  0.24688
USER: genes 19 Torsion [CB]-CG--CD-[NE] |==|  0.66449
USER: genes 20 Torsion [CG]-CD--NE-[CZ] |==|  0.31552
USER: genes 21 Torsion [N]-CA--C-[N] |==|  0.41105
USER: genes 22 Torsion [C]-N--CA-[CB] |==|  0.34350
USER: genes 23 Torsion [N]-CA--CB-[CG] |==|  0.79310
USER: genes 24 Torsion [CA]-CB--CG-[CD1] |==|  0.53785
USER: genes 25 Torsion [N]-CA--C-[O] |==|  0.98347
ROOT
ATOM      1  CA  GLN B   3     -12.398  -4.861   5.972  1.00 33.56 LIG 0.18  C 
ENDROOT
BRANCH 1 2
ATOM      2  N   GLN B   3     -12.911  -5.073   4.640  1.00 33.33 LIG-0.35  N 
ATOM      3  C   TYR B   2     -13.612  -6.158   4.322  1.00 35.73 LIG 0.24  C 
ATOM      4 O    TYR B   2     -13.708  -7.131   5.076  1.00 36.38 LIG-0.27  OA
ATOM      5 H    GLN B   3     -12.725  -4.443   4.085  1.00 33.33 LIG 0.16  HD
BRANCH 3 6
ATOM      6  CA  TYR B   2     -14.308  -6.187   2.963  1.00 35.98 LIG 0.18  C 
BRANCH 6 7
ATOM      7  CB  TYR B   2     -15.757  -6.704   3.074  1.00 34.22 LIG 0.07  C 
BRANCH 7 8
ATOM      8  CG  TYR B   2     -16.655  -6.026   2.091  1.00 30.67 LIG-0.06  A 
ATOM      9  CD2 TYR B   2     -17.388  -6.750   1.133  1.00 29.09 LIG 0.01  A 
ATOM     10  CE2 TYR B   2     -18.189  -6.062   0.162  1.00 27.51 LIG 0.04  A 
ATOM     11  CZ  TYR B   2     -18.232  -4.704   0.222  1.00 25.86 LIG 0.07  A 
ATOM     12  CE1 TYR B   2     -17.526  -3.986   1.205  1.00 26.16 LIG 0.04  A 
ATOM     13  CD1 TYR B   2     -16.758  -4.640   2.101  1.00 21.15 LIG 0.01  A 
BRANCH 11 14
ATOM     14 OH   TYR B   2     -19.017  -3.969  -0.622  1.00 29.83 LIG-0.36  OA
ATOM     15 HH   TYR B   2     -18.646  -3.915  -1.374  1.00 29.83 LIG 0.22  HD
ENDBRANCH 11 14
ENDBRANCH 7 8
ENDBRANCH 6 7
BRANCH 6 16
ATOM     16  N   TYR B   2     -13.545  -7.079   2.084  1.00 39.83 LIG-0.35  N 
ATOM     17  C   ASP B   1     -12.537  -6.632   1.344  1.00 42.84 LIG 0.25  C 
ATOM     18 O    ASP B   1     -12.267  -5.419   1.251  1.00 42.82 LIG-0.27  OA
ATOM     19 H    TYR B   2     -13.808  -7.898   2.094  1.00 39.83 LIG 0.16  HD
BRANCH 17 20
ATOM     20  CA  ASP B   1     -11.755  -7.712   0.547  1.00 44.92 LIG 0.28  C 
BRANCH 20 21
ATOM     21  CB  ASP B   1     -11.113  -7.048  -0.674  1.00 46.02 LIG 0.15  C 
BRANCH 21 22
ATOM     22  CG  ASP B   1     -10.915  -8.028  -1.830  1.00 51.60 LIG 0.17  C 
ATOM     23 OD1  ASP B   1     -11.187  -7.670  -3.031  1.00 55.22 LIG-0.65  OA
ATOM     24 OD2  ASP B   1     -10.464  -9.161  -1.519  1.00 56.25 LIG-0.65  OA
ENDBRANCH 21 22
ENDBRANCH 20 21
BRANCH 20 25
ATOM     25  N   ASP B   1     -12.629  -8.881   0.119  1.00 44.71 LIG-0.07  N 
ATOM     26 H1   ASP B   1     -12.159  -9.427  -0.404  1.00 44.71 LIG 0.28  HD
ATOM     27 H2   ASP B   1     -12.905  -9.325   0.839  1.00 44.71 LIG 0.28  HD
ATOM     28 H3   ASP B   1     -13.334  -8.576  -0.329  1.00 44.71 LIG 0.28  HD
ENDBRANCH 20 25
ENDBRANCH 17 20
ENDBRANCH 6 16
ENDBRANCH 3 6
ENDBRANCH 1 2
BRANCH 1 29
ATOM     29  CB  GLN B   3     -11.080  -4.098   5.927  1.00 34.45 LIG 0.04  C 
BRANCH 29 30
ATOM     30  CG  GLN B   3     -10.967  -3.027   4.829  1.00 38.50 LIG 0.10  C 
BRANCH 30 31
ATOM     31  CD  GLN B   3     -10.123  -3.464   3.606  1.00 47.01 LIG 0.21  C 
ATOM     32  NE2 GLN B   3     -10.766  -4.129   2.614  1.00 44.49 LIG-0.37  N 
ATOM     33 21HE GLN B   3     -11.611  -4.272   2.671  1.00 44.49 LIG 0.16  HD
ATOM     34 22HE GLN B   3     -10.327  -4.407   1.929  1.00 44.49 LIG 0.16  HD
ATOM     35 OE1  GLN B   3      -8.896  -3.228   3.576  1.00 47.46 LIG-0.27  OA
ENDBRANCH 30 31
ENDBRANCH 29 30
ENDBRANCH 1 29
BRANCH 1 36
ATOM     36  C   GLN B   3     -13.455  -4.041   6.734  1.00 32.58 LIG 0.24  C 
ATOM     37 O    GLN B   3     -14.142  -3.213   6.124  1.00 27.04 LIG-0.27  OA
ATOM     38  N   ARG B   4     -13.550  -4.260   8.057  1.00 32.15 LIG-0.35  N 
ATOM     39 H    ARG B   4     -13.049  -4.809   8.488  1.00 32.15 LIG 0.16  HD
BRANCH 38 40
ATOM     40  CA  ARG B   4     -14.552  -3.556   8.900  1.00 32.56 LIG 0.18  C 
BRANCH 40 41
ATOM     41  CB  ARG B   4     -14.455  -4.060  10.381  1.00 33.81 LIG 0.04  C 
BRANCH 41 42
ATOM     42  CG  ARG B   4     -15.235  -5.332  10.698  1.00 39.16 LIG 0.02  C 
BRANCH 42 43
ATOM     43  CD  ARG B   4     -14.391  -6.626  10.449  1.00 48.45 LIG 0.14  C 
BRANCH 43 44
ATOM     44  NE  ARG B   4     -15.052  -7.488   9.454  1.00 55.69 LIG-0.23  N 
ATOM     45  CZ  ARG B   4     -14.562  -7.758   8.231  1.00 58.57 LIG 0.67  C 
ATOM     46  NH1 ARG B   4     -15.235  -8.545   7.390  1.00 57.02 LIG-0.23  N 
ATOM     47  NH2 ARG B   4     -13.385  -7.256   7.847  1.00 58.84 LIG-0.23  N 
ATOM     48 2HH1 ARG B   4     -14.916  -8.713   6.609  1.00 57.02 LIG 0.17  HD
ATOM     49 1HH1 ARG B   4     -15.989  -8.884   7.628  1.00 57.02 LIG 0.17  HD
ATOM     50 2HH2 ARG B   4     -13.078  -7.433   7.064  1.00 58.84 LIG 0.17  HD
ATOM     51 1HH2 ARG B   4     -12.936  -6.757   8.384  1.00 58.84 LIG 0.17  HD
ATOM     52 HE   ARG B   4     -15.804  -7.844   9.671  1.00 55.69 LIG 0.18  HD
ENDBRANCH 43 44
ENDBRANCH 42 43
ENDBRANCH 41 42
ENDBRANCH 40 41
BRANCH 40 53
ATOM     53  C   ARG B   4     -14.446  -2.017   8.806  1.00 31.57 LIG 0.24  C 
ATOM     54  N   LEU B   5     -15.571  -1.329   8.933  1.00 29.97 LIG-0.34  N 
ATOM     55 H    LEU B   5     -16.357  -1.677   8.968  1.00 29.97 LIG 0.16  HD
ATOM     56 O    ARG B   4     -13.364  -1.456   8.656  1.00 31.05 LIG-0.27  OA
BRANCH 54 57
ATOM     57  CA  LEU B   5     -15.533   0.120   9.027  1.00 29.37 LIG 0.18  C 
BRANCH 57 58
ATOM     58  CB  LEU B   5     -16.400   0.734   7.929  1.00 29.49 LIG 0.04  C 
BRANCH 58 59
ATOM     59  CG  LEU B   5     -15.780   0.675   6.495  1.00 26.43 LIG-0.02  C 
ATOM     60  CD1 LEU B   5     -16.560   1.633   5.457  1.00 22.49 LIG 0.01  C 
ATOM     61  CD2 LEU B   5     -14.213   0.848   6.507  1.00 25.84 LIG 0.01  C 
ENDBRANCH 58 59
ENDBRANCH 57 58
BRANCH 57 62
ATOM     62  C   LEU B   5     -15.971   0.557  10.452  1.00 31.79 LIG 0.20  C 
ATOM     63 O    LEU B   5     -16.400  -0.266  11.303  1.00 32.21 LIG-0.65  OA
ATOM     64 OXT  LEU B   5     -15.911   1.756  10.751  1.00 32.71 LIG-0.65  OA
ENDBRANCH 57 62
ENDBRANCH 54 57
ENDBRANCH 40 53
ENDBRANCH 38 40
ENDBRANCH 1 36
TORSDOF 24
ENDMDL
