MODEL 1
USER: ADFR SOLUTION from run 81
USER: SCORE 13.769302 LL:  -2.772 LR: -11.712 RR:   0.000 FEB:  -8.431
USER: RMSD 1.381458
USER: SEED 80
USER: STATUS no improvement in best in 1 clusters for 5 generations
USER: GENES 13
USER: genes 0 Translation |==|  0.46432 0.49618 0.44542
USER: genes 1 Rotation |==|  0.55166 0.52370 0.45657 0.99486
USER: genes 2 Torsion [N]-C--CA-[N] |==|  0.36895
USER: genes 3 Torsion [C]-CA--CB-[CG1] |==|  0.86702
USER: genes 4 Torsion [CA]-CB--CG1-[CD1] |==|  0.32400
USER: genes 5 Torsion [C]-CA--N-[C] |==|  0.65771
USER: genes 6 Torsion [N]-C--CA-[N] |==|  0.49950
USER: genes 7 Torsion [C]-CA--N-[H1] |==|  0.36922
USER: genes 8 Torsion [C]-N--CA-[CB] |==|  0.47779
USER: genes 9 Torsion [N]-CA--C-[N] |==|  0.43982
USER: genes 10 Torsion [C]-N--CA-[CB] |==|  0.14931
USER: genes 11 Torsion [N]-CA--CB-[CG2] |==|  0.52990
USER: genes 12 Torsion [N]-CA--C-[O] |==|  0.07198
ROOT
ATOM      1  C   ILE B   2      27.625  34.623  11.249  1.00 15.80 LIG 0.24  C 
ATOM      2 O    ILE B   2      27.274  34.994  12.366  1.00 15.82 LIG-0.27  OA
ATOM      3  N   ALA B   3      27.715  33.344  10.903  1.00 15.83 LIG-0.35  N 
ATOM      4 H    ALA B   3      27.920  33.073  10.113  1.00 15.83 LIG 0.16  HD
ENDROOT
BRANCH 1 5
ATOM      5  CA  ILE B   2      28.036  35.604  10.167  1.00 17.33 LIG 0.18  C 
BRANCH 5 6
ATOM      6  CB  ILE B   2      29.466  36.124  10.399  1.00 21.75 LIG 0.01  C 
ATOM      7  CG2 ILE B   2      29.789  37.252   9.430  1.00 23.79 LIG 0.01  C 
BRANCH 6 8
ATOM      8  CG1 ILE B   2      29.656  36.562  11.823  1.00 23.11 LIG 0.00  C 
ATOM      9  CD1 ILE B   2      30.700  35.731  12.561  1.00 27.15 LIG 0.01  C 
ENDBRANCH 6 8
ENDBRANCH 5 6
BRANCH 5 10
ATOM     10  N   ILE B   2      27.042  36.664  10.044  1.00 15.33 LIG-0.35  N 
ATOM     11  C   ALA B   1      26.448  36.899   8.880  1.00 14.45 LIG 0.25  C 
ATOM     12 O    ALA B   1      26.716  36.326   7.832  1.00 16.00 LIG-0.27  OA
ATOM     13 H    ILE B   2      26.887  37.100  10.768  1.00 15.33 LIG 0.16  HD
BRANCH 11 14
ATOM     14  CA  ALA B   1      25.332  37.946   8.881  1.00 14.39 LIG 0.27  C 
ATOM     15  CB  ALA B   1      24.222  37.544   9.851  1.00 14.30 LIG 0.05  C 
BRANCH 14 16
ATOM     16  N   ALA B   1      24.812  38.060   7.506  1.00 15.51 LIG-0.07  N 
ATOM     17 H3   ALA B   1      25.115  37.382   7.016  1.00 15.51 LIG 0.28  HD
ATOM     18 H2   ALA B   1      25.084  38.828   7.148  1.00 15.51 LIG 0.28  HD
ATOM     19 H1   ALA B   1      23.922  38.040   7.522  1.00 15.51 LIG 0.28  HD
ENDBRANCH 14 16
ENDBRANCH 11 14
ENDBRANCH 5 10
ENDBRANCH 1 5
BRANCH 3 20
ATOM     20  CA  ALA B   3      27.463  32.266  11.871  1.00 17.37 LIG 0.17  C 
ATOM     21  CB  ALA B   3      27.437  30.905  11.188  1.00 18.86 LIG 0.04  C 
BRANCH 20 22
ATOM     22  C   ALA B   3      28.510  32.269  12.921  1.00 19.46 LIG 0.24  C 
ATOM     23  N   VAL B   4      28.203  31.685  14.064  1.00 19.29 LIG-0.34  N 
ATOM     24 H    VAL B   4      27.441  31.316  14.215  1.00 19.29 LIG 0.16  HD
ATOM     25 O    ALA B   3      29.604  32.790  12.708  1.00 22.03 LIG-0.27  OA
BRANCH 23 26
ATOM     26  CA  VAL B   4      29.131  31.605  15.195  1.00 21.21 LIG 0.19  C 
BRANCH 26 27
ATOM     27  CB  VAL B   4      29.658  33.001  15.572  1.00 21.09 LIG 0.01  C 
ATOM     28  CG2 VAL B   4      30.814  32.871  16.563  1.00 23.07 LIG 0.01  C 
ATOM     29  CG1 VAL B   4      28.562  33.900  16.135  1.00 23.35 LIG 0.01  C 
ENDBRANCH 26 27
BRANCH 26 30
ATOM     30  C   VAL B   4      28.388  30.965  16.356  1.00 22.92 LIG 0.20  C 
ATOM     31 O    VAL B   4      27.436  30.209  16.150  1.00 22.82 LIG-0.65  OA
ATOM     32 OXT  VAL B   4      28.765  31.153  17.534  1.00 22.76 LIG-0.65  OA
ENDBRANCH 26 30
ENDBRANCH 23 26
ENDBRANCH 20 22
ENDBRANCH 3 20
TORSDOF 11
ENDMDL
MODEL 2
USER: ADFR SOLUTION from run 143
USER: SCORE 13.025248 LL:  -2.481 LR: -11.174 RR:   0.000 FEB:  -7.893
USER: RMSD 2.961332
USER: SEED 142
USER: STATUS no improvement in best in 3 clusters for 5 generations
USER: GENES 13
USER: genes 0 Translation |==|  0.51413 0.56194 0.44177
USER: genes 1 Rotation |==|  0.46494 0.44457 0.65897 0.96950
USER: genes 2 Torsion [N]-C--CA-[N] |==|  0.49411
USER: genes 3 Torsion [C]-CA--CB-[CG1] |==|  0.90046
USER: genes 4 Torsion [CA]-CB--CG1-[CD1] |==|  0.37527
USER: genes 5 Torsion [C]-CA--N-[C] |==|  0.79145
USER: genes 6 Torsion [N]-C--CA-[N] |==|  0.33173
USER: genes 7 Torsion [C]-CA--N-[H1] |==|  0.65655
USER: genes 8 Torsion [C]-N--CA-[CB] |==|  0.86653
USER: genes 9 Torsion [N]-CA--C-[N] |==|  0.45262
USER: genes 10 Torsion [C]-N--CA-[CB] |==|  0.24233
USER: genes 11 Torsion [N]-CA--CB-[CG2] |==|  0.12351
USER: genes 12 Torsion [N]-CA--C-[O] |==|  0.96270
ROOT
ATOM      1  C   ILE B   2      28.409  35.708  11.177  1.00 15.80 LIG 0.24  C 
ATOM      2 O    ILE B   2      27.454  35.848  11.936  1.00 15.82 LIG-0.27  OA
ATOM      3  N   ALA B   3      29.429  34.897  11.436  1.00 15.83 LIG-0.35  N 
ATOM      4 H    ALA B   3      30.083  34.760  10.895  1.00 15.83 LIG 0.16  HD
ENDROOT
BRANCH 1 5
ATOM      5  CA  ILE B   2      28.533  36.493   9.885  1.00 17.33 LIG 0.18  C 
BRANCH 5 6
ATOM      6  CB  ILE B   2      29.845  37.295   9.842  1.00 21.75 LIG 0.01  C 
ATOM      7  CG2 ILE B   2      29.748  38.428   8.831  1.00 23.79 LIG 0.01  C 
BRANCH 6 8
ATOM      8  CG1 ILE B   2      30.206  37.813  11.204  1.00 23.11 LIG 0.00  C 
ATOM      9  CD1 ILE B   2      31.679  37.610  11.542  1.00 27.15 LIG 0.01  C 
ENDBRANCH 6 8
ENDBRANCH 5 6
BRANCH 5 10
ATOM     10  N   ILE B   2      27.343  37.309   9.676  1.00 15.33 LIG-0.35  N 
ATOM     11  C   ALA B   1      26.204  36.752   9.280  1.00 14.45 LIG 0.25  C 
ATOM     12 O    ALA B   1      26.069  35.570   8.997  1.00 16.00 LIG-0.27  OA
ATOM     13 H    ILE B   2      27.449  38.148   9.828  1.00 15.33 LIG 0.16  HD
BRANCH 11 14
ATOM     14  CA  ALA B   1      24.982  37.670   9.208  1.00 14.39 LIG 0.27  C 
ATOM     15  CB  ALA B   1      23.888  37.179  10.155  1.00 14.30 LIG 0.05  C 
BRANCH 14 16
ATOM     16  N   ALA B   1      24.503  37.686   7.814  1.00 15.51 LIG-0.07  N 
ATOM     17 H3   ALA B   1      23.685  37.338   7.777  1.00 15.51 LIG 0.28  HD
ATOM     18 H2   ALA B   1      25.052  37.205   7.306  1.00 15.51 LIG 0.28  HD
ATOM     19 H1   ALA B   1      24.482  38.525   7.517  1.00 15.51 LIG 0.28  HD
ENDBRANCH 14 16
ENDBRANCH 11 14
ENDBRANCH 5 10
ENDBRANCH 1 5
BRANCH 3 20
ATOM     20  CA  ALA B   3      29.518  34.153  12.700  1.00 17.37 LIG 0.17  C 
ATOM     21  CB  ALA B   3      29.261  35.061  13.896  1.00 18.86 LIG 0.04  C 
BRANCH 20 22
ATOM     22  C   ALA B   3      28.538  33.041  12.709  1.00 19.46 LIG 0.24  C 
ATOM     23  N   VAL B   4      28.729  32.089  13.603  1.00 19.29 LIG-0.34  N 
ATOM     24 H    VAL B   4      29.383  32.092  14.162  1.00 19.29 LIG 0.16  HD
ATOM     25 O    ALA B   3      27.598  33.034  11.915  1.00 22.03 LIG-0.27  OA
BRANCH 23 26
ATOM     26  CA  VAL B   4      27.847  30.928  13.735  1.00 21.21 LIG 0.19  C 
BRANCH 26 27
ATOM     27  CB  VAL B   4      28.286  29.794  12.791  1.00 21.09 LIG 0.01  C 
ATOM     28  CG2 VAL B   4      29.803  29.622  12.854  1.00 23.07 LIG 0.01  C 
ATOM     29  CG1 VAL B   4      27.828  30.028  11.354  1.00 23.35 LIG 0.01  C 
ENDBRANCH 26 27
BRANCH 26 30
ATOM     30  C   VAL B   4      27.889  30.481  15.187  1.00 22.92 LIG 0.20  C 
ATOM     31 O    VAL B   4      28.757  30.910  15.950  1.00 22.82 LIG-0.65  OA
ATOM     32 OXT  VAL B   4      27.010  29.715  15.643  1.00 22.76 LIG-0.65  OA
ENDBRANCH 26 30
ENDBRANCH 23 26
ENDBRANCH 20 22
ENDBRANCH 3 20
TORSDOF 11
ENDMDL
MODEL 3
USER: ADFR SOLUTION from run 104
USER: SCORE 12.677873 LL:  -2.747 LR: -11.153 RR:   0.000 FEB:  -7.872
USER: RMSD 1.916665
USER: SEED 103
USER: STATUS no improvement in best in 2 clusters for 5 generations
USER: GENES 13
USER: genes 0 Translation |==|  0.49798 0.55990 0.42443
USER: genes 1 Rotation |==|  0.48500 0.42998 0.56702 0.99029
USER: genes 2 Torsion [N]-C--CA-[N] |==|  0.45541
USER: genes 3 Torsion [C]-CA--CB-[CG1] |==|  0.92109
USER: genes 4 Torsion [CA]-CB--CG1-[CD1] |==|  0.31137
USER: genes 5 Torsion [C]-CA--N-[C] |==|  0.76526
USER: genes 6 Torsion [N]-C--CA-[N] |==|  0.44815
USER: genes 7 Torsion [C]-CA--N-[H1] |==|  0.65666
USER: genes 8 Torsion [C]-N--CA-[CB] |==|  0.51111
USER: genes 9 Torsion [N]-CA--C-[N] |==|  0.71576
USER: genes 10 Torsion [C]-N--CA-[CB] |==|  0.20048
USER: genes 11 Torsion [N]-CA--CB-[CG2] |==|  0.07698
USER: genes 12 Torsion [N]-CA--C-[O] |==|  0.96808
ROOT
ATOM      1  C   ILE B   2      28.155  35.674  10.839  1.00 15.80 LIG 0.24  C 
ATOM      2 O    ILE B   2      27.258  36.045  11.592  1.00 15.82 LIG-0.27  OA
ATOM      3  N   ALA B   3      28.807  34.528  10.997  1.00 15.83 LIG-0.35  N 
ATOM      4 H    ALA B   3      29.408  34.239  10.454  1.00 15.83 LIG 0.16  HD
ENDROOT
BRANCH 1 5
ATOM      5  CA  ILE B   2      28.635  36.525   9.678  1.00 17.33 LIG 0.18  C 
BRANCH 5 6
ATOM      6  CB  ILE B   2      30.040  37.093   9.945  1.00 21.75 LIG 0.01  C 
ATOM      7  CG2 ILE B   2      30.239  38.403   9.198  1.00 23.79 LIG 0.01  C 
BRANCH 6 8
ATOM      8  CG1 ILE B   2      30.281  37.267  11.417  1.00 23.11 LIG 0.00  C 
ATOM      9  CD1 ILE B   2      31.337  36.311  11.960  1.00 27.15 LIG 0.01  C 
ENDBRANCH 6 8
ENDBRANCH 5 6
BRANCH 5 10
ATOM     10  N   ILE B   2      27.644  37.545   9.357  1.00 15.33 LIG-0.35  N 
ATOM     11  C   ALA B   1      26.621  37.264   8.558  1.00 14.45 LIG 0.25  C 
ATOM     12 O    ALA B   1      26.458  36.195   7.985  1.00 16.00 LIG-0.27  OA
ATOM     13 H    ILE B   2      27.783  38.311   9.721  1.00 15.33 LIG 0.16  HD
BRANCH 11 14
ATOM     14  CA  ALA B   1      25.569  38.361   8.382  1.00 14.39 LIG 0.27  C 
ATOM     15  CB  ALA B   1      24.654  38.426   9.605  1.00 14.30 LIG 0.05  C 
BRANCH 14 16
ATOM     16  N   ALA B   1      24.796  38.061   7.163  1.00 15.51 LIG-0.07  N 
ATOM     17 H3   ALA B   1      23.947  37.905   7.380  1.00 15.51 LIG 0.28  HD
ATOM     18 H2   ALA B   1      25.137  37.342   6.765  1.00 15.51 LIG 0.28  HD
ATOM     19 H1   ALA B   1      24.837  38.755   6.607  1.00 15.51 LIG 0.28  HD
ENDBRANCH 14 16
ENDBRANCH 11 14
ENDBRANCH 5 10
ENDBRANCH 1 5
BRANCH 3 20
ATOM     20  CA  ALA B   3      28.542  33.644  12.140  1.00 17.37 LIG 0.17  C 
ATOM     21  CB  ALA B   3      29.485  32.447  12.144  1.00 18.86 LIG 0.04  C 
BRANCH 20 22
ATOM     22  C   ALA B   3      28.695  34.392  13.411  1.00 19.46 LIG 0.24  C 
ATOM     23  N   VAL B   4      29.814  34.195  14.084  1.00 19.29 LIG-0.34  N 
ATOM     24 H    VAL B   4      30.436  33.664  13.819  1.00 19.29 LIG 0.16  HD
ATOM     25 O    ALA B   3      27.811  35.158  13.793  1.00 22.03 LIG-0.27  OA
BRANCH 23 26
ATOM     26  CA  VAL B   4      30.111  34.863  15.353  1.00 21.21 LIG 0.19  C 
BRANCH 26 27
ATOM     27  CB  VAL B   4      29.244  34.291  16.490  1.00 21.09 LIG 0.01  C 
ATOM     28  CG2 VAL B   4      28.873  32.840  16.182  1.00 23.07 LIG 0.01  C 
ATOM     29  CG1 VAL B   4      27.993  35.127  16.740  1.00 23.35 LIG 0.01  C 
ENDBRANCH 26 27
BRANCH 26 30
ATOM     30  C   VAL B   4      31.591  34.670  15.640  1.00 22.92 LIG 0.20  C 
ATOM     31 O    VAL B   4      32.258  33.872  14.977  1.00 22.82 LIG-0.65  OA
ATOM     32 OXT  VAL B   4      32.165  35.357  16.514  1.00 22.76 LIG-0.65  OA
ENDBRANCH 26 30
ENDBRANCH 23 26
ENDBRANCH 20 22
ENDBRANCH 3 20
TORSDOF 11
ENDMDL
MODEL 4
USER: ADFR SOLUTION from run 32
USER: SCORE 12.736134 LL:  -2.480 LR: -10.648 RR:   0.000 FEB:  -7.367
USER: RMSD 2.111787
USER: SEED 31
USER: STATUS 1 or 2 clusters left
USER: GENES 13
USER: genes 0 Translation |==|  0.48024 0.50489 0.46588
USER: genes 1 Rotation |==|  0.49681 0.53674 0.50678 0.99859
USER: genes 2 Torsion [N]-C--CA-[N] |==|  0.40395
USER: genes 3 Torsion [C]-CA--CB-[CG1] |==|  0.10096
USER: genes 4 Torsion [CA]-CB--CG1-[CD1] |==|  0.64090
USER: genes 5 Torsion [C]-CA--N-[C] |==|  0.62759
USER: genes 6 Torsion [N]-C--CA-[N] |==|  0.50818
USER: genes 7 Torsion [C]-CA--N-[H1] |==|  0.31251
USER: genes 8 Torsion [C]-N--CA-[CB] |==|  0.52222
USER: genes 9 Torsion [N]-CA--C-[N] |==|  0.41591
USER: genes 10 Torsion [C]-N--CA-[CB] |==|  0.85338
USER: genes 11 Torsion [N]-CA--CB-[CG2] |==|  0.86945
USER: genes 12 Torsion [N]-CA--C-[O] |==|  0.60099
ROOT
ATOM      1  C   ILE B   2      27.876  34.767  11.648  1.00 15.80 LIG 0.24  C 
ATOM      2 O    ILE B   2      27.482  35.280  12.692  1.00 15.82 LIG-0.27  OA
ATOM      3  N   ALA B   3      28.233  33.491  11.555  1.00 15.83 LIG-0.35  N 
ATOM      4 H    ALA B   3      28.472  33.111  10.822  1.00 15.83 LIG 0.16  HD
ENDROOT
BRANCH 1 5
ATOM      5  CA  ILE B   2      28.034  35.566  10.368  1.00 17.33 LIG 0.18  C 
BRANCH 5 6
ATOM      6  CB  ILE B   2      29.449  36.158  10.250  1.00 21.75 LIG 0.01  C 
ATOM      7  CG2 ILE B   2      29.523  37.512  10.941  1.00 23.79 LIG 0.01  C 
BRANCH 6 8
ATOM      8  CG1 ILE B   2      30.477  35.212  10.801  1.00 23.11 LIG 0.00  C 
ATOM      9  CD1 ILE B   2      31.415  35.878  11.802  1.00 27.15 LIG 0.01  C 
ENDBRANCH 6 8
ENDBRANCH 5 6
BRANCH 5 10
ATOM     10  N   ILE B   2      26.974  36.561  10.261  1.00 15.33 LIG-0.35  N 
ATOM     11  C   ALA B   1      26.314  36.724   9.120  1.00 14.45 LIG 0.25  C 
ATOM     12 O    ALA B   1      26.567  36.134   8.078  1.00 16.00 LIG-0.27  OA
ATOM     13 H    ILE B   2      26.826  37.011  10.978  1.00 15.33 LIG 0.16  HD
BRANCH 11 14
ATOM     14  CA  ALA B   1      25.138  37.703   9.143  1.00 14.39 LIG 0.27  C 
ATOM     15  CB  ALA B   1      24.137  37.311  10.230  1.00 14.30 LIG 0.05  C 
BRANCH 14 16
ATOM     16  N   ALA B   1      24.503  37.686   7.813  1.00 15.51 LIG-0.07  N 
ATOM     17 H3   ALA B   1      24.997  37.200   7.254  1.00 15.51 LIG 0.28  HD
ATOM     18 H2   ALA B   1      24.438  38.518   7.504  1.00 15.51 LIG 0.28  HD
ATOM     19 H1   ALA B   1      23.689  37.329   7.876  1.00 15.51 LIG 0.28  HD
ENDBRANCH 14 16
ENDBRANCH 11 14
ENDBRANCH 5 10
ENDBRANCH 1 5
BRANCH 3 20
ATOM     20  CA  ALA B   3      28.249  32.610  12.731  1.00 17.37 LIG 0.17  C 
ATOM     21  CB  ALA B   3      28.878  31.262  12.404  1.00 18.86 LIG 0.04  C 
BRANCH 20 22
ATOM     22  C   ALA B   3      29.004  33.248  13.837  1.00 19.46 LIG 0.24  C 
ATOM     23  N   VAL B   4      28.625  32.944  15.065  1.00 19.29 LIG-0.34  N 
ATOM     24 H    VAL B   4      27.977  32.406  15.239  1.00 19.29 LIG 0.16  HD
ATOM     25 O    ALA B   3      29.936  34.013  13.595  1.00 22.03 LIG-0.27  OA
BRANCH 23 26
ATOM     26  CA  VAL B   4      29.272  33.492  16.259  1.00 21.21 LIG 0.19  C 
BRANCH 26 27
ATOM     27  CB  VAL B   4      30.794  33.267  16.211  1.00 21.09 LIG 0.01  C 
ATOM     28  CG2 VAL B   4      31.095  31.821  15.816  1.00 23.07 LIG 0.01  C 
ATOM     29  CG1 VAL B   4      31.473  33.618  17.531  1.00 23.35 LIG 0.01  C 
ENDBRANCH 26 27
BRANCH 26 30
ATOM     30  C   VAL B   4      28.937  34.973  16.326  1.00 22.92 LIG 0.20  C 
ATOM     31 O    VAL B   4      29.770  35.786  16.734  1.00 22.82 LIG-0.65  OA
ATOM     32 OXT  VAL B   4      27.832  35.394  15.916  1.00 22.76 LIG-0.65  OA
ENDBRANCH 26 30
ENDBRANCH 23 26
ENDBRANCH 20 22
ENDBRANCH 3 20
TORSDOF 11
ENDMDL
