MODEL 1
USER: ADFR SOLUTION from run 141
USER: SCORE 12.182810 LL:  -1.790 LR: -13.138 RR:   0.000 FEB: -10.155
USER: RMSD 3.334887
USER: SEED 140
USER: STATUS no improvement in best in 3 clusters for 5 generations
USER: GENES 12
USER: genes 0 Translation |==|  0.36988 0.65555 0.36297
USER: genes 1 Rotation |==|  0.56556 0.19447 0.81714 0.72754
USER: genes 2 Torsion [CB]-CA--N-[C] |==|  0.26111
USER: genes 3 Torsion [N]-C--CA-[N] |==|  0.37408
USER: genes 4 Torsion [C]-CA--N-[H3] |==|  0.29230
USER: genes 5 Torsion [N]-CA--CB-[CG2] |==|  0.19445
USER: genes 6 Torsion [CA]-CB--OG1-[HG1] |==|  0.99523
USER: genes 7 Torsion [N]-CA--C-[N] |==|  0.41368
USER: genes 8 Torsion [C]-N--CA-[CB] |==|  0.14186
USER: genes 9 Torsion [N]-CA--C-[N] |==|  0.39027
USER: genes 10 Torsion [C]-N--CA-[CB] |==|  0.27021
USER: genes 11 Torsion [N]-CA--C-[O] |==|  0.93838
ROOT
ATOM      1  CA  THR B   2      25.684  37.270   9.378  1.00 29.13 LIG 0.20  C 
ENDROOT
BRANCH 1 2
ATOM      2  N   THR B   2      25.610  37.264   7.918  1.00 25.25 LIG-0.34  N 
ATOM      3 H    THR B   2      25.286  36.535   7.595  1.00 25.25 LIG 0.16  HD
ATOM      4  C   ALA B   1      25.998  38.268   7.161  1.00 22.96 LIG 0.25  C 
ATOM      5 O    ALA B   1      26.509  39.320   7.543  1.00 26.59 LIG-0.27  OA
BRANCH 4 6
ATOM      6  CA  ALA B   1      25.904  37.949   5.662  1.00 23.15 LIG 0.27  C 
ATOM      7  CB  ALA B   1      27.328  37.706   5.079  1.00 22.78 LIG 0.05  C 
BRANCH 6 8
ATOM      8  N   ALA B   1      25.288  39.097   5.008  1.00 25.73 LIG-0.07  N 
ATOM      9 H3   ALA B   1      25.909  39.555   4.565  1.00 25.73 LIG 0.28  HD
ATOM     10 H1   ALA B   1      24.665  38.815   4.439  1.00 25.73 LIG 0.28  HD
ATOM     11 H2   ALA B   1      24.913  39.623   5.621  1.00 25.73 LIG 0.28  HD
ENDBRANCH 6 8
ENDBRANCH 4 6
ENDBRANCH 1 2
BRANCH 1 12
ATOM     12  CB  THR B   2      24.355  37.737  10.014  1.00 34.37 LIG 0.15  C 
ATOM     13  CG2 THR B   2      23.327  36.694   9.802  1.00 33.94 LIG 0.04  C 
BRANCH 12 14
ATOM     14 OG1  THR B   2      24.498  37.939  11.423  1.00 38.98 LIG-0.39  OA
ATOM     15 HG1  THR B   2      25.281  37.743  11.657  1.00 38.98 LIG 0.21  HD
ENDBRANCH 12 14
ENDBRANCH 1 12
BRANCH 1 16
ATOM     16  C   THR B   2      26.073  35.888   9.951  1.00 26.58 LIG 0.24  C 
ATOM     17  N   ALA B   3      26.773  35.910  11.097  1.00 27.81 LIG-0.35  N 
ATOM     18 H    ALA B   3      27.016  36.627  11.504  1.00 27.81 LIG 0.16  HD
ATOM     19 O    THR B   2      25.654  34.839   9.425  1.00 25.13 LIG-0.27  OA
BRANCH 17 20
ATOM     20  CA  ALA B   3      27.182  34.655  11.754  1.00 29.92 LIG 0.17  C 
ATOM     21  CB  ALA B   3      27.882  33.725  10.781  1.00 32.19 LIG 0.04  C 
BRANCH 20 22
ATOM     22  C   ALA B   3      28.119  35.056  12.844  1.00 36.50 LIG 0.24  C 
ATOM     23 O    ALA B   3      28.926  35.954  12.664  1.00 40.07 LIG-0.27  OA
ATOM     24  N   ALA B   4      28.004  34.393  13.982  1.00 42.66 LIG-0.34  N 
ATOM     25 H    ALA B   4      27.576  33.651  14.050  1.00 42.66 LIG 0.16  HD
BRANCH 24 26
ATOM     26  CA  ALA B   4      28.587  34.843  15.237  1.00 45.67 LIG 0.18  C 
ATOM     27  CB  ALA B   4      27.538  35.570  16.062  1.00 44.89 LIG 0.04  C 
BRANCH 26 28
ATOM     28  C   ALA B   4      29.106  33.633  15.987  1.00 51.09 LIG 0.20  C 
ATOM     29 O    ALA B   4      28.664  32.492  15.750  1.00 48.34 LIG-0.65  OA
ATOM     30 OXT  ALA B   4      29.976  33.804  16.847  1.00 61.57 LIG-0.65  OA
ENDBRANCH 26 28
ENDBRANCH 24 26
ENDBRANCH 20 22
ENDBRANCH 17 20
ENDBRANCH 1 16
TORSDOF 10
ENDMDL
MODEL 2
USER: ADFR SOLUTION from run 120
USER: SCORE 13.079082 LL:  -2.005 LR: -12.073 RR:   0.000 FEB:  -9.090
USER: RMSD 4.067124
USER: SEED 119
USER: STATUS no improvement in best in 3 clusters for 5 generations
USER: GENES 12
USER: genes 0 Translation |==|  0.37747 0.69682 0.34567
USER: genes 1 Rotation |==|  0.65879 0.20458 0.82393 0.68050
USER: genes 2 Torsion [CB]-CA--N-[C] |==|  0.58889
USER: genes 3 Torsion [N]-C--CA-[N] |==|  0.14603
USER: genes 4 Torsion [C]-CA--N-[H3] |==|  0.22700
USER: genes 5 Torsion [N]-CA--CB-[CG2] |==|  0.14586
USER: genes 6 Torsion [CA]-CB--OG1-[HG1] |==|  0.95971
USER: genes 7 Torsion [N]-CA--C-[N] |==|  0.34935
USER: genes 8 Torsion [C]-N--CA-[CB] |==|  0.46684
USER: genes 9 Torsion [N]-CA--C-[N] |==|  0.45557
USER: genes 10 Torsion [C]-N--CA-[CB] |==|  0.25246
USER: genes 11 Torsion [N]-CA--C-[O] |==|  0.00379
ROOT
ATOM      1  CA  THR B   2      25.792  37.920   9.041  1.00 29.13 LIG 0.20  C 
ENDROOT
BRANCH 1 2
ATOM      2  N   THR B   2      25.491  38.069   7.617  1.00 25.25 LIG-0.34  N 
ATOM      3 H    THR B   2      24.752  38.483   7.467  1.00 25.25 LIG 0.16  HD
ATOM      4  C   ALA B   1      26.265  37.618   6.654  1.00 22.96 LIG 0.25  C 
ATOM      5 O    ALA B   1      27.309  36.982   6.789  1.00 26.59 LIG-0.27  OA
BRANCH 4 6
ATOM      6  CA  ALA B   1      25.653  37.822   5.261  1.00 23.15 LIG 0.27  C 
ATOM      7  CB  ALA B   1      26.694  37.451   4.162  1.00 22.78 LIG 0.05  C 
BRANCH 6 8
ATOM      8  N   ALA B   1      25.288  39.229   5.145  1.00 25.73 LIG-0.07  N 
ATOM      9 H3   ALA B   1      26.007  39.705   4.928  1.00 25.73 LIG 0.28  HD
ATOM     10 H1   ALA B   1      24.668  39.323   4.514  1.00 25.73 LIG 0.28  HD
ATOM     11 H2   ALA B   1      24.965  39.517   5.923  1.00 25.73 LIG 0.28  HD
ENDBRANCH 6 8
ENDBRANCH 4 6
ENDBRANCH 1 2
BRANCH 1 12
ATOM     12  CB  THR B   2      24.505  37.784   9.885  1.00 34.37 LIG 0.15  C 
ATOM     13  CG2 THR B   2      23.669  36.703   9.318  1.00 33.94 LIG 0.04  C 
BRANCH 12 14
ATOM     14 OG1  THR B   2      24.808  37.445  11.241  1.00 38.98 LIG-0.39  OA
ATOM     15 HG1  THR B   2      25.606  37.187  11.295  1.00 38.98 LIG 0.21  HD
ENDBRANCH 12 14
ENDBRANCH 1 12
BRANCH 1 16
ATOM     16  C   THR B   2      26.722  36.718   9.320  1.00 26.58 LIG 0.24  C 
ATOM     17  N   ALA B   3      27.840  36.996  10.013  1.00 27.81 LIG-0.35  N 
ATOM     18 H    ALA B   3      28.060  37.781  10.285  1.00 27.81 LIG 0.16  HD
ATOM     19 O    THR B   2      26.379  35.561   9.013  1.00 25.13 LIG-0.27  OA
BRANCH 17 20
ATOM     20  CA  ALA B   3      28.795  35.929  10.362  1.00 29.92 LIG 0.17  C 
ATOM     21  CB  ALA B   3      30.102  36.504  10.876  1.00 32.19 LIG 0.04  C 
BRANCH 20 22
ATOM     22  C   ALA B   3      28.132  35.126  11.431  1.00 36.50 LIG 0.24  C 
ATOM     23 O    ALA B   3      27.163  35.571  12.024  1.00 40.07 LIG-0.27  OA
ATOM     24  N   ALA B   4      28.652  33.935  11.670  1.00 42.66 LIG-0.34  N 
ATOM     25 H    ALA B   4      29.431  33.700  11.392  1.00 42.66 LIG 0.16  HD
BRANCH 24 26
ATOM     26  CA  ALA B   4      27.968  32.895  12.424  1.00 45.67 LIG 0.18  C 
ATOM     27  CB  ALA B   4      27.163  32.017  11.481  1.00 44.89 LIG 0.04  C 
BRANCH 26 28
ATOM     28  C   ALA B   4      29.007  32.072  13.158  1.00 51.09 LIG 0.20  C 
ATOM     29 O    ALA B   4      30.220  32.349  13.078  1.00 48.34 LIG-0.65  OA
ATOM     30 OXT  ALA B   4      28.624  31.112  13.835  1.00 61.57 LIG-0.65  OA
ENDBRANCH 26 28
ENDBRANCH 24 26
ENDBRANCH 20 22
ENDBRANCH 17 20
ENDBRANCH 1 16
TORSDOF 10
ENDMDL
MODEL 3
USER: ADFR SOLUTION from run 178
USER: SCORE 12.150239 LL:  -1.871 LR: -11.767 RR:   0.000 FEB:  -8.784
USER: RMSD 4.385904
USER: SEED 177
USER: STATUS no improvement in best in 6 clusters for 5 generations
USER: GENES 12
USER: genes 0 Translation |==|  0.38465 0.64032 0.36223
USER: genes 1 Rotation |==|  0.65752 0.21768 0.85703 0.63420
USER: genes 2 Torsion [CB]-CA--N-[C] |==|  0.28889
USER: genes 3 Torsion [N]-C--CA-[N] |==|  0.45589
USER: genes 4 Torsion [C]-CA--N-[H3] |==|  0.28889
USER: genes 5 Torsion [N]-CA--CB-[CG2] |==|  0.66625
USER: genes 6 Torsion [CA]-CB--OG1-[HG1] |==|  0.01208
USER: genes 7 Torsion [N]-CA--C-[N] |==|  0.46737
USER: genes 8 Torsion [C]-N--CA-[CB] |==|  0.86977
USER: genes 9 Torsion [N]-CA--C-[N] |==|  0.37690
USER: genes 10 Torsion [C]-N--CA-[CB] |==|  0.17743
USER: genes 11 Torsion [N]-CA--C-[O] |==|  0.61525
ROOT
ATOM      1  CA  THR B   2      25.894  37.030   9.363  1.00 29.13 LIG 0.20  C 
ENDROOT
BRANCH 1 2
ATOM      2  N   THR B   2      25.774  37.060   7.906  1.00 25.25 LIG-0.34  N 
ATOM      3 H    THR B   2      25.730  36.277   7.552  1.00 25.25 LIG 0.16  HD
ATOM      4  C   ALA B   1      25.735  38.168   7.198  1.00 22.96 LIG 0.25  C 
ATOM      5 O    ALA B   1      25.834  39.317   7.626  1.00 26.59 LIG-0.27  OA
BRANCH 4 6
ATOM      6  CA  ALA B   1      25.709  37.901   5.686  1.00 23.15 LIG 0.27  C 
ATOM      7  CB  ALA B   1      27.131  37.496   5.193  1.00 22.78 LIG 0.05  C 
BRANCH 6 8
ATOM      8  N   ALA B   1      25.288  39.134   5.031  1.00 25.73 LIG-0.07  N 
ATOM      9 H3   ALA B   1      25.994  39.531   4.663  1.00 25.73 LIG 0.28  HD
ATOM     10 H1   ALA B   1      24.690  38.945   4.400  1.00 25.73 LIG 0.28  HD
ATOM     11 H2   ALA B   1      24.922  39.679   5.632  1.00 25.73 LIG 0.28  HD
ENDBRANCH 6 8
ENDBRANCH 4 6
ENDBRANCH 1 2
BRANCH 1 12
ATOM     12  CB  THR B   2      24.546  36.696  10.040  1.00 34.37 LIG 0.15  C 
ATOM     13  CG2 THR B   2      24.163  37.815  10.929  1.00 33.94 LIG 0.04  C 
BRANCH 12 14
ATOM     14 OG1  THR B   2      23.508  36.525   9.071  1.00 38.98 LIG-0.39  OA
ATOM     15 HG1  THR B   2      23.833  36.579   8.298  1.00 38.98 LIG 0.21  HD
ENDBRANCH 12 14
ENDBRANCH 1 12
BRANCH 1 16
ATOM     16  C   THR B   2      26.974  36.032   9.842  1.00 26.58 LIG 0.24  C 
ATOM     17  N   ALA B   3      27.316  36.123  11.138  1.00 27.81 LIG-0.35  N 
ATOM     18 H    ALA B   3      26.986  36.695  11.689  1.00 27.81 LIG 0.16  HD
ATOM     19 O    THR B   2      27.398  35.140   9.083  1.00 25.13 LIG-0.27  OA
BRANCH 17 20
ATOM     20  CA  ALA B   3      28.318  35.210  11.718  1.00 29.92 LIG 0.17  C 
ATOM     21  CB  ALA B   3      28.049  33.770  11.322  1.00 32.19 LIG 0.04  C 
BRANCH 20 22
ATOM     22  C   ALA B   3      29.634  35.655  11.173  1.00 36.50 LIG 0.24  C 
ATOM     23 O    ALA B   3      29.747  35.939   9.992  1.00 40.07 LIG-0.27  OA
ATOM     24  N   ALA B   4      30.629  35.723  12.040  1.00 42.66 LIG-0.34  N 
ATOM     25 H    ALA B   4      30.600  35.353  12.815  1.00 42.66 LIG 0.16  HD
BRANCH 24 26
ATOM     26  CA  ALA B   4      31.874  36.430  11.781  1.00 45.67 LIG 0.18  C 
ATOM     27  CB  ALA B   4      31.601  37.915  11.614  1.00 44.89 LIG 0.04  C 
BRANCH 26 28
ATOM     28  C   ALA B   4      32.813  36.192  12.946  1.00 51.09 LIG 0.20  C 
ATOM     29 O    ALA B   4      33.509  37.116  13.409  1.00 48.34 LIG-0.65  OA
ATOM     30 OXT  ALA B   4      32.877  35.055  13.426  1.00 61.57 LIG-0.65  OA
ENDBRANCH 26 28
ENDBRANCH 24 26
ENDBRANCH 20 22
ENDBRANCH 17 20
ENDBRANCH 1 16
TORSDOF 10
ENDMDL
MODEL 4
USER: ADFR SOLUTION from run 79
USER: SCORE 11.163384 LL:  -1.987 LR: -11.344 RR:   0.000 FEB:  -8.361
USER: RMSD 3.100224
USER: SEED 78
USER: STATUS no improvement in best in 9 clusters for 5 generations
USER: GENES 12
USER: genes 0 Translation |==|  0.44703 0.50876 0.46856
USER: genes 1 Rotation |==|  0.28183 0.74830 0.27872 0.80296
USER: genes 2 Torsion [CB]-CA--N-[C] |==|  0.16812
USER: genes 3 Torsion [N]-C--CA-[N] |==|  0.44672
USER: genes 4 Torsion [C]-CA--N-[H3] |==|  0.81539
USER: genes 5 Torsion [N]-CA--CB-[CG2] |==|  0.25436
USER: genes 6 Torsion [CA]-CB--OG1-[HG1] |==|  0.95787
USER: genes 7 Torsion [N]-CA--C-[N] |==|  0.45556
USER: genes 8 Torsion [C]-N--CA-[CB] |==|  0.27647
USER: genes 9 Torsion [N]-CA--C-[N] |==|  0.86230
USER: genes 10 Torsion [C]-N--CA-[CB] |==|  0.23630
USER: genes 11 Torsion [N]-CA--C-[O] |==|  0.22822
ROOT
ATOM      1  CA  THR B   2      26.783  34.958  11.437  1.00 29.13 LIG 0.20  C 
ENDROOT
BRANCH 1 2
ATOM      2  N   THR B   2      26.488  36.149  10.641  1.00 25.25 LIG-0.34  N 
ATOM      3 H    THR B   2      26.978  36.826  10.846  1.00 25.25 LIG 0.16  HD
ATOM      4  C   ALA B   1      25.566  36.193   9.703  1.00 22.96 LIG 0.25  C 
ATOM      5 O    ALA B   1      24.800  35.285   9.385  1.00 26.59 LIG-0.27  OA
BRANCH 4 6
ATOM      6  CA  ALA B   1      25.401  37.596   9.103  1.00 23.15 LIG 0.27  C 
ATOM      7  CB  ALA B   1      24.538  38.482  10.050  1.00 22.78 LIG 0.05  C 
BRANCH 6 8
ATOM      8  N   ALA B   1      24.732  37.445   7.816  1.00 25.73 LIG-0.07  N 
ATOM      9 H3   ALA B   1      25.268  37.014   7.251  1.00 25.73 LIG 0.28  HD
ATOM     10 H1   ALA B   1      23.981  36.981   7.925  1.00 25.73 LIG 0.28  HD
ATOM     11 H2   ALA B   1      24.538  38.249   7.486  1.00 25.73 LIG 0.28  HD
ENDBRANCH 6 8
ENDBRANCH 4 6
ENDBRANCH 1 2
BRANCH 1 12
ATOM     12  CB  THR B   2      27.245  33.780  10.550  1.00 34.37 LIG 0.15  C 
ATOM     13  CG2 THR B   2      28.720  33.809  10.439  1.00 33.94 LIG 0.04  C 
BRANCH 12 14
ATOM     14 OG1  THR B   2      26.869  32.523  11.122  1.00 38.98 LIG-0.39  OA
ATOM     15 HG1  THR B   2      26.652  32.633  11.926  1.00 38.98 LIG 0.21  HD
ENDBRANCH 12 14
ENDBRANCH 1 12
BRANCH 1 16
ATOM     16  C   THR B   2      27.844  35.230  12.528  1.00 26.58 LIG 0.24  C 
ATOM     17  N   ALA B   3      27.928  34.307  13.500  1.00 27.81 LIG-0.35  N 
ATOM     18 H    ALA B   3      27.431  33.608  13.551  1.00 27.81 LIG 0.16  HD
ATOM     19 O    THR B   2      28.632  36.189  12.425  1.00 25.13 LIG-0.27  OA
BRANCH 17 20
ATOM     20  CA  ALA B   3      28.918  34.443  14.585  1.00 29.92 LIG 0.17  C 
ATOM     21  CB  ALA B   3      28.285  35.008  15.843  1.00 32.19 LIG 0.04  C 
BRANCH 20 22
ATOM     22  C   ALA B   3      29.428  33.065  14.842  1.00 36.50 LIG 0.24  C 
ATOM     23 O    ALA B   3      30.629  32.854  14.902  1.00 40.07 LIG-0.27  OA
ATOM     24  N   ALA B   4      28.512  32.127  15.003  1.00 42.66 LIG-0.34  N 
ATOM     25 H    ALA B   4      27.688  32.233  14.780  1.00 42.66 LIG 0.16  HD
BRANCH 24 26
ATOM     26  CA  ALA B   4      28.792  30.818  15.573  1.00 45.67 LIG 0.18  C 
ATOM     27  CB  ALA B   4      28.722  30.888  17.089  1.00 44.89 LIG 0.04  C 
BRANCH 26 28
ATOM     28  C   ALA B   4      27.772  29.833  15.041  1.00 51.09 LIG 0.20  C 
ATOM     29 O    ALA B   4      27.913  29.303  13.921  1.00 48.34 LIG-0.65  OA
ATOM     30 OXT  ALA B   4      26.788  29.570  15.741  1.00 61.57 LIG-0.65  OA
ENDBRANCH 26 28
ENDBRANCH 24 26
ENDBRANCH 20 22
ENDBRANCH 17 20
ENDBRANCH 1 16
TORSDOF 10
ENDMDL
MODEL 5
USER: ADFR SOLUTION from run 46
USER: SCORE 11.594464 LL:  -2.198 LR: -11.238 RR:   0.000 FEB:  -8.255
USER: RMSD 1.097821
USER: SEED 45
USER: STATUS no improvement in best in 4 clusters for 5 generations
USER: GENES 12
USER: genes 0 Translation |==|  0.52850 0.56359 0.40215
USER: genes 1 Rotation |==|  0.51965 0.48172 0.52343 0.99873
USER: genes 2 Torsion [CB]-CA--N-[C] |==|  0.27727
USER: genes 3 Torsion [N]-C--CA-[N] |==|  0.57598
USER: genes 4 Torsion [C]-CA--N-[H3] |==|  0.02278
USER: genes 5 Torsion [N]-CA--CB-[CG2] |==|  0.65348
USER: genes 6 Torsion [CA]-CB--OG1-[HG1] |==|  0.03459
USER: genes 7 Torsion [N]-CA--C-[N] |==|  0.35930
USER: genes 8 Torsion [C]-N--CA-[CB] |==|  0.46673
USER: genes 9 Torsion [N]-CA--C-[N] |==|  0.44662
USER: genes 10 Torsion [C]-N--CA-[CB] |==|  0.17544
USER: genes 11 Torsion [N]-CA--C-[O] |==|  0.98959
ROOT
ATOM      1  CA  THR B   2      27.944  35.822  10.142  1.00 29.13 LIG 0.20  C 
ENDROOT
BRANCH 1 2
ATOM      2  N   THR B   2      26.857  36.756   9.855  1.00 25.25 LIG-0.34  N 
ATOM      3 H    THR B   2      26.471  37.058  10.563  1.00 25.25 LIG 0.16  HD
ATOM      4  C   ALA B   1      26.495  37.109   8.641  1.00 22.96 LIG 0.25  C 
ATOM      5 O    ALA B   1      26.966  36.690   7.584  1.00 26.59 LIG-0.27  OA
BRANCH 4 6
ATOM      6  CA  ALA B   1      25.260  38.021   8.634  1.00 23.15 LIG 0.27  C 
ATOM      7  CB  ALA B   1      24.313  37.645   9.812  1.00 22.78 LIG 0.05  C 
BRANCH 6 8
ATOM      8  N   ALA B   1      24.575  37.820   7.362  1.00 25.73 LIG-0.07  N 
ATOM      9 H3   ALA B   1      24.948  37.139   6.928  1.00 25.73 LIG 0.28  HD
ATOM     10 H1   ALA B   1      23.716  37.642   7.513  1.00 25.73 LIG 0.28  HD
ATOM     11 H2   ALA B   1      24.642  38.558   6.869  1.00 25.73 LIG 0.28  HD
ENDBRANCH 6 8
ENDBRANCH 4 6
ENDBRANCH 1 2
BRANCH 1 12
ATOM     12  CB  THR B   2      29.243  36.561  10.534  1.00 34.37 LIG 0.15  C 
ATOM     13  CG2 THR B   2      30.336  36.121   9.639  1.00 33.94 LIG 0.04  C 
BRANCH 12 14
ATOM     14 OG1  THR B   2      29.097  37.977  10.391  1.00 38.98 LIG-0.39  OA
ATOM     15 HG1  THR B   2      28.285  38.166  10.284  1.00 38.98 LIG 0.21  HD
ENDBRANCH 12 14
ENDBRANCH 1 12
BRANCH 1 16
ATOM     16  C   THR B   2      27.571  34.810  11.250  1.00 26.58 LIG 0.24  C 
ATOM     17  N   ALA B   3      27.790  33.518  10.955  1.00 27.81 LIG-0.35  N 
ATOM     18 H    ALA B   3      28.103  33.237  10.205  1.00 27.81 LIG 0.16  HD
ATOM     19 O    THR B   2      27.202  35.202  12.372  1.00 25.13 LIG-0.27  OA
BRANCH 17 20
ATOM     20  CA  ALA B   3      27.496  32.460  11.939  1.00 29.92 LIG 0.17  C 
ATOM     21  CB  ALA B   3      27.539  31.084  11.301  1.00 32.19 LIG 0.04  C 
BRANCH 20 22
ATOM     22  C   ALA B   3      28.556  32.574  12.984  1.00 36.50 LIG 0.24  C 
ATOM     23 O    ALA B   3      29.594  33.170  12.746  1.00 40.07 LIG-0.27  OA
ATOM     24  N   ALA B   4      28.288  32.008  14.147  1.00 42.66 LIG-0.34  N 
ATOM     25 H    ALA B   4      27.653  31.439  14.256  1.00 42.66 LIG 0.16  HD
BRANCH 24 26
ATOM     26  CA  ALA B   4      29.033  32.283  15.366  1.00 45.67 LIG 0.18  C 
ATOM     27  CB  ALA B   4      28.870  33.743  15.753  1.00 44.89 LIG 0.04  C 
BRANCH 26 28
ATOM     28  C   ALA B   4      28.507  31.382  16.465  1.00 51.09 LIG 0.20  C 
ATOM     29 O    ALA B   4      27.538  30.624  16.265  1.00 48.34 LIG-0.65  OA
ATOM     30 OXT  ALA B   4      29.059  31.420  17.570  1.00 61.57 LIG-0.65  OA
ENDBRANCH 26 28
ENDBRANCH 24 26
ENDBRANCH 20 22
ENDBRANCH 17 20
ENDBRANCH 1 16
TORSDOF 10
ENDMDL
