MODEL 1
USER: ADFR SOLUTION from run 11
USER: SCORE 15.571192 LL:  -2.759 LR: -12.908 RR:   0.000 FEB:  -9.925
USER: RMSD 1.049796
USER: SEED 959731
USER: STATUS 1 or 2 clusters left
USER: GENES 12
USER: genes 0 Translation |==|  0.48670 0.54669 0.44972
USER: genes 1 Rotation |==|  0.49809 0.47749 0.54248 0.99768
USER: genes 2 Torsion [N]-CA--C-[O] |==|  0.86911
USER: genes 3 Torsion [C]-N--CA-[CB] |==|  0.29491
USER: genes 4 Torsion [N]-CA--C-[O] |==|  0.08256
USER: genes 5 Torsion [N]-CA--CB-[CG2] |==|  0.60129
USER: genes 6 Torsion [CA]-CB--CG1-[CD1] |==|  0.29178
USER: genes 7 Torsion [N]-C--CA-[N] |==|  0.41687
USER: genes 8 Torsion [C]-CA--CB-[CG2] |==|  0.94384
USER: genes 9 Torsion [C]-CA--N-[C] |==|  0.63886
USER: genes 10 Torsion [N]-C--CA-[N] |==|  0.39751
USER: genes 11 Torsion [C]-CA--N-[H3] |==|  0.79899
ROOT
ATOM      1  C   VAL B   2      27.455  34.592  10.931  1.00 20.42 LIG 0.24  C 
ATOM      2 O    VAL B   2      26.831  34.929  11.940  1.00 19.98 LIG-0.27  OA
ATOM      3  N   PRO B   3      27.878  33.323  10.735  1.00 20.62 LIG-0.34  N 
ATOM      4  CA  PRO B   3      27.514  32.276  11.698  1.00 20.39 LIG 0.18  C 
ATOM      5  CB  PRO B   3      27.406  31.045  10.793  1.00 21.35 LIG 0.04  C 
ATOM      6  CG  PRO B   3      28.403  31.258   9.698  1.00 22.27 LIG 0.02  C 
ATOM      7  CD  PRO B   3      28.376  32.761   9.453  1.00 22.13 LIG 0.13  C 
ENDROOT
BRANCH 4 8
ATOM      8  C   PRO B   3      28.517  32.093  12.838  1.00 20.13 LIG 0.24  C 
ATOM      9  N   ILE B   4      28.069  32.103  14.071  1.00 20.03 LIG-0.34  N 
ATOM     10 H    ILE B   4      27.270  32.352  14.268  1.00 20.03 LIG 0.16  HD
ATOM     11 O    PRO B   3      29.740  32.016  12.612  1.00 24.31 LIG-0.27  OA
BRANCH 9 12
ATOM     12  CA  ILE B   4      28.853  31.701  15.256  1.00 20.48 LIG 0.19  C 
BRANCH 12 13
ATOM     13  C   ILE B   4      28.070  30.740  16.146  1.00 21.21 LIG 0.20  C 
ATOM     14 O    ILE B   4      27.247  30.002  15.617  1.00 18.53 LIG-0.65  OA
ATOM     15 OXT  ILE B   4      28.175  30.696  17.419  1.00 22.21 LIG-0.65  OA
ENDBRANCH 12 13
BRANCH 12 16
ATOM     16  CB  ILE B   4      29.281  32.916  16.092  1.00 24.00 LIG 0.01  C 
ATOM     17  CG2 ILE B   4      30.668  32.756  16.698  1.00 26.11 LIG 0.01  C 
BRANCH 16 18
ATOM     18  CG1 ILE B   4      29.214  34.194  15.274  1.00 29.43 LIG 0.00  C 
ATOM     19  CD1 ILE B   4      28.019  35.023  15.663  1.00 33.97 LIG 0.01  C 
ENDBRANCH 16 18
ENDBRANCH 12 16
ENDBRANCH 9 12
ENDBRANCH 4 8
BRANCH 1 20
ATOM     20  CA  VAL B   2      27.881  35.631   9.874  1.00 21.93 LIG 0.18  C 
BRANCH 20 21
ATOM     21  CB  VAL B   2      29.241  36.243  10.279  1.00 24.26 LIG 0.01  C 
ATOM     22  CG2 VAL B   2      29.459  36.013  11.785  1.00 26.21 LIG 0.01  C 
ATOM     23  CG1 VAL B   2      29.364  37.709   9.870  1.00 24.62 LIG 0.01  C 
ENDBRANCH 20 21
BRANCH 20 24
ATOM     24  N   VAL B   2      26.880  36.677   9.772  1.00 19.39 LIG-0.35  N 
ATOM     25  C   ALA B   1      26.325  37.125   8.663  1.00 18.41 LIG 0.25  C 
ATOM     26 O    ALA B   1      26.456  36.660   7.514  1.00 21.55 LIG-0.27  OA
ATOM     27 H    VAL B   2      26.667  36.996  10.541  1.00 19.39 LIG 0.16  HD
BRANCH 25 28
ATOM     28  CA  ALA B   1      25.322  38.252   8.872  1.00 19.20 LIG 0.27  C 
ATOM     29  CB  ALA B   1      23.895  37.641   8.999  1.00 19.41 LIG 0.05  C 
BRANCH 28 30
ATOM     30  N   ALA B   1      25.395  39.240   7.787  1.00 20.83 LIG-0.07  N 
ATOM     31 H1   ALA B   1      25.395  38.821   7.002  1.00 20.83 LIG 0.28  HD
ATOM     32 H3   ALA B   1      26.143  39.717   7.868  1.00 20.83 LIG 0.28  HD
ATOM     33 H2   ALA B   1      24.691  39.783   7.832  1.00 20.83 LIG 0.28  HD
ENDBRANCH 28 30
ENDBRANCH 25 28
ENDBRANCH 20 24
ENDBRANCH 1 20
TORSDOF 10
ENDMDL
MODEL 2
USER: ADFR SOLUTION from run 31
USER: SCORE 14.273917 LL:  -2.377 LR: -12.055 RR:   0.000 FEB:  -9.072
USER: RMSD 2.330897
USER: SEED 30
USER: STATUS no improvement in best in 2 clusters for 5 generations
USER: GENES 12
USER: genes 0 Translation |==|  0.51215 0.58906 0.44720
USER: genes 1 Rotation |==|  0.43932 0.48315 0.50719 0.99597
USER: genes 2 Torsion [N]-CA--C-[O] |==|  0.82313
USER: genes 3 Torsion [C]-N--CA-[CB] |==|  0.88249
USER: genes 4 Torsion [N]-CA--C-[O] |==|  0.88777
USER: genes 5 Torsion [N]-CA--CB-[CG2] |==|  0.53629
USER: genes 6 Torsion [CA]-CB--CG1-[CD1] |==|  0.60339
USER: genes 7 Torsion [N]-C--CA-[N] |==|  0.38538
USER: genes 8 Torsion [C]-CA--CB-[CG2] |==|  0.00057
USER: genes 9 Torsion [C]-CA--N-[C] |==|  0.67988
USER: genes 10 Torsion [N]-C--CA-[N] |==|  0.52545
USER: genes 11 Torsion [C]-CA--N-[H3] |==|  0.96123
ROOT
ATOM      1  C   VAL B   2      27.818  35.355  10.882  1.00 20.42 LIG 0.24  C 
ATOM      2 O    VAL B   2      27.270  36.002  11.778  1.00 19.98 LIG-0.27  OA
ATOM      3  N   PRO B   3      28.043  34.026  10.986  1.00 20.62 LIG-0.34  N 
ATOM      4  CA  PRO B   3      27.545  33.292  12.156  1.00 20.39 LIG 0.18  C 
ATOM      5  CB  PRO B   3      27.238  31.917  11.554  1.00 21.35 LIG 0.04  C 
ATOM      6  CG  PRO B   3      28.235  31.725  10.455  1.00 22.27 LIG 0.02  C 
ATOM      7  CD  PRO B   3      28.428  33.119   9.874  1.00 22.13 LIG 0.13  C 
ENDROOT
BRANCH 4 8
ATOM      8  C   PRO B   3      28.532  33.224  13.324  1.00 20.13 LIG 0.24  C 
ATOM      9  N   ILE B   4      28.241  33.875  14.425  1.00 20.03 LIG-0.34  N 
ATOM     10 H    ILE B   4      27.601  34.449  14.465  1.00 20.03 LIG 0.16  HD
ATOM     11 O    PRO B   3      29.624  32.635  13.210  1.00 24.31 LIG-0.27  OA
BRANCH 9 12
ATOM     12  CA  ILE B   4      28.951  33.718  15.710  1.00 20.48 LIG 0.19  C 
BRANCH 12 13
ATOM     13  C   ILE B   4      30.260  34.502  15.727  1.00 21.21 LIG 0.20  C 
ATOM     14 O    ILE B   4      30.947  34.502  14.712  1.00 18.53 LIG-0.65  OA
ATOM     15 OXT  ILE B   4      30.717  35.111  16.753  1.00 22.21 LIG-0.65  OA
ENDBRANCH 12 13
BRANCH 12 16
ATOM     16  CB  ILE B   4      29.252  32.242  16.014  1.00 24.00 LIG 0.01  C 
ATOM     17  CG2 ILE B   4      29.690  32.014  17.454  1.00 26.11 LIG 0.01  C 
BRANCH 16 18
ATOM     18  CG1 ILE B   4      28.058  31.362  15.687  1.00 29.43 LIG 0.00  C 
ATOM     19  CD1 ILE B   4      27.913  30.250  16.693  1.00 33.97 LIG 0.01  C 
ENDBRANCH 16 18
ENDBRANCH 12 16
ENDBRANCH 9 12
ENDBRANCH 4 8
BRANCH 1 20
ATOM     20  CA  VAL B   2      28.374  36.051   9.623  1.00 21.93 LIG 0.18  C 
BRANCH 20 21
ATOM     21  CB  VAL B   2      29.692  36.774   9.980  1.00 24.26 LIG 0.01  C 
ATOM     22  CG2 VAL B   2      29.995  36.544  11.472  1.00 26.21 LIG 0.01  C 
ATOM     23  CG1 VAL B   2      29.667  38.251   9.592  1.00 24.62 LIG 0.01  C 
ENDBRANCH 20 21
BRANCH 20 24
ATOM     24  N   VAL B   2      27.407  37.006   9.115  1.00 19.39 LIG-0.35  N 
ATOM     25  C   ALA B   1      26.780  36.946   7.957  1.00 18.41 LIG 0.25  C 
ATOM     26 O    ALA B   1      26.800  36.007   7.138  1.00 21.55 LIG-0.27  OA
ATOM     27 H    VAL B   2      27.269  37.652   9.667  1.00 19.39 LIG 0.16  HD
BRANCH 25 28
ATOM     28  CA  ALA B   1      25.841  38.114   7.688  1.00 19.20 LIG 0.27  C 
ATOM     29  CB  ALA B   1      24.960  38.355   8.950  1.00 19.41 LIG 0.05  C 
BRANCH 28 30
ATOM     30  N   ALA B   1      25.021  37.877   6.492  1.00 20.83 LIG-0.07  N 
ATOM     31 H1   ALA B   1      24.186  37.685   6.736  1.00 20.83 LIG 0.28  HD
ATOM     32 H3   ALA B   1      25.358  37.195   6.030  1.00 20.83 LIG 0.28  HD
ATOM     33 H2   ALA B   1      25.019  38.607   5.983  1.00 20.83 LIG 0.28  HD
ENDBRANCH 28 30
ENDBRANCH 25 28
ENDBRANCH 20 24
ENDBRANCH 1 20
TORSDOF 10
ENDMDL
MODEL 3
USER: ADFR SOLUTION from run 38
USER: SCORE 14.065002 LL:  -2.567 LR: -11.638 RR:   0.000 FEB:  -8.655
USER: RMSD 1.977531
USER: SEED 37
USER: STATUS 1 or 2 clusters left
USER: GENES 12
USER: genes 0 Translation |==|  0.48784 0.54568 0.46603
USER: genes 1 Rotation |==|  0.51951 0.47549 0.51139 0.99889
USER: genes 2 Torsion [N]-CA--C-[O] |==|  0.95282
USER: genes 3 Torsion [C]-N--CA-[CB] |==|  0.46735
USER: genes 4 Torsion [N]-CA--C-[O] |==|  0.93890
USER: genes 5 Torsion [N]-CA--CB-[CG2] |==|  0.22397
USER: genes 6 Torsion [CA]-CB--CG1-[CD1] |==|  0.50451
USER: genes 7 Torsion [N]-C--CA-[N] |==|  0.36753
USER: genes 8 Torsion [C]-CA--CB-[CG2] |==|  0.51981
USER: genes 9 Torsion [C]-CA--N-[C] |==|  0.70173
USER: genes 10 Torsion [N]-C--CA-[N] |==|  0.50401
USER: genes 11 Torsion [C]-CA--N-[H3] |==|  0.06896
ROOT
ATOM      1  C   VAL B   2      27.472  34.574  11.250  1.00 20.42 LIG 0.24  C 
ATOM      2 O    VAL B   2      26.886  34.890  12.288  1.00 19.98 LIG-0.27  OA
ATOM      3  N   PRO B   3      27.740  33.287  10.936  1.00 20.62 LIG-0.34  N 
ATOM      4  CA  PRO B   3      27.247  32.208  11.801  1.00 20.39 LIG 0.18  C 
ATOM      5  CB  PRO B   3      26.998  31.086  10.788  1.00 21.35 LIG 0.04  C 
ATOM      6  CG  PRO B   3      28.020  31.277   9.712  1.00 22.27 LIG 0.02  C 
ATOM      7  CD  PRO B   3      28.176  32.788   9.605  1.00 22.13 LIG 0.13  C 
ENDROOT
BRANCH 4 8
ATOM      8  C   PRO B   3      28.214  31.802  12.915  1.00 20.13 LIG 0.24  C 
ATOM      9  N   ILE B   4      27.730  31.182  13.965  1.00 20.03 LIG-0.34  N 
ATOM     10 H    ILE B   4      26.886  31.127  14.118  1.00 20.03 LIG 0.16  HD
ATOM     11 O    PRO B   3      29.418  32.121  12.870  1.00 24.31 LIG-0.27  OA
BRANCH 9 12
ATOM     12  CA  ILE B   4      28.546  30.514  14.999  1.00 20.48 LIG 0.19  C 
BRANCH 12 13
ATOM     13  C   ILE B   4      29.214  29.253  14.457  1.00 21.21 LIG 0.20  C 
ATOM     14 O    ILE B   4      28.725  28.718  13.470  1.00 18.53 LIG-0.65  OA
ATOM     15 OXT  ILE B   4      30.220  28.685  15.003  1.00 22.21 LIG-0.65  OA
ENDBRANCH 12 13
BRANCH 12 16
ATOM     16  CB  ILE B   4      27.706  30.141  16.230  1.00 24.00 LIG 0.01  C 
ATOM     17  CG2 ILE B   4      26.911  28.858  16.035  1.00 26.11 LIG 0.01  C 
BRANCH 16 18
ATOM     18  CG1 ILE B   4      28.574  30.033  17.472  1.00 29.43 LIG 0.00  C 
ATOM     19  CD1 ILE B   4      27.757  29.629  18.671  1.00 33.97 LIG 0.01  C 
ENDBRANCH 16 18
ENDBRANCH 12 16
ENDBRANCH 9 12
ENDBRANCH 4 8
BRANCH 1 20
ATOM     20  CA  VAL B   2      28.026  35.647  10.289  1.00 21.93 LIG 0.18  C 
BRANCH 20 21
ATOM     21  CB  VAL B   2      29.215  36.368  10.962  1.00 24.26 LIG 0.01  C 
ATOM     22  CG2 VAL B   2      29.644  37.550  10.075  1.00 26.21 LIG 0.01  C 
ATOM     23  CG1 VAL B   2      30.363  35.415  11.291  1.00 24.62 LIG 0.01  C 
ENDBRANCH 20 21
BRANCH 20 24
ATOM     24  N   VAL B   2      26.987  36.605   9.962  1.00 19.39 LIG-0.35  N 
ATOM     25  C   ALA B   1      26.356  36.714   8.810  1.00 18.41 LIG 0.25  C 
ATOM     26 O    ALA B   1      26.437  35.945   7.832  1.00 21.55 LIG-0.27  OA
ATOM     27 H    VAL B   2      26.808  37.127  10.622  1.00 19.39 LIG 0.16  HD
BRANCH 25 28
ATOM     28  CA  ALA B   1      25.331  37.839   8.756  1.00 19.20 LIG 0.27  C 
ATOM     29  CB  ALA B   1      24.325  37.662   9.932  1.00 19.41 LIG 0.05  C 
BRANCH 28 30
ATOM     30  N   ALA B   1      24.645  37.877   7.457  1.00 20.83 LIG-0.07  N 
ATOM     31 H1   ALA B   1      23.797  38.122   7.575  1.00 20.83 LIG 0.28  HD
ATOM     32 H3   ALA B   1      24.671  37.070   7.083  1.00 20.83 LIG 0.28  HD
ATOM     33 H2   ALA B   1      25.051  38.463   6.924  1.00 20.83 LIG 0.28  HD
ENDBRANCH 28 30
ENDBRANCH 25 28
ENDBRANCH 20 24
ENDBRANCH 1 20
TORSDOF 10
ENDMDL
MODEL 4
USER: ADFR SOLUTION from run 49
USER: SCORE 14.287460 LL:  -3.113 LR: -11.261 RR:   0.000 FEB:  -8.278
USER: RMSD 2.347078
USER: SEED 48
USER: STATUS no improvement in best in 3 clusters for 5 generations
USER: GENES 12
USER: genes 0 Translation |==|  0.47088 0.54661 0.45145
USER: genes 1 Rotation |==|  0.48870 0.45926 0.55078 0.99561
USER: genes 2 Torsion [N]-CA--C-[O] |==|  0.64138
USER: genes 3 Torsion [C]-N--CA-[CB] |==|  0.24828
USER: genes 4 Torsion [N]-CA--C-[O] |==|  0.60216
USER: genes 5 Torsion [N]-CA--CB-[CG2] |==|  0.76450
USER: genes 6 Torsion [CA]-CB--CG1-[CD1] |==|  0.72432
USER: genes 7 Torsion [N]-C--CA-[N] |==|  0.43141
USER: genes 8 Torsion [C]-CA--CB-[CG2] |==|  0.93053
USER: genes 9 Torsion [C]-CA--N-[C] |==|  0.63599
USER: genes 10 Torsion [N]-C--CA-[N] |==|  0.39525
USER: genes 11 Torsion [C]-CA--N-[H3] |==|  0.80248
ROOT
ATOM      1  C   VAL B   2      27.230  34.591  10.965  1.00 20.42 LIG 0.24  C 
ATOM      2 O    VAL B   2      26.520  34.938  11.912  1.00 19.98 LIG-0.27  OA
ATOM      3  N   PRO B   3      27.705  33.331  10.844  1.00 20.62 LIG-0.34  N 
ATOM      4  CA  PRO B   3      27.302  32.304  11.812  1.00 20.39 LIG 0.18  C 
ATOM      5  CB  PRO B   3      27.302  31.041  10.944  1.00 21.35 LIG 0.04  C 
ATOM      6  CG  PRO B   3      28.372  31.253   9.920  1.00 22.27 LIG 0.02  C 
ATOM      7  CD  PRO B   3      28.318  32.746   9.623  1.00 22.13 LIG 0.13  C 
ENDROOT
BRANCH 4 8
ATOM      8  C   PRO B   3      28.220  32.189  13.030  1.00 20.13 LIG 0.24  C 
ATOM      9  N   ILE B   4      28.582  33.290  13.644  1.00 20.03 LIG-0.34  N 
ATOM     10 H    ILE B   4      28.447  34.070  13.307  1.00 20.03 LIG 0.16  HD
ATOM     11 O    PRO B   3      28.682  31.088  13.386  1.00 24.31 LIG-0.27  OA
BRANCH 9 12
ATOM     12  CA  ILE B   4      29.253  33.341  14.959  1.00 20.48 LIG 0.19  C 
BRANCH 12 13
ATOM     13  C   ILE B   4      28.873  34.599  15.733  1.00 21.21 LIG 0.20  C 
ATOM     14 O    ILE B   4      29.734  35.141  16.416  1.00 18.53 LIG-0.65  OA
ATOM     15 OXT  ILE B   4      27.694  35.093  15.764  1.00 22.21 LIG-0.65  OA
ENDBRANCH 12 13
BRANCH 12 16
ATOM     16  CB  ILE B   4      30.782  33.287  14.818  1.00 24.00 LIG 0.01  C 
ATOM     17  CG2 ILE B   4      31.314  31.865  14.712  1.00 26.11 LIG 0.01  C 
BRANCH 16 18
ATOM     18  CG1 ILE B   4      31.251  34.109  13.630  1.00 29.43 LIG 0.00  C 
ATOM     19  CD1 ILE B   4      31.517  33.231  12.436  1.00 33.97 LIG 0.01  C 
ENDBRANCH 16 18
ENDBRANCH 12 16
ENDBRANCH 9 12
ENDBRANCH 4 8
BRANCH 1 20
ATOM     20  CA  VAL B   2      27.703  35.610   9.908  1.00 21.93 LIG 0.18  C 
BRANCH 20 21
ATOM     21  CB  VAL B   2      29.075  36.182  10.330  1.00 24.26 LIG 0.01  C 
ATOM     22  CG2 VAL B   2      29.212  36.065  11.859  1.00 26.21 LIG 0.01  C 
ATOM     23  CG1 VAL B   2      29.296  37.603   9.814  1.00 24.62 LIG 0.01  C 
ENDBRANCH 20 21
BRANCH 20 24
ATOM     24  N   VAL B   2      26.735  36.684   9.785  1.00 19.39 LIG-0.35  N 
ATOM     25  C   ALA B   1      26.225  37.155   8.664  1.00 18.41 LIG 0.25  C 
ATOM     26 O    ALA B   1      26.376  36.693   7.516  1.00 21.55 LIG-0.27  OA
ATOM     27 H    VAL B   2      26.510  37.006  10.550  1.00 19.39 LIG 0.16  HD
BRANCH 25 28
ATOM     28  CA  ALA B   1      25.250  38.309   8.852  1.00 19.20 LIG 0.27  C 
ATOM     29  CB  ALA B   1      23.801  37.741   8.914  1.00 19.41 LIG 0.05  C 
BRANCH 28 30
ATOM     30  N   ALA B   1      25.395  39.311   7.786  1.00 20.83 LIG-0.07  N 
ATOM     31 H1   ALA B   1      25.395  38.905   6.994  1.00 20.83 LIG 0.28  HD
ATOM     32 H3   ALA B   1      26.162  39.750   7.893  1.00 20.83 LIG 0.28  HD
ATOM     33 H2   ALA B   1      24.717  39.886   7.825  1.00 20.83 LIG 0.28  HD
ENDBRANCH 28 30
ENDBRANCH 25 28
ENDBRANCH 20 24
ENDBRANCH 1 20
TORSDOF 10
ENDMDL
MODEL 5
USER: ADFR SOLUTION from run 52
USER: SCORE 13.633883 LL:  -2.641 LR: -11.129 RR:   0.000 FEB:  -8.146
USER: RMSD 2.084259
USER: SEED 51
USER: STATUS 1 or 2 clusters left
USER: GENES 12
USER: genes 0 Translation |==|  0.49587 0.56428 0.45855
USER: genes 1 Rotation |==|  0.50969 0.46423 0.51114 0.99850
USER: genes 2 Torsion [N]-CA--C-[O] |==|  0.98412
USER: genes 3 Torsion [C]-N--CA-[CB] |==|  0.88647
USER: genes 4 Torsion [N]-CA--C-[O] |==|  0.86661
USER: genes 5 Torsion [N]-CA--CB-[CG2] |==|  0.43261
USER: genes 6 Torsion [CA]-CB--CG1-[CD1] |==|  0.25247
USER: genes 7 Torsion [N]-C--CA-[N] |==|  0.36135
USER: genes 8 Torsion [C]-CA--CB-[CG2] |==|  0.43672
USER: genes 9 Torsion [C]-CA--N-[C] |==|  0.70777
USER: genes 10 Torsion [N]-C--CA-[N] |==|  0.50696
USER: genes 11 Torsion [C]-CA--N-[H3] |==|  0.98837
ROOT
ATOM      1  C   VAL B   2      27.586  34.909  11.104  1.00 20.42 LIG 0.24  C 
ATOM      2 O    VAL B   2      26.955  35.266  12.101  1.00 19.98 LIG-0.27  OA
ATOM      3  N   PRO B   3      27.862  33.610  10.852  1.00 20.62 LIG-0.34  N 
ATOM      4  CA  PRO B   3      27.324  32.566  11.733  1.00 20.39 LIG 0.18  C 
ATOM      5  CB  PRO B   3      27.115  31.407  10.754  1.00 21.35 LIG 0.04  C 
ATOM      6  CG  PRO B   3      28.186  31.554   9.719  1.00 22.27 LIG 0.02  C 
ATOM      7  CD  PRO B   3      28.355  33.059   9.562  1.00 22.13 LIG 0.13  C 
ENDROOT
BRANCH 4 8
ATOM      8  C   PRO B   3      28.236  32.199  12.905  1.00 20.13 LIG 0.24  C 
ATOM      9  N   ILE B   4      27.756  31.428  13.852  1.00 20.03 LIG-0.34  N 
ATOM     10 H    ILE B   4      26.918  31.244  13.914  1.00 20.03 LIG 0.16  HD
ATOM     11 O    PRO B   3      29.380  32.683  13.006  1.00 24.31 LIG-0.27  OA
BRANCH 9 12
ATOM     12  CA  ILE B   4      28.565  30.789  14.909  1.00 20.48 LIG 0.19  C 
BRANCH 12 13
ATOM     13  C   ILE B   4      28.866  31.758  16.048  1.00 21.21 LIG 0.20  C 
ATOM     14 O    ILE B   4      29.283  32.875  15.763  1.00 18.53 LIG-0.65  OA
ATOM     15 OXT  ILE B   4      28.768  31.461  17.287  1.00 22.21 LIG-0.65  OA
ENDBRANCH 12 13
BRANCH 12 16
ATOM     16  CB  ILE B   4      29.891  30.244  14.356  1.00 24.00 LIG 0.01  C 
ATOM     17  CG2 ILE B   4      30.970  30.124  15.424  1.00 26.11 LIG 0.01  C 
BRANCH 16 18
ATOM     18  CG1 ILE B   4      29.688  28.905  13.668  1.00 29.43 LIG 0.00  C 
ATOM     19  CD1 ILE B   4      29.401  29.089  12.201  1.00 33.97 LIG 0.01  C 
ENDBRANCH 16 18
ENDBRANCH 12 16
ENDBRANCH 9 12
ENDBRANCH 4 8
BRANCH 1 20
ATOM     20  CA  VAL B   2      28.190  35.942  10.130  1.00 21.93 LIG 0.18  C 
BRANCH 20 21
ATOM     21  CB  VAL B   2      29.314  36.723  10.847  1.00 24.26 LIG 0.01  C 
ATOM     22  CG2 VAL B   2      30.266  37.306   9.787  1.00 26.21 LIG 0.01  C 
ATOM     23  CG1 VAL B   2      30.029  35.877  11.899  1.00 24.62 LIG 0.01  C 
ENDBRANCH 20 21
BRANCH 20 24
ATOM     24  N   VAL B   2      27.160  36.860   9.678  1.00 19.39 LIG-0.35  N 
ATOM     25  C   ALA B   1      26.584  36.869   8.492  1.00 18.41 LIG 0.25  C 
ATOM     26 O    ALA B   1      26.718  36.026   7.584  1.00 21.55 LIG-0.27  OA
ATOM     27 H    VAL B   2      26.946  37.430  10.286  1.00 19.39 LIG 0.16  HD
BRANCH 25 28
ATOM     28  CA  ALA B   1      25.555  37.975   8.301  1.00 19.20 LIG 0.27  C 
ATOM     29  CB  ALA B   1      24.510  37.897   9.454  1.00 19.41 LIG 0.05  C 
BRANCH 28 30
ATOM     30  N   ALA B   1      24.914  37.887   6.982  1.00 20.83 LIG-0.07  N 
ATOM     31 H1   ALA B   1      24.046  37.714   7.083  1.00 20.83 LIG 0.28  HD
ATOM     32 H3   ALA B   1      25.292  37.233   6.510  1.00 20.83 LIG 0.28  HD
ATOM     33 H2   ALA B   1      25.014  38.659   6.551  1.00 20.83 LIG 0.28  HD
ENDBRANCH 28 30
ENDBRANCH 25 28
ENDBRANCH 20 24
ENDBRANCH 1 20
TORSDOF 10
ENDMDL
