MODEL 1
USER: ADFR SOLUTION from run 111
USER: SCORE 15.653801 LL:  -2.505 LR: -13.563 RR:   0.000 FEB:  -9.983
USER: RMSD 4.193157
USER: SEED 110
USER: STATUS no improvement in best in 4 clusters for 5 generations
USER: GENES 14
USER: genes 0 Translation |==|  0.42033 0.60414 0.35192
USER: genes 1 Rotation |==|  0.68191 0.35907 0.81569 0.81206
USER: genes 2 Torsion [N]-C--CA-[N] |==|  0.25161
USER: genes 3 Torsion [C]-CA--CB-[CG1] |==|  0.82077
USER: genes 4 Torsion [C]-CA--N-[C] |==|  0.68267
USER: genes 5 Torsion [N]-C--CA-[N] |==|  0.34823
USER: genes 6 Torsion [C]-CA--N-[H3] |==|  0.94124
USER: genes 7 Torsion [C]-CA--CB-[OG] |==|  0.22188
USER: genes 8 Torsion [CA]-CB--OG-[HG] |==|  0.49508
USER: genes 9 Torsion [N]-CA--C-[O] |==|  0.09457
USER: genes 10 Torsion [C]-N--CA-[C] |==|  0.49239
USER: genes 11 Torsion [N]-CA--C-[OXT] |==|  0.45143
USER: genes 12 Torsion [N]-CA--CB-[CG1] |==|  0.62806
USER: genes 13 Torsion [CA]-CB--CG1-[CD1] |==|  0.74998
ROOT
ATOM      1  C   VAL B   2      26.532  36.358   9.473  1.00 16.87 LIG 0.24  C 
ATOM      2 O    VAL B   2      26.014  35.293   9.804  1.00 15.05 LIG-0.27  OA
ATOM      3  N   PRO B   3      27.863  36.575   9.568  1.00 17.17 LIG-0.34  N 
ATOM      4  CA  PRO B   3      28.717  35.495  10.083  1.00 17.78 LIG 0.18  C 
ATOM      5  CB  PRO B   3      30.140  35.933   9.688  1.00 18.80 LIG 0.04  C 
ATOM      6  CG  PRO B   3      30.063  37.426   9.594  1.00 20.85 LIG 0.02  C 
ATOM      7  CD  PRO B   3      28.648  37.740   9.108  1.00 18.92 LIG 0.13  C 
ENDROOT
BRANCH 1 8
ATOM      8  CA  VAL B   2      25.681  37.533   9.012  1.00 17.17 LIG 0.18  C 
BRANCH 8 9
ATOM      9  CB  VAL B   2      24.316  37.507   9.748  1.00 19.35 LIG 0.01  C 
ATOM     10  CG1 VAL B   2      23.528  36.268   9.362  1.00 20.75 LIG 0.01  C 
ATOM     11  CG2 VAL B   2      24.471  37.640  11.236  1.00 20.63 LIG 0.01  C 
ENDBRANCH 8 9
BRANCH 8 12
ATOM     12  N   VAL B   2      25.549  37.507   7.543  1.00 15.32 LIG-0.35  N 
ATOM     13  C   SER B   1      26.075  38.459   6.792  1.00 14.89 LIG 0.25  C 
ATOM     14 O    SER B   1      26.737  39.425   7.196  1.00 16.72 LIG-0.27  OA
ATOM     15 H    VAL B   2      25.111  36.835   7.233  1.00 15.32 LIG 0.16  HD
BRANCH 13 16
ATOM     16  CA  SER B   1      25.961  38.230   5.274  1.00 15.81 LIG 0.30  C 
BRANCH 16 17
ATOM     17  N   SER B   1      25.303  39.417   4.663  1.00 17.29 LIG-0.06  N 
ATOM     18 H3   SER B   1      24.846  39.857   5.287  1.00 17.29 LIG 0.28  HD
ATOM     19 H1   SER B   1      25.923  39.953   4.316  1.00 17.29 LIG 0.28  HD
ATOM     20 H2   SER B   1      24.748  39.151   4.020  1.00 17.29 LIG 0.28  HD
ENDBRANCH 16 17
BRANCH 16 21
ATOM     21  CB  SER B   1      27.370  37.999   4.662  1.00 15.46 LIG 0.21  C 
BRANCH 21 22
ATOM     22 OG   SER B   1      27.793  36.656   4.885  1.00 16.65 LIG-0.40  OA
ATOM     23 HG   SER B   1      28.545  36.536   4.529  1.00 16.65 LIG 0.21  HD
ENDBRANCH 21 22
ENDBRANCH 16 21
ENDBRANCH 13 16
ENDBRANCH 8 12
ENDBRANCH 1 8
BRANCH 4 24
ATOM     24  C   PRO B   3      28.583  35.370  11.561  1.00 20.81 LIG 0.24  C 
ATOM     25 O    PRO B   3      27.502  35.596  12.102  1.00 24.11 LIG-0.27  OA
ATOM     26  N   ILE B   4      29.658  34.984  12.228  1.00 19.75 LIG-0.34  N 
ATOM     27 H    ILE B   4      30.375  34.697  11.851  1.00 19.75 LIG 0.16  HD
BRANCH 26 28
ATOM     28  CA  ILE B   4      29.722  35.014  13.700  1.00 21.11 LIG 0.19  C 
BRANCH 28 29
ATOM     29  C   ILE B   4      31.067  34.442  14.092  1.00 24.50 LIG 0.20  C 
ATOM     30 OXT  ILE B   4      31.531  34.641  15.244  1.00 23.18 LIG-0.65  OA
ATOM     31 O    ILE B   4      31.721  33.792  13.250  1.00 23.14 LIG-0.65  OA
ENDBRANCH 28 29
BRANCH 28 32
ATOM     32  CB  ILE B   4      28.596  34.198  14.296  1.00 22.38 LIG 0.01  C 
ATOM     33  CG2 ILE B   4      29.087  32.846  14.821  1.00 23.66 LIG 0.01  C 
BRANCH 32 34
ATOM     34  CG1 ILE B   4      27.958  35.015  15.418  1.00 23.74 LIG 0.00  C 
ATOM     35  CD1 ILE B   4      28.596  34.767  16.730  1.00 25.09 LIG 0.01  C 
ENDBRANCH 32 34
ENDBRANCH 28 32
ENDBRANCH 26 28
ENDBRANCH 4 24
TORSDOF 12
ENDMDL
MODEL 2
USER: ADFR SOLUTION from run 171
USER: SCORE 16.098019 LL:  -2.876 LR: -13.386 RR:   0.000 FEB:  -9.806
USER: RMSD 1.337582
USER: SEED 170
USER: STATUS no improvement in best in 2 clusters for 5 generations
USER: GENES 14
USER: genes 0 Translation |==|  0.48786 0.49095 0.44414
USER: genes 1 Rotation |==|  0.56008 0.47516 0.49958 0.99575
USER: genes 2 Torsion [N]-C--CA-[N] |==|  0.38483
USER: genes 3 Torsion [C]-CA--CB-[CG1] |==|  0.61904
USER: genes 4 Torsion [C]-CA--N-[C] |==|  0.64562
USER: genes 5 Torsion [N]-C--CA-[N] |==|  0.49681
USER: genes 6 Torsion [C]-CA--N-[H3] |==|  0.73923
USER: genes 7 Torsion [C]-CA--CB-[OG] |==|  0.85784
USER: genes 8 Torsion [CA]-CB--OG-[HG] |==|  0.90185
USER: genes 9 Torsion [N]-CA--C-[O] |==|  0.93002
USER: genes 10 Torsion [C]-N--CA-[C] |==|  0.54480
USER: genes 11 Torsion [N]-CA--C-[OXT] |==|  0.54203
USER: genes 12 Torsion [N]-CA--CB-[CG1] |==|  0.05688
USER: genes 13 Torsion [CA]-CB--CG1-[CD1] |==|  0.40819
ROOT
ATOM      1  C   VAL B   2      27.646  34.491  11.272  1.00 16.87 LIG 0.24  C 
ATOM      2 O    VAL B   2      27.167  34.853  12.345  1.00 15.05 LIG-0.27  OA
ATOM      3  N   PRO B   3      27.917  33.193  11.002  1.00 17.17 LIG-0.34  N 
ATOM      4  CA  PRO B   3      27.626  32.186  12.032  1.00 17.78 LIG 0.18  C 
ATOM      5  CB  PRO B   3      27.681  30.851  11.264  1.00 18.80 LIG 0.04  C 
ATOM      6  CG  PRO B   3      28.594  31.119  10.107  1.00 20.85 LIG 0.02  C 
ATOM      7  CD  PRO B   3      28.376  32.585   9.736  1.00 18.92 LIG 0.13  C 
ENDROOT
BRANCH 1 8
ATOM      8  CA  VAL B   2      28.039  35.505  10.207  1.00 17.17 LIG 0.18  C 
BRANCH 8 9
ATOM      9  CB  VAL B   2      29.419  36.118  10.559  1.00 19.35 LIG 0.01  C 
ATOM     10  CG1 VAL B   2      29.408  37.618  10.324  1.00 20.75 LIG 0.01  C 
ATOM     11  CG2 VAL B   2      29.860  35.765  11.950  1.00 20.63 LIG 0.01  C 
ENDBRANCH 8 9
BRANCH 8 12
ATOM     12  N   VAL B   2      26.974  36.515  10.062  1.00 15.32 LIG-0.35  N 
ATOM     13  C   SER B   1      26.455  36.796   8.880  1.00 14.89 LIG 0.25  C 
ATOM     14 O    SER B   1      26.753  36.258   7.805  1.00 16.72 LIG-0.27  OA
ATOM     15 H    VAL B   2      26.732  36.890  10.797  1.00 15.32 LIG 0.16  HD
BRANCH 13 16
ATOM     16  CA  SER B   1      25.271  37.780   8.905  1.00 15.81 LIG 0.30  C 
BRANCH 16 17
ATOM     17  N   SER B   1      24.819  38.015   7.507  1.00 17.29 LIG-0.06  N 
ATOM     18 H3   SER B   1      25.221  38.740   7.183  1.00 17.29 LIG 0.28  HD
ATOM     19 H1   SER B   1      25.029  37.311   7.005  1.00 17.29 LIG 0.28  HD
ATOM     20 H2   SER B   1      23.937  38.134   7.495  1.00 17.29 LIG 0.28  HD
ENDBRANCH 16 17
BRANCH 16 21
ATOM     21  CB  SER B   1      24.117  37.202   9.772  1.00 15.46 LIG 0.21  C 
BRANCH 21 22
ATOM     22 OG   SER B   1      23.807  35.873   9.361  1.00 16.65 LIG-0.40  OA
ATOM     23 HG   SER B   1      23.899  35.808   8.529  1.00 16.65 LIG 0.21  HD
ENDBRANCH 21 22
ENDBRANCH 16 21
ENDBRANCH 13 16
ENDBRANCH 8 12
ENDBRANCH 1 8
BRANCH 4 24
ATOM     24  C   PRO B   3      28.645  32.224  13.118  1.00 20.81 LIG 0.24  C 
ATOM     25 O    PRO B   3      29.774  32.655  12.887  1.00 24.11 LIG-0.27  OA
ATOM     26  N   ILE B   4      28.262  31.807  14.313  1.00 19.75 LIG-0.34  N 
ATOM     27 H    ILE B   4      27.445  31.631  14.517  1.00 19.75 LIG 0.16  HD
BRANCH 26 28
ATOM     28  CA  ILE B   4      29.216  31.603  15.418  1.00 21.11 LIG 0.19  C 
BRANCH 28 29
ATOM     29  C   ILE B   4      28.507  30.763  16.458  1.00 24.50 LIG 0.20  C 
ATOM     30 OXT  ILE B   4      28.972  30.671  17.624  1.00 23.18 LIG-0.65  OA
ATOM     31 O    ILE B   4      27.471  30.144  16.139  1.00 23.14 LIG-0.65  OA
ENDBRANCH 28 29
BRANCH 28 32
ATOM     32  CB  ILE B   4      29.643  32.933  16.000  1.00 22.38 LIG 0.01  C 
ATOM     33  CG2 ILE B   4      31.031  33.351  15.508  1.00 23.66 LIG 0.01  C 
BRANCH 32 34
ATOM     34  CG1 ILE B   4      28.596  33.978  15.620  1.00 23.74 LIG 0.00  C 
ATOM     35  CD1 ILE B   4      28.430  35.015  16.662  1.00 25.09 LIG 0.01  C 
ENDBRANCH 32 34
ENDBRANCH 28 32
ENDBRANCH 26 28
ENDBRANCH 4 24
TORSDOF 12
ENDMDL
MODEL 3
USER: ADFR SOLUTION from run 141
USER: SCORE 15.230443 LL:  -2.523 LR: -12.840 RR:   0.000 FEB:  -9.260
USER: RMSD 1.678906
USER: SEED 140
USER: STATUS no improvement in best in 2 clusters for 5 generations
USER: GENES 14
USER: genes 0 Translation |==|  0.49025 0.53090 0.42435
USER: genes 1 Rotation |==|  0.52121 0.45585 0.48940 0.99748
USER: genes 2 Torsion [N]-C--CA-[N] |==|  0.39328
USER: genes 3 Torsion [C]-CA--CB-[CG1] |==|  0.63215
USER: genes 4 Torsion [C]-CA--N-[C] |==|  0.70002
USER: genes 5 Torsion [N]-C--CA-[N] |==|  0.48217
USER: genes 6 Torsion [C]-CA--N-[H3] |==|  0.33289
USER: genes 7 Torsion [C]-CA--CB-[OG] |==|  0.86137
USER: genes 8 Torsion [CA]-CB--OG-[HG] |==|  0.93139
USER: genes 9 Torsion [N]-CA--C-[O] |==|  0.66360
USER: genes 10 Torsion [C]-N--CA-[C] |==|  0.20469
USER: genes 11 Torsion [N]-CA--C-[OXT] |==|  0.97017
USER: genes 12 Torsion [N]-CA--CB-[CG1] |==|  0.63682
USER: genes 13 Torsion [CA]-CB--CG1-[CD1] |==|  0.12958
ROOT
ATOM      1  C   VAL B   2      27.685  35.150  10.886  1.00 16.87 LIG 0.24  C 
ATOM      2 O    VAL B   2      27.159  35.698  11.853  1.00 15.05 LIG-0.27  OA
ATOM      3  N   PRO B   3      27.892  33.814  10.836  1.00 17.17 LIG-0.34  N 
ATOM      4  CA  PRO B   3      27.471  32.994  11.981  1.00 17.78 LIG 0.18  C 
ATOM      5  CB  PRO B   3      27.493  31.556  11.428  1.00 18.80 LIG 0.04  C 
ATOM      6  CG  PRO B   3      28.496  31.594  10.316  1.00 20.85 LIG 0.02  C 
ATOM      7  CD  PRO B   3      28.396  32.995   9.714  1.00 18.92 LIG 0.13  C 
ENDROOT
BRANCH 1 8
ATOM      8  CA  VAL B   2      28.211  35.966   9.713  1.00 17.17 LIG 0.18  C 
BRANCH 8 9
ATOM      9  CB  VAL B   2      29.633  36.490  10.042  1.00 19.35 LIG 0.01  C 
ATOM     10  CG1 VAL B   2      29.742  37.969   9.715  1.00 20.75 LIG 0.01  C 
ATOM     11  CG2 VAL B   2      30.036  36.192  11.457  1.00 20.63 LIG 0.01  C 
ENDBRANCH 8 9
BRANCH 8 12
ATOM     12  N   VAL B   2      27.256  37.041   9.385  1.00 15.32 LIG-0.35  N 
ATOM     13  C   SER B   1      26.518  36.989   8.291  1.00 14.89 LIG 0.25  C 
ATOM     14 O    SER B   1      26.506  36.069   7.461  1.00 16.72 LIG-0.27  OA
ATOM     15 H    VAL B   2      27.229  37.683   9.957  1.00 15.32 LIG 0.16  HD
BRANCH 13 16
ATOM     16  CA  SER B   1      25.483  38.120   8.148  1.00 15.81 LIG 0.30  C 
BRANCH 16 17
ATOM     17  N   SER B   1      24.846  38.015   6.808  1.00 17.29 LIG-0.06  N 
ATOM     18 H3   SER B   1      23.970  37.893   6.904  1.00 17.29 LIG 0.28  HD
ATOM     19 H1   SER B   1      24.992  38.765   6.350  1.00 17.29 LIG 0.28  HD
ATOM     20 H2   SER B   1      25.195  37.326   6.366  1.00 17.29 LIG 0.28  HD
ENDBRANCH 16 17
BRANCH 16 21
ATOM     21  CB  SER B   1      24.421  38.016   9.278  1.00 15.46 LIG 0.21  C 
BRANCH 21 22
ATOM     22 OG   SER B   1      23.908  36.688   9.355  1.00 16.65 LIG-0.40  OA
ATOM     23 HG   SER B   1      23.999  36.309   8.611  1.00 16.65 LIG 0.21  HD
ENDBRANCH 21 22
ENDBRANCH 16 21
ENDBRANCH 13 16
ENDBRANCH 8 12
ENDBRANCH 1 8
BRANCH 4 24
ATOM     24  C   PRO B   3      28.416  33.147  13.122  1.00 20.81 LIG 0.24  C 
ATOM     25 O    PRO B   3      28.999  32.164  13.574  1.00 24.11 LIG-0.27  OA
ATOM     26  N   ILE B   4      28.602  34.373  13.583  1.00 19.75 LIG-0.34  N 
ATOM     27 H    ILE B   4      28.305  35.079  13.192  1.00 19.75 LIG 0.16  HD
BRANCH 26 28
ATOM     28  CA  ILE B   4      29.347  34.640  14.826  1.00 21.11 LIG 0.19  C 
BRANCH 28 29
ATOM     29  C   ILE B   4      30.811  34.414  14.517  1.00 24.50 LIG 0.20  C 
ATOM     30 OXT  ILE B   4      31.155  33.875  13.434  1.00 23.18 LIG-0.65  OA
ATOM     31 O    ILE B   4      31.670  34.746  15.360  1.00 23.14 LIG-0.65  OA
ENDBRANCH 28 29
BRANCH 28 32
ATOM     32  CB  ILE B   4      28.882  33.716  15.931  1.00 22.38 LIG 0.01  C 
ATOM     33  CG2 ILE B   4      29.917  32.631  16.241  1.00 23.66 LIG 0.01  C 
BRANCH 32 34
ATOM     34  CG1 ILE B   4      28.596  34.562  17.170  1.00 23.74 LIG 0.00  C 
ATOM     35  CD1 ILE B   4      27.794  35.766  16.857  1.00 25.09 LIG 0.01  C 
ENDBRANCH 32 34
ENDBRANCH 28 32
ENDBRANCH 26 28
ENDBRANCH 4 24
TORSDOF 12
ENDMDL
MODEL 4
USER: ADFR SOLUTION from run 111
USER: SCORE 14.872223 LL:  -2.592 LR: -12.440 RR:   0.000 FEB:  -8.860
USER: RMSD 2.842148
USER: SEED 110
USER: STATUS no improvement in best in 4 clusters for 5 generations
USER: GENES 14
USER: genes 0 Translation |==|  0.46502 0.57839 0.35316
USER: genes 1 Rotation |==|  0.45922 0.40935 0.56773 0.98532
USER: genes 2 Torsion [N]-C--CA-[N] |==|  0.40863
USER: genes 3 Torsion [C]-CA--CB-[CG1] |==|  0.65947
USER: genes 4 Torsion [C]-CA--N-[C] |==|  0.59446
USER: genes 5 Torsion [N]-C--CA-[N] |==|  0.19430
USER: genes 6 Torsion [C]-CA--N-[H3] |==|  0.16350
USER: genes 7 Torsion [C]-CA--CB-[OG] |==|  0.60083
USER: genes 8 Torsion [CA]-CB--OG-[HG] |==|  0.80953
USER: genes 9 Torsion [N]-CA--C-[O] |==|  0.08462
USER: genes 10 Torsion [C]-N--CA-[C] |==|  0.72875
USER: genes 11 Torsion [N]-CA--C-[OXT] |==|  0.44567
USER: genes 12 Torsion [N]-CA--CB-[CG1] |==|  0.62303
USER: genes 13 Torsion [CA]-CB--CG1-[CD1] |==|  0.75730
ROOT
ATOM      1  C   VAL B   2      27.269  35.934   9.498  1.00 16.87 LIG 0.24  C 
ATOM      2 O    VAL B   2      26.415  36.515  10.166  1.00 15.05 LIG-0.27  OA
ATOM      3  N   PRO B   3      27.805  34.752   9.879  1.00 17.17 LIG-0.34  N 
ATOM      4  CA  PRO B   3      27.346  34.145  11.137  1.00 17.78 LIG 0.18  C 
ATOM      5  CB  PRO B   3      27.850  32.691  11.047  1.00 18.80 LIG 0.04  C 
ATOM      6  CG  PRO B   3      29.041  32.760  10.142  1.00 20.85 LIG 0.02  C 
ATOM      7  CD  PRO B   3      28.741  33.877   9.143  1.00 18.92 LIG 0.13  C 
ENDROOT
BRANCH 1 8
ATOM      8  CA  VAL B   2      27.834  36.561   8.231  1.00 17.17 LIG 0.18  C 
BRANCH 8 9
ATOM      9  CB  VAL B   2      29.056  37.445   8.590  1.00 19.35 LIG 0.01  C 
ATOM     10  CG1 VAL B   2      28.837  38.871   8.118  1.00 20.75 LIG 0.01  C 
ATOM     11  CG2 VAL B   2      29.396  37.378  10.051  1.00 20.63 LIG 0.01  C 
ENDBRANCH 8 9
BRANCH 8 12
ATOM     12  N   VAL B   2      26.771  37.299   7.523  1.00 15.32 LIG-0.35  N 
ATOM     13  C   SER B   1      26.745  37.361   6.203  1.00 14.89 LIG 0.25  C 
ATOM     14 O    SER B   1      27.543  36.812   5.431  1.00 16.72 LIG-0.27  OA
ATOM     15 H    VAL B   2      26.191  37.673   8.036  1.00 15.32 LIG 0.16  HD
BRANCH 13 16
ATOM     16  CA  SER B   1      25.509  38.061   5.608  1.00 15.81 LIG 0.30  C 
BRANCH 16 17
ATOM     17  N   SER B   1      25.596  39.515   5.912  1.00 17.29 LIG-0.06  N 
ATOM     18 H3   SER B   1      26.346  39.847   5.565  1.00 17.29 LIG 0.28  HD
ATOM     19 H1   SER B   1      24.895  39.935   5.557  1.00 17.29 LIG 0.28  HD
ATOM     20 H2   SER B   1      25.598  39.635   6.793  1.00 17.29 LIG 0.28  HD
ENDBRANCH 16 17
BRANCH 16 21
ATOM     21  CB  SER B   1      25.445  37.816   4.075  1.00 15.46 LIG 0.21  C 
BRANCH 21 22
ATOM     22 OG   SER B   1      24.949  38.976   3.409  1.00 16.65 LIG-0.40  OA
ATOM     23 HG   SER B   1      24.140  39.085   3.602  1.00 16.65 LIG 0.21  HD
ENDBRANCH 21 22
ENDBRANCH 16 21
ENDBRANCH 13 16
ENDBRANCH 8 12
ENDBRANCH 1 8
BRANCH 4 24
ATOM     24  C   PRO B   3      27.933  34.847  12.312  1.00 20.81 LIG 0.24  C 
ATOM     25 O    PRO B   3      28.200  36.045  12.243  1.00 24.11 LIG-0.27  OA
ATOM     26  N   ILE B   4      28.117  34.129  13.408  1.00 19.75 LIG-0.34  N 
ATOM     27 H    ILE B   4      27.813  33.331  13.510  1.00 19.75 LIG 0.16  HD
BRANCH 26 28
ATOM     28  CA  ILE B   4      28.869  34.641  14.567  1.00 21.11 LIG 0.19  C 
BRANCH 28 29
ATOM     29  C   ILE B   4      30.275  34.095  14.452  1.00 24.50 LIG 0.20  C 
ATOM     30 OXT  ILE B   4      31.222  34.641  15.075  1.00 23.18 LIG-0.65  OA
ATOM     31 O    ILE B   4      30.489  33.112  13.712  1.00 23.14 LIG-0.65  OA
ENDBRANCH 28 29
BRANCH 28 32
ATOM     32  CB  ILE B   4      28.221  34.192  15.859  1.00 22.38 LIG 0.01  C 
ATOM     33  CG2 ILE B   4      28.971  33.020  16.496  1.00 23.66 LIG 0.01  C 
BRANCH 32 34
ATOM     34  CG1 ILE B   4      28.176  35.388  16.808  1.00 23.74 LIG 0.00  C 
ATOM     35  CD1 ILE B   4      29.414  35.518  17.609  1.00 25.09 LIG 0.01  C 
ENDBRANCH 32 34
ENDBRANCH 28 32
ENDBRANCH 26 28
ENDBRANCH 4 24
TORSDOF 12
ENDMDL
MODEL 5
USER: ADFR SOLUTION from run 102
USER: SCORE 14.847596 LL:  -2.693 LR: -12.265 RR:   0.000 FEB:  -8.685
USER: RMSD 2.250931
USER: SEED 101
USER: STATUS no improvement in best in 2 clusters for 5 generations
USER: GENES 14
USER: genes 0 Translation |==|  0.48321 0.53705 0.42184
USER: genes 1 Rotation |==|  0.47952 0.42577 0.55878 0.99053
USER: genes 2 Torsion [N]-C--CA-[N] |==|  0.45102
USER: genes 3 Torsion [C]-CA--CB-[CG1] |==|  0.56466
USER: genes 4 Torsion [C]-CA--N-[C] |==|  0.64990
USER: genes 5 Torsion [N]-C--CA-[N] |==|  0.53040
USER: genes 6 Torsion [C]-CA--N-[H3] |==|  0.98302
USER: genes 7 Torsion [C]-CA--CB-[OG] |==|  0.85998
USER: genes 8 Torsion [CA]-CB--OG-[HG] |==|  0.90816
USER: genes 9 Torsion [N]-CA--C-[O] |==|  0.07657
USER: genes 10 Torsion [C]-N--CA-[C] |==|  0.22498
USER: genes 11 Torsion [N]-CA--C-[OXT] |==|  0.37632
USER: genes 12 Torsion [N]-CA--CB-[CG1] |==|  0.84037
USER: genes 13 Torsion [CA]-CB--CG1-[CD1] |==|  0.36123
ROOT
ATOM      1  C   VAL B   2      27.569  35.251  10.837  1.00 16.87 LIG 0.24  C 
ATOM      2 O    VAL B   2      26.786  35.799  11.611  1.00 15.05 LIG-0.27  OA
ATOM      3  N   PRO B   3      28.095  34.030  11.084  1.00 17.17 LIG-0.34  N 
ATOM      4  CA  PRO B   3      27.712  33.338  12.324  1.00 17.78 LIG 0.18  C 
ATOM      5  CB  PRO B   3      28.162  31.883  12.084  1.00 18.80 LIG 0.04  C 
ATOM      6  CG  PRO B   3      29.285  31.993  11.098  1.00 20.85 LIG 0.02  C 
ATOM      7  CD  PRO B   3      28.945  33.192  10.213  1.00 18.92 LIG 0.13  C 
ENDROOT
BRANCH 1 8
ATOM      8  CA  VAL B   2      28.057  35.963   9.583  1.00 17.17 LIG 0.18  C 
BRANCH 8 9
ATOM      9  CB  VAL B   2      29.510  36.460   9.800  1.00 19.35 LIG 0.01  C 
ATOM     10  CG1 VAL B   2      29.820  37.616   8.867  1.00 20.75 LIG 0.01  C 
ATOM     11  CG2 VAL B   2      29.785  36.801  11.237  1.00 20.63 LIG 0.01  C 
ENDBRANCH 8 9
BRANCH 8 12
ATOM     12  N   VAL B   2      27.120  37.044   9.226  1.00 15.32 LIG-0.35  N 
ATOM     13  C   SER B   1      26.588  37.116   8.018  1.00 14.89 LIG 0.25  C 
ATOM     14 O    SER B   1      26.769  36.314   7.092  1.00 16.72 LIG-0.27  OA
ATOM     15 H    VAL B   2      26.960  37.604   9.858  1.00 15.32 LIG 0.16  HD
BRANCH 13 16
ATOM     16  CA  SER B   1      25.537  38.226   7.835  1.00 15.81 LIG 0.30  C 
BRANCH 16 17
ATOM     17  N   SER B   1      24.846  38.015   6.534  1.00 17.29 LIG-0.06  N 
ATOM     18 H3   SER B   1      25.240  37.350   6.093  1.00 17.29 LIG 0.28  HD
ATOM     19 H1   SER B   1      23.993  37.808   6.681  1.00 17.29 LIG 0.28  HD
ATOM     20 H2   SER B   1      24.891  38.760   6.049  1.00 17.29 LIG 0.28  HD
ENDBRANCH 16 17
BRANCH 16 21
ATOM     21  CB  SER B   1      24.523  38.201   9.012  1.00 15.46 LIG 0.21  C 
BRANCH 21 22
ATOM     22 OG   SER B   1      24.019  36.881   9.203  1.00 16.65 LIG-0.40  OA
ATOM     23 HG   SER B   1      23.973  36.488   8.463  1.00 16.65 LIG 0.21  HD
ENDBRANCH 21 22
ENDBRANCH 16 21
ENDBRANCH 13 16
ENDBRANCH 8 12
ENDBRANCH 1 8
BRANCH 4 24
ATOM     24  C   PRO B   3      28.407  33.929  13.500  1.00 20.81 LIG 0.24  C 
ATOM     25 O    PRO B   3      28.752  35.109  13.482  1.00 24.11 LIG-0.27  OA
ATOM     26  N   ILE B   4      28.596  33.138  14.543  1.00 19.75 LIG-0.34  N 
ATOM     27 H    ILE B   4      28.243  32.357  14.619  1.00 19.75 LIG 0.16  HD
BRANCH 26 28
ATOM     28  CA  ILE B   4      29.441  33.531  15.685  1.00 21.11 LIG 0.19  C 
BRANCH 28 29
ATOM     29  C   ILE B   4      28.596  34.423  16.568  1.00 24.50 LIG 0.20  C 
ATOM     30 OXT  ILE B   4      28.596  34.265  17.816  1.00 23.18 LIG-0.65  OA
ATOM     31 O    ILE B   4      27.880  35.301  16.041  1.00 23.14 LIG-0.65  OA
ENDBRANCH 28 29
BRANCH 28 32
ATOM     32  CB  ILE B   4      30.675  34.263  15.204  1.00 22.38 LIG 0.01  C 
ATOM     33  CG2 ILE B   4      31.580  34.681  16.365  1.00 23.66 LIG 0.01  C 
BRANCH 32 34
ATOM     34  CG1 ILE B   4      31.423  33.349  14.235  1.00 23.74 LIG 0.00  C 
ATOM     35  CD1 ILE B   4      31.765  34.030  12.967  1.00 25.09 LIG 0.01  C 
ENDBRANCH 32 34
ENDBRANCH 28 32
ENDBRANCH 26 28
ENDBRANCH 4 24
TORSDOF 12
ENDMDL
MODEL 6
USER: ADFR SOLUTION from run 122
USER: SCORE 14.162663 LL:  -2.421 LR: -11.884 RR:   0.000 FEB:  -8.304
USER: RMSD 1.932531
USER: SEED 121
USER: STATUS no improvement in best in 1 clusters for 5 generations
USER: GENES 14
USER: genes 0 Translation |==|  0.48609 0.50800 0.43128
USER: genes 1 Rotation |==|  0.53181 0.46083 0.51139 0.99732
USER: genes 2 Torsion [N]-C--CA-[N] |==|  0.40225
USER: genes 3 Torsion [C]-CA--CB-[CG1] |==|  0.60898
USER: genes 4 Torsion [C]-CA--N-[C] |==|  0.64847
USER: genes 5 Torsion [N]-C--CA-[N] |==|  0.50232
USER: genes 6 Torsion [C]-CA--N-[H3] |==|  0.39515
USER: genes 7 Torsion [C]-CA--CB-[OG] |==|  0.87926
USER: genes 8 Torsion [CA]-CB--OG-[HG] |==|  0.87486
USER: genes 9 Torsion [N]-CA--C-[O] |==|  0.02965
USER: genes 10 Torsion [C]-N--CA-[C] |==|  0.85907
USER: genes 11 Torsion [N]-CA--C-[OXT] |==|  0.35942
USER: genes 12 Torsion [N]-CA--CB-[CG1] |==|  0.88535
USER: genes 13 Torsion [CA]-CB--CG1-[CD1] |==|  0.48043
ROOT
ATOM      1  C   VAL B   2      27.617  34.772  11.021  1.00 16.87 LIG 0.24  C 
ATOM      2 O    VAL B   2      27.059  35.236  12.014  1.00 15.05 LIG-0.27  OA
ATOM      3  N   PRO B   3      27.944  33.463  10.921  1.00 17.17 LIG-0.34  N 
ATOM      4  CA  PRO B   3      27.619  32.570  12.041  1.00 17.78 LIG 0.18  C 
ATOM      5  CB  PRO B   3      27.764  31.159  11.438  1.00 18.80 LIG 0.04  C 
ATOM      6  CG  PRO B   3      28.740  31.328  10.314  1.00 20.85 LIG 0.02  C 
ATOM      7  CD  PRO B   3      28.502  32.733   9.763  1.00 18.92 LIG 0.13  C 
ENDROOT
BRANCH 1 8
ATOM      8  CA  VAL B   2      28.046  35.672   9.871  1.00 17.17 LIG 0.18  C 
BRANCH 8 9
ATOM      9  CB  VAL B   2      29.455  36.250  10.162  1.00 19.35 LIG 0.01  C 
ATOM     10  CG1 VAL B   2      29.536  37.700   9.718  1.00 20.75 LIG 0.01  C 
ATOM     11  CG2 VAL B   2      29.856  36.074  11.599  1.00 20.63 LIG 0.01  C 
ENDBRANCH 8 9
BRANCH 8 12
ATOM     12  N   VAL B   2      27.026  36.714   9.645  1.00 15.32 LIG-0.35  N 
ATOM     13  C   SER B   1      26.495  36.903   8.450  1.00 14.89 LIG 0.25  C 
ATOM     14 O    SER B   1      26.745  36.248   7.428  1.00 16.72 LIG-0.27  OA
ATOM     15 H    VAL B   2      26.818  37.170  10.344  1.00 15.32 LIG 0.16  HD
BRANCH 13 16
ATOM     16  CA  SER B   1      25.359  37.941   8.398  1.00 15.81 LIG 0.30  C 
BRANCH 16 17
ATOM     17  N   SER B   1      24.856  38.024   7.000  1.00 17.29 LIG-0.06  N 
ATOM     18 H3   SER B   1      23.972  38.131   7.008  1.00 17.29 LIG 0.28  HD
ATOM     19 H1   SER B   1      25.234  38.719   6.590  1.00 17.29 LIG 0.28  HD
ATOM     20 H2   SER B   1      25.061  37.276   6.565  1.00 17.29 LIG 0.28  HD
ENDBRANCH 16 17
BRANCH 16 21
ATOM     21  CB  SER B   1      24.220  37.533   9.374  1.00 15.46 LIG 0.21  C 
BRANCH 21 22
ATOM     22 OG   SER B   1      23.954  36.136   9.270  1.00 16.65 LIG-0.40  OA
ATOM     23 HG   SER B   1      23.921  35.917   8.460  1.00 16.65 LIG 0.21  HD
ENDBRANCH 21 22
ENDBRANCH 16 21
ENDBRANCH 13 16
ENDBRANCH 8 12
ENDBRANCH 1 8
BRANCH 4 24
ATOM     24  C   PRO B   3      28.565  32.770  13.174  1.00 20.81 LIG 0.24  C 
ATOM     25 O    PRO B   3      29.338  33.726  13.168  1.00 24.11 LIG-0.27  OA
ATOM     26  N   ILE B   4      28.502  31.899  14.168  1.00 19.75 LIG-0.34  N 
ATOM     27 H    ILE B   4      27.880  31.310  14.245  1.00 19.75 LIG 0.16  HD
BRANCH 26 28
ATOM     28  CA  ILE B   4      29.506  31.862  15.245  1.00 21.11 LIG 0.19  C 
BRANCH 28 29
ATOM     29  C   ILE B   4      30.863  31.824  14.577  1.00 24.50 LIG 0.20  C 
ATOM     30 OXT  ILE B   4      31.763  32.634  14.920  1.00 23.18 LIG-0.65  OA
ATOM     31 O    ILE B   4      31.071  30.997  13.665  1.00 23.14 LIG-0.65  OA
ENDBRANCH 28 29
BRANCH 28 32
ATOM     32  CB  ILE B   4      29.302  30.642  16.117  1.00 22.38 LIG 0.01  C 
ATOM     33  CG2 ILE B   4      30.038  30.766  17.454  1.00 23.66 LIG 0.01  C 
BRANCH 32 34
ATOM     34  CG1 ILE B   4      27.802  30.462  16.340  1.00 23.74 LIG 0.00  C 
ATOM     35  CD1 ILE B   4      27.483  29.200  17.043  1.00 25.09 LIG 0.01  C 
ENDBRANCH 32 34
ENDBRANCH 28 32
ENDBRANCH 26 28
ENDBRANCH 4 24
TORSDOF 12
ENDMDL
