MODEL 1
USER: ADFR SOLUTION from run 110
USER: SCORE 22.311318 LL:  -3.867 LR: -20.798 RR:   0.000 FEB: -12.148
USER: RMSD 2.292034
USER: SEED 109
USER: STATUS 1 or 2 clusters left
USER: GENES 31
USER: genes 0 Translation |==|  0.61709 0.52445 0.52514
USER: genes 1 Rotation |==|  0.50854 0.53763 0.54061 0.99685
USER: genes 2 Torsion [N]-C--CA-[N] |==|  0.38875
USER: genes 3 Torsion [C]-CA--CB-[CG] |==|  0.29795
USER: genes 4 Torsion [CA]-CB--CG-[CD] |==|  0.32814
USER: genes 5 Torsion [CB]-CG--CD-[OE1] |==|  0.27390
USER: genes 6 Torsion [C]-CA--N-[C] |==|  0.80166
USER: genes 7 Torsion [N]-C--CA-[N] |==|  0.59556
USER: genes 8 Torsion [C]-CA--CB-[CG] |==|  0.43105
USER: genes 9 Torsion [CA]-CB--CG-[CD] |==|  0.36388
USER: genes 10 Torsion [CB]-CG--CD-[CE] |==|  0.34165
USER: genes 11 Torsion [CG]-CD--CE-[NZ] |==|  0.63830
USER: genes 12 Torsion [CD]-CE--NZ-[HZ2] |==|  0.81965
USER: genes 13 Torsion [C]-CA--N-[C] |==|  0.21108
USER: genes 14 Torsion [N]-C--CA-[N] |==|  0.62141
USER: genes 15 Torsion [C]-CA--N-[H1] |==|  0.49701
USER: genes 16 Torsion [C]-N--CA-[C] |==|  0.16422
USER: genes 17 Torsion [N]-CA--C-[N] |==|  0.10943
USER: genes 18 Torsion [C]-N--CA-[CB] |==|  0.49550
USER: genes 19 Torsion [N]-CA--CB-[OG] |==|  0.22423
USER: genes 20 Torsion [CA]-CB--OG-[HG] |==|  0.78194
USER: genes 21 Torsion [N]-CA--C-[N] |==|  0.90666
USER: genes 22 Torsion [C]-N--CA-[C] |==|  0.77876
USER: genes 23 Torsion [N]-CA--CB-[CG] |==|  0.71239
USER: genes 24 Torsion [CA]-CB--CG-[OD1] |==|  0.99104
USER: genes 25 Torsion [N]-CA--C-[OXT] |==|  0.53911
USER: genes 26 Torsion [N]-CA--CB-[CG] |==|  0.83755
USER: genes 27 Torsion [CA]-CB--CG-[CD] |==|  0.86027
USER: genes 28 Torsion [CB]-CG--CD-[CE] |==|  0.72535
USER: genes 29 Torsion [CG]-CD--CE-[NZ] |==|  0.60250
USER: genes 30 Torsion [CD]-CE--NZ-[HZ1] |==|  0.05820
ROOT
ATOM      1  C   GLU D   2     -28.069 -14.640   2.580  1.00 31.02 LIG 0.24  C 
ATOM      2 O    GLU D   2     -27.762 -15.412   1.669  1.00 27.38 LIG-0.27  OA
ATOM      3  N   LYS D   3     -28.522 -13.398   2.366  1.00 31.55 LIG-0.35  N 
ATOM      4 H    LYS D   3     -28.874 -12.902   2.975  1.00 31.55 LIG 0.16  HD
ENDROOT
BRANCH 1 5
ATOM      5  CA  GLU D   2     -27.937 -15.075   4.042  1.00 33.66 LIG 0.18  C 
BRANCH 5 6
ATOM      6  CB  GLU D   2     -26.482 -14.937   4.466  1.00 31.60 LIG 0.04  C 
BRANCH 6 7
ATOM      7  CG  GLU D   2     -26.245 -13.779   5.394  1.00 40.13 LIG 0.12  C 
BRANCH 7 8
ATOM      8  CD  GLU D   2     -25.728 -14.253   6.730  1.00 42.76 LIG 0.17  C 
ATOM      9 OE2  GLU D   2     -26.549 -14.729   7.536  1.00 44.96 LIG-0.65  OA
ATOM     10 OE1  GLU D   2     -24.495 -14.199   6.943  1.00 41.64 LIG-0.65  OA
ENDBRANCH 7 8
ENDBRANCH 6 7
ENDBRANCH 5 6
BRANCH 5 11
ATOM     11  N   GLU D   2     -28.374 -16.464   4.185  1.00 44.67 LIG-0.35  N 
ATOM     12 H    GLU D   2     -27.748 -17.035   4.334  1.00 44.67 LIG 0.16  HD
ATOM     13  C   LYS D   1     -29.665 -16.756   4.082  1.00 49.40 LIG 0.24  C 
ATOM     14 O    LYS D   1     -30.544 -15.886   4.075  1.00 45.15 LIG-0.27  OA
BRANCH 13 15
ATOM     15  CA  LYS D   1     -30.044 -18.224   3.943  1.00 54.12 LIG 0.18  C 
BRANCH 15 16
ATOM     16  CB  LYS D   1     -28.860 -18.928   3.268  1.00 51.59 LIG 0.04  C 
BRANCH 16 17
ATOM     17  CG  LYS D   1     -28.737 -20.397   3.536  1.00 49.71 LIG 0.00  C 
BRANCH 17 18
ATOM     18  CD  LYS D   1     -28.541 -21.212   2.267  1.00 43.42 LIG 0.03  C 
BRANCH 18 19
ATOM     19  CE  LYS D   1     -27.261 -21.993   2.420  1.00 42.27 LIG 0.23  C 
BRANCH 19 20
ATOM     20  NZ  LYS D   1     -26.308 -21.905   1.301  1.00 37.99 LIG-0.08  N 
ATOM     21 HZ2  LYS D   1     -26.667 -22.274   0.575  1.00 37.99 LIG 0.27  HD
ATOM     22 HZ1  LYS D   1     -25.559 -22.338   1.513  1.00 37.99 LIG 0.27  HD
ATOM     23 HZ3  LYS D   1     -26.120 -21.051   1.137  1.00 37.99 LIG 0.27  HD
ENDBRANCH 19 20
ENDBRANCH 18 19
ENDBRANCH 17 18
ENDBRANCH 16 17
ENDBRANCH 15 16
BRANCH 15 24
ATOM     24  N   LYS D   1     -31.213 -18.330   3.079  1.00 57.33 LIG-0.35  N 
ATOM     25  C   ALA D   0     -31.164 -18.200   1.751  1.00 63.38 LIG 0.25  C 
ATOM     26 O    ALA D   0     -30.159 -17.805   1.139  1.00 63.83 LIG-0.27  OA
ATOM     27 H    LYS D   1     -31.943 -18.484   3.507  1.00 57.33 LIG 0.16  HD
BRANCH 25 28
ATOM     28  CA  ALA D   0     -32.448 -18.577   0.995  1.00 65.61 LIG 0.27  C 
ATOM     29  CB  ALA D   0     -33.418 -19.363   1.912  1.00 68.28 LIG 0.05  C 
BRANCH 28 30
ATOM     30  N   ALA D   0     -32.130 -19.369  -0.188  1.00 67.78 LIG-0.07  N 
ATOM     31 H3   ALA D   0     -31.696 -20.107   0.056  1.00 67.78 LIG 0.28  HD
ATOM     32 H2   ALA D   0     -31.616 -18.891  -0.736  1.00 67.78 LIG 0.28  HD
ATOM     33 H1   ALA D   0     -32.882 -19.594  -0.607  1.00 67.78 LIG 0.28  HD
ENDBRANCH 28 30
ENDBRANCH 25 28
ENDBRANCH 15 24
ENDBRANCH 13 15
ENDBRANCH 5 11
ENDBRANCH 1 5
BRANCH 3 34
ATOM     34  CA  LYS D   3     -28.448 -12.778   1.051  1.00 28.89 LIG 0.18  C 
BRANCH 34 35
ATOM     35  C   LYS D   3     -29.219 -13.629   0.064  1.00 25.10 LIG 0.24  C 
ATOM     36 O    LYS D   3     -28.817 -13.789  -1.084  1.00 27.04 LIG-0.27  OA
ATOM     37  N   SER D   4     -30.350 -14.135   0.553  1.00 24.57 LIG-0.34  N 
ATOM     38 H    SER D   4     -30.616 -13.978   1.355  1.00 24.57 LIG 0.16  HD
BRANCH 37 39
ATOM     39  CA  SER D   4     -31.257 -14.995  -0.188  1.00 30.79 LIG 0.20  C 
BRANCH 39 40
ATOM     40  CB  SER D   4     -32.403 -15.367   0.787  1.00 34.88 LIG 0.20  C 
BRANCH 40 41
ATOM     41 OG   SER D   4     -33.391 -14.383   0.920  1.00 44.92 LIG-0.40  OA
ATOM     42 HG   SER D   4     -33.115 -13.777   1.431  1.00 44.92 LIG 0.21  HD
ENDBRANCH 40 41
ENDBRANCH 39 40
BRANCH 39 43
ATOM     43  C   SER D   4     -31.806 -14.227  -1.394  1.00 32.71 LIG 0.24  C 
ATOM     44 O    SER D   4     -32.057 -14.816  -2.449  1.00 26.72 LIG-0.27  OA
ATOM     45  N   ASP D   5     -32.001 -12.911  -1.260  1.00 33.82 LIG-0.34  N 
ATOM     46 H    ASP D   5     -31.775 -12.443  -0.575  1.00 33.82 LIG 0.16  HD
BRANCH 45 47
ATOM     47  CA  ASP D   5     -32.653 -12.171  -2.354  1.00 26.21 LIG 0.20  C 
BRANCH 47 48
ATOM     48  CB  ASP D   5     -33.284 -10.839  -1.905  1.00 31.21 LIG 0.15  C 
BRANCH 48 49
ATOM     49  CG  ASP D   5     -34.801 -10.903  -1.773  1.00 42.12 LIG 0.17  C 
ATOM     50 OD2  ASP D   5     -35.381  -9.889  -1.324  1.00 42.23 LIG-0.65  OA
ATOM     51 OD1  ASP D   5     -35.402 -11.948  -2.080  1.00 39.47 LIG-0.65  OA
ENDBRANCH 48 49
ENDBRANCH 47 48
BRANCH 47 52
ATOM     52  C   ASP D   5     -31.674 -11.864  -3.477  1.00 28.95 LIG 0.20  C 
ATOM     53 OXT  ASP D   5     -31.983 -11.028  -4.345  1.00 28.91 LIG-0.65  OA
ATOM     54 O    ASP D   5     -30.568 -12.406  -3.519  1.00 26.13 LIG-0.65  OA
ENDBRANCH 47 52
ENDBRANCH 45 47
ENDBRANCH 39 43
ENDBRANCH 37 39
ENDBRANCH 34 35
BRANCH 34 55
ATOM     55  CB  LYS D   3     -26.978 -12.588   0.632  1.00 31.87 LIG 0.04  C 
BRANCH 55 56
ATOM     56  CG  LYS D   3     -26.200 -11.728   1.628  1.00 32.54 LIG 0.00  C 
BRANCH 56 57
ATOM     57  CD  LYS D   3     -27.056 -10.487   1.832  1.00 38.19 LIG 0.03  C 
BRANCH 57 58
ATOM     58  CE  LYS D   3     -26.609  -9.313   1.021  1.00 36.51 LIG 0.23  C 
BRANCH 58 59
ATOM     59  NZ  LYS D   3     -26.805  -8.097   1.836  1.00 31.52 LIG-0.08  N 
ATOM     60 HZ2  LYS D   3     -26.124  -7.540   1.707  1.00 31.52 LIG 0.27  HD
ATOM     61 HZ1  LYS D   3     -26.847  -8.320   2.696  1.00 31.52 LIG 0.27  HD
ATOM     62 HZ3  LYS D   3     -27.564  -7.699   1.596  1.00 31.52 LIG 0.27  HD
ENDBRANCH 58 59
ENDBRANCH 57 58
ENDBRANCH 56 57
ENDBRANCH 55 56
ENDBRANCH 34 55
ENDBRANCH 3 34
TORSDOF 29
ENDMDL
MODEL 2
USER: ADFR SOLUTION from run 8
USER: SCORE 23.452638 LL:  -4.843 LR: -20.252 RR:   0.000 FEB: -11.601
USER: RMSD 1.949392
USER: SEED 625201
USER: STATUS 1 or 2 clusters left
USER: GENES 31
USER: genes 0 Translation |==|  0.61432 0.51625 0.52550
USER: genes 1 Rotation |==|  0.51829 0.53942 0.52554 0.99745
USER: genes 2 Torsion [N]-C--CA-[N] |==|  0.44137
USER: genes 3 Torsion [C]-CA--CB-[CG] |==|  0.45170
USER: genes 4 Torsion [CA]-CB--CG-[CD] |==|  0.15980
USER: genes 5 Torsion [CB]-CG--CD-[OE1] |==|  0.16986
USER: genes 6 Torsion [C]-CA--N-[C] |==|  0.81583
USER: genes 7 Torsion [N]-C--CA-[N] |==|  0.25352
USER: genes 8 Torsion [C]-CA--CB-[CG] |==|  0.42290
USER: genes 9 Torsion [CA]-CB--CG-[CD] |==|  0.86433
USER: genes 10 Torsion [CB]-CG--CD-[CE] |==|  0.31200
USER: genes 11 Torsion [CG]-CD--CE-[NZ] |==|  0.46626
USER: genes 12 Torsion [CD]-CE--NZ-[HZ2] |==|  0.14002
USER: genes 13 Torsion [C]-CA--N-[C] |==|  0.76578
USER: genes 14 Torsion [N]-C--CA-[N] |==|  0.67415
USER: genes 15 Torsion [C]-CA--N-[H1] |==|  0.73874
USER: genes 16 Torsion [C]-N--CA-[C] |==|  0.15888
USER: genes 17 Torsion [N]-CA--C-[N] |==|  0.11865
USER: genes 18 Torsion [C]-N--CA-[CB] |==|  0.49021
USER: genes 19 Torsion [N]-CA--CB-[OG] |==|  0.97889
USER: genes 20 Torsion [CA]-CB--OG-[HG] |==|  0.65151
USER: genes 21 Torsion [N]-CA--C-[N] |==|  0.90535
USER: genes 22 Torsion [C]-N--CA-[C] |==|  0.82214
USER: genes 23 Torsion [N]-CA--CB-[CG] |==|  0.75239
USER: genes 24 Torsion [CA]-CB--CG-[OD1] |==|  0.30744
USER: genes 25 Torsion [N]-CA--C-[OXT] |==|  0.49106
USER: genes 26 Torsion [N]-CA--CB-[CG] |==|  0.60490
USER: genes 27 Torsion [CA]-CB--CG-[CD] |==|  0.19853
USER: genes 28 Torsion [CB]-CG--CD-[CE] |==|  0.48446
USER: genes 29 Torsion [CG]-CD--CE-[NZ] |==|  0.46786
USER: genes 30 Torsion [CD]-CE--NZ-[HZ1] |==|  0.75257
ROOT
ATOM      1  C   GLU D   2     -28.119 -14.819   2.588  1.00 31.02 LIG 0.24  C 
ATOM      2 O    GLU D   2     -27.870 -15.577   1.647  1.00 27.38 LIG-0.27  OA
ATOM      3  N   LYS D   3     -28.494 -13.544   2.421  1.00 31.55 LIG-0.35  N 
ATOM      4 H    LYS D   3     -28.809 -13.048   3.050  1.00 31.55 LIG 0.16  HD
ENDROOT
BRANCH 1 5
ATOM      5  CA  GLU D   2     -28.000 -15.310   4.032  1.00 33.66 LIG 0.18  C 
BRANCH 5 6
ATOM      6  CB  GLU D   2     -26.664 -14.849   4.599  1.00 31.60 LIG 0.04  C 
BRANCH 6 7
ATOM      7  CG  GLU D   2     -26.610 -14.905   6.100  1.00 40.13 LIG 0.12  C 
BRANCH 7 8
ATOM      8  CD  GLU D   2     -26.891 -16.300   6.601  1.00 42.76 LIG 0.17  C 
ATOM      9 OE2  GLU D   2     -27.914 -16.476   7.289  1.00 44.96 LIG-0.65  OA
ATOM     10 OE1  GLU D   2     -26.118 -17.223   6.255  1.00 41.64 LIG-0.65  OA
ENDBRANCH 7 8
ENDBRANCH 6 7
ENDBRANCH 5 6
BRANCH 5 11
ATOM     11  N   GLU D   2     -28.085 -16.770   4.066  1.00 44.67 LIG-0.35  N 
ATOM     12 H    GLU D   2     -27.368 -17.177   4.312  1.00 44.67 LIG 0.16  HD
ATOM     13  C   LYS D   1     -29.221 -17.366   3.727  1.00 49.40 LIG 0.24  C 
ATOM     14 O    LYS D   1     -30.279 -16.742   3.581  1.00 45.15 LIG-0.27  OA
BRANCH 13 15
ATOM     15  CA  LYS D   1     -29.184 -18.869   3.491  1.00 54.12 LIG 0.18  C 
BRANCH 15 16
ATOM     16  CB  LYS D   1     -30.285 -19.188   2.472  1.00 51.59 LIG 0.04  C 
BRANCH 16 17
ATOM     17  CG  LYS D   1     -30.050 -20.397   1.618  1.00 49.71 LIG 0.00  C 
BRANCH 17 18
ATOM     18  CD  LYS D   1     -28.664 -20.415   0.994  1.00 43.42 LIG 0.03  C 
BRANCH 18 19
ATOM     19  CE  LYS D   1     -27.896 -21.552   1.621  1.00 42.27 LIG 0.23  C 
BRANCH 19 20
ATOM     20  NZ  LYS D   1     -26.630 -21.921   0.965  1.00 37.99 LIG-0.08  N 
ATOM     21 HZ2  LYS D   1     -26.135 -21.192   0.843  1.00 37.99 LIG 0.27  HD
ATOM     22 HZ1  LYS D   1     -26.802 -22.297   0.177  1.00 37.99 LIG 0.27  HD
ATOM     23 HZ3  LYS D   1     -26.187 -22.498   1.479  1.00 37.99 LIG 0.27  HD
ENDBRANCH 19 20
ENDBRANCH 18 19
ENDBRANCH 17 18
ENDBRANCH 16 17
ENDBRANCH 15 16
BRANCH 15 24
ATOM     24  N   LYS D   1     -29.485 -19.552   4.744  1.00 57.33 LIG-0.35  N 
ATOM     25  C   ALA D   0     -28.570 -19.813   5.681  1.00 63.38 LIG 0.25  C 
ATOM     26 O    ALA D   0     -27.351 -19.661   5.508  1.00 63.83 LIG-0.27  OA
ATOM     27 H    LYS D   1     -30.312 -19.773   4.824  1.00 57.33 LIG 0.16  HD
BRANCH 25 28
ATOM     28  CA  ALA D   0     -29.117 -20.322   7.024  1.00 65.61 LIG 0.27  C 
ATOM     29  CB  ALA D   0     -30.649 -20.538   6.950  1.00 68.28 LIG 0.05  C 
BRANCH 28 30
ATOM     30  N   ALA D   0     -28.798 -19.383   8.094  1.00 67.78 LIG-0.07  N 
ATOM     31 H3   ALA D   0     -29.457 -19.377   8.692  1.00 67.78 LIG 0.28  HD
ATOM     32 H2   ALA D   0     -28.701 -18.566   7.753  1.00 67.78 LIG 0.28  HD
ATOM     33 H1   ALA D   0     -28.041 -19.631   8.491  1.00 67.78 LIG 0.28  HD
ENDBRANCH 28 30
ENDBRANCH 25 28
ENDBRANCH 15 24
ENDBRANCH 13 15
ENDBRANCH 5 11
ENDBRANCH 1 5
BRANCH 3 34
ATOM     34  CA  LYS D   3     -28.395 -12.886   1.126  1.00 28.89 LIG 0.18  C 
BRANCH 34 35
ATOM     35  C   LYS D   3     -29.189 -13.679   0.110  1.00 25.10 LIG 0.24  C 
ATOM     36 O    LYS D   3     -28.760 -13.867  -1.024  1.00 27.04 LIG-0.27  OA
ATOM     37  N   SER D   4     -30.370 -14.103   0.558  1.00 24.57 LIG-0.34  N 
ATOM     38 H    SER D   4     -30.653 -13.928   1.351  1.00 24.57 LIG 0.16  HD
BRANCH 37 39
ATOM     39  CA  SER D   4     -31.310 -14.896  -0.217  1.00 30.79 LIG 0.20  C 
BRANCH 39 40
ATOM     40  CB  SER D   4     -32.490 -15.228   0.731  1.00 34.88 LIG 0.20  C 
BRANCH 40 41
ATOM     41 OG   SER D   4     -32.283 -14.853   2.064  1.00 44.92 LIG-0.40  OA
ATOM     42 HG   SER D   4     -32.397 -15.518   2.563  1.00 44.92 LIG 0.21  HD
ENDBRANCH 40 41
ENDBRANCH 39 40
BRANCH 39 43
ATOM     43  C   SER D   4     -31.796 -14.073  -1.413  1.00 32.71 LIG 0.24  C 
ATOM     44 O    SER D   4     -32.052 -14.623  -2.488  1.00 26.72 LIG-0.27  OA
ATOM     45  N   ASP D   5     -31.932 -12.754  -1.249  1.00 33.82 LIG-0.34  N 
ATOM     46 H    ASP D   5     -31.698 -12.313  -0.547  1.00 33.82 LIG 0.16  HD
BRANCH 45 47
ATOM     47  CA  ASP D   5     -32.525 -11.955  -2.336  1.00 26.21 LIG 0.20  C 
BRANCH 47 48
ATOM     48  CB  ASP D   5     -32.752 -10.479  -1.961  1.00 31.21 LIG 0.15  C 
BRANCH 48 49
ATOM     49  CG  ASP D   5     -34.115 -10.220  -1.328  1.00 42.12 LIG 0.17  C 
ATOM     50 OD2  ASP D   5     -35.118 -10.297  -2.073  1.00 42.23 LIG-0.65  OA
ATOM     51 OD1  ASP D   5     -34.187  -9.917  -0.124  1.00 39.47 LIG-0.65  OA
ENDBRANCH 48 49
ENDBRANCH 47 48
BRANCH 47 52
ATOM     52  C   ASP D   5     -31.657 -11.988  -3.585  1.00 28.95 LIG 0.20  C 
ATOM     53 OXT  ASP D   5     -32.049 -11.411  -4.616  1.00 28.91 LIG-0.65  OA
ATOM     54 O    ASP D   5     -30.559 -12.547  -3.579  1.00 26.13 LIG-0.65  OA
ENDBRANCH 47 52
ENDBRANCH 45 47
ENDBRANCH 39 43
ENDBRANCH 37 39
ENDBRANCH 34 35
BRANCH 34 55
ATOM     55  CB  LYS D   3     -26.918 -12.731   0.718  1.00 31.87 LIG 0.04  C 
BRANCH 55 56
ATOM     56  CG  LYS D   3     -26.651 -11.404   0.008  1.00 32.54 LIG 0.00  C 
BRANCH 56 57
ATOM     57  CD  LYS D   3     -26.756 -10.345   1.095  1.00 38.19 LIG 0.03  C 
BRANCH 57 58
ATOM     58  CE  LYS D   3     -26.394  -8.971   0.629  1.00 36.51 LIG 0.23  C 
BRANCH 58 59
ATOM     59  NZ  LYS D   3     -26.802  -8.014   1.677  1.00 31.52 LIG-0.08  N 
ATOM     60 HZ2  LYS D   3     -26.744  -8.404   2.474  1.00 31.52 LIG 0.27  HD
ATOM     61 HZ1  LYS D   3     -27.642  -7.757   1.533  1.00 31.52 LIG 0.27  HD
ATOM     62 HZ3  LYS D   3     -26.267  -7.304   1.655  1.00 31.52 LIG 0.27  HD
ENDBRANCH 58 59
ENDBRANCH 57 58
ENDBRANCH 56 57
ENDBRANCH 55 56
ENDBRANCH 34 55
ENDBRANCH 3 34
TORSDOF 29
ENDMDL
MODEL 3
USER: ADFR SOLUTION from run 45
USER: SCORE 22.505931 LL:  -4.095 LR: -19.780 RR:   0.000 FEB: -11.130
USER: RMSD 1.441860
USER: SEED 44
USER: STATUS no improvement in best in 2 clusters for 5 generations
USER: GENES 31
USER: genes 0 Translation |==|  0.61949 0.52212 0.51964
USER: genes 1 Rotation |==|  0.50950 0.55272 0.50239 0.99712
USER: genes 2 Torsion [N]-C--CA-[N] |==|  0.38151
USER: genes 3 Torsion [C]-CA--CB-[CG] |==|  0.44374
USER: genes 4 Torsion [CA]-CB--CG-[CD] |==|  0.17979
USER: genes 5 Torsion [CB]-CG--CD-[OE1] |==|  0.18473
USER: genes 6 Torsion [C]-CA--N-[C] |==|  0.83777
USER: genes 7 Torsion [N]-C--CA-[N] |==|  0.43040
USER: genes 8 Torsion [C]-CA--CB-[CG] |==|  0.36303
USER: genes 9 Torsion [CA]-CB--CG-[CD] |==|  0.66100
USER: genes 10 Torsion [CB]-CG--CD-[CE] |==|  0.54799
USER: genes 11 Torsion [CG]-CD--CE-[NZ] |==|  0.56414
USER: genes 12 Torsion [CD]-CE--NZ-[HZ2] |==|  0.78127
USER: genes 13 Torsion [C]-CA--N-[C] |==|  0.81692
USER: genes 14 Torsion [N]-C--CA-[N] |==|  0.56008
USER: genes 15 Torsion [C]-CA--N-[H1] |==|  0.48985
USER: genes 16 Torsion [C]-N--CA-[C] |==|  0.15070
USER: genes 17 Torsion [N]-CA--C-[N] |==|  0.10926
USER: genes 18 Torsion [C]-N--CA-[CB] |==|  0.49524
USER: genes 19 Torsion [N]-CA--CB-[OG] |==|  0.64096
USER: genes 20 Torsion [CA]-CB--OG-[HG] |==|  0.50371
USER: genes 21 Torsion [N]-CA--C-[N] |==|  0.90437
USER: genes 22 Torsion [C]-N--CA-[C] |==|  0.81551
USER: genes 23 Torsion [N]-CA--CB-[CG] |==|  0.75264
USER: genes 24 Torsion [CA]-CB--CG-[OD1] |==|  0.30326
USER: genes 25 Torsion [N]-CA--C-[OXT] |==|  0.49490
USER: genes 26 Torsion [N]-CA--CB-[CG] |==|  0.95248
USER: genes 27 Torsion [CA]-CB--CG-[CD] |==|  0.78255
USER: genes 28 Torsion [CB]-CG--CD-[CE] |==|  0.89242
USER: genes 29 Torsion [CG]-CD--CE-[NZ] |==|  0.54946
USER: genes 30 Torsion [CD]-CE--NZ-[HZ1] |==|  0.22494
ROOT
ATOM      1  C   GLU D   2     -28.026 -14.691   2.465  1.00 31.02 LIG 0.24  C 
ATOM      2 O    GLU D   2     -27.897 -15.507   1.549  1.00 27.38 LIG-0.27  OA
ATOM      3  N   LYS D   3     -28.299 -13.396   2.258  1.00 31.55 LIG-0.35  N 
ATOM      4 H    LYS D   3     -28.534 -12.848   2.878  1.00 31.55 LIG 0.16  HD
ENDROOT
BRANCH 1 5
ATOM      5  CA  GLU D   2     -27.868 -15.129   3.923  1.00 33.66 LIG 0.18  C 
BRANCH 5 6
ATOM      6  CB  GLU D   2     -26.385 -15.272   4.235  1.00 31.60 LIG 0.04  C 
BRANCH 6 7
ATOM      7  CG  GLU D   2     -26.084 -15.219   5.706  1.00 40.13 LIG 0.12  C 
BRANCH 7 8
ATOM      8  CD  GLU D   2     -26.698 -16.394   6.427  1.00 42.76 LIG 0.17  C 
ATOM      9 OE2  GLU D   2     -27.653 -16.171   7.194  1.00 44.96 LIG-0.65  OA
ATOM     10 OE1  GLU D   2     -26.260 -17.540   6.178  1.00 41.64 LIG-0.65  OA
ENDBRANCH 7 8
ENDBRANCH 6 7
ENDBRANCH 5 6
BRANCH 5 11
ATOM     11  N   GLU D   2     -28.552 -16.405   4.132  1.00 44.67 LIG-0.35  N 
ATOM     12 H    GLU D   2     -28.057 -17.048   4.418  1.00 44.67 LIG 0.16  HD
ATOM     13  C   LYS D   1     -29.852 -16.499   3.877  1.00 49.40 LIG 0.24  C 
ATOM     14 O    LYS D   1     -30.560 -15.507   3.667  1.00 45.15 LIG-0.27  OA
BRANCH 13 15
ATOM     15  CA  LYS D   1     -30.458 -17.894   3.823  1.00 54.12 LIG 0.18  C 
BRANCH 15 16
ATOM     16  CB  LYS D   1     -30.292 -18.396   2.383  1.00 51.59 LIG 0.04  C 
BRANCH 16 17
ATOM     17  CG  LYS D   1     -29.709 -19.769   2.236  1.00 49.71 LIG 0.00  C 
BRANCH 17 18
ATOM     18  CD  LYS D   1     -28.438 -19.782   1.401  1.00 43.42 LIG 0.03  C 
BRANCH 18 19
ATOM     19  CE  LYS D   1     -28.192 -21.205   0.968  1.00 42.27 LIG 0.23  C 
BRANCH 19 20
ATOM     20  NZ  LYS D   1     -26.802 -21.547   0.620  1.00 37.99 LIG-0.08  N 
ATOM     21 HZ2  LYS D   1     -26.618 -21.250  -0.198  1.00 37.99 LIG 0.27  HD
ATOM     22 HZ1  LYS D   1     -26.699 -22.431   0.643  1.00 37.99 LIG 0.27  HD
ATOM     23 HZ3  LYS D   1     -26.248 -21.169   1.205  1.00 37.99 LIG 0.27  HD
ENDBRANCH 19 20
ENDBRANCH 18 19
ENDBRANCH 17 18
ENDBRANCH 16 17
ENDBRANCH 15 16
BRANCH 15 24
ATOM     24  N   LYS D   1     -31.880 -17.803   4.131  1.00 57.33 LIG-0.35  N 
ATOM     25  C   ALA D   0     -32.354 -17.436   5.325  1.00 63.38 LIG 0.25  C 
ATOM     26 O    ALA D   0     -31.643 -17.306   6.333  1.00 63.83 LIG-0.27  OA
ATOM     27 H    LYS D   1     -32.389 -18.010   3.470  1.00 57.33 LIG 0.16  HD
BRANCH 25 28
ATOM     28  CA  ALA D   0     -33.867 -17.171   5.388  1.00 65.61 LIG 0.27  C 
ATOM     29  CB  ALA D   0     -34.369 -16.514   4.078  1.00 68.28 LIG 0.05  C 
BRANCH 28 30
ATOM     30  N   ALA D   0     -34.188 -16.316   6.527  1.00 67.78 LIG-0.07  N 
ATOM     31 H3   ALA D   0     -33.721 -15.561   6.473  1.00 67.78 LIG 0.28  HD
ATOM     32 H2   ALA D   0     -33.980 -16.738   7.283  1.00 67.78 LIG 0.28  HD
ATOM     33 H1   ALA D   0     -35.057 -16.128   6.522  1.00 67.78 LIG 0.28  HD
ENDBRANCH 28 30
ENDBRANCH 25 28
ENDBRANCH 15 24
ENDBRANCH 13 15
ENDBRANCH 5 11
ENDBRANCH 1 5
BRANCH 3 34
ATOM     34  CA  LYS D   3     -28.216 -12.805   0.930  1.00 28.89 LIG 0.18  C 
BRANCH 34 35
ATOM     35  C   LYS D   3     -29.076 -13.612  -0.020  1.00 25.10 LIG 0.24  C 
ATOM     36 O    LYS D   3     -28.721 -13.820  -1.176  1.00 27.04 LIG-0.27  OA
ATOM     37  N   SER D   4     -30.227 -14.025   0.508  1.00 24.57 LIG-0.34  N 
ATOM     38 H    SER D   4     -30.458 -13.836   1.315  1.00 24.57 LIG 0.16  HD
BRANCH 37 39
ATOM     39  CA  SER D   4     -31.216 -14.827  -0.192  1.00 30.79 LIG 0.20  C 
BRANCH 39 40
ATOM     40  CB  SER D   4     -32.356 -15.101   0.821  1.00 34.88 LIG 0.20  C 
BRANCH 40 41
ATOM     41 OG   SER D   4     -32.719 -16.448   0.931  1.00 44.92 LIG-0.40  OA
ATOM     42 HG   SER D   4     -33.351 -16.525   1.479  1.00 44.92 LIG 0.21  HD
ENDBRANCH 40 41
ENDBRANCH 39 40
BRANCH 39 43
ATOM     43  C   SER D   4     -31.742 -14.039  -1.395  1.00 32.71 LIG 0.24  C 
ATOM     44 O    SER D   4     -32.052 -14.622  -2.438  1.00 26.72 LIG-0.27  OA
ATOM     45  N   ASP D   5     -31.854 -12.713  -1.272  1.00 33.82 LIG-0.34  N 
ATOM     46 H    ASP D   5     -31.584 -12.252  -0.597  1.00 33.82 LIG 0.16  HD
BRANCH 45 47
ATOM     47  CA  ASP D   5     -32.483 -11.944  -2.360  1.00 26.21 LIG 0.20  C 
BRANCH 47 48
ATOM     48  CB  ASP D   5     -32.727 -10.465  -2.006  1.00 31.21 LIG 0.15  C 
BRANCH 48 49
ATOM     49  CG  ASP D   5     -34.079 -10.218  -1.346  1.00 42.12 LIG 0.17  C 
ATOM     50 OD2  ASP D   5     -35.095 -10.297  -2.074  1.00 42.23 LIG-0.65  OA
ATOM     51 OD1  ASP D   5     -34.131  -9.922  -0.140  1.00 39.47 LIG-0.65  OA
ENDBRANCH 48 49
ENDBRANCH 47 48
BRANCH 47 52
ATOM     52  C   ASP D   5     -31.641 -11.984  -3.626  1.00 28.95 LIG 0.20  C 
ATOM     53 OXT  ASP D   5     -32.052 -11.410  -4.651  1.00 28.91 LIG-0.65  OA
ATOM     54 O    ASP D   5     -30.544 -12.547  -3.640  1.00 26.13 LIG-0.65  OA
ENDBRANCH 47 52
ENDBRANCH 45 47
ENDBRANCH 39 43
ENDBRANCH 37 39
ENDBRANCH 34 35
BRANCH 34 55
ATOM     55  CB  LYS D   3     -26.749 -12.732   0.468  1.00 31.87 LIG 0.04  C 
BRANCH 55 56
ATOM     56  CG  LYS D   3     -25.769 -12.888   1.631  1.00 32.54 LIG 0.00  C 
BRANCH 56 57
ATOM     57  CD  LYS D   3     -25.753 -11.533   2.320  1.00 38.19 LIG 0.03  C 
BRANCH 57 58
ATOM     58  CE  LYS D   3     -25.810 -10.379   1.371  1.00 36.51 LIG 0.23  C 
BRANCH 58 59
ATOM     59  NZ  LYS D   3     -25.360  -9.173   2.094  1.00 31.52 LIG-0.08  N 
ATOM     60 HZ2  LYS D   3     -25.661  -8.446   1.677  1.00 31.52 LIG 0.27  HD
ATOM     61 HZ1  LYS D   3     -24.470  -9.155   2.117  1.00 31.52 LIG 0.27  HD
ATOM     62 HZ3  LYS D   3     -25.677  -9.190   2.926  1.00 31.52 LIG 0.27  HD
ENDBRANCH 58 59
ENDBRANCH 57 58
ENDBRANCH 56 57
ENDBRANCH 55 56
ENDBRANCH 34 55
ENDBRANCH 3 34
TORSDOF 29
ENDMDL
MODEL 4
USER: ADFR SOLUTION from run 121
USER: SCORE 22.432348 LL:  -5.408 LR: -19.737 RR:   0.000 FEB: -11.087
USER: RMSD 3.418668
USER: SEED 120
USER: STATUS no improvement in best in 3 clusters for 5 generations
USER: GENES 31
USER: genes 0 Translation |==|  0.57610 0.48918 0.52155
USER: genes 1 Rotation |==|  0.52741 0.51140 0.48331 0.99884
USER: genes 2 Torsion [N]-C--CA-[N] |==|  0.38523
USER: genes 3 Torsion [C]-CA--CB-[CG] |==|  0.38303
USER: genes 4 Torsion [CA]-CB--CG-[CD] |==|  0.36878
USER: genes 5 Torsion [CB]-CG--CD-[OE1] |==|  0.02844
USER: genes 6 Torsion [C]-CA--N-[C] |==|  0.20148
USER: genes 7 Torsion [N]-C--CA-[N] |==|  0.51041
USER: genes 8 Torsion [C]-CA--CB-[CG] |==|  0.88036
USER: genes 9 Torsion [CA]-CB--CG-[CD] |==|  0.72391
USER: genes 10 Torsion [CB]-CG--CD-[CE] |==|  0.62480
USER: genes 11 Torsion [CG]-CD--CE-[NZ] |==|  0.81980
USER: genes 12 Torsion [CD]-CE--NZ-[HZ2] |==|  0.92210
USER: genes 13 Torsion [C]-CA--N-[C] |==|  0.78889
USER: genes 14 Torsion [N]-C--CA-[N] |==|  0.63907
USER: genes 15 Torsion [C]-CA--N-[H1] |==|  0.38258
USER: genes 16 Torsion [C]-N--CA-[C] |==|  0.15772
USER: genes 17 Torsion [N]-CA--C-[N] |==|  0.08897
USER: genes 18 Torsion [C]-N--CA-[CB] |==|  0.49851
USER: genes 19 Torsion [N]-CA--CB-[OG] |==|  0.85227
USER: genes 20 Torsion [CA]-CB--OG-[HG] |==|  0.47667
USER: genes 21 Torsion [N]-CA--C-[N] |==|  0.89031
USER: genes 22 Torsion [C]-N--CA-[C] |==|  0.83734
USER: genes 23 Torsion [N]-CA--CB-[CG] |==|  0.75008
USER: genes 24 Torsion [CA]-CB--CG-[OD1] |==|  0.82539
USER: genes 25 Torsion [N]-CA--C-[OXT] |==|  0.97181
USER: genes 26 Torsion [N]-CA--CB-[CG] |==|  0.88165
USER: genes 27 Torsion [CA]-CB--CG-[CD] |==|  0.69332
USER: genes 28 Torsion [CB]-CG--CD-[CE] |==|  0.46644
USER: genes 29 Torsion [CG]-CD--CE-[NZ] |==|  0.53033
USER: genes 30 Torsion [CD]-CE--NZ-[HZ1] |==|  0.61388
ROOT
ATOM      1  C   GLU D   2     -28.807 -15.407   2.505  1.00 31.02 LIG 0.24  C 
ATOM      2 O    GLU D   2     -28.595 -16.179   1.566  1.00 27.38 LIG-0.27  OA
ATOM      3  N   LYS D   3     -28.936 -14.084   2.349  1.00 31.55 LIG-0.35  N 
ATOM      4 H    LYS D   3     -29.225 -13.552   2.961  1.00 31.55 LIG 0.16  HD
ENDROOT
BRANCH 1 5
ATOM      5  CA  GLU D   2     -28.928 -15.940   3.935  1.00 33.66 LIG 0.18  C 
BRANCH 5 6
ATOM      6  CB  GLU D   2     -27.532 -16.204   4.481  1.00 31.60 LIG 0.04  C 
BRANCH 6 7
ATOM      7  CG  GLU D   2     -27.361 -15.755   5.904  1.00 40.13 LIG 0.12  C 
BRANCH 7 8
ATOM      8  CD  GLU D   2     -26.697 -16.826   6.734  1.00 42.76 LIG 0.17  C 
ATOM      9 OE2  GLU D   2     -26.718 -16.700   7.972  1.00 44.96 LIG-0.65  OA
ATOM     10 OE1  GLU D   2     -26.208 -17.817   6.144  1.00 41.64 LIG-0.65  OA
ENDBRANCH 7 8
ENDBRANCH 6 7
ENDBRANCH 5 6
BRANCH 5 11
ATOM     11  N   GLU D   2     -29.712 -17.175   3.937  1.00 44.67 LIG-0.35  N 
ATOM     12 H    GLU D   2     -30.505 -17.110   4.263  1.00 44.67 LIG 0.16  HD
ATOM     13  C   LYS D   1     -29.176 -18.289   3.454  1.00 49.40 LIG 0.24  C 
ATOM     14 O    LYS D   1     -28.118 -18.293   2.812  1.00 45.15 LIG-0.27  OA
BRANCH 13 15
ATOM     15  CA  LYS D   1     -29.898 -19.598   3.740  1.00 54.12 LIG 0.18  C 
BRANCH 15 16
ATOM     16  CB  LYS D   1     -29.981 -19.738   5.265  1.00 51.59 LIG 0.04  C 
BRANCH 16 17
ATOM     17  CG  LYS D   1     -28.735 -19.383   6.019  1.00 49.71 LIG 0.00  C 
BRANCH 17 18
ATOM     18  CD  LYS D   1     -27.920 -20.605   6.415  1.00 43.42 LIG 0.03  C 
BRANCH 18 19
ATOM     19  CE  LYS D   1     -27.500 -20.426   7.853  1.00 42.27 LIG 0.23  C 
BRANCH 19 20
ATOM     20  NZ  LYS D   1     -26.586 -19.305   8.128  1.00 37.99 LIG-0.08  N 
ATOM     21 HZ2  LYS D   1     -26.096 -19.136   7.405  1.00 37.99 LIG 0.27  HD
ATOM     22 HZ1  LYS D   1     -26.049 -19.519   8.805  1.00 37.99 LIG 0.27  HD
ATOM     23 HZ3  LYS D   1     -27.059 -18.582   8.341  1.00 37.99 LIG 0.27  HD
ENDBRANCH 19 20
ENDBRANCH 18 19
ENDBRANCH 17 18
ENDBRANCH 16 17
ENDBRANCH 15 16
BRANCH 15 24
ATOM     24  N   LYS D   1     -29.107 -20.701   3.205  1.00 57.33 LIG-0.35  N 
ATOM     25  C   ALA D   0     -29.044 -21.001   1.905  1.00 63.38 LIG 0.25  C 
ATOM     26 O    ALA D   0     -29.782 -20.490   1.049  1.00 63.83 LIG-0.27  OA
ATOM     27 H    LYS D   1     -28.683 -21.142   3.808  1.00 57.33 LIG 0.16  HD
BRANCH 25 28
ATOM     28  CA  ALA D   0     -27.981 -22.039   1.511  1.00 65.61 LIG 0.27  C 
ATOM     29  CB  ALA D   0     -27.066 -22.375   2.715  1.00 68.28 LIG 0.05  C 
BRANCH 28 30
ATOM     30  N   ALA D   0     -27.177 -21.547   0.397  1.00 67.78 LIG-0.07  N 
ATOM     31 H3   ALA D   0     -27.275 -20.666   0.326  1.00 67.78 LIG 0.28  HD
ATOM     32 H2   ALA D   0     -27.445 -21.936  -0.357  1.00 67.78 LIG 0.28  HD
ATOM     33 H1   ALA D   0     -26.320 -21.739   0.542  1.00 67.78 LIG 0.28  HD
ENDBRANCH 28 30
ENDBRANCH 25 28
ENDBRANCH 15 24
ENDBRANCH 13 15
ENDBRANCH 5 11
ENDBRANCH 1 5
BRANCH 3 34
ATOM     34  CA  LYS D   3     -28.588 -13.428   1.096  1.00 28.89 LIG 0.18  C 
BRANCH 34 35
ATOM     35  C   LYS D   3     -29.388 -14.057  -0.025  1.00 25.10 LIG 0.24  C 
ATOM     36 O    LYS D   3     -28.941 -14.118  -1.166  1.00 27.04 LIG-0.27  OA
ATOM     37  N   SER D   4     -30.593 -14.488   0.345  1.00 24.57 LIG-0.34  N 
ATOM     38 H    SER D   4     -30.886 -14.403   1.149  1.00 24.57 LIG 0.16  HD
BRANCH 37 39
ATOM     39  CA  SER D   4     -31.543 -15.141  -0.540  1.00 30.79 LIG 0.20  C 
BRANCH 39 40
ATOM     40  CB  SER D   4     -32.788 -15.475   0.322  1.00 34.88 LIG 0.20  C 
BRANCH 40 41
ATOM     41 OG   SER D   4     -32.506 -16.197   1.488  1.00 44.92 LIG-0.40  OA
ATOM     42 HG   SER D   4     -33.197 -16.245   1.962  1.00 44.92 LIG 0.21  HD
ENDBRANCH 40 41
ENDBRANCH 39 40
BRANCH 39 43
ATOM     43  C   SER D   4     -31.916 -14.181  -1.673  1.00 32.71 LIG 0.24  C 
ATOM     44 O    SER D   4     -32.057 -14.600  -2.826  1.00 26.72 LIG-0.27  OA
ATOM     45  N   ASP D   5     -32.082 -12.891  -1.369  1.00 33.82 LIG-0.34  N 
ATOM     46 H    ASP D   5     -31.925 -12.537  -0.601  1.00 33.82 LIG 0.16  HD
BRANCH 45 47
ATOM     47  CA  ASP D   5     -32.572 -11.969  -2.409  1.00 26.21 LIG 0.20  C 
BRANCH 47 48
ATOM     48  CB  ASP D   5     -32.725 -10.516  -1.920  1.00 31.21 LIG 0.15  C 
BRANCH 48 49
ATOM     49  CG  ASP D   5     -34.104 -10.215  -1.343  1.00 42.12 LIG 0.17  C 
ATOM     50 OD2  ASP D   5     -34.166  -9.922  -0.128  1.00 42.23 LIG-0.65  OA
ATOM     51 OD1  ASP D   5     -35.108 -10.296  -2.073  1.00 39.47 LIG-0.65  OA
ENDBRANCH 48 49
ENDBRANCH 47 48
BRANCH 47 52
ATOM     52  C   ASP D   5     -31.650 -11.956  -3.618  1.00 28.95 LIG 0.20  C 
ATOM     53 OXT  ASP D   5     -30.544 -12.522  -3.549  1.00 28.91 LIG-0.65  OA
ATOM     54 O    ASP D   5     -31.997 -11.422  -4.674  1.00 26.13 LIG-0.65  OA
ENDBRANCH 47 52
ENDBRANCH 45 47
ENDBRANCH 39 43
ENDBRANCH 37 39
ENDBRANCH 34 35
BRANCH 34 55
ATOM     55  CB  LYS D   3     -27.070 -13.519   0.850  1.00 31.87 LIG 0.04  C 
BRANCH 55 56
ATOM     56  CG  LYS D   3     -26.262 -13.249   2.120  1.00 32.54 LIG 0.00  C 
BRANCH 56 57
ATOM     57  CD  LYS D   3     -25.588 -11.907   1.881  1.00 38.19 LIG 0.03  C 
BRANCH 57 58
ATOM     58  CE  LYS D   3     -24.976 -11.318   3.112  1.00 36.51 LIG 0.23  C 
BRANCH 58 59
ATOM     59  NZ  LYS D   3     -24.597  -9.923   2.808  1.00 31.52 LIG-0.08  N 
ATOM     60 HZ2  LYS D   3     -24.551  -9.813   1.927  1.00 31.52 LIG 0.27  HD
ATOM     61 HZ1  LYS D   3     -23.805  -9.745   3.172  1.00 31.52 LIG 0.27  HD
ATOM     62 HZ3  LYS D   3     -25.208  -9.370   3.145  1.00 31.52 LIG 0.27  HD
ENDBRANCH 58 59
ENDBRANCH 57 58
ENDBRANCH 56 57
ENDBRANCH 55 56
ENDBRANCH 34 55
ENDBRANCH 3 34
TORSDOF 29
ENDMDL
MODEL 5
USER: ADFR SOLUTION from run 41
USER: SCORE 22.785454 LL:  -4.929 LR: -19.368 RR:   0.000 FEB: -10.718
USER: RMSD 3.247142
USER: SEED 40
USER: STATUS no improvement in best in 3 clusters for 5 generations
USER: GENES 31
USER: genes 0 Translation |==|  0.57131 0.45792 0.51875
USER: genes 1 Rotation |==|  0.57000 0.50170 0.50114 0.99507
USER: genes 2 Torsion [N]-C--CA-[N] |==|  0.41829
USER: genes 3 Torsion [C]-CA--CB-[CG] |==|  0.21417
USER: genes 4 Torsion [CA]-CB--CG-[CD] |==|  0.08131
USER: genes 5 Torsion [CB]-CG--CD-[OE1] |==|  0.16999
USER: genes 6 Torsion [C]-CA--N-[C] |==|  0.73398
USER: genes 7 Torsion [N]-C--CA-[N] |==|  0.05094
USER: genes 8 Torsion [C]-CA--CB-[CG] |==|  0.35632
USER: genes 9 Torsion [CA]-CB--CG-[CD] |==|  0.91261
USER: genes 10 Torsion [CB]-CG--CD-[CE] |==|  0.25032
USER: genes 11 Torsion [CG]-CD--CE-[NZ] |==|  0.67634
USER: genes 12 Torsion [CD]-CE--NZ-[HZ2] |==|  0.33922
USER: genes 13 Torsion [C]-CA--N-[C] |==|  0.70065
USER: genes 14 Torsion [N]-C--CA-[N] |==|  0.60296
USER: genes 15 Torsion [C]-CA--N-[H1] |==|  0.37381
USER: genes 16 Torsion [C]-N--CA-[C] |==|  0.16015
USER: genes 17 Torsion [N]-CA--C-[N] |==|  0.08889
USER: genes 18 Torsion [C]-N--CA-[CB] |==|  0.50759
USER: genes 19 Torsion [N]-CA--CB-[OG] |==|  0.73864
USER: genes 20 Torsion [CA]-CB--OG-[HG] |==|  0.66905
USER: genes 21 Torsion [N]-CA--C-[N] |==|  0.90914
USER: genes 22 Torsion [C]-N--CA-[C] |==|  0.82460
USER: genes 23 Torsion [N]-CA--CB-[CG] |==|  0.71634
USER: genes 24 Torsion [CA]-CB--CG-[OD1] |==|  0.35390
USER: genes 25 Torsion [N]-CA--C-[OXT] |==|  0.44897
USER: genes 26 Torsion [N]-CA--CB-[CG] |==|  0.82307
USER: genes 27 Torsion [CA]-CB--CG-[CD] |==|  0.75743
USER: genes 28 Torsion [CB]-CG--CD-[CE] |==|  0.57451
USER: genes 29 Torsion [CG]-CD--CE-[NZ] |==|  0.48481
USER: genes 30 Torsion [CD]-CE--NZ-[HZ1] |==|  0.27153
ROOT
ATOM      1  C   GLU D   2     -28.893 -16.087   2.446  1.00 31.02 LIG 0.24  C 
ATOM      2 O    GLU D   2     -28.590 -16.672   1.403  1.00 27.38 LIG-0.27  OA
ATOM      3  N   LYS D   3     -29.106 -14.767   2.509  1.00 31.55 LIG-0.35  N 
ATOM      4 H    LYS D   3     -29.456 -14.367   3.186  1.00 31.55 LIG 0.16  HD
ENDROOT
BRANCH 1 5
ATOM      5  CA  GLU D   2     -29.038 -16.864   3.757  1.00 33.66 LIG 0.18  C 
BRANCH 5 6
ATOM      6  CB  GLU D   2     -27.694 -16.876   4.471  1.00 31.60 LIG 0.04  C 
BRANCH 6 7
ATOM      7  CG  GLU D   2     -27.378 -15.577   5.157  1.00 40.13 LIG 0.12  C 
BRANCH 7 8
ATOM      8  CD  GLU D   2     -28.640 -14.872   5.589  1.00 42.76 LIG 0.17  C 
ATOM      9 OE2  GLU D   2     -28.901 -13.774   5.065  1.00 44.96 LIG-0.65  OA
ATOM     10 OE1  GLU D   2     -29.392 -15.448   6.409  1.00 41.64 LIG-0.65  OA
ENDBRANCH 7 8
ENDBRANCH 6 7
ENDBRANCH 5 6
BRANCH 5 11
ATOM     11  N   GLU D   2     -29.472 -18.232   3.475  1.00 44.67 LIG-0.35  N 
ATOM     12 H    GLU D   2     -28.844 -18.786   3.276  1.00 44.67 LIG 0.16  HD
ATOM     13  C   LYS D   1     -30.763 -18.535   3.538  1.00 49.40 LIG 0.24  C 
ATOM     14 O    LYS D   1     -31.601 -17.766   4.025  1.00 45.15 LIG-0.27  OA
BRANCH 13 15
ATOM     15  CA  LYS D   1     -31.200 -19.872   2.959  1.00 54.12 LIG 0.18  C 
BRANCH 15 16
ATOM     16  CB  LYS D   1     -32.179 -20.495   3.963  1.00 51.59 LIG 0.04  C 
BRANCH 16 17
ATOM     17  CG  LYS D   1     -33.491 -20.946   3.399  1.00 49.71 LIG 0.00  C 
BRANCH 17 18
ATOM     18  CD  LYS D   1     -33.949 -20.096   2.223  1.00 43.42 LIG 0.03  C 
BRANCH 18 19
ATOM     19  CE  LYS D   1     -33.397 -20.722   0.967  1.00 42.27 LIG 0.23  C 
BRANCH 19 20
ATOM     20  NZ  LYS D   1     -32.439 -19.907   0.201  1.00 37.99 LIG-0.08  N 
ATOM     21 HZ2  LYS D   1     -31.671 -20.348   0.120  1.00 37.99 LIG 0.27  HD
ATOM     22 HZ1  LYS D   1     -32.295 -19.138   0.627  1.00 37.99 LIG 0.27  HD
ATOM     23 HZ3  LYS D   1     -32.771 -19.739  -0.607  1.00 37.99 LIG 0.27  HD
ENDBRANCH 19 20
ENDBRANCH 18 19
ENDBRANCH 17 18
ENDBRANCH 16 17
ENDBRANCH 15 16
BRANCH 15 24
ATOM     24  N   LYS D   1     -30.034 -20.738   2.835  1.00 57.33 LIG-0.35  N 
ATOM     25  C   ALA D   0     -29.470 -21.054   1.666  1.00 63.38 LIG 0.25  C 
ATOM     26 O    ALA D   0     -29.981 -20.790   0.567  1.00 63.83 LIG-0.27  OA
ATOM     27 H    LYS D   1     -29.741 -21.029   3.589  1.00 57.33 LIG 0.16  HD
BRANCH 25 28
ATOM     28  CA  ALA D   0     -28.117 -21.779   1.752  1.00 65.61 LIG 0.27  C 
ATOM     29  CB  ALA D   0     -27.449 -21.540   3.129  1.00 68.28 LIG 0.05  C 
BRANCH 28 30
ATOM     30  N   ALA D   0     -27.230 -21.332   0.684  1.00 67.78 LIG-0.07  N 
ATOM     31 H3   ALA D   0     -27.554 -20.587   0.321  1.00 67.78 LIG 0.28  HD
ATOM     32 H2   ALA D   0     -27.174 -21.965   0.059  1.00 67.78 LIG 0.28  HD
ATOM     33 H1   ALA D   0     -26.421 -21.172   1.017  1.00 67.78 LIG 0.28  HD
ENDBRANCH 28 30
ENDBRANCH 25 28
ENDBRANCH 15 24
ENDBRANCH 13 15
ENDBRANCH 5 11
ENDBRANCH 1 5
BRANCH 3 34
ATOM     34  CA  LYS D   3     -28.751 -13.886   1.405  1.00 28.89 LIG 0.18  C 
BRANCH 34 35
ATOM     35  C   LYS D   3     -29.475 -14.346   0.158  1.00 25.10 LIG 0.24  C 
ATOM     36 O    LYS D   3     -28.986 -14.185  -0.956  1.00 27.04 LIG-0.27  OA
ATOM     37  N   SER D   4     -30.666 -14.894   0.394  1.00 24.57 LIG-0.34  N 
ATOM     38 H    SER D   4     -30.992 -14.966   1.187  1.00 24.57 LIG 0.16  HD
BRANCH 37 39
ATOM     39  CA  SER D   4     -31.547 -15.428  -0.631  1.00 30.79 LIG 0.20  C 
BRANCH 39 40
ATOM     40  CB  SER D   4     -32.836 -15.891   0.094  1.00 34.88 LIG 0.20  C 
BRANCH 40 41
ATOM     41 OG   SER D   4     -32.843 -17.246   0.449  1.00 44.92 LIG-0.40  OA
ATOM     42 HG   SER D   4     -33.481 -17.633   0.065  1.00 44.92 LIG 0.21  HD
ENDBRANCH 40 41
ENDBRANCH 39 40
BRANCH 39 43
ATOM     43  C   SER D   4     -31.868 -14.324  -1.643  1.00 32.71 LIG 0.24  C 
ATOM     44 O    SER D   4     -32.052 -14.599  -2.832  1.00 26.72 LIG-0.27  OA
ATOM     45  N   ASP D   5     -31.940 -13.067  -1.193  1.00 33.82 LIG-0.34  N 
ATOM     46 H    ASP D   5     -31.749 -12.814  -0.393  1.00 33.82 LIG 0.16  HD
BRANCH 45 47
ATOM     47  CA  ASP D   5     -32.379 -12.003  -2.113  1.00 26.21 LIG 0.20  C 
BRANCH 47 48
ATOM     48  CB  ASP D   5     -32.533 -10.629  -1.435  1.00 31.21 LIG 0.15  C 
BRANCH 48 49
ATOM     49  CG  ASP D   5     -33.982 -10.262  -1.136  1.00 42.12 LIG 0.17  C 
ATOM     50 OD2  ASP D   5     -34.791 -10.297  -2.091  1.00 42.23 LIG-0.65  OA
ATOM     51 OD1  ASP D   5     -34.306  -9.917   0.014  1.00 39.47 LIG-0.65  OA
ENDBRANCH 48 49
ENDBRANCH 47 48
BRANCH 47 52
ATOM     52  C   ASP D   5     -31.411 -11.840  -3.275  1.00 28.95 LIG 0.20  C 
ATOM     53 OXT  ASP D   5     -31.786 -11.249  -4.304  1.00 28.91 LIG-0.65  OA
ATOM     54 O    ASP D   5     -30.253 -12.255  -3.197  1.00 26.13 LIG-0.65  OA
ENDBRANCH 47 52
ENDBRANCH 45 47
ENDBRANCH 39 43
ENDBRANCH 37 39
ENDBRANCH 34 35
BRANCH 34 55
ATOM     55  CB  LYS D   3     -27.223 -13.858   1.215  1.00 31.87 LIG 0.04  C 
BRANCH 55 56
ATOM     56  CG  LYS D   3     -26.500 -13.272   2.428  1.00 32.54 LIG 0.00  C 
BRANCH 56 57
ATOM     57  CD  LYS D   3     -26.471 -11.771   2.183  1.00 38.19 LIG 0.03  C 
BRANCH 57 58
ATOM     58  CE  LYS D   3     -25.326 -11.079   2.851  1.00 36.51 LIG 0.23  C 
BRANCH 58 59
ATOM     59  NZ  LYS D   3     -25.341  -9.664   2.427  1.00 31.52 LIG-0.08  N 
ATOM     60 HZ2  LYS D   3     -24.506  -9.378   2.316  1.00 31.52 LIG 0.27  HD
ATOM     61 HZ1  LYS D   3     -25.743  -9.172   3.050  1.00 31.52 LIG 0.27  HD
ATOM     62 HZ3  LYS D   3     -25.785  -9.589   1.659  1.00 31.52 LIG 0.27  HD
ENDBRANCH 58 59
ENDBRANCH 57 58
ENDBRANCH 56 57
ENDBRANCH 55 56
ENDBRANCH 34 55
ENDBRANCH 3 34
TORSDOF 29
ENDMDL
