MODEL 1
USER: ADFR SOLUTION from run 158
USER: SCORE 20.438366 LL:  -5.732 LR: -17.626 RR:   0.000 FEB:  -9.572
USER: RMSD 4.435128
USER: SEED 157
USER: STATUS no improvement in best in 3 clusters for 5 generations
USER: GENES 29
USER: genes 0 Translation |==|  0.37099 0.55373 0.42757
USER: genes 1 Rotation |==|  0.50255 0.53360 0.47096 0.99802
USER: genes 2 Torsion [N]-C--CA-[N] |==|  0.46079
USER: genes 3 Torsion [C]-CA--N-[C] |==|  0.72007
USER: genes 4 Torsion [N]-C--CA-[N] |==|  0.80776
USER: genes 5 Torsion [C]-CA--CB-[CG] |==|  0.13316
USER: genes 6 Torsion [CA]-CB--CG-[CD] |==|  0.59717
USER: genes 7 Torsion [CB]-CG--CD-[CE] |==|  0.35799
USER: genes 8 Torsion [CG]-CD--CE-[NZ] |==|  0.49760
USER: genes 9 Torsion [CD]-CE--NZ-[HZ1] |==|  0.32916
USER: genes 10 Torsion [C]-CA--N-[C] |==|  0.49725
USER: genes 11 Torsion [N]-C--CA-[N] |==|  0.34821
USER: genes 12 Torsion [C]-CA--CB-[CG] |==|  0.08868
USER: genes 13 Torsion [CA]-CB--CG-[CD] |==|  0.19412
USER: genes 14 Torsion [CB]-CG--CD-[OE1] |==|  0.90319
USER: genes 15 Torsion [C]-CA--N-[H1] |==|  0.45773
USER: genes 16 Torsion [C]-CA--CB-[CG2] |==|  0.71986
USER: genes 17 Torsion [C]-N--CA-[CB] |==|  0.76649
USER: genes 18 Torsion [N]-CA--CB-[CG] |==|  0.51124
USER: genes 19 Torsion [CA]-CB--CG-[ND1] |==|  0.58964
USER: genes 20 Torsion [N]-CA--C-[N] |==|  0.17280
USER: genes 21 Torsion [C]-N--CA-[CB] |==|  0.43124
USER: genes 22 Torsion [N]-CA--CB-[CG1] |==|  0.53539
USER: genes 23 Torsion [N]-CA--C-[N] |==|  0.91983
USER: genes 24 Torsion [C]-N--CA-[C] |==|  0.80687
USER: genes 25 Torsion [N]-CA--C-[OXT] |==|  0.99533
USER: genes 26 Torsion [N]-CA--CB-[CG] |==|  0.14219
USER: genes 27 Torsion [CA]-CB--CG-[CD] |==|  0.55290
USER: genes 28 Torsion [CB]-CG--CD-[OE1] |==|  0.05438
ROOT
ATOM      1  C   VAL B   3       2.085 -21.361  18.853  1.00 28.64 LIG 0.24  C 
ATOM      2 O    VAL B   3       1.146 -22.083  19.212  1.00 27.24 LIG-0.27  OA
ATOM      3  N   HIS B   4       2.246 -19.962  19.287  1.00 29.63 LIG-0.35  N 
ATOM      4 H    HIS B   4       2.832 -19.404  18.996  1.00 29.63 LIG 0.16  HD
ENDROOT
BRANCH 1 5
ATOM      5  CA  VAL B   3       3.149 -21.890  17.876  1.00 30.81 LIG 0.18  C 
BRANCH 5 6
ATOM      6  N   VAL B   3       3.062 -23.341  17.802  1.00 30.70 LIG-0.35  N 
ATOM      7 H    VAL B   3       2.429 -23.637  17.301  1.00 30.70 LIG 0.16  HD
ATOM      8  C   LYS B   2       3.910 -24.118  18.469  1.00 38.89 LIG 0.24  C 
ATOM      9 O    LYS B   2       4.857 -23.670  19.127  1.00 35.72 LIG-0.27  OA
BRANCH 8 10
ATOM     10  CA  LYS B   2       3.666 -25.618  18.361  1.00 39.86 LIG 0.18  C 
BRANCH 10 11
ATOM     11  CB  LYS B   2       3.657 -26.058  16.883  1.00 33.57 LIG 0.04  C 
BRANCH 11 12
ATOM     12  CG  LYS B   2       4.857 -25.501  16.091  1.00 34.54 LIG 0.00  C 
BRANCH 12 13
ATOM     13  CD  LYS B   2       4.523 -25.159  14.644  1.00 30.34 LIG 0.03  C 
BRANCH 13 14
ATOM     14  CE  LYS B   2       4.946 -23.760  14.243  1.00 26.25 LIG 0.23  C 
BRANCH 14 15
ATOM     15  NZ  LYS B   2       4.607 -23.498  12.804  1.00 28.72 LIG-0.08  N 
ATOM     16 HZ2  LYS B   2       5.348 -23.293  12.356  1.00 28.72 LIG 0.27  HD
ATOM     17 HZ3  LYS B   2       4.238 -24.226  12.448  1.00 28.72 LIG 0.27  HD
ATOM     18 HZ1  LYS B   2       4.032 -22.820  12.753  1.00 28.72 LIG 0.27  HD
ENDBRANCH 14 15
ENDBRANCH 13 14
ENDBRANCH 12 13
ENDBRANCH 11 12
ENDBRANCH 10 11
BRANCH 10 19
ATOM     19  N   LYS B   2       2.430 -25.956  19.074  1.00 40.88 LIG-0.35  N 
ATOM     20  C   GLU B   1       2.014 -27.227  19.089  1.00 50.16 LIG 0.25  C 
ATOM     21 O    GLU B   1       2.565 -28.111  18.426  1.00 45.73 LIG-0.27  OA
ATOM     22 H    LYS B   2       2.028 -25.299  19.456  1.00 40.88 LIG 0.16  HD
BRANCH 20 23
ATOM     23  CA  GLU B   1       0.795 -27.570  19.946  1.00 56.89 LIG 0.28  C 
BRANCH 23 24
ATOM     24  CB  GLU B   1       1.223 -28.410  21.147  1.00 44.84 LIG 0.05  C 
BRANCH 24 25
ATOM     25  CG  GLU B   1       2.619 -28.089  21.656  1.00 43.84 LIG 0.12  C 
BRANCH 25 26
ATOM     26  CD  GLU B   1       2.704 -26.725  22.323  1.00 58.57 LIG 0.17  C 
ATOM     27 OE1  GLU B   1       2.000 -25.795  21.868  1.00 59.35 LIG-0.65  OA
ATOM     28 OE2  GLU B   1       3.477 -26.581  23.298  1.00 59.65 LIG-0.65  OA
ENDBRANCH 25 26
ENDBRANCH 24 25
ENDBRANCH 23 24
BRANCH 23 29
ATOM     29  N   GLU B   1      -0.258 -28.235  19.188  1.00 43.96 LIG-0.07  N 
ATOM     30 H1   GLU B   1      -0.838 -28.608  19.750  1.00 43.96 LIG 0.28  HD
ATOM     31 H2   GLU B   1      -0.680 -27.639  18.679  1.00 43.96 LIG 0.28  HD
ATOM     32 H3   GLU B   1       0.100 -28.865  18.672  1.00 43.96 LIG 0.28  HD
ENDBRANCH 23 29
ENDBRANCH 20 23
ENDBRANCH 10 19
ENDBRANCH 8 10
ENDBRANCH 5 6
BRANCH 5 33
ATOM     33  CB  VAL B   3       2.970 -21.254  16.490  1.00 34.43 LIG 0.01  C 
ATOM     34  CG2 VAL B   3       2.266 -22.214  15.564  1.00 33.75 LIG 0.01  C 
ATOM     35  CG1 VAL B   3       4.336 -20.863  15.907  1.00 37.65 LIG 0.01  C 
ENDBRANCH 5 33
ENDBRANCH 1 5
BRANCH 3 36
ATOM     36  CA  HIS B   4       1.324 -19.468  20.310  1.00 28.98 LIG 0.18  C 
BRANCH 36 37
ATOM     37  CB  HIS B   4      -0.000 -18.992  19.685  1.00 26.24 LIG 0.10  C 
BRANCH 37 38
ATOM     38  CG  HIS B   4      -0.941 -18.387  20.682  1.00 30.41 LIG 0.06  A 
ATOM     39 ND1  HIS B   4      -2.312 -18.483  20.568  1.00 34.08 LIG-0.24  NA
ATOM     40  CE1 HIS B   4      -2.882 -17.860  21.587  1.00 29.96 LIG 0.23  A 
ATOM     41 NE2  HIS B   4      -1.929 -17.382  22.366  1.00 35.16 LIG-0.25  NA
ATOM     42  CD2 HIS B   4      -0.704 -17.700  21.827  1.00 34.95 LIG 0.14  A 
ENDBRANCH 37 38
ENDBRANCH 36 37
BRANCH 36 43
ATOM     43  C   HIS B   4       1.059 -20.491  21.402  1.00 27.46 LIG 0.24  C 
ATOM     44 O    HIS B   4      -0.093 -20.826  21.695  1.00 25.24 LIG-0.27  OA
ATOM     45  N   VAL B   5       2.031 -20.865  22.096  1.00 26.31 LIG-0.35  N 
ATOM     46 H    VAL B   5       2.851 -20.659  21.936  1.00 26.31 LIG 0.16  HD
BRANCH 45 47
ATOM     47  CA  VAL B   5       1.829 -21.714  23.277  1.00 25.23 LIG 0.18  C 
BRANCH 47 48
ATOM     48  CB  VAL B   5       3.100 -22.536  23.601  1.00 26.56 LIG 0.01  C 
ATOM     49  CG2 VAL B   5       3.680 -23.138  22.330  1.00 31.17 LIG 0.01  C 
ATOM     50  CG1 VAL B   5       2.816 -23.627  24.606  1.00 34.68 LIG 0.01  C 
ENDBRANCH 47 48
BRANCH 47 51
ATOM     51  C   VAL B   5       1.388 -20.892  24.479  1.00 27.03 LIG 0.24  C 
ATOM     52  N   GLN B   6       1.801 -19.631  24.520  1.00 26.89 LIG-0.34  N 
ATOM     53 H    GLN B   6       2.298 -19.254  23.928  1.00 26.89 LIG 0.16  HD
ATOM     54 O    VAL B   5       0.668 -21.386  25.359  1.00 28.01 LIG-0.27  OA
BRANCH 52 55
ATOM     55  CA  GLN B   6       1.401 -18.778  25.643  1.00 25.51 LIG 0.19  C 
BRANCH 55 56
ATOM     56  C   GLN B   6      -0.088 -18.456  25.596  1.00 28.77 LIG 0.20  C 
ATOM     57 OXT  GLN B   6      -0.823 -18.865  24.675  1.00 27.06 LIG-0.65  OA
ATOM     58 O    GLN B   6      -0.588 -17.741  26.483  1.00 25.73 LIG-0.65  OA
ENDBRANCH 55 56
BRANCH 55 59
ATOM     59  CB  GLN B   6       2.178 -17.463  25.630  1.00 31.03 LIG 0.04  C 
BRANCH 59 60
ATOM     60  CG  GLN B   6       2.156 -16.730  24.313  1.00 39.52 LIG 0.10  C 
BRANCH 60 61
ATOM     61  CD  GLN B   6       3.282 -15.724  24.226  1.00 49.24 LIG 0.21  C 
ATOM     62  NE2 GLN B   6       3.129 -14.745  23.344  1.00 50.05 LIG-0.37  N 
ATOM     63 21HE GLN B   6       2.427 -14.718  22.849  1.00 50.05 LIG 0.16  HD
ATOM     64 22HE GLN B   6       3.733 -14.137  23.267  1.00 50.05 LIG 0.16  HD
ATOM     65 OE1  GLN B   6       4.272 -15.812  24.963  1.00 58.78 LIG-0.27  OA
ENDBRANCH 60 61
ENDBRANCH 59 60
ENDBRANCH 55 59
ENDBRANCH 52 55
ENDBRANCH 47 51
ENDBRANCH 45 47
ENDBRANCH 36 43
ENDBRANCH 3 36
TORSDOF 27
ENDMDL
MODEL 2
USER: ADFR SOLUTION from run 159
USER: SCORE 22.049809 LL:  -7.069 LR: -17.330 RR:   0.000 FEB:  -9.276
USER: RMSD 3.045274
USER: SEED 158
USER: STATUS searching
USER: GENES 29
USER: genes 0 Translation |==|  0.34729 0.57510 0.42337
USER: genes 1 Rotation |==|  0.53921 0.52998 0.46988 0.99665
USER: genes 2 Torsion [N]-C--CA-[N] |==|  0.42016
USER: genes 3 Torsion [C]-CA--N-[C] |==|  0.83072
USER: genes 4 Torsion [N]-C--CA-[N] |==|  0.22916
USER: genes 5 Torsion [C]-CA--CB-[CG] |==|  0.21697
USER: genes 6 Torsion [CA]-CB--CG-[CD] |==|  0.33649
USER: genes 7 Torsion [CB]-CG--CD-[CE] |==|  0.82535
USER: genes 8 Torsion [CG]-CD--CE-[NZ] |==|  0.67148
USER: genes 9 Torsion [CD]-CE--NZ-[HZ1] |==|  0.87104
USER: genes 10 Torsion [C]-CA--N-[C] |==|  0.78331
USER: genes 11 Torsion [N]-C--CA-[N] |==|  0.52621
USER: genes 12 Torsion [C]-CA--CB-[CG] |==|  0.89103
USER: genes 13 Torsion [CA]-CB--CG-[CD] |==|  0.82846
USER: genes 14 Torsion [CB]-CG--CD-[OE1] |==|  0.93810
USER: genes 15 Torsion [C]-CA--N-[H1] |==|  0.34019
USER: genes 16 Torsion [C]-CA--CB-[CG2] |==|  0.56456
USER: genes 17 Torsion [C]-N--CA-[CB] |==|  0.78521
USER: genes 18 Torsion [N]-CA--CB-[CG] |==|  0.51650
USER: genes 19 Torsion [CA]-CB--CG-[ND1] |==|  0.61071
USER: genes 20 Torsion [N]-CA--C-[N] |==|  0.12524
USER: genes 21 Torsion [C]-N--CA-[CB] |==|  0.45905
USER: genes 22 Torsion [N]-CA--CB-[CG1] |==|  0.28123
USER: genes 23 Torsion [N]-CA--C-[N] |==|  0.94717
USER: genes 24 Torsion [C]-N--CA-[C] |==|  0.74519
USER: genes 25 Torsion [N]-CA--C-[OXT] |==|  0.52215
USER: genes 26 Torsion [N]-CA--CB-[CG] |==|  0.77513
USER: genes 27 Torsion [CA]-CB--CG-[CD] |==|  0.84328
USER: genes 28 Torsion [CB]-CG--CD-[OE1] |==|  0.73375
ROOT
ATOM      1  C   VAL B   3       1.658 -20.864  18.759  1.00 28.64 LIG 0.24  C 
ATOM      2 O    VAL B   3       0.702 -21.615  18.989  1.00 27.24 LIG-0.27  OA
ATOM      3  N   HIS B   4       1.827 -19.545  19.394  1.00 29.63 LIG-0.35  N 
ATOM      4 H    HIS B   4       2.427 -18.960  19.199  1.00 29.63 LIG 0.16  HD
ENDROOT
BRANCH 1 5
ATOM      5  CA  VAL B   3       2.739 -21.264  17.738  1.00 30.81 LIG 0.18  C 
BRANCH 5 6
ATOM      6  N   VAL B   3       2.868 -22.714  17.711  1.00 30.70 LIG-0.35  N 
ATOM      7 H    VAL B   3       2.696 -23.074  16.950  1.00 30.70 LIG 0.16  HD
ATOM      8  C   LYS B   2       3.227 -23.394  18.796  1.00 38.89 LIG 0.24  C 
ATOM      9 O    LYS B   2       3.539 -22.847  19.861  1.00 35.72 LIG-0.27  OA
BRANCH 8 10
ATOM     10  CA  LYS B   2       3.258 -24.910  18.650  1.00 39.86 LIG 0.18  C 
BRANCH 10 11
ATOM     11  CB  LYS B   2       2.996 -25.588  20.009  1.00 33.57 LIG 0.04  C 
BRANCH 11 12
ATOM     12  CG  LYS B   2       1.503 -25.589  20.395  1.00 34.54 LIG 0.00  C 
BRANCH 12 13
ATOM     13  CD  LYS B   2       0.931 -26.984  20.609  1.00 30.34 LIG 0.03  C 
BRANCH 13 14
ATOM     14  CE  LYS B   2       0.962 -27.846  19.363  1.00 26.25 LIG 0.23  C 
BRANCH 14 15
ATOM     15  NZ  LYS B   2      -0.429 -28.235  18.955  1.00 28.72 LIG-0.08  N 
ATOM     16 HZ2  LYS B   2      -0.843 -27.531  18.600  1.00 28.72 LIG 0.27  HD
ATOM     17 HZ3  LYS B   2      -0.391 -28.890  18.353  1.00 28.72 LIG 0.27  HD
ATOM     18 HZ1  LYS B   2      -0.881 -28.515  19.668  1.00 28.72 LIG 0.27  HD
ENDBRANCH 14 15
ENDBRANCH 13 14
ENDBRANCH 12 13
ENDBRANCH 11 12
ENDBRANCH 10 11
BRANCH 10 19
ATOM     19  N   LYS B   2       4.529 -25.309  18.038  1.00 40.88 LIG-0.35  N 
ATOM     20  C   GLU B   1       4.690 -25.163  16.719  1.00 50.16 LIG 0.25  C 
ATOM     21 O    GLU B   1       3.769 -24.815  15.974  1.00 45.73 LIG-0.27  OA
ATOM     22 H    LYS B   2       5.120 -25.624  18.578  1.00 40.88 LIG 0.16  HD
BRANCH 20 23
ATOM     23  CA  GLU B   1       6.068 -25.468  16.129  1.00 56.89 LIG 0.28  C 
BRANCH 23 24
ATOM     24  CB  GLU B   1       7.154 -24.815  16.981  1.00 44.84 LIG 0.05  C 
BRANCH 24 25
ATOM     25  CG  GLU B   1       6.787 -23.430  17.492  1.00 43.84 LIG 0.12  C 
BRANCH 25 26
ATOM     26  CD  GLU B   1       6.551 -22.432  16.368  1.00 58.57 LIG 0.17  C 
ATOM     27 OE1  GLU B   1       7.063 -22.663  15.250  1.00 59.35 LIG-0.65  OA
ATOM     28 OE2  GLU B   1       5.858 -21.417  16.606  1.00 59.65 LIG-0.65  OA
ENDBRANCH 25 26
ENDBRANCH 24 25
ENDBRANCH 23 24
BRANCH 23 29
ATOM     29  N   GLU B   1       6.185 -25.068  14.732  1.00 43.96 LIG-0.07  N 
ATOM     30 H1   GLU B   1       6.862 -24.497  14.643  1.00 43.96 LIG 0.28  HD
ATOM     31 H2   GLU B   1       6.335 -25.786  14.229  1.00 43.96 LIG 0.28  HD
ATOM     32 H3   GLU B   1       5.431 -24.675  14.471  1.00 43.96 LIG 0.28  HD
ENDBRANCH 23 29
ENDBRANCH 20 23
ENDBRANCH 10 19
ENDBRANCH 8 10
ENDBRANCH 5 6
BRANCH 5 33
ATOM     33  CB  VAL B   3       2.393 -20.713  16.347  1.00 34.43 LIG 0.01  C 
ATOM     34  CG2 VAL B   3       3.079 -21.530  15.280  1.00 33.75 LIG 0.01  C 
ATOM     35  CG1 VAL B   3       2.820 -19.241  16.240  1.00 37.65 LIG 0.01  C 
ENDBRANCH 5 33
ENDBRANCH 1 5
BRANCH 3 36
ATOM     36  CA  HIS B   4       0.888 -19.189  20.457  1.00 28.98 LIG 0.18  C 
BRANCH 36 37
ATOM     37  CB  HIS B   4      -0.475 -18.764  19.880  1.00 26.24 LIG 0.10  C 
BRANCH 37 38
ATOM     38  CG  HIS B   4      -1.426 -18.255  20.920  1.00 30.41 LIG 0.06  A 
ATOM     39 ND1  HIS B   4      -2.772 -18.554  20.910  1.00 34.08 LIG-0.24  NA
ATOM     40  CE1 HIS B   4      -3.358 -17.972  21.945  1.00 29.96 LIG 0.23  A 
ATOM     41 NE2  HIS B   4      -2.435 -17.325  22.634  1.00 35.16 LIG-0.25  NA
ATOM     42  CD2 HIS B   4      -1.217 -17.488  22.018  1.00 34.95 LIG 0.14  A 
ENDBRANCH 37 38
ENDBRANCH 36 37
BRANCH 36 43
ATOM     43  C   HIS B   4       0.709 -20.302  21.477  1.00 27.46 LIG 0.24  C 
ATOM     44 O    HIS B   4      -0.392 -20.526  21.990  1.00 25.24 LIG-0.27  OA
ATOM     45  N   VAL B   5       1.739 -20.879  21.893  1.00 26.31 LIG-0.35  N 
ATOM     46 H    VAL B   5       2.528 -20.758  21.572  1.00 26.31 LIG 0.16  HD
BRANCH 45 47
ATOM     47  CA  VAL B   5       1.666 -21.840  23.001  1.00 25.23 LIG 0.18  C 
BRANCH 47 48
ATOM     48  CB  VAL B   5       2.959 -22.685  23.098  1.00 26.56 LIG 0.01  C 
ATOM     49  CG2 VAL B   5       2.619 -24.149  23.331  1.00 31.17 LIG 0.01  C 
ATOM     50  CG1 VAL B   5       3.869 -22.186  24.196  1.00 34.68 LIG 0.01  C 
ENDBRANCH 47 48
BRANCH 47 51
ATOM     51  C   VAL B   5       1.371 -21.140  24.320  1.00 27.03 LIG 0.24  C 
ATOM     52  N   GLN B   6       1.610 -19.835  24.367  1.00 26.89 LIG-0.34  N 
ATOM     53 H    GLN B   6       1.922 -19.366  23.717  1.00 26.89 LIG 0.16  HD
ATOM     54 O    VAL B   5       0.916 -21.769  25.287  1.00 28.01 LIG-0.27  OA
BRANCH 52 55
ATOM     55  CA  GLN B   6       1.335 -19.096  25.602  1.00 25.51 LIG 0.19  C 
BRANCH 55 56
ATOM     56  C   GLN B   6      -0.077 -18.520  25.605  1.00 28.77 LIG 0.20  C 
ATOM     57 OXT  GLN B   6      -0.468 -17.735  26.492  1.00 27.06 LIG-0.65  OA
ATOM     58 O    GLN B   6      -0.878 -18.860  24.715  1.00 25.73 LIG-0.65  OA
ENDBRANCH 55 56
BRANCH 55 59
ATOM     59  CB  GLN B   6       2.323 -17.946  25.779  1.00 31.03 LIG 0.04  C 
BRANCH 59 60
ATOM     60  CG  GLN B   6       3.662 -18.345  26.345  1.00 39.52 LIG 0.10  C 
BRANCH 60 61
ATOM     61  CD  GLN B   6       3.509 -19.052  27.673  1.00 49.24 LIG 0.21  C 
ATOM     62  NE2 GLN B   6       3.282 -20.359  27.622  1.00 50.05 LIG-0.37  N 
ATOM     63 21HE GLN B   6       3.213 -20.753  26.861  1.00 50.05 LIG 0.16  HD
ATOM     64 22HE GLN B   6       3.204 -20.810  28.350  1.00 50.05 LIG 0.16  HD
ATOM     65 OE1  GLN B   6       3.617 -18.433  28.739  1.00 58.78 LIG-0.27  OA
ENDBRANCH 60 61
ENDBRANCH 59 60
ENDBRANCH 55 59
ENDBRANCH 52 55
ENDBRANCH 47 51
ENDBRANCH 45 47
ENDBRANCH 36 43
ENDBRANCH 3 36
TORSDOF 27
ENDMDL
MODEL 3
USER: ADFR SOLUTION from run 181
USER: SCORE 21.365957 LL:  -5.864 LR: -17.128 RR:   0.000 FEB:  -9.074
USER: RMSD 2.662248
USER: SEED 180
USER: STATUS no improvement in best in 4 clusters for 5 generations
USER: GENES 29
USER: genes 0 Translation |==|  0.36356 0.56011 0.42125
USER: genes 1 Rotation |==|  0.52292 0.54209 0.47442 0.99704
USER: genes 2 Torsion [N]-C--CA-[N] |==|  0.45693
USER: genes 3 Torsion [C]-CA--N-[C] |==|  0.65270
USER: genes 4 Torsion [N]-C--CA-[N] |==|  0.35001
USER: genes 5 Torsion [C]-CA--CB-[CG] |==|  0.26797
USER: genes 6 Torsion [CA]-CB--CG-[CD] |==|  0.24394
USER: genes 7 Torsion [CB]-CG--CD-[CE] |==|  0.42879
USER: genes 8 Torsion [CG]-CD--CE-[NZ] |==|  0.28497
USER: genes 9 Torsion [CD]-CE--NZ-[HZ1] |==|  0.38933
USER: genes 10 Torsion [C]-CA--N-[C] |==|  0.80073
USER: genes 11 Torsion [N]-C--CA-[N] |==|  0.09830
USER: genes 12 Torsion [C]-CA--CB-[CG] |==|  0.86443
USER: genes 13 Torsion [CA]-CB--CG-[CD] |==|  0.84763
USER: genes 14 Torsion [CB]-CG--CD-[OE1] |==|  0.83400
USER: genes 15 Torsion [C]-CA--N-[H1] |==|  0.71651
USER: genes 16 Torsion [C]-CA--CB-[CG2] |==|  0.53442
USER: genes 17 Torsion [C]-N--CA-[CB] |==|  0.77031
USER: genes 18 Torsion [N]-CA--CB-[CG] |==|  0.51954
USER: genes 19 Torsion [CA]-CB--CG-[ND1] |==|  0.57675
USER: genes 20 Torsion [N]-CA--C-[N] |==|  0.19676
USER: genes 21 Torsion [C]-N--CA-[CB] |==|  0.40935
USER: genes 22 Torsion [N]-CA--CB-[CG1] |==|  0.45784
USER: genes 23 Torsion [N]-CA--C-[N] |==|  0.91738
USER: genes 24 Torsion [C]-N--CA-[C] |==|  0.78024
USER: genes 25 Torsion [N]-CA--C-[OXT] |==|  0.02903
USER: genes 26 Torsion [N]-CA--CB-[CG] |==|  0.78947
USER: genes 27 Torsion [CA]-CB--CG-[CD] |==|  0.86175
USER: genes 28 Torsion [CB]-CG--CD-[OE1] |==|  0.71928
ROOT
ATOM      1  C   VAL B   3       1.951 -21.212  18.711  1.00 28.64 LIG 0.24  C 
ATOM      2 O    VAL B   3       1.029 -21.971  19.034  1.00 27.24 LIG-0.27  OA
ATOM      3  N   HIS B   4       2.115 -19.853  19.256  1.00 29.63 LIG-0.35  N 
ATOM      4 H    HIS B   4       2.688 -19.267  18.996  1.00 29.63 LIG 0.16  HD
ENDROOT
BRANCH 1 5
ATOM      5  CA  VAL B   3       2.990 -21.648  17.662  1.00 30.81 LIG 0.18  C 
BRANCH 5 6
ATOM      6  N   VAL B   3       2.933 -23.093  17.494  1.00 30.70 LIG-0.35  N 
ATOM      7 H    VAL B   3       2.155 -23.399  17.295  1.00 30.70 LIG 0.16  HD
ATOM      8  C   LYS B   2       4.017 -23.847  17.641  1.00 38.89 LIG 0.24  C 
ATOM      9 O    LYS B   2       5.141 -23.376  17.856  1.00 35.72 LIG-0.27  OA
BRANCH 8 10
ATOM     10  CA  LYS B   2       3.806 -25.350  17.505  1.00 39.86 LIG 0.18  C 
BRANCH 10 11
ATOM     11  CB  LYS B   2       3.940 -26.040  18.877  1.00 33.57 LIG 0.04  C 
BRANCH 11 12
ATOM     12  CG  LYS B   2       2.577 -26.274  19.560  1.00 34.54 LIG 0.00  C 
BRANCH 12 13
ATOM     13  CD  LYS B   2       1.919 -27.591  19.168  1.00 30.34 LIG 0.03  C 
BRANCH 13 14
ATOM     14  CE  LYS B   2       0.963 -28.122  20.217  1.00 26.25 LIG 0.23  C 
BRANCH 14 15
ATOM     15  NZ  LYS B   2      -0.460 -27.860  19.816  1.00 28.72 LIG-0.08  N 
ATOM     16 HZ2  LYS B   2      -0.764 -27.143  20.247  1.00 28.72 LIG 0.27  HD
ATOM     17 HZ3  LYS B   2      -0.500 -27.717  18.938  1.00 28.72 LIG 0.27  HD
ATOM     18 HZ1  LYS B   2      -0.962 -28.565  20.023  1.00 28.72 LIG 0.27  HD
ENDBRANCH 14 15
ENDBRANCH 13 14
ENDBRANCH 12 13
ENDBRANCH 11 12
ENDBRANCH 10 11
BRANCH 10 19
ATOM     19  N   LYS B   2       4.733 -25.876  16.498  1.00 40.88 LIG-0.35  N 
ATOM     20  C   GLU B   1       4.520 -25.596  15.208  1.00 50.16 LIG 0.25  C 
ATOM     21 O    GLU B   1       3.507 -25.008  14.817  1.00 45.73 LIG-0.27  OA
ATOM     22 H    LYS B   2       5.382 -26.352  16.801  1.00 40.88 LIG 0.16  HD
BRANCH 20 23
ATOM     23  CA  GLU B   1       5.571 -26.052  14.195  1.00 56.89 LIG 0.28  C 
BRANCH 23 24
ATOM     24  CB  GLU B   1       4.958 -26.102  12.797  1.00 44.84 LIG 0.05  C 
BRANCH 24 25
ATOM     25  CG  GLU B   1       3.629 -26.839  12.734  1.00 43.84 LIG 0.12  C 
BRANCH 25 26
ATOM     26  CD  GLU B   1       3.710 -28.251  13.295  1.00 58.57 LIG 0.17  C 
ATOM     27 OE1  GLU B   1       4.505 -29.058  12.761  1.00 59.35 LIG-0.65  OA
ATOM     28 OE2  GLU B   1       2.978 -28.553  14.264  1.00 59.65 LIG-0.65  OA
ENDBRANCH 25 26
ENDBRANCH 24 25
ENDBRANCH 23 24
BRANCH 23 29
ATOM     29  N   GLU B   1       6.179 -27.329  14.547  1.00 43.96 LIG-0.07  N 
ATOM     30 H1   GLU B   1       6.983 -27.187  14.901  1.00 43.96 LIG 0.28  HD
ATOM     31 H2   GLU B   1       5.664 -27.749  15.140  1.00 43.96 LIG 0.28  HD
ATOM     32 H3   GLU B   1       6.260 -27.831  13.818  1.00 43.96 LIG 0.28  HD
ENDBRANCH 23 29
ENDBRANCH 20 23
ENDBRANCH 10 19
ENDBRANCH 8 10
ENDBRANCH 5 6
BRANCH 5 33
ATOM     33  CB  VAL B   3       2.744 -20.925  16.331  1.00 34.43 LIG 0.01  C 
ATOM     34  CG2 VAL B   3       3.556 -21.566  15.233  1.00 33.75 LIG 0.01  C 
ATOM     35  CG1 VAL B   3       3.111 -19.439  16.460  1.00 37.65 LIG 0.01  C 
ENDBRANCH 5 33
ENDBRANCH 1 5
BRANCH 3 36
ATOM     36  CA  HIS B   4       1.221 -19.456  20.343  1.00 28.98 LIG 0.18  C 
BRANCH 36 37
ATOM     37  CB  HIS B   4      -0.138 -18.973  19.801  1.00 26.24 LIG 0.10  C 
BRANCH 37 38
ATOM     38  CG  HIS B   4      -1.027 -18.398  20.860  1.00 30.41 LIG 0.06  A 
ATOM     39 ND1  HIS B   4      -2.404 -18.419  20.770  1.00 34.08 LIG-0.24  NA
ATOM     40  CE1 HIS B   4      -2.922 -17.845  21.845  1.00 29.96 LIG 0.23  A 
ATOM     41 NE2  HIS B   4      -1.931 -17.473  22.635  1.00 35.16 LIG-0.25  NA
ATOM     42  CD2 HIS B   4      -0.735 -17.810  22.046  1.00 34.95 LIG 0.14  A 
ENDBRANCH 37 38
ENDBRANCH 36 37
BRANCH 36 43
ATOM     43  C   HIS B   4       1.022 -20.558  21.370  1.00 27.46 LIG 0.24  C 
ATOM     44 O    HIS B   4      -0.093 -21.053  21.566  1.00 25.24 LIG-0.27  OA
ATOM     45  N   VAL B   5       1.987 -20.838  22.116  1.00 26.31 LIG-0.35  N 
ATOM     46 H    VAL B   5       2.781 -20.521  22.023  1.00 26.31 LIG 0.16  HD
BRANCH 45 47
ATOM     47  CA  VAL B   5       1.822 -21.765  23.243  1.00 25.23 LIG 0.18  C 
BRANCH 47 48
ATOM     48  CB  VAL B   5       3.115 -22.576  23.497  1.00 26.56 LIG 0.01  C 
ATOM     49  CG2 VAL B   5       3.312 -23.615  22.403  1.00 31.17 LIG 0.01  C 
ATOM     50  CG1 VAL B   5       3.094 -23.249  24.849  1.00 34.68 LIG 0.01  C 
ENDBRANCH 47 48
BRANCH 47 51
ATOM     51  C   VAL B   5       1.381 -21.031  24.501  1.00 27.03 LIG 0.24  C 
ATOM     52  N   GLN B   6       1.782 -19.771  24.625  1.00 26.89 LIG-0.34  N 
ATOM     53 H    GLN B   6       2.271 -19.350  24.057  1.00 26.89 LIG 0.16  HD
ATOM     54 O    VAL B   5       0.672 -21.590  25.350  1.00 28.01 LIG-0.27  OA
BRANCH 52 55
ATOM     55  CA  GLN B   6       1.382 -19.000  25.806  1.00 25.51 LIG 0.19  C 
BRANCH 55 56
ATOM     56  C   GLN B   6      -0.049 -18.490  25.680  1.00 28.77 LIG 0.20  C 
ATOM     57 OXT  GLN B   6      -0.812 -18.882  24.773  1.00 27.06 LIG-0.65  OA
ATOM     58 O    GLN B   6      -0.468 -17.638  26.483  1.00 25.73 LIG-0.65  OA
ENDBRANCH 55 56
BRANCH 55 59
ATOM     59  CB  GLN B   6       2.303 -17.800  26.009  1.00 31.03 LIG 0.04  C 
BRANCH 59 60
ATOM     60  CG  GLN B   6       3.660 -18.135  26.576  1.00 39.52 LIG 0.10  C 
BRANCH 60 61
ATOM     61  CD  GLN B   6       3.541 -19.011  27.804  1.00 49.24 LIG 0.21  C 
ATOM     62  NE2 GLN B   6       3.342 -20.305  27.586  1.00 50.05 LIG-0.37  N 
ATOM     63 21HE GLN B   6       3.270 -20.599  26.781  1.00 50.05 LIG 0.16  HD
ATOM     64 22HE GLN B   6       3.284 -20.848  28.250  1.00 50.05 LIG 0.16  HD
ATOM     65 OE1  GLN B   6       3.652 -18.533  28.939  1.00 58.78 LIG-0.27  OA
ENDBRANCH 60 61
ENDBRANCH 59 60
ENDBRANCH 55 59
ENDBRANCH 52 55
ENDBRANCH 47 51
ENDBRANCH 45 47
ENDBRANCH 36 43
ENDBRANCH 3 36
TORSDOF 27
ENDMDL
MODEL 4
USER: ADFR SOLUTION from run 185
USER: SCORE 22.396294 LL:  -6.900 LR: -17.085 RR:   0.000 FEB:  -9.031
USER: RMSD 3.623480
USER: SEED 184
USER: STATUS no improvement in best in 5 clusters for 5 generations
USER: GENES 29
USER: genes 0 Translation |==|  0.36528 0.56069 0.42102
USER: genes 1 Rotation |==|  0.52441 0.54281 0.46386 0.99625
USER: genes 2 Torsion [N]-C--CA-[N] |==|  0.39352
USER: genes 3 Torsion [C]-CA--N-[C] |==|  0.82854
USER: genes 4 Torsion [N]-C--CA-[N] |==|  0.48133
USER: genes 5 Torsion [C]-CA--CB-[CG] |==|  0.79139
USER: genes 6 Torsion [CA]-CB--CG-[CD] |==|  0.61633
USER: genes 7 Torsion [CB]-CG--CD-[CE] |==|  0.95396
USER: genes 8 Torsion [CG]-CD--CE-[NZ] |==|  0.66838
USER: genes 9 Torsion [CD]-CE--NZ-[HZ1] |==|  0.85088
USER: genes 10 Torsion [C]-CA--N-[C] |==|  0.77327
USER: genes 11 Torsion [N]-C--CA-[N] |==|  0.49163
USER: genes 12 Torsion [C]-CA--CB-[CG] |==|  0.88591
USER: genes 13 Torsion [CA]-CB--CG-[CD] |==|  0.81908
USER: genes 14 Torsion [CB]-CG--CD-[OE1] |==|  0.43832
USER: genes 15 Torsion [C]-CA--N-[H1] |==|  0.64033
USER: genes 16 Torsion [C]-CA--CB-[CG2] |==|  0.55027
USER: genes 17 Torsion [C]-N--CA-[CB] |==|  0.76424
USER: genes 18 Torsion [N]-CA--CB-[CG] |==|  0.50587
USER: genes 19 Torsion [CA]-CB--CG-[ND1] |==|  0.62403
USER: genes 20 Torsion [N]-CA--C-[N] |==|  0.20155
USER: genes 21 Torsion [C]-N--CA-[CB] |==|  0.40613
USER: genes 22 Torsion [N]-CA--CB-[CG1] |==|  0.26542
USER: genes 23 Torsion [N]-CA--C-[N] |==|  0.93407
USER: genes 24 Torsion [C]-N--CA-[C] |==|  0.76982
USER: genes 25 Torsion [N]-CA--C-[OXT] |==|  0.03387
USER: genes 26 Torsion [N]-CA--CB-[CG] |==|  0.79242
USER: genes 27 Torsion [CA]-CB--CG-[CD] |==|  0.84750
USER: genes 28 Torsion [CB]-CG--CD-[OE1] |==|  0.72635
ROOT
ATOM      1  C   VAL B   3       1.982 -21.199  18.706  1.00 28.64 LIG 0.24  C 
ATOM      2 O    VAL B   3       1.029 -21.919  19.032  1.00 27.24 LIG-0.27  OA
ATOM      3  N   HIS B   4       2.206 -19.850  19.254  1.00 29.63 LIG-0.35  N 
ATOM      4 H    HIS B   4       2.803 -19.288  18.993  1.00 29.63 LIG 0.16  HD
ENDROOT
BRANCH 1 5
ATOM      5  CA  VAL B   3       2.996 -21.675  17.651  1.00 30.81 LIG 0.18  C 
BRANCH 5 6
ATOM      6  N   VAL B   3       3.274 -23.091  17.849  1.00 30.70 LIG-0.35  N 
ATOM      7 H    VAL B   3       3.059 -23.594  17.186  1.00 30.70 LIG 0.16  HD
ATOM      8  C   LYS B   2       3.818 -23.535  18.978  1.00 38.89 LIG 0.24  C 
ATOM      9 O    LYS B   2       4.184 -22.784  19.890  1.00 35.72 LIG-0.27  OA
BRANCH 8 10
ATOM     10  CA  LYS B   2       3.992 -25.045  19.083  1.00 39.86 LIG 0.18  C 
BRANCH 10 11
ATOM     11  CB  LYS B   2       2.625 -25.753  19.010  1.00 33.57 LIG 0.04  C 
BRANCH 11 12
ATOM     12  CG  LYS B   2       1.816 -25.619  20.316  1.00 34.54 LIG 0.00  C 
BRANCH 12 13
ATOM     13  CD  LYS B   2       1.114 -26.906  20.731  1.00 30.34 LIG 0.03  C 
BRANCH 13 14
ATOM     14  CE  LYS B   2       1.012 -27.924  19.612  1.00 26.25 LIG 0.23  C 
BRANCH 14 15
ATOM     15  NZ  LYS B   2      -0.425 -28.235  19.311  1.00 28.72 LIG-0.08  N 
ATOM     16 HZ2  LYS B   2      -0.821 -27.512  18.975  1.00 28.72 LIG 0.27  HD
ATOM     17 HZ3  LYS B   2      -0.468 -28.898  18.719  1.00 28.72 LIG 0.27  HD
ATOM     18 HZ1  LYS B   2      -0.839 -28.479  20.059  1.00 28.72 LIG 0.27  HD
ENDBRANCH 14 15
ENDBRANCH 13 14
ENDBRANCH 12 13
ENDBRANCH 11 12
ENDBRANCH 10 11
BRANCH 10 19
ATOM     19  N   LYS B   2       4.743 -25.359  20.303  1.00 40.88 LIG-0.35  N 
ATOM     20  C   GLU B   1       6.076 -25.259  20.289  1.00 50.16 LIG 0.25  C 
ATOM     21 O    GLU B   1       6.712 -25.027  19.257  1.00 45.73 LIG-0.27  OA
ATOM     22 H    LYS B   2       4.270 -25.597  20.980  1.00 40.88 LIG 0.16  HD
BRANCH 20 23
ATOM     23  CA  GLU B   1       6.822 -25.469  21.608  1.00 56.89 LIG 0.28  C 
BRANCH 23 24
ATOM     24  CB  GLU B   1       6.334 -24.462  22.647  1.00 44.84 LIG 0.05  C 
BRANCH 24 25
ATOM     25  CG  GLU B   1       6.116 -23.062  22.093  1.00 43.84 LIG 0.12  C 
BRANCH 25 26
ATOM     26  CD  GLU B   1       7.406 -22.408  21.622  1.00 58.57 LIG 0.17  C 
ATOM     27 OE1  GLU B   1       7.331 -21.478  20.787  1.00 59.35 LIG-0.65  OA
ATOM     28 OE2  GLU B   1       8.493 -22.826  22.082  1.00 59.65 LIG-0.65  OA
ENDBRANCH 25 26
ENDBRANCH 24 25
ENDBRANCH 23 24
BRANCH 23 29
ATOM     29  N   GLU B   1       8.270 -25.405  21.455  1.00 43.96 LIG-0.07  N 
ATOM     30 H1   GLU B   1       8.640 -26.119  21.835  1.00 43.96 LIG 0.28  HD
ATOM     31 H2   GLU B   1       8.476 -25.390  20.589  1.00 43.96 LIG 0.28  HD
ATOM     32 H3   GLU B   1       8.578 -24.668  21.846  1.00 43.96 LIG 0.28  HD
ENDBRANCH 23 29
ENDBRANCH 20 23
ENDBRANCH 10 19
ENDBRANCH 8 10
ENDBRANCH 5 6
BRANCH 5 33
ATOM     33  CB  VAL B   3       2.465 -21.408  16.236  1.00 34.43 LIG 0.01  C 
ATOM     34  CG2 VAL B   3       3.216 -22.246  15.232  1.00 33.75 LIG 0.01  C 
ATOM     35  CG1 VAL B   3       2.606 -19.918  15.890  1.00 37.65 LIG 0.01  C 
ENDBRANCH 5 33
ENDBRANCH 1 5
BRANCH 3 36
ATOM     36  CA  HIS B   4       1.335 -19.417  20.346  1.00 28.98 LIG 0.18  C 
BRANCH 36 37
ATOM     37  CB  HIS B   4       0.018 -18.826  19.809  1.00 26.24 LIG 0.10  C 
BRANCH 37 38
ATOM     38  CG  HIS B   4      -0.889 -18.322  20.890  1.00 30.41 LIG 0.06  A 
ATOM     39 ND1  HIS B   4      -2.244 -18.580  20.909  1.00 34.08 LIG-0.24  NA
ATOM     40  CE1 HIS B   4      -2.783 -18.014  21.977  1.00 29.96 LIG 0.23  A 
ATOM     41 NE2  HIS B   4      -1.823 -17.417  22.659  1.00 35.16 LIG-0.25  NA
ATOM     42  CD2 HIS B   4      -0.627 -17.596  22.005  1.00 34.95 LIG 0.14  A 
ENDBRANCH 37 38
ENDBRANCH 36 37
BRANCH 36 43
ATOM     43  C   HIS B   4       1.051 -20.528  21.343  1.00 27.46 LIG 0.24  C 
ATOM     44 O    HIS B   4      -0.093 -20.969  21.498  1.00 25.24 LIG-0.27  OA
ATOM     45  N   VAL B   5       1.979 -20.873  22.109  1.00 26.31 LIG-0.35  N 
ATOM     46 H    VAL B   5       2.790 -20.594  22.045  1.00 26.31 LIG 0.16  HD
BRANCH 45 47
ATOM     47  CA  VAL B   5       1.735 -21.812  23.211  1.00 25.23 LIG 0.18  C 
BRANCH 47 48
ATOM     48  CB  VAL B   5       2.968 -22.713  23.463  1.00 26.56 LIG 0.01  C 
ATOM     49  CG2 VAL B   5       2.528 -24.128  23.809  1.00 31.17 LIG 0.01  C 
ATOM     50  CG1 VAL B   5       3.843 -22.162  24.564  1.00 34.68 LIG 0.01  C 
ENDBRANCH 47 48
BRANCH 47 51
ATOM     51  C   VAL B   5       1.324 -21.080  24.479  1.00 27.03 LIG 0.24  C 
ATOM     52  N   GLN B   6       1.702 -19.811  24.583  1.00 26.89 LIG-0.34  N 
ATOM     53 H    GLN B   6       2.162 -19.383  23.995  1.00 26.89 LIG 0.16  HD
ATOM     54 O    VAL B   5       0.657 -21.649  25.356  1.00 28.01 LIG-0.27  OA
BRANCH 52 55
ATOM     55  CA  GLN B   6       1.328 -19.042  25.773  1.00 25.51 LIG 0.19  C 
BRANCH 55 56
ATOM     56  C   GLN B   6      -0.086 -18.485  25.654  1.00 28.77 LIG 0.20  C 
ATOM     57 OXT  GLN B   6      -0.873 -18.865  24.763  1.00 27.06 LIG-0.65  OA
ATOM     58 O    GLN B   6      -0.466 -17.605  26.448  1.00 25.73 LIG-0.65  OA
ENDBRANCH 55 56
BRANCH 55 59
ATOM     59  CB  GLN B   6       2.287 -17.875  25.989  1.00 31.03 LIG 0.04  C 
BRANCH 59 60
ATOM     60  CG  GLN B   6       3.642 -18.262  26.527  1.00 39.52 LIG 0.10  C 
BRANCH 60 61
ATOM     61  CD  GLN B   6       3.517 -19.059  27.807  1.00 49.24 LIG 0.21  C 
ATOM     62  NE2 GLN B   6       3.282 -20.358  27.671  1.00 50.05 LIG-0.37  N 
ATOM     63 21HE GLN B   6       3.193 -20.698  26.887  1.00 50.05 LIG 0.16  HD
ATOM     64 22HE GLN B   6       3.220 -20.858  28.368  1.00 50.05 LIG 0.16  HD
ATOM     65 OE1  GLN B   6       3.654 -18.515  28.910  1.00 58.78 LIG-0.27  OA
ENDBRANCH 60 61
ENDBRANCH 59 60
ENDBRANCH 55 59
ENDBRANCH 52 55
ENDBRANCH 47 51
ENDBRANCH 45 47
ENDBRANCH 36 43
ENDBRANCH 3 36
TORSDOF 27
ENDMDL
MODEL 5
USER: ADFR SOLUTION from run 140
USER: SCORE 21.269855 LL:  -5.823 LR: -17.084 RR:   0.000 FEB:  -9.030
USER: RMSD 2.033411
USER: SEED 139
USER: STATUS no improvement in best in 3 clusters for 5 generations
USER: GENES 29
USER: genes 0 Translation |==|  0.36452 0.56401 0.42493
USER: genes 1 Rotation |==|  0.50494 0.54695 0.47088 0.99691
USER: genes 2 Torsion [N]-C--CA-[N] |==|  0.45729
USER: genes 3 Torsion [C]-CA--N-[C] |==|  0.67874
USER: genes 4 Torsion [N]-C--CA-[N] |==|  0.37234
USER: genes 5 Torsion [C]-CA--CB-[CG] |==|  0.20655
USER: genes 6 Torsion [CA]-CB--CG-[CD] |==|  0.33460
USER: genes 7 Torsion [CB]-CG--CD-[CE] |==|  0.87430
USER: genes 8 Torsion [CG]-CD--CE-[NZ] |==|  0.61648
USER: genes 9 Torsion [CD]-CE--NZ-[HZ1] |==|  0.47999
USER: genes 10 Torsion [C]-CA--N-[C] |==|  0.81348
USER: genes 11 Torsion [N]-C--CA-[N] |==|  0.67697
USER: genes 12 Torsion [C]-CA--CB-[CG] |==|  0.37797
USER: genes 13 Torsion [CA]-CB--CG-[CD] |==|  0.19305
USER: genes 14 Torsion [CB]-CG--CD-[OE1] |==|  0.98915
USER: genes 15 Torsion [C]-CA--N-[H1] |==|  0.43094
USER: genes 16 Torsion [C]-CA--CB-[CG2] |==|  0.58361
USER: genes 17 Torsion [C]-N--CA-[CB] |==|  0.76182
USER: genes 18 Torsion [N]-CA--CB-[CG] |==|  0.49562
USER: genes 19 Torsion [CA]-CB--CG-[ND1] |==|  0.62255
USER: genes 20 Torsion [N]-CA--C-[N] |==|  0.19029
USER: genes 21 Torsion [C]-N--CA-[CB] |==|  0.42082
USER: genes 22 Torsion [N]-CA--CB-[CG1] |==|  0.30324
USER: genes 23 Torsion [N]-CA--C-[N] |==|  0.91752
USER: genes 24 Torsion [C]-N--CA-[C] |==|  0.82451
USER: genes 25 Torsion [N]-CA--C-[OXT] |==|  0.99086
USER: genes 26 Torsion [N]-CA--CB-[CG] |==|  0.10422
USER: genes 27 Torsion [CA]-CB--CG-[CD] |==|  0.57005
USER: genes 28 Torsion [CB]-CG--CD-[OE1] |==|  0.07254
ROOT
ATOM      1  C   VAL B   3       1.968 -21.122  18.794  1.00 28.64 LIG 0.24  C 
ATOM      2 O    VAL B   3       1.049 -21.848  19.192  1.00 27.24 LIG-0.27  OA
ATOM      3  N   HIS B   4       2.154 -19.729  19.236  1.00 29.63 LIG-0.35  N 
ATOM      4 H    HIS B   4       2.725 -19.167  18.922  1.00 29.63 LIG 0.16  HD
ENDROOT
BRANCH 1 5
ATOM      5  CA  VAL B   3       2.979 -21.639  17.755  1.00 30.81 LIG 0.18  C 
BRANCH 5 6
ATOM      6  N   VAL B   3       2.907 -23.092  17.689  1.00 30.70 LIG-0.35  N 
ATOM      7 H    VAL B   3       2.156 -23.400  17.408  1.00 30.70 LIG 0.16  HD
ATOM      8  C   LYS B   2       3.940 -23.850  18.044  1.00 38.89 LIG 0.24  C 
ATOM      9 O    LYS B   2       5.034 -23.382  18.378  1.00 35.72 LIG-0.27  OA
BRANCH 8 10
ATOM     10  CA  LYS B   2       3.709 -25.355  17.994  1.00 39.86 LIG 0.18  C 
BRANCH 10 11
ATOM     11  CB  LYS B   2       3.432 -25.907  19.406  1.00 33.57 LIG 0.04  C 
BRANCH 11 12
ATOM     12  CG  LYS B   2       2.020 -25.554  19.916  1.00 34.54 LIG 0.00  C 
BRANCH 12 13
ATOM     13  CD  LYS B   2       1.169 -26.775  20.241  1.00 30.34 LIG 0.03  C 
BRANCH 13 14
ATOM     14  CE  LYS B   2       1.234 -27.855  19.180  1.00 26.25 LIG 0.23  C 
BRANCH 14 15
ATOM     15  NZ  LYS B   2      -0.129 -28.430  18.927  1.00 28.72 LIG-0.08  N 
ATOM     16 HZ2  LYS B   2      -0.402 -28.875  19.648  1.00 28.72 LIG 0.27  HD
ATOM     17 HZ3  LYS B   2      -0.702 -27.772  18.751  1.00 28.72 LIG 0.27  HD
ATOM     18 HZ1  LYS B   2      -0.093 -28.985  18.233  1.00 28.72 LIG 0.27  HD
ENDBRANCH 14 15
ENDBRANCH 13 14
ENDBRANCH 12 13
ENDBRANCH 11 12
ENDBRANCH 10 11
BRANCH 10 19
ATOM     19  N   LYS B   2       4.851 -25.995  17.333  1.00 40.88 LIG-0.35  N 
ATOM     20  C   GLU B   1       5.063 -25.767  16.034  1.00 50.16 LIG 0.25  C 
ATOM     21 O    GLU B   1       4.268 -25.131  15.335  1.00 45.73 LIG-0.27  OA
ATOM     22 H    LYS B   2       5.337 -26.498  17.835  1.00 40.88 LIG 0.16  HD
BRANCH 20 23
ATOM     23  CA  GLU B   1       6.332 -26.345  15.404  1.00 56.89 LIG 0.28  C 
BRANCH 23 24
ATOM     24  CB  GLU B   1       7.028 -27.274  16.397  1.00 44.84 LIG 0.05  C 
BRANCH 24 25
ATOM     25  CG  GLU B   1       7.517 -28.576  15.783  1.00 43.84 LIG 0.12  C 
BRANCH 25 26
ATOM     26  CD  GLU B   1       8.685 -28.375  14.828  1.00 58.57 LIG 0.17  C 
ATOM     27 OE1  GLU B   1       9.064 -27.206  14.590  1.00 59.35 LIG-0.65  OA
ATOM     28 OE2  GLU B   1       9.218 -29.384  14.314  1.00 59.65 LIG-0.65  OA
ENDBRANCH 25 26
ENDBRANCH 24 25
ENDBRANCH 23 24
BRANCH 23 29
ATOM     29  N   GLU B   1       7.243 -25.315  14.922  1.00 43.96 LIG-0.07  N 
ATOM     30 H1   GLU B   1       8.072 -25.636  14.904  1.00 43.96 LIG 0.28  HD
ATOM     31 H2   GLU B   1       7.003 -25.067  14.101  1.00 43.96 LIG 0.28  HD
ATOM     32 H3   GLU B   1       7.210 -24.611  15.465  1.00 43.96 LIG 0.28  HD
ENDBRANCH 23 29
ENDBRANCH 20 23
ENDBRANCH 10 19
ENDBRANCH 8 10
ENDBRANCH 5 6
BRANCH 5 33
ATOM     33  CB  VAL B   3       2.708 -21.009  16.382  1.00 34.43 LIG 0.01  C 
ATOM     34  CG2 VAL B   3       3.118 -21.959  15.284  1.00 33.75 LIG 0.01  C 
ATOM     35  CG1 VAL B   3       3.474 -19.684  16.247  1.00 37.65 LIG 0.01  C 
ENDBRANCH 5 33
ENDBRANCH 1 5
BRANCH 3 36
ATOM     36  CA  HIS B   4       1.289 -19.247  20.312  1.00 28.98 LIG 0.18  C 
BRANCH 36 37
ATOM     37  CB  HIS B   4      -0.051 -18.723  19.760  1.00 26.24 LIG 0.10  C 
BRANCH 37 38
ATOM     38  CG  HIS B   4      -0.988 -18.253  20.830  1.00 30.41 LIG 0.06  A 
ATOM     39 ND1  HIS B   4      -2.332 -18.566  20.835  1.00 34.08 LIG-0.24  NA
ATOM     40  CE1 HIS B   4      -2.905 -18.018  21.895  1.00 29.96 LIG 0.23  A 
ATOM     41 NE2  HIS B   4      -1.977 -17.380  22.585  1.00 35.16 LIG-0.25  NA
ATOM     42  CD2 HIS B   4      -0.768 -17.513  21.945  1.00 34.95 LIG 0.14  A 
ENDBRANCH 37 38
ENDBRANCH 36 37
BRANCH 36 43
ATOM     43  C   HIS B   4       1.047 -20.297  21.384  1.00 27.46 LIG 0.24  C 
ATOM     44 O    HIS B   4      -0.093 -20.700  21.636  1.00 25.24 LIG-0.27  OA
ATOM     45  N   VAL B   5       2.016 -20.626  22.105  1.00 26.31 LIG-0.35  N 
ATOM     46 H    VAL B   5       2.828 -20.372  21.973  1.00 26.31 LIG 0.16  HD
BRANCH 45 47
ATOM     47  CA  VAL B   5       1.825 -21.500  23.268  1.00 25.23 LIG 0.18  C 
BRANCH 47 48
ATOM     48  CB  VAL B   5       3.102 -22.323  23.567  1.00 26.56 LIG 0.01  C 
ATOM     49  CG2 VAL B   5       2.764 -23.802  23.681  1.00 31.17 LIG 0.01  C 
ATOM     50  CG1 VAL B   5       3.785 -21.853  24.830  1.00 34.68 LIG 0.01  C 
ENDBRANCH 47 48
BRANCH 47 51
ATOM     51  C   VAL B   5       1.390 -20.705  24.490  1.00 27.03 LIG 0.24  C 
ATOM     52  N   GLN B   6       1.811 -19.449  24.564  1.00 26.89 LIG-0.34  N 
ATOM     53 H    GLN B   6       2.312 -19.060  23.982  1.00 26.89 LIG 0.16  HD
ATOM     54 O    VAL B   5       0.664 -21.215  25.357  1.00 28.01 LIG-0.27  OA
BRANCH 52 55
ATOM     55  CA  GLN B   6       1.417 -18.621  25.707  1.00 25.51 LIG 0.19  C 
BRANCH 55 56
ATOM     56  C   GLN B   6      -0.093 -18.416  25.753  1.00 28.77 LIG 0.20  C 
ATOM     57 OXT  GLN B   6      -0.846 -18.863  24.864  1.00 27.06 LIG-0.65  OA
ATOM     58 O    GLN B   6      -0.594 -17.762  26.684  1.00 25.73 LIG-0.65  OA
ENDBRANCH 55 56
BRANCH 55 59
ATOM     59  CB  GLN B   6       2.086 -17.250  25.643  1.00 31.03 LIG 0.04  C 
BRANCH 59 60
ATOM     60  CG  GLN B   6       2.210 -16.673  24.256  1.00 39.52 LIG 0.10  C 
BRANCH 60 61
ATOM     61  CD  GLN B   6       3.358 -15.691  24.170  1.00 49.24 LIG 0.21  C 
ATOM     62  NE2 GLN B   6       3.247 -14.735  23.256  1.00 50.05 LIG-0.37  N 
ATOM     63 21HE GLN B   6       2.558 -14.709  22.743  1.00 50.05 LIG 0.16  HD
ATOM     64 22HE GLN B   6       3.864 -14.142  23.179  1.00 50.05 LIG 0.16  HD
ATOM     65 OE1  GLN B   6       4.326 -15.777  24.935  1.00 58.78 LIG-0.27  OA
ENDBRANCH 60 61
ENDBRANCH 59 60
ENDBRANCH 55 59
ENDBRANCH 52 55
ENDBRANCH 47 51
ENDBRANCH 45 47
ENDBRANCH 36 43
ENDBRANCH 3 36
TORSDOF 27
ENDMDL
MODEL 6
USER: ADFR SOLUTION from run 181
USER: SCORE 21.838095 LL:  -6.424 LR: -16.969 RR:   0.000 FEB:  -8.915
USER: RMSD 2.229860
USER: SEED 180
USER: STATUS no improvement in best in 4 clusters for 5 generations
USER: GENES 29
USER: genes 0 Translation |==|  0.36328 0.56006 0.42116
USER: genes 1 Rotation |==|  0.52522 0.54091 0.46879 0.99671
USER: genes 2 Torsion [N]-C--CA-[N] |==|  0.41315
USER: genes 3 Torsion [C]-CA--N-[C] |==|  0.76478
USER: genes 4 Torsion [N]-C--CA-[N] |==|  0.35687
USER: genes 5 Torsion [C]-CA--CB-[CG] |==|  0.19414
USER: genes 6 Torsion [CA]-CB--CG-[CD] |==|  0.37221
USER: genes 7 Torsion [CB]-CG--CD-[CE] |==|  0.79770
USER: genes 8 Torsion [CG]-CD--CE-[NZ] |==|  0.65094
USER: genes 9 Torsion [CD]-CE--NZ-[HZ1] |==|  0.49697
USER: genes 10 Torsion [C]-CA--N-[C] |==|  0.80046
USER: genes 11 Torsion [N]-C--CA-[N] |==|  0.94338
USER: genes 12 Torsion [C]-CA--CB-[CG] |==|  0.86447
USER: genes 13 Torsion [CA]-CB--CG-[CD] |==|  0.84746
USER: genes 14 Torsion [CB]-CG--CD-[OE1] |==|  0.83392
USER: genes 15 Torsion [C]-CA--N-[H1] |==|  0.71652
USER: genes 16 Torsion [C]-CA--CB-[CG2] |==|  0.53433
USER: genes 17 Torsion [C]-N--CA-[CB] |==|  0.77212
USER: genes 18 Torsion [N]-CA--CB-[CG] |==|  0.51958
USER: genes 19 Torsion [CA]-CB--CG-[ND1] |==|  0.57663
USER: genes 20 Torsion [N]-CA--C-[N] |==|  0.19752
USER: genes 21 Torsion [C]-N--CA-[CB] |==|  0.40966
USER: genes 22 Torsion [N]-CA--CB-[CG1] |==|  0.45781
USER: genes 23 Torsion [N]-CA--C-[N] |==|  0.91832
USER: genes 24 Torsion [C]-N--CA-[C] |==|  0.78085
USER: genes 25 Torsion [N]-CA--C-[OXT] |==|  0.02900
USER: genes 26 Torsion [N]-CA--CB-[CG] |==|  0.78968
USER: genes 27 Torsion [CA]-CB--CG-[CD] |==|  0.86175
USER: genes 28 Torsion [CB]-CG--CD-[OE1] |==|  0.71928
ROOT
ATOM      1  C   VAL B   3       1.946 -21.214  18.709  1.00 28.64 LIG 0.24  C 
ATOM      2 O    VAL B   3       1.005 -21.953  19.023  1.00 27.24 LIG-0.27  OA
ATOM      3  N   HIS B   4       2.139 -19.863  19.264  1.00 29.63 LIG-0.35  N 
ATOM      4 H    HIS B   4       2.728 -19.288  19.011  1.00 29.63 LIG 0.16  HD
ENDROOT
BRANCH 1 5
ATOM      5  CA  VAL B   3       2.979 -21.666  17.661  1.00 30.81 LIG 0.18  C 
BRANCH 5 6
ATOM      6  N   VAL B   3       3.157 -23.108  17.746  1.00 30.70 LIG-0.35  N 
ATOM      7 H    VAL B   3       2.678 -23.561  17.194  1.00 30.70 LIG 0.16  HD
ATOM      8  C   LYS B   2       4.001 -23.648  18.620  1.00 38.89 LIG 0.24  C 
ATOM      9 O    LYS B   2       4.731 -22.974  19.355  1.00 35.72 LIG-0.27  OA
BRANCH 8 10
ATOM     10  CA  LYS B   2       4.040 -25.171  18.652  1.00 39.86 LIG 0.18  C 
BRANCH 10 11
ATOM     11  CB  LYS B   2       3.337 -25.703  19.916  1.00 33.57 LIG 0.04  C 
BRANCH 11 12
ATOM     12  CG  LYS B   2       1.809 -25.493  19.878  1.00 34.54 LIG 0.00  C 
BRANCH 12 13
ATOM     13  CD  LYS B   2       1.016 -26.725  20.296  1.00 30.34 LIG 0.03  C 
BRANCH 13 14
ATOM     14  CE  LYS B   2       1.028 -27.829  19.258  1.00 26.25 LIG 0.23  C 
BRANCH 14 15
ATOM     15  NZ  LYS B   2      -0.373 -28.237  18.904  1.00 28.72 LIG-0.08  N 
ATOM     16 HZ2  LYS B   2      -0.785 -28.546  19.630  1.00 28.72 LIG 0.27  HD
ATOM     17 HZ3  LYS B   2      -0.817 -27.533  18.589  1.00 28.72 LIG 0.27  HD
ATOM     18 HZ1  LYS B   2      -0.349 -28.874  18.283  1.00 28.72 LIG 0.27  HD
ENDBRANCH 14 15
ENDBRANCH 13 14
ENDBRANCH 12 13
ENDBRANCH 11 12
ENDBRANCH 10 11
BRANCH 10 19
ATOM     19  N   LYS B   2       5.432 -25.619  18.531  1.00 40.88 LIG-0.35  N 
ATOM     20  C   GLU B   1       6.054 -25.497  17.354  1.00 50.16 LIG 0.25  C 
ATOM     21 O    GLU B   1       5.469 -25.131  16.331  1.00 45.73 LIG-0.27  OA
ATOM     22 H    LYS B   2       5.781 -25.945  19.246  1.00 40.88 LIG 0.16  HD
BRANCH 20 23
ATOM     23  CA  GLU B   1       7.540 -25.854  17.292  1.00 56.89 LIG 0.28  C 
BRANCH 23 24
ATOM     24  CB  GLU B   1       7.720 -27.213  16.618  1.00 44.84 LIG 0.05  C 
BRANCH 24 25
ATOM     25  CG  GLU B   1       6.812 -28.299  17.170  1.00 43.84 LIG 0.12  C 
BRANCH 25 26
ATOM     26  CD  GLU B   1       6.944 -28.469  18.676  1.00 58.57 LIG 0.17  C 
ATOM     27 OE1  GLU B   1       8.064 -28.775  19.145  1.00 59.35 LIG-0.65  OA
ATOM     28 OE2  GLU B   1       5.928 -28.301  19.389  1.00 59.65 LIG-0.65  OA
ENDBRANCH 25 26
ENDBRANCH 24 25
ENDBRANCH 23 24
BRANCH 23 29
ATOM     29  N   GLU B   1       8.182 -25.828  18.600  1.00 43.96 LIG-0.07  N 
ATOM     30 H1   GLU B   1       8.651 -25.076  18.685  1.00 43.96 LIG 0.28  HD
ATOM     31 H2   GLU B   1       7.562 -25.864  19.237  1.00 43.96 LIG 0.28  HD
ATOM     32 H3   GLU B   1       8.727 -26.526  18.677  1.00 43.96 LIG 0.28  HD
ENDBRANCH 23 29
ENDBRANCH 20 23
ENDBRANCH 10 19
ENDBRANCH 8 10
ENDBRANCH 5 6
BRANCH 5 33
ATOM     33  CB  VAL B   3       2.535 -21.245  16.253  1.00 34.43 LIG 0.01  C 
ATOM     34  CG2 VAL B   3       3.377 -21.940  15.213  1.00 33.75 LIG 0.01  C 
ATOM     35  CG1 VAL B   3       2.652 -19.721  16.095  1.00 37.65 LIG 0.01  C 
ENDBRANCH 5 33
ENDBRANCH 1 5
BRANCH 3 36
ATOM     36  CA  HIS B   4       1.251 -19.452  20.351  1.00 28.98 LIG 0.18  C 
BRANCH 36 37
ATOM     37  CB  HIS B   4      -0.100 -18.949  19.807  1.00 26.24 LIG 0.10  C 
BRANCH 37 38
ATOM     38  CG  HIS B   4      -0.982 -18.360  20.866  1.00 30.41 LIG 0.06  A 
ATOM     39 ND1  HIS B   4      -2.358 -18.359  20.774  1.00 34.08 LIG-0.24  NA
ATOM     40  CE1 HIS B   4      -2.868 -17.778  21.849  1.00 29.96 LIG 0.23  A 
ATOM     41 NE2  HIS B   4      -1.873 -17.422  22.640  1.00 35.16 LIG-0.25  NA
ATOM     42  CD2 HIS B   4      -0.681 -17.777  22.052  1.00 34.95 LIG 0.14  A 
ENDBRANCH 37 38
ENDBRANCH 36 37
BRANCH 36 43
ATOM     43  C   HIS B   4       1.034 -20.551  21.378  1.00 27.46 LIG 0.24  C 
ATOM     44 O    HIS B   4      -0.087 -21.032  21.569  1.00 25.24 LIG-0.27  OA
ATOM     45  N   VAL B   5       1.992 -20.842  22.128  1.00 26.31 LIG-0.35  N 
ATOM     46 H    VAL B   5       2.791 -20.534  22.038  1.00 26.31 LIG 0.16  HD
BRANCH 45 47
ATOM     47  CA  VAL B   5       1.811 -21.766  23.254  1.00 25.23 LIG 0.18  C 
BRANCH 47 48
ATOM     48  CB  VAL B   5       3.095 -22.591  23.516  1.00 26.56 LIG 0.01  C 
ATOM     49  CG2 VAL B   5       3.287 -23.633  22.424  1.00 31.17 LIG 0.01  C 
ATOM     50  CG1 VAL B   5       3.059 -23.262  24.869  1.00 34.68 LIG 0.01  C 
ENDBRANCH 47 48
BRANCH 47 51
ATOM     51  C   VAL B   5       1.372 -21.027  24.509  1.00 27.03 LIG 0.24  C 
ATOM     52  N   GLN B   6       1.778 -19.769  24.631  1.00 26.89 LIG-0.34  N 
ATOM     53 H    GLN B   6       2.271 -19.351  24.063  1.00 26.89 LIG 0.16  HD
ATOM     54 O    VAL B   5       0.657 -21.580  25.358  1.00 28.01 LIG-0.27  OA
BRANCH 52 55
ATOM     55  CA  GLN B   6       1.379 -18.993  25.809  1.00 25.51 LIG 0.19  C 
BRANCH 55 56
ATOM     56  C   GLN B   6      -0.051 -18.480  25.680  1.00 28.77 LIG 0.20  C 
ATOM     57 OXT  GLN B   6      -0.813 -18.873  24.775  1.00 27.06 LIG-0.65  OA
ATOM     58 O    GLN B   6      -0.468 -17.624  26.480  1.00 25.73 LIG-0.65  OA
ENDBRANCH 55 56
BRANCH 55 59
ATOM     59  CB  GLN B   6       2.303 -17.794  26.009  1.00 31.03 LIG 0.04  C 
BRANCH 59 60
ATOM     60  CG  GLN B   6       3.659 -18.131  26.577  1.00 39.52 LIG 0.10  C 
BRANCH 60 61
ATOM     61  CD  GLN B   6       3.539 -19.003  27.806  1.00 49.24 LIG 0.21  C 
ATOM     62  NE2 GLN B   6       3.337 -20.297  27.592  1.00 50.05 LIG-0.37  N 
ATOM     63 21HE GLN B   6       3.264 -20.593  26.788  1.00 50.05 LIG 0.16  HD
ATOM     64 22HE GLN B   6       3.278 -20.839  28.257  1.00 50.05 LIG 0.16  HD
ATOM     65 OE1  GLN B   6       3.651 -18.522  28.941  1.00 58.78 LIG-0.27  OA
ENDBRANCH 60 61
ENDBRANCH 59 60
ENDBRANCH 55 59
ENDBRANCH 52 55
ENDBRANCH 47 51
ENDBRANCH 45 47
ENDBRANCH 36 43
ENDBRANCH 3 36
TORSDOF 27
ENDMDL
MODEL 7
USER: ADFR SOLUTION from run 76
USER: SCORE 21.927647 LL:  -6.671 LR: -16.968 RR:   0.000 FEB:  -8.914
USER: RMSD 3.718057
USER: SEED 75
USER: STATUS no improvement in best in 3 clusters for 5 generations
USER: GENES 29
USER: genes 0 Translation |==|  0.37167 0.53086 0.43354
USER: genes 1 Rotation |==|  0.46152 0.56382 0.49138 0.99434
USER: genes 2 Torsion [N]-C--CA-[N] |==|  0.45416
USER: genes 3 Torsion [C]-CA--N-[C] |==|  0.63598
USER: genes 4 Torsion [N]-C--CA-[N] |==|  0.95813
USER: genes 5 Torsion [C]-CA--CB-[CG] |==|  0.71150
USER: genes 6 Torsion [CA]-CB--CG-[CD] |==|  0.78107
USER: genes 7 Torsion [CB]-CG--CD-[CE] |==|  0.45627
USER: genes 8 Torsion [CG]-CD--CE-[NZ] |==|  0.59025
USER: genes 9 Torsion [CD]-CE--NZ-[HZ1] |==|  0.31785
USER: genes 10 Torsion [C]-CA--N-[C] |==|  0.76501
USER: genes 11 Torsion [N]-C--CA-[N] |==|  0.82140
USER: genes 12 Torsion [C]-CA--CB-[CG] |==|  0.20613
USER: genes 13 Torsion [CA]-CB--CG-[CD] |==|  0.72368
USER: genes 14 Torsion [CB]-CG--CD-[OE1] |==|  0.36147
USER: genes 15 Torsion [C]-CA--N-[H1] |==|  0.59568
USER: genes 16 Torsion [C]-CA--CB-[CG2] |==|  0.54823
USER: genes 17 Torsion [C]-N--CA-[CB] |==|  0.73667
USER: genes 18 Torsion [N]-CA--CB-[CG] |==|  0.53254
USER: genes 19 Torsion [CA]-CB--CG-[ND1] |==|  0.31798
USER: genes 20 Torsion [N]-CA--C-[N] |==|  0.19492
USER: genes 21 Torsion [C]-N--CA-[CB] |==|  0.42138
USER: genes 22 Torsion [N]-CA--CB-[CG1] |==|  0.53318
USER: genes 23 Torsion [N]-CA--C-[N] |==|  0.90638
USER: genes 24 Torsion [C]-N--CA-[C] |==|  0.81899
USER: genes 25 Torsion [N]-CA--C-[OXT] |==|  0.97514
USER: genes 26 Torsion [N]-CA--CB-[CG] |==|  0.13133
USER: genes 27 Torsion [CA]-CB--CG-[CD] |==|  0.53677
USER: genes 28 Torsion [CB]-CG--CD-[OE1] |==|  0.07576
ROOT
ATOM      1  C   VAL B   3       2.097 -21.892  18.988  1.00 28.64 LIG 0.24  C 
ATOM      2 O    VAL B   3       1.288 -22.624  19.571  1.00 27.24 LIG-0.27  OA
ATOM      3  N   HIS B   4       2.167 -20.435  19.189  1.00 29.63 LIG-0.35  N 
ATOM      4 H    HIS B   4       2.654 -19.883  18.744  1.00 29.63 LIG 0.16  HD
ENDROOT
BRANCH 1 5
ATOM      5  CA  VAL B   3       3.082 -22.479  17.961  1.00 30.81 LIG 0.18  C 
BRANCH 5 6
ATOM      6  N   VAL B   3       3.176 -23.920  18.146  1.00 30.70 LIG-0.35  N 
ATOM      7 H    VAL B   3       2.419 -24.324  18.198  1.00 30.70 LIG 0.16  HD
ATOM      8  C   LYS B   2       4.355 -24.529  18.226  1.00 38.89 LIG 0.24  C 
ATOM      9 O    LYS B   2       5.430 -23.935  18.078  1.00 35.72 LIG-0.27  OA
BRANCH 8 10
ATOM     10  CA  LYS B   2       4.313 -26.028  18.490  1.00 39.86 LIG 0.18  C 
BRANCH 10 11
ATOM     11  CB  LYS B   2       4.765 -26.810  17.240  1.00 33.57 LIG 0.04  C 
BRANCH 11 12
ATOM     12  CG  LYS B   2       3.584 -27.447  16.479  1.00 34.54 LIG 0.00  C 
BRANCH 12 13
ATOM     13  CD  LYS B   2       3.072 -28.731  17.118  1.00 30.34 LIG 0.03  C 
BRANCH 13 14
ATOM     14  CE  LYS B   2       1.705 -29.151  16.615  1.00 26.25 LIG 0.23  C 
BRANCH 14 15
ATOM     15  NZ  LYS B   2       0.932 -29.842  17.700  1.00 28.72 LIG-0.08  N 
ATOM     16 HZ2  LYS B   2       0.661 -30.639  17.411  1.00 28.72 LIG 0.27  HD
ATOM     17 HZ3  LYS B   2       1.452 -29.948  18.415  1.00 28.72 LIG 0.27  HD
ATOM     18 HZ1  LYS B   2       0.224 -29.350  17.920  1.00 28.72 LIG 0.27  HD
ENDBRANCH 14 15
ENDBRANCH 13 14
ENDBRANCH 12 13
ENDBRANCH 11 12
ENDBRANCH 10 11
BRANCH 10 19
ATOM     19  N   LYS B   2       2.971 -26.398  18.952  1.00 40.88 LIG-0.35  N 
ATOM     20  C   GLU B   1       2.672 -26.273  20.249  1.00 50.16 LIG 0.25  C 
ATOM     21 O    GLU B   1       3.517 -25.969  21.096  1.00 45.73 LIG-0.27  OA
ATOM     22 H    LYS B   2       2.434 -26.684  18.344  1.00 40.88 LIG 0.16  HD
BRANCH 20 23
ATOM     23  CA  GLU B   1       1.230 -26.545  20.679  1.00 56.89 LIG 0.28  C 
BRANCH 23 24
ATOM     24  CB  GLU B   1       0.845 -27.981  20.331  1.00 44.84 LIG 0.05  C 
BRANCH 24 25
ATOM     25  CG  GLU B   1       1.470 -29.024  21.244  1.00 43.84 LIG 0.12  C 
BRANCH 25 26
ATOM     26  CD  GLU B   1       2.698 -29.683  20.634  1.00 58.57 LIG 0.17  C 
ATOM     27 OE1  GLU B   1       3.743 -29.746  21.322  1.00 59.35 LIG-0.65  OA
ATOM     28 OE2  GLU B   1       2.620 -30.132  19.469  1.00 59.65 LIG-0.65  OA
ENDBRANCH 25 26
ENDBRANCH 24 25
ENDBRANCH 23 24
BRANCH 23 29
ATOM     29  N   GLU B   1       0.282 -25.595  20.109  1.00 43.96 LIG-0.07  N 
ATOM     30 H1   GLU B   1      -0.371 -25.441  20.693  1.00 43.96 LIG 0.28  HD
ATOM     31 H2   GLU B   1       0.701 -24.832  19.924  1.00 43.96 LIG 0.28  HD
ATOM     32 H3   GLU B   1      -0.063 -25.932  19.362  1.00 43.96 LIG 0.28  HD
ENDBRANCH 23 29
ENDBRANCH 20 23
ENDBRANCH 10 19
ENDBRANCH 8 10
ENDBRANCH 5 6
BRANCH 5 33
ATOM     33  CB  VAL B   3       2.637 -22.133  16.532  1.00 34.43 LIG 0.01  C 
ATOM     34  CG2 VAL B   3       3.328 -23.035  15.540  1.00 33.75 LIG 0.01  C 
ATOM     35  CG1 VAL B   3       2.956 -20.663  16.220  1.00 37.65 LIG 0.01  C 
ENDBRANCH 5 33
ENDBRANCH 1 5
BRANCH 3 36
ATOM     36  CA  HIS B   4       1.333 -19.864  20.247  1.00 28.98 LIG 0.18  C 
BRANCH 36 37
ATOM     37  CB  HIS B   4      -0.008 -19.356  19.686  1.00 26.24 LIG 0.10  C 
BRANCH 37 38
ATOM     38  CG  HIS B   4      -0.778 -18.518  20.662  1.00 30.41 LIG 0.06  A 
ATOM     39 ND1  HIS B   4      -1.030 -17.177  20.457  1.00 34.08 LIG-0.24  NA
ATOM     40  CE1 HIS B   4      -1.728 -16.702  21.477  1.00 29.96 LIG 0.23  A 
ATOM     41 NE2  HIS B   4      -1.953 -17.692  22.322  1.00 35.16 LIG-0.25  NA
ATOM     42  CD2 HIS B   4      -1.374 -18.840  21.836  1.00 34.95 LIG 0.14  A 
ENDBRANCH 37 38
ENDBRANCH 36 37
BRANCH 36 43
ATOM     43  C   HIS B   4       1.097 -20.833  21.393  1.00 27.46 LIG 0.24  C 
ATOM     44 O    HIS B   4      -0.041 -21.221  21.676  1.00 25.24 LIG-0.27  OA
ATOM     45  N   VAL B   5       2.068 -21.104  22.135  1.00 26.31 LIG-0.35  N 
ATOM     46 H    VAL B   5       2.878 -20.857  21.984  1.00 26.31 LIG 0.16  HD
BRANCH 45 47
ATOM     47  CA  VAL B   5       1.882 -21.891  23.360  1.00 25.23 LIG 0.18  C 
BRANCH 47 48
ATOM     48  CB  VAL B   5       3.163 -22.681  23.720  1.00 26.56 LIG 0.01  C 
ATOM     49  CG2 VAL B   5       3.731 -23.361  22.483  1.00 31.17 LIG 0.01  C 
ATOM     50  CG1 VAL B   5       2.901 -23.707  24.797  1.00 34.68 LIG 0.01  C 
ENDBRANCH 47 48
BRANCH 47 51
ATOM     51  C   VAL B   5       1.440 -21.010  24.520  1.00 27.03 LIG 0.24  C 
ATOM     52  N   GLN B   6       1.920 -19.772  24.543  1.00 26.89 LIG-0.34  N 
ATOM     53 H    GLN B   6       2.460 -19.441  23.962  1.00 26.89 LIG 0.16  HD
ATOM     54 O    VAL B   5       0.658 -21.437  25.382  1.00 28.01 LIG-0.27  OA
BRANCH 52 55
ATOM     55  CA  GLN B   6       1.524 -18.865  25.624  1.00 25.51 LIG 0.19  C 
BRANCH 55 56
ATOM     56  C   GLN B   6       0.033 -18.549  25.568  1.00 28.77 LIG 0.20  C 
ATOM     57 OXT  GLN B   6      -0.678 -18.892  24.603  1.00 27.06 LIG-0.65  OA
ATOM     58 O    GLN B   6      -0.491 -17.905  26.494  1.00 25.73 LIG-0.65  OA
ENDBRANCH 55 56
BRANCH 55 59
ATOM     59  CB  GLN B   6       2.297 -17.552  25.543  1.00 31.03 LIG 0.04  C 
BRANCH 59 60
ATOM     60  CG  GLN B   6       2.346 -16.932  24.169  1.00 39.52 LIG 0.10  C 
BRANCH 60 61
ATOM     61  CD  GLN B   6       3.380 -15.830  24.100  1.00 49.24 LIG 0.21  C 
ATOM     62  NE2 GLN B   6       3.146 -14.858  23.227  1.00 50.05 LIG-0.37  N 
ATOM     63 21HE GLN B   6       2.446 -14.888  22.728  1.00 50.05 LIG 0.16  HD
ATOM     64 22HE GLN B   6       3.694 -14.199  23.161  1.00 50.05 LIG 0.16  HD
ATOM     65 OE1  GLN B   6       4.369 -15.839  24.843  1.00 58.78 LIG-0.27  OA
ENDBRANCH 60 61
ENDBRANCH 59 60
ENDBRANCH 55 59
ENDBRANCH 52 55
ENDBRANCH 47 51
ENDBRANCH 45 47
ENDBRANCH 36 43
ENDBRANCH 3 36
TORSDOF 27
ENDMDL
MODEL 8
USER: ADFR SOLUTION from run 168
USER: SCORE 21.391140 LL:  -6.464 LR: -16.946 RR:   0.000 FEB:  -8.892
USER: RMSD 3.836091
USER: SEED 167
USER: STATUS 1 or 2 clusters left
USER: GENES 29
USER: genes 0 Translation |==|  0.36299 0.55669 0.43342
USER: genes 1 Rotation |==|  0.49579 0.53405 0.47759 0.99832
USER: genes 2 Torsion [N]-C--CA-[N] |==|  0.42769
USER: genes 3 Torsion [C]-CA--N-[C] |==|  0.80218
USER: genes 4 Torsion [N]-C--CA-[N] |==|  0.48835
USER: genes 5 Torsion [C]-CA--CB-[CG] |==|  0.73090
USER: genes 6 Torsion [CA]-CB--CG-[CD] |==|  0.64851
USER: genes 7 Torsion [CB]-CG--CD-[CE] |==|  0.96303
USER: genes 8 Torsion [CG]-CD--CE-[NZ] |==|  0.73252
USER: genes 9 Torsion [CD]-CE--NZ-[HZ1] |==|  0.54219
USER: genes 10 Torsion [C]-CA--N-[C] |==|  0.76015
USER: genes 11 Torsion [N]-C--CA-[N] |==|  0.75437
USER: genes 12 Torsion [C]-CA--CB-[CG] |==|  0.58128
USER: genes 13 Torsion [CA]-CB--CG-[CD] |==|  0.22569
USER: genes 14 Torsion [CB]-CG--CD-[OE1] |==|  0.75579
USER: genes 15 Torsion [C]-CA--N-[H1] |==|  0.48488
USER: genes 16 Torsion [C]-CA--CB-[CG2] |==|  0.56138
USER: genes 17 Torsion [C]-N--CA-[CB] |==|  0.76716
USER: genes 18 Torsion [N]-CA--CB-[CG] |==|  0.51763
USER: genes 19 Torsion [CA]-CB--CG-[ND1] |==|  0.59861
USER: genes 20 Torsion [N]-CA--C-[N] |==|  0.13696
USER: genes 21 Torsion [C]-N--CA-[CB] |==|  0.46316
USER: genes 22 Torsion [N]-CA--CB-[CG1] |==|  0.40412
USER: genes 23 Torsion [N]-CA--C-[N] |==|  0.91366
USER: genes 24 Torsion [C]-N--CA-[C] |==|  0.80635
USER: genes 25 Torsion [N]-CA--C-[OXT] |==|  0.99500
USER: genes 26 Torsion [N]-CA--CB-[CG] |==|  0.10599
USER: genes 27 Torsion [CA]-CB--CG-[CD] |==|  0.53143
USER: genes 28 Torsion [CB]-CG--CD-[OE1] |==|  0.10578
ROOT
ATOM      1  C   VAL B   3       1.941 -21.292  18.985  1.00 28.64 LIG 0.24  C 
ATOM      2 O    VAL B   3       1.024 -22.031  19.365  1.00 27.24 LIG-0.27  OA
ATOM      3  N   HIS B   4       2.063 -19.879  19.383  1.00 29.63 LIG-0.35  N 
ATOM      4 H    HIS B   4       2.632 -19.312  19.076  1.00 29.63 LIG 0.16  HD
ENDROOT
BRANCH 1 5
ATOM      5  CA  VAL B   3       3.017 -21.815  18.018  1.00 30.81 LIG 0.18  C 
BRANCH 5 6
ATOM      6  N   VAL B   3       3.165 -23.253  18.188  1.00 30.70 LIG-0.35  N 
ATOM      7 H    VAL B   3       2.861 -23.724  17.536  1.00 30.70 LIG 0.16  HD
ATOM      8  C   LYS B   2       3.731 -23.764  19.277  1.00 38.89 LIG 0.24  C 
ATOM      9 O    LYS B   2       4.226 -23.064  20.169  1.00 35.72 LIG-0.27  OA
BRANCH 8 10
ATOM     10  CA  LYS B   2       3.761 -25.285  19.361  1.00 39.86 LIG 0.18  C 
BRANCH 10 11
ATOM     11  CB  LYS B   2       2.331 -25.857  19.306  1.00 33.57 LIG 0.04  C 
BRANCH 11 12
ATOM     12  CG  LYS B   2       1.758 -26.160  20.706  1.00 34.54 LIG 0.00  C 
BRANCH 12 13
ATOM     13  CD  LYS B   2       1.244 -27.585  20.857  1.00 30.34 LIG 0.03  C 
BRANCH 13 14
ATOM     14  CE  LYS B   2       1.100 -28.317  19.537  1.00 26.25 LIG 0.23  C 
BRANCH 14 15
ATOM     15  NZ  LYS B   2      -0.314 -28.235  19.039  1.00 28.72 LIG-0.08  N 
ATOM     16 HZ2  LYS B   2      -0.875 -28.398  19.710  1.00 28.72 LIG 0.27  HD
ATOM     17 HZ3  LYS B   2      -0.468 -27.421  18.715  1.00 28.72 LIG 0.27  HD
ATOM     18 HZ1  LYS B   2      -0.438 -28.838  18.397  1.00 28.72 LIG 0.27  HD
ENDBRANCH 14 15
ENDBRANCH 13 14
ENDBRANCH 12 13
ENDBRANCH 11 12
ENDBRANCH 10 11
BRANCH 10 19
ATOM     19  N   LYS B   2       4.501 -25.686  20.562  1.00 40.88 LIG-0.35  N 
ATOM     20  C   GLU B   1       5.831 -25.806  20.497  1.00 50.16 LIG 0.25  C 
ATOM     21 O    GLU B   1       6.453 -25.709  19.435  1.00 45.73 LIG-0.27  OA
ATOM     22 H    LYS B   2       4.024 -25.825  21.264  1.00 40.88 LIG 0.16  HD
BRANCH 20 23
ATOM     23  CA  GLU B   1       6.586 -26.102  21.794  1.00 56.89 LIG 0.28  C 
BRANCH 23 24
ATOM     24  CB  GLU B   1       5.758 -27.033  22.677  1.00 44.84 LIG 0.05  C 
BRANCH 24 25
ATOM     25  CG  GLU B   1       6.006 -26.850  24.167  1.00 43.84 LIG 0.12  C 
BRANCH 25 26
ATOM     26  CD  GLU B   1       5.234 -25.678  24.754  1.00 58.57 LIG 0.17  C 
ATOM     27 OE1  GLU B   1       5.762 -24.543  24.724  1.00 59.35 LIG-0.65  OA
ATOM     28 OE2  GLU B   1       4.104 -25.892  25.248  1.00 59.65 LIG-0.65  OA
ENDBRANCH 25 26
ENDBRANCH 24 25
ENDBRANCH 23 24
BRANCH 23 29
ATOM     29  N   GLU B   1       6.963 -24.892  22.515  1.00 43.96 LIG-0.07  N 
ATOM     30 H1   GLU B   1       7.327 -25.114  23.296  1.00 43.96 LIG 0.28  HD
ATOM     31 H2   GLU B   1       7.552 -24.431  22.034  1.00 43.96 LIG 0.28  HD
ATOM     32 H3   GLU B   1       6.241 -24.393  22.657  1.00 43.96 LIG 0.28  HD
ENDBRANCH 23 29
ENDBRANCH 20 23
ENDBRANCH 10 19
ENDBRANCH 8 10
ENDBRANCH 5 6
BRANCH 5 33
ATOM     33  CB  VAL B   3       2.653 -21.464  16.568  1.00 34.43 LIG 0.01  C 
ATOM     34  CG2 VAL B   3       3.361 -22.394  15.614  1.00 33.75 LIG 0.01  C 
ATOM     35  CG1 VAL B   3       3.033 -20.007  16.265  1.00 37.65 LIG 0.01  C 
ENDBRANCH 5 33
ENDBRANCH 1 5
BRANCH 3 36
ATOM     36  CA  HIS B   4       1.131 -19.385  20.396  1.00 28.98 LIG 0.18  C 
BRANCH 36 37
ATOM     37  CB  HIS B   4      -0.211 -18.968  19.765  1.00 26.24 LIG 0.10  C 
BRANCH 37 38
ATOM     38  CG  HIS B   4      -1.145 -18.316  20.738  1.00 30.41 LIG 0.06  A 
ATOM     39 ND1  HIS B   4      -2.512 -18.491  20.692  1.00 34.08 LIG-0.24  NA
ATOM     40  CE1 HIS B   4      -3.076 -17.800  21.670  1.00 29.96 LIG 0.23  A 
ATOM     41 NE2  HIS B   4      -2.122 -17.200  22.358  1.00 35.16 LIG-0.25  NA
ATOM     42  CD2 HIS B   4      -0.903 -17.508  21.800  1.00 34.95 LIG 0.14  A 
ENDBRANCH 37 38
ENDBRANCH 36 37
BRANCH 36 43
ATOM     43  C   HIS B   4       0.903 -20.385  21.518  1.00 27.46 LIG 0.24  C 
ATOM     44 O    HIS B   4      -0.226 -20.572  21.985  1.00 25.24 LIG-0.27  OA
ATOM     45  N   VAL B   5       1.911 -20.897  22.055  1.00 26.31 LIG-0.35  N 
ATOM     46 H    VAL B   5       2.716 -20.797  21.769  1.00 26.31 LIG 0.16  HD
BRANCH 45 47
ATOM     47  CA  VAL B   5       1.781 -21.735  23.253  1.00 25.23 LIG 0.18  C 
BRANCH 47 48
ATOM     48  CB  VAL B   5       3.087 -22.513  23.538  1.00 26.56 LIG 0.01  C 
ATOM     49  CG2 VAL B   5       3.046 -23.879  22.869  1.00 31.17 LIG 0.01  C 
ATOM     50  CG1 VAL B   5       3.328 -22.673  25.021  1.00 34.68 LIG 0.01  C 
ENDBRANCH 47 48
BRANCH 47 51
ATOM     51  C   VAL B   5       1.363 -20.909  24.461  1.00 27.03 LIG 0.24  C 
ATOM     52  N   GLN B   6       1.777 -19.648  24.491  1.00 26.89 LIG-0.34  N 
ATOM     53 H    GLN B   6       2.263 -19.273  23.889  1.00 26.89 LIG 0.16  HD
ATOM     54 O    VAL B   5       0.658 -21.399  25.356  1.00 28.01 LIG-0.27  OA
BRANCH 52 55
ATOM     55  CA  GLN B   6       1.399 -18.791  25.619  1.00 25.51 LIG 0.19  C 
BRANCH 55 56
ATOM     56  C   GLN B   6      -0.090 -18.464  25.595  1.00 28.77 LIG 0.20  C 
ATOM     57 OXT  GLN B   6      -0.841 -18.871  24.686  1.00 27.06 LIG-0.65  OA
ATOM     58 O    GLN B   6      -0.573 -17.748  26.490  1.00 25.73 LIG-0.65  OA
ENDBRANCH 55 56
BRANCH 55 59
ATOM     59  CB  GLN B   6       2.179 -17.479  25.590  1.00 31.03 LIG 0.04  C 
BRANCH 59 60
ATOM     60  CG  GLN B   6       2.400 -16.906  24.213  1.00 39.52 LIG 0.10  C 
BRANCH 60 61
ATOM     61  CD  GLN B   6       3.402 -15.773  24.245  1.00 49.24 LIG 0.21  C 
ATOM     62  NE2 GLN B   6       3.139 -14.733  23.463  1.00 50.05 LIG-0.37  N 
ATOM     63 21HE GLN B   6       2.440 -14.738  22.964  1.00 50.05 LIG 0.16  HD
ATOM     64 22HE GLN B   6       3.669 -14.056  23.457  1.00 50.05 LIG 0.16  HD
ATOM     65 OE1  GLN B   6       4.393 -15.821  24.984  1.00 58.78 LIG-0.27  OA
ENDBRANCH 60 61
ENDBRANCH 59 60
ENDBRANCH 55 59
ENDBRANCH 52 55
ENDBRANCH 47 51
ENDBRANCH 45 47
ENDBRANCH 36 43
ENDBRANCH 3 36
TORSDOF 27
ENDMDL
MODEL 9
USER: ADFR SOLUTION from run 164
USER: SCORE 21.064987 LL:  -5.697 LR: -16.936 RR:   0.000 FEB:  -8.882
USER: RMSD 2.870349
USER: SEED 163
USER: STATUS no improvement in best in 2 clusters for 5 generations
USER: GENES 29
USER: genes 0 Translation |==|  0.37034 0.55645 0.42582
USER: genes 1 Rotation |==|  0.50072 0.53783 0.48084 0.99820
USER: genes 2 Torsion [N]-C--CA-[N] |==|  0.42329
USER: genes 3 Torsion [C]-CA--N-[C] |==|  0.75804
USER: genes 4 Torsion [N]-C--CA-[N] |==|  0.39119
USER: genes 5 Torsion [C]-CA--CB-[CG] |==|  0.18916
USER: genes 6 Torsion [CA]-CB--CG-[CD] |==|  0.42592
USER: genes 7 Torsion [CB]-CG--CD-[CE] |==|  0.78746
USER: genes 8 Torsion [CG]-CD--CE-[NZ] |==|  0.66747
USER: genes 9 Torsion [CD]-CE--NZ-[HZ1] |==|  0.45112
USER: genes 10 Torsion [C]-CA--N-[C] |==|  0.82091
USER: genes 11 Torsion [N]-C--CA-[N] |==|  0.31750
USER: genes 12 Torsion [C]-CA--CB-[CG] |==|  0.22962
USER: genes 13 Torsion [CA]-CB--CG-[CD] |==|  0.20106
USER: genes 14 Torsion [CB]-CG--CD-[OE1] |==|  0.96312
USER: genes 15 Torsion [C]-CA--N-[H1] |==|  0.75160
USER: genes 16 Torsion [C]-CA--CB-[CG2] |==|  0.58120
USER: genes 17 Torsion [C]-N--CA-[CB] |==|  0.76417
USER: genes 18 Torsion [N]-CA--CB-[CG] |==|  0.51672
USER: genes 19 Torsion [CA]-CB--CG-[ND1] |==|  0.58783
USER: genes 20 Torsion [N]-CA--C-[N] |==|  0.18039
USER: genes 21 Torsion [C]-N--CA-[CB] |==|  0.42191
USER: genes 22 Torsion [N]-CA--CB-[CG1] |==|  0.45130
USER: genes 23 Torsion [N]-CA--C-[N] |==|  0.91972
USER: genes 24 Torsion [C]-N--CA-[C] |==|  0.81484
USER: genes 25 Torsion [N]-CA--C-[OXT] |==|  0.98615
USER: genes 26 Torsion [N]-CA--CB-[CG] |==|  0.07434
USER: genes 27 Torsion [CA]-CB--CG-[CD] |==|  0.53557
USER: genes 28 Torsion [CB]-CG--CD-[OE1] |==|  0.12159
ROOT
ATOM      1  C   VAL B   3       2.073 -21.297  18.814  1.00 28.64 LIG 0.24  C 
ATOM      2 O    VAL B   3       1.170 -22.055  19.191  1.00 27.24 LIG-0.27  OA
ATOM      3  N   HIS B   4       2.185 -19.892  19.240  1.00 29.63 LIG-0.35  N 
ATOM      4 H    HIS B   4       2.744 -19.312  18.938  1.00 29.63 LIG 0.16  HD
ENDROOT
BRANCH 1 5
ATOM      5  CA  VAL B   3       3.141 -21.788  17.820  1.00 30.81 LIG 0.18  C 
BRANCH 5 6
ATOM      6  N   VAL B   3       3.335 -23.221  17.984  1.00 30.70 LIG-0.35  N 
ATOM      7 H    VAL B   3       2.854 -23.709  17.465  1.00 30.70 LIG 0.16  HD
ATOM      8  C   LYS B   2       4.196 -23.703  18.875  1.00 38.89 LIG 0.24  C 
ATOM      9 O    LYS B   2       4.928 -22.981  19.561  1.00 35.72 LIG-0.27  OA
BRANCH 8 10
ATOM     10  CA  LYS B   2       4.251 -25.221  18.993  1.00 39.86 LIG 0.18  C 
BRANCH 10 11
ATOM     11  CB  LYS B   2       3.316 -25.710  20.116  1.00 33.57 LIG 0.04  C 
BRANCH 11 12
ATOM     12  CG  LYS B   2       1.825 -25.501  19.781  1.00 34.54 LIG 0.00  C 
BRANCH 12 13
ATOM     13  CD  LYS B   2       0.900 -26.487  20.483  1.00 30.34 LIG 0.03  C 
BRANCH 13 14
ATOM     14  CE  LYS B   2       0.905 -27.868  19.859  1.00 26.25 LIG 0.23  C 
BRANCH 14 15
ATOM     15  NZ  LYS B   2      -0.468 -28.235  19.377  1.00 28.72 LIG-0.08  N 
ATOM     16 HZ2  LYS B   2      -0.971 -28.479  20.069  1.00 28.72 LIG 0.27  HD
ATOM     17 HZ3  LYS B   2      -0.839 -27.533  18.974  1.00 28.72 LIG 0.27  HD
ATOM     18 HZ1  LYS B   2      -0.409 -28.910  18.800  1.00 28.72 LIG 0.27  HD
ENDBRANCH 14 15
ENDBRANCH 13 14
ENDBRANCH 12 13
ENDBRANCH 11 12
ENDBRANCH 10 11
BRANCH 10 19
ATOM     19  N   LYS B   2       5.645 -25.639  19.175  1.00 40.88 LIG-0.35  N 
ATOM     20  C   GLU B   1       6.524 -25.420  18.192  1.00 50.16 LIG 0.25  C 
ATOM     21 O    GLU B   1       6.186 -24.986  17.087  1.00 45.73 LIG-0.27  OA
ATOM     22 H    LYS B   2       5.826 -26.013  19.929  1.00 40.88 LIG 0.16  HD
BRANCH 20 23
ATOM     23  CA  GLU B   1       7.993 -25.750  18.461  1.00 56.89 LIG 0.28  C 
BRANCH 23 24
ATOM     24  CB  GLU B   1       8.849 -24.498  18.281  1.00 44.84 LIG 0.05  C 
BRANCH 24 25
ATOM     25  CG  GLU B   1       8.874 -23.590  19.501  1.00 43.84 LIG 0.12  C 
BRANCH 25 26
ATOM     26  CD  GLU B   1       9.691 -24.166  20.647  1.00 58.57 LIG 0.17  C 
ATOM     27 OE1  GLU B   1      10.026 -25.371  20.593  1.00 59.35 LIG-0.65  OA
ATOM     28 OE2  GLU B   1       9.993 -23.416  21.603  1.00 59.65 LIG-0.65  OA
ENDBRANCH 25 26
ENDBRANCH 24 25
ENDBRANCH 23 24
BRANCH 23 29
ATOM     29  N   GLU B   1       8.486 -26.846  17.634  1.00 43.96 LIG-0.07  N 
ATOM     30 H1   GLU B   1       8.347 -27.619  18.052  1.00 43.96 LIG 0.28  HD
ATOM     31 H2   GLU B   1       8.054 -26.848  16.856  1.00 43.96 LIG 0.28  HD
ATOM     32 H3   GLU B   1       9.357 -26.740  17.489  1.00 43.96 LIG 0.28  HD
ENDBRANCH 23 29
ENDBRANCH 20 23
ENDBRANCH 10 19
ENDBRANCH 8 10
ENDBRANCH 5 6
BRANCH 5 33
ATOM     33  CB  VAL B   3       2.733 -21.445  16.381  1.00 34.43 LIG 0.01  C 
ATOM     34  CG2 VAL B   3       3.306 -22.459  15.423  1.00 33.75 LIG 0.01  C 
ATOM     35  CG1 VAL B   3       3.222 -20.036  16.013  1.00 37.65 LIG 0.01  C 
ENDBRANCH 5 33
ENDBRANCH 1 5
BRANCH 3 36
ATOM     36  CA  HIS B   4       1.262 -19.431  20.277  1.00 28.98 LIG 0.18  C 
BRANCH 36 37
ATOM     37  CB  HIS B   4      -0.084 -18.991  19.671  1.00 26.24 LIG 0.10  C 
BRANCH 37 38
ATOM     38  CG  HIS B   4      -1.012 -18.376  20.674  1.00 30.41 LIG 0.06  A 
ATOM     39 ND1  HIS B   4      -2.384 -18.486  20.586  1.00 34.08 LIG-0.24  NA
ATOM     40  CE1 HIS B   4      -2.940 -17.850  21.605  1.00 29.96 LIG 0.23  A 
ATOM     41 NE2  HIS B   4      -1.978 -17.351  22.359  1.00 35.16 LIG-0.25  NA
ATOM     42  CD2 HIS B   4      -0.760 -17.668  21.802  1.00 34.95 LIG 0.14  A 
ENDBRANCH 37 38
ENDBRANCH 36 37
BRANCH 36 43
ATOM     43  C   HIS B   4       1.041 -20.467  21.367  1.00 27.46 LIG 0.24  C 
ATOM     44 O    HIS B   4      -0.093 -20.874  21.638  1.00 25.24 LIG-0.27  OA
ATOM     45  N   VAL B   5       2.021 -20.777  22.081  1.00 26.31 LIG-0.35  N 
ATOM     46 H    VAL B   5       2.829 -20.519  21.936  1.00 26.31 LIG 0.16  HD
BRANCH 45 47
ATOM     47  CA  VAL B   5       1.850 -21.636  23.260  1.00 25.23 LIG 0.18  C 
BRANCH 47 48
ATOM     48  CB  VAL B   5       3.139 -22.437  23.562  1.00 26.56 LIG 0.01  C 
ATOM     49  CG2 VAL B   5       3.300 -23.576  22.565  1.00 31.17 LIG 0.01  C 
ATOM     50  CG1 VAL B   5       3.138 -22.982  24.970  1.00 34.68 LIG 0.01  C 
ENDBRANCH 47 48
BRANCH 47 51
ATOM     51  C   VAL B   5       1.412 -20.828  24.472  1.00 27.03 LIG 0.24  C 
ATOM     52  N   GLN B   6       1.805 -19.560  24.515  1.00 26.89 LIG-0.34  N 
ATOM     53 H    GLN B   6       2.287 -19.171  23.918  1.00 26.89 LIG 0.16  HD
ATOM     54 O    VAL B   5       0.713 -21.338  25.359  1.00 28.01 LIG-0.27  OA
BRANCH 52 55
ATOM     55  CA  GLN B   6       1.407 -18.719  25.648  1.00 25.51 LIG 0.19  C 
BRANCH 55 56
ATOM     56  C   GLN B   6      -0.098 -18.480  25.663  1.00 28.77 LIG 0.20  C 
ATOM     57 OXT  GLN B   6      -0.840 -18.885  24.745  1.00 27.06 LIG-0.65  OA
ATOM     58 O    GLN B   6      -0.607 -17.838  26.599  1.00 25.73 LIG-0.65  OA
ENDBRANCH 55 56
BRANCH 55 59
ATOM     59  CB  GLN B   6       2.109 -17.365  25.593  1.00 31.03 LIG 0.04  C 
BRANCH 59 60
ATOM     60  CG  GLN B   6       2.502 -16.913  24.209  1.00 39.52 LIG 0.10  C 
BRANCH 60 61
ATOM     61  CD  GLN B   6       3.452 -15.737  24.264  1.00 49.24 LIG 0.21  C 
ATOM     62  NE2 GLN B   6       3.196 -14.735  23.433  1.00 50.05 LIG-0.37  N 
ATOM     63 21HE GLN B   6       2.530 -14.786  22.891  1.00 50.05 LIG 0.16  HD
ATOM     64 22HE GLN B   6       3.696 -14.036  23.437  1.00 50.05 LIG 0.16  HD
ATOM     65 OE1  GLN B   6       4.395 -15.719  25.064  1.00 58.78 LIG-0.27  OA
ENDBRANCH 60 61
ENDBRANCH 59 60
ENDBRANCH 55 59
ENDBRANCH 52 55
ENDBRANCH 47 51
ENDBRANCH 45 47
ENDBRANCH 36 43
ENDBRANCH 3 36
TORSDOF 27
ENDMDL
MODEL 10
USER: ADFR SOLUTION from run 185
USER: SCORE 21.705394 LL:  -7.077 LR: -16.914 RR:   0.000 FEB:  -8.860
USER: RMSD 3.825269
USER: SEED 184
USER: STATUS no improvement in best in 5 clusters for 5 generations
USER: GENES 29
USER: genes 0 Translation |==|  0.37064 0.54137 0.44913
USER: genes 1 Rotation |==|  0.50098 0.51043 0.44965 0.99735
USER: genes 2 Torsion [N]-C--CA-[N] |==|  0.42403
USER: genes 3 Torsion [C]-CA--N-[C] |==|  0.82272
USER: genes 4 Torsion [N]-C--CA-[N] |==|  0.54838
USER: genes 5 Torsion [C]-CA--CB-[CG] |==|  0.73989
USER: genes 6 Torsion [CA]-CB--CG-[CD] |==|  0.67243
USER: genes 7 Torsion [CB]-CG--CD-[CE] |==|  0.02759
USER: genes 8 Torsion [CG]-CD--CE-[NZ] |==|  0.52121
USER: genes 9 Torsion [CD]-CE--NZ-[HZ1] |==|  0.59219
USER: genes 10 Torsion [C]-CA--N-[C] |==|  0.73482
USER: genes 11 Torsion [N]-C--CA-[N] |==|  0.01361
USER: genes 12 Torsion [C]-CA--CB-[CG] |==|  0.91838
USER: genes 13 Torsion [CA]-CB--CG-[CD] |==|  0.81348
USER: genes 14 Torsion [CB]-CG--CD-[OE1] |==|  0.48480
USER: genes 15 Torsion [C]-CA--N-[H1] |==|  0.58464
USER: genes 16 Torsion [C]-CA--CB-[CG2] |==|  0.39798
USER: genes 17 Torsion [C]-N--CA-[CB] |==|  0.77322
USER: genes 18 Torsion [N]-CA--CB-[CG] |==|  0.50209
USER: genes 19 Torsion [CA]-CB--CG-[ND1] |==|  0.62900
USER: genes 20 Torsion [N]-CA--C-[N] |==|  0.14527
USER: genes 21 Torsion [C]-N--CA-[CB] |==|  0.44768
USER: genes 22 Torsion [N]-CA--CB-[CG1] |==|  0.20240
USER: genes 23 Torsion [N]-CA--C-[N] |==|  0.92638
USER: genes 24 Torsion [C]-N--CA-[C] |==|  0.78693
USER: genes 25 Torsion [N]-CA--C-[OXT] |==|  0.03731
USER: genes 26 Torsion [N]-CA--CB-[CG] |==|  0.78874
USER: genes 27 Torsion [CA]-CB--CG-[CD] |==|  0.88625
USER: genes 28 Torsion [CB]-CG--CD-[OE1] |==|  0.71663
ROOT
ATOM      1  C   VAL B   3       2.078 -21.648  19.338  1.00 28.64 LIG 0.24  C 
ATOM      2 O    VAL B   3       1.053 -22.281  19.619  1.00 27.24 LIG-0.27  OA
ATOM      3  N   HIS B   4       2.319 -20.259  19.766  1.00 29.63 LIG-0.35  N 
ATOM      4 H    HIS B   4       2.975 -19.758  19.523  1.00 29.63 LIG 0.16  HD
ENDROOT
BRANCH 1 5
ATOM      5  CA  VAL B   3       3.178 -22.286  18.470  1.00 30.81 LIG 0.18  C 
BRANCH 5 6
ATOM      6  N   VAL B   3       3.168 -23.730  18.657  1.00 30.70 LIG-0.35  N 
ATOM      7 H    VAL B   3       2.972 -24.181  17.952  1.00 30.70 LIG 0.16  HD
ATOM      8  C   LYS B   2       3.445 -24.273  19.838  1.00 38.89 LIG 0.24  C 
ATOM      9 O    LYS B   2       3.794 -23.607  20.821  1.00 35.72 LIG-0.27  OA
BRANCH 8 10
ATOM     10  CA  LYS B   2       3.332 -25.791  19.915  1.00 39.86 LIG 0.18  C 
BRANCH 10 11
ATOM     11  CB  LYS B   2       2.144 -26.287  19.069  1.00 33.57 LIG 0.04  C 
BRANCH 11 12
ATOM     12  CG  LYS B   2       0.850 -26.443  19.894  1.00 34.54 LIG 0.00  C 
BRANCH 12 13
ATOM     13  CD  LYS B   2       0.328 -27.873  19.942  1.00 30.34 LIG 0.03  C 
BRANCH 13 14
ATOM     14  CE  LYS B   2       1.301 -28.889  19.376  1.00 26.25 LIG 0.23  C 
BRANCH 14 15
ATOM     15  NZ  LYS B   2       0.657 -30.242  19.282  1.00 28.72 LIG-0.08  N 
ATOM     16 HZ2  LYS B   2       0.014 -30.308  19.894  1.00 28.72 LIG 0.27  HD
ATOM     17 HZ3  LYS B   2       0.306 -30.348  18.471  1.00 28.72 LIG 0.27  HD
ATOM     18 HZ1  LYS B   2       1.268 -30.872  19.424  1.00 28.72 LIG 0.27  HD
ENDBRANCH 14 15
ENDBRANCH 13 14
ENDBRANCH 12 13
ENDBRANCH 11 12
ENDBRANCH 10 11
BRANCH 10 19
ATOM     19  N   LYS B   2       3.252 -26.196  21.322  1.00 40.88 LIG-0.35  N 
ATOM     20  C   GLU B   1       4.368 -26.567  21.957  1.00 50.16 LIG 0.25  C 
ATOM     21 O    GLU B   1       5.449 -26.695  21.375  1.00 45.73 LIG-0.27  OA
ATOM     22 H    LYS B   2       2.466 -26.172  21.672  1.00 40.88 LIG 0.16  HD
BRANCH 20 23
ATOM     23  CA  GLU B   1       4.274 -26.862  23.455  1.00 56.89 LIG 0.28  C 
BRANCH 23 24
ATOM     24  CB  GLU B   1       4.908 -28.218  23.759  1.00 44.84 LIG 0.05  C 
BRANCH 24 25
ATOM     25  CG  GLU B   1       4.822 -29.209  22.609  1.00 43.84 LIG 0.12  C 
BRANCH 25 26
ATOM     26  CD  GLU B   1       3.396 -29.650  22.315  1.00 58.57 LIG 0.17  C 
ATOM     27 OE1  GLU B   1       3.193 -30.384  21.322  1.00 59.35 LIG-0.65  OA
ATOM     28 OE2  GLU B   1       2.480 -29.258  23.074  1.00 59.65 LIG-0.65  OA
ENDBRANCH 25 26
ENDBRANCH 24 25
ENDBRANCH 23 24
BRANCH 23 29
ATOM     29  N   GLU B   1       2.907 -26.797  23.958  1.00 43.96 LIG-0.07  N 
ATOM     30 H1   GLU B   1       2.916 -26.535  24.809  1.00 43.96 LIG 0.28  HD
ATOM     31 H2   GLU B   1       2.439 -26.216  23.474  1.00 43.96 LIG 0.28  HD
ATOM     32 H3   GLU B   1       2.531 -27.601  23.901  1.00 43.96 LIG 0.28  HD
ENDBRANCH 23 29
ENDBRANCH 20 23
ENDBRANCH 10 19
ENDBRANCH 8 10
ENDBRANCH 5 6
BRANCH 5 33
ATOM     33  CB  VAL B   3       2.977 -21.918  16.993  1.00 34.43 LIG 0.01  C 
ATOM     34  CG2 VAL B   3       4.312 -21.709  16.323  1.00 33.75 LIG 0.01  C 
ATOM     35  CG1 VAL B   3       2.123 -20.646  16.876  1.00 37.65 LIG 0.01  C 
ENDBRANCH 5 33
ENDBRANCH 1 5
BRANCH 3 36
ATOM     36  CA  HIS B   4       1.355 -19.667  20.693  1.00 28.98 LIG 0.18  C 
BRANCH 36 37
ATOM     37  CB  HIS B   4       0.110 -19.149  19.949  1.00 26.24 LIG 0.10  C 
BRANCH 37 38
ATOM     38  CG  HIS B   4      -0.901 -18.516  20.856  1.00 30.41 LIG 0.06  A 
ATOM     39 ND1  HIS B   4      -2.249 -18.800  20.783  1.00 34.08 LIG-0.24  NA
ATOM     40  CE1 HIS B   4      -2.895 -18.100  21.703  1.00 29.96 LIG 0.23  A 
ATOM     41 NE2  HIS B   4      -2.010 -17.390  22.380  1.00 35.16 LIG-0.25  NA
ATOM     42  CD2 HIS B   4      -0.755 -17.634  21.875  1.00 34.95 LIG 0.14  A 
ENDBRANCH 37 38
ENDBRANCH 36 37
BRANCH 36 43
ATOM     43  C   HIS B   4       0.950 -20.622  21.804  1.00 27.46 LIG 0.24  C 
ATOM     44 O    HIS B   4      -0.233 -20.742  22.143  1.00 25.24 LIG-0.27  OA
ATOM     45  N   VAL B   5       1.863 -21.164  22.466  1.00 26.31 LIG-0.35  N 
ATOM     46 H    VAL B   5       2.700 -21.111  22.274  1.00 26.31 LIG 0.16  HD
BRANCH 45 47
ATOM     47  CA  VAL B   5       1.555 -21.959  23.662  1.00 25.23 LIG 0.18  C 
BRANCH 47 48
ATOM     48  CB  VAL B   5       2.732 -22.893  24.033  1.00 26.56 LIG 0.01  C 
ATOM     49  CG2 VAL B   5       2.271 -23.962  25.013  1.00 31.17 LIG 0.01  C 
ATOM     50  CG1 VAL B   5       3.891 -22.122  24.619  1.00 34.68 LIG 0.01  C 
ENDBRANCH 47 48
BRANCH 47 51
ATOM     51  C   VAL B   5       1.174 -21.067  24.834  1.00 27.03 LIG 0.24  C 
ATOM     52  N   GLN B   6       1.670 -19.836  24.830  1.00 26.89 LIG-0.34  N 
ATOM     53 H    GLN B   6       2.188 -19.514  24.224  1.00 26.89 LIG 0.16  HD
ATOM     54 O    VAL B   5       0.426 -21.480  25.732  1.00 28.01 LIG-0.27  OA
BRANCH 52 55
ATOM     55  CA  GLN B   6       1.332 -18.919  25.922  1.00 25.51 LIG 0.19  C 
BRANCH 55 56
ATOM     56  C   GLN B   6      -0.079 -18.362  25.767  1.00 28.77 LIG 0.20  C 
ATOM     57 OXT  GLN B   6      -0.898 -18.855  24.965  1.00 27.06 LIG-0.65  OA
ATOM     58 O    GLN B   6      -0.423 -17.371  26.435  1.00 25.73 LIG-0.65  OA
ENDBRANCH 55 56
BRANCH 55 59
ATOM     59  CB  GLN B   6       2.308 -17.746  25.969  1.00 31.03 LIG 0.04  C 
BRANCH 59 60
ATOM     60  CG  GLN B   6       3.661 -18.073  26.550  1.00 39.52 LIG 0.10  C 
BRANCH 60 61
ATOM     61  CD  GLN B   6       3.536 -18.977  27.757  1.00 49.24 LIG 0.21  C 
ATOM     62  NE2 GLN B   6       3.339 -20.266  27.509  1.00 50.05 LIG-0.37  N 
ATOM     63 21HE GLN B   6       3.272 -20.541  26.697  1.00 50.05 LIG 0.16  HD
ATOM     64 22HE GLN B   6       3.279 -20.824  28.160  1.00 50.05 LIG 0.16  HD
ATOM     65 OE1  GLN B   6       3.640 -18.524  28.903  1.00 58.78 LIG-0.27  OA
ENDBRANCH 60 61
ENDBRANCH 59 60
ENDBRANCH 55 59
ENDBRANCH 52 55
ENDBRANCH 47 51
ENDBRANCH 45 47
ENDBRANCH 36 43
ENDBRANCH 3 36
TORSDOF 27
ENDMDL
MODEL 11
USER: ADFR SOLUTION from run 184
USER: SCORE 21.024351 LL:  -6.646 LR: -16.451 RR:   0.000 FEB:  -8.397
USER: RMSD 2.408435
USER: SEED 183
USER: STATUS no improvement in best in 2 clusters for 5 generations
USER: GENES 29
USER: genes 0 Translation |==|  0.34883 0.57211 0.42599
USER: genes 1 Rotation |==|  0.52267 0.53613 0.46221 0.99674
USER: genes 2 Torsion [N]-C--CA-[N] |==|  0.42120
USER: genes 3 Torsion [C]-CA--N-[C] |==|  0.82762
USER: genes 4 Torsion [N]-C--CA-[N] |==|  0.23243
USER: genes 5 Torsion [C]-CA--CB-[CG] |==|  0.25059
USER: genes 6 Torsion [CA]-CB--CG-[CD] |==|  0.30402
USER: genes 7 Torsion [CB]-CG--CD-[CE] |==|  0.79639
USER: genes 8 Torsion [CG]-CD--CE-[NZ] |==|  0.69218
USER: genes 9 Torsion [CD]-CE--NZ-[HZ1] |==|  0.55707
USER: genes 10 Torsion [C]-CA--N-[C] |==|  0.78861
USER: genes 11 Torsion [N]-C--CA-[N] |==|  0.56050
USER: genes 12 Torsion [C]-CA--CB-[CG] |==|  0.74879
USER: genes 13 Torsion [CA]-CB--CG-[CD] |==|  0.11983
USER: genes 14 Torsion [CB]-CG--CD-[OE1] |==|  0.22211
USER: genes 15 Torsion [C]-CA--N-[H1] |==|  0.43651
USER: genes 16 Torsion [C]-CA--CB-[CG2] |==|  0.56711
USER: genes 17 Torsion [C]-N--CA-[CB] |==|  0.78226
USER: genes 18 Torsion [N]-CA--CB-[CG] |==|  0.89394
USER: genes 19 Torsion [CA]-CB--CG-[ND1] |==|  0.25582
USER: genes 20 Torsion [N]-CA--C-[N] |==|  0.15098
USER: genes 21 Torsion [C]-N--CA-[CB] |==|  0.44995
USER: genes 22 Torsion [N]-CA--CB-[CG1] |==|  0.34050
USER: genes 23 Torsion [N]-CA--C-[N] |==|  0.91247
USER: genes 24 Torsion [C]-N--CA-[C] |==|  0.82438
USER: genes 25 Torsion [N]-CA--C-[OXT] |==|  0.98349
USER: genes 26 Torsion [N]-CA--CB-[CG] |==|  0.07489
USER: genes 27 Torsion [CA]-CB--CG-[CD] |==|  0.55503
USER: genes 28 Torsion [CB]-CG--CD-[OE1] |==|  0.11485
ROOT
ATOM      1  C   VAL B   3       1.686 -20.933  18.818  1.00 28.64 LIG 0.24  C 
ATOM      2 O    VAL B   3       0.720 -21.643  19.126  1.00 27.24 LIG-0.27  OA
ATOM      3  N   HIS B   4       1.905 -19.581  19.358  1.00 29.63 LIG-0.35  N 
ATOM      4 H    HIS B   4       2.513 -19.025  19.108  1.00 29.63 LIG 0.16  HD
ENDROOT
BRANCH 1 5
ATOM      5  CA  VAL B   3       2.724 -21.427  17.794  1.00 30.81 LIG 0.18  C 
BRANCH 5 6
ATOM      6  N   VAL B   3       2.812 -22.879  17.854  1.00 30.70 LIG-0.35  N 
ATOM      7 H    VAL B   3       2.593 -23.281  17.126  1.00 30.70 LIG 0.16  HD
ATOM      8  C   LYS B   2       3.205 -23.501  18.961  1.00 38.89 LIG 0.24  C 
ATOM      9 O    LYS B   2       3.583 -22.898  19.973  1.00 35.72 LIG-0.27  OA
BRANCH 8 10
ATOM     10  CA  LYS B   2       3.187 -25.023  18.911  1.00 39.86 LIG 0.18  C 
BRANCH 10 11
ATOM     11  CB  LYS B   2       2.944 -25.607  20.317  1.00 33.57 LIG 0.04  C 
BRANCH 11 12
ATOM     12  CG  LYS B   2       1.447 -25.812  20.624  1.00 34.54 LIG 0.00  C 
BRANCH 12 13
ATOM     13  CD  LYS B   2       1.032 -27.277  20.672  1.00 30.34 LIG 0.03  C 
BRANCH 13 14
ATOM     14  CE  LYS B   2       0.971 -27.931  19.305  1.00 26.25 LIG 0.23  C 
BRANCH 14 15
ATOM     15  NZ  LYS B   2      -0.450 -28.235  18.928  1.00 28.72 LIG-0.08  N 
ATOM     16 HZ2  LYS B   2      -0.892 -28.526  19.644  1.00 28.72 LIG 0.27  HD
ATOM     17 HZ3  LYS B   2      -0.840 -27.497  18.619  1.00 28.72 LIG 0.27  HD
ATOM     18 HZ1  LYS B   2      -0.462 -28.862  18.297  1.00 28.72 LIG 0.27  HD
ENDBRANCH 14 15
ENDBRANCH 13 14
ENDBRANCH 12 13
ENDBRANCH 11 12
ENDBRANCH 10 11
BRANCH 10 19
ATOM     19  N   LYS B   2       4.428 -25.499  18.291  1.00 40.88 LIG-0.35  N 
ATOM     20  C   GLU B   1       4.570 -25.406  16.966  1.00 50.16 LIG 0.25  C 
ATOM     21 O    GLU B   1       3.652 -25.043  16.225  1.00 45.73 LIG-0.27  OA
ATOM     22 H    LYS B   2       5.014 -25.822  18.832  1.00 40.88 LIG 0.16  HD
BRANCH 20 23
ATOM     23  CA  GLU B   1       5.922 -25.792  16.363  1.00 56.89 LIG 0.28  C 
BRANCH 23 24
ATOM     24  CB  GLU B   1       7.046 -25.426  17.330  1.00 44.84 LIG 0.05  C 
BRANCH 24 25
ATOM     25  CG  GLU B   1       7.603 -24.025  17.125  1.00 43.84 LIG 0.12  C 
BRANCH 25 26
ATOM     26  CD  GLU B   1       6.515 -22.987  16.894  1.00 58.57 LIG 0.17  C 
ATOM     27 OE1  GLU B   1       5.900 -22.538  17.888  1.00 59.35 LIG-0.65  OA
ATOM     28 OE2  GLU B   1       6.274 -22.624  15.721  1.00 59.65 LIG-0.65  OA
ENDBRANCH 25 26
ENDBRANCH 24 25
ENDBRANCH 23 24
BRANCH 23 29
ATOM     29  N   GLU B   1       6.145 -25.199  15.050  1.00 43.96 LIG-0.07  N 
ATOM     30 H1   GLU B   1       7.019 -25.162  14.886  1.00 43.96 LIG 0.28  HD
ATOM     31 H2   GLU B   1       5.747 -25.696  14.428  1.00 43.96 LIG 0.28  HD
ATOM     32 H3   GLU B   1       5.806 -24.377  15.034  1.00 43.96 LIG 0.28  HD
ENDBRANCH 23 29
ENDBRANCH 20 23
ENDBRANCH 10 19
ENDBRANCH 8 10
ENDBRANCH 5 6
BRANCH 5 33
ATOM     33  CB  VAL B   3       2.353 -20.952  16.382  1.00 34.43 LIG 0.01  C 
ATOM     34  CG2 VAL B   3       2.964 -21.866  15.349  1.00 33.75 LIG 0.01  C 
ATOM     35  CG1 VAL B   3       2.837 -19.511  16.164  1.00 37.65 LIG 0.01  C 
ENDBRANCH 5 33
ENDBRANCH 1 5
BRANCH 3 36
ATOM     36  CA  HIS B   4       1.009 -19.132  20.424  1.00 28.98 LIG 0.18  C 
BRANCH 36 37
ATOM     37  CB  HIS B   4      -0.352 -18.686  19.858  1.00 26.24 LIG 0.10  C 
BRANCH 37 38
ATOM     38  CG  HIS B   4      -0.241 -17.956  18.554  1.00 30.41 LIG 0.06  A 
ATOM     39 ND1  HIS B   4      -0.319 -18.594  17.333  1.00 34.08 LIG-0.24  NA
ATOM     40  CE1 HIS B   4      -0.190 -17.701  16.364  1.00 29.96 LIG 0.23  A 
ATOM     41 NE2  HIS B   4      -0.052 -16.509  16.914  1.00 35.16 LIG-0.25  NA
ATOM     42  CD2 HIS B   4      -0.083 -16.637  18.282  1.00 34.95 LIG 0.14  A 
ENDBRANCH 37 38
ENDBRANCH 36 37
BRANCH 36 43
ATOM     43  C   HIS B   4       0.817 -20.180  21.507  1.00 27.46 LIG 0.24  C 
ATOM     44 O    HIS B   4      -0.308 -20.451  21.939  1.00 25.24 LIG-0.27  OA
ATOM     45  N   VAL B   5       1.842 -20.645  22.054  1.00 26.31 LIG-0.35  N 
ATOM     46 H    VAL B   5       2.646 -20.486  21.794  1.00 26.31 LIG 0.16  HD
BRANCH 45 47
ATOM     47  CA  VAL B   5       1.735 -21.528  23.222  1.00 25.23 LIG 0.18  C 
BRANCH 47 48
ATOM     48  CB  VAL B   5       3.044 -22.323  23.446  1.00 26.56 LIG 0.01  C 
ATOM     49  CG2 VAL B   5       2.802 -23.811  23.243  1.00 31.17 LIG 0.01  C 
ATOM     50  CG1 VAL B   5       3.616 -22.078  24.823  1.00 34.68 LIG 0.01  C 
ENDBRANCH 47 48
BRANCH 47 51
ATOM     51  C   VAL B   5       1.350 -20.748  24.470  1.00 27.03 LIG 0.24  C 
ATOM     52  N   GLN B   6       1.778 -19.493  24.543  1.00 26.89 LIG-0.34  N 
ATOM     53 H    GLN B   6       2.257 -19.099  23.947  1.00 26.89 LIG 0.16  HD
ATOM     54 O    VAL B   5       0.657 -21.267  25.358  1.00 28.01 LIG-0.27  OA
BRANCH 52 55
ATOM     55  CA  GLN B   6       1.431 -18.679  25.712  1.00 25.51 LIG 0.19  C 
BRANCH 55 56
ATOM     56  C   GLN B   6      -0.075 -18.470  25.818  1.00 28.77 LIG 0.20  C 
ATOM     57 OXT  GLN B   6      -0.860 -18.860  24.929  1.00 27.06 LIG-0.65  OA
ATOM     58 O    GLN B   6      -0.542 -17.869  26.801  1.00 25.73 LIG-0.65  OA
ENDBRANCH 55 56
BRANCH 55 59
ATOM     59  CB  GLN B   6       2.102 -17.310  25.639  1.00 31.03 LIG 0.04  C 
BRANCH 59 60
ATOM     60  CG  GLN B   6       2.401 -16.826  24.243  1.00 39.52 LIG 0.10  C 
BRANCH 60 61
ATOM     61  CD  GLN B   6       3.460 -15.746  24.250  1.00 49.24 LIG 0.21  C 
ATOM     62  NE2 GLN B   6       3.245 -14.707  23.453  1.00 50.05 LIG-0.37  N 
ATOM     63 21HE GLN B   6       2.543 -14.683  22.958  1.00 50.05 LIG 0.16  HD
ATOM     64 22HE GLN B   6       3.809 -14.058  23.433  1.00 50.05 LIG 0.16  HD
ATOM     65 OE1  GLN B   6       4.451 -15.833  24.985  1.00 58.78 LIG-0.27  OA
ENDBRANCH 60 61
ENDBRANCH 59 60
ENDBRANCH 55 59
ENDBRANCH 52 55
ENDBRANCH 47 51
ENDBRANCH 45 47
ENDBRANCH 36 43
ENDBRANCH 3 36
TORSDOF 27
ENDMDL
MODEL 12
USER: ADFR SOLUTION from run 90
USER: SCORE 21.083268 LL:  -6.450 LR: -16.442 RR:   0.000 FEB:  -8.388
USER: RMSD 2.220989
USER: SEED 89
USER: STATUS 1 or 2 clusters left
USER: GENES 29
USER: genes 0 Translation |==|  0.35329 0.56469 0.43109
USER: genes 1 Rotation |==|  0.51432 0.54684 0.47909 0.99716
USER: genes 2 Torsion [N]-C--CA-[N] |==|  0.40609
USER: genes 3 Torsion [C]-CA--N-[C] |==|  0.79829
USER: genes 4 Torsion [N]-C--CA-[N] |==|  0.34105
USER: genes 5 Torsion [C]-CA--CB-[CG] |==|  0.19516
USER: genes 6 Torsion [CA]-CB--CG-[CD] |==|  0.34381
USER: genes 7 Torsion [CB]-CG--CD-[CE] |==|  0.77011
USER: genes 8 Torsion [CG]-CD--CE-[NZ] |==|  0.62253
USER: genes 9 Torsion [CD]-CE--NZ-[HZ1] |==|  0.54820
USER: genes 10 Torsion [C]-CA--N-[C] |==|  0.79817
USER: genes 11 Torsion [N]-C--CA-[N] |==|  0.32504
USER: genes 12 Torsion [C]-CA--CB-[CG] |==|  0.42017
USER: genes 13 Torsion [CA]-CB--CG-[CD] |==|  0.16994
USER: genes 14 Torsion [CB]-CG--CD-[OE1] |==|  0.30357
USER: genes 15 Torsion [C]-CA--N-[H1] |==|  0.81612
USER: genes 16 Torsion [C]-CA--CB-[CG2] |==|  0.57227
USER: genes 17 Torsion [C]-N--CA-[CB] |==|  0.76389
USER: genes 18 Torsion [N]-CA--CB-[CG] |==|  0.88561
USER: genes 19 Torsion [CA]-CB--CG-[ND1] |==|  0.24761
USER: genes 20 Torsion [N]-CA--C-[N] |==|  0.14541
USER: genes 21 Torsion [C]-N--CA-[CB] |==|  0.45944
USER: genes 22 Torsion [N]-CA--CB-[CG1] |==|  0.26705
USER: genes 23 Torsion [N]-CA--C-[N] |==|  0.92380
USER: genes 24 Torsion [C]-N--CA-[C] |==|  0.76254
USER: genes 25 Torsion [N]-CA--C-[OXT] |==|  0.02449
USER: genes 26 Torsion [N]-CA--CB-[CG] |==|  0.79185
USER: genes 27 Torsion [CA]-CB--CG-[CD] |==|  0.83117
USER: genes 28 Torsion [CB]-CG--CD-[OE1] |==|  0.73642
ROOT
ATOM      1  C   VAL B   3       1.766 -21.106  18.932  1.00 28.64 LIG 0.24  C 
ATOM      2 O    VAL B   3       0.867 -21.874  19.298  1.00 27.24 LIG-0.27  OA
ATOM      3  N   HIS B   4       1.910 -19.727  19.431  1.00 29.63 LIG-0.35  N 
ATOM      4 H    HIS B   4       2.465 -19.137  19.142  1.00 29.63 LIG 0.16  HD
ENDROOT
BRANCH 1 5
ATOM      5  CA  VAL B   3       2.794 -21.551  17.877  1.00 30.81 LIG 0.18  C 
BRANCH 5 6
ATOM      6  N   VAL B   3       3.086 -22.967  18.051  1.00 30.70 LIG-0.35  N 
ATOM      7 H    VAL B   3       2.751 -23.478  17.446  1.00 30.70 LIG 0.16  HD
ATOM      8  C   LYS B   2       3.814 -23.400  19.075  1.00 38.89 LIG 0.24  C 
ATOM      9 O    LYS B   2       4.344 -22.639  19.894  1.00 35.72 LIG-0.27  OA
BRANCH 8 10
ATOM     10  CA  LYS B   2       3.986 -24.910  19.178  1.00 39.86 LIG 0.18  C 
BRANCH 10 11
ATOM     11  CB  LYS B   2       3.242 -25.456  20.413  1.00 33.57 LIG 0.04  C 
BRANCH 11 12
ATOM     12  CG  LYS B   2       1.709 -25.398  20.257  1.00 34.54 LIG 0.00  C 
BRANCH 12 13
ATOM     13  CD  LYS B   2       1.028 -26.748  20.436  1.00 30.34 LIG 0.03  C 
BRANCH 13 14
ATOM     14  CE  LYS B   2       1.043 -27.601  19.183  1.00 26.25 LIG 0.23  C 
BRANCH 14 15
ATOM     15  NZ  LYS B   2      -0.300 -28.235  18.960  1.00 28.72 LIG-0.08  N 
ATOM     16 HZ2  LYS B   2      -0.619 -28.537  19.734  1.00 28.72 LIG 0.27  HD
ATOM     17 HZ3  LYS B   2      -0.861 -27.632  18.623  1.00 28.72 LIG 0.27  HD
ATOM     18 HZ1  LYS B   2      -0.217 -28.913  18.389  1.00 28.72 LIG 0.27  HD
ENDBRANCH 14 15
ENDBRANCH 13 14
ENDBRANCH 12 13
ENDBRANCH 11 12
ENDBRANCH 10 11
BRANCH 10 19
ATOM     19  N   LYS B   2       5.417 -25.233  19.173  1.00 40.88 LIG-0.35  N 
ATOM     20  C   GLU B   1       6.106 -25.116  18.033  1.00 50.16 LIG 0.25  C 
ATOM     21 O    GLU B   1       5.563 -24.859  16.955  1.00 45.73 LIG-0.27  OA
ATOM     22 H    LYS B   2       5.744 -25.488  19.926  1.00 40.88 LIG 0.16  HD
BRANCH 20 23
ATOM     23  CA  GLU B   1       7.619 -25.336  18.087  1.00 56.89 LIG 0.28  C 
BRANCH 23 24
ATOM     24  CB  GLU B   1       8.345 -24.061  17.664  1.00 44.84 LIG 0.05  C 
BRANCH 24 25
ATOM     25  CG  GLU B   1       9.718 -23.896  18.298  1.00 43.84 LIG 0.12  C 
BRANCH 25 26
ATOM     26  CD  GLU B   1      10.676 -25.019  17.930  1.00 58.57 LIG 0.17  C 
ATOM     27 OE1  GLU B   1      11.628 -24.760  17.158  1.00 59.35 LIG-0.65  OA
ATOM     28 OE2  GLU B   1      10.475 -26.159  18.407  1.00 59.65 LIG-0.65  OA
ENDBRANCH 25 26
ENDBRANCH 24 25
ENDBRANCH 23 24
BRANCH 23 29
ATOM     29  N   GLU B   1       8.052 -26.477  17.289  1.00 43.96 LIG-0.07  N 
ATOM     30 H1   GLU B   1       7.730 -27.227  17.644  1.00 43.96 LIG 0.28  HD
ATOM     31 H2   GLU B   1       7.749 -26.389  16.457  1.00 43.96 LIG 0.28  HD
ATOM     32 H3   GLU B   1       8.940 -26.512  17.279  1.00 43.96 LIG 0.28  HD
ENDBRANCH 23 29
ENDBRANCH 20 23
ENDBRANCH 10 19
ENDBRANCH 8 10
ENDBRANCH 5 6
BRANCH 5 33
ATOM     33  CB  VAL B   3       2.271 -21.264  16.463  1.00 34.43 LIG 0.01  C 
ATOM     34  CG2 VAL B   3       2.901 -22.212  15.473  1.00 33.75 LIG 0.01  C 
ATOM     35  CG1 VAL B   3       2.578 -19.810  16.071  1.00 37.65 LIG 0.01  C 
ENDBRANCH 5 33
ENDBRANCH 1 5
BRANCH 3 36
ATOM     36  CA  HIS B   4       1.028 -19.315  20.523  1.00 28.98 LIG 0.18  C 
BRANCH 36 37
ATOM     37  CB  HIS B   4      -0.331 -18.826  19.989  1.00 26.24 LIG 0.10  C 
BRANCH 37 38
ATOM     38  CG  HIS B   4      -0.214 -17.980  18.758  1.00 30.41 LIG 0.06  A 
ATOM     39 ND1  HIS B   4      -0.220 -18.510  17.484  1.00 34.08 LIG-0.24  NA
ATOM     40  CE1 HIS B   4      -0.104 -17.531  16.601  1.00 29.96 LIG 0.23  A 
ATOM     41 NE2  HIS B   4      -0.044 -16.386  17.257  1.00 35.16 LIG-0.25  NA
ATOM     42  CD2 HIS B   4      -0.114 -16.636  18.607  1.00 34.95 LIG 0.14  A 
ENDBRANCH 37 38
ENDBRANCH 36 37
BRANCH 36 43
ATOM     43  C   HIS B   4       0.829 -20.408  21.560  1.00 27.46 LIG 0.24  C 
ATOM     44 O    HIS B   4      -0.291 -20.658  22.015  1.00 25.24 LIG-0.27  OA
ATOM     45  N   VAL B   5       1.852 -20.938  22.049  1.00 26.31 LIG-0.35  N 
ATOM     46 H    VAL B   5       2.654 -20.796  21.769  1.00 26.31 LIG 0.16  HD
BRANCH 45 47
ATOM     47  CA  VAL B   5       1.749 -21.874  23.175  1.00 25.23 LIG 0.18  C 
BRANCH 47 48
ATOM     48  CB  VAL B   5       3.064 -22.666  23.369  1.00 26.56 LIG 0.01  C 
ATOM     49  CG2 VAL B   5       2.762 -24.109  23.744  1.00 31.17 LIG 0.01  C 
ATOM     50  CG1 VAL B   5       3.945 -22.034  24.420  1.00 34.68 LIG 0.01  C 
ENDBRANCH 47 48
BRANCH 47 51
ATOM     51  C   VAL B   5       1.351 -21.154  24.455  1.00 27.03 LIG 0.24  C 
ATOM     52  N   GLN B   6       1.696 -19.875  24.550  1.00 26.89 LIG-0.34  N 
ATOM     53 H    GLN B   6       2.128 -19.434  23.952  1.00 26.89 LIG 0.16  HD
ATOM     54 O    VAL B   5       0.723 -21.742  25.348  1.00 28.01 LIG-0.27  OA
BRANCH 52 55
ATOM     55  CA  GLN B   6       1.332 -19.117  25.751  1.00 25.51 LIG 0.19  C 
BRANCH 55 56
ATOM     56  C   GLN B   6      -0.077 -18.545  25.643  1.00 28.77 LIG 0.20  C 
ATOM     57 OXT  GLN B   6      -0.847 -18.860  24.714  1.00 27.06 LIG-0.65  OA
ATOM     58 O    GLN B   6      -0.468 -17.719  26.486  1.00 25.73 LIG-0.65  OA
ENDBRANCH 55 56
BRANCH 55 59
ATOM     59  CB  GLN B   6       2.303 -17.962  25.980  1.00 31.03 LIG 0.04  C 
BRANCH 59 60
ATOM     60  CG  GLN B   6       3.654 -18.369  26.514  1.00 39.52 LIG 0.10  C 
BRANCH 60 61
ATOM     61  CD  GLN B   6       3.529 -19.052  27.858  1.00 49.24 LIG 0.21  C 
ATOM     62  NE2 GLN B   6       3.306 -20.360  27.834  1.00 50.05 LIG-0.37  N 
ATOM     63 21HE GLN B   6       3.223 -20.768  27.082  1.00 50.05 LIG 0.16  HD
ATOM     64 22HE GLN B   6       3.244 -20.798  28.571  1.00 50.05 LIG 0.16  HD
ATOM     65 OE1  GLN B   6       3.657 -18.414  28.910  1.00 58.78 LIG-0.27  OA
ENDBRANCH 60 61
ENDBRANCH 59 60
ENDBRANCH 55 59
ENDBRANCH 52 55
ENDBRANCH 47 51
ENDBRANCH 45 47
ENDBRANCH 36 43
ENDBRANCH 3 36
TORSDOF 27
ENDMDL
MODEL 13
USER: ADFR SOLUTION from run 65
USER: SCORE 20.890623 LL:  -6.507 LR: -16.210 RR:   0.000 FEB:  -8.156
USER: RMSD 3.607773
USER: SEED 64
USER: STATUS 1 or 2 clusters left
USER: GENES 29
USER: genes 0 Translation |==|  0.36372 0.55333 0.43245
USER: genes 1 Rotation |==|  0.49959 0.52568 0.48003 0.99894
USER: genes 2 Torsion [N]-C--CA-[N] |==|  0.37221
USER: genes 3 Torsion [C]-CA--N-[C] |==|  0.85346
USER: genes 4 Torsion [N]-C--CA-[N] |==|  0.39984
USER: genes 5 Torsion [C]-CA--CB-[CG] |==|  0.12808
USER: genes 6 Torsion [CA]-CB--CG-[CD] |==|  0.49271
USER: genes 7 Torsion [CB]-CG--CD-[CE] |==|  0.79576
USER: genes 8 Torsion [CG]-CD--CE-[NZ] |==|  0.62938
USER: genes 9 Torsion [CD]-CE--NZ-[HZ1] |==|  0.74099
USER: genes 10 Torsion [C]-CA--N-[C] |==|  0.82066
USER: genes 11 Torsion [N]-C--CA-[N] |==|  0.45748
USER: genes 12 Torsion [C]-CA--CB-[CG] |==|  0.51454
USER: genes 13 Torsion [CA]-CB--CG-[CD] |==|  0.92218
USER: genes 14 Torsion [CB]-CG--CD-[OE1] |==|  0.29523
USER: genes 15 Torsion [C]-CA--N-[H1] |==|  0.42491
USER: genes 16 Torsion [C]-CA--CB-[CG2] |==|  0.56700
USER: genes 17 Torsion [C]-N--CA-[CB] |==|  0.77606
USER: genes 18 Torsion [N]-CA--CB-[CG] |==|  0.87817
USER: genes 19 Torsion [CA]-CB--CG-[ND1] |==|  0.71878
USER: genes 20 Torsion [N]-CA--C-[N] |==|  0.13343
USER: genes 21 Torsion [C]-N--CA-[CB] |==|  0.46064
USER: genes 22 Torsion [N]-CA--CB-[CG1] |==|  0.24233
USER: genes 23 Torsion [N]-CA--C-[N] |==|  0.90877
USER: genes 24 Torsion [C]-N--CA-[C] |==|  0.80928
USER: genes 25 Torsion [N]-CA--C-[OXT] |==|  0.99147
USER: genes 26 Torsion [N]-CA--CB-[CG] |==|  0.10628
USER: genes 27 Torsion [CA]-CB--CG-[CD] |==|  0.53087
USER: genes 28 Torsion [CB]-CG--CD-[OE1] |==|  0.09713
ROOT
ATOM      1  C   VAL B   3       1.954 -21.370  18.963  1.00 28.64 LIG 0.24  C 
ATOM      2 O    VAL B   3       1.032 -22.123  19.301  1.00 27.24 LIG-0.27  OA
ATOM      3  N   HIS B   4       2.049 -19.962  19.385  1.00 29.63 LIG-0.35  N 
ATOM      4 H    HIS B   4       2.624 -19.385  19.106  1.00 29.63 LIG 0.16  HD
ENDROOT
BRANCH 1 5
ATOM      5  CA  VAL B   3       3.067 -21.870  18.026  1.00 30.81 LIG 0.18  C 
BRANCH 5 6
ATOM      6  N   VAL B   3       3.551 -23.161  18.492  1.00 30.70 LIG-0.35  N 
ATOM      7 H    VAL B   3       3.553 -23.780  17.895  1.00 30.70 LIG 0.16  HD
ATOM      8  C   LYS B   2       3.952 -23.335  19.748  1.00 38.89 LIG 0.24  C 
ATOM      9 O    LYS B   2       4.008 -22.412  20.570  1.00 35.72 LIG-0.27  OA
BRANCH 8 10
ATOM     10  CA  LYS B   2       4.369 -24.751  20.123  1.00 39.86 LIG 0.18  C 
BRANCH 10 11
ATOM     11  CB  LYS B   2       3.164 -25.543  20.667  1.00 33.57 LIG 0.04  C 
BRANCH 11 12
ATOM     12  CG  LYS B   2       1.901 -25.376  19.797  1.00 34.54 LIG 0.00  C 
BRANCH 12 13
ATOM     13  CD  LYS B   2       0.716 -26.200  20.281  1.00 30.34 LIG 0.03  C 
BRANCH 13 14
ATOM     14  CE  LYS B   2       0.859 -27.683  20.002  1.00 26.25 LIG 0.23  C 
BRANCH 14 15
ATOM     15  NZ  LYS B   2      -0.406 -28.235  19.413  1.00 28.72 LIG-0.08  N 
ATOM     16 HZ2  LYS B   2      -0.842 -27.587  18.985  1.00 28.72 LIG 0.27  HD
ATOM     17 HZ3  LYS B   2      -0.208 -28.886  18.840  1.00 28.72 LIG 0.27  HD
ATOM     18 HZ1  LYS B   2      -0.920 -28.559  20.063  1.00 28.72 LIG 0.27  HD
ENDBRANCH 14 15
ENDBRANCH 13 14
ENDBRANCH 12 13
ENDBRANCH 11 12
ENDBRANCH 10 11
BRANCH 10 19
ATOM     19  N   LYS B   2       5.494 -24.688  21.063  1.00 40.88 LIG-0.35  N 
ATOM     20  C   GLU B   1       6.657 -24.175  20.651  1.00 50.16 LIG 0.25  C 
ATOM     21 O    GLU B   1       6.862 -23.858  19.476  1.00 45.73 LIG-0.27  OA
ATOM     22 H    LYS B   2       5.338 -24.995  21.851  1.00 40.88 LIG 0.16  HD
BRANCH 20 23
ATOM     23  CA  GLU B   1       7.770 -24.006  21.687  1.00 56.89 LIG 0.28  C 
BRANCH 23 24
ATOM     24  CB  GLU B   1       7.413 -22.880  22.655  1.00 44.84 LIG 0.05  C 
BRANCH 24 25
ATOM     25  CG  GLU B   1       8.516 -22.550  23.648  1.00 43.84 LIG 0.12  C 
BRANCH 25 26
ATOM     26  CD  GLU B   1       9.409 -23.742  23.956  1.00 58.57 LIG 0.17  C 
ATOM     27 OE1  GLU B   1      10.563 -23.761  23.470  1.00 59.35 LIG-0.65  OA
ATOM     28 OE2  GLU B   1       8.956 -24.659  24.677  1.00 59.65 LIG-0.65  OA
ENDBRANCH 25 26
ENDBRANCH 24 25
ENDBRANCH 23 24
BRANCH 23 29
ATOM     29  N   GLU B   1       9.076 -23.782  21.080  1.00 43.96 LIG-0.07  N 
ATOM     30 H1   GLU B   1       9.589 -23.319  21.641  1.00 43.96 LIG 0.28  HD
ATOM     31 H2   GLU B   1       9.461 -24.566  20.905  1.00 43.96 LIG 0.28  HD
ATOM     32 H3   GLU B   1       8.978 -23.325  20.324  1.00 43.96 LIG 0.28  HD
ENDBRANCH 23 29
ENDBRANCH 20 23
ENDBRANCH 10 19
ENDBRANCH 8 10
ENDBRANCH 5 6
BRANCH 5 33
ATOM     33  CB  VAL B   3       2.554 -21.960  16.582  1.00 34.43 LIG 0.01  C 
ATOM     34  CG2 VAL B   3       3.373 -22.956  15.800  1.00 33.75 LIG 0.01  C 
ATOM     35  CG1 VAL B   3       2.619 -20.580  15.910  1.00 37.65 LIG 0.01  C 
ENDBRANCH 5 33
ENDBRANCH 1 5
BRANCH 3 36
ATOM     36  CA  HIS B   4       1.079 -19.491  20.373  1.00 28.98 LIG 0.18  C 
BRANCH 36 37
ATOM     37  CB  HIS B   4      -0.271 -19.152  19.713  1.00 26.24 LIG 0.10  C 
BRANCH 37 38
ATOM     38  CG  HIS B   4      -0.127 -18.383  18.435  1.00 30.41 LIG 0.06  A 
ATOM     39 ND1  HIS B   4      -0.321 -17.019  18.360  1.00 34.08 LIG-0.24  NA
ATOM     40  CE1 HIS B   4      -0.126 -16.617  17.114  1.00 29.96 LIG 0.23  A 
ATOM     41 NE2  HIS B   4       0.207 -17.667  16.386  1.00 35.16 LIG-0.25  NA
ATOM     42  CD2 HIS B   4       0.218 -18.785  17.187  1.00 34.95 LIG 0.14  A 
ENDBRANCH 37 38
ENDBRANCH 36 37
BRANCH 36 43
ATOM     43  C   HIS B   4       0.880 -20.476  21.513  1.00 27.46 LIG 0.24  C 
ATOM     44 O    HIS B   4      -0.243 -20.689  21.983  1.00 25.24 LIG-0.27  OA
ATOM     45  N   VAL B   5       1.902 -20.947  22.060  1.00 26.31 LIG-0.35  N 
ATOM     46 H    VAL B   5       2.705 -20.827  21.774  1.00 26.31 LIG 0.16  HD
BRANCH 45 47
ATOM     47  CA  VAL B   5       1.796 -21.765  23.275  1.00 25.23 LIG 0.18  C 
BRANCH 47 48
ATOM     48  CB  VAL B   5       3.119 -22.516  23.563  1.00 26.56 LIG 0.01  C 
ATOM     49  CG2 VAL B   5       2.838 -23.827  24.280  1.00 31.17 LIG 0.01  C 
ATOM     50  CG1 VAL B   5       4.070 -21.674  24.381  1.00 34.68 LIG 0.01  C 
ENDBRANCH 47 48
BRANCH 47 51
ATOM     51  C   VAL B   5       1.373 -20.926  24.471  1.00 27.03 LIG 0.24  C 
ATOM     52  N   GLN B   6       1.795 -19.667  24.493  1.00 26.89 LIG-0.34  N 
ATOM     53 H    GLN B   6       2.289 -19.301  23.892  1.00 26.89 LIG 0.16  HD
ATOM     54 O    VAL B   5       0.657 -21.403  25.363  1.00 28.01 LIG-0.27  OA
BRANCH 52 55
ATOM     55  CA  GLN B   6       1.412 -18.798  25.609  1.00 25.51 LIG 0.19  C 
BRANCH 55 56
ATOM     56  C   GLN B   6      -0.079 -18.482  25.584  1.00 28.77 LIG 0.20  C 
ATOM     57 OXT  GLN B   6      -0.824 -18.888  24.669  1.00 27.06 LIG-0.65  OA
ATOM     58 O    GLN B   6      -0.571 -17.777  26.483  1.00 25.73 LIG-0.65  OA
ENDBRANCH 55 56
BRANCH 55 59
ATOM     59  CB  GLN B   6       2.182 -17.481  25.562  1.00 31.03 LIG 0.04  C 
BRANCH 59 60
ATOM     60  CG  GLN B   6       2.395 -16.923  24.176  1.00 39.52 LIG 0.10  C 
BRANCH 60 61
ATOM     61  CD  GLN B   6       3.384 -15.779  24.191  1.00 49.24 LIG 0.21  C 
ATOM     62  NE2 GLN B   6       3.143 -14.782  23.349  1.00 50.05 LIG-0.37  N 
ATOM     63 21HE GLN B   6       2.463 -14.819  22.824  1.00 50.05 LIG 0.16  HD
ATOM     64 22HE GLN B   6       3.666 -14.100  23.330  1.00 50.05 LIG 0.16  HD
ATOM     65 OE1  GLN B   6       4.346 -15.780  24.969  1.00 58.78 LIG-0.27  OA
ENDBRANCH 60 61
ENDBRANCH 59 60
ENDBRANCH 55 59
ENDBRANCH 52 55
ENDBRANCH 47 51
ENDBRANCH 45 47
ENDBRANCH 36 43
ENDBRANCH 3 36
TORSDOF 27
ENDMDL
MODEL 14
USER: ADFR SOLUTION from run 65
USER: SCORE 20.295799 LL:  -6.026 LR: -16.125 RR:   0.000 FEB:  -8.071
USER: RMSD 2.175138
USER: SEED 64
USER: STATUS 1 or 2 clusters left
USER: GENES 29
USER: genes 0 Translation |==|  0.35474 0.56591 0.42984
USER: genes 1 Rotation |==|  0.50655 0.53924 0.47337 0.99770
USER: genes 2 Torsion [N]-C--CA-[N] |==|  0.40159
USER: genes 3 Torsion [C]-CA--N-[C] |==|  0.82011
USER: genes 4 Torsion [N]-C--CA-[N] |==|  0.33486
USER: genes 5 Torsion [C]-CA--CB-[CG] |==|  0.19084
USER: genes 6 Torsion [CA]-CB--CG-[CD] |==|  0.34874
USER: genes 7 Torsion [CB]-CG--CD-[CE] |==|  0.78106
USER: genes 8 Torsion [CG]-CD--CE-[NZ] |==|  0.62753
USER: genes 9 Torsion [CD]-CE--NZ-[HZ1] |==|  0.53457
USER: genes 10 Torsion [C]-CA--N-[C] |==|  0.81563
USER: genes 11 Torsion [N]-C--CA-[N] |==|  0.85460
USER: genes 12 Torsion [C]-CA--CB-[CG] |==|  0.97529
USER: genes 13 Torsion [CA]-CB--CG-[CD] |==|  0.72573
USER: genes 14 Torsion [CB]-CG--CD-[OE1] |==|  0.03251
USER: genes 15 Torsion [C]-CA--N-[H1] |==|  0.45784
USER: genes 16 Torsion [C]-CA--CB-[CG2] |==|  0.60181
USER: genes 17 Torsion [C]-N--CA-[CB] |==|  0.76852
USER: genes 18 Torsion [N]-CA--CB-[CG] |==|  0.91193
USER: genes 19 Torsion [CA]-CB--CG-[ND1] |==|  0.70252
USER: genes 20 Torsion [N]-CA--C-[N] |==|  0.13889
USER: genes 21 Torsion [C]-N--CA-[CB] |==|  0.46084
USER: genes 22 Torsion [N]-CA--CB-[CG1] |==|  0.25689
USER: genes 23 Torsion [N]-CA--C-[N] |==|  0.91643
USER: genes 24 Torsion [C]-N--CA-[C] |==|  0.81198
USER: genes 25 Torsion [N]-CA--C-[OXT] |==|  0.98679
USER: genes 26 Torsion [N]-CA--CB-[CG] |==|  0.09807
USER: genes 27 Torsion [CA]-CB--CG-[CD] |==|  0.53845
USER: genes 28 Torsion [CB]-CG--CD-[OE1] |==|  0.10432
ROOT
ATOM      1  C   VAL B   3       1.792 -21.078  18.904  1.00 28.64 LIG 0.24  C 
ATOM      2 O    VAL B   3       0.868 -21.815  19.270  1.00 27.24 LIG-0.27  OA
ATOM      3  N   HIS B   4       1.951 -19.686  19.360  1.00 29.63 LIG-0.35  N 
ATOM      4 H    HIS B   4       2.526 -19.117  19.066  1.00 29.63 LIG 0.16  HD
ENDROOT
BRANCH 1 5
ATOM      5  CA  VAL B   3       2.840 -21.580  17.895  1.00 30.81 LIG 0.18  C 
BRANCH 5 6
ATOM      6  N   VAL B   3       3.125 -22.985  18.150  1.00 30.70 LIG-0.35  N 
ATOM      7 H    VAL B   3       2.895 -23.518  17.515  1.00 30.70 LIG 0.16  HD
ATOM      8  C   LYS B   2       3.696 -23.378  19.284  1.00 38.89 LIG 0.24  C 
ATOM      9 O    LYS B   2       4.082 -22.586  20.153  1.00 35.72 LIG-0.27  OA
BRANCH 8 10
ATOM     10  CA  LYS B   2       3.875 -24.881  19.454  1.00 39.86 LIG 0.18  C 
BRANCH 10 11
ATOM     11  CB  LYS B   2       3.003 -25.402  20.612  1.00 33.57 LIG 0.04  C 
BRANCH 11 12
ATOM     12  CG  LYS B   2       1.495 -25.338  20.296  1.00 34.54 LIG 0.00  C 
BRANCH 12 13
ATOM     13  CD  LYS B   2       0.781 -26.673  20.466  1.00 30.34 LIG 0.03  C 
BRANCH 13 14
ATOM     14  CE  LYS B   2       0.992 -27.622  19.303  1.00 26.25 LIG 0.23  C 
BRANCH 14 15
ATOM     15  NZ  LYS B   2      -0.309 -28.243  18.885  1.00 28.72 LIG-0.08  N 
ATOM     16 HZ2  LYS B   2      -0.741 -28.541  19.604  1.00 28.72 LIG 0.27  HD
ATOM     17 HZ3  LYS B   2      -0.809 -27.635  18.470  1.00 28.72 LIG 0.27  HD
ATOM     18 HZ1  LYS B   2      -0.150 -28.922  18.332  1.00 28.72 LIG 0.27  HD
ENDBRANCH 14 15
ENDBRANCH 13 14
ENDBRANCH 12 13
ENDBRANCH 11 12
ENDBRANCH 10 11
BRANCH 10 19
ATOM     19  N   LYS B   2       5.301 -25.179  19.621  1.00 40.88 LIG-0.35  N 
ATOM     20  C   GLU B   1       6.136 -24.963  18.600  1.00 50.16 LIG 0.25  C 
ATOM     21 O    GLU B   1       5.738 -24.632  17.478  1.00 45.73 LIG-0.27  OA
ATOM     22 H    LYS B   2       5.529 -25.487  20.392  1.00 40.88 LIG 0.16  HD
BRANCH 20 23
ATOM     23  CA  GLU B   1       7.632 -25.163  18.845  1.00 56.89 LIG 0.28  C 
BRANCH 23 24
ATOM     24  CB  GLU B   1       7.944 -26.653  18.973  1.00 44.84 LIG 0.05  C 
BRANCH 24 25
ATOM     25  CG  GLU B   1       6.708 -27.536  19.045  1.00 43.84 LIG 0.12  C 
BRANCH 25 26
ATOM     26  CD  GLU B   1       6.348 -27.933  20.468  1.00 58.57 LIG 0.17  C 
ATOM     27 OE1  GLU B   1       6.923 -27.345  21.413  1.00 59.35 LIG-0.65  OA
ATOM     28 OE2  GLU B   1       5.497 -28.834  20.642  1.00 59.65 LIG-0.65  OA
ENDBRANCH 25 26
ENDBRANCH 24 25
ENDBRANCH 23 24
BRANCH 23 29
ATOM     29  N   GLU B   1       8.118 -24.424  20.003  1.00 43.96 LIG-0.07  N 
ATOM     30 H1   GLU B   1       8.919 -24.733  20.238  1.00 43.96 LIG 0.28  HD
ATOM     31 H2   GLU B   1       8.183 -23.560  19.798  1.00 43.96 LIG 0.28  HD
ATOM     32 H3   GLU B   1       7.551 -24.526  20.680  1.00 43.96 LIG 0.28  HD
ENDBRANCH 23 29
ENDBRANCH 20 23
ENDBRANCH 10 19
ENDBRANCH 8 10
ENDBRANCH 5 6
BRANCH 5 33
ATOM     33  CB  VAL B   3       2.345 -21.368  16.457  1.00 34.43 LIG 0.01  C 
ATOM     34  CG2 VAL B   3       2.782 -22.516  15.583  1.00 33.75 LIG 0.01  C 
ATOM     35  CG1 VAL B   3       2.890 -20.044  15.901  1.00 37.65 LIG 0.01  C 
ENDBRANCH 5 33
ENDBRANCH 1 5
BRANCH 3 36
ATOM     36  CA  HIS B   4       1.048 -19.218  20.411  1.00 28.98 LIG 0.18  C 
BRANCH 36 37
ATOM     37  CB  HIS B   4      -0.301 -18.759  19.825  1.00 26.24 LIG 0.10  C 
BRANCH 37 38
ATOM     38  CG  HIS B   4      -0.182 -18.178  18.449  1.00 30.41 LIG 0.06  A 
ATOM     39 ND1  HIS B   4      -0.307 -16.828  18.196  1.00 34.08 LIG-0.24  NA
ATOM     40  CE1 HIS B   4      -0.153 -16.609  16.899  1.00 29.96 LIG 0.23  A 
ATOM     41 NE2  HIS B   4       0.086 -17.766  16.309  1.00 35.16 LIG-0.25  NA
ATOM     42  CD2 HIS B   4       0.078 -18.765  17.255  1.00 34.95 LIG 0.14  A 
ENDBRANCH 37 38
ENDBRANCH 36 37
BRANCH 36 43
ATOM     43  C   HIS B   4       0.829 -20.256  21.499  1.00 27.46 LIG 0.24  C 
ATOM     44 O    HIS B   4      -0.294 -20.453  21.975  1.00 25.24 LIG-0.27  OA
ATOM     45  N   VAL B   5       1.841 -20.791  22.004  1.00 26.31 LIG-0.35  N 
ATOM     46 H    VAL B   5       2.643 -20.685  21.711  1.00 26.31 LIG 0.16  HD
BRANCH 45 47
ATOM     47  CA  VAL B   5       1.723 -21.670  23.174  1.00 25.23 LIG 0.18  C 
BRANCH 47 48
ATOM     48  CB  VAL B   5       3.021 -22.481  23.400  1.00 26.56 LIG 0.01  C 
ATOM     49  CG2 VAL B   5       2.694 -23.869  23.931  1.00 31.17 LIG 0.01  C 
ATOM     50  CG1 VAL B   5       3.959 -21.774  24.351  1.00 34.68 LIG 0.01  C 
ENDBRANCH 47 48
BRANCH 47 51
ATOM     51  C   VAL B   5       1.345 -20.883  24.420  1.00 27.03 LIG 0.24  C 
ATOM     52  N   GLN B   6       1.764 -19.624  24.477  1.00 26.89 LIG-0.34  N 
ATOM     53 H    GLN B   6       2.233 -19.231  23.872  1.00 26.89 LIG 0.16  HD
ATOM     54 O    VAL B   5       0.667 -21.400  25.320  1.00 28.01 LIG-0.27  OA
BRANCH 52 55
ATOM     55  CA  GLN B   6       1.425 -18.804  25.643  1.00 25.51 LIG 0.19  C 
BRANCH 55 56
ATOM     56  C   GLN B   6      -0.071 -18.514  25.704  1.00 28.77 LIG 0.20  C 
ATOM     57 OXT  GLN B   6      -0.850 -18.872  24.797  1.00 27.06 LIG-0.65  OA
ATOM     58 O    GLN B   6      -0.532 -17.878  26.668  1.00 25.73 LIG-0.65  OA
ENDBRANCH 55 56
BRANCH 55 59
ATOM     59  CB  GLN B   6       2.170 -17.472  25.607  1.00 31.03 LIG 0.04  C 
BRANCH 59 60
ATOM     60  CG  GLN B   6       2.365 -16.895  24.227  1.00 39.52 LIG 0.10  C 
BRANCH 60 61
ATOM     61  CD  GLN B   6       3.384 -15.777  24.238  1.00 49.24 LIG 0.21  C 
ATOM     62  NE2 GLN B   6       3.122 -14.734  23.460  1.00 50.05 LIG-0.37  N 
ATOM     63 21HE GLN B   6       2.413 -14.729  22.974  1.00 50.05 LIG 0.16  HD
ATOM     64 22HE GLN B   6       3.661 -14.065  23.444  1.00 50.05 LIG 0.16  HD
ATOM     65 OE1  GLN B   6       4.388 -15.839  24.959  1.00 58.78 LIG-0.27  OA
ENDBRANCH 60 61
ENDBRANCH 59 60
ENDBRANCH 55 59
ENDBRANCH 52 55
ENDBRANCH 47 51
ENDBRANCH 45 47
ENDBRANCH 36 43
ENDBRANCH 3 36
TORSDOF 27
ENDMDL
MODEL 15
USER: ADFR SOLUTION from run 65
USER: SCORE 20.193787 LL:  -6.035 LR: -16.114 RR:   0.000 FEB:  -8.060
USER: RMSD 1.927145
USER: SEED 64
USER: STATUS 1 or 2 clusters left
USER: GENES 29
USER: genes 0 Translation |==|  0.35947 0.56257 0.43146
USER: genes 1 Rotation |==|  0.50592 0.53364 0.47050 0.99796
USER: genes 2 Torsion [N]-C--CA-[N] |==|  0.46015
USER: genes 3 Torsion [C]-CA--N-[C] |==|  0.66054
USER: genes 4 Torsion [N]-C--CA-[N] |==|  0.34832
USER: genes 5 Torsion [C]-CA--CB-[CG] |==|  0.24362
USER: genes 6 Torsion [CA]-CB--CG-[CD] |==|  0.29215
USER: genes 7 Torsion [CB]-CG--CD-[CE] |==|  0.82630
USER: genes 8 Torsion [CG]-CD--CE-[NZ] |==|  0.61811
USER: genes 9 Torsion [CD]-CE--NZ-[HZ1] |==|  0.57328
USER: genes 10 Torsion [C]-CA--N-[C] |==|  0.81605
USER: genes 11 Torsion [N]-C--CA-[N] |==|  0.84451
USER: genes 12 Torsion [C]-CA--CB-[CG] |==|  0.09094
USER: genes 13 Torsion [CA]-CB--CG-[CD] |==|  0.72061
USER: genes 14 Torsion [CB]-CG--CD-[OE1] |==|  0.00736
USER: genes 15 Torsion [C]-CA--N-[H1] |==|  0.45759
USER: genes 16 Torsion [C]-CA--CB-[CG2] |==|  0.61957
USER: genes 17 Torsion [C]-N--CA-[CB] |==|  0.77162
USER: genes 18 Torsion [N]-CA--CB-[CG] |==|  0.91069
USER: genes 19 Torsion [CA]-CB--CG-[ND1] |==|  0.69663
USER: genes 20 Torsion [N]-CA--C-[N] |==|  0.13950
USER: genes 21 Torsion [C]-N--CA-[CB] |==|  0.46082
USER: genes 22 Torsion [N]-CA--CB-[CG1] |==|  0.25687
USER: genes 23 Torsion [N]-CA--C-[N] |==|  0.91581
USER: genes 24 Torsion [C]-N--CA-[C] |==|  0.81199
USER: genes 25 Torsion [N]-CA--C-[OXT] |==|  0.98649
USER: genes 26 Torsion [N]-CA--CB-[CG] |==|  0.09835
USER: genes 27 Torsion [CA]-CB--CG-[CD] |==|  0.53829
USER: genes 28 Torsion [CB]-CG--CD-[OE1] |==|  0.10450
ROOT
ATOM      1  C   VAL B   3       1.877 -21.155  18.941  1.00 28.64 LIG 0.24  C 
ATOM      2 O    VAL B   3       0.937 -21.880  19.289  1.00 27.24 LIG-0.27  OA
ATOM      3  N   HIS B   4       2.042 -19.763  19.393  1.00 29.63 LIG-0.35  N 
ATOM      4 H    HIS B   4       2.630 -19.202  19.110  1.00 29.63 LIG 0.16  HD
ENDROOT
BRANCH 1 5
ATOM      5  CA  VAL B   3       2.941 -21.674  17.957  1.00 30.81 LIG 0.18  C 
BRANCH 5 6
ATOM      6  N   VAL B   3       2.853 -23.125  17.868  1.00 30.70 LIG-0.35  N 
ATOM      7 H    VAL B   3       2.085 -23.423  17.622  1.00 30.70 LIG 0.16  HD
ATOM      8  C   LYS B   2       3.897 -23.897  18.152  1.00 38.89 LIG 0.24  C 
ATOM      9 O    LYS B   2       5.013 -23.444  18.435  1.00 35.72 LIG-0.27  OA
BRANCH 8 10
ATOM     10  CA  LYS B   2       3.651 -25.399  18.086  1.00 39.86 LIG 0.18  C 
BRANCH 10 11
ATOM     11  CB  LYS B   2       3.662 -26.011  19.501  1.00 33.57 LIG 0.04  C 
BRANCH 11 12
ATOM     12  CG  LYS B   2       2.276 -25.971  20.176  1.00 34.54 LIG 0.00  C 
BRANCH 12 13
ATOM     13  CD  LYS B   2       1.581 -27.326  20.218  1.00 30.34 LIG 0.03  C 
BRANCH 13 14
ATOM     14  CE  LYS B   2       1.282 -27.892  18.845  1.00 26.25 LIG 0.23  C 
BRANCH 14 15
ATOM     15  NZ  LYS B   2      -0.093 -28.492  18.808  1.00 28.72 LIG-0.08  N 
ATOM     16 HZ2  LYS B   2      -0.284 -28.847  19.602  1.00 28.72 LIG 0.27  HD
ATOM     17 HZ3  LYS B   2      -0.689 -27.860  18.616  1.00 28.72 LIG 0.27  HD
ATOM     18 HZ1  LYS B   2      -0.124 -29.127  18.186  1.00 28.72 LIG 0.27  HD
ENDBRANCH 14 15
ENDBRANCH 13 14
ENDBRANCH 12 13
ENDBRANCH 11 12
ENDBRANCH 10 11
BRANCH 10 19
ATOM     19  N   LYS B   2       4.633 -26.009  17.182  1.00 40.88 LIG-0.35  N 
ATOM     20  C   GLU B   1       4.591 -25.710  15.880  1.00 50.16 LIG 0.25  C 
ATOM     21 O    GLU B   1       3.686 -25.033  15.385  1.00 45.73 LIG-0.27  OA
ATOM     22 H    LYS B   2       5.198 -26.541  17.552  1.00 40.88 LIG 0.16  HD
BRANCH 20 23
ATOM     23  CA  GLU B   1       5.703 -26.260  14.985  1.00 56.89 LIG 0.28  C 
BRANCH 23 24
ATOM     24  CB  GLU B   1       5.574 -27.777  14.868  1.00 44.84 LIG 0.05  C 
BRANCH 24 25
ATOM     25  CG  GLU B   1       4.139 -28.278  14.914  1.00 43.84 LIG 0.12  C 
BRANCH 25 26
ATOM     26  CD  GLU B   1       3.750 -28.827  16.278  1.00 58.57 LIG 0.17  C 
ATOM     27 OE1  GLU B   1       4.590 -28.770  17.204  1.00 59.35 LIG-0.65  OA
ATOM     28 OE2  GLU B   1       2.608 -29.320  16.422  1.00 59.65 LIG-0.65  OA
ENDBRANCH 25 26
ENDBRANCH 24 25
ENDBRANCH 23 24
BRANCH 23 29
ATOM     29  N   GLU B   1       7.035 -25.880  15.442  1.00 43.96 LIG-0.07  N 
ATOM     30 H1   GLU B   1       7.643 -26.389  15.039  1.00 43.96 LIG 0.28  HD
ATOM     31 H2   GLU B   1       7.184 -25.026  15.243  1.00 43.96 LIG 0.28  HD
ATOM     32 H3   GLU B   1       7.091 -25.993  16.322  1.00 43.96 LIG 0.28  HD
ENDBRANCH 23 29
ENDBRANCH 20 23
ENDBRANCH 10 19
ENDBRANCH 8 10
ENDBRANCH 5 6
BRANCH 5 33
ATOM     33  CB  VAL B   3       2.761 -21.023  16.579  1.00 34.43 LIG 0.01  C 
ATOM     34  CG2 VAL B   3       2.917 -22.057  15.491  1.00 33.75 LIG 0.01  C 
ATOM     35  CG1 VAL B   3       3.788 -19.897  16.387  1.00 37.65 LIG 0.01  C 
ENDBRANCH 5 33
ENDBRANCH 1 5
BRANCH 3 36
ATOM     36  CA  HIS B   4       1.121 -19.280  20.422  1.00 28.98 LIG 0.18  C 
BRANCH 36 37
ATOM     37  CB  HIS B   4      -0.219 -18.835  19.808  1.00 26.24 LIG 0.10  C 
BRANCH 37 38
ATOM     38  CG  HIS B   4      -0.078 -18.267  18.428  1.00 30.41 LIG 0.06  A 
ATOM     39 ND1  HIS B   4      -0.248 -16.926  18.153  1.00 34.08 LIG-0.24  NA
ATOM     40  CE1 HIS B   4      -0.061 -16.718  16.859  1.00 29.96 LIG 0.23  A 
ATOM     41 NE2  HIS B   4       0.243 -17.871  16.292  1.00 35.16 LIG-0.25  NA
ATOM     42  CD2 HIS B   4       0.243 -18.857  17.251  1.00 34.95 LIG 0.14  A 
ENDBRANCH 37 38
ENDBRANCH 36 37
BRANCH 36 43
ATOM     43  C   HIS B   4       0.888 -20.300  21.524  1.00 27.46 LIG 0.24  C 
ATOM     44 O    HIS B   4      -0.243 -20.495  21.983  1.00 25.24 LIG-0.27  OA
ATOM     45  N   VAL B   5       1.893 -20.821  22.056  1.00 26.31 LIG-0.35  N 
ATOM     46 H    VAL B   5       2.700 -20.716  21.777  1.00 26.31 LIG 0.16  HD
BRANCH 45 47
ATOM     47  CA  VAL B   5       1.758 -21.681  23.239  1.00 25.23 LIG 0.18  C 
BRANCH 47 48
ATOM     48  CB  VAL B   5       3.056 -22.480  23.503  1.00 26.56 LIG 0.01  C 
ATOM     49  CG2 VAL B   5       2.726 -23.860  24.052  1.00 31.17 LIG 0.01  C 
ATOM     50  CG1 VAL B   5       3.973 -21.752  24.458  1.00 34.68 LIG 0.01  C 
ENDBRANCH 47 48
BRANCH 47 51
ATOM     51  C   VAL B   5       1.354 -20.874  24.464  1.00 27.03 LIG 0.24  C 
ATOM     52  N   GLN B   6       1.769 -19.614  24.509  1.00 26.89 LIG-0.34  N 
ATOM     53 H    GLN B   6       2.249 -19.229  23.908  1.00 26.89 LIG 0.16  HD
ATOM     54 O    VAL B   5       0.658 -21.378  25.358  1.00 28.01 LIG-0.27  OA
BRANCH 52 55
ATOM     55  CA  GLN B   6       1.404 -18.775  25.654  1.00 25.51 LIG 0.19  C 
BRANCH 55 56
ATOM     56  C   GLN B   6      -0.093 -18.487  25.680  1.00 28.77 LIG 0.20  C 
ATOM     57 OXT  GLN B   6      -0.852 -18.860  24.763  1.00 27.06 LIG-0.65  OA
ATOM     58 O    GLN B   6      -0.575 -17.839  26.625  1.00 25.73 LIG-0.65  OA
ENDBRANCH 55 56
BRANCH 55 59
ATOM     59  CB  GLN B   6       2.148 -17.442  25.612  1.00 31.03 LIG 0.04  C 
BRANCH 59 60
ATOM     60  CG  GLN B   6       2.368 -16.886  24.227  1.00 39.52 LIG 0.10  C 
BRANCH 60 61
ATOM     61  CD  GLN B   6       3.383 -15.765  24.240  1.00 49.24 LIG 0.21  C 
ATOM     62  NE2 GLN B   6       3.133 -14.735  23.442  1.00 50.05 LIG-0.37  N 
ATOM     63 21HE GLN B   6       2.433 -14.739  22.943  1.00 50.05 LIG 0.16  HD
ATOM     64 22HE GLN B   6       3.670 -14.064  23.425  1.00 50.05 LIG 0.16  HD
ATOM     65 OE1  GLN B   6       4.374 -15.813  24.980  1.00 58.78 LIG-0.27  OA
ENDBRANCH 60 61
ENDBRANCH 59 60
ENDBRANCH 55 59
ENDBRANCH 52 55
ENDBRANCH 47 51
ENDBRANCH 45 47
ENDBRANCH 36 43
ENDBRANCH 3 36
TORSDOF 27
ENDMDL
