MODEL 1
USER: ADFR SOLUTION from run 129
USER: SCORE 21.124593 LL:  -3.198 LR: -18.039 RR:   0.000 FEB: -12.073
USER: RMSD 4.925085
USER: SEED 128
USER: STATUS no improvement in best in 2 clusters for 5 generations
USER: GENES 22
USER: genes 0 Translation |==|  0.44861 0.60401 0.60773
USER: genes 1 Rotation |==|  0.47670 0.53207 0.48821 0.99829
USER: genes 2 Torsion [C]-CA--N-[C] |==|  0.17215
USER: genes 3 Torsion [N]-C--CA-[N] |==|  0.95412
USER: genes 4 Torsion [N]-C--CA-[N] |==|  0.35719
USER: genes 5 Torsion [C]-CA--N-[H2] |==|  0.13860
USER: genes 6 Torsion [C]-CA--CB-[CG] |==|  0.02542
USER: genes 7 Torsion [CA]-CB--CG-[CD] |==|  0.53451
USER: genes 8 Torsion [CB]-CG--CD-[CE] |==|  0.27647
USER: genes 9 Torsion [CG]-CD--CE-[NZ] |==|  0.60865
USER: genes 10 Torsion [CD]-CE--NZ-[HZ1] |==|  0.98331
USER: genes 11 Torsion [N]-CA--CB-[CG] |==|  0.53845
USER: genes 12 Torsion [CA]-CB--CG-[CD2] |==|  0.07893
USER: genes 13 Torsion [N]-CA--C-[N] |==|  0.12028
USER: genes 14 Torsion [C]-N--CA-[C] |==|  0.81713
USER: genes 15 Torsion [N]-CA--CB-[OG] |==|  0.00932
USER: genes 16 Torsion [CA]-CB--OG-[HG] |==|  0.84285
USER: genes 17 Torsion [N]-CA--C-[N] |==|  0.91741
USER: genes 18 Torsion [C]-N--CA-[CB] |==|  0.45226
USER: genes 19 Torsion [N]-CA--CB-[CG] |==|  0.70554
USER: genes 20 Torsion [CA]-CB--CG-[OD2] |==|  0.50476
USER: genes 21 Torsion [N]-CA--C-[O] |==|  0.49695
ROOT
ATOM      1  CA  HIS C   3    -134.768  50.680  65.705  1.00 14.15 LIG 0.18  C 
ENDROOT
BRANCH 1 2
ATOM      2  N   HIS C   3    -135.732  49.611  65.847  1.00 14.43 LIG-0.35  N 
ATOM      3  C   PRO C   2    -135.420  48.460  66.430  1.00 20.79 LIG 0.24  C 
ATOM      4 O    PRO C   2    -134.295  48.195  66.834  1.00 15.59 LIG-0.27  OA
ATOM      5 H    HIS C   3    -136.509  49.789  65.524  1.00 14.43 LIG 0.16  HD
BRANCH 3 6
ATOM      6  CA  PRO C   2    -136.550  47.446  66.589  1.00 18.69 LIG 0.18  C 
ATOM      7  N   PRO C   2    -137.859  48.077  66.416  1.00 22.33 LIG-0.34  N 
ATOM      8  C   LYS C   1    -138.260  49.034  67.242  1.00 22.74 LIG 0.25  C 
ATOM      9  CD  PRO C   2    -138.666  47.399  65.387  1.00 22.53 LIG 0.13  C 
ATOM     10 O    LYS C   1    -137.587  49.409  68.199  1.00 19.84 LIG-0.27  OA
ATOM     11  CG  PRO C   2    -137.923  46.117  65.160  1.00 25.33 LIG 0.02  C 
ATOM     12  CB  PRO C   2    -136.497  46.430  65.448  1.00 21.74 LIG 0.04  C 
BRANCH 8 13
ATOM     13  CA  LYS C   1    -139.596  49.707  66.934  1.00 25.81 LIG 0.28  C 
BRANCH 13 14
ATOM     14  N   LYS C   1    -140.449  49.699  68.117  1.00 28.38 LIG-0.07  N 
ATOM     15 H3   LYS C   1    -141.159  50.217  67.975  1.00 28.38 LIG 0.28  HD
ATOM     16 H2   LYS C   1    -139.992  50.009  68.816  1.00 28.38 LIG 0.28  HD
ATOM     17 H1   LYS C   1    -140.717  48.867  68.285  1.00 28.38 LIG 0.28  HD
ENDBRANCH 13 14
BRANCH 13 18
ATOM     18  CB  LYS C   1    -139.362  51.143  66.466  1.00 28.10 LIG 0.04  C 
BRANCH 18 19
ATOM     19  CG  LYS C   1    -137.910  51.489  66.207  1.00 29.36 LIG 0.00  C 
BRANCH 19 20
ATOM     20  CD  LYS C   1    -137.741  52.995  66.047  1.00 23.94 LIG 0.03  C 
BRANCH 20 21
ATOM     21  CE  LYS C   1    -137.235  53.648  67.321  1.00 22.49 LIG 0.23  C 
BRANCH 21 22
ATOM     22  NZ  LYS C   1    -137.915  54.949  67.516  1.00 23.53 LIG-0.08  N 
ATOM     23 HZ1  LYS C   1    -138.420  55.130  66.806  1.00 23.53 LIG 0.27  HD
ATOM     24 HZ2  LYS C   1    -138.428  54.910  68.242  1.00 23.53 LIG 0.27  HD
ATOM     25 HZ3  LYS C   1    -137.306  55.591  67.618  1.00 23.53 LIG 0.27  HD
ENDBRANCH 21 22
ENDBRANCH 20 21
ENDBRANCH 19 20
ENDBRANCH 18 19
ENDBRANCH 13 18
ENDBRANCH 8 13
ENDBRANCH 3 6
ENDBRANCH 1 2
BRANCH 1 26
ATOM     26  CB  HIS C   3    -134.310  51.162  67.074  1.00 14.42 LIG 0.10  C 
BRANCH 26 27
ATOM     27  CG  HIS C   3    -133.572  52.473  67.034  1.00 17.65 LIG 0.06  A 
ATOM     28 ND1  HIS C   3    -132.658  52.812  67.954  1.00 19.76 LIG-0.24  NA
ATOM     29  CE1 HIS C   3    -132.177  54.036  67.675  1.00 20.53 LIG 0.23  A 
ATOM     30 NE2  HIS C   3    -132.791  54.482  66.573  1.00 17.64 LIG-0.25  NA
ATOM     31  CD2 HIS C   3    -133.659  53.545  66.152  1.00 21.96 LIG 0.14  A 
ENDBRANCH 26 27
ENDBRANCH 1 26
BRANCH 1 32
ATOM     32  C   HIS C   3    -133.586  50.305  64.869  1.00 15.49 LIG 0.24  C 
ATOM     33  N   SER C   4    -133.840  49.628  63.754  1.00 15.13 LIG-0.34  N 
ATOM     34 H    SER C   4    -134.625  49.383  63.504  1.00 15.13 LIG 0.16  HD
ATOM     35 O    HIS C   3    -132.436  50.635  65.213  1.00 14.84 LIG-0.27  OA
BRANCH 33 36
ATOM     36  CA  SER C   4    -132.765  49.245  62.848  1.00 18.69 LIG 0.20  C 
BRANCH 36 37
ATOM     37  CB  SER C   4    -133.264  48.274  61.775  1.00 23.38 LIG 0.20  C 
BRANCH 37 38
ATOM     38 OG   SER C   4    -134.654  48.056  61.890  1.00 30.32 LIG-0.40  OA
ATOM     39 HG   SER C   4    -134.831  47.776  62.662  1.00 30.32 LIG 0.21  HD
ENDBRANCH 37 38
ENDBRANCH 36 37
BRANCH 36 40
ATOM     40  C   SER C   4    -132.111  50.468  62.209  1.00 18.90 LIG 0.24  C 
ATOM     41  N   ASP C   5    -132.883  51.535  62.033  1.00 17.72 LIG-0.34  N 
ATOM     42 H    ASP C   5    -133.723  51.559  62.217  1.00 17.72 LIG 0.16  HD
ATOM     43 O    SER C   4    -130.930  50.444  61.894  1.00 16.42 LIG-0.27  OA
BRANCH 41 44
ATOM     44  CA  ASP C   5    -132.341  52.780  61.498  1.00 16.40 LIG 0.20  C 
BRANCH 44 45
ATOM     45  CB  ASP C   5    -133.462  53.700  60.994  1.00 18.53 LIG 0.15  C 
BRANCH 45 46
ATOM     46  CG  ASP C   5    -133.545  53.757  59.478  1.00 25.22 LIG 0.17  C 
ATOM     47 OD2  ASP C   5    -134.406  54.505  58.970  1.00 28.97 LIG-0.65  OA
ATOM     48 OD1  ASP C   5    -132.750  53.075  58.796  1.00 27.70 LIG-0.65  OA
ENDBRANCH 45 46
ENDBRANCH 44 45
BRANCH 44 49
ATOM     49  C   ASP C   5    -131.520  53.519  62.543  1.00 17.83 LIG 0.20  C 
ATOM     50 O    ASP C   5    -130.962  54.589  62.266  1.00 18.34 LIG-0.65  OA
ATOM     51 OXT  ASP C   5    -131.403  53.076  63.696  1.00 17.06 LIG-0.65  OA
ENDBRANCH 44 49
ENDBRANCH 41 44
ENDBRANCH 36 40
ENDBRANCH 33 36
ENDBRANCH 1 32
TORSDOF 20
ENDMDL
MODEL 2
USER: ADFR SOLUTION from run 171
USER: SCORE 20.674373 LL:  -3.208 LR: -17.588 RR:   0.000 FEB: -11.622
USER: RMSD 1.763337
USER: SEED 170
USER: STATUS no improvement in best in 2 clusters for 5 generations
USER: GENES 22
USER: genes 0 Translation |==|  0.44263 0.60590 0.60703
USER: genes 1 Rotation |==|  0.49462 0.53322 0.49177 0.99880
USER: genes 2 Torsion [C]-CA--N-[C] |==|  0.14808
USER: genes 3 Torsion [N]-C--CA-[N] |==|  0.40980
USER: genes 4 Torsion [N]-C--CA-[N] |==|  0.37925
USER: genes 5 Torsion [C]-CA--N-[H2] |==|  0.72794
USER: genes 6 Torsion [C]-CA--CB-[CG] |==|  0.18449
USER: genes 7 Torsion [CA]-CB--CG-[CD] |==|  0.50079
USER: genes 8 Torsion [CB]-CG--CD-[CE] |==|  0.76080
USER: genes 9 Torsion [CG]-CD--CE-[NZ] |==|  0.65252
USER: genes 10 Torsion [CD]-CE--NZ-[HZ1] |==|  0.41064
USER: genes 11 Torsion [N]-CA--CB-[CG] |==|  0.52542
USER: genes 12 Torsion [CA]-CB--CG-[CD2] |==|  0.04888
USER: genes 13 Torsion [N]-CA--C-[N] |==|  0.13268
USER: genes 14 Torsion [C]-N--CA-[C] |==|  0.80432
USER: genes 15 Torsion [N]-CA--CB-[OG] |==|  0.00007
USER: genes 16 Torsion [CA]-CB--OG-[HG] |==|  0.82949
USER: genes 17 Torsion [N]-CA--C-[N] |==|  0.90651
USER: genes 18 Torsion [C]-N--CA-[CB] |==|  0.49074
USER: genes 19 Torsion [N]-CA--CB-[CG] |==|  0.75132
USER: genes 20 Torsion [CA]-CB--CG-[OD2] |==|  0.31743
USER: genes 21 Torsion [N]-CA--C-[O] |==|  0.48868
ROOT
ATOM      1  CA  HIS C   3    -134.867  50.718  65.693  1.00 14.15 LIG 0.18  C 
ENDROOT
BRANCH 1 2
ATOM      2  N   HIS C   3    -135.820  49.632  65.760  1.00 14.43 LIG-0.35  N 
ATOM      3  C   PRO C   2    -135.457  48.401  66.097  1.00 20.79 LIG 0.24  C 
ATOM      4 O    PRO C   2    -134.295  48.080  66.317  1.00 15.59 LIG-0.27  OA
ATOM      5 H    HIS C   3    -136.627  49.857  65.564  1.00 14.43 LIG 0.16  HD
BRANCH 3 6
ATOM      6  CA  PRO C   2    -136.572  47.365  66.209  1.00 18.69 LIG 0.18  C 
ATOM      7  N   PRO C   2    -136.101  46.034  65.824  1.00 22.33 LIG-0.34  N 
ATOM      8  C   LYS C   1    -135.664  45.803  64.593  1.00 22.74 LIG 0.25  C 
ATOM      9  CD  PRO C   2    -136.355  45.035  66.876  1.00 22.53 LIG 0.13  C 
ATOM     10 O    LYS C   1    -135.665  46.664  63.717  1.00 19.84 LIG-0.27  OA
ATOM     11  CG  PRO C   2    -137.301  45.743  67.799  1.00 25.33 LIG 0.02  C 
ATOM     12  CB  PRO C   2    -136.968  47.188  67.674  1.00 21.74 LIG 0.04  C 
BRANCH 8 13
ATOM     13  CA  LYS C   1    -135.100  44.414  64.304  1.00 25.81 LIG 0.28  C 
BRANCH 13 14
ATOM     14  N   LYS C   1    -135.592  43.928  63.019  1.00 28.38 LIG-0.07  N 
ATOM     15 H3   LYS C   1    -135.848  44.618  62.518  1.00 28.38 LIG 0.28  HD
ATOM     16 H2   LYS C   1    -136.286  43.386  63.152  1.00 28.38 LIG 0.28  HD
ATOM     17 H1   LYS C   1    -134.945  43.482  62.602  1.00 28.38 LIG 0.28  HD
ENDBRANCH 13 14
BRANCH 13 18
ATOM     18  CB  LYS C   1    -133.572  44.461  64.295  1.00 28.10 LIG 0.04  C 
BRANCH 18 19
ATOM     19  CG  LYS C   1    -132.947  44.769  65.641  1.00 29.36 LIG 0.00  C 
BRANCH 19 20
ATOM     20  CD  LYS C   1    -131.428  44.800  65.529  1.00 23.94 LIG 0.03  C 
BRANCH 20 21
ATOM     21  CE  LYS C   1    -130.818  43.420  65.685  1.00 22.49 LIG 0.23  C 
BRANCH 21 22
ATOM     22  NZ  LYS C   1    -129.806  43.442  66.766  1.00 23.53 LIG-0.08  N 
ATOM     23 HZ1  LYS C   1    -129.789  42.651  67.173  1.00 23.53 LIG 0.27  HD
ATOM     24 HZ2  LYS C   1    -129.005  43.615  66.420  1.00 23.53 LIG 0.27  HD
ATOM     25 HZ3  LYS C   1    -130.016  44.074  67.357  1.00 23.53 LIG 0.27  HD
ENDBRANCH 21 22
ENDBRANCH 20 21
ENDBRANCH 19 20
ENDBRANCH 18 19
ENDBRANCH 13 18
ENDBRANCH 8 13
ENDBRANCH 3 6
ENDBRANCH 1 2
BRANCH 1 26
ATOM     26  CB  HIS C   3    -134.408  51.104  67.092  1.00 14.42 LIG 0.10  C 
BRANCH 26 27
ATOM     27  CG  HIS C   3    -133.586  52.364  67.128  1.00 17.65 LIG 0.06  A 
ATOM     28 ND1  HIS C   3    -132.830  52.699  68.184  1.00 19.76 LIG-0.24  NA
ATOM     29  CE1 HIS C   3    -132.225  53.875  67.943  1.00 20.53 LIG 0.23  A 
ATOM     30 NE2  HIS C   3    -132.599  54.294  66.730  1.00 17.64 LIG-0.25  NA
ATOM     31  CD2 HIS C   3    -133.441  53.389  66.199  1.00 21.96 LIG 0.14  A 
ENDBRANCH 26 27
ENDBRANCH 1 26
BRANCH 1 32
ATOM     32  C   HIS C   3    -133.684  50.417  64.827  1.00 15.49 LIG 0.24  C 
ATOM     33  N   SER C   4    -133.943  49.904  63.629  1.00 15.13 LIG-0.34  N 
ATOM     34 H    SER C   4    -134.731  49.722  63.339  1.00 15.13 LIG 0.16  HD
ATOM     35 O    HIS C   3    -132.530  50.656  65.227  1.00 14.84 LIG-0.27  OA
BRANCH 33 36
ATOM     36  CA  SER C   4    -132.867  49.606  62.693  1.00 18.69 LIG 0.20  C 
BRANCH 36 37
ATOM     37  CB  SER C   4    -133.355  48.710  61.553  1.00 23.38 LIG 0.20  C 
BRANCH 37 38
ATOM     38 OG   SER C   4    -134.725  48.401  61.698  1.00 30.32 LIG-0.40  OA
ATOM     39 HG   SER C   4    -134.843  47.982  62.416  1.00 30.32 LIG 0.21  HD
ENDBRANCH 37 38
ENDBRANCH 36 37
BRANCH 36 40
ATOM     40  C   SER C   4    -132.235  50.884  62.145  1.00 18.90 LIG 0.24  C 
ATOM     41  N   ASP C   5    -133.044  51.926  61.976  1.00 17.72 LIG-0.34  N 
ATOM     42 H    ASP C   5    -133.892  51.906  62.117  1.00 17.72 LIG 0.16  HD
ATOM     43 O    SER C   4    -131.040  50.924  61.891  1.00 16.42 LIG-0.27  OA
BRANCH 41 44
ATOM     44  CA  ASP C   5    -132.531  53.216  61.527  1.00 16.40 LIG 0.20  C 
BRANCH 44 45
ATOM     45  CB  ASP C   5    -133.668  54.227  61.332  1.00 18.53 LIG 0.15  C 
BRANCH 45 46
ATOM     46  CG  ASP C   5    -134.252  54.199  59.929  1.00 25.22 LIG 0.17  C 
ATOM     47 OD2  ASP C   5    -135.435  53.821  59.798  1.00 28.97 LIG-0.65  OA
ATOM     48 OD1  ASP C   5    -133.545  54.565  58.966  1.00 27.70 LIG-0.65  OA
ENDBRANCH 45 46
ENDBRANCH 44 45
BRANCH 44 49
ATOM     49  C   ASP C   5    -131.522  53.782  62.513  1.00 17.83 LIG 0.20  C 
ATOM     50 O    ASP C   5    -130.920  54.837  62.265  1.00 18.34 LIG-0.65  OA
ATOM     51 OXT  ASP C   5    -131.290  53.213  63.591  1.00 17.06 LIG-0.65  OA
ENDBRANCH 44 49
ENDBRANCH 41 44
ENDBRANCH 36 40
ENDBRANCH 33 36
ENDBRANCH 1 32
TORSDOF 20
ENDMDL
MODEL 3
USER: ADFR SOLUTION from run 156
USER: SCORE 19.462772 LL:  -3.249 LR: -16.385 RR:   0.000 FEB: -10.419
USER: RMSD 0.953406
USER: SEED 155
USER: STATUS no improvement in best in 1 clusters for 5 generations
USER: GENES 22
USER: genes 0 Translation |==|  0.42301 0.57226 0.58870
USER: genes 1 Rotation |==|  0.48442 0.48888 0.53265 0.99857
USER: genes 2 Torsion [C]-CA--N-[C] |==|  0.16111
USER: genes 3 Torsion [N]-C--CA-[N] |==|  0.36064
USER: genes 4 Torsion [N]-C--CA-[N] |==|  0.41197
USER: genes 5 Torsion [C]-CA--N-[H2] |==|  0.61314
USER: genes 6 Torsion [C]-CA--CB-[CG] |==|  0.07561
USER: genes 7 Torsion [CA]-CB--CG-[CD] |==|  0.43492
USER: genes 8 Torsion [CB]-CG--CD-[CE] |==|  0.83734
USER: genes 9 Torsion [CG]-CD--CE-[NZ] |==|  0.55998
USER: genes 10 Torsion [CD]-CE--NZ-[HZ1] |==|  0.53459
USER: genes 11 Torsion [N]-CA--CB-[CG] |==|  0.87355
USER: genes 12 Torsion [CA]-CB--CG-[CD2] |==|  0.50644
USER: genes 13 Torsion [N]-CA--C-[N] |==|  0.13979
USER: genes 14 Torsion [C]-N--CA-[C] |==|  0.78988
USER: genes 15 Torsion [N]-CA--CB-[OG] |==|  0.98083
USER: genes 16 Torsion [CA]-CB--OG-[HG] |==|  0.81834
USER: genes 17 Torsion [N]-CA--C-[N] |==|  0.94775
USER: genes 18 Torsion [C]-N--CA-[CB] |==|  0.49718
USER: genes 19 Torsion [N]-CA--CB-[CG] |==|  0.70827
USER: genes 20 Torsion [CA]-CB--CG-[OD2] |==|  0.84565
USER: genes 21 Torsion [N]-CA--C-[O] |==|  0.45994
ROOT
ATOM      1  CA  HIS C   3    -135.190  50.037  65.363  1.00 14.15 LIG 0.18  C 
ENDROOT
BRANCH 1 2
ATOM      2  N   HIS C   3    -135.950  48.807  65.318  1.00 14.43 LIG-0.35  N 
ATOM      3  C   PRO C   2    -135.492  47.681  65.851  1.00 20.79 LIG 0.24  C 
ATOM      4 O    PRO C   2    -134.384  47.583  66.364  1.00 15.59 LIG-0.27  OA
ATOM      5 H    HIS C   3    -136.710  48.874  64.920  1.00 14.43 LIG 0.16  HD
BRANCH 3 6
ATOM      6  CA  PRO C   2    -136.426  46.474  65.807  1.00 18.69 LIG 0.18  C 
ATOM      7  N   PRO C   2    -135.745  45.295  65.270  1.00 22.33 LIG-0.34  N 
ATOM      8  C   LYS C   1    -135.273  45.296  64.030  1.00 22.74 LIG 0.25  C 
ATOM      9  CD  PRO C   2    -135.836  44.143  66.183  1.00 22.53 LIG 0.13  C 
ATOM     10 O    LYS C   1    -135.411  46.250  63.268  1.00 19.84 LIG-0.27  OA
ATOM     11  CG  PRO C   2    -136.886  44.567  67.165  1.00 25.33 LIG 0.02  C 
ATOM     12  CB  PRO C   2    -136.791  46.051  67.229  1.00 21.74 LIG 0.04  C 
BRANCH 8 13
ATOM     13  CA  LYS C   1    -134.491  44.064  63.582  1.00 25.81 LIG 0.28  C 
BRANCH 13 14
ATOM     14  N   LYS C   1    -134.683  43.837  62.153  1.00 28.38 LIG-0.07  N 
ATOM     15 H3   LYS C   1    -135.413  44.268  61.879  1.00 28.38 LIG 0.28  HD
ATOM     16 H2   LYS C   1    -134.779  42.965  62.000  1.00 28.38 LIG 0.28  HD
ATOM     17 H1   LYS C   1    -133.975  44.140  61.706  1.00 28.38 LIG 0.28  HD
ENDBRANCH 13 14
BRANCH 13 18
ATOM     18  CB  LYS C   1    -133.005  44.247  63.887  1.00 28.10 LIG 0.04  C 
BRANCH 18 19
ATOM     19  CG  LYS C   1    -132.714  45.170  65.054  1.00 29.36 LIG 0.00  C 
BRANCH 19 20
ATOM     20  CD  LYS C   1    -131.346  44.863  65.650  1.00 23.94 LIG 0.03  C 
BRANCH 20 21
ATOM     21  CE  LYS C   1    -131.243  43.425  66.125  1.00 22.49 LIG 0.23  C 
BRANCH 21 22
ATOM     22  NZ  LYS C   1    -130.159  43.309  67.127  1.00 23.53 LIG-0.08  N 
ATOM     23 HZ1  LYS C   1    -129.977  42.450  67.271  1.00 23.53 LIG 0.27  HD
ATOM     24 HZ2  LYS C   1    -129.429  43.719  66.824  1.00 23.53 LIG 0.27  HD
ATOM     25 HZ3  LYS C   1    -130.416  43.689  67.890  1.00 23.53 LIG 0.27  HD
ENDBRANCH 21 22
ENDBRANCH 20 21
ENDBRANCH 19 20
ENDBRANCH 18 19
ENDBRANCH 13 18
ENDBRANCH 8 13
ENDBRANCH 3 6
ENDBRANCH 1 2
BRANCH 1 26
ATOM     26  CB  HIS C   3    -135.055  50.520  66.800  1.00 14.42 LIG 0.10  C 
BRANCH 26 27
ATOM     27  CG  HIS C   3    -136.342  50.465  67.577  1.00 17.65 LIG 0.06  A 
ATOM     28 ND1  HIS C   3    -137.485  50.010  67.043  1.00 19.76 LIG-0.24  NA
ATOM     29  CE1 HIS C   3    -138.467  50.091  67.957  1.00 20.53 LIG 0.23  A 
ATOM     30 NE2  HIS C   3    -137.949  50.604  69.078  1.00 17.64 LIG-0.25  NA
ATOM     31  CD2 HIS C   3    -136.642  50.850  68.879  1.00 21.96 LIG 0.14  A 
ENDBRANCH 26 27
ENDBRANCH 1 26
BRANCH 1 32
ATOM     32  C   HIS C   3    -133.841  49.925  64.727  1.00 15.49 LIG 0.24  C 
ATOM     33  N   SER C   4    -133.804  49.402  63.506  1.00 15.13 LIG-0.34  N 
ATOM     34 H    SER C   4    -134.493  49.114  63.080  1.00 15.13 LIG 0.16  HD
ATOM     35 O    HIS C   3    -132.824  50.320  65.326  1.00 14.84 LIG-0.27  OA
BRANCH 33 36
ATOM     36  CA  SER C   4    -132.546  49.280  62.781  1.00 18.69 LIG 0.20  C 
BRANCH 36 37
ATOM     37  CB  SER C   4    -132.652  48.247  61.656  1.00 23.38 LIG 0.20  C 
BRANCH 37 38
ATOM     38 OG   SER C   4    -133.886  47.564  61.705  1.00 30.32 LIG-0.40  OA
ATOM     39 HG   SER C   4    -133.926  47.107  62.409  1.00 30.32 LIG 0.21  HD
ENDBRANCH 37 38
ENDBRANCH 36 37
BRANCH 36 40
ATOM     40  C   SER C   4    -132.083  50.629  62.235  1.00 18.90 LIG 0.24  C 
ATOM     41  N   ASP C   5    -133.004  51.582  62.140  1.00 17.72 LIG-0.34  N 
ATOM     42 H    ASP C   5    -133.836  51.471  62.325  1.00 17.72 LIG 0.16  HD
ATOM     43 O    SER C   4    -130.914  50.800  61.918  1.00 16.42 LIG-0.27  OA
BRANCH 41 44
ATOM     44  CA  ASP C   5    -132.654  52.929  61.699  1.00 16.40 LIG 0.20  C 
BRANCH 44 45
ATOM     45  CB  ASP C   5    -133.892  53.834  61.649  1.00 18.53 LIG 0.15  C 
BRANCH 45 46
ATOM     46  CG  ASP C   5    -134.379  54.095  60.234  1.00 25.22 LIG 0.17  C 
ATOM     47 OD2  ASP C   5    -133.564  54.574  59.418  1.00 28.97 LIG-0.65  OA
ATOM     48 OD1  ASP C   5    -135.558  53.812  59.931  1.00 27.70 LIG-0.65  OA
ENDBRANCH 45 46
ENDBRANCH 44 45
BRANCH 44 49
ATOM     49  C   ASP C   5    -131.613  53.556  62.612  1.00 17.83 LIG 0.20  C 
ATOM     50 O    ASP C   5    -130.997  54.572  62.264  1.00 18.34 LIG-0.65  OA
ATOM     51 OXT  ASP C   5    -131.368  53.074  63.730  1.00 17.06 LIG-0.65  OA
ENDBRANCH 44 49
ENDBRANCH 41 44
ENDBRANCH 36 40
ENDBRANCH 33 36
ENDBRANCH 1 32
TORSDOF 20
ENDMDL
