MODEL 1
USER: ADFR SOLUTION from run 185
USER: SCORE 20.346668 LL:  -2.660 LR: -18.839 RR:   0.000 FEB: -11.381
USER: RMSD 3.060681
USER: SEED 184
USER: STATUS no improvement in best in 3 clusters for 5 generations
USER: GENES 27
USER: genes 0 Translation |==|  0.46269 0.51726 0.56240
USER: genes 1 Rotation |==|  0.47822 0.48604 0.65473 0.97475
USER: genes 2 Torsion [C]-CA--CB-[CG] |==|  0.17965
USER: genes 3 Torsion [CA]-CB--CG-[ND1] |==|  0.78016
USER: genes 4 Torsion [N]-CA--C-[N] |==|  0.20020
USER: genes 5 Torsion [C]-N--CA-[C] |==|  0.81599
USER: genes 6 Torsion [N]-CA--C-[N] |==|  0.84512
USER: genes 7 Torsion [C]-N--CA-[CB] |==|  0.52913
USER: genes 8 Torsion [N]-CA--CB-[CG] |==|  0.85343
USER: genes 9 Torsion [CA]-CB--CG-[CD] |==|  0.71839
USER: genes 10 Torsion [CB]-CG--CD-[OE2] |==|  0.16802
USER: genes 11 Torsion [N]-CA--C-[OXT] |==|  0.45668
USER: genes 12 Torsion [N]-CA--CB-[CG] |==|  0.71797
USER: genes 13 Torsion [CA]-CB--CG-[CD] |==|  0.00057
USER: genes 14 Torsion [CB]-CG--CD-[OE1] |==|  0.23754
USER: genes 15 Torsion [CB]-CA--N-[C] |==|  0.78049
USER: genes 16 Torsion [N]-C--CA-[N] |==|  0.53854
USER: genes 17 Torsion [C]-CA--N-[C] |==|  0.71357
USER: genes 18 Torsion [N]-C--CA-[N] |==|  0.93593
USER: genes 19 Torsion [C]-CA--N-[H3] |==|  0.20813
USER: genes 20 Torsion [C]-CA--CB-[CG] |==|  0.87055
USER: genes 21 Torsion [CA]-CB--CG-[CD] |==|  0.74950
USER: genes 22 Torsion [CB]-CG--CD-[CE] |==|  0.71652
USER: genes 23 Torsion [CG]-CD--CE-[NZ] |==|  0.39482
USER: genes 24 Torsion [CD]-CE--NZ-[HZ3] |==|  0.36612
USER: genes 25 Torsion [C]-CA--CB-[OG] |==|  0.32259
USER: genes 26 Torsion [CA]-CB--OG-[HG] |==|  0.78384
ROOT
ATOM      1  CA  HIS C   3     -23.332 110.398-131.369  1.00 19.60 LIG 0.18  C 
ENDROOT
BRANCH 1 2
ATOM      2  CB  HIS C   3     -23.408 110.922-129.931  1.00 23.73 LIG 0.10  C 
BRANCH 2 3
ATOM      3  CG  HIS C   3     -23.608 112.402-129.849  1.00 30.80 LIG 0.06  A 
ATOM      4 ND1  HIS C   3     -22.579 113.303-130.022  1.00 38.28 LIG-0.24  NA
ATOM      5  CE1 HIS C   3     -23.045 114.530-129.888  1.00 40.75 LIG 0.23  A 
ATOM      6 NE2  HIS C   3     -24.339 114.459-129.630  1.00 37.68 LIG-0.25  NA
ATOM      7  CD2 HIS C   3     -24.717 113.138-129.602  1.00 33.77 LIG 0.14  A 
ENDBRANCH 2 3
ENDBRANCH 1 2
BRANCH 1 8
ATOM      8  C   HIS C   3     -22.108 110.955-132.066  1.00 20.49 LIG 0.24  C 
ATOM      9  N   GLN C   4     -22.084 110.851-133.392  1.00 22.11 LIG-0.35  N 
ATOM     10 H    GLN C   4     -22.685 110.445-133.855  1.00 22.11 LIG 0.16  HD
ATOM     11 O    HIS C   3     -21.209 111.481-131.415  1.00 22.31 LIG-0.27  OA
BRANCH 9 12
ATOM     12  CA  GLN C   4     -21.006 111.435-134.178  1.00 24.42 LIG 0.18  C 
BRANCH 12 13
ATOM     13  C   GLN C   4     -21.039 112.960-134.083  1.00 25.27 LIG 0.24  C 
ATOM     14 O    GLN C   4     -20.057 113.592-133.688  1.00 26.26 LIG-0.27  OA
ATOM     15  N   GLU C   5     -22.179 113.546-134.431  1.00 23.86 LIG-0.34  N 
ATOM     16 H    GLU C   5     -22.893 113.120-134.649  1.00 23.86 LIG 0.16  HD
BRANCH 15 17
ATOM     17  CA  GLU C   5     -22.306 115.002-134.467  1.00 25.08 LIG 0.19  C 
BRANCH 17 18
ATOM     18  CB  GLU C   5     -23.768 115.410-134.641  1.00 28.24 LIG 0.05  C 
BRANCH 18 19
ATOM     19  CG  GLU C   5     -24.441 114.741-135.826  1.00 35.55 LIG 0.12  C 
BRANCH 19 20
ATOM     20  CD  GLU C   5     -24.546 115.657-137.023  1.00 50.11 LIG 0.17  C 
ATOM     21 OE2  GLU C   5     -23.489 116.103-137.523  1.00 51.97 LIG-0.65  OA
ATOM     22 OE1  GLU C   5     -25.684 115.933-137.460  1.00 61.02 LIG-0.65  OA
ENDBRANCH 19 20
ENDBRANCH 18 19
ENDBRANCH 17 18
BRANCH 17 23
ATOM     23  C   GLU C   5     -21.703 115.718-133.261  1.00 25.62 LIG 0.20  C 
ATOM     24 OXT  GLU C   5     -21.501 116.934-133.336  1.00 22.77 LIG-0.65  OA
ATOM     25 O    GLU C   5     -21.406 115.135-132.211  1.00 24.56 LIG-0.65  OA
ENDBRANCH 17 23
ENDBRANCH 15 17
ENDBRANCH 12 13
BRANCH 12 26
ATOM     26  CB  GLN C   4     -21.128 111.004-135.641  1.00 29.25 LIG 0.04  C 
BRANCH 26 27
ATOM     27  CG  GLN C   4     -20.173 109.887-136.041  1.00 33.50 LIG 0.10  C 
BRANCH 27 28
ATOM     28  CD  GLN C   4     -19.295 109.430-134.888  1.00 35.44 LIG 0.21  C 
ATOM     29  NE2 GLN C   4     -18.099 110.001-134.795  1.00 29.14 LIG-0.37  N 
ATOM     30 22HE GLN C   4     -17.565 109.781-134.158  1.00 29.14 LIG 0.16  HD
ATOM     31 21HE GLN C   4     -17.859 110.592-135.372  1.00 29.14 LIG 0.16  HD
ATOM     32 OE1  GLN C   4     -19.688 108.577-134.088  1.00 33.33 LIG-0.27  OA
ENDBRANCH 27 28
ENDBRANCH 26 27
ENDBRANCH 12 26
ENDBRANCH 9 12
ENDBRANCH 1 8
BRANCH 1 33
ATOM     33  N   HIS C   3     -23.360 108.940-131.382  1.00 25.18 LIG-0.35  N 
ATOM     34  C   SER C   2     -22.288 108.203-131.108  1.00 31.86 LIG 0.24  C 
ATOM     35 O    SER C   2     -21.171 108.677-130.895  1.00 26.79 LIG-0.27  OA
ATOM     36 H    HIS C   3     -24.128 108.606-131.581  1.00 25.18 LIG 0.16  HD
BRANCH 34 37
ATOM     37  CA  SER C   2     -22.510 106.701-131.080  1.00 34.72 LIG 0.20  C 
BRANCH 37 38
ATOM     38  N   SER C   2     -21.371 106.042-130.460  1.00 38.98 LIG-0.34  N 
ATOM     39  C   LYS C   1     -20.459 105.411-131.193  1.00 41.15 LIG 0.25  C 
ATOM     40 O    LYS C   1     -20.552 105.283-132.418  1.00 40.86 LIG-0.27  OA
ATOM     41 H    SER C   2     -21.346 106.099-129.602  1.00 38.98 LIG 0.16  HD
BRANCH 39 42
ATOM     42  CA  LYS C   1     -19.264 104.842-130.442  1.00 44.71 LIG 0.27  C 
BRANCH 42 43
ATOM     43  N   LYS C   1     -19.059 105.535-129.173  1.00 52.31 LIG-0.07  N 
ATOM     44 H3   LYS C   1     -19.675 105.271-128.587  1.00 52.31 LIG 0.28  HD
ATOM     45 H2   LYS C   1     -19.127 106.413-129.299  1.00 52.31 LIG 0.28  HD
ATOM     46 H1   LYS C   1     -18.249 105.343-128.858  1.00 52.31 LIG 0.28  HD
ENDBRANCH 42 43
BRANCH 42 47
ATOM     47  CB  LYS C   1     -19.482 103.345-130.209  1.00 46.48 LIG 0.04  C 
BRANCH 47 48
ATOM     48  CG  LYS C   1     -20.867 102.973-129.684  1.00 53.12 LIG 0.00  C 
BRANCH 48 49
ATOM     49  CD  LYS C   1     -20.925 102.965-128.161  1.00 36.86 LIG 0.03  C 
BRANCH 49 50
ATOM     50  CE  LYS C   1     -20.868 101.533-127.630  1.00 31.94 LIG 0.23  C 
BRANCH 50 51
ATOM     51  NZ  LYS C   1     -20.063 101.404-126.377  1.00 27.86 LIG-0.08  N 
ATOM     52 HZ3  LYS C   1     -20.522 100.935-125.776  1.00 27.86 LIG 0.27  HD
ATOM     53 HZ1  LYS C   1     -19.298 100.986-126.557  1.00 27.86 LIG 0.27  HD
ATOM     54 HZ2  LYS C   1     -19.889 102.213-126.051  1.00 27.86 LIG 0.27  HD
ENDBRANCH 50 51
ENDBRANCH 49 50
ENDBRANCH 48 49
ENDBRANCH 47 48
ENDBRANCH 42 47
ENDBRANCH 39 42
ENDBRANCH 37 38
BRANCH 37 55
ATOM     55  CB  SER C   2     -23.802 106.379-130.328  1.00 36.44 LIG 0.20  C 
BRANCH 55 56
ATOM     56 OG   SER C   2     -24.749 105.775-131.195  1.00 50.02 LIG-0.40  OA
ATOM     57 HG   SER C   2     -25.107 106.365-131.674  1.00 50.02 LIG 0.21  HD
ENDBRANCH 55 56
ENDBRANCH 37 55
ENDBRANCH 34 37
ENDBRANCH 1 33
TORSDOF 25
ENDMDL
MODEL 2
USER: ADFR SOLUTION from run 18
USER: SCORE 20.796137 LL:  -3.698 LR: -17.767 RR:   0.000 FEB: -10.309
USER: RMSD 4.816859
USER: SEED 17
USER: STATUS no improvement in best in 2 clusters for 5 generations
USER: GENES 27
USER: genes 0 Translation |==|  0.42604 0.61141 0.60725
USER: genes 1 Rotation |==|  0.46611 0.52500 0.47844 0.99776
USER: genes 2 Torsion [C]-CA--CB-[CG] |==|  0.22347
USER: genes 3 Torsion [CA]-CB--CG-[ND1] |==|  0.47191
USER: genes 4 Torsion [N]-CA--C-[N] |==|  0.13109
USER: genes 5 Torsion [C]-N--CA-[C] |==|  0.82594
USER: genes 6 Torsion [N]-CA--C-[N] |==|  0.89477
USER: genes 7 Torsion [C]-N--CA-[CB] |==|  0.44585
USER: genes 8 Torsion [N]-CA--CB-[CG] |==|  0.82305
USER: genes 9 Torsion [CA]-CB--CG-[CD] |==|  0.52467
USER: genes 10 Torsion [CB]-CG--CD-[OE2] |==|  0.23709
USER: genes 11 Torsion [N]-CA--C-[OXT] |==|  0.50136
USER: genes 12 Torsion [N]-CA--CB-[CG] |==|  0.51592
USER: genes 13 Torsion [CA]-CB--CG-[CD] |==|  0.07970
USER: genes 14 Torsion [CB]-CG--CD-[OE1] |==|  0.19514
USER: genes 15 Torsion [CB]-CA--N-[C] |==|  0.79444
USER: genes 16 Torsion [N]-C--CA-[N] |==|  0.97049
USER: genes 17 Torsion [C]-CA--N-[C] |==|  0.80987
USER: genes 18 Torsion [N]-C--CA-[N] |==|  0.34558
USER: genes 19 Torsion [C]-CA--N-[H3] |==|  0.05710
USER: genes 20 Torsion [C]-CA--CB-[CG] |==|  0.14717
USER: genes 21 Torsion [CA]-CB--CG-[CD] |==|  0.57639
USER: genes 22 Torsion [CB]-CG--CD-[CE] |==|  0.03499
USER: genes 23 Torsion [CG]-CD--CE-[NZ] |==|  0.68172
USER: genes 24 Torsion [CD]-CE--NZ-[HZ3] |==|  0.23890
USER: genes 25 Torsion [C]-CA--CB-[OG] |==|  0.24574
USER: genes 26 Torsion [CA]-CB--OG-[HG] |==|  0.81989
ROOT
ATOM      1  CA  HIS C   3     -23.964 112.375-130.495  1.00 19.60 LIG 0.18  C 
ENDROOT
BRANCH 1 2
ATOM      2  CB  HIS C   3     -23.501 112.859-129.116  1.00 23.73 LIG 0.10  C 
BRANCH 2 3
ATOM      3  CG  HIS C   3     -23.002 114.269-129.120  1.00 30.80 LIG 0.06  A 
ATOM      4 ND1  HIS C   3     -22.731 114.967-127.963  1.00 38.28 LIG-0.24  NA
ATOM      5  CE1 HIS C   3     -22.317 116.182-128.270  1.00 40.75 LIG 0.23  A 
ATOM      6 NE2  HIS C   3     -22.313 116.300-129.586  1.00 37.68 LIG-0.25  NA
ATOM      7  CD2 HIS C   3     -22.736 115.117-130.142  1.00 33.77 LIG 0.14  A 
ENDBRANCH 2 3
ENDBRANCH 1 2
BRANCH 1 8
ATOM      8  C   HIS C   3     -22.772 111.960-131.332  1.00 20.49 LIG 0.24  C 
ATOM      9  N   GLN C   4     -23.042 111.344-132.480  1.00 22.11 LIG-0.35  N 
ATOM     10 H    GLN C   4     -23.834 111.125-132.735  1.00 22.11 LIG 0.16  HD
ATOM     11 O    HIS C   3     -21.631 112.207-130.952  1.00 22.31 LIG-0.27  OA
BRANCH 9 12
ATOM     12  CA  GLN C   4     -21.984 110.984-133.413  1.00 24.42 LIG 0.18  C 
BRANCH 12 13
ATOM     13  C   GLN C   4     -21.272 112.236-133.925  1.00 25.27 LIG 0.24  C 
ATOM     14 O    GLN C   4     -20.051 112.245-134.097  1.00 26.26 LIG-0.27  OA
ATOM     15  N   GLU C   5     -22.038 113.297-134.152  1.00 23.86 LIG-0.34  N 
ATOM     16 H    GLU C   5     -22.880 113.328-133.980  1.00 23.86 LIG 0.16  HD
BRANCH 15 17
ATOM     17  CA  GLU C   5     -21.489 114.523-134.725  1.00 25.08 LIG 0.19  C 
BRANCH 17 18
ATOM     18  CB  GLU C   5     -22.603 115.384-135.322  1.00 28.24 LIG 0.05  C 
BRANCH 18 19
ATOM     19  CG  GLU C   5     -23.315 114.720-136.487  1.00 35.55 LIG 0.12  C 
BRANCH 19 20
ATOM     20  CD  GLU C   5     -24.260 115.661-137.197  1.00 50.11 LIG 0.17  C 
ATOM     21 OE2  GLU C   5     -23.797 116.404-138.091  1.00 51.97 LIG-0.65  OA
ATOM     22 OE1  GLU C   5     -25.463 115.660-136.857  1.00 61.02 LIG-0.65  OA
ENDBRANCH 19 20
ENDBRANCH 18 19
ENDBRANCH 17 18
BRANCH 17 23
ATOM     23  C   GLU C   5     -20.650 115.353-133.757  1.00 25.62 LIG 0.20  C 
ATOM     24 OXT  GLU C   5     -20.156 116.410-134.159  1.00 22.77 LIG-0.65  OA
ATOM     25 O    GLU C   5     -20.440 115.012-132.586  1.00 24.56 LIG-0.65  OA
ENDBRANCH 17 23
ENDBRANCH 15 17
ENDBRANCH 12 13
BRANCH 12 26
ATOM     26  CB  GLN C   4     -22.565 110.200-134.592  1.00 29.25 LIG 0.04  C 
BRANCH 26 27
ATOM     27  CG  GLN C   4     -21.517 109.659-135.555  1.00 33.50 LIG 0.10  C 
BRANCH 27 28
ATOM     28  CD  GLN C   4     -20.188 109.379-134.874  1.00 35.44 LIG 0.21  C 
ATOM     29  NE2 GLN C   4     -19.185 110.197-135.179  1.00 29.14 LIG-0.37  N 
ATOM     30 22HE GLN C   4     -18.413 110.085-134.819  1.00 29.14 LIG 0.16  HD
ATOM     31 21HE GLN C   4     -19.309 110.838-135.738  1.00 29.14 LIG 0.16  HD
ATOM     32 OE1  GLN C   4     -20.063 108.444-134.079  1.00 33.33 LIG-0.27  OA
ENDBRANCH 27 28
ENDBRANCH 26 27
ENDBRANCH 12 26
ENDBRANCH 9 12
ENDBRANCH 1 8
BRANCH 1 33
ATOM     33  N   HIS C   3     -24.943 111.303-130.355  1.00 25.18 LIG-0.35  N 
ATOM     34  C   SER C   2     -24.602 110.070-129.991  1.00 31.86 LIG 0.24  C 
ATOM     35 O    SER C   2     -23.439 109.708-129.812  1.00 26.79 LIG-0.27  OA
ATOM     36 H    HIS C   3     -25.751 111.541-130.530  1.00 25.18 LIG 0.16  HD
BRANCH 34 37
ATOM     37  CA  SER C   2     -25.753 109.096-129.809  1.00 34.72 LIG 0.20  C 
BRANCH 37 38
ATOM     38  N   SER C   2     -27.020 109.813-129.839  1.00 38.98 LIG-0.34  N 
ATOM     39  C   LYS C   1     -27.361 110.646-128.861  1.00 41.15 LIG 0.25  C 
ATOM     40 O    LYS C   1     -26.674 110.811-127.847  1.00 40.86 LIG-0.27  OA
ATOM     41 H    SER C   2     -27.508 109.650-130.528  1.00 38.98 LIG 0.16  HD
BRANCH 39 42
ATOM     42  CA  LYS C   1     -28.664 111.409-129.047  1.00 44.71 LIG 0.27  C 
BRANCH 42 43
ATOM     43  N   LYS C   1     -29.569 111.191-127.923  1.00 52.31 LIG-0.07  N 
ATOM     44 H3   LYS C   1     -29.105 110.911-127.217  1.00 52.31 LIG 0.28  HD
ATOM     45 H2   LYS C   1     -30.173 110.576-128.143  1.00 52.31 LIG 0.28  HD
ATOM     46 H1   LYS C   1     -29.982 111.954-127.723  1.00 52.31 LIG 0.28  HD
ENDBRANCH 42 43
BRANCH 42 47
ATOM     47  CB  LYS C   1     -28.355 112.899-129.211  1.00 46.48 LIG 0.04  C 
BRANCH 47 48
ATOM     48  CG  LYS C   1     -27.334 113.226-130.298  1.00 53.12 LIG 0.00  C 
BRANCH 48 49
ATOM     49  CD  LYS C   1     -26.576 114.516-130.009  1.00 36.86 LIG 0.03  C 
BRANCH 49 50
ATOM     50  CE  LYS C   1     -26.817 114.969-128.569  1.00 31.94 LIG 0.23  C 
BRANCH 50 51
ATOM     51  NZ  LYS C   1     -27.562 116.262-128.478  1.00 27.86 LIG-0.08  N 
ATOM     52 HZ3  LYS C   1     -28.437 116.103-128.508  1.00 27.86 LIG 0.27  HD
ATOM     53 HZ1  LYS C   1     -27.360 116.667-127.711  1.00 27.86 LIG 0.27  HD
ATOM     54 HZ2  LYS C   1     -27.332 116.786-129.159  1.00 27.86 LIG 0.27  HD
ENDBRANCH 50 51
ENDBRANCH 49 50
ENDBRANCH 48 49
ENDBRANCH 47 48
ENDBRANCH 42 47
ENDBRANCH 39 42
ENDBRANCH 37 38
BRANCH 37 55
ATOM     55  CB  SER C   2     -25.707 108.026-130.900  1.00 36.44 LIG 0.20  C 
BRANCH 55 56
ATOM     56 OG   SER C   2     -24.899 106.932-130.496  1.00 50.02 LIG-0.40  OA
ATOM     57 HG   SER C   2     -24.103 107.188-130.410  1.00 50.02 LIG 0.21  HD
ENDBRANCH 55 56
ENDBRANCH 37 55
ENDBRANCH 34 37
ENDBRANCH 1 33
TORSDOF 25
ENDMDL
MODEL 3
USER: ADFR SOLUTION from run 130
USER: SCORE 20.652652 LL:  -3.749 LR: -17.536 RR:   0.000 FEB: -10.079
USER: RMSD 1.851334
USER: SEED 129
USER: STATUS searching
USER: GENES 27
USER: genes 0 Translation |==|  0.42060 0.60972 0.60808
USER: genes 1 Rotation |==|  0.46444 0.51851 0.48818 0.99825
USER: genes 2 Torsion [C]-CA--CB-[CG] |==|  0.19517
USER: genes 3 Torsion [CA]-CB--CG-[ND1] |==|  0.59673
USER: genes 4 Torsion [N]-CA--C-[N] |==|  0.12782
USER: genes 5 Torsion [C]-N--CA-[C] |==|  0.82624
USER: genes 6 Torsion [N]-CA--C-[N] |==|  0.90745
USER: genes 7 Torsion [C]-N--CA-[CB] |==|  0.43291
USER: genes 8 Torsion [N]-CA--CB-[CG] |==|  0.80204
USER: genes 9 Torsion [CA]-CB--CG-[CD] |==|  0.53921
USER: genes 10 Torsion [CB]-CG--CD-[OE2] |==|  0.24835
USER: genes 11 Torsion [N]-CA--C-[OXT] |==|  0.46826
USER: genes 12 Torsion [N]-CA--CB-[CG] |==|  0.50165
USER: genes 13 Torsion [CA]-CB--CG-[CD] |==|  0.11330
USER: genes 14 Torsion [CB]-CG--CD-[OE1] |==|  0.17658
USER: genes 15 Torsion [CB]-CA--N-[C] |==|  0.79351
USER: genes 16 Torsion [N]-C--CA-[N] |==|  0.39545
USER: genes 17 Torsion [C]-CA--N-[C] |==|  0.83101
USER: genes 18 Torsion [N]-C--CA-[N] |==|  0.38154
USER: genes 19 Torsion [C]-CA--N-[H3] |==|  0.19861
USER: genes 20 Torsion [C]-CA--CB-[CG] |==|  0.35056
USER: genes 21 Torsion [CA]-CB--CG-[CD] |==|  0.64469
USER: genes 22 Torsion [CB]-CG--CD-[CE] |==|  0.64070
USER: genes 23 Torsion [CG]-CD--CE-[NZ] |==|  0.56874
USER: genes 24 Torsion [CD]-CE--NZ-[HZ3] |==|  0.96306
USER: genes 25 Torsion [C]-CA--CB-[OG] |==|  0.64823
USER: genes 26 Torsion [CA]-CB--OG-[HG] |==|  0.82051
ROOT
ATOM      1  CA  HIS C   3     -24.058 112.339-130.478  1.00 19.60 LIG 0.18  C 
ENDROOT
BRANCH 1 2
ATOM      2  CB  HIS C   3     -23.647 112.849-129.093  1.00 23.73 LIG 0.10  C 
BRANCH 2 3
ATOM      3  CG  HIS C   3     -22.982 114.189-129.127  1.00 30.80 LIG 0.06  A 
ATOM      4 ND1  HIS C   3     -21.967 114.539-128.264  1.00 38.28 LIG-0.24  NA
ATOM      5  CE1 HIS C   3     -21.582 115.775-128.519  1.00 40.75 LIG 0.23  A 
ATOM      6 NE2  HIS C   3     -22.313 116.243-129.515  1.00 37.68 LIG-0.25  NA
ATOM      7  CD2 HIS C   3     -23.197 115.269-129.915  1.00 33.77 LIG 0.14  A 
ENDBRANCH 2 3
ENDBRANCH 1 2
BRANCH 1 8
ATOM      8  C   HIS C   3     -22.831 111.970-131.286  1.00 20.49 LIG 0.24  C 
ATOM      9  N   GLN C   4     -23.048 111.315-132.424  1.00 22.11 LIG-0.35  N 
ATOM     10 H    GLN C   4     -23.822 111.050-132.688  1.00 22.11 LIG 0.16  HD
ATOM     11 O    HIS C   3     -21.712 112.284-130.892  1.00 22.31 LIG-0.27  OA
BRANCH 9 12
ATOM     12  CA  GLN C   4     -21.955 110.991-133.331  1.00 24.42 LIG 0.18  C 
BRANCH 12 13
ATOM     13  C   GLN C   4     -21.299 112.267-133.857  1.00 25.27 LIG 0.24  C 
ATOM     14 O    GLN C   4     -20.088 112.309-134.086  1.00 26.26 LIG-0.27  OA
ATOM     15  N   GLU C   5     -22.099 113.312-134.030  1.00 23.86 LIG-0.34  N 
ATOM     16 H    GLU C   5     -22.933 113.321-133.818  1.00 23.86 LIG 0.16  HD
BRANCH 15 17
ATOM     17  CA  GLU C   5     -21.607 114.560-134.610  1.00 25.08 LIG 0.19  C 
BRANCH 17 18
ATOM     18  CB  GLU C   5     -22.754 115.349-135.241  1.00 28.24 LIG 0.05  C 
BRANCH 18 19
ATOM     19  CG  GLU C   5     -23.283 114.719-136.519  1.00 35.55 LIG 0.12  C 
BRANCH 19 20
ATOM     20  CD  GLU C   5     -24.163 115.663-137.305  1.00 50.11 LIG 0.17  C 
ATOM     21 OE2  GLU C   5     -23.624 116.409-138.153  1.00 51.97 LIG-0.65  OA
ATOM     22 OE1  GLU C   5     -25.391 115.661-137.072  1.00 61.02 LIG-0.65  OA
ENDBRANCH 19 20
ENDBRANCH 18 19
ENDBRANCH 17 18
BRANCH 17 23
ATOM     23  C   GLU C   5     -20.836 115.448-133.637  1.00 25.62 LIG 0.20  C 
ATOM     24 OXT  GLU C   5     -20.206 116.409-134.086  1.00 22.77 LIG-0.65  OA
ATOM     25 O    GLU C   5     -20.813 115.247-132.416  1.00 24.56 LIG-0.65  OA
ENDBRANCH 17 23
ENDBRANCH 15 17
ENDBRANCH 12 13
BRANCH 12 26
ATOM     26  CB  GLN C   4     -22.474 110.154-134.502  1.00 29.25 LIG 0.04  C 
BRANCH 26 27
ATOM     27  CG  GLN C   4     -21.398 109.752-135.503  1.00 33.50 LIG 0.10  C 
BRANCH 27 28
ATOM     28  CD  GLN C   4     -20.099 109.343-134.828  1.00 35.44 LIG 0.21  C 
ATOM     29  NE2 GLN C   4     -19.039 110.106-135.078  1.00 29.14 LIG-0.37  N 
ATOM     30 22HE GLN C   4     -18.281 109.920-134.719  1.00 29.14 LIG 0.16  HD
ATOM     31 21HE GLN C   4     -19.113 110.785-135.600  1.00 29.14 LIG 0.16  HD
ATOM     32 OE1  GLN C   4     -20.048 108.357-134.088  1.00 33.33 LIG-0.27  OA
ENDBRANCH 27 28
ENDBRANCH 26 27
ENDBRANCH 12 26
ENDBRANCH 9 12
ENDBRANCH 1 8
BRANCH 1 33
ATOM     33  N   HIS C   3     -24.995 111.228-130.355  1.00 25.18 LIG-0.35  N 
ATOM     34  C   SER C   2     -24.612 110.011-129.981  1.00 31.86 LIG 0.24  C 
ATOM     35 O    SER C   2     -23.438 109.696-129.781  1.00 26.79 LIG-0.27  OA
ATOM     36 H    HIS C   3     -25.809 111.434-130.545  1.00 25.18 LIG 0.16  HD
BRANCH 34 37
ATOM     37  CA  SER C   2     -25.725 108.992-129.819  1.00 34.72 LIG 0.20  C 
BRANCH 37 38
ATOM     38  N   SER C   2     -25.277 107.688-130.286  1.00 38.98 LIG-0.34  N 
ATOM     39  C   LYS C   1     -24.900 107.502-131.547  1.00 41.15 LIG 0.25  C 
ATOM     40 O    LYS C   1     -24.970 108.386-132.407  1.00 40.86 LIG-0.27  OA
ATOM     41 H    SER C   2     -25.280 107.071-129.686  1.00 38.98 LIG 0.16  HD
BRANCH 39 42
ATOM     42  CA  LYS C   1     -24.362 106.122-131.894  1.00 44.71 LIG 0.27  C 
BRANCH 42 43
ATOM     43  N   LYS C   1     -24.885 105.658-133.175  1.00 52.31 LIG-0.07  N 
ATOM     44 H3   LYS C   1     -24.512 106.124-133.835  1.00 52.31 LIG 0.28  HD
ATOM     45 H2   LYS C   1     -25.767 105.771-133.194  1.00 52.31 LIG 0.28  HD
ATOM     46 H1   LYS C   1     -24.695 104.794-133.278  1.00 52.31 LIG 0.28  HD
ENDBRANCH 42 43
BRANCH 42 47
ATOM     47  CB  LYS C   1     -22.832 106.171-131.922  1.00 46.48 LIG 0.04  C 
BRANCH 47 48
ATOM     48  CG  LYS C   1     -22.142 105.133-131.040  1.00 53.12 LIG 0.00  C 
BRANCH 48 49
ATOM     49  CD  LYS C   1     -21.115 105.760-130.106  1.00 36.86 LIG 0.03  C 
BRANCH 49 50
ATOM     50  CE  LYS C   1     -19.777 105.026-130.209  1.00 31.94 LIG 0.23  C 
BRANCH 50 51
ATOM     51  NZ  LYS C   1     -18.938 105.160-128.979  1.00 27.86 LIG-0.08  N 
ATOM     52 HZ3  LYS C   1     -19.271 105.802-128.462  1.00 27.86 LIG 0.27  HD
ATOM     53 HZ1  LYS C   1     -18.940 104.389-128.534  1.00 27.86 LIG 0.27  HD
ATOM     54 HZ2  LYS C   1     -18.104 105.367-129.210  1.00 27.86 LIG 0.27  HD
ENDBRANCH 50 51
ENDBRANCH 49 50
ENDBRANCH 48 49
ENDBRANCH 47 48
ENDBRANCH 42 47
ENDBRANCH 39 42
ENDBRANCH 37 38
BRANCH 37 55
ATOM     55  CB  SER C   2     -26.162 108.926-128.355  1.00 36.44 LIG 0.20  C 
BRANCH 55 56
ATOM     56 OG   SER C   2     -26.118 107.590-127.879  1.00 50.02 LIG-0.40  OA
ATOM     57 HG   SER C   2     -26.680 107.125-128.296  1.00 50.02 LIG 0.21  HD
ENDBRANCH 55 56
ENDBRANCH 37 55
ENDBRANCH 34 37
ENDBRANCH 1 33
TORSDOF 25
ENDMDL
