MODEL 1
USER: ADFR SOLUTION from run 78
USER: SCORE 18.307365 LL:  -1.540 LR: -18.269 RR:   0.000 FEB: -12.303
USER: RMSD 3.931607
USER: SEED 77
USER: STATUS no improvement in best in 2 clusters for 5 generations
USER: GENES 22
USER: genes 0 Translation |==|  0.41531 0.49354 0.45682
USER: genes 1 Rotation |==|  0.52541 0.48701 0.58968 0.99106
USER: genes 2 Torsion [N]-CA--C-[N] |==|  0.12125
USER: genes 3 Torsion [C]-N--CA-[CB] |==|  0.47480
USER: genes 4 Torsion [N]-CA--CB-[CG] |==|  0.53588
USER: genes 5 Torsion [CA]-CB--CG-[CD1] |==|  0.11499
USER: genes 6 Torsion [N]-CA--C-[N] |==|  0.94164
USER: genes 7 Torsion [C]-N--CA-[CB] |==|  0.48661
USER: genes 8 Torsion [N]-CA--C-[O] |==|  0.47047
USER: genes 9 Torsion [N]-CA--CB-[CG] |==|  0.72300
USER: genes 10 Torsion [CA]-CB--CG-[OD2] |==|  0.34685
USER: genes 11 Torsion [C]-CA--CB-[CG] |==|  0.43278
USER: genes 12 Torsion [CA]-CB--CG-[CD] |==|  0.82751
USER: genes 13 Torsion [CB]-CG--CD-[CE] |==|  0.63179
USER: genes 14 Torsion [CG]-CD--CE-[NZ] |==|  0.62814
USER: genes 15 Torsion [CD]-CE--NZ-[HZ2] |==|  0.82543
USER: genes 16 Torsion [C]-CA--N-[C] |==|  0.13333
USER: genes 17 Torsion [N]-C--CA-[N] |==|  0.00868
USER: genes 18 Torsion [C]-CA--CB-[CG] |==|  0.23602
USER: genes 19 Torsion [CA]-CB--CG-[CD] |==|  0.72177
USER: genes 20 Torsion [CB]-CG--CD-[NE] |==|  0.43802
USER: genes 21 Torsion [CG]-CD--NE-[CZ] |==|  0.26212
ROOT
ATOM      1  CA  LYS D   8      18.517-118.857 161.511  1.00 12.19 LIG 0.18  C 
ENDROOT
BRANCH 1 2
ATOM      2  C   LYS D   8      17.854-118.366 160.226  1.00 13.86 LIG 0.24  C 
ATOM      3 O    LYS D   8      16.835-118.912 159.799  1.00 13.19 LIG-0.27  OA
ATOM      4  N   LEU D   9      18.426-117.348 159.590  1.00 13.79 LIG-0.35  N 
ATOM      5 H    LEU D   9      19.141-116.949 159.853  1.00 13.79 LIG 0.16  HD
BRANCH 4 6
ATOM      6  CA  LEU D   9      17.849-116.827 158.359  1.00 13.45 LIG 0.18  C 
BRANCH 6 7
ATOM      7  CB  LEU D   9      18.550-115.531 157.948  1.00 15.24 LIG 0.04  C 
BRANCH 7 8
ATOM      8  CG  LEU D   9      17.856-114.715 156.857  1.00 15.65 LIG-0.02  C 
ATOM      9  CD1 LEU D   9      16.356-114.686 157.079  1.00 23.17 LIG 0.01  C 
ATOM     10  CD2 LEU D   9      18.411-113.304 156.857  1.00 23.01 LIG 0.01  C 
ENDBRANCH 7 8
ENDBRANCH 6 7
BRANCH 6 11
ATOM     11  C   LEU D   9      17.875-117.838 157.209  1.00 13.91 LIG 0.24  C 
ATOM     12  N   ASP D  10      18.753-118.832 157.307  1.00 15.10 LIG-0.34  N 
ATOM     13 H    ASP D  10      19.266-118.951 157.985  1.00 15.10 LIG 0.16  HD
ATOM     14 O    LEU D   9      17.099-117.721 156.260  1.00 14.13 LIG-0.27  OA
BRANCH 12 15
ATOM     15  CA  ASP D  10      18.920-119.825 156.244  1.00 14.88 LIG 0.20  C 
BRANCH 15 16
ATOM     16  C   ASP D  10      17.658-120.646 156.001  1.00 18.09 LIG 0.20  C 
ATOM     17 O    ASP D  10      17.582-121.380 155.014  1.00 15.20 LIG-0.65  OA
ATOM     18 OXT  ASP D  10      16.704-120.611 156.782  1.00 15.71 LIG-0.65  OA
ENDBRANCH 15 16
BRANCH 15 19
ATOM     19  CB  ASP D  10      20.074-120.777 156.567  1.00 14.49 LIG 0.15  C 
BRANCH 19 20
ATOM     20  CG  ASP D  10      21.355-120.416 155.840  1.00 20.14 LIG 0.17  C 
ATOM     21 OD2  ASP D  10      22.381-120.236 156.525  1.00 22.62 LIG-0.65  OA
ATOM     22 OD1  ASP D  10      21.339-120.324 154.594  1.00 23.52 LIG-0.65  OA
ENDBRANCH 19 20
ENDBRANCH 15 19
ENDBRANCH 12 15
ENDBRANCH 6 11
ENDBRANCH 4 6
ENDBRANCH 1 2
BRANCH 1 23
ATOM     23  CB  LYS D   8      17.553-119.791 162.249  1.00 14.93 LIG 0.04  C 
BRANCH 23 24
ATOM     24  CG  LYS D   8      18.231-120.775 163.181  1.00 16.49 LIG 0.00  C 
BRANCH 24 25
ATOM     25  CD  LYS D   8      19.142-121.694 162.404  1.00 20.48 LIG 0.03  C 
BRANCH 25 26
ATOM     26  CE  LYS D   8      18.937-123.143 162.791  1.00 18.72 LIG 0.23  C 
BRANCH 26 27
ATOM     27  NZ  LYS D   8      20.254-123.800 163.001  1.00 16.35 LIG-0.08  N 
ATOM     28 HZ2  LYS D   8      20.712-123.798 162.238  1.00 16.35 LIG 0.27  HD
ATOM     29 HZ3  LYS D   8      20.711-123.357 163.623  1.00 16.35 LIG 0.27  HD
ATOM     30 HZ1  LYS D   8      20.127-124.640 163.268  1.00 16.35 LIG 0.27  HD
ENDBRANCH 26 27
ENDBRANCH 25 26
ENDBRANCH 24 25
ENDBRANCH 23 24
ENDBRANCH 1 23
BRANCH 1 31
ATOM     31  N   LYS D   8      18.945-117.769 162.390  1.00 12.29 LIG-0.35  N 
ATOM     32  C   ARG D   7      18.142-116.750 162.699  1.00 12.18 LIG 0.26  C 
ATOM     33 O    ARG D   7      17.012-116.630 162.247  1.00 12.68 LIG-0.27  OA
ATOM     34 H    LYS D   8      19.750-117.849 162.682  1.00 12.29 LIG 0.16  HD
BRANCH 32 35
ATOM     35  CA  ARG D   7      18.697-115.707 163.667  1.00 18.47 LIG 0.40  C 
ATOM     36  N   ARG D   7      20.082-116.009 164.021  1.00 16.79 LIG 0.61  N 
BRANCH 35 37
ATOM     37  CB  ARG D   7      18.615-114.319 163.028  1.00 18.75 LIG 0.05  C 
BRANCH 37 38
ATOM     38  CG  ARG D   7      17.271-113.621 163.200  1.00 15.67 LIG 0.02  C 
BRANCH 38 39
ATOM     39  CD  ARG D   7      16.414-113.743 161.944  1.00 21.79 LIG 0.14  C 
BRANCH 39 40
ATOM     40  NE  ARG D   7      14.987-113.568 162.218  1.00 19.93 LIG-0.23  N 
ATOM     41  CZ  ARG D   7      14.336-112.412 162.106  1.00 19.53 LIG 0.67  C 
ATOM     42  NH2 ARG D   7      13.044-112.361 162.383  1.00 23.42 LIG-0.23  N 
ATOM     43  NH1 ARG D   7      14.969-111.313 161.719  1.00 23.45 LIG-0.23  N 
ATOM     44 2HH2 ARG D   7      12.619-111.617 162.312  1.00 23.42 LIG 0.17  HD
ATOM     45 1HH2 ARG D   7      12.630-113.071 162.634  1.00 23.42 LIG 0.17  HD
ATOM     46 2HH1 ARG D   7      14.539-110.572 161.650  1.00 23.45 LIG 0.17  HD
ATOM     47 1HH1 ARG D   7      15.809-111.342 161.538  1.00 23.45 LIG 0.17  HD
ATOM     48 HE   ARG D   7      14.540-114.259 162.468  1.00 19.93 LIG 0.18  HD
ENDBRANCH 39 40
ENDBRANCH 38 39
ENDBRANCH 37 38
ENDBRANCH 35 37
ENDBRANCH 32 35
ENDBRANCH 1 31
TORSDOF 20
ENDMDL
MODEL 2
USER: ADFR SOLUTION from run 4
USER: SCORE 18.031592 LL:  -1.437 LR: -18.076 RR:   0.000 FEB: -12.110
USER: RMSD 1.319631
USER: SEED 602417
USER: STATUS 1 or 2 clusters left
USER: GENES 22
USER: genes 0 Translation |==|  0.40947 0.48615 0.45991
USER: genes 1 Rotation |==|  0.52958 0.48375 0.56675 0.99437
USER: genes 2 Torsion [N]-CA--C-[N] |==|  0.12467
USER: genes 3 Torsion [C]-N--CA-[CB] |==|  0.47063
USER: genes 4 Torsion [N]-CA--CB-[CG] |==|  0.62492
USER: genes 5 Torsion [CA]-CB--CG-[CD1] |==|  0.76233
USER: genes 6 Torsion [N]-CA--C-[N] |==|  0.92411
USER: genes 7 Torsion [C]-N--CA-[CB] |==|  0.48554
USER: genes 8 Torsion [N]-CA--C-[O] |==|  0.47240
USER: genes 9 Torsion [N]-CA--CB-[CG] |==|  0.72634
USER: genes 10 Torsion [CA]-CB--CG-[OD2] |==|  0.34813
USER: genes 11 Torsion [C]-CA--CB-[CG] |==|  0.43137
USER: genes 12 Torsion [CA]-CB--CG-[CD] |==|  0.88003
USER: genes 13 Torsion [CB]-CG--CD-[CE] |==|  0.64241
USER: genes 14 Torsion [CG]-CD--CE-[NZ] |==|  0.62412
USER: genes 15 Torsion [CD]-CE--NZ-[HZ2] |==|  0.76790
USER: genes 16 Torsion [C]-CA--N-[C] |==|  0.13913
USER: genes 17 Torsion [N]-C--CA-[N] |==|  0.41381
USER: genes 18 Torsion [C]-CA--CB-[CG] |==|  0.18212
USER: genes 19 Torsion [CA]-CB--CG-[CD] |==|  0.33149
USER: genes 20 Torsion [CB]-CG--CD-[NE] |==|  0.44237
USER: genes 21 Torsion [CG]-CD--NE-[CZ] |==|  0.17170
ROOT
ATOM      1  CA  LYS D   8      18.434-118.996 161.583  1.00 12.19 LIG 0.18  C 
ENDROOT
BRANCH 1 2
ATOM      2  C   LYS D   8      17.826-118.419 160.305  1.00 13.86 LIG 0.24  C 
ATOM      3 O    LYS D   8      16.752-118.844 159.876  1.00 13.19 LIG-0.27  OA
ATOM      4  N   LEU D   9      18.506-117.463 159.680  1.00 13.79 LIG-0.35  N 
ATOM      5 H    LEU D   9      19.262-117.149 159.944  1.00 13.79 LIG 0.16  HD
BRANCH 4 6
ATOM      6  CA  LEU D   9      17.988-116.867 158.456  1.00 13.45 LIG 0.18  C 
BRANCH 6 7
ATOM      7  CB  LEU D   9      18.804-115.631 158.078  1.00 15.24 LIG 0.04  C 
BRANCH 7 8
ATOM      8  CG  LEU D   9      17.997-114.403 157.656  1.00 15.65 LIG-0.02  C 
ATOM      9  CD1 LEU D   9      17.659-114.464 156.178  1.00 23.17 LIG 0.01  C 
ATOM     10  CD2 LEU D   9      16.727-114.329 158.479  1.00 23.01 LIG 0.01  C 
ENDBRANCH 7 8
ENDBRANCH 6 7
BRANCH 6 11
ATOM     11  C   LEU D   9      17.933-117.853 157.285  1.00 13.91 LIG 0.24  C 
ATOM     12  N   ASP D  10      18.810-118.853 157.304  1.00 15.10 LIG-0.34  N 
ATOM     13 H    ASP D  10      19.366-118.990 157.945  1.00 15.10 LIG 0.16  HD
ATOM     14 O    LEU D   9      17.099-117.711 156.390  1.00 14.13 LIG-0.27  OA
BRANCH 12 15
ATOM     15  CA  ASP D  10      18.902-119.822 156.210  1.00 14.88 LIG 0.20  C 
BRANCH 15 16
ATOM     16  C   ASP D  10      17.626-120.638 156.037  1.00 18.09 LIG 0.20  C 
ATOM     17 O    ASP D  10      17.487-121.361 155.048  1.00 15.20 LIG-0.65  OA
ATOM     18 OXT  ASP D  10      16.723-120.611 156.877  1.00 15.71 LIG-0.65  OA
ENDBRANCH 15 16
BRANCH 15 19
ATOM     19  CB  ASP D  10      20.075-120.780 156.433  1.00 14.49 LIG 0.15  C 
BRANCH 19 20
ATOM     20  CG  ASP D  10      21.312-120.386 155.649  1.00 20.14 LIG 0.17  C 
ATOM     21 OD2  ASP D  10      22.377-120.236 156.281  1.00 22.62 LIG-0.65  OA
ATOM     22 OD1  ASP D  10      21.225-120.239 154.412  1.00 23.52 LIG-0.65  OA
ENDBRANCH 19 20
ENDBRANCH 15 19
ENDBRANCH 12 15
ENDBRANCH 6 11
ENDBRANCH 4 6
ENDBRANCH 1 2
BRANCH 1 23
ATOM     23  CB  LYS D   8      17.384-119.851 162.298  1.00 14.93 LIG 0.04  C 
BRANCH 23 24
ATOM     24  CG  LYS D   8      17.963-120.920 163.202  1.00 16.49 LIG 0.00  C 
BRANCH 24 25
ATOM     25  CD  LYS D   8      19.121-121.612 162.526  1.00 20.48 LIG 0.03  C 
BRANCH 25 26
ATOM     26  CE  LYS D   8      18.967-123.118 162.554  1.00 18.72 LIG 0.23  C 
BRANCH 26 27
ATOM     27  NZ  LYS D   8      20.258-123.749 162.933  1.00 16.35 LIG-0.08  N 
ATOM     28 HZ2  LYS D   8      20.774-123.827 162.212  1.00 16.35 LIG 0.27  HD
ATOM     29 HZ3  LYS D   8      20.670-123.243 163.539  1.00 16.35 LIG 0.27  HD
ATOM     30 HZ1  LYS D   8      20.104-124.556 163.276  1.00 16.35 LIG 0.27  HD
ENDBRANCH 26 27
ENDBRANCH 25 26
ENDBRANCH 24 25
ENDBRANCH 23 24
ENDBRANCH 1 23
BRANCH 1 31
ATOM     31  N   LYS D   8      18.956-117.970 162.485  1.00 12.29 LIG-0.35  N 
ATOM     32  C   ARG D   7      18.234-116.908 162.845  1.00 12.18 LIG 0.26  C 
ATOM     33 O    ARG D   7      17.105-116.694 162.422  1.00 12.68 LIG-0.27  OA
ATOM     34 H    LYS D   8      19.759-118.115 162.757  1.00 12.29 LIG 0.16  HD
BRANCH 32 35
ATOM     35  CA  ARG D   7      18.880-115.939 163.832  1.00 18.47 LIG 0.40  C 
ATOM     36  N   ARG D   7      18.413-114.573 163.604  1.00 16.79 LIG 0.61  N 
BRANCH 35 37
ATOM     37  CB  ARG D   7      18.552-116.368 165.263  1.00 18.75 LIG 0.05  C 
BRANCH 37 38
ATOM     38  CG  ARG D   7      19.153-117.706 165.677  1.00 15.67 LIG 0.02  C 
BRANCH 38 39
ATOM     39  CD  ARG D   7      20.097-117.550 166.865  1.00 21.79 LIG 0.14  C 
BRANCH 39 40
ATOM     40  NE  ARG D   7      20.307-118.807 167.584  1.00 19.93 LIG-0.23  N 
ATOM     41  CZ  ARG D   7      20.852-119.897 167.049  1.00 19.53 LIG 0.67  C 
ATOM     42  NH2 ARG D   7      20.993-120.986 167.786  1.00 23.42 LIG-0.23  N 
ATOM     43  NH1 ARG D   7      21.255-119.903 165.786  1.00 23.45 LIG-0.23  N 
ATOM     44 2HH2 ARG D   7      21.344-121.693 167.446  1.00 23.42 LIG 0.17  HD
ATOM     45 1HH2 ARG D   7      20.733-120.987 168.606  1.00 23.42 LIG 0.17  HD
ATOM     46 2HH1 ARG D   7      21.606-120.612 165.450  1.00 23.45 LIG 0.17  HD
ATOM     47 1HH1 ARG D   7      21.166-119.197 165.303  1.00 23.45 LIG 0.17  HD
ATOM     48 HE   ARG D   7      20.062-118.843 168.408  1.00 19.93 LIG 0.18  HD
ENDBRANCH 39 40
ENDBRANCH 38 39
ENDBRANCH 37 38
ENDBRANCH 35 37
ENDBRANCH 32 35
ENDBRANCH 1 31
TORSDOF 20
ENDMDL
MODEL 3
USER: ADFR SOLUTION from run 19
USER: SCORE 16.623150 LL:  -1.499 LR: -16.638 RR:   0.000 FEB: -10.672
USER: RMSD 2.071275
USER: SEED 18
USER: STATUS no improvement in best in 3 clusters for 5 generations
USER: GENES 22
USER: genes 0 Translation |==|  0.42554 0.48382 0.45819
USER: genes 1 Rotation |==|  0.54126 0.48781 0.59150 0.98967
USER: genes 2 Torsion [N]-CA--C-[N] |==|  0.13459
USER: genes 3 Torsion [C]-N--CA-[CB] |==|  0.47129
USER: genes 4 Torsion [N]-CA--CB-[CG] |==|  0.65563
USER: genes 5 Torsion [CA]-CB--CG-[CD1] |==|  0.77843
USER: genes 6 Torsion [N]-CA--C-[N] |==|  0.93519
USER: genes 7 Torsion [C]-N--CA-[CB] |==|  0.48513
USER: genes 8 Torsion [N]-CA--C-[O] |==|  0.47305
USER: genes 9 Torsion [N]-CA--CB-[CG] |==|  0.72687
USER: genes 10 Torsion [CA]-CB--CG-[OD2] |==|  0.34641
USER: genes 11 Torsion [C]-CA--CB-[CG] |==|  0.40586
USER: genes 12 Torsion [CA]-CB--CG-[CD] |==|  0.76786
USER: genes 13 Torsion [CB]-CG--CD-[CE] |==|  0.58159
USER: genes 14 Torsion [CG]-CD--CE-[NZ] |==|  0.69065
USER: genes 15 Torsion [CD]-CE--NZ-[HZ2] |==|  0.65500
USER: genes 16 Torsion [C]-CA--N-[C] |==|  0.13617
USER: genes 17 Torsion [N]-C--CA-[N] |==|  0.40030
USER: genes 18 Torsion [C]-CA--CB-[CG] |==|  0.36664
USER: genes 19 Torsion [CA]-CB--CG-[CD] |==|  0.20524
USER: genes 20 Torsion [CB]-CG--CD-[NE] |==|  0.31400
USER: genes 21 Torsion [CG]-CD--NE-[CZ] |==|  0.39700
ROOT
ATOM      1  CA  LYS D   8      18.663-119.039 161.543  1.00 12.19 LIG 0.18  C 
ENDROOT
BRANCH 1 2
ATOM      2  C   LYS D   8      17.977-118.477 160.300  1.00 13.86 LIG 0.24  C 
ATOM      3 O    LYS D   8      16.910-118.951 159.905  1.00 13.19 LIG-0.27  OA
ATOM      4  N   LEU D   9      18.581-117.478 159.664  1.00 13.79 LIG-0.35  N 
ATOM      5 H    LEU D   9      19.330-117.129 159.904  1.00 13.79 LIG 0.16  HD
BRANCH 4 6
ATOM      6  CA  LEU D   9      17.985-116.892 158.471  1.00 13.45 LIG 0.18  C 
BRANCH 6 7
ATOM      7  CB  LEU D   9      18.725-115.613 158.079  1.00 15.24 LIG 0.04  C 
BRANCH 7 8
ATOM      8  CG  LEU D   9      17.865-114.354 157.964  1.00 15.65 LIG-0.02  C 
ATOM      9  CD1 LEU D   9      17.129-114.325 156.638  1.00 23.17 LIG 0.01  C 
ATOM     10  CD2 LEU D   9      16.876-114.314 159.111  1.00 23.01 LIG 0.01  C 
ENDBRANCH 7 8
ENDBRANCH 6 7
BRANCH 6 11
ATOM     11  C   LEU D   9      17.930-117.864 157.289  1.00 13.91 LIG 0.24  C 
ATOM     12  N   ASP D  10      18.801-118.868 157.299  1.00 15.10 LIG-0.34  N 
ATOM     13 H    ASP D  10      19.354-119.016 157.941  1.00 15.10 LIG 0.16  HD
ATOM     14 O    LEU D   9      17.100-117.707 156.393  1.00 14.13 LIG-0.27  OA
BRANCH 12 15
ATOM     15  CA  ASP D  10      18.892-119.825 156.195  1.00 14.88 LIG 0.20  C 
BRANCH 15 16
ATOM     16  C   ASP D  10      17.614-120.635 156.010  1.00 18.09 LIG 0.20  C 
ATOM     17 O    ASP D  10      17.475-121.349 155.015  1.00 15.20 LIG-0.65  OA
ATOM     18 OXT  ASP D  10      16.707-120.611 156.846  1.00 15.71 LIG-0.65  OA
ENDBRANCH 15 16
BRANCH 15 19
ATOM     19  CB  ASP D  10      20.061-120.790 156.409  1.00 14.49 LIG 0.15  C 
BRANCH 19 20
ATOM     20  CG  ASP D  10      21.303-120.389 155.636  1.00 20.14 LIG 0.17  C 
ATOM     21 OD2  ASP D  10      22.363-120.239 156.277  1.00 22.62 LIG-0.65  OA
ATOM     22 OD1  ASP D  10      21.224-120.236 154.399  1.00 23.52 LIG-0.65  OA
ENDBRANCH 19 20
ENDBRANCH 15 19
ENDBRANCH 12 15
ENDBRANCH 6 11
ENDBRANCH 4 6
ENDBRANCH 1 2
BRANCH 1 23
ATOM     23  CB  LYS D   8      17.719-120.027 162.235  1.00 14.93 LIG 0.04  C 
BRANCH 23 24
ATOM     24  CG  LYS D   8      18.419-121.193 162.903  1.00 16.49 LIG 0.00  C 
BRANCH 24 25
ATOM     25  CD  LYS D   8      18.704-122.282 161.898  1.00 20.48 LIG 0.03  C 
BRANCH 25 26
ATOM     26  CE  LYS D   8      18.717-123.651 162.545  1.00 18.72 LIG 0.23  C 
BRANCH 26 27
ATOM     27  NZ  LYS D   8      20.099-124.198 162.540  1.00 16.35 LIG-0.08  N 
ATOM     28 HZ2  LYS D   8      20.103-124.991 162.136  1.00 16.35 LIG 0.27  HD
ATOM     29 HZ3  LYS D   8      20.638-123.640 162.104  1.00 16.35 LIG 0.27  HD
ATOM     30 HZ1  LYS D   8      20.384-124.291 163.379  1.00 16.35 LIG 0.27  HD
ENDBRANCH 26 27
ENDBRANCH 25 26
ENDBRANCH 24 25
ENDBRANCH 23 24
ENDBRANCH 1 23
BRANCH 1 31
ATOM     31  N   LYS D   8      19.093-118.003 162.481  1.00 12.29 LIG-0.35  N 
ATOM     32  C   ARG D   7      18.279-117.025 162.879  1.00 12.18 LIG 0.26  C 
ATOM     33 O    ARG D   7      17.134-116.900 162.466  1.00 12.68 LIG-0.27  OA
ATOM     34 H    LYS D   8      19.907-118.085 162.747  1.00 12.29 LIG 0.16  HD
BRANCH 32 35
ATOM     35  CA  ARG D   7      18.839-116.037 163.900  1.00 18.47 LIG 0.40  C 
ATOM     36  N   ARG D   7      18.335-114.687 163.650  1.00 16.79 LIG 0.61  N 
BRANCH 35 37
ATOM     37  CB  ARG D   7      18.452-116.482 165.312  1.00 18.75 LIG 0.05  C 
BRANCH 37 38
ATOM     38  CG  ARG D   7      19.602-116.488 166.311  1.00 15.67 LIG 0.02  C 
BRANCH 38 39
ATOM     39  CD  ARG D   7      19.988-115.071 166.727  1.00 21.79 LIG 0.14  C 
BRANCH 39 40
ATOM     40  NE  ARG D   7      19.691-114.798 168.133  1.00 19.93 LIG-0.23  N 
ATOM     41  CZ  ARG D   7      20.456-114.058 168.933  1.00 19.53 LIG 0.67  C 
ATOM     42  NH2 ARG D   7      20.099-113.876 170.193  1.00 23.42 LIG-0.23  N 
ATOM     43  NH1 ARG D   7      21.571-113.502 168.480  1.00 23.45 LIG-0.23  N 
ATOM     44 2HH2 ARG D   7      20.589-113.399 170.714  1.00 23.42 LIG 0.17  HD
ATOM     45 1HH2 ARG D   7      19.377-114.235 170.492  1.00 23.42 LIG 0.17  HD
ATOM     46 2HH1 ARG D   7      22.058-113.025 169.004  1.00 23.45 LIG 0.17  HD
ATOM     47 1HH1 ARG D   7      21.806-113.617 167.660  1.00 23.45 LIG 0.17  HD
ATOM     48 HE   ARG D   7      18.974-115.138 168.465  1.00 19.93 LIG 0.18  HD
ENDBRANCH 39 40
ENDBRANCH 38 39
ENDBRANCH 37 38
ENDBRANCH 35 37
ENDBRANCH 32 35
ENDBRANCH 1 31
TORSDOF 20
ENDMDL
