MODEL 1
USER: ADFR SOLUTION from run 168
USER: SCORE 21.998921 LL:  -4.593 LR: -20.481 RR:   0.000 FEB: -11.532
USER: RMSD 3.701394
USER: SEED 167
USER: STATUS no improvement in best in 5 clusters for 5 generations
USER: GENES 32
USER: genes 0 Translation |==|  0.69911 0.57196 0.55973
USER: genes 1 Rotation |==|  0.48645 0.63380 0.44459 0.97838
USER: genes 2 Torsion [N]-C--CA-[N] |==|  0.91454
USER: genes 3 Torsion [C]-CA--N-[C] |==|  0.73636
USER: genes 4 Torsion [N]-C--CA-[N] |==|  0.20639
USER: genes 5 Torsion [C]-CA--N-[C] |==|  0.80554
USER: genes 6 Torsion [N]-C--CA-[N] |==|  0.67106
USER: genes 7 Torsion [C]-CA--N-[H3] |==|  0.26432
USER: genes 8 Torsion [C]-CA--CB-[OG1] |==|  0.78149
USER: genes 9 Torsion [CA]-CB--OG1-[HG1] |==|  0.47558
USER: genes 10 Torsion [C]-CA--CB-[CG] |==|  0.75454
USER: genes 11 Torsion [CA]-CB--CG-[CD1] |==|  0.72798
USER: genes 12 Torsion [C]-CA--CB-[CG] |==|  0.33233
USER: genes 13 Torsion [CA]-CB--CG-[CD] |==|  0.23457
USER: genes 14 Torsion [CB]-CG--CD-[CE] |==|  0.69971
USER: genes 15 Torsion [CG]-CD--CE-[NZ] |==|  0.63420
USER: genes 16 Torsion [CD]-CE--NZ-[HZ2] |==|  0.76089
USER: genes 17 Torsion [C]-N--CA-[CB] |==|  0.54479
USER: genes 18 Torsion [N]-CA--C-[N] |==|  0.85212
USER: genes 19 Torsion [C]-N--CA-[CB] |==|  0.36282
USER: genes 20 Torsion [N]-CA--CB-[CG2] |==|  0.71382
USER: genes 21 Torsion [CA]-CB--OG1-[HG1] |==|  0.61887
USER: genes 22 Torsion [N]-CA--C-[N] |==|  0.86258
USER: genes 23 Torsion [C]-N--CA-[C] |==|  0.86489
USER: genes 24 Torsion [N]-CA--C-[O] |==|  0.90725
USER: genes 25 Torsion [N]-CA--CB-[CG] |==|  0.67639
USER: genes 26 Torsion [CA]-CB--CG-[OD1] |==|  0.86391
USER: genes 27 Torsion [N]-CA--CB-[CG] |==|  0.53595
USER: genes 28 Torsion [CA]-CB--CG-[CD] |==|  0.11989
USER: genes 29 Torsion [CB]-CG--CD-[CE] |==|  0.45822
USER: genes 30 Torsion [CG]-CD--CE-[NZ] |==|  0.46247
USER: genes 31 Torsion [CD]-CE--NZ-[HZ2] |==|  0.21051
ROOT
ATOM      1  C   LYS C   3     -20.990 -10.237 -18.840  1.00 11.14 LIG 0.24  C 
ATOM      2 O    LYS C   3     -20.114 -10.213 -19.703  1.00 12.07 LIG-0.27  OA
ATOM      3  N   LYS C   4     -21.701 -11.323 -18.578  1.00 10.21 LIG-0.35  N 
ATOM      4 H    LYS C   4     -22.308 -11.361 -17.970  1.00 10.21 LIG 0.16  HD
ENDROOT
BRANCH 1 5
ATOM      5  CA  LYS C   3     -21.328  -8.991 -18.041  1.00 10.58 LIG 0.18  C 
BRANCH 5 6
ATOM      6  N   LYS C   3     -22.756  -8.963 -17.677  1.00  9.84 LIG-0.35  N 
ATOM      7 H    LYS C   3     -22.970  -9.389 -16.962  1.00  9.84 LIG 0.16  HD
ATOM      8  C   PHE C   2     -23.602  -8.293 -18.464  1.00 10.80 LIG 0.24  C 
ATOM      9 O    PHE C   2     -23.224  -7.664 -19.460  1.00 13.01 LIG-0.27  OA
BRANCH 8 10
ATOM     10  CA  PHE C   2     -25.087  -8.307 -18.096  1.00 15.48 LIG 0.18  C 
BRANCH 10 11
ATOM     11  N   PHE C   2     -25.317  -7.452 -16.960  1.00 17.78 LIG-0.35  N 
ATOM     12  C   THR C   1     -24.873  -7.794 -15.758  1.00 15.41 LIG 0.25  C 
ATOM     13 O    THR C   1     -24.309  -8.863 -15.537  1.00 17.69 LIG-0.27  OA
ATOM     14 H    PHE C   2     -25.752  -6.730 -17.132  1.00 17.78 LIG 0.16  HD
BRANCH 12 15
ATOM     15  CA  THR C   1     -25.067  -6.775 -14.651  1.00 18.75 LIG 0.30  C 
BRANCH 15 16
ATOM     16  N   THR C   1     -23.748  -6.359 -14.118  1.00 21.65 LIG-0.06  N 
ATOM     17 H2   THR C   1     -23.151  -7.002 -14.267  1.00 21.65 LIG 0.28  HD
ATOM     18 H1   THR C   1     -23.814  -6.212 -13.243  1.00 21.65 LIG 0.28  HD
ATOM     19 H3   THR C   1     -23.486  -5.612 -14.525  1.00 21.65 LIG 0.28  HD
ENDBRANCH 15 16
BRANCH 15 20
ATOM     20  CB  THR C   1     -25.799  -5.590 -15.270  1.00 20.13 LIG 0.15  C 
ATOM     21  CG2 THR C   1     -26.460  -4.726 -14.189  1.00 23.33 LIG 0.04  C 
BRANCH 20 22
ATOM     22 OG1  THR C   1     -24.851  -4.804 -16.000  1.00 16.75 LIG-0.39  OA
ATOM     23 HG1  THR C   1     -25.256  -4.218 -16.445  1.00 16.75 LIG 0.21  HD
ENDBRANCH 20 22
ENDBRANCH 15 20
ENDBRANCH 12 15
ENDBRANCH 10 11
BRANCH 10 24
ATOM     24  CB  PHE C   2     -25.920  -7.852 -19.283  1.00 17.75 LIG 0.07  C 
BRANCH 24 25
ATOM     25  CG  PHE C   2     -26.131  -6.364 -19.355  1.00 24.94 LIG-0.06  A 
ATOM     26  CD1 PHE C   2     -27.295  -5.787 -18.880  1.00 30.32 LIG 0.01  A 
ATOM     27  CE1 PHE C   2     -27.490  -4.407 -18.962  1.00 38.50 LIG 0.00  A 
ATOM     28  CZ  PHE C   2     -26.513  -3.610 -19.528  1.00 31.85 LIG 0.00  A 
ATOM     29  CE2 PHE C   2     -25.344  -4.181 -20.003  1.00 29.60 LIG 0.00  A 
ATOM     30  CD2 PHE C   2     -25.161  -5.549 -19.915  1.00 31.76 LIG 0.01  A 
ENDBRANCH 24 25
ENDBRANCH 10 24
ENDBRANCH 8 10
ENDBRANCH 5 6
BRANCH 5 31
ATOM     31  CB  LYS C   3     -20.408  -8.876 -16.815  1.00 13.67 LIG 0.04  C 
BRANCH 31 32
ATOM     32  CG  LYS C   3     -19.566  -7.594 -16.819  1.00 11.01 LIG 0.00  C 
BRANCH 32 33
ATOM     33  CD  LYS C   3     -20.334  -6.414 -16.236  1.00 13.71 LIG 0.03  C 
BRANCH 33 34
ATOM     34  CE  LYS C   3     -20.730  -5.423 -17.326  1.00 11.77 LIG 0.23  C 
BRANCH 34 35
ATOM     35  NZ  LYS C   3     -20.376  -4.035 -16.915  1.00 11.88 LIG-0.08  N 
ATOM     36 HZ1  LYS C   3     -20.248  -3.533 -17.640  1.00 11.88 LIG 0.27  HD
ATOM     37 HZ2  LYS C   3     -21.039  -3.691 -16.430  1.00 11.88 LIG 0.27  HD
ATOM     38 HZ3  LYS C   3     -19.631  -4.050 -16.430  1.00 11.88 LIG 0.27  HD
ENDBRANCH 34 35
ENDBRANCH 33 34
ENDBRANCH 32 33
ENDBRANCH 31 32
ENDBRANCH 5 31
ENDBRANCH 1 5
BRANCH 3 39
ATOM     39  CA  LYS C   4     -21.511 -12.560 -19.308  1.00 11.64 LIG 0.18  C 
BRANCH 39 40
ATOM     40  C   LYS C   4     -21.364 -12.300 -20.808  1.00 11.74 LIG 0.24  C 
ATOM     41 O    LYS C   4     -20.399 -12.729 -21.424  1.00 13.09 LIG-0.27  OA
ATOM     42  N   THR C   5     -22.313 -11.584 -21.404  1.00 10.35 LIG-0.34  N 
ATOM     43 H    THR C   5     -22.907 -11.116 -20.995  1.00 10.35 LIG 0.16  HD
BRANCH 42 44
ATOM     44  CA  THR C   5     -22.391 -11.558 -22.864  1.00 10.42 LIG 0.20  C 
BRANCH 44 45
ATOM     45  CB  THR C   5     -23.829 -11.843 -23.345  1.00 12.47 LIG 0.15  C 
ATOM     46  CG2 THR C   5     -23.940 -13.260 -23.850  1.00 14.12 LIG 0.04  C 
BRANCH 45 47
ATOM     47 OG1  THR C   5     -24.748 -11.623 -22.273  1.00 13.71 LIG-0.39  OA
ATOM     48 HG1  THR C   5     -25.318 -12.240 -22.262  1.00 13.71 LIG 0.21  HD
ENDBRANCH 45 47
ENDBRANCH 44 45
BRANCH 44 49
ATOM     49  C   THR C   5     -21.869 -10.317 -23.591  1.00  8.61 LIG 0.24  C 
ATOM     50 O    THR C   5     -21.096 -10.480 -24.531  1.00 10.36 LIG-0.27  OA
ATOM     51  N   ASN C   6     -22.278  -9.115 -23.172  1.00 11.14 LIG-0.34  N 
ATOM     52 H    ASN C   6     -22.789  -8.991 -22.492  1.00 11.14 LIG 0.16  HD
BRANCH 51 53
ATOM     53  CA  ASN C   6     -21.878  -7.893 -23.855  1.00 11.30 LIG 0.19  C 
BRANCH 53 54
ATOM     54  C   ASN C   6     -20.381  -7.856 -24.102  1.00 12.97 LIG 0.20  C 
ATOM     55 O    ASN C   6     -19.616  -8.383 -23.274  1.00 12.35 LIG-0.65  OA
ATOM     56 OXT  ASN C   6     -19.929  -7.261 -25.086  1.00 10.83 LIG-0.65  OA
ENDBRANCH 53 54
BRANCH 53 57
ATOM     57  CB  ASN C   6     -22.224  -6.666 -23.003  1.00 12.67 LIG 0.14  C 
BRANCH 57 58
ATOM     58  CG  ASN C   6     -23.249  -5.745 -23.655  1.00 14.94 LIG 0.22  C 
ATOM     59 OD1  ASN C   6     -23.123  -5.375 -24.818  1.00 14.04 LIG-0.27  OA
ATOM     60  ND2 ASN C   6     -24.275  -5.376 -22.888  1.00 17.84 LIG-0.37  N 
ATOM     61 21HD ASN C   6     -24.883  -4.858 -23.205  1.00 17.84 LIG 0.16  HD
ATOM     62 22HD ASN C   6     -24.327  -5.657 -22.077  1.00 17.84 LIG 0.16  HD
ENDBRANCH 57 58
ENDBRANCH 53 57
ENDBRANCH 51 53
ENDBRANCH 44 49
ENDBRANCH 42 44
ENDBRANCH 39 40
BRANCH 39 63
ATOM     63  CB  LYS C   4     -22.732 -13.457 -19.048  1.00 16.38 LIG 0.04  C 
BRANCH 63 64
ATOM     64  CG  LYS C   4     -22.621 -14.913 -19.460  1.00 24.16 LIG 0.00  C 
BRANCH 64 65
ATOM     65  CD  LYS C   4     -21.283 -15.439 -19.062  1.00 15.05 LIG 0.03  C 
BRANCH 65 66
ATOM     66  CE  LYS C   4     -21.174 -16.964 -19.089  1.00 12.97 LIG 0.23  C 
BRANCH 66 67
ATOM     67  NZ  LYS C   4     -19.722 -17.344 -18.998  1.00 11.01 LIG-0.08  N 
ATOM     68 HZ3  LYS C   4     -19.623 -18.195 -19.240  1.00 11.01 LIG 0.27  HD
ATOM     69 HZ2  LYS C   4     -19.439 -17.238 -18.161  1.00 11.01 LIG 0.27  HD
ATOM     70 HZ1  LYS C   4     -19.245 -16.825 -19.540  1.00 11.01 LIG 0.27  HD
ENDBRANCH 66 67
ENDBRANCH 65 66
ENDBRANCH 64 65
ENDBRANCH 63 64
ENDBRANCH 39 63
ENDBRANCH 3 39
TORSDOF 30
ENDMDL
MODEL 2
USER: ADFR SOLUTION from run 194
USER: SCORE 23.510877 LL:  -6.075 LR: -20.272 RR:   0.000 FEB: -11.323
USER: RMSD 4.082239
USER: SEED 193
USER: STATUS no improvement in best in 3 clusters for 5 generations
USER: GENES 32
USER: genes 0 Translation |==|  0.69609 0.57624 0.55880
USER: genes 1 Rotation |==|  0.49050 0.60556 0.44519 0.98555
USER: genes 2 Torsion [N]-C--CA-[N] |==|  0.88549
USER: genes 3 Torsion [C]-CA--N-[C] |==|  0.81818
USER: genes 4 Torsion [N]-C--CA-[N] |==|  0.31353
USER: genes 5 Torsion [C]-CA--N-[C] |==|  0.84995
USER: genes 6 Torsion [N]-C--CA-[N] |==|  0.55014
USER: genes 7 Torsion [C]-CA--N-[H3] |==|  0.93611
USER: genes 8 Torsion [C]-CA--CB-[OG1] |==|  0.71187
USER: genes 9 Torsion [CA]-CB--OG1-[HG1] |==|  0.80473
USER: genes 10 Torsion [C]-CA--CB-[CG] |==|  0.23778
USER: genes 11 Torsion [CA]-CB--CG-[CD1] |==|  0.97618
USER: genes 12 Torsion [C]-CA--CB-[CG] |==|  0.30782
USER: genes 13 Torsion [CA]-CB--CG-[CD] |==|  0.21044
USER: genes 14 Torsion [CB]-CG--CD-[CE] |==|  0.68554
USER: genes 15 Torsion [CG]-CD--CE-[NZ] |==|  0.52432
USER: genes 16 Torsion [CD]-CE--NZ-[HZ2] |==|  0.76538
USER: genes 17 Torsion [C]-N--CA-[CB] |==|  0.52895
USER: genes 18 Torsion [N]-CA--C-[N] |==|  0.83250
USER: genes 19 Torsion [C]-N--CA-[CB] |==|  0.38120
USER: genes 20 Torsion [N]-CA--CB-[CG2] |==|  0.66289
USER: genes 21 Torsion [CA]-CB--OG1-[HG1] |==|  0.78303
USER: genes 22 Torsion [N]-CA--C-[N] |==|  0.88103
USER: genes 23 Torsion [C]-N--CA-[C] |==|  0.85095
USER: genes 24 Torsion [N]-CA--C-[O] |==|  0.90898
USER: genes 25 Torsion [N]-CA--CB-[CG] |==|  0.77835
USER: genes 26 Torsion [CA]-CB--CG-[OD1] |==|  0.72051
USER: genes 27 Torsion [N]-CA--CB-[CG] |==|  0.51681
USER: genes 28 Torsion [CA]-CB--CG-[CD] |==|  0.13645
USER: genes 29 Torsion [CB]-CG--CD-[CE] |==|  0.42968
USER: genes 30 Torsion [CG]-CD--CE-[NZ] |==|  0.47203
USER: genes 31 Torsion [CD]-CE--NZ-[HZ2] |==|  0.87735
ROOT
ATOM      1  C   LYS C   3     -21.049 -10.147 -18.857  1.00 11.14 LIG 0.24  C 
ATOM      2 O    LYS C   3     -20.077 -10.116 -19.611  1.00 12.07 LIG-0.27  OA
ATOM      3  N   LYS C   4     -21.781 -11.237 -18.684  1.00 10.21 LIG-0.35  N 
ATOM      4 H    LYS C   4     -22.455 -11.280 -18.152  1.00 10.21 LIG 0.16  HD
ENDROOT
BRANCH 1 5
ATOM      5  CA  LYS C   3     -21.484  -8.906 -18.098  1.00 10.58 LIG 0.18  C 
BRANCH 5 6
ATOM      6  N   LYS C   3     -22.950  -8.756 -18.118  1.00  9.84 LIG-0.35  N 
ATOM      7 H    LYS C   3     -23.345  -8.827 -17.358  1.00  9.84 LIG 0.16  HD
ATOM      8  C   PHE C   2     -23.551  -8.526 -19.289  1.00 10.80 LIG 0.24  C 
ATOM      9 O    PHE C   2     -22.920  -8.393 -20.343  1.00 13.01 LIG-0.27  OA
BRANCH 8 10
ATOM     10  CA  PHE C   2     -25.077  -8.413 -19.300  1.00 15.48 LIG 0.18  C 
BRANCH 10 11
ATOM     11  N   PHE C   2     -25.465  -7.065 -19.627  1.00 17.78 LIG-0.35  N 
ATOM     12  C   THR C   1     -24.991  -6.039 -18.933  1.00 15.41 LIG 0.25  C 
ATOM     13 O    THR C   1     -24.261  -6.179 -17.954  1.00 17.69 LIG-0.27  OA
ATOM     14 H    PHE C   2     -26.011  -6.995 -20.289  1.00 17.78 LIG 0.16  HD
BRANCH 12 15
ATOM     15  CA  THR C   1     -25.371  -4.656 -19.427  1.00 18.75 LIG 0.30  C 
BRANCH 15 16
ATOM     16  N   THR C   1     -24.449  -3.649 -18.850  1.00 21.65 LIG-0.06  N 
ATOM     17 H2   THR C   1     -24.900  -2.905 -18.663  1.00 21.65 LIG 0.28  HD
ATOM     18 H1   THR C   1     -23.804  -3.466 -19.436  1.00 21.65 LIG 0.28  HD
ATOM     19 H3   THR C   1     -24.088  -3.971 -18.103  1.00 21.65 LIG 0.28  HD
ENDBRANCH 15 16
BRANCH 15 20
ATOM     20  CB  THR C   1     -25.256  -4.687 -20.946  1.00 20.13 LIG 0.15  C 
ATOM     21  CG2 THR C   1     -26.460  -4.000 -21.603  1.00 23.33 LIG 0.04  C 
BRANCH 20 22
ATOM     22 OG1  THR C   1     -24.052  -4.011 -21.323  1.00 16.75 LIG-0.39  OA
ATOM     23 HG1  THR C   1     -24.137  -3.187 -21.181  1.00 16.75 LIG 0.21  HD
ENDBRANCH 20 22
ENDBRANCH 15 20
ENDBRANCH 12 15
ENDBRANCH 10 11
BRANCH 10 24
ATOM     24  CB  PHE C   2     -25.663  -9.395 -20.302  1.00 17.75 LIG 0.07  C 
BRANCH 24 25
ATOM     25  CG  PHE C   2     -25.881 -10.778 -19.752  1.00 24.94 LIG-0.06  A 
ATOM     26  CD1 PHE C   2     -25.402 -11.131 -18.503  1.00 30.32 LIG 0.01  A 
ATOM     27  CE1 PHE C   2     -25.596 -12.421 -18.006  1.00 38.50 LIG 0.00  A 
ATOM     28  CZ  PHE C   2     -26.267 -13.357 -18.770  1.00 31.85 LIG 0.00  A 
ATOM     29  CE2 PHE C   2     -26.752 -13.009 -20.020  1.00 29.60 LIG 0.00  A 
ATOM     30  CD2 PHE C   2     -26.555 -11.728 -20.502  1.00 31.76 LIG 0.01  A 
ENDBRANCH 24 25
ENDBRANCH 10 24
ENDBRANCH 8 10
ENDBRANCH 5 6
BRANCH 5 31
ATOM     31  CB  LYS C   3     -20.916  -8.927 -16.669  1.00 13.67 LIG 0.04  C 
BRANCH 31 32
ATOM     32  CG  LYS C   3     -19.838  -7.860 -16.440  1.00 11.01 LIG 0.00  C 
BRANCH 32 33
ATOM     33  CD  LYS C   3     -20.446  -6.470 -16.288  1.00 13.71 LIG 0.03  C 
BRANCH 33 34
ATOM     34  CE  LYS C   3     -20.059  -5.570 -17.457  1.00 11.77 LIG 0.23  C 
BRANCH 34 35
ATOM     35  NZ  LYS C   3     -20.481  -4.165 -17.189  1.00 11.88 LIG-0.08  N 
ATOM     36 HZ1  LYS C   3     -19.972  -3.607 -17.660  1.00 11.88 LIG 0.27  HD
ATOM     37 HZ2  LYS C   3     -21.333  -4.061 -17.426  1.00 11.88 LIG 0.27  HD
ATOM     38 HZ3  LYS C   3     -20.391  -3.989 -16.322  1.00 11.88 LIG 0.27  HD
ENDBRANCH 34 35
ENDBRANCH 33 34
ENDBRANCH 32 33
ENDBRANCH 31 32
ENDBRANCH 5 31
ENDBRANCH 1 5
BRANCH 3 39
ATOM     39  CA  LYS C   4     -21.501 -12.470 -19.392  1.00 11.64 LIG 0.18  C 
BRANCH 39 40
ATOM     40  C   LYS C   4     -21.319 -12.219 -20.890  1.00 11.74 LIG 0.24  C 
ATOM     41 O    LYS C   4     -20.262 -12.485 -21.443  1.00 13.09 LIG-0.27  OA
ATOM     42  N   THR C   5     -22.343 -11.691 -21.555  1.00 10.35 LIG-0.34  N 
ATOM     43 H    THR C   5     -23.030 -11.326 -21.190  1.00 10.35 LIG 0.16  HD
BRANCH 42 44
ATOM     44  CA  THR C   5     -22.344 -11.709 -23.016  1.00 10.42 LIG 0.20  C 
BRANCH 44 45
ATOM     45  CB  THR C   5     -23.735 -12.091 -23.563  1.00 12.47 LIG 0.15  C 
ATOM     46  CG2 THR C   5     -23.636 -13.327 -24.424  1.00 14.12 LIG 0.04  C 
BRANCH 45 47
ATOM     47 OG1  THR C   5     -24.636 -12.312 -22.476  1.00 13.71 LIG-0.39  OA
ATOM     48 HG1  THR C   5     -24.493 -13.071 -22.143  1.00 13.71 LIG 0.21  HD
ENDBRANCH 45 47
ENDBRANCH 44 45
BRANCH 44 49
ATOM     49  C   THR C   5     -21.857 -10.459 -23.752  1.00  8.61 LIG 0.24  C 
ATOM     50 O    THR C   5     -21.122 -10.609 -24.725  1.00 10.36 LIG-0.27  OA
ATOM     51  N   ASN C   6     -22.252  -9.262 -23.304  1.00 11.14 LIG-0.34  N 
ATOM     52 H    ASN C   6     -22.735  -9.147 -22.602  1.00 11.14 LIG 0.16  HD
BRANCH 51 53
ATOM     53  CA  ASN C   6     -21.885  -8.032 -23.991  1.00 11.30 LIG 0.19  C 
BRANCH 53 54
ATOM     54  C   ASN C   6     -20.383  -7.931 -24.190  1.00 12.97 LIG 0.20  C 
ATOM     55 O    ASN C   6     -19.623  -8.423 -23.336  1.00 12.35 LIG-0.65  OA
ATOM     56 OXT  ASN C   6     -19.927  -7.318 -25.161  1.00 10.83 LIG-0.65  OA
ENDBRANCH 53 54
BRANCH 53 57
ATOM     57  CB  ASN C   6     -22.313  -6.812 -23.168  1.00 12.67 LIG 0.14  C 
BRANCH 57 58
ATOM     58  CG  ASN C   6     -23.792  -6.472 -23.309  1.00 14.94 LIG 0.22  C 
ATOM     59 OD1  ASN C   6     -24.169  -5.567 -24.047  1.00 14.04 LIG-0.27  OA
ATOM     60  ND2 ASN C   6     -24.634  -7.215 -22.592  1.00 17.84 LIG-0.37  N 
ATOM     61 21HD ASN C   6     -25.480  -7.068 -22.634  1.00 17.84 LIG 0.16  HD
ATOM     62 22HD ASN C   6     -24.331  -7.841 -22.087  1.00 17.84 LIG 0.16  HD
ENDBRANCH 57 58
ENDBRANCH 53 57
ENDBRANCH 51 53
ENDBRANCH 44 49
ENDBRANCH 42 44
ENDBRANCH 39 40
BRANCH 39 63
ATOM     63  CB  LYS C   4     -22.680 -13.429 -19.161  1.00 16.38 LIG 0.04  C 
BRANCH 63 64
ATOM     64  CG  LYS C   4     -22.539 -14.841 -19.696  1.00 24.16 LIG 0.00  C 
BRANCH 64 65
ATOM     65  CD  LYS C   4     -21.224 -15.402 -19.270  1.00 15.05 LIG 0.03  C 
BRANCH 65 66
ATOM     66  CE  LYS C   4     -21.188 -16.928 -19.192  1.00 12.97 LIG 0.23  C 
BRANCH 66 67
ATOM     67  NZ  LYS C   4     -19.763 -17.367 -18.998  1.00 11.01 LIG-0.08  N 
ATOM     68 HZ3  LYS C   4     -19.519 -17.219 -18.155  1.00 11.01 LIG 0.27  HD
ATOM     69 HZ2  LYS C   4     -19.233 -16.906 -19.546  1.00 11.01 LIG 0.27  HD
ATOM     70 HZ1  LYS C   4     -19.692 -18.235 -19.179  1.00 11.01 LIG 0.27  HD
ENDBRANCH 66 67
ENDBRANCH 65 66
ENDBRANCH 64 65
ENDBRANCH 63 64
ENDBRANCH 39 63
ENDBRANCH 3 39
TORSDOF 30
ENDMDL
MODEL 3
USER: ADFR SOLUTION from run 153
USER: SCORE 22.641941 LL:  -4.843 LR: -20.261 RR:   0.000 FEB: -11.312
USER: RMSD 3.708961
USER: SEED 152
USER: STATUS searching
USER: GENES 32
USER: genes 0 Translation |==|  0.70182 0.56933 0.56270
USER: genes 1 Rotation |==|  0.48797 0.63280 0.44028 0.97818
USER: genes 2 Torsion [N]-C--CA-[N] |==|  0.93460
USER: genes 3 Torsion [C]-CA--N-[C] |==|  0.81201
USER: genes 4 Torsion [N]-C--CA-[N] |==|  0.17343
USER: genes 5 Torsion [C]-CA--N-[C] |==|  0.78236
USER: genes 6 Torsion [N]-C--CA-[N] |==|  0.67153
USER: genes 7 Torsion [C]-CA--N-[H3] |==|  0.01705
USER: genes 8 Torsion [C]-CA--CB-[OG1] |==|  0.63919
USER: genes 9 Torsion [CA]-CB--OG1-[HG1] |==|  0.54758
USER: genes 10 Torsion [C]-CA--CB-[CG] |==|  0.21511
USER: genes 11 Torsion [CA]-CB--CG-[CD1] |==|  0.73492
USER: genes 12 Torsion [C]-CA--CB-[CG] |==|  0.32129
USER: genes 13 Torsion [CA]-CB--CG-[CD] |==|  0.15739
USER: genes 14 Torsion [CB]-CG--CD-[CE] |==|  0.47168
USER: genes 15 Torsion [CG]-CD--CE-[NZ] |==|  0.50801
USER: genes 16 Torsion [CD]-CE--NZ-[HZ2] |==|  0.63680
USER: genes 17 Torsion [C]-N--CA-[CB] |==|  0.56704
USER: genes 18 Torsion [N]-CA--C-[N] |==|  0.79683
USER: genes 19 Torsion [C]-N--CA-[CB] |==|  0.35691
USER: genes 20 Torsion [N]-CA--CB-[CG2] |==|  0.30713
USER: genes 21 Torsion [CA]-CB--OG1-[HG1] |==|  0.88126
USER: genes 22 Torsion [N]-CA--C-[N] |==|  0.93718
USER: genes 23 Torsion [C]-N--CA-[C] |==|  0.82202
USER: genes 24 Torsion [N]-CA--C-[O] |==|  0.42850
USER: genes 25 Torsion [N]-CA--CB-[CG] |==|  0.67734
USER: genes 26 Torsion [CA]-CB--CG-[OD1] |==|  0.86457
USER: genes 27 Torsion [N]-CA--CB-[CG] |==|  0.55968
USER: genes 28 Torsion [CA]-CB--CG-[CD] |==|  0.05573
USER: genes 29 Torsion [CB]-CG--CD-[CE] |==|  0.46213
USER: genes 30 Torsion [CG]-CD--CE-[NZ] |==|  0.46857
USER: genes 31 Torsion [CD]-CE--NZ-[HZ2] |==|  0.91881
ROOT
ATOM      1  C   LYS C   3     -20.938 -10.292 -18.786  1.00 11.14 LIG 0.24  C 
ATOM      2 O    LYS C   3     -20.056 -10.284 -19.645  1.00 12.07 LIG-0.27  OA
ATOM      3  N   LYS C   4     -21.669 -11.365 -18.529  1.00 10.21 LIG-0.35  N 
ATOM      4 H    LYS C   4     -22.279 -11.393 -17.924  1.00 10.21 LIG 0.16  HD
ENDROOT
BRANCH 1 5
ATOM      5  CA  LYS C   3     -21.257  -9.041 -17.988  1.00 10.58 LIG 0.18  C 
BRANCH 5 6
ATOM      6  N   LYS C   3     -22.641  -9.069 -17.485  1.00  9.84 LIG-0.35  N 
ATOM      7 H    LYS C   3     -22.730  -9.138 -16.633  1.00  9.84 LIG 0.16  HD
ATOM      8  C   PHE C   2     -23.642  -8.987 -18.366  1.00 10.80 LIG 0.24  C 
ATOM      9 O    PHE C   2     -23.447  -8.848 -19.579  1.00 13.01 LIG-0.27  OA
BRANCH 8 10
ATOM     10  CA  PHE C   2     -25.074  -9.059 -17.833  1.00 15.48 LIG 0.18  C 
BRANCH 10 11
ATOM     11  N   PHE C   2     -25.324  -7.947 -16.952  1.00 17.78 LIG-0.35  N 
ATOM     12  C   THR C   1     -24.872  -7.959 -15.706  1.00 15.41 LIG 0.25  C 
ATOM     13 O    THR C   1     -24.282  -8.922 -15.221  1.00 17.69 LIG-0.27  OA
ATOM     14 H    PHE C   2     -25.777  -7.303 -17.301  1.00 17.78 LIG 0.16  HD
BRANCH 12 15
ATOM     15  CA  THR C   1     -25.090  -6.694 -14.896  1.00 18.75 LIG 0.30  C 
BRANCH 15 16
ATOM     16  N   THR C   1     -23.781  -6.123 -14.500  1.00 21.65 LIG-0.06  N 
ATOM     17 H2   THR C   1     -23.691  -6.171 -13.616  1.00 21.65 LIG 0.28  HD
ATOM     18 H1   THR C   1     -23.739  -5.272 -14.756  1.00 21.65 LIG 0.28  HD
ATOM     19 H3   THR C   1     -23.127  -6.583 -14.889  1.00 21.65 LIG 0.28  HD
ENDBRANCH 15 16
BRANCH 15 20
ATOM     20  CB  THR C   1     -25.854  -5.727 -15.792  1.00 20.13 LIG 0.15  C 
ATOM     21  CG2 THR C   1     -27.297  -5.546 -15.302  1.00 23.33 LIG 0.04  C 
BRANCH 20 22
ATOM     22 OG1  THR C   1     -25.179  -4.465 -15.775  1.00 16.75 LIG-0.39  OA
ATOM     23 HG1  THR C   1     -25.695  -3.867 -16.061  1.00 16.75 LIG 0.21  HD
ENDBRANCH 20 22
ENDBRANCH 15 20
ENDBRANCH 12 15
ENDBRANCH 10 11
BRANCH 10 24
ATOM     24  CB  PHE C   2     -26.060  -9.056 -18.990  1.00 17.75 LIG 0.07  C 
BRANCH 24 25
ATOM     25  CG  PHE C   2     -26.183 -10.378 -19.698  1.00 24.94 LIG-0.06  A 
ATOM     26  CD1 PHE C   2     -25.449 -10.643 -20.841  1.00 30.32 LIG 0.01  A 
ATOM     27  CE1 PHE C   2     -25.579 -11.866 -21.501  1.00 38.50 LIG 0.00  A 
ATOM     28  CZ  PHE C   2     -26.452 -12.819 -21.012  1.00 31.85 LIG 0.00  A 
ATOM     29  CE2 PHE C   2     -27.187 -12.561 -19.868  1.00 29.60 LIG 0.00  A 
ATOM     30  CD2 PHE C   2     -27.050 -11.346 -19.221  1.00 31.76 LIG 0.01  A 
ENDBRANCH 24 25
ENDBRANCH 10 24
ENDBRANCH 8 10
ENDBRANCH 5 6
BRANCH 5 31
ATOM     31  CB  LYS C   3     -20.227  -8.848 -16.863  1.00 13.67 LIG 0.04  C 
BRANCH 31 32
ATOM     32  CG  LYS C   3     -19.387  -7.576 -17.034  1.00 11.01 LIG 0.00  C 
BRANCH 32 33
ATOM     33  CD  LYS C   3     -20.262  -6.332 -17.128  1.00 13.71 LIG 0.03  C 
BRANCH 33 34
ATOM     34  CE  LYS C   3     -19.422  -5.061 -17.046  1.00 11.77 LIG 0.23  C 
BRANCH 34 35
ATOM     35  NZ  LYS C   3     -20.302  -3.858 -17.069  1.00 11.88 LIG-0.08  N 
ATOM     36 HZ1  LYS C   3     -20.302  -3.474 -16.265  1.00 11.88 LIG 0.27  HD
ATOM     37 HZ2  LYS C   3     -19.998  -3.279 -17.673  1.00 11.88 LIG 0.27  HD
ATOM     38 HZ3  LYS C   3     -21.131  -4.101 -17.281  1.00 11.88 LIG 0.27  HD
ENDBRANCH 34 35
ENDBRANCH 33 34
ENDBRANCH 32 33
ENDBRANCH 31 32
ENDBRANCH 5 31
ENDBRANCH 1 5
BRANCH 3 39
ATOM     39  CA  LYS C   4     -21.498 -12.606 -19.259  1.00 11.64 LIG 0.18  C 
BRANCH 39 40
ATOM     40  C   LYS C   4     -21.143 -12.340 -20.723  1.00 11.74 LIG 0.24  C 
ATOM     41 O    LYS C   4     -20.007 -12.525 -21.133  1.00 13.09 LIG-0.27  OA
ATOM     42  N   THR C   5     -22.109 -11.892 -21.519  1.00 10.35 LIG-0.34  N 
ATOM     43 H    THR C   5     -22.864 -11.581 -21.250  1.00 10.35 LIG 0.16  HD
BRANCH 42 44
ATOM     44  CA  THR C   5     -21.920 -11.910 -22.968  1.00 10.42 LIG 0.20  C 
BRANCH 44 45
ATOM     45  CB  THR C   5     -23.108 -12.598 -23.673  1.00 12.47 LIG 0.15  C 
ATOM     46  CG2 THR C   5     -23.915 -11.585 -24.447  1.00 14.12 LIG 0.04  C 
BRANCH 45 47
ATOM     47 OG1  THR C   5     -22.623 -13.620 -24.546  1.00 13.71 LIG-0.39  OA
ATOM     48 HG1  THR C   5     -21.951 -13.337 -24.963  1.00 13.71 LIG 0.21  HD
ENDBRANCH 45 47
ENDBRANCH 44 45
BRANCH 44 49
ATOM     49  C   THR C   5     -21.637 -10.582 -23.674  1.00  8.61 LIG 0.24  C 
ATOM     50 O    THR C   5     -21.074 -10.614 -24.765  1.00 10.36 LIG-0.27  OA
ATOM     51  N   ASN C   6     -22.016  -9.449 -23.073  1.00 11.14 LIG-0.34  N 
ATOM     52 H    ASN C   6     -22.376  -9.416 -22.293  1.00 11.14 LIG 0.16  HD
BRANCH 51 53
ATOM     53  CA  ASN C   6     -21.841  -8.152 -23.711  1.00 11.30 LIG 0.19  C 
BRANCH 53 54
ATOM     54  C   ASN C   6     -20.373  -7.826 -23.920  1.00 12.97 LIG 0.20  C 
ATOM     55 O    ASN C   6     -20.049  -7.048 -24.835  1.00 12.35 LIG-0.65  OA
ATOM     56 OXT  ASN C   6     -19.511  -8.373 -23.223  1.00 10.83 LIG-0.65  OA
ENDBRANCH 53 54
BRANCH 53 57
ATOM     57  CB  ASN C   6     -22.428  -7.040 -22.833  1.00 12.67 LIG 0.14  C 
BRANCH 57 58
ATOM     58  CG  ASN C   6     -23.602  -6.313 -23.480  1.00 14.94 LIG 0.22  C 
ATOM     59 OD1  ASN C   6     -23.534  -5.896 -24.632  1.00 14.04 LIG-0.27  OA
ATOM     60  ND2 ASN C   6     -24.688  -6.167 -22.722  1.00 17.84 LIG-0.37  N 
ATOM     61 21HD ASN C   6     -25.380  -5.765 -23.037  1.00 17.84 LIG 0.16  HD
ATOM     62 22HD ASN C   6     -24.696  -6.474 -21.919  1.00 17.84 LIG 0.16  HD
ENDBRANCH 57 58
ENDBRANCH 53 57
ENDBRANCH 51 53
ENDBRANCH 44 49
ENDBRANCH 42 44
ENDBRANCH 39 40
BRANCH 39 63
ATOM     63  CB  LYS C   4     -22.815 -13.393 -19.172  1.00 16.38 LIG 0.04  C 
BRANCH 63 64
ATOM     64  CG  LYS C   4     -22.743 -14.890 -19.409  1.00 24.16 LIG 0.00  C 
BRANCH 64 65
ATOM     65  CD  LYS C   4     -21.341 -15.356 -19.204  1.00 15.05 LIG 0.03  C 
BRANCH 65 66
ATOM     66  CE  LYS C   4     -21.194 -16.873 -19.089  1.00 12.97 LIG 0.23  C 
BRANCH 66 67
ATOM     67  NZ  LYS C   4     -19.733 -17.222 -19.167  1.00 11.01 LIG-0.08  N 
ATOM     68 HZ3  LYS C   4     -19.387 -17.234 -18.347  1.00 11.01 LIG 0.27  HD
ATOM     69 HZ2  LYS C   4     -19.308 -16.615 -19.660  1.00 11.01 LIG 0.27  HD
ATOM     70 HZ1  LYS C   4     -19.639 -18.024 -19.539  1.00 11.01 LIG 0.27  HD
ENDBRANCH 66 67
ENDBRANCH 65 66
ENDBRANCH 64 65
ENDBRANCH 63 64
ENDBRANCH 39 63
ENDBRANCH 3 39
TORSDOF 30
ENDMDL
MODEL 4
USER: ADFR SOLUTION from run 93
USER: SCORE 22.030630 LL:  -5.309 LR: -20.180 RR:   0.000 FEB: -11.231
USER: RMSD 3.644674
USER: SEED 92
USER: STATUS no improvement in best in 4 clusters for 5 generations
USER: GENES 32
USER: genes 0 Translation |==|  0.67757 0.57797 0.56552
USER: genes 1 Rotation |==|  0.49056 0.57288 0.46776 0.99352
USER: genes 2 Torsion [N]-C--CA-[N] |==|  0.74335
USER: genes 3 Torsion [C]-CA--N-[C] |==|  0.19739
USER: genes 4 Torsion [N]-C--CA-[N] |==|  0.92264
USER: genes 5 Torsion [C]-CA--N-[C] |==|  0.80429
USER: genes 6 Torsion [N]-C--CA-[N] |==|  0.86803
USER: genes 7 Torsion [C]-CA--N-[H3] |==|  0.63976
USER: genes 8 Torsion [C]-CA--CB-[OG1] |==|  0.73076
USER: genes 9 Torsion [CA]-CB--OG1-[HG1] |==|  0.66228
USER: genes 10 Torsion [C]-CA--CB-[CG] |==|  0.30246
USER: genes 11 Torsion [CA]-CB--CG-[CD1] |==|  0.85421
USER: genes 12 Torsion [C]-CA--CB-[CG] |==|  0.25066
USER: genes 13 Torsion [CA]-CB--CG-[CD] |==|  0.21911
USER: genes 14 Torsion [CB]-CG--CD-[CE] |==|  0.58814
USER: genes 15 Torsion [CG]-CD--CE-[NZ] |==|  0.38259
USER: genes 16 Torsion [CD]-CE--NZ-[HZ2] |==|  0.03222
USER: genes 17 Torsion [C]-N--CA-[CB] |==|  0.53166
USER: genes 18 Torsion [N]-CA--C-[N] |==|  0.82742
USER: genes 19 Torsion [C]-N--CA-[CB] |==|  0.37383
USER: genes 20 Torsion [N]-CA--CB-[CG2] |==|  0.28087
USER: genes 21 Torsion [CA]-CB--OG1-[HG1] |==|  0.83485
USER: genes 22 Torsion [N]-CA--C-[N] |==|  0.93866
USER: genes 23 Torsion [C]-N--CA-[C] |==|  0.85506
USER: genes 24 Torsion [N]-CA--C-[O] |==|  0.89265
USER: genes 25 Torsion [N]-CA--CB-[CG] |==|  0.66821
USER: genes 26 Torsion [CA]-CB--CG-[OD1] |==|  0.95795
USER: genes 27 Torsion [N]-CA--CB-[CG] |==|  0.50020
USER: genes 28 Torsion [CA]-CB--CG-[CD] |==|  0.18425
USER: genes 29 Torsion [CB]-CG--CD-[CE] |==|  0.49047
USER: genes 30 Torsion [CG]-CD--CE-[NZ] |==|  0.45337
USER: genes 31 Torsion [CD]-CE--NZ-[HZ2] |==|  0.75659
ROOT
ATOM      1  C   LYS C   3     -21.410 -10.111 -18.736  1.00 11.14 LIG 0.24  C 
ATOM      2 O    LYS C   3     -20.355  -9.981 -19.355  1.00 12.07 LIG-0.27  OA
ATOM      3  N   LYS C   4     -22.053 -11.266 -18.661  1.00 10.21 LIG-0.35  N 
ATOM      4 H    LYS C   4     -22.784 -11.378 -18.221  1.00 10.21 LIG 0.16  HD
ENDROOT
BRANCH 1 5
ATOM      5  CA  LYS C   3     -22.055  -8.924 -18.041  1.00 10.58 LIG 0.18  C 
BRANCH 5 6
ATOM      6  N   LYS C   3     -22.919  -8.171 -18.967  1.00  9.84 LIG-0.35  N 
ATOM      7 H    LYS C   3     -22.628  -7.399 -19.208  1.00  9.84 LIG 0.16  HD
ATOM      8  C   PHE C   2     -24.069  -8.726 -19.361  1.00 10.80 LIG 0.24  C 
ATOM      9 O    PHE C   2     -24.412  -9.861 -19.010  1.00 13.01 LIG-0.27  OA
BRANCH 8 10
ATOM     10  CA  PHE C   2     -24.974  -7.915 -20.291  1.00 15.48 LIG 0.18  C 
BRANCH 10 11
ATOM     11  N   PHE C   2     -24.765  -6.507 -20.071  1.00 17.78 LIG-0.35  N 
ATOM     12  C   THR C   1     -25.178  -5.931 -18.951  1.00 15.41 LIG 0.25  C 
ATOM     13 O    THR C   1     -25.805  -6.536 -18.083  1.00 17.69 LIG-0.27  OA
ATOM     14 H    PHE C   2     -24.363  -6.096 -20.711  1.00 17.78 LIG 0.16  HD
BRANCH 12 15
ATOM     15  CA  THR C   1     -24.811  -4.470 -18.767  1.00 18.75 LIG 0.30  C 
BRANCH 15 16
ATOM     16  N   THR C   1     -23.374  -4.275 -19.072  1.00 21.65 LIG-0.06  N 
ATOM     17 H2   THR C   1     -23.291  -3.811 -19.827  1.00 21.65 LIG 0.28  HD
ATOM     18 H1   THR C   1     -22.979  -5.067 -19.167  1.00 21.65 LIG 0.28  HD
ATOM     19 H3   THR C   1     -22.987  -3.828 -18.407  1.00 21.65 LIG 0.28  HD
ENDBRANCH 15 16
BRANCH 15 20
ATOM     20  CB  THR C   1     -25.682  -3.675 -19.730  1.00 20.13 LIG 0.15  C 
ATOM     21  CG2 THR C   1     -26.124  -2.346 -19.104  1.00 23.33 LIG 0.04  C 
BRANCH 20 22
ATOM     22 OG1  THR C   1     -24.925  -3.418 -20.918  1.00 16.75 LIG-0.39  OA
ATOM     23 HG1  THR C   1     -24.873  -2.589 -21.043  1.00 16.75 LIG 0.21  HD
ENDBRANCH 20 22
ENDBRANCH 15 20
ENDBRANCH 12 15
ENDBRANCH 10 11
BRANCH 10 24
ATOM     24  CB  PHE C   2     -24.689  -8.277 -21.739  1.00 17.75 LIG 0.07  C 
BRANCH 24 25
ATOM     25  CG  PHE C   2     -25.781  -9.072 -22.402  1.00 24.94 LIG-0.06  A 
ATOM     26  CD1 PHE C   2     -26.270 -10.229 -21.823  1.00 30.32 LIG 0.01  A 
ATOM     27  CE1 PHE C   2     -27.274 -10.968 -22.451  1.00 38.50 LIG 0.00  A 
ATOM     28  CZ  PHE C   2     -27.780 -10.545 -23.665  1.00 31.85 LIG 0.00  A 
ATOM     29  CE2 PHE C   2     -27.295  -9.387 -24.250  1.00 29.60 LIG 0.00  A 
ATOM     30  CD2 PHE C   2     -26.302  -8.660 -23.618  1.00 31.76 LIG 0.01  A 
ENDBRANCH 24 25
ENDBRANCH 10 24
ENDBRANCH 8 10
ENDBRANCH 5 6
BRANCH 5 31
ATOM     31  CB  LYS C   3     -22.807  -9.386 -16.782  1.00 13.67 LIG 0.04  C 
BRANCH 31 32
ATOM     32  CG  LYS C   3     -21.928  -9.372 -15.525  1.00 11.01 LIG 0.00  C 
BRANCH 32 33
ATOM     33  CD  LYS C   3     -21.778  -7.965 -14.959  1.00 13.71 LIG 0.03  C 
BRANCH 33 34
ATOM     34  CE  LYS C   3     -20.419  -7.783 -14.291  1.00 11.77 LIG 0.23  C 
BRANCH 34 35
ATOM     35  NZ  LYS C   3     -19.842  -6.455 -14.646  1.00 11.88 LIG-0.08  N 
ATOM     36 HZ1  LYS C   3     -19.159  -6.567 -15.205  1.00 11.88 LIG 0.27  HD
ATOM     37 HZ2  LYS C   3     -20.466  -5.956 -15.038  1.00 11.88 LIG 0.27  HD
ATOM     38 HZ3  LYS C   3     -19.558  -6.048 -13.907  1.00 11.88 LIG 0.27  HD
ENDBRANCH 34 35
ENDBRANCH 33 34
ENDBRANCH 32 33
ENDBRANCH 31 32
ENDBRANCH 5 31
ENDBRANCH 1 5
BRANCH 3 39
ATOM     39  CA  LYS C   4     -21.568 -12.460 -19.325  1.00 11.64 LIG 0.18  C 
BRANCH 39 40
ATOM     40  C   LYS C   4     -21.193 -12.169 -20.779  1.00 11.74 LIG 0.24  C 
ATOM     41 O    LYS C   4     -20.041 -12.305 -21.165  1.00 13.09 LIG-0.27  OA
ATOM     42  N   THR C   5     -22.159 -11.755 -21.593  1.00 10.35 LIG-0.34  N 
ATOM     43 H    THR C   5     -22.932 -11.476 -21.338  1.00 10.35 LIG 0.16  HD
BRANCH 42 44
ATOM     44  CA  THR C   5     -21.938 -11.753 -23.038  1.00 10.42 LIG 0.20  C 
BRANCH 44 45
ATOM     45  CB  THR C   5     -23.151 -12.348 -23.784  1.00 12.47 LIG 0.15  C 
ATOM     46  CG2 THR C   5     -24.002 -11.244 -24.360  1.00 14.12 LIG 0.04  C 
BRANCH 45 47
ATOM     47 OG1  THR C   5     -22.697 -13.220 -24.821  1.00 13.71 LIG-0.39  OA
ATOM     48 HG1  THR C   5     -22.216 -12.789 -25.358  1.00 13.71 LIG 0.21  HD
ENDBRANCH 45 47
ENDBRANCH 44 45
BRANCH 44 49
ATOM     49  C   THR C   5     -21.554 -10.432 -23.706  1.00  8.61 LIG 0.24  C 
ATOM     50 O    THR C   5     -20.977 -10.477 -24.790  1.00 10.36 LIG-0.27  OA
ATOM     51  N   ASN C   6     -21.862  -9.290 -23.083  1.00 11.14 LIG-0.34  N 
ATOM     52 H    ASN C   6     -22.232  -9.250 -22.307  1.00 11.14 LIG 0.16  HD
BRANCH 51 53
ATOM     53  CA  ASN C   6     -21.589  -7.993 -23.686  1.00 11.30 LIG 0.19  C 
BRANCH 53 54
ATOM     54  C   ASN C   6     -20.143  -7.879 -24.133  1.00 12.97 LIG 0.20  C 
ATOM     55 O    ASN C   6     -19.248  -8.373 -23.424  1.00 12.35 LIG-0.65  OA
ATOM     56 OXT  ASN C   6     -19.860  -7.254 -25.161  1.00 10.83 LIG-0.65  OA
ENDBRANCH 53 54
BRANCH 53 57
ATOM     57  CB  ASN C   6     -21.838  -6.869 -22.675  1.00 12.67 LIG 0.14  C 
BRANCH 57 58
ATOM     58  CG  ASN C   6     -22.916  -5.884 -23.114  1.00 14.94 LIG 0.22  C 
ATOM     59 OD1  ASN C   6     -23.307  -5.847 -24.277  1.00 14.04 LIG-0.27  OA
ATOM     60  ND2 ASN C   6     -23.398  -5.083 -22.165  1.00 17.84 LIG-0.37  N 
ATOM     61 21HD ASN C   6     -24.009  -4.509 -22.357  1.00 17.84 LIG 0.16  HD
ATOM     62 22HD ASN C   6     -23.098  -5.140 -21.362  1.00 17.84 LIG 0.16  HD
ENDBRANCH 57 58
ENDBRANCH 53 57
ENDBRANCH 51 53
ENDBRANCH 44 49
ENDBRANCH 42 44
ENDBRANCH 39 40
BRANCH 39 63
ATOM     63  CB  LYS C   4     -22.682 -13.518 -19.272  1.00 16.38 LIG 0.04  C 
BRANCH 63 64
ATOM     64  CG  LYS C   4     -22.390 -14.862 -19.912  1.00 24.16 LIG 0.00  C 
BRANCH 64 65
ATOM     65  CD  LYS C   4     -21.314 -15.552 -19.143  1.00 15.05 LIG 0.03  C 
BRANCH 65 66
ATOM     66  CE  LYS C   4     -20.987 -16.959 -19.645  1.00 12.97 LIG 0.23  C 
BRANCH 66 67
ATOM     67  NZ  LYS C   4     -19.654 -17.372 -19.086  1.00 11.01 LIG-0.08  N 
ATOM     68 HZ3  LYS C   4     -19.544 -17.007 -18.281  1.00 11.01 LIG 0.27  HD
ATOM     69 HZ2  LYS C   4     -19.005 -17.095 -19.629  1.00 11.01 LIG 0.27  HD
ATOM     70 HZ1  LYS C   4     -19.623 -18.258 -19.016  1.00 11.01 LIG 0.27  HD
ENDBRANCH 66 67
ENDBRANCH 65 66
ENDBRANCH 64 65
ENDBRANCH 63 64
ENDBRANCH 39 63
ENDBRANCH 3 39
TORSDOF 30
ENDMDL
MODEL 5
USER: ADFR SOLUTION from run 59
USER: SCORE 21.910144 LL:  -4.686 LR: -20.091 RR:   0.000 FEB: -11.142
USER: RMSD 5.176043
USER: SEED 58
USER: STATUS no improvement in best in 4 clusters for 5 generations
USER: GENES 32
USER: genes 0 Translation |==|  0.69209 0.56309 0.58980
USER: genes 1 Rotation |==|  0.53022 0.54163 0.42359 0.99144
USER: genes 2 Torsion [N]-C--CA-[N] |==|  0.01868
USER: genes 3 Torsion [C]-CA--N-[C] |==|  0.19758
USER: genes 4 Torsion [N]-C--CA-[N] |==|  0.41463
USER: genes 5 Torsion [C]-CA--N-[C] |==|  0.79968
USER: genes 6 Torsion [N]-C--CA-[N] |==|  0.58848
USER: genes 7 Torsion [C]-CA--N-[H3] |==|  0.06409
USER: genes 8 Torsion [C]-CA--CB-[OG1] |==|  0.60074
USER: genes 9 Torsion [CA]-CB--OG1-[HG1] |==|  0.56710
USER: genes 10 Torsion [C]-CA--CB-[CG] |==|  0.84487
USER: genes 11 Torsion [CA]-CB--CG-[CD1] |==|  0.28584
USER: genes 12 Torsion [C]-CA--CB-[CG] |==|  0.30068
USER: genes 13 Torsion [CA]-CB--CG-[CD] |==|  0.17205
USER: genes 14 Torsion [CB]-CG--CD-[CE] |==|  0.55274
USER: genes 15 Torsion [CG]-CD--CE-[NZ] |==|  0.64743
USER: genes 16 Torsion [CD]-CE--NZ-[HZ2] |==|  0.24792
USER: genes 17 Torsion [C]-N--CA-[CB] |==|  0.48503
USER: genes 18 Torsion [N]-CA--C-[N] |==|  0.81960
USER: genes 19 Torsion [C]-N--CA-[CB] |==|  0.39260
USER: genes 20 Torsion [N]-CA--CB-[CG2] |==|  0.59754
USER: genes 21 Torsion [CA]-CB--OG1-[HG1] |==|  0.82907
USER: genes 22 Torsion [N]-CA--C-[N] |==|  0.89076
USER: genes 23 Torsion [C]-N--CA-[C] |==|  0.85966
USER: genes 24 Torsion [N]-CA--C-[O] |==|  0.89930
USER: genes 25 Torsion [N]-CA--CB-[CG] |==|  0.63073
USER: genes 26 Torsion [CA]-CB--CG-[OD1] |==|  0.83418
USER: genes 27 Torsion [N]-CA--CB-[CG] |==|  0.52533
USER: genes 28 Torsion [CA]-CB--CG-[CD] |==|  0.11551
USER: genes 29 Torsion [CB]-CG--CD-[CE] |==|  0.39418
USER: genes 30 Torsion [CG]-CD--CE-[NZ] |==|  0.44490
USER: genes 31 Torsion [CD]-CE--NZ-[HZ2] |==|  0.93384
ROOT
ATOM      1  C   LYS C   3     -21.127 -10.423 -18.299  1.00 11.14 LIG 0.24  C 
ATOM      2 O    LYS C   3     -19.987 -10.443 -18.761  1.00 12.07 LIG-0.27  OA
ATOM      3  N   LYS C   4     -21.977 -11.426 -18.459  1.00 10.21 LIG-0.35  N 
ATOM      4 H    LYS C   4     -22.772 -11.435 -18.132  1.00 10.21 LIG 0.16  HD
ENDROOT
BRANCH 1 5
ATOM      5  CA  LYS C   3     -21.636  -9.213 -17.535  1.00 10.58 LIG 0.18  C 
BRANCH 5 6
ATOM      6  N   LYS C   3     -22.973  -9.464 -16.970  1.00  9.84 LIG-0.35  N 
ATOM      7 H    LYS C   3     -23.623  -9.041 -17.340  1.00  9.84 LIG 0.16  HD
ATOM      8  C   PHE C   2     -23.083 -10.313 -15.944  1.00 10.80 LIG 0.24  C 
ATOM      9 O    PHE C   2     -22.112 -10.923 -15.482  1.00 13.01 LIG-0.27  OA
BRANCH 8 10
ATOM     10  CA  PHE C   2     -24.472 -10.533 -15.342  1.00 15.48 LIG 0.18  C 
BRANCH 10 11
ATOM     11  N   PHE C   2     -24.574 -11.872 -14.823  1.00 17.78 LIG-0.35  N 
ATOM     12  C   THR C   1     -24.655 -12.909 -15.645  1.00 15.41 LIG 0.25  C 
ATOM     13 O    THR C   1     -24.711 -12.787 -16.867  1.00 17.69 LIG-0.27  OA
ATOM     14 H    PHE C   2     -24.577 -11.929 -13.964  1.00 17.78 LIG 0.16  HD
BRANCH 12 15
ATOM     15  CA  THR C   1     -24.645 -14.284 -15.003  1.00 18.75 LIG 0.30  C 
BRANCH 15 16
ATOM     16  N   THR C   1     -23.993 -15.255 -15.912  1.00 21.65 LIG-0.06  N 
ATOM     17 H2   THR C   1     -24.614 -15.692 -16.376  1.00 21.65 LIG 0.28  HD
ATOM     18 H1   THR C   1     -23.517 -15.836 -15.434  1.00 21.65 LIG 0.28  HD
ATOM     19 H3   THR C   1     -23.455 -14.822 -16.473  1.00 21.65 LIG 0.28  HD
ENDBRANCH 15 16
BRANCH 15 20
ATOM     20  CB  THR C   1     -23.865 -14.152 -13.701  1.00 20.13 LIG 0.15  C 
ATOM     21  CG2 THR C   1     -24.810 -13.931 -12.512  1.00 23.33 LIG 0.04  C 
BRANCH 20 22
ATOM     22 OG1  THR C   1     -23.113 -15.354 -13.500  1.00 16.75 LIG-0.39  OA
ATOM     23 HG1  THR C   1     -22.951 -15.450 -12.682  1.00 16.75 LIG 0.21  HD
ENDBRANCH 20 22
ENDBRANCH 15 20
ENDBRANCH 12 15
ENDBRANCH 10 11
BRANCH 10 24
ATOM     24  CB  PHE C   2     -24.728  -9.514 -14.243  1.00 17.75 LIG 0.07  C 
BRANCH 24 25
ATOM     25  CG  PHE C   2     -23.691  -9.509 -13.153  1.00 24.94 LIG-0.06  A 
ATOM     26  CD1 PHE C   2     -22.719  -8.525 -13.101  1.00 30.32 LIG 0.01  A 
ATOM     27  CE1 PHE C   2     -21.751  -8.535 -12.095  1.00 38.50 LIG 0.00  A 
ATOM     28  CZ  PHE C   2     -21.759  -9.539 -11.146  1.00 31.85 LIG 0.00  A 
ATOM     29  CE2 PHE C   2     -22.730 -10.526 -11.191  1.00 29.60 LIG 0.00  A 
ATOM     30  CD2 PHE C   2     -23.685 -10.505 -12.191  1.00 31.76 LIG 0.01  A 
ENDBRANCH 24 25
ENDBRANCH 10 24
ENDBRANCH 8 10
ENDBRANCH 5 6
BRANCH 5 31
ATOM     31  CB  LYS C   3     -20.616  -8.790 -16.465  1.00 13.67 LIG 0.04  C 
BRANCH 31 32
ATOM     32  CG  LYS C   3     -19.892  -7.484 -16.815  1.00 11.01 LIG 0.00  C 
BRANCH 32 33
ATOM     33  CD  LYS C   3     -20.862  -6.313 -16.921  1.00 13.71 LIG 0.03  C 
BRANCH 33 34
ATOM     34  CE  LYS C   3     -20.246  -5.157 -17.704  1.00 11.77 LIG 0.23  C 
BRANCH 34 35
ATOM     35  NZ  LYS C   3     -20.333  -3.895 -16.915  1.00 11.88 LIG-0.08  N 
ATOM     36 HZ1  LYS C   3     -21.058  -3.917 -16.399  1.00 11.88 LIG 0.27  HD
ATOM     37 HZ2  LYS C   3     -19.609  -3.814 -16.404  1.00 11.88 LIG 0.27  HD
ATOM     38 HZ3  LYS C   3     -20.384  -3.202 -17.470  1.00 11.88 LIG 0.27  HD
ENDBRANCH 34 35
ENDBRANCH 33 34
ENDBRANCH 32 33
ENDBRANCH 31 32
ENDBRANCH 5 31
ENDBRANCH 1 5
BRANCH 3 39
ATOM     39  CA  LYS C   4     -21.630 -12.614 -19.214  1.00 11.64 LIG 0.18  C 
BRANCH 39 40
ATOM     40  C   LYS C   4     -21.393 -12.282 -20.688  1.00 11.74 LIG 0.24  C 
ATOM     41 O    LYS C   4     -20.284 -12.412 -21.186  1.00 13.09 LIG-0.27  OA
ATOM     42  N   THR C   5     -22.429 -11.840 -21.394  1.00 10.35 LIG-0.34  N 
ATOM     43 H    THR C   5     -23.172 -11.565 -21.059  1.00 10.35 LIG 0.16  HD
BRANCH 42 44
ATOM     44  CA  THR C   5     -22.347 -11.796 -22.853  1.00 10.42 LIG 0.20  C 
BRANCH 44 45
ATOM     45  CB  THR C   5     -23.689 -12.205 -23.495  1.00 12.47 LIG 0.15  C 
ATOM     46  CG2 THR C   5     -23.445 -12.966 -24.775  1.00 14.12 LIG 0.04  C 
BRANCH 45 47
ATOM     47 OG1  THR C   5     -24.439 -13.002 -22.577  1.00 13.71 LIG-0.39  OA
ATOM     48 HG1  THR C   5     -24.011 -13.702 -22.399  1.00 13.71 LIG 0.21  HD
ENDBRANCH 45 47
ENDBRANCH 44 45
BRANCH 44 49
ATOM     49  C   THR C   5     -21.865 -10.501 -23.509  1.00  8.61 LIG 0.24  C 
ATOM     50 O    THR C   5     -21.123 -10.586 -24.484  1.00 10.36 LIG-0.27  OA
ATOM     51  N   ASN C   6     -22.274  -9.337 -22.994  1.00 11.14 LIG-0.34  N 
ATOM     52 H    ASN C   6     -22.763  -9.268 -22.290  1.00 11.14 LIG 0.16  HD
BRANCH 51 53
ATOM     53  CA  ASN C   6     -21.913  -8.064 -23.602  1.00 11.30 LIG 0.19  C 
BRANCH 53 54
ATOM     54  C   ASN C   6     -20.419  -7.971 -23.855  1.00 12.97 LIG 0.20  C 
ATOM     55 O    ASN C   6     -19.632  -8.479 -23.035  1.00 12.35 LIG-0.65  OA
ATOM     56 OXT  ASN C   6     -19.994  -7.348 -24.833  1.00 10.83 LIG-0.65  OA
ENDBRANCH 53 54
BRANCH 53 57
ATOM     57  CB  ASN C   6     -22.287  -6.902 -22.676  1.00 12.67 LIG 0.14  C 
BRANCH 57 58
ATOM     58  CG  ASN C   6     -23.020  -5.770 -23.387  1.00 14.94 LIG 0.22  C 
ATOM     59 OD1  ASN C   6     -22.501  -5.166 -24.321  1.00 14.04 LIG-0.27  OA
ATOM     60  ND2 ASN C   6     -24.240  -5.488 -22.934  1.00 17.84 LIG-0.37  N 
ATOM     61 21HD ASN C   6     -24.699  -4.859 -23.299  1.00 17.84 LIG 0.16  HD
ATOM     62 22HD ASN C   6     -24.568  -5.935 -22.277  1.00 17.84 LIG 0.16  HD
ENDBRANCH 57 58
ENDBRANCH 53 57
ENDBRANCH 51 53
ENDBRANCH 44 49
ENDBRANCH 42 44
ENDBRANCH 39 40
BRANCH 39 63
ATOM     63  CB  LYS C   4     -22.788 -13.615 -19.081  1.00 16.38 LIG 0.04  C 
BRANCH 63 64
ATOM     64  CG  LYS C   4     -22.556 -15.016 -19.614  1.00 24.16 LIG 0.00  C 
BRANCH 64 65
ATOM     65  CD  LYS C   4     -21.182 -15.465 -19.245  1.00 15.05 LIG 0.03  C 
BRANCH 65 66
ATOM     66  CE  LYS C   4     -21.085 -16.941 -18.860  1.00 12.97 LIG 0.23  C 
BRANCH 66 67
ATOM     67  NZ  LYS C   4     -19.652 -17.378 -18.989  1.00 11.01 LIG-0.08  N 
ATOM     68 HZ3  LYS C   4     -19.255 -17.333 -18.193  1.00 11.01 LIG 0.27  HD
ATOM     69 HZ2  LYS C   4     -19.229 -16.845 -19.563  1.00 11.01 LIG 0.27  HD
ATOM     70 HZ1  LYS C   4     -19.623 -18.216 -19.287  1.00 11.01 LIG 0.27  HD
ENDBRANCH 66 67
ENDBRANCH 65 66
ENDBRANCH 64 65
ENDBRANCH 63 64
ENDBRANCH 39 63
ENDBRANCH 3 39
TORSDOF 30
ENDMDL
MODEL 6
USER: ADFR SOLUTION from run 4
USER: SCORE 22.363841 LL:  -5.539 LR: -19.101 RR:   0.000 FEB: -10.152
USER: RMSD 3.335501
USER: SEED 808790
USER: STATUS no improvement in best in 2 clusters for 5 generations
USER: GENES 32
USER: genes 0 Translation |==|  0.68680 0.55865 0.56410
USER: genes 1 Rotation |==|  0.50501 0.61120 0.46998 0.98653
USER: genes 2 Torsion [N]-C--CA-[N] |==|  0.93561
USER: genes 3 Torsion [C]-CA--N-[C] |==|  0.82228
USER: genes 4 Torsion [N]-C--CA-[N] |==|  0.91880
USER: genes 5 Torsion [C]-CA--N-[C] |==|  0.80645
USER: genes 6 Torsion [N]-C--CA-[N] |==|  0.36107
USER: genes 7 Torsion [C]-CA--N-[H3] |==|  0.29125
USER: genes 8 Torsion [C]-CA--CB-[OG1] |==|  0.52987
USER: genes 9 Torsion [CA]-CB--OG1-[HG1] |==|  0.49511
USER: genes 10 Torsion [C]-CA--CB-[CG] |==|  0.90676
USER: genes 11 Torsion [CA]-CB--CG-[CD1] |==|  0.79207
USER: genes 12 Torsion [C]-CA--CB-[CG] |==|  0.29005
USER: genes 13 Torsion [CA]-CB--CG-[CD] |==|  0.22402
USER: genes 14 Torsion [CB]-CG--CD-[CE] |==|  0.63045
USER: genes 15 Torsion [CG]-CD--CE-[NZ] |==|  0.55401
USER: genes 16 Torsion [CD]-CE--NZ-[HZ2] |==|  0.91727
USER: genes 17 Torsion [C]-N--CA-[CB] |==|  0.55300
USER: genes 18 Torsion [N]-CA--C-[N] |==|  0.80905
USER: genes 19 Torsion [C]-N--CA-[CB] |==|  0.37253
USER: genes 20 Torsion [N]-CA--CB-[CG2] |==|  0.26484
USER: genes 21 Torsion [CA]-CB--OG1-[HG1] |==|  0.79750
USER: genes 22 Torsion [N]-CA--C-[N] |==|  0.94444
USER: genes 23 Torsion [C]-N--CA-[C] |==|  0.84520
USER: genes 24 Torsion [N]-CA--C-[O] |==|  0.90664
USER: genes 25 Torsion [N]-CA--CB-[CG] |==|  0.61370
USER: genes 26 Torsion [CA]-CB--CG-[OD1] |==|  0.95998
USER: genes 27 Torsion [N]-CA--CB-[CG] |==|  0.56762
USER: genes 28 Torsion [CA]-CB--CG-[CD] |==|  0.16710
USER: genes 29 Torsion [CB]-CG--CD-[CE] |==|  0.49460
USER: genes 30 Torsion [CG]-CD--CE-[NZ] |==|  0.32091
USER: genes 31 Torsion [CD]-CE--NZ-[HZ2] |==|  0.92022
ROOT
ATOM      1  C   LYS C   3     -21.230 -10.516 -18.761  1.00 11.14 LIG 0.24  C 
ATOM      2 O    LYS C   3     -20.280 -10.344 -19.523  1.00 12.07 LIG-0.27  OA
ATOM      3  N   LYS C   4     -21.865 -11.674 -18.667  1.00 10.21 LIG-0.35  N 
ATOM      4 H    LYS C   4     -22.522 -11.817 -18.131  1.00 10.21 LIG 0.16  HD
ENDROOT
BRANCH 1 5
ATOM      5  CA  LYS C   3     -21.752  -9.380 -17.899  1.00 10.58 LIG 0.18  C 
BRANCH 5 6
ATOM      6  N   LYS C   3     -23.164  -9.594 -17.535  1.00  9.84 LIG-0.35  N 
ATOM      7 H    LYS C   3     -23.324  -9.699 -16.697  1.00  9.84 LIG 0.16  HD
ATOM      8  C   PHE C   2     -24.078  -9.608 -18.509  1.00 10.80 LIG 0.24  C 
ATOM      9 O    PHE C   2     -23.788  -9.410 -19.694  1.00 13.01 LIG-0.27  OA
BRANCH 8 10
ATOM     10  CA  PHE C   2     -25.535  -9.871 -18.120  1.00 15.48 LIG 0.18  C 
BRANCH 10 11
ATOM     11  N   PHE C   2     -25.584 -10.698 -16.941  1.00 17.78 LIG-0.35  N 
ATOM     12  C   THR C   1     -25.218 -11.970 -16.994  1.00 15.41 LIG 0.25  C 
ATOM     13 O    THR C   1     -24.882 -12.523 -18.040  1.00 17.69 LIG-0.27  OA
ATOM     14 H    PHE C   2     -25.864 -10.300 -16.231  1.00 17.78 LIG 0.16  HD
BRANCH 12 15
ATOM     15  CA  THR C   1     -25.199 -12.724 -15.678  1.00 18.75 LIG 0.30  C 
BRANCH 15 16
ATOM     16  N   THR C   1     -25.940 -13.999 -15.821  1.00 21.65 LIG-0.06  N 
ATOM     17 H2   THR C   1     -26.429 -13.977 -16.565  1.00 21.65 LIG 0.28  HD
ATOM     18 H1   THR C   1     -26.474 -14.113 -15.119  1.00 21.65 LIG 0.28  HD
ATOM     19 H3   THR C   1     -25.363 -14.674 -15.868  1.00 21.65 LIG 0.28  HD
ENDBRANCH 15 16
BRANCH 15 20
ATOM     20  CB  THR C   1     -23.735 -12.983 -15.343  1.00 20.13 LIG 0.15  C 
ATOM     21  CG2 THR C   1     -23.020 -11.681 -14.959  1.00 23.33 LIG 0.04  C 
BRANCH 20 22
ATOM     22 OG1  THR C   1     -23.678 -13.903 -14.248  1.00 16.75 LIG-0.39  OA
ATOM     23 HG1  THR C   1     -22.875 -14.075 -14.068  1.00 16.75 LIG 0.21  HD
ENDBRANCH 20 22
ENDBRANCH 15 20
ENDBRANCH 12 15
ENDBRANCH 10 11
BRANCH 10 24
ATOM     24  CB  PHE C   2     -26.253  -8.553 -17.879  1.00 17.75 LIG 0.07  C 
BRANCH 24 25
ATOM     25  CG  PHE C   2     -25.382  -7.475 -17.293  1.00 24.94 LIG-0.06  A 
ATOM     26  CD1 PHE C   2     -25.011  -7.507 -15.960  1.00 30.32 LIG 0.01  A 
ATOM     27  CE1 PHE C   2     -24.214  -6.496 -15.420  1.00 38.50 LIG 0.00  A 
ATOM     28  CZ  PHE C   2     -23.797  -5.450 -16.221  1.00 31.85 LIG 0.00  A 
ATOM     29  CE2 PHE C   2     -24.164  -5.413 -17.556  1.00 29.60 LIG 0.00  A 
ATOM     30  CD2 PHE C   2     -24.952  -6.422 -18.081  1.00 31.76 LIG 0.01  A 
ENDBRANCH 24 25
ENDBRANCH 10 24
ENDBRANCH 8 10
ENDBRANCH 5 6
BRANCH 5 31
ATOM     31  CB  LYS C   3     -20.851  -9.187 -16.669  1.00 13.67 LIG 0.04  C 
BRANCH 31 32
ATOM     32  CG  LYS C   3     -19.937  -7.960 -16.785  1.00 11.01 LIG 0.00  C 
BRANCH 32 33
ATOM     33  CD  LYS C   3     -20.676  -6.673 -16.439  1.00 13.71 LIG 0.03  C 
BRANCH 33 34
ATOM     34  CE  LYS C   3     -20.408  -5.589 -17.478  1.00 11.77 LIG 0.23  C 
BRANCH 34 35
ATOM     35  NZ  LYS C   3     -20.724  -4.245 -16.915  1.00 11.88 LIG-0.08  N 
ATOM     36 HZ1  LYS C   3     -20.993  -3.704 -17.569  1.00 11.88 LIG 0.27  HD
ATOM     37 HZ2  LYS C   3     -21.373  -4.322 -16.310  1.00 11.88 LIG 0.27  HD
ATOM     38 HZ3  LYS C   3     -19.998  -3.906 -16.530  1.00 11.88 LIG 0.27  HD
ENDBRANCH 34 35
ENDBRANCH 33 34
ENDBRANCH 32 33
ENDBRANCH 31 32
ENDBRANCH 5 31
ENDBRANCH 1 5
BRANCH 3 39
ATOM     39  CA  LYS C   4     -21.498 -12.820 -19.476  1.00 11.64 LIG 0.18  C 
BRANCH 39 40
ATOM     40  C   LYS C   4     -21.160 -12.400 -20.908  1.00 11.74 LIG 0.24  C 
ATOM     41 O    LYS C   4     -20.011 -12.462 -21.320  1.00 13.09 LIG-0.27  OA
ATOM     42  N   THR C   5     -22.154 -11.958 -21.671  1.00 10.35 LIG-0.34  N 
ATOM     43 H    THR C   5     -22.932 -11.729 -21.383  1.00 10.35 LIG 0.16  HD
BRANCH 42 44
ATOM     44  CA  THR C   5     -21.960 -11.833 -23.114  1.00 10.42 LIG 0.20  C 
BRANCH 44 45
ATOM     45  CB  THR C   5     -23.159 -12.421 -23.887  1.00 12.47 LIG 0.15  C 
ATOM     46  CG2 THR C   5     -24.139 -11.329 -24.239  1.00 14.12 LIG 0.04  C 
BRANCH 45 47
ATOM     47 OG1  THR C   5     -22.695 -13.073 -25.070  1.00 13.71 LIG-0.39  OA
ATOM     48 HG1  THR C   5     -22.454 -12.497 -25.632  1.00 13.71 LIG 0.21  HD
ENDBRANCH 45 47
ENDBRANCH 44 45
BRANCH 44 49
ATOM     49  C   THR C   5     -21.646 -10.447 -23.681  1.00  8.61 LIG 0.24  C 
ATOM     50 O    THR C   5     -21.123 -10.379 -24.790  1.00 10.36 LIG-0.27  OA
ATOM     51  N   ASN C   6     -21.954  -9.373 -22.945  1.00 11.14 LIG-0.34  N 
ATOM     52 H    ASN C   6     -22.285  -9.413 -22.153  1.00 11.14 LIG 0.16  HD
BRANCH 51 53
ATOM     53  CA  ASN C   6     -21.747  -8.022 -23.444  1.00 11.30 LIG 0.19  C 
BRANCH 53 54
ATOM     54  C   ASN C   6     -20.307  -7.797 -23.867  1.00 12.97 LIG 0.20  C 
ATOM     55 O    ASN C   6     -19.395  -8.373 -23.245  1.00 12.35 LIG-0.65  OA
ATOM     56 OXT  ASN C   6     -20.045  -7.008 -24.781  1.00 10.83 LIG-0.65  OA
ENDBRANCH 53 54
BRANCH 53 57
ATOM     57  CB  ASN C   6     -22.062  -6.994 -22.351  1.00 12.67 LIG 0.14  C 
BRANCH 57 58
ATOM     58  CG  ASN C   6     -22.817  -5.773 -22.865  1.00 14.94 LIG 0.22  C 
ATOM     59 OD1  ASN C   6     -22.896  -5.534 -24.066  1.00 14.04 LIG-0.27  OA
ATOM     60  ND2 ASN C   6     -23.377  -4.998 -21.937  1.00 17.84 LIG-0.37  N 
ATOM     61 21HD ASN C   6     -23.816  -4.297 -22.171  1.00 17.84 LIG 0.16  HD
ATOM     62 22HD ASN C   6     -23.298  -5.200 -21.105  1.00 17.84 LIG 0.16  HD
ENDBRANCH 57 58
ENDBRANCH 53 57
ENDBRANCH 51 53
ENDBRANCH 44 49
ENDBRANCH 42 44
ENDBRANCH 39 40
BRANCH 39 63
ATOM     63  CB  LYS C   4     -22.684 -13.797 -19.482  1.00 16.38 LIG 0.04  C 
BRANCH 63 64
ATOM     64  CG  LYS C   4     -22.376 -15.257 -19.753  1.00 24.16 LIG 0.00  C 
BRANCH 64 65
ATOM     65  CD  LYS C   4     -21.445 -15.769 -18.707  1.00 15.05 LIG 0.03  C 
BRANCH 65 66
ATOM     66  CE  LYS C   4     -21.096 -17.251 -18.847  1.00 12.97 LIG 0.23  C 
BRANCH 66 67
ATOM     67  NZ  LYS C   4     -19.625 -17.373 -19.136  1.00 11.01 LIG-0.08  N 
ATOM     68 HZ3  LYS C   4     -19.178 -17.457 -18.371  1.00 11.01 LIG 0.27  HD
ATOM     69 HZ2  LYS C   4     -19.345 -16.645 -19.565  1.00 11.01 LIG 0.27  HD
ATOM     70 HZ1  LYS C   4     -19.481 -18.089 -19.643  1.00 11.01 LIG 0.27  HD
ENDBRANCH 66 67
ENDBRANCH 65 66
ENDBRANCH 64 65
ENDBRANCH 63 64
ENDBRANCH 39 63
ENDBRANCH 3 39
TORSDOF 30
ENDMDL
