MODEL 1
USER: ADFR SOLUTION from run 77
USER: SCORE 25.214351 LL:  -5.457 LR: -21.470 RR:   0.000 FEB: -12.521
USER: RMSD 3.241358
USER: SEED 76
USER: STATUS no improvement in best in 4 clusters for 5 generations
USER: GENES 32
USER: genes 0 Translation |==|  0.51824 0.53767 0.62604
USER: genes 1 Rotation |==|  0.45719 0.53191 0.53583 0.99585
USER: genes 2 Torsion [N]-C--CA-[N] |==|  0.37273
USER: genes 3 Torsion [C]-CA--N-[C] |==|  0.78396
USER: genes 4 Torsion [N]-C--CA-[N] |==|  0.94176
USER: genes 5 Torsion [C]-CA--N-[C] |==|  0.56111
USER: genes 6 Torsion [N]-C--CA-[N] |==|  0.10589
USER: genes 7 Torsion [C]-CA--N-[H1] |==|  0.33249
USER: genes 8 Torsion [C]-CA--CB-[CG] |==|  0.84731
USER: genes 9 Torsion [CA]-CB--CG-[CD1] |==|  0.36245
USER: genes 10 Torsion [C]-CA--CB-[CG] |==|  0.34401
USER: genes 11 Torsion [CA]-CB--CG-[CD] |==|  0.00482
USER: genes 12 Torsion [CB]-CG--CD-[CE] |==|  0.33795
USER: genes 13 Torsion [CG]-CD--CE-[NZ] |==|  0.63330
USER: genes 14 Torsion [CD]-CE--NZ-[HZ2] |==|  0.63130
USER: genes 15 Torsion [C]-CA--CB-[CG2] |==|  0.23489
USER: genes 16 Torsion [CA]-CB--OG1-[HG1] |==|  0.14576
USER: genes 17 Torsion [C]-N--CA-[CB] |==|  0.81418
USER: genes 18 Torsion [N]-CA--CB-[CG] |==|  0.85684
USER: genes 19 Torsion [CA]-CB--CG-[CD] |==|  0.88399
USER: genes 20 Torsion [CB]-CG--CD-[CE] |==|  0.75272
USER: genes 21 Torsion [CG]-CD--CE-[NZ] |==|  0.73330
USER: genes 22 Torsion [CD]-CE--NZ-[HZ3] |==|  0.88376
USER: genes 23 Torsion [N]-CA--C-[N] |==|  0.13913
USER: genes 24 Torsion [C]-N--CA-[C] |==|  0.76607
USER: genes 25 Torsion [N]-CA--CB-[CG] |==|  0.77967
USER: genes 26 Torsion [CA]-CB--CG-[CD1] |==|  0.65889
USER: genes 27 Torsion [N]-CA--C-[N] |==|  0.97227
USER: genes 28 Torsion [C]-N--CA-[CB] |==|  0.47326
USER: genes 29 Torsion [N]-CA--CB-[CG] |==|  0.60531
USER: genes 30 Torsion [CA]-CB--CG-[CD2] |==|  0.44818
USER: genes 31 Torsion [N]-CA--C-[O] |==|  0.44296
ROOT
ATOM      1  C   THR B   3     -30.994 -18.197   9.669  1.00 25.84 LIG 0.24  C 
ATOM      2 O    THR B   3     -30.049 -18.616  10.258  1.00 21.55 LIG-0.27  OA
ATOM      3  N   LYS B   4     -30.910 -17.219   8.789  1.00 22.14 LIG-0.35  N 
ATOM      4 H    LYS B   4     -31.588 -16.905   8.363  1.00 22.14 LIG 0.16  HD
ENDROOT
BRANCH 1 5
ATOM      5  CA  THR B   3     -32.380 -18.808   9.881  1.00 27.73 LIG 0.20  C 
BRANCH 5 6
ATOM      6  N   THR B   3     -32.299 -20.233   9.886  1.00 40.69 LIG-0.34  N 
ATOM      7  C   LYS B   2     -32.186 -20.892   8.776  1.00 44.89 LIG 0.24  C 
ATOM      8 O    LYS B   2     -32.218 -20.359   7.709  1.00 60.56 LIG-0.27  OA
ATOM      9 H    THR B   3     -32.330 -20.595  10.666  1.00 40.69 LIG 0.16  HD
BRANCH 7 10
ATOM     10  CA  LYS B   2     -31.992 -22.385   8.910  1.00 29.71 LIG 0.18  C 
BRANCH 10 11
ATOM     11  N   LYS B   2     -31.492 -22.671  10.228  1.00 39.55 LIG-0.35  N 
ATOM     12 H    LYS B   2     -31.655 -22.062  10.813  1.00 39.55 LIG 0.16  HD
ATOM     13  C   LEU B   1     -30.841 -23.787  10.483  1.00 48.29 LIG 0.25  C 
ATOM     14 O    LEU B   1     -30.977 -24.736   9.818  1.00 42.73 LIG-0.27  OA
BRANCH 13 15
ATOM     15  CA  LEU B   1     -29.912 -23.893  11.717  1.00 50.99 LIG 0.28  C 
BRANCH 15 16
ATOM     16  N   LEU B   1     -30.294 -23.254  12.979  1.00 47.15 LIG-0.07  N 
ATOM     17 H3   LEU B   1     -31.077 -22.842  12.878  1.00 47.15 LIG 0.28  HD
ATOM     18 H2   LEU B   1     -29.674 -22.658  13.210  1.00 47.15 LIG 0.28  HD
ATOM     19 H1   LEU B   1     -30.363 -23.872  13.616  1.00 47.15 LIG 0.28  HD
ENDBRANCH 15 16
BRANCH 15 20
ATOM     20  CB  LEU B   1     -29.527 -25.346  11.897  1.00 20.00 LIG 0.05  C 
BRANCH 20 21
ATOM     21  CG  LEU B   1     -30.692 -26.276  11.999  1.00 20.00 LIG-0.02  C 
ATOM     22  CD1 LEU B   1     -30.636 -27.499  11.096  1.00 20.00 LIG 0.01  C 
ATOM     23  CD2 LEU B   1     -31.030 -26.660  13.406  1.00 20.00 LIG 0.01  C 
ENDBRANCH 20 21
ENDBRANCH 15 20
ENDBRANCH 13 15
ENDBRANCH 10 11
BRANCH 10 24
ATOM     24  CB  LYS B   2     -33.311 -23.087   8.594  1.00 39.10 LIG 0.04  C 
BRANCH 24 25
ATOM     25  CG  LYS B   2     -33.160 -24.091   7.492  1.00 49.91 LIG 0.00  C 
BRANCH 25 26
ATOM     26  CD  LYS B   2     -31.759 -24.192   7.001  1.00 34.11 LIG 0.03  C 
BRANCH 26 27
ATOM     27  CE  LYS B   2     -31.218 -25.568   7.131  1.00 29.48 LIG 0.23  C 
BRANCH 27 28
ATOM     28  NZ  LYS B   2     -29.904 -25.623   7.735  1.00 22.12 LIG-0.08  N 
ATOM     29 HZ2  LYS B   2     -29.377 -26.153   7.251  1.00 22.12 LIG 0.27  HD
ATOM     30 HZ1  LYS B   2     -29.970 -25.947   8.561  1.00 22.12 LIG 0.27  HD
ATOM     31 HZ3  LYS B   2     -29.555 -24.805   7.764  1.00 22.12 LIG 0.27  HD
ENDBRANCH 27 28
ENDBRANCH 26 27
ENDBRANCH 25 26
ENDBRANCH 24 25
ENDBRANCH 10 24
ENDBRANCH 7 10
ENDBRANCH 5 6
BRANCH 5 32
ATOM     32  CB  THR B   3     -33.108 -18.325  11.146  1.00 28.72 LIG 0.15  C 
ATOM     33  CG2 THR B   3     -33.794 -17.093  10.894  1.00 25.30 LIG 0.04  C 
BRANCH 32 34
ATOM     34 OG1  THR B   3     -34.029 -19.313  11.583  1.00 33.89 LIG-0.39  OA
ATOM     35 HG1  THR B   3     -33.634 -20.051  11.657  1.00 33.89 LIG 0.21  HD
ENDBRANCH 32 34
ENDBRANCH 5 32
ENDBRANCH 1 5
BRANCH 3 36
ATOM     36  CA  LYS B   4     -29.661 -16.576   8.456  1.00 23.55 LIG 0.18  C 
BRANCH 36 37
ATOM     37  CB  LYS B   4     -29.123 -15.802   9.627  1.00 17.52 LIG 0.04  C 
BRANCH 37 38
ATOM     38  CG  LYS B   4     -30.077 -14.842  10.274  1.00 21.24 LIG 0.00  C 
BRANCH 38 39
ATOM     39  CD  LYS B   4     -30.898 -14.068   9.266  1.00 20.05 LIG 0.03  C 
BRANCH 39 40
ATOM     40  CE  LYS B   4     -30.190 -12.790   8.849  1.00 29.11 LIG 0.23  C 
BRANCH 40 41
ATOM     41  NZ  LYS B   4     -30.654 -11.630   9.622  1.00 27.01 LIG-0.08  N 
ATOM     42 HZ3  LYS B   4     -31.539 -11.669   9.713  1.00 27.01 LIG 0.27  HD
ATOM     43 HZ1  LYS B   4     -30.273 -11.638  10.426  1.00 27.01 LIG 0.27  HD
ATOM     44 HZ2  LYS B   4     -30.432 -10.881   9.196  1.00 27.01 LIG 0.27  HD
ENDBRANCH 40 41
ENDBRANCH 39 40
ENDBRANCH 38 39
ENDBRANCH 37 38
ENDBRANCH 36 37
BRANCH 36 45
ATOM     45  C   LYS B   4     -28.598 -17.594   7.992  1.00 22.27 LIG 0.24  C 
ATOM     46  N   LEU B   5     -28.974 -18.436   7.063  1.00 20.84 LIG-0.35  N 
ATOM     47 H    LEU B   5     -29.763 -18.464   6.722  1.00 20.84 LIG 0.16  HD
ATOM     48 O    LYS B   4     -27.508 -17.608   8.471  1.00 21.40 LIG-0.27  OA
BRANCH 46 49
ATOM     49  CA  LEU B   5     -28.062 -19.400   6.538  1.00 17.17 LIG 0.18  C 
BRANCH 49 50
ATOM     50  CB  LEU B   5     -28.802 -20.585   6.000  1.00 24.05 LIG 0.04  C 
BRANCH 50 51
ATOM     51  CG  LEU B   5     -29.253 -21.549   7.038  1.00 29.68 LIG-0.02  C 
ATOM     52  CD1 LEU B   5     -28.645 -22.854   6.654  1.00 40.26 LIG 0.01  C 
ATOM     53  CD2 LEU B   5     -28.864 -21.105   8.399  1.00 27.30 LIG 0.01  C 
ENDBRANCH 50 51
ENDBRANCH 49 50
BRANCH 49 54
ATOM     54  C   LEU B   5     -27.191 -18.882   5.440  1.00 24.14 LIG 0.24  C 
ATOM     55  N   LEU B   6     -27.456 -17.705   4.926  1.00 19.58 LIG-0.34  N 
ATOM     56 H    LEU B   6     -28.116 -17.200   5.149  1.00 19.58 LIG 0.16  HD
ATOM     57 O    LEU B   5     -26.315 -19.551   5.037  1.00 22.75 LIG-0.27  OA
BRANCH 55 58
ATOM     58  CA  LEU B   6     -26.589 -17.191   3.905  1.00 30.46 LIG 0.18  C 
BRANCH 58 59
ATOM     59  CB  LEU B   6     -27.147 -15.925   3.234  1.00 23.52 LIG 0.04  C 
BRANCH 59 60
ATOM     60  CG  LEU B   6     -26.941 -15.754   1.753  1.00 29.01 LIG-0.02  C 
ATOM     61  CD2 LEU B   6     -27.876 -14.753   1.136  1.00 23.42 LIG 0.01  C 
ATOM     62  CD1 LEU B   6     -27.118 -17.060   1.046  1.00 27.14 LIG 0.01  C 
ENDBRANCH 59 60
ENDBRANCH 58 59
BRANCH 58 63
ATOM     63  C   LEU B   6     -25.172 -16.958   4.425  1.00 34.06 LIG 0.20  C 
ATOM     64 O    LEU B   6     -24.291 -16.899   3.619  1.00 28.47 LIG-0.65  OA
ATOM     65 OXT  LEU B   6     -25.013 -16.879   5.542  1.00 31.04 LIG-0.65  OA
ENDBRANCH 58 63
ENDBRANCH 55 58
ENDBRANCH 49 54
ENDBRANCH 46 49
ENDBRANCH 36 45
ENDBRANCH 3 36
TORSDOF 30
ENDMDL
MODEL 2
USER: ADFR SOLUTION from run 76
USER: SCORE 25.019338 LL:  -4.941 LR: -20.590 RR:   0.000 FEB: -11.641
USER: RMSD 3.021649
USER: SEED 75
USER: STATUS no improvement in best in 4 clusters for 5 generations
USER: GENES 32
USER: genes 0 Translation |==|  0.49931 0.51606 0.62439
USER: genes 1 Rotation |==|  0.52125 0.55283 0.51039 0.99664
USER: genes 2 Torsion [N]-C--CA-[N] |==|  0.44735
USER: genes 3 Torsion [C]-CA--N-[C] |==|  0.59574
USER: genes 4 Torsion [N]-C--CA-[N] |==|  0.01314
USER: genes 5 Torsion [C]-CA--N-[C] |==|  0.73146
USER: genes 6 Torsion [N]-C--CA-[N] |==|  0.92632
USER: genes 7 Torsion [C]-CA--N-[H1] |==|  0.65484
USER: genes 8 Torsion [C]-CA--CB-[CG] |==|  0.99579
USER: genes 9 Torsion [CA]-CB--CG-[CD1] |==|  0.27185
USER: genes 10 Torsion [C]-CA--CB-[CG] |==|  0.59079
USER: genes 11 Torsion [CA]-CB--CG-[CD] |==|  0.22606
USER: genes 12 Torsion [CB]-CG--CD-[CE] |==|  0.56624
USER: genes 13 Torsion [CG]-CD--CE-[NZ] |==|  0.36541
USER: genes 14 Torsion [CD]-CE--NZ-[HZ2] |==|  0.79772
USER: genes 15 Torsion [C]-CA--CB-[CG2] |==|  0.29703
USER: genes 16 Torsion [CA]-CB--OG1-[HG1] |==|  0.16349
USER: genes 17 Torsion [C]-N--CA-[CB] |==|  0.77451
USER: genes 18 Torsion [N]-CA--CB-[CG] |==|  0.80369
USER: genes 19 Torsion [CA]-CB--CG-[CD] |==|  0.75881
USER: genes 20 Torsion [CB]-CG--CD-[CE] |==|  0.36855
USER: genes 21 Torsion [CG]-CD--CE-[NZ] |==|  0.32217
USER: genes 22 Torsion [CD]-CE--NZ-[HZ3] |==|  0.00359
USER: genes 23 Torsion [N]-CA--C-[N] |==|  0.18889
USER: genes 24 Torsion [C]-N--CA-[C] |==|  0.72510
USER: genes 25 Torsion [N]-CA--CB-[CG] |==|  0.80708
USER: genes 26 Torsion [CA]-CB--CG-[CD1] |==|  0.92725
USER: genes 27 Torsion [N]-CA--C-[N] |==|  0.96021
USER: genes 28 Torsion [C]-N--CA-[CB] |==|  0.45293
USER: genes 29 Torsion [N]-CA--CB-[CG] |==|  0.70170
USER: genes 30 Torsion [CA]-CB--CG-[CD2] |==|  0.98832
USER: genes 31 Torsion [N]-CA--C-[O] |==|  0.44414
ROOT
ATOM      1  C   THR B   3     -31.420 -18.731   9.634  1.00 25.84 LIG 0.24  C 
ATOM      2 O    THR B   3     -30.498 -19.386  10.005  1.00 21.55 LIG-0.27  OA
ATOM      3  N   LYS B   4     -31.273 -17.584   9.004  1.00 22.14 LIG-0.35  N 
ATOM      4 H    LYS B   4     -31.933 -17.101   8.737  1.00 22.14 LIG 0.16  HD
ENDROOT
BRANCH 1 5
ATOM      5  CA  THR B   3     -32.856 -19.217   9.844  1.00 27.73 LIG 0.20  C 
BRANCH 5 6
ATOM      6  N   THR B   3     -32.871 -20.617  10.122  1.00 40.69 LIG-0.34  N 
ATOM      7  C   LYS B   2     -33.843 -21.362   9.701  1.00 44.89 LIG 0.24  C 
ATOM      8 O    LYS B   2     -34.794 -20.917   9.134  1.00 60.56 LIG-0.27  OA
ATOM      9 H    THR B   3     -32.200 -20.903  10.577  1.00 40.69 LIG 0.16  HD
BRANCH 7 10
ATOM     10  CA  LYS B   2     -33.697 -22.845   9.954  1.00 29.71 LIG 0.18  C 
BRANCH 10 11
ATOM     11  N   LYS B   2     -32.507 -23.068  10.731  1.00 39.55 LIG-0.35  N 
ATOM     12 H    LYS B   2     -32.608 -22.963  11.579  1.00 39.55 LIG 0.16  HD
ATOM     13  C   LEU B   1     -31.370 -23.404  10.157  1.00 48.29 LIG 0.25  C 
ATOM     14 O    LEU B   1     -31.347 -23.915   9.108  1.00 42.73 LIG-0.27  OA
BRANCH 13 15
ATOM     15  CA  LEU B   1     -30.023 -23.182  10.888  1.00 50.99 LIG 0.28  C 
BRANCH 15 16
ATOM     16  N   LEU B   1     -29.901 -22.128  11.897  1.00 47.15 LIG-0.07  N 
ATOM     17 H3   LEU B   1     -29.739 -22.495  12.692  1.00 47.15 LIG 0.28  HD
ATOM     18 H2   LEU B   1     -30.660 -21.664  11.935  1.00 47.15 LIG 0.28  HD
ATOM     19 H1   LEU B   1     -29.232 -21.584  11.679  1.00 47.15 LIG 0.28  HD
ENDBRANCH 15 16
BRANCH 15 20
ATOM     20  CB  LEU B   1     -29.530 -24.523  11.387  1.00 20.00 LIG 0.05  C 
BRANCH 20 21
ATOM     21  CG  LEU B   1     -30.452 -25.661  11.089  1.00 20.00 LIG-0.02  C 
ATOM     22  CD1 LEU B   1     -30.103 -26.485   9.860  1.00 20.00 LIG 0.01  C 
ATOM     23  CD2 LEU B   1     -30.718 -26.540  12.271  1.00 20.00 LIG 0.01  C 
ENDBRANCH 20 21
ENDBRANCH 15 20
ENDBRANCH 13 15
ENDBRANCH 10 11
BRANCH 10 24
ATOM     24  CB  LYS B   2     -34.968 -23.362  10.626  1.00 39.10 LIG 0.04  C 
BRANCH 24 25
ATOM     25  CG  LYS B   2     -34.682 -24.484  11.575  1.00 49.91 LIG 0.00  C 
BRANCH 25 26
ATOM     26  CD  LYS B   2     -34.203 -24.003  12.900  1.00 34.11 LIG 0.03  C 
BRANCH 26 27
ATOM     27  CE  LYS B   2     -33.406 -25.030  13.615  1.00 29.48 LIG 0.23  C 
BRANCH 27 28
ATOM     28  NZ  LYS B   2     -32.154 -24.533  14.144  1.00 22.12 LIG-0.08  N 
ATOM     29 HZ2  LYS B   2     -31.581 -24.400  13.476  1.00 22.12 LIG 0.27  HD
ATOM     30 HZ1  LYS B   2     -31.813 -25.129  14.711  1.00 22.12 LIG 0.27  HD
ATOM     31 HZ3  LYS B   2     -32.295 -23.765  14.571  1.00 22.12 LIG 0.27  HD
ENDBRANCH 27 28
ENDBRANCH 26 27
ENDBRANCH 25 26
ENDBRANCH 24 25
ENDBRANCH 10 24
ENDBRANCH 7 10
ENDBRANCH 5 6
BRANCH 5 32
ATOM     32  CB  THR B   3     -33.635 -18.463  10.934  1.00 28.72 LIG 0.15  C 
ATOM     33  CG2 THR B   3     -34.615 -17.598  10.348  1.00 25.30 LIG 0.04  C 
BRANCH 32 34
ATOM     34 OG1  THR B   3     -34.264 -19.388  11.808  1.00 33.89 LIG-0.39  OA
ATOM     35 HG1  THR B   3     -33.683 -19.883  12.158  1.00 33.89 LIG 0.21  HD
ENDBRANCH 32 34
ENDBRANCH 5 32
ENDBRANCH 1 5
BRANCH 3 36
ATOM     36  CA  LYS B   4     -29.978 -17.023   8.698  1.00 23.55 LIG 0.18  C 
BRANCH 36 37
ATOM     37  CB  LYS B   4     -29.401 -16.315   9.893  1.00 17.52 LIG 0.04  C 
BRANCH 37 38
ATOM     38  CG  LYS B   4     -30.068 -15.029  10.280  1.00 21.24 LIG 0.00  C 
BRANCH 38 39
ATOM     39  CD  LYS B   4     -29.509 -13.836   9.537  1.00 20.05 LIG 0.03  C 
BRANCH 39 40
ATOM     40  CE  LYS B   4     -30.624 -12.967   8.979  1.00 29.11 LIG 0.23  C 
BRANCH 40 41
ATOM     41  NZ  LYS B   4     -30.632 -11.629   9.587  1.00 27.01 LIG-0.08  N 
ATOM     42 HZ3  LYS B   4     -29.960 -11.563  10.167  1.00 27.01 LIG 0.27  HD
ATOM     43 HZ1  LYS B   4     -30.536 -11.014   8.951  1.00 27.01 LIG 0.27  HD
ATOM     44 HZ2  LYS B   4     -31.404 -11.500  10.011  1.00 27.01 LIG 0.27  HD
ENDBRANCH 40 41
ENDBRANCH 39 40
ENDBRANCH 38 39
ENDBRANCH 37 38
ENDBRANCH 36 37
BRANCH 36 45
ATOM     45  C   LYS B   4     -28.983 -18.102   8.222  1.00 22.27 LIG 0.24  C 
ATOM     46  N   LEU B   5     -29.238 -18.648   7.059  1.00 20.84 LIG-0.35  N 
ATOM     47 H    LEU B   5     -29.919 -18.455   6.571  1.00 20.84 LIG 0.16  HD
ATOM     48 O    LYS B   4     -28.051 -18.420   8.891  1.00 21.40 LIG-0.27  OA
BRANCH 46 49
ATOM     49  CA  LEU B   5     -28.367 -19.634   6.508  1.00 17.17 LIG 0.18  C 
BRANCH 49 50
ATOM     50  CB  LEU B   5     -29.156 -20.724   5.853  1.00 24.05 LIG 0.04  C 
BRANCH 50 51
ATOM     51  CG  LEU B   5     -29.911 -21.588   6.799  1.00 29.68 LIG-0.02  C 
ATOM     52  CD1 LEU B   5     -29.162 -21.512   8.085  1.00 40.26 LIG 0.01  C 
ATOM     53  CD2 LEU B   5     -31.324 -21.153   6.922  1.00 27.30 LIG 0.01  C 
ENDBRANCH 50 51
ENDBRANCH 49 50
BRANCH 49 54
ATOM     54  C   LEU B   5     -27.409 -19.104   5.491  1.00 24.14 LIG 0.24  C 
ATOM     55  N   LEU B   6     -27.619 -17.911   4.989  1.00 19.58 LIG-0.34  N 
ATOM     56 H    LEU B   6     -28.287 -17.401   5.174  1.00 19.58 LIG 0.16  HD
ATOM     57 O    LEU B   5     -26.515 -19.776   5.138  1.00 22.75 LIG-0.27  OA
BRANCH 55 58
ATOM     58  CA  LEU B   6     -26.671 -17.386   4.047  1.00 30.46 LIG 0.18  C 
BRANCH 58 59
ATOM     59  CB  LEU B   6     -27.229 -16.203   3.240  1.00 23.52 LIG 0.04  C 
BRANCH 59 60
ATOM     60  CG  LEU B   6     -27.573 -16.428   1.792  1.00 29.01 LIG-0.02  C 
ATOM     61  CD2 LEU B   6     -27.216 -17.803   1.304  1.00 23.42 LIG 0.01  C 
ATOM     62  CD1 LEU B   6     -26.875 -15.427   0.928  1.00 27.14 LIG 0.01  C 
ENDBRANCH 59 60
ENDBRANCH 58 59
BRANCH 58 63
ATOM     63  C   LEU B   6     -25.348 -17.019   4.717  1.00 34.06 LIG 0.20  C 
ATOM     64 O    LEU B   6     -24.383 -16.928   4.017  1.00 28.47 LIG-0.65  OA
ATOM     65 OXT  LEU B   6     -25.331 -16.878   5.839  1.00 31.04 LIG-0.65  OA
ENDBRANCH 58 63
ENDBRANCH 55 58
ENDBRANCH 49 54
ENDBRANCH 46 49
ENDBRANCH 36 45
ENDBRANCH 3 36
TORSDOF 30
ENDMDL
MODEL 3
USER: ADFR SOLUTION from run 17
USER: SCORE 24.501631 LL:  -5.476 LR: -20.073 RR:   0.000 FEB: -11.124
USER: RMSD 2.135913
USER: SEED 16
USER: STATUS no improvement in best in 2 clusters for 5 generations
USER: GENES 32
USER: genes 0 Translation |==|  0.52283 0.51984 0.61189
USER: genes 1 Rotation |==|  0.48353 0.54489 0.52726 0.99696
USER: genes 2 Torsion [N]-C--CA-[N] |==|  0.46625
USER: genes 3 Torsion [C]-CA--N-[C] |==|  0.73954
USER: genes 4 Torsion [N]-C--CA-[N] |==|  0.29052
USER: genes 5 Torsion [C]-CA--N-[C] |==|  0.66922
USER: genes 6 Torsion [N]-C--CA-[N] |==|  0.30050
USER: genes 7 Torsion [C]-CA--N-[H1] |==|  0.27071
USER: genes 8 Torsion [C]-CA--CB-[CG] |==|  0.13597
USER: genes 9 Torsion [CA]-CB--CG-[CD1] |==|  0.21082
USER: genes 10 Torsion [C]-CA--CB-[CG] |==|  0.51765
USER: genes 11 Torsion [CA]-CB--CG-[CD] |==|  0.76908
USER: genes 12 Torsion [CB]-CG--CD-[CE] |==|  0.02153
USER: genes 13 Torsion [CG]-CD--CE-[NZ] |==|  0.30504
USER: genes 14 Torsion [CD]-CE--NZ-[HZ2] |==|  0.75167
USER: genes 15 Torsion [C]-CA--CB-[CG2] |==|  0.29642
USER: genes 16 Torsion [CA]-CB--OG1-[HG1] |==|  0.13066
USER: genes 17 Torsion [C]-N--CA-[CB] |==|  0.79796
USER: genes 18 Torsion [N]-CA--CB-[CG] |==|  0.80865
USER: genes 19 Torsion [CA]-CB--CG-[CD] |==|  0.75071
USER: genes 20 Torsion [CB]-CG--CD-[CE] |==|  0.38075
USER: genes 21 Torsion [CG]-CD--CE-[NZ] |==|  0.27305
USER: genes 22 Torsion [CD]-CE--NZ-[HZ3] |==|  0.94735
USER: genes 23 Torsion [N]-CA--C-[N] |==|  0.15000
USER: genes 24 Torsion [C]-N--CA-[C] |==|  0.76613
USER: genes 25 Torsion [N]-CA--CB-[CG] |==|  0.72945
USER: genes 26 Torsion [CA]-CB--CG-[CD1] |==|  0.76359
USER: genes 27 Torsion [N]-CA--C-[N] |==|  0.96064
USER: genes 28 Torsion [C]-N--CA-[CB] |==|  0.47421
USER: genes 29 Torsion [N]-CA--CB-[CG] |==|  0.70458
USER: genes 30 Torsion [CA]-CB--CG-[CD2] |==|  0.00143
USER: genes 31 Torsion [N]-CA--C-[O] |==|  0.43738
ROOT
ATOM      1  C   THR B   3     -30.890 -18.638   9.372  1.00 25.84 LIG 0.24  C 
ATOM      2 O    THR B   3     -29.937 -19.154   9.862  1.00 21.55 LIG-0.27  OA
ATOM      3  N   LYS B   4     -30.807 -17.582   8.588  1.00 22.14 LIG-0.35  N 
ATOM      4 H    LYS B   4     -31.491 -17.198   8.235  1.00 22.14 LIG 0.16  HD
ENDROOT
BRANCH 1 5
ATOM      5  CA  THR B   3     -32.292 -19.208   9.603  1.00 27.73 LIG 0.20  C 
BRANCH 5 6
ATOM      6  N   THR B   3     -32.209 -20.490  10.225  1.00 40.69 LIG-0.34  N 
ATOM      7  C   LYS B   2     -32.213 -21.571   9.510  1.00 44.89 LIG 0.24  C 
ATOM      8 O    LYS B   2     -32.355 -21.556   8.325  1.00 60.56 LIG-0.27  OA
ATOM      9 H    THR B   3     -32.159 -20.475  11.083  1.00 40.69 LIG 0.16  HD
BRANCH 7 10
ATOM     10  CA  LYS B   2     -32.005 -22.864  10.265  1.00 29.71 LIG 0.18  C 
BRANCH 10 11
ATOM     11  N   LYS B   2     -33.267 -23.545  10.375  1.00 39.55 LIG-0.35  N 
ATOM     12 H    LYS B   2     -33.627 -23.756   9.623  1.00 39.55 LIG 0.16  HD
ATOM     13  C   LEU B   1     -33.801 -23.807  11.550  1.00 48.29 LIG 0.25  C 
ATOM     14 O    LEU B   1     -33.146 -23.878  12.513  1.00 42.73 LIG-0.27  OA
BRANCH 13 15
ATOM     15  CA  LEU B   1     -35.318 -24.090  11.681  1.00 50.99 LIG 0.28  C 
BRANCH 15 16
ATOM     16  N   LEU B   1     -35.789 -25.448  11.963  1.00 47.15 LIG-0.07  N 
ATOM     17 H3   LEU B   1     -35.167 -26.035  11.715  1.00 47.15 LIG 0.28  HD
ATOM     18 H2   LEU B   1     -36.540 -25.602  11.511  1.00 47.15 LIG 0.28  HD
ATOM     19 H1   LEU B   1     -35.945 -25.532  12.835  1.00 47.15 LIG 0.28  HD
ENDBRANCH 15 16
BRANCH 15 20
ATOM     20  CB  LEU B   1     -35.911 -23.063  12.621  1.00 20.00 LIG 0.05  C 
BRANCH 20 21
ATOM     21  CG  LEU B   1     -35.527 -21.654  12.305  1.00 20.00 LIG-0.02  C 
ATOM     22  CD1 LEU B   1     -36.238 -21.031  11.114  1.00 20.00 LIG 0.01  C 
ATOM     23  CD2 LEU B   1     -35.564 -20.743  13.492  1.00 20.00 LIG 0.01  C 
ENDBRANCH 20 21
ENDBRANCH 15 20
ENDBRANCH 13 15
ENDBRANCH 10 11
BRANCH 10 24
ATOM     24  CB  LYS B   2     -30.930 -23.685   9.556  1.00 39.10 LIG 0.04  C 
BRANCH 24 25
ATOM     25  CG  LYS B   2     -30.778 -25.047  10.160  1.00 49.91 LIG 0.00  C 
BRANCH 25 26
ATOM     26  CD  LYS B   2     -29.898 -25.044  11.360  1.00 34.11 LIG 0.03  C 
BRANCH 26 27
ATOM     27  CE  LYS B   2     -29.529 -23.670  11.781  1.00 29.48 LIG 0.23  C 
BRANCH 27 28
ATOM     28  NZ  LYS B   2     -30.147 -23.254  13.022  1.00 22.12 LIG-0.08  N 
ATOM     29 HZ2  LYS B   2     -30.931 -22.870  12.850  1.00 22.12 LIG 0.27  HD
ATOM     30 HZ1  LYS B   2     -29.617 -22.672  13.438  1.00 22.12 LIG 0.27  HD
ATOM     31 HZ3  LYS B   2     -30.273 -23.964  13.544  1.00 22.12 LIG 0.27  HD
ENDBRANCH 27 28
ENDBRANCH 26 27
ENDBRANCH 25 26
ENDBRANCH 24 25
ENDBRANCH 10 24
ENDBRANCH 7 10
ENDBRANCH 5 6
BRANCH 5 32
ATOM     32  CB  THR B   3     -33.228 -18.298  10.414  1.00 28.72 LIG 0.15  C 
ATOM     33  CG2 THR B   3     -34.220 -17.709   9.564  1.00 25.30 LIG 0.04  C 
BRANCH 32 34
ATOM     34 OG1  THR B   3     -33.855 -19.043  11.447  1.00 33.89 LIG-0.39  OA
ATOM     35 HG1  THR B   3     -33.279 -19.504  11.849  1.00 33.89 LIG 0.21  HD
ENDBRANCH 32 34
ENDBRANCH 5 32
ENDBRANCH 1 5
BRANCH 3 36
ATOM     36  CA  LYS B   4     -29.548 -16.963   8.247  1.00 23.55 LIG 0.18  C 
BRANCH 36 37
ATOM     37  CB  LYS B   4     -28.980 -16.212   9.421  1.00 17.52 LIG 0.04  C 
BRANCH 37 38
ATOM     38  CG  LYS B   4     -29.725 -14.978   9.833  1.00 21.24 LIG 0.00  C 
BRANCH 38 39
ATOM     39  CD  LYS B   4     -29.235 -13.736   9.123  1.00 20.05 LIG 0.03  C 
BRANCH 39 40
ATOM     40  CE  LYS B   4     -30.399 -12.868   8.673  1.00 29.11 LIG 0.23  C 
BRANCH 40 41
ATOM     41  NZ  LYS B   4     -30.654 -11.767   9.611  1.00 27.01 LIG-0.08  N 
ATOM     42 HZ3  LYS B   4     -30.278 -11.953  10.397  1.00 27.01 LIG 0.27  HD
ATOM     43 HZ1  LYS B   4     -30.307 -11.014   9.287  1.00 27.01 LIG 0.27  HD
ATOM     44 HZ2  LYS B   4     -31.532 -11.666   9.719  1.00 27.01 LIG 0.27  HD
ENDBRANCH 40 41
ENDBRANCH 39 40
ENDBRANCH 38 39
ENDBRANCH 37 38
ENDBRANCH 36 37
BRANCH 36 45
ATOM     45  C   LYS B   4     -28.513 -17.998   7.760  1.00 22.27 LIG 0.24  C 
ATOM     46  N   LEU B   5     -28.890 -18.770   6.773  1.00 20.84 LIG-0.35  N 
ATOM     47 H    LEU B   5     -29.667 -18.744   6.406  1.00 20.84 LIG 0.16  HD
ATOM     48 O    LYS B   4     -27.442 -18.087   8.273  1.00 21.40 LIG-0.27  OA
BRANCH 46 49
ATOM     49  CA  LEU B   5     -28.002 -19.741   6.224  1.00 17.17 LIG 0.18  C 
BRANCH 49 50
ATOM     50  CB  LEU B   5     -28.770 -20.861   5.594  1.00 24.05 LIG 0.04  C 
BRANCH 50 51
ATOM     51  CG  LEU B   5     -28.933 -22.057   6.462  1.00 29.68 LIG-0.02  C 
ATOM     52  CD1 LEU B   5     -27.695 -22.861   6.260  1.00 40.26 LIG 0.01  C 
ATOM     53  CD2 LEU B   5     -29.154 -21.675   7.878  1.00 27.30 LIG 0.01  C 
ENDBRANCH 50 51
ENDBRANCH 49 50
BRANCH 49 54
ATOM     54  C   LEU B   5     -27.071 -19.201   5.187  1.00 24.14 LIG 0.24  C 
ATOM     55  N   LEU B   6     -27.316 -18.020   4.673  1.00 19.58 LIG-0.34  N 
ATOM     56 H    LEU B   6     -27.993 -17.524   4.862  1.00 19.58 LIG 0.16  HD
ATOM     57 O    LEU B   5     -26.166 -19.857   4.829  1.00 22.75 LIG-0.27  OA
BRANCH 55 58
ATOM     58  CA  LEU B   6     -26.394 -17.485   3.713  1.00 30.46 LIG 0.18  C 
BRANCH 58 59
ATOM     59  CB  LEU B   6     -26.919 -16.210   3.032  1.00 23.52 LIG 0.04  C 
BRANCH 59 60
ATOM     60  CG  LEU B   6     -27.387 -16.306   1.604  1.00 29.01 LIG-0.02  C 
ATOM     61  CD2 LEU B   6     -27.278 -17.693   1.036  1.00 23.42 LIG 0.01  C 
ATOM     62  CD1 LEU B   6     -26.602 -15.379   0.734  1.00 27.14 LIG 0.01  C 
ENDBRANCH 59 60
ENDBRANCH 58 59
BRANCH 58 63
ATOM     63  C   LEU B   6     -25.011 -17.254   4.318  1.00 34.06 LIG 0.20  C 
ATOM     64 O    LEU B   6     -24.081 -17.214   3.569  1.00 28.47 LIG-0.65  OA
ATOM     65 OXT  LEU B   6     -24.922 -17.159   5.442  1.00 31.04 LIG-0.65  OA
ENDBRANCH 58 63
ENDBRANCH 55 58
ENDBRANCH 49 54
ENDBRANCH 46 49
ENDBRANCH 36 45
ENDBRANCH 3 36
TORSDOF 30
ENDMDL
MODEL 4
USER: ADFR SOLUTION from run 23
USER: SCORE 23.590809 LL:  -4.780 LR: -19.735 RR:   0.000 FEB: -10.786
USER: RMSD 2.926140
USER: SEED 22
USER: STATUS searching
USER: GENES 32
USER: genes 0 Translation |==|  0.52453 0.51284 0.60522
USER: genes 1 Rotation |==|  0.47039 0.54385 0.56383 0.99308
USER: genes 2 Torsion [N]-C--CA-[N] |==|  0.45220
USER: genes 3 Torsion [C]-CA--N-[C] |==|  0.81667
USER: genes 4 Torsion [N]-C--CA-[N] |==|  0.47220
USER: genes 5 Torsion [C]-CA--N-[C] |==|  0.69084
USER: genes 6 Torsion [N]-C--CA-[N] |==|  0.13351
USER: genes 7 Torsion [C]-CA--N-[H1] |==|  0.15965
USER: genes 8 Torsion [C]-CA--CB-[CG] |==|  0.27696
USER: genes 9 Torsion [CA]-CB--CG-[CD1] |==|  0.38561
USER: genes 10 Torsion [C]-CA--CB-[CG] |==|  0.42294
USER: genes 11 Torsion [CA]-CB--CG-[CD] |==|  0.93141
USER: genes 12 Torsion [CB]-CG--CD-[CE] |==|  0.35783
USER: genes 13 Torsion [CG]-CD--CE-[NZ] |==|  0.01659
USER: genes 14 Torsion [CD]-CE--NZ-[HZ2] |==|  0.93148
USER: genes 15 Torsion [C]-CA--CB-[CG2] |==|  0.24347
USER: genes 16 Torsion [CA]-CB--OG1-[HG1] |==|  0.18300
USER: genes 17 Torsion [C]-N--CA-[CB] |==|  0.79327
USER: genes 18 Torsion [N]-CA--CB-[CG] |==|  0.77351
USER: genes 19 Torsion [CA]-CB--CG-[CD] |==|  0.76699
USER: genes 20 Torsion [CB]-CG--CD-[CE] |==|  0.45731
USER: genes 21 Torsion [CG]-CD--CE-[NZ] |==|  0.20655
USER: genes 22 Torsion [CD]-CE--NZ-[HZ3] |==|  0.35680
USER: genes 23 Torsion [N]-CA--C-[N] |==|  0.12828
USER: genes 24 Torsion [C]-N--CA-[C] |==|  0.78659
USER: genes 25 Torsion [N]-CA--CB-[CG] |==|  0.65798
USER: genes 26 Torsion [CA]-CB--CG-[CD1] |==|  0.42378
USER: genes 27 Torsion [N]-CA--C-[N] |==|  0.98204
USER: genes 28 Torsion [C]-N--CA-[CB] |==|  0.46553
USER: genes 29 Torsion [N]-CA--CB-[CG] |==|  0.70227
USER: genes 30 Torsion [CA]-CB--CG-[CD2] |==|  0.99072
USER: genes 31 Torsion [N]-CA--C-[O] |==|  0.43984
ROOT
ATOM      1  C   THR B   3     -30.852 -18.811   9.232  1.00 25.84 LIG 0.24  C 
ATOM      2 O    THR B   3     -29.834 -19.158   9.740  1.00 21.55 LIG-0.27  OA
ATOM      3  N   LYS B   4     -30.926 -17.786   8.407  1.00 22.14 LIG-0.35  N 
ATOM      4 H    LYS B   4     -31.658 -17.524   8.040  1.00 22.14 LIG 0.16  HD
ENDROOT
BRANCH 1 5
ATOM      5  CA  THR B   3     -32.152 -19.576   9.488  1.00 27.73 LIG 0.20  C 
BRANCH 5 6
ATOM      6  N   THR B   3     -31.871 -20.857  10.053  1.00 40.69 LIG-0.34  N 
ATOM      7  C   LYS B   2     -31.246 -21.759   9.365  1.00 44.89 LIG 0.24  C 
ATOM      8 O    LYS B   2     -30.942 -21.597   8.222  1.00 60.56 LIG-0.27  OA
ATOM      9 H    THR B   3     -32.146 -20.965  10.861  1.00 40.69 LIG 0.16  HD
BRANCH 7 10
ATOM     10  CA  LYS B   2     -30.901 -23.032  10.102  1.00 29.71 LIG 0.18  C 
BRANCH 10 11
ATOM     11  N   LYS B   2     -30.431 -24.005   9.152  1.00 39.55 LIG-0.35  N 
ATOM     12 H    LYS B   2     -29.669 -23.821   8.798  1.00 39.55 LIG 0.16  HD
ATOM     13  C   LEU B   1     -31.138 -25.080   8.870  1.00 48.29 LIG 0.25  C 
ATOM     14 O    LEU B   1     -31.931 -25.500   9.617  1.00 42.73 LIG-0.27  OA
BRANCH 13 15
ATOM     15  CA  LEU B   1     -30.897 -25.859   7.554  1.00 50.99 LIG 0.28  C 
BRANCH 15 16
ATOM     16  N   LEU B   1     -29.534 -26.213   7.151  1.00 47.15 LIG-0.07  N 
ATOM     17 H3   LEU B   1     -29.061 -25.470   7.017  1.00 47.15 LIG 0.28  HD
ATOM     18 H2   LEU B   1     -29.560 -26.687   6.398  1.00 47.15 LIG 0.28  HD
ATOM     19 H1   LEU B   1     -29.151 -26.697   7.792  1.00 47.15 LIG 0.28  HD
ENDBRANCH 15 16
BRANCH 15 20
ATOM     20  CB  LEU B   1     -31.836 -27.046   7.527  1.00 20.00 LIG 0.05  C 
BRANCH 20 21
ATOM     21  CG  LEU B   1     -33.060 -26.834   6.696  1.00 20.00 LIG-0.02  C 
ATOM     22  CD1 LEU B   1     -33.489 -28.020   5.846  1.00 20.00 LIG 0.01  C 
ATOM     23  CD2 LEU B   1     -34.217 -26.277   7.466  1.00 20.00 LIG 0.01  C 
ENDBRANCH 20 21
ENDBRANCH 15 20
ENDBRANCH 13 15
ENDBRANCH 10 11
BRANCH 10 24
ATOM     24  CB  LYS B   2     -29.886 -22.712  11.197  1.00 39.10 LIG 0.04  C 
BRANCH 24 25
ATOM     25  CG  LYS B   2     -29.982 -23.669  12.345  1.00 49.91 LIG 0.00  C 
BRANCH 25 26
ATOM     26  CD  LYS B   2     -31.328 -24.293  12.457  1.00 34.11 LIG 0.03  C 
BRANCH 26 27
ATOM     27  CE  LYS B   2     -31.254 -25.773  12.548  1.00 29.48 LIG 0.23  C 
BRANCH 27 28
ATOM     28  NZ  LYS B   2     -29.904 -26.285  12.647  1.00 22.12 LIG-0.08  N 
ATOM     29 HZ2  LYS B   2     -29.337 -25.699  12.290  1.00 22.12 LIG 0.27  HD
ATOM     30 HZ1  LYS B   2     -29.846 -27.057  12.209  1.00 22.12 LIG 0.27  HD
ATOM     31 HZ3  LYS B   2     -29.697 -26.414  13.503  1.00 22.12 LIG 0.27  HD
ENDBRANCH 27 28
ENDBRANCH 26 27
ENDBRANCH 25 26
ENDBRANCH 24 25
ENDBRANCH 10 24
ENDBRANCH 7 10
ENDBRANCH 5 6
BRANCH 5 32
ATOM     32  CB  THR B   3     -33.171 -18.833  10.368  1.00 28.72 LIG 0.15  C 
ATOM     33  CG2 THR B   3     -34.011 -17.993   9.568  1.00 25.30 LIG 0.04  C 
BRANCH 32 34
ATOM     34 OG1  THR B   3     -33.962 -19.766  11.088  1.00 33.89 LIG-0.39  OA
ATOM     35 HG1  THR B   3     -33.478 -20.181  11.635  1.00 33.89 LIG 0.21  HD
ENDBRANCH 32 34
ENDBRANCH 5 32
ENDBRANCH 1 5
BRANCH 3 36
ATOM     36  CA  LYS B   4     -29.773 -16.998   8.039  1.00 23.55 LIG 0.18  C 
BRANCH 36 37
ATOM     37  CB  LYS B   4     -29.354 -16.096   9.167  1.00 17.52 LIG 0.04  C 
BRANCH 37 38
ATOM     38  CG  LYS B   4     -30.123 -14.815   9.303  1.00 21.24 LIG 0.00  C 
BRANCH 38 39
ATOM     39  CD  LYS B   4     -29.601 -13.722   8.397  1.00 20.05 LIG 0.03  C 
BRANCH 39 40
ATOM     40  CE  LYS B   4     -30.603 -12.587   8.276  1.00 29.11 LIG 0.23  C 
BRANCH 40 41
ATOM     41  NZ  LYS B   4     -30.645 -11.762   9.491  1.00 27.01 LIG-0.08  N 
ATOM     42 HZ3  LYS B   4     -30.550 -10.905   9.271  1.00 27.01 LIG 0.27  HD
ATOM     43 HZ1  LYS B   4     -31.427 -11.877   9.901  1.00 27.01 LIG 0.27  HD
ATOM     44 HZ2  LYS B   4     -29.985 -12.003  10.037  1.00 27.01 LIG 0.27  HD
ENDBRANCH 40 41
ENDBRANCH 39 40
ENDBRANCH 38 39
ENDBRANCH 37 38
ENDBRANCH 36 37
BRANCH 36 45
ATOM     45  C   LYS B   4     -28.579 -17.885   7.631  1.00 22.27 LIG 0.24  C 
ATOM     46  N   LEU B   5     -28.845 -18.870   6.811  1.00 20.84 LIG-0.35  N 
ATOM     47 H    LEU B   5     -29.630 -19.053   6.511  1.00 20.84 LIG 0.16  HD
ATOM     48 O    LYS B   4     -27.486 -17.682   8.058  1.00 21.40 LIG-0.27  OA
BRANCH 46 49
ATOM     49  CA  LEU B   5     -27.810 -19.733   6.343  1.00 17.17 LIG 0.18  C 
BRANCH 49 50
ATOM     50  CB  LEU B   5     -28.390 -21.000   5.796  1.00 24.05 LIG 0.04  C 
BRANCH 50 51
ATOM     51  CG  LEU B   5     -27.878 -22.238   6.443  1.00 29.68 LIG-0.02  C 
ATOM     52  CD1 LEU B   5     -28.972 -23.239   6.296  1.00 40.26 LIG 0.01  C 
ATOM     53  CD2 LEU B   5     -26.599 -22.680   5.834  1.00 27.30 LIG 0.01  C 
ENDBRANCH 50 51
ENDBRANCH 49 50
BRANCH 49 54
ATOM     54  C   LEU B   5     -26.952 -19.137   5.275  1.00 24.14 LIG 0.24  C 
ATOM     55  N   LEU B   6     -27.285 -17.970   4.778  1.00 19.58 LIG-0.34  N 
ATOM     56 H    LEU B   6     -27.981 -17.514   4.995  1.00 19.58 LIG 0.16  HD
ATOM     57 O    LEU B   5     -26.026 -19.738   4.879  1.00 22.75 LIG-0.27  OA
BRANCH 55 58
ATOM     58  CA  LEU B   6     -26.433 -17.380   3.785  1.00 30.46 LIG 0.18  C 
BRANCH 58 59
ATOM     59  CB  LEU B   6     -27.087 -16.181   3.078  1.00 23.52 LIG 0.04  C 
BRANCH 59 60
ATOM     60  CG  LEU B   6     -27.548 -16.358   1.656  1.00 29.01 LIG-0.02  C 
ATOM     61  CD2 LEU B   6     -27.220 -17.710   1.090  1.00 23.42 LIG 0.01  C 
ATOM     62  CD1 LEU B   6     -26.935 -15.318   0.775  1.00 27.14 LIG 0.01  C 
ENDBRANCH 59 60
ENDBRANCH 58 59
BRANCH 58 63
ATOM     63  C   LEU B   6     -25.068 -17.001   4.359  1.00 34.06 LIG 0.20  C 
ATOM     64 O    LEU B   6     -24.161 -16.880   3.589  1.00 28.47 LIG-0.65  OA
ATOM     65 OXT  LEU B   6     -24.968 -16.879   5.479  1.00 31.04 LIG-0.65  OA
ENDBRANCH 58 63
ENDBRANCH 55 58
ENDBRANCH 49 54
ENDBRANCH 46 49
ENDBRANCH 36 45
ENDBRANCH 3 36
TORSDOF 30
ENDMDL
