MODEL 1
USER: ADFR SOLUTION from run 50
USER: SCORE 9.205395 LL:  -1.340 LR:  -9.155 RR:   0.000 FEB:  -5.277
USER: RMSD 1.927868
USER: SEED 49
USER: STATUS no improvement in best in 3 clusters for 5 generations
USER: GENES 15
USER: genes 0 Translation |==|  0.47821 0.44892 0.56788
USER: genes 1 Rotation |==|  0.63944 0.63267 0.39450 0.94925
USER: genes 2 Torsion [C]-N--CA-[CB] |==|  0.22336
USER: genes 3 Torsion [N]-CA--C-[N] |==|  0.37028
USER: genes 4 Torsion [C]-N--CA-[C] |==|  0.48113
USER: genes 5 Torsion [N]-CA--C-[O] |==|  0.93298
USER: genes 6 Torsion [N]-CA--CB-[OG] |==|  0.09755
USER: genes 7 Torsion [CA]-CB--OG-[HG] |==|  0.96408
USER: genes 8 Torsion [N]-CA--CB-[CG2] |==|  0.09961
USER: genes 9 Torsion [CA]-CB--OG1-[HG1] |==|  0.09880
USER: genes 10 Torsion [N]-C--CA-[N] |==|  0.50000
USER: genes 11 Torsion [C]-CA--CB-[OG] |==|  0.68893
USER: genes 12 Torsion [CA]-CB--OG-[HG] |==|  0.11993
USER: genes 13 Torsion [C]-CA--N-[C] |==|  0.76952
USER: genes 14 Torsion [N]-C--CA-[N] |==|  0.49328
ROOT
ATOM      1  C   SER B  13      35.412 -13.159 -10.129  1.00 23.09 LIG 0.24  C 
ATOM      2 O    SER B  13      34.516 -12.320 -10.226  1.00 20.43 LIG-0.27  OA
ATOM      3  N   THR B  14      36.597 -13.023 -10.715  1.00 21.89 LIG-0.34  N 
ATOM      4 H    THR B  14      37.243 -13.586 -10.635  1.00 21.89 LIG 0.16  HD
ENDROOT
BRANCH 3 5
ATOM      5  CA  THR B  14      36.895 -11.872 -11.561  1.00 22.97 LIG 0.20  C 
BRANCH 5 6
ATOM      6  C   THR B  14      38.106 -12.272 -12.395  1.00 23.95 LIG 0.24  C 
ATOM      7  N   SER B  15      38.055 -12.018 -13.698  1.00 23.79 LIG-0.34  N 
ATOM      8 H    SER B  15      37.390 -11.645 -14.095  1.00 23.79 LIG 0.16  HD
ATOM      9 O    THR B  14      39.078 -12.805 -11.856  1.00 24.21 LIG-0.27  OA
BRANCH 7 10
ATOM     10  CA  SER B  15      39.170 -12.371 -14.570  1.00 24.78 LIG 0.19  C 
BRANCH 10 11
ATOM     11  C   SER B  15      38.814 -12.138 -16.030  1.00 26.56 LIG 0.22  C 
ATOM     12 O    SER B  15      37.596 -12.157 -16.310  1.00 28.00 LIG-0.29  OA
ENDBRANCH 10 11
BRANCH 10 13
ATOM     13  CB  SER B  15      39.566 -13.837 -14.371  1.00 23.87 LIG 0.20  C 
BRANCH 13 14
ATOM     14 OG   SER B  15      38.429 -14.640 -14.106  1.00 25.06 LIG-0.40  OA
ATOM     15 HG   SER B  15      37.771 -14.147 -13.931  1.00 25.06 LIG 0.21  HD
ENDBRANCH 13 14
ENDBRANCH 10 13
ENDBRANCH 7 10
ENDBRANCH 5 6
BRANCH 5 16
ATOM     16  CB  THR B  14      37.267 -10.634 -10.728  1.00 24.21 LIG 0.15  C 
ATOM     17  CG2 THR B  14      38.057 -11.035  -9.493  1.00 24.44 LIG 0.04  C 
BRANCH 16 18
ATOM     18 OG1  THR B  14      38.053  -9.744 -11.530  1.00 24.18 LIG-0.39  OA
ATOM     19 HG1  THR B  14      37.782  -9.769 -12.324  1.00 24.18 LIG 0.21  HD
ENDBRANCH 16 18
ENDBRANCH 5 16
ENDBRANCH 3 5
BRANCH 1 20
ATOM     20  CA  SER B  13      35.208 -14.426  -9.307  1.00 24.49 LIG 0.20  C 
BRANCH 20 21
ATOM     21  CB  SER B  13      35.398 -15.639 -10.223  1.00 26.86 LIG 0.20  C 
BRANCH 21 22
ATOM     22 OG   SER B  13      34.168 -16.325 -10.414  1.00 27.16 LIG-0.40  OA
ATOM     23 HG   SER B  13      33.553 -15.767 -10.543  1.00 27.16 LIG 0.21  HD
ENDBRANCH 21 22
ENDBRANCH 20 21
BRANCH 20 24
ATOM     24  N   SER B  13      33.868 -14.436  -8.729  1.00 26.25 LIG-0.34  N 
ATOM     25 H    SER B  13      33.291 -14.889  -9.178  1.00 26.25 LIG 0.16  HD
ATOM     26  C   ALA B  12      33.587 -13.791  -7.600  1.00 27.91 LIG 0.26  C 
ATOM     27 O    ALA B  12      34.424 -13.143  -6.970  1.00 29.06 LIG-0.27  OA
BRANCH 26 28
ATOM     28  CA  ALA B  12      32.150 -13.886  -7.103  1.00 28.19 LIG 0.40  C 
ATOM     29  N   ALA B  12      32.013 -13.163  -5.805  1.00 28.78 LIG 0.61  N 
ATOM     30  CB  ALA B  12      31.197 -13.294  -8.137  1.00 26.50 LIG 0.06  C 
ENDBRANCH 26 28
ENDBRANCH 20 24
ENDBRANCH 1 20
TORSDOF 13
ENDMDL
MODEL 2
USER: ADFR SOLUTION from run 26
USER: SCORE 8.833691 LL:  -1.275 LR:  -8.379 RR:   0.000 FEB:  -4.501
USER: RMSD 1.289635
USER: SEED 25
USER: STATUS no improvement in best in 1 clusters for 5 generations
USER: GENES 15
USER: genes 0 Translation |==|  0.47585 0.50343 0.59422
USER: genes 1 Rotation |==|  0.49403 0.46354 0.51096 0.99851
USER: genes 2 Torsion [C]-N--CA-[CB] |==|  0.48333
USER: genes 3 Torsion [N]-CA--C-[N] |==|  0.48009
USER: genes 4 Torsion [C]-N--CA-[C] |==|  0.85501
USER: genes 5 Torsion [N]-CA--C-[O] |==|  0.35428
USER: genes 6 Torsion [N]-CA--CB-[OG] |==|  0.08995
USER: genes 7 Torsion [CA]-CB--OG-[HG] |==|  0.68651
USER: genes 8 Torsion [N]-CA--CB-[CG2] |==|  0.66220
USER: genes 9 Torsion [CA]-CB--OG1-[HG1] |==|  0.12772
USER: genes 10 Torsion [N]-C--CA-[N] |==|  0.45503
USER: genes 11 Torsion [C]-CA--CB-[OG] |==|  0.35911
USER: genes 12 Torsion [CA]-CB--OG-[HG] |==|  0.76816
USER: genes 13 Torsion [C]-CA--N-[C] |==|  0.55778
USER: genes 14 Torsion [N]-C--CA-[N] |==|  0.55289
ROOT
ATOM      1  C   SER B  13      35.369 -12.342  -9.655  1.00 23.09 LIG 0.24  C 
ATOM      2 O    SER B  13      34.680 -12.274 -10.672  1.00 20.43 LIG-0.27  OA
ATOM      3  N   THR B  14      36.574 -11.788  -9.560  1.00 21.89 LIG-0.34  N 
ATOM      4 H    THR B  14      37.057 -11.802  -8.848  1.00 21.89 LIG 0.16  HD
ENDROOT
BRANCH 3 5
ATOM      5  CA  THR B  14      37.180 -11.095 -10.692  1.00 22.97 LIG 0.20  C 
BRANCH 5 6
ATOM      6  C   THR B  14      37.482 -12.173 -11.725  1.00 23.95 LIG 0.24  C 
ATOM      7  N   SER B  15      37.908 -11.769 -12.916  1.00 23.79 LIG-0.34  N 
ATOM      8 H    SER B  15      38.025 -10.947 -13.137  1.00 23.79 LIG 0.16  HD
ATOM      9 O    THR B  14      37.328 -13.363 -11.439  1.00 24.21 LIG-0.27  OA
BRANCH 7 10
ATOM     10  CA  SER B  15      38.217 -12.736 -13.964  1.00 24.78 LIG 0.19  C 
BRANCH 10 11
ATOM     11  C   SER B  15      39.178 -13.801 -13.455  1.00 26.56 LIG 0.22  C 
ATOM     12 O    SER B  15      38.826 -14.987 -13.627  1.00 28.00 LIG-0.29  OA
ENDBRANCH 10 11
BRANCH 10 13
ATOM     13  CB  SER B  15      38.832 -12.036 -15.179  1.00 23.87 LIG 0.20  C 
BRANCH 13 14
ATOM     14 OG   SER B  15      39.598 -10.911 -14.785  1.00 25.06 LIG-0.40  OA
ATOM     15 HG   SER B  15      39.226 -10.208 -15.058  1.00 25.06 LIG 0.21  HD
ENDBRANCH 13 14
ENDBRANCH 10 13
ENDBRANCH 7 10
ENDBRANCH 5 6
BRANCH 5 16
ATOM     16  CB  THR B  14      38.502 -10.413 -10.302  1.00 24.21 LIG 0.15  C 
ATOM     17  CG2 THR B  14      38.436  -8.918 -10.572  1.00 24.44 LIG 0.04  C 
BRANCH 16 18
ATOM     18 OG1  THR B  14      38.756 -10.636  -8.910  1.00 24.18 LIG-0.39  OA
ATOM     19 HG1  THR B  14      38.623 -11.445  -8.727  1.00 24.18 LIG 0.21  HD
ENDBRANCH 16 18
ENDBRANCH 5 16
ENDBRANCH 3 5
BRANCH 1 20
ATOM     20  CA  SER B  13      34.864 -13.075  -8.418  1.00 24.49 LIG 0.20  C 
BRANCH 20 21
ATOM     21  CB  SER B  13      35.596 -14.417  -8.314  1.00 26.86 LIG 0.20  C 
BRANCH 21 22
ATOM     22 OG   SER B  13      36.143 -14.593  -7.013  1.00 27.16 LIG-0.40  OA
ATOM     23 HG   SER B  13      36.885 -14.202  -6.967  1.00 27.16 LIG 0.21  HD
ENDBRANCH 21 22
ENDBRANCH 20 21
BRANCH 20 24
ATOM     24  N   SER B  13      33.425 -13.291  -8.518  1.00 26.25 LIG-0.34  N 
ATOM     25 H    SER B  13      33.115 -13.252  -9.319  1.00 26.25 LIG 0.16  HD
ATOM     26  C   ALA B  12      32.676 -13.527  -7.445  1.00 27.91 LIG 0.26  C 
ATOM     27 O    ALA B  12      33.133 -13.577  -6.302  1.00 29.06 LIG-0.27  OA
BRANCH 26 28
ATOM     28  CA  ALA B  12      31.187 -13.739  -7.689  1.00 28.19 LIG 0.40  C 
ATOM     29  N   ALA B  12      30.429 -13.531  -6.420  1.00 28.78 LIG 0.61  N 
ATOM     30  CB  ALA B  12      30.688 -12.774  -8.761  1.00 26.50 LIG 0.06  C 
ENDBRANCH 26 28
ENDBRANCH 20 24
ENDBRANCH 1 20
TORSDOF 13
ENDMDL
MODEL 3
USER: ADFR SOLUTION from run 47
USER: SCORE 8.015799 LL:  -1.263 LR:  -8.193 RR:   0.000 FEB:  -4.315
USER: RMSD 2.444992
USER: SEED 46
USER: STATUS no improvement in best in 2 clusters for 5 generations
USER: GENES 15
USER: genes 0 Translation |==|  0.47661 0.49976 0.57974
USER: genes 1 Rotation |==|  0.50485 0.46362 0.51363 0.99846
USER: genes 2 Torsion [C]-N--CA-[CB] |==|  0.43212
USER: genes 3 Torsion [N]-CA--C-[N] |==|  0.91889
USER: genes 4 Torsion [C]-N--CA-[C] |==|  0.84896
USER: genes 5 Torsion [N]-CA--C-[O] |==|  0.34368
USER: genes 6 Torsion [N]-CA--CB-[OG] |==|  0.44844
USER: genes 7 Torsion [CA]-CB--OG-[HG] |==|  0.94470
USER: genes 8 Torsion [N]-CA--CB-[CG2] |==|  0.44962
USER: genes 9 Torsion [CA]-CB--OG1-[HG1] |==|  0.88086
USER: genes 10 Torsion [N]-C--CA-[N] |==|  0.42825
USER: genes 11 Torsion [C]-CA--CB-[OG] |==|  0.75473
USER: genes 12 Torsion [CA]-CB--OG-[HG] |==|  0.01393
USER: genes 13 Torsion [C]-CA--N-[C] |==|  0.55845
USER: genes 14 Torsion [N]-C--CA-[N] |==|  0.61160
ROOT
ATOM      1  C   SER B  13      35.383 -12.397  -9.916  1.00 23.09 LIG 0.24  C 
ATOM      2 O    SER B  13      34.691 -12.295 -10.928  1.00 20.43 LIG-0.27  OA
ATOM      3  N   THR B  14      36.580 -11.831  -9.798  1.00 21.89 LIG-0.34  N 
ATOM      4 H    THR B  14      37.065 -11.869  -9.088  1.00 21.89 LIG 0.16  HD
ENDROOT
BRANCH 3 5
ATOM      5  CA  THR B  14      37.175 -11.082 -10.901  1.00 22.97 LIG 0.20  C 
BRANCH 5 6
ATOM      6  C   THR B  14      37.903 -12.111 -11.756  1.00 23.95 LIG 0.24  C 
ATOM      7  N   SER B  15      38.374 -13.189 -11.138  1.00 23.79 LIG-0.34  N 
ATOM      8 H    SER B  15      38.293 -13.341 -10.296  1.00 23.79 LIG 0.16  HD
ATOM      9 O    THR B  14      38.033 -11.926 -12.968  1.00 24.21 LIG-0.27  OA
BRANCH 7 10
ATOM     10  CA  SER B  15      39.087 -14.222 -11.882  1.00 24.78 LIG 0.19  C 
BRANCH 10 11
ATOM     11  C   SER B  15      38.253 -14.723 -13.052  1.00 26.56 LIG 0.22  C 
ATOM     12 O    SER B  15      38.784 -14.643 -14.180  1.00 28.00 LIG-0.29  OA
ENDBRANCH 10 11
BRANCH 10 13
ATOM     13  CB  SER B  15      39.437 -15.399 -10.968  1.00 23.87 LIG 0.20  C 
BRANCH 13 14
ATOM     14 OG   SER B  15      39.734 -16.560 -11.723  1.00 25.06 LIG-0.40  OA
ATOM     15 HG   SER B  15      39.410 -16.484 -12.495  1.00 25.06 LIG 0.21  HD
ENDBRANCH 13 14
ENDBRANCH 10 13
ENDBRANCH 7 10
ENDBRANCH 5 6
BRANCH 5 16
ATOM     16  CB  THR B  14      38.202 -10.052 -10.402  1.00 24.21 LIG 0.15  C 
ATOM     17  CG2 THR B  14      39.114  -9.610 -11.536  1.00 24.44 LIG 0.04  C 
BRANCH 16 18
ATOM     18 OG1  THR B  14      37.511  -8.913  -9.874  1.00 24.18 LIG-0.39  OA
ATOM     19 HG1  THR B  14      36.874  -8.712 -10.383  1.00 24.18 LIG 0.21  HD
ENDBRANCH 16 18
ENDBRANCH 5 16
ENDBRANCH 3 5
BRANCH 1 20
ATOM     20  CA  SER B  13      34.891 -13.189  -8.710  1.00 24.49 LIG 0.20  C 
BRANCH 20 21
ATOM     21  CB  SER B  13      35.455 -14.610  -8.796  1.00 26.86 LIG 0.20  C 
BRANCH 21 22
ATOM     22 OG   SER B  13      34.589 -15.452  -9.547  1.00 27.16 LIG-0.40  OA
ATOM     23 HG   SER B  13      33.959 -14.994  -9.864  1.00 27.16 LIG 0.21  HD
ENDBRANCH 21 22
ENDBRANCH 20 21
BRANCH 20 24
ATOM     24  N   SER B  13      33.432 -13.225  -8.698  1.00 26.25 LIG-0.34  N 
ATOM     25 H    SER B  13      33.067 -13.071  -9.462  1.00 26.25 LIG 0.16  HD
ATOM     26  C   ALA B  12      32.746 -13.476  -7.586  1.00 27.91 LIG 0.26  C 
ATOM     27 O    ALA B  12      33.284 -13.690  -6.499  1.00 29.06 LIG-0.27  OA
BRANCH 26 28
ATOM     28  CA  ALA B  12      31.228 -13.487  -7.712  1.00 28.19 LIG 0.40  C 
ATOM     29  N   ALA B  12      30.615 -12.827  -6.522  1.00 28.78 LIG 0.61  N 
ATOM     30  CB  ALA B  12      30.802 -12.768  -8.989  1.00 26.50 LIG 0.06  C 
ENDBRANCH 26 28
ENDBRANCH 20 24
ENDBRANCH 1 20
TORSDOF 13
ENDMDL
MODEL 4
USER: ADFR SOLUTION from run 119
USER: SCORE 8.664877 LL:  -1.707 LR:  -8.014 RR:   0.000 FEB:  -4.136
USER: RMSD 3.387123
USER: SEED 118
USER: STATUS no improvement in best in 5 clusters for 5 generations
USER: GENES 15
USER: genes 0 Translation |==|  0.46042 0.45951 0.56435
USER: genes 1 Rotation |==|  0.66070 0.62716 0.35668 0.93297
USER: genes 2 Torsion [C]-N--CA-[CB] |==|  0.21327
USER: genes 3 Torsion [N]-CA--C-[N] |==|  0.39599
USER: genes 4 Torsion [C]-N--CA-[C] |==|  0.54632
USER: genes 5 Torsion [N]-CA--C-[O] |==|  0.76462
USER: genes 6 Torsion [N]-CA--CB-[OG] |==|  0.78095
USER: genes 7 Torsion [CA]-CB--OG-[HG] |==|  0.06400
USER: genes 8 Torsion [N]-CA--CB-[CG2] |==|  0.12130
USER: genes 9 Torsion [CA]-CB--OG1-[HG1] |==|  0.08252
USER: genes 10 Torsion [N]-C--CA-[N] |==|  0.04165
USER: genes 11 Torsion [C]-CA--CB-[OG] |==|  0.20352
USER: genes 12 Torsion [CA]-CB--OG-[HG] |==|  0.96874
USER: genes 13 Torsion [C]-CA--N-[C] |==|  0.68889
USER: genes 14 Torsion [N]-C--CA-[N] |==|  0.39586
ROOT
ATOM      1  C   SER B  13      35.092 -13.000 -10.193  1.00 23.09 LIG 0.24  C 
ATOM      2 O    SER B  13      34.358 -12.012 -10.226  1.00 20.43 LIG-0.27  OA
ATOM      3  N   THR B  14      36.272 -13.046 -10.802  1.00 21.89 LIG-0.34  N 
ATOM      4 H    THR B  14      36.809 -13.718 -10.766  1.00 21.89 LIG 0.16  HD
ENDROOT
BRANCH 3 5
ATOM      5  CA  THR B  14      36.755 -11.924 -11.600  1.00 22.97 LIG 0.20  C 
BRANCH 5 6
ATOM      6  C   THR B  14      37.922 -12.467 -12.416  1.00 23.95 LIG 0.24  C 
ATOM      7  N   SER B  15      38.052 -12.018 -13.659  1.00 23.79 LIG-0.34  N 
ATOM      8 H    SER B  15      37.527 -11.446 -14.027  1.00 23.79 LIG 0.16  HD
ATOM      9 O    THR B  14      38.696 -13.286 -11.917  1.00 24.21 LIG-0.27  OA
BRANCH 7 10
ATOM     10  CA  SER B  15      39.140 -12.488 -14.511  1.00 24.78 LIG 0.19  C 
BRANCH 10 11
ATOM     11  C   SER B  15      39.335 -11.565 -15.704  1.00 26.56 LIG 0.22  C 
ATOM     12 O    SER B  15      38.602 -11.781 -16.693  1.00 28.00 LIG-0.29  OA
ENDBRANCH 10 11
BRANCH 10 13
ATOM     13  CB  SER B  15      38.859 -13.909 -15.008  1.00 23.87 LIG 0.20  C 
BRANCH 13 14
ATOM     14 OG   SER B  15      39.149 -14.867 -14.006  1.00 25.06 LIG-0.40  OA
ATOM     15 HG   SER B  15      39.116 -14.501 -13.250  1.00 25.06 LIG 0.21  HD
ENDBRANCH 13 14
ENDBRANCH 10 13
ENDBRANCH 7 10
ENDBRANCH 5 6
BRANCH 5 16
ATOM     16  CB  THR B  14      37.274 -10.778 -10.715  1.00 24.21 LIG 0.15  C 
ATOM     17  CG2 THR B  14      38.126 -11.320  -9.578  1.00 24.44 LIG 0.04  C 
BRANCH 16 18
ATOM     18 OG1  THR B  14      38.058  -9.882 -11.514  1.00 24.18 LIG-0.39  OA
ATOM     19 HG1  THR B  14      37.774  -9.892 -12.304  1.00 24.18 LIG 0.21  HD
ENDBRANCH 16 18
ENDBRANCH 5 16
ENDBRANCH 3 5
BRANCH 1 20
ATOM     20  CA  SER B  13      34.679 -14.252  -9.427  1.00 24.49 LIG 0.20  C 
BRANCH 20 21
ATOM     21  CB  SER B  13      34.101 -13.828  -8.074  1.00 26.86 LIG 0.20  C 
BRANCH 21 22
ATOM     22 OG   SER B  13      32.810 -13.255  -8.234  1.00 27.16 LIG-0.40  OA
ATOM     23 HG   SER B  13      32.666 -13.114  -9.049  1.00 27.16 LIG 0.21  HD
ENDBRANCH 21 22
ENDBRANCH 20 21
BRANCH 20 24
ATOM     24  N   SER B  13      35.834 -15.122  -9.232  1.00 26.25 LIG-0.34  N 
ATOM     25 H    SER B  13      36.431 -14.805  -8.700  1.00 26.25 LIG 0.16  HD
ATOM     26  C   ALA B  12      35.932 -16.302  -9.838  1.00 27.91 LIG 0.26  C 
ATOM     27 O    ALA B  12      35.071 -16.741 -10.601  1.00 29.06 LIG-0.27  OA
BRANCH 26 28
ATOM     28  CA  ALA B  12      37.189 -17.113  -9.546  1.00 28.19 LIG 0.40  C 
ATOM     29  N   ALA B  12      36.849 -18.564  -9.461  1.00 28.78 LIG 0.61  N 
ATOM     30  CB  ALA B  12      38.230 -16.881 -10.637  1.00 26.50 LIG 0.06  C 
ENDBRANCH 26 28
ENDBRANCH 20 24
ENDBRANCH 1 20
TORSDOF 13
ENDMDL
MODEL 5
USER: ADFR SOLUTION from run 104
USER: SCORE 8.714121 LL:  -1.380 LR:  -7.916 RR:   0.000 FEB:  -4.038
USER: RMSD 3.094428
USER: SEED 103
USER: STATUS 1 or 2 clusters left
USER: GENES 15
USER: genes 0 Translation |==|  0.49401 0.47797 0.57506
USER: genes 1 Rotation |==|  0.48840 0.45470 0.54975 0.99532
USER: genes 2 Torsion [C]-N--CA-[CB] |==|  0.50000
USER: genes 3 Torsion [N]-CA--C-[N] |==|  0.47493
USER: genes 4 Torsion [C]-N--CA-[C] |==|  0.85711
USER: genes 5 Torsion [N]-CA--C-[O] |==|  0.33784
USER: genes 6 Torsion [N]-CA--CB-[OG] |==|  0.10868
USER: genes 7 Torsion [CA]-CB--OG-[HG] |==|  0.75214
USER: genes 8 Torsion [N]-CA--CB-[CG2] |==|  0.70174
USER: genes 9 Torsion [CA]-CB--OG1-[HG1] |==|  0.41664
USER: genes 10 Torsion [N]-C--CA-[N] |==|  0.01666
USER: genes 11 Torsion [C]-CA--CB-[OG] |==|  0.01437
USER: genes 12 Torsion [CA]-CB--OG-[HG] |==|  0.33925
USER: genes 13 Torsion [C]-CA--N-[C] |==|  0.77135
USER: genes 14 Torsion [N]-C--CA-[N] |==|  0.48710
ROOT
ATOM      1  C   SER B  13      35.696 -12.723 -10.000  1.00 23.09 LIG 0.24  C 
ATOM      2 O    SER B  13      35.043 -12.794 -11.040  1.00 20.43 LIG-0.27  OA
ATOM      3  N   THR B  14      36.798 -11.988  -9.886  1.00 21.89 LIG-0.34  N 
ATOM      4 H    THR B  14      37.251 -11.907  -9.159  1.00 21.89 LIG 0.16  HD
ENDROOT
BRANCH 3 5
ATOM      5  CA  THR B  14      37.333 -11.245 -11.022  1.00 22.97 LIG 0.20  C 
BRANCH 5 6
ATOM      6  C   THR B  14      37.694 -12.291 -12.069  1.00 23.95 LIG 0.24  C 
ATOM      7  N   SER B  15      38.033 -11.850 -13.275  1.00 23.79 LIG-0.34  N 
ATOM      8 H    SER B  15      38.063 -11.020 -13.498  1.00 23.79 LIG 0.16  HD
ATOM      9 O    THR B  14      37.665 -13.490 -11.780  1.00 24.21 LIG-0.27  OA
BRANCH 7 10
ATOM     10  CA  SER B  15      38.391 -12.784 -14.337  1.00 24.78 LIG 0.19  C 
BRANCH 10 11
ATOM     11  C   SER B  15      39.454 -13.765 -13.863  1.00 26.56 LIG 0.22  C 
ATOM     12 O    SER B  15      39.152 -14.976 -13.924  1.00 28.00 LIG-0.29  OA
ENDBRANCH 10 11
BRANCH 10 13
ATOM     13  CB  SER B  15      38.906 -12.032 -15.566  1.00 23.87 LIG 0.20  C 
BRANCH 13 14
ATOM     14 OG   SER B  15      39.716 -10.932 -15.188  1.00 25.06 LIG-0.40  OA
ATOM     15 HG   SER B  15      39.235 -10.251 -15.086  1.00 25.06 LIG 0.21  HD
ENDBRANCH 13 14
ENDBRANCH 10 13
ENDBRANCH 7 10
ENDBRANCH 5 6
BRANCH 5 16
ATOM     16  CB  THR B  14      38.608 -10.472 -10.648  1.00 24.21 LIG 0.15  C 
ATOM     17  CG2 THR B  14      38.328  -8.980 -10.566  1.00 24.44 LIG 0.04  C 
BRANCH 16 18
ATOM     18 OG1  THR B  14      39.089 -10.938  -9.381  1.00 24.18 LIG-0.39  OA
ATOM     19 HG1  THR B  14      39.925 -10.859  -9.353  1.00 24.18 LIG 0.21  HD
ENDBRANCH 16 18
ENDBRANCH 5 16
ENDBRANCH 3 5
BRANCH 1 20
ATOM     20  CA  SER B  13      35.264 -13.488  -8.754  1.00 24.49 LIG 0.20  C 
BRANCH 20 21
ATOM     21  CB  SER B  13      33.802 -13.144  -8.453  1.00 26.86 LIG 0.20  C 
BRANCH 21 22
ATOM     22 OG   SER B  13      33.257 -12.321  -9.476  1.00 27.16 LIG-0.40  OA
ATOM     23 HG   SER B  13      32.583 -12.697  -9.808  1.00 27.16 LIG 0.21  HD
ENDBRANCH 21 22
ENDBRANCH 20 21
BRANCH 20 24
ATOM     24  N   SER B  13      36.112 -13.123  -7.624  1.00 26.25 LIG-0.34  N 
ATOM     25 H    SER B  13      35.774 -12.526  -7.106  1.00 26.25 LIG 0.16  HD
ATOM     26  C   ALA B  12      37.304 -13.682  -7.434  1.00 27.91 LIG 0.26  C 
ATOM     27 O    ALA B  12      37.776 -14.534  -8.188  1.00 29.06 LIG-0.27  OA
BRANCH 26 28
ATOM     28  CA  ALA B  12      38.086 -13.214  -6.213  1.00 28.19 LIG 0.40  C 
ATOM     29  N   ALA B  12      39.341 -14.010  -6.078  1.00 28.78 LIG 0.61  N 
ATOM     30  CB  ALA B  12      38.417 -11.729  -6.339  1.00 26.50 LIG 0.06  C 
ENDBRANCH 26 28
ENDBRANCH 20 24
ENDBRANCH 1 20
TORSDOF 13
ENDMDL
MODEL 6
USER: ADFR SOLUTION from run 111
USER: SCORE 7.855266 LL:  -1.446 LR:  -7.717 RR:   0.000 FEB:  -3.839
USER: RMSD 2.206327
USER: SEED 110
USER: STATUS no improvement in best in 2 clusters for 5 generations
USER: GENES 15
USER: genes 0 Translation |==|  0.47254 0.49479 0.58152
USER: genes 1 Rotation |==|  0.50046 0.44875 0.51615 0.99710
USER: genes 2 Torsion [C]-N--CA-[CB] |==|  0.48889
USER: genes 3 Torsion [N]-CA--C-[N] |==|  0.48032
USER: genes 4 Torsion [C]-N--CA-[C] |==|  0.87079
USER: genes 5 Torsion [N]-CA--C-[O] |==|  0.32293
USER: genes 6 Torsion [N]-CA--CB-[OG] |==|  0.08689
USER: genes 7 Torsion [CA]-CB--OG-[HG] |==|  0.70431
USER: genes 8 Torsion [N]-CA--CB-[CG2] |==|  0.65080
USER: genes 9 Torsion [CA]-CB--OG1-[HG1] |==|  0.41785
USER: genes 10 Torsion [N]-C--CA-[N] |==|  0.63688
USER: genes 11 Torsion [C]-CA--CB-[OG] |==|  0.54300
USER: genes 12 Torsion [CA]-CB--OG-[HG] |==|  0.68614
USER: genes 13 Torsion [C]-CA--N-[C] |==|  0.18686
USER: genes 14 Torsion [N]-C--CA-[N] |==|  0.60993
ROOT
ATOM      1  C   SER B  13      35.310 -12.471  -9.884  1.00 23.09 LIG 0.24  C 
ATOM      2 O    SER B  13      34.679 -12.393 -10.938  1.00 20.43 LIG-0.27  OA
ATOM      3  N   THR B  14      36.493 -11.893  -9.704  1.00 21.89 LIG-0.34  N 
ATOM      4 H    THR B  14      36.935 -11.915  -8.966  1.00 21.89 LIG 0.16  HD
ENDROOT
BRANCH 3 5
ATOM      5  CA  THR B  14      37.147 -11.157 -10.781  1.00 22.97 LIG 0.20  C 
BRANCH 5 6
ATOM      6  C   THR B  14      37.489 -12.194 -11.843  1.00 23.95 LIG 0.24  C 
ATOM      7  N   SER B  15      37.967 -11.744 -12.998  1.00 23.79 LIG-0.34  N 
ATOM      8 H    SER B  15      38.096 -10.914 -13.181  1.00 23.79 LIG 0.16  HD
ATOM      9 O    THR B  14      37.320 -13.394 -11.613  1.00 24.21 LIG-0.27  OA
BRANCH 7 10
ATOM     10  CA  SER B  15      38.318 -12.669 -14.071  1.00 24.78 LIG 0.19  C 
BRANCH 10 11
ATOM     11  C   SER B  15      39.138 -13.834 -13.537  1.00 26.56 LIG 0.22  C 
ATOM     12 O    SER B  15      38.614 -14.965 -13.631  1.00 28.00 LIG-0.29  OA
ENDBRANCH 10 11
BRANCH 10 13
ATOM     13  CB  SER B  15      39.110 -11.949 -15.165  1.00 23.87 LIG 0.20  C 
BRANCH 13 14
ATOM     14 OG   SER B  15      39.889 -10.898 -14.623  1.00 25.06 LIG-0.40  OA
ATOM     15 HG   SER B  15      39.542 -10.159 -14.823  1.00 25.06 LIG 0.21  HD
ENDBRANCH 13 14
ENDBRANCH 10 13
ENDBRANCH 7 10
ENDBRANCH 5 6
BRANCH 5 16
ATOM     16  CB  THR B  14      38.453 -10.497 -10.309  1.00 24.21 LIG 0.15  C 
ATOM     17  CG2 THR B  14      38.442  -9.007 -10.613  1.00 24.44 LIG 0.04  C 
BRANCH 16 18
ATOM     18 OG1  THR B  14      38.601 -10.696  -8.898  1.00 24.18 LIG-0.39  OA
ATOM     19 HG1  THR B  14      39.417 -10.721  -8.703  1.00 24.18 LIG 0.21  HD
ENDBRANCH 16 18
ENDBRANCH 5 16
ENDBRANCH 3 5
BRANCH 1 20
ATOM     20  CA  SER B  13      34.752 -13.248  -8.697  1.00 24.49 LIG 0.20  C 
BRANCH 20 21
ATOM     21  CB  SER B  13      35.848 -13.371  -7.635  1.00 26.86 LIG 0.20  C 
BRANCH 21 22
ATOM     22 OG   SER B  13      35.514 -14.370  -6.679  1.00 27.16 LIG-0.40  OA
ATOM     23 HG   SER B  13      35.375 -14.009  -5.934  1.00 27.16 LIG 0.21  HD
ENDBRANCH 21 22
ENDBRANCH 20 21
BRANCH 20 24
ATOM     24  N   SER B  13      34.315 -14.572  -9.127  1.00 26.25 LIG-0.34  N 
ATOM     25 H    SER B  13      33.464 -14.695  -9.087  1.00 26.25 LIG 0.16  HD
ATOM     26  C   ALA B  12      35.178 -15.494  -9.544  1.00 27.91 LIG 0.26  C 
ATOM     27 O    ALA B  12      36.394 -15.304  -9.593  1.00 29.06 LIG-0.27  OA
BRANCH 26 28
ATOM     28  CA  ALA B  12      34.589 -16.833  -9.968  1.00 28.19 LIG 0.40  C 
ATOM     29  N   ALA B  12      35.467 -17.946  -9.500  1.00 28.78 LIG 0.61  N 
ATOM     30  CB  ALA B  12      33.185 -16.996  -9.393  1.00 26.50 LIG 0.06  C 
ENDBRANCH 26 28
ENDBRANCH 20 24
ENDBRANCH 1 20
TORSDOF 13
ENDMDL
