MODEL 1
USER: ADFR SOLUTION from run 100
USER: SCORE 19.124442 LL:  -4.460 LR: -15.518 RR:   0.000 FEB:  -9.552
USER: RMSD 2.763091
USER: SEED 99
USER: STATUS no improvement in best in 3 clusters for 5 generations
USER: GENES 22
USER: genes 0 Translation |==|  0.53333 0.60053 0.51306
USER: genes 1 Rotation |==|  0.56180 0.57073 0.57072 0.98598
USER: genes 2 Torsion [N]-CA--C-[N] |==|  0.35646
USER: genes 3 Torsion [C]-N--CA-[C] |==|  0.56248
USER: genes 4 Torsion [N]-CA--C-[N] |==|  0.38562
USER: genes 5 Torsion [N]-CA--C-[O] |==|  0.99583
USER: genes 6 Torsion [C]-N--CA-[CB] |==|  0.28167
USER: genes 7 Torsion [N]-CA--CB-[SG] |==|  0.83420
USER: genes 8 Torsion [CA]-CB--SG-[HG] |==|  0.07590
USER: genes 9 Torsion [N]-CA--C-[OXT] |==|  0.78705
USER: genes 10 Torsion [N]-CA--CB-[CG1] |==|  0.12790
USER: genes 11 Torsion [C]-CA--CB-[CG2] |==|  0.24584
USER: genes 12 Torsion [CA]-CB--CG1-[CD1] |==|  0.83424
USER: genes 13 Torsion [C]-CA--N-[C] |==|  0.81325
USER: genes 14 Torsion [N]-C--CA-[N] |==|  0.16637
USER: genes 15 Torsion [C]-CA--N-[C] |==|  0.60602
USER: genes 16 Torsion [N]-C--CA-[N] |==|  0.02674
USER: genes 17 Torsion [C]-CA--CB-[CG] |==|  0.69570
USER: genes 18 Torsion [CA]-CB--CG-[OD2] |==|  0.65797
USER: genes 19 Torsion [C]-CA--N-[H1] |==|  0.44781
USER: genes 20 Torsion [C]-CA--CB-[CG] |==|  0.69124
USER: genes 21 Torsion [CA]-CB--CG-[OD1] |==|  0.80361
ROOT
ATOM      1  CA  ILE E   3     -26.349  29.945   5.335  1.00 36.34 LIG 0.18  C 
ENDROOT
BRANCH 1 2
ATOM      2  C   ILE E   3     -25.047  29.346   4.821  1.00 39.45 LIG 0.24  C 
ATOM      3  N   VAL E   4     -25.106  28.099   4.353  1.00 32.94 LIG-0.35  N 
ATOM      4 H    VAL E   4     -25.837  27.655   4.264  1.00 32.94 LIG 0.16  HD
ATOM      5 O    ILE E   3     -24.009  29.999   4.863  1.00 42.21 LIG-0.27  OA
BRANCH 3 6
ATOM      6  CA  VAL E   4     -23.909  27.373   3.944  1.00 33.21 LIG 0.18  C 
BRANCH 6 7
ATOM      7  C   VAL E   4     -24.283  26.255   2.968  1.00 35.41 LIG 0.24  C 
ATOM      8 O    VAL E   4     -25.303  25.581   3.156  1.00 29.15 LIG-0.27  OA
ATOM      9  N   PRO E   5     -23.472  26.067   1.913  1.00 36.11 LIG-0.34  N 
ATOM     10  CA  PRO E   5     -23.729  24.972   0.969  1.00 34.10 LIG 0.18  C 
ATOM     11  CD  PRO E   5     -22.329  26.910   1.507  1.00 37.00 LIG 0.13  C 
ATOM     12  CB  PRO E   5     -22.614  25.135  -0.084  1.00 38.74 LIG 0.04  C 
ATOM     13  CG  PRO E   5     -22.160  26.569   0.041  1.00 43.00 LIG 0.02  C 
BRANCH 10 14
ATOM     14  C   PRO E   5     -23.581  23.648   1.704  1.00 34.89 LIG 0.24  C 
ATOM     15  N   CYS E   6     -23.824  22.527   1.038  1.00 33.29 LIG-0.34  N 
ATOM     16 H    CYS E   6     -24.035  22.488   0.205  1.00 33.29 LIG 0.16  HD
ATOM     17 O    PRO E   5     -23.261  23.663   2.893  1.00 33.04 LIG-0.27  OA
BRANCH 15 18
ATOM     18  CA  CYS E   6     -23.743  21.229   1.720  1.00 33.63 LIG 0.19  C 
BRANCH 18 19
ATOM     19  CB  CYS E   6     -25.141  20.707   2.073  1.00 31.18 LIG 0.11  C 
BRANCH 19 20
ATOM     20 SG   CYS E   6     -26.072  21.847   3.183  1.00 33.89 LIG-0.18  SA
ATOM     21 HG   CYS E   6     -25.690  22.973   3.013  1.00 33.89 LIG 0.10  HD
ENDBRANCH 19 20
ENDBRANCH 18 19
BRANCH 18 22
ATOM     22  C   CYS E   6     -22.891  20.182   0.968  1.00 36.36 LIG 0.20  C 
ATOM     23 OXT  CYS E   6     -23.274  19.549  -0.043  1.00 31.64 LIG-0.65  OA
ATOM     24 O    CYS E   6     -21.774  19.921   1.416  1.00 36.48 LIG-0.65  OA
ENDBRANCH 18 22
ENDBRANCH 15 18
ENDBRANCH 10 14
ENDBRANCH 6 7
BRANCH 6 25
ATOM     25  CB  VAL E   4     -23.209  26.738   5.171  1.00 33.86 LIG 0.01  C 
ATOM     26  CG2 VAL E   4     -22.103  25.776   4.723  1.00 37.12 LIG 0.01  C 
ATOM     27  CG1 VAL E   4     -24.226  26.038   6.066  1.00 36.74 LIG 0.01  C 
ENDBRANCH 6 25
ENDBRANCH 3 6
ENDBRANCH 1 2
BRANCH 1 28
ATOM     28  CB  ILE E   3     -26.850  31.021   4.383  1.00 41.05 LIG 0.01  C 
ATOM     29  CG2 ILE E   3     -27.733  30.405   3.306  1.00 37.15 LIG 0.01  C 
BRANCH 28 30
ATOM     30  CG1 ILE E   3     -27.599  32.100   5.171  1.00 42.94 LIG 0.00  C 
ATOM     31  CD1 ILE E   3     -28.795  31.563   5.928  1.00 40.89 LIG 0.01  C 
ENDBRANCH 28 30
ENDBRANCH 1 28
BRANCH 1 32
ATOM     32  N   ILE E   3     -26.118  30.469   6.667  1.00 40.60 LIG-0.35  N 
ATOM     33 H    ILE E   3     -26.166  31.325   6.736  1.00 40.60 LIG 0.16  HD
ATOM     34  C   ASP E   2     -25.855  29.643   7.672  1.00 44.87 LIG 0.24  C 
ATOM     35 O    ASP E   2     -25.898  28.413   7.559  1.00 39.41 LIG-0.27  OA
BRANCH 34 36
ATOM     36  CA  ASP E   2     -25.476  30.289   8.995  1.00 43.58 LIG 0.19  C 
BRANCH 36 37
ATOM     37  N   ASP E   2     -26.539  31.149   9.489  1.00 45.35 LIG-0.34  N 
ATOM     38  C   ASP E   1     -26.275  32.300  10.094  1.00 51.19 LIG 0.25  C 
ATOM     39 O    ASP E   1     -25.132  32.713  10.270  1.00 56.05 LIG-0.27  OA
ATOM     40 H    ASP E   2     -27.333  30.848   9.354  1.00 45.35 LIG 0.16  HD
BRANCH 38 41
ATOM     41  CA  ASP E   1     -27.474  33.107  10.560  1.00 54.43 LIG 0.28  C 
BRANCH 41 42
ATOM     42  CB  ASP E   1     -27.261  33.557  12.006  1.00 57.23 LIG 0.15  C 
BRANCH 42 43
ATOM     43  CG  ASP E   1     -28.176  32.836  12.980  1.00 60.86 LIG 0.17  C 
ATOM     44 OD2  ASP E   1     -28.929  33.517  13.706  1.00 61.39 LIG-0.65  OA
ATOM     45 OD1  ASP E   1     -28.149  31.582  13.004  1.00 65.62 LIG-0.65  OA
ENDBRANCH 42 43
ENDBRANCH 41 42
BRANCH 41 46
ATOM     46  N   ASP E   1     -28.702  32.332  10.442  1.00 57.81 LIG-0.07  N 
ATOM     47 H1   ASP E   1     -29.333  32.695  10.954  1.00 57.81 LIG 0.28  HD
ATOM     48 H3   ASP E   1     -28.551  31.496  10.704  1.00 57.81 LIG 0.28  HD
ATOM     49 H2   ASP E   1     -28.972  32.332   9.594  1.00 57.81 LIG 0.28  HD
ENDBRANCH 41 46
ENDBRANCH 38 41
ENDBRANCH 36 37
BRANCH 36 50
ATOM     50  CB  ASP E   2     -25.197  29.185  10.000  1.00 41.52 LIG 0.15  C 
BRANCH 50 51
ATOM     51  CG  ASP E   2     -26.237  29.118  11.085  1.00 49.49 LIG 0.17  C 
ATOM     52 OD1  ASP E   2     -26.267  30.034  11.932  1.00 51.56 LIG-0.65  OA
ATOM     53 OD2  ASP E   2     -27.024  28.151  11.080  1.00 52.06 LIG-0.65  OA
ENDBRANCH 50 51
ENDBRANCH 36 50
ENDBRANCH 34 36
ENDBRANCH 1 32
TORSDOF 20
ENDMDL
MODEL 2
USER: ADFR SOLUTION from run 69
USER: SCORE 18.944181 LL:  -4.148 LR: -15.514 RR:   0.000 FEB:  -9.548
USER: RMSD 3.125153
USER: SEED 68
USER: STATUS no improvement in best in 3 clusters for 5 generations
USER: GENES 22
USER: genes 0 Translation |==|  0.57202 0.56164 0.52004
USER: genes 1 Rotation |==|  0.53535 0.53783 0.46984 0.99640
USER: genes 2 Torsion [N]-CA--C-[N] |==|  0.41492
USER: genes 3 Torsion [C]-N--CA-[C] |==|  0.59847
USER: genes 4 Torsion [N]-CA--C-[N] |==|  0.28781
USER: genes 5 Torsion [N]-CA--C-[O] |==|  0.24699
USER: genes 6 Torsion [C]-N--CA-[CB] |==|  0.44093
USER: genes 7 Torsion [N]-CA--CB-[SG] |==|  0.62018
USER: genes 8 Torsion [CA]-CB--SG-[HG] |==|  0.66975
USER: genes 9 Torsion [N]-CA--C-[OXT] |==|  0.67277
USER: genes 10 Torsion [N]-CA--CB-[CG1] |==|  0.41022
USER: genes 11 Torsion [C]-CA--CB-[CG2] |==|  0.99531
USER: genes 12 Torsion [CA]-CB--CG1-[CD1] |==|  0.67250
USER: genes 13 Torsion [C]-CA--N-[C] |==|  0.59421
USER: genes 14 Torsion [N]-C--CA-[N] |==|  0.46458
USER: genes 15 Torsion [C]-CA--N-[C] |==|  0.63950
USER: genes 16 Torsion [N]-C--CA-[N] |==|  0.01471
USER: genes 17 Torsion [C]-CA--CB-[CG] |==|  0.68681
USER: genes 18 Torsion [CA]-CB--CG-[OD2] |==|  0.66229
USER: genes 19 Torsion [C]-CA--N-[H1] |==|  0.44920
USER: genes 20 Torsion [C]-CA--CB-[CG] |==|  0.66859
USER: genes 21 Torsion [CA]-CB--CG-[OD1] |==|  0.82975
ROOT
ATOM      1  CA  ILE E   3     -25.566  28.982   5.471  1.00 36.34 LIG 0.18  C 
ENDROOT
BRANCH 1 2
ATOM      2  C   ILE E   3     -24.576  27.856   5.203  1.00 39.45 LIG 0.24  C 
ATOM      3  N   VAL E   4     -25.026  26.824   4.487  1.00 32.94 LIG-0.35  N 
ATOM      4 H    VAL E   4     -25.803  26.798   4.121  1.00 32.94 LIG 0.16  HD
ATOM      5 O    ILE E   3     -23.436  27.918   5.649  1.00 42.21 LIG-0.27  OA
BRANCH 3 6
ATOM      6  CA  VAL E   4     -24.216  25.632   4.264  1.00 33.21 LIG 0.18  C 
BRANCH 6 7
ATOM      7  C   VAL E   4     -24.480  25.075   2.863  1.00 35.41 LIG 0.24  C 
ATOM      8 O    VAL E   4     -25.524  24.458   2.626  1.00 29.15 LIG-0.27  OA
ATOM      9  N   PRO E   5     -23.544  25.307   1.927  1.00 36.11 LIG-0.34  N 
ATOM     10  CA  PRO E   5     -23.695  24.749   0.576  1.00 34.10 LIG 0.18  C 
ATOM     11  CD  PRO E   5     -22.347  26.163   2.055  1.00 37.00 LIG 0.13  C 
ATOM     12  CB  PRO E   5     -22.454  25.275  -0.172  1.00 38.74 LIG 0.04  C 
ATOM     13  CG  PRO E   5     -21.999  26.479   0.616  1.00 43.00 LIG 0.02  C 
BRANCH 10 14
ATOM     14  C   PRO E   5     -23.660  23.231   0.669  1.00 34.89 LIG 0.24  C 
ATOM     15  N   CYS E   6     -22.493  22.618   0.526  1.00 33.29 LIG-0.34  N 
ATOM     16 H    CYS E   6     -21.740  23.018   0.411  1.00 33.29 LIG 0.16  HD
ATOM     17 O    PRO E   5     -24.716  22.623   0.852  1.00 33.04 LIG-0.27  OA
BRANCH 15 18
ATOM     18  CA  CYS E   6     -22.419  21.152   0.557  1.00 33.63 LIG 0.19  C 
BRANCH 18 19
ATOM     19  CB  CYS E   6     -21.141  20.653  -0.129  1.00 31.18 LIG 0.11  C 
BRANCH 19 20
ATOM     20 SG   CYS E   6     -21.437  19.201  -1.225  1.00 33.89 LIG-0.18  SA
ATOM     21 HG   CYS E   6     -20.799  18.263  -0.830  1.00 33.89 LIG 0.10  HD
ENDBRANCH 19 20
ENDBRANCH 18 19
BRANCH 18 22
ATOM     22  C   CYS E   6     -22.610  20.547   1.966  1.00 36.36 LIG 0.20  C 
ATOM     23 OXT  CYS E   6     -21.745  19.876   2.574  1.00 31.64 LIG-0.65  OA
ATOM     24 O    CYS E   6     -23.702  20.701   2.514  1.00 36.48 LIG-0.65  OA
ENDBRANCH 18 22
ENDBRANCH 15 18
ENDBRANCH 10 14
ENDBRANCH 6 7
BRANCH 6 25
ATOM     25  CB  VAL E   4     -24.561  24.534   5.301  1.00 33.86 LIG 0.01  C 
ATOM     26  CG2 VAL E   4     -23.704  24.693   6.561  1.00 37.12 LIG 0.01  C 
ATOM     27  CG1 VAL E   4     -24.398  23.148   4.687  1.00 36.74 LIG 0.01  C 
ENDBRANCH 6 25
ENDBRANCH 3 6
ENDBRANCH 1 2
BRANCH 1 28
ATOM     28  CB  ILE E   3     -25.533  29.998   4.339  1.00 41.05 LIG 0.01  C 
ATOM     29  CG2 ILE E   3     -24.490  29.600   3.302  1.00 37.15 LIG 0.01  C 
BRANCH 28 30
ATOM     30  CG1 ILE E   3     -26.925  30.122   3.713  1.00 42.94 LIG 0.00  C 
ATOM     31  CD1 ILE E   3     -26.961  29.717   2.255  1.00 40.89 LIG 0.01  C 
ENDBRANCH 28 30
ENDBRANCH 1 28
BRANCH 1 32
ATOM     32  N   ILE E   3     -25.236  29.587   6.747  1.00 40.60 LIG-0.35  N 
ATOM     33 H    ILE E   3     -24.397  29.605   6.936  1.00 40.60 LIG 0.16  HD
ATOM     34  C   ASP E   2     -26.197  30.063   7.528  1.00 44.87 LIG 0.24  C 
ATOM     35 O    ASP E   2     -27.382  30.116   7.178  1.00 39.41 LIG-0.27  OA
BRANCH 34 36
ATOM     36  CA  ASP E   2     -25.774  30.538   8.908  1.00 43.58 LIG 0.19  C 
BRANCH 36 37
ATOM     37  N   ASP E   2     -26.830  31.302   9.554  1.00 45.35 LIG-0.34  N 
ATOM     38  C   ASP E   1     -26.595  32.490  10.093  1.00 51.19 LIG 0.25  C 
ATOM     39 O    ASP E   1     -25.489  33.022  10.079  1.00 56.05 LIG-0.27  OA
ATOM     40 H    ASP E   2     -27.600  30.918   9.551  1.00 45.35 LIG 0.16  HD
BRANCH 38 41
ATOM     41  CA  ASP E   1     -27.784  33.186  10.734  1.00 54.43 LIG 0.28  C 
BRANCH 41 42
ATOM     42  CB  ASP E   1     -27.428  33.604  12.161  1.00 57.23 LIG 0.15  C 
BRANCH 42 43
ATOM     43  CG  ASP E   1     -28.218  32.835  13.206  1.00 60.86 LIG 0.17  C 
ATOM     44 OD2  ASP E   1     -28.928  33.477  14.008  1.00 61.39 LIG-0.65  OA
ATOM     45 OD1  ASP E   1     -28.138  31.583  13.209  1.00 65.62 LIG-0.65  OA
ENDBRANCH 42 43
ENDBRANCH 41 42
BRANCH 41 46
ATOM     46  N   ASP E   1     -28.957  32.322  10.731  1.00 57.81 LIG-0.07  N 
ATOM     47 H1   ASP E   1     -29.548  32.622  11.326  1.00 57.81 LIG 0.28  HD
ATOM     48 H3   ASP E   1     -28.715  31.493  10.945  1.00 57.81 LIG 0.28  HD
ATOM     49 H2   ASP E   1     -29.324  32.324   9.921  1.00 57.81 LIG 0.28  HD
ENDBRANCH 41 46
ENDBRANCH 38 41
ENDBRANCH 36 37
BRANCH 36 50
ATOM     50  CB  ASP E   2     -25.432  29.319   9.747  1.00 41.52 LIG 0.15  C 
BRANCH 50 51
ATOM     51  CG  ASP E   2     -26.304  29.197  10.966  1.00 49.49 LIG 0.17  C 
ATOM     52 OD1  ASP E   2     -26.269  30.115  11.812  1.00 51.56 LIG-0.65  OA
ATOM     53 OD2  ASP E   2     -27.024  28.185  11.070  1.00 52.06 LIG-0.65  OA
ENDBRANCH 50 51
ENDBRANCH 36 50
ENDBRANCH 34 36
ENDBRANCH 1 32
TORSDOF 20
ENDMDL
MODEL 3
USER: ADFR SOLUTION from run 146
USER: SCORE 18.261049 LL:  -4.620 LR: -14.371 RR:   0.000 FEB:  -8.405
USER: RMSD 2.618564
USER: SEED 145
USER: STATUS no improvement in best in 5 clusters for 5 generations
USER: GENES 22
USER: genes 0 Translation |==|  0.52167 0.61142 0.45002
USER: genes 1 Rotation |==|  0.46147 0.61769 0.58500 0.97691
USER: genes 2 Torsion [N]-CA--C-[N] |==|  0.35104
USER: genes 3 Torsion [C]-N--CA-[C] |==|  0.63513
USER: genes 4 Torsion [N]-CA--C-[N] |==|  0.39445
USER: genes 5 Torsion [N]-CA--C-[O] |==|  0.95409
USER: genes 6 Torsion [C]-N--CA-[CB] |==|  0.30253
USER: genes 7 Torsion [N]-CA--CB-[SG] |==|  0.79170
USER: genes 8 Torsion [CA]-CB--SG-[HG] |==|  0.60251
USER: genes 9 Torsion [N]-CA--C-[OXT] |==|  0.78453
USER: genes 10 Torsion [N]-CA--CB-[CG1] |==|  0.73224
USER: genes 11 Torsion [C]-CA--CB-[CG2] |==|  0.81350
USER: genes 12 Torsion [CA]-CB--CG1-[CD1] |==|  0.70029
USER: genes 13 Torsion [C]-CA--N-[C] |==|  0.63513
USER: genes 14 Torsion [N]-C--CA-[N] |==|  0.52138
USER: genes 15 Torsion [C]-CA--N-[C] |==|  0.58192
USER: genes 16 Torsion [N]-C--CA-[N] |==|  0.82593
USER: genes 17 Torsion [C]-CA--CB-[CG] |==|  0.42558
USER: genes 18 Torsion [CA]-CB--CG-[OD2] |==|  0.51161
USER: genes 19 Torsion [C]-CA--N-[H1] |==|  0.33561
USER: genes 20 Torsion [C]-CA--CB-[CG] |==|  0.86719
USER: genes 21 Torsion [CA]-CB--CG-[OD1] |==|  0.84759
ROOT
ATOM      1  CA  ILE E   3     -26.585  30.215   4.105  1.00 36.34 LIG 0.18  C 
ENDROOT
BRANCH 1 2
ATOM      2  C   ILE E   3     -25.256  29.610   3.674  1.00 39.45 LIG 0.24  C 
ATOM      3  N   VAL E   4     -25.142  28.285   3.775  1.00 32.94 LIG-0.35  N 
ATOM      4 H    VAL E   4     -25.788  27.764   3.999  1.00 32.94 LIG 0.16  HD
ATOM      5 O    ILE E   3     -24.351  30.333   3.273  1.00 42.21 LIG-0.27  OA
BRANCH 3 6
ATOM      6  CA  VAL E   4     -23.883  27.599   3.507  1.00 33.21 LIG 0.18  C 
BRANCH 6 7
ATOM      7  C   VAL E   4     -24.122  26.416   2.565  1.00 35.41 LIG 0.24  C 
ATOM      8 O    VAL E   4     -25.151  25.739   2.667  1.00 29.15 LIG-0.27  OA
ATOM      9  N   PRO E   5     -23.182  26.176   1.636  1.00 36.11 LIG-0.34  N 
ATOM     10  CA  PRO E   5     -23.309  25.020   0.738  1.00 34.10 LIG 0.18  C 
ATOM     11  CD  PRO E   5     -22.003  27.010   1.322  1.00 37.00 LIG 0.13  C 
ATOM     12  CB  PRO E   5     -22.071  25.134  -0.174  1.00 38.74 LIG 0.04  C 
ATOM     13  CG  PRO E   5     -21.648  26.580  -0.086  1.00 43.00 LIG 0.02  C 
BRANCH 10 14
ATOM     14  C   PRO E   5     -23.244  23.747   1.569  1.00 34.89 LIG 0.24  C 
ATOM     15  N   CYS E   6     -23.685  22.619   1.030  1.00 33.29 LIG-0.34  N 
ATOM     16 H    CYS E   6     -23.983  22.544   0.226  1.00 33.29 LIG 0.16  HD
ATOM     17 O    PRO E   5     -22.804  23.811   2.719  1.00 33.04 LIG-0.27  OA
BRANCH 15 18
ATOM     18  CA  CYS E   6     -23.688  21.376   1.812  1.00 33.63 LIG 0.19  C 
BRANCH 18 19
ATOM     19  CB  CYS E   6     -25.119  20.964   2.180  1.00 31.18 LIG 0.11  C 
BRANCH 19 20
ATOM     20 SG   CYS E   6     -25.838  21.996   3.527  1.00 33.89 LIG-0.18  SA
ATOM     21 HG   CYS E   6     -26.517  21.310   4.240  1.00 33.89 LIG 0.10  HD
ENDBRANCH 19 20
ENDBRANCH 18 19
BRANCH 18 22
ATOM     22  C   CYS E   6     -22.889  20.226   1.159  1.00 36.36 LIG 0.20  C 
ATOM     23 OXT  CYS E   6     -23.301  19.528   0.205  1.00 31.64 LIG-0.65  OA
ATOM     24 O    CYS E   6     -21.787  19.950   1.636  1.00 36.48 LIG-0.65  OA
ENDBRANCH 18 22
ENDBRANCH 15 18
ENDBRANCH 10 14
ENDBRANCH 6 7
BRANCH 6 25
ATOM     25  CB  VAL E   4     -23.262  27.061   4.821  1.00 33.86 LIG 0.01  C 
ATOM     26  CG2 VAL E   4     -24.356  26.777   5.857  1.00 37.12 LIG 0.01  C 
ATOM     27  CG1 VAL E   4     -22.224  28.038   5.362  1.00 36.74 LIG 0.01  C 
ENDBRANCH 6 25
ENDBRANCH 3 6
ENDBRANCH 1 2
BRANCH 1 28
ATOM     28  CB  ILE E   3     -27.340  30.753   2.899  1.00 41.05 LIG 0.01  C 
ATOM     29  CG2 ILE E   3     -26.604  31.948   2.306  1.00 37.15 LIG 0.01  C 
BRANCH 28 30
ATOM     30  CG1 ILE E   3     -27.524  29.640   1.864  1.00 42.94 LIG 0.00  C 
ATOM     31  CD1 ILE E   3     -26.655  29.817   0.637  1.00 40.89 LIG 0.01  C 
ENDBRANCH 28 30
ENDBRANCH 1 28
BRANCH 1 32
ATOM     32  N   ILE E   3     -26.320  31.253   5.083  1.00 40.60 LIG-0.35  N 
ATOM     33 H    ILE E   3     -25.709  31.815   4.860  1.00 40.60 LIG 0.16  HD
ATOM     34  C   ASP E   2     -27.000  31.286   6.221  1.00 44.87 LIG 0.24  C 
ATOM     35 O    ASP E   2     -27.945  30.525   6.462  1.00 39.41 LIG-0.27  OA
BRANCH 34 36
ATOM     36  CA  ASP E   2     -26.551  32.314   7.247  1.00 43.58 LIG 0.19  C 
BRANCH 36 37
ATOM     37  N   ASP E   2     -27.245  32.139   8.513  1.00 45.35 LIG-0.34  N 
ATOM     38  C   ASP E   1     -27.479  33.163   9.323  1.00 51.19 LIG 0.25  C 
ATOM     39 O    ASP E   1     -27.137  34.312   9.060  1.00 56.05 LIG-0.27  OA
ATOM     40 H    ASP E   2     -27.482  31.329   8.681  1.00 45.35 LIG 0.16  HD
BRANCH 38 41
ATOM     41  CA  ASP E   1     -28.216  32.847  10.613  1.00 54.43 LIG 0.28  C 
BRANCH 41 42
ATOM     42  CB  ASP E   1     -27.409  31.838  11.432  1.00 57.23 LIG 0.15  C 
BRANCH 42 43
ATOM     43  CG  ASP E   1     -27.682  31.948  12.922  1.00 60.86 LIG 0.17  C 
ATOM     44 OD2  ASP E   1     -27.024  31.230  13.703  1.00 61.39 LIG-0.65  OA
ATOM     45 OD1  ASP E   1     -28.548  32.769  13.309  1.00 65.62 LIG-0.65  OA
ENDBRANCH 42 43
ENDBRANCH 41 42
BRANCH 41 46
ATOM     46  N   ASP E   1     -29.550  32.332  10.339  1.00 57.81 LIG-0.07  N 
ATOM     47 H1   ASP E   1     -29.633  31.518  10.690  1.00 57.81 LIG 0.28  HD
ATOM     48 H3   ASP E   1     -29.677  32.289   9.459  1.00 57.81 LIG 0.28  HD
ATOM     49 H2   ASP E   1     -30.157  32.874  10.699  1.00 57.81 LIG 0.28  HD
ENDBRANCH 41 46
ENDBRANCH 38 41
ENDBRANCH 36 37
BRANCH 36 50
ATOM     50  CB  ASP E   2     -25.054  32.158   7.453  1.00 41.52 LIG 0.15  C 
BRANCH 50 51
ATOM     51  CG  ASP E   2     -24.649  30.725   7.665  1.00 49.49 LIG 0.17  C 
ATOM     52 OD1  ASP E   2     -25.206  30.083   8.579  1.00 51.56 LIG-0.65  OA
ATOM     53 OD2  ASP E   2     -23.779  30.247   6.912  1.00 52.06 LIG-0.65  OA
ENDBRANCH 50 51
ENDBRANCH 36 50
ENDBRANCH 34 36
ENDBRANCH 1 32
TORSDOF 20
ENDMDL
MODEL 4
USER: ADFR SOLUTION from run 20
USER: SCORE 17.934676 LL:  -4.798 LR: -14.153 RR:   0.000 FEB:  -8.187
USER: RMSD 3.037659
USER: SEED 19
USER: STATUS 1 or 2 clusters left
USER: GENES 22
USER: genes 0 Translation |==|  0.51905 0.60604 0.42077
USER: genes 1 Rotation |==|  0.40374 0.57602 0.55791 0.98125
USER: genes 2 Torsion [N]-CA--C-[N] |==|  0.42010
USER: genes 3 Torsion [C]-N--CA-[C] |==|  0.60886
USER: genes 4 Torsion [N]-CA--C-[N] |==|  0.36726
USER: genes 5 Torsion [N]-CA--C-[O] |==|  0.91608
USER: genes 6 Torsion [C]-N--CA-[CB] |==|  0.31403
USER: genes 7 Torsion [N]-CA--CB-[SG] |==|  0.81587
USER: genes 8 Torsion [CA]-CB--SG-[HG] |==|  0.89941
USER: genes 9 Torsion [N]-CA--C-[OXT] |==|  0.24945
USER: genes 10 Torsion [N]-CA--CB-[CG1] |==|  0.00147
USER: genes 11 Torsion [C]-CA--CB-[CG2] |==|  0.28172
USER: genes 12 Torsion [CA]-CB--CG1-[CD1] |==|  0.75232
USER: genes 13 Torsion [C]-CA--N-[C] |==|  0.67869
USER: genes 14 Torsion [N]-C--CA-[N] |==|  0.61362
USER: genes 15 Torsion [C]-CA--N-[C] |==|  0.15082
USER: genes 16 Torsion [N]-C--CA-[N] |==|  0.06855
USER: genes 17 Torsion [C]-CA--CB-[CG] |==|  0.53764
USER: genes 18 Torsion [CA]-CB--CG-[OD2] |==|  0.48144
USER: genes 19 Torsion [C]-CA--N-[H1] |==|  0.35047
USER: genes 20 Torsion [C]-CA--CB-[CG] |==|  0.51124
USER: genes 21 Torsion [CA]-CB--CG-[OD1] |==|  0.73630
ROOT
ATOM      1  CA  ILE E   3     -26.638  30.082   3.535  1.00 36.34 LIG 0.18  C 
ENDROOT
BRANCH 1 2
ATOM      2  C   ILE E   3     -25.289  29.376   3.532  1.00 39.45 LIG 0.24  C 
ATOM      3  N   VAL E   4     -25.309  28.048   3.421  1.00 32.94 LIG-0.35  N 
ATOM      4 H    VAL E   4     -26.024  27.589   3.284  1.00 32.94 LIG 0.16  HD
ATOM      5 O    ILE E   3     -24.254  30.025   3.644  1.00 42.21 LIG-0.27  OA
BRANCH 3 6
ATOM      6  CA  VAL E   4     -24.094  27.248   3.525  1.00 33.21 LIG 0.18  C 
BRANCH 6 7
ATOM      7  C   VAL E   4     -24.130  26.107   2.507  1.00 35.41 LIG 0.24  C 
ATOM      8 O    VAL E   4     -25.146  25.411   2.387  1.00 29.15 LIG-0.27  OA
ATOM      9  N   PRO E   5     -23.030  25.921   1.757  1.00 36.11 LIG-0.34  N 
ATOM     10  CA  PRO E   5     -22.965  24.806   0.804  1.00 34.10 LIG 0.18  C 
ATOM     11  CD  PRO E   5     -21.833  26.784   1.702  1.00 37.00 LIG 0.13  C 
ATOM     12  CB  PRO E   5     -21.583  24.978   0.141  1.00 38.74 LIG 0.04  C 
ATOM     13  CG  PRO E   5     -21.215  26.424   0.367  1.00 43.00 LIG 0.02  C 
BRANCH 10 14
ATOM     14  C   PRO E   5     -23.027  23.497   1.578  1.00 34.89 LIG 0.24  C 
ATOM     15  N   CYS E   6     -23.596  22.449   0.999  1.00 33.29 LIG-0.34  N 
ATOM     16 H    CYS E   6     -23.913  22.443   0.199  1.00 33.29 LIG 0.16  HD
ATOM     17 O    PRO E   5     -22.566  23.461   2.720  1.00 33.04 LIG-0.27  OA
BRANCH 15 18
ATOM     18  CA  CYS E   6     -23.723  21.180   1.726  1.00 33.63 LIG 0.19  C 
BRANCH 18 19
ATOM     19  CB  CYS E   6     -25.195  20.858   2.015  1.00 31.18 LIG 0.11  C 
BRANCH 19 20
ATOM     20 SG   CYS E   6     -25.972  22.050   3.187  1.00 33.89 LIG-0.18  SA
ATOM     21 HG   CYS E   6     -25.168  22.381   4.014  1.00 33.89 LIG 0.10  HD
ENDBRANCH 19 20
ENDBRANCH 18 19
BRANCH 18 22
ATOM     22  C   CYS E   6     -22.978  20.001   1.061  1.00 36.36 LIG 0.20  C 
ATOM     23 OXT  CYS E   6     -21.788  19.690   1.298  1.00 31.64 LIG-0.65  OA
ATOM     24 O    CYS E   6     -23.581  19.347   0.210  1.00 36.48 LIG-0.65  OA
ENDBRANCH 18 22
ENDBRANCH 15 18
ENDBRANCH 10 14
ENDBRANCH 6 7
BRANCH 6 25
ATOM     25  CB  VAL E   4     -23.962  26.636   4.943  1.00 33.86 LIG 0.01  C 
ATOM     26  CG2 VAL E   4     -23.818  25.112   4.860  1.00 37.12 LIG 0.01  C 
ATOM     27  CG1 VAL E   4     -25.148  27.037   5.812  1.00 36.74 LIG 0.01  C 
ENDBRANCH 6 25
ENDBRANCH 3 6
ENDBRANCH 1 2
BRANCH 1 28
ATOM     28  CB  ILE E   3     -27.096  30.357   2.111  1.00 41.05 LIG 0.01  C 
ATOM     29  CG2 ILE E   3     -28.140  29.332   1.684  1.00 37.15 LIG 0.01  C 
BRANCH 28 30
ATOM     30  CG1 ILE E   3     -27.640  31.785   2.008  1.00 42.94 LIG 0.00  C 
ATOM     31  CD1 ILE E   3     -29.121  31.881   2.308  1.00 40.89 LIG 0.01  C 
ENDBRANCH 28 30
ENDBRANCH 1 28
BRANCH 1 32
ATOM     32  N   ILE E   3     -26.515  31.303   4.307  1.00 40.60 LIG-0.35  N 
ATOM     33 H    ILE E   3     -25.978  31.889   3.978  1.00 40.60 LIG 0.16  HD
ATOM     34  C   ASP E   2     -27.203  31.454   5.431  1.00 44.87 LIG 0.24  C 
ATOM     35 O    ASP E   2     -28.046  30.636   5.818  1.00 39.41 LIG-0.27  OA
BRANCH 34 36
ATOM     36  CA  ASP E   2     -26.896  32.698   6.250  1.00 43.58 LIG 0.19  C 
BRANCH 36 37
ATOM     37  N   ASP E   2     -26.859  32.401   7.672  1.00 45.35 LIG-0.34  N 
ATOM     38  C   ASP E   1     -26.080  31.445   8.161  1.00 51.19 LIG 0.25  C 
ATOM     39 O    ASP E   1     -25.343  30.760   7.456  1.00 56.05 LIG-0.27  OA
ATOM     40 H    ASP E   2     -27.376  32.892   8.153  1.00 45.35 LIG 0.16  HD
BRANCH 38 41
ATOM     41  CA  ASP E   1     -26.131  31.237   9.665  1.00 54.43 LIG 0.28  C 
BRANCH 41 42
ATOM     42  CB  ASP E   1     -25.914  29.758   9.987  1.00 57.23 LIG 0.15  C 
BRANCH 42 43
ATOM     43  CG  ASP E   1     -26.274  29.418  11.423  1.00 60.86 LIG 0.17  C 
ATOM     44 OD2  ASP E   1     -26.261  28.219  11.773  1.00 61.39 LIG-0.65  OA
ATOM     45 OD1  ASP E   1     -26.554  30.358  12.205  1.00 65.62 LIG-0.65  OA
ENDBRANCH 42 43
ENDBRANCH 41 42
BRANCH 41 46
ATOM     46  N   ASP E   1     -27.399  31.699  10.212  1.00 57.81 LIG-0.07  N 
ATOM     47 H1   ASP E   1     -27.776  31.045  10.683  1.00 57.81 LIG 0.28  HD
ATOM     48 H3   ASP E   1     -27.941  31.935   9.547  1.00 57.81 LIG 0.28  HD
ATOM     49 H2   ASP E   1     -27.256  32.401  10.740  1.00 57.81 LIG 0.28  HD
ENDBRANCH 41 46
ENDBRANCH 38 41
ENDBRANCH 36 37
BRANCH 36 50
ATOM     50  CB  ASP E   2     -25.551  33.243   5.801  1.00 41.52 LIG 0.15  C 
BRANCH 50 51
ATOM     51  CG  ASP E   2     -25.107  34.424   6.619  1.00 49.49 LIG 0.17  C 
ATOM     52 OD1  ASP E   2     -25.360  35.569   6.191  1.00 51.56 LIG-0.65  OA
ATOM     53 OD2  ASP E   2     -24.511  34.200   7.691  1.00 52.06 LIG-0.65  OA
ENDBRANCH 50 51
ENDBRANCH 36 50
ENDBRANCH 34 36
ENDBRANCH 1 32
TORSDOF 20
ENDMDL
MODEL 5
USER: ADFR SOLUTION from run 91
USER: SCORE 18.438372 LL:  -5.036 LR: -13.772 RR:   0.000 FEB:  -7.806
USER: RMSD 1.213663
USER: SEED 90
USER: STATUS no improvement in best in 2 clusters for 5 generations
USER: GENES 22
USER: genes 0 Translation |==|  0.53461 0.60976 0.42275
USER: genes 1 Rotation |==|  0.47121 0.51821 0.53738 0.99744
USER: genes 2 Torsion [N]-CA--C-[N] |==|  0.36685
USER: genes 3 Torsion [C]-N--CA-[C] |==|  0.61667
USER: genes 4 Torsion [N]-CA--C-[N] |==|  0.35148
USER: genes 5 Torsion [N]-CA--C-[O] |==|  0.93072
USER: genes 6 Torsion [C]-N--CA-[CB] |==|  0.31321
USER: genes 7 Torsion [N]-CA--CB-[SG] |==|  0.80974
USER: genes 8 Torsion [CA]-CB--SG-[HG] |==|  0.10013
USER: genes 9 Torsion [N]-CA--C-[OXT] |==|  0.74870
USER: genes 10 Torsion [N]-CA--CB-[CG1] |==|  0.97409
USER: genes 11 Torsion [C]-CA--CB-[CG2] |==|  0.03834
USER: genes 12 Torsion [CA]-CB--CG1-[CD1] |==|  0.85656
USER: genes 13 Torsion [C]-CA--N-[C] |==|  0.72216
USER: genes 14 Torsion [N]-C--CA-[N] |==|  0.40976
USER: genes 15 Torsion [C]-CA--N-[C] |==|  0.79886
USER: genes 16 Torsion [N]-C--CA-[N] |==|  0.08730
USER: genes 17 Torsion [C]-CA--CB-[CG] |==|  0.53895
USER: genes 18 Torsion [CA]-CB--CG-[OD2] |==|  0.64082
USER: genes 19 Torsion [C]-CA--N-[H1] |==|  0.59911
USER: genes 20 Torsion [C]-CA--CB-[CG] |==|  0.72134
USER: genes 21 Torsion [CA]-CB--CG-[OD1] |==|  0.29678
ROOT
ATOM      1  CA  ILE E   3     -26.323  30.174   3.574  1.00 36.34 LIG 0.18  C 
ENDROOT
BRANCH 1 2
ATOM      2  C   ILE E   3     -25.045  29.348   3.638  1.00 39.45 LIG 0.24  C 
ATOM      3  N   VAL E   4     -25.181  28.027   3.524  1.00 32.94 LIG-0.35  N 
ATOM      4 H    VAL E   4     -25.926  27.635   3.351  1.00 32.94 LIG 0.16  HD
ATOM      5 O    ILE E   3     -23.962  29.900   3.802  1.00 42.21 LIG-0.27  OA
BRANCH 3 6
ATOM      6  CA  VAL E   4     -24.050  27.120   3.688  1.00 33.21 LIG 0.18  C 
BRANCH 6 7
ATOM      7  C   VAL E   4     -24.101  26.022   2.623  1.00 35.41 LIG 0.24  C 
ATOM      8 O    VAL E   4     -25.129  25.352   2.469  1.00 29.15 LIG-0.27  OA
ATOM      9  N   PRO E   5     -23.000  25.847   1.873  1.00 36.11 LIG-0.34  N 
ATOM     10  CA  PRO E   5     -22.949  24.771   0.875  1.00 34.10 LIG 0.18  C 
ATOM     11  CD  PRO E   5     -21.786  26.688   1.861  1.00 37.00 LIG 0.13  C 
ATOM     12  CB  PRO E   5     -21.560  24.943   0.228  1.00 38.74 LIG 0.04  C 
ATOM     13  CG  PRO E   5     -21.166  26.372   0.516  1.00 43.00 LIG 0.02  C 
BRANCH 10 14
ATOM     14  C   PRO E   5     -23.041  23.433   1.594  1.00 34.89 LIG 0.24  C 
ATOM     15  N   CYS E   6     -23.530  22.393   0.931  1.00 33.29 LIG-0.34  N 
ATOM     16 H    CYS E   6     -23.776  22.410   0.107  1.00 33.29 LIG 0.16  HD
ATOM     17 O    PRO E   5     -22.679  23.365   2.770  1.00 33.04 LIG-0.27  OA
BRANCH 15 18
ATOM     18  CA  CYS E   6     -23.684  21.095   1.600  1.00 33.63 LIG 0.19  C 
BRANCH 18 19
ATOM     19  CB  CYS E   6     -25.165  20.730   1.754  1.00 31.18 LIG 0.11  C 
BRANCH 19 20
ATOM     20 SG   CYS E   6     -26.050  21.819   2.950  1.00 33.89 LIG-0.18  SA
ATOM     21 HG   CYS E   6     -25.623  22.938   2.865  1.00 33.89 LIG 0.10  HD
ENDBRANCH 19 20
ENDBRANCH 18 19
BRANCH 18 22
ATOM     22  C   CYS E   6     -22.857  19.959   0.956  1.00 36.36 LIG 0.20  C 
ATOM     23 OXT  CYS E   6     -23.274  19.207   0.046  1.00 31.64 LIG-0.65  OA
ATOM     24 O    CYS E   6     -21.725  19.753   1.394  1.00 36.48 LIG-0.65  OA
ENDBRANCH 18 22
ENDBRANCH 15 18
ENDBRANCH 10 14
ENDBRANCH 6 7
BRANCH 6 25
ATOM     25  CB  VAL E   4     -24.085  26.450   5.085  1.00 33.86 LIG 0.01  C 
ATOM     26  CG2 VAL E   4     -24.310  24.939   4.952  1.00 37.12 LIG 0.01  C 
ATOM     27  CG1 VAL E   4     -25.150  27.097   5.964  1.00 36.74 LIG 0.01  C 
ENDBRANCH 6 25
ENDBRANCH 3 6
ENDBRANCH 1 2
BRANCH 1 28
ATOM     28  CB  ILE E   3     -26.434  30.876   2.229  1.00 41.05 LIG 0.01  C 
ATOM     29  CG2 ILE E   3     -25.435  30.288   1.241  1.00 37.15 LIG 0.01  C 
BRANCH 28 30
ATOM     30  CG1 ILE E   3     -27.869  30.768   1.705  1.00 42.94 LIG 0.00  C 
ATOM     31  CD1 ILE E   3     -28.395  29.348   1.698  1.00 40.89 LIG 0.01  C 
ENDBRANCH 28 30
ENDBRANCH 1 28
BRANCH 1 32
ATOM     32  N   ILE E   3     -26.315  31.117   4.675  1.00 40.60 LIG-0.35  N 
ATOM     33 H    ILE E   3     -25.838  31.821   4.549  1.00 40.60 LIG 0.16  HD
ATOM     34  C   ASP E   2     -27.011  30.863   5.776  1.00 44.87 LIG 0.24  C 
ATOM     35 O    ASP E   2     -27.770  29.892   5.882  1.00 39.41 LIG-0.27  OA
BRANCH 34 36
ATOM     36  CA  ASP E   2     -26.822  31.829   6.934  1.00 43.58 LIG 0.19  C 
BRANCH 36 37
ATOM     37  N   ASP E   2     -28.042  31.970   7.712  1.00 45.35 LIG-0.34  N 
ATOM     38  C   ASP E   1     -29.090  32.634   7.244  1.00 51.19 LIG 0.25  C 
ATOM     39 O    ASP E   1     -29.105  33.161   6.136  1.00 56.05 LIG-0.27  OA
ATOM     40 H    ASP E   2     -28.017  31.591   8.484  1.00 45.35 LIG 0.16  HD
BRANCH 38 41
ATOM     41  CA  ASP E   1     -30.304  32.705   8.155  1.00 54.43 LIG 0.28  C 
BRANCH 41 42
ATOM     42  CB  ASP E   1     -31.120  33.956   7.828  1.00 57.23 LIG 0.15  C 
BRANCH 42 43
ATOM     43  CG  ASP E   1     -32.145  34.279   8.901  1.00 60.86 LIG 0.17  C 
ATOM     44 OD2  ASP E   1     -33.328  34.480   8.555  1.00 61.39 LIG-0.65  OA
ATOM     45 OD1  ASP E   1     -31.764  34.313  10.096  1.00 65.62 LIG-0.65  OA
ENDBRANCH 42 43
ENDBRANCH 41 42
BRANCH 41 46
ATOM     46  N   ASP E   1     -29.905  32.707   9.556  1.00 57.81 LIG-0.07  N 
ATOM     47 H1   ASP E   1     -30.501  32.252  10.035  1.00 57.81 LIG 0.28  HD
ATOM     48 H3   ASP E   1     -29.864  33.545   9.852  1.00 57.81 LIG 0.28  HD
ATOM     49 H2   ASP E   1     -29.106  32.325   9.637  1.00 57.81 LIG 0.28  HD
ENDBRANCH 41 46
ENDBRANCH 38 41
ENDBRANCH 36 37
BRANCH 36 50
ATOM     50  CB  ASP E   2     -25.704  31.302   7.816  1.00 41.52 LIG 0.15  C 
BRANCH 50 51
ATOM     51  CG  ASP E   2     -26.222  30.595   9.038  1.00 49.49 LIG 0.17  C 
ATOM     52 OD1  ASP E   2     -26.136  29.350   9.082  1.00 51.56 LIG-0.65  OA
ATOM     53 OD2  ASP E   2     -26.707  31.289   9.953  1.00 52.06 LIG-0.65  OA
ENDBRANCH 50 51
ENDBRANCH 36 50
ENDBRANCH 34 36
ENDBRANCH 1 32
TORSDOF 20
ENDMDL
MODEL 6
USER: ADFR SOLUTION from run 74
USER: SCORE 18.026345 LL:  -5.045 LR: -13.531 RR:   0.000 FEB:  -7.565
USER: RMSD 3.009648
USER: SEED 73
USER: STATUS no improvement in best in 3 clusters for 5 generations
USER: GENES 22
USER: genes 0 Translation |==|  0.56680 0.59710 0.40252
USER: genes 1 Rotation |==|  0.42375 0.53183 0.46626 0.99197
USER: genes 2 Torsion [N]-CA--C-[N] |==|  0.37968
USER: genes 3 Torsion [C]-N--CA-[C] |==|  0.66980
USER: genes 4 Torsion [N]-CA--C-[N] |==|  0.23868
USER: genes 5 Torsion [N]-CA--C-[O] |==|  0.98227
USER: genes 6 Torsion [C]-N--CA-[CB] |==|  0.19404
USER: genes 7 Torsion [N]-CA--CB-[SG] |==|  0.08793
USER: genes 8 Torsion [CA]-CB--SG-[HG] |==|  0.04792
USER: genes 9 Torsion [N]-CA--C-[OXT] |==|  0.66646
USER: genes 10 Torsion [N]-CA--CB-[CG1] |==|  0.49860
USER: genes 11 Torsion [C]-CA--CB-[CG2] |==|  0.98332
USER: genes 12 Torsion [CA]-CB--CG1-[CD1] |==|  0.07743
USER: genes 13 Torsion [C]-CA--N-[C] |==|  0.83884
USER: genes 14 Torsion [N]-C--CA-[N] |==|  0.47603
USER: genes 15 Torsion [C]-CA--N-[C] |==|  0.77408
USER: genes 16 Torsion [N]-C--CA-[N] |==|  0.49845
USER: genes 17 Torsion [C]-CA--CB-[CG] |==|  0.54458
USER: genes 18 Torsion [CA]-CB--CG-[OD2] |==|  0.95796
USER: genes 19 Torsion [C]-CA--N-[H1] |==|  0.70937
USER: genes 20 Torsion [C]-CA--CB-[CG] |==|  0.79315
USER: genes 21 Torsion [CA]-CB--CG-[OD1] |==|  0.80519
ROOT
ATOM      1  CA  ILE E   3     -25.671  29.860   3.179  1.00 36.34 LIG 0.18  C 
ENDROOT
BRANCH 1 2
ATOM      2  C   ILE E   3     -24.663  28.744   3.416  1.00 39.45 LIG 0.24  C 
ATOM      3  N   VAL E   4     -25.149  27.504   3.481  1.00 32.94 LIG-0.35  N 
ATOM      4 H    VAL E   4     -25.971  27.303   3.329  1.00 32.94 LIG 0.16  HD
ATOM      5 O    ILE E   3     -23.473  29.007   3.553  1.00 42.21 LIG-0.27  OA
BRANCH 3 6
ATOM      6  CA  VAL E   4     -24.305  26.364   3.822  1.00 33.21 LIG 0.18  C 
BRANCH 6 7
ATOM      7  C   VAL E   4     -24.284  25.364   2.663  1.00 35.41 LIG 0.24  C 
ATOM      8 O    VAL E   4     -25.083  24.422   2.639  1.00 29.15 LIG-0.27  OA
ATOM      9  N   PRO E   5     -23.382  25.576   1.689  1.00 36.11 LIG-0.34  N 
ATOM     10  CA  PRO E   5     -23.256  24.624   0.578  1.00 34.10 LIG 0.18  C 
ATOM     11  CD  PRO E   5     -22.495  26.748   1.535  1.00 37.00 LIG 0.13  C 
ATOM     12  CB  PRO E   5     -22.162  25.250  -0.311  1.00 38.74 LIG 0.04  C 
ATOM     13  CG  PRO E   5     -22.138  26.712   0.063  1.00 43.00 LIG 0.02  C 
BRANCH 10 14
ATOM     14  C   PRO E   5     -22.794  23.285   1.131  1.00 34.89 LIG 0.24  C 
ATOM     15  N   CYS E   6     -22.762  22.242   0.313  1.00 33.29 LIG-0.34  N 
ATOM     16 H    CYS E   6     -22.958  22.270  -0.524  1.00 33.29 LIG 0.16  HD
ATOM     17 O    PRO E   5     -22.485  23.210   2.322  1.00 33.04 LIG-0.27  OA
BRANCH 15 18
ATOM     18  CA  CYS E   6     -22.370  20.919   0.815  1.00 33.63 LIG 0.19  C 
BRANCH 18 19
ATOM     19  CB  CYS E   6     -23.446  20.346   1.746  1.00 31.18 LIG 0.11  C 
BRANCH 19 20
ATOM     20 SG   CYS E   6     -25.149  20.883   1.289  1.00 33.89 LIG-0.18  SA
ATOM     21 HG   CYS E   6     -25.149  21.303   0.165  1.00 33.89 LIG 0.10  HD
ENDBRANCH 19 20
ENDBRANCH 18 19
BRANCH 18 22
ATOM     22  C   CYS E   6     -21.957  19.927  -0.295  1.00 36.36 LIG 0.20  C 
ATOM     23 OXT  CYS E   6     -22.524  18.832  -0.515  1.00 31.64 LIG-0.65  OA
ATOM     24 O    CYS E   6     -20.978  20.212  -0.985  1.00 36.48 LIG-0.65  OA
ENDBRANCH 18 22
ENDBRANCH 15 18
ENDBRANCH 10 14
ENDBRANCH 6 7
BRANCH 6 25
ATOM     25  CB  VAL E   4     -24.845  25.641   5.082  1.00 33.86 LIG 0.01  C 
ATOM     26  CG2 VAL E   4     -24.950  26.617   6.259  1.00 37.12 LIG 0.01  C 
ATOM     27  CG1 VAL E   4     -23.968  24.443   5.428  1.00 36.74 LIG 0.01  C 
ENDBRANCH 6 25
ENDBRANCH 3 6
ENDBRANCH 1 2
BRANCH 1 28
ATOM     28  CB  ILE E   3     -25.658  30.285   1.719  1.00 41.05 LIG 0.01  C 
ATOM     29  CG2 ILE E   3     -24.540  29.571   0.971  1.00 37.15 LIG 0.01  C 
BRANCH 28 30
ATOM     30  CG1 ILE E   3     -27.024  30.004   1.085  1.00 42.94 LIG 0.00  C 
ATOM     31  CD1 ILE E   3     -28.163  30.042   2.082  1.00 40.89 LIG 0.01  C 
ENDBRANCH 28 30
ENDBRANCH 1 28
BRANCH 1 32
ATOM     32  N   ILE E   3     -25.350  30.963   4.064  1.00 40.60 LIG-0.35  N 
ATOM     33 H    ILE E   3     -25.193  31.712   3.671  1.00 40.60 LIG 0.16  HD
ATOM     34  C   ASP E   2     -25.314  30.776   5.377  1.00 44.87 LIG 0.24  C 
ATOM     35 O    ASP E   2     -25.648  29.713   5.914  1.00 39.41 LIG-0.27  OA
BRANCH 34 36
ATOM     36  CA  ASP E   2     -24.820  31.946   6.213  1.00 43.58 LIG 0.19  C 
BRANCH 36 37
ATOM     37  N   ASP E   2     -25.013  31.701   7.634  1.00 45.35 LIG-0.34  N 
ATOM     38  C   ASP E   1     -26.187  31.901   8.218  1.00 51.19 LIG 0.25  C 
ATOM     39 O    ASP E   1     -27.177  32.294   7.609  1.00 56.05 LIG-0.27  OA
ATOM     40 H    ASP E   2     -24.312  31.422   8.046  1.00 45.35 LIG 0.16  HD
BRANCH 38 41
ATOM     41  CA  ASP E   1     -26.257  31.606   9.707  1.00 54.43 LIG 0.28  C 
BRANCH 41 42
ATOM     42  CB  ASP E   1     -25.867  30.149   9.961  1.00 57.23 LIG 0.15  C 
BRANCH 42 43
ATOM     43  CG  ASP E   1     -26.279  29.669  11.342  1.00 60.86 LIG 0.17  C 
ATOM     44 OD2  ASP E   1     -26.600  30.521  12.197  1.00 61.39 LIG-0.65  OA
ATOM     45 OD1  ASP E   1     -26.295  28.435  11.562  1.00 65.62 LIG-0.65  OA
ENDBRANCH 42 43
ENDBRANCH 41 42
BRANCH 41 46
ATOM     46  N   ASP E   1     -27.590  31.876  10.230  1.00 57.81 LIG-0.07  N 
ATOM     47 H1   ASP E   1     -27.579  32.637  10.692  1.00 57.81 LIG 0.28  HD
ATOM     48 H3   ASP E   1     -27.840  31.210  10.763  1.00 57.81 LIG 0.28  HD
ATOM     49 H2   ASP E   1     -28.164  31.948   9.555  1.00 57.81 LIG 0.28  HD
ENDBRANCH 41 46
ENDBRANCH 38 41
ENDBRANCH 36 37
BRANCH 36 50
ATOM     50  CB  ASP E   2     -23.344  32.151   5.921  1.00 41.52 LIG 0.15  C 
BRANCH 50 51
ATOM     51  CG  ASP E   2     -22.480  31.101   6.564  1.00 49.49 LIG 0.17  C 
ATOM     52 OD1  ASP E   2     -22.358  31.116   7.806  1.00 51.56 LIG-0.65  OA
ATOM     53 OD2  ASP E   2     -21.930  30.264   5.822  1.00 52.06 LIG-0.65  OA
ENDBRANCH 50 51
ENDBRANCH 36 50
ENDBRANCH 34 36
ENDBRANCH 1 32
TORSDOF 20
ENDMDL
