MODEL 1
USER: ADFR SOLUTION from run 23
USER: SCORE 14.955911 LL:  -3.438 LR: -13.007 RR:   0.000 FEB:  -7.936
USER: RMSD 3.418553
USER: SEED 22
USER: STATUS no improvement in best in 2 clusters for 5 generations
USER: GENES 19
USER: genes 0 Translation |==|  0.51765 0.55829 0.45532
USER: genes 1 Rotation |==|  0.49054 0.48784 0.51534 0.99953
USER: genes 2 Torsion [C]-CA--CB-[OG] |==|  0.43093
USER: genes 3 Torsion [CA]-CB--OG-[HG] |==|  0.21383
USER: genes 4 Torsion [N]-CA--C-[N] |==|  0.47039
USER: genes 5 Torsion [C]-N--CA-[C] |==|  0.62070
USER: genes 6 Torsion [N]-CA--C-[N] |==|  0.39813
USER: genes 7 Torsion [C]-N--CA-[C] |==|  0.65553
USER: genes 8 Torsion [N]-CA--CB-[CG2] |==|  0.85905
USER: genes 9 Torsion [CA]-CB--CG1-[CD1] |==|  0.56879
USER: genes 10 Torsion [N]-CA--C-[O] |==|  0.93860
USER: genes 11 Torsion [N]-CA--CB-[CG2] |==|  0.44465
USER: genes 12 Torsion [CA]-CB--CG1-[CD1] |==|  0.54744
USER: genes 13 Torsion [CB]-CA--N-[C] |==|  0.23830
USER: genes 14 Torsion [N]-C--CA-[N] |==|  0.94233
USER: genes 15 Torsion [C]-CA--N-[C] |==|  0.66201
USER: genes 16 Torsion [N]-C--CA-[N] |==|  0.53617
USER: genes 17 Torsion [C]-CA--CB-[OG1] |==|  0.68087
USER: genes 18 Torsion [CA]-CB--OG1-[HG1] |==|  0.13509
ROOT
ATOM      1  CA  SER D   8      14.696  25.975  44.974  1.00  5.81 LIG 0.20  C 
ENDROOT
BRANCH 1 2
ATOM      2  CB  SER D   8      13.971  26.747  43.870  1.00  5.44 LIG 0.20  C 
BRANCH 2 3
ATOM      3 OG   SER D   8      14.392  28.095  43.857  1.00  4.91 LIG-0.40  OA
ATOM      4 HG   SER D   8      15.148  28.149  43.495  1.00  4.91 LIG 0.21  HD
ENDBRANCH 2 3
ENDBRANCH 1 2
BRANCH 1 5
ATOM      5  C   SER D   8      13.859  24.789  45.388  1.00  6.04 LIG 0.24  C 
ATOM      6  N   ILE D   9      12.739  25.072  46.034  1.00  5.23 LIG-0.35  N 
ATOM      7 H    ILE D   9      12.526  25.859  46.306  1.00  5.23 LIG 0.16  HD
ATOM      8 O    SER D   8      14.226  23.643  45.139  1.00  7.88 LIG-0.27  OA
BRANCH 6 9
ATOM      9  CA  ILE D   9      11.761  24.045  46.340  1.00  5.91 LIG 0.18  C 
BRANCH 9 10
ATOM     10  C   ILE D   9      10.373  24.593  46.042  1.00  8.30 LIG 0.24  C 
ATOM     11  N   ILE D  10       9.506  23.724  45.536  1.00  7.14 LIG-0.34  N 
ATOM     12 H    ILE D  10       9.684  22.894  45.397  1.00  7.14 LIG 0.16  HD
ATOM     13 O    ILE D   9      10.104  25.783  46.238  1.00  8.28 LIG-0.27  OA
BRANCH 11 14
ATOM     14  CA  ILE D  10       8.150  24.119  45.166  1.00  6.72 LIG 0.19  C 
BRANCH 14 15
ATOM     15  CB  ILE D  10       7.923  24.003  43.652  1.00  6.99 LIG 0.01  C 
ATOM     16  CG2 ILE D  10       9.036  24.719  42.898  1.00  9.23 LIG 0.01  C 
BRANCH 15 17
ATOM     17  CG1 ILE D  10       7.886  22.534  43.227  1.00  6.78 LIG 0.00  C 
ATOM     18  CD1 ILE D  10       8.259  22.309  41.770  1.00  7.71 LIG 0.01  C 
ENDBRANCH 15 17
ENDBRANCH 14 15
BRANCH 14 19
ATOM     19  C   ILE D  10       7.148  23.249  45.894  1.00  8.00 LIG 0.20  C 
ATOM     20 O    ILE D  10       7.498  22.144  46.320  1.00  7.10 LIG-0.65  OA
ATOM     21 OXT  ILE D  10       5.999  23.644  46.073  1.00 10.02 LIG-0.65  OA
ENDBRANCH 14 19
ENDBRANCH 11 14
ENDBRANCH 9 10
BRANCH 9 22
ATOM     22  CB  ILE D   9      11.886  23.575  47.803  1.00  4.97 LIG 0.01  C 
ATOM     23  CG2 ILE D   9      10.593  22.890  48.261  1.00  9.61 LIG 0.01  C 
BRANCH 22 24
ATOM     24  CG1 ILE D   9      13.087  22.643  47.926  1.00  5.60 LIG 0.00  C 
ATOM     25  CD1 ILE D   9      13.096  21.789  49.191  1.00  8.38 LIG 0.01  C 
ENDBRANCH 22 24
ENDBRANCH 9 22
ENDBRANCH 6 9
ENDBRANCH 1 5
BRANCH 1 26
ATOM     26  N   SER D   8      15.989  25.500  44.513  1.00  6.06 LIG-0.34  N 
ATOM     27 H    SER D   8      15.984  24.698  44.205  1.00  6.06 LIG 0.16  HD
ATOM     28  C   THR D   7      17.072  26.265  44.574  1.00 11.81 LIG 0.24  C 
ATOM     29 O    THR D   7      17.041  27.462  44.890  1.00 11.44 LIG-0.27  OA
BRANCH 28 30
ATOM     30  CA  THR D   7      18.383  25.593  44.220  1.00  8.59 LIG 0.20  C 
BRANCH 30 31
ATOM     31  N   THR D   7      18.252  24.148  44.356  1.00 15.26 LIG-0.34  N 
ATOM     32 H    THR D   7      17.635  23.799  43.870  1.00 15.26 LIG 0.16  HD
ATOM     33  C   PRO D   6      19.035  23.454  45.172  1.00 19.06 LIG 0.25  C 
ATOM     34 O    PRO D   6      19.890  23.972  45.882  1.00 17.22 LIG-0.27  OA
BRANCH 33 35
ATOM     35  CA  PRO D   6      18.825  21.941  45.192  1.00 33.07 LIG 0.35  C 
ATOM     36  N   PRO D   6      19.501  21.289  46.320  1.00 36.75 LIG 0.32  N 
ATOM     37  CD  PRO D   6      18.580  20.446  47.097  1.00 36.34 LIG 0.32  C 
ATOM     38  CG  PRO D   6      17.259  21.081  46.825  1.00 37.69 LIG 0.04  C 
ATOM     39  CB  PRO D   6      17.344  21.608  45.424  1.00 35.30 LIG 0.05  C 
ENDBRANCH 33 35
ENDBRANCH 30 31
BRANCH 30 40
ATOM     40  CB  THR D   7      18.752  25.982  42.777  1.00 10.85 LIG 0.15  C 
ATOM     41  CG2 THR D   7      20.138  26.594  42.729  1.00 12.17 LIG 0.04  C 
BRANCH 40 42
ATOM     42 OG1  THR D   7      18.725  24.814  41.950  1.00 14.88 LIG-0.39  OA
ATOM     43 HG1  THR D   7      18.009  24.394  42.082  1.00 14.88 LIG 0.21  HD
ENDBRANCH 40 42
ENDBRANCH 30 40
ENDBRANCH 28 30
ENDBRANCH 1 26
TORSDOF 17
ENDMDL
MODEL 2
USER: ADFR SOLUTION from run 74
USER: SCORE 14.185126 LL:  -2.908 LR: -12.556 RR:   0.000 FEB:  -7.485
USER: RMSD 1.464063
USER: SEED 73
USER: STATUS 1 or 2 clusters left
USER: GENES 19
USER: genes 0 Translation |==|  0.51832 0.55816 0.46283
USER: genes 1 Rotation |==|  0.54319 0.54187 0.49416 0.99633
USER: genes 2 Torsion [C]-CA--CB-[OG] |==|  0.48226
USER: genes 3 Torsion [CA]-CB--OG-[HG] |==|  0.24521
USER: genes 4 Torsion [N]-CA--C-[N] |==|  0.51089
USER: genes 5 Torsion [C]-N--CA-[C] |==|  0.62764
USER: genes 6 Torsion [N]-CA--C-[N] |==|  0.40656
USER: genes 7 Torsion [C]-N--CA-[C] |==|  0.64715
USER: genes 8 Torsion [N]-CA--CB-[CG2] |==|  0.85569
USER: genes 9 Torsion [CA]-CB--CG1-[CD1] |==|  0.54712
USER: genes 10 Torsion [N]-CA--C-[O] |==|  0.94301
USER: genes 11 Torsion [N]-CA--CB-[CG2] |==|  0.47697
USER: genes 12 Torsion [CA]-CB--CG1-[CD1] |==|  0.52635
USER: genes 13 Torsion [CB]-CA--N-[C] |==|  0.23889
USER: genes 14 Torsion [N]-C--CA-[N] |==|  0.41706
USER: genes 15 Torsion [C]-CA--N-[C] |==|  0.61261
USER: genes 16 Torsion [N]-C--CA-[N] |==|  0.68188
USER: genes 17 Torsion [C]-CA--CB-[OG1] |==|  0.26532
USER: genes 18 Torsion [CA]-CB--OG1-[HG1] |==|  0.96571
ROOT
ATOM      1  CA  SER D   8      14.712  25.973  45.104  1.00  5.81 LIG 0.20  C 
ENDROOT
BRANCH 1 2
ATOM      2  CB  SER D   8      13.858  27.004  44.364  1.00  5.44 LIG 0.20  C 
BRANCH 2 3
ATOM      3 OG   SER D   8      14.594  28.190  44.151  1.00  4.91 LIG-0.40  OA
ATOM      4 HG   SER D   8      15.016  28.132  43.428  1.00  4.91 LIG 0.21  HD
ENDBRANCH 2 3
ENDBRANCH 1 2
BRANCH 1 5
ATOM      5  C   SER D   8      13.861  24.779  45.458  1.00  6.04 LIG 0.24  C 
ATOM      6  N   ILE D   9      12.760  25.039  46.144  1.00  5.23 LIG-0.35  N 
ATOM      7 H    ILE D   9      12.568  25.811  46.471  1.00  5.23 LIG 0.16  HD
ATOM      8 O    SER D   8      14.201  23.644  45.129  1.00  7.88 LIG-0.27  OA
BRANCH 6 9
ATOM      9  CA  ILE D   9      11.768  24.013  46.404  1.00  5.91 LIG 0.18  C 
BRANCH 9 10
ATOM     10  C   ILE D   9      10.389  24.585  46.111  1.00  8.30 LIG 0.24  C 
ATOM     11  N   ILE D  10       9.499  23.728  45.625  1.00  7.14 LIG-0.34  N 
ATOM     12 H    ILE D  10       9.659  22.893  45.496  1.00  7.14 LIG 0.16  HD
ATOM     13 O    ILE D   9      10.146  25.784  46.294  1.00  8.28 LIG-0.27  OA
BRANCH 11 14
ATOM     14  CA  ILE D  10       8.149  24.146  45.262  1.00  6.72 LIG 0.19  C 
BRANCH 14 15
ATOM     15  CB  ILE D  10       7.929  24.085  43.743  1.00  6.99 LIG 0.01  C 
ATOM     16  CG2 ILE D  10       9.036  24.844  43.022  1.00  9.23 LIG 0.01  C 
BRANCH 15 17
ATOM     17  CG1 ILE D  10       7.914  22.633  43.262  1.00  6.78 LIG 0.00  C 
ATOM     18  CD1 ILE D  10       8.111  22.484  41.762  1.00  7.71 LIG 0.01  C 
ENDBRANCH 15 17
ENDBRANCH 14 15
BRANCH 14 19
ATOM     19  C   ILE D  10       7.137  23.258  45.953  1.00  8.00 LIG 0.20  C 
ATOM     20 O    ILE D  10       7.484  22.148  46.368  1.00  7.10 LIG-0.65  OA
ATOM     21 OXT  ILE D  10       5.982  23.644  46.113  1.00 10.02 LIG-0.65  OA
ENDBRANCH 14 19
ENDBRANCH 11 14
ENDBRANCH 9 10
BRANCH 9 22
ATOM     22  CB  ILE D   9      11.873  23.491  47.851  1.00  4.97 LIG 0.01  C 
ATOM     23  CG2 ILE D   9      10.697  22.562  48.175  1.00  9.61 LIG 0.01  C 
BRANCH 22 24
ATOM     24  CG1 ILE D   9      13.211  22.782  48.030  1.00  5.60 LIG 0.00  C 
ATOM     25  CD1 ILE D   9      13.352  22.021  49.345  1.00  8.38 LIG 0.01  C 
ENDBRANCH 22 24
ENDBRANCH 9 22
ENDBRANCH 6 9
ENDBRANCH 1 5
BRANCH 1 26
ATOM     26  N   SER D   8      15.824  25.531  44.279  1.00  6.06 LIG-0.34  N 
ATOM     27 H    SER D   8      15.669  24.816  43.828  1.00  6.06 LIG 0.16  HD
ATOM     28  C   THR D   7      16.971  26.198  44.244  1.00 11.81 LIG 0.24  C 
ATOM     29 O    THR D   7      17.134  27.298  44.787  1.00 11.44 LIG-0.27  OA
BRANCH 28 30
ATOM     30  CA  THR D   7      18.100  25.538  43.477  1.00  8.59 LIG 0.20  C 
BRANCH 30 31
ATOM     31  N   THR D   7      18.979  26.556  42.916  1.00 15.26 LIG-0.34  N 
ATOM     32 H    THR D   7      19.134  27.220  43.439  1.00 15.26 LIG 0.16  HD
ATOM     33  C   PRO D   6      19.484  26.440  41.694  1.00 19.06 LIG 0.25  C 
ATOM     34 O    PRO D   6      19.227  25.500  40.950  1.00 17.22 LIG-0.27  OA
BRANCH 33 35
ATOM     35  CA  PRO D   6      20.425  27.554  41.239  1.00 33.07 LIG 0.35  C 
ATOM     36  N   PRO D   6      19.881  28.333  40.120  1.00 36.75 LIG 0.32  N 
ATOM     37  CD  PRO D   6      19.888  29.776  40.404  1.00 36.34 LIG 0.32  C 
ATOM     38  CG  PRO D   6      19.838  29.809  41.894  1.00 37.69 LIG 0.04  C 
ATOM     39  CB  PRO D   6      20.597  28.599  42.351  1.00 35.30 LIG 0.05  C 
ENDBRANCH 33 35
ENDBRANCH 30 31
BRANCH 30 40
ATOM     40  CB  THR D   7      18.866  24.616  44.442  1.00 10.85 LIG 0.15  C 
ATOM     41  CG2 THR D   7      18.690  25.081  45.875  1.00 12.17 LIG 0.04  C 
BRANCH 40 42
ATOM     42 OG1  THR D   7      18.367  23.281  44.317  1.00 14.88 LIG-0.39  OA
ATOM     43 HG1  THR D   7      17.652  23.289  43.876  1.00 14.88 LIG 0.21  HD
ENDBRANCH 40 42
ENDBRANCH 30 40
ENDBRANCH 28 30
ENDBRANCH 1 26
TORSDOF 17
ENDMDL
MODEL 3
USER: ADFR SOLUTION from run 8
USER: SCORE 13.876902 LL:  -3.312 LR: -11.842 RR:   0.000 FEB:  -6.771
USER: RMSD 1.527546
USER: SEED 961077
USER: STATUS no improvement in best in 3 clusters for 5 generations
USER: GENES 19
USER: genes 0 Translation |==|  0.50692 0.48529 0.49454
USER: genes 1 Rotation |==|  0.56358 0.49201 0.41807 0.98906
USER: genes 2 Torsion [C]-CA--CB-[OG] |==|  0.56436
USER: genes 3 Torsion [CA]-CB--OG-[HG] |==|  0.37067
USER: genes 4 Torsion [N]-CA--C-[N] |==|  0.32910
USER: genes 5 Torsion [C]-N--CA-[C] |==|  0.81981
USER: genes 6 Torsion [N]-CA--C-[N] |==|  0.42069
USER: genes 7 Torsion [C]-N--CA-[C] |==|  0.60901
USER: genes 8 Torsion [N]-CA--CB-[CG2] |==|  0.77914
USER: genes 9 Torsion [CA]-CB--CG1-[CD1] |==|  0.44974
USER: genes 10 Torsion [N]-CA--C-[O] |==|  0.99515
USER: genes 11 Torsion [N]-CA--CB-[CG2] |==|  0.26732
USER: genes 12 Torsion [CA]-CB--CG1-[CD1] |==|  0.71872
USER: genes 13 Torsion [CB]-CA--N-[C] |==|  0.28190
USER: genes 14 Torsion [N]-C--CA-[N] |==|  0.36111
USER: genes 15 Torsion [C]-CA--N-[C] |==|  0.84995
USER: genes 16 Torsion [N]-C--CA-[N] |==|  0.19790
USER: genes 17 Torsion [C]-CA--CB-[OG1] |==|  0.42468
USER: genes 18 Torsion [CA]-CB--OG1-[HG1] |==|  0.53228
ROOT
ATOM      1  CA  SER D   8      14.430  24.934  45.651  1.00  5.81 LIG 0.20  C 
ENDROOT
BRANCH 1 2
ATOM      2  CB  SER D   8      14.090  26.207  44.872  1.00  5.44 LIG 0.20  C 
BRANCH 2 3
ATOM      3 OG   SER D   8      15.256  26.757  44.296  1.00  4.91 LIG-0.40  OA
ATOM      4 HG   SER D   8      15.105  26.957  43.495  1.00  4.91 LIG 0.21  HD
ENDBRANCH 2 3
ENDBRANCH 1 2
BRANCH 1 5
ATOM      5  C   SER D   8      13.197  24.073  45.766  1.00  6.04 LIG 0.24  C 
ATOM      6  N   ILE D   9      12.791  23.810  46.998  1.00  5.23 LIG-0.35  N 
ATOM      7 H    ILE D   9      13.236  24.013  47.705  1.00  5.23 LIG 0.16  HD
ATOM      8 O    SER D   8      12.633  23.644  44.762  1.00  7.88 LIG-0.27  OA
BRANCH 6 9
ATOM      9  CA  ILE D   9      11.530  23.139  47.254  1.00  5.91 LIG 0.18  C 
BRANCH 9 10
ATOM     10  C   ILE D   9      10.398  24.040  46.785  1.00  8.30 LIG 0.24  C 
ATOM     11  N   ILE D  10       9.291  23.420  46.393  1.00  7.14 LIG-0.34  N 
ATOM     12 H    ILE D  10       9.186  22.566  46.415  1.00  7.14 LIG 0.16  HD
ATOM     13 O    ILE D   9      10.535  25.269  46.750  1.00  8.28 LIG-0.27  OA
BRANCH 11 14
ATOM     14  CA  ILE D  10       8.138  24.155  45.882  1.00  6.72 LIG 0.19  C 
BRANCH 14 15
ATOM     15  CB  ILE D  10       8.117  24.173  44.346  1.00  6.99 LIG 0.01  C 
ATOM     16  CG2 ILE D  10       9.084  25.227  43.821  1.00  9.23 LIG 0.01  C 
BRANCH 15 17
ATOM     17  CG1 ILE D  10       8.508  22.803  43.789  1.00  6.78 LIG 0.00  C 
ATOM     18  CD1 ILE D  10       8.102  22.595  42.338  1.00  7.71 LIG 0.01  C 
ENDBRANCH 15 17
ENDBRANCH 14 15
BRANCH 14 19
ATOM     19  C   ILE D  10       6.862  23.524  46.395  1.00  8.00 LIG 0.20  C 
ATOM     20 O    ILE D  10       6.925  22.516  47.106  1.00  7.10 LIG-0.65  OA
ATOM     21 OXT  ILE D  10       5.772  24.019  46.120  1.00 10.02 LIG-0.65  OA
ENDBRANCH 14 19
ENDBRANCH 11 14
ENDBRANCH 9 10
BRANCH 9 22
ATOM     22  CB  ILE D   9      11.386  22.773  48.745  1.00  4.97 LIG 0.01  C 
ATOM     23  CG2 ILE D   9      10.577  23.844  49.486  1.00  9.61 LIG 0.01  C 
BRANCH 22 24
ATOM     24  CG1 ILE D   9      10.736  21.399  48.860  1.00  5.60 LIG 0.00  C 
ATOM     25  CD1 ILE D   9       9.249  21.431  49.203  1.00  8.38 LIG 0.01  C 
ENDBRANCH 22 24
ENDBRANCH 9 22
ENDBRANCH 6 9
ENDBRANCH 1 5
BRANCH 1 26
ATOM     26  N   SER D   8      15.472  24.177  44.978  1.00  6.06 LIG-0.34  N 
ATOM     27 H    SER D   8      15.199  23.716  44.307  1.00  6.06 LIG 0.16  HD
ATOM     28  C   THR D   7      16.734  24.214  45.389  1.00 11.81 LIG 0.24  C 
ATOM     29 O    THR D   7      17.139  24.987  46.268  1.00 11.44 LIG-0.27  OA
BRANCH 28 30
ATOM     30  CA  THR D   7      17.684  23.251  44.708  1.00  8.59 LIG 0.20  C 
BRANCH 30 31
ATOM     31  N   THR D   7      18.872  23.962  44.255  1.00 15.26 LIG-0.34  N 
ATOM     32 H    THR D   7      19.614  23.628  44.533  1.00 15.26 LIG 0.16  HD
ATOM     33  C   PRO D   6      18.786  25.036  43.480  1.00 19.06 LIG 0.25  C 
ATOM     34 O    PRO D   6      17.717  25.518  43.120  1.00 17.22 LIG-0.27  OA
BRANCH 33 35
ATOM     35  CA  PRO D   6      20.107  25.665  43.041  1.00 33.07 LIG 0.35  C 
ATOM     36  N   PRO D   6      20.827  24.844  42.060  1.00 36.75 LIG 0.32  N 
ATOM     37  CD  PRO D   6      21.185  25.615  40.859  1.00 36.34 LIG 0.32  C 
ATOM     38  CG  PRO D   6      20.150  26.687  40.847  1.00 37.69 LIG 0.04  C 
ATOM     39  CB  PRO D   6      19.852  26.979  42.288  1.00 35.30 LIG 0.05  C 
ENDBRANCH 33 35
ENDBRANCH 30 31
BRANCH 30 40
ATOM     40  CB  THR D   7      18.050  22.142  45.710  1.00 10.85 LIG 0.15  C 
ATOM     41  CG2 THR D   7      16.885  21.858  46.638  1.00 12.17 LIG 0.04  C 
BRANCH 40 42
ATOM     42 OG1  THR D   7      18.384  20.949  44.995  1.00 14.88 LIG-0.39  OA
ATOM     43 HG1  THR D   7      18.429  20.304  45.532  1.00 14.88 LIG 0.21  HD
ENDBRANCH 40 42
ENDBRANCH 30 40
ENDBRANCH 28 30
ENDBRANCH 1 26
TORSDOF 17
ENDMDL
MODEL 4
USER: ADFR SOLUTION from run 135
USER: SCORE 13.831556 LL:  -3.138 LR: -11.318 RR:   0.000 FEB:  -6.247
USER: RMSD 4.684699
USER: SEED 134
USER: STATUS searching
USER: GENES 19
USER: genes 0 Translation |==|  0.49778 0.53709 0.48804
USER: genes 1 Rotation |==|  0.40038 0.31600 0.50447 0.95409
USER: genes 2 Torsion [C]-CA--CB-[OG] |==|  0.34894
USER: genes 3 Torsion [CA]-CB--OG-[HG] |==|  0.35685
USER: genes 4 Torsion [N]-CA--C-[N] |==|  0.18606
USER: genes 5 Torsion [C]-N--CA-[C] |==|  0.78975
USER: genes 6 Torsion [N]-CA--C-[N] |==|  0.41431
USER: genes 7 Torsion [C]-N--CA-[C] |==|  0.63845
USER: genes 8 Torsion [N]-CA--CB-[CG2] |==|  0.78355
USER: genes 9 Torsion [CA]-CB--CG1-[CD1] |==|  0.46767
USER: genes 10 Torsion [N]-CA--C-[O] |==|  0.98041
USER: genes 11 Torsion [N]-CA--CB-[CG2] |==|  0.54794
USER: genes 12 Torsion [CA]-CB--CG1-[CD1] |==|  0.61482
USER: genes 13 Torsion [CB]-CA--N-[C] |==|  0.79199
USER: genes 14 Torsion [N]-C--CA-[N] |==|  0.36179
USER: genes 15 Torsion [C]-CA--N-[C] |==|  0.62539
USER: genes 16 Torsion [N]-C--CA-[N] |==|  0.37928
USER: genes 17 Torsion [C]-CA--CB-[OG1] |==|  0.08461
USER: genes 18 Torsion [CA]-CB--OG1-[HG1] |==|  0.79640
ROOT
ATOM      1  CA  SER D   8      14.204  25.673  45.539  1.00  5.81 LIG 0.20  C 
ENDROOT
BRANCH 1 2
ATOM      2  CB  SER D   8      14.484  25.975  44.065  1.00  5.44 LIG 0.20  C 
BRANCH 2 3
ATOM      3 OG   SER D   8      14.351  27.358  43.814  1.00  4.91 LIG-0.40  OA
ATOM      4 HG   SER D   8      15.039  27.639  43.421  1.00  4.91 LIG 0.21  HD
ENDBRANCH 2 3
ENDBRANCH 1 2
BRANCH 1 5
ATOM      5  C   SER D   8      13.131  24.617  45.638  1.00  6.04 LIG 0.24  C 
ATOM      6  N   ILE D   9      12.666  24.381  46.855  1.00  5.23 LIG-0.35  N 
ATOM      7 H    ILE D   9      13.004  24.714  47.572  1.00  5.23 LIG 0.16  HD
ATOM      8 O    SER D   8      12.741  24.019  44.638  1.00  7.88 LIG-0.27  OA
BRANCH 6 9
ATOM      9  CA  ILE D   9      11.520  23.519  47.075  1.00  5.91 LIG 0.18  C 
BRANCH 9 10
ATOM     10  C   ILE D   9      10.260  24.277  46.686  1.00  8.30 LIG 0.24  C 
ATOM     11  N   ILE D  10       9.263  23.537  46.217  1.00  7.14 LIG-0.34  N 
ATOM     12 H    ILE D  10       9.292  22.680  46.150  1.00  7.14 LIG 0.16  HD
ATOM     13 O    ILE D   9      10.205  25.508  46.780  1.00  8.28 LIG-0.27  OA
BRANCH 11 14
ATOM     14  CA  ILE D  10       8.008  24.133  45.769  1.00  6.72 LIG 0.19  C 
BRANCH 14 15
ATOM     15  CB  ILE D  10       7.868  24.069  44.241  1.00  6.99 LIG 0.01  C 
ATOM     16  CG2 ILE D  10       8.716  25.155  43.591  1.00  9.23 LIG 0.01  C 
BRANCH 15 17
ATOM     17  CG1 ILE D  10       8.309  22.700  43.719  1.00  6.78 LIG 0.00  C 
ATOM     18  CD1 ILE D  10       7.942  22.453  42.264  1.00  7.71 LIG 0.01  C 
ENDBRANCH 15 17
ENDBRANCH 14 15
BRANCH 14 19
ATOM     19  C   ILE D  10       6.842  23.415  46.412  1.00  8.00 LIG 0.20  C 
ATOM     20 O    ILE D  10       7.049  22.397  47.080  1.00  7.10 LIG-0.65  OA
ATOM     21 OXT  ILE D  10       5.700  23.848  46.284  1.00 10.02 LIG-0.65  OA
ENDBRANCH 14 19
ENDBRANCH 11 14
ENDBRANCH 9 10
BRANCH 9 22
ATOM     22  CB  ILE D   9      11.463  23.030  48.537  1.00  4.97 LIG 0.01  C 
ATOM     23  CG2 ILE D   9      10.537  21.815  48.662  1.00  9.61 LIG 0.01  C 
BRANCH 22 24
ATOM     24  CG1 ILE D   9      12.877  22.709  49.010  1.00  5.60 LIG 0.00  C 
ATOM     25  CD1 ILE D   9      12.988  21.439  49.848  1.00  8.38 LIG 0.01  C 
ENDBRANCH 22 24
ENDBRANCH 9 22
ENDBRANCH 6 9
ENDBRANCH 1 5
BRANCH 1 26
ATOM     26  N   SER D   8      15.401  25.191  46.206  1.00  6.06 LIG-0.34  N 
ATOM     27 H    SER D   8      15.775  25.766  46.725  1.00  6.06 LIG 0.16  HD
ATOM     28  C   THR D   7      15.858  23.960  46.012  1.00 11.81 LIG 0.24  C 
ATOM     29 O    THR D   7      15.238  23.099  45.373  1.00 11.44 LIG-0.27  OA
BRANCH 28 30
ATOM     30  CA  THR D   7      17.203  23.643  46.634  1.00  8.59 LIG 0.20  C 
BRANCH 30 31
ATOM     31  N   THR D   7      17.120  22.401  47.390  1.00 15.26 LIG-0.34  N 
ATOM     32 H    THR D   7      16.709  21.764  46.984  1.00 15.26 LIG 0.16  HD
ATOM     33  C   PRO D   6      17.643  22.290  48.605  1.00 19.06 LIG 0.25  C 
ATOM     34 O    PRO D   6      18.198  23.219  49.181  1.00 17.22 LIG-0.27  OA
BRANCH 33 35
ATOM     35  CA  PRO D   6      17.525  20.922  49.274  1.00 33.07 LIG 0.35  C 
ATOM     36  N   PRO D   6      18.767  20.507  49.938  1.00 36.75 LIG 0.32  N 
ATOM     37  CD  PRO D   6      18.536  20.127  51.340  1.00 36.34 LIG 0.32  C 
ATOM     38  CG  PRO D   6      17.311  20.904  51.684  1.00 37.69 LIG 0.04  C 
ATOM     39  CB  PRO D   6      16.506  20.971  50.421  1.00 35.30 LIG 0.05  C 
ENDBRANCH 33 35
ENDBRANCH 30 31
BRANCH 30 40
ATOM     40  CB  THR D   7      18.244  23.536  45.506  1.00 10.85 LIG 0.15  C 
ATOM     41  CG2 THR D   7      18.328  22.112  44.992  1.00 12.17 LIG 0.04  C 
BRANCH 40 42
ATOM     42 OG1  THR D   7      17.868  24.402  44.431  1.00 14.88 LIG-0.39  OA
ATOM     43 HG1  THR D   7      17.212  24.073  44.022  1.00 14.88 LIG 0.21  HD
ENDBRANCH 40 42
ENDBRANCH 30 40
ENDBRANCH 28 30
ENDBRANCH 1 26
TORSDOF 17
ENDMDL
