MODEL 1
USER: ADFR SOLUTION from run 23
USER: SCORE 16.031580 LL:  -3.557 LR: -15.427 RR:   0.000 FEB:  -9.162
USER: RMSD 0.852261
USER: SEED 22
USER: STATUS no improvement in best in 2 clusters for 5 generations
USER: GENES 23
USER: genes 0 Translation |==|  0.55278 0.47069 0.61733
USER: genes 1 Rotation |==|  0.61034 0.49371 0.43899 0.98380
USER: genes 2 Torsion [N]-C--CA-[N] |==|  0.33504
USER: genes 3 Torsion [C]-CA--CB-[CG2] |==|  0.06601
USER: genes 4 Torsion [CA]-CB--OG1-[HG1] |==|  0.65607
USER: genes 5 Torsion [C]-CA--N-[C] |==|  0.68424
USER: genes 6 Torsion [N]-C--CA-[CB] |==|  0.68714
USER: genes 7 Torsion [N]-C--CA-[N] |==|  0.43296
USER: genes 8 Torsion [C]-CA--CB-[CG] |==|  0.47350
USER: genes 9 Torsion [CA]-CB--CG-[CD1] |==|  0.90531
USER: genes 10 Torsion [CE2]-CZ--OH-[HH] |==|  0.19969
USER: genes 11 Torsion [C]-N--CA-[CB] |==|  0.40098
USER: genes 12 Torsion [N]-CA--CB-[OG] |==|  0.80276
USER: genes 13 Torsion [CA]-CB--OG-[HG] |==|  0.23606
USER: genes 14 Torsion [N]-CA--C-[N] |==|  0.52541
USER: genes 15 Torsion [C]-N--CA-[CB] |==|  0.26665
USER: genes 16 Torsion [N]-CA--C-[N] |==|  0.40191
USER: genes 17 Torsion [C]-N--CA-[CB] |==|  0.31309
USER: genes 18 Torsion [N]-CA--CB-[CG2] |==|  0.78948
USER: genes 19 Torsion [CA]-CB--CG1-[CD1] |==|  0.45186
USER: genes 20 Torsion [N]-CA--C-[O] |==|  0.94147
USER: genes 21 Torsion [N]-CA--CB-[CG1] |==|  0.80693
USER: genes 22 Torsion [CA]-CB--CG1-[CD1] |==|  0.47670
ROOT
ATOM      1  C   THR D   7      17.280  24.987  44.791  1.00  9.65 LIG 0.24  C 
ATOM      2 O    THR D   7      17.582  25.276  45.959  1.00 10.36 LIG-0.27  OA
ATOM      3  N   SER D   8      16.124  25.322  44.225  1.00  8.02 LIG-0.34  N 
ATOM      4 H    SER D   8      15.960  25.235  43.385  1.00  8.02 LIG 0.16  HD
ENDROOT
BRANCH 1 5
ATOM      5  CA  THR D   7      18.243  24.222  43.899  1.00 11.21 LIG 0.20  C 
BRANCH 5 6
ATOM      6  CB  THR D   7      18.485  22.823  44.498  1.00 12.81 LIG 0.15  C 
ATOM      7  CG2 THR D   7      17.332  22.401  45.392  1.00 13.23 LIG 0.04  C 
BRANCH 6 8
ATOM      8 OG1  THR D   7      18.628  21.871  43.436  1.00 15.88 LIG-0.39  OA
ATOM      9 HG1  THR D   7      18.065  21.255  43.534  1.00 15.88 LIG 0.21  HD
ENDBRANCH 6 8
ENDBRANCH 5 6
BRANCH 5 10
ATOM     10  N   THR D   7      19.503  24.934  43.745  1.00 13.33 LIG-0.34  N 
ATOM     11  C   PRO D   6      19.889  25.435  42.578  1.00 13.20 LIG 0.24  C 
ATOM     12 O    PRO D   6      19.190  25.405  41.566  1.00 14.28 LIG-0.27  OA
ATOM     13 H    THR D   7      19.963  24.997  44.469  1.00 13.33 LIG 0.16  HD
BRANCH 11 14
ATOM     14  CA  PRO D   6      21.265  26.098  42.549  1.00 20.50 LIG 0.18  C 
ATOM     15  CB  PRO D   6      21.097  27.599  42.318  1.00 26.18 LIG 0.04  C 
ATOM     16  CG  PRO D   6      21.310  27.782  40.854  1.00 30.25 LIG 0.02  C 
ATOM     17  CD  PRO D   6      22.371  26.796  40.494  1.00 26.41 LIG 0.13  C 
ATOM     18  N   PRO D   6      22.092  25.679  41.409  1.00 20.28 LIG-0.34  N 
ATOM     19  C   TYR D   5      22.480  24.414  41.198  1.00 26.16 LIG 0.26  C 
ATOM     20 O    TYR D   5      22.189  23.496  41.962  1.00 27.79 LIG-0.27  OA
BRANCH 19 21
ATOM     21  CA  TYR D   5      23.320  24.148  39.951  1.00 28.17 LIG 0.40  C 
ATOM     22  N   TYR D   5      24.122  22.944  40.127  1.00 34.40 LIG 0.61  N 
BRANCH 21 23
ATOM     23  CB  TYR D   5      22.423  24.015  38.718  1.00 23.65 LIG 0.09  C 
BRANCH 23 24
ATOM     24  CG  TYR D   5      23.179  23.978  37.408  1.00 24.31 LIG-0.06  A 
ATOM     25  CD2 TYR D   5      22.724  23.210  36.343  1.00 24.91 LIG 0.01  A 
ATOM     26  CE2 TYR D   5      23.410  23.169  35.145  1.00 24.35 LIG 0.04  A 
ATOM     27  CZ  TYR D   5      24.567  23.904  34.997  1.00 25.18 LIG 0.07  A 
ATOM     28  CE1 TYR D   5      25.044  24.677  36.038  1.00 25.68 LIG 0.04  A 
ATOM     29  CD1 TYR D   5      24.350  24.709  37.235  1.00 25.57 LIG 0.01  A 
BRANCH 27 30
ATOM     30 OH   TYR D   5      25.243  23.860  33.799  1.00 28.89 LIG-0.36  OA
ATOM     31 HH   TYR D   5      24.809  24.280  33.216  1.00 28.89 LIG 0.22  HD
ENDBRANCH 27 30
ENDBRANCH 23 24
ENDBRANCH 21 23
ENDBRANCH 19 21
ENDBRANCH 11 14
ENDBRANCH 5 10
ENDBRANCH 1 5
BRANCH 3 32
ATOM     32  CA  SER D   8      15.024  25.871  44.991  1.00  7.80 LIG 0.20  C 
BRANCH 32 33
ATOM     33  CB  SER D   8      14.263  26.912  44.178  1.00  7.43 LIG 0.20  C 
BRANCH 33 34
ATOM     34 OG   SER D   8      15.025  28.088  44.016  1.00  7.87 LIG-0.40  OA
ATOM     35 HG   SER D   8      15.538  28.001  43.357  1.00  7.87 LIG 0.21  HD
ENDBRANCH 33 34
ENDBRANCH 32 33
BRANCH 32 36
ATOM     36  C   SER D   8      14.092  24.741  45.367  1.00  7.75 LIG 0.24  C 
ATOM     37 O    SER D   8      14.408  23.569  45.169  1.00  8.57 LIG-0.27  OA
ATOM     38  N   ILE D   9      12.938  25.097  45.909  1.00  7.82 LIG-0.35  N 
ATOM     39 H    ILE D   9      12.733  25.904  46.125  1.00  7.82 LIG 0.16  HD
BRANCH 38 40
ATOM     40  CA  ILE D   9      11.906  24.116  46.183  1.00  8.70 LIG 0.18  C 
BRANCH 40 41
ATOM     41  C   ILE D   9      10.560  24.725  45.844  1.00  9.89 LIG 0.24  C 
ATOM     42  N   ILE D  10       9.661  23.892  45.337  1.00  9.26 LIG-0.34  N 
ATOM     43 H    ILE D  10       9.812  23.057  45.194  1.00  9.26 LIG 0.16  HD
ATOM     44 O    ILE D   9      10.355  25.930  45.998  1.00 11.43 LIG-0.27  OA
BRANCH 42 45
ATOM     45  CA  ILE D  10       8.323  24.326  44.973  1.00 10.77 LIG 0.19  C 
BRANCH 45 46
ATOM     46  CB  ILE D  10       8.105  24.264  43.445  1.00 11.26 LIG 0.01  C 
ATOM     47  CG2 ILE D  10       8.812  25.429  42.758  1.00 13.36 LIG 0.01  C 
BRANCH 46 48
ATOM     48  CG1 ILE D  10       8.595  22.926  42.883  1.00 10.59 LIG 0.00  C 
ATOM     49  CD1 ILE D  10       8.056  22.609  41.502  1.00 13.29 LIG 0.01  C 
ENDBRANCH 46 48
ENDBRANCH 45 46
BRANCH 45 50
ATOM     50  C   ILE D  10       7.274  23.470  45.668  1.00 10.61 LIG 0.20  C 
ATOM     51 O    ILE D  10       7.551  22.344  46.100  1.00 10.13 LIG-0.65  OA
ATOM     52 OXT  ILE D  10       6.129  23.904  45.785  1.00 13.38 LIG-0.65  OA
ENDBRANCH 45 50
ENDBRANCH 42 45
ENDBRANCH 40 41
BRANCH 40 53
ATOM     53  CB  ILE D   9      11.952  23.626  47.639  1.00  9.74 LIG 0.01  C 
ATOM     54  CG2 ILE D   9      10.693  22.836  47.975  1.00 14.85 LIG 0.01  C 
BRANCH 53 55
ATOM     55  CG1 ILE D   9      13.207  22.780  47.841  1.00  9.98 LIG 0.00  C 
ATOM     56  CD1 ILE D   9      13.474  22.404  49.280  1.00 13.31 LIG 0.01  C 
ENDBRANCH 53 55
ENDBRANCH 40 53
ENDBRANCH 38 40
ENDBRANCH 32 36
ENDBRANCH 3 32
TORSDOF 21
ENDMDL
MODEL 2
USER: ADFR SOLUTION from run 147
USER: SCORE 15.938737 LL:  -3.357 LR: -15.079 RR:   0.000 FEB:  -8.814
USER: RMSD 4.692957
USER: SEED 146
USER: STATUS no improvement in best in 9 clusters for 5 generations
USER: GENES 23
USER: genes 0 Translation |==|  0.54465 0.45290 0.62459
USER: genes 1 Rotation |==|  0.65497 0.43797 0.42336 0.96504
USER: genes 2 Torsion [N]-C--CA-[N] |==|  0.30706
USER: genes 3 Torsion [C]-CA--CB-[CG2] |==|  0.06916
USER: genes 4 Torsion [CA]-CB--OG1-[HG1] |==|  0.62636
USER: genes 5 Torsion [C]-CA--N-[C] |==|  0.67738
USER: genes 6 Torsion [N]-C--CA-[CB] |==|  0.06598
USER: genes 7 Torsion [N]-C--CA-[N] |==|  0.33104
USER: genes 8 Torsion [C]-CA--CB-[CG] |==|  0.75244
USER: genes 9 Torsion [CA]-CB--CG-[CD1] |==|  0.56611
USER: genes 10 Torsion [CE2]-CZ--OH-[HH] |==|  0.08642
USER: genes 11 Torsion [C]-N--CA-[CB] |==|  0.45575
USER: genes 12 Torsion [N]-CA--CB-[OG] |==|  0.76459
USER: genes 13 Torsion [CA]-CB--OG-[HG] |==|  0.21468
USER: genes 14 Torsion [N]-CA--C-[N] |==|  0.49342
USER: genes 15 Torsion [C]-N--CA-[CB] |==|  0.27218
USER: genes 16 Torsion [N]-CA--C-[N] |==|  0.39475
USER: genes 17 Torsion [C]-N--CA-[CB] |==|  0.31361
USER: genes 18 Torsion [N]-CA--CB-[CG2] |==|  0.76438
USER: genes 19 Torsion [CA]-CB--CG1-[CD1] |==|  0.43325
USER: genes 20 Torsion [N]-CA--C-[O] |==|  0.43869
USER: genes 21 Torsion [N]-CA--CB-[CG1] |==|  0.75231
USER: genes 22 Torsion [CA]-CB--CG1-[CD1] |==|  0.27191
ROOT
ATOM      1  C   THR D   7      17.054  24.734  44.965  1.00  9.65 LIG 0.24  C 
ATOM      2 O    THR D   7      17.104  24.803  46.203  1.00 10.36 LIG-0.27  OA
ATOM      3  N   SER D   8      16.099  25.300  44.234  1.00  8.02 LIG-0.34  N 
ATOM      4 H    SER D   8      16.127  25.360  43.376  1.00  8.02 LIG 0.16  HD
ENDROOT
BRANCH 1 5
ATOM      5  CA  THR D   7      18.120  23.988  44.179  1.00 11.21 LIG 0.20  C 
BRANCH 5 6
ATOM      6  CB  THR D   7      18.253  22.558  44.739  1.00 12.81 LIG 0.15  C 
ATOM      7  CG2 THR D   7      16.971  22.112  45.421  1.00 13.23 LIG 0.04  C 
BRANCH 6 8
ATOM      8 OG1  THR D   7      18.553  21.655  43.668  1.00 15.88 LIG-0.39  OA
ATOM      9 HG1  THR D   7      18.069  20.971  43.734  1.00 15.88 LIG 0.21  HD
ENDBRANCH 6 8
ENDBRANCH 5 6
BRANCH 5 10
ATOM     10  N   THR D   7      19.400  24.676  44.234  1.00 13.33 LIG-0.34  N 
ATOM     11  C   PRO D   6      19.974  25.178  43.148  1.00 13.20 LIG 0.24  C 
ATOM     12 O    PRO D   6      19.445  25.168  42.037  1.00 14.28 LIG-0.27  OA
ATOM     13 H    THR D   7      19.740  24.726  45.022  1.00 13.33 LIG 0.16  HD
BRANCH 11 14
ATOM     14  CA  PRO D   6      21.349  25.815  43.343  1.00 20.50 LIG 0.18  C 
ATOM     15  CB  PRO D   6      22.004  25.226  44.592  1.00 26.18 LIG 0.04  C 
ATOM     16  CG  PRO D   6      21.726  26.220  45.667  1.00 30.25 LIG 0.02  C 
ATOM     17  CD  PRO D   6      21.801  27.549  44.992  1.00 26.41 LIG 0.13  C 
ATOM     18  N   PRO D   6      21.292  27.251  43.645  1.00 20.28 LIG-0.34  N 
ATOM     19  C   TYR D   5      20.771  28.164  42.814  1.00 26.16 LIG 0.26  C 
ATOM     20 O    TYR D   5      20.312  27.872  41.712  1.00 27.79 LIG-0.27  OA
BRANCH 19 21
ATOM     21  CA  TYR D   5      20.772  29.614  43.294  1.00 28.17 LIG 0.40  C 
ATOM     22  N   TYR D   5      21.555  30.446  42.390  1.00 34.40 LIG 0.61  N 
BRANCH 21 23
ATOM     23  CB  TYR D   5      19.340  30.145  43.401  1.00 23.65 LIG 0.09  C 
BRANCH 23 24
ATOM     24  CG  TYR D   5      18.819  30.773  42.127  1.00 24.31 LIG-0.06  A 
ATOM     25  CD2 TYR D   5      19.356  30.431  40.892  1.00 24.91 LIG 0.01  A 
ATOM     26  CE2 TYR D   5      18.888  31.002  39.725  1.00 24.35 LIG 0.04  A 
ATOM     27  CZ  TYR D   5      17.868  31.928  39.780  1.00 25.18 LIG 0.07  A 
ATOM     28  CE1 TYR D   5      17.315  32.288  40.993  1.00 25.68 LIG 0.04  A 
ATOM     29  CD1 TYR D   5      17.792  31.710  42.157  1.00 25.57 LIG 0.01  A 
BRANCH 27 30
ATOM     30 OH   TYR D   5      17.406  32.490  38.613  1.00 28.89 LIG-0.36  OA
ATOM     31 HH   TYR D   5      17.485  31.938  37.985  1.00 28.89 LIG 0.22  HD
ENDBRANCH 27 30
ENDBRANCH 23 24
ENDBRANCH 21 23
ENDBRANCH 19 21
ENDBRANCH 11 14
ENDBRANCH 5 10
ENDBRANCH 1 5
BRANCH 3 32
ATOM     32  CA  SER D   8      14.910  25.871  44.831  1.00  7.80 LIG 0.20  C 
BRANCH 32 33
ATOM     33  CB  SER D   8      14.188  26.780  43.843  1.00  7.43 LIG 0.20  C 
BRANCH 33 34
ATOM     34 OG   SER D   8      14.735  28.080  43.855  1.00  7.87 LIG-0.40  OA
ATOM     35 HG   SER D   8      15.457  28.084  43.426  1.00  7.87 LIG 0.21  HD
ENDBRANCH 33 34
ENDBRANCH 32 33
BRANCH 32 36
ATOM     36  C   SER D   8      13.993  24.743  45.246  1.00  7.75 LIG 0.24  C 
ATOM     37 O    SER D   8      14.288  23.571  45.015  1.00  8.57 LIG-0.27  OA
ATOM     38  N   ILE D   9      12.875  25.099  45.858  1.00  7.82 LIG-0.35  N 
ATOM     39 H    ILE D   9      12.689  25.904  46.096  1.00  7.82 LIG 0.16  HD
BRANCH 38 40
ATOM     40  CA  ILE D   9      11.852  24.121  46.178  1.00  8.70 LIG 0.18  C 
BRANCH 40 41
ATOM     41  C   ILE D   9      10.496  24.726  45.878  1.00  9.89 LIG 0.24  C 
ATOM     42  N   ILE D  10       9.597  23.900  45.361  1.00  9.26 LIG-0.34  N 
ATOM     43 H    ILE D  10       9.753  23.071  45.192  1.00  9.26 LIG 0.16  HD
ATOM     44 O    ILE D   9      10.282  25.925  46.070  1.00 11.43 LIG-0.27  OA
BRANCH 42 45
ATOM     45  CA  ILE D  10       8.249  24.331  45.031  1.00 10.77 LIG 0.19  C 
BRANCH 45 46
ATOM     46  CB  ILE D  10       8.006  24.307  43.506  1.00 11.26 LIG 0.01  C 
ATOM     47  CG2 ILE D  10       8.496  25.604  42.867  1.00 13.36 LIG 0.01  C 
BRANCH 46 48
ATOM     48  CG1 ILE D  10       8.693  23.096  42.868  1.00 10.59 LIG 0.00  C 
ATOM     49  CD1 ILE D  10       8.072  22.662  41.555  1.00 13.29 LIG 0.01  C 
ENDBRANCH 46 48
ENDBRANCH 45 46
BRANCH 45 50
ATOM     50  C   ILE D  10       7.219  23.448  45.721  1.00 10.61 LIG 0.20  C 
ATOM     51 O    ILE D  10       6.065  23.847  45.920  1.00 10.13 LIG-0.65  OA
ATOM     52 OXT  ILE D  10       7.551  22.325  46.100  1.00 13.38 LIG-0.65  OA
ENDBRANCH 45 50
ENDBRANCH 42 45
ENDBRANCH 40 41
BRANCH 40 53
ATOM     53  CB  ILE D   9      11.949  23.648  47.636  1.00  9.74 LIG 0.01  C 
ATOM     54  CG2 ILE D   9      10.566  23.304  48.177  1.00 14.85 LIG 0.01  C 
BRANCH 53 55
ATOM     55  CG1 ILE D   9      12.886  22.445  47.710  1.00  9.98 LIG 0.00  C 
ATOM     56  CD1 ILE D   9      14.298  22.786  48.129  1.00 13.31 LIG 0.01  C 
ENDBRANCH 53 55
ENDBRANCH 40 53
ENDBRANCH 38 40
ENDBRANCH 32 36
ENDBRANCH 3 32
TORSDOF 21
ENDMDL
MODEL 3
USER: ADFR SOLUTION from run 39
USER: SCORE 16.099000 LL:  -4.406 LR: -14.260 RR:   0.000 FEB:  -7.996
USER: RMSD 5.430551
USER: SEED 38
USER: STATUS no improvement in best in 2 clusters for 5 generations
USER: GENES 23
USER: genes 0 Translation |==|  0.55274 0.55776 0.58749
USER: genes 1 Rotation |==|  0.45908 0.58588 0.54513 0.98879
USER: genes 2 Torsion [N]-C--CA-[N] |==|  0.43167
USER: genes 3 Torsion [C]-CA--CB-[CG2] |==|  0.99834
USER: genes 4 Torsion [CA]-CB--OG1-[HG1] |==|  0.95040
USER: genes 5 Torsion [C]-CA--N-[C] |==|  0.63072
USER: genes 6 Torsion [N]-C--CA-[CB] |==|  0.09917
USER: genes 7 Torsion [N]-C--CA-[N] |==|  0.31626
USER: genes 8 Torsion [C]-CA--CB-[CG] |==|  0.24169
USER: genes 9 Torsion [CA]-CB--CG-[CD1] |==|  0.92440
USER: genes 10 Torsion [CE2]-CZ--OH-[HH] |==|  0.16698
USER: genes 11 Torsion [C]-N--CA-[CB] |==|  0.26667
USER: genes 12 Torsion [N]-CA--CB-[OG] |==|  0.82920
USER: genes 13 Torsion [CA]-CB--OG-[HG] |==|  0.13545
USER: genes 14 Torsion [N]-CA--C-[N] |==|  0.53667
USER: genes 15 Torsion [C]-N--CA-[CB] |==|  0.26736
USER: genes 16 Torsion [N]-CA--C-[N] |==|  0.41342
USER: genes 17 Torsion [C]-N--CA-[CB] |==|  0.31176
USER: genes 18 Torsion [N]-CA--CB-[CG2] |==|  0.81437
USER: genes 19 Torsion [CA]-CB--CG1-[CD1] |==|  0.51214
USER: genes 20 Torsion [N]-CA--C-[O] |==|  0.94218
USER: genes 21 Torsion [N]-CA--CB-[CG1] |==|  0.79730
USER: genes 22 Torsion [CA]-CB--CG1-[CD1] |==|  0.48358
ROOT
ATOM      1  C   THR D   7      17.279  26.228  44.075  1.00  9.65 LIG 0.24  C 
ATOM      2 O    THR D   7      17.576  27.229  44.745  1.00 10.36 LIG-0.27  OA
ATOM      3  N   SER D   8      16.047  25.733  43.997  1.00  8.02 LIG-0.34  N 
ATOM      4 H    SER D   8      15.812  25.121  43.441  1.00  8.02 LIG 0.16  HD
ENDROOT
BRANCH 1 5
ATOM      5  CA  THR D   7      18.329  25.488  43.264  1.00 11.21 LIG 0.20  C 
BRANCH 5 6
ATOM      6  CB  THR D   7      18.816  24.264  44.064  1.00 12.81 LIG 0.15  C 
ATOM      7  CG2 THR D   7      18.119  24.174  45.412  1.00 13.23 LIG 0.04  C 
BRANCH 6 8
ATOM      8 OG1  THR D   7      18.546  23.070  43.317  1.00 15.88 LIG-0.39  OA
ATOM      9 HG1  THR D   7      17.973  23.234  42.724  1.00 15.88 LIG 0.21  HD
ENDBRANCH 6 8
ENDBRANCH 5 6
BRANCH 5 10
ATOM     10  N   THR D   7      19.449  26.353  42.930  1.00 13.33 LIG-0.34  N 
ATOM     11  C   PRO D   6      19.948  26.414  41.701  1.00 13.20 LIG 0.24  C 
ATOM     12 O    PRO D   6      19.464  25.809  40.745  1.00 14.28 LIG-0.27  OA
ATOM     13 H    THR D   7      19.751  26.813  43.592  1.00 13.33 LIG 0.16  HD
BRANCH 11 14
ATOM     14  CA  PRO D   6      21.167  27.315  41.509  1.00 20.50 LIG 0.18  C 
ATOM     15  CB  PRO D   6      22.047  27.244  42.757  1.00 26.18 LIG 0.04  C 
ATOM     16  CG  PRO D   6      21.664  28.442  43.557  1.00 30.25 LIG 0.02  C 
ATOM     17  CD  PRO D   6      21.390  29.506  42.548  1.00 26.41 LIG 0.13  C 
ATOM     18  N   PRO D   6      20.832  28.742  41.421  1.00 20.28 LIG-0.34  N 
ATOM     19  C   TYR D   5      20.052  29.264  40.465  1.00 26.16 LIG 0.26  C 
ATOM     20 O    TYR D   5      19.565  28.586  39.563  1.00 27.79 LIG-0.27  OA
BRANCH 19 21
ATOM     21  CA  TYR D   5      19.788  30.767  40.534  1.00 28.17 LIG 0.40  C 
ATOM     22  N   TYR D   5      20.396  31.441  39.394  1.00 34.40 LIG 0.61  N 
BRANCH 21 23
ATOM     23  CB  TYR D   5      18.283  31.045  40.577  1.00 23.65 LIG 0.09  C 
BRANCH 23 24
ATOM     24  CG  TYR D   5      17.694  31.028  41.971  1.00 24.31 LIG-0.06  A 
ATOM     25  CD2 TYR D   5      16.561  31.772  42.275  1.00 24.91 LIG 0.01  A 
ATOM     26  CE2 TYR D   5      16.018  31.764  43.545  1.00 24.35 LIG 0.04  A 
ATOM     27  CZ  TYR D   5      16.607  31.003  44.533  1.00 25.18 LIG 0.07  A 
ATOM     28  CE1 TYR D   5      17.734  30.254  44.260  1.00 25.68 LIG 0.04  A 
ATOM     29  CD1 TYR D   5      18.271  30.270  42.984  1.00 25.57 LIG 0.01  A 
BRANCH 27 30
ATOM     30 OH   TYR D   5      16.059  30.999  45.795  1.00 28.89 LIG-0.36  OA
ATOM     31 HH   TYR D   5      15.270  30.714  45.757  1.00 28.89 LIG 0.22  HD
ENDBRANCH 27 30
ENDBRANCH 23 24
ENDBRANCH 21 23
ENDBRANCH 19 21
ENDBRANCH 11 14
ENDBRANCH 5 10
ENDBRANCH 1 5
BRANCH 3 32
ATOM     32  CA  SER D   8      14.978  26.195  44.859  1.00  7.80 LIG 0.20  C 
BRANCH 32 33
ATOM     33  CB  SER D   8      14.144  27.266  44.164  1.00  7.43 LIG 0.20  C 
BRANCH 33 34
ATOM     34 OG   SER D   8      14.928  28.395  43.850  1.00  7.87 LIG-0.40  OA
ATOM     35 HG   SER D   8      15.634  28.150  43.469  1.00  7.87 LIG 0.21  HD
ENDBRANCH 33 34
ENDBRANCH 32 33
BRANCH 32 36
ATOM     36  C   SER D   8      14.100  25.014  45.205  1.00  7.75 LIG 0.24  C 
ATOM     37 O    SER D   8      14.468  23.863  44.975  1.00  8.57 LIG-0.27  OA
ATOM     38  N   ILE D   9      12.932  25.302  45.758  1.00  7.82 LIG-0.35  N 
ATOM     39 H    ILE D   9      12.691  26.092  45.997  1.00  7.82 LIG 0.16  HD
BRANCH 38 40
ATOM     40  CA  ILE D   9      11.946  24.267  46.006  1.00  8.70 LIG 0.18  C 
BRANCH 40 41
ATOM     41  C   ILE D   9      10.574  24.820  45.680  1.00  9.89 LIG 0.24  C 
ATOM     42  N   ILE D  10       9.689  23.941  45.231  1.00  9.26 LIG-0.34  N 
ATOM     43 H    ILE D  10       9.861  23.106  45.118  1.00  9.26 LIG 0.16  HD
ATOM     44 O    ILE D   9      10.335  26.025  45.791  1.00 11.43 LIG-0.27  OA
BRANCH 42 45
ATOM     45  CA  ILE D  10       8.328  24.319  44.886  1.00 10.77 LIG 0.19  C 
BRANCH 45 46
ATOM     46  CB  ILE D  10       8.077  24.200  43.367  1.00 11.26 LIG 0.01  C 
ATOM     47  CG2 ILE D  10       8.907  25.230  42.606  1.00 13.36 LIG 0.01  C 
BRANCH 46 48
ATOM     48  CG1 ILE D  10       8.391  22.783  42.877  1.00 10.59 LIG 0.00  C 
ATOM     49  CD1 ILE D  10       8.268  22.614  41.375  1.00 13.29 LIG 0.01  C 
ENDBRANCH 46 48
ENDBRANCH 45 46
BRANCH 45 50
ATOM     50  C   ILE D  10       7.325  23.453  45.634  1.00 10.61 LIG 0.20  C 
ATOM     51 O    ILE D  10       7.651  22.354  46.100  1.00 10.13 LIG-0.65  OA
ATOM     52 OXT  ILE D  10       6.168  23.852  45.761  1.00 13.38 LIG-0.65  OA
ENDBRANCH 45 50
ENDBRANCH 42 45
ENDBRANCH 40 41
BRANCH 40 53
ATOM     53  CB  ILE D   9      12.015  23.745  47.450  1.00  9.74 LIG 0.01  C 
ATOM     54  CG2 ILE D   9      10.753  22.960  47.792  1.00 14.85 LIG 0.01  C 
BRANCH 53 55
ATOM     55  CG1 ILE D   9      13.263  22.882  47.609  1.00  9.98 LIG 0.00  C 
ATOM     56  CD1 ILE D   9      13.520  22.422  49.026  1.00 13.31 LIG 0.01  C 
ENDBRANCH 53 55
ENDBRANCH 40 53
ENDBRANCH 38 40
ENDBRANCH 32 36
ENDBRANCH 3 32
TORSDOF 21
ENDMDL
MODEL 4
USER: ADFR SOLUTION from run 196
USER: SCORE 16.389802 LL:  -4.578 LR: -13.998 RR:   0.000 FEB:  -7.733
USER: RMSD 3.984669
USER: SEED 195
USER: STATUS no improvement in best in 6 clusters for 5 generations
USER: GENES 23
USER: genes 0 Translation |==|  0.54833 0.56611 0.60488
USER: genes 1 Rotation |==|  0.39283 0.54157 0.55638 0.98333
USER: genes 2 Torsion [N]-C--CA-[N] |==|  0.94476
USER: genes 3 Torsion [C]-CA--CB-[CG2] |==|  0.33805
USER: genes 4 Torsion [CA]-CB--OG1-[HG1] |==|  0.13478
USER: genes 5 Torsion [C]-CA--N-[C] |==|  0.78225
USER: genes 6 Torsion [N]-C--CA-[CB] |==|  0.56362
USER: genes 7 Torsion [N]-C--CA-[N] |==|  0.32449
USER: genes 8 Torsion [C]-CA--CB-[CG] |==|  0.82793
USER: genes 9 Torsion [CA]-CB--CG-[CD1] |==|  0.80989
USER: genes 10 Torsion [CE2]-CZ--OH-[HH] |==|  0.47565
USER: genes 11 Torsion [C]-N--CA-[CB] |==|  0.25555
USER: genes 12 Torsion [N]-CA--CB-[OG] |==|  0.79325
USER: genes 13 Torsion [CA]-CB--OG-[HG] |==|  0.16095
USER: genes 14 Torsion [N]-CA--C-[N] |==|  0.48854
USER: genes 15 Torsion [C]-N--CA-[CB] |==|  0.26644
USER: genes 16 Torsion [N]-CA--C-[N] |==|  0.39595
USER: genes 17 Torsion [C]-N--CA-[CB] |==|  0.32842
USER: genes 18 Torsion [N]-CA--CB-[CG2] |==|  0.78748
USER: genes 19 Torsion [CA]-CB--CG1-[CD1] |==|  0.47548
USER: genes 20 Torsion [N]-CA--C-[O] |==|  0.93312
USER: genes 21 Torsion [N]-CA--CB-[CG1] |==|  0.76755
USER: genes 22 Torsion [CA]-CB--CG1-[CD1] |==|  0.26406
ROOT
ATOM      1  C   THR D   7      17.156  26.347  44.492  1.00  9.65 LIG 0.24  C 
ATOM      2 O    THR D   7      17.231  27.502  44.939  1.00 10.36 LIG-0.27  OA
ATOM      3  N   SER D   8      16.010  25.695  44.324  1.00  8.02 LIG-0.34  N 
ATOM      4 H    SER D   8      15.942  24.949  43.902  1.00  8.02 LIG 0.16  HD
ENDROOT
BRANCH 1 5
ATOM      5  CA  THR D   7      18.405  25.583  44.083  1.00 11.21 LIG 0.20  C 
BRANCH 5 6
ATOM      6  CB  THR D   7      18.889  26.101  42.715  1.00 12.81 LIG 0.15  C 
ATOM      7  CG2 THR D   7      20.312  26.626  42.797  1.00 13.23 LIG 0.04  C 
BRANCH 6 8
ATOM      8 OG1  THR D   7      18.838  25.034  41.759  1.00 15.88 LIG-0.39  OA
ATOM      9 HG1  THR D   7      18.090  24.654  41.803  1.00 15.88 LIG 0.21  HD
ENDBRANCH 6 8
ENDBRANCH 5 6
BRANCH 5 10
ATOM     10  N   THR D   7      18.156  24.151  44.026  1.00 13.33 LIG-0.34  N 
ATOM     11  C   PRO D   6      18.111  23.402  45.120  1.00 13.20 LIG 0.24  C 
ATOM     12 O    PRO D   6      18.200  23.862  46.258  1.00 14.28 LIG-0.27  OA
ATOM     13 H    THR D   7      18.044  23.844  43.230  1.00 13.33 LIG 0.16  HD
BRANCH 11 14
ATOM     14  CA  PRO D   6      17.910  21.903  44.906  1.00 20.50 LIG 0.18  C 
ATOM     15  CB  PRO D   6      17.323  21.286  46.176  1.00 26.18 LIG 0.04  C 
ATOM     16  CG  PRO D   6      18.498  20.719  46.897  1.00 30.25 LIG 0.02  C 
ATOM     17  CD  PRO D   6      19.398  20.206  45.823  1.00 26.41 LIG 0.13  C 
ATOM     18  N   PRO D   6      19.166  21.162  44.729  1.00 20.28 LIG-0.34  N 
ATOM     19  C   TYR D   5      20.027  21.389  43.727  1.00 26.16 LIG 0.26  C 
ATOM     20 O    TYR D   5      19.821  22.229  42.855  1.00 27.79 LIG-0.27  OA
BRANCH 19 21
ATOM     21  CA  TYR D   5      21.297  20.542  43.704  1.00 28.17 LIG 0.40  C 
ATOM     22  N   TYR D   5      21.333  19.714  42.506  1.00 34.40 LIG 0.61  N 
BRANCH 21 23
ATOM     23  CB  TYR D   5      22.539  21.436  43.771  1.00 23.65 LIG 0.09  C 
BRANCH 23 24
ATOM     24  CG  TYR D   5      22.677  22.385  42.600  1.00 24.31 LIG-0.06  A 
ATOM     25  CD2 TYR D   5      22.530  23.755  42.772  1.00 24.91 LIG 0.01  A 
ATOM     26  CE2 TYR D   5      22.653  24.628  41.709  1.00 24.35 LIG 0.04  A 
ATOM     27  CZ  TYR D   5      22.928  24.135  40.451  1.00 25.18 LIG 0.07  A 
ATOM     28  CE1 TYR D   5      23.079  22.777  40.249  1.00 25.68 LIG 0.04  A 
ATOM     29  CD1 TYR D   5      22.953  21.911  41.322  1.00 25.57 LIG 0.01  A 
BRANCH 27 30
ATOM     30 OH   TYR D   5      23.050  25.011  39.397  1.00 28.89 LIG-0.36  OA
ATOM     31 HH   TYR D   5      23.334  24.600  38.722  1.00 28.89 LIG 0.22  HD
ENDBRANCH 27 30
ENDBRANCH 23 24
ENDBRANCH 21 23
ENDBRANCH 19 21
ENDBRANCH 11 14
ENDBRANCH 5 10
ENDBRANCH 1 5
BRANCH 3 32
ATOM     32  CA  SER D   8      14.756  26.198  44.846  1.00  7.80 LIG 0.20  C 
BRANCH 32 33
ATOM     33  CB  SER D   8      14.039  27.053  43.808  1.00  7.43 LIG 0.20  C 
BRANCH 33 34
ATOM     34 OG   SER D   8      14.659  28.313  43.671  1.00  7.87 LIG-0.40  OA
ATOM     35 HG   SER D   8      15.463  28.208  43.456  1.00  7.87 LIG 0.21  HD
ENDBRANCH 33 34
ENDBRANCH 32 33
BRANCH 32 36
ATOM     36  C   SER D   8      13.886  25.019  45.219  1.00  7.75 LIG 0.24  C 
ATOM     37 O    SER D   8      14.250  23.866  44.989  1.00  8.57 LIG-0.27  OA
ATOM     38  N   ILE D   9      12.730  25.310  45.795  1.00  7.82 LIG-0.35  N 
ATOM     39 H    ILE D   9      12.494  26.101  46.033  1.00  7.82 LIG 0.16  HD
BRANCH 38 40
ATOM     40  CA  ILE D   9      11.751  24.276  46.072  1.00  8.70 LIG 0.18  C 
BRANCH 40 41
ATOM     41  C   ILE D   9      10.371  24.829  45.779  1.00  9.89 LIG 0.24  C 
ATOM     42  N   ILE D  10       9.512  23.978  45.233  1.00  9.26 LIG-0.34  N 
ATOM     43 H    ILE D  10       9.705  23.162  45.043  1.00  9.26 LIG 0.16  HD
ATOM     44 O    ILE D   9      10.104  26.011  46.001  1.00 11.43 LIG-0.27  OA
BRANCH 42 45
ATOM     45  CA  ILE D  10       8.148  24.359  44.906  1.00 10.77 LIG 0.19  C 
BRANCH 45 46
ATOM     46  CB  ILE D  10       7.877  24.238  43.390  1.00 11.26 LIG 0.01  C 
ATOM     47  CG2 ILE D  10       8.507  25.409  42.640  1.00 13.36 LIG 0.01  C 
BRANCH 46 48
ATOM     48  CG1 ILE D  10       8.404  22.904  42.852  1.00 10.59 LIG 0.00  C 
ATOM     49  CD1 ILE D  10       7.990  22.616  41.421  1.00 13.29 LIG 0.01  C 
ENDBRANCH 46 48
ENDBRANCH 45 46
BRANCH 45 50
ATOM     50  C   ILE D  10       7.153  23.496  45.668  1.00 10.61 LIG 0.20  C 
ATOM     51 O    ILE D  10       7.465  22.372  46.079  1.00 10.13 LIG-0.65  OA
ATOM     52 OXT  ILE D  10       6.015  23.924  45.862  1.00 13.38 LIG-0.65  OA
ENDBRANCH 45 50
ENDBRANCH 42 45
ENDBRANCH 40 41
BRANCH 40 53
ATOM     53  CB  ILE D   9      11.856  23.758  47.514  1.00  9.74 LIG 0.01  C 
ATOM     54  CG2 ILE D   9      10.513  23.209  47.982  1.00 14.85 LIG 0.01  C 
BRANCH 53 55
ATOM     55  CG1 ILE D   9      12.945  22.690  47.583  1.00  9.98 LIG 0.00  C 
ATOM     56  CD1 ILE D   9      14.297  23.213  48.010  1.00 13.31 LIG 0.01  C 
ENDBRANCH 53 55
ENDBRANCH 40 53
ENDBRANCH 38 40
ENDBRANCH 32 36
ENDBRANCH 3 32
TORSDOF 21
ENDMDL
MODEL 5
USER: ADFR SOLUTION from run 75
USER: SCORE 15.233828 LL:  -4.274 LR: -13.831 RR:   0.000 FEB:  -7.566
USER: RMSD 4.037024
USER: SEED 74
USER: STATUS no improvement in best in 5 clusters for 5 generations
USER: GENES 23
USER: genes 0 Translation |==|  0.55076 0.48330 0.61581
USER: genes 1 Rotation |==|  0.57856 0.50998 0.45651 0.99177
USER: genes 2 Torsion [N]-C--CA-[N] |==|  0.37421
USER: genes 3 Torsion [C]-CA--CB-[CG2] |==|  0.99257
USER: genes 4 Torsion [CA]-CB--OG1-[HG1] |==|  0.55451
USER: genes 5 Torsion [C]-CA--N-[C] |==|  0.65076
USER: genes 6 Torsion [N]-C--CA-[CB] |==|  0.55778
USER: genes 7 Torsion [N]-C--CA-[N] |==|  0.40076
USER: genes 8 Torsion [C]-CA--CB-[CG] |==|  0.85154
USER: genes 9 Torsion [CA]-CB--CG-[CD1] |==|  0.86306
USER: genes 10 Torsion [CE2]-CZ--OH-[HH] |==|  0.94280
USER: genes 11 Torsion [C]-N--CA-[CB] |==|  0.37624
USER: genes 12 Torsion [N]-CA--CB-[OG] |==|  0.80531
USER: genes 13 Torsion [CA]-CB--OG-[HG] |==|  0.22224
USER: genes 14 Torsion [N]-CA--C-[N] |==|  0.53966
USER: genes 15 Torsion [C]-N--CA-[CB] |==|  0.25500
USER: genes 16 Torsion [N]-CA--C-[N] |==|  0.41224
USER: genes 17 Torsion [C]-N--CA-[CB] |==|  0.30969
USER: genes 18 Torsion [N]-CA--CB-[CG2] |==|  0.78566
USER: genes 19 Torsion [CA]-CB--CG1-[CD1] |==|  0.47228
USER: genes 20 Torsion [N]-CA--C-[O] |==|  0.93249
USER: genes 21 Torsion [N]-CA--CB-[CG1] |==|  0.75334
USER: genes 22 Torsion [CA]-CB--CG1-[CD1] |==|  0.29634
ROOT
ATOM      1  C   THR D   7      17.223  25.167  44.754  1.00  9.65 LIG 0.24  C 
ATOM      2 O    THR D   7      17.566  25.623  45.856  1.00 10.36 LIG-0.27  OA
ATOM      3  N   SER D   8      16.012  25.334  44.233  1.00  8.02 LIG-0.34  N 
ATOM      4 H    SER D   8      15.808  25.130  43.423  1.00  8.02 LIG 0.16  HD
ENDROOT
BRANCH 1 5
ATOM      5  CA  THR D   7      18.198  24.376  43.897  1.00 11.21 LIG 0.20  C 
BRANCH 5 6
ATOM      6  CB  THR D   7      18.322  22.947  44.459  1.00 12.81 LIG 0.15  C 
ATOM      7  CG2 THR D   7      17.496  22.779  45.724  1.00 13.23 LIG 0.04  C 
BRANCH 6 8
ATOM      8 OG1  THR D   7      17.869  22.009  43.475  1.00 15.88 LIG-0.39  OA
ATOM      9 HG1  THR D   7      17.680  21.280  43.849  1.00 15.88 LIG 0.21  HD
ENDBRANCH 6 8
ENDBRANCH 5 6
BRANCH 5 10
ATOM     10  N   THR D   7      19.502  25.018  43.846  1.00 13.33 LIG-0.34  N 
ATOM     11  C   PRO D   6      20.091  25.322  42.696  1.00 13.20 LIG 0.24  C 
ATOM     12 O    PRO D   6      19.558  25.157  41.599  1.00 14.28 LIG-0.27  OA
ATOM     13 H    THR D   7      19.847  25.178  44.618  1.00 13.33 LIG 0.16  HD
BRANCH 11 14
ATOM     14  CA  PRO D   6      21.489  25.931  42.793  1.00 20.50 LIG 0.18  C 
ATOM     15  CB  PRO D   6      21.803  26.679  41.497  1.00 26.18 LIG 0.04  C 
ATOM     16  CG  PRO D   6      22.606  25.717  40.691  1.00 30.25 LIG 0.02  C 
ATOM     17  CD  PRO D   6      23.442  24.984  41.686  1.00 26.41 LIG 0.13  C 
ATOM     18  N   PRO D   6      22.561  24.928  42.863  1.00 20.28 LIG-0.34  N 
ATOM     19  C   TYR D   5      22.672  24.028  43.849  1.00 26.16 LIG 0.26  C 
ATOM     20 O    TYR D   5      21.889  23.982  44.795  1.00 27.79 LIG-0.27  OA
BRANCH 19 21
ATOM     21  CA  TYR D   5      23.835  23.043  43.756  1.00 28.17 LIG 0.40  C 
ATOM     22  N   TYR D   5      24.357  22.749  45.085  1.00 34.40 LIG 0.61  N 
BRANCH 21 23
ATOM     23  CB  TYR D   5      23.392  21.753  43.061  1.00 23.65 LIG 0.09  C 
BRANCH 23 24
ATOM     24  CG  TYR D   5      22.168  21.111  43.677  1.00 24.31 LIG-0.06  A 
ATOM     25  CD2 TYR D   5      21.094  20.720  42.887  1.00 24.91 LIG 0.01  A 
ATOM     26  CE2 TYR D   5      19.973  20.136  43.442  1.00 24.35 LIG 0.04  A 
ATOM     27  CZ  TYR D   5      19.913  19.932  44.804  1.00 25.18 LIG 0.07  A 
ATOM     28  CE1 TYR D   5      20.966  20.310  45.615  1.00 25.68 LIG 0.04  A 
ATOM     29  CD1 TYR D   5      22.085  20.896  45.049  1.00 25.57 LIG 0.01  A 
BRANCH 27 30
ATOM     30 OH   TYR D   5      18.794  19.347  45.349  1.00 28.89 LIG-0.36  OA
ATOM     31 HH   TYR D   5      18.148  19.428  44.818  1.00 28.89 LIG 0.22  HD
ENDBRANCH 27 30
ENDBRANCH 23 24
ENDBRANCH 21 23
ENDBRANCH 19 21
ENDBRANCH 11 14
ENDBRANCH 5 10
ENDBRANCH 1 5
BRANCH 3 32
ATOM     32  CA  SER D   8      14.914  25.885  45.001  1.00  7.80 LIG 0.20  C 
BRANCH 32 33
ATOM     33  CB  SER D   8      14.147  26.920  44.186  1.00  7.43 LIG 0.20  C 
BRANCH 33 34
ATOM     34 OG   SER D   8      14.914  28.089  43.997  1.00  7.87 LIG-0.40  OA
ATOM     35 HG   SER D   8      15.463  27.966  43.374  1.00  7.87 LIG 0.21  HD
ENDBRANCH 33 34
ENDBRANCH 32 33
BRANCH 32 36
ATOM     36  C   SER D   8      13.987  24.755  45.387  1.00  7.75 LIG 0.24  C 
ATOM     37 O    SER D   8      14.341  23.581  45.281  1.00  8.57 LIG-0.27  OA
ATOM     38  N   ILE D   9      12.793  25.111  45.834  1.00  7.82 LIG-0.35  N 
ATOM     39 H    ILE D   9      12.556  25.924  45.988  1.00  7.82 LIG 0.16  HD
BRANCH 38 40
ATOM     40  CA  ILE D   9      11.768  24.121  46.104  1.00  8.70 LIG 0.18  C 
BRANCH 40 41
ATOM     41  C   ILE D   9      10.421  24.712  45.743  1.00  9.89 LIG 0.24  C 
ATOM     42  N   ILE D  10       9.512  23.851  45.303  1.00  9.26 LIG-0.34  N 
ATOM     43 H    ILE D  10       9.658  23.008  45.214  1.00  9.26 LIG 0.16  HD
ATOM     44 O    ILE D   9      10.221  25.926  45.819  1.00 11.43 LIG-0.27  OA
BRANCH 42 45
ATOM     45  CA  ILE D  10       8.170  24.266  44.929  1.00 10.77 LIG 0.19  C 
BRANCH 45 46
ATOM     46  CB  ILE D  10       7.942  24.133  43.407  1.00 11.26 LIG 0.01  C 
ATOM     47  CG2 ILE D  10       8.614  25.285  42.664  1.00 13.36 LIG 0.01  C 
BRANCH 46 48
ATOM     48  CG1 ILE D  10       8.462  22.785  42.898  1.00 10.59 LIG 0.00  C 
ATOM     49  CD1 ILE D  10       8.063  22.477  41.468  1.00 13.29 LIG 0.01  C 
ENDBRANCH 46 48
ENDBRANCH 45 46
BRANCH 45 50
ATOM     50  C   ILE D  10       7.127  23.441  45.670  1.00 10.61 LIG 0.20  C 
ATOM     51 O    ILE D  10       7.393  22.312  46.100  1.00 10.13 LIG-0.65  OA
ATOM     52 OXT  ILE D  10       5.999  23.905  45.827  1.00 13.38 LIG-0.65  OA
ENDBRANCH 45 50
ENDBRANCH 42 45
ENDBRANCH 40 41
BRANCH 40 53
ATOM     53  CB  ILE D   9      11.802  23.644  47.564  1.00  9.74 LIG 0.01  C 
ATOM     54  CG2 ILE D   9      10.400  23.274  48.036  1.00 14.85 LIG 0.01  C 
BRANCH 53 55
ATOM     55  CG1 ILE D   9      12.755  22.457  47.679  1.00  9.98 LIG 0.00  C 
ATOM     56  CD1 ILE D   9      14.065  22.781  48.361  1.00 13.31 LIG 0.01  C 
ENDBRANCH 53 55
ENDBRANCH 40 53
ENDBRANCH 38 40
ENDBRANCH 32 36
ENDBRANCH 3 32
TORSDOF 21
ENDMDL
MODEL 6
USER: ADFR SOLUTION from run 147
USER: SCORE 15.519552 LL:  -3.836 LR: -13.613 RR:   0.000 FEB:  -7.349
USER: RMSD 2.581610
USER: SEED 146
USER: STATUS no improvement in best in 9 clusters for 5 generations
USER: GENES 23
USER: genes 0 Translation |==|  0.54101 0.46069 0.63560
USER: genes 1 Rotation |==|  0.65467 0.39708 0.44935 0.96143
USER: genes 2 Torsion [N]-C--CA-[N] |==|  0.36501
USER: genes 3 Torsion [C]-CA--CB-[CG2] |==|  0.97299
USER: genes 4 Torsion [CA]-CB--OG1-[HG1] |==|  0.50628
USER: genes 5 Torsion [C]-CA--N-[C] |==|  0.73689
USER: genes 6 Torsion [N]-C--CA-[CB] |==|  0.79410
USER: genes 7 Torsion [N]-C--CA-[N] |==|  0.33881
USER: genes 8 Torsion [C]-CA--CB-[CG] |==|  0.86489
USER: genes 9 Torsion [CA]-CB--CG-[CD1] |==|  0.80174
USER: genes 10 Torsion [CE2]-CZ--OH-[HH] |==|  0.82797
USER: genes 11 Torsion [C]-N--CA-[CB] |==|  0.47778
USER: genes 12 Torsion [N]-CA--CB-[OG] |==|  0.73263
USER: genes 13 Torsion [CA]-CB--OG-[HG] |==|  0.21391
USER: genes 14 Torsion [N]-CA--C-[N] |==|  0.46899
USER: genes 15 Torsion [C]-N--CA-[CB] |==|  0.26417
USER: genes 16 Torsion [N]-CA--C-[N] |==|  0.39340
USER: genes 17 Torsion [C]-N--CA-[CB] |==|  0.31403
USER: genes 18 Torsion [N]-CA--CB-[CG2] |==|  0.75480
USER: genes 19 Torsion [CA]-CB--CG1-[CD1] |==|  0.43837
USER: genes 20 Torsion [N]-CA--C-[O] |==|  0.42910
USER: genes 21 Torsion [N]-CA--CB-[CG1] |==|  0.79560
USER: genes 22 Torsion [CA]-CB--CG1-[CD1] |==|  0.28562
ROOT
ATOM      1  C   THR D   7      16.953  24.845  45.229  1.00  9.65 LIG 0.24  C 
ATOM      2 O    THR D   7      16.769  24.954  46.452  1.00 10.36 LIG-0.27  OA
ATOM      3  N   SER D   8      16.129  25.343  44.313  1.00  8.02 LIG-0.34  N 
ATOM      4 H    SER D   8      16.313  25.379  43.474  1.00  8.02 LIG 0.16  HD
ENDROOT
BRANCH 1 5
ATOM      5  CA  THR D   7      18.175  24.125  44.683  1.00 11.21 LIG 0.20  C 
BRANCH 5 6
ATOM      6  CB  THR D   7      17.995  22.607  44.871  1.00 12.81 LIG 0.15  C 
ATOM      7  CG2 THR D   7      16.790  22.300  45.745  1.00 13.23 LIG 0.04  C 
BRANCH 6 8
ATOM      8 OG1  THR D   7      17.816  21.987  43.591  1.00 15.88 LIG-0.39  OA
ATOM      9 HG1  THR D   7      17.686  21.163  43.694  1.00 15.88 LIG 0.21  HD
ENDBRANCH 6 8
ENDBRANCH 5 6
BRANCH 5 10
ATOM     10  N   THR D   7      19.394  24.577  45.336  1.00 13.33 LIG-0.34  N 
ATOM     11  C   PRO D   6      20.153  25.536  44.820  1.00 13.20 LIG 0.24  C 
ATOM     12 O    PRO D   6      19.854  26.162  43.803  1.00 14.28 LIG-0.27  OA
ATOM     13 H    THR D   7      19.570  24.172  46.074  1.00 13.33 LIG 0.16  HD
BRANCH 11 14
ATOM     14  CA  PRO D   6      21.439  25.862  45.578  1.00 20.50 LIG 0.18  C 
ATOM     15  CB  PRO D   6      21.092  26.639  46.848  1.00 26.18 LIG 0.04  C 
ATOM     16  CG  PRO D   6      21.301  28.069  46.484  1.00 30.25 LIG 0.02  C 
ATOM     17  CD  PRO D   6      22.479  28.065  45.567  1.00 26.41 LIG 0.13  C 
ATOM     18  N   PRO D   6      22.325  26.786  44.857  1.00 20.28 LIG-0.34  N 
ATOM     19  C   TYR D   5      22.867  26.514  43.663  1.00 26.16 LIG 0.26  C 
ATOM     20 O    TYR D   5      22.680  25.450  43.077  1.00 27.79 LIG-0.27  OA
BRANCH 19 21
ATOM     21  CA  TYR D   5      23.750  27.595  43.043  1.00 28.17 LIG 0.40  C 
ATOM     22  N   TYR D   5      25.086  27.073  42.788  1.00 34.40 LIG 0.61  N 
BRANCH 21 23
ATOM     23  CB  TYR D   5      23.126  28.120  41.747  1.00 23.65 LIG 0.09  C 
BRANCH 23 24
ATOM     24  CG  TYR D   5      22.682  27.032  40.793  1.00 24.31 LIG-0.06  A 
ATOM     25  CD2 TYR D   5      21.334  26.772  40.586  1.00 24.91 LIG 0.01  A 
ATOM     26  CE2 TYR D   5      20.921  25.780  39.719  1.00 24.35 LIG 0.04  A 
ATOM     27  CZ  TYR D   5      21.860  25.031  39.043  1.00 25.18 LIG 0.07  A 
ATOM     28  CE1 TYR D   5      23.208  25.266  39.229  1.00 25.68 LIG 0.04  A 
ATOM     29  CD1 TYR D   5      23.611  26.263  40.101  1.00 25.57 LIG 0.01  A 
BRANCH 27 30
ATOM     30 OH   TYR D   5      21.440  24.046  38.179  1.00 28.89 LIG-0.36  OA
ATOM     31 HH   TYR D   5      21.008  23.465  38.605  1.00 28.89 LIG 0.22  HD
ENDBRANCH 27 30
ENDBRANCH 23 24
ENDBRANCH 21 23
ENDBRANCH 19 21
ENDBRANCH 11 14
ENDBRANCH 5 10
ENDBRANCH 1 5
BRANCH 3 32
ATOM     32  CA  SER D   8      14.828  25.876  44.659  1.00  7.80 LIG 0.20  C 
BRANCH 32 33
ATOM     33  CB  SER D   8      14.181  26.554  43.457  1.00  7.43 LIG 0.20  C 
BRANCH 33 34
ATOM     34 OG   SER D   8      14.406  27.947  43.476  1.00  7.87 LIG-0.40  OA
ATOM     35 HG   SER D   8      15.191  28.107  43.226  1.00  7.87 LIG 0.21  HD
ENDBRANCH 33 34
ENDBRANCH 32 33
BRANCH 32 36
ATOM     36  C   SER D   8      13.953  24.737  45.130  1.00  7.75 LIG 0.24  C 
ATOM     37 O    SER D   8      14.303  23.567  44.979  1.00  8.57 LIG-0.27  OA
ATOM     38  N   ILE D   9      12.808  25.080  45.700  1.00  7.82 LIG-0.35  N 
ATOM     39 H    ILE D   9      12.583  25.889  45.883  1.00  7.82 LIG 0.16  HD
BRANCH 38 40
ATOM     40  CA  ILE D   9      11.824  24.079  46.065  1.00  8.70 LIG 0.18  C 
BRANCH 40 41
ATOM     41  C   ILE D   9      10.444  24.632  45.771  1.00  9.89 LIG 0.24  C 
ATOM     42  N   ILE D  10       9.567  23.764  45.284  1.00  9.26 LIG-0.34  N 
ATOM     43 H    ILE D  10       9.748  22.938  45.130  1.00  9.26 LIG 0.16  HD
ATOM     44 O    ILE D   9      10.192  25.826  45.941  1.00 11.43 LIG-0.27  OA
BRANCH 42 45
ATOM     45  CA  ILE D  10       8.200  24.143  44.964  1.00 10.77 LIG 0.19  C 
BRANCH 45 46
ATOM     46  CB  ILE D  10       7.937  24.075  43.444  1.00 11.26 LIG 0.01  C 
ATOM     47  CG2 ILE D  10       8.295  25.402  42.780  1.00 13.36 LIG 0.01  C 
BRANCH 46 48
ATOM     48  CG1 ILE D  10       8.724  22.923  42.810  1.00 10.59 LIG 0.00  C 
ATOM     49  CD1 ILE D  10       8.151  22.444  41.490  1.00 13.29 LIG 0.01  C 
ENDBRANCH 46 48
ENDBRANCH 45 46
BRANCH 45 50
ATOM     50  C   ILE D  10       7.210  23.243  45.690  1.00 10.61 LIG 0.20  C 
ATOM     51 O    ILE D  10       6.066  23.632  45.951  1.00 10.13 LIG-0.65  OA
ATOM     52 OXT  ILE D  10       7.566  22.116  46.033  1.00 13.38 LIG-0.65  OA
ENDBRANCH 45 50
ENDBRANCH 42 45
ENDBRANCH 40 41
BRANCH 40 53
ATOM     53  CB  ILE D   9      11.959  23.652  47.534  1.00  9.74 LIG 0.01  C 
ATOM     54  CG2 ILE D   9      10.701  22.924  47.995  1.00 14.85 LIG 0.01  C 
BRANCH 53 55
ATOM     55  CG1 ILE D   9      13.195  22.769  47.685  1.00  9.98 LIG 0.00  C 
ATOM     56  CD1 ILE D   9      14.387  23.472  48.294  1.00 13.31 LIG 0.01  C 
ENDBRANCH 53 55
ENDBRANCH 40 53
ENDBRANCH 38 40
ENDBRANCH 32 36
ENDBRANCH 3 32
TORSDOF 21
ENDMDL
MODEL 7
USER: ADFR SOLUTION from run 46
USER: SCORE 16.934715 LL:  -5.537 LR: -13.542 RR:   0.000 FEB:  -7.277
USER: RMSD 5.175991
USER: SEED 45
USER: STATUS no improvement in best in 3 clusters for 5 generations
USER: GENES 23
USER: genes 0 Translation |==|  0.54853 0.56531 0.59782
USER: genes 1 Rotation |==|  0.37649 0.54818 0.56315 0.97795
USER: genes 2 Torsion [N]-C--CA-[N] |==|  0.95591
USER: genes 3 Torsion [C]-CA--CB-[CG2] |==|  0.34642
USER: genes 4 Torsion [CA]-CB--OG1-[HG1] |==|  0.12836
USER: genes 5 Torsion [C]-CA--N-[C] |==|  0.77847
USER: genes 6 Torsion [N]-C--CA-[CB] |==|  0.57585
USER: genes 7 Torsion [N]-C--CA-[N] |==|  0.36851
USER: genes 8 Torsion [C]-CA--CB-[CG] |==|  0.05364
USER: genes 9 Torsion [CA]-CB--CG-[CD1] |==|  0.71673
USER: genes 10 Torsion [CE2]-CZ--OH-[HH] |==|  0.12052
USER: genes 11 Torsion [C]-N--CA-[CB] |==|  0.24900
USER: genes 12 Torsion [N]-CA--CB-[OG] |==|  0.78887
USER: genes 13 Torsion [CA]-CB--OG-[HG] |==|  0.13934
USER: genes 14 Torsion [N]-CA--C-[N] |==|  0.48844
USER: genes 15 Torsion [C]-N--CA-[CB] |==|  0.26667
USER: genes 16 Torsion [N]-CA--C-[N] |==|  0.39499
USER: genes 17 Torsion [C]-N--CA-[CB] |==|  0.32253
USER: genes 18 Torsion [N]-CA--CB-[CG2] |==|  0.78411
USER: genes 19 Torsion [CA]-CB--CG1-[CD1] |==|  0.49339
USER: genes 20 Torsion [N]-CA--C-[O] |==|  0.93284
USER: genes 21 Torsion [N]-CA--CB-[CG1] |==|  0.77562
USER: genes 22 Torsion [CA]-CB--CG1-[CD1] |==|  0.28123
ROOT
ATOM      1  C   THR D   7      17.162  26.336  44.323  1.00  9.65 LIG 0.24  C 
ATOM      2 O    THR D   7      17.214  27.520  44.687  1.00 10.36 LIG-0.27  OA
ATOM      3  N   SER D   8      16.031  25.642  44.230  1.00  8.02 LIG-0.34  N 
ATOM      4 H    SER D   8      15.975  24.867  43.862  1.00  8.02 LIG 0.16  HD
ENDROOT
BRANCH 1 5
ATOM      5  CA  THR D   7      18.422  25.580  43.934  1.00 11.21 LIG 0.20  C 
BRANCH 5 6
ATOM      6  CB  THR D   7      18.913  26.088  42.564  1.00 12.81 LIG 0.15  C 
ATOM      7  CG2 THR D   7      20.356  26.560  42.638  1.00 13.23 LIG 0.04  C 
BRANCH 6 8
ATOM      8 OG1  THR D   7      18.815  25.030  41.602  1.00 15.88 LIG-0.39  OA
ATOM      9 HG1  THR D   7      18.066  24.656  41.672  1.00 15.88 LIG 0.21  HD
ENDBRANCH 6 8
ENDBRANCH 5 6
BRANCH 5 10
ATOM     10  N   THR D   7      18.188  24.145  43.889  1.00 13.33 LIG-0.34  N 
ATOM     11  C   PRO D   6      18.167  23.403  44.989  1.00 13.20 LIG 0.24  C 
ATOM     12 O    PRO D   6      18.266  23.871  46.123  1.00 14.28 LIG-0.27  OA
ATOM     13 H    THR D   7      18.067  23.831  43.098  1.00 13.33 LIG 0.16  HD
BRANCH 11 14
ATOM     14  CA  PRO D   6      17.979  21.900  44.788  1.00 20.50 LIG 0.18  C 
ATOM     15  CB  PRO D   6      17.315  21.305  46.030  1.00 26.18 LIG 0.04  C 
ATOM     16  CG  PRO D   6      18.443  20.750  46.830  1.00 30.25 LIG 0.02  C 
ATOM     17  CD  PRO D   6      19.407  20.220  45.822  1.00 26.41 LIG 0.13  C 
ATOM     18  N   PRO D   6      19.243  21.158  44.701  1.00 20.28 LIG-0.34  N 
ATOM     19  C   TYR D   5      20.163  21.369  43.750  1.00 26.16 LIG 0.26  C 
ATOM     20 O    TYR D   5      20.012  22.194  42.852  1.00 27.79 LIG-0.27  OA
BRANCH 19 21
ATOM     21  CA  TYR D   5      21.433  20.523  43.819  1.00 28.17 LIG 0.40  C 
ATOM     22  N   TYR D   5      21.742  19.965  42.508  1.00 34.40 LIG 0.61  N 
BRANCH 21 23
ATOM     23  CB  TYR D   5      22.608  21.359  44.332  1.00 23.65 LIG 0.09  C 
BRANCH 23 24
ATOM     24  CG  TYR D   5      22.194  22.615  45.069  1.00 24.31 LIG-0.06  A 
ATOM     25  CD2 TYR D   5      21.743  22.555  46.381  1.00 24.91 LIG 0.01  A 
ATOM     26  CE2 TYR D   5      21.361  23.696  47.059  1.00 24.35 LIG 0.04  A 
ATOM     27  CZ  TYR D   5      21.428  24.920  46.428  1.00 25.18 LIG 0.07  A 
ATOM     28  CE1 TYR D   5      21.872  25.010  45.123  1.00 25.68 LIG 0.04  A 
ATOM     29  CD1 TYR D   5      22.251  23.860  44.452  1.00 25.57 LIG 0.01  A 
BRANCH 27 30
ATOM     30 OH   TYR D   5      21.048  26.052  47.111  1.00 28.89 LIG-0.36  OA
ATOM     31 HH   TYR D   5      21.358  26.027  47.891  1.00 28.89 LIG 0.22  HD
ENDBRANCH 27 30
ENDBRANCH 23 24
ENDBRANCH 21 23
ENDBRANCH 19 21
ENDBRANCH 11 14
ENDBRANCH 5 10
ENDBRANCH 1 5
BRANCH 3 32
ATOM     32  CA  SER D   8      14.777  26.145  44.750  1.00  7.80 LIG 0.20  C 
BRANCH 32 33
ATOM     33  CB  SER D   8      14.036  26.957  43.693  1.00  7.43 LIG 0.20  C 
BRANCH 33 34
ATOM     34 OG   SER D   8      14.615  28.233  43.533  1.00  7.87 LIG-0.40  OA
ATOM     35 HG   SER D   8      15.444  28.153  43.428  1.00  7.87 LIG 0.21  HD
ENDBRANCH 33 34
ENDBRANCH 32 33
BRANCH 32 36
ATOM     36  C   SER D   8      13.927  24.968  45.172  1.00  7.75 LIG 0.24  C 
ATOM     37 O    SER D   8      14.304  23.813  44.975  1.00  8.57 LIG-0.27  OA
ATOM     38  N   ILE D   9      12.775  25.262  45.752  1.00  7.82 LIG-0.35  N 
ATOM     39 H    ILE D   9      12.530  26.058  45.968  1.00  7.82 LIG 0.16  HD
BRANCH 38 40
ATOM     40  CA  ILE D   9      11.813  24.225  46.074  1.00  8.70 LIG 0.18  C 
BRANCH 40 41
ATOM     41  C   ILE D   9      10.422  24.749  45.778  1.00  9.89 LIG 0.24  C 
ATOM     42  N   ILE D  10       9.571  23.871  45.265  1.00  9.26 LIG-0.34  N 
ATOM     43 H    ILE D  10       9.775  23.053  45.096  1.00  9.26 LIG 0.16  HD
ATOM     44 O    ILE D   9      10.139  25.934  45.970  1.00 11.43 LIG-0.27  OA
BRANCH 42 45
ATOM     45  CA  ILE D  10       8.199  24.222  44.939  1.00 10.77 LIG 0.19  C 
BRANCH 45 46
ATOM     46  CB  ILE D  10       7.931  24.106  43.423  1.00 11.26 LIG 0.01  C 
ATOM     47  CG2 ILE D  10       8.508  25.311  42.684  1.00 13.36 LIG 0.01  C 
BRANCH 46 48
ATOM     48  CG1 ILE D  10       8.515  22.802  42.870  1.00 10.59 LIG 0.00  C 
ATOM     49  CD1 ILE D  10       8.242  22.587  41.393  1.00 13.29 LIG 0.01  C 
ENDBRANCH 46 48
ENDBRANCH 45 46
BRANCH 45 50
ATOM     50  C   ILE D  10       7.223  23.332  45.695  1.00 10.61 LIG 0.20  C 
ATOM     51 O    ILE D  10       7.561  22.211  46.097  1.00 10.13 LIG-0.65  OA
ATOM     52 OXT  ILE D  10       6.077  23.732  45.893  1.00 13.38 LIG-0.65  OA
ENDBRANCH 45 50
ENDBRANCH 42 45
ENDBRANCH 40 41
BRANCH 40 53
ATOM     53  CB  ILE D   9      11.941  23.757  47.532  1.00  9.74 LIG 0.01  C 
ATOM     54  CG2 ILE D   9      10.631  23.141  48.010  1.00 14.85 LIG 0.01  C 
BRANCH 53 55
ATOM     55  CG1 ILE D   9      13.092  22.761  47.637  1.00  9.98 LIG 0.00  C 
ATOM     56  CD1 ILE D   9      14.369  23.348  48.195  1.00 13.31 LIG 0.01  C 
ENDBRANCH 53 55
ENDBRANCH 40 53
ENDBRANCH 38 40
ENDBRANCH 32 36
ENDBRANCH 3 32
TORSDOF 21
ENDMDL
MODEL 8
USER: ADFR SOLUTION from run 67
USER: SCORE 15.664834 LL:  -4.323 LR: -13.501 RR:   0.000 FEB:  -7.237
USER: RMSD 4.685569
USER: SEED 66
USER: STATUS no improvement in best in 4 clusters for 5 generations
USER: GENES 23
USER: genes 0 Translation |==|  0.54801 0.55965 0.60041
USER: genes 1 Rotation |==|  0.36591 0.54283 0.56446 0.97543
USER: genes 2 Torsion [N]-C--CA-[N] |==|  0.96552
USER: genes 3 Torsion [C]-CA--CB-[CG2] |==|  0.36350
USER: genes 4 Torsion [CA]-CB--OG1-[HG1] |==|  0.10977
USER: genes 5 Torsion [C]-CA--N-[C] |==|  0.77145
USER: genes 6 Torsion [N]-C--CA-[CB] |==|  0.57517
USER: genes 7 Torsion [N]-C--CA-[N] |==|  0.40589
USER: genes 8 Torsion [C]-CA--CB-[CG] |==|  0.58603
USER: genes 9 Torsion [CA]-CB--CG-[CD1] |==|  0.79078
USER: genes 10 Torsion [CE2]-CZ--OH-[HH] |==|  0.92042
USER: genes 11 Torsion [C]-N--CA-[CB] |==|  0.24590
USER: genes 12 Torsion [N]-CA--CB-[OG] |==|  0.78594
USER: genes 13 Torsion [CA]-CB--OG-[HG] |==|  0.13257
USER: genes 14 Torsion [N]-CA--C-[N] |==|  0.47956
USER: genes 15 Torsion [C]-N--CA-[CB] |==|  0.26509
USER: genes 16 Torsion [N]-CA--C-[N] |==|  0.38174
USER: genes 17 Torsion [C]-N--CA-[CB] |==|  0.33591
USER: genes 18 Torsion [N]-CA--CB-[CG2] |==|  0.79150
USER: genes 19 Torsion [CA]-CB--CG1-[CD1] |==|  0.49141
USER: genes 20 Torsion [N]-CA--C-[O] |==|  0.42363
USER: genes 21 Torsion [N]-CA--CB-[CG1] |==|  0.79685
USER: genes 22 Torsion [CA]-CB--CG1-[CD1] |==|  0.27725
ROOT
ATOM      1  C   THR D   7      17.147  26.255  44.385  1.00  9.65 LIG 0.24  C 
ATOM      2 O    THR D   7      17.172  27.454  44.703  1.00 10.36 LIG-0.27  OA
ATOM      3  N   SER D   8      16.030  25.541  44.293  1.00  8.02 LIG-0.34  N 
ATOM      4 H    SER D   8      15.994  24.750  43.956  1.00  8.02 LIG 0.16  HD
ENDROOT
BRANCH 1 5
ATOM      5  CA  THR D   7      18.428  25.505  44.056  1.00 11.21 LIG 0.20  C 
BRANCH 5 6
ATOM      6  CB  THR D   7      18.991  26.028  42.720  1.00 12.81 LIG 0.15  C 
ATOM      7  CG2 THR D   7      20.469  26.360  42.838  1.00 13.23 LIG 0.04  C 
BRANCH 6 8
ATOM      8 OG1  THR D   7      18.814  25.030  41.707  1.00 15.88 LIG-0.39  OA
ATOM      9 HG1  THR D   7      18.066  24.661  41.805  1.00 15.88 LIG 0.21  HD
ENDBRANCH 6 8
ENDBRANCH 5 6
BRANCH 5 10
ATOM     10  N   THR D   7      18.199  24.071  43.983  1.00 13.33 LIG-0.34  N 
ATOM     11  C   PRO D   6      18.169  23.308  45.070  1.00 13.20 LIG 0.24  C 
ATOM     12 O    PRO D   6      18.256  23.757  46.213  1.00 14.28 LIG-0.27  OA
ATOM     13 H    THR D   7      18.087  23.771  43.185  1.00 13.33 LIG 0.16  HD
BRANCH 11 14
ATOM     14  CA  PRO D   6      17.988  21.809  44.840  1.00 20.50 LIG 0.18  C 
ATOM     15  CB  PRO D   6      17.320  21.188  46.067  1.00 26.18 LIG 0.04  C 
ATOM     16  CG  PRO D   6      18.445  20.624  46.864  1.00 30.25 LIG 0.02  C 
ATOM     17  CD  PRO D   6      19.417  20.116  45.851  1.00 26.41 LIG 0.13  C 
ATOM     18  N   PRO D   6      19.256  21.074  44.746  1.00 20.28 LIG-0.34  N 
ATOM     19  C   TYR D   5      20.180  21.305  43.805  1.00 26.16 LIG 0.26  C 
ATOM     20 O    TYR D   5      20.031  22.146  42.922  1.00 27.79 LIG-0.27  OA
BRANCH 19 21
ATOM     21  CA  TYR D   5      21.453  20.463  43.865  1.00 28.17 LIG 0.40  C 
ATOM     22  N   TYR D   5      21.949  20.196  42.522  1.00 34.40 LIG 0.61  N 
BRANCH 21 23
ATOM     23  CB  TYR D   5      22.525  21.170  44.698  1.00 23.65 LIG 0.09  C 
BRANCH 23 24
ATOM     24  CG  TYR D   5      23.942  20.875  44.256  1.00 24.31 LIG-0.06  A 
ATOM     25  CD2 TYR D   5      24.678  21.815  43.547  1.00 24.91 LIG 0.01  A 
ATOM     26  CE2 TYR D   5      25.971  21.552  43.138  1.00 24.35 LIG 0.04  A 
ATOM     27  CZ  TYR D   5      26.547  20.336  43.439  1.00 25.18 LIG 0.07  A 
ATOM     28  CE1 TYR D   5      25.839  19.381  44.142  1.00 25.68 LIG 0.04  A 
ATOM     29  CD1 TYR D   5      24.544  19.655  44.547  1.00 25.57 LIG 0.01  A 
BRANCH 27 30
ATOM     30 OH   TYR D   5      27.836  20.082  43.030  1.00 28.89 LIG-0.36  OA
ATOM     31 HH   TYR D   5      27.999  20.518  42.330  1.00 28.89 LIG 0.22  HD
ENDBRANCH 27 30
ENDBRANCH 23 24
ENDBRANCH 21 23
ENDBRANCH 19 21
ENDBRANCH 11 14
ENDBRANCH 5 10
ENDBRANCH 1 5
BRANCH 3 32
ATOM     32  CA  SER D   8      14.756  26.043  44.764  1.00  7.80 LIG 0.20  C 
BRANCH 32 33
ATOM     33  CB  SER D   8      14.041  26.824  43.667  1.00  7.43 LIG 0.20  C 
BRANCH 33 34
ATOM     34 OG   SER D   8      14.598  28.110  43.512  1.00  7.87 LIG-0.40  OA
ATOM     35 HG   SER D   8      15.435  28.050  43.474  1.00  7.87 LIG 0.21  HD
ENDBRANCH 33 34
ENDBRANCH 32 33
BRANCH 32 36
ATOM     36  C   SER D   8      13.904  24.868  45.187  1.00  7.75 LIG 0.24  C 
ATOM     37 O    SER D   8      14.271  23.712  44.975  1.00  8.57 LIG-0.27  OA
ATOM     38  N   ILE D   9      12.761  25.164  45.784  1.00  7.82 LIG-0.35  N 
ATOM     39 H    ILE D   9      12.525  25.960  46.010  1.00  7.82 LIG 0.16  HD
BRANCH 38 40
ATOM     40  CA  ILE D   9      11.796  24.131  46.110  1.00  8.70 LIG 0.18  C 
BRANCH 40 41
ATOM     41  C   ILE D   9      10.405  24.672  45.851  1.00  9.89 LIG 0.24  C 
ATOM     42  N   ILE D  10       9.565  23.839  45.251  1.00  9.26 LIG-0.34  N 
ATOM     43 H    ILE D  10       9.776  23.041  45.009  1.00  9.26 LIG 0.16  HD
ATOM     44 O    ILE D   9      10.112  25.832  46.147  1.00 11.43 LIG-0.27  OA
BRANCH 42 45
ATOM     45  CA  ILE D  10       8.193  24.210  44.946  1.00 10.77 LIG 0.19  C 
BRANCH 45 46
ATOM     46  CB  ILE D  10       7.906  24.116  43.431  1.00 11.26 LIG 0.01  C 
ATOM     47  CG2 ILE D  10       8.545  25.289  42.692  1.00 13.36 LIG 0.01  C 
BRANCH 46 48
ATOM     48  CG1 ILE D  10       8.410  22.783  42.868  1.00 10.59 LIG 0.00  C 
ATOM     49  CD1 ILE D  10       8.097  22.584  41.398  1.00 13.29 LIG 0.01  C 
ENDBRANCH 46 48
ENDBRANCH 45 46
BRANCH 45 50
ATOM     50  C   ILE D  10       7.216  23.322  45.702  1.00 10.61 LIG 0.20  C 
ATOM     51 O    ILE D  10       6.088  23.727  46.006  1.00 10.13 LIG-0.65  OA
ATOM     52 OXT  ILE D  10       7.566  22.188  46.027  1.00 13.38 LIG-0.65  OA
ENDBRANCH 45 50
ENDBRANCH 42 45
ENDBRANCH 40 41
BRANCH 40 53
ATOM     53  CB  ILE D   9      11.950  23.640  47.558  1.00  9.74 LIG 0.01  C 
ATOM     54  CG2 ILE D   9      10.712  22.861  47.990  1.00 14.85 LIG 0.01  C 
BRANCH 53 55
ATOM     55  CG1 ILE D   9      13.208  22.782  47.664  1.00  9.98 LIG 0.00  C 
ATOM     56  CD1 ILE D   9      14.405  23.508  48.234  1.00 13.31 LIG 0.01  C 
ENDBRANCH 53 55
ENDBRANCH 40 53
ENDBRANCH 38 40
ENDBRANCH 32 36
ENDBRANCH 3 32
TORSDOF 21
ENDMDL
