MODEL 1
USER: ADFR SOLUTION from run 117
USER: SCORE 21.118457 LL:  -4.540 LR: -19.021 RR:   0.000 FEB:  -9.177
USER: RMSD 4.852821
USER: SEED 116
USER: STATUS searching
USER: GENES 35
USER: genes 0 Translation |==|  0.41450 0.53742 0.38244
USER: genes 1 Rotation |==|  0.53319 0.47587 0.50226 0.99831
USER: genes 2 Torsion [N]-C--CA-[N] |==|  0.36843
USER: genes 3 Torsion [C]-CA--CB-[CG] |==|  0.30547
USER: genes 4 Torsion [CA]-CB--CG-[CD] |==|  0.31264
USER: genes 5 Torsion [CB]-CG--CD-[NE] |==|  0.27476
USER: genes 6 Torsion [CG]-CD--NE-[HE] |==|  0.71971
USER: genes 7 Torsion [C]-CA--N-[C] |==|  0.63794
USER: genes 8 Torsion [N]-C--CA-[N] |==|  0.96989
USER: genes 9 Torsion [C]-CA--CB-[CG] |==|  0.46245
USER: genes 10 Torsion [CA]-CB--CG-[CD] |==|  0.24754
USER: genes 11 Torsion [CB]-CG--CD-[NE] |==|  0.15559
USER: genes 12 Torsion [CG]-CD--NE-[HE] |==|  0.85424
USER: genes 13 Torsion [C]-CA--N-[C] |==|  0.80556
USER: genes 14 Torsion [N]-C--CA-[N] |==|  0.49911
USER: genes 15 Torsion [C]-CA--CB-[CG2] |==|  0.58203
USER: genes 16 Torsion [CA]-CB--OG1-[HG1] |==|  0.21736
USER: genes 17 Torsion [C]-N--CA-[CB] |==|  0.28072
USER: genes 18 Torsion [N]-CA--C-[N] |==|  0.39333
USER: genes 19 Torsion [C]-N--CA-[CB] |==|  0.24091
USER: genes 20 Torsion [N]-CA--CB-[CG2] |==|  0.48378
USER: genes 21 Torsion [CA]-CB--OG1-[HG1] |==|  0.26223
USER: genes 22 Torsion [N]-CA--C-[N] |==|  0.36753
USER: genes 23 Torsion [C]-N--CA-[C] |==|  0.78798
USER: genes 24 Torsion [N]-CA--C-[N] |==|  0.43487
USER: genes 25 Torsion [C]-N--CA-[C] |==|  0.56155
USER: genes 26 Torsion [N]-CA--CB-[CG] |==|  0.63419
USER: genes 27 Torsion [CA]-CB--CG-[CD1] |==|  0.96790
USER: genes 28 Torsion [N]-CA--C-[O] |==|  0.90090
USER: genes 29 Torsion [N]-CA--CB-[CG] |==|  0.58789
USER: genes 30 Torsion [CA]-CB--CG-[CD] |==|  0.71815
USER: genes 31 Torsion [CB]-CG--CD-[NE2] |==|  0.29064
USER: genes 32 Torsion [N]-CA--CB-[CG] |==|  0.52169
USER: genes 33 Torsion [CA]-CB--CG-[CD] |==|  0.45060
USER: genes 34 Torsion [CB]-CG--CD-[OE1] |==|  0.97163
ROOT
ATOM      1  C   ARG C   6      19.984  19.970  22.741  1.00 27.90 LIG 0.24  C 
ATOM      2 O    ARG C   6      19.918  20.881  21.920  1.00 25.69 LIG-0.27  OA
ATOM      3  N   GLU C   7      20.836  19.979  23.760  1.00 23.63 LIG-0.35  N 
ATOM      4 H    GLU C   7      20.816  19.412  24.407  1.00 23.63 LIG 0.16  HD
ENDROOT
BRANCH 1 5
ATOM      5  CA  ARG C   6      19.060  18.757  22.636  1.00 28.24 LIG 0.18  C 
BRANCH 5 6
ATOM      6  CB  ARG C   6      19.540  17.851  21.500  1.00 28.37 LIG 0.04  C 
BRANCH 6 7
ATOM      7  CG  ARG C   6      20.133  16.543  21.970  1.00 35.92 LIG 0.02  C 
BRANCH 7 8
ATOM      8  CD  ARG C   6      19.251  15.378  21.565  1.00 41.81 LIG 0.14  C 
BRANCH 8 9
ATOM      9  NE  ARG C   6      19.763  14.734  20.357  1.00 46.88 LIG-0.23  N 
ATOM     10 HE   ARG C   6      19.382  14.922  19.609  1.00 46.88 LIG 0.18  HD
ATOM     11  CZ  ARG C   6      20.779  13.877  20.337  1.00 47.79 LIG 0.67  C 
ATOM     12  NH2 ARG C   6      21.177  13.346  19.188  1.00 52.15 LIG-0.23  N 
ATOM     13  NH1 ARG C   6      21.396  13.551  21.464  1.00 41.40 LIG-0.23  N 
ATOM     14 1HH2 ARG C   6      20.777  13.556  18.457  1.00 52.15 LIG 0.17  HD
ATOM     15 2HH2 ARG C   6      21.834  12.792  19.175  1.00 52.15 LIG 0.17  HD
ATOM     16 2HH1 ARG C   6      22.053  12.996  21.450  1.00 41.40 LIG 0.17  HD
ATOM     17 1HH1 ARG C   6      21.139  13.894  22.209  1.00 41.40 LIG 0.17  HD
ENDBRANCH 8 9
ENDBRANCH 7 8
ENDBRANCH 6 7
ENDBRANCH 5 6
BRANCH 5 18
ATOM     18  N   ARG C   6      17.677  19.154  22.407  1.00 41.74 LIG-0.35  N 
ATOM     19  C   ARG C   5      16.674  18.673  23.134  1.00 53.56 LIG 0.24  C 
ATOM     20 O    ARG C   5      16.832  17.860  24.043  1.00 51.79 LIG-0.27  OA
ATOM     21 H    ARG C   6      17.575  19.719  21.767  1.00 41.74 LIG 0.16  HD
BRANCH 19 22
ATOM     22  CA  ARG C   5      15.284  19.213  22.792  1.00 62.48 LIG 0.18  C 
BRANCH 22 23
ATOM     23  CB  ARG C   5      14.422  18.079  22.230  1.00 65.36 LIG 0.04  C 
BRANCH 23 24
ATOM     24  CG  ARG C   5      12.936  18.425  22.164  1.00 67.86 LIG 0.02  C 
BRANCH 24 25
ATOM     25  CD  ARG C   5      12.568  19.084  20.844  1.00 67.74 LIG 0.14  C 
BRANCH 25 26
ATOM     26  NE  ARG C   5      12.945  18.250  19.708  1.00 69.26 LIG-0.23  N 
ATOM     27 HE   ARG C   5      13.757  17.967  19.668  1.00 69.26 LIG 0.18  HD
ATOM     28  CZ  ARG C   5      12.117  17.898  18.732  1.00 72.53 LIG 0.67  C 
ATOM     29  NH1 ARG C   5      12.552  17.140  17.732  1.00 70.69 LIG-0.23  N 
ATOM     30  NH2 ARG C   5      10.853  18.301  18.755  1.00 74.37 LIG-0.23  N 
ATOM     31 2HH1 ARG C   5      12.015  16.913  17.100  1.00 70.69 LIG 0.17  HD
ATOM     32 1HH1 ARG C   5      13.370  16.878  17.716  1.00 70.69 LIG 0.17  HD
ATOM     33 1HH2 ARG C   5      10.570  18.790  19.403  1.00 74.37 LIG 0.17  HD
ATOM     34 2HH2 ARG C   5      10.317  18.073  18.123  1.00 74.37 LIG 0.17  HD
ENDBRANCH 25 26
ENDBRANCH 24 25
ENDBRANCH 23 24
ENDBRANCH 22 23
BRANCH 22 35
ATOM     35  N   ARG C   5      15.307  20.360  21.883  1.00 62.98 LIG-0.35  N 
ATOM     36  C   THR C   4      15.758  21.545  22.287  1.00 71.37 LIG 0.26  C 
ATOM     37 O    THR C   4      16.215  21.731  23.416  1.00 72.41 LIG-0.27  OA
ATOM     38 H    ARG C   5      15.011  20.199  21.092  1.00 62.98 LIG 0.16  HD
BRANCH 36 39
ATOM     39  CA  THR C   4      15.689  22.694  21.277  1.00 77.23 LIG 0.43  C 
ATOM     40  N   THR C   4      16.207  23.933  21.850  1.00 78.75 LIG 0.62  N 
BRANCH 39 41
ATOM     41  CB  THR C   4      16.463  22.291  19.994  1.00 73.87 LIG 0.16  C 
ATOM     42  CG2 THR C   4      17.049  23.516  19.303  1.00 73.94 LIG 0.04  C 
BRANCH 41 43
ATOM     43 OG1  THR C   4      17.520  21.381  20.325  1.00 74.59 LIG-0.39  OA
ATOM     44 HG1  THR C   4      17.202  20.612  20.442  1.00 74.59 LIG 0.21  HD
ENDBRANCH 41 43
ENDBRANCH 39 41
ENDBRANCH 36 39
ENDBRANCH 22 35
ENDBRANCH 19 22
ENDBRANCH 5 18
ENDBRANCH 1 5
BRANCH 3 45
ATOM     45  CA  GLU C   7      21.896  20.972  23.864  1.00 24.11 LIG 0.18  C 
BRANCH 45 46
ATOM     46  C   GLU C   7      23.173  20.286  24.319  1.00 31.12 LIG 0.24  C 
ATOM     47 O    GLU C   7      23.137  19.389  25.161  1.00 26.64 LIG-0.27  OA
ATOM     48  N   THR C   8      24.306  20.709  23.768  1.00 26.11 LIG-0.34  N 
ATOM     49 H    THR C   8      24.355  21.346  23.193  1.00 26.11 LIG 0.16  HD
BRANCH 48 50
ATOM     50  CA  THR C   8      25.586  20.098  24.116  1.00 18.32 LIG 0.20  C 
BRANCH 50 51
ATOM     51  CB  THR C   8      25.872  18.868  23.238  1.00 19.43 LIG 0.15  C 
ATOM     52  CG2 THR C   8      27.270  18.329  23.511  1.00 20.66 LIG 0.04  C 
BRANCH 51 53
ATOM     53 OG1  THR C   8      24.906  17.854  23.527  1.00 16.70 LIG-0.39  OA
ATOM     54 HG1  THR C   8      24.270  17.909  22.982  1.00 16.70 LIG 0.21  HD
ENDBRANCH 51 53
ENDBRANCH 50 51
BRANCH 50 55
ATOM     55  C   THR C   8      26.736  21.068  23.957  1.00 17.75 LIG 0.24  C 
ATOM     56  N   GLN C   9      27.594  21.138  24.967  1.00 18.17 LIG-0.35  N 
ATOM     57 H    GLN C   9      27.514  20.700  25.703  1.00 18.17 LIG 0.16  HD
ATOM     58 O    THR C   8      26.860  21.728  22.932  1.00 18.31 LIG-0.27  OA
BRANCH 56 59
ATOM     59  CA  GLN C   9      28.770  21.996  24.889  1.00 20.01 LIG 0.18  C 
BRANCH 59 60
ATOM     60  C   GLN C   9      29.818  21.329  23.997  1.00 23.96 LIG 0.24  C 
ATOM     61 O    GLN C   9      29.808  20.110  23.835  1.00 22.16 LIG-0.27  OA
ATOM     62  N   LEU C  10      30.718  22.128  23.427  1.00 18.63 LIG-0.34  N 
ATOM     63 H    LEU C  10      30.841  22.947  23.659  1.00 18.63 LIG 0.16  HD
BRANCH 62 64
ATOM     64  CA  LEU C  10      31.588  21.681  22.345  1.00 17.73 LIG 0.18  C 
BRANCH 64 65
ATOM     65  CB  LEU C  10      30.826  21.764  21.009  1.00 25.34 LIG 0.04  C 
BRANCH 65 66
ATOM     66  CG  LEU C  10      30.818  20.598  20.031  1.00 39.39 LIG-0.02  C 
ATOM     67  CD1 LEU C  10      31.840  19.546  20.408  1.00 48.08 LIG 0.01  C 
ATOM     68  CD2 LEU C  10      29.426  20.005  19.978  1.00 37.51 LIG 0.01  C 
ENDBRANCH 65 66
ENDBRANCH 64 65
BRANCH 64 69
ATOM     69  C   LEU C  10      32.836  22.533  22.235  1.00 24.54 LIG 0.20  C 
ATOM     70 O    LEU C  10      32.803  23.749  22.461  1.00 20.83 LIG-0.65  OA
ATOM     71 OXT  LEU C  10      33.902  22.024  21.872  1.00 16.98 LIG-0.65  OA
ENDBRANCH 64 69
ENDBRANCH 62 64
ENDBRANCH 59 60
BRANCH 59 72
ATOM     72  CB  GLN C   9      29.326  22.269  26.289  1.00 28.41 LIG 0.04  C 
BRANCH 72 73
ATOM     73  CG  GLN C   9      29.975  23.628  26.422  1.00 32.25 LIG 0.10  C 
BRANCH 73 74
ATOM     74  CD  GLN C   9      31.487  23.561  26.366  1.00 38.89 LIG 0.21  C 
ATOM     75 OE1  GLN C   9      32.144  23.150  27.328  1.00 37.39 LIG-0.27  OA
ATOM     76  NE2 GLN C   9      32.052  23.964  25.232  1.00 32.46 LIG-0.37  N 
ATOM     77 22HE GLN C   9      32.907  23.944  25.146  1.00 32.46 LIG 0.16  HD
ATOM     78 21HE GLN C   9      31.561  24.244  24.583  1.00 32.46 LIG 0.16  HD
ENDBRANCH 73 74
ENDBRANCH 72 73
ENDBRANCH 59 72
ENDBRANCH 56 59
ENDBRANCH 50 55
ENDBRANCH 48 50
ENDBRANCH 45 46
BRANCH 45 79
ATOM     79  CB  GLU C   7      21.525  22.082  24.849  1.00 23.92 LIG 0.04  C 
BRANCH 79 80
ATOM     80  CG  GLU C   7      22.507  23.248  24.863  1.00 19.46 LIG 0.12  C 
BRANCH 80 81
ATOM     81  CD  GLU C   7      21.933  24.507  25.496  1.00 36.59 LIG 0.17  C 
ATOM     82 OE1  GLU C   7      20.712  24.544  25.754  1.00 43.07 LIG-0.65  OA
ATOM     83 OE2  GLU C   7      22.705  25.459  25.748  1.00 30.47 LIG-0.65  OA
ENDBRANCH 80 81
ENDBRANCH 79 80
ENDBRANCH 45 79
ENDBRANCH 3 45
TORSDOF 33
ENDMDL
MODEL 2
USER: ADFR SOLUTION from run 97
USER: SCORE 20.261445 LL:  -4.278 LR: -18.886 RR:   0.000 FEB:  -9.042
USER: RMSD 4.202660
USER: SEED 96
USER: STATUS searching
USER: GENES 35
USER: genes 0 Translation |==|  0.41303 0.55307 0.37884
USER: genes 1 Rotation |==|  0.57555 0.49093 0.49400 0.99414
USER: genes 2 Torsion [N]-C--CA-[N] |==|  0.47222
USER: genes 3 Torsion [C]-CA--CB-[CG] |==|  0.20196
USER: genes 4 Torsion [CA]-CB--CG-[CD] |==|  0.41170
USER: genes 5 Torsion [CB]-CG--CD-[NE] |==|  0.90668
USER: genes 6 Torsion [CG]-CD--NE-[HE] |==|  0.84737
USER: genes 7 Torsion [C]-CA--N-[C] |==|  0.80881
USER: genes 8 Torsion [N]-C--CA-[N] |==|  0.29843
USER: genes 9 Torsion [C]-CA--CB-[CG] |==|  0.33550
USER: genes 10 Torsion [CA]-CB--CG-[CD] |==|  0.67647
USER: genes 11 Torsion [CB]-CG--CD-[NE] |==|  0.64408
USER: genes 12 Torsion [CG]-CD--NE-[HE] |==|  0.13836
USER: genes 13 Torsion [C]-CA--N-[C] |==|  0.53174
USER: genes 14 Torsion [N]-C--CA-[N] |==|  0.29839
USER: genes 15 Torsion [C]-CA--CB-[CG2] |==|  0.75125
USER: genes 16 Torsion [CA]-CB--OG1-[HG1] |==|  0.03347
USER: genes 17 Torsion [C]-N--CA-[CB] |==|  0.26501
USER: genes 18 Torsion [N]-CA--C-[N] |==|  0.41277
USER: genes 19 Torsion [C]-N--CA-[CB] |==|  0.21349
USER: genes 20 Torsion [N]-CA--CB-[CG2] |==|  0.47476
USER: genes 21 Torsion [CA]-CB--OG1-[HG1] |==|  0.26097
USER: genes 22 Torsion [N]-CA--C-[N] |==|  0.35585
USER: genes 23 Torsion [C]-N--CA-[C] |==|  0.79565
USER: genes 24 Torsion [N]-CA--C-[N] |==|  0.41927
USER: genes 25 Torsion [C]-N--CA-[C] |==|  0.57132
USER: genes 26 Torsion [N]-CA--CB-[CG] |==|  0.68219
USER: genes 27 Torsion [CA]-CB--CG-[CD1] |==|  0.90530
USER: genes 28 Torsion [N]-CA--C-[O] |==|  0.89827
USER: genes 29 Torsion [N]-CA--CB-[CG] |==|  0.59371
USER: genes 30 Torsion [CA]-CB--CG-[CD] |==|  0.72299
USER: genes 31 Torsion [CB]-CG--CD-[NE2] |==|  0.27256
USER: genes 32 Torsion [N]-CA--CB-[CG] |==|  0.52891
USER: genes 33 Torsion [CA]-CB--CG-[CD] |==|  0.43029
USER: genes 34 Torsion [CB]-CG--CD-[OE1] |==|  0.96169
ROOT
ATOM      1  C   ARG C   6      19.938  20.322  22.676  1.00 27.90 LIG 0.24  C 
ATOM      2 O    ARG C   6      19.846  21.362  22.028  1.00 25.69 LIG-0.27  OA
ATOM      3  N   GLU C   7      20.850  20.143  23.626  1.00 23.63 LIG-0.35  N 
ATOM      4 H    GLU C   7      20.854  19.475  24.167  1.00 23.63 LIG 0.16  HD
ENDROOT
BRANCH 1 5
ATOM      5  CA  ARG C   6      18.978  19.159  22.426  1.00 28.24 LIG 0.18  C 
BRANCH 5 6
ATOM      6  CB  ARG C   6      19.751  17.985  21.821  1.00 28.37 LIG 0.04  C 
BRANCH 6 7
ATOM      7  CG  ARG C   6      20.651  17.275  22.807  1.00 35.92 LIG 0.02  C 
BRANCH 7 8
ATOM      8  CD  ARG C   6      20.760  15.801  22.467  1.00 41.81 LIG 0.14  C 
BRANCH 8 9
ATOM      9  NE  ARG C   6      19.507  15.304  21.903  1.00 46.88 LIG-0.23  N 
ATOM     10 HE   ARG C   6      18.788  15.418  22.359  1.00 46.88 LIG 0.18  HD
ATOM     11  CZ  ARG C   6      19.407  14.685  20.730  1.00 47.79 LIG 0.67  C 
ATOM     12  NH2 ARG C   6      18.223  14.272  20.297  1.00 52.15 LIG-0.23  N 
ATOM     13  NH1 ARG C   6      20.489  14.479  19.992  1.00 41.40 LIG-0.23  N 
ATOM     14 1HH2 ARG C   6      17.521  14.404  20.775  1.00 52.15 LIG 0.17  HD
ATOM     15 2HH2 ARG C   6      18.158  13.872  19.539  1.00 52.15 LIG 0.17  HD
ATOM     16 2HH1 ARG C   6      20.422  14.078  19.234  1.00 41.40 LIG 0.17  HD
ATOM     17 1HH1 ARG C   6      21.257  14.746  20.272  1.00 41.40 LIG 0.17  HD
ENDBRANCH 8 9
ENDBRANCH 7 8
ENDBRANCH 6 7
ENDBRANCH 5 6
BRANCH 5 18
ATOM     18  N   ARG C   6      17.886  19.545  21.541  1.00 41.74 LIG-0.35  N 
ATOM     19  C   ARG C   5      16.940  20.399  21.917  1.00 53.56 LIG 0.24  C 
ATOM     20 O    ARG C   5      16.909  20.919  23.031  1.00 51.79 LIG-0.27  OA
ATOM     21 H    ARG C   6      17.914  19.173  20.766  1.00 41.74 LIG 0.16  HD
BRANCH 19 22
ATOM     22  CA  ARG C   5      15.882  20.728  20.863  1.00 62.48 LIG 0.18  C 
BRANCH 22 23
ATOM     23  CB  ARG C   5      15.769  22.247  20.712  1.00 65.36 LIG 0.04  C 
BRANCH 23 24
ATOM     24  CG  ARG C   5      16.063  22.738  19.295  1.00 67.86 LIG 0.02  C 
BRANCH 24 25
ATOM     25  CD  ARG C   5      17.292  23.632  19.252  1.00 67.74 LIG 0.14  C 
BRANCH 25 26
ATOM     26  NE  ARG C   5      17.009  24.894  18.578  1.00 69.26 LIG-0.23  N 
ATOM     27 HE   ARG C   5      16.314  25.336  18.824  1.00 69.26 LIG 0.18  HD
ATOM     28  CZ  ARG C   5      17.757  25.406  17.607  1.00 72.53 LIG 0.67  C 
ATOM     29  NH1 ARG C   5      17.417  26.560  17.045  1.00 70.69 LIG-0.23  N 
ATOM     30  NH2 ARG C   5      18.845  24.766  17.198  1.00 74.37 LIG-0.23  N 
ATOM     31 2HH1 ARG C   5      17.902  26.891  16.416  1.00 70.69 LIG 0.17  HD
ATOM     32 1HH1 ARG C   5      16.713  26.976  17.309  1.00 70.69 LIG 0.17  HD
ATOM     33 1HH2 ARG C   5      19.067  24.020  17.563  1.00 74.37 LIG 0.17  HD
ATOM     34 2HH2 ARG C   5      19.329  25.098  16.570  1.00 74.37 LIG 0.17  HD
ENDBRANCH 25 26
ENDBRANCH 24 25
ENDBRANCH 23 24
ENDBRANCH 22 23
BRANCH 22 35
ATOM     35  N   ARG C   5      14.576  20.124  21.133  1.00 62.98 LIG-0.35  N 
ATOM     36  C   THR C   4      13.618  20.122  20.209  1.00 71.37 LIG 0.26  C 
ATOM     37 O    THR C   4      13.785  20.582  19.079  1.00 72.41 LIG-0.27  OA
ATOM     38 H    ARG C   5      14.493  19.782  21.917  1.00 62.98 LIG 0.16  HD
BRANCH 36 39
ATOM     39  CA  THR C   4      12.271  19.513  20.610  1.00 77.23 LIG 0.43  C 
ATOM     40  N   THR C   4      11.258  20.549  20.793  1.00 78.75 LIG 0.62  N 
BRANCH 39 41
ATOM     41  CB  THR C   4      11.842  18.476  19.540  1.00 73.87 LIG 0.16  C 
ATOM     42  CG2 THR C   4      11.024  19.137  18.438  1.00 73.94 LIG 0.04  C 
BRANCH 41 43
ATOM     43 OG1  THR C   4      13.000  17.857  18.965  1.00 74.59 LIG-0.39  OA
ATOM     44 HG1  THR C   4      13.677  18.048  19.425  1.00 74.59 LIG 0.21  HD
ENDBRANCH 41 43
ENDBRANCH 39 41
ENDBRANCH 36 39
ENDBRANCH 22 35
ENDBRANCH 19 22
ENDBRANCH 5 18
ENDBRANCH 1 5
BRANCH 3 45
ATOM     45  CA  GLU C   7      21.939  21.088  23.829  1.00 24.11 LIG 0.18  C 
BRANCH 45 46
ATOM     46  C   GLU C   7      23.192  20.320  24.217  1.00 31.12 LIG 0.24  C 
ATOM     47 O    GLU C   7      23.112  19.275  24.860  1.00 26.64 LIG-0.27  OA
ATOM     48  N   THR C   8      24.352  20.841  23.833  1.00 26.11 LIG-0.34  N 
ATOM     49 H    THR C   8      24.431  21.580  23.400  1.00 26.11 LIG 0.16  HD
BRANCH 48 50
ATOM     50  CA  THR C   8      25.614  20.169  24.130  1.00 18.32 LIG 0.20  C 
BRANCH 50 51
ATOM     51  CB  THR C   8      25.846  18.976  23.187  1.00 19.43 LIG 0.15  C 
ATOM     52  CG2 THR C   8      27.255  18.425  23.356  1.00 20.66 LIG 0.04  C 
BRANCH 51 53
ATOM     53 OG1  THR C   8      24.895  17.951  23.491  1.00 16.70 LIG-0.39  OA
ATOM     54 HG1  THR C   8      24.225  18.032  22.990  1.00 16.70 LIG 0.21  HD
ENDBRANCH 51 53
ENDBRANCH 50 51
BRANCH 50 55
ATOM     55  C   THR C   8      26.797  21.104  24.003  1.00 17.75 LIG 0.24  C 
ATOM     56  N   GLN C   9      27.622  21.157  25.041  1.00 18.17 LIG-0.35  N 
ATOM     57 H    GLN C   9      27.506  20.726  25.776  1.00 18.17 LIG 0.16  HD
ATOM     58 O    THR C   8      26.973  21.755  22.979  1.00 18.31 LIG-0.27  OA
BRANCH 56 59
ATOM     59  CA  GLN C   9      28.824  21.981  24.996  1.00 20.01 LIG 0.18  C 
BRANCH 59 60
ATOM     60  C   GLN C   9      29.856  21.312  24.087  1.00 23.96 LIG 0.24  C 
ATOM     61 O    GLN C   9      29.875  20.089  23.965  1.00 22.16 LIG-0.27  OA
ATOM     62  N   LEU C  10      30.711  22.115  23.457  1.00 18.63 LIG-0.34  N 
ATOM     63 H    LEU C  10      30.820  22.945  23.657  1.00 18.63 LIG 0.16  HD
BRANCH 62 64
ATOM     64  CA  LEU C  10      31.553  21.655  22.357  1.00 17.73 LIG 0.18  C 
BRANCH 64 65
ATOM     65  CB  LEU C  10      30.767  21.755  21.036  1.00 25.34 LIG 0.04  C 
BRANCH 65 66
ATOM     66  CG  LEU C  10      30.388  20.511  20.247  1.00 39.39 LIG-0.02  C 
ATOM     67  CD1 LEU C  10      31.447  19.435  20.359  1.00 48.08 LIG 0.01  C 
ATOM     68  CD2 LEU C  10      29.047  20.004  20.735  1.00 37.51 LIG 0.01  C 
ENDBRANCH 65 66
ENDBRANCH 64 65
BRANCH 64 69
ATOM     69  C   LEU C  10      32.814  22.484  22.225  1.00 24.54 LIG 0.20  C 
ATOM     70 O    LEU C  10      32.804  23.703  22.438  1.00 20.83 LIG-0.65  OA
ATOM     71 OXT  LEU C  10      33.868  21.953  21.858  1.00 16.98 LIG-0.65  OA
ENDBRANCH 64 69
ENDBRANCH 62 64
ENDBRANCH 59 60
BRANCH 59 72
ATOM     72  CB  GLN C   9      29.381  22.190  26.406  1.00 28.41 LIG 0.04  C 
BRANCH 72 73
ATOM     73  CG  GLN C   9      30.026  23.544  26.602  1.00 32.25 LIG 0.10  C 
BRANCH 73 74
ATOM     74  CD  GLN C   9      31.536  23.492  26.500  1.00 38.89 LIG 0.21  C 
ATOM     75 OE1  GLN C   9      32.230  23.140  27.460  1.00 37.39 LIG-0.27  OA
ATOM     76  NE2 GLN C   9      32.059  23.839  25.327  1.00 32.46 LIG-0.37  N 
ATOM     77 22HE GLN C   9      32.911  23.824  25.215  1.00 32.46 LIG 0.16  HD
ATOM     78 21HE GLN C   9      31.544  24.078  24.681  1.00 32.46 LIG 0.16  HD
ENDBRANCH 73 74
ENDBRANCH 72 73
ENDBRANCH 59 72
ENDBRANCH 56 59
ENDBRANCH 50 55
ENDBRANCH 48 50
ENDBRANCH 45 46
BRANCH 45 79
ATOM     79  CB  GLU C   7      21.598  22.107  24.918  1.00 23.92 LIG 0.04  C 
BRANCH 79 80
ATOM     80  CG  GLU C   7      22.582  23.268  25.007  1.00 19.46 LIG 0.12  C 
BRANCH 80 81
ATOM     81  CD  GLU C   7      21.970  24.526  25.607  1.00 36.59 LIG 0.17  C 
ATOM     82 OE1  GLU C   7      20.729  24.594  25.717  1.00 43.07 LIG-0.65  OA
ATOM     83 OE2  GLU C   7      22.732  25.445  25.980  1.00 30.47 LIG-0.65  OA
ENDBRANCH 80 81
ENDBRANCH 79 80
ENDBRANCH 45 79
ENDBRANCH 3 45
TORSDOF 33
ENDMDL
MODEL 3
USER: ADFR SOLUTION from run 21
USER: SCORE 19.481403 LL:  -4.516 LR: -18.331 RR:   0.000 FEB:  -8.487
USER: RMSD 4.556142
USER: SEED 20
USER: STATUS searching
USER: GENES 35
USER: genes 0 Translation |==|  0.41196 0.55220 0.38836
USER: genes 1 Rotation |==|  0.57767 0.50117 0.49556 0.99391
USER: genes 2 Torsion [N]-C--CA-[N] |==|  0.40435
USER: genes 3 Torsion [C]-CA--CB-[CG] |==|  0.29739
USER: genes 4 Torsion [CA]-CB--CG-[CD] |==|  0.30507
USER: genes 5 Torsion [CB]-CG--CD-[NE] |==|  0.28139
USER: genes 6 Torsion [CG]-CD--NE-[HE] |==|  0.70661
USER: genes 7 Torsion [C]-CA--N-[C] |==|  0.18145
USER: genes 8 Torsion [N]-C--CA-[N] |==|  0.15164
USER: genes 9 Torsion [C]-CA--CB-[CG] |==|  0.47808
USER: genes 10 Torsion [CA]-CB--CG-[CD] |==|  0.32022
USER: genes 11 Torsion [CB]-CG--CD-[NE] |==|  0.51359
USER: genes 12 Torsion [CG]-CD--NE-[HE] |==|  0.33326
USER: genes 13 Torsion [C]-CA--N-[C] |==|  0.13957
USER: genes 14 Torsion [N]-C--CA-[N] |==|  0.29902
USER: genes 15 Torsion [C]-CA--CB-[CG2] |==|  0.15152
USER: genes 16 Torsion [CA]-CB--OG1-[HG1] |==|  0.46119
USER: genes 17 Torsion [C]-N--CA-[CB] |==|  0.25867
USER: genes 18 Torsion [N]-CA--C-[N] |==|  0.40735
USER: genes 19 Torsion [C]-N--CA-[CB] |==|  0.21944
USER: genes 20 Torsion [N]-CA--CB-[CG2] |==|  0.48039
USER: genes 21 Torsion [CA]-CB--OG1-[HG1] |==|  0.27317
USER: genes 22 Torsion [N]-CA--C-[N] |==|  0.35694
USER: genes 23 Torsion [C]-N--CA-[C] |==|  0.79520
USER: genes 24 Torsion [N]-CA--C-[N] |==|  0.43147
USER: genes 25 Torsion [C]-N--CA-[C] |==|  0.55973
USER: genes 26 Torsion [N]-CA--CB-[CG] |==|  0.65625
USER: genes 27 Torsion [CA]-CB--CG-[CD1] |==|  0.93169
USER: genes 28 Torsion [N]-CA--C-[O] |==|  0.89483
USER: genes 29 Torsion [N]-CA--CB-[CG] |==|  0.58764
USER: genes 30 Torsion [CA]-CB--CG-[CD] |==|  0.72634
USER: genes 31 Torsion [CB]-CG--CD-[NE2] |==|  0.30028
USER: genes 32 Torsion [N]-CA--CB-[CG] |==|  0.52833
USER: genes 33 Torsion [CA]-CB--CG-[CD] |==|  0.42642
USER: genes 34 Torsion [CB]-CG--CD-[OE1] |==|  0.95686
ROOT
ATOM      1  C   ARG C   6      19.904  20.303  22.847  1.00 27.90 LIG 0.24  C 
ATOM      2 O    ARG C   6      19.773  21.346  22.212  1.00 25.69 LIG-0.27  OA
ATOM      3  N   GLU C   7      20.855  20.127  23.759  1.00 23.63 LIG-0.35  N 
ATOM      4 H    GLU C   7      20.888  19.454  24.293  1.00 23.63 LIG 0.16  HD
ENDROOT
BRANCH 1 5
ATOM      5  CA  ARG C   6      18.949  19.130  22.624  1.00 28.24 LIG 0.18  C 
BRANCH 5 6
ATOM      6  CB  ARG C   6      19.481  18.253  21.489  1.00 28.37 LIG 0.04  C 
BRANCH 6 7
ATOM      7  CG  ARG C   6      20.056  16.934  21.953  1.00 35.92 LIG 0.02  C 
BRANCH 7 8
ATOM      8  CD  ARG C   6      19.161  15.783  21.539  1.00 41.81 LIG 0.14  C 
BRANCH 8 9
ATOM      9  NE  ARG C   6      19.698  15.105  20.361  1.00 46.88 LIG-0.23  N 
ATOM     10 HE   ARG C   6      19.308  15.240  19.607  1.00 46.88 LIG 0.18  HD
ATOM     11  CZ  ARG C   6      20.751  14.292  20.379  1.00 47.79 LIG 0.67  C 
ATOM     12  NH2 ARG C   6      21.169  13.724  19.255  1.00 52.15 LIG-0.23  N 
ATOM     13  NH1 ARG C   6      21.383  14.047  21.518  1.00 41.40 LIG-0.23  N 
ATOM     14 1HH2 ARG C   6      20.760  13.881  18.516  1.00 52.15 LIG 0.17  HD
ATOM     15 2HH2 ARG C   6      21.850  13.198  19.267  1.00 52.15 LIG 0.17  HD
ATOM     16 2HH1 ARG C   6      22.063  13.521  21.528  1.00 41.40 LIG 0.17  HD
ATOM     17 1HH1 ARG C   6      21.113  14.414  22.247  1.00 41.40 LIG 0.17  HD
ENDBRANCH 8 9
ENDBRANCH 7 8
ENDBRANCH 6 7
ENDBRANCH 5 6
BRANCH 5 18
ATOM     18  N   ARG C   6      17.602  19.586  22.312  1.00 41.74 LIG-0.35  N 
ATOM     19  C   ARG C   5      17.322  20.255  21.198  1.00 53.56 LIG 0.24  C 
ATOM     20 O    ARG C   5      18.172  20.544  20.357  1.00 51.79 LIG-0.27  OA
ATOM     21 H    ARG C   6      17.015  19.384  22.907  1.00 41.74 LIG 0.16  HD
BRANCH 19 22
ATOM     22  CA  ARG C   5      15.855  20.636  20.999  1.00 62.48 LIG 0.18  C 
BRANCH 22 23
ATOM     23  CB  ARG C   5      15.702  21.405  19.684  1.00 65.36 LIG 0.04  C 
BRANCH 23 24
ATOM     24  CG  ARG C   5      14.246  21.664  19.300  1.00 67.86 LIG 0.02  C 
BRANCH 24 25
ATOM     25  CD  ARG C   5      13.918  23.148  19.303  1.00 67.74 LIG 0.14  C 
BRANCH 25 26
ATOM     26  NE  ARG C   5      12.501  23.382  19.048  1.00 69.26 LIG-0.23  N 
ATOM     27 HE   ARG C   5      12.046  23.793  19.651  1.00 69.26 LIG 0.18  HD
ATOM     28  CZ  ARG C   5      11.866  23.001  17.945  1.00 72.53 LIG 0.67  C 
ATOM     29  NH1 ARG C   5      10.571  23.251  17.803  1.00 70.69 LIG-0.23  N 
ATOM     30  NH2 ARG C   5      12.528  22.372  16.982  1.00 74.37 LIG-0.23  N 
ATOM     31 2HH1 ARG C   5      10.161  23.004  17.089  1.00 70.69 LIG 0.17  HD
ATOM     32 1HH1 ARG C   5      10.141  23.659  18.426  1.00 70.69 LIG 0.17  HD
ATOM     33 1HH2 ARG C   5      13.368  22.211  17.072  1.00 74.37 LIG 0.17  HD
ATOM     34 2HH2 ARG C   5      12.118  22.125  16.268  1.00 74.37 LIG 0.17  HD
ENDBRANCH 25 26
ENDBRANCH 24 25
ENDBRANCH 23 24
ENDBRANCH 22 23
BRANCH 22 35
ATOM     35  N   ARG C   5      15.285  21.385  22.120  1.00 62.98 LIG-0.35  N 
ATOM     36  C   THR C   4      15.904  22.453  22.616  1.00 71.37 LIG 0.26  C 
ATOM     37 O    THR C   4      16.953  22.892  22.140  1.00 72.41 LIG-0.27  OA
ATOM     38 H    ARG C   5      14.538  21.078  22.415  1.00 62.98 LIG 0.16  HD
BRANCH 36 39
ATOM     39  CA  THR C   4      15.253  23.133  23.823  1.00 77.23 LIG 0.43  C 
ATOM     40  N   THR C   4      16.013  22.882  25.044  1.00 78.75 LIG 0.62  N 
BRANCH 39 41
ATOM     41  CB  THR C   4      15.115  24.652  23.539  1.00 73.87 LIG 0.16  C 
ATOM     42  CG2 THR C   4      14.366  24.897  22.235  1.00 73.94 LIG 0.04  C 
BRANCH 41 43
ATOM     43 OG1  THR C   4      14.416  25.291  24.615  1.00 74.59 LIG-0.39  OA
ATOM     44 HG1  THR C   4      14.509  26.123  24.555  1.00 74.59 LIG 0.21  HD
ENDBRANCH 41 43
ENDBRANCH 39 41
ENDBRANCH 36 39
ENDBRANCH 22 35
ENDBRANCH 19 22
ENDBRANCH 5 18
ENDBRANCH 1 5
BRANCH 3 45
ATOM     45  CA  GLU C   7      21.939  21.084  23.928  1.00 24.11 LIG 0.18  C 
BRANCH 45 46
ATOM     46  C   GLU C   7      23.203  20.334  24.314  1.00 31.12 LIG 0.24  C 
ATOM     47 O    GLU C   7      23.142  19.321  25.010  1.00 26.64 LIG-0.27  OA
ATOM     48  N   THR C   8      24.352  20.833  23.870  1.00 26.11 LIG-0.34  N 
ATOM     49 H    THR C   8      24.418  21.549  23.399  1.00 26.11 LIG 0.16  HD
BRANCH 48 50
ATOM     50  CA  THR C   8      25.621  20.173  24.162  1.00 18.32 LIG 0.20  C 
BRANCH 50 51
ATOM     51  CB  THR C   8      25.848  18.966  23.236  1.00 19.43 LIG 0.15  C 
ATOM     52  CG2 THR C   8      27.246  18.395  23.431  1.00 20.66 LIG 0.04  C 
BRANCH 51 53
ATOM     53 OG1  THR C   8      24.877  17.959  23.537  1.00 16.70 LIG-0.39  OA
ATOM     54 HG1  THR C   8      24.244  18.007  22.988  1.00 16.70 LIG 0.21  HD
ENDBRANCH 51 53
ENDBRANCH 50 51
BRANCH 50 55
ATOM     55  C   THR C   8      26.796  21.114  24.003  1.00 17.75 LIG 0.24  C 
ATOM     56  N   GLN C   9      27.640  21.182  25.025  1.00 18.17 LIG-0.35  N 
ATOM     57 H    GLN C   9      27.539  20.760  25.767  1.00 18.17 LIG 0.16  HD
ATOM     58 O    THR C   8      26.950  21.753  22.969  1.00 18.31 LIG-0.27  OA
BRANCH 56 59
ATOM     59  CA  GLN C   9      28.836  22.013  24.950  1.00 20.01 LIG 0.18  C 
BRANCH 59 60
ATOM     60  C   GLN C   9      29.857  21.337  24.034  1.00 23.96 LIG 0.24  C 
ATOM     61 O    GLN C   9      29.829  20.120  23.866  1.00 22.16 LIG-0.27  OA
ATOM     62  N   LEU C  10      30.755  22.128  23.449  1.00 18.63 LIG-0.34  N 
ATOM     63 H    LEU C  10      30.893  22.945  23.683  1.00 18.63 LIG 0.16  HD
BRANCH 62 64
ATOM     64  CA  LEU C  10      31.597  21.676  22.347  1.00 17.73 LIG 0.18  C 
BRANCH 64 65
ATOM     65  CB  LEU C  10      30.803  21.759  21.030  1.00 25.34 LIG 0.04  C 
BRANCH 65 66
ATOM     66  CG  LEU C  10      30.619  20.537  20.141  1.00 39.39 LIG-0.02  C 
ATOM     67  CD1 LEU C  10      31.721  19.521  20.353  1.00 48.08 LIG 0.01  C 
ATOM     68  CD2 LEU C  10      29.260  19.927  20.414  1.00 37.51 LIG 0.01  C 
ENDBRANCH 65 66
ENDBRANCH 64 65
BRANCH 64 69
ATOM     69  C   LEU C  10      32.845  22.523  22.206  1.00 24.54 LIG 0.20  C 
ATOM     70 O    LEU C  10      32.813  23.746  22.390  1.00 20.83 LIG-0.65  OA
ATOM     71 OXT  LEU C  10      33.911  22.002  21.857  1.00 16.98 LIG-0.65  OA
ENDBRANCH 64 69
ENDBRANCH 62 64
ENDBRANCH 59 60
BRANCH 59 72
ATOM     72  CB  GLN C   9      29.414  22.244  26.348  1.00 28.41 LIG 0.04  C 
BRANCH 72 73
ATOM     73  CG  GLN C   9      30.101  23.583  26.499  1.00 32.25 LIG 0.10  C 
BRANCH 73 74
ATOM     74  CD  GLN C   9      31.605  23.488  26.355  1.00 38.89 LIG 0.21  C 
ATOM     75 OE1  GLN C   9      32.299  22.966  27.233  1.00 37.39 LIG-0.27  OA
ATOM     76  NE2 GLN C   9      32.121  23.992  25.237  1.00 32.46 LIG-0.37  N 
ATOM     77 22HE GLN C   9      32.969  23.961  25.104  1.00 32.46 LIG 0.16  HD
ATOM     78 21HE GLN C   9      31.605  24.348  24.648  1.00 32.46 LIG 0.16  HD
ENDBRANCH 73 74
ENDBRANCH 72 73
ENDBRANCH 59 72
ENDBRANCH 56 59
ENDBRANCH 50 55
ENDBRANCH 48 50
ENDBRANCH 45 46
BRANCH 45 79
ATOM     79  CB  GLU C   7      21.605  22.122  25.000  1.00 23.92 LIG 0.04  C 
BRANCH 79 80
ATOM     80  CG  GLU C   7      22.584  23.290  25.055  1.00 19.46 LIG 0.12  C 
BRANCH 80 81
ATOM     81  CD  GLU C   7      21.964  24.566  25.605  1.00 36.59 LIG 0.17  C 
ATOM     82 OE1  GLU C   7      20.720  24.646  25.671  1.00 43.07 LIG-0.65  OA
ATOM     83 OE2  GLU C   7      22.721  25.488  25.981  1.00 30.47 LIG-0.65  OA
ENDBRANCH 80 81
ENDBRANCH 79 80
ENDBRANCH 45 79
ENDBRANCH 3 45
TORSDOF 33
ENDMDL
MODEL 4
USER: ADFR SOLUTION from run 20
USER: SCORE 20.131348 LL:  -4.310 LR: -18.052 RR:   0.000 FEB:  -8.208
USER: RMSD 4.026353
USER: SEED 19
USER: STATUS searching
USER: GENES 35
USER: genes 0 Translation |==|  0.41311 0.54683 0.38163
USER: genes 1 Rotation |==|  0.55409 0.48892 0.49381 0.99690
USER: genes 2 Torsion [N]-C--CA-[N] |==|  0.44635
USER: genes 3 Torsion [C]-CA--CB-[CG] |==|  0.18927
USER: genes 4 Torsion [CA]-CB--CG-[CD] |==|  0.39295
USER: genes 5 Torsion [CB]-CG--CD-[NE] |==|  0.94985
USER: genes 6 Torsion [CG]-CD--NE-[HE] |==|  0.82883
USER: genes 7 Torsion [C]-CA--N-[C] |==|  0.77683
USER: genes 8 Torsion [N]-C--CA-[N] |==|  0.41317
USER: genes 9 Torsion [C]-CA--CB-[CG] |==|  0.40804
USER: genes 10 Torsion [CA]-CB--CG-[CD] |==|  0.15282
USER: genes 11 Torsion [CB]-CG--CD-[NE] |==|  0.48885
USER: genes 12 Torsion [CG]-CD--NE-[HE] |==|  0.13902
USER: genes 13 Torsion [C]-CA--N-[C] |==|  0.79918
USER: genes 14 Torsion [N]-C--CA-[N] |==|  0.84725
USER: genes 15 Torsion [C]-CA--CB-[CG2] |==|  0.09317
USER: genes 16 Torsion [CA]-CB--OG1-[HG1] |==|  0.25045
USER: genes 17 Torsion [C]-N--CA-[CB] |==|  0.27100
USER: genes 18 Torsion [N]-CA--C-[N] |==|  0.41717
USER: genes 19 Torsion [C]-N--CA-[CB] |==|  0.21789
USER: genes 20 Torsion [N]-CA--CB-[CG2] |==|  0.46815
USER: genes 21 Torsion [CA]-CB--OG1-[HG1] |==|  0.30064
USER: genes 22 Torsion [N]-CA--C-[N] |==|  0.35595
USER: genes 23 Torsion [C]-N--CA-[C] |==|  0.78534
USER: genes 24 Torsion [N]-CA--C-[N] |==|  0.42370
USER: genes 25 Torsion [C]-N--CA-[C] |==|  0.55443
USER: genes 26 Torsion [N]-CA--CB-[CG] |==|  0.69742
USER: genes 27 Torsion [CA]-CB--CG-[CD1] |==|  0.44423
USER: genes 28 Torsion [N]-CA--C-[O] |==|  0.92315
USER: genes 29 Torsion [N]-CA--CB-[CG] |==|  0.57255
USER: genes 30 Torsion [CA]-CB--CG-[CD] |==|  0.73859
USER: genes 31 Torsion [CB]-CG--CD-[NE2] |==|  0.31656
USER: genes 32 Torsion [N]-CA--CB-[CG] |==|  0.52660
USER: genes 33 Torsion [CA]-CB--CG-[CD] |==|  0.45460
USER: genes 34 Torsion [CB]-CG--CD-[OE1] |==|  0.44867
ROOT
ATOM      1  C   ARG C   6      19.940  20.182  22.726  1.00 27.90 LIG 0.24  C 
ATOM      2 O    ARG C   6      19.856  21.161  21.990  1.00 25.69 LIG-0.27  OA
ATOM      3  N   GLU C   7      20.845  20.083  23.694  1.00 23.63 LIG-0.35  N 
ATOM      4 H    GLU C   7      20.843  19.463  24.291  1.00 23.63 LIG 0.16  HD
ENDROOT
BRANCH 1 5
ATOM      5  CA  ARG C   6      18.978  19.004  22.571  1.00 28.24 LIG 0.18  C 
BRANCH 5 6
ATOM      6  CB  ARG C   6      19.695  17.854  21.860  1.00 28.37 LIG 0.04  C 
BRANCH 6 7
ATOM      7  CG  ARG C   6      20.792  17.217  22.683  1.00 35.92 LIG 0.02  C 
BRANCH 7 8
ATOM      8  CD  ARG C   6      20.810  15.715  22.481  1.00 41.81 LIG 0.14  C 
BRANCH 8 9
ATOM      9  NE  ARG C   6      19.546  15.251  21.915  1.00 46.88 LIG-0.23  N 
ATOM     10 HE   ARG C   6      18.830  15.377  22.374  1.00 46.88 LIG 0.18  HD
ATOM     11  CZ  ARG C   6      19.429  14.646  20.736  1.00 47.79 LIG 0.67  C 
ATOM     12  NH2 ARG C   6      18.235  14.264  20.302  1.00 52.15 LIG-0.23  N 
ATOM     13  NH1 ARG C   6      20.504  14.423  19.994  1.00 41.40 LIG-0.23  N 
ATOM     14 1HH2 ARG C   6      17.537  14.407  20.783  1.00 52.15 LIG 0.17  HD
ATOM     15 2HH2 ARG C   6      18.159  13.872  19.540  1.00 52.15 LIG 0.17  HD
ATOM     16 2HH1 ARG C   6      20.427  14.032  19.232  1.00 41.40 LIG 0.17  HD
ATOM     17 1HH1 ARG C   6      21.279  14.670  20.274  1.00 41.40 LIG 0.17  HD
ENDBRANCH 8 9
ENDBRANCH 7 8
ENDBRANCH 6 7
ENDBRANCH 5 6
BRANCH 5 18
ATOM     18  N   ARG C   6      17.783  19.382  21.828  1.00 41.74 LIG-0.35  N 
ATOM     19  C   ARG C   5      16.769  20.025  22.397  1.00 53.56 LIG 0.24  C 
ATOM     20 O    ARG C   5      16.758  20.342  23.586  1.00 51.79 LIG-0.27  OA
ATOM     21 H    ARG C   6      17.798  19.152  20.999  1.00 41.74 LIG 0.16  HD
BRANCH 19 22
ATOM     22  CA  ARG C   5      15.602  20.380  21.475  1.00 62.48 LIG 0.18  C 
BRANCH 22 23
ATOM     23  CB  ARG C   5      15.885  21.719  20.789  1.00 65.36 LIG 0.04  C 
BRANCH 23 24
ATOM     24  CG  ARG C   5      15.314  21.806  19.375  1.00 67.86 LIG 0.02  C 
BRANCH 24 25
ATOM     25  CD  ARG C   5      13.822  21.514  19.350  1.00 67.74 LIG 0.14  C 
BRANCH 25 26
ATOM     26  NE  ARG C   5      13.265  21.691  18.014  1.00 69.26 LIG-0.23  N 
ATOM     27 HE   ARG C   5      13.664  21.305  17.357  1.00 69.26 LIG 0.18  HD
ATOM     28  CZ  ARG C   5      12.182  22.410  17.744  1.00 72.53 LIG 0.67  C 
ATOM     29  NH1 ARG C   5      11.751  22.521  16.494  1.00 70.69 LIG-0.23  N 
ATOM     30  NH2 ARG C   5      11.526  23.017  18.726  1.00 74.37 LIG-0.23  N 
ATOM     31 2HH1 ARG C   5      11.049  22.987  16.320  1.00 70.69 LIG 0.17  HD
ATOM     32 1HH1 ARG C   5      12.174  22.128  15.857  1.00 70.69 LIG 0.17  HD
ATOM     33 1HH2 ARG C   5      11.803  22.944  19.537  1.00 74.37 LIG 0.17  HD
ATOM     34 2HH2 ARG C   5      10.825  23.483  18.552  1.00 74.37 LIG 0.17  HD
ENDBRANCH 25 26
ENDBRANCH 24 25
ENDBRANCH 23 24
ENDBRANCH 22 23
BRANCH 22 35
ATOM     35  N   ARG C   5      14.304  20.395  22.150  1.00 62.98 LIG-0.35  N 
ATOM     36  C   THR C   4      13.715  19.264  22.530  1.00 71.37 LIG 0.26  C 
ATOM     37 O    THR C   4      14.240  18.159  22.377  1.00 72.41 LIG-0.27  OA
ATOM     38 H    ARG C   5      13.971  21.179  22.273  1.00 62.98 LIG 0.16  HD
BRANCH 36 39
ATOM     39  CA  THR C   4      12.334  19.385  23.180  1.00 77.23 LIG 0.43  C 
ATOM     40  N   THR C   4      12.367  20.291  24.324  1.00 78.75 LIG 0.62  N 
BRANCH 39 41
ATOM     41  CB  THR C   4      11.309  19.851  22.113  1.00 73.87 LIG 0.16  C 
ATOM     42  CG2 THR C   4      11.657  19.289  20.740  1.00 73.94 LIG 0.04  C 
BRANCH 41 43
ATOM     43 OG1  THR C   4       9.991  19.425  22.480  1.00 74.59 LIG-0.39  OA
ATOM     44 HG1  THR C   4       9.625  20.018  22.949  1.00 74.59 LIG 0.21  HD
ENDBRANCH 41 43
ENDBRANCH 39 41
ENDBRANCH 36 39
ENDBRANCH 22 35
ENDBRANCH 19 22
ENDBRANCH 5 18
ENDBRANCH 1 5
BRANCH 3 45
ATOM     45  CA  GLU C   7      21.936  21.038  23.822  1.00 24.11 LIG 0.18  C 
BRANCH 45 46
ATOM     46  C   GLU C   7      23.198  20.295  24.232  1.00 31.12 LIG 0.24  C 
ATOM     47 O    GLU C   7      23.129  19.272  24.911  1.00 26.64 LIG-0.27  OA
ATOM     48  N   THR C   8      24.352  20.811  23.824  1.00 26.11 LIG-0.34  N 
ATOM     49 H    THR C   8      24.423  21.534  23.365  1.00 26.11 LIG 0.16  HD
BRANCH 48 50
ATOM     50  CA  THR C   8      25.620  20.160  24.140  1.00 18.32 LIG 0.20  C 
BRANCH 50 51
ATOM     51  CB  THR C   8      25.876  18.960  23.213  1.00 19.43 LIG 0.15  C 
ATOM     52  CG2 THR C   8      27.310  18.467  23.357  1.00 20.66 LIG 0.04  C 
BRANCH 51 53
ATOM     53 OG1  THR C   8      24.974  17.904  23.557  1.00 16.70 LIG-0.39  OA
ATOM     54 HG1  THR C   8      24.392  17.826  22.958  1.00 16.70 LIG 0.21  HD
ENDBRANCH 51 53
ENDBRANCH 50 51
BRANCH 50 55
ATOM     55  C   THR C   8      26.791  21.110  24.011  1.00 17.75 LIG 0.24  C 
ATOM     56  N   GLN C   9      27.607  21.186  25.054  1.00 18.17 LIG-0.35  N 
ATOM     57 H    GLN C   9      27.492  20.762  25.794  1.00 18.17 LIG 0.16  HD
ATOM     58 O    THR C   8      26.966  21.752  22.981  1.00 18.31 LIG-0.27  OA
BRANCH 56 59
ATOM     59  CA  GLN C   9      28.798  22.026  25.010  1.00 20.01 LIG 0.18  C 
BRANCH 59 60
ATOM     60  C   GLN C   9      29.880  21.318  24.192  1.00 23.96 LIG 0.24  C 
ATOM     61 O    GLN C   9      29.904  20.091  24.127  1.00 22.16 LIG-0.27  OA
ATOM     62  N   LEU C  10      30.771  22.094  23.577  1.00 18.63 LIG-0.34  N 
ATOM     63 H    LEU C  10      30.869  22.932  23.746  1.00 18.63 LIG 0.16  HD
BRANCH 62 64
ATOM     64  CA  LEU C  10      31.673  21.586  22.549  1.00 17.73 LIG 0.18  C 
BRANCH 64 65
ATOM     65  CB  LEU C  10      30.917  21.482  21.212  1.00 25.34 LIG 0.04  C 
BRANCH 65 66
ATOM     66  CG  LEU C  10      30.547  20.131  20.617  1.00 39.39 LIG-0.02  C 
ATOM     67  CD1 LEU C  10      29.426  20.253  19.607  1.00 48.08 LIG 0.01  C 
ATOM     68  CD2 LEU C  10      31.778  19.513  19.988  1.00 37.51 LIG 0.01  C 
ENDBRANCH 65 66
ENDBRANCH 64 65
BRANCH 64 69
ATOM     69  C   LEU C  10      32.870  22.492  22.351  1.00 24.54 LIG 0.20  C 
ATOM     70 O    LEU C  10      32.802  23.705  22.588  1.00 20.83 LIG-0.65  OA
ATOM     71 OXT  LEU C  10      33.927  22.033  21.903  1.00 16.98 LIG-0.65  OA
ENDBRANCH 64 69
ENDBRANCH 62 64
ENDBRANCH 59 60
BRANCH 59 72
ATOM     72  CB  GLN C   9      29.288  22.335  26.427  1.00 28.41 LIG 0.04  C 
BRANCH 72 73
ATOM     73  CG  GLN C   9      30.065  23.628  26.525  1.00 32.25 LIG 0.10  C 
BRANCH 73 74
ATOM     74  CD  GLN C   9      31.560  23.422  26.403  1.00 38.89 LIG 0.21  C 
ATOM     75 OE1  GLN C   9      32.191  22.799  27.264  1.00 37.39 LIG-0.27  OA
ATOM     76  NE2 GLN C   9      32.140  23.943  25.326  1.00 32.46 LIG-0.37  N 
ATOM     77 22HE GLN C   9      32.986  23.852  25.206  1.00 32.46 LIG 0.16  HD
ATOM     78 21HE GLN C   9      31.667  24.370  24.748  1.00 32.46 LIG 0.16  HD
ENDBRANCH 73 74
ENDBRANCH 72 73
ENDBRANCH 59 72
ENDBRANCH 56 59
ENDBRANCH 50 55
ENDBRANCH 48 50
ENDBRANCH 45 46
BRANCH 45 79
ATOM     79  CB  GLU C   7      21.614  22.118  24.856  1.00 23.92 LIG 0.04  C 
BRANCH 79 80
ATOM     80  CG  GLU C   7      22.609  23.274  24.873  1.00 19.46 LIG 0.12  C 
BRANCH 80 81
ATOM     81  CD  GLU C   7      22.085  24.505  25.598  1.00 36.59 LIG 0.17  C 
ATOM     82 OE1  GLU C   7      22.901  25.366  25.981  1.00 43.07 LIG-0.65  OA
ATOM     83 OE2  GLU C   7      20.852  24.617  25.776  1.00 30.47 LIG-0.65  OA
ENDBRANCH 80 81
ENDBRANCH 79 80
ENDBRANCH 45 79
ENDBRANCH 3 45
TORSDOF 33
ENDMDL
MODEL 5
USER: ADFR SOLUTION from run 129
USER: SCORE 18.791121 LL:  -4.132 LR: -17.811 RR:   0.000 FEB:  -7.967
USER: RMSD 3.311052
USER: SEED 128
USER: STATUS 1 or 2 clusters left
USER: GENES 35
USER: genes 0 Translation |==|  0.40874 0.56454 0.39880
USER: genes 1 Rotation |==|  0.63151 0.54548 0.49247 0.98019
USER: genes 2 Torsion [N]-C--CA-[N] |==|  0.45238
USER: genes 3 Torsion [C]-CA--CB-[CG] |==|  0.27130
USER: genes 4 Torsion [CA]-CB--CG-[CD] |==|  0.28712
USER: genes 5 Torsion [CB]-CG--CD-[NE] |==|  0.28408
USER: genes 6 Torsion [CG]-CD--NE-[HE] |==|  0.75844
USER: genes 7 Torsion [C]-CA--N-[C] |==|  0.19743
USER: genes 8 Torsion [N]-C--CA-[N] |==|  0.00000
USER: genes 9 Torsion [C]-CA--CB-[CG] |==|  0.21441
USER: genes 10 Torsion [CA]-CB--CG-[CD] |==|  0.50137
USER: genes 11 Torsion [CB]-CG--CD-[NE] |==|  0.18612
USER: genes 12 Torsion [CG]-CD--NE-[HE] |==|  0.12848
USER: genes 13 Torsion [C]-CA--N-[C] |==|  0.67420
USER: genes 14 Torsion [N]-C--CA-[N] |==|  0.73586
USER: genes 15 Torsion [C]-CA--CB-[CG2] |==|  0.45941
USER: genes 16 Torsion [CA]-CB--OG1-[HG1] |==|  0.35180
USER: genes 17 Torsion [C]-N--CA-[CB] |==|  0.21680
USER: genes 18 Torsion [N]-CA--C-[N] |==|  0.42249
USER: genes 19 Torsion [C]-N--CA-[CB] |==|  0.20950
USER: genes 20 Torsion [N]-CA--CB-[CG2] |==|  0.47353
USER: genes 21 Torsion [CA]-CB--OG1-[HG1] |==|  0.30125
USER: genes 22 Torsion [N]-CA--C-[N] |==|  0.32986
USER: genes 23 Torsion [C]-N--CA-[C] |==|  0.77794
USER: genes 24 Torsion [N]-CA--C-[N] |==|  0.40668
USER: genes 25 Torsion [C]-N--CA-[C] |==|  0.52736
USER: genes 26 Torsion [N]-CA--CB-[CG] |==|  0.08025
USER: genes 27 Torsion [CA]-CB--CG-[CD1] |==|  0.29729
USER: genes 28 Torsion [N]-CA--C-[O] |==|  0.95558
USER: genes 29 Torsion [N]-CA--CB-[CG] |==|  0.91841
USER: genes 30 Torsion [CA]-CB--CG-[CD] |==|  0.57241
USER: genes 31 Torsion [CB]-CG--CD-[NE2] |==|  0.35804
USER: genes 32 Torsion [N]-CA--CB-[CG] |==|  0.50646
USER: genes 33 Torsion [CA]-CB--CG-[CD] |==|  0.40766
USER: genes 34 Torsion [CB]-CG--CD-[OE1] |==|  0.99029
ROOT
ATOM      1  C   ARG C   6      19.802  20.580  23.035  1.00 27.90 LIG 0.24  C 
ATOM      2 O    ARG C   6      19.569  21.733  22.680  1.00 25.69 LIG-0.27  OA
ATOM      3  N   GLU C   7      20.897  20.241  23.708  1.00 23.63 LIG-0.35  N 
ATOM      4 H    GLU C   7      21.020  19.469  24.065  1.00 23.63 LIG 0.16  HD
ENDROOT
BRANCH 1 5
ATOM      5  CA  ARG C   6      18.817  19.453  22.725  1.00 28.24 LIG 0.18  C 
BRANCH 5 6
ATOM      6  CB  ARG C   6      19.374  18.592  21.590  1.00 28.37 LIG 0.04  C 
BRANCH 6 7
ATOM      7  CG  ARG C   6      20.076  17.339  22.061  1.00 35.92 LIG 0.02  C 
BRANCH 7 8
ATOM      8  CD  ARG C   6      19.195  16.122  21.856  1.00 41.81 LIG 0.14  C 
BRANCH 8 9
ATOM      9  NE  ARG C   6      19.618  15.366  20.679  1.00 46.88 LIG-0.23  N 
ATOM     10 HE   ARG C   6      19.295  15.597  19.916  1.00 46.88 LIG 0.18  HD
ATOM     11  CZ  ARG C   6      20.468  14.345  20.709  1.00 47.79 LIG 0.67  C 
ATOM     12  NH2 ARG C   6      20.797  13.722  19.585  1.00 52.15 LIG-0.23  N 
ATOM     13  NH1 ARG C   6      20.989  13.947  21.861  1.00 41.40 LIG-0.23  N 
ATOM     14 1HH2 ARG C   6      20.460  13.978  18.837  1.00 52.15 LIG 0.17  HD
ATOM     15 2HH2 ARG C   6      21.347  13.061  19.605  1.00 52.15 LIG 0.17  HD
ATOM     16 2HH1 ARG C   6      21.539  13.286  21.880  1.00 41.40 LIG 0.17  HD
ATOM     17 1HH1 ARG C   6      20.777  14.349  22.591  1.00 41.40 LIG 0.17  HD
ENDBRANCH 8 9
ENDBRANCH 7 8
ENDBRANCH 6 7
ENDBRANCH 5 6
BRANCH 5 18
ATOM     18  N   ARG C   6      17.506  19.972  22.360  1.00 41.74 LIG-0.35  N 
ATOM     19  C   ARG C   5      17.287  20.589  21.203  1.00 53.56 LIG 0.24  C 
ATOM     20 O    ARG C   5      18.167  20.774  20.363  1.00 51.79 LIG-0.27  OA
ATOM     21 H    ARG C   6      16.898  19.842  22.954  1.00 41.74 LIG 0.16  HD
BRANCH 19 22
ATOM     22  CA  ARG C   5      15.849  21.046  20.953  1.00 62.48 LIG 0.18  C 
BRANCH 22 23
ATOM     23  CB  ARG C   5      15.839  22.545  20.644  1.00 65.36 LIG 0.04  C 
BRANCH 23 24
ATOM     24  CG  ARG C   5      16.288  22.873  19.221  1.00 67.86 LIG 0.02  C 
BRANCH 24 25
ATOM     25  CD  ARG C   5      16.276  24.370  18.956  1.00 67.74 LIG 0.14  C 
BRANCH 25 26
ATOM     26  NE  ARG C   5      17.286  25.061  19.750  1.00 69.26 LIG-0.23  N 
ATOM     27 HE   ARG C   5      18.077  24.725  19.776  1.00 69.26 LIG 0.18  HD
ATOM     28  CZ  ARG C   5      17.063  26.176  20.436  1.00 72.53 LIG 0.67  C 
ATOM     29  NH1 ARG C   5      18.043  26.732  21.138  1.00 70.69 LIG-0.23  N 
ATOM     30  NH2 ARG C   5      15.860  26.737  20.418  1.00 74.37 LIG-0.23  N 
ATOM     31 2HH1 ARG C   5      17.898  27.454  21.581  1.00 70.69 LIG 0.17  HD
ATOM     32 1HH1 ARG C   5      18.823  26.369  21.149  1.00 70.69 LIG 0.17  HD
ATOM     33 1HH2 ARG C   5      15.225  26.379  19.963  1.00 74.37 LIG 0.17  HD
ATOM     34 2HH2 ARG C   5      15.716  27.459  20.863  1.00 74.37 LIG 0.17  HD
ENDBRANCH 25 26
ENDBRANCH 24 25
ENDBRANCH 23 24
ENDBRANCH 22 23
BRANCH 22 35
ATOM     35  N   ARG C   5      14.932  20.725  22.047  1.00 62.98 LIG-0.35  N 
ATOM     36  C   THR C   4      13.902  19.904  21.859  1.00 71.37 LIG 0.26  C 
ATOM     37 O    THR C   4      13.688  19.343  20.783  1.00 72.41 LIG-0.27  OA
ATOM     38 H    ARG C   5      15.118  21.104  22.796  1.00 62.98 LIG 0.16  HD
BRANCH 36 39
ATOM     39  CA  THR C   4      12.971  19.676  23.054  1.00 77.23 LIG 0.43  C 
ATOM     40  N   THR C   4      13.347  18.473  23.793  1.00 78.75 LIG 0.62  N 
BRANCH 39 41
ATOM     41  CB  THR C   4      12.990  20.933  23.962  1.00 73.87 LIG 0.16  C 
ATOM     42  CG2 THR C   4      11.832  20.909  24.951  1.00 73.94 LIG 0.04  C 
BRANCH 41 43
ATOM     43 OG1  THR C   4      14.228  21.000  24.681  1.00 74.59 LIG-0.39  OA
ATOM     44 HG1  THR C   4      14.584  21.751  24.556  1.00 74.59 LIG 0.21  HD
ENDBRANCH 41 43
ENDBRANCH 39 41
ENDBRANCH 36 39
ENDBRANCH 22 35
ENDBRANCH 19 22
ENDBRANCH 5 18
ENDBRANCH 1 5
BRANCH 3 45
ATOM     45  CA  GLU C   7      22.000  21.174  23.896  1.00 24.11 LIG 0.18  C 
BRANCH 45 46
ATOM     46  C   GLU C   7      23.252  20.391  24.256  1.00 31.12 LIG 0.24  C 
ATOM     47 O    GLU C   7      23.169  19.311  24.838  1.00 26.64 LIG-0.27  OA
ATOM     48  N   THR C   8      24.414  20.938  23.916  1.00 26.11 LIG-0.34  N 
ATOM     49 H    THR C   8      24.495  21.699  23.526  1.00 26.11 LIG 0.16  HD
BRANCH 48 50
ATOM     50  CA  THR C   8      25.676  20.256  24.192  1.00 18.32 LIG 0.20  C 
BRANCH 50 51
ATOM     51  CB  THR C   8      25.908  19.095  23.209  1.00 19.43 LIG 0.15  C 
ATOM     52  CG2 THR C   8      27.320  18.545  23.353  1.00 20.66 LIG 0.04  C 
BRANCH 51 53
ATOM     53 OG1  THR C   8      24.963  18.056  23.483  1.00 16.70 LIG-0.39  OA
ATOM     54 HG1  THR C   8      24.392  18.027  22.869  1.00 16.70 LIG 0.21  HD
ENDBRANCH 51 53
ENDBRANCH 50 51
BRANCH 50 55
ATOM     55  C   THR C   8      26.858  21.194  24.098  1.00 17.75 LIG 0.24  C 
ATOM     56  N   GLN C   9      27.573  21.356  25.204  1.00 18.17 LIG-0.35  N 
ATOM     57 H    GLN C   9      27.386  20.994  25.961  1.00 18.17 LIG 0.16  HD
ATOM     58 O    THR C   8      27.134  21.749  23.040  1.00 18.31 LIG-0.27  OA
BRANCH 56 59
ATOM     59  CA  GLN C   9      28.768  22.192  25.204  1.00 20.01 LIG 0.18  C 
BRANCH 59 60
ATOM     60  C   GLN C   9      29.934  21.398  24.613  1.00 23.96 LIG 0.24  C 
ATOM     61 O    GLN C   9      30.013  20.185  24.795  1.00 22.16 LIG-0.27  OA
ATOM     62  N   LEU C  10      30.835  22.086  23.914  1.00 18.63 LIG-0.34  N 
ATOM     63 H    LEU C  10      30.886  22.945  23.918  1.00 18.63 LIG 0.16  HD
BRANCH 62 64
ATOM     64  CA  LEU C  10      31.830  21.437  23.066  1.00 17.73 LIG 0.18  C 
BRANCH 64 65
ATOM     65  CB  LEU C  10      31.131  20.816  21.842  1.00 25.34 LIG 0.04  C 
BRANCH 65 66
ATOM     66  CG  LEU C  10      29.848  21.410  21.280  1.00 39.39 LIG-0.02  C 
ATOM     67  CD1 LEU C  10      30.092  22.128  19.970  1.00 48.08 LIG 0.01  C 
ATOM     68  CD2 LEU C  10      28.824  20.307  21.111  1.00 37.51 LIG 0.01  C 
ENDBRANCH 65 66
ENDBRANCH 64 65
BRANCH 64 69
ATOM     69  C   LEU C  10      32.876  22.414  22.574  1.00 24.54 LIG 0.20  C 
ATOM     70 O    LEU C  10      32.690  23.637  22.635  1.00 20.83 LIG-0.65  OA
ATOM     71 OXT  LEU C  10      33.920  21.997  22.060  1.00 16.98 LIG-0.65  OA
ENDBRANCH 64 69
ENDBRANCH 62 64
ENDBRANCH 59 60
BRANCH 59 72
ATOM     72  CB  GLN C   9      29.085  22.671  26.623  1.00 28.41 LIG 0.04  C 
BRANCH 72 73
ATOM     73  CG  GLN C   9      27.859  22.811  27.497  1.00 32.25 LIG 0.10  C 
BRANCH 73 74
ATOM     74  CD  GLN C   9      28.044  23.825  28.606  1.00 38.89 LIG 0.21  C 
ATOM     75 OE1  GLN C   9      29.026  23.782  29.354  1.00 37.39 LIG-0.27  OA
ATOM     76  NE2 GLN C   9      27.098  24.753  28.718  1.00 32.46 LIG-0.37  N 
ATOM     77 22HE GLN C   9      27.156  25.354  29.329  1.00 32.46 LIG 0.16  HD
ATOM     78 21HE GLN C   9      26.428  24.751  28.178  1.00 32.46 LIG 0.16  HD
ENDBRANCH 73 74
ENDBRANCH 72 73
ENDBRANCH 59 72
ENDBRANCH 56 59
ENDBRANCH 50 55
ENDBRANCH 48 50
ENDBRANCH 45 46
BRANCH 45 79
ATOM     79  CB  GLU C   7      21.690  22.190  24.996  1.00 23.92 LIG 0.04  C 
BRANCH 79 80
ATOM     80  CG  GLU C   7      22.785  23.230  25.202  1.00 19.46 LIG 0.12  C 
BRANCH 80 81
ATOM     81  CD  GLU C   7      22.247  24.592  25.618  1.00 36.59 LIG 0.17  C 
ATOM     82 OE1  GLU C   7      21.011  24.752  25.684  1.00 43.07 LIG-0.65  OA
ATOM     83 OE2  GLU C   7      23.061  25.501  25.890  1.00 30.47 LIG-0.65  OA
ENDBRANCH 80 81
ENDBRANCH 79 80
ENDBRANCH 45 79
ENDBRANCH 3 45
TORSDOF 33
ENDMDL
MODEL 6
USER: ADFR SOLUTION from run 9
USER: SCORE 18.140540 LL:  -5.006 LR: -17.626 RR:   0.000 FEB:  -7.782
USER: RMSD 3.038455
USER: SEED 961621
USER: STATUS no improvement in best in 11 clusters for 5 generations
USER: GENES 35
USER: genes 0 Translation |==|  0.42665 0.54190 0.38734
USER: genes 1 Rotation |==|  0.44904 0.39880 0.48111 0.98663
USER: genes 2 Torsion [N]-C--CA-[N] |==|  0.27742
USER: genes 3 Torsion [C]-CA--CB-[CG] |==|  0.28693
USER: genes 4 Torsion [CA]-CB--CG-[CD] |==|  0.32792
USER: genes 5 Torsion [CB]-CG--CD-[NE] |==|  0.29602
USER: genes 6 Torsion [CG]-CD--NE-[HE] |==|  0.72517
USER: genes 7 Torsion [C]-CA--N-[C] |==|  0.17517
USER: genes 8 Torsion [N]-C--CA-[N] |==|  0.84180
USER: genes 9 Torsion [C]-CA--CB-[CG] |==|  0.22702
USER: genes 10 Torsion [CA]-CB--CG-[CD] |==|  0.72345
USER: genes 11 Torsion [CB]-CG--CD-[NE] |==|  0.96087
USER: genes 12 Torsion [CG]-CD--NE-[HE] |==|  0.18075
USER: genes 13 Torsion [C]-CA--N-[C] |==|  0.61111
USER: genes 14 Torsion [N]-C--CA-[N] |==|  0.32451
USER: genes 15 Torsion [C]-CA--CB-[CG2] |==|  0.59965
USER: genes 16 Torsion [CA]-CB--OG1-[HG1] |==|  0.26001
USER: genes 17 Torsion [C]-N--CA-[CB] |==|  0.37050
USER: genes 18 Torsion [N]-CA--C-[N] |==|  0.42637
USER: genes 19 Torsion [C]-N--CA-[CB] |==|  0.21087
USER: genes 20 Torsion [N]-CA--CB-[CG2] |==|  0.47083
USER: genes 21 Torsion [CA]-CB--OG1-[HG1] |==|  0.30730
USER: genes 22 Torsion [N]-CA--C-[N] |==|  0.33703
USER: genes 23 Torsion [C]-N--CA-[C] |==|  0.80280
USER: genes 24 Torsion [N]-CA--C-[N] |==|  0.41404
USER: genes 25 Torsion [C]-N--CA-[C] |==|  0.56273
USER: genes 26 Torsion [N]-CA--CB-[CG] |==|  0.61841
USER: genes 27 Torsion [CA]-CB--CG-[CD1] |==|  0.05956
USER: genes 28 Torsion [N]-CA--C-[O] |==|  0.90135
USER: genes 29 Torsion [N]-CA--CB-[CG] |==|  0.73950
USER: genes 30 Torsion [CA]-CB--CG-[CD] |==|  0.27710
USER: genes 31 Torsion [CB]-CG--CD-[NE2] |==|  0.54703
USER: genes 32 Torsion [N]-CA--CB-[CG] |==|  0.56353
USER: genes 33 Torsion [CA]-CB--CG-[CD] |==|  0.40807
USER: genes 34 Torsion [CB]-CG--CD-[OE1] |==|  0.42942
ROOT
ATOM      1  C   ARG C   6      20.366  20.071  22.829  1.00 27.90 LIG 0.24  C 
ATOM      2 O    ARG C   6      20.684  20.655  21.796  1.00 25.69 LIG-0.27  OA
ATOM      3  N   GLU C   7      20.892  20.364  24.014  1.00 23.63 LIG-0.35  N 
ATOM      4 H    GLU C   7      20.598  20.051  24.759  1.00 23.63 LIG 0.16  HD
ENDROOT
BRANCH 1 5
ATOM      5  CA  ARG C   6      19.318  18.958  22.805  1.00 28.24 LIG 0.18  C 
BRANCH 5 6
ATOM      6  CB  ARG C   6      19.557  18.064  21.588  1.00 28.37 LIG 0.04  C 
BRANCH 6 7
ATOM      7  CG  ARG C   6      20.217  16.744  21.919  1.00 35.92 LIG 0.02  C 
BRANCH 7 8
ATOM      8  CD  ARG C   6      19.311  15.585  21.555  1.00 41.81 LIG 0.14  C 
BRANCH 8 9
ATOM      9  NE  ARG C   6      19.797  14.900  20.359  1.00 46.88 LIG-0.23  N 
ATOM     10 HE   ARG C   6      19.428  15.094  19.607  1.00 46.88 LIG 0.18  HD
ATOM     11  CZ  ARG C   6      20.773  13.997  20.357  1.00 47.79 LIG 0.67  C 
ATOM     12  NH2 ARG C   6      21.150  13.431  19.219  1.00 52.15 LIG-0.23  N 
ATOM     13  NH1 ARG C   6      21.369  13.660  21.492  1.00 41.40 LIG-0.23  N 
ATOM     14 1HH2 ARG C   6      20.764  13.648  18.482  1.00 52.15 LIG 0.17  HD
ATOM     15 2HH2 ARG C   6      21.782  12.846  19.217  1.00 52.15 LIG 0.17  HD
ATOM     16 2HH1 ARG C   6      22.000  13.075  21.489  1.00 41.40 LIG 0.17  HD
ATOM     17 1HH1 ARG C   6      21.126  14.026  22.231  1.00 41.40 LIG 0.17  HD
ENDBRANCH 8 9
ENDBRANCH 7 8
ENDBRANCH 6 7
ENDBRANCH 5 6
BRANCH 5 18
ATOM     18  N   ARG C   6      17.965  19.497  22.770  1.00 41.74 LIG-0.35  N 
ATOM     19  C   ARG C   5      17.522  20.230  21.754  1.00 53.56 LIG 0.24  C 
ATOM     20 O    ARG C   5      18.215  20.513  20.778  1.00 51.79 LIG-0.27  OA
ATOM     21 H    ARG C   6      17.489  19.298  23.459  1.00 41.74 LIG 0.16  HD
BRANCH 19 22
ATOM     22  CA  ARG C   5      16.068  20.693  21.851  1.00 62.48 LIG 0.18  C 
BRANCH 22 23
ATOM     23  CB  ARG C   5      15.932  21.709  22.988  1.00 65.36 LIG 0.04  C 
BRANCH 23 24
ATOM     24  CG  ARG C   5      16.345  23.124  22.588  1.00 67.86 LIG 0.02  C 
BRANCH 24 25
ATOM     25  CD  ARG C   5      17.755  23.453  23.053  1.00 67.74 LIG 0.14  C 
BRANCH 25 26
ATOM     26  NE  ARG C   5      18.233  22.485  24.033  1.00 69.26 LIG-0.23  N 
ATOM     27 HE   ARG C   5      18.345  21.672  23.775  1.00 69.26 LIG 0.18  HD
ATOM     28  CZ  ARG C   5      18.507  22.776  25.299  1.00 72.53 LIG 0.67  C 
ATOM     29  NH1 ARG C   5      18.932  21.826  26.123  1.00 70.69 LIG-0.23  N 
ATOM     30  NH2 ARG C   5      18.359  24.018  25.742  1.00 74.37 LIG-0.23  N 
ATOM     31 2HH1 ARG C   5      19.109  22.016  26.943  1.00 70.69 LIG 0.17  HD
ATOM     32 1HH1 ARG C   5      19.029  21.021  25.837  1.00 70.69 LIG 0.17  HD
ATOM     33 1HH2 ARG C   5      18.086  24.635  25.209  1.00 74.37 LIG 0.17  HD
ATOM     34 2HH2 ARG C   5      18.536  24.207  26.562  1.00 74.37 LIG 0.17  HD
ENDBRANCH 25 26
ENDBRANCH 24 25
ENDBRANCH 23 24
ENDBRANCH 22 23
BRANCH 22 35
ATOM     35  N   ARG C   5      15.110  19.596  22.003  1.00 62.98 LIG-0.35  N 
ATOM     36  C   THR C   4      13.942  19.613  21.366  1.00 71.37 LIG 0.26  C 
ATOM     37 O    THR C   4      13.622  20.515  20.590  1.00 72.41 LIG-0.27  OA
ATOM     38 H    ARG C   5      15.368  18.964  22.525  1.00 62.98 LIG 0.16  HD
BRANCH 36 39
ATOM     39  CA  THR C   4      12.990  18.444  21.635  1.00 77.23 LIG 0.43  C 
ATOM     40  N   THR C   4      11.756  18.904  22.267  1.00 78.75 LIG 0.62  N 
BRANCH 39 41
ATOM     41  CB  THR C   4      12.708  17.700  20.304  1.00 73.87 LIG 0.16  C 
ATOM     42  CG2 THR C   4      11.270  17.199  20.254  1.00 73.94 LIG 0.04  C 
BRANCH 41 43
ATOM     43 OG1  THR C   4      12.945  18.575  19.194  1.00 74.59 LIG-0.39  OA
ATOM     44 HG1  THR C   4      13.731  18.471  18.919  1.00 74.59 LIG 0.21  HD
ENDBRANCH 41 43
ENDBRANCH 39 41
ENDBRANCH 36 39
ENDBRANCH 22 35
ENDBRANCH 19 22
ENDBRANCH 5 18
ENDBRANCH 1 5
BRANCH 3 45
ATOM     45  CA  GLU C   7      22.031  21.261  24.145  1.00 24.11 LIG 0.18  C 
BRANCH 45 46
ATOM     46  C   GLU C   7      23.272  20.439  24.454  1.00 31.12 LIG 0.24  C 
ATOM     47 O    GLU C   7      23.179  19.353  25.024  1.00 26.64 LIG-0.27  OA
ATOM     48  N   THR C   8      24.438  20.958  24.083  1.00 26.11 LIG-0.34  N 
ATOM     49 H    THR C   8      24.527  21.723  23.701  1.00 26.11 LIG 0.16  HD
BRANCH 48 50
ATOM     50  CA  THR C   8      25.688  20.238  24.308  1.00 18.32 LIG 0.20  C 
BRANCH 50 51
ATOM     51  CB  THR C   8      25.862  19.094  23.295  1.00 19.43 LIG 0.15  C 
ATOM     52  CG2 THR C   8      27.270  18.520  23.370  1.00 20.66 LIG 0.04  C 
BRANCH 51 53
ATOM     53 OG1  THR C   8      24.913  18.063  23.589  1.00 16.70 LIG-0.39  OA
ATOM     54 HG1  THR C   8      24.333  18.035  22.982  1.00 16.70 LIG 0.21  HD
ENDBRANCH 51 53
ENDBRANCH 50 51
BRANCH 50 55
ATOM     55  C   THR C   8      26.892  21.147  24.200  1.00 17.75 LIG 0.24  C 
ATOM     56  N   GLN C   9      27.672  21.226  25.271  1.00 18.17 LIG-0.35  N 
ATOM     57 H    GLN C   9      27.515  20.826  26.015  1.00 18.17 LIG 0.16  HD
ATOM     58 O    THR C   8      27.126  21.755  23.161  1.00 18.31 LIG-0.27  OA
BRANCH 56 59
ATOM     59  CA  GLN C   9      28.889  22.027  25.250  1.00 20.01 LIG 0.18  C 
BRANCH 59 60
ATOM     60  C   GLN C   9      29.927  21.338  24.361  1.00 23.96 LIG 0.24  C 
ATOM     61 O    GLN C   9      29.946  20.113  24.268  1.00 22.16 LIG-0.27  OA
ATOM     62  N   LEU C  10      30.785  22.127  23.718  1.00 18.63 LIG-0.34  N 
ATOM     63 H    LEU C  10      30.892  22.962  23.899  1.00 18.63 LIG 0.16  HD
BRANCH 62 64
ATOM     64  CA  LEU C  10      31.632  21.643  22.633  1.00 17.73 LIG 0.18  C 
BRANCH 64 65
ATOM     65  CB  LEU C  10      30.828  21.639  21.320  1.00 25.34 LIG 0.04  C 
BRANCH 65 66
ATOM     66  CG  LEU C  10      30.918  20.477  20.342  1.00 39.39 LIG-0.02  C 
ATOM     67  CD1 LEU C  10      31.407  19.214  21.020  1.00 48.08 LIG 0.01  C 
ATOM     68  CD2 LEU C  10      29.561  20.259  19.705  1.00 37.51 LIG 0.01  C 
ENDBRANCH 65 66
ENDBRANCH 64 65
BRANCH 64 69
ATOM     69  C   LEU C  10      32.856  22.514  22.440  1.00 24.54 LIG 0.20  C 
ATOM     70 O    LEU C  10      32.803  23.739  22.607  1.00 20.83 LIG-0.65  OA
ATOM     71 OXT  LEU C  10      33.922  22.010  22.068  1.00 16.98 LIG-0.65  OA
ENDBRANCH 64 69
ENDBRANCH 62 64
ENDBRANCH 59 60
BRANCH 59 72
ATOM     72  CB  GLN C   9      29.422  22.227  26.671  1.00 28.41 LIG 0.04  C 
BRANCH 72 73
ATOM     73  CG  GLN C   9      28.943  23.508  27.316  1.00 32.25 LIG 0.10  C 
BRANCH 73 74
ATOM     74  CD  GLN C   9      27.784  23.287  28.265  1.00 38.89 LIG 0.21  C 
ATOM     75 OE1  GLN C   9      27.519  22.161  28.698  1.00 37.39 LIG-0.27  OA
ATOM     76  NE2 GLN C   9      27.085  24.368  28.600  1.00 32.46 LIG-0.37  N 
ATOM     77 22HE GLN C   9      26.419  24.299  29.139  1.00 32.46 LIG 0.16  HD
ATOM     78 21HE GLN C   9      27.300  25.136  28.278  1.00 32.46 LIG 0.16  HD
ENDBRANCH 73 74
ENDBRANCH 72 73
ENDBRANCH 59 72
ENDBRANCH 56 59
ENDBRANCH 50 55
ENDBRANCH 48 50
ENDBRANCH 45 46
BRANCH 45 79
ATOM     79  CB  GLU C   7      21.805  22.292  25.252  1.00 23.92 LIG 0.04  C 
BRANCH 79 80
ATOM     80  CG  GLU C   7      22.645  23.556  25.099  1.00 19.46 LIG 0.12  C 
BRANCH 80 81
ATOM     81  CD  GLU C   7      21.942  24.807  25.606  1.00 36.59 LIG 0.17  C 
ATOM     82 OE1  GLU C   7      22.636  25.772  25.983  1.00 43.07 LIG-0.65  OA
ATOM     83 OE2  GLU C   7      20.691  24.829  25.617  1.00 30.47 LIG-0.65  OA
ENDBRANCH 80 81
ENDBRANCH 79 80
ENDBRANCH 45 79
ENDBRANCH 3 45
TORSDOF 33
ENDMDL
MODEL 7
USER: ADFR SOLUTION from run 86
USER: SCORE 19.498370 LL:  -4.390 LR: -17.492 RR:   0.000 FEB:  -7.648
USER: RMSD 4.915981
USER: SEED 85
USER: STATUS searching
USER: GENES 35
USER: genes 0 Translation |==|  0.41628 0.51328 0.38246
USER: genes 1 Rotation |==|  0.53334 0.48634 0.51921 0.99833
USER: genes 2 Torsion [N]-C--CA-[N] |==|  0.36669
USER: genes 3 Torsion [C]-CA--CB-[CG] |==|  0.29970
USER: genes 4 Torsion [CA]-CB--CG-[CD] |==|  0.30816
USER: genes 5 Torsion [CB]-CG--CD-[NE] |==|  0.24934
USER: genes 6 Torsion [CG]-CD--NE-[HE] |==|  0.73132
USER: genes 7 Torsion [C]-CA--N-[C] |==|  0.66490
USER: genes 8 Torsion [N]-C--CA-[N] |==|  0.94923
USER: genes 9 Torsion [C]-CA--CB-[CG] |==|  0.02023
USER: genes 10 Torsion [CA]-CB--CG-[CD] |==|  0.61230
USER: genes 11 Torsion [CB]-CG--CD-[NE] |==|  0.50882
USER: genes 12 Torsion [CG]-CD--NE-[HE] |==|  0.16513
USER: genes 13 Torsion [C]-CA--N-[C] |==|  0.82425
USER: genes 14 Torsion [N]-C--CA-[N] |==|  0.43841
USER: genes 15 Torsion [C]-CA--CB-[CG2] |==|  0.59086
USER: genes 16 Torsion [CA]-CB--OG1-[HG1] |==|  0.82204
USER: genes 17 Torsion [C]-N--CA-[CB] |==|  0.26201
USER: genes 18 Torsion [N]-CA--C-[N] |==|  0.37888
USER: genes 19 Torsion [C]-N--CA-[CB] |==|  0.26551
USER: genes 20 Torsion [N]-CA--CB-[CG2] |==|  0.52457
USER: genes 21 Torsion [CA]-CB--OG1-[HG1] |==|  0.25246
USER: genes 22 Torsion [N]-CA--C-[N] |==|  0.40931
USER: genes 23 Torsion [C]-N--CA-[C] |==|  0.76404
USER: genes 24 Torsion [N]-CA--C-[N] |==|  0.43182
USER: genes 25 Torsion [C]-N--CA-[C] |==|  0.57996
USER: genes 26 Torsion [N]-CA--CB-[CG] |==|  0.67702
USER: genes 27 Torsion [CA]-CB--CG-[CD1] |==|  0.90367
USER: genes 28 Torsion [N]-CA--C-[O] |==|  0.88911
USER: genes 29 Torsion [N]-CA--CB-[CG] |==|  0.73894
USER: genes 30 Torsion [CA]-CB--CG-[CD] |==|  0.27240
USER: genes 31 Torsion [CB]-CG--CD-[NE2] |==|  0.56553
USER: genes 32 Torsion [N]-CA--CB-[CG] |==|  0.48689
USER: genes 33 Torsion [CA]-CB--CG-[CD] |==|  0.46520
USER: genes 34 Torsion [CB]-CG--CD-[OE1] |==|  0.98197
ROOT
ATOM      1  C   ARG C   6      20.040  19.427  22.741  1.00 27.90 LIG 0.24  C 
ATOM      2 O    ARG C   6      19.879  20.328  21.921  1.00 25.69 LIG-0.27  OA
ATOM      3  N   GLU C   7      20.927  19.500  23.728  1.00 23.63 LIG-0.35  N 
ATOM      4 H    GLU C   7      20.970  18.936  24.376  1.00 23.63 LIG 0.16  HD
ENDROOT
BRANCH 1 5
ATOM      5  CA  ARG C   6      19.200  18.151  22.673  1.00 28.24 LIG 0.18  C 
BRANCH 5 6
ATOM      6  CB  ARG C   6      19.690  17.284  21.511  1.00 28.37 LIG 0.04  C 
BRANCH 6 7
ATOM      7  CG  ARG C   6      20.439  16.045  21.947  1.00 35.92 LIG 0.02  C 
BRANCH 7 8
ATOM      8  CD  ARG C   6      19.634  14.797  21.643  1.00 41.81 LIG 0.14  C 
BRANCH 8 9
ATOM      9  NE  ARG C   6      19.939  14.294  20.306  1.00 46.88 LIG-0.23  N 
ATOM     10 HE   ARG C   6      19.413  14.515  19.663  1.00 46.88 LIG 0.18  HD
ATOM     11  CZ  ARG C   6      20.978  13.516  20.017  1.00 47.79 LIG 0.67  C 
ATOM     12  NH2 ARG C   6      21.177  13.111  18.769  1.00 52.15 LIG-0.23  N 
ATOM     13  NH1 ARG C   6      21.815  13.141  20.974  1.00 41.40 LIG-0.23  N 
ATOM     14 1HH2 ARG C   6      20.634  13.352  18.147  1.00 52.15 LIG 0.17  HD
ATOM     15 2HH2 ARG C   6      21.849  12.607  18.582  1.00 52.15 LIG 0.17  HD
ATOM     16 2HH1 ARG C   6      22.486  12.638  20.786  1.00 41.40 LIG 0.17  HD
ATOM     17 1HH1 ARG C   6      21.687  13.402  21.783  1.00 41.40 LIG 0.17  HD
ENDBRANCH 8 9
ENDBRANCH 7 8
ENDBRANCH 6 7
ENDBRANCH 5 6
BRANCH 5 18
ATOM     18  N   ARG C   6      17.784  18.449  22.509  1.00 41.74 LIG-0.35  N 
ATOM     19  C   ARG C   5      16.871  18.052  23.390  1.00 53.56 LIG 0.24  C 
ATOM     20 O    ARG C   5      17.148  17.402  24.397  1.00 51.79 LIG-0.27  OA
ATOM     21 H    ARG C   6      17.599  18.900  21.800  1.00 41.74 LIG 0.16  HD
BRANCH 19 22
ATOM     22  CA  ARG C   5      15.431  18.472  23.094  1.00 62.48 LIG 0.18  C 
BRANCH 22 23
ATOM     23  CB  ARG C   5      14.634  17.255  22.616  1.00 65.36 LIG 0.04  C 
BRANCH 23 24
ATOM     24  CG  ARG C   5      15.408  15.943  22.729  1.00 67.86 LIG 0.02  C 
BRANCH 24 25
ATOM     25  CD  ARG C   5      15.175  15.045  21.525  1.00 67.74 LIG 0.14  C 
BRANCH 25 26
ATOM     26  NE  ARG C   5      15.857  13.764  21.673  1.00 69.26 LIG-0.23  N 
ATOM     27 HE   ARG C   5      15.648  13.273  22.347  1.00 69.26 LIG 0.18  HD
ATOM     28  CZ  ARG C   5      16.780  13.307  20.835  1.00 72.53 LIG 0.67  C 
ATOM     29  NH1 ARG C   5      17.353  12.130  21.055  1.00 70.69 LIG-0.23  N 
ATOM     30  NH2 ARG C   5      17.128  14.025  19.775  1.00 74.37 LIG-0.23  N 
ATOM     31 2HH1 ARG C   5      17.950  11.835  20.512  1.00 70.69 LIG 0.17  HD
ATOM     32 1HH1 ARG C   5      17.127  11.664  21.741  1.00 70.69 LIG 0.17  HD
ATOM     33 1HH2 ARG C   5      16.756  14.787  19.630  1.00 74.37 LIG 0.17  HD
ATOM     34 2HH2 ARG C   5      17.726  13.729  19.232  1.00 74.37 LIG 0.17  HD
ENDBRANCH 25 26
ENDBRANCH 24 25
ENDBRANCH 23 24
ENDBRANCH 22 23
BRANCH 22 35
ATOM     35  N   ARG C   5      15.326  19.580  22.143  1.00 62.98 LIG-0.35  N 
ATOM     36  C   THR C   4      15.824  20.780  22.431  1.00 71.37 LIG 0.26  C 
ATOM     37 O    THR C   4      16.430  21.012  23.479  1.00 72.41 LIG-0.27  OA
ATOM     38 H    ARG C   5      14.926  19.385  21.407  1.00 62.98 LIG 0.16  HD
BRANCH 36 39
ATOM     39  CA  THR C   4      15.614  21.884  21.391  1.00 77.23 LIG 0.43  C 
ATOM     40  N   THR C   4      15.716  23.208  22.000  1.00 78.75 LIG 0.62  N 
BRANCH 39 41
ATOM     41  CB  THR C   4      16.641  21.704  20.243  1.00 73.87 LIG 0.16  C 
ATOM     42  CG2 THR C   4      17.052  23.051  19.662  1.00 73.94 LIG 0.04  C 
BRANCH 41 43
ATOM     43 OG1  THR C   4      17.804  21.021  20.727  1.00 74.59 LIG-0.39  OA
ATOM     44 HG1  THR C   4      18.187  21.495  21.305  1.00 74.59 LIG 0.21  HD
ENDBRANCH 41 43
ENDBRANCH 39 41
ENDBRANCH 36 39
ENDBRANCH 22 35
ENDBRANCH 19 22
ENDBRANCH 5 18
ENDBRANCH 1 5
BRANCH 3 45
ATOM     45  CA  GLU C   7      21.917  20.566  23.791  1.00 24.11 LIG 0.18  C 
BRANCH 45 46
ATOM     46  C   GLU C   7      23.210  20.005  24.358  1.00 31.12 LIG 0.24  C 
ATOM     47 O    GLU C   7      23.193  19.256  25.334  1.00 26.64 LIG-0.27  OA
ATOM     48  N   THR C   8      24.335  20.371  23.753  1.00 26.11 LIG-0.34  N 
ATOM     49 H    THR C   8      24.370  20.908  23.082  1.00 26.11 LIG 0.16  HD
BRANCH 48 50
ATOM     50  CA  THR C   8      25.630  19.868  24.202  1.00 18.32 LIG 0.20  C 
BRANCH 50 51
ATOM     51  CB  THR C   8      26.067  18.643  23.380  1.00 19.43 LIG 0.15  C 
ATOM     52  CG2 THR C   8      27.302  17.999  23.994  1.00 20.66 LIG 0.04  C 
BRANCH 51 53
ATOM     53 OG1  THR C   8      24.998  17.692  23.357  1.00 16.70 LIG-0.39  OA
ATOM     54 HG1  THR C   8      24.509  17.837  22.689  1.00 16.70 LIG 0.21  HD
ENDBRANCH 51 53
ENDBRANCH 50 51
BRANCH 50 55
ATOM     55  C   THR C   8      26.714  20.918  24.092  1.00 17.75 LIG 0.24  C 
ATOM     56  N   GLN C   9      27.674  20.873  25.007  1.00 18.17 LIG-0.35  N 
ATOM     57 H    GLN C   9      27.695  20.317  25.662  1.00 18.17 LIG 0.16  HD
ATOM     58 O    THR C   8      26.695  21.744  23.187  1.00 18.31 LIG-0.27  OA
BRANCH 56 59
ATOM     59  CA  GLN C   9      28.797  21.802  24.955  1.00 20.01 LIG 0.18  C 
BRANCH 59 60
ATOM     60  C   GLN C   9      29.867  21.242  24.016  1.00 23.96 LIG 0.24  C 
ATOM     61 O    GLN C   9      29.938  20.032  23.810  1.00 22.16 LIG-0.27  OA
ATOM     62  N   LEU C  10      30.695  22.122  23.457  1.00 18.63 LIG-0.34  N 
ATOM     63 H    LEU C  10      30.766  22.939  23.716  1.00 18.63 LIG 0.16  HD
BRANCH 62 64
ATOM     64  CA  LEU C  10      31.568  21.776  22.340  1.00 17.73 LIG 0.18  C 
BRANCH 64 65
ATOM     65  CB  LEU C  10      30.819  22.011  21.015  1.00 25.34 LIG 0.04  C 
BRANCH 65 66
ATOM     66  CG  LEU C  10      30.502  20.860  20.072  1.00 39.39 LIG-0.02  C 
ATOM     67  CD1 LEU C  10      31.595  19.813  20.081  1.00 48.08 LIG 0.01  C 
ATOM     68  CD2 LEU C  10      29.169  20.254  20.461  1.00 37.51 LIG 0.01  C 
ENDBRANCH 65 66
ENDBRANCH 64 65
BRANCH 64 69
ATOM     69  C   LEU C  10      32.830  22.612  22.329  1.00 24.54 LIG 0.20  C 
ATOM     70 O    LEU C  10      32.802  23.818  22.606  1.00 20.83 LIG-0.65  OA
ATOM     71 OXT  LEU C  10      33.907  22.103  21.998  1.00 16.98 LIG-0.65  OA
ENDBRANCH 64 69
ENDBRANCH 62 64
ENDBRANCH 59 60
BRANCH 59 72
ATOM     72  CB  GLN C   9      29.360  22.039  26.359  1.00 28.41 LIG 0.04  C 
BRANCH 72 73
ATOM     73  CG  GLN C   9      28.775  23.254  27.042  1.00 32.25 LIG 0.10  C 
BRANCH 73 74
ATOM     74  CD  GLN C   9      27.655  22.904  27.999  1.00 38.89 LIG 0.21  C 
ATOM     75 OE1  GLN C   9      27.572  21.779  28.501  1.00 37.39 LIG-0.27  OA
ATOM     76  NE2 GLN C   9      26.783  23.873  28.263  1.00 32.46 LIG-0.37  N 
ATOM     77 22HE GLN C   9      26.130  23.729  28.803  1.00 32.46 LIG 0.16  HD
ATOM     78 21HE GLN C   9      26.874  24.645  27.894  1.00 32.46 LIG 0.16  HD
ENDBRANCH 73 74
ENDBRANCH 72 73
ENDBRANCH 59 72
ENDBRANCH 56 59
ENDBRANCH 50 55
ENDBRANCH 48 50
ENDBRANCH 45 46
BRANCH 45 79
ATOM     79  CB  GLU C   7      21.431  21.728  24.659  1.00 23.92 LIG 0.04  C 
BRANCH 79 80
ATOM     80  CG  GLU C   7      22.470  22.826  24.856  1.00 19.46 LIG 0.12  C 
BRANCH 80 81
ATOM     81  CD  GLU C   7      21.889  24.099  25.456  1.00 36.59 LIG 0.17  C 
ATOM     82 OE1  GLU C   7      20.653  24.178  25.608  1.00 43.07 LIG-0.65  OA
ATOM     83 OE2  GLU C   7      22.670  25.018  25.786  1.00 30.47 LIG-0.65  OA
ENDBRANCH 80 81
ENDBRANCH 79 80
ENDBRANCH 45 79
ENDBRANCH 3 45
TORSDOF 33
ENDMDL
MODEL 8
USER: ADFR SOLUTION from run 117
USER: SCORE 20.177901 LL:  -5.162 LR: -17.414 RR:   0.000 FEB:  -7.570
USER: RMSD 4.433982
USER: SEED 116
USER: STATUS searching
USER: GENES 35
USER: genes 0 Translation |==|  0.41487 0.53599 0.38174
USER: genes 1 Rotation |==|  0.53882 0.48018 0.50769 0.99804
USER: genes 2 Torsion [N]-C--CA-[N] |==|  0.37493
USER: genes 3 Torsion [C]-CA--CB-[CG] |==|  0.31405
USER: genes 4 Torsion [CA]-CB--CG-[CD] |==|  0.30417
USER: genes 5 Torsion [CB]-CG--CD-[NE] |==|  0.27393
USER: genes 6 Torsion [CG]-CD--NE-[HE] |==|  0.69728
USER: genes 7 Torsion [C]-CA--N-[C] |==|  0.64630
USER: genes 8 Torsion [N]-C--CA-[N] |==|  0.02061
USER: genes 9 Torsion [C]-CA--CB-[CG] |==|  0.26826
USER: genes 10 Torsion [CA]-CB--CG-[CD] |==|  0.67203
USER: genes 11 Torsion [CB]-CG--CD-[NE] |==|  0.24075
USER: genes 12 Torsion [CG]-CD--NE-[HE] |==|  0.86782
USER: genes 13 Torsion [C]-CA--N-[C] |==|  0.73370
USER: genes 14 Torsion [N]-C--CA-[N] |==|  0.40751
USER: genes 15 Torsion [C]-CA--CB-[CG2] |==|  0.68950
USER: genes 16 Torsion [CA]-CB--OG1-[HG1] |==|  0.21533
USER: genes 17 Torsion [C]-N--CA-[CB] |==|  0.27177
USER: genes 18 Torsion [N]-CA--C-[N] |==|  0.37851
USER: genes 19 Torsion [C]-N--CA-[CB] |==|  0.25443
USER: genes 20 Torsion [N]-CA--CB-[CG2] |==|  0.48807
USER: genes 21 Torsion [CA]-CB--OG1-[HG1] |==|  0.25776
USER: genes 22 Torsion [N]-CA--C-[N] |==|  0.37482
USER: genes 23 Torsion [C]-N--CA-[C] |==|  0.78464
USER: genes 24 Torsion [N]-CA--C-[N] |==|  0.43692
USER: genes 25 Torsion [C]-N--CA-[C] |==|  0.56278
USER: genes 26 Torsion [N]-CA--CB-[CG] |==|  0.63685
USER: genes 27 Torsion [CA]-CB--CG-[CD1] |==|  0.96505
USER: genes 28 Torsion [N]-CA--C-[O] |==|  0.90087
USER: genes 29 Torsion [N]-CA--CB-[CG] |==|  0.58459
USER: genes 30 Torsion [CA]-CB--CG-[CD] |==|  0.71505
USER: genes 31 Torsion [CB]-CG--CD-[NE2] |==|  0.29012
USER: genes 32 Torsion [N]-CA--CB-[CG] |==|  0.49456
USER: genes 33 Torsion [CA]-CB--CG-[CD] |==|  0.45060
USER: genes 34 Torsion [CB]-CG--CD-[OE1] |==|  0.97163
ROOT
ATOM      1  C   ARG C   6      19.996  19.938  22.728  1.00 27.90 LIG 0.24  C 
ATOM      2 O    ARG C   6      19.895  20.865  21.928  1.00 25.69 LIG-0.27  OA
ATOM      3  N   GLU C   7      20.864  19.945  23.734  1.00 23.63 LIG-0.35  N 
ATOM      4 H    GLU C   7      20.867  19.365  24.369  1.00 23.63 LIG 0.16  HD
ENDROOT
BRANCH 1 5
ATOM      5  CA  ARG C   6      19.099  18.705  22.612  1.00 28.24 LIG 0.18  C 
BRANCH 5 6
ATOM      6  CB  ARG C   6      19.617  17.807  21.487  1.00 28.37 LIG 0.04  C 
BRANCH 6 7
ATOM      7  CG  ARG C   6      20.162  16.481  21.966  1.00 35.92 LIG 0.02  C 
BRANCH 7 8
ATOM      8  CD  ARG C   6      19.240  15.346  21.564  1.00 41.81 LIG 0.14  C 
BRANCH 8 9
ATOM      9  NE  ARG C   6      19.728  14.682  20.357  1.00 46.88 LIG-0.23  N 
ATOM     10 HE   ARG C   6      19.286  14.799  19.628  1.00 46.88 LIG 0.18  HD
ATOM     11  CZ  ARG C   6      20.809  13.910  20.310  1.00 47.79 LIG 0.67  C 
ATOM     12  NH2 ARG C   6      21.177  13.353  19.164  1.00 52.15 LIG-0.23  N 
ATOM     13  NH1 ARG C   6      21.520  13.694  21.408  1.00 41.40 LIG-0.23  N 
ATOM     14 1HH2 ARG C   6      20.716  13.491  18.452  1.00 52.15 LIG 0.17  HD
ATOM     15 2HH2 ARG C   6      21.876  12.853  19.134  1.00 52.15 LIG 0.17  HD
ATOM     16 2HH1 ARG C   6      22.219  13.194  21.376  1.00 41.40 LIG 0.17  HD
ATOM     17 1HH1 ARG C   6      21.283  14.054  22.152  1.00 41.40 LIG 0.17  HD
ENDBRANCH 8 9
ENDBRANCH 7 8
ENDBRANCH 6 7
ENDBRANCH 5 6
BRANCH 5 18
ATOM     18  N   ARG C   6      17.712  19.072  22.358  1.00 41.74 LIG-0.35  N 
ATOM     19  C   ARG C   5      16.712  18.619  23.107  1.00 53.56 LIG 0.24  C 
ATOM     20 O    ARG C   5      16.878  17.857  24.058  1.00 51.79 LIG-0.27  OA
ATOM     21 H    ARG C   6      17.605  19.602  21.689  1.00 41.74 LIG 0.16  HD
BRANCH 19 22
ATOM     22  CA  ARG C   5      15.318  19.122  22.733  1.00 62.48 LIG 0.18  C 
BRANCH 22 23
ATOM     23  CB  ARG C   5      14.349  17.939  22.671  1.00 65.36 LIG 0.04  C 
BRANCH 23 24
ATOM     24  CG  ARG C   5      13.547  17.745  23.957  1.00 67.86 LIG 0.02  C 
BRANCH 24 25
ATOM     25  CD  ARG C   5      13.834  16.400  24.603  1.00 67.74 LIG 0.14  C 
BRANCH 25 26
ATOM     26  NE  ARG C   5      14.994  16.467  25.485  1.00 69.26 LIG-0.23  N 
ATOM     27 HE   ARG C   5      15.705  16.847  25.186  1.00 69.26 LIG 0.18  HD
ATOM     28  CZ  ARG C   5      15.024  15.979  26.719  1.00 72.53 LIG 0.67  C 
ATOM     29  NH1 ARG C   5      16.129  16.079  27.448  1.00 70.69 LIG-0.23  N 
ATOM     30  NH2 ARG C   5      13.947  15.392  27.228  1.00 74.37 LIG-0.23  N 
ATOM     31 2HH1 ARG C   5      16.147  15.763  28.247  1.00 70.69 LIG 0.17  HD
ATOM     32 1HH1 ARG C   5      16.827  16.460  27.120  1.00 70.69 LIG 0.17  HD
ATOM     33 1HH2 ARG C   5      13.230  15.328  26.758  1.00 74.37 LIG 0.17  HD
ATOM     34 2HH2 ARG C   5      13.967  15.076  28.027  1.00 74.37 LIG 0.17  HD
ENDBRANCH 25 26
ENDBRANCH 24 25
ENDBRANCH 23 24
ENDBRANCH 22 23
BRANCH 22 35
ATOM     35  N   ARG C   5      15.286  19.898  21.491  1.00 62.98 LIG-0.35  N 
ATOM     36  C   THR C   4      15.342  21.227  21.512  1.00 71.37 LIG 0.26  C 
ATOM     37 O    THR C   4      15.465  21.870  22.556  1.00 72.41 LIG-0.27  OA
ATOM     38 H    ARG C   5      15.231  19.426  20.774  1.00 62.98 LIG 0.16  HD
BRANCH 36 39
ATOM     39  CA  THR C   4      15.248  21.945  20.163  1.00 77.23 LIG 0.43  C 
ATOM     40  N   THR C   4      14.561  23.227  20.294  1.00 78.75 LIG 0.62  N 
BRANCH 39 41
ATOM     41  CB  THR C   4      16.674  22.119  19.578  1.00 73.87 LIG 0.16  C 
ATOM     42  CG2 THR C   4      17.081  23.587  19.562  1.00 73.94 LIG 0.04  C 
BRANCH 41 43
ATOM     43 OG1  THR C   4      17.618  21.373  20.357  1.00 74.59 LIG-0.39  OA
ATOM     44 HG1  THR C   4      17.564  20.558  20.157  1.00 74.59 LIG 0.21  HD
ENDBRANCH 41 43
ENDBRANCH 39 41
ENDBRANCH 36 39
ENDBRANCH 22 35
ENDBRANCH 19 22
ENDBRANCH 5 18
ENDBRANCH 1 5
BRANCH 3 45
ATOM     45  CA  GLU C   7      21.901  20.962  23.843  1.00 24.11 LIG 0.18  C 
BRANCH 45 46
ATOM     46  C   GLU C   7      23.181  20.310  24.340  1.00 31.12 LIG 0.24  C 
ATOM     47 O    GLU C   7      23.152  19.500  25.266  1.00 26.64 LIG-0.27  OA
ATOM     48  N   THR C   8      24.306  20.666  23.731  1.00 26.11 LIG-0.34  N 
ATOM     49 H    THR C   8      24.351  21.243  23.096  1.00 26.11 LIG 0.16  HD
BRANCH 48 50
ATOM     50  CA  THR C   8      25.587  20.079  24.114  1.00 18.32 LIG 0.20  C 
BRANCH 50 51
ATOM     51  CB  THR C   8      25.903  18.832  23.269  1.00 19.43 LIG 0.15  C 
ATOM     52  CG2 THR C   8      27.287  18.293  23.606  1.00 20.66 LIG 0.04  C 
BRANCH 51 53
ATOM     53 OG1  THR C   8      24.923  17.826  23.539  1.00 16.70 LIG-0.39  OA
ATOM     54 HG1  THR C   8      24.297  17.887  22.982  1.00 16.70 LIG 0.21  HD
ENDBRANCH 51 53
ENDBRANCH 50 51
BRANCH 50 55
ATOM     55  C   THR C   8      26.729  21.058  23.952  1.00 17.75 LIG 0.24  C 
ATOM     56  N   GLN C   9      27.598  21.122  24.952  1.00 18.17 LIG-0.35  N 
ATOM     57 H    GLN C   9      27.531  20.675  25.684  1.00 18.17 LIG 0.16  HD
ATOM     58 O    THR C   8      26.836  21.731  22.933  1.00 18.31 LIG-0.27  OA
BRANCH 56 59
ATOM     59  CA  GLN C   9      28.768  21.989  24.870  1.00 20.01 LIG 0.18  C 
BRANCH 59 60
ATOM     60  C   GLN C   9      29.821  21.326  23.981  1.00 23.96 LIG 0.24  C 
ATOM     61 O    GLN C   9      29.813  20.108  23.814  1.00 22.16 LIG-0.27  OA
ATOM     62  N   LEU C  10      30.724  22.128  23.419  1.00 18.63 LIG-0.34  N 
ATOM     63 H    LEU C  10      30.845  22.947  23.655  1.00 18.63 LIG 0.16  HD
BRANCH 62 64
ATOM     64  CA  LEU C  10      31.600  21.686  22.339  1.00 17.73 LIG 0.18  C 
BRANCH 64 65
ATOM     65  CB  LEU C  10      30.849  21.783  20.999  1.00 25.34 LIG 0.04  C 
BRANCH 65 66
ATOM     66  CG  LEU C  10      30.825  20.618  20.021  1.00 39.39 LIG-0.02  C 
ATOM     67  CD1 LEU C  10      31.841  19.558  20.390  1.00 48.08 LIG 0.01  C 
ATOM     68  CD2 LEU C  10      29.427  20.036  19.977  1.00 37.51 LIG 0.01  C 
ENDBRANCH 65 66
ENDBRANCH 64 65
BRANCH 64 69
ATOM     69  C   LEU C  10      32.853  22.532  22.246  1.00 24.54 LIG 0.20  C 
ATOM     70 O    LEU C  10      32.824  23.747  22.482  1.00 20.83 LIG-0.65  OA
ATOM     71 OXT  LEU C  10      33.920  22.021  21.888  1.00 16.98 LIG-0.65  OA
ENDBRANCH 64 69
ENDBRANCH 62 64
ENDBRANCH 59 60
BRANCH 59 72
ATOM     72  CB  GLN C   9      29.322  22.274  26.268  1.00 28.41 LIG 0.04  C 
BRANCH 72 73
ATOM     73  CG  GLN C   9      29.985  23.628  26.386  1.00 32.25 LIG 0.10  C 
BRANCH 73 74
ATOM     74  CD  GLN C   9      31.497  23.541  26.364  1.00 38.89 LIG 0.21  C 
ATOM     75 OE1  GLN C   9      32.129  23.146  27.349  1.00 37.39 LIG-0.27  OA
ATOM     76  NE2 GLN C   9      32.090  23.909  25.232  1.00 32.46 LIG-0.37  N 
ATOM     77 22HE GLN C   9      32.947  23.877  25.165  1.00 32.46 LIG 0.16  HD
ATOM     78 21HE GLN C   9      31.617  24.180  24.566  1.00 32.46 LIG 0.16  HD
ENDBRANCH 73 74
ENDBRANCH 72 73
ENDBRANCH 59 72
ENDBRANCH 56 59
ENDBRANCH 50 55
ENDBRANCH 48 50
ENDBRANCH 45 46
BRANCH 45 79
ATOM     79  CB  GLU C   7      21.486  22.082  24.798  1.00 23.92 LIG 0.04  C 
BRANCH 79 80
ATOM     80  CG  GLU C   7      22.552  23.155  24.990  1.00 19.46 LIG 0.12  C 
BRANCH 80 81
ATOM     81  CD  GLU C   7      22.001  24.449  25.573  1.00 36.59 LIG 0.17  C 
ATOM     82 OE1  GLU C   7      20.764  24.591  25.650  1.00 43.07 LIG-0.65  OA
ATOM     83 OE2  GLU C   7      22.806  25.323  25.964  1.00 30.47 LIG-0.65  OA
ENDBRANCH 80 81
ENDBRANCH 79 80
ENDBRANCH 45 79
ENDBRANCH 3 45
TORSDOF 33
ENDMDL
MODEL 9
USER: ADFR SOLUTION from run 21
USER: SCORE 18.884168 LL:  -4.439 LR: -17.238 RR:   0.000 FEB:  -7.394
USER: RMSD 4.157785
USER: SEED 20
USER: STATUS searching
USER: GENES 35
USER: genes 0 Translation |==|  0.41007 0.54752 0.39209
USER: genes 1 Rotation |==|  0.57384 0.50924 0.49719 0.99442
USER: genes 2 Torsion [N]-C--CA-[N] |==|  0.38758
USER: genes 3 Torsion [C]-CA--CB-[CG] |==|  0.28612
USER: genes 4 Torsion [CA]-CB--CG-[CD] |==|  0.30414
USER: genes 5 Torsion [CB]-CG--CD-[NE] |==|  0.30220
USER: genes 6 Torsion [CG]-CD--NE-[HE] |==|  0.70775
USER: genes 7 Torsion [C]-CA--N-[C] |==|  0.60395
USER: genes 8 Torsion [N]-C--CA-[N] |==|  0.16062
USER: genes 9 Torsion [C]-CA--CB-[CG] |==|  0.33723
USER: genes 10 Torsion [CA]-CB--CG-[CD] |==|  0.22920
USER: genes 11 Torsion [CB]-CG--CD-[NE] |==|  0.68585
USER: genes 12 Torsion [CG]-CD--NE-[HE] |==|  0.17116
USER: genes 13 Torsion [C]-CA--N-[C] |==|  0.62491
USER: genes 14 Torsion [N]-C--CA-[N] |==|  0.29610
USER: genes 15 Torsion [C]-CA--CB-[CG2] |==|  0.15933
USER: genes 16 Torsion [CA]-CB--OG1-[HG1] |==|  0.96195
USER: genes 17 Torsion [C]-N--CA-[CB] |==|  0.25252
USER: genes 18 Torsion [N]-CA--C-[N] |==|  0.40752
USER: genes 19 Torsion [C]-N--CA-[CB] |==|  0.22413
USER: genes 20 Torsion [N]-CA--CB-[CG2] |==|  0.48556
USER: genes 21 Torsion [CA]-CB--OG1-[HG1] |==|  0.27255
USER: genes 22 Torsion [N]-CA--C-[N] |==|  0.36250
USER: genes 23 Torsion [C]-N--CA-[C] |==|  0.79058
USER: genes 24 Torsion [N]-CA--C-[N] |==|  0.43293
USER: genes 25 Torsion [C]-N--CA-[C] |==|  0.56153
USER: genes 26 Torsion [N]-CA--CB-[CG] |==|  0.65608
USER: genes 27 Torsion [CA]-CB--CG-[CD1] |==|  0.93236
USER: genes 28 Torsion [N]-CA--C-[O] |==|  0.89572
USER: genes 29 Torsion [N]-CA--CB-[CG] |==|  0.58698
USER: genes 30 Torsion [CA]-CB--CG-[CD] |==|  0.72358
USER: genes 31 Torsion [CB]-CG--CD-[NE2] |==|  0.30005
USER: genes 32 Torsion [N]-CA--CB-[CG] |==|  0.52175
USER: genes 33 Torsion [CA]-CB--CG-[CD] |==|  0.43719
USER: genes 34 Torsion [CB]-CG--CD-[OE1] |==|  0.94824
ROOT
ATOM      1  C   ARG C   6      19.844  20.197  22.915  1.00 27.90 LIG 0.24  C 
ATOM      2 O    ARG C   6      19.682  21.230  22.268  1.00 25.69 LIG-0.27  OA
ATOM      3  N   GLU C   7      20.825  20.046  23.799  1.00 23.63 LIG-0.35  N 
ATOM      4 H    GLU C   7      20.883  19.382  24.341  1.00 23.63 LIG 0.16  HD
ENDROOT
BRANCH 1 5
ATOM      5  CA  ARG C   6      18.897  19.010  22.739  1.00 28.24 LIG 0.18  C 
BRANCH 5 6
ATOM      6  CB  ARG C   6      19.317  18.205  21.508  1.00 28.37 LIG 0.04  C 
BRANCH 6 7
ATOM      7  CG  ARG C   6      20.056  16.928  21.836  1.00 35.92 LIG 0.02  C 
BRANCH 7 8
ATOM      8  CD  ARG C   6      19.198  15.717  21.528  1.00 41.81 LIG 0.14  C 
BRANCH 8 9
ATOM      9  NE  ARG C   6      19.704  15.005  20.357  1.00 46.88 LIG-0.23  N 
ATOM     10 HE   ARG C   6      19.272  15.087  19.618  1.00 46.88 LIG 0.18  HD
ATOM     11  CZ  ARG C   6      20.790  14.237  20.358  1.00 47.79 LIG 0.67  C 
ATOM     12  NH2 ARG C   6      21.176  13.633  19.242  1.00 52.15 LIG-0.23  N 
ATOM     13  NH1 ARG C   6      21.488  14.074  21.472  1.00 41.40 LIG-0.23  N 
ATOM     14 1HH2 ARG C   6      20.724  13.737  18.518  1.00 52.15 LIG 0.17  HD
ATOM     15 2HH2 ARG C   6      21.879  13.136  19.242  1.00 52.15 LIG 0.17  HD
ATOM     16 2HH1 ARG C   6      22.190  13.577  21.472  1.00 41.40 LIG 0.17  HD
ATOM     17 1HH1 ARG C   6      21.239  14.465  22.197  1.00 41.40 LIG 0.17  HD
ENDBRANCH 8 9
ENDBRANCH 7 8
ENDBRANCH 6 7
ENDBRANCH 5 6
BRANCH 5 18
ATOM     18  N   ARG C   6      17.513  19.444  22.602  1.00 41.74 LIG-0.35  N 
ATOM     19  C   ARG C   5      16.503  18.765  23.137  1.00 53.56 LIG 0.24  C 
ATOM     20 O    ARG C   5      16.657  17.725  23.776  1.00 51.79 LIG-0.27  OA
ATOM     21 H    ARG C   6      17.414  20.169  22.151  1.00 41.74 LIG 0.16  HD
BRANCH 19 22
ATOM     22  CA  ARG C   5      15.113  19.367  22.934  1.00 62.48 LIG 0.18  C 
BRANCH 22 23
ATOM     23  CB  ARG C   5      14.075  18.510  23.663  1.00 65.36 LIG 0.04  C 
BRANCH 23 24
ATOM     24  CG  ARG C   5      13.279  19.286  24.711  1.00 67.86 LIG 0.02  C 
BRANCH 24 25
ATOM     25  CD  ARG C   5      12.125  20.055  24.088  1.00 67.74 LIG 0.14  C 
BRANCH 25 26
ATOM     26  NE  ARG C   5      12.329  21.496  24.185  1.00 69.26 LIG-0.23  N 
ATOM     27 HE   ARG C   5      13.015  21.833  23.791  1.00 69.26 LIG 0.18  HD
ATOM     28  CZ  ARG C   5      11.524  22.322  24.843  1.00 72.53 LIG 0.67  C 
ATOM     29  NH1 ARG C   5      11.793  23.621  24.884  1.00 70.69 LIG-0.23  N 
ATOM     30  NH2 ARG C   5      10.446  21.850  25.458  1.00 74.37 LIG-0.23  N 
ATOM     31 2HH1 ARG C   5      11.271  24.155  25.310  1.00 70.69 LIG 0.17  HD
ATOM     32 1HH1 ARG C   5      12.490  23.928  24.484  1.00 70.69 LIG 0.17  HD
ATOM     33 1HH2 ARG C   5      10.269  21.009  25.431  1.00 74.37 LIG 0.17  HD
ATOM     34 2HH2 ARG C   5       9.925  22.385  25.884  1.00 74.37 LIG 0.17  HD
ENDBRANCH 25 26
ENDBRANCH 24 25
ENDBRANCH 23 24
ENDBRANCH 22 23
BRANCH 22 35
ATOM     35  N   ARG C   5      14.752  19.551  21.527  1.00 62.98 LIG-0.35  N 
ATOM     36  C   THR C   4      14.188  20.681  21.106  1.00 71.37 LIG 0.26  C 
ATOM     37 O    THR C   4      13.979  21.637  21.855  1.00 72.41 LIG-0.27  OA
ATOM     38 H    ARG C   5      14.935  18.883  21.018  1.00 62.98 LIG 0.16  HD
BRANCH 36 39
ATOM     39  CA  THR C   4      13.801  20.752  19.626  1.00 77.23 LIG 0.43  C 
ATOM     40  N   THR C   4      12.354  20.655  19.455  1.00 78.75 LIG 0.62  N 
BRANCH 39 41
ATOM     41  CB  THR C   4      14.361  22.062  19.015  1.00 73.87 LIG 0.16  C 
ATOM     42  CG2 THR C   4      15.873  22.141  19.188  1.00 73.94 LIG 0.04  C 
BRANCH 41 43
ATOM     43 OG1  THR C   4      14.038  22.130  17.621  1.00 74.59 LIG-0.39  OA
ATOM     44 HG1  THR C   4      13.777  21.377  17.357  1.00 74.59 LIG 0.21  HD
ENDBRANCH 41 43
ENDBRANCH 39 41
ENDBRANCH 36 39
ENDBRANCH 22 35
ENDBRANCH 19 22
ENDBRANCH 5 18
ENDBRANCH 1 5
BRANCH 3 45
ATOM     45  CA  GLU C   7      21.903  21.018  23.919  1.00 24.11 LIG 0.18  C 
BRANCH 45 46
ATOM     46  C   GLU C   7      23.175  20.295  24.331  1.00 31.12 LIG 0.24  C 
ATOM     47 O    GLU C   7      23.125  19.312  25.070  1.00 26.64 LIG-0.27  OA
ATOM     48  N   THR C   8      24.317  20.783  23.860  1.00 26.11 LIG-0.34  N 
ATOM     49 H    THR C   8      24.375  21.479  23.358  1.00 26.11 LIG 0.16  HD
BRANCH 48 50
ATOM     50  CA  THR C   8      25.593  20.147  24.174  1.00 18.32 LIG 0.20  C 
BRANCH 50 51
ATOM     51  CB  THR C   8      25.844  18.927  23.270  1.00 19.43 LIG 0.15  C 
ATOM     52  CG2 THR C   8      27.232  18.352  23.520  1.00 20.66 LIG 0.04  C 
BRANCH 51 53
ATOM     53 OG1  THR C   8      24.859  17.929  23.551  1.00 16.70 LIG-0.39  OA
ATOM     54 HG1  THR C   8      24.243  17.975  22.982  1.00 16.70 LIG 0.21  HD
ENDBRANCH 51 53
ENDBRANCH 50 51
BRANCH 50 55
ATOM     55  C   THR C   8      26.756  21.101  24.008  1.00 17.75 LIG 0.24  C 
ATOM     56  N   GLN C   9      27.613  21.169  25.019  1.00 18.17 LIG-0.35  N 
ATOM     57 H    GLN C   9      27.527  20.738  25.758  1.00 18.17 LIG 0.16  HD
ATOM     58 O    THR C   8      26.889  21.752  22.978  1.00 18.31 LIG-0.27  OA
BRANCH 56 59
ATOM     59  CA  GLN C   9      28.799  22.012  24.936  1.00 20.01 LIG 0.18  C 
BRANCH 59 60
ATOM     60  C   GLN C   9      29.831  21.336  24.032  1.00 23.96 LIG 0.24  C 
ATOM     61 O    GLN C   9      29.812  20.117  23.873  1.00 22.16 LIG-0.27  OA
ATOM     62  N   LEU C  10      30.728  22.128  23.448  1.00 18.63 LIG-0.34  N 
ATOM     63 H    LEU C  10      30.859  22.947  23.675  1.00 18.63 LIG 0.16  HD
BRANCH 62 64
ATOM     64  CA  LEU C  10      31.581  21.673  22.354  1.00 17.73 LIG 0.18  C 
BRANCH 64 65
ATOM     65  CB  LEU C  10      30.801  21.756  21.029  1.00 25.34 LIG 0.04  C 
BRANCH 65 66
ATOM     66  CG  LEU C  10      30.625  20.534  20.140  1.00 39.39 LIG-0.02  C 
ATOM     67  CD1 LEU C  10      31.720  19.514  20.368  1.00 48.08 LIG 0.01  C 
ATOM     68  CD2 LEU C  10      29.260  19.929  20.393  1.00 37.51 LIG 0.01  C 
ENDBRANCH 65 66
ENDBRANCH 64 65
BRANCH 64 69
ATOM     69  C   LEU C  10      32.832  22.517  22.225  1.00 24.54 LIG 0.20  C 
ATOM     70 O    LEU C  10      32.802  23.740  22.414  1.00 20.83 LIG-0.65  OA
ATOM     71 OXT  LEU C  10      33.899  21.994  21.883  1.00 16.98 LIG-0.65  OA
ENDBRANCH 64 69
ENDBRANCH 62 64
ENDBRANCH 59 60
BRANCH 59 72
ATOM     72  CB  GLN C   9      29.370  22.270  26.332  1.00 28.41 LIG 0.04  C 
BRANCH 72 73
ATOM     73  CG  GLN C   9      30.046  23.617  26.465  1.00 32.25 LIG 0.10  C 
BRANCH 73 74
ATOM     74  CD  GLN C   9      31.553  23.528  26.351  1.00 38.89 LIG 0.21  C 
ATOM     75 OE1  GLN C   9      32.234  23.033  27.255  1.00 37.39 LIG-0.27  OA
ATOM     76  NE2 GLN C   9      32.087  24.008  25.231  1.00 32.46 LIG-0.37  N 
ATOM     77 22HE GLN C   9      32.938  23.980  25.115  1.00 32.46 LIG 0.16  HD
ATOM     78 21HE GLN C   9      31.580  24.346  24.624  1.00 32.46 LIG 0.16  HD
ENDBRANCH 73 74
ENDBRANCH 72 73
ENDBRANCH 59 72
ENDBRANCH 56 59
ENDBRANCH 50 55
ENDBRANCH 48 50
ENDBRANCH 45 46
BRANCH 45 79
ATOM     79  CB  GLU C   7      21.566  22.100  24.947  1.00 23.92 LIG 0.04  C 
BRANCH 79 80
ATOM     80  CG  GLU C   7      22.568  23.248  24.984  1.00 19.46 LIG 0.12  C 
BRANCH 80 81
ATOM     81  CD  GLU C   7      21.988  24.531  25.563  1.00 36.59 LIG 0.17  C 
ATOM     82 OE1  GLU C   7      20.747  24.657  25.611  1.00 43.07 LIG-0.65  OA
ATOM     83 OE2  GLU C   7      22.773  25.410  25.980  1.00 30.47 LIG-0.65  OA
ENDBRANCH 80 81
ENDBRANCH 79 80
ENDBRANCH 45 79
ENDBRANCH 3 45
TORSDOF 33
ENDMDL
