MODEL 1
USER: ADFR SOLUTION from run 52
USER: SCORE 16.756170 LL:  -3.213 LR: -14.724 RR:   0.000 FEB:  -8.162
USER: RMSD 2.596933
USER: SEED 51
USER: STATUS 1 or 2 clusters left
USER: GENES 24
USER: genes 0 Translation |==|  0.37841 0.43378 0.38154
USER: genes 1 Rotation |==|  0.60652 0.51432 0.58357 0.98111
USER: genes 2 Torsion [C]-N--CA-[CB] |==|  0.20978
USER: genes 3 Torsion [N]-CA--CB-[CG2] |==|  0.48211
USER: genes 4 Torsion [CA]-CB--OG1-[HG1] |==|  0.22473
USER: genes 5 Torsion [N]-CA--C-[N] |==|  0.37236
USER: genes 6 Torsion [C]-N--CA-[C] |==|  0.79371
USER: genes 7 Torsion [N]-CA--CB-[CG] |==|  0.57498
USER: genes 8 Torsion [CA]-CB--CG-[CD] |==|  0.73364
USER: genes 9 Torsion [CB]-CG--CD-[OE1] |==|  0.80923
USER: genes 10 Torsion [N]-CA--C-[N] |==|  0.42736
USER: genes 11 Torsion [C]-N--CA-[CB] |==|  0.24021
USER: genes 12 Torsion [N]-CA--CB-[CG2] |==|  0.05864
USER: genes 13 Torsion [N]-CA--C-[OXT] |==|  0.92270
USER: genes 14 Torsion [N]-C--CA-[N] |==|  0.42081
USER: genes 15 Torsion [C]-CA--N-[C] |==|  0.60846
USER: genes 16 Torsion [N]-C--CA-[N] |==|  0.42441
USER: genes 17 Torsion [C]-CA--CB-[CG] |==|  0.18371
USER: genes 18 Torsion [CA]-CB--CG-[CD] |==|  0.39603
USER: genes 19 Torsion [CB]-CG--CD-[NE] |==|  0.24977
USER: genes 20 Torsion [CG]-CD--NE-[HE] |==|  0.21882
USER: genes 21 Torsion [C]-CA--CB-[CG] |==|  0.15125
USER: genes 22 Torsion [CA]-CB--CG-[CD] |==|  0.42169
USER: genes 23 Torsion [CB]-CG--CD-[OE2] |==|  0.51064
ROOT
ATOM      1  C   GLU D   7      18.691  22.730   0.396  1.00 11.94 LIG 0.24  C 
ATOM      2 O    GLU D   7      18.730  22.198   1.504  1.00 14.56 LIG-0.27  OA
ATOM      3  N   THR D   8      19.667  23.511  -0.066  1.00  6.63 LIG-0.34  N 
ATOM      4 H    THR D   8      19.661  23.873  -0.847  1.00  6.63 LIG 0.16  HD
ENDROOT
BRANCH 3 5
ATOM      5  CA  THR D   8      20.847  23.823   0.730  1.00  8.00 LIG 0.20  C 
BRANCH 5 6
ATOM      6  CB  THR D   8      21.813  22.629   0.782  1.00  7.16 LIG 0.15  C 
ATOM      7  CG2 THR D   8      23.111  23.009   1.478  1.00  8.54 LIG 0.04  C 
BRANCH 6 8
ATOM      8 OG1  THR D   8      21.190  21.550   1.502  1.00  7.76 LIG-0.39  OA
ATOM      9 HG1  THR D   8      20.665  21.138   0.991  1.00  7.76 LIG 0.21  HD
ENDBRANCH 6 8
ENDBRANCH 5 6
BRANCH 5 10
ATOM     10  C   THR D   8      21.589  25.029   0.157  1.00  6.30 LIG 0.24  C 
ATOM     11 O    THR D   8      21.809  25.118  -1.058  1.00  7.25 LIG-0.27  OA
ATOM     12  N   GLN D   9      21.969  25.955   1.034  1.00  7.34 LIG-0.35  N 
ATOM     13 H    GLN D   9      21.756  25.943   1.867  1.00  7.34 LIG 0.16  HD
BRANCH 12 14
ATOM     14  CA  GLN D   9      22.795  27.085   0.641  1.00  6.42 LIG 0.18  C 
BRANCH 14 15
ATOM     15  CB  GLN D   9      22.767  28.133   1.752  1.00  8.55 LIG 0.04  C 
BRANCH 15 16
ATOM     16  CG  GLN D   9      23.004  29.543   1.276  1.00 10.19 LIG 0.10  C 
BRANCH 16 17
ATOM     17  CD  GLN D   9      24.456  29.969   1.419  1.00 10.51 LIG 0.21  C 
ATOM     18 OE1  GLN D   9      24.970  30.142   2.532  1.00 10.16 LIG-0.27  OA
ATOM     19  NE2 GLN D   9      25.128  30.127   0.282  1.00 11.61 LIG-0.37  N 
ATOM     20 22HE GLN D   9      25.957  30.358   0.301  1.00 11.61 LIG 0.16  HD
ATOM     21 21HE GLN D   9      24.735  29.997  -0.472  1.00 11.61 LIG 0.16  HD
ENDBRANCH 16 17
ENDBRANCH 15 16
ENDBRANCH 14 15
BRANCH 14 22
ATOM     22  C   GLN D   9      24.214  26.612   0.421  1.00  5.32 LIG 0.24  C 
ATOM     23 O    GLN D   9      24.631  25.620   1.007  1.00  6.01 LIG-0.27  OA
ATOM     24  N   VAL D  10      24.964  27.324  -0.423  1.00  6.34 LIG-0.34  N 
ATOM     25 H    VAL D  10      24.684  28.021  -0.843  1.00  6.34 LIG 0.16  HD
BRANCH 24 26
ATOM     26  CA  VAL D  10      26.352  26.967  -0.707  1.00  7.66 LIG 0.19  C 
BRANCH 26 27
ATOM     27  CB  VAL D  10      26.468  25.928  -1.849  1.00  6.96 LIG 0.01  C 
ATOM     28  CG1 VAL D  10      26.687  24.541  -1.281  1.00  7.91 LIG 0.01  C 
ATOM     29  CG2 VAL D  10      25.205  25.933  -2.719  1.00  7.70 LIG 0.01  C 
ENDBRANCH 26 27
BRANCH 26 30
ATOM     30  C   VAL D  10      27.192  28.187  -1.073  1.00  6.04 LIG 0.20  C 
ATOM     31 OXT  VAL D  10      26.677  29.180  -1.597  1.00  6.83 LIG-0.65  OA
ATOM     32 O    VAL D  10      28.405  28.159  -0.847  1.00  6.68 LIG-0.65  OA
ENDBRANCH 26 30
ENDBRANCH 24 26
ENDBRANCH 14 22
ENDBRANCH 12 14
ENDBRANCH 5 10
ENDBRANCH 3 5
BRANCH 1 33
ATOM     33  CA  GLU D   7      17.502  22.497  -0.528  1.00 10.87 LIG 0.18  C 
BRANCH 33 34
ATOM     34  N   GLU D   7      16.913  21.195  -0.232  1.00 12.61 LIG-0.35  N 
ATOM     35  C   ARG D   6      16.459  20.398  -1.195  1.00 15.63 LIG 0.26  C 
ATOM     36 O    ARG D   6      16.563  20.668  -2.389  1.00 17.14 LIG-0.27  OA
ATOM     37 H    GLU D   7      16.888  20.998   0.605  1.00 12.61 LIG 0.16  HD
BRANCH 35 38
ATOM     38  CA  ARG D   6      15.784  19.106  -0.749  1.00 20.39 LIG 0.40  C 
ATOM     39  N   ARG D   6      14.805  18.645  -1.730  1.00 31.26 LIG 0.61  N 
BRANCH 38 40
ATOM     40  CB  ARG D   6      16.818  18.015  -0.471  1.00 20.29 LIG 0.05  C 
BRANCH 40 41
ATOM     41  CG  ARG D   6      17.717  18.318   0.716  1.00 28.41 LIG 0.02  C 
BRANCH 41 42
ATOM     42  CD  ARG D   6      18.035  17.063   1.521  1.00 36.78 LIG 0.14  C 
BRANCH 42 43
ATOM     43  NE  ARG D   6      19.237  16.378   1.053  1.00 40.20 LIG-0.23  N 
ATOM     44  CZ  ARG D   6      19.222  15.291   0.286  1.00 47.18 LIG 0.67  C 
ATOM     45  NH2 ARG D   6      20.359  14.725  -0.097  1.00 45.83 LIG-0.23  N 
ATOM     46  NH1 ARG D   6      18.064  14.765  -0.096  1.00 52.71 LIG-0.23  N 
ATOM     47 1HH2 ARG D   6      21.111  15.061   0.150  1.00 45.83 LIG 0.17  HD
ATOM     48 2HH2 ARG D   6      20.345  14.022  -0.593  1.00 45.83 LIG 0.17  HD
ATOM     49 1HH1 ARG D   6      17.325  15.127   0.151  1.00 52.71 LIG 0.17  HD
ATOM     50 2HH1 ARG D   6      18.054  14.063  -0.592  1.00 52.71 LIG 0.17  HD
ATOM     51 HE   ARG D   6      20.000  16.696   1.287  1.00 40.20 LIG 0.18  HD
ENDBRANCH 42 43
ENDBRANCH 41 42
ENDBRANCH 40 41
ENDBRANCH 38 40
ENDBRANCH 35 38
ENDBRANCH 33 34
BRANCH 33 52
ATOM     52  CB  GLU D   7      16.459  23.593  -0.337  1.00 13.53 LIG 0.04  C 
BRANCH 52 53
ATOM     53  CG  GLU D   7      16.984  25.000  -0.498  1.00 15.67 LIG 0.12  C 
BRANCH 53 54
ATOM     54  CD  GLU D   7      15.905  25.953  -0.976  1.00 22.62 LIG 0.17  C 
ATOM     55 OE2  GLU D   7      16.213  27.135  -1.222  1.00 20.96 LIG-0.65  OA
ATOM     56 OE1  GLU D   7      14.747  25.510  -1.132  1.00 32.46 LIG-0.65  OA
ENDBRANCH 53 54
ENDBRANCH 52 53
ENDBRANCH 33 52
ENDBRANCH 1 33
TORSDOF 22
ENDMDL
MODEL 2
USER: ADFR SOLUTION from run 173
USER: SCORE 16.491233 LL:  -3.193 LR: -14.612 RR:   0.000 FEB:  -8.049
USER: RMSD 5.943486
USER: SEED 172
USER: STATUS no improvement in best in 5 clusters for 5 generations
USER: GENES 24
USER: genes 0 Translation |==|  0.37000 0.44457 0.40110
USER: genes 1 Rotation |==|  0.60294 0.53329 0.55394 0.98516
USER: genes 2 Torsion [C]-N--CA-[CB] |==|  0.21872
USER: genes 3 Torsion [N]-CA--CB-[CG2] |==|  0.49196
USER: genes 4 Torsion [CA]-CB--OG1-[HG1] |==|  0.20906
USER: genes 5 Torsion [N]-CA--C-[N] |==|  0.34615
USER: genes 6 Torsion [C]-N--CA-[C] |==|  0.80158
USER: genes 7 Torsion [N]-CA--CB-[CG] |==|  0.58590
USER: genes 8 Torsion [CA]-CB--CG-[CD] |==|  0.70964
USER: genes 9 Torsion [CB]-CG--CD-[OE1] |==|  0.77769
USER: genes 10 Torsion [N]-CA--C-[N] |==|  0.44123
USER: genes 11 Torsion [C]-N--CA-[CB] |==|  0.23589
USER: genes 12 Torsion [N]-CA--CB-[CG2] |==|  0.04829
USER: genes 13 Torsion [N]-CA--C-[OXT] |==|  0.42184
USER: genes 14 Torsion [N]-C--CA-[N] |==|  0.89758
USER: genes 15 Torsion [C]-CA--N-[C] |==|  0.75654
USER: genes 16 Torsion [N]-C--CA-[N] |==|  0.28116
USER: genes 17 Torsion [C]-CA--CB-[CG] |==|  0.75724
USER: genes 18 Torsion [CA]-CB--CG-[CD] |==|  0.57132
USER: genes 19 Torsion [CB]-CG--CD-[NE] |==|  0.28224
USER: genes 20 Torsion [CG]-CD--NE-[HE] |==|  0.80482
USER: genes 21 Torsion [C]-CA--CB-[CG] |==|  0.37815
USER: genes 22 Torsion [CA]-CB--CG-[CD] |==|  0.41547
USER: genes 23 Torsion [CB]-CG--CD-[OE2] |==|  0.71994
ROOT
ATOM      1  C   GLU D   7      18.502  22.997   0.748  1.00 11.94 LIG 0.24  C 
ATOM      2 O    GLU D   7      18.596  22.496   1.867  1.00 14.56 LIG-0.27  OA
ATOM      3  N   THR D   8      19.501  23.662   0.167  1.00  6.63 LIG-0.34  N 
ATOM      4 H    THR D   8      19.455  24.000  -0.623  1.00  6.63 LIG 0.16  HD
ENDROOT
BRANCH 3 5
ATOM      5  CA  THR D   8      20.777  23.875   0.837  1.00  8.00 LIG 0.20  C 
BRANCH 5 6
ATOM      6  CB  THR D   8      21.654  22.615   0.774  1.00  7.16 LIG 0.15  C 
ATOM      7  CG2 THR D   8      23.012  22.864   1.412  1.00  8.54 LIG 0.04  C 
BRANCH 6 8
ATOM      8 OG1  THR D   8      20.993  21.545   1.475  1.00  7.76 LIG-0.39  OA
ATOM      9 HG1  THR D   8      20.362  21.250   1.006  1.00  7.76 LIG 0.21  HD
ENDBRANCH 6 8
ENDBRANCH 5 6
BRANCH 5 10
ATOM     10  C   THR D   8      21.540  25.035   0.202  1.00  6.30 LIG 0.24  C 
ATOM     11 O    THR D   8      21.787  25.041  -1.012  1.00  7.25 LIG-0.27  OA
ATOM     12  N   GLN D   9      21.909  26.015   1.023  1.00  7.34 LIG-0.35  N 
ATOM     13 H    GLN D   9      21.677  26.061   1.850  1.00  7.34 LIG 0.16  HD
BRANCH 12 14
ATOM     14  CA  GLN D   9      22.751  27.111   0.574  1.00  6.42 LIG 0.18  C 
BRANCH 14 15
ATOM     15  CB  GLN D   9      22.763  28.202   1.643  1.00  8.55 LIG 0.04  C 
BRANCH 15 16
ATOM     16  CG  GLN D   9      22.928  29.597   1.100  1.00 10.19 LIG 0.10  C 
BRANCH 16 17
ATOM     17  CD  GLN D   9      24.328  30.147   1.323  1.00 10.51 LIG 0.21  C 
ATOM     18 OE1  GLN D   9      24.669  30.616   2.417  1.00 10.16 LIG-0.27  OA
ATOM     19  NE2 GLN D   9      25.151  30.076   0.281  1.00 11.61 LIG-0.37  N 
ATOM     20 22HE GLN D   9      25.959  30.364   0.351  1.00 11.61 LIG 0.16  HD
ATOM     21 21HE GLN D   9      24.876  29.743  -0.463  1.00 11.61 LIG 0.16  HD
ENDBRANCH 16 17
ENDBRANCH 15 16
ENDBRANCH 14 15
BRANCH 14 22
ATOM     22  C   GLN D   9      24.156  26.600   0.350  1.00  5.32 LIG 0.24  C 
ATOM     23 O    GLN D   9      24.532  25.570   0.898  1.00  6.01 LIG-0.27  OA
ATOM     24  N   VAL D  10      24.941  27.322  -0.454  1.00  6.34 LIG-0.34  N 
ATOM     25 H    VAL D  10      24.690  28.044  -0.847  1.00  6.34 LIG 0.16  HD
BRANCH 24 26
ATOM     26  CA  VAL D  10      26.319  26.930  -0.736  1.00  7.66 LIG 0.19  C 
BRANCH 26 27
ATOM     27  CB  VAL D  10      26.412  25.907  -1.896  1.00  6.96 LIG 0.01  C 
ATOM     28  CG1 VAL D  10      26.679  24.518  -1.354  1.00  7.91 LIG 0.01  C 
ATOM     29  CG2 VAL D  10      25.117  25.897  -2.717  1.00  7.70 LIG 0.01  C 
ENDBRANCH 26 27
BRANCH 26 30
ATOM     30  C   VAL D  10      27.196  28.131  -1.077  1.00  6.04 LIG 0.20  C 
ATOM     31 OXT  VAL D  10      28.410  28.119  -0.847  1.00  6.83 LIG-0.65  OA
ATOM     32 O    VAL D  10      26.666  29.127  -1.579  1.00  6.68 LIG-0.65  OA
ENDBRANCH 26 30
ENDBRANCH 24 26
ENDBRANCH 14 22
ENDBRANCH 12 14
ENDBRANCH 5 10
ENDBRANCH 3 5
BRANCH 1 33
ATOM     33  CA  GLU D   7      17.212  22.860  -0.051  1.00 10.87 LIG 0.18  C 
BRANCH 33 34
ATOM     34  N   GLU D   7      16.981  24.090  -0.804  1.00 12.61 LIG-0.35  N 
ATOM     35  C   ARG D   6      16.326  25.120  -0.277  1.00 15.63 LIG 0.26  C 
ATOM     36 O    ARG D   6      15.932  25.135   0.887  1.00 17.14 LIG-0.27  OA
ATOM     37 H    GLU D   7      17.302  24.083  -1.601  1.00 12.61 LIG 0.16  HD
BRANCH 35 38
ATOM     38  CA  ARG D   6      16.071  26.309  -1.197  1.00 20.39 LIG 0.40  C 
ATOM     39  N   ARG D   6      14.702  26.312  -1.704  1.00 31.26 LIG 0.61  N 
BRANCH 38 40
ATOM     40  CB  ARG D   6      16.384  27.627  -0.487  1.00 20.29 LIG 0.05  C 
BRANCH 40 41
ATOM     41  CG  ARG D   6      15.211  28.188   0.299  1.00 28.41 LIG 0.02  C 
BRANCH 41 42
ATOM     42  CD  ARG D   6      15.305  29.701   0.453  1.00 36.78 LIG 0.14  C 
BRANCH 42 43
ATOM     43  NE  ARG D   6      14.431  30.421  -0.470  1.00 40.20 LIG-0.23  N 
ATOM     44  CZ  ARG D   6      13.342  31.086  -0.097  1.00 47.18 LIG 0.67  C 
ATOM     45  NH2 ARG D   6      12.598  31.715  -0.999  1.00 45.83 LIG-0.23  N 
ATOM     46  NH1 ARG D   6      12.992  31.120   1.183  1.00 52.71 LIG-0.23  N 
ATOM     47 1HH2 ARG D   6      12.820  31.694  -1.829  1.00 45.83 LIG 0.17  HD
ATOM     48 2HH2 ARG D   6      11.895  32.144  -0.752  1.00 45.83 LIG 0.17  HD
ATOM     49 1HH1 ARG D   6      13.469  30.712   1.771  1.00 52.71 LIG 0.17  HD
ATOM     50 2HH1 ARG D   6      12.288  31.551   1.425  1.00 52.71 LIG 0.17  HD
ATOM     51 HE   ARG D   6      14.634  30.413  -1.306  1.00 40.20 LIG 0.18  HD
ENDBRANCH 42 43
ENDBRANCH 41 42
ENDBRANCH 40 41
ENDBRANCH 38 40
ENDBRANCH 35 38
ENDBRANCH 33 34
BRANCH 33 52
ATOM     52  CB  GLU D   7      17.303  21.676  -1.008  1.00 13.53 LIG 0.04  C 
BRANCH 52 53
ATOM     53  CG  GLU D   7      16.069  20.806  -1.055  1.00 15.67 LIG 0.12  C 
BRANCH 53 54
ATOM     54  CD  GLU D   7      15.880  20.170  -2.419  1.00 22.62 LIG 0.17  C 
ATOM     55 OE2  GLU D   7      15.051  20.668  -3.204  1.00 20.96 LIG-0.65  OA
ATOM     56 OE1  GLU D   7      16.583  19.180  -2.716  1.00 32.46 LIG-0.65  OA
ENDBRANCH 53 54
ENDBRANCH 52 53
ENDBRANCH 33 52
ENDBRANCH 1 33
TORSDOF 22
ENDMDL
MODEL 3
USER: ADFR SOLUTION from run 134
USER: SCORE 16.320334 LL:  -3.391 LR: -14.252 RR:   0.000 FEB:  -7.689
USER: RMSD 5.085396
USER: SEED 133
USER: STATUS no improvement in best in 4 clusters for 5 generations
USER: GENES 24
USER: genes 0 Translation |==|  0.36735 0.44636 0.41474
USER: genes 1 Rotation |==|  0.56600 0.53035 0.54664 0.99249
USER: genes 2 Torsion [C]-N--CA-[CB] |==|  0.24809
USER: genes 3 Torsion [N]-CA--CB-[CG2] |==|  0.50025
USER: genes 4 Torsion [CA]-CB--OG1-[HG1] |==|  0.22757
USER: genes 5 Torsion [N]-CA--C-[N] |==|  0.39001
USER: genes 6 Torsion [C]-N--CA-[C] |==|  0.77283
USER: genes 7 Torsion [N]-CA--CB-[CG] |==|  0.61077
USER: genes 8 Torsion [CA]-CB--CG-[CD] |==|  0.70410
USER: genes 9 Torsion [CB]-CG--CD-[OE1] |==|  0.75497
USER: genes 10 Torsion [N]-CA--C-[N] |==|  0.45632
USER: genes 11 Torsion [C]-N--CA-[CB] |==|  0.22898
USER: genes 12 Torsion [N]-CA--CB-[CG2] |==|  0.03491
USER: genes 13 Torsion [N]-CA--C-[OXT] |==|  0.91303
USER: genes 14 Torsion [N]-C--CA-[N] |==|  0.88324
USER: genes 15 Torsion [C]-CA--N-[C] |==|  0.75592
USER: genes 16 Torsion [N]-C--CA-[N] |==|  0.34279
USER: genes 17 Torsion [C]-CA--CB-[CG] |==|  0.72923
USER: genes 18 Torsion [CA]-CB--CG-[CD] |==|  0.35150
USER: genes 19 Torsion [CB]-CG--CD-[NE] |==|  0.06527
USER: genes 20 Torsion [CG]-CD--NE-[HE] |==|  0.17486
USER: genes 21 Torsion [C]-CA--CB-[CG] |==|  0.41970
USER: genes 22 Torsion [CA]-CB--CG-[CD] |==|  0.40333
USER: genes 23 Torsion [CB]-CG--CD-[OE2] |==|  0.66670
ROOT
ATOM      1  C   GLU D   7      18.442  23.041   0.993  1.00 11.94 LIG 0.24  C 
ATOM      2 O    GLU D   7      18.499  22.711   2.177  1.00 14.56 LIG-0.27  OA
ATOM      3  N   THR D   8      19.470  23.589   0.345  1.00  6.63 LIG-0.34  N 
ATOM      4 H    THR D   8      19.450  23.806  -0.487  1.00  6.63 LIG 0.16  HD
ENDROOT
BRANCH 3 5
ATOM      5  CA  THR D   8      20.737  23.872   1.008  1.00  8.00 LIG 0.20  C 
BRANCH 5 6
ATOM      6  CB  THR D   8      21.688  22.668   0.924  1.00  7.16 LIG 0.15  C 
ATOM      7  CG2 THR D   8      23.008  22.966   1.618  1.00  8.54 LIG 0.04  C 
BRANCH 6 8
ATOM      8 OG1  THR D   8      21.068  21.533   1.557  1.00  7.76 LIG-0.39  OA
ATOM      9 HG1  THR D   8      20.536  21.167   1.019  1.00  7.76 LIG 0.21  HD
ENDBRANCH 6 8
ENDBRANCH 5 6
BRANCH 5 10
ATOM     10  C   THR D   8      21.423  25.083   0.379  1.00  6.30 LIG 0.24  C 
ATOM     11 O    THR D   8      21.402  25.256  -0.847  1.00  7.25 LIG-0.27  OA
ATOM     12  N   GLN D   9      22.027  25.918   1.221  1.00  7.34 LIG-0.35  N 
ATOM     13 H    GLN D   9      21.983  25.851   2.077  1.00  7.34 LIG 0.16  HD
BRANCH 12 14
ATOM     14  CA  GLN D   9      22.826  27.035   0.746  1.00  6.42 LIG 0.18  C 
BRANCH 14 15
ATOM     15  CB  GLN D   9      22.927  28.083   1.853  1.00  8.55 LIG 0.04  C 
BRANCH 15 16
ATOM     16  CG  GLN D   9      22.829  29.506   1.367  1.00 10.19 LIG 0.10  C 
BRANCH 16 17
ATOM     17  CD  GLN D   9      24.168  30.224   1.397  1.00 10.51 LIG 0.21  C 
ATOM     18 OE1  GLN D   9      24.554  30.825   2.408  1.00 10.16 LIG-0.27  OA
ATOM     19  NE2 GLN D   9      24.890  30.151   0.282  1.00 11.61 LIG-0.37  N 
ATOM     20 22HE GLN D   9      25.661  30.531   0.244  1.00 11.61 LIG 0.16  HD
ATOM     21 21HE GLN D   9      24.586  29.724  -0.400  1.00 11.61 LIG 0.16  HD
ENDBRANCH 16 17
ENDBRANCH 15 16
ENDBRANCH 14 15
BRANCH 14 22
ATOM     22  C   GLN D   9      24.208  26.540   0.385  1.00  5.32 LIG 0.24  C 
ATOM     23 O    GLN D   9      24.593  25.445   0.777  1.00  6.01 LIG-0.27  OA
ATOM     24  N   VAL D  10      24.963  27.349  -0.363  1.00  6.34 LIG-0.34  N 
ATOM     25 H    VAL D  10      24.706  28.119  -0.648  1.00  6.34 LIG 0.16  HD
BRANCH 24 26
ATOM     26  CA  VAL D  10      26.318  26.981  -0.766  1.00  7.66 LIG 0.19  C 
BRANCH 26 27
ATOM     27  CB  VAL D  10      26.329  26.062  -2.013  1.00  6.96 LIG 0.01  C 
ATOM     28  CG1 VAL D  10      26.736  24.655  -1.628  1.00  7.91 LIG 0.01  C 
ATOM     29  CG2 VAL D  10      24.948  26.033  -2.679  1.00  7.70 LIG 0.01  C 
ENDBRANCH 26 27
BRANCH 26 30
ATOM     30  C   VAL D  10      27.180  28.205  -1.058  1.00  6.04 LIG 0.20  C 
ATOM     31 OXT  VAL D  10      26.681  29.243  -1.507  1.00  6.83 LIG-0.65  OA
ATOM     32 O    VAL D  10      28.395  28.138  -0.849  1.00  6.68 LIG-0.65  OA
ENDBRANCH 26 30
ENDBRANCH 24 26
ENDBRANCH 14 22
ENDBRANCH 12 14
ENDBRANCH 5 10
ENDBRANCH 3 5
BRANCH 1 33
ATOM     33  CA  GLU D   7      17.167  22.815   0.192  1.00 10.87 LIG 0.18  C 
BRANCH 33 34
ATOM     34  N   GLU D   7      16.918  23.980  -0.653  1.00 12.61 LIG-0.35  N 
ATOM     35  C   ARG D   6      16.228  25.028  -0.213  1.00 15.63 LIG 0.26  C 
ATOM     36 O    ARG D   6      15.815  25.119   0.940  1.00 17.14 LIG-0.27  OA
ATOM     37 H    GLU D   7      17.252  23.922  -1.443  1.00 12.61 LIG 0.16  HD
BRANCH 35 38
ATOM     38  CA  ARG D   6      15.960  26.139  -1.222  1.00 20.39 LIG 0.40  C 
ATOM     39  N   ARG D   6      14.531  26.408  -1.357  1.00 31.26 LIG 0.61  N 
BRANCH 38 40
ATOM     40  CB  ARG D   6      16.713  27.416  -0.845  1.00 20.29 LIG 0.05  C 
BRANCH 40 41
ATOM     41  CG  ARG D   6      15.862  28.424  -0.092  1.00 28.41 LIG 0.02  C 
BRANCH 41 42
ATOM     42  CD  ARG D   6      16.514  28.849   1.218  1.00 36.78 LIG 0.14  C 
BRANCH 42 43
ATOM     43  NE  ARG D   6      17.963  28.662   1.218  1.00 40.20 LIG-0.23  N 
ATOM     44  CZ  ARG D   6      18.607  27.837   2.039  1.00 47.18 LIG 0.67  C 
ATOM     45  NH2 ARG D   6      19.927  27.724   1.976  1.00 45.83 LIG-0.23  N 
ATOM     46  NH1 ARG D   6      17.927  27.123   2.928  1.00 52.71 LIG-0.23  N 
ATOM     47 1HH2 ARG D   6      20.372  28.187   1.403  1.00 45.83 LIG 0.17  HD
ATOM     48 2HH2 ARG D   6      20.339  27.189   2.509  1.00 45.83 LIG 0.17  HD
ATOM     49 1HH1 ARG D   6      17.071  27.194   2.973  1.00 52.71 LIG 0.17  HD
ATOM     50 2HH1 ARG D   6      18.342  26.589   3.458  1.00 52.71 LIG 0.17  HD
ATOM     51 HE   ARG D   6      18.428  29.114   0.652  1.00 40.20 LIG 0.18  HD
ENDBRANCH 42 43
ENDBRANCH 41 42
ENDBRANCH 40 41
ENDBRANCH 38 40
ENDBRANCH 35 38
ENDBRANCH 33 34
BRANCH 33 52
ATOM     52  CB  GLU D   7      17.297  21.566  -0.673  1.00 13.53 LIG 0.04  C 
BRANCH 52 53
ATOM     53  CG  GLU D   7      15.995  20.856  -0.958  1.00 15.67 LIG 0.12  C 
BRANCH 53 54
ATOM     54  CD  GLU D   7      15.977  20.246  -2.347  1.00 22.62 LIG 0.17  C 
ATOM     55 OE2  GLU D   7      15.105  20.618  -3.155  1.00 20.96 LIG-0.65  OA
ATOM     56 OE1  GLU D   7      16.858  19.409  -2.639  1.00 32.46 LIG-0.65  OA
ENDBRANCH 53 54
ENDBRANCH 52 53
ENDBRANCH 33 52
ENDBRANCH 1 33
TORSDOF 22
ENDMDL
MODEL 4
USER: ADFR SOLUTION from run 98
USER: SCORE 15.292308 LL:  -3.085 LR: -13.364 RR:   0.000 FEB:  -6.801
USER: RMSD 3.863720
USER: SEED 97
USER: STATUS searching
USER: GENES 24
USER: genes 0 Translation |==|  0.37896 0.43499 0.38292
USER: genes 1 Rotation |==|  0.60091 0.51432 0.57542 0.98366
USER: genes 2 Torsion [C]-N--CA-[CB] |==|  0.21865
USER: genes 3 Torsion [N]-CA--CB-[CG2] |==|  0.48399
USER: genes 4 Torsion [CA]-CB--OG1-[HG1] |==|  0.16897
USER: genes 5 Torsion [N]-CA--C-[N] |==|  0.37245
USER: genes 6 Torsion [C]-N--CA-[C] |==|  0.79548
USER: genes 7 Torsion [N]-CA--CB-[CG] |==|  0.59710
USER: genes 8 Torsion [CA]-CB--CG-[CD] |==|  0.71969
USER: genes 9 Torsion [CB]-CG--CD-[OE1] |==|  0.77241
USER: genes 10 Torsion [N]-CA--C-[N] |==|  0.43288
USER: genes 11 Torsion [C]-N--CA-[CB] |==|  0.24033
USER: genes 12 Torsion [N]-CA--CB-[CG2] |==|  0.03798
USER: genes 13 Torsion [N]-CA--C-[OXT] |==|  0.42632
USER: genes 14 Torsion [N]-C--CA-[N] |==|  0.41674
USER: genes 15 Torsion [C]-CA--N-[C] |==|  0.63071
USER: genes 16 Torsion [N]-C--CA-[N] |==|  0.06979
USER: genes 17 Torsion [C]-CA--CB-[CG] |==|  0.88368
USER: genes 18 Torsion [CA]-CB--CG-[CD] |==|  0.46057
USER: genes 19 Torsion [CB]-CG--CD-[NE] |==|  0.07973
USER: genes 20 Torsion [CG]-CD--NE-[HE] |==|  0.96228
USER: genes 21 Torsion [C]-CA--CB-[CG] |==|  0.16309
USER: genes 22 Torsion [CA]-CB--CG-[CD] |==|  0.42649
USER: genes 23 Torsion [CB]-CG--CD-[OE2] |==|  0.49567
ROOT
ATOM      1  C   GLU D   7      18.704  22.760   0.421  1.00 11.94 LIG 0.24  C 
ATOM      2 O    GLU D   7      18.729  22.255   1.542  1.00 14.56 LIG-0.27  OA
ATOM      3  N   THR D   8      19.702  23.498  -0.063  1.00  6.63 LIG-0.34  N 
ATOM      4 H    THR D   8      19.706  23.840  -0.852  1.00  6.63 LIG 0.16  HD
ENDROOT
BRANCH 3 5
ATOM      5  CA  THR D   8      20.895  23.790   0.722  1.00  8.00 LIG 0.20  C 
BRANCH 5 6
ATOM      6  CB  THR D   8      21.858  22.594   0.735  1.00  7.16 LIG 0.15  C 
ATOM      7  CG2 THR D   8      23.161  22.951   1.435  1.00  8.54 LIG 0.04  C 
BRANCH 6 8
ATOM      8 OG1  THR D   8      21.237  21.496   1.428  1.00  7.76 LIG-0.39  OA
ATOM      9 HG1  THR D   8      20.532  21.274   1.028  1.00  7.76 LIG 0.21  HD
ENDBRANCH 6 8
ENDBRANCH 5 6
BRANCH 5 10
ATOM     10  C   THR D   8      21.631  25.006   0.164  1.00  6.30 LIG 0.24  C 
ATOM     11 O    THR D   8      21.833  25.120  -1.053  1.00  7.25 LIG-0.27  OA
ATOM     12  N   GLN D   9      22.027  25.913   1.054  1.00  7.34 LIG-0.35  N 
ATOM     13 H    GLN D   9      21.826  25.884   1.890  1.00  7.34 LIG 0.16  HD
BRANCH 12 14
ATOM     14  CA  GLN D   9      22.849  27.049   0.673  1.00  6.42 LIG 0.18  C 
BRANCH 14 15
ATOM     15  CB  GLN D   9      22.854  28.067   1.812  1.00  8.55 LIG 0.04  C 
BRANCH 15 16
ATOM     16  CG  GLN D   9      22.897  29.502   1.357  1.00 10.19 LIG 0.10  C 
BRANCH 16 17
ATOM     17  CD  GLN D   9      24.290  30.103   1.460  1.00 10.51 LIG 0.21  C 
ATOM     18 OE1  GLN D   9      24.724  30.544   2.532  1.00 10.16 LIG-0.27  OA
ATOM     19  NE2 GLN D   9      25.003  30.108   0.337  1.00 11.61 LIG-0.37  N 
ATOM     20 22HE GLN D   9      25.802  30.427   0.337  1.00 11.61 LIG 0.16  HD
ATOM     21 21HE GLN D   9      24.666  29.792  -0.389  1.00 11.61 LIG 0.16  HD
ENDBRANCH 16 17
ENDBRANCH 15 16
ENDBRANCH 14 15
BRANCH 14 22
ATOM     22  C   GLN D   9      24.260  26.575   0.406  1.00  5.32 LIG 0.24  C 
ATOM     23 O    GLN D   9      24.673  25.545   0.927  1.00  6.01 LIG-0.27  OA
ATOM     24  N   VAL D  10      25.008  27.329  -0.403  1.00  6.34 LIG-0.34  N 
ATOM     25 H    VAL D  10      24.731  28.052  -0.778  1.00  6.34 LIG 0.16  HD
BRANCH 24 26
ATOM     26  CA  VAL D  10      26.388  26.974  -0.726  1.00  7.66 LIG 0.19  C 
BRANCH 26 27
ATOM     27  CB  VAL D  10      26.478  26.005  -1.931  1.00  6.96 LIG 0.01  C 
ATOM     28  CG1 VAL D  10      26.868  24.618  -1.464  1.00  7.91 LIG 0.01  C 
ATOM     29  CG2 VAL D  10      25.140  25.938  -2.676  1.00  7.70 LIG 0.01  C 
ENDBRANCH 26 27
BRANCH 26 30
ATOM     30  C   VAL D  10      27.237  28.205  -1.029  1.00  6.04 LIG 0.20  C 
ATOM     31 OXT  VAL D  10      28.459  28.195  -0.847  1.00  6.83 LIG-0.65  OA
ATOM     32 O    VAL D  10      26.677  29.222  -1.449  1.00  6.68 LIG-0.65  OA
ENDBRANCH 26 30
ENDBRANCH 24 26
ENDBRANCH 14 22
ENDBRANCH 12 14
ENDBRANCH 5 10
ENDBRANCH 3 5
BRANCH 1 33
ATOM     33  CA  GLU D   7      17.505  22.543  -0.494  1.00 10.87 LIG 0.18  C 
BRANCH 33 34
ATOM     34  N   GLU D   7      16.895  21.252  -0.188  1.00 12.61 LIG-0.35  N 
ATOM     35  C   ARG D   6      16.564  20.391  -1.146  1.00 15.63 LIG 0.26  C 
ATOM     36 O    ARG D   6      16.806  20.589  -2.333  1.00 17.14 LIG-0.27  OA
ATOM     37 H    GLU D   7      16.774  21.107   0.651  1.00 12.61 LIG 0.16  HD
BRANCH 35 38
ATOM     38  CA  ARG D   6      15.851  19.118  -0.702  1.00 20.39 LIG 0.40  C 
ATOM     39  N   ARG D   6      15.146  19.311   0.562  1.00 31.26 LIG 0.61  N 
BRANCH 38 40
ATOM     40  CB  ARG D   6      14.890  18.623  -1.783  1.00 20.29 LIG 0.05  C 
BRANCH 40 41
ATOM     41  CG  ARG D   6      14.095  19.736  -2.445  1.00 28.41 LIG 0.02  C 
BRANCH 41 42
ATOM     42  CD  ARG D   6      13.420  19.263  -3.727  1.00 36.78 LIG 0.14  C 
BRANCH 42 43
ATOM     43  NE  ARG D   6      13.102  17.837  -3.709  1.00 40.20 LIG-0.23  N 
ATOM     44  CZ  ARG D   6      12.292  17.245  -4.582  1.00 47.18 LIG 0.67  C 
ATOM     45  NH2 ARG D   6      12.052  15.943  -4.497  1.00 45.83 LIG-0.23  N 
ATOM     46  NH1 ARG D   6      11.716  17.959  -5.542  1.00 52.71 LIG-0.23  N 
ATOM     47 1HH2 ARG D   6      12.422  15.477  -3.876  1.00 45.83 LIG 0.17  HD
ATOM     48 2HH2 ARG D   6      11.527  15.564  -5.064  1.00 45.83 LIG 0.17  HD
ATOM     49 1HH1 ARG D   6      11.866  18.804  -5.599  1.00 52.71 LIG 0.17  HD
ATOM     50 2HH1 ARG D   6      11.192  17.577  -6.106  1.00 52.71 LIG 0.17  HD
ATOM     51 HE   ARG D   6      13.461  17.352  -3.097  1.00 40.20 LIG 0.18  HD
ENDBRANCH 42 43
ENDBRANCH 41 42
ENDBRANCH 40 41
ENDBRANCH 38 40
ENDBRANCH 35 38
ENDBRANCH 33 34
BRANCH 33 52
ATOM     52  CB  GLU D   7      16.481  23.658  -0.302  1.00 13.53 LIG 0.04  C 
BRANCH 52 53
ATOM     53  CG  GLU D   7      17.004  25.049  -0.571  1.00 15.67 LIG 0.12  C 
BRANCH 53 54
ATOM     54  CD  GLU D   7      15.896  25.995  -0.995  1.00 22.62 LIG 0.17  C 
ATOM     55 OE2  GLU D   7      16.179  27.187  -1.222  1.00 20.96 LIG-0.65  OA
ATOM     56 OE1  GLU D   7      14.741  25.536  -1.127  1.00 32.46 LIG-0.65  OA
ENDBRANCH 53 54
ENDBRANCH 52 53
ENDBRANCH 33 52
ENDBRANCH 1 33
TORSDOF 22
ENDMDL
MODEL 5
USER: ADFR SOLUTION from run 57
USER: SCORE 14.982861 LL:  -3.030 LR: -13.341 RR:   0.000 FEB:  -6.778
USER: RMSD 6.256026
USER: SEED 56
USER: STATUS no improvement in best in 11 clusters for 5 generations
USER: GENES 24
USER: genes 0 Translation |==|  0.36688 0.45115 0.40527
USER: genes 1 Rotation |==|  0.65162 0.56415 0.53830 0.97056
USER: genes 2 Torsion [C]-N--CA-[CB] |==|  0.23778
USER: genes 3 Torsion [N]-CA--CB-[CG2] |==|  0.38971
USER: genes 4 Torsion [CA]-CB--OG1-[HG1] |==|  0.28365
USER: genes 5 Torsion [N]-CA--C-[N] |==|  0.37160
USER: genes 6 Torsion [C]-N--CA-[C] |==|  0.73890
USER: genes 7 Torsion [N]-CA--CB-[CG] |==|  0.77743
USER: genes 8 Torsion [CA]-CB--CG-[CD] |==|  0.19969
USER: genes 9 Torsion [CB]-CG--CD-[OE1] |==|  0.17734
USER: genes 10 Torsion [N]-CA--C-[N] |==|  0.36321
USER: genes 11 Torsion [C]-N--CA-[CB] |==|  0.29205
USER: genes 12 Torsion [N]-CA--CB-[CG2] |==|  0.05903
USER: genes 13 Torsion [N]-CA--C-[OXT] |==|  0.91219
USER: genes 14 Torsion [N]-C--CA-[N] |==|  0.86997
USER: genes 15 Torsion [C]-CA--N-[C] |==|  0.78022
USER: genes 16 Torsion [N]-C--CA-[N] |==|  0.77425
USER: genes 17 Torsion [C]-CA--CB-[CG] |==|  0.59049
USER: genes 18 Torsion [CA]-CB--CG-[CD] |==|  0.60043
USER: genes 19 Torsion [CB]-CG--CD-[NE] |==|  0.50561
USER: genes 20 Torsion [CG]-CD--NE-[HE] |==|  0.02114
USER: genes 21 Torsion [C]-CA--CB-[CG] |==|  0.39397
USER: genes 22 Torsion [CA]-CB--CG-[CD] |==|  0.53147
USER: genes 23 Torsion [CB]-CG--CD-[OE2] |==|  0.58906
ROOT
ATOM      1  C   GLU D   7      18.432  23.160   0.823  1.00 11.94 LIG 0.24  C 
ATOM      2 O    GLU D   7      18.667  22.457   1.805  1.00 14.56 LIG-0.27  OA
ATOM      3  N   THR D   8      19.366  23.894   0.218  1.00  6.63 LIG-0.34  N 
ATOM      4 H    THR D   8      19.219  24.373  -0.481  1.00  6.63 LIG 0.16  HD
ENDROOT
BRANCH 3 5
ATOM      5  CA  THR D   8      20.739  23.944   0.702  1.00  8.00 LIG 0.20  C 
BRANCH 5 6
ATOM      6  CB  THR D   8      21.570  22.782   0.135  1.00  7.16 LIG 0.15  C 
ATOM      7  CG2 THR D   8      22.973  23.244  -0.232  1.00  8.54 LIG 0.04  C 
BRANCH 6 8
ATOM      8 OG1  THR D   8      21.661  21.741   1.125  1.00  7.76 LIG-0.39  OA
ATOM      9 HG1  THR D   8      21.126  21.123   0.932  1.00  7.76 LIG 0.21  HD
ENDBRANCH 6 8
ENDBRANCH 5 6
BRANCH 5 10
ATOM     10  C   THR D   8      21.408  25.260   0.312  1.00  6.30 LIG 0.24  C 
ATOM     11 O    THR D   8      21.305  25.705  -0.839  1.00  7.25 LIG-0.27  OA
ATOM     12  N   GLN D   9      22.088  25.881   1.273  1.00  7.34 LIG-0.35  N 
ATOM     13 H    GLN D   9      22.103  25.624   2.093  1.00  7.34 LIG 0.16  HD
BRANCH 12 14
ATOM     14  CA  GLN D   9      22.877  27.071   1.002  1.00  6.42 LIG 0.18  C 
BRANCH 14 15
ATOM     15  CB  GLN D   9      22.825  27.992   2.220  1.00  8.55 LIG 0.04  C 
BRANCH 15 16
ATOM     16  CG  GLN D   9      21.570  28.820   2.314  1.00 10.19 LIG 0.10  C 
BRANCH 16 17
ATOM     17  CD  GLN D   9      20.353  27.991   2.689  1.00 10.51 LIG 0.21  C 
ATOM     18 OE1  GLN D   9      20.276  27.417   3.783  1.00 10.16 LIG-0.27  OA
ATOM     19  NE2 GLN D   9      19.384  27.939   1.779  1.00 11.61 LIG-0.37  N 
ATOM     20 22HE GLN D   9      18.667  27.492   1.939  1.00 11.61 LIG 0.16  HD
ATOM     21 21HE GLN D   9      19.475  28.353   1.029  1.00 11.61 LIG 0.16  HD
ENDBRANCH 16 17
ENDBRANCH 15 16
ENDBRANCH 14 15
BRANCH 14 22
ATOM     22  C   GLN D   9      24.308  26.668   0.729  1.00  5.32 LIG 0.24  C 
ATOM     23 O    GLN D   9      24.892  25.909   1.495  1.00  6.01 LIG-0.27  OA
ATOM     24  N   VAL D  10      24.882  27.178  -0.363  1.00  6.34 LIG-0.34  N 
ATOM     25 H    VAL D  10      24.485  27.709  -0.910  1.00  6.34 LIG 0.16  HD
BRANCH 24 26
ATOM     26  CA  VAL D  10      26.263  26.866  -0.723  1.00  7.66 LIG 0.19  C 
BRANCH 26 27
ATOM     27  CB  VAL D  10      26.350  25.872  -1.908  1.00  6.96 LIG 0.01  C 
ATOM     28  CG1 VAL D  10      26.623  24.471  -1.403  1.00  7.91 LIG 0.01  C 
ATOM     29  CG2 VAL D  10      25.049  25.880  -2.720  1.00  7.70 LIG 0.01  C 
ENDBRANCH 26 27
BRANCH 26 30
ATOM     30  C   VAL D  10      27.057  28.118  -1.081  1.00  6.04 LIG 0.20  C 
ATOM     31 OXT  VAL D  10      26.507  29.092  -1.608  1.00  6.83 LIG-0.65  OA
ATOM     32 O    VAL D  10      28.269  28.139  -0.846  1.00  6.68 LIG-0.65  OA
ENDBRANCH 26 30
ENDBRANCH 24 26
ENDBRANCH 14 22
ENDBRANCH 12 14
ENDBRANCH 5 10
ENDBRANCH 3 5
BRANCH 1 33
ATOM     33  CA  GLU D   7      17.030  23.209   0.230  1.00 10.87 LIG 0.18  C 
BRANCH 33 34
ATOM     34  N   GLU D   7      16.665  24.599  -0.027  1.00 12.61 LIG-0.35  N 
ATOM     35  C   ARG D   6      16.250  25.404   0.947  1.00 15.63 LIG 0.26  C 
ATOM     36 O    ARG D   6      16.209  25.059   2.125  1.00 17.14 LIG-0.27  OA
ATOM     37 H    GLU D   7      16.743  24.840  -0.848  1.00 12.61 LIG 0.16  HD
BRANCH 35 38
ATOM     38  CA  ARG D   6      15.812  26.805   0.534  1.00 20.39 LIG 0.40  C 
ATOM     39  N   ARG D   6      16.956  27.695   0.361  1.00 31.26 LIG 0.61  N 
BRANCH 38 40
ATOM     40  CB  ARG D   6      14.969  26.761  -0.741  1.00 20.29 LIG 0.05  C 
BRANCH 40 41
ATOM     41  CG  ARG D   6      15.142  27.983  -1.627  1.00 28.41 LIG 0.02  C 
BRANCH 41 42
ATOM     42  CD  ARG D   6      13.836  28.381  -2.304  1.00 36.78 LIG 0.14  C 
BRANCH 42 43
ATOM     43  NE  ARG D   6      13.987  29.526  -3.198  1.00 40.20 LIG-0.23  N 
ATOM     44  CZ  ARG D   6      12.969  30.148  -3.788  1.00 47.18 LIG 0.67  C 
ATOM     45  NH2 ARG D   6      13.189  31.182  -4.590  1.00 45.83 LIG-0.23  N 
ATOM     46  NH1 ARG D   6      11.726  29.731  -3.578  1.00 52.71 LIG-0.23  N 
ATOM     47 1HH2 ARG D   6      13.993  31.454  -4.730  1.00 45.83 LIG 0.17  HD
ATOM     48 2HH2 ARG D   6      12.528  31.581  -4.969  1.00 45.83 LIG 0.17  HD
ATOM     49 1HH1 ARG D   6      11.579  29.060  -3.061  1.00 52.71 LIG 0.17  HD
ATOM     50 2HH1 ARG D   6      11.068  30.133  -3.958  1.00 52.71 LIG 0.17  HD
ATOM     51 HE   ARG D   6      14.782  29.815  -3.353  1.00 40.20 LIG 0.18  HD
ENDBRANCH 42 43
ENDBRANCH 41 42
ENDBRANCH 40 41
ENDBRANCH 38 40
ENDBRANCH 35 38
ENDBRANCH 33 34
BRANCH 33 52
ATOM     52  CB  GLU D   7      16.974  22.411  -1.069  1.00 13.53 LIG 0.04  C 
BRANCH 52 53
ATOM     53  CG  GLU D   7      15.698  21.631  -1.277  1.00 15.67 LIG 0.12  C 
BRANCH 53 54
ATOM     54  CD  GLU D   7      15.815  20.655  -2.433  1.00 22.62 LIG 0.17  C 
ATOM     55 OE2  GLU D   7      14.800  20.401  -3.109  1.00 20.96 LIG-0.65  OA
ATOM     56 OE1  GLU D   7      16.935  20.161  -2.681  1.00 32.46 LIG-0.65  OA
ENDBRANCH 53 54
ENDBRANCH 52 53
ENDBRANCH 33 52
ENDBRANCH 1 33
TORSDOF 22
ENDMDL
MODEL 6
USER: ADFR SOLUTION from run 100
USER: SCORE 15.171202 LL:  -3.467 LR: -12.896 RR:   0.000 FEB:  -6.333
USER: RMSD 6.158844
USER: SEED 99
USER: STATUS no improvement in best in 11 clusters for 5 generations
USER: GENES 24
USER: genes 0 Translation |==|  0.37189 0.44940 0.38981
USER: genes 1 Rotation |==|  0.64403 0.54648 0.54772 0.97415
USER: genes 2 Torsion [C]-N--CA-[CB] |==|  0.24308
USER: genes 3 Torsion [N]-CA--CB-[CG2] |==|  0.39745
USER: genes 4 Torsion [CA]-CB--OG1-[HG1] |==|  0.21241
USER: genes 5 Torsion [N]-CA--C-[N] |==|  0.39241
USER: genes 6 Torsion [C]-N--CA-[C] |==|  0.73205
USER: genes 7 Torsion [N]-CA--CB-[CG] |==|  0.78548
USER: genes 8 Torsion [CA]-CB--CG-[CD] |==|  0.18563
USER: genes 9 Torsion [CB]-CG--CD-[OE1] |==|  0.13704
USER: genes 10 Torsion [N]-CA--C-[N] |==|  0.39265
USER: genes 11 Torsion [C]-N--CA-[CB] |==|  0.25264
USER: genes 12 Torsion [N]-CA--CB-[CG2] |==|  0.04382
USER: genes 13 Torsion [N]-CA--C-[OXT] |==|  0.88939
USER: genes 14 Torsion [N]-C--CA-[N] |==|  0.91101
USER: genes 15 Torsion [C]-CA--N-[C] |==|  0.79887
USER: genes 16 Torsion [N]-C--CA-[N] |==|  0.26440
USER: genes 17 Torsion [C]-CA--CB-[CG] |==|  0.73909
USER: genes 18 Torsion [CA]-CB--CG-[CD] |==|  0.46259
USER: genes 19 Torsion [CB]-CG--CD-[NE] |==|  0.16308
USER: genes 20 Torsion [CG]-CD--NE-[HE] |==|  0.82082
USER: genes 21 Torsion [C]-CA--CB-[CG] |==|  0.25767
USER: genes 22 Torsion [CA]-CB--CG-[CD] |==|  0.46107
USER: genes 23 Torsion [CB]-CG--CD-[OE2] |==|  0.89119
ROOT
ATOM      1  C   GLU D   7      18.544  23.117   0.545  1.00 11.94 LIG 0.24  C 
ATOM      2 O    GLU D   7      18.709  22.440   1.559  1.00 14.56 LIG-0.27  OA
ATOM      3  N   THR D   8      19.513  23.853   0.001  1.00  6.63 LIG-0.34  N 
ATOM      4 H    THR D   8      19.417  24.315  -0.718  1.00  6.63 LIG 0.16  HD
ENDROOT
BRANCH 3 5
ATOM      5  CA  THR D   8      20.841  23.938   0.595  1.00  8.00 LIG 0.20  C 
BRANCH 5 6
ATOM      6  CB  THR D   8      21.749  22.807   0.089  1.00  7.16 LIG 0.15  C 
ATOM      7  CG2 THR D   8      23.178  23.295  -0.096  1.00  8.54 LIG 0.04  C 
BRANCH 6 8
ATOM      8 OG1  THR D   8      21.739  21.731   1.045  1.00  7.76 LIG-0.39  OA
ATOM      9 HG1  THR D   8      21.021  21.300   0.975  1.00  7.76 LIG 0.21  HD
ENDBRANCH 6 8
ENDBRANCH 5 6
BRANCH 5 10
ATOM     10  C   THR D   8      21.500  25.277   0.269  1.00  6.30 LIG 0.24  C 
ATOM     11 O    THR D   8      21.361  25.796  -0.847  1.00  7.25 LIG-0.27  OA
ATOM     12  N   GLN D   9      22.213  25.833   1.245  1.00  7.34 LIG-0.35  N 
ATOM     13 H    GLN D   9      22.254  25.523   2.046  1.00  7.34 LIG 0.16  HD
BRANCH 12 14
ATOM     14  CA  GLN D   9      22.996  27.038   1.027  1.00  6.42 LIG 0.18  C 
BRANCH 14 15
ATOM     15  CB  GLN D   9      22.936  27.908   2.282  1.00  8.55 LIG 0.04  C 
BRANCH 15 16
ATOM     16  CG  GLN D   9      21.647  28.671   2.442  1.00 10.19 LIG 0.10  C 
BRANCH 16 17
ATOM     17  CD  GLN D   9      20.458  27.759   2.694  1.00 10.51 LIG 0.21  C 
ATOM     18 OE1  GLN D   9      20.496  26.874   3.558  1.00 10.16 LIG-0.27  OA
ATOM     19  NE2 GLN D   9      19.385  27.986   1.942  1.00 11.61 LIG-0.37  N 
ATOM     20 22HE GLN D   9      18.678  27.506   2.046  1.00 11.61 LIG 0.16  HD
ATOM     21 21HE GLN D   9      19.397  28.611   1.351  1.00 11.61 LIG 0.16  HD
ENDBRANCH 16 17
ENDBRANCH 15 16
ENDBRANCH 14 15
BRANCH 14 22
ATOM     22  C   GLN D   9      24.430  26.655   0.740  1.00  5.32 LIG 0.24  C 
ATOM     23 O    GLN D   9      24.955  25.730   1.351  1.00  6.01 LIG-0.27  OA
ATOM     24  N   VAL D  10      25.073  27.368  -0.188  1.00  6.34 LIG-0.34  N 
ATOM     25 H    VAL D  10      24.717  28.018  -0.625  1.00  6.34 LIG 0.16  HD
BRANCH 24 26
ATOM     26  CA  VAL D  10      26.463  27.094  -0.541  1.00  7.66 LIG 0.19  C 
BRANCH 26 27
ATOM     27  CB  VAL D  10      26.583  26.083  -1.709  1.00  6.96 LIG 0.01  C 
ATOM     28  CG1 VAL D  10      27.032  24.731  -1.192  1.00  7.91 LIG 0.01  C 
ATOM     29  CG2 VAL D  10      25.243  25.934  -2.438  1.00  7.70 LIG 0.01  C 
ENDBRANCH 26 27
BRANCH 26 30
ATOM     30  C   VAL D  10      27.217  28.365  -0.921  1.00  6.04 LIG 0.20  C 
ATOM     31 OXT  VAL D  10      26.677  29.247  -1.597  1.00  6.83 LIG-0.65  OA
ATOM     32 O    VAL D  10      28.388  28.492  -0.551  1.00  6.68 LIG-0.65  OA
ENDBRANCH 26 30
ENDBRANCH 24 26
ENDBRANCH 14 22
ENDBRANCH 12 14
ENDBRANCH 5 10
ENDBRANCH 3 5
BRANCH 1 33
ATOM     33  CA  GLU D   7      17.195  23.127  -0.162  1.00 10.87 LIG 0.18  C 
BRANCH 33 34
ATOM     34  N   GLU D   7      16.991  24.431  -0.787  1.00 12.61 LIG-0.35  N 
ATOM     35  C   ARG D   6      16.728  25.518  -0.068  1.00 15.63 LIG 0.26  C 
ATOM     36 O    ARG D   6      16.704  25.515   1.160  1.00 17.14 LIG-0.27  OA
ATOM     37 H    GLU D   7      17.056  24.427  -1.645  1.00 12.61 LIG 0.16  HD
BRANCH 35 38
ATOM     38  CA  ARG D   6      16.445  26.799  -0.846  1.00 20.39 LIG 0.40  C 
ATOM     39  N   ARG D   6      15.013  27.006  -1.036  1.00 31.26 LIG 0.61  N 
BRANCH 38 40
ATOM     40  CB  ARG D   6      17.075  28.009  -0.155  1.00 20.29 LIG 0.05  C 
BRANCH 40 41
ATOM     41  CG  ARG D   6      16.127  28.735   0.783  1.00 28.41 LIG 0.02  C 
BRANCH 41 42
ATOM     42  CD  ARG D   6      16.866  29.714   1.688  1.00 36.78 LIG 0.14  C 
BRANCH 42 43
ATOM     43  NE  ARG D   6      17.606  30.729   0.941  1.00 40.20 LIG-0.23  N 
ATOM     44  CZ  ARG D   6      17.332  32.030   0.982  1.00 47.18 LIG 0.67  C 
ATOM     45  NH2 ARG D   6      18.052  32.889   0.272  1.00 45.83 LIG-0.23  N 
ATOM     46  NH1 ARG D   6      16.330  32.473   1.732  1.00 52.71 LIG-0.23  N 
ATOM     47 1HH2 ARG D   6      18.701  32.606  -0.217  1.00 45.83 LIG 0.17  HD
ATOM     48 2HH2 ARG D   6      17.871  33.729   0.301  1.00 45.83 LIG 0.17  HD
ATOM     49 1HH1 ARG D   6      15.859  31.919   2.191  1.00 52.71 LIG 0.17  HD
ATOM     50 2HH1 ARG D   6      16.152  33.313   1.759  1.00 52.71 LIG 0.17  HD
ATOM     51 HE   ARG D   6      18.260  30.468   0.446  1.00 40.20 LIG 0.18  HD
ENDBRANCH 42 43
ENDBRANCH 41 42
ENDBRANCH 40 41
ENDBRANCH 38 40
ENDBRANCH 35 38
ENDBRANCH 33 34
BRANCH 33 52
ATOM     52  CB  GLU D   7      17.141  22.031  -1.222  1.00 13.53 LIG 0.04  C 
BRANCH 52 53
ATOM     53  CG  GLU D   7      16.563  20.721  -0.745  1.00 15.67 LIG 0.12  C 
BRANCH 53 54
ATOM     54  CD  GLU D   7      16.223  19.800  -1.902  1.00 22.62 LIG 0.17  C 
ATOM     55 OE2  GLU D   7      15.728  20.291  -2.935  1.00 20.96 LIG-0.65  OA
ATOM     56 OE1  GLU D   7      16.478  18.582  -1.787  1.00 32.46 LIG-0.65  OA
ENDBRANCH 53 54
ENDBRANCH 52 53
ENDBRANCH 33 52
ENDBRANCH 1 33
TORSDOF 22
ENDMDL
MODEL 7
USER: ADFR SOLUTION from run 44
USER: SCORE 16.101462 LL:  -4.499 LR: -12.803 RR:   0.000 FEB:  -6.240
USER: RMSD 2.195850
USER: SEED 43
USER: STATUS no improvement in best in 3 clusters for 5 generations
USER: GENES 24
USER: genes 0 Translation |==|  0.37982 0.43607 0.38534
USER: genes 1 Rotation |==|  0.57713 0.50485 0.57761 0.98786
USER: genes 2 Torsion [C]-N--CA-[CB] |==|  0.22535
USER: genes 3 Torsion [N]-CA--CB-[CG2] |==|  0.51433
USER: genes 4 Torsion [CA]-CB--OG1-[HG1] |==|  0.26572
USER: genes 5 Torsion [N]-CA--C-[N] |==|  0.38093
USER: genes 6 Torsion [C]-N--CA-[C] |==|  0.79531
USER: genes 7 Torsion [N]-CA--CB-[CG] |==|  0.58774
USER: genes 8 Torsion [CA]-CB--CG-[CD] |==|  0.71669
USER: genes 9 Torsion [CB]-CG--CD-[OE1] |==|  0.78170
USER: genes 10 Torsion [N]-CA--C-[N] |==|  0.43125
USER: genes 11 Torsion [C]-N--CA-[CB] |==|  0.24684
USER: genes 12 Torsion [N]-CA--CB-[CG2] |==|  0.03191
USER: genes 13 Torsion [N]-CA--C-[OXT] |==|  0.42443
USER: genes 14 Torsion [N]-C--CA-[N] |==|  0.40561
USER: genes 15 Torsion [C]-CA--N-[C] |==|  0.59851
USER: genes 16 Torsion [N]-C--CA-[N] |==|  0.47099
USER: genes 17 Torsion [C]-CA--CB-[CG] |==|  0.22305
USER: genes 18 Torsion [CA]-CB--CG-[CD] |==|  0.62126
USER: genes 19 Torsion [CB]-CG--CD-[NE] |==|  0.32834
USER: genes 20 Torsion [CG]-CD--NE-[HE] |==|  0.74444
USER: genes 21 Torsion [C]-CA--CB-[CG] |==|  0.05267
USER: genes 22 Torsion [CA]-CB--CG-[CD] |==|  0.26506
USER: genes 23 Torsion [CB]-CG--CD-[OE2] |==|  0.75680
ROOT
ATOM      1  C   GLU D   7      18.723  22.787   0.464  1.00 11.94 LIG 0.24  C 
ATOM      2 O    GLU D   7      18.688  22.383   1.626  1.00 14.56 LIG-0.27  OA
ATOM      3  N   THR D   8      19.747  23.482  -0.030  1.00  6.63 LIG-0.34  N 
ATOM      4 H    THR D   8      19.793  23.752  -0.845  1.00  6.63 LIG 0.16  HD
ENDROOT
BRANCH 3 5
ATOM      5  CA  THR D   8      20.896  23.848   0.789  1.00  8.00 LIG 0.20  C 
BRANCH 5 6
ATOM      6  CB  THR D   8      21.886  22.678   0.910  1.00  7.16 LIG 0.15  C 
ATOM      7  CG2 THR D   8      23.019  23.021   1.866  1.00  8.54 LIG 0.04  C 
BRANCH 6 8
ATOM      8 OG1  THR D   8      21.188  21.520   1.402  1.00  7.76 LIG-0.39  OA
ATOM      9 HG1  THR D   8      20.954  21.037   0.756  1.00  7.76 LIG 0.21  HD
ENDBRANCH 6 8
ENDBRANCH 5 6
BRANCH 5 10
ATOM     10  C   THR D   8      21.629  25.049   0.195  1.00  6.30 LIG 0.24  C 
ATOM     11 O    THR D   8      21.832  25.127  -1.024  1.00  7.25 LIG-0.27  OA
ATOM     12  N   GLN D   9      22.019  25.983   1.059  1.00  7.34 LIG-0.35  N 
ATOM     13 H    GLN D   9      21.817  25.979   1.894  1.00  7.34 LIG 0.16  HD
BRANCH 12 14
ATOM     14  CA  GLN D   9      22.837  27.111   0.644  1.00  6.42 LIG 0.18  C 
BRANCH 14 15
ATOM     15  CB  GLN D   9      22.835  28.164   1.752  1.00  8.55 LIG 0.04  C 
BRANCH 15 16
ATOM     16  CG  GLN D   9      22.954  29.581   1.257  1.00 10.19 LIG 0.10  C 
BRANCH 16 17
ATOM     17  CD  GLN D   9      24.357  30.140   1.425  1.00 10.51 LIG 0.21  C 
ATOM     18 OE1  GLN D   9      24.762  30.546   2.522  1.00 10.16 LIG-0.27  OA
ATOM     19  NE2 GLN D   9      25.113  30.149   0.330  1.00 11.61 LIG-0.37  N 
ATOM     20 22HE GLN D   9      25.919  30.446   0.367  1.00 11.61 LIG 0.16  HD
ATOM     21 21HE GLN D   9      24.795  29.858  -0.414  1.00 11.61 LIG 0.16  HD
ENDBRANCH 16 17
ENDBRANCH 15 16
ENDBRANCH 14 15
BRANCH 14 22
ATOM     22  C   GLN D   9      24.251  26.636   0.396  1.00  5.32 LIG 0.24  C 
ATOM     23 O    GLN D   9      24.671  25.630   0.957  1.00  6.01 LIG-0.27  OA
ATOM     24  N   VAL D  10      24.993  27.361  -0.444  1.00  6.34 LIG-0.34  N 
ATOM     25 H    VAL D  10      24.712  28.066  -0.847  1.00  6.34 LIG 0.16  HD
BRANCH 24 26
ATOM     26  CA  VAL D  10      26.376  27.002  -0.754  1.00  7.66 LIG 0.19  C 
BRANCH 26 27
ATOM     27  CB  VAL D  10      26.474  26.031  -1.956  1.00  6.96 LIG 0.01  C 
ATOM     28  CG1 VAL D  10      26.908  24.657  -1.490  1.00  7.91 LIG 0.01  C 
ATOM     29  CG2 VAL D  10      25.127  25.925  -2.681  1.00  7.70 LIG 0.01  C 
ENDBRANCH 26 27
BRANCH 26 30
ATOM     30  C   VAL D  10      27.231  28.230  -1.050  1.00  6.04 LIG 0.20  C 
ATOM     31 OXT  VAL D  10      28.450  28.222  -0.846  1.00  6.83 LIG-0.65  OA
ATOM     32 O    VAL D  10      26.679  29.244  -1.489  1.00  6.68 LIG-0.65  OA
ENDBRANCH 26 30
ENDBRANCH 24 26
ENDBRANCH 14 22
ENDBRANCH 12 14
ENDBRANCH 5 10
ENDBRANCH 3 5
BRANCH 1 33
ATOM     33  CA  GLU D   7      17.574  22.485  -0.489  1.00 10.87 LIG 0.18  C 
BRANCH 33 34
ATOM     34  N   GLU D   7      17.008  21.180  -0.162  1.00 12.61 LIG-0.35  N 
ATOM     35  C   ARG D   6      16.546  20.362  -1.103  1.00 15.63 LIG 0.26  C 
ATOM     36 O    ARG D   6      16.622  20.615  -2.303  1.00 17.14 LIG-0.27  OA
ATOM     37 H    GLU D   7      17.004  20.996   0.678  1.00 12.61 LIG 0.16  HD
BRANCH 35 38
ATOM     38  CA  ARG D   6      15.897  19.068  -0.624  1.00 20.39 LIG 0.40  C 
ATOM     39  N   ARG D   6      15.215  18.374  -1.712  1.00 31.26 LIG 0.61  N 
BRANCH 38 40
ATOM     40  CB  ARG D   6      16.928  18.150   0.035  1.00 20.29 LIG 0.05  C 
BRANCH 40 41
ATOM     41  CG  ARG D   6      17.245  18.525   1.473  1.00 28.41 LIG 0.02  C 
BRANCH 41 42
ATOM     42  CD  ARG D   6      18.741  18.468   1.756  1.00 36.78 LIG 0.14  C 
BRANCH 42 43
ATOM     43  NE  ARG D   6      19.295  19.763   2.143  1.00 40.20 LIG-0.23  N 
ATOM     44  CZ  ARG D   6      19.334  20.212   3.394  1.00 47.18 LIG 0.67  C 
ATOM     45  NH2 ARG D   6      19.854  21.402   3.664  1.00 45.83 LIG-0.23  N 
ATOM     46  NH1 ARG D   6      18.846  19.468   4.380  1.00 52.71 LIG-0.23  N 
ATOM     47 1HH2 ARG D   6      20.169  21.888   3.028  1.00 45.83 LIG 0.17  HD
ATOM     48 2HH2 ARG D   6      19.877  21.688   4.475  1.00 45.83 LIG 0.17  HD
ATOM     49 1HH1 ARG D   6      18.506  18.697   4.210  1.00 52.71 LIG 0.17  HD
ATOM     50 2HH1 ARG D   6      18.871  19.757   5.190  1.00 52.71 LIG 0.17  HD
ATOM     51 HE   ARG D   6      19.616  20.266   1.523  1.00 40.20 LIG 0.18  HD
ENDBRANCH 42 43
ENDBRANCH 41 42
ENDBRANCH 40 41
ENDBRANCH 38 40
ENDBRANCH 35 38
ENDBRANCH 33 34
BRANCH 33 52
ATOM     52  CB  GLU D   7      16.496  23.559  -0.380  1.00 13.53 LIG 0.04  C 
BRANCH 52 53
ATOM     53  CG  GLU D   7      16.956  24.853   0.248  1.00 15.67 LIG 0.12  C 
BRANCH 53 54
ATOM     54  CD  GLU D   7      17.362  25.874  -0.798  1.00 22.62 LIG 0.17  C 
ATOM     55 OE2  GLU D   7      18.535  25.871  -1.217  1.00 20.96 LIG-0.65  OA
ATOM     56 OE1  GLU D   7      16.494  26.667  -1.222  1.00 32.46 LIG-0.65  OA
ENDBRANCH 53 54
ENDBRANCH 52 53
ENDBRANCH 33 52
ENDBRANCH 1 33
TORSDOF 22
ENDMDL
