MODEL 1
USER: ADFR SOLUTION from run 159
USER: SCORE 22.749562 LL:  -4.293 LR: -19.662 RR:   0.000 FEB: -14.293
USER: RMSD 2.291174
USER: SEED 158
USER: STATUS 1 or 2 clusters left
USER: GENES 20
USER: genes 0 Translation |==|  0.44546 0.43293 0.51309
USER: genes 1 Rotation |==|  0.54065 0.39100 0.58202 0.97931
USER: genes 2 Torsion [C]-N--CA-[CB] |==|  0.44678
USER: genes 3 Torsion [N]-CA--C-[N] |==|  0.43565
USER: genes 4 Torsion [N]-CA--C-[O] |==|  0.93806
USER: genes 5 Torsion [C]-N--CA-[C] |==|  0.73156
USER: genes 6 Torsion [N]-CA--C-[N] |==|  0.34797
USER: genes 7 Torsion [N]-CA--C-[O] |==|  0.34699
USER: genes 8 Torsion [N]-CA--CB-[CG] |==|  0.55588
USER: genes 9 Torsion [CA]-CB--CG-[CD1] |==|  0.95858
USER: genes 10 Torsion [N]-CA--CB-[CG] |==|  0.87373
USER: genes 11 Torsion [CA]-CB--CG-[CD2] |==|  0.76524
USER: genes 12 Torsion [O]-C--CA-[CB] |==|  0.14555
USER: genes 13 Torsion [N]-C--CA-[N] |==|  0.41460
USER: genes 14 Torsion [C]-CA--CB-[CG] |==|  0.34401
USER: genes 15 Torsion [CA]-CB--CG-[CD] |==|  0.80719
USER: genes 16 Torsion [CB]-CG--CD-[NE] |==|  0.70051
USER: genes 17 Torsion [CG]-CD--NE-[HE] |==|  0.98487
USER: genes 18 Torsion [C]-CA--N-[C] |==|  0.82757
USER: genes 19 Torsion [N]-C--CA-[CB] |==|  0.56655
ROOT
ATOM      1  C   PRO C  17     -12.595   8.145  -9.902  1.00 34.10 LIG 0.24  C 
ATOM      2 O    PRO C  17     -13.805   8.278 -10.071  1.00 31.91 LIG-0.27  OA
ATOM      3  N   LEU C  18     -11.709   8.996 -10.384  1.00 30.88 LIG-0.35  N 
ATOM      4 H    LEU C  18     -10.861   8.878 -10.317  1.00 30.88 LIG 0.16  HD
ENDROOT
BRANCH 3 5
ATOM      5  CA  LEU C  18     -12.072  10.223 -11.078  1.00 30.78 LIG 0.18  C 
BRANCH 5 6
ATOM      6  C   LEU C  18     -12.516  10.003 -12.514  1.00 33.73 LIG 0.24  C 
ATOM      7  N   PRO C  19     -13.307  10.947 -13.087  1.00 33.17 LIG-0.34  N 
ATOM      8  CA  PRO C  19     -13.712  10.808 -14.502  1.00 33.85 LIG 0.18  C 
ATOM      9  CD  PRO C  19     -13.886  12.166 -12.467  1.00 35.22 LIG 0.13  C 
ATOM     10  CB  PRO C  19     -14.821  11.852 -14.668  1.00 35.69 LIG 0.04  C 
ATOM     11  CG  PRO C  19     -14.607  12.843 -13.590  1.00 39.92 LIG 0.02  C 
ATOM     12 O    LEU C  18     -12.066   9.036 -13.133  1.00 31.40 LIG-0.27  OA
BRANCH 8 13
ATOM     13  C   PRO C  19     -12.568  10.986 -15.512  1.00 39.47 LIG 0.24  C 
ATOM     14  N   PHE C  20     -12.737  10.403 -16.700  1.00 41.20 LIG-0.35  N 
ATOM     15 H    PHE C  20     -13.445   9.956 -16.897  1.00 41.20 LIG 0.16  HD
ATOM     16 O    PRO C  19     -11.549  11.602 -15.216  1.00 36.20 LIG-0.27  OA
BRANCH 14 17
ATOM     17  CA  PHE C  20     -11.766  10.443 -17.793  1.00 43.59 LIG 0.18  C 
BRANCH 17 18
ATOM     18  C   PHE C  20     -12.148  11.567 -18.774  1.00 48.54 LIG 0.24  C 
ATOM     19  N   PRO C  21     -11.241  12.528 -19.092  1.00 46.41 LIG-0.34  N 
ATOM     20  CA  PRO C  21     -11.587  13.580 -20.078  1.00 51.72 LIG 0.17  C 
ATOM     21  CD  PRO C  21      -9.873  12.724 -18.573  1.00 49.19 LIG 0.13  C 
ATOM     22  CB  PRO C  21     -10.308  14.429 -20.168  1.00 52.56 LIG 0.04  C 
ATOM     23  CG  PRO C  21      -9.561  14.147 -18.927  1.00 54.82 LIG 0.02  C 
ATOM     24 O    PHE C  20     -13.276  11.548 -19.270  1.00 48.67 LIG-0.27  OA
BRANCH 20 25
ATOM     25  C   PRO C  21     -11.965  13.041 -21.458  1.00 87.57 LIG 0.22  C 
ATOM     26 O    PRO C  21     -13.043  13.349 -21.964  1.00 58.80 LIG-0.29  OA
ENDBRANCH 20 25
ENDBRANCH 17 18
BRANCH 17 27
ATOM     27  CB  PHE C  20     -11.741   9.064 -18.502  1.00 46.79 LIG 0.07  C 
BRANCH 27 28
ATOM     28  CG  PHE C  20     -10.517   8.729 -19.331  1.00 50.46 LIG-0.06  A 
ATOM     29  CD2 PHE C  20     -10.243   7.415 -19.700  1.00 54.33 LIG 0.01  A 
ATOM     30  CE2 PHE C  20      -9.112   7.107 -20.467  1.00 57.68 LIG 0.00  A 
ATOM     31  CZ  PHE C  20      -8.238   8.109 -20.845  1.00 55.81 LIG 0.00  A 
ATOM     32  CE1 PHE C  20      -8.487   9.415 -20.477  1.00 56.05 LIG 0.00  A 
ATOM     33  CD1 PHE C  20      -9.612   9.720 -19.702  1.00 54.84 LIG 0.01  A 
ENDBRANCH 27 28
ENDBRANCH 17 27
ENDBRANCH 14 17
ENDBRANCH 8 13
ENDBRANCH 5 6
BRANCH 5 34
ATOM     34  CB  LEU C  18     -10.876  11.172 -11.071  1.00 31.46 LIG 0.04  C 
BRANCH 34 35
ATOM     35  CG  LEU C  18     -10.152  11.325  -9.758  1.00 36.62 LIG-0.02  C 
ATOM     36  CD2 LEU C  18     -10.848  12.370  -8.900  1.00 38.91 LIG 0.01  C 
ATOM     37  CD1 LEU C  18      -8.691  11.712 -10.011  1.00 36.98 LIG 0.01  C 
ENDBRANCH 34 35
ENDBRANCH 5 34
ENDBRANCH 3 5
BRANCH 1 38
ATOM     38  CA  PRO C  17     -12.009   6.934  -9.188  1.00 33.71 LIG 0.18  C 
ATOM     39  CB  PRO C  17     -12.497   5.606  -9.775  1.00 36.04 LIG 0.04  C 
ATOM     40  CG  PRO C  17     -13.420   4.997  -8.740  1.00 41.66 LIG 0.02  C 
ATOM     41  CD  PRO C  17     -13.501   5.920  -7.561  1.00 37.74 LIG 0.13  C 
ATOM     42  N   PRO C  17     -12.353   6.831  -7.766  1.00 35.06 LIG-0.34  N 
ATOM     43  C   ARG C  16     -11.616   7.505  -6.864  1.00 37.80 LIG 0.24  C 
ATOM     44 O    ARG C  16     -10.674   8.204  -7.231  1.00 34.25 LIG-0.27  OA
BRANCH 43 45
ATOM     45  CA  ARG C  16     -11.927   7.383  -5.361  1.00 39.10 LIG 0.18  C 
BRANCH 45 46
ATOM     46  CB  ARG C  16     -12.961   8.447  -4.948  1.00 42.59 LIG 0.04  C 
BRANCH 46 47
ATOM     47  CG  ARG C  16     -14.218   7.891  -4.288  1.00 54.51 LIG 0.02  C 
BRANCH 47 48
ATOM     48  CD  ARG C  16     -15.086   7.123  -5.266  1.00 71.70 LIG 0.14  C 
BRANCH 48 49
ATOM     49  NE  ARG C  16     -16.305   7.867  -5.600  1.00 86.72 LIG-0.23  N 
ATOM     50 HE   ARG C  16     -16.452   8.602  -5.178  1.00 86.72 LIG 0.18  HD
ATOM     51  CZ  ARG C  16     -17.200   7.489  -6.510  1.00 98.48 LIG 0.67  C 
ATOM     52  NH2 ARG C  16     -18.279   8.227  -6.736  1.00 86.10 LIG-0.23  N 
ATOM     53  NH1 ARG C  16     -17.028   6.365  -7.194  1.00 81.98 LIG-0.23  N 
ATOM     54 2HH2 ARG C  16     -18.855   7.979  -7.324  1.00 86.10 LIG 0.17  HD
ATOM     55 1HH2 ARG C  16     -18.403   8.954  -6.294  1.00 86.10 LIG 0.17  HD
ATOM     56 1HH1 ARG C  16     -16.335   5.876  -7.051  1.00 81.98 LIG 0.17  HD
ATOM     57 2HH1 ARG C  16     -17.609   6.125  -7.780  1.00 81.98 LIG 0.17  HD
ENDBRANCH 48 49
ENDBRANCH 47 48
ENDBRANCH 46 47
ENDBRANCH 45 46
BRANCH 45 58
ATOM     58  N   ARG C  16     -10.688   7.540  -4.592  1.00 40.87 LIG-0.35  N 
ATOM     59  C   PRO C  15      -9.615   6.719  -4.676  1.00 47.02 LIG 0.25  C 
ATOM     60 O    PRO C  15      -9.583   5.719  -5.395  1.00 46.36 LIG-0.27  OA
ATOM     61 H    ARG C  16     -10.704   8.221  -4.067  1.00 40.87 LIG 0.16  HD
BRANCH 59 62
ATOM     62  CA  PRO C  15      -8.381   7.102  -3.857  1.00 46.56 LIG 0.35  C 
ATOM     63  N   PRO C  15      -8.398   6.566  -2.488  1.00 47.38 LIG 0.32  N 
ATOM     64  CD  PRO C  15      -7.294   5.614  -2.263  1.00 49.28 LIG 0.32  C 
ATOM     65  CG  PRO C  15      -6.295   6.001  -3.310  1.00 53.38 LIG 0.04  C 
ATOM     66  CB  PRO C  15      -7.109   6.487  -4.465  1.00 48.49 LIG 0.05  C 
ENDBRANCH 59 62
ENDBRANCH 45 58
ENDBRANCH 43 45
ENDBRANCH 1 38
TORSDOF 18
ENDMDL
MODEL 2
USER: ADFR SOLUTION from run 106
USER: SCORE 22.307945 LL:  -4.139 LR: -19.555 RR:   0.000 FEB: -14.186
USER: RMSD 3.533193
USER: SEED 105
USER: STATUS no improvement in best in 6 clusters for 5 generations
USER: GENES 20
USER: genes 0 Translation |==|  0.44717 0.44045 0.51603
USER: genes 1 Rotation |==|  0.53085 0.40300 0.57872 0.98316
USER: genes 2 Torsion [C]-N--CA-[CB] |==|  0.43889
USER: genes 3 Torsion [N]-CA--C-[N] |==|  0.43052
USER: genes 4 Torsion [N]-CA--C-[O] |==|  0.93753
USER: genes 5 Torsion [C]-N--CA-[C] |==|  0.73583
USER: genes 6 Torsion [N]-CA--C-[N] |==|  0.34382
USER: genes 7 Torsion [N]-CA--C-[O] |==|  0.84495
USER: genes 8 Torsion [N]-CA--CB-[CG] |==|  0.56080
USER: genes 9 Torsion [CA]-CB--CG-[CD1] |==|  0.45664
USER: genes 10 Torsion [N]-CA--CB-[CG] |==|  0.75294
USER: genes 11 Torsion [CA]-CB--CG-[CD2] |==|  0.38275
USER: genes 12 Torsion [O]-C--CA-[CB] |==|  0.16711
USER: genes 13 Torsion [N]-C--CA-[N] |==|  0.93932
USER: genes 14 Torsion [C]-CA--CB-[CG] |==|  0.19829
USER: genes 15 Torsion [CA]-CB--CG-[CD] |==|  0.34215
USER: genes 16 Torsion [CB]-CG--CD-[NE] |==|  0.88901
USER: genes 17 Torsion [CG]-CD--NE-[HE] |==|  0.29785
USER: genes 18 Torsion [C]-CA--N-[C] |==|  0.72262
USER: genes 19 Torsion [N]-C--CA-[CB] |==|  0.75004
ROOT
ATOM      1  C   PRO C  17     -12.564   8.280  -9.807  1.00 34.10 LIG 0.24  C 
ATOM      2 O    PRO C  17     -13.778   8.432  -9.929  1.00 31.91 LIG-0.27  OA
ATOM      3  N   LEU C  18     -11.685   9.091 -10.364  1.00 30.88 LIG-0.35  N 
ATOM      4 H    LEU C  18     -10.836   8.958 -10.329  1.00 30.88 LIG 0.16  HD
ENDROOT
BRANCH 3 5
ATOM      5  CA  LEU C  18     -12.055  10.294 -11.096  1.00 30.78 LIG 0.18  C 
BRANCH 5 6
ATOM      6  C   LEU C  18     -12.501  10.027 -12.523  1.00 33.73 LIG 0.24  C 
ATOM      7  N   PRO C  19     -13.330  10.930 -13.109  1.00 33.17 LIG-0.34  N 
ATOM      8  CA  PRO C  19     -13.740  10.746 -14.518  1.00 33.85 LIG 0.18  C 
ATOM      9  CD  PRO C  19     -13.946  12.142 -12.511  1.00 35.22 LIG 0.13  C 
ATOM     10  CB  PRO C  19     -14.885  11.747 -14.697  1.00 35.69 LIG 0.04  C 
ATOM     11  CG  PRO C  19     -14.698  12.768 -13.644  1.00 39.92 LIG 0.02  C 
ATOM     12 O    LEU C  18     -12.023   9.063 -13.124  1.00 31.40 LIG-0.27  OA
BRANCH 8 13
ATOM     13  C   PRO C  19     -12.610  10.942 -15.541  1.00 39.47 LIG 0.24  C 
ATOM     14  N   PHE C  20     -12.765  10.323 -16.713  1.00 41.20 LIG-0.35  N 
ATOM     15 H    PHE C  20     -13.458   9.847 -16.894  1.00 41.20 LIG 0.16  HD
ATOM     16 O    PRO C  19     -11.613  11.602 -15.268  1.00 36.20 LIG-0.27  OA
BRANCH 14 17
ATOM     17  CA  PHE C  20     -11.804  10.373 -17.814  1.00 43.59 LIG 0.18  C 
BRANCH 17 18
ATOM     18  C   PHE C  20     -12.213  11.484 -18.799  1.00 48.54 LIG 0.24  C 
ATOM     19  N   PRO C  21     -11.335  12.475 -19.108  1.00 46.41 LIG-0.34  N 
ATOM     20  CA  PRO C  21     -11.706  13.515 -20.097  1.00 51.72 LIG 0.17  C 
ATOM     21  CD  PRO C  21      -9.980  12.716 -18.574  1.00 49.19 LIG 0.13  C 
ATOM     22  CB  PRO C  21     -10.455  14.406 -20.174  1.00 52.56 LIG 0.04  C 
ATOM     23  CG  PRO C  21      -9.712  14.149 -18.925  1.00 54.82 LIG 0.02  C 
ATOM     24 O    PHE C  20     -13.335  11.427 -19.308  1.00 48.67 LIG-0.27  OA
BRANCH 20 25
ATOM     25  C   PRO C  21     -12.051  12.963 -21.482  1.00 87.57 LIG 0.22  C 
ATOM     26 O    PRO C  21     -11.240  12.260 -22.082  1.00 58.80 LIG-0.29  OA
ENDBRANCH 20 25
ENDBRANCH 17 18
BRANCH 17 27
ATOM     27  CB  PHE C  20     -11.762   8.990 -18.514  1.00 46.79 LIG 0.07  C 
BRANCH 27 28
ATOM     28  CG  PHE C  20     -10.521   8.653 -19.317  1.00 50.46 LIG-0.06  A 
ATOM     29  CD2 PHE C  20      -9.645   9.654 -19.731  1.00 54.33 LIG 0.01  A 
ATOM     30  CE2 PHE C  20      -8.498   9.341 -20.472  1.00 57.68 LIG 0.00  A 
ATOM     31  CZ  PHE C  20      -8.238   8.029 -20.825  1.00 55.81 LIG 0.00  A 
ATOM     32  CE1 PHE C  20      -9.102   7.028 -20.436  1.00 56.05 LIG 0.00  A 
ATOM     33  CD1 PHE C  20     -10.254   7.342 -19.703  1.00 54.84 LIG 0.01  A 
ENDBRANCH 27 28
ENDBRANCH 17 27
ENDBRANCH 14 17
ENDBRANCH 8 13
ENDBRANCH 5 6
BRANCH 5 34
ATOM     34  CB  LEU C  18     -10.863  11.248 -11.121  1.00 31.46 LIG 0.04  C 
BRANCH 34 35
ATOM     35  CG  LEU C  18     -10.756  12.216  -9.971  1.00 36.62 LIG-0.02  C 
ATOM     36  CD2 LEU C  18      -9.311  12.312  -9.505  1.00 38.91 LIG 0.01  C 
ATOM     37  CD1 LEU C  18     -11.670  11.768  -8.827  1.00 36.98 LIG 0.01  C 
ENDBRANCH 34 35
ENDBRANCH 5 34
ENDBRANCH 3 5
BRANCH 1 38
ATOM     38  CA  PRO C  17     -11.970   7.090  -9.066  1.00 33.71 LIG 0.18  C 
ATOM     39  CB  PRO C  17     -12.360   5.747  -9.692  1.00 36.04 LIG 0.04  C 
ATOM     40  CG  PRO C  17     -13.317   5.087  -8.722  1.00 41.66 LIG 0.02  C 
ATOM     41  CD  PRO C  17     -13.514   5.994  -7.544  1.00 37.74 LIG 0.13  C 
ATOM     42  N   PRO C  17     -12.398   6.957  -7.670  1.00 35.06 LIG-0.34  N 
ATOM     43  C   ARG C  16     -11.749   7.655  -6.718  1.00 37.80 LIG 0.24  C 
ATOM     44 O    ARG C  16     -10.818   8.398  -7.020  1.00 34.25 LIG-0.27  OA
BRANCH 43 45
ATOM     45  CA  ARG C  16     -12.148   7.503  -5.238  1.00 39.10 LIG 0.18  C 
BRANCH 45 46
ATOM     46  CB  ARG C  16     -11.171   6.549  -4.525  1.00 42.59 LIG 0.04  C 
BRANCH 46 47
ATOM     47  CG  ARG C  16      -9.776   7.120  -4.296  1.00 54.51 LIG 0.02  C 
BRANCH 47 48
ATOM     48  CD  ARG C  16      -9.384   7.104  -2.832  1.00 71.70 LIG 0.14  C 
BRANCH 48 49
ATOM     49  NE  ARG C  16     -10.514   7.471  -1.970  1.00 86.72 LIG-0.23  N 
ATOM     50 HE   ARG C  16     -10.883   6.845  -1.510  1.00 86.72 LIG 0.18  HD
ATOM     51  CZ  ARG C  16     -11.008   8.700  -1.848  1.00 98.48 LIG 0.67  C 
ATOM     52  NH2 ARG C  16     -12.041   8.931  -1.047  1.00 86.10 LIG-0.23  N 
ATOM     53  NH1 ARG C  16     -10.480   9.707  -2.532  1.00 81.98 LIG-0.23  N 
ATOM     54 2HH2 ARG C  16     -12.357   9.727  -0.971  1.00 86.10 LIG 0.17  HD
ATOM     55 1HH2 ARG C  16     -12.394   8.284  -0.603  1.00 86.10 LIG 0.17  HD
ATOM     56 1HH1 ARG C  16      -9.814   9.567  -3.058  1.00 81.98 LIG 0.17  HD
ATOM     57 2HH1 ARG C  16     -10.803  10.499  -2.449  1.00 81.98 LIG 0.17  HD
ENDBRANCH 48 49
ENDBRANCH 47 48
ENDBRANCH 46 47
ENDBRANCH 45 46
BRANCH 45 58
ATOM     58  N   ARG C  16     -13.521   6.996  -5.153  1.00 40.87 LIG-0.35  N 
ATOM     59  C   PRO C  15     -14.615   7.758  -4.916  1.00 47.02 LIG 0.25  C 
ATOM     60 O    PRO C  15     -14.562   8.971  -4.710  1.00 46.36 LIG-0.27  OA
ATOM     61 H    ARG C  16     -13.572   6.146  -5.271  1.00 40.87 LIG 0.16  HD
BRANCH 59 62
ATOM     62  CA  PRO C  15     -15.973   7.055  -4.952  1.00 46.56 LIG 0.35  C 
ATOM     63  N   PRO C  15     -16.999   7.722  -4.138  1.00 47.38 LIG 0.32  N 
ATOM     64  CD  PRO C  15     -18.109   8.226  -4.969  1.00 49.28 LIG 0.32  C 
ATOM     65  CG  PRO C  15     -18.022   7.378  -6.200  1.00 53.38 LIG 0.04  C 
ATOM     66  CB  PRO C  15     -16.566   7.086  -6.371  1.00 48.49 LIG 0.05  C 
ENDBRANCH 59 62
ENDBRANCH 45 58
ENDBRANCH 43 45
ENDBRANCH 1 38
TORSDOF 18
ENDMDL
MODEL 3
USER: ADFR SOLUTION from run 32
USER: SCORE 22.217021 LL:  -3.965 LR: -19.401 RR:   0.000 FEB: -14.031
USER: RMSD 1.491419
USER: SEED 31
USER: STATUS no improvement in best in 4 clusters for 5 generations
USER: GENES 20
USER: genes 0 Translation |==|  0.44341 0.42882 0.51465
USER: genes 1 Rotation |==|  0.53673 0.37959 0.57748 0.97765
USER: genes 2 Torsion [C]-N--CA-[CB] |==|  0.45572
USER: genes 3 Torsion [N]-CA--C-[N] |==|  0.42051
USER: genes 4 Torsion [N]-CA--C-[O] |==|  0.93406
USER: genes 5 Torsion [C]-N--CA-[C] |==|  0.73493
USER: genes 6 Torsion [N]-CA--C-[N] |==|  0.35384
USER: genes 7 Torsion [N]-CA--C-[O] |==|  0.25943
USER: genes 8 Torsion [N]-CA--CB-[CG] |==|  0.55617
USER: genes 9 Torsion [CA]-CB--CG-[CD1] |==|  0.45638
USER: genes 10 Torsion [N]-CA--CB-[CG] |==|  0.86312
USER: genes 11 Torsion [CA]-CB--CG-[CD2] |==|  0.76341
USER: genes 12 Torsion [O]-C--CA-[CB] |==|  0.12003
USER: genes 13 Torsion [N]-C--CA-[N] |==|  0.42344
USER: genes 14 Torsion [C]-CA--CB-[CG] |==|  0.36959
USER: genes 15 Torsion [CA]-CB--CG-[CD] |==|  0.34195
USER: genes 16 Torsion [CB]-CG--CD-[NE] |==|  0.93418
USER: genes 17 Torsion [CG]-CD--NE-[HE] |==|  0.30487
USER: genes 18 Torsion [C]-CA--N-[C] |==|  0.80926
USER: genes 19 Torsion [N]-C--CA-[CB] |==|  0.58590
ROOT
ATOM      1  C   PRO C  17     -12.632   8.071  -9.851  1.00 34.10 LIG 0.24  C 
ATOM      2 O    PRO C  17     -13.829   8.232 -10.077  1.00 31.91 LIG-0.27  OA
ATOM      3  N   LEU C  18     -11.705   8.900 -10.294  1.00 30.88 LIG-0.35  N 
ATOM      4 H    LEU C  18     -10.863   8.761 -10.187  1.00 30.88 LIG 0.16  HD
ENDROOT
BRANCH 3 5
ATOM      5  CA  LEU C  18     -12.006  10.132 -11.007  1.00 30.78 LIG 0.18  C 
BRANCH 5 6
ATOM      6  C   LEU C  18     -12.463   9.912 -12.439  1.00 33.73 LIG 0.24  C 
ATOM      7  N   PRO C  19     -13.299  10.831 -12.988  1.00 33.17 LIG-0.34  N 
ATOM      8  CA  PRO C  19     -13.720  10.693 -14.399  1.00 33.85 LIG 0.18  C 
ATOM      9  CD  PRO C  19     -13.915  12.019 -12.344  1.00 35.22 LIG 0.13  C 
ATOM     10  CB  PRO C  19     -14.871  11.695 -14.535  1.00 35.69 LIG 0.04  C 
ATOM     11  CG  PRO C  19     -14.679  12.680 -13.449  1.00 39.92 LIG 0.02  C 
ATOM     12 O    LEU C  18     -11.985   8.971 -13.077  1.00 31.40 LIG-0.27  OA
BRANCH 8 13
ATOM     13  C   PRO C  19     -12.599  10.928 -15.423  1.00 39.47 LIG 0.24  C 
ATOM     14  N   PHE C  20     -12.748  10.329 -16.606  1.00 41.20 LIG-0.35  N 
ATOM     15 H    PHE C  20     -13.433   9.842 -16.792  1.00 41.20 LIG 0.16  HD
ATOM     16 O    PRO C  19     -11.613  11.602 -15.143  1.00 36.20 LIG-0.27  OA
BRANCH 14 17
ATOM     17  CA  PHE C  20     -11.795  10.416 -17.711  1.00 43.59 LIG 0.18  C 
BRANCH 17 18
ATOM     18  C   PHE C  20     -12.233  11.531 -18.677  1.00 48.54 LIG 0.24  C 
ATOM     19  N   PRO C  21     -11.355  12.507 -19.033  1.00 46.41 LIG-0.34  N 
ATOM     20  CA  PRO C  21     -11.757  13.551 -20.006  1.00 51.72 LIG 0.17  C 
ATOM     21  CD  PRO C  21      -9.971  12.726 -18.568  1.00 49.19 LIG 0.13  C 
ATOM     22  CB  PRO C  21     -10.496  14.420 -20.148  1.00 52.56 LIG 0.04  C 
ATOM     23  CG  PRO C  21      -9.697  14.153 -18.937  1.00 54.82 LIG 0.02  C 
ATOM     24 O    PHE C  20     -13.379  11.492 -19.129  1.00 48.67 LIG-0.27  OA
BRANCH 20 25
ATOM     25  C   PRO C  21     -12.180  13.002 -21.370  1.00 87.57 LIG 0.22  C 
ATOM     26 O    PRO C  21     -13.366  12.769 -21.597  1.00 58.80 LIG-0.29  OA
ENDBRANCH 20 25
ENDBRANCH 17 18
BRANCH 17 27
ATOM     27  CB  PHE C  20     -11.723   9.045 -18.431  1.00 46.79 LIG 0.07  C 
BRANCH 27 28
ATOM     28  CG  PHE C  20     -10.497   8.764 -19.276  1.00 50.46 LIG-0.06  A 
ATOM     29  CD2 PHE C  20      -9.672   9.801 -19.703  1.00 54.33 LIG 0.01  A 
ATOM     30  CE2 PHE C  20      -8.537   9.539 -20.483  1.00 57.68 LIG 0.00  A 
ATOM     31  CZ  PHE C  20      -8.240   8.242 -20.859  1.00 55.81 LIG 0.00  A 
ATOM     32  CE1 PHE C  20      -9.054   7.205 -20.457  1.00 56.05 LIG 0.00  A 
ATOM     33  CD1 PHE C  20     -10.193   7.468 -19.686  1.00 54.84 LIG 0.01  A 
ENDBRANCH 27 28
ENDBRANCH 17 27
ENDBRANCH 14 17
ENDBRANCH 8 13
ENDBRANCH 5 6
BRANCH 5 34
ATOM     34  CB  LEU C  18     -10.763  11.019 -11.016  1.00 31.46 LIG 0.04  C 
BRANCH 34 35
ATOM     35  CG  LEU C  18     -10.082  11.228  -9.689  1.00 36.62 LIG-0.02  C 
ATOM     36  CD2 LEU C  18     -10.744  12.375  -8.939  1.00 38.91 LIG 0.01  C 
ATOM     37  CD1 LEU C  18      -8.592  11.508  -9.906  1.00 36.98 LIG 0.01  C 
ENDBRANCH 34 35
ENDBRANCH 5 34
ENDBRANCH 3 5
BRANCH 1 38
ATOM     38  CA  PRO C  17     -12.108   6.849  -9.108  1.00 33.71 LIG 0.18  C 
ATOM     39  CB  PRO C  17     -12.771   5.546  -9.567  1.00 36.04 LIG 0.04  C 
ATOM     40  CG  PRO C  17     -13.658   5.095  -8.425  1.00 41.66 LIG 0.02  C 
ATOM     41  CD  PRO C  17     -13.549   6.087  -7.306  1.00 37.74 LIG 0.13  C 
ATOM     42  N   PRO C  17     -12.339   6.863  -7.660  1.00 35.06 LIG-0.34  N 
ATOM     43  C   ARG C  16     -11.466   7.509  -6.865  1.00 37.80 LIG 0.24  C 
ATOM     44 O    ARG C  16     -10.495   8.086  -7.349  1.00 34.25 LIG-0.27  OA
BRANCH 43 45
ATOM     45  CA  ARG C  16     -11.659   7.505  -5.336  1.00 39.10 LIG 0.18  C 
BRANCH 45 46
ATOM     46  CB  ARG C  16     -12.610   8.644  -4.923  1.00 42.59 LIG 0.04  C 
BRANCH 46 47
ATOM     47  CG  ARG C  16     -13.709   8.234  -3.947  1.00 54.51 LIG 0.02  C 
BRANCH 47 48
ATOM     48  CD  ARG C  16     -13.682   9.060  -2.676  1.00 71.70 LIG 0.14  C 
BRANCH 48 49
ATOM     49  NE  ARG C  16     -12.351   9.628  -2.433  1.00 86.72 LIG-0.23  N 
ATOM     50 HE   ARG C  16     -12.258  10.478  -2.528  1.00 86.72 LIG 0.18  HD
ATOM     51  CZ  ARG C  16     -11.279   8.925  -2.078  1.00 98.48 LIG 0.67  C 
ATOM     52  NH2 ARG C  16     -10.113   9.531  -1.889  1.00 86.10 LIG-0.23  N 
ATOM     53  NH1 ARG C  16     -11.361   7.611  -1.916  1.00 81.98 LIG-0.23  N 
ATOM     54 2HH2 ARG C  16      -9.423   9.073  -1.659  1.00 86.10 LIG 0.17  HD
ATOM     55 1HH2 ARG C  16     -10.048  10.382  -1.997  1.00 86.10 LIG 0.17  HD
ATOM     56 1HH1 ARG C  16     -12.110   7.208  -2.042  1.00 81.98 LIG 0.17  HD
ATOM     57 2HH1 ARG C  16     -10.665   7.162  -1.686  1.00 81.98 LIG 0.17  HD
ENDBRANCH 48 49
ENDBRANCH 47 48
ENDBRANCH 46 47
ENDBRANCH 45 46
BRANCH 45 58
ATOM     58  N   ARG C  16     -10.356   7.655  -4.680  1.00 40.87 LIG-0.35  N 
ATOM     59  C   PRO C  15      -9.376   6.722  -4.684  1.00 47.02 LIG 0.25  C 
ATOM     60 O    PRO C  15      -9.493   5.619  -5.219  1.00 46.36 LIG-0.27  OA
ATOM     61 H    ARG C  16     -10.268   8.411  -4.281  1.00 40.87 LIG 0.16  HD
BRANCH 59 62
ATOM     62  CA  PRO C  15      -8.052   7.102  -4.016  1.00 46.56 LIG 0.35  C 
ATOM     63  N   PRO C  15      -7.955   6.659  -2.617  1.00 47.38 LIG 0.32  N 
ATOM     64  CD  PRO C  15      -6.871   5.676  -2.433  1.00 49.28 LIG 0.32  C 
ATOM     65  CG  PRO C  15      -5.967   5.947  -3.596  1.00 53.38 LIG 0.04  C 
ATOM     66  CB  PRO C  15      -6.872   6.391  -4.699  1.00 48.49 LIG 0.05  C 
ENDBRANCH 59 62
ENDBRANCH 45 58
ENDBRANCH 43 45
ENDBRANCH 1 38
TORSDOF 18
ENDMDL
MODEL 4
USER: ADFR SOLUTION from run 171
USER: SCORE 21.314682 LL:  -4.564 LR: -18.947 RR:   0.000 FEB: -13.577
USER: RMSD 3.674994
USER: SEED 170
USER: STATUS no improvement in best in 6 clusters for 5 generations
USER: GENES 20
USER: genes 0 Translation |==|  0.45282 0.42228 0.51979
USER: genes 1 Rotation |==|  0.54463 0.46795 0.53681 0.99561
USER: genes 2 Torsion [C]-N--CA-[CB] |==|  0.38849
USER: genes 3 Torsion [N]-CA--C-[N] |==|  0.33329
USER: genes 4 Torsion [N]-CA--C-[O] |==|  0.09895
USER: genes 5 Torsion [C]-N--CA-[C] |==|  0.60556
USER: genes 6 Torsion [N]-CA--C-[N] |==|  0.15323
USER: genes 7 Torsion [N]-CA--C-[O] |==|  0.29517
USER: genes 8 Torsion [N]-CA--CB-[CG] |==|  0.62312
USER: genes 9 Torsion [CA]-CB--CG-[CD1] |==|  0.16399
USER: genes 10 Torsion [N]-CA--CB-[CG] |==|  0.83994
USER: genes 11 Torsion [CA]-CB--CG-[CD2] |==|  0.78129
USER: genes 12 Torsion [O]-C--CA-[CB] |==|  0.20487
USER: genes 13 Torsion [N]-C--CA-[N] |==|  0.39153
USER: genes 14 Torsion [C]-CA--CB-[CG] |==|  0.11747
USER: genes 15 Torsion [CA]-CB--CG-[CD] |==|  0.20982
USER: genes 16 Torsion [CB]-CG--CD-[NE] |==|  0.41700
USER: genes 17 Torsion [CG]-CD--NE-[HE] |==|  0.87474
USER: genes 18 Torsion [C]-CA--N-[C] |==|  0.83799
USER: genes 19 Torsion [N]-C--CA-[CB] |==|  0.82483
ROOT
ATOM      1  C   PRO C  17     -12.462   7.953  -9.686  1.00 34.10 LIG 0.24  C 
ATOM      2 O    PRO C  17     -13.627   8.275  -9.461  1.00 31.91 LIG-0.27  OA
ATOM      3  N   LEU C  18     -11.659   8.670 -10.449  1.00 30.88 LIG-0.35  N 
ATOM      4 H    LEU C  18     -10.863   8.422 -10.655  1.00 30.88 LIG 0.16  HD
ENDROOT
BRANCH 3 5
ATOM      5  CA  LEU C  18     -12.034   9.955 -11.022  1.00 30.78 LIG 0.18  C 
BRANCH 5 6
ATOM      6  C   LEU C  18     -12.495   9.866 -12.467  1.00 33.73 LIG 0.24  C 
ATOM      7  N   PRO C  19     -13.756  10.281 -12.758  1.00 33.17 LIG-0.34  N 
ATOM      8  CA  PRO C  19     -14.227  10.274 -14.159  1.00 33.85 LIG 0.18  C 
ATOM      9  CD  PRO C  19     -14.812  10.749 -11.825  1.00 35.22 LIG 0.13  C 
ATOM     10  CB  PRO C  19     -15.740  10.486 -14.036  1.00 35.69 LIG 0.04  C 
ATOM     11  CG  PRO C  19     -15.951  11.127 -12.720  1.00 39.92 LIG 0.02  C 
ATOM     12 O    LEU C  18     -11.685   9.519 -13.329  1.00 31.40 LIG-0.27  OA
BRANCH 8 13
ATOM     13  C   PRO C  19     -13.551  11.315 -15.064  1.00 39.47 LIG 0.24  C 
ATOM     14  N   PHE C  20     -14.312  11.843 -16.024  1.00 41.20 LIG-0.35  N 
ATOM     15 H    PHE C  20     -15.137  11.622 -16.131  1.00 41.20 LIG 0.16  HD
ATOM     16 O    PRO C  19     -12.367  11.607 -14.923  1.00 36.20 LIG-0.27  OA
BRANCH 14 17
ATOM     17  CA  PHE C  20     -13.858  12.839 -16.994  1.00 43.59 LIG 0.18  C 
BRANCH 17 18
ATOM     18  C   PHE C  20     -14.988  13.853 -17.252  1.00 48.54 LIG 0.24  C 
ATOM     19  N   PRO C  21     -15.551  14.522 -16.211  1.00 46.41 LIG-0.34  N 
ATOM     20  CA  PRO C  21     -16.601  15.539 -16.463  1.00 51.72 LIG 0.17  C 
ATOM     21  CD  PRO C  21     -15.285  14.387 -14.766  1.00 49.19 LIG 0.13  C 
ATOM     22  CB  PRO C  21     -16.942  16.063 -15.058  1.00 52.56 LIG 0.04  C 
ATOM     23  CG  PRO C  21     -16.487  15.014 -14.125  1.00 54.82 LIG 0.02  C 
ATOM     24 O    PHE C  20     -15.337  14.051 -18.418  1.00 48.67 LIG-0.27  OA
BRANCH 20 25
ATOM     25  C   PRO C  21     -16.152  16.689 -17.365  1.00 87.57 LIG 0.22  C 
ATOM     26 O    PRO C  21     -16.551  16.752 -18.526  1.00 58.80 LIG-0.29  OA
ENDBRANCH 20 25
ENDBRANCH 17 18
BRANCH 17 27
ATOM     27  CB  PHE C  20     -13.439  12.121 -18.302  1.00 46.79 LIG 0.07  C 
BRANCH 27 28
ATOM     28  CG  PHE C  20     -12.146  12.565 -18.958  1.00 50.46 LIG-0.06  A 
ATOM     29  CD2 PHE C  20     -12.131  13.009 -20.277  1.00 54.33 LIG 0.01  A 
ATOM     30  CE2 PHE C  20     -10.935  13.420 -20.881  1.00 57.68 LIG 0.00  A 
ATOM     31  CZ  PHE C  20      -9.748  13.364 -20.175  1.00 55.81 LIG 0.00  A 
ATOM     32  CE1 PHE C  20      -9.742  12.914 -18.872  1.00 56.05 LIG 0.00  A 
ATOM     33  CD1 PHE C  20     -10.936  12.493 -18.272  1.00 54.84 LIG 0.01  A 
ENDBRANCH 27 28
ENDBRANCH 17 27
ENDBRANCH 14 17
ENDBRANCH 8 13
ENDBRANCH 5 6
BRANCH 5 34
ATOM     34  CB  LEU C  18     -10.840  10.904 -10.942  1.00 31.46 LIG 0.04  C 
BRANCH 34 35
ATOM     35  CG  LEU C  18     -10.277  11.154  -9.567  1.00 36.62 LIG-0.02  C 
ATOM     36  CD2 LEU C  18     -11.147  12.155  -8.822  1.00 38.91 LIG 0.01  C 
ATOM     37  CD1 LEU C  18      -8.836  11.662  -9.678  1.00 36.98 LIG 0.01  C 
ENDBRANCH 34 35
ENDBRANCH 5 34
ENDBRANCH 3 5
BRANCH 1 38
ATOM     38  CA  PRO C  17     -11.871   6.650  -9.166  1.00 33.71 LIG 0.18  C 
ATOM     39  CB  PRO C  17     -12.379   5.422  -9.928  1.00 36.04 LIG 0.04  C 
ATOM     40  CG  PRO C  17     -13.285   4.673  -8.972  1.00 41.66 LIG 0.02  C 
ATOM     41  CD  PRO C  17     -13.337   5.417  -7.672  1.00 37.74 LIG 0.13  C 
ATOM     42  N   PRO C  17     -12.187   6.344  -7.767  1.00 35.06 LIG-0.34  N 
ATOM     43  C   ARG C  16     -11.428   6.879  -6.793  1.00 37.80 LIG 0.24  C 
ATOM     44 O    ARG C  16     -10.489   7.620  -7.074  1.00 34.25 LIG-0.27  OA
BRANCH 43 45
ATOM     45  CA  ARG C  16     -11.710   6.542  -5.316  1.00 39.10 LIG 0.18  C 
BRANCH 45 46
ATOM     46  CB  ARG C  16     -12.563   7.653  -4.676  1.00 42.59 LIG 0.04  C 
BRANCH 46 47
ATOM     47  CG  ARG C  16     -13.698   8.170  -5.553  1.00 54.51 LIG 0.02  C 
BRANCH 47 48
ATOM     48  CD  ARG C  16     -14.862   7.200  -5.611  1.00 71.70 LIG 0.14  C 
BRANCH 48 49
ATOM     49  NE  ARG C  16     -16.136   7.901  -5.808  1.00 86.72 LIG-0.23  N 
ATOM     50 HE   ARG C  16     -16.282   8.602  -5.332  1.00 86.72 LIG 0.18  HD
ATOM     51  CZ  ARG C  16     -17.081   7.531  -6.668  1.00 98.48 LIG 0.67  C 
ATOM     52  NH2 ARG C  16     -18.207   8.227  -6.767  1.00 86.10 LIG-0.23  N 
ATOM     53  NH1 ARG C  16     -16.913   6.457  -7.429  1.00 81.98 LIG-0.23  N 
ATOM     54 2HH2 ARG C  16     -18.815   7.984  -7.324  1.00 86.10 LIG 0.17  HD
ATOM     55 1HH2 ARG C  16     -18.328   8.921  -6.274  1.00 86.10 LIG 0.17  HD
ATOM     56 1HH1 ARG C  16     -16.190   5.995  -7.369  1.00 81.98 LIG 0.17  HD
ATOM     57 2HH1 ARG C  16     -17.527   6.223  -7.983  1.00 81.98 LIG 0.17  HD
ENDBRANCH 48 49
ENDBRANCH 47 48
ENDBRANCH 46 47
ENDBRANCH 45 46
BRANCH 45 58
ATOM     58  N   ARG C  16     -10.439   6.387  -4.600  1.00 40.87 LIG-0.35  N 
ATOM     59  C   PRO C  15      -9.472   5.498  -4.924  1.00 47.02 LIG 0.25  C 
ATOM     60 O    PRO C  15      -9.576   4.691  -5.849  1.00 46.36 LIG-0.27  OA
ATOM     61 H    ARG C  16     -10.361   6.928  -3.936  1.00 40.87 LIG 0.16  HD
BRANCH 59 62
ATOM     62  CA  PRO C  15      -8.178   5.550  -4.108  1.00 46.56 LIG 0.35  C 
ATOM     63  N   PRO C  15      -7.173   4.569  -4.541  1.00 47.38 LIG 0.32  N 
ATOM     64  CD  PRO C  15      -5.959   5.228  -5.058  1.00 49.28 LIG 0.32  C 
ATOM     65  CG  PRO C  15      -6.011   6.582  -4.421  1.00 53.38 LIG 0.04  C 
ATOM     66  CB  PRO C  15      -7.466   6.900  -4.299  1.00 48.49 LIG 0.05  C 
ENDBRANCH 59 62
ENDBRANCH 45 58
ENDBRANCH 43 45
ENDBRANCH 1 38
TORSDOF 18
ENDMDL
MODEL 5
USER: ADFR SOLUTION from run 69
USER: SCORE 20.653537 LL:  -4.187 LR: -18.734 RR:   0.000 FEB: -13.365
USER: RMSD 4.290463
USER: SEED 68
USER: STATUS no improvement in best in 8 clusters for 5 generations
USER: GENES 20
USER: genes 0 Translation |==|  0.44369 0.43431 0.52105
USER: genes 1 Rotation |==|  0.54364 0.39447 0.58684 0.97898
USER: genes 2 Torsion [C]-N--CA-[CB] |==|  0.43300
USER: genes 3 Torsion [N]-CA--C-[N] |==|  0.34483
USER: genes 4 Torsion [N]-CA--C-[O] |==|  0.09407
USER: genes 5 Torsion [C]-N--CA-[C] |==|  0.58684
USER: genes 6 Torsion [N]-CA--C-[N] |==|  0.15287
USER: genes 7 Torsion [N]-CA--C-[O] |==|  0.63790
USER: genes 8 Torsion [N]-CA--CB-[CG] |==|  0.58624
USER: genes 9 Torsion [CA]-CB--CG-[CD1] |==|  0.64122
USER: genes 10 Torsion [N]-CA--CB-[CG] |==|  0.83586
USER: genes 11 Torsion [CA]-CB--CG-[CD2] |==|  0.82861
USER: genes 12 Torsion [O]-C--CA-[CB] |==|  0.15724
USER: genes 13 Torsion [N]-C--CA-[N] |==|  0.92037
USER: genes 14 Torsion [C]-CA--CB-[CG] |==|  0.20475
USER: genes 15 Torsion [CA]-CB--CG-[CD] |==|  0.27568
USER: genes 16 Torsion [CB]-CG--CD-[NE] |==|  0.93231
USER: genes 17 Torsion [CG]-CD--NE-[HE] |==|  0.23608
USER: genes 18 Torsion [C]-CA--N-[C] |==|  0.73947
USER: genes 19 Torsion [N]-C--CA-[CB] |==|  0.89054
ROOT
ATOM      1  C   PRO C  17     -12.627   8.170  -9.645  1.00 34.10 LIG 0.24  C 
ATOM      2 O    PRO C  17     -13.842   8.277  -9.798  1.00 31.91 LIG-0.27  OA
ATOM      3  N   LEU C  18     -11.767   9.043 -10.135  1.00 30.88 LIG-0.35  N 
ATOM      4 H    LEU C  18     -10.915   8.943 -10.079  1.00 30.88 LIG 0.16  HD
ENDROOT
BRANCH 3 5
ATOM      5  CA  LEU C  18     -12.167  10.265 -10.817  1.00 30.78 LIG 0.18  C 
BRANCH 5 6
ATOM      6  C   LEU C  18     -12.511  10.060 -12.283  1.00 33.73 LIG 0.24  C 
ATOM      7  N   PRO C  19     -13.737  10.460 -12.709  1.00 33.17 LIG-0.34  N 
ATOM      8  CA  PRO C  19     -14.094  10.339 -14.139  1.00 33.85 LIG 0.18  C 
ATOM      9  CD  PRO C  19     -14.857  11.014 -11.908  1.00 35.22 LIG 0.13  C 
ATOM     10  CB  PRO C  19     -15.608  10.574 -14.158  1.00 35.69 LIG 0.04  C 
ATOM     11  CG  PRO C  19     -15.914  11.326 -12.921  1.00 39.92 LIG 0.02  C 
ATOM     12 O    LEU C  18     -11.639   9.635 -13.043  1.00 31.40 LIG-0.27  OA
BRANCH 8 13
ATOM     13  C   PRO C  19     -13.330  11.294 -15.069  1.00 39.47 LIG 0.24  C 
ATOM     14  N   PHE C  20     -13.990  11.718 -16.148  1.00 41.20 LIG-0.35  N 
ATOM     15 H    PHE C  20     -14.800  11.479 -16.315  1.00 41.20 LIG 0.16  HD
ATOM     16 O    PRO C  19     -12.167  11.611 -14.838  1.00 36.20 LIG-0.27  OA
BRANCH 14 17
ATOM     17  CA  PHE C  20     -13.442  12.620 -17.160  1.00 43.59 LIG 0.18  C 
BRANCH 17 18
ATOM     18  C   PHE C  20     -14.576  13.477 -17.750  1.00 48.54 LIG 0.24  C 
ATOM     19  N   PRO C  21     -15.369  14.215 -16.928  1.00 46.41 LIG-0.34  N 
ATOM     20  CA  PRO C  21     -16.427  15.083 -17.498  1.00 51.72 LIG 0.17  C 
ATOM     21  CD  PRO C  21     -15.363  14.292 -15.454  1.00 49.19 LIG 0.13  C 
ATOM     22  CB  PRO C  21     -17.057  15.747 -16.262  1.00 52.56 LIG 0.04  C 
ATOM     23  CG  PRO C  21     -16.704  14.875 -15.126  1.00 54.82 LIG 0.02  C 
ATOM     24 O    PHE C  20     -14.719  13.489 -18.975  1.00 48.67 LIG-0.27  OA
BRANCH 20 25
ATOM     25  C   PRO C  21     -15.905  16.148 -18.465  1.00 87.57 LIG 0.22  C 
ATOM     26 O    PRO C  21     -16.249  17.321 -18.330  1.00 58.80 LIG-0.29  OA
ENDBRANCH 20 25
ENDBRANCH 17 18
BRANCH 17 27
ATOM     27  CB  PHE C  20     -12.740  11.783 -18.260  1.00 46.79 LIG 0.07  C 
BRANCH 27 28
ATOM     28  CG  PHE C  20     -11.551  12.410 -18.961  1.00 50.46 LIG-0.06  A 
ATOM     29  CD2 PHE C  20     -10.527  13.008 -18.232  1.00 54.33 LIG 0.01  A 
ATOM     30  CE2 PHE C  20      -9.428  13.587 -18.882  1.00 57.68 LIG 0.00  A 
ATOM     31  CZ  PHE C  20      -9.365  13.591 -20.264  1.00 55.81 LIG 0.00  A 
ATOM     32  CE1 PHE C  20     -10.378  13.016 -21.001  1.00 56.05 LIG 0.00  A 
ATOM     33  CD1 PHE C  20     -11.480  12.447 -20.351  1.00 54.84 LIG 0.01  A 
ENDBRANCH 27 28
ENDBRANCH 17 27
ENDBRANCH 14 17
ENDBRANCH 8 13
ENDBRANCH 5 6
BRANCH 5 34
ATOM     34  CB  LEU C  18     -11.036  11.286 -10.714  1.00 31.46 LIG 0.04  C 
BRANCH 34 35
ATOM     35  CG  LEU C  18     -10.617  11.680  -9.321  1.00 36.62 LIG-0.02  C 
ATOM     36  CD2 LEU C  18     -11.782  12.333  -8.592  1.00 38.91 LIG 0.01  C 
ATOM     37  CD1 LEU C  18      -9.415  12.628  -9.387  1.00 36.98 LIG 0.01  C 
ENDBRANCH 34 35
ENDBRANCH 5 34
ENDBRANCH 3 5
BRANCH 1 38
ATOM     38  CA  PRO C  17     -12.005   6.969  -8.945  1.00 33.71 LIG 0.18  C 
ATOM     39  CB  PRO C  17     -12.390   5.637  -9.597  1.00 36.04 LIG 0.04  C 
ATOM     40  CG  PRO C  17     -13.320   4.941  -8.626  1.00 41.66 LIG 0.02  C 
ATOM     41  CD  PRO C  17     -13.506   5.816  -7.422  1.00 37.74 LIG 0.13  C 
ATOM     42  N   PRO C  17     -12.404   6.796  -7.545  1.00 35.06 LIG-0.34  N 
ATOM     43  C   ARG C  16     -11.747   7.479  -6.589  1.00 37.80 LIG 0.24  C 
ATOM     44 O    ARG C  16     -10.831   8.241  -6.889  1.00 34.25 LIG-0.27  OA
BRANCH 43 45
ATOM     45  CA  ARG C  16     -12.116   7.285  -5.106  1.00 39.10 LIG 0.18  C 
BRANCH 45 46
ATOM     46  CB  ARG C  16     -11.222   6.199  -4.478  1.00 42.59 LIG 0.04  C 
BRANCH 46 47
ATOM     47  CG  ARG C  16      -9.783   6.631  -4.216  1.00 54.51 LIG 0.02  C 
BRANCH 47 48
ATOM     48  CD  ARG C  16      -9.558   7.024  -2.769  1.00 71.70 LIG 0.14  C 
BRANCH 48 49
ATOM     49  NE  ARG C  16     -10.808   7.446  -2.127  1.00 86.72 LIG-0.23  N 
ATOM     50 HE   ARG C  16     -11.311   6.834  -1.795  1.00 86.72 LIG 0.18  HD
ATOM     51  CZ  ARG C  16     -11.219   8.708  -2.021  1.00 98.48 LIG 0.67  C 
ATOM     52  NH2 ARG C  16     -12.372   8.989  -1.428  1.00 86.10 LIG-0.23  N 
ATOM     53  NH1 ARG C  16     -10.484   9.697  -2.515  1.00 81.98 LIG-0.23  N 
ATOM     54 2HH2 ARG C  16     -12.634   9.805  -1.362  1.00 86.10 LIG 0.17  HD
ATOM     55 1HH2 ARG C  16     -12.858   8.355  -1.110  1.00 86.10 LIG 0.17  HD
ATOM     56 1HH1 ARG C  16      -9.738   9.525  -2.906  1.00 81.98 LIG 0.17  HD
ATOM     57 2HH1 ARG C  16     -10.755  10.509  -2.443  1.00 81.98 LIG 0.17  HD
ENDBRANCH 48 49
ENDBRANCH 47 48
ENDBRANCH 46 47
ENDBRANCH 45 46
BRANCH 45 58
ATOM     58  N   ARG C  16     -13.531   6.916  -5.000  1.00 40.87 LIG-0.35  N 
ATOM     59  C   PRO C  15     -14.546   7.788  -4.800  1.00 47.02 LIG 0.25  C 
ATOM     60 O    PRO C  15     -14.378   8.999  -4.651  1.00 46.36 LIG-0.27  OA
ATOM     61 H    ARG C  16     -13.662   6.069  -5.079  1.00 40.87 LIG 0.16  HD
BRANCH 59 62
ATOM     62  CA  PRO C  15     -15.966   7.216  -4.807  1.00 46.56 LIG 0.35  C 
ATOM     63  N   PRO C  15     -16.994   8.206  -5.161  1.00 47.38 LIG 0.32  N 
ATOM     64  CD  PRO C  15     -17.679   7.852  -6.418  1.00 49.28 LIG 0.32  C 
ATOM     65  CG  PRO C  15     -17.452   6.375  -6.523  1.00 53.38 LIG 0.04  C 
ATOM     66  CB  PRO C  15     -16.116   6.140  -5.896  1.00 48.49 LIG 0.05  C 
ENDBRANCH 59 62
ENDBRANCH 45 58
ENDBRANCH 43 45
ENDBRANCH 1 38
TORSDOF 18
ENDMDL
MODEL 6
USER: ADFR SOLUTION from run 147
USER: SCORE 22.184312 LL:  -4.692 LR: -18.560 RR:   0.000 FEB: -13.191
USER: RMSD 2.962301
USER: SEED 146
USER: STATUS no improvement in best in 4 clusters for 5 generations
USER: GENES 20
USER: genes 0 Translation |==|  0.44517 0.41885 0.51782
USER: genes 1 Rotation |==|  0.55332 0.39156 0.57640 0.97912
USER: genes 2 Torsion [C]-N--CA-[CB] |==|  0.45632
USER: genes 3 Torsion [N]-CA--C-[N] |==|  0.42007
USER: genes 4 Torsion [N]-CA--C-[O] |==|  0.88301
USER: genes 5 Torsion [C]-N--CA-[C] |==|  0.78333
USER: genes 6 Torsion [N]-CA--C-[N] |==|  0.38029
USER: genes 7 Torsion [N]-CA--C-[O] |==|  0.64754
USER: genes 8 Torsion [N]-CA--CB-[CG] |==|  0.03939
USER: genes 9 Torsion [CA]-CB--CG-[CD1] |==|  0.28550
USER: genes 10 Torsion [N]-CA--CB-[CG] |==|  0.81427
USER: genes 11 Torsion [CA]-CB--CG-[CD2] |==|  0.81672
USER: genes 12 Torsion [O]-C--CA-[CB] |==|  0.14408
USER: genes 13 Torsion [N]-C--CA-[N] |==|  0.37830
USER: genes 14 Torsion [C]-CA--CB-[CG] |==|  0.14653
USER: genes 15 Torsion [CA]-CB--CG-[CD] |==|  0.18059
USER: genes 16 Torsion [CB]-CG--CD-[NE] |==|  0.43210
USER: genes 17 Torsion [CG]-CD--NE-[HE] |==|  0.83691
USER: genes 18 Torsion [C]-CA--N-[C] |==|  0.84204
USER: genes 19 Torsion [N]-C--CA-[CB] |==|  0.84415
ROOT
ATOM      1  C   PRO C  17     -12.600   7.891  -9.749  1.00 34.10 LIG 0.24  C 
ATOM      2 O    PRO C  17     -13.811   8.046  -9.897  1.00 31.91 LIG-0.27  OA
ATOM      3  N   LEU C  18     -11.711   8.759 -10.197  1.00 30.88 LIG-0.35  N 
ATOM      4 H    LEU C  18     -10.863   8.628 -10.146  1.00 30.88 LIG 0.16  HD
ENDROOT
BRANCH 3 5
ATOM      5  CA  LEU C  18     -12.069  10.024 -10.820  1.00 30.78 LIG 0.18  C 
BRANCH 5 6
ATOM      6  C   LEU C  18     -12.611   9.876 -12.232  1.00 33.73 LIG 0.24  C 
ATOM      7  N   PRO C  19     -13.492  10.811 -12.675  1.00 33.17 LIG-0.34  N 
ATOM      8  CA  PRO C  19     -13.996  10.745 -14.063  1.00 33.85 LIG 0.18  C 
ATOM      9  CD  PRO C  19     -14.083  11.950 -11.929  1.00 35.22 LIG 0.13  C 
ATOM     10  CB  PRO C  19     -15.167  11.734 -14.072  1.00 35.69 LIG 0.04  C 
ATOM     11  CG  PRO C  19     -14.922  12.659 -12.945  1.00 39.92 LIG 0.02  C 
ATOM     12 O    LEU C  18     -12.160   8.981 -12.950  1.00 31.40 LIG-0.27  OA
BRANCH 8 13
ATOM     13  C   PRO C  19     -12.944  11.057 -15.139  1.00 39.47 LIG 0.24  C 
ATOM     14  N   PHE C  20     -12.932  10.248 -16.200  1.00 41.20 LIG-0.35  N 
ATOM     15 H    PHE C  20     -13.482   9.593 -16.286  1.00 41.20 LIG 0.16  HD
ATOM     16 O    PRO C  19     -12.145  11.977 -14.999  1.00 36.20 LIG-0.27  OA
BRANCH 14 17
ATOM     17  CA  PHE C  20     -12.006  10.366 -17.327  1.00 43.59 LIG 0.18  C 
BRANCH 17 18
ATOM     18  C   PHE C  20     -12.471  11.504 -18.253  1.00 48.54 LIG 0.24  C 
ATOM     19  N   PRO C  21     -11.565  12.379 -18.763  1.00 46.41 LIG-0.34  N 
ATOM     20  CA  PRO C  21     -12.003  13.442 -19.699  1.00 51.72 LIG 0.17  C 
ATOM     21  CD  PRO C  21     -10.113  12.466 -18.510  1.00 49.19 LIG 0.13  C 
ATOM     22  CB  PRO C  21     -10.698  14.178 -20.049  1.00 52.56 LIG 0.04  C 
ATOM     23  CG  PRO C  21      -9.758  13.851 -18.959  1.00 54.82 LIG 0.02  C 
ATOM     24 O    PHE C  20     -13.671  11.573 -18.533  1.00 48.67 LIG-0.27  OA
BRANCH 20 25
ATOM     25  C   PRO C  21     -12.673  12.917 -20.969  1.00 87.57 LIG 0.22  C 
ATOM     26 O    PRO C  21     -12.266  13.276 -22.073  1.00 58.80 LIG-0.29  OA
ENDBRANCH 20 25
ENDBRANCH 17 18
BRANCH 17 27
ATOM     27  CB  PHE C  20     -11.951   9.013 -18.082  1.00 46.79 LIG 0.07  C 
BRANCH 27 28
ATOM     28  CG  PHE C  20     -13.031   7.996 -17.773  1.00 50.46 LIG-0.06  A 
ATOM     29  CD2 PHE C  20     -12.960   7.204 -16.630  1.00 54.33 LIG 0.01  A 
ATOM     30  CE2 PHE C  20     -13.960   6.266 -16.345  1.00 57.68 LIG 0.00  A 
ATOM     31  CZ  PHE C  20     -15.021   6.099 -17.216  1.00 55.81 LIG 0.00  A 
ATOM     32  CE1 PHE C  20     -15.101   6.865 -18.359  1.00 56.05 LIG 0.00  A 
ATOM     33  CD1 PHE C  20     -14.095   7.796 -18.648  1.00 54.84 LIG 0.01  A 
ENDBRANCH 27 28
ENDBRANCH 17 27
ENDBRANCH 14 17
ENDBRANCH 8 13
ENDBRANCH 5 6
BRANCH 5 34
ATOM     34  CB  LEU C  18     -10.839  10.928 -10.854  1.00 31.46 LIG 0.04  C 
BRANCH 34 35
ATOM     35  CG  LEU C  18     -10.323  11.405  -9.522  1.00 36.62 LIG-0.02  C 
ATOM     36  CD2 LEU C  18     -11.342  12.326  -8.868  1.00 38.91 LIG 0.01  C 
ATOM     37  CD1 LEU C  18      -8.982  12.121  -9.708  1.00 36.98 LIG 0.01  C 
ENDBRANCH 34 35
ENDBRANCH 5 34
ENDBRANCH 3 5
BRANCH 1 38
ATOM     38  CA  PRO C  17     -12.019   6.639  -9.108  1.00 33.71 LIG 0.18  C 
ATOM     39  CB  PRO C  17     -12.538   5.348  -9.750  1.00 36.04 LIG 0.04  C 
ATOM     40  CG  PRO C  17     -13.449   4.701  -8.728  1.00 41.66 LIG 0.02  C 
ATOM     41  CD  PRO C  17     -13.494   5.565  -7.504  1.00 37.74 LIG 0.13  C 
ATOM     42  N   PRO C  17     -12.337   6.469  -7.687  1.00 35.06 LIG-0.34  N 
ATOM     43  C   ARG C  16     -11.572   7.088  -6.767  1.00 37.80 LIG 0.24  C 
ATOM     44 O    ARG C  16     -10.628   7.791  -7.118  1.00 34.25 LIG-0.27  OA
BRANCH 43 45
ATOM     45  CA  ARG C  16     -11.856   6.895  -5.266  1.00 39.10 LIG 0.18  C 
BRANCH 45 46
ATOM     46  CB  ARG C  16     -12.596   8.125  -4.707  1.00 42.59 LIG 0.04  C 
BRANCH 46 47
ATOM     47  CG  ARG C  16     -13.851   8.518  -5.479  1.00 54.51 LIG 0.02  C 
BRANCH 47 48
ATOM     48  CD  ARG C  16     -14.930   7.456  -5.396  1.00 71.70 LIG 0.14  C 
BRANCH 48 49
ATOM     49  NE  ARG C  16     -16.264   8.027  -5.610  1.00 86.72 LIG-0.23  N 
ATOM     50 HE   ARG C  16     -16.521   8.649  -5.074  1.00 86.72 LIG 0.18  HD
ATOM     51  CZ  ARG C  16     -17.104   7.655  -6.572  1.00 98.48 LIG 0.67  C 
ATOM     52  NH2 ARG C  16     -18.297   8.227  -6.679  1.00 86.10 LIG-0.23  N 
ATOM     53  NH1 ARG C  16     -16.762   6.701  -7.430  1.00 81.98 LIG-0.23  N 
ATOM     54 2HH2 ARG C  16     -18.836   7.983  -7.303  1.00 86.10 LIG 0.17  HD
ATOM     55 1HH2 ARG C  16     -18.530   8.842  -6.125  1.00 86.10 LIG 0.17  HD
ATOM     56 1HH1 ARG C  16     -15.994   6.320  -7.365  1.00 81.98 LIG 0.17  HD
ATOM     57 2HH1 ARG C  16     -17.309   6.465  -8.049  1.00 81.98 LIG 0.17  HD
ENDBRANCH 48 49
ENDBRANCH 47 48
ENDBRANCH 46 47
ENDBRANCH 45 46
BRANCH 45 58
ATOM     58  N   ARG C  16     -10.591   6.685  -4.554  1.00 40.87 LIG-0.35  N 
ATOM     59  C   PRO C  15      -9.699   5.707  -4.834  1.00 47.02 LIG 0.25  C 
ATOM     60 O    PRO C  15      -9.877   4.859  -5.709  1.00 46.36 LIG-0.27  OA
ATOM     61 H    ARG C  16     -10.464   7.255  -3.923  1.00 40.87 LIG 0.16  HD
BRANCH 59 62
ATOM     62  CA  PRO C  15      -8.394   5.706  -4.034  1.00 46.56 LIG 0.35  C 
ATOM     63  N   PRO C  15      -7.407   4.734  -4.525  1.00 47.38 LIG 0.32  N 
ATOM     64  CD  PRO C  15      -6.191   5.401  -5.029  1.00 49.28 LIG 0.32  C 
ATOM     65  CG  PRO C  15      -6.219   6.726  -4.330  1.00 53.38 LIG 0.04  C 
ATOM     66  CB  PRO C  15      -7.668   7.055  -4.173  1.00 48.49 LIG 0.05  C 
ENDBRANCH 59 62
ENDBRANCH 45 58
ENDBRANCH 43 45
ENDBRANCH 1 38
TORSDOF 18
ENDMDL
MODEL 7
USER: ADFR SOLUTION from run 25
USER: SCORE 21.282649 LL:  -4.520 LR: -18.429 RR:   0.000 FEB: -13.059
USER: RMSD 3.310699
USER: SEED 24
USER: STATUS no improvement in best in 8 clusters for 5 generations
USER: GENES 20
USER: genes 0 Translation |==|  0.44303 0.40879 0.52882
USER: genes 1 Rotation |==|  0.48931 0.51043 0.58893 0.99180
USER: genes 2 Torsion [C]-N--CA-[CB] |==|  0.25259
USER: genes 3 Torsion [N]-CA--C-[N] |==|  0.33560
USER: genes 4 Torsion [N]-CA--C-[O] |==|  0.19652
USER: genes 5 Torsion [C]-N--CA-[C] |==|  0.65067
USER: genes 6 Torsion [N]-CA--C-[N] |==|  0.18984
USER: genes 7 Torsion [N]-CA--C-[O] |==|  0.68240
USER: genes 8 Torsion [N]-CA--CB-[CG] |==|  0.82292
USER: genes 9 Torsion [CA]-CB--CG-[CD1] |==|  0.21279
USER: genes 10 Torsion [N]-CA--CB-[CG] |==|  0.11458
USER: genes 11 Torsion [CA]-CB--CG-[CD2] |==|  0.69960
USER: genes 12 Torsion [O]-C--CA-[CB] |==|  0.21502
USER: genes 13 Torsion [N]-C--CA-[N] |==|  0.37447
USER: genes 14 Torsion [C]-CA--CB-[CG] |==|  0.38187
USER: genes 15 Torsion [CA]-CB--CG-[CD] |==|  0.31661
USER: genes 16 Torsion [CB]-CG--CD-[NE] |==|  0.80898
USER: genes 17 Torsion [CG]-CD--NE-[HE] |==|  0.75199
USER: genes 18 Torsion [C]-CA--N-[C] |==|  0.79775
USER: genes 19 Torsion [N]-C--CA-[CB] |==|  0.62418
ROOT
ATOM      1  C   PRO C  17     -12.639   7.710  -9.394  1.00 34.10 LIG 0.24  C 
ATOM      2 O    PRO C  17     -13.816   7.852  -9.069  1.00 31.91 LIG-0.27  OA
ATOM      3  N   LEU C  18     -12.100   8.349 -10.416  1.00 30.88 LIG-0.35  N 
ATOM      4 H    LEU C  18     -11.294   8.212 -10.681  1.00 30.88 LIG 0.16  HD
ENDROOT
BRANCH 3 5
ATOM      5  CA  LEU C  18     -12.808   9.351 -11.199  1.00 30.78 LIG 0.18  C 
BRANCH 5 6
ATOM      6  C   LEU C  18     -12.399   9.382 -12.662  1.00 33.73 LIG 0.24  C 
ATOM      7  N   PRO C  19     -13.361   9.161 -13.595  1.00 33.17 LIG-0.34  N 
ATOM      8  CA  PRO C  19     -13.024   9.244 -15.033  1.00 33.85 LIG 0.18  C 
ATOM      9  CD  PRO C  19     -14.786   8.803 -13.385  1.00 35.22 LIG 0.13  C 
ATOM     10  CB  PRO C  19     -14.244   8.632 -15.729  1.00 35.69 LIG 0.04  C 
ATOM     11  CG  PRO C  19     -15.360   8.753 -14.766  1.00 39.92 LIG 0.02  C 
ATOM     12 O    LEU C  18     -11.243   9.701 -12.949  1.00 31.40 LIG-0.27  OA
BRANCH 8 13
ATOM     13  C   PRO C  19     -12.702  10.662 -15.530  1.00 39.47 LIG 0.24  C 
ATOM     14  N   PHE C  20     -13.590  11.209 -16.362  1.00 41.20 LIG-0.35  N 
ATOM     15 H    PHE C  20     -14.307  10.800 -16.604  1.00 41.20 LIG 0.16  HD
ATOM     16 O    PRO C  19     -11.666  11.231 -15.202  1.00 36.20 LIG-0.27  OA
BRANCH 14 17
ATOM     17  CA  PHE C  20     -13.467  12.540 -16.954  1.00 43.59 LIG 0.18  C 
BRANCH 17 18
ATOM     18  C   PHE C  20     -14.736  13.356 -16.648  1.00 48.54 LIG 0.24  C 
ATOM     19  N   PRO C  21     -15.002  13.746 -15.373  1.00 46.41 LIG-0.34  N 
ATOM     20  CA  PRO C  21     -16.194  14.578 -15.083  1.00 51.72 LIG 0.17  C 
ATOM     21  CD  PRO C  21     -14.257  13.446 -14.134  1.00 49.19 LIG 0.13  C 
ATOM     22  CB  PRO C  21     -16.113  14.814 -13.566  1.00 52.56 LIG 0.04  C 
ATOM     23  CG  PRO C  21     -15.246  13.738 -13.047  1.00 54.82 LIG 0.02  C 
ATOM     24 O    PHE C  20     -15.474  13.660 -17.588  1.00 48.67 LIG-0.27  OA
BRANCH 20 25
ATOM     25  C   PRO C  21     -16.217  15.915 -15.827  1.00 87.57 LIG 0.22  C 
ATOM     26 O    PRO C  21     -16.139  16.969 -15.199  1.00 58.80 LIG-0.29  OA
ENDBRANCH 20 25
ENDBRANCH 17 18
BRANCH 17 27
ATOM     27  CB  PHE C  20     -13.246  12.398 -18.482  1.00 46.79 LIG 0.07  C 
BRANCH 27 28
ATOM     28  CG  PHE C  20     -11.977  11.709 -18.942  1.00 50.46 LIG-0.06  A 
ATOM     29  CD2 PHE C  20     -10.924  12.440 -19.484  1.00 54.33 LIG 0.01  A 
ATOM     30  CE2 PHE C  20      -9.751  11.801 -19.908  1.00 57.68 LIG 0.00  A 
ATOM     31  CZ  PHE C  20      -9.639  10.427 -19.815  1.00 55.81 LIG 0.00  A 
ATOM     32  CE1 PHE C  20     -10.678   9.685 -19.293  1.00 56.05 LIG 0.00  A 
ATOM     33  CD1 PHE C  20     -11.854  10.323 -18.879  1.00 54.84 LIG 0.01  A 
ENDBRANCH 27 28
ENDBRANCH 17 27
ENDBRANCH 14 17
ENDBRANCH 8 13
ENDBRANCH 5 6
BRANCH 5 34
ATOM     34  CB  LEU C  18     -12.560  10.728 -10.588  1.00 31.46 LIG 0.04  C 
BRANCH 34 35
ATOM     35  CG  LEU C  18     -11.156  11.009 -10.120  1.00 36.62 LIG-0.02  C 
ATOM     36  CD2 LEU C  18     -11.107  11.023  -8.600  1.00 38.91 LIG 0.01  C 
ATOM     37  CD1 LEU C  18     -10.673  12.344 -10.693  1.00 36.98 LIG 0.01  C 
ENDBRANCH 34 35
ENDBRANCH 5 34
ENDBRANCH 3 5
BRANCH 1 38
ATOM     38  CA  PRO C  17     -11.721   6.719  -8.692  1.00 33.71 LIG 0.18  C 
ATOM     39  CB  PRO C  17     -11.962   5.272  -9.134  1.00 36.04 LIG 0.04  C 
ATOM     40  CG  PRO C  17     -12.604   4.568  -7.957  1.00 41.66 LIG 0.02  C 
ATOM     41  CD  PRO C  17     -12.758   5.548  -6.832  1.00 37.74 LIG 0.13  C 
ATOM     42  N   PRO C  17     -11.873   6.664  -7.234  1.00 35.06 LIG-0.34  N 
ATOM     43  C   ARG C  16     -11.210   7.555  -6.474  1.00 37.80 LIG 0.24  C 
ATOM     44 O    ARG C  16     -10.495   8.407  -6.997  1.00 34.25 LIG-0.27  OA
BRANCH 43 45
ATOM     45  CA  ARG C  16     -11.317   7.495  -4.938  1.00 39.10 LIG 0.18  C 
BRANCH 45 46
ATOM     46  CB  ARG C  16     -12.258   8.605  -4.432  1.00 42.59 LIG 0.04  C 
BRANCH 46 47
ATOM     47  CG  ARG C  16     -13.224   8.169  -3.335  1.00 54.51 LIG 0.02  C 
BRANCH 47 48
ATOM     48  CD  ARG C  16     -12.939   8.860  -2.016  1.00 71.70 LIG 0.14  C 
BRANCH 48 49
ATOM     49  NE  ARG C  16     -11.671   8.407  -1.435  1.00 86.72 LIG-0.23  N 
ATOM     50 HE   ARG C  16     -11.693   7.723  -0.915  1.00 86.72 LIG 0.18  HD
ATOM     51  CZ  ARG C  16     -10.488   8.977  -1.655  1.00 98.48 LIG 0.67  C 
ATOM     52  NH2 ARG C  16      -9.395   8.497  -1.074  1.00 86.10 LIG-0.23  N 
ATOM     53  NH1 ARG C  16     -10.390  10.035  -2.449  1.00 81.98 LIG-0.23  N 
ATOM     54 2HH2 ARG C  16      -8.634   8.869  -1.219  1.00 86.10 LIG 0.17  HD
ATOM     55 1HH2 ARG C  16      -9.449   7.815  -0.554  1.00 86.10 LIG 0.17  HD
ATOM     56 1HH1 ARG C  16     -11.094  10.357  -2.825  1.00 81.98 LIG 0.17  HD
ATOM     57 2HH1 ARG C  16      -9.624  10.399  -2.588  1.00 81.98 LIG 0.17  HD
ENDBRANCH 48 49
ENDBRANCH 47 48
ENDBRANCH 46 47
ENDBRANCH 45 46
BRANCH 45 58
ATOM     58  N   ARG C  16      -9.981   7.643  -4.351  1.00 40.87 LIG-0.35  N 
ATOM     59  C   PRO C  15      -9.016   6.694  -4.374  1.00 47.02 LIG 0.25  C 
ATOM     60 O    PRO C  15      -9.177   5.578  -4.869  1.00 46.36 LIG-0.27  OA
ATOM     61 H    ARG C  16      -9.861   8.409  -3.980  1.00 40.87 LIG 0.16  HD
BRANCH 59 62
ATOM     62  CA  PRO C  15      -7.656   7.071  -3.783  1.00 46.56 LIG 0.35  C 
ATOM     63  N   PRO C  15      -7.366   6.402  -2.506  1.00 47.38 LIG 0.32  N 
ATOM     64  CD  PRO C  15      -6.201   5.505  -2.615  1.00 49.28 LIG 0.32  C 
ATOM     65  CG  PRO C  15      -5.458   6.057  -3.793  1.00 53.38 LIG 0.04  C 
ATOM     66  CB  PRO C  15      -6.513   6.602  -4.699  1.00 48.49 LIG 0.05  C 
ENDBRANCH 59 62
ENDBRANCH 45 58
ENDBRANCH 43 45
ENDBRANCH 1 38
TORSDOF 18
ENDMDL
MODEL 8
USER: ADFR SOLUTION from run 46
USER: SCORE 21.152435 LL:  -4.744 LR: -18.205 RR:   0.000 FEB: -12.835
USER: RMSD 4.338958
USER: SEED 45
USER: STATUS no improvement in best in 3 clusters for 5 generations
USER: GENES 20
USER: genes 0 Translation |==|  0.44935 0.43622 0.52840
USER: genes 1 Rotation |==|  0.51252 0.49611 0.57758 0.99377
USER: genes 2 Torsion [C]-N--CA-[CB] |==|  0.34666
USER: genes 3 Torsion [N]-CA--C-[N] |==|  0.43082
USER: genes 4 Torsion [N]-CA--C-[O] |==|  0.90686
USER: genes 5 Torsion [C]-N--CA-[C] |==|  0.78362
USER: genes 6 Torsion [N]-CA--C-[N] |==|  0.41010
USER: genes 7 Torsion [N]-CA--C-[O] |==|  0.42653
USER: genes 8 Torsion [N]-CA--CB-[CG] |==|  0.46181
USER: genes 9 Torsion [CA]-CB--CG-[CD1] |==|  0.28694
USER: genes 10 Torsion [N]-CA--CB-[CG] |==|  0.89951
USER: genes 11 Torsion [CA]-CB--CG-[CD2] |==|  0.79498
USER: genes 12 Torsion [O]-C--CA-[CB] |==|  0.21744
USER: genes 13 Torsion [N]-C--CA-[N] |==|  0.90776
USER: genes 14 Torsion [C]-CA--CB-[CG] |==|  0.07692
USER: genes 15 Torsion [CA]-CB--CG-[CD] |==|  0.35567
USER: genes 16 Torsion [CB]-CG--CD-[NE] |==|  0.35739
USER: genes 17 Torsion [CG]-CD--NE-[HE] |==|  0.81881
USER: genes 18 Torsion [C]-CA--N-[C] |==|  0.80095
USER: genes 19 Torsion [N]-C--CA-[CB] |==|  0.73499
ROOT
ATOM      1  C   PRO C  17     -12.525   8.204  -9.408  1.00 34.10 LIG 0.24  C 
ATOM      2 O    PRO C  17     -13.707   8.370  -9.116  1.00 31.91 LIG-0.27  OA
ATOM      3  N   LEU C  18     -11.914   8.914 -10.338  1.00 30.88 LIG-0.35  N 
ATOM      4 H    LEU C  18     -11.105   8.765 -10.585  1.00 30.88 LIG 0.16  HD
ENDROOT
BRANCH 3 5
ATOM      5  CA  LEU C  18     -12.542  10.022 -11.042  1.00 30.78 LIG 0.18  C 
BRANCH 5 6
ATOM      6  C   LEU C  18     -12.761   9.758 -12.522  1.00 33.73 LIG 0.24  C 
ATOM      7  N   PRO C  19     -13.753  10.443 -13.150  1.00 33.17 LIG-0.34  N 
ATOM      8  CA  PRO C  19     -13.962  10.267 -14.603  1.00 33.85 LIG 0.18  C 
ATOM      9  CD  PRO C  19     -14.739  11.384 -12.562  1.00 35.22 LIG 0.13  C 
ATOM     10  CB  PRO C  19     -15.322  10.924 -14.857  1.00 35.69 LIG 0.04  C 
ATOM     11  CG  PRO C  19     -15.529  11.868 -13.738  1.00 39.92 LIG 0.02  C 
ATOM     12 O    LEU C  18     -11.975   9.016 -13.115  1.00 31.40 LIG-0.27  OA
BRANCH 8 13
ATOM     13  C   PRO C  19     -12.844  10.849 -15.482  1.00 39.47 LIG 0.24  C 
ATOM     14  N   PHE C  20     -12.556  10.169 -16.593  1.00 41.20 LIG-0.35  N 
ATOM     15 H    PHE C  20     -12.973   9.449 -16.813  1.00 41.20 LIG 0.16  HD
ATOM     16 O    PRO C  19     -12.236  11.861 -15.150  1.00 36.20 LIG-0.27  OA
BRANCH 14 17
ATOM     17  CA  PHE C  20     -11.523  10.546 -17.557  1.00 43.59 LIG 0.18  C 
BRANCH 17 18
ATOM     18  C   PHE C  20     -12.045  11.692 -18.443  1.00 48.54 LIG 0.24  C 
ATOM     19  N   PRO C  21     -11.183  12.631 -18.918  1.00 46.41 LIG-0.34  N 
ATOM     20  CA  PRO C  21     -11.674  13.704 -19.815  1.00 51.72 LIG 0.17  C 
ATOM     21  CD  PRO C  21      -9.738  12.782 -18.658  1.00 49.19 LIG 0.13  C 
ATOM     22  CB  PRO C  21     -10.408  14.517 -20.135  1.00 52.56 LIG 0.04  C 
ATOM     23  CG  PRO C  21      -9.454  14.199 -19.055  1.00 54.82 LIG 0.02  C 
ATOM     24 O    PHE C  20     -13.246  11.711 -18.722  1.00 48.67 LIG-0.27  OA
BRANCH 20 25
ATOM     25  C   PRO C  21     -12.316  13.192 -21.106  1.00 87.57 LIG 0.22  C 
ATOM     26 O    PRO C  21     -13.164  13.871 -21.682  1.00 58.80 LIG-0.29  OA
ENDBRANCH 20 25
ENDBRANCH 17 18
BRANCH 17 27
ATOM     27  CB  PHE C  20     -11.144   9.307 -18.407  1.00 46.79 LIG 0.07  C 
BRANCH 27 28
ATOM     28  CG  PHE C  20     -10.333   9.546 -19.666  1.00 50.46 LIG-0.06  A 
ATOM     29  CD2 PHE C  20     -10.943  10.001 -20.832  1.00 54.33 LIG 0.01  A 
ATOM     30  CE2 PHE C  20     -10.191  10.223 -21.994  1.00 57.68 LIG 0.00  A 
ATOM     31  CZ  PHE C  20      -8.833   9.965 -21.999  1.00 55.81 LIG 0.00  A 
ATOM     32  CE1 PHE C  20      -8.215   9.501 -20.857  1.00 56.05 LIG 0.00  A 
ATOM     33  CD1 PHE C  20      -8.968   9.270 -19.699  1.00 54.84 LIG 0.01  A 
ENDBRANCH 27 28
ENDBRANCH 17 27
ENDBRANCH 14 17
ENDBRANCH 8 13
ENDBRANCH 5 6
BRANCH 5 34
ATOM     34  CB  LEU C  18     -11.674  11.269 -10.885  1.00 31.46 LIG 0.04  C 
BRANCH 34 35
ATOM     35  CG  LEU C  18     -10.981  11.438  -9.558  1.00 36.62 LIG-0.02  C 
ATOM     36  CD2 LEU C  18     -11.988  11.851  -8.495  1.00 38.91 LIG 0.01  C 
ATOM     37  CD1 LEU C  18      -9.863  12.477  -9.683  1.00 36.98 LIG 0.01  C 
ENDBRANCH 34 35
ENDBRANCH 5 34
ENDBRANCH 3 5
BRANCH 1 38
ATOM     38  CA  PRO C  17     -11.684   7.104  -8.775  1.00 33.71 LIG 0.18  C 
ATOM     39  CB  PRO C  17     -11.954   5.725  -9.385  1.00 36.04 LIG 0.04  C 
ATOM     40  CG  PRO C  17     -12.684   4.926  -8.326  1.00 41.66 LIG 0.02  C 
ATOM     41  CD  PRO C  17     -12.862   5.784  -7.109  1.00 37.74 LIG 0.13  C 
ATOM     42  N   PRO C  17     -11.916   6.898  -7.342  1.00 35.06 LIG-0.34  N 
ATOM     43  C   ARG C  16     -11.261   7.673  -6.456  1.00 37.80 LIG 0.24  C 
ATOM     44 O    ARG C  16     -10.488   8.544  -6.846  1.00 34.25 LIG-0.27  OA
BRANCH 43 45
ATOM     45  CA  ARG C  16     -11.452   7.452  -4.943  1.00 39.10 LIG 0.18  C 
BRANCH 45 46
ATOM     46  CB  ARG C  16     -10.437   6.413  -4.430  1.00 42.59 LIG 0.04  C 
BRANCH 46 47
ATOM     47  CG  ARG C  16      -9.140   6.341  -5.230  1.00 54.51 LIG 0.02  C 
BRANCH 47 48
ATOM     48  CD  ARG C  16      -7.915   6.455  -4.344  1.00 71.70 LIG 0.14  C 
BRANCH 48 49
ATOM     49  NE  ARG C  16      -6.965   5.366  -4.598  1.00 86.72 LIG-0.23  N 
ATOM     50 HE   ARG C  16      -7.217   4.567  -4.407  1.00 86.72 LIG 0.18  HD
ATOM     51  CZ  ARG C  16      -5.744   5.526  -5.102  1.00 98.48 LIG 0.67  C 
ATOM     52  NH2 ARG C  16      -4.953   4.477  -5.288  1.00 86.10 LIG-0.23  N 
ATOM     53  NH1 ARG C  16      -5.301   6.737  -5.416  1.00 81.98 LIG-0.23  N 
ATOM     54 2HH2 ARG C  16      -4.165   4.585  -5.614  1.00 86.10 LIG 0.17  HD
ATOM     55 1HH2 ARG C  16      -5.229   3.689  -5.082  1.00 86.10 LIG 0.17  HD
ATOM     56 1HH1 ARG C  16      -5.804   7.424  -5.294  1.00 81.98 LIG 0.17  HD
ATOM     57 2HH1 ARG C  16      -4.512   6.834  -5.742  1.00 81.98 LIG 0.17  HD
ENDBRANCH 48 49
ENDBRANCH 47 48
ENDBRANCH 46 47
ENDBRANCH 45 46
BRANCH 45 58
ATOM     58  N   ARG C  16     -12.825   7.005  -4.686  1.00 40.87 LIG-0.35  N 
ATOM     59  C   PRO C  15     -13.925   7.787  -4.784  1.00 47.02 LIG 0.25  C 
ATOM     60 O    PRO C  15     -13.880   8.984  -5.073  1.00 46.36 LIG-0.27  OA
ATOM     61 H    ARG C  16     -12.870   6.177  -4.459  1.00 40.87 LIG 0.16  HD
BRANCH 59 62
ATOM     62  CA  PRO C  15     -15.280   7.112  -4.560  1.00 46.56 LIG 0.35  C 
ATOM     63  N   PRO C  15     -16.288   8.006  -3.972  1.00 47.38 LIG 0.32  N 
ATOM     64  CD  PRO C  15     -17.422   8.225  -4.890  1.00 49.28 LIG 0.32  C 
ATOM     65  CG  PRO C  15     -17.363   7.031  -5.792  1.00 53.38 LIG 0.04  C 
ATOM     66  CB  PRO C  15     -15.910   6.695  -5.900  1.00 48.49 LIG 0.05  C 
ENDBRANCH 59 62
ENDBRANCH 45 58
ENDBRANCH 43 45
ENDBRANCH 1 38
TORSDOF 18
ENDMDL
MODEL 9
USER: ADFR SOLUTION from run 123
USER: SCORE 21.474232 LL:  -4.454 LR: -18.047 RR:   0.000 FEB: -12.678
USER: RMSD 2.092310
USER: SEED 122
USER: STATUS no improvement in best in 3 clusters for 5 generations
USER: GENES 20
USER: genes 0 Translation |==|  0.44003 0.43258 0.51501
USER: genes 1 Rotation |==|  0.52854 0.36052 0.56942 0.97425
USER: genes 2 Torsion [C]-N--CA-[CB] |==|  0.47544
USER: genes 3 Torsion [N]-CA--C-[N] |==|  0.40849
USER: genes 4 Torsion [N]-CA--C-[O] |==|  0.93090
USER: genes 5 Torsion [C]-N--CA-[C] |==|  0.73827
USER: genes 6 Torsion [N]-CA--C-[N] |==|  0.35165
USER: genes 7 Torsion [N]-CA--C-[O] |==|  0.88983
USER: genes 8 Torsion [N]-CA--CB-[CG] |==|  0.02199
USER: genes 9 Torsion [CA]-CB--CG-[CD1] |==|  0.28750
USER: genes 10 Torsion [N]-CA--CB-[CG] |==|  0.84161
USER: genes 11 Torsion [CA]-CB--CG-[CD2] |==|  0.81243
USER: genes 12 Torsion [O]-C--CA-[CB] |==|  0.10679
USER: genes 13 Torsion [N]-C--CA-[N] |==|  0.42741
USER: genes 14 Torsion [C]-CA--CB-[CG] |==|  0.38813
USER: genes 15 Torsion [CA]-CB--CG-[CD] |==|  0.18185
USER: genes 16 Torsion [CB]-CG--CD-[NE] |==|  0.28132
USER: genes 17 Torsion [CG]-CD--NE-[HE] |==|  0.79519
USER: genes 18 Torsion [C]-CA--N-[C] |==|  0.81092
USER: genes 19 Torsion [N]-C--CA-[CB] |==|  0.59720
ROOT
ATOM      1  C   PRO C  17     -12.692   8.138  -9.840  1.00 34.10 LIG 0.24  C 
ATOM      2 O    PRO C  17     -13.861   8.347 -10.161  1.00 31.91 LIG-0.27  OA
ATOM      3  N   LEU C  18     -11.699   8.922 -10.215  1.00 30.88 LIG-0.35  N 
ATOM      4 H    LEU C  18     -10.876   8.751 -10.041  1.00 30.88 LIG 0.16  HD
ENDROOT
BRANCH 3 5
ATOM      5  CA  LEU C  18     -11.891  10.158 -10.961  1.00 30.78 LIG 0.18  C 
BRANCH 5 6
ATOM      6  C   LEU C  18     -12.408   9.943 -12.374  1.00 33.73 LIG 0.24  C 
ATOM      7  N   PRO C  19     -13.233  10.886 -12.899  1.00 33.17 LIG-0.34  N 
ATOM      8  CA  PRO C  19     -13.710  10.753 -14.292  1.00 33.85 LIG 0.18  C 
ATOM      9  CD  PRO C  19     -13.785  12.098 -12.242  1.00 35.22 LIG 0.13  C 
ATOM     10  CB  PRO C  19     -14.831  11.792 -14.393  1.00 35.69 LIG 0.04  C 
ATOM     11  CG  PRO C  19     -14.566  12.777 -13.323  1.00 39.92 LIG 0.02  C 
ATOM     12 O    LEU C  18     -11.986   8.982 -13.021  1.00 31.40 LIG-0.27  OA
BRANCH 8 13
ATOM     13  C   PRO C  19     -12.621  10.943 -15.359  1.00 39.47 LIG 0.24  C 
ATOM     14  N   PHE C  20     -12.823  10.321 -16.522  1.00 41.20 LIG-0.35  N 
ATOM     15 H    PHE C  20     -13.523   9.845 -16.674  1.00 41.20 LIG 0.16  HD
ATOM     16 O    PRO C  19     -11.613  11.602 -15.128  1.00 36.20 LIG-0.27  OA
BRANCH 14 17
ATOM     17  CA  PHE C  20     -11.906  10.365 -17.660  1.00 43.59 LIG 0.18  C 
BRANCH 17 18
ATOM     18  C   PHE C  20     -12.338  11.488 -18.621  1.00 48.54 LIG 0.24  C 
ATOM     19  N   PRO C  21     -11.442  12.437 -19.003  1.00 46.41 LIG-0.34  N 
ATOM     20  CA  PRO C  21     -11.841  13.488 -19.971  1.00 51.72 LIG 0.17  C 
ATOM     21  CD  PRO C  21     -10.042  12.620 -18.574  1.00 49.19 LIG 0.13  C 
ATOM     22  CB  PRO C  21     -10.561  14.321 -20.148  1.00 52.56 LIG 0.04  C 
ATOM     23  CG  PRO C  21      -9.738  14.037 -18.957  1.00 54.82 LIG 0.02  C 
ATOM     24 O    PHE C  20     -13.496  11.479 -19.043  1.00 48.67 LIG-0.27  OA
BRANCH 20 25
ATOM     25  C   PRO C  21     -12.313  12.945 -21.321  1.00 87.57 LIG 0.22  C 
ATOM     26 O    PRO C  21     -11.736  11.988 -21.834  1.00 58.80 LIG-0.29  OA
ENDBRANCH 20 25
ENDBRANCH 17 18
BRANCH 17 27
ATOM     27  CB  PHE C  20     -11.910   8.987 -18.370  1.00 46.79 LIG 0.07  C 
BRANCH 27 28
ATOM     28  CG  PHE C  20     -12.936   7.970 -17.912  1.00 50.46 LIG-0.06  A 
ATOM     29  CD2 PHE C  20     -12.738   7.231 -16.748  1.00 54.33 LIG 0.01  A 
ATOM     30  CE2 PHE C  20     -13.689   6.292 -16.326  1.00 57.68 LIG 0.00  A 
ATOM     31  CZ  PHE C  20     -14.826   6.070 -17.080  1.00 55.81 LIG 0.00  A 
ATOM     32  CE1 PHE C  20     -15.031   6.783 -18.242  1.00 56.05 LIG 0.00  A 
ATOM     33  CD1 PHE C  20     -14.077   7.714 -18.669  1.00 54.84 LIG 0.01  A 
ENDBRANCH 27 28
ENDBRANCH 17 27
ENDBRANCH 14 17
ENDBRANCH 8 13
ENDBRANCH 5 6
BRANCH 5 34
ATOM     34  CB  LEU C  18     -10.564  10.909 -11.030  1.00 31.46 LIG 0.04  C 
BRANCH 34 35
ATOM     35  CG  LEU C  18      -9.916  11.244  -9.711  1.00 36.62 LIG-0.02  C 
ATOM     36  CD2 LEU C  18     -10.756  12.270  -8.965  1.00 38.91 LIG 0.01  C 
ATOM     37  CD1 LEU C  18      -8.497  11.770  -9.946  1.00 36.98 LIG 0.01  C 
ENDBRANCH 34 35
ENDBRANCH 5 34
ENDBRANCH 3 5
BRANCH 1 38
ATOM     38  CA  PRO C  17     -12.282   6.906  -9.046  1.00 33.71 LIG 0.18  C 
ATOM     39  CB  PRO C  17     -13.047   5.647  -9.467  1.00 36.04 LIG 0.04  C 
ATOM     40  CG  PRO C  17     -13.980   5.314  -8.322  1.00 41.66 LIG 0.02  C 
ATOM     41  CD  PRO C  17     -13.800   6.334  -7.238  1.00 37.74 LIG 0.13  C 
ATOM     42  N   PRO C  17     -12.526   6.992  -7.603  1.00 35.06 LIG-0.34  N 
ATOM     43  C   ARG C  16     -11.609   7.591  -6.820  1.00 37.80 LIG 0.24  C 
ATOM     44 O    ARG C  16     -10.588   8.066  -7.312  1.00 34.25 LIG-0.27  OA
BRANCH 43 45
ATOM     45  CA  ARG C  16     -11.818   7.659  -5.295  1.00 39.10 LIG 0.18  C 
BRANCH 45 46
ATOM     46  CB  ARG C  16     -12.703   8.868  -4.938  1.00 42.59 LIG 0.04  C 
BRANCH 46 47
ATOM     47  CG  ARG C  16     -13.731   8.603  -3.843  1.00 54.51 LIG 0.02  C 
BRANCH 47 48
ATOM     48  CD  ARG C  16     -13.079   8.314  -2.505  1.00 71.70 LIG 0.14  C 
BRANCH 48 49
ATOM     49  NE  ARG C  16     -13.113   9.489  -1.627  1.00 86.72 LIG-0.23  N 
ATOM     50 HE   ARG C  16     -12.578  10.137  -1.808  1.00 86.72 LIG 0.18  HD
ATOM     51  CZ  ARG C  16     -13.912   9.625  -0.571  1.00 98.48 LIG 0.67  C 
ATOM     52  NH2 ARG C  16     -13.863  10.725   0.169  1.00 86.10 LIG-0.23  N 
ATOM     53  NH1 ARG C  16     -14.760   8.658  -0.242  1.00 81.98 LIG-0.23  N 
ATOM     54 2HH2 ARG C  16     -14.381  10.808   0.851  1.00 86.10 LIG 0.17  HD
ATOM     55 1HH2 ARG C  16     -13.313  11.354  -0.032  1.00 86.10 LIG 0.17  HD
ATOM     56 1HH1 ARG C  16     -14.795   7.939  -0.712  1.00 81.98 LIG 0.17  HD
ATOM     57 2HH1 ARG C  16     -15.273   8.751   0.441  1.00 81.98 LIG 0.17  HD
ENDBRANCH 48 49
ENDBRANCH 47 48
ENDBRANCH 46 47
ENDBRANCH 45 46
BRANCH 45 58
ATOM     58  N   ARG C  16     -10.514   7.758  -4.629  1.00 40.87 LIG-0.35  N 
ATOM     59  C   PRO C  15      -9.587   6.773  -4.594  1.00 47.02 LIG 0.25  C 
ATOM     60 O    PRO C  15      -9.759   5.663  -5.097  1.00 46.36 LIG-0.27  OA
ATOM     61 H    ARG C  16     -10.389   8.520  -4.252  1.00 40.87 LIG 0.16  HD
BRANCH 59 62
ATOM     62  CA  PRO C  15      -8.251   7.101  -3.922  1.00 46.56 LIG 0.35  C 
ATOM     63  N   PRO C  15      -8.156   6.612  -2.539  1.00 47.38 LIG 0.32  N 
ATOM     64  CD  PRO C  15      -7.095   5.598  -2.393  1.00 49.28 LIG 0.32  C 
ATOM     65  CG  PRO C  15      -6.191   5.884  -3.552  1.00 53.38 LIG 0.04  C 
ATOM     66  CB  PRO C  15      -7.092   6.384  -4.635  1.00 48.49 LIG 0.05  C 
ENDBRANCH 59 62
ENDBRANCH 45 58
ENDBRANCH 43 45
ENDBRANCH 1 38
TORSDOF 18
ENDMDL
MODEL 10
USER: ADFR SOLUTION from run 106
USER: SCORE 21.151641 LL:  -4.375 LR: -17.712 RR:   0.000 FEB: -12.342
USER: RMSD 3.904562
USER: SEED 105
USER: STATUS no improvement in best in 6 clusters for 5 generations
USER: GENES 20
USER: genes 0 Translation |==|  0.44261 0.42991 0.50753
USER: genes 1 Rotation |==|  0.54474 0.34640 0.58050 0.96682
USER: genes 2 Torsion [C]-N--CA-[CB] |==|  0.50014
USER: genes 3 Torsion [N]-CA--C-[N] |==|  0.40095
USER: genes 4 Torsion [N]-CA--C-[O] |==|  0.84413
USER: genes 5 Torsion [C]-N--CA-[C] |==|  0.82340
USER: genes 6 Torsion [N]-CA--C-[N] |==|  0.36207
USER: genes 7 Torsion [N]-CA--C-[O] |==|  0.85848
USER: genes 8 Torsion [N]-CA--CB-[CG] |==|  0.04139
USER: genes 9 Torsion [CA]-CB--CG-[CD1] |==|  0.29018
USER: genes 10 Torsion [N]-CA--CB-[CG] |==|  0.71447
USER: genes 11 Torsion [CA]-CB--CG-[CD2] |==|  0.38017
USER: genes 12 Torsion [O]-C--CA-[CB] |==|  0.12023
USER: genes 13 Torsion [N]-C--CA-[N] |==|  0.92499
USER: genes 14 Torsion [C]-CA--CB-[CG] |==|  0.32224
USER: genes 15 Torsion [CA]-CB--CG-[CD] |==|  0.11436
USER: genes 16 Torsion [CB]-CG--CD-[NE] |==|  0.56751
USER: genes 17 Torsion [CG]-CD--NE-[HE] |==|  0.16194
USER: genes 18 Torsion [C]-CA--N-[C] |==|  0.70709
USER: genes 19 Torsion [N]-C--CA-[CB] |==|  0.08435
ROOT
ATOM      1  C   PRO C  17     -12.646   8.090 -10.081  1.00 34.10 LIG 0.24  C 
ATOM      2 O    PRO C  17     -13.806   8.248 -10.456  1.00 31.91 LIG-0.27  OA
ATOM      3  N   LEU C  18     -11.685   8.953 -10.354  1.00 30.88 LIG-0.35  N 
ATOM      4 H    LEU C  18     -10.863   8.820 -10.143  1.00 30.88 LIG 0.16  HD
ENDROOT
BRANCH 3 5
ATOM      5  CA  LEU C  18     -11.914  10.217 -11.038  1.00 30.78 LIG 0.18  C 
BRANCH 5 6
ATOM      6  C   LEU C  18     -12.542  10.062 -12.413  1.00 33.73 LIG 0.24  C 
ATOM      7  N   PRO C  19     -13.432  11.006 -12.815  1.00 33.17 LIG-0.34  N 
ATOM      8  CA  PRO C  19     -14.022  10.932 -14.169  1.00 33.85 LIG 0.18  C 
ATOM      9  CD  PRO C  19     -13.958  12.164 -12.049  1.00 35.22 LIG 0.13  C 
ATOM     10  CB  PRO C  19     -15.174  11.941 -14.120  1.00 35.69 LIG 0.04  C 
ATOM     11  CG  PRO C  19     -14.845  12.876 -13.022  1.00 39.92 LIG 0.02  C 
ATOM     12 O    LEU C  18     -12.151   9.150 -13.145  1.00 31.40 LIG-0.27  OA
BRANCH 8 13
ATOM     13  C   PRO C  19     -13.032  11.212 -15.310  1.00 39.47 LIG 0.24  C 
ATOM     14  N   PHE C  20     -12.890  10.242 -16.216  1.00 41.20 LIG-0.35  N 
ATOM     15 H    PHE C  20     -13.330   9.504 -16.172  1.00 41.20 LIG 0.16  HD
ATOM     16 O    PRO C  19     -12.389  12.256 -15.353  1.00 36.20 LIG-0.27  OA
BRANCH 14 17
ATOM     17  CA  PHE C  20     -11.995  10.305 -17.370  1.00 43.59 LIG 0.18  C 
BRANCH 17 18
ATOM     18  C   PHE C  20     -12.444  11.442 -18.305  1.00 48.54 LIG 0.24  C 
ATOM     19  N   PRO C  21     -11.540  12.354 -18.750  1.00 46.41 LIG-0.34  N 
ATOM     20  CA  PRO C  21     -11.960  13.418 -19.694  1.00 51.72 LIG 0.17  C 
ATOM     21  CD  PRO C  21     -10.108  12.482 -18.416  1.00 49.19 LIG 0.13  C 
ATOM     22  CB  PRO C  21     -10.662  14.200 -19.960  1.00 52.56 LIG 0.04  C 
ATOM     23  CG  PRO C  21      -9.774  13.885 -18.824  1.00 54.82 LIG 0.02  C 
ATOM     24 O    PHE C  20     -13.628  11.479 -18.650  1.00 48.67 LIG-0.27  OA
BRANCH 20 25
ATOM     25  C   PRO C  21     -12.542  12.892 -21.007  1.00 87.57 LIG 0.22  C 
ATOM     26 O    PRO C  21     -11.925  12.052 -21.659  1.00 58.80 LIG-0.29  OA
ENDBRANCH 20 25
ENDBRANCH 17 18
BRANCH 17 27
ATOM     27  CB  PHE C  20     -12.011   8.938 -18.101  1.00 46.79 LIG 0.07  C 
BRANCH 27 28
ATOM     28  CG  PHE C  20     -13.129   7.975 -17.754  1.00 50.46 LIG-0.06  A 
ATOM     29  CD2 PHE C  20     -13.087   7.226 -16.580  1.00 54.33 LIG 0.01  A 
ATOM     30  CE2 PHE C  20     -14.122   6.337 -16.260  1.00 57.68 LIG 0.00  A 
ATOM     31  CZ  PHE C  20     -15.188   6.175 -17.126  1.00 55.81 LIG 0.00  A 
ATOM     32  CE1 PHE C  20     -15.238   6.898 -18.299  1.00 56.05 LIG 0.00  A 
ATOM     33  CD1 PHE C  20     -14.199   7.779 -18.623  1.00 54.84 LIG 0.01  A 
ENDBRANCH 27 28
ENDBRANCH 17 27
ENDBRANCH 14 17
ENDBRANCH 8 13
ENDBRANCH 5 6
BRANCH 5 34
ATOM     34  CB  LEU C  18     -10.583  10.953 -11.184  1.00 31.46 LIG 0.04  C 
BRANCH 34 35
ATOM     35  CG  LEU C  18     -10.341  12.091 -10.227  1.00 36.62 LIG-0.02  C 
ATOM     36  CD2 LEU C  18      -8.914  12.034  -9.702  1.00 38.91 LIG 0.01  C 
ATOM     37  CD1 LEU C  18     -11.348  12.028  -9.075  1.00 36.98 LIG 0.01  C 
ENDBRANCH 34 35
ENDBRANCH 5 34
ENDBRANCH 3 5
BRANCH 1 38
ATOM     38  CA  PRO C  17     -12.202   6.839  -9.337  1.00 33.71 LIG 0.18  C 
ATOM     39  CB  PRO C  17     -12.771   5.553  -9.946  1.00 36.04 LIG 0.04  C 
ATOM     40  CG  PRO C  17     -13.793   5.031  -8.958  1.00 41.66 LIG 0.02  C 
ATOM     41  CD  PRO C  17     -13.854   5.963  -7.786  1.00 37.74 LIG 0.13  C 
ATOM     42  N   PRO C  17     -12.624   6.773  -7.934  1.00 35.06 LIG-0.34  N 
ATOM     43  C   ARG C  16     -11.878   7.387  -6.997  1.00 37.80 LIG 0.24  C 
ATOM     44 O    ARG C  16     -10.863   8.002  -7.317  1.00 34.25 LIG-0.27  OA
BRANCH 43 45
ATOM     45  CA  ARG C  16     -12.274   7.300  -5.511  1.00 39.10 LIG 0.18  C 
BRANCH 45 46
ATOM     46  CB  ARG C  16     -11.513   6.146  -4.831  1.00 42.59 LIG 0.04  C 
BRANCH 46 47
ATOM     47  CG  ARG C  16     -10.549   6.580  -3.731  1.00 54.51 LIG 0.02  C 
BRANCH 47 48
ATOM     48  CD  ARG C  16     -11.133   7.674  -2.858  1.00 71.70 LIG 0.14  C 
BRANCH 48 49
ATOM     49  NE  ARG C  16     -10.079   8.467  -2.216  1.00 86.72 LIG-0.23  N 
ATOM     50 HE   ARG C  16      -9.511   8.863  -2.726  1.00 86.72 LIG 0.18  HD
ATOM     51  CZ  ARG C  16      -9.939   8.620  -0.901  1.00 98.48 LIG 0.67  C 
ATOM     52  NH2 ARG C  16      -8.945   9.352  -0.414  1.00 86.10 LIG-0.23  N 
ATOM     53  NH1 ARG C  16     -10.785   8.034  -0.063  1.00 81.98 LIG-0.23  N 
ATOM     54 2HH2 ARG C  16      -8.858   9.448   0.436  1.00 86.10 LIG 0.17  HD
ATOM     55 1HH2 ARG C  16      -8.388   9.731  -0.948  1.00 86.10 LIG 0.17  HD
ATOM     56 1HH1 ARG C  16     -11.429   7.553  -0.369  1.00 81.98 LIG 0.17  HD
ATOM     57 2HH1 ARG C  16     -10.690   8.136   0.785  1.00 81.98 LIG 0.17  HD
ENDBRANCH 48 49
ENDBRANCH 47 48
ENDBRANCH 46 47
ENDBRANCH 45 46
BRANCH 45 58
ATOM     58  N   ARG C  16     -13.722   7.099  -5.404  1.00 40.87 LIG-0.35  N 
ATOM     59  C   PRO C  15     -14.610   8.049  -5.028  1.00 47.02 LIG 0.25  C 
ATOM     60 O    PRO C  15     -14.282   9.190  -4.701  1.00 46.36 LIG-0.27  OA
ATOM     61 H    ARG C  16     -13.965   6.299  -5.606  1.00 40.87 LIG 0.16  HD
BRANCH 59 62
ATOM     62  CA  PRO C  15     -16.092   7.668  -5.062  1.00 46.56 LIG 0.35  C 
ATOM     63  N   PRO C  15     -16.713   7.852  -6.382  1.00 47.38 LIG 0.32  N 
ATOM     64  CD  PRO C  15     -17.169   6.570  -6.951  1.00 49.28 LIG 0.32  C 
ATOM     65  CG  PRO C  15     -17.326   5.700  -5.742  1.00 53.38 LIG 0.04  C 
ATOM     66  CB  PRO C  15     -16.276   6.166  -4.787  1.00 48.49 LIG 0.05  C 
ENDBRANCH 59 62
ENDBRANCH 45 58
ENDBRANCH 43 45
ENDBRANCH 1 38
TORSDOF 18
ENDMDL
MODEL 11
USER: ADFR SOLUTION from run 189
USER: SCORE 21.908700 LL:  -5.109 LR: -17.700 RR:   0.000 FEB: -12.330
USER: RMSD 4.408842
USER: SEED 188
USER: STATUS no improvement in best in 7 clusters for 5 generations
USER: GENES 20
USER: genes 0 Translation |==|  0.44326 0.41496 0.52786
USER: genes 1 Rotation |==|  0.53979 0.45556 0.59801 0.98666
USER: genes 2 Torsion [C]-N--CA-[CB] |==|  0.47934
USER: genes 3 Torsion [N]-CA--C-[N] |==|  0.42294
USER: genes 4 Torsion [N]-CA--C-[O] |==|  0.21374
USER: genes 5 Torsion [C]-N--CA-[C] |==|  0.84138
USER: genes 6 Torsion [N]-CA--C-[N] |==|  0.37071
USER: genes 7 Torsion [N]-CA--C-[O] |==|  0.82700
USER: genes 8 Torsion [N]-CA--CB-[CG] |==|  0.06930
USER: genes 9 Torsion [CA]-CB--CG-[CD1] |==|  0.10483
USER: genes 10 Torsion [N]-CA--CB-[CG] |==|  0.77240
USER: genes 11 Torsion [CA]-CB--CG-[CD2] |==|  0.65196
USER: genes 12 Torsion [O]-C--CA-[CB] |==|  0.18585
USER: genes 13 Torsion [N]-C--CA-[N] |==|  0.34830
USER: genes 14 Torsion [C]-CA--CB-[CG] |==|  0.14030
USER: genes 15 Torsion [CA]-CB--CG-[CD] |==|  0.16181
USER: genes 16 Torsion [CB]-CG--CD-[NE] |==|  0.47144
USER: genes 17 Torsion [CG]-CD--NE-[HE] |==|  0.85807
USER: genes 18 Torsion [C]-CA--N-[C] |==|  0.84341
USER: genes 19 Torsion [N]-C--CA-[CB] |==|  0.81589
ROOT
ATOM      1  C   PRO C  17     -12.634   7.821  -9.426  1.00 34.10 LIG 0.24  C 
ATOM      2 O    PRO C  17     -13.856   7.860  -9.296  1.00 31.91 LIG-0.27  OA
ATOM      3  N   LEU C  18     -11.968   8.695 -10.156  1.00 30.88 LIG-0.35  N 
ATOM      4 H    LEU C  18     -11.121   8.640 -10.296  1.00 30.88 LIG 0.16  HD
ENDROOT
BRANCH 3 5
ATOM      5  CA  LEU C  18     -12.590   9.842 -10.801  1.00 30.78 LIG 0.18  C 
BRANCH 5 6
ATOM      6  C   LEU C  18     -13.574   9.466 -11.895  1.00 33.73 LIG 0.24  C 
ATOM      7  N   PRO C  19     -14.594  10.326 -12.155  1.00 33.17 LIG-0.34  N 
ATOM      8  CA  PRO C  19     -15.539  10.034 -13.254  1.00 33.85 LIG 0.18  C 
ATOM      9  CD  PRO C  19     -14.943  11.584 -11.449  1.00 35.22 LIG 0.13  C 
ATOM     10  CB  PRO C  19     -16.685  11.025 -13.021  1.00 35.69 LIG 0.04  C 
ATOM     11  CG  PRO C  19     -16.109  12.124 -12.216  1.00 39.92 LIG 0.02  C 
ATOM     12 O    LEU C  18     -13.358   8.455 -12.567  1.00 31.40 LIG-0.27  OA
BRANCH 8 13
ATOM     13  C   PRO C  19     -14.934  10.142 -14.662  1.00 39.47 LIG 0.24  C 
ATOM     14  N   PHE C  20     -15.270  11.224 -15.366  1.00 41.20 LIG-0.35  N 
ATOM     15 H    PHE C  20     -15.791  11.833 -15.052  1.00 41.20 LIG 0.16  HD
ATOM     16 O    PRO C  19     -14.212   9.258 -15.113  1.00 36.20 LIG-0.27  OA
BRANCH 14 17
ATOM     17  CA  PHE C  20     -14.812  11.511 -16.724  1.00 43.59 LIG 0.18  C 
BRANCH 17 18
ATOM     18  C   PHE C  20     -13.272  11.533 -16.750  1.00 48.54 LIG 0.24  C 
ATOM     19  N   PRO C  21     -12.599  10.870 -17.727  1.00 46.41 LIG-0.34  N 
ATOM     20  CA  PRO C  21     -11.119  10.935 -17.786  1.00 51.72 LIG 0.17  C 
ATOM     21  CD  PRO C  21     -13.132  10.021 -18.811  1.00 49.19 LIG 0.13  C 
ATOM     22  CB  PRO C  21     -10.768  10.092 -19.023  1.00 52.56 LIG 0.04  C 
ATOM     23  CG  PRO C  21     -11.940   9.228 -19.256  1.00 54.82 LIG 0.02  C 
ATOM     24 O    PHE C  20     -12.685  12.184 -15.883  1.00 48.67 LIG-0.27  OA
BRANCH 20 25
ATOM     25  C   PRO C  21     -10.563  12.352 -17.933  1.00 87.57 LIG 0.22  C 
ATOM     26 O    PRO C  21     -10.834  13.017 -18.931  1.00 58.80 LIG-0.29  OA
ENDBRANCH 20 25
ENDBRANCH 17 18
BRANCH 17 27
ATOM     27  CB  PHE C  20     -15.400  12.869 -17.184  1.00 46.79 LIG 0.07  C 
BRANCH 27 28
ATOM     28  CG  PHE C  20     -15.777  13.866 -16.106  1.00 50.46 LIG-0.06  A 
ATOM     29  CD2 PHE C  20     -16.884  14.697 -16.258  1.00 54.33 LIG 0.01  A 
ATOM     30  CE2 PHE C  20     -17.231  15.618 -15.260  1.00 57.68 LIG 0.00  A 
ATOM     31  CZ  PHE C  20     -16.457  15.727 -14.120  1.00 55.81 LIG 0.00  A 
ATOM     32  CE1 PHE C  20     -15.350  14.921 -13.959  1.00 56.05 LIG 0.00  A 
ATOM     33  CD1 PHE C  20     -14.998  14.008 -14.961  1.00 54.84 LIG 0.01  A 
ENDBRANCH 27 28
ENDBRANCH 17 27
ENDBRANCH 14 17
ENDBRANCH 8 13
ENDBRANCH 5 6
BRANCH 5 34
ATOM     34  CB  LEU C  18     -11.501  10.729 -11.400  1.00 31.46 LIG 0.04  C 
BRANCH 34 35
ATOM     35  CG  LEU C  18     -10.818  11.682 -10.453  1.00 36.62 LIG-0.02  C 
ATOM     36  CD2 LEU C  18     -10.909  13.102 -10.989  1.00 38.91 LIG 0.01  C 
ATOM     37  CD1 LEU C  18      -9.358  11.265 -10.256  1.00 36.98 LIG 0.01  C 
ENDBRANCH 34 35
ENDBRANCH 5 34
ENDBRANCH 3 5
BRANCH 1 38
ATOM     38  CA  PRO C  17     -11.793   6.707  -8.817  1.00 33.71 LIG 0.18  C 
ATOM     39  CB  PRO C  17     -12.061   5.343  -9.461  1.00 36.04 LIG 0.04  C 
ATOM     40  CG  PRO C  17     -12.791   4.519  -8.422  1.00 41.66 LIG 0.02  C 
ATOM     41  CD  PRO C  17     -12.972   5.347  -7.185  1.00 37.74 LIG 0.13  C 
ATOM     42  N   PRO C  17     -12.027   6.467  -7.390  1.00 35.06 LIG-0.34  N 
ATOM     43  C   ARG C  16     -11.374   7.222  -6.485  1.00 37.80 LIG 0.24  C 
ATOM     44 O    ARG C  16     -10.602   8.103  -6.853  1.00 34.25 LIG-0.27  OA
BRANCH 43 45
ATOM     45  CA  ARG C  16     -11.567   6.965  -4.978  1.00 39.10 LIG 0.18  C 
BRANCH 45 46
ATOM     46  CB  ARG C  16     -12.295   8.158  -4.330  1.00 42.59 LIG 0.04  C 
BRANCH 46 47
ATOM     47  CG  ARG C  16     -13.572   8.589  -5.044  1.00 54.51 LIG 0.02  C 
BRANCH 47 48
ATOM     48  CD  ARG C  16     -14.583   7.464  -5.137  1.00 71.70 LIG 0.14  C 
BRANCH 48 49
ATOM     49  NE  ARG C  16     -15.886   7.950  -5.602  1.00 86.72 LIG-0.23  N 
ATOM     50 HE   ARG C  16     -16.227   8.626  -5.195  1.00 86.72 LIG 0.18  HD
ATOM     51  CZ  ARG C  16     -16.579   7.422  -6.608  1.00 98.48 LIG 0.67  C 
ATOM     52  NH2 ARG C  16     -17.757   7.929  -6.949  1.00 86.10 LIG-0.23  N 
ATOM     53  NH1 ARG C  16     -16.105   6.377  -7.274  1.00 81.98 LIG-0.23  N 
ATOM     54 2HH2 ARG C  16     -18.202   7.584  -7.599  1.00 86.10 LIG 0.17  HD
ATOM     55 1HH2 ARG C  16     -18.077   8.602  -6.520  1.00 86.10 LIG 0.17  HD
ATOM     56 1HH1 ARG C  16     -15.345   6.037  -7.057  1.00 81.98 LIG 0.17  HD
ATOM     57 2HH1 ARG C  16     -16.557   6.040  -7.923  1.00 81.98 LIG 0.17  HD
ENDBRANCH 48 49
ENDBRANCH 47 48
ENDBRANCH 46 47
ENDBRANCH 45 46
BRANCH 45 58
ATOM     58  N   ARG C  16     -10.259   6.752  -4.349  1.00 40.87 LIG-0.35  N 
ATOM     59  C   PRO C  15      -9.363   5.810  -4.725  1.00 47.02 LIG 0.25  C 
ATOM     60 O    PRO C  15      -9.573   5.000  -5.628  1.00 46.36 LIG-0.27  OA
ATOM     61 H    ARG C  16     -10.108   7.296  -3.700  1.00 40.87 LIG 0.16  HD
BRANCH 59 62
ATOM     62  CA  PRO C  15      -8.016   5.804  -4.000  1.00 46.56 LIG 0.35  C 
ATOM     63  N   PRO C  15      -7.123   4.721  -4.435  1.00 47.38 LIG 0.32  N 
ATOM     64  CD  PRO C  15      -5.900   5.246  -5.072  1.00 49.28 LIG 0.32  C 
ATOM     65  CG  PRO C  15      -5.802   6.635  -4.521  1.00 53.38 LIG 0.04  C 
ATOM     66  CB  PRO C  15      -7.216   7.078  -4.324  1.00 48.49 LIG 0.05  C 
ENDBRANCH 59 62
ENDBRANCH 45 58
ENDBRANCH 43 45
ENDBRANCH 1 38
TORSDOF 18
ENDMDL
