MODEL 1
USER: ADFR SOLUTION from run 22
USER: SCORE 15.297662 LL:  -3.079 LR: -13.596 RR:   0.000 FEB:  -7.928
USER: RMSD 1.885027
USER: SEED 21
USER: STATUS no improvement in best in 3 clusters for 5 generations
USER: GENES 21
USER: genes 0 Translation |==|  0.52403 0.43184 0.48637
USER: genes 1 Rotation |==|  0.40604 0.45522 0.43881 0.98520
USER: genes 2 Torsion [CB]-CA--N-[C] |==|  0.25229
USER: genes 3 Torsion [N]-C--CA-[N] |==|  0.46929
USER: genes 4 Torsion [C]-CA--N-[C] |==|  0.76474
USER: genes 5 Torsion [N]-C--CA-[N] |==|  0.32308
USER: genes 6 Torsion [C]-CA--N-[C] |==|  0.77777
USER: genes 7 Torsion [C]-CA--CB-[CG] |==|  0.20792
USER: genes 8 Torsion [CA]-CB--CG-[CD] |==|  0.47926
USER: genes 9 Torsion [CB]-CG--CD-[OE1] |==|  0.78550
USER: genes 10 Torsion [N]-CA--CB-[CG] |==|  0.05514
USER: genes 11 Torsion [CA]-CB--CG-[OD1] |==|  0.17956
USER: genes 12 Torsion [N]-CA--C-[N] |==|  0.38195
USER: genes 13 Torsion [C]-N--CA-[C] |==|  0.79047
USER: genes 14 Torsion [N]-CA--CB-[CG] |==|  0.01358
USER: genes 15 Torsion [CA]-CB--CG-[CD2] |==|  0.67229
USER: genes 16 Torsion [N]-CA--C-[N] |==|  0.93596
USER: genes 17 Torsion [C]-N--CA-[CB] |==|  0.24962
USER: genes 18 Torsion [N]-CA--C-[O] |==|  0.86700
USER: genes 19 Torsion [N]-CA--CB-[CG] |==|  0.50228
USER: genes 20 Torsion [CA]-CB--CG-[CD2] |==|  0.66433
ROOT
ATOM      1  CA  ASP E   2       4.376  -6.482 -11.688  1.00 33.44 LIG 0.19  C 
ENDROOT
BRANCH 1 2
ATOM      2  N   ASP E   2       3.221  -6.756 -12.554  1.00 33.24 LIG-0.35  N 
ATOM      3 H    ASP E   2       3.422  -7.086 -13.322  1.00 33.24 LIG 0.16  HD
ATOM      4  C   ALA E   1       1.973  -6.503 -12.156  1.00 32.93 LIG 0.24  C 
ATOM      5 O    ALA E   1       1.712  -5.926 -11.101  1.00 31.71 LIG-0.27  OA
BRANCH 4 6
ATOM      6  CA  ALA E   1       0.849  -6.949 -13.087  1.00 33.97 LIG 0.17  C 
ATOM      7  CB  ALA E   1       0.846  -6.108 -14.359  1.00 34.31 LIG 0.04  C 
BRANCH 6 8
ATOM      8  N   ALA E   1      -0.443  -6.843 -12.403  1.00 34.07 LIG-0.35  N 
ATOM      9  C   GLN E   0      -0.928  -7.801 -11.609  1.00 34.65 LIG 0.24  C 
ATOM     10 O    GLN E   0      -0.355  -8.874 -11.403  1.00 33.74 LIG-0.27  OA
ATOM     11 H    ALA E   1      -0.859  -6.107 -12.562  1.00 34.07 LIG 0.16  HD
BRANCH 9 12
ATOM     12  CA  GLN E   0      -2.252  -7.491 -10.912  1.00 34.37 LIG 0.18  C 
BRANCH 12 13
ATOM     13  N   GLN E   0      -3.362  -8.418 -11.349  1.00 34.90 LIG-0.35  N 
ATOM     14  C   ACE E  -1      -4.067  -8.280 -12.505  1.00 34.22 LIG 0.21  C 
ATOM     15  CH3 ACE E  -1      -5.029  -9.442 -12.716  1.00 34.51 LIG 0.12  C 
ATOM     16 O    ACE E  -1      -3.401  -7.982 -13.493  1.00 33.28 LIG-0.27  OA
ATOM     17 H    GLN E   0      -3.511  -9.054 -10.788  1.00 34.90 LIG 0.16  HD
ENDBRANCH 12 13
BRANCH 12 18
ATOM     18  CB  GLN E   0      -2.037  -7.579  -9.396  1.00 34.11 LIG 0.04  C 
BRANCH 18 19
ATOM     19  CG  GLN E   0      -1.279  -6.398  -8.800  1.00 32.87 LIG 0.10  C 
BRANCH 19 20
ATOM     20  CD  GLN E   0      -1.249  -6.438  -7.285  1.00 32.43 LIG 0.21  C 
ATOM     21 OE1  GLN E   0      -2.236  -6.107  -6.634  1.00 31.11 LIG-0.27  OA
ATOM     22  NE2 GLN E   0      -0.113  -6.829  -6.715  1.00 32.01 LIG-0.37  N 
ATOM     23 22HE GLN E   0      -0.051  -6.857  -5.858  1.00 32.01 LIG 0.16  HD
ATOM     24 21HE GLN E   0       0.558  -7.054  -7.203  1.00 32.01 LIG 0.16  HD
ENDBRANCH 19 20
ENDBRANCH 18 19
ENDBRANCH 12 18
ENDBRANCH 9 12
ENDBRANCH 6 8
ENDBRANCH 4 6
ENDBRANCH 1 2
BRANCH 1 25
ATOM     25  CB  ASP E   2       4.713  -7.709 -10.844  1.00 34.81 LIG 0.15  C 
BRANCH 25 26
ATOM     26  CG  ASP E   2       4.134  -8.978 -11.431  1.00 36.48 LIG 0.17  C 
ATOM     27 OD1  ASP E   2       4.556  -9.357 -12.545  1.00 36.59 LIG-0.65  OA
ATOM     28 OD2  ASP E   2       3.241  -9.578 -10.794  1.00 38.36 LIG-0.65  OA
ENDBRANCH 25 26
ENDBRANCH 1 25
BRANCH 1 29
ATOM     29  C   ASP E   2       5.613  -6.011 -12.434  1.00 31.85 LIG 0.24  C 
ATOM     30 O    ASP E   2       5.961  -6.550 -13.487  1.00 30.99 LIG-0.27  OA
ATOM     31  N   LEU E   3       6.272  -5.002 -11.858  1.00 29.32 LIG-0.35  N 
ATOM     32 H    LEU E   3       6.033  -4.653 -11.109  1.00 29.32 LIG 0.16  HD
BRANCH 31 33
ATOM     33  CA  LEU E   3       7.470  -4.382 -12.438  1.00 27.73 LIG 0.18  C 
BRANCH 33 34
ATOM     34  CB  LEU E   3       7.726  -2.999 -11.804  1.00 28.26 LIG 0.04  C 
BRANCH 34 35
ATOM     35  CG  LEU E   3       6.817  -2.563 -10.651  1.00 28.58 LIG-0.02  C 
ATOM     36  CD2 LEU E   3       6.027  -1.307 -11.002  1.00 28.56 LIG 0.01  C 
ATOM     37  CD1 LEU E   3       7.640  -2.331  -9.390  1.00 28.86 LIG 0.01  C 
ENDBRANCH 34 35
ENDBRANCH 33 34
BRANCH 33 38
ATOM     38  C   LEU E   3       8.719  -5.233 -12.288  1.00 26.19 LIG 0.24  C 
ATOM     39  N   PHE E   4       8.710  -6.126 -11.302  1.00 24.40 LIG-0.34  N 
ATOM     40 H    PHE E   4       8.016  -6.293 -10.823  1.00 24.40 LIG 0.16  HD
ATOM     41 O    LEU E   3       9.674  -5.061 -13.047  1.00 26.01 LIG-0.27  OA
BRANCH 39 42
ATOM     42  CA  PHE E   4       9.880  -6.914 -10.938  1.00 23.80 LIG 0.19  C 
BRANCH 42 43
ATOM     43  C   PHE E   4       9.451  -8.262 -10.364  1.00 24.08 LIG 0.20  C 
ATOM     44 O    PHE E   4       8.580  -8.357  -9.497  1.00 22.36 LIG-0.65  OA
ATOM     45 OXT  PHE E   4      10.023  -9.283 -10.734  1.00 24.21 LIG-0.65  OA
ENDBRANCH 42 43
BRANCH 42 46
ATOM     46  CB  PHE E   4      10.707  -6.177  -9.876  1.00 23.46 LIG 0.07  C 
BRANCH 46 47
ATOM     47  CG  PHE E   4      11.957  -6.919  -9.453  1.00 22.76 LIG-0.06  A 
ATOM     48  CD1 PHE E   4      12.925  -7.270 -10.381  1.00 22.71 LIG 0.01  A 
ATOM     49  CE1 PHE E   4      14.066  -7.955  -9.996  1.00 22.42 LIG 0.00  A 
ATOM     50  CZ  PHE E   4      14.242  -8.308  -8.668  1.00 22.02 LIG 0.00  A 
ATOM     51  CE2 PHE E   4      13.280  -7.972  -7.734  1.00 22.12 LIG 0.00  A 
ATOM     52  CD2 PHE E   4      12.146  -7.283  -8.128  1.00 22.51 LIG 0.01  A 
ENDBRANCH 46 47
ENDBRANCH 42 46
ENDBRANCH 39 42
ENDBRANCH 33 38
ENDBRANCH 31 33
ENDBRANCH 1 29
TORSDOF 19
ENDMDL
MODEL 2
USER: ADFR SOLUTION from run 79
USER: SCORE 13.926606 LL:  -3.271 LR: -12.875 RR:   0.000 FEB:  -7.208
USER: RMSD 3.793836
USER: SEED 78
USER: STATUS no improvement in best in 8 clusters for 5 generations
USER: GENES 21
USER: genes 0 Translation |==|  0.57502 0.30945 0.56481
USER: genes 1 Rotation |==|  0.37888 0.49793 0.41048 0.97677
USER: genes 2 Torsion [CB]-CA--N-[C] |==|  0.40242
USER: genes 3 Torsion [N]-C--CA-[N] |==|  0.37135
USER: genes 4 Torsion [C]-CA--N-[C] |==|  0.74136
USER: genes 5 Torsion [N]-C--CA-[N] |==|  0.45539
USER: genes 6 Torsion [C]-CA--N-[C] |==|  0.73594
USER: genes 7 Torsion [C]-CA--CB-[CG] |==|  0.34953
USER: genes 8 Torsion [CA]-CB--CG-[CD] |==|  0.16036
USER: genes 9 Torsion [CB]-CG--CD-[OE1] |==|  0.53783
USER: genes 10 Torsion [N]-CA--CB-[CG] |==|  0.55664
USER: genes 11 Torsion [CA]-CB--CG-[OD1] |==|  0.37287
USER: genes 12 Torsion [N]-CA--C-[N] |==|  0.28238
USER: genes 13 Torsion [C]-N--CA-[C] |==|  0.68889
USER: genes 14 Torsion [N]-CA--CB-[CG] |==|  0.80037
USER: genes 15 Torsion [CA]-CB--CG-[CD2] |==|  0.17864
USER: genes 16 Torsion [N]-CA--C-[N] |==|  0.95192
USER: genes 17 Torsion [C]-N--CA-[CB] |==|  0.36661
USER: genes 18 Torsion [N]-CA--C-[O] |==|  0.10922
USER: genes 19 Torsion [N]-CA--CB-[CG] |==|  0.89501
USER: genes 20 Torsion [CA]-CB--CG-[CD2] |==|  0.91301
ROOT
ATOM      1  CA  ASP E   2       5.676  -8.501 -10.512  1.00 33.44 LIG 0.19  C 
ENDROOT
BRANCH 1 2
ATOM      2  N   ASP E   2       4.370  -8.644 -11.169  1.00 33.24 LIG-0.35  N 
ATOM      3 H    ASP E   2       4.165  -9.452 -11.381  1.00 33.24 LIG 0.16  HD
ATOM      4  C   ALA E   1       3.587  -7.590 -11.405  1.00 32.93 LIG 0.24  C 
ATOM      5 O    ALA E   1       3.945  -6.431 -11.197  1.00 31.71 LIG-0.27  OA
BRANCH 4 6
ATOM      6  CA  ALA E   1       2.199  -7.875 -11.973  1.00 33.97 LIG 0.17  C 
ATOM      7  CB  ALA E   1       2.155  -7.540 -13.460  1.00 34.31 LIG 0.04  C 
BRANCH 6 8
ATOM      8  N   ALA E   1       1.189  -7.102 -11.247  1.00 34.07 LIG-0.35  N 
ATOM      9  C   GLN E   0       0.520  -7.583 -10.196  1.00 34.65 LIG 0.24  C 
ATOM     10 O    GLN E   0       0.662  -8.729  -9.760  1.00 33.74 LIG-0.27  OA
ATOM     11 H    ALA E   1       1.067  -6.310 -11.560  1.00 34.07 LIG 0.16  HD
BRANCH 9 12
ATOM     12  CA  GLN E   0      -0.439  -6.613  -9.508  1.00 34.37 LIG 0.18  C 
BRANCH 12 13
ATOM     13  N   GLN E   0      -1.422  -7.321  -8.603  1.00 34.90 LIG-0.35  N 
ATOM     14  C   ACE E  -1      -2.677  -7.693  -8.976  1.00 34.22 LIG 0.21  C 
ATOM     15  CH3 ACE E  -1      -3.371  -8.494  -7.882  1.00 34.51 LIG 0.12  C 
ATOM     16 O    ACE E  -1      -2.768  -8.177 -10.101  1.00 33.28 LIG-0.27  OA
ATOM     17 H    GLN E   0      -1.109  -7.470  -7.815  1.00 34.90 LIG 0.16  HD
ENDBRANCH 12 13
BRANCH 12 18
ATOM     18  CB  GLN E   0       0.386  -5.591  -8.716  1.00 34.11 LIG 0.04  C 
BRANCH 18 19
ATOM     19  CG  GLN E   0       0.071  -4.137  -9.049  1.00 32.87 LIG 0.10  C 
BRANCH 19 20
ATOM     20  CD  GLN E   0      -1.389  -3.798  -8.827  1.00 32.43 LIG 0.21  C 
ATOM     21 OE1  GLN E   0      -1.862  -2.758  -9.276  1.00 31.11 LIG-0.27  OA
ATOM     22  NE2 GLN E   0      -2.109  -4.665  -8.121  1.00 32.01 LIG-0.37  N 
ATOM     23 22HE GLN E   0      -2.939  -4.507  -7.963  1.00 32.01 LIG 0.16  HD
ATOM     24 21HE GLN E   0      -1.744  -5.385  -7.822  1.00 32.01 LIG 0.16  HD
ENDBRANCH 19 20
ENDBRANCH 18 19
ENDBRANCH 12 18
ENDBRANCH 9 12
ENDBRANCH 6 8
ENDBRANCH 4 6
ENDBRANCH 1 2
BRANCH 1 25
ATOM     25  CB  ASP E   2       5.958  -9.707  -9.617  1.00 34.81 LIG 0.15  C 
BRANCH 25 26
ATOM     26  CG  ASP E   2       7.006  -9.403  -8.570  1.00 36.48 LIG 0.17  C 
ATOM     27 OD1  ASP E   2       6.785  -9.765  -7.394  1.00 36.59 LIG-0.65  OA
ATOM     28 OD2  ASP E   2       8.034  -8.779  -8.915  1.00 38.36 LIG-0.65  OA
ENDBRANCH 25 26
ENDBRANCH 1 25
BRANCH 1 29
ATOM     29  C   ASP E   2       6.834  -8.288 -11.472  1.00 31.85 LIG 0.24  C 
ATOM     30 O    ASP E   2       7.328  -9.235 -12.088  1.00 30.99 LIG-0.27  OA
ATOM     31  N   LEU E   3       7.260  -7.027 -11.575  1.00 29.32 LIG-0.35  N 
ATOM     32 H    LEU E   3       6.924  -6.379 -11.119  1.00 29.32 LIG 0.16  HD
BRANCH 31 33
ATOM     33  CA  LEU E   3       8.343  -6.609 -12.474  1.00 27.73 LIG 0.18  C 
BRANCH 33 34
ATOM     34  CB  LEU E   3       7.869  -5.471 -13.402  1.00 28.26 LIG 0.04  C 
BRANCH 34 35
ATOM     35  CG  LEU E   3       6.883  -5.823 -14.518  1.00 28.58 LIG-0.02  C 
ATOM     36  CD2 LEU E   3       5.548  -6.304 -13.960  1.00 28.56 LIG 0.01  C 
ATOM     37  CD1 LEU E   3       7.481  -6.882 -15.436  1.00 28.86 LIG 0.01  C 
ENDBRANCH 34 35
ENDBRANCH 33 34
BRANCH 33 38
ATOM     38  C   LEU E   3       9.593  -6.158 -11.739  1.00 26.19 LIG 0.24  C 
ATOM     39  N   PHE E   4       9.445  -5.858 -10.452  1.00 24.40 LIG-0.34  N 
ATOM     40 H    PHE E   4       8.715  -5.990 -10.017  1.00 24.40 LIG 0.16  HD
ATOM     41 O    LEU E   3      10.663  -6.072 -12.344  1.00 26.01 LIG-0.27  OA
BRANCH 39 42
ATOM     42  CA  PHE E   4      10.511  -5.276  -9.648  1.00 23.80 LIG 0.19  C 
BRANCH 42 43
ATOM     43  C   PHE E   4      11.050  -6.306  -8.658  1.00 24.08 LIG 0.20  C 
ATOM     44 O    PHE E   4      11.201  -7.491  -8.965  1.00 22.36 LIG-0.65  OA
ATOM     45 OXT  PHE E   4      11.293  -5.964  -7.505  1.00 24.21 LIG-0.65  OA
ENDBRANCH 42 43
BRANCH 42 46
ATOM     46  CB  PHE E   4       9.983  -4.073  -8.856  1.00 23.46 LIG 0.07  C 
BRANCH 46 47
ATOM     47  CG  PHE E   4       8.984  -3.231  -9.620  1.00 22.76 LIG-0.06  A 
ATOM     48  CD1 PHE E   4       7.952  -2.578  -8.964  1.00 22.71 LIG 0.01  A 
ATOM     49  CE1 PHE E   4       7.034  -1.812  -9.663  1.00 22.42 LIG 0.00  A 
ATOM     50  CZ  PHE E   4       7.136  -1.703 -11.040  1.00 22.02 LIG 0.00  A 
ATOM     51  CE2 PHE E   4       8.154  -2.355 -11.709  1.00 22.12 LIG 0.00  A 
ATOM     52  CD2 PHE E   4       9.070  -3.114 -11.000  1.00 22.51 LIG 0.01  A 
ENDBRANCH 46 47
ENDBRANCH 42 46
ENDBRANCH 39 42
ENDBRANCH 33 38
ENDBRANCH 31 33
ENDBRANCH 1 29
TORSDOF 19
ENDMDL
MODEL 3
USER: ADFR SOLUTION from run 36
USER: SCORE 16.266206 LL:  -3.633 LR: -12.832 RR:   0.000 FEB:  -7.164
USER: RMSD 1.789820
USER: SEED 35
USER: STATUS 1 or 2 clusters left
USER: GENES 21
USER: genes 0 Translation |==|  0.49376 0.43204 0.49246
USER: genes 1 Rotation |==|  0.43809 0.49508 0.39463 0.98481
USER: genes 2 Torsion [CB]-CA--N-[C] |==|  0.83029
USER: genes 3 Torsion [N]-C--CA-[N] |==|  0.89518
USER: genes 4 Torsion [C]-CA--N-[C] |==|  0.81895
USER: genes 5 Torsion [N]-C--CA-[N] |==|  0.38632
USER: genes 6 Torsion [C]-CA--N-[C] |==|  0.77462
USER: genes 7 Torsion [C]-CA--CB-[CG] |==|  0.23873
USER: genes 8 Torsion [CA]-CB--CG-[CD] |==|  0.65418
USER: genes 9 Torsion [CB]-CG--CD-[OE1] |==|  0.02069
USER: genes 10 Torsion [N]-CA--CB-[CG] |==|  0.36296
USER: genes 11 Torsion [CA]-CB--CG-[OD1] |==|  0.26721
USER: genes 12 Torsion [N]-CA--C-[N] |==|  0.37224
USER: genes 13 Torsion [C]-N--CA-[C] |==|  0.81786
USER: genes 14 Torsion [N]-CA--CB-[CG] |==|  0.94116
USER: genes 15 Torsion [CA]-CB--CG-[CD2] |==|  0.74266
USER: genes 16 Torsion [N]-CA--C-[N] |==|  0.87980
USER: genes 17 Torsion [C]-N--CA-[CB] |==|  0.18063
USER: genes 18 Torsion [N]-CA--C-[O] |==|  0.89537
USER: genes 19 Torsion [N]-CA--CB-[CG] |==|  0.12145
USER: genes 20 Torsion [CA]-CB--CG-[CD2] |==|  0.72751
ROOT
ATOM      1  CA  ASP E   2       3.604  -6.478 -11.597  1.00 33.44 LIG 0.19  C 
ENDROOT
BRANCH 1 2
ATOM      2  N   ASP E   2       2.345  -6.391 -12.349  1.00 33.24 LIG-0.35  N 
ATOM      3 H    ASP E   2       1.793  -5.801 -12.052  1.00 33.24 LIG 0.16  HD
ATOM      4  C   ALA E   1       2.103  -7.174 -13.402  1.00 32.93 LIG 0.24  C 
ATOM      5 O    ALA E   1       2.855  -8.087 -13.742  1.00 31.71 LIG-0.27  OA
BRANCH 4 6
ATOM      6  CA  ALA E   1       0.820  -6.904 -14.182  1.00 33.97 LIG 0.17  C 
ATOM      7  CB  ALA E   1       1.043  -5.793 -15.203  1.00 34.31 LIG 0.04  C 
BRANCH 6 8
ATOM      8  N   ALA E   1      -0.262  -6.539 -13.263  1.00 34.07 LIG-0.35  N 
ATOM      9  C   GLN E   0      -0.763  -7.383 -12.357  1.00 34.65 LIG 0.24  C 
ATOM     10 O    GLN E   0      -0.391  -8.553 -12.231  1.00 33.74 LIG-0.27  OA
ATOM     11 H    ALA E   1      -0.543  -5.732 -13.361  1.00 34.07 LIG 0.16  HD
BRANCH 9 12
ATOM     12  CA  GLN E   0      -1.831  -6.812 -11.425  1.00 34.37 LIG 0.18  C 
BRANCH 12 13
ATOM     13  N   GLN E   0      -2.964  -7.784 -11.186  1.00 34.90 LIG-0.35  N 
ATOM     14  C   ACE E  -1      -4.004  -7.976 -12.044  1.00 34.22 LIG 0.21  C 
ATOM     15  CH3 ACE E  -1      -4.911  -9.107 -11.579  1.00 34.51 LIG 0.12  C 
ATOM     16 O    ACE E  -1      -3.701  -8.019 -13.234  1.00 33.28 LIG-0.27  OA
ATOM     17 H    GLN E   0      -2.891  -8.213 -10.444  1.00 34.90 LIG 0.16  HD
ENDBRANCH 12 13
BRANCH 12 18
ATOM     18  CB  GLN E   0      -1.164  -6.423 -10.100  1.00 34.11 LIG 0.04  C 
BRANCH 18 19
ATOM     19  CG  GLN E   0      -0.560  -5.023 -10.090  1.00 32.87 LIG 0.10  C 
BRANCH 19 20
ATOM     20  CD  GLN E   0       0.909  -5.032  -9.715  1.00 32.43 LIG 0.21  C 
ATOM     21 OE1  GLN E   0       1.513  -6.095  -9.593  1.00 31.11 LIG-0.27  OA
ATOM     22  NE2 GLN E   0       1.488  -3.852  -9.514  1.00 32.01 LIG-0.37  N 
ATOM     23 22HE GLN E   0       2.317  -3.813  -9.290  1.00 32.01 LIG 0.16  HD
ATOM     24 21HE GLN E   0       1.033  -3.128  -9.609  1.00 32.01 LIG 0.16  HD
ENDBRANCH 19 20
ENDBRANCH 18 19
ENDBRANCH 12 18
ENDBRANCH 9 12
ENDBRANCH 6 8
ENDBRANCH 4 6
ENDBRANCH 1 2
BRANCH 1 25
ATOM     25  CB  ASP E   2       3.768  -7.871 -10.991  1.00 34.81 LIG 0.15  C 
BRANCH 25 26
ATOM     26  CG  ASP E   2       5.130  -8.459 -11.281  1.00 36.48 LIG 0.17  C 
ATOM     27 OD1  ASP E   2       6.020  -8.339 -10.412  1.00 36.59 LIG-0.65  OA
ATOM     28 OD2  ASP E   2       5.319  -9.016 -12.386  1.00 38.36 LIG-0.65  OA
ENDBRANCH 25 26
ENDBRANCH 1 25
BRANCH 1 29
ATOM     29  C   ASP E   2       4.838  -6.120 -12.407  1.00 31.85 LIG 0.24  C 
ATOM     30 O    ASP E   2       5.008  -6.579 -13.539  1.00 30.99 LIG-0.27  OA
ATOM     31  N   LEU E   3       5.697  -5.298 -11.799  1.00 29.32 LIG-0.35  N 
ATOM     32 H    LEU E   3       5.579  -5.006 -10.998  1.00 29.32 LIG 0.16  HD
BRANCH 31 33
ATOM     33  CA  LEU E   3       6.929  -4.806 -12.426  1.00 27.73 LIG 0.18  C 
BRANCH 33 34
ATOM     34  CB  LEU E   3       7.590  -3.723 -11.548  1.00 28.26 LIG 0.04  C 
BRANCH 34 35
ATOM     35  CG  LEU E   3       6.710  -2.996 -10.528  1.00 28.58 LIG-0.02  C 
ATOM     36  CD2 LEU E   3       6.123  -1.713 -11.104  1.00 28.56 LIG 0.01  C 
ATOM     37  CD1 LEU E   3       7.509  -2.688  -9.267  1.00 28.86 LIG 0.01  C 
ENDBRANCH 34 35
ENDBRANCH 33 34
BRANCH 33 38
ATOM     38  C   LEU E   3       7.942  -5.903 -12.703  1.00 26.19 LIG 0.24  C 
ATOM     39  N   PHE E   4       8.120  -6.799 -11.735  1.00 24.40 LIG-0.34  N 
ATOM     40 H    PHE E   4       7.638  -6.828 -11.024  1.00 24.40 LIG 0.16  HD
ATOM     41 O    LEU E   3       8.556  -5.917 -13.770  1.00 26.01 LIG-0.27  OA
BRANCH 39 42
ATOM     42  CA  PHE E   4       9.155  -7.824 -11.787  1.00 23.80 LIG 0.19  C 
BRANCH 42 43
ATOM     43  C   PHE E   4       9.028  -8.763 -10.591  1.00 24.08 LIG 0.20  C 
ATOM     44 O    PHE E   4       8.712  -8.357  -9.470  1.00 22.36 LIG-0.65  OA
ATOM     45 OXT  PHE E   4       9.298  -9.953 -10.728  1.00 24.21 LIG-0.65  OA
ENDBRANCH 42 43
BRANCH 42 46
ATOM     46  CB  PHE E   4      10.545  -7.177 -11.750  1.00 23.46 LIG 0.07  C 
BRANCH 46 47
ATOM     47  CG  PHE E   4      10.673  -6.064 -10.732  1.00 22.76 LIG-0.06  A 
ATOM     48  CD1 PHE E   4      10.894  -6.345  -9.392  1.00 22.71 LIG 0.01  A 
ATOM     49  CE1 PHE E   4      11.005  -5.328  -8.459  1.00 22.42 LIG 0.00  A 
ATOM     50  CZ  PHE E   4      10.881  -4.008  -8.861  1.00 22.02 LIG 0.00  A 
ATOM     51  CE2 PHE E   4      10.653  -3.713 -10.192  1.00 22.12 LIG 0.00  A 
ATOM     52  CD2 PHE E   4      10.549  -4.737 -11.118  1.00 22.51 LIG 0.01  A 
ENDBRANCH 46 47
ENDBRANCH 42 46
ENDBRANCH 39 42
ENDBRANCH 33 38
ENDBRANCH 31 33
ENDBRANCH 1 29
TORSDOF 19
ENDMDL
MODEL 4
USER: ADFR SOLUTION from run 79
USER: SCORE 14.955676 LL:  -3.844 LR: -12.684 RR:   0.000 FEB:  -7.017
USER: RMSD 3.958899
USER: SEED 78
USER: STATUS no improvement in best in 8 clusters for 5 generations
USER: GENES 21
USER: genes 0 Translation |==|  0.58245 0.31448 0.59645
USER: genes 1 Rotation |==|  0.41194 0.57968 0.34667 0.96086
USER: genes 2 Torsion [CB]-CA--N-[C] |==|  0.78840
USER: genes 3 Torsion [N]-C--CA-[N] |==|  0.93335
USER: genes 4 Torsion [C]-CA--N-[C] |==|  0.57223
USER: genes 5 Torsion [N]-C--CA-[N] |==|  0.35064
USER: genes 6 Torsion [C]-CA--N-[C] |==|  0.70457
USER: genes 7 Torsion [C]-CA--CB-[CG] |==|  0.54512
USER: genes 8 Torsion [CA]-CB--CG-[CD] |==|  0.25718
USER: genes 9 Torsion [CB]-CG--CD-[OE1] |==|  0.52847
USER: genes 10 Torsion [N]-CA--CB-[CG] |==|  0.61820
USER: genes 11 Torsion [CA]-CB--CG-[OD1] |==|  0.40135
USER: genes 12 Torsion [N]-CA--C-[N] |==|  0.25700
USER: genes 13 Torsion [C]-N--CA-[C] |==|  0.65705
USER: genes 14 Torsion [N]-CA--CB-[CG] |==|  0.88890
USER: genes 15 Torsion [CA]-CB--CG-[CD2] |==|  0.19344
USER: genes 16 Torsion [N]-CA--C-[N] |==|  0.99474
USER: genes 17 Torsion [C]-N--CA-[CB] |==|  0.33938
USER: genes 18 Torsion [N]-CA--C-[O] |==|  0.12484
USER: genes 19 Torsion [N]-CA--CB-[CG] |==|  0.90414
USER: genes 20 Torsion [CA]-CB--CG-[CD2] |==|  0.88137
ROOT
ATOM      1  CA  ASP E   2       5.866  -8.418 -10.037  1.00 33.44 LIG 0.19  C 
ENDROOT
BRANCH 1 2
ATOM      2  N   ASP E   2       4.490  -8.017 -10.361  1.00 33.24 LIG-0.35  N 
ATOM      3 H    ASP E   2       4.149  -7.445  -9.818  1.00 33.24 LIG 0.16  HD
ATOM      4  C   ALA E   1       3.846  -8.517 -11.417  1.00 32.93 LIG 0.24  C 
ATOM      5 O    ALA E   1       4.308  -9.417 -12.117  1.00 31.71 LIG-0.27  OA
BRANCH 4 6
ATOM      6  CA  ALA E   1       2.472  -7.930 -11.729  1.00 33.97 LIG 0.17  C 
ATOM      7  CB  ALA E   1       2.581  -6.874 -12.823  1.00 34.31 LIG 0.04  C 
BRANCH 6 8
ATOM      8  N   ALA E   1       1.886  -7.348 -10.518  1.00 34.07 LIG-0.35  N 
ATOM      9  C   GLN E   0       0.570  -7.225 -10.333  1.00 34.65 LIG 0.24  C 
ATOM     10 O    GLN E   0      -0.273  -7.554 -11.172  1.00 33.74 LIG-0.27  OA
ATOM     11 H    ALA E   1       2.469  -7.094  -9.938  1.00 34.07 LIG 0.16  HD
BRANCH 9 12
ATOM     12  CA  GLN E   0       0.130  -6.672  -8.978  1.00 34.37 LIG 0.18  C 
BRANCH 12 13
ATOM     13  N   GLN E   0      -0.786  -5.477  -9.115  1.00 34.90 LIG-0.35  N 
ATOM     14  C   ACE E  -1      -0.415  -4.193  -8.859  1.00 34.22 LIG 0.21  C 
ATOM     15  CH3 ACE E  -1      -1.524  -3.210  -9.210  1.00 34.51 LIG 0.12  C 
ATOM     16 O    ACE E  -1       0.698  -3.876  -9.272  1.00 33.28 LIG-0.27  OA
ATOM     17 H    GLN E   0      -1.580  -5.688  -9.374  1.00 34.90 LIG 0.16  HD
ENDBRANCH 12 13
BRANCH 12 18
ATOM     18  CB  GLN E   0      -0.560  -7.795  -8.193  1.00 34.11 LIG 0.04  C 
BRANCH 18 19
ATOM     19  CG  GLN E   0      -1.387  -7.314  -7.007  1.00 32.87 LIG 0.10  C 
BRANCH 19 20
ATOM     20  CD  GLN E   0      -2.839  -7.082  -7.374  1.00 32.43 LIG 0.21  C 
ATOM     21 OE1  GLN E   0      -3.597  -6.518  -6.589  1.00 31.11 LIG-0.27  OA
ATOM     22  NE2 GLN E   0      -3.240  -7.527  -8.561  1.00 32.01 LIG-0.37  N 
ATOM     23 22HE GLN E   0      -4.058  -7.424  -8.805  1.00 32.01 LIG 0.16  HD
ATOM     24 21HE GLN E   0      -2.681  -7.917  -9.086  1.00 32.01 LIG 0.16  HD
ENDBRANCH 19 20
ENDBRANCH 18 19
ENDBRANCH 12 18
ENDBRANCH 9 12
ENDBRANCH 6 8
ENDBRANCH 4 6
ENDBRANCH 1 2
BRANCH 1 25
ATOM     25  CB  ASP E   2       5.881  -9.808  -9.404  1.00 34.81 LIG 0.15  C 
BRANCH 25 26
ATOM     26  CG  ASP E   2       6.827  -9.884  -8.226  1.00 36.48 LIG 0.17  C 
ATOM     27 OD1  ASP E   2       6.502 -10.602  -7.256  1.00 36.59 LIG-0.65  OA
ATOM     28 OD2  ASP E   2       7.878  -9.206  -8.257  1.00 38.36 LIG-0.65  OA
ENDBRANCH 25 26
ENDBRANCH 1 25
BRANCH 1 29
ATOM     29  C   ASP E   2       6.819  -8.379 -11.219  1.00 31.85 LIG 0.24  C 
ATOM     30 O    ASP E   2       6.948  -9.356 -11.961  1.00 30.99 LIG-0.27  OA
ATOM     31  N   LEU E   3       7.488  -7.233 -11.371  1.00 29.32 LIG-0.35  N 
ATOM     32 H    LEU E   3       7.408  -6.569 -10.830  1.00 29.32 LIG 0.16  HD
BRANCH 31 33
ATOM     33  CA  LEU E   3       8.428  -6.983 -12.470  1.00 27.73 LIG 0.18  C 
BRANCH 33 34
ATOM     34  CB  LEU E   3       7.892  -5.876 -13.401  1.00 28.26 LIG 0.04  C 
BRANCH 34 35
ATOM     35  CG  LEU E   3       6.394  -5.874 -13.720  1.00 28.58 LIG-0.02  C 
ATOM     36  CD2 LEU E   3       5.560  -5.495 -12.501  1.00 28.56 LIG 0.01  C 
ATOM     37  CD1 LEU E   3       5.965  -7.237 -14.246  1.00 28.86 LIG 0.01  C 
ENDBRANCH 34 35
ENDBRANCH 33 34
BRANCH 33 38
ATOM     38  C   LEU E   3       9.818  -6.599 -11.996  1.00 26.19 LIG 0.24  C 
ATOM     39  N   PHE E   4       9.987  -6.502 -10.680  1.00 24.40 LIG-0.34  N 
ATOM     40 H    PHE E   4       9.384  -6.727 -10.109  1.00 24.40 LIG 0.16  HD
ATOM     41 O    LEU E   3      10.709  -6.380 -12.818  1.00 26.01 LIG-0.27  OA
BRANCH 39 42
ATOM     42  CA  PHE E   4      11.215  -6.005 -10.074  1.00 23.80 LIG 0.19  C 
BRANCH 42 43
ATOM     43  C   PHE E   4      11.857  -7.090  -9.213  1.00 24.08 LIG 0.20  C 
ATOM     44 O    PHE E   4      11.965  -8.255  -9.602  1.00 22.36 LIG-0.65  OA
ATOM     45 OXT  PHE E   4      12.231  -6.816  -8.077  1.00 24.21 LIG-0.65  OA
ENDBRANCH 42 43
BRANCH 42 46
ATOM     46  CB  PHE E   4      10.915  -4.793  -9.182  1.00 23.46 LIG 0.07  C 
BRANCH 46 47
ATOM     47  CG  PHE E   4       9.795  -3.916  -9.702  1.00 22.76 LIG-0.06  A 
ATOM     48  CD1 PHE E   4       8.819  -3.428  -8.849  1.00 22.71 LIG 0.01  A 
ATOM     49  CE1 PHE E   4       7.790  -2.630  -9.324  1.00 22.42 LIG 0.00  A 
ATOM     50  CZ  PHE E   4       7.726  -2.323 -10.673  1.00 22.02 LIG 0.00  A 
ATOM     51  CE2 PHE E   4       8.688  -2.810 -11.537  1.00 22.12 LIG 0.00  A 
ATOM     52  CD2 PHE E   4       9.714  -3.602 -11.051  1.00 22.51 LIG 0.01  A 
ENDBRANCH 46 47
ENDBRANCH 42 46
ENDBRANCH 39 42
ENDBRANCH 33 38
ENDBRANCH 31 33
ENDBRANCH 1 29
TORSDOF 19
ENDMDL
MODEL 5
USER: ADFR SOLUTION from run 187
USER: SCORE 14.900380 LL:  -4.058 LR: -12.636 RR:   0.000 FEB:  -6.969
USER: RMSD 2.732646
USER: SEED 186
USER: STATUS no improvement in best in 5 clusters for 5 generations
USER: GENES 21
USER: genes 0 Translation |==|  0.62545 0.36428 0.49960
USER: genes 1 Rotation |==|  0.52427 0.59810 0.51994 0.98927
USER: genes 2 Torsion [CB]-CA--N-[C] |==|  0.50586
USER: genes 3 Torsion [N]-C--CA-[N] |==|  0.33742
USER: genes 4 Torsion [C]-CA--N-[C] |==|  0.47778
USER: genes 5 Torsion [N]-C--CA-[N] |==|  0.32289
USER: genes 6 Torsion [C]-CA--N-[C] |==|  0.71257
USER: genes 7 Torsion [C]-CA--CB-[CG] |==|  0.61897
USER: genes 8 Torsion [CA]-CB--CG-[CD] |==|  0.81952
USER: genes 9 Torsion [CB]-CG--CD-[OE1] |==|  0.38999
USER: genes 10 Torsion [N]-CA--CB-[CG] |==|  0.71296
USER: genes 11 Torsion [CA]-CB--CG-[OD1] |==|  0.94184
USER: genes 12 Torsion [N]-CA--C-[N] |==|  0.33249
USER: genes 13 Torsion [C]-N--CA-[C] |==|  0.80384
USER: genes 14 Torsion [N]-CA--CB-[CG] |==|  0.86973
USER: genes 15 Torsion [CA]-CB--CG-[CD2] |==|  0.71550
USER: genes 16 Torsion [N]-CA--C-[N] |==|  0.96701
USER: genes 17 Torsion [C]-N--CA-[CB] |==|  0.26627
USER: genes 18 Torsion [N]-CA--C-[O] |==|  0.98891
USER: genes 19 Torsion [N]-CA--CB-[CG] |==|  0.04469
USER: genes 20 Torsion [CA]-CB--CG-[CD2] |==|  0.72308
ROOT
ATOM      1  CA  ASP E   2       6.962  -7.596 -11.490  1.00 33.44 LIG 0.19  C 
ENDROOT
BRANCH 1 2
ATOM      2  N   ASP E   2       5.550  -7.918 -11.737  1.00 33.24 LIG-0.35  N 
ATOM      3 H    ASP E   2       5.401  -8.743 -11.928  1.00 33.24 LIG 0.16  HD
ATOM      4  C   ALA E   1       4.598  -6.986 -11.665  1.00 32.93 LIG 0.24  C 
ATOM      5 O    ALA E   1       4.843  -5.791 -11.502  1.00 31.71 LIG-0.27  OA
BRANCH 4 6
ATOM      6  CA  ALA E   1       3.155  -7.462 -11.812  1.00 33.97 LIG 0.17  C 
ATOM      7  CB  ALA E   1       2.520  -6.857 -13.059  1.00 34.31 LIG 0.04  C 
BRANCH 6 8
ATOM      8  N   ALA E   1       2.381  -7.101 -10.621  1.00 34.07 LIG-0.35  N 
ATOM      9  C   GLN E   0       1.057  -7.254 -10.539  1.00 34.65 LIG 0.24  C 
ATOM     10 O    GLN E   0       0.359  -7.679 -11.463  1.00 33.74 LIG-0.27  OA
ATOM     11 H    ALA E   1       2.859  -6.782  -9.981  1.00 34.07 LIG 0.16  HD
BRANCH 9 12
ATOM     12  CA  GLN E   0       0.422  -6.903  -9.195  1.00 34.37 LIG 0.18  C 
BRANCH 12 13
ATOM     13  N   GLN E   0      -0.534  -5.736  -9.298  1.00 34.90 LIG-0.35  N 
ATOM     14  C   ACE E  -1      -0.247  -4.471  -8.886  1.00 34.22 LIG 0.21  C 
ATOM     15  CH3 ACE E  -1      -1.366  -3.501  -9.239  1.00 34.51 LIG 0.12  C 
ATOM     16 O    ACE E  -1       0.882  -4.072  -9.162  1.00 33.28 LIG-0.27  OA
ATOM     17 H    GLN E   0      -1.291  -5.950  -9.648  1.00 34.90 LIG 0.16  HD
ENDBRANCH 12 13
BRANCH 12 18
ATOM     18  CB  GLN E   0      -0.297  -8.146  -8.655  1.00 34.11 LIG 0.04  C 
BRANCH 18 19
ATOM     19  CG  GLN E   0      -1.669  -7.864  -8.052  1.00 32.87 LIG 0.10  C 
BRANCH 19 20
ATOM     20  CD  GLN E   0      -1.585  -6.999  -6.811  1.00 32.43 LIG 0.21  C 
ATOM     21 OE1  GLN E   0      -2.417  -6.118  -6.609  1.00 31.11 LIG-0.27  OA
ATOM     22  NE2 GLN E   0      -0.574  -7.232  -5.979  1.00 32.01 LIG-0.37  N 
ATOM     23 22HE GLN E   0      -0.485  -6.758  -5.268  1.00 32.01 LIG 0.16  HD
ATOM     24 21HE GLN E   0      -0.010  -7.858  -6.153  1.00 32.01 LIG 0.16  HD
ENDBRANCH 19 20
ENDBRANCH 18 19
ENDBRANCH 12 18
ENDBRANCH 9 12
ENDBRANCH 6 8
ENDBRANCH 4 6
ENDBRANCH 1 2
BRANCH 1 25
ATOM     25  CB  ASP E   2       7.834  -8.835 -11.690  1.00 34.81 LIG 0.15  C 
BRANCH 25 26
ATOM     26  CG  ASP E   2       8.264  -9.444 -10.374  1.00 36.48 LIG 0.17  C 
ATOM     27 OD1  ASP E   2       8.237  -8.721  -9.355  1.00 36.59 LIG-0.65  OA
ATOM     28 OD2  ASP E   2       8.653 -10.633 -10.363  1.00 38.36 LIG-0.65  OA
ENDBRANCH 25 26
ENDBRANCH 1 25
BRANCH 1 29
ATOM     29  C   ASP E   2       7.494  -6.449 -12.331  1.00 31.85 LIG 0.24  C 
ATOM     30 O    ASP E   2       7.504  -6.517 -13.562  1.00 30.99 LIG-0.27  OA
ATOM     31  N   LEU E   3       7.944  -5.399 -11.639  1.00 29.32 LIG-0.35  N 
ATOM     32 H    LEU E   3       7.956  -5.375 -10.779  1.00 29.32 LIG 0.16  HD
BRANCH 31 33
ATOM     33  CA  LEU E   3       8.465  -4.178 -12.265  1.00 27.73 LIG 0.18  C 
BRANCH 33 34
ATOM     34  CB  LEU E   3       8.590  -3.046 -11.225  1.00 28.26 LIG 0.04  C 
BRANCH 34 35
ATOM     35  CG  LEU E   3       7.403  -2.799 -10.291  1.00 28.58 LIG-0.02  C 
ATOM     36  CD2 LEU E   3       6.587  -1.586 -10.725  1.00 28.56 LIG 0.01  C 
ATOM     37  CD1 LEU E   3       7.887  -2.621  -8.858  1.00 28.86 LIG 0.01  C 
ENDBRANCH 34 35
ENDBRANCH 33 34
BRANCH 33 38
ATOM     38  C   LEU E   3       9.809  -4.377 -12.943  1.00 26.19 LIG 0.24  C 
ATOM     39  N   PHE E   4      10.440  -5.518 -12.679  1.00 24.40 LIG-0.34  N 
ATOM     40 H    PHE E   4      10.087  -6.159 -12.226  1.00 24.40 LIG 0.16  HD
ATOM     41 O    LEU E   3      10.263  -3.498 -13.676  1.00 26.01 LIG-0.27  OA
BRANCH 39 42
ATOM     42  CA  PHE E   4      11.796  -5.796 -13.133  1.00 23.80 LIG 0.19  C 
BRANCH 42 43
ATOM     43  C   PHE E   4      11.942  -7.273 -13.489  1.00 24.08 LIG 0.20  C 
ATOM     44 O    PHE E   4      11.027  -8.081 -13.316  1.00 22.36 LIG-0.65  OA
ATOM     45 OXT  PHE E   4      13.017  -7.688 -13.911  1.00 24.21 LIG-0.65  OA
ENDBRANCH 42 43
BRANCH 42 46
ATOM     46  CB  PHE E   4      12.806  -5.461 -12.027  1.00 23.46 LIG 0.07  C 
BRANCH 46 47
ATOM     47  CG  PHE E   4      12.180  -5.310 -10.656  1.00 22.76 LIG-0.06  A 
ATOM     48  CD1 PHE E   4      11.847  -6.422  -9.899  1.00 22.71 LIG 0.01  A 
ATOM     49  CE1 PHE E   4      11.269  -6.285  -8.647  1.00 22.42 LIG 0.00  A 
ATOM     50  CZ  PHE E   4      11.007  -5.020  -8.145  1.00 22.02 LIG 0.00  A 
ATOM     51  CE2 PHE E   4      11.327  -3.903  -8.893  1.00 22.12 LIG 0.00  A 
ATOM     52  CD2 PHE E   4      11.909  -4.051 -10.140  1.00 22.51 LIG 0.01  A 
ENDBRANCH 46 47
ENDBRANCH 42 46
ENDBRANCH 39 42
ENDBRANCH 33 38
ENDBRANCH 31 33
ENDBRANCH 1 29
TORSDOF 19
ENDMDL
MODEL 6
USER: ADFR SOLUTION from run 11
USER: SCORE 15.610051 LL:  -4.170 LR: -12.269 RR:   0.000 FEB:  -6.601
USER: RMSD 2.310601
USER: SEED 299958
USER: STATUS searching
USER: GENES 21
USER: genes 0 Translation |==|  0.62262 0.38491 0.48059
USER: genes 1 Rotation |==|  0.50461 0.55047 0.55279 0.99462
USER: genes 2 Torsion [CB]-CA--N-[C] |==|  0.51780
USER: genes 3 Torsion [N]-C--CA-[N] |==|  0.41111
USER: genes 4 Torsion [C]-CA--N-[C] |==|  0.87724
USER: genes 5 Torsion [N]-C--CA-[N] |==|  0.11525
USER: genes 6 Torsion [C]-CA--N-[C] |==|  0.15025
USER: genes 7 Torsion [C]-CA--CB-[CG] |==|  0.40629
USER: genes 8 Torsion [CA]-CB--CG-[CD] |==|  0.23222
USER: genes 9 Torsion [CB]-CG--CD-[OE1] |==|  0.13627
USER: genes 10 Torsion [N]-CA--CB-[CG] |==|  0.65269
USER: genes 11 Torsion [CA]-CB--CG-[OD1] |==|  0.21537
USER: genes 12 Torsion [N]-CA--C-[N] |==|  0.38250
USER: genes 13 Torsion [C]-N--CA-[C] |==|  0.78320
USER: genes 14 Torsion [N]-CA--CB-[CG] |==|  0.89589
USER: genes 15 Torsion [CA]-CB--CG-[CD2] |==|  0.71967
USER: genes 16 Torsion [N]-CA--C-[N] |==|  0.97699
USER: genes 17 Torsion [C]-N--CA-[CB] |==|  0.24924
USER: genes 18 Torsion [N]-CA--C-[O] |==|  0.98906
USER: genes 19 Torsion [N]-CA--CB-[CG] |==|  0.06811
USER: genes 20 Torsion [CA]-CB--CG-[CD2] |==|  0.74421
ROOT
ATOM      1  CA  ASP E   2       6.890  -7.256 -11.775  1.00 33.44 LIG 0.19  C 
ENDROOT
BRANCH 1 2
ATOM      2  N   ASP E   2       5.610  -7.776 -12.275  1.00 33.24 LIG-0.35  N 
ATOM      3 H    ASP E   2       5.592  -8.628 -12.388  1.00 33.24 LIG 0.16  HD
ATOM      4  C   ALA E   1       4.577  -6.969 -12.525  1.00 32.93 LIG 0.24  C 
ATOM      5 O    ALA E   1       4.657  -5.743 -12.464  1.00 31.71 LIG-0.27  OA
BRANCH 4 6
ATOM      6  CA  ALA E   1       3.260  -7.635 -12.914  1.00 33.97 LIG 0.17  C 
ATOM      7  CB  ALA E   1       3.181  -7.811 -14.427  1.00 34.31 LIG 0.04  C 
BRANCH 6 8
ATOM      8  N   ALA E   1       2.130  -6.836 -12.434  1.00 34.07 LIG-0.35  N 
ATOM      9  C   GLN E   0       2.082  -6.304 -11.211  1.00 34.65 LIG 0.24  C 
ATOM     10 O    GLN E   0       2.962  -6.461 -10.360  1.00 33.74 LIG-0.27  OA
ATOM     11 H    ALA E   1       1.501  -6.742 -13.014  1.00 34.07 LIG 0.16  HD
BRANCH 9 12
ATOM     12  CA  GLN E   0       0.865  -5.431 -10.905  1.00 34.37 LIG 0.18  C 
BRANCH 12 13
ATOM     13  N   GLN E   0      -0.416  -6.019 -11.449  1.00 34.90 LIG-0.35  N 
ATOM     14  C   ACE E  -1      -0.855  -7.281 -11.184  1.00 34.22 LIG 0.21  C 
ATOM     15  CH3 ACE E  -1      -2.235  -7.529 -11.777  1.00 34.51 LIG 0.12  C 
ATOM     16 O    ACE E  -1      -0.724  -7.647 -10.019  1.00 33.28 LIG-0.27  OA
ATOM     17 H    GLN E   0      -0.851  -5.473 -11.952  1.00 34.90 LIG 0.16  HD
ENDBRANCH 12 13
BRANCH 12 18
ATOM     18  CB  GLN E   0       0.771  -5.242  -9.385  1.00 34.11 LIG 0.04  C 
BRANCH 18 19
ATOM     19  CG  GLN E   0       0.226  -3.884  -8.955  1.00 32.87 LIG 0.10  C 
BRANCH 19 20
ATOM     20  CD  GLN E   0      -1.289  -3.844  -8.960  1.00 32.43 LIG 0.21  C 
ATOM     21 OE1  GLN E   0      -1.936  -4.732  -8.412  1.00 31.11 LIG-0.27  OA
ATOM     22  NE2 GLN E   0      -1.864  -2.823  -9.588  1.00 32.01 LIG-0.37  N 
ATOM     23 22HE GLN E   0      -2.721  -2.767  -9.623  1.00 32.01 LIG 0.16  HD
ATOM     24 21HE GLN E   0      -1.378  -2.218  -9.960  1.00 32.01 LIG 0.16  HD
ENDBRANCH 19 20
ENDBRANCH 18 19
ENDBRANCH 12 18
ENDBRANCH 9 12
ENDBRANCH 6 8
ENDBRANCH 4 6
ENDBRANCH 1 2
BRANCH 1 25
ATOM     25  CB  ASP E   2       7.936  -8.368 -11.729  1.00 34.81 LIG 0.15  C 
BRANCH 25 26
ATOM     26  CG  ASP E   2       8.551  -8.511 -10.354  1.00 36.48 LIG 0.17  C 
ATOM     27 OD1  ASP E   2       7.888  -9.098  -9.472  1.00 36.59 LIG-0.65  OA
ATOM     28 OD2  ASP E   2       9.681  -8.016 -10.149  1.00 38.36 LIG-0.65  OA
ENDBRANCH 25 26
ENDBRANCH 1 25
BRANCH 1 29
ATOM     29  C   ASP E   2       7.429  -6.073 -12.561  1.00 31.85 LIG 0.24  C 
ATOM     30 O    ASP E   2       7.388  -6.059 -13.793  1.00 30.99 LIG-0.27  OA
ATOM     31  N   LEU E   3       7.943  -5.087 -11.820  1.00 29.32 LIG-0.35  N 
ATOM     32 H    LEU E   3       7.989  -5.121 -10.961  1.00 29.32 LIG 0.16  HD
BRANCH 31 33
ATOM     33  CA  LEU E   3       8.481  -3.844 -12.386  1.00 27.73 LIG 0.18  C 
BRANCH 33 34
ATOM     34  CB  LEU E   3       8.513  -2.731 -11.319  1.00 28.26 LIG 0.04  C 
BRANCH 34 35
ATOM     35  CG  LEU E   3       7.355  -2.666 -10.320  1.00 28.58 LIG-0.02  C 
ATOM     36  CD2 LEU E   3       6.348  -1.584 -10.695  1.00 28.56 LIG 0.01  C 
ATOM     37  CD1 LEU E   3       7.885  -2.424  -8.912  1.00 28.86 LIG 0.01  C 
ENDBRANCH 34 35
ENDBRANCH 33 34
BRANCH 33 38
ATOM     38  C   LEU E   3       9.872  -4.005 -12.974  1.00 26.19 LIG 0.24  C 
ATOM     39  N   PHE E   4      10.476  -5.170 -12.750  1.00 24.40 LIG-0.34  N 
ATOM     40 H    PHE E   4      10.087  -5.839 -12.376  1.00 24.40 LIG 0.16  HD
ATOM     41 O    LEU E   3      10.384  -3.078 -13.602  1.00 26.01 LIG-0.27  OA
BRANCH 39 42
ATOM     42  CA  PHE E   4      11.861  -5.426 -13.121  1.00 23.80 LIG 0.19  C 
BRANCH 42 43
ATOM     43  C   PHE E   4      12.060  -6.907 -13.430  1.00 24.08 LIG 0.20  C 
ATOM     44 O    PHE E   4      11.154  -7.732 -13.289  1.00 22.36 LIG-0.65  OA
ATOM     45 OXT  PHE E   4      13.166  -7.307 -13.780  1.00 24.21 LIG-0.65  OA
ENDBRANCH 42 43
BRANCH 42 46
ATOM     46  CB  PHE E   4      12.799  -5.041 -11.969  1.00 23.46 LIG 0.07  C 
BRANCH 46 47
ATOM     47  CG  PHE E   4      12.135  -5.069 -10.608  1.00 22.76 LIG-0.06  A 
ATOM     48  CD1 PHE E   4      12.078  -6.239  -9.867  1.00 22.71 LIG 0.01  A 
ATOM     49  CE1 PHE E   4      11.466  -6.267  -8.625  1.00 22.42 LIG 0.00  A 
ATOM     50  CZ  PHE E   4      10.891  -5.114  -8.115  1.00 22.02 LIG 0.00  A 
ATOM     51  CE2 PHE E   4      10.934  -3.943  -8.846  1.00 22.12 LIG 0.00  A 
ATOM     52  CD2 PHE E   4      11.552  -3.924 -10.084  1.00 22.51 LIG 0.01  A 
ENDBRANCH 46 47
ENDBRANCH 42 46
ENDBRANCH 39 42
ENDBRANCH 33 38
ENDBRANCH 31 33
ENDBRANCH 1 29
TORSDOF 19
ENDMDL
MODEL 7
USER: ADFR SOLUTION from run 14
USER: SCORE 13.913610 LL:  -3.240 LR: -12.241 RR:   0.000 FEB:  -6.573
USER: RMSD 4.927789
USER: SEED 436356
USER: STATUS searching
USER: GENES 21
USER: genes 0 Translation |==|  0.59717 0.37012 0.50000
USER: genes 1 Rotation |==|  0.51807 0.62787 0.52623 0.98232
USER: genes 2 Torsion [CB]-CA--N-[C] |==|  0.49502
USER: genes 3 Torsion [N]-C--CA-[N] |==|  0.37255
USER: genes 4 Torsion [C]-CA--N-[C] |==|  0.49888
USER: genes 5 Torsion [N]-C--CA-[N] |==|  0.27601
USER: genes 6 Torsion [C]-CA--N-[C] |==|  0.76048
USER: genes 7 Torsion [C]-CA--CB-[CG] |==|  0.74791
USER: genes 8 Torsion [CA]-CB--CG-[CD] |==|  0.72281
USER: genes 9 Torsion [CB]-CG--CD-[OE1] |==|  0.02686
USER: genes 10 Torsion [N]-CA--CB-[CG] |==|  0.62901
USER: genes 11 Torsion [CA]-CB--CG-[OD1] |==|  0.18872
USER: genes 12 Torsion [N]-CA--C-[N] |==|  0.38020
USER: genes 13 Torsion [C]-N--CA-[C] |==|  0.78769
USER: genes 14 Torsion [N]-CA--CB-[CG] |==|  0.84602
USER: genes 15 Torsion [CA]-CB--CG-[CD2] |==|  0.75667
USER: genes 16 Torsion [N]-CA--C-[N] |==|  0.43860
USER: genes 17 Torsion [C]-N--CA-[CB] |==|  0.39638
USER: genes 18 Torsion [N]-CA--C-[O] |==|  0.97999
USER: genes 19 Torsion [N]-CA--CB-[CG] |==|  0.19471
USER: genes 20 Torsion [CA]-CB--CG-[CD2] |==|  0.28600
ROOT
ATOM      1  CA  ASP E   2       6.241  -7.500 -11.484  1.00 33.44 LIG 0.19  C 
ENDROOT
BRANCH 1 2
ATOM      2  N   ASP E   2       4.823  -7.877 -11.553  1.00 33.24 LIG-0.35  N 
ATOM      3 H    ASP E   2       4.683  -8.700 -11.760  1.00 33.24 LIG 0.16  HD
ATOM      4  C   ALA E   1       3.852  -6.994 -11.311  1.00 32.93 LIG 0.24  C 
ATOM      5 O    ALA E   1       4.068  -5.797 -11.128  1.00 31.71 LIG-0.27  OA
BRANCH 4 6
ATOM      6  CA  ALA E   1       2.423  -7.530 -11.284  1.00 33.97 LIG 0.17  C 
ATOM      7  CB  ALA E   1       1.692  -7.159 -12.570  1.00 34.31 LIG 0.04  C 
BRANCH 6 8
ATOM      8  N   ALA E   1       1.708  -7.000 -10.121  1.00 34.07 LIG-0.35  N 
ATOM      9  C   GLN E   0       0.434  -7.298  -9.851  1.00 34.65 LIG 0.24  C 
ATOM     10 O    GLN E   0      -0.268  -8.015 -10.569  1.00 33.74 LIG-0.27  OA
ATOM     11 H    ALA E   1       2.185  -6.480  -9.628  1.00 34.07 LIG 0.16  HD
BRANCH 9 12
ATOM     12  CA  GLN E   0      -0.130  -6.724  -8.553  1.00 34.37 LIG 0.18  C 
BRANCH 12 13
ATOM     13  N   GLN E   0      -0.951  -5.476  -8.785  1.00 34.90 LIG-0.35  N 
ATOM     14  C   ACE E  -1      -0.432  -4.219  -8.853  1.00 34.22 LIG 0.21  C 
ATOM     15  CH3 ACE E  -1      -1.497  -3.194  -9.220  1.00 34.51 LIG 0.12  C 
ATOM     16 O    ACE E  -1       0.616  -4.117  -9.486  1.00 33.28 LIG-0.27  OA
ATOM     17 H    GLN E   0      -1.792  -5.636  -8.872  1.00 34.90 LIG 0.16  HD
ENDBRANCH 12 13
BRANCH 12 18
ATOM     18  CB  GLN E   0      -0.974  -7.806  -7.867  1.00 34.11 LIG 0.04  C 
BRANCH 18 19
ATOM     19  CG  GLN E   0      -2.448  -7.794  -8.258  1.00 32.87 LIG 0.10  C 
BRANCH 19 20
ATOM     20  CD  GLN E   0      -3.313  -7.105  -7.221  1.00 32.43 LIG 0.21  C 
ATOM     21 OE1  GLN E   0      -2.799  -6.482  -6.297  1.00 31.11 LIG-0.27  OA
ATOM     22  NE2 GLN E   0      -4.630  -7.225  -7.359  1.00 32.01 LIG-0.37  N 
ATOM     23 22HE GLN E   0      -5.157  -6.858  -6.787  1.00 32.01 LIG 0.16  HD
ATOM     24 21HE GLN E   0      -4.955  -7.669  -8.020  1.00 32.01 LIG 0.16  HD
ENDBRANCH 19 20
ENDBRANCH 18 19
ENDBRANCH 12 18
ENDBRANCH 9 12
ENDBRANCH 6 8
ENDBRANCH 4 6
ENDBRANCH 1 2
BRANCH 1 25
ATOM     25  CB  ASP E   2       7.129  -8.712 -11.762  1.00 34.81 LIG 0.15  C 
BRANCH 25 26
ATOM     26  CG  ASP E   2       8.255  -8.831 -10.758  1.00 36.48 LIG 0.17  C 
ATOM     27 OD1  ASP E   2       7.962  -9.111  -9.576  1.00 36.59 LIG-0.65  OA
ATOM     28 OD2  ASP E   2       9.426  -8.619 -11.145  1.00 38.36 LIG-0.65  OA
ENDBRANCH 25 26
ENDBRANCH 1 25
BRANCH 1 29
ATOM     29  C   ASP E   2       6.626  -6.356 -12.406  1.00 31.85 LIG 0.24  C 
ATOM     30 O    ASP E   2       6.215  -6.313 -13.568  1.00 30.99 LIG-0.27  OA
ATOM     31  N   LEU E   3       7.430  -5.437 -11.865  1.00 29.32 LIG-0.35  N 
ATOM     32 H    LEU E   3       7.730  -5.493 -11.061  1.00 29.32 LIG 0.16  HD
BRANCH 31 33
ATOM     33  CA  LEU E   3       7.885  -4.238 -12.579  1.00 27.73 LIG 0.18  C 
BRANCH 33 34
ATOM     34  CB  LEU E   3       8.381  -3.169 -11.583  1.00 28.26 LIG 0.04  C 
BRANCH 34 35
ATOM     35  CG  LEU E   3       7.420  -2.720 -10.480  1.00 28.58 LIG-0.02  C 
ATOM     36  CD2 LEU E   3       6.529  -1.572 -10.942  1.00 28.56 LIG 0.01  C 
ATOM     37  CD1 LEU E   3       8.198  -2.312  -9.235  1.00 28.86 LIG 0.01  C 
ENDBRANCH 34 35
ENDBRANCH 33 34
BRANCH 33 38
ATOM     38  C   LEU E   3       8.985  -4.521 -13.587  1.00 26.19 LIG 0.24  C 
ATOM     39  N   PHE E   4       9.132  -3.631 -14.565  1.00 24.40 LIG-0.34  N 
ATOM     40 H    PHE E   4       8.703  -2.887 -14.595  1.00 24.40 LIG 0.16  HD
ATOM     41 O    LEU E   3       9.670  -5.539 -13.479  1.00 26.01 LIG-0.27  OA
BRANCH 39 42
ATOM     42  CA  PHE E   4      10.041  -3.832 -15.686  1.00 23.80 LIG 0.19  C 
BRANCH 42 43
ATOM     43  C   PHE E   4      11.359  -3.105 -15.434  1.00 24.08 LIG 0.20  C 
ATOM     44 O    PHE E   4      11.517  -2.352 -14.470  1.00 22.36 LIG-0.65  OA
ATOM     45 OXT  PHE E   4      12.278  -3.226 -16.239  1.00 24.21 LIG-0.65  OA
ENDBRANCH 42 43
BRANCH 42 46
ATOM     46  CB  PHE E   4       9.422  -3.279 -16.977  1.00 23.46 LIG 0.07  C 
BRANCH 46 47
ATOM     47  CG  PHE E   4       9.338  -1.768 -17.014  1.00 22.76 LIG-0.06  A 
ATOM     48  CD1 PHE E   4       8.345  -1.092 -16.322  1.00 22.71 LIG 0.01  A 
ATOM     49  CE1 PHE E   4       8.263   0.290 -16.360  1.00 22.42 LIG 0.00  A 
ATOM     50  CZ  PHE E   4       9.177   1.013 -17.109  1.00 22.02 LIG 0.00  A 
ATOM     51  CE2 PHE E   4      10.168   0.352 -17.810  1.00 22.12 LIG 0.00  A 
ATOM     52  CD2 PHE E   4      10.244  -1.029 -17.761  1.00 22.51 LIG 0.01  A 
ENDBRANCH 46 47
ENDBRANCH 42 46
ENDBRANCH 39 42
ENDBRANCH 33 38
ENDBRANCH 31 33
ENDBRANCH 1 29
TORSDOF 19
ENDMDL
MODEL 8
USER: ADFR SOLUTION from run 49
USER: SCORE 13.769484 LL:  -3.505 LR: -12.113 RR:   0.000 FEB:  -6.445
USER: RMSD 2.185616
USER: SEED 48
USER: STATUS no improvement in best in 2 clusters for 5 generations
USER: GENES 21
USER: genes 0 Translation |==|  0.54739 0.43495 0.46653
USER: genes 1 Rotation |==|  0.45809 0.47234 0.45485 0.99542
USER: genes 2 Torsion [CB]-CA--N-[C] |==|  0.25065
USER: genes 3 Torsion [N]-C--CA-[N] |==|  0.53446
USER: genes 4 Torsion [C]-CA--N-[C] |==|  0.78745
USER: genes 5 Torsion [N]-C--CA-[N] |==|  0.37864
USER: genes 6 Torsion [C]-CA--N-[C] |==|  0.74194
USER: genes 7 Torsion [C]-CA--CB-[CG] |==|  0.20276
USER: genes 8 Torsion [CA]-CB--CG-[CD] |==|  0.67370
USER: genes 9 Torsion [CB]-CG--CD-[OE1] |==|  0.01105
USER: genes 10 Torsion [N]-CA--CB-[CG] |==|  0.15338
USER: genes 11 Torsion [CA]-CB--CG-[OD1] |==|  0.23837
USER: genes 12 Torsion [N]-CA--C-[N] |==|  0.40435
USER: genes 13 Torsion [C]-N--CA-[C] |==|  0.75105
USER: genes 14 Torsion [N]-CA--CB-[CG] |==|  0.09831
USER: genes 15 Torsion [CA]-CB--CG-[CD2] |==|  0.59959
USER: genes 16 Torsion [N]-CA--C-[N] |==|  0.91705
USER: genes 17 Torsion [C]-N--CA-[CB] |==|  0.18973
USER: genes 18 Torsion [N]-CA--C-[O] |==|  0.00814
USER: genes 19 Torsion [N]-CA--CB-[CG] |==|  0.68404
USER: genes 20 Torsion [CA]-CB--CG-[CD2] |==|  0.33507
ROOT
ATOM      1  CA  ASP E   2       4.971  -6.430 -11.986  1.00 33.44 LIG 0.19  C 
ENDROOT
BRANCH 1 2
ATOM      2  N   ASP E   2       3.784  -6.607 -12.833  1.00 33.24 LIG-0.35  N 
ATOM      3 H    ASP E   2       3.957  -6.745 -13.664  1.00 33.24 LIG 0.16  HD
ATOM      4  C   ALA E   1       2.550  -6.553 -12.329  1.00 32.93 LIG 0.24  C 
ATOM      5 O    ALA E   1       2.320  -6.244 -11.160  1.00 31.71 LIG-0.27  OA
BRANCH 4 6
ATOM      6  CA  ALA E   1       1.402  -6.882 -13.278  1.00 33.97 LIG 0.17  C 
ATOM      7  CB  ALA E   1       1.594  -6.167 -14.611  1.00 34.31 LIG 0.04  C 
BRANCH 6 8
ATOM      8  N   ALA E   1       0.123  -6.497 -12.675  1.00 34.07 LIG-0.35  N 
ATOM      9  C   GLN E   0      -0.473  -7.211 -11.716  1.00 34.65 LIG 0.24  C 
ATOM     10 O    GLN E   0      -0.025  -8.272 -11.273  1.00 33.74 LIG-0.27  OA
ATOM     11 H    ALA E   1      -0.207  -5.771 -12.995  1.00 34.07 LIG 0.16  HD
BRANCH 9 12
ATOM     12  CA  GLN E   0      -1.761  -6.622 -11.142  1.00 34.37 LIG 0.18  C 
BRANCH 12 13
ATOM     13  N   GLN E   0      -2.844  -7.663 -10.973  1.00 34.90 LIG-0.35  N 
ATOM     14  C   ACE E  -1      -3.795  -7.939 -11.907  1.00 34.22 LIG 0.21  C 
ATOM     15  CH3 ACE E  -1      -4.661  -9.120 -11.492  1.00 34.51 LIG 0.12  C 
ATOM     16 O    ACE E  -1      -3.393  -7.982 -13.068  1.00 33.28 LIG-0.27  OA
ATOM     17 H    GLN E   0      -2.803  -8.073 -10.218  1.00 34.90 LIG 0.16  HD
ENDBRANCH 12 13
BRANCH 12 18
ATOM     18  CB  GLN E   0      -1.437  -5.956  -9.799  1.00 34.11 LIG 0.04  C 
BRANCH 18 19
ATOM     19  CG  GLN E   0      -0.669  -4.644  -9.919  1.00 32.87 LIG 0.10  C 
BRANCH 19 20
ATOM     20  CD  GLN E   0       0.698  -4.715  -9.270  1.00 32.43 LIG 0.21  C 
ATOM     21 OE1  GLN E   0       1.106  -5.770  -8.792  1.00 31.11 LIG-0.27  OA
ATOM     22  NE2 GLN E   0       1.410  -3.592  -9.236  1.00 32.01 LIG-0.37  N 
ATOM     23 22HE GLN E   0       2.187  -3.587  -8.869  1.00 32.01 LIG 0.16  HD
ATOM     24 21HE GLN E   0       1.092  -2.871  -9.582  1.00 32.01 LIG 0.16  HD
ENDBRANCH 19 20
ENDBRANCH 18 19
ENDBRANCH 12 18
ENDBRANCH 9 12
ENDBRANCH 6 8
ENDBRANCH 4 6
ENDBRANCH 1 2
BRANCH 1 25
ATOM     25  CB  ASP E   2       5.443  -7.777 -11.440  1.00 34.81 LIG 0.15  C 
BRANCH 25 26
ATOM     26  CG  ASP E   2       5.699  -8.778 -12.545  1.00 36.48 LIG 0.17  C 
ATOM     27 OD1  ASP E   2       6.821  -8.773 -13.095  1.00 36.59 LIG-0.65  OA
ATOM     28 OD2  ASP E   2       4.772  -9.549 -12.880  1.00 38.36 LIG-0.65  OA
ENDBRANCH 25 26
ENDBRANCH 1 25
BRANCH 1 29
ATOM     29  C   ASP E   2       6.125  -5.719 -12.673  1.00 31.85 LIG 0.24  C 
ATOM     30 O    ASP E   2       6.347  -5.887 -13.874  1.00 30.99 LIG-0.27  OA
ATOM     31  N   LEU E   3       6.856  -4.929 -11.882  1.00 29.32 LIG-0.35  N 
ATOM     32 H    LEU E   3       6.705  -4.841 -11.040  1.00 29.32 LIG 0.16  HD
BRANCH 31 33
ATOM     33  CA  LEU E   3       7.989  -4.129 -12.362  1.00 27.73 LIG 0.18  C 
BRANCH 33 34
ATOM     34  CB  LEU E   3       8.108  -2.820 -11.555  1.00 28.26 LIG 0.04  C 
BRANCH 34 35
ATOM     35  CG  LEU E   3       7.756  -2.864 -10.066  1.00 28.58 LIG-0.02  C 
ATOM     36  CD2 LEU E   3       7.078  -1.577  -9.609  1.00 28.56 LIG 0.01  C 
ATOM     37  CD1 LEU E   3       9.007  -3.121  -9.235  1.00 28.86 LIG 0.01  C 
ENDBRANCH 34 35
ENDBRANCH 33 34
BRANCH 33 38
ATOM     38  C   LEU E   3       9.314  -4.869 -12.301  1.00 26.19 LIG 0.24  C 
ATOM     39  N   PHE E   4       9.437  -5.782 -11.342  1.00 24.40 LIG-0.34  N 
ATOM     40 H    PHE E   4       8.787  -6.021 -10.832  1.00 24.40 LIG 0.16  HD
ATOM     41 O    LEU E   3      10.207  -4.595 -13.104  1.00 26.01 LIG-0.27  OA
BRANCH 39 42
ATOM     42  CA  PHE E   4      10.689  -6.472 -11.062  1.00 23.80 LIG 0.19  C 
BRANCH 42 43
ATOM     43  C   PHE E   4      10.462  -7.590 -10.048  1.00 24.08 LIG 0.20  C 
ATOM     44 O    PHE E   4       9.340  -7.860  -9.612  1.00 22.36 LIG-0.65  OA
ATOM     45 OXT  PHE E   4      11.425  -8.211  -9.609  1.00 24.21 LIG-0.65  OA
ENDBRANCH 42 43
BRANCH 42 46
ATOM     46  CB  PHE E   4      11.716  -5.491 -10.479  1.00 23.46 LIG 0.07  C 
BRANCH 46 47
ATOM     47  CG  PHE E   4      12.907  -5.247 -11.383  1.00 22.76 LIG-0.06  A 
ATOM     48  CD1 PHE E   4      13.740  -6.289 -11.759  1.00 22.71 LIG 0.01  A 
ATOM     49  CE1 PHE E   4      14.833  -6.066 -12.581  1.00 22.42 LIG 0.00  A 
ATOM     50  CZ  PHE E   4      15.109  -4.783 -13.025  1.00 22.02 LIG 0.00  A 
ATOM     51  CE2 PHE E   4      14.291  -3.734 -12.651  1.00 22.12 LIG 0.00  A 
ATOM     52  CD2 PHE E   4      13.199  -3.968 -11.834  1.00 22.51 LIG 0.01  A 
ENDBRANCH 46 47
ENDBRANCH 42 46
ENDBRANCH 39 42
ENDBRANCH 33 38
ENDBRANCH 31 33
ENDBRANCH 1 29
TORSDOF 19
ENDMDL
MODEL 9
USER: ADFR SOLUTION from run 51
USER: SCORE 14.057747 LL:  -3.943 LR: -11.887 RR:   0.000 FEB:  -6.219
USER: RMSD 3.259169
USER: SEED 50
USER: STATUS no improvement in best in 5 clusters for 5 generations
USER: GENES 21
USER: genes 0 Translation |==|  0.49569 0.37410 0.49187
USER: genes 1 Rotation |==|  0.64130 0.67552 0.37874 0.92956
USER: genes 2 Torsion [CB]-CA--N-[C] |==|  0.51278
USER: genes 3 Torsion [N]-C--CA-[N] |==|  0.10668
USER: genes 4 Torsion [C]-CA--N-[C] |==|  0.61246
USER: genes 5 Torsion [N]-C--CA-[N] |==|  0.33381
USER: genes 6 Torsion [C]-CA--N-[C] |==|  0.81559
USER: genes 7 Torsion [C]-CA--CB-[CG] |==|  0.08785
USER: genes 8 Torsion [CA]-CB--CG-[CD] |==|  0.71245
USER: genes 9 Torsion [CB]-CG--CD-[OE1] |==|  0.82666
USER: genes 10 Torsion [N]-CA--CB-[CG] |==|  0.93209
USER: genes 11 Torsion [CA]-CB--CG-[OD1] |==|  0.34701
USER: genes 12 Torsion [N]-CA--C-[N] |==|  0.22985
USER: genes 13 Torsion [C]-N--CA-[C] |==|  0.79118
USER: genes 14 Torsion [N]-CA--CB-[CG] |==|  0.61584
USER: genes 15 Torsion [CA]-CB--CG-[CD2] |==|  0.79454
USER: genes 16 Torsion [N]-CA--C-[N] |==|  0.86292
USER: genes 17 Torsion [C]-N--CA-[CB] |==|  0.15678
USER: genes 18 Torsion [N]-CA--C-[O] |==|  0.96633
USER: genes 19 Torsion [N]-CA--CB-[CG] |==|  0.17394
USER: genes 20 Torsion [CA]-CB--CG-[CD2] |==|  0.85162
ROOT
ATOM      1  CA  ASP E   2       3.653  -7.434 -11.606  1.00 33.44 LIG 0.19  C 
ENDROOT
BRANCH 1 2
ATOM      2  N   ASP E   2       2.356  -6.863 -11.219  1.00 33.24 LIG-0.35  N 
ATOM      3 H    ASP E   2       1.676  -7.339 -11.444  1.00 33.24 LIG 0.16  HD
ATOM      4  C   ALA E   1       2.269  -5.700 -10.572  1.00 32.93 LIG 0.24  C 
ATOM      5 O    ALA E   1       3.244  -4.979 -10.359  1.00 31.71 LIG-0.27  OA
BRANCH 4 6
ATOM      6  CA  ALA E   1       0.881  -5.271 -10.107  1.00 33.97 LIG 0.17  C 
ATOM      7  CB  ALA E   1       0.989  -4.222  -9.006  1.00 34.31 LIG 0.04  C 
BRANCH 6 8
ATOM      8  N   ALA E   1       0.128  -6.434  -9.629  1.00 34.07 LIG-0.35  N 
ATOM      9  C   GLN E   0      -1.169  -6.618  -9.888  1.00 34.65 LIG 0.24  C 
ATOM     10 O    GLN E   0      -1.862  -5.816 -10.520  1.00 33.74 LIG-0.27  OA
ATOM     11 H    ALA E   1       0.599  -6.986  -9.168  1.00 34.07 LIG 0.16  HD
BRANCH 9 12
ATOM     12  CA  GLN E   0      -1.777  -7.926  -9.383  1.00 34.37 LIG 0.18  C 
BRANCH 12 13
ATOM     13  N   GLN E   0      -2.913  -7.695  -8.413  1.00 34.90 LIG-0.35  N 
ATOM     14  C   ACE E  -1      -2.767  -7.139  -7.178  1.00 34.22 LIG 0.21  C 
ATOM     15  CH3 ACE E  -1      -4.112  -6.928  -6.497  1.00 34.51 LIG 0.12  C 
ATOM     16 O    ACE E  -1      -2.008  -6.174  -7.124  1.00 33.28 LIG-0.27  OA
ATOM     17 H    GLN E   0      -3.675  -7.952  -8.718  1.00 34.90 LIG 0.16  HD
ENDBRANCH 12 13
BRANCH 12 18
ATOM     18  CB  GLN E   0      -2.254  -8.741 -10.591  1.00 34.11 LIG 0.04  C 
BRANCH 18 19
ATOM     19  CG  GLN E   0      -1.423  -8.537 -11.853  1.00 32.87 LIG 0.10  C 
BRANCH 19 20
ATOM     20  CD  GLN E   0      -2.118  -7.644 -12.861  1.00 32.43 LIG 0.21  C 
ATOM     21 OE1  GLN E   0      -3.188  -7.982 -13.358  1.00 31.11 LIG-0.27  OA
ATOM     22  NE2 GLN E   0      -1.508  -6.507 -13.181  1.00 32.01 LIG-0.37  N 
ATOM     23 22HE GLN E   0      -1.863  -5.975 -13.756  1.00 32.01 LIG 0.16  HD
ATOM     24 21HE GLN E   0      -0.758  -6.302 -12.811  1.00 32.01 LIG 0.16  HD
ENDBRANCH 19 20
ENDBRANCH 18 19
ENDBRANCH 12 18
ENDBRANCH 9 12
ENDBRANCH 6 8
ENDBRANCH 4 6
ENDBRANCH 1 2
BRANCH 1 25
ATOM     25  CB  ASP E   2       3.452  -8.707 -12.427  1.00 34.81 LIG 0.15  C 
BRANCH 25 26
ATOM     26  CG  ASP E   2       2.119  -9.361 -12.142  1.00 36.48 LIG 0.17  C 
ATOM     27 OD1  ASP E   2       1.356  -9.586 -13.106  1.00 36.59 LIG-0.65  OA
ATOM     28 OD2  ASP E   2       1.823  -9.625 -10.955  1.00 38.36 LIG-0.65  OA
ENDBRANCH 25 26
ENDBRANCH 1 25
BRANCH 1 29
ATOM     29  C   ASP E   2       4.556  -6.472 -12.358  1.00 31.85 LIG 0.24  C 
ATOM     30 O    ASP E   2       4.619  -6.493 -13.590  1.00 30.99 LIG-0.27  OA
ATOM     31  N   LEU E   3       5.259  -5.636 -11.590  1.00 29.32 LIG-0.35  N 
ATOM     32 H    LEU E   3       5.226  -5.649 -10.730  1.00 29.32 LIG 0.16  HD
BRANCH 31 33
ATOM     33  CA  LEU E   3       6.160  -4.607 -12.124  1.00 27.73 LIG 0.18  C 
BRANCH 33 34
ATOM     34  CB  LEU E   3       6.467  -3.543 -11.050  1.00 28.26 LIG 0.04  C 
BRANCH 34 35
ATOM     35  CG  LEU E   3       6.485  -2.075 -11.484  1.00 28.58 LIG-0.02  C 
ATOM     36  CD2 LEU E   3       7.735  -1.742 -12.292  1.00 28.56 LIG 0.01  C 
ATOM     37  CD1 LEU E   3       6.388  -1.164 -10.267  1.00 28.86 LIG 0.01  C 
ENDBRANCH 34 35
ENDBRANCH 33 34
BRANCH 33 38
ATOM     38  C   LEU E   3       7.469  -5.170 -12.650  1.00 26.19 LIG 0.24  C 
ATOM     39  N   PHE E   4       8.118  -6.005 -11.843  1.00 24.40 LIG-0.34  N 
ATOM     40 H    PHE E   4       7.793  -6.294 -11.101  1.00 24.40 LIG 0.16  HD
ATOM     41 O    LEU E   3       7.880  -4.834 -13.761  1.00 26.01 LIG-0.27  OA
BRANCH 39 42
ATOM     42  CA  PHE E   4       9.451  -6.515 -12.139  1.00 23.80 LIG 0.19  C 
BRANCH 42 43
ATOM     43  C   PHE E   4       9.959  -7.369 -10.980  1.00 24.08 LIG 0.20  C 
ATOM     44 O    PHE E   4       9.395  -7.386  -9.883  1.00 22.36 LIG-0.65  OA
ATOM     45 OXT  PHE E   4      10.990  -8.020 -11.118  1.00 24.21 LIG-0.65  OA
ENDBRANCH 42 43
BRANCH 42 46
ATOM     46  CB  PHE E   4      10.429  -5.352 -12.350  1.00 23.46 LIG 0.07  C 
BRANCH 46 47
ATOM     47  CG  PHE E   4      10.611  -4.479 -11.126  1.00 22.76 LIG-0.06  A 
ATOM     48  CD1 PHE E   4      11.873  -4.234 -10.608  1.00 22.71 LIG 0.01  A 
ATOM     49  CE1 PHE E   4      12.041  -3.440  -9.485  1.00 22.42 LIG 0.00  A 
ATOM     50  CZ  PHE E   4      10.934  -2.891  -8.859  1.00 22.02 LIG 0.00  A 
ATOM     51  CE2 PHE E   4       9.669  -3.134  -9.360  1.00 22.12 LIG 0.00  A 
ATOM     52  CD2 PHE E   4       9.513  -3.924 -10.486  1.00 22.51 LIG 0.01  A 
ENDBRANCH 46 47
ENDBRANCH 42 46
ENDBRANCH 39 42
ENDBRANCH 33 38
ENDBRANCH 31 33
ENDBRANCH 1 29
TORSDOF 19
ENDMDL
MODEL 10
USER: ADFR SOLUTION from run 79
USER: SCORE 14.705099 LL:  -3.987 LR: -11.799 RR:   0.000 FEB:  -6.131
USER: RMSD 3.081689
USER: SEED 78
USER: STATUS no improvement in best in 8 clusters for 5 generations
USER: GENES 21
USER: genes 0 Translation |==|  0.58011 0.33767 0.56646
USER: genes 1 Rotation |==|  0.43109 0.61273 0.41043 0.97384
USER: genes 2 Torsion [CB]-CA--N-[C] |==|  0.84353
USER: genes 3 Torsion [N]-C--CA-[N] |==|  0.94910
USER: genes 4 Torsion [C]-CA--N-[C] |==|  0.59445
USER: genes 5 Torsion [N]-C--CA-[N] |==|  0.30090
USER: genes 6 Torsion [C]-CA--N-[C] |==|  0.67496
USER: genes 7 Torsion [C]-CA--CB-[CG] |==|  0.60462
USER: genes 8 Torsion [CA]-CB--CG-[CD] |==|  0.21100
USER: genes 9 Torsion [CB]-CG--CD-[OE1] |==|  0.55985
USER: genes 10 Torsion [N]-CA--CB-[CG] |==|  0.62437
USER: genes 11 Torsion [CA]-CB--CG-[OD1] |==|  0.36653
USER: genes 12 Torsion [N]-CA--C-[N] |==|  0.37171
USER: genes 13 Torsion [C]-N--CA-[C] |==|  0.71270
USER: genes 14 Torsion [N]-CA--CB-[CG] |==|  0.98792
USER: genes 15 Torsion [CA]-CB--CG-[CD2] |==|  0.79149
USER: genes 16 Torsion [N]-CA--C-[N] |==|  0.96957
USER: genes 17 Torsion [C]-N--CA-[CB] |==|  0.22304
USER: genes 18 Torsion [N]-CA--C-[O] |==|  0.13411
USER: genes 19 Torsion [N]-CA--CB-[CG] |==|  0.10018
USER: genes 20 Torsion [CA]-CB--CG-[CD2] |==|  0.73122
ROOT
ATOM      1  CA  ASP E   2       5.806  -8.035 -10.487  1.00 33.44 LIG 0.19  C 
ENDROOT
BRANCH 1 2
ATOM      2  N   ASP E   2       4.345  -7.910 -10.574  1.00 33.24 LIG-0.35  N 
ATOM      3 H    ASP E   2       4.009  -7.301 -10.068  1.00 33.24 LIG 0.16  HD
ATOM      4  C   ALA E   1       3.623  -8.691 -11.380  1.00 32.93 LIG 0.24  C 
ATOM      5 O    ALA E   1       4.108  -9.630 -12.011  1.00 31.71 LIG-0.27  OA
BRANCH 4 6
ATOM      6  CA  ALA E   1       2.132  -8.382 -11.485  1.00 33.97 LIG 0.17  C 
ATOM      7  CB  ALA E   1       1.828  -7.671 -12.799  1.00 34.31 LIG 0.04  C 
BRANCH 6 8
ATOM      8  N   ALA E   1       1.707  -7.558 -10.351  1.00 34.07 LIG-0.35  N 
ATOM      9  C   GLN E   0       0.498  -7.657  -9.791  1.00 34.65 LIG 0.24  C 
ATOM     10 O    GLN E   0      -0.382  -8.422 -10.193  1.00 33.74 LIG-0.27  OA
ATOM     11 H    ALA E   1       2.308  -7.005 -10.080  1.00 34.07 LIG 0.16  HD
BRANCH 9 12
ATOM     12  CA  GLN E   0       0.251  -6.779  -8.565  1.00 34.37 LIG 0.18  C 
BRANCH 12 13
ATOM     13  N   GLN E   0      -0.694  -5.636  -8.858  1.00 34.90 LIG-0.35  N 
ATOM     14  C   ACE E  -1      -0.354  -4.320  -8.779  1.00 34.22 LIG 0.21  C 
ATOM     15  CH3 ACE E  -1      -1.487  -3.421  -9.255  1.00 34.51 LIG 0.12  C 
ATOM     16 O    ACE E  -1       0.751  -4.036  -9.235  1.00 33.28 LIG-0.27  OA
ATOM     17 H    GLN E   0      -1.482  -5.899  -9.083  1.00 34.90 LIG 0.16  HD
ENDBRANCH 12 13
BRANCH 12 18
ATOM     18  CB  GLN E   0      -0.299  -7.661  -7.437  1.00 34.11 LIG 0.04  C 
BRANCH 18 19
ATOM     19  CG  GLN E   0      -1.371  -6.991  -6.584  1.00 32.87 LIG 0.10  C 
BRANCH 19 20
ATOM     20  CD  GLN E   0      -2.711  -6.929  -7.288  1.00 32.43 LIG 0.21  C 
ATOM     21 OE1  GLN E   0      -3.557  -6.107  -6.945  1.00 31.11 LIG-0.27  OA
ATOM     22  NE2 GLN E   0      -2.920  -7.805  -8.266  1.00 32.01 LIG-0.37  N 
ATOM     23 22HE GLN E   0      -3.671  -7.810  -8.685  1.00 32.01 LIG 0.16  HD
ATOM     24 21HE GLN E   0      -2.304  -8.366  -8.480  1.00 32.01 LIG 0.16  HD
ENDBRANCH 19 20
ENDBRANCH 18 19
ENDBRANCH 12 18
ENDBRANCH 9 12
ENDBRANCH 6 8
ENDBRANCH 4 6
ENDBRANCH 1 2
BRANCH 1 25
ATOM     25  CB  ASP E   2       6.198  -9.463 -10.111  1.00 34.81 LIG 0.15  C 
BRANCH 25 26
ATOM     26  CG  ASP E   2       7.268  -9.495  -9.042  1.00 36.48 LIG 0.17  C 
ATOM     27 OD1  ASP E   2       7.098 -10.250  -8.061  1.00 36.59 LIG-0.65  OA
ATOM     28 OD2  ASP E   2       8.263  -8.747  -9.170  1.00 38.36 LIG-0.65  OA
ENDBRANCH 25 26
ENDBRANCH 1 25
BRANCH 1 29
ATOM     29  C   ASP E   2       6.542  -7.613 -11.747  1.00 31.85 LIG 0.24  C 
ATOM     30 O    ASP E   2       6.170  -7.999 -12.858  1.00 30.99 LIG-0.27  OA
ATOM     31  N   LEU E   3       7.599  -6.822 -11.548  1.00 29.32 LIG-0.35  N 
ATOM     32 H    LEU E   3       7.864  -6.582 -10.765  1.00 29.32 LIG 0.16  HD
BRANCH 31 33
ATOM     33  CA  LEU E   3       8.420  -6.278 -12.636  1.00 27.73 LIG 0.18  C 
BRANCH 33 34
ATOM     34  CB  LEU E   3       8.686  -4.774 -12.416  1.00 28.26 LIG 0.04  C 
BRANCH 34 35
ATOM     35  CG  LEU E   3       8.006  -4.096 -11.224  1.00 28.58 LIG-0.02  C 
ATOM     36  CD2 LEU E   3       6.522  -3.857 -11.484  1.00 28.56 LIG 0.01  C 
ATOM     37  CD1 LEU E   3       8.701  -2.780 -10.898  1.00 28.86 LIG 0.01  C 
ENDBRANCH 34 35
ENDBRANCH 33 34
BRANCH 33 38
ATOM     38  C   LEU E   3       9.748  -6.995 -12.803  1.00 26.19 LIG 0.24  C 
ATOM     39  N   PHE E   4      10.089  -7.839 -11.833  1.00 24.40 LIG-0.34  N 
ATOM     40 H    PHE E   4       9.564  -8.051 -11.185  1.00 24.40 LIG 0.16  HD
ATOM     41 O    LEU E   3      10.450  -6.766 -13.789  1.00 26.01 LIG-0.27  OA
BRANCH 39 42
ATOM     42  CA  PHE E   4      11.390  -8.492 -11.774  1.00 23.80 LIG 0.19  C 
BRANCH 42 43
ATOM     43  C   PHE E   4      11.320  -9.729 -10.882  1.00 24.08 LIG 0.20  C 
ATOM     44 O    PHE E   4      10.426 -10.571 -10.999  1.00 22.36 LIG-0.65  OA
ATOM     45 OXT  PHE E   4      12.144  -9.872  -9.984  1.00 24.21 LIG-0.65  OA
ENDBRANCH 42 43
BRANCH 42 46
ATOM     46  CB  PHE E   4      12.438  -7.535 -11.193  1.00 23.46 LIG 0.07  C 
BRANCH 46 47
ATOM     47  CG  PHE E   4      11.901  -6.631 -10.103  1.00 22.76 LIG-0.06  A 
ATOM     48  CD1 PHE E   4      11.790  -7.080  -8.796  1.00 22.71 LIG 0.01  A 
ATOM     49  CE1 PHE E   4      11.293  -6.257  -7.799  1.00 22.42 LIG 0.00  A 
ATOM     50  CZ  PHE E   4      10.888  -4.968  -8.109  1.00 22.02 LIG 0.00  A 
ATOM     51  CE2 PHE E   4      10.986  -4.511  -9.409  1.00 22.12 LIG 0.00  A 
ATOM     52  CD2 PHE E   4      11.489  -5.339 -10.397  1.00 22.51 LIG 0.01  A 
ENDBRANCH 46 47
ENDBRANCH 42 46
ENDBRANCH 39 42
ENDBRANCH 33 38
ENDBRANCH 31 33
ENDBRANCH 1 29
TORSDOF 19
ENDMDL
MODEL 11
USER: ADFR SOLUTION from run 11
USER: SCORE 14.450579 LL:  -3.172 LR: -11.767 RR:   0.000 FEB:  -6.100
USER: RMSD 4.536481
USER: SEED 299958
USER: STATUS searching
USER: GENES 21
USER: genes 0 Translation |==|  0.60976 0.36493 0.48577
USER: genes 1 Rotation |==|  0.49296 0.55539 0.55460 0.99386
USER: genes 2 Torsion [CB]-CA--N-[C] |==|  0.54489
USER: genes 3 Torsion [N]-C--CA-[N] |==|  0.39092
USER: genes 4 Torsion [C]-CA--N-[C] |==|  0.85556
USER: genes 5 Torsion [N]-C--CA-[N] |==|  0.12013
USER: genes 6 Torsion [C]-CA--N-[C] |==|  0.16031
USER: genes 7 Torsion [C]-CA--CB-[CG] |==|  0.38139
USER: genes 8 Torsion [CA]-CB--CG-[CD] |==|  0.26655
USER: genes 9 Torsion [CB]-CG--CD-[OE1] |==|  0.13308
USER: genes 10 Torsion [N]-CA--CB-[CG] |==|  0.61942
USER: genes 11 Torsion [CA]-CB--CG-[OD1] |==|  0.18027
USER: genes 12 Torsion [N]-CA--C-[N] |==|  0.38626
USER: genes 13 Torsion [C]-N--CA-[C] |==|  0.82761
USER: genes 14 Torsion [N]-CA--CB-[CG] |==|  0.84983
USER: genes 15 Torsion [CA]-CB--CG-[CD2] |==|  0.75773
USER: genes 16 Torsion [N]-CA--C-[N] |==|  0.41046
USER: genes 17 Torsion [C]-N--CA-[CB] |==|  0.40718
USER: genes 18 Torsion [N]-CA--C-[O] |==|  0.44064
USER: genes 19 Torsion [N]-CA--CB-[CG] |==|  0.18381
USER: genes 20 Torsion [CA]-CB--CG-[CD2] |==|  0.79776
ROOT
ATOM      1  CA  ASP E   2       6.562  -7.586 -11.698  1.00 33.44 LIG 0.19  C 
ENDROOT
BRANCH 1 2
ATOM      2  N   ASP E   2       5.282  -8.144 -12.153  1.00 33.24 LIG-0.35  N 
ATOM      3 H    ASP E   2       5.228  -9.001 -12.100  1.00 33.24 LIG 0.16  HD
ATOM      4  C   ALA E   1       4.300  -7.363 -12.607  1.00 32.93 LIG 0.24  C 
ATOM      5 O    ALA E   1       4.435  -6.152 -12.781  1.00 31.71 LIG-0.27  OA
BRANCH 4 6
ATOM      6  CA  ALA E   1       2.971  -8.042 -12.928  1.00 33.97 LIG 0.17  C 
ATOM      7  CB  ALA E   1       2.876  -8.345 -14.419  1.00 34.31 LIG 0.04  C 
BRANCH 6 8
ATOM      8  N   ALA E   1       1.855  -7.189 -12.510  1.00 34.07 LIG-0.35  N 
ATOM      9  C   GLN E   0       1.752  -6.675 -11.281  1.00 34.65 LIG 0.24  C 
ATOM     10 O    GLN E   0       2.562  -6.895 -10.377  1.00 33.74 LIG-0.27  OA
ATOM     11 H    ALA E   1       1.274  -7.050 -13.129  1.00 34.07 LIG 0.16  HD
BRANCH 9 12
ATOM     12  CA  GLN E   0       0.567  -5.741 -11.041  1.00 34.37 LIG 0.18  C 
BRANCH 12 13
ATOM     13  N   GLN E   0      -0.713  -6.269 -11.647  1.00 34.90 LIG-0.35  N 
ATOM     14  C   ACE E  -1      -1.264  -7.477 -11.346  1.00 34.22 LIG 0.21  C 
ATOM     15  CH3 ACE E  -1      -2.613  -7.662 -12.026  1.00 34.51 LIG 0.12  C 
ATOM     16 O    ACE E  -1      -1.246  -7.779 -10.155  1.00 33.28 LIG-0.27  OA
ATOM     17 H    GLN E   0      -1.069  -5.725 -12.211  1.00 34.90 LIG 0.16  HD
ENDBRANCH 12 13
BRANCH 12 18
ATOM     18  CB  GLN E   0       0.406  -5.537  -9.529  1.00 34.11 LIG 0.04  C 
BRANCH 18 19
ATOM     19  CG  GLN E   0       0.118  -4.097  -9.118  1.00 32.87 LIG 0.10  C 
BRANCH 19 20
ATOM     20  CD  GLN E   0      -1.363  -3.835  -8.937  1.00 32.43 LIG 0.21  C 
ATOM     21 OE1  GLN E   0      -2.056  -4.606  -8.278  1.00 31.11 LIG-0.27  OA
ATOM     22  NE2 GLN E   0      -1.862  -2.755  -9.531  1.00 32.01 LIG-0.37  N 
ATOM     23 22HE GLN E   0      -2.700  -2.574  -9.461  1.00 32.01 LIG 0.16  HD
ATOM     24 21HE GLN E   0      -1.347  -2.236  -9.984  1.00 32.01 LIG 0.16  HD
ENDBRANCH 19 20
ENDBRANCH 18 19
ENDBRANCH 12 18
ENDBRANCH 9 12
ENDBRANCH 6 8
ENDBRANCH 4 6
ENDBRANCH 1 2
BRANCH 1 25
ATOM     25  CB  ASP E   2       7.623  -8.682 -11.614  1.00 34.81 LIG 0.15  C 
BRANCH 25 26
ATOM     26  CG  ASP E   2       8.457  -8.569 -10.358  1.00 36.48 LIG 0.17  C 
ATOM     27 OD1  ASP E   2       7.889  -8.739  -9.258  1.00 36.59 LIG-0.65  OA
ATOM     28 OD2  ASP E   2       9.670  -8.286 -10.468  1.00 38.36 LIG-0.65  OA
ENDBRANCH 25 26
ENDBRANCH 1 25
BRANCH 1 29
ATOM     29  C   ASP E   2       7.075  -6.435 -12.546  1.00 31.85 LIG 0.24  C 
ATOM     30 O    ASP E   2       6.993  -6.469 -13.776  1.00 30.99 LIG-0.27  OA
ATOM     31  N   LEU E   3       7.612  -5.421 -11.862  1.00 29.32 LIG-0.35  N 
ATOM     32 H    LEU E   3       7.687  -5.422 -11.005  1.00 29.32 LIG 0.16  HD
BRANCH 31 33
ATOM     33  CA  LEU E   3       8.131  -4.202 -12.494  1.00 27.73 LIG 0.18  C 
BRANCH 33 34
ATOM     34  CB  LEU E   3       8.573  -3.183 -11.425  1.00 28.26 LIG 0.04  C 
BRANCH 34 35
ATOM     35  CG  LEU E   3       7.556  -2.786 -10.351  1.00 28.58 LIG-0.02  C 
ATOM     36  CD2 LEU E   3       6.681  -1.624 -10.807  1.00 28.56 LIG 0.01  C 
ATOM     37  CD1 LEU E   3       8.270  -2.429  -9.054  1.00 28.86 LIG 0.01  C 
ENDBRANCH 34 35
ENDBRANCH 33 34
BRANCH 33 38
ATOM     38  C   LEU E   3       9.292  -4.463 -13.438  1.00 26.19 LIG 0.24  C 
ATOM     39  N   PHE E   4       9.391  -3.653 -14.489  1.00 24.40 LIG-0.34  N 
ATOM     40 H    PHE E   4       8.892  -2.962 -14.601  1.00 24.40 LIG 0.16  HD
ATOM     41 O    LEU E   3      10.067  -5.393 -13.215  1.00 26.01 LIG-0.27  OA
BRANCH 39 42
ATOM     42  CA  PHE E   4      10.358  -3.861 -15.559  1.00 23.80 LIG 0.19  C 
BRANCH 42 43
ATOM     43  C   PHE E   4      11.628  -3.060 -15.285  1.00 24.08 LIG 0.20  C 
ATOM     44 O    PHE E   4      12.709  -3.349 -15.804  1.00 22.36 LIG-0.65  OA
ATOM     45 OXT  PHE E   4      11.593  -2.130 -14.484  1.00 24.21 LIG-0.65  OA
ENDBRANCH 42 43
BRANCH 42 46
ATOM     46  CB  PHE E   4       9.774  -3.400 -16.900  1.00 23.46 LIG 0.07  C 
BRANCH 46 47
ATOM     47  CG  PHE E   4       9.534  -1.907 -16.979  1.00 22.76 LIG-0.06  A 
ATOM     48  CD1 PHE E   4      10.362  -1.091 -17.734  1.00 22.71 LIG 0.01  A 
ATOM     49  CE1 PHE E   4      10.147   0.276 -17.802  1.00 22.42 LIG 0.00  A 
ATOM     50  CZ  PHE E   4       9.097   0.843 -17.098  1.00 22.02 LIG 0.00  A 
ATOM     51  CE2 PHE E   4       8.268   0.042 -16.336  1.00 22.12 LIG 0.00  A 
ATOM     52  CD2 PHE E   4       8.488  -1.323 -16.278  1.00 22.51 LIG 0.01  A 
ENDBRANCH 46 47
ENDBRANCH 42 46
ENDBRANCH 39 42
ENDBRANCH 33 38
ENDBRANCH 31 33
ENDBRANCH 1 29
TORSDOF 19
ENDMDL
MODEL 12
USER: ADFR SOLUTION from run 93
USER: SCORE 14.045930 LL:  -4.023 LR: -11.747 RR:   0.000 FEB:  -6.079
USER: RMSD 3.587108
USER: SEED 92
USER: STATUS no improvement in best in 4 clusters for 5 generations
USER: GENES 21
USER: genes 0 Translation |==|  0.53726 0.40586 0.48887
USER: genes 1 Rotation |==|  0.34536 0.46113 0.38404 0.95949
USER: genes 2 Torsion [CB]-CA--N-[C] |==|  0.23961
USER: genes 3 Torsion [N]-C--CA-[N] |==|  0.44269
USER: genes 4 Torsion [C]-CA--N-[C] |==|  0.75678
USER: genes 5 Torsion [N]-C--CA-[N] |==|  0.35190
USER: genes 6 Torsion [C]-CA--N-[C] |==|  0.77778
USER: genes 7 Torsion [C]-CA--CB-[CG] |==|  0.12350
USER: genes 8 Torsion [CA]-CB--CG-[CD] |==|  0.21444
USER: genes 9 Torsion [CB]-CG--CD-[OE1] |==|  0.10008
USER: genes 10 Torsion [N]-CA--CB-[CG] |==|  0.09429
USER: genes 11 Torsion [CA]-CB--CG-[OD1] |==|  0.26182
USER: genes 12 Torsion [N]-CA--C-[N] |==|  0.35712
USER: genes 13 Torsion [C]-N--CA-[C] |==|  0.59546
USER: genes 14 Torsion [N]-CA--CB-[CG] |==|  0.75753
USER: genes 15 Torsion [CA]-CB--CG-[CD2] |==|  0.24510
USER: genes 16 Torsion [N]-CA--C-[N] |==|  0.03533
USER: genes 17 Torsion [C]-N--CA-[CB] |==|  0.37778
USER: genes 18 Torsion [N]-CA--C-[O] |==|  0.00323
USER: genes 19 Torsion [N]-CA--CB-[CG] |==|  0.85538
USER: genes 20 Torsion [CA]-CB--CG-[CD2] |==|  0.67001
ROOT
ATOM      1  CA  ASP E   2       4.713  -6.910 -11.651  1.00 33.44 LIG 0.19  C 
ENDROOT
BRANCH 1 2
ATOM      2  N   ASP E   2       3.500  -7.080 -12.461  1.00 33.24 LIG-0.35  N 
ATOM      3 H    ASP E   2       3.605  -7.567 -13.162  1.00 33.24 LIG 0.16  HD
ATOM      4  C   ALA E   1       2.343  -6.513 -12.116  1.00 32.93 LIG 0.24  C 
ATOM      5 O    ALA E   1       2.238  -5.729 -11.173  1.00 31.71 LIG-0.27  OA
BRANCH 4 6
ATOM      6  CA  ALA E   1       1.122  -6.866 -12.961  1.00 33.97 LIG 0.17  C 
ATOM      7  CB  ALA E   1       1.133  -6.077 -14.266  1.00 34.31 LIG 0.04  C 
BRANCH 6 8
ATOM      8  N   ALA E   1      -0.107  -6.592 -12.211  1.00 34.07 LIG-0.35  N 
ATOM      9  C   GLN E   0      -0.674  -7.481 -11.392  1.00 34.65 LIG 0.24  C 
ATOM     10 O    GLN E   0      -0.241  -8.622 -11.215  1.00 33.74 LIG-0.27  OA
ATOM     11 H    ALA E   1      -0.428  -5.805 -12.348  1.00 34.07 LIG 0.16  HD
BRANCH 9 12
ATOM     12  CA  GLN E   0      -1.906  -7.000 -10.627  1.00 34.37 LIG 0.18  C 
BRANCH 12 13
ATOM     13  N   GLN E   0      -3.092  -7.919 -10.811  1.00 34.90 LIG-0.35  N 
ATOM     14  C   ACE E  -1      -3.905  -7.913 -11.903  1.00 34.22 LIG 0.21  C 
ATOM     15  CH3 ACE E  -1      -4.929  -9.038 -11.844  1.00 34.51 LIG 0.12  C 
ATOM     16 O    ACE E  -1      -3.332  -7.799 -12.984  1.00 33.28 LIG-0.27  OA
ATOM     17 H    GLN E   0      -3.208  -8.457 -10.150  1.00 34.90 LIG 0.16  HD
ENDBRANCH 12 13
BRANCH 12 18
ATOM     18  CB  GLN E   0      -1.541  -6.878  -9.142  1.00 34.11 LIG 0.04  C 
BRANCH 18 19
ATOM     19  CG  GLN E   0      -0.198  -6.207  -8.880  1.00 32.87 LIG 0.10  C 
BRANCH 19 20
ATOM     20  CD  GLN E   0      -0.266  -4.701  -9.035  1.00 32.43 LIG 0.21  C 
ATOM     21 OE1  GLN E   0      -1.271  -4.085  -8.691  1.00 31.11 LIG-0.27  OA
ATOM     22  NE2 GLN E   0       0.795  -4.100  -9.566  1.00 32.01 LIG-0.37  N 
ATOM     23 22HE GLN E   0       0.794  -3.248  -9.680  1.00 32.01 LIG 0.16  HD
ATOM     24 21HE GLN E   0       1.482  -4.564  -9.795  1.00 32.01 LIG 0.16  HD
ENDBRANCH 19 20
ENDBRANCH 18 19
ENDBRANCH 12 18
ENDBRANCH 9 12
ENDBRANCH 6 8
ENDBRANCH 4 6
ENDBRANCH 1 2
BRANCH 1 25
ATOM     25  CB  ASP E   2       4.763  -7.957 -10.539  1.00 34.81 LIG 0.15  C 
BRANCH 25 26
ATOM     26  CG  ASP E   2       4.156  -9.273 -10.972  1.00 36.48 LIG 0.17  C 
ATOM     27 OD1  ASP E   2       4.920 -10.152 -11.426  1.00 36.59 LIG-0.65  OA
ATOM     28 OD2  ASP E   2       2.917  -9.419 -10.884  1.00 38.36 LIG-0.65  OA
ENDBRANCH 25 26
ENDBRANCH 1 25
BRANCH 1 29
ATOM     29  C   ASP E   2       6.004  -6.945 -12.450  1.00 31.85 LIG 0.24  C 
ATOM     30 O    ASP E   2       6.245  -7.873 -13.226  1.00 30.99 LIG-0.27  OA
ATOM     31  N   LEU E   3       6.831  -5.918 -12.236  1.00 29.32 LIG-0.35  N 
ATOM     32 H    LEU E   3       6.663  -5.291 -11.672  1.00 29.32 LIG 0.16  HD
BRANCH 31 33
ATOM     33  CA  LEU E   3       8.110  -5.749 -12.936  1.00 27.73 LIG 0.18  C 
BRANCH 33 34
ATOM     34  CB  LEU E   3       7.924  -4.897 -14.209  1.00 28.26 LIG 0.04  C 
BRANCH 34 35
ATOM     35  CG  LEU E   3       7.532  -5.620 -15.501  1.00 28.58 LIG-0.02  C 
ATOM     36  CD2 LEU E   3       6.019  -5.749 -15.637  1.00 28.56 LIG 0.01  C 
ATOM     37  CD1 LEU E   3       8.183  -6.996 -15.554  1.00 28.86 LIG 0.01  C 
ENDBRANCH 34 35
ENDBRANCH 33 34
BRANCH 33 38
ATOM     38  C   LEU E   3       9.188  -5.117 -12.073  1.00 26.19 LIG 0.24  C 
ATOM     39  N   PHE E   4       8.934  -5.047 -10.769  1.00 24.40 LIG-0.34  N 
ATOM     40 H    PHE E   4       8.248  -5.412 -10.402  1.00 24.40 LIG 0.16  HD
ATOM     41 O    LEU E   3      10.219  -4.689 -12.593  1.00 26.01 LIG-0.27  OA
BRANCH 39 42
ATOM     42  CA  PHE E   4       9.799  -4.343  -9.832  1.00 23.80 LIG 0.19  C 
BRANCH 42 43
ATOM     43  C   PHE E   4      10.623  -5.340  -9.021  1.00 24.08 LIG 0.20  C 
ATOM     44 O    PHE E   4      10.538  -6.558  -9.201  1.00 22.36 LIG-0.65  OA
ATOM     45 OXT  PHE E   4      11.356  -4.930  -8.126  1.00 24.21 LIG-0.65  OA
ENDBRANCH 42 43
BRANCH 42 46
ATOM     46  CB  PHE E   4       8.958  -3.506  -8.859  1.00 23.46 LIG 0.07  C 
BRANCH 46 47
ATOM     47  CG  PHE E   4       7.964  -2.592  -9.544  1.00 22.76 LIG-0.06  A 
ATOM     48  CD1 PHE E   4       6.970  -3.105 -10.362  1.00 22.71 LIG 0.01  A 
ATOM     49  CE1 PHE E   4       6.064  -2.270 -10.994  1.00 22.42 LIG 0.00  A 
ATOM     50  CZ  PHE E   4       6.155  -0.898 -10.818  1.00 22.02 LIG 0.00  A 
ATOM     51  CE2 PHE E   4       7.145  -0.372 -10.011  1.00 22.12 LIG 0.00  A 
ATOM     52  CD2 PHE E   4       8.042  -1.216  -9.380  1.00 22.51 LIG 0.01  A 
ENDBRANCH 46 47
ENDBRANCH 42 46
ENDBRANCH 39 42
ENDBRANCH 33 38
ENDBRANCH 31 33
ENDBRANCH 1 29
TORSDOF 19
ENDMDL
MODEL 13
USER: ADFR SOLUTION from run 194
USER: SCORE 14.227435 LL:  -4.160 LR: -11.731 RR:   0.000 FEB:  -6.063
USER: RMSD 2.981595
USER: SEED 193
USER: STATUS no improvement in best in 3 clusters for 5 generations
USER: GENES 21
USER: genes 0 Translation |==|  0.61452 0.37215 0.50001
USER: genes 1 Rotation |==|  0.49382 0.55355 0.53991 0.99548
USER: genes 2 Torsion [CB]-CA--N-[C] |==|  0.45556
USER: genes 3 Torsion [N]-C--CA-[N] |==|  0.46065
USER: genes 4 Torsion [C]-CA--N-[C] |==|  0.62487
USER: genes 5 Torsion [N]-C--CA-[N] |==|  0.92247
USER: genes 6 Torsion [C]-CA--N-[C] |==|  0.67854
USER: genes 7 Torsion [C]-CA--CB-[CG] |==|  0.11914
USER: genes 8 Torsion [CA]-CB--CG-[CD] |==|  0.56994
USER: genes 9 Torsion [CB]-CG--CD-[OE1] |==|  0.59502
USER: genes 10 Torsion [N]-CA--CB-[CG] |==|  0.65832
USER: genes 11 Torsion [CA]-CB--CG-[OD1] |==|  0.27676
USER: genes 12 Torsion [N]-CA--C-[N] |==|  0.39034
USER: genes 13 Torsion [C]-N--CA-[C] |==|  0.76906
USER: genes 14 Torsion [N]-CA--CB-[CG] |==|  0.89957
USER: genes 15 Torsion [CA]-CB--CG-[CD2] |==|  0.70434
USER: genes 16 Torsion [N]-CA--C-[N] |==|  0.97857
USER: genes 17 Torsion [C]-N--CA-[CB] |==|  0.23662
USER: genes 18 Torsion [N]-CA--C-[O] |==|  0.99517
USER: genes 19 Torsion [N]-CA--CB-[CG] |==|  0.10230
USER: genes 20 Torsion [CA]-CB--CG-[CD2] |==|  0.74482
ROOT
ATOM      1  CA  ASP E   2       6.683  -7.467 -11.484  1.00 33.44 LIG 0.19  C 
ENDROOT
BRANCH 1 2
ATOM      2  N   ASP E   2       5.376  -7.950 -11.949  1.00 33.24 LIG-0.35  N 
ATOM      3 H    ASP E   2       5.392  -8.732 -12.305  1.00 33.24 LIG 0.16  HD
ATOM      4  C   ALA E   1       4.271  -7.214 -11.817  1.00 32.93 LIG 0.24  C 
ATOM      5 O    ALA E   1       4.286  -6.053 -11.407  1.00 31.71 LIG-0.27  OA
BRANCH 4 6
ATOM      6  CA  ALA E   1       2.953  -7.871 -12.216  1.00 33.97 LIG 0.17  C 
ATOM      7  CB  ALA E   1       2.864  -8.006 -13.732  1.00 34.31 LIG 0.04  C 
BRANCH 6 8
ATOM      8  N   ALA E   1       1.824  -7.086 -11.708  1.00 34.07 LIG-0.35  N 
ATOM      9  C   GLN E   0       0.766  -7.637 -11.108  1.00 34.65 LIG 0.24  C 
ATOM     10 O    GLN E   0       0.622  -8.853 -10.955  1.00 33.74 LIG-0.27  OA
ATOM     11 H    ALA E   1       1.907  -6.239 -11.833  1.00 34.07 LIG 0.16  HD
BRANCH 9 12
ATOM     12  CA  GLN E   0      -0.281  -6.665 -10.567  1.00 34.37 LIG 0.18  C 
BRANCH 12 13
ATOM     13  N   GLN E   0       0.315  -5.327 -10.194  1.00 34.90 LIG-0.35  N 
ATOM     14  C   ACE E  -1       0.348  -4.828  -8.928  1.00 34.22 LIG 0.21  C 
ATOM     15  CH3 ACE E  -1       1.123  -3.520  -8.862  1.00 34.51 LIG 0.12  C 
ATOM     16 O    ACE E  -1       0.637  -5.639  -8.052  1.00 33.28 LIG-0.27  OA
ATOM     17 H    GLN E   0       0.638  -4.901 -10.869  1.00 34.90 LIG 0.16  HD
ENDBRANCH 12 13
BRANCH 12 18
ATOM     18  CB  GLN E   0      -1.379  -6.492 -11.625  1.00 34.11 LIG 0.04  C 
BRANCH 18 19
ATOM     19  CG  GLN E   0      -1.813  -7.791 -12.295  1.00 32.87 LIG 0.10  C 
BRANCH 19 20
ATOM     20  CD  GLN E   0      -2.394  -7.559 -13.676  1.00 32.43 LIG 0.21  C 
ATOM     21 OE1  GLN E   0      -3.306  -8.267 -14.094  1.00 31.11 LIG-0.27  OA
ATOM     22  NE2 GLN E   0      -1.860  -6.579 -14.399  1.00 32.01 LIG-0.37  N 
ATOM     23 22HE GLN E   0      -2.154  -6.420 -15.191  1.00 32.01 LIG 0.16  HD
ATOM     24 21HE GLN E   0      -1.222  -6.103 -14.073  1.00 32.01 LIG 0.16  HD
ENDBRANCH 19 20
ENDBRANCH 18 19
ENDBRANCH 12 18
ENDBRANCH 9 12
ENDBRANCH 6 8
ENDBRANCH 4 6
ENDBRANCH 1 2
BRANCH 1 25
ATOM     25  CB  ASP E   2       7.677  -8.623 -11.389  1.00 34.81 LIG 0.15  C 
BRANCH 25 26
ATOM     26  CG  ASP E   2       8.260  -8.758 -10.000  1.00 36.48 LIG 0.17  C 
ATOM     27 OD1  ASP E   2       7.778  -9.627  -9.242  1.00 36.59 LIG-0.65  OA
ATOM     28 OD2  ASP E   2       9.177  -7.980  -9.658  1.00 38.36 LIG-0.65  OA
ENDBRANCH 25 26
ENDBRANCH 1 25
BRANCH 1 29
ATOM     29  C   ASP E   2       7.270  -6.350 -12.330  1.00 31.85 LIG 0.24  C 
ATOM     30 O    ASP E   2       7.174  -6.369 -13.560  1.00 30.99 LIG-0.27  OA
ATOM     31  N   LEU E   3       7.887  -5.384 -11.646  1.00 29.32 LIG-0.35  N 
ATOM     32 H    LEU E   3       7.971  -5.396 -10.789  1.00 29.32 LIG 0.16  HD
BRANCH 31 33
ATOM     33  CA  LEU E   3       8.487  -4.201 -12.275  1.00 27.73 LIG 0.18  C 
BRANCH 33 34
ATOM     34  CB  LEU E   3       8.533  -3.022 -11.282  1.00 28.26 LIG 0.04  C 
BRANCH 34 35
ATOM     35  CG  LEU E   3       7.366  -2.867 -10.303  1.00 28.58 LIG-0.02  C 
ATOM     36  CD2 LEU E   3       6.460  -1.702 -10.686  1.00 28.56 LIG 0.01  C 
ATOM     37  CD1 LEU E   3       7.889  -2.681  -8.884  1.00 28.86 LIG 0.01  C 
ENDBRANCH 34 35
ENDBRANCH 33 34
BRANCH 33 38
ATOM     38  C   LEU E   3       9.887  -4.451 -12.810  1.00 26.19 LIG 0.24  C 
ATOM     39  N   PHE E   4      10.435  -5.624 -12.503  1.00 24.40 LIG-0.34  N 
ATOM     40 H    PHE E   4      10.008  -6.255 -12.104  1.00 24.40 LIG 0.16  HD
ATOM     41 O    LEU E   3      10.455  -3.582 -13.472  1.00 26.01 LIG-0.27  OA
BRANCH 39 42
ATOM     42  CA  PHE E   4      11.819  -5.956 -12.816  1.00 23.80 LIG 0.19  C 
BRANCH 42 43
ATOM     43  C   PHE E   4      11.987  -7.469 -12.925  1.00 24.08 LIG 0.20  C 
ATOM     44 O    PHE E   4      11.051  -8.247 -12.730  1.00 22.36 LIG-0.65  OA
ATOM     45 OXT  PHE E   4      13.097  -7.936 -13.163  1.00 24.21 LIG-0.65  OA
ENDBRANCH 42 43
BRANCH 42 46
ATOM     46  CB  PHE E   4      12.751  -5.443 -11.710  1.00 23.46 LIG 0.07  C 
BRANCH 46 47
ATOM     47  CG  PHE E   4      12.165  -5.555 -10.318  1.00 22.76 LIG-0.06  A 
ATOM     48  CD1 PHE E   4      12.307  -6.718  -9.577  1.00 22.71 LIG 0.01  A 
ATOM     49  CE1 PHE E   4      11.766  -6.823  -8.306  1.00 22.42 LIG 0.00  A 
ATOM     50  CZ  PHE E   4      11.061  -5.759  -7.768  1.00 22.02 LIG 0.00  A 
ATOM     51  CE2 PHE E   4      10.906  -4.597  -8.499  1.00 22.12 LIG 0.00  A 
ATOM     52  CD2 PHE E   4      11.454  -4.499  -9.765  1.00 22.51 LIG 0.01  A 
ENDBRANCH 46 47
ENDBRANCH 42 46
ENDBRANCH 39 42
ENDBRANCH 33 38
ENDBRANCH 31 33
ENDBRANCH 1 29
TORSDOF 19
ENDMDL
MODEL 14
USER: ADFR SOLUTION from run 181
USER: SCORE 13.356967 LL:  -3.467 LR: -11.727 RR:   0.000 FEB:  -6.059
USER: RMSD 3.354566
USER: SEED 180
USER: STATUS no improvement in best in 10 clusters for 5 generations
USER: GENES 21
USER: genes 0 Translation |==|  0.57372 0.38640 0.50007
USER: genes 1 Rotation |==|  0.49245 0.56788 0.51000 0.99521
USER: genes 2 Torsion [CB]-CA--N-[C] |==|  0.43511
USER: genes 3 Torsion [N]-C--CA-[N] |==|  0.38069
USER: genes 4 Torsion [C]-CA--N-[C] |==|  0.72602
USER: genes 5 Torsion [N]-C--CA-[N] |==|  0.03467
USER: genes 6 Torsion [C]-CA--N-[C] |==|  0.74999
USER: genes 7 Torsion [C]-CA--CB-[CG] |==|  0.40578
USER: genes 8 Torsion [CA]-CB--CG-[CD] |==|  0.11999
USER: genes 9 Torsion [CB]-CG--CD-[OE1] |==|  0.20799
USER: genes 10 Torsion [N]-CA--CB-[CG] |==|  0.70397
USER: genes 11 Torsion [CA]-CB--CG-[OD1] |==|  0.16115
USER: genes 12 Torsion [N]-CA--C-[N] |==|  0.44484
USER: genes 13 Torsion [C]-N--CA-[C] |==|  0.65171
USER: genes 14 Torsion [N]-CA--CB-[CG] |==|  0.07233
USER: genes 15 Torsion [CA]-CB--CG-[CD2] |==|  0.57635
USER: genes 16 Torsion [N]-CA--C-[N] |==|  0.90349
USER: genes 17 Torsion [C]-N--CA-[CB] |==|  0.16462
USER: genes 18 Torsion [N]-CA--C-[O] |==|  0.98325
USER: genes 19 Torsion [N]-CA--CB-[CG] |==|  0.63097
USER: genes 20 Torsion [CA]-CB--CG-[CD2] |==|  0.07248
ROOT
ATOM      1  CA  ASP E   2       5.643  -7.231 -11.483  1.00 33.44 LIG 0.19  C 
ENDROOT
BRANCH 1 2
ATOM      2  N   ASP E   2       4.264  -7.564 -11.864  1.00 33.24 LIG-0.35  N 
ATOM      3 H    ASP E   2       4.182  -8.307 -12.291  1.00 33.24 LIG 0.16  HD
ATOM      4  C   ALA E   1       3.241  -6.762 -11.562  1.00 32.93 LIG 0.24  C 
ATOM      5 O    ALA E   1       3.391  -5.652 -11.052  1.00 31.71 LIG-0.27  OA
BRANCH 4 6
ATOM      6  CA  ALA E   1       1.842  -7.274 -11.893  1.00 33.97 LIG 0.17  C 
ATOM      7  CB  ALA E   1       1.334  -6.636 -13.182  1.00 34.31 LIG 0.04  C 
BRANCH 6 8
ATOM      8  N   ALA E   1       0.925  -6.986 -10.787  1.00 34.07 LIG-0.35  N 
ATOM      9  C   GLN E   0       0.592  -7.891  -9.864  1.00 34.65 LIG 0.24  C 
ATOM     10 O    GLN E   0       0.994  -9.058  -9.871  1.00 33.74 LIG-0.27  OA
ATOM     11 H    ALA E   1       0.622  -6.181 -10.789  1.00 34.07 LIG 0.16  HD
BRANCH 9 12
ATOM     12  CA  GLN E   0      -0.312  -7.398  -8.734  1.00 34.37 LIG 0.18  C 
BRANCH 12 13
ATOM     13  N   GLN E   0      -0.912  -6.042  -9.029  1.00 34.90 LIG-0.35  N 
ATOM     14  C   ACE E  -1      -0.334  -4.857  -8.689  1.00 34.22 LIG 0.21  C 
ATOM     15  CH3 ACE E  -1      -1.122  -3.674  -9.234  1.00 34.51 LIG 0.12  C 
ATOM     16 O    ACE E  -1       0.879  -4.793  -8.875  1.00 33.28 LIG-0.27  OA
ATOM     17 H    GLN E   0      -1.667  -6.089  -9.440  1.00 34.90 LIG 0.16  HD
ENDBRANCH 12 13
BRANCH 12 18
ATOM     18  CB  GLN E   0      -1.414  -8.439  -8.502  1.00 34.11 LIG 0.04  C 
BRANCH 18 19
ATOM     19  CG  GLN E   0      -1.856  -8.570  -7.049  1.00 32.87 LIG 0.10  C 
BRANCH 19 20
ATOM     20  CD  GLN E   0      -2.018  -7.224  -6.372  1.00 32.43 LIG 0.21  C 
ATOM     21 OE1  GLN E   0      -2.988  -6.514  -6.623  1.00 31.11 LIG-0.27  OA
ATOM     22  NE2 GLN E   0      -1.064  -6.857  -5.522  1.00 32.01 LIG-0.37  N 
ATOM     23 22HE GLN E   0      -1.112  -6.097  -5.124  1.00 32.01 LIG 0.16  HD
ATOM     24 21HE GLN E   0      -0.398  -7.381  -5.370  1.00 32.01 LIG 0.16  HD
ENDBRANCH 19 20
ENDBRANCH 18 19
ENDBRANCH 12 18
ENDBRANCH 9 12
ENDBRANCH 6 8
ENDBRANCH 4 6
ENDBRANCH 1 2
BRANCH 1 25
ATOM     25  CB  ASP E   2       6.497  -8.496 -11.412  1.00 34.81 LIG 0.15  C 
BRANCH 25 26
ATOM     26  CG  ASP E   2       6.808  -8.891  -9.985  1.00 36.48 LIG 0.17  C 
ATOM     27 OD1  ASP E   2       5.850  -9.107  -9.213  1.00 36.59 LIG-0.65  OA
ATOM     28 OD2  ASP E   2       8.006  -8.958  -9.630  1.00 38.36 LIG-0.65  OA
ENDBRANCH 25 26
ENDBRANCH 1 25
BRANCH 1 29
ATOM     29  C   ASP E   2       6.308  -6.209 -12.388  1.00 31.85 LIG 0.24  C 
ATOM     30 O    ASP E   2       5.885  -6.001 -13.528  1.00 30.99 LIG-0.27  OA
ATOM     31  N   LEU E   3       7.364  -5.585 -11.859  1.00 29.32 LIG-0.35  N 
ATOM     32 H    LEU E   3       7.665  -5.759 -11.072  1.00 29.32 LIG 0.16  HD
BRANCH 31 33
ATOM     33  CA  LEU E   3       8.121  -4.540 -12.558  1.00 27.73 LIG 0.18  C 
BRANCH 33 34
ATOM     34  CB  LEU E   3       7.918  -3.172 -11.873  1.00 28.26 LIG 0.04  C 
BRANCH 34 35
ATOM     35  CG  LEU E   3       7.562  -3.166 -10.384  1.00 28.58 LIG-0.02  C 
ATOM     36  CD2 LEU E   3       6.762  -1.925 -10.002  1.00 28.56 LIG 0.01  C 
ATOM     37  CD1 LEU E   3       8.826  -3.256  -9.539  1.00 28.86 LIG 0.01  C 
ENDBRANCH 34 35
ENDBRANCH 33 34
BRANCH 33 38
ATOM     38  C   LEU E   3       9.609  -4.832 -12.645  1.00 26.19 LIG 0.24  C 
ATOM     39  N   PHE E   4      10.148  -5.463 -11.605  1.00 24.40 LIG-0.34  N 
ATOM     40 H    PHE E   4       9.685  -5.777 -10.951  1.00 24.40 LIG 0.16  HD
ATOM     41 O    LEU E   3      10.249  -4.472 -13.634  1.00 26.01 LIG-0.27  OA
BRANCH 39 42
ATOM     42  CA  PHE E   4      11.581  -5.686 -11.471  1.00 23.80 LIG 0.19  C 
BRANCH 42 43
ATOM     43  C   PHE E   4      11.883  -6.410 -10.162  1.00 24.08 LIG 0.20  C 
ATOM     44 O    PHE E   4      11.009  -6.636  -9.322  1.00 22.36 LIG-0.65  OA
ATOM     45 OXT  PHE E   4      13.039  -6.735  -9.905  1.00 24.21 LIG-0.65  OA
ENDBRANCH 42 43
BRANCH 42 46
ATOM     46  CB  PHE E   4      12.329  -4.346 -11.468  1.00 23.46 LIG 0.07  C 
BRANCH 46 47
ATOM     47  CG  PHE E   4      13.532  -4.318 -12.386  1.00 22.76 LIG-0.06  A 
ATOM     48  CD1 PHE E   4      14.587  -3.449 -12.152  1.00 22.71 LIG 0.01  A 
ATOM     49  CE1 PHE E   4      15.686  -3.418 -12.995  1.00 22.42 LIG 0.00  A 
ATOM     50  CZ  PHE E   4      15.731  -4.255 -14.098  1.00 22.02 LIG 0.00  A 
ATOM     51  CE2 PHE E   4      14.683  -5.120 -14.348  1.00 22.12 LIG 0.00  A 
ATOM     52  CD2 PHE E   4      13.592  -5.148 -13.497  1.00 22.51 LIG 0.01  A 
ENDBRANCH 46 47
ENDBRANCH 42 46
ENDBRANCH 39 42
ENDBRANCH 33 38
ENDBRANCH 31 33
ENDBRANCH 1 29
TORSDOF 19
ENDMDL
