MODEL 1
USER: ADFR SOLUTION from run 7
USER: SCORE 13.601186 LL:  -2.887 LR: -10.948 RR:   0.000 FEB:  -6.474
USER: RMSD 2.060791
USER: SEED 411065
USER: STATUS 1 or 2 clusters left
USER: GENES 17
USER: genes 0 Translation |==|  0.45623 0.42308 0.40550
USER: genes 1 Rotation |==|  0.47210 0.52337 0.50673 0.99863
USER: genes 2 Torsion [C]-N--CA-[C] |==|  0.75277
USER: genes 3 Torsion [N]-CA--CB-[CG1] |==|  0.81990
USER: genes 4 Torsion [CA]-CB--CG1-[CD1] |==|  0.56149
USER: genes 5 Torsion [N]-CA--C-[N] |==|  0.42132
USER: genes 6 Torsion [C]-N--CA-[CB] |==|  0.27026
USER: genes 7 Torsion [N]-CA--CB-[CG2] |==|  0.59661
USER: genes 8 Torsion [CA]-CB--CG1-[CD1] |==|  0.64872
USER: genes 9 Torsion [N]-CA--C-[O] |==|  0.90029
USER: genes 10 Torsion [N]-C--CA-[N] |==|  0.40653
USER: genes 11 Torsion [C]-CA--N-[C] |==|  0.60996
USER: genes 12 Torsion [N]-C--CA-[N] |==|  0.87833
USER: genes 13 Torsion [C]-CA--CB-[CG] |==|  0.53313
USER: genes 14 Torsion [CA]-CB--CG-[OD2] |==|  0.46396
USER: genes 15 Torsion [C]-CA--CB-[OG] |==|  0.50850
USER: genes 16 Torsion [CA]-CB--OG-[HG] |==|  0.19875
ROOT
ATOM      1  C   SER C   8      -0.060  23.318  45.414  1.00 23.80 LIG 0.24  C 
ATOM      2 O    SER C   8       0.363  24.154  44.618  1.00 21.47 LIG-0.27  OA
ATOM      3  N   ILE C   9       0.386  23.212  46.665  1.00 23.49 LIG-0.35  N 
ATOM      4 H    ILE C   9       0.069  22.657  47.241  1.00 23.49 LIG 0.16  HD
ENDROOT
BRANCH 3 5
ATOM      5  CA  ILE C   9       1.472  24.047  47.167  1.00 20.80 LIG 0.18  C 
BRANCH 5 6
ATOM      6  CB  ILE C   9       1.370  24.261  48.687  1.00 28.93 LIG 0.01  C 
ATOM      7  CG2 ILE C   9       2.657  24.904  49.230  1.00 27.59 LIG 0.01  C 
BRANCH 6 8
ATOM      8  CG1 ILE C   9       0.111  25.053  49.056  1.00 40.08 LIG 0.00  C 
ATOM      9  CD1 ILE C   9       0.171  25.754  50.391  1.00 35.68 LIG 0.01  C 
ENDBRANCH 6 8
ENDBRANCH 5 6
BRANCH 5 10
ATOM     10  C   ILE C   9       2.801  23.363  46.896  1.00 29.58 LIG 0.24  C 
ATOM     11  N   ILE C  10       3.857  24.154  46.737  1.00 24.64 LIG-0.34  N 
ATOM     12 H    ILE C  10       3.823  25.013  46.770  1.00 24.64 LIG 0.16  HD
ATOM     13 O    ILE C   9       2.869  22.136  46.834  1.00 37.49 LIG-0.27  OA
BRANCH 11 14
ATOM     14  CA  ILE C  10       5.187  23.614  46.490  1.00 23.95 LIG 0.19  C 
BRANCH 14 15
ATOM     15  CB  ILE C  10       5.550  23.608  44.982  1.00 22.27 LIG 0.01  C 
ATOM     16  CG2 ILE C  10       6.404  22.388  44.645  1.00 24.85 LIG 0.01  C 
BRANCH 15 17
ATOM     17  CG1 ILE C  10       4.289  23.648  44.115  1.00 32.35 LIG 0.00  C 
ATOM     18  CD1 ILE C  10       4.231  22.523  43.082  1.00 31.42 LIG 0.01  C 
ENDBRANCH 15 17
ENDBRANCH 14 15
BRANCH 14 19
ATOM     19  C   ILE C  10       6.235  24.437  47.223  1.00 24.88 LIG 0.20  C 
ATOM     20 OXT  ILE C  10       7.234  23.894  47.694  1.00 25.96 LIG-0.65  OA
ATOM     21 O    ILE C  10       6.109  25.654  47.337  1.00 20.25 LIG-0.65  OA
ENDBRANCH 14 19
ENDBRANCH 11 14
ENDBRANCH 5 10
ENDBRANCH 3 5
BRANCH 1 22
ATOM     22  CA  SER C   8      -1.135  22.321  44.998  1.00 22.40 LIG 0.20  C 
BRANCH 22 23
ATOM     23  N   SER C   8      -2.087  22.890  44.052  1.00 32.61 LIG-0.34  N 
ATOM     24 H    SER C   8      -1.768  23.408  43.443  1.00 32.61 LIG 0.16  HD
ATOM     25  C   ASP C   7      -3.359  22.553  44.220  1.00 44.43 LIG 0.26  C 
ATOM     26 O    ASP C   7      -3.709  21.665  44.974  1.00 41.29 LIG-0.27  OA
BRANCH 25 27
ATOM     27  CA  ASP C   7      -4.423  23.287  43.481  1.00 57.36 LIG 0.41  C 
ATOM     28  N   ASP C   7      -4.093  24.685  43.571  1.00 63.06 LIG 0.61  N 
BRANCH 27 29
ATOM     29  CB  ASP C   7      -4.391  22.895  42.025  1.00 56.13 LIG 0.16  C 
BRANCH 29 30
ATOM     30  CG  ASP C   7      -5.221  23.787  41.211  1.00 57.80 LIG 0.17  C 
ATOM     31 OD2  ASP C   7      -5.141  23.779  40.021  1.00 66.43 LIG-0.65  OA
ATOM     32 OD1  ASP C   7      -5.993  24.504  41.811  1.00 48.55 LIG-0.65  OA
ENDBRANCH 29 30
ENDBRANCH 27 29
ENDBRANCH 25 27
ENDBRANCH 22 23
BRANCH 22 33
ATOM     33  CB  SER C   8      -0.473  21.097  44.379  1.00 17.52 LIG 0.20  C 
BRANCH 33 34
ATOM     34 OG   SER C   8      -1.448  20.185  43.919  1.00 22.08 LIG-0.40  OA
ATOM     35 HG   SER C   8      -1.823  20.497  43.236  1.00 22.08 LIG 0.21  HD
ENDBRANCH 33 34
ENDBRANCH 22 33
ENDBRANCH 1 22
TORSDOF 15
ENDMDL
MODEL 2
USER: ADFR SOLUTION from run 156
USER: SCORE 13.671053 LL:  -3.142 LR: -10.667 RR:   0.000 FEB:  -6.193
USER: RMSD 0.918080
USER: SEED 155
USER: STATUS no improvement in best in 1 clusters for 5 generations
USER: GENES 17
USER: genes 0 Translation |==|  0.47601 0.44143 0.42077
USER: genes 1 Rotation |==|  0.42685 0.48366 0.44598 0.99139
USER: genes 2 Torsion [C]-N--CA-[C] |==|  0.81161
USER: genes 3 Torsion [N]-CA--CB-[CG1] |==|  0.82082
USER: genes 4 Torsion [CA]-CB--CG1-[CD1] |==|  0.52939
USER: genes 5 Torsion [N]-CA--C-[N] |==|  0.39629
USER: genes 6 Torsion [C]-N--CA-[CB] |==|  0.27549
USER: genes 7 Torsion [N]-CA--CB-[CG2] |==|  0.60160
USER: genes 8 Torsion [CA]-CB--CG1-[CD1] |==|  0.68783
USER: genes 9 Torsion [N]-CA--C-[O] |==|  0.89266
USER: genes 10 Torsion [N]-C--CA-[N] |==|  0.31676
USER: genes 11 Torsion [C]-CA--N-[C] |==|  0.76467
USER: genes 12 Torsion [N]-C--CA-[N] |==|  0.33986
USER: genes 13 Torsion [C]-CA--CB-[CG] |==|  0.51596
USER: genes 14 Torsion [CA]-CB--CG-[OD2] |==|  0.51292
USER: genes 15 Torsion [C]-CA--CB-[OG] |==|  0.45496
USER: genes 16 Torsion [CA]-CB--OG-[HG] |==|  0.25048
ROOT
ATOM      1  C   SER C   8       0.355  23.606  45.644  1.00 23.80 LIG 0.24  C 
ATOM      2 O    SER C   8       1.079  24.154  44.814  1.00 21.47 LIG-0.27  OA
ATOM      3  N   ILE C   9       0.572  23.674  46.956  1.00 23.49 LIG-0.35  N 
ATOM      4 H    ILE C   9       0.050  23.329  47.546  1.00 23.49 LIG 0.16  HD
ENDROOT
BRANCH 3 5
ATOM      5  CA  ILE C   9       1.739  24.355  47.509  1.00 20.80 LIG 0.18  C 
BRANCH 5 6
ATOM      6  CB  ILE C   9       1.678  24.433  49.044  1.00 28.93 LIG 0.01  C 
ATOM      7  CG2 ILE C   9       3.025  24.908  49.614  1.00 27.59 LIG 0.01  C 
BRANCH 6 8
ATOM      8  CG1 ILE C   9       0.499  25.291  49.514  1.00 40.08 LIG 0.00  C 
ATOM      9  CD1 ILE C   9       0.506  25.628  50.985  1.00 35.68 LIG 0.01  C 
ENDBRANCH 6 8
ENDBRANCH 5 6
BRANCH 5 10
ATOM     10  C   ILE C   9       2.993  23.581  47.144  1.00 29.58 LIG 0.24  C 
ATOM     11  N   ILE C  10       4.074  24.299  46.855  1.00 24.64 LIG-0.34  N 
ATOM     12 H    ILE C  10       4.092  25.159  46.854  1.00 24.64 LIG 0.16  HD
ATOM     13 O    ILE C   9       2.984  22.350  47.129  1.00 37.49 LIG-0.27  OA
BRANCH 11 14
ATOM     14  CA  ILE C  10       5.341  23.670  46.509  1.00 23.95 LIG 0.19  C 
BRANCH 14 15
ATOM     15  CB  ILE C  10       5.578  23.628  44.977  1.00 22.27 LIG 0.01  C 
ATOM     16  CG2 ILE C  10       6.281  22.330  44.582  1.00 24.85 LIG 0.01  C 
BRANCH 15 17
ATOM     17  CG1 ILE C  10       4.262  23.790  44.213  1.00 32.35 LIG 0.00  C 
ATOM     18  CD1 ILE C  10       3.842  22.529  43.458  1.00 31.42 LIG 0.01  C 
ENDBRANCH 15 17
ENDBRANCH 14 15
BRANCH 14 19
ATOM     19  C   ILE C  10       6.497  24.426  47.144  1.00 24.88 LIG 0.20  C 
ATOM     20 OXT  ILE C  10       7.470  23.817  47.586  1.00 25.96 LIG-0.65  OA
ATOM     21 O    ILE C  10       6.483  25.654  47.207  1.00 20.25 LIG-0.65  OA
ENDBRANCH 14 19
ENDBRANCH 11 14
ENDBRANCH 5 10
ENDBRANCH 3 5
BRANCH 1 22
ATOM     22  CA  SER C   8      -0.852  22.786  45.203  1.00 22.40 LIG 0.20  C 
BRANCH 22 23
ATOM     23  N   SER C   8      -1.886  23.606  44.582  1.00 32.61 LIG-0.34  N 
ATOM     24 H    SER C   8      -1.878  23.657  43.724  1.00 32.61 LIG 0.16  HD
ATOM     25  C   ASP C   7      -2.744  24.196  45.405  1.00 44.43 LIG 0.26  C 
ATOM     26 O    ASP C   7      -2.814  23.920  46.588  1.00 41.29 LIG-0.27  OA
BRANCH 25 27
ATOM     27  CA  ASP C   7      -3.656  25.253  44.889  1.00 57.36 LIG 0.41  C 
ATOM     28  N   ASP C   7      -4.996  24.810  45.170  1.00 63.06 LIG 0.61  N 
BRANCH 27 29
ATOM     29  CB  ASP C   7      -3.422  26.536  45.649  1.00 56.13 LIG 0.16  C 
BRANCH 29 30
ATOM     30  CG  ASP C   7      -4.391  27.568  45.268  1.00 57.80 LIG 0.17  C 
ATOM     31 OD2  ASP C   7      -4.308  28.675  45.706  1.00 66.43 LIG-0.65  OA
ATOM     32 OD1  ASP C   7      -5.252  27.237  44.481  1.00 48.55 LIG-0.65  OA
ENDBRANCH 29 30
ENDBRANCH 27 29
ENDBRANCH 25 27
ENDBRANCH 22 23
BRANCH 22 33
ATOM     33  CB  SER C   8      -0.399  21.711  44.224  1.00 17.52 LIG 0.20  C 
BRANCH 33 34
ATOM     34 OG   SER C   8      -1.393  20.719  44.084  1.00 22.08 LIG-0.40  OA
ATOM     35 HG   SER C   8      -1.911  20.928  43.457  1.00 22.08 LIG 0.21  HD
ENDBRANCH 33 34
ENDBRANCH 22 33
ENDBRANCH 1 22
TORSDOF 15
ENDMDL
MODEL 3
USER: ADFR SOLUTION from run 157
USER: SCORE 13.055809 LL:  -3.382 LR:  -9.991 RR:   0.000 FEB:  -5.517
USER: RMSD 4.383993
USER: SEED 156
USER: STATUS no improvement in best in 6 clusters for 5 generations
USER: GENES 17
USER: genes 0 Translation |==|  0.43082 0.45292 0.37578
USER: genes 1 Rotation |==|  0.71372 0.62773 0.66260 0.90196
USER: genes 2 Torsion [C]-N--CA-[C] |==|  0.54452
USER: genes 3 Torsion [N]-CA--CB-[CG1] |==|  0.51904
USER: genes 4 Torsion [CA]-CB--CG1-[CD1] |==|  0.70029
USER: genes 5 Torsion [N]-CA--C-[N] |==|  0.42778
USER: genes 6 Torsion [C]-N--CA-[CB] |==|  0.22629
USER: genes 7 Torsion [N]-CA--CB-[CG2] |==|  0.65177
USER: genes 8 Torsion [CA]-CB--CG1-[CD1] |==|  0.70404
USER: genes 9 Torsion [N]-CA--C-[O] |==|  0.92463
USER: genes 10 Torsion [N]-C--CA-[N] |==|  0.07336
USER: genes 11 Torsion [C]-CA--N-[C] |==|  0.17462
USER: genes 12 Torsion [N]-C--CA-[N] |==|  0.79927
USER: genes 13 Torsion [C]-CA--CB-[CG] |==|  0.64362
USER: genes 14 Torsion [CA]-CB--CG-[OD2] |==|  0.75690
USER: genes 15 Torsion [C]-CA--CB-[OG] |==|  0.39158
USER: genes 16 Torsion [CA]-CB--OG-[HG] |==|  0.85544
ROOT
ATOM      1  C   SER C   8      -0.594  23.787  44.969  1.00 23.80 LIG 0.24  C 
ATOM      2 O    SER C   8      -0.982  24.893  45.343  1.00 21.47 LIG-0.27  OA
ATOM      3  N   ILE C   9       0.569  23.258  45.345  1.00 23.49 LIG-0.35  N 
ATOM      4 H    ILE C   9       0.832  22.470  45.121  1.00 23.49 LIG 0.16  HD
ENDROOT
BRANCH 3 5
ATOM      5  CA  ILE C   9       1.512  23.991  46.185  1.00 20.80 LIG 0.18  C 
BRANCH 5 6
ATOM      6  CB  ILE C   9       1.076  23.995  47.660  1.00 28.93 LIG 0.01  C 
ATOM      7  CG2 ILE C   9       1.001  22.559  48.205  1.00 27.59 LIG 0.01  C 
BRANCH 6 8
ATOM      8  CG1 ILE C   9       1.975  24.904  48.505  1.00 40.08 LIG 0.00  C 
ATOM      9  CD1 ILE C   9       2.916  24.178  49.435  1.00 35.68 LIG 0.01  C 
ENDBRANCH 6 8
ENDBRANCH 5 6
BRANCH 5 10
ATOM     10  C   ILE C   9       2.873  23.321  46.117  1.00 29.58 LIG 0.24  C 
ATOM     11  N   ILE C  10       3.929  24.092  46.353  1.00 24.64 LIG-0.34  N 
ATOM     12 H    ILE C  10       3.881  24.933  46.527  1.00 24.64 LIG 0.16  HD
ATOM     13 O    ILE C   9       2.965  22.121  45.859  1.00 37.49 LIG-0.27  OA
BRANCH 11 14
ATOM     14  CA  ILE C  10       5.285  23.559  46.335  1.00 23.95 LIG 0.19  C 
BRANCH 14 15
ATOM     15  CB  ILE C  10       5.853  23.442  44.897  1.00 22.27 LIG 0.01  C 
ATOM     16  CG2 ILE C  10       6.330  22.017  44.626  1.00 24.85 LIG 0.01  C 
BRANCH 15 17
ATOM     17  CG1 ILE C  10       4.814  23.876  43.860  1.00 32.35 LIG 0.00  C 
ATOM     18  CD1 ILE C  10       4.212  22.706  43.082  1.00 31.42 LIG 0.01  C 
ENDBRANCH 15 17
ENDBRANCH 14 15
BRANCH 14 19
ATOM     19  C   ILE C  10       6.215  24.456  47.137  1.00 24.88 LIG 0.20  C 
ATOM     20 OXT  ILE C  10       7.234  23.994  47.651  1.00 25.96 LIG-0.65  OA
ATOM     21 O    ILE C  10       5.973  25.654  47.267  1.00 20.25 LIG-0.65  OA
ENDBRANCH 14 19
ENDBRANCH 11 14
ENDBRANCH 5 10
ENDBRANCH 3 5
BRANCH 1 22
ATOM     22  CA  SER C   8      -1.438  22.947  44.018  1.00 22.40 LIG 0.20  C 
BRANCH 22 23
ATOM     23  N   SER C   8      -1.170  21.520  44.148  1.00 32.61 LIG-0.34  N 
ATOM     24 H    SER C   8      -0.847  21.120  43.458  1.00 32.61 LIG 0.16  HD
ATOM     25  C   ASP C   7      -1.452  20.972  45.323  1.00 44.43 LIG 0.26  C 
ATOM     26 O    ASP C   7      -1.719  21.634  46.309  1.00 41.29 LIG-0.27  OA
BRANCH 25 27
ATOM     27  CA  ASP C   7      -1.467  19.490  45.465  1.00 57.36 LIG 0.41  C 
ATOM     28  N   ASP C   7      -2.647  19.026  44.784  1.00 63.06 LIG 0.61  N 
BRANCH 27 29
ATOM     29  CB  ASP C   7      -0.266  18.903  44.764  1.00 56.13 LIG 0.16  C 
BRANCH 29 30
ATOM     30  CG  ASP C   7      -0.655  17.838  43.836  1.00 57.80 LIG 0.17  C 
ATOM     31 OD2  ASP C   7      -0.759  16.710  44.209  1.00 66.43 LIG-0.65  OA
ATOM     32 OD1  ASP C   7      -0.877  18.173  42.692  1.00 48.55 LIG-0.65  OA
ENDBRANCH 29 30
ENDBRANCH 27 29
ENDBRANCH 25 27
ENDBRANCH 22 23
BRANCH 22 33
ATOM     33  CB  SER C   8      -2.913  23.215  44.285  1.00 17.52 LIG 0.20  C 
BRANCH 33 34
ATOM     34 OG   SER C   8      -3.636  23.258  43.073  1.00 22.08 LIG-0.40  OA
ATOM     35 HG   SER C   8      -3.265  23.795  42.544  1.00 22.08 LIG 0.21  HD
ENDBRANCH 33 34
ENDBRANCH 22 33
ENDBRANCH 1 22
TORSDOF 15
ENDMDL
MODEL 4
USER: ADFR SOLUTION from run 168
USER: SCORE 12.778628 LL:  -3.654 LR:  -9.185 RR:   0.000 FEB:  -4.711
USER: RMSD 4.861548
USER: SEED 167
USER: STATUS 1 or 2 clusters left
USER: GENES 17
USER: genes 0 Translation |==|  0.47844 0.43537 0.40339
USER: genes 1 Rotation |==|  0.44279 0.48115 0.46089 0.99482
USER: genes 2 Torsion [C]-N--CA-[C] |==|  0.79319
USER: genes 3 Torsion [N]-CA--CB-[CG1] |==|  0.80932
USER: genes 4 Torsion [CA]-CB--CG1-[CD1] |==|  0.21735
USER: genes 5 Torsion [N]-CA--C-[N] |==|  0.38894
USER: genes 6 Torsion [C]-N--CA-[CB] |==|  0.27783
USER: genes 7 Torsion [N]-CA--CB-[CG2] |==|  0.62767
USER: genes 8 Torsion [CA]-CB--CG1-[CD1] |==|  0.65670
USER: genes 9 Torsion [N]-CA--C-[O] |==|  0.90558
USER: genes 10 Torsion [N]-C--CA-[N] |==|  0.90578
USER: genes 11 Torsion [C]-CA--N-[C] |==|  0.83735
USER: genes 12 Torsion [N]-C--CA-[N] |==|  0.36623
USER: genes 13 Torsion [C]-CA--CB-[CG] |==|  0.65175
USER: genes 14 Torsion [CA]-CB--CG-[OD2] |==|  0.74307
USER: genes 15 Torsion [C]-CA--CB-[OG] |==|  0.05083
USER: genes 16 Torsion [CA]-CB--OG-[HG] |==|  0.21527
ROOT
ATOM      1  C   SER C   8       0.406  23.511  45.383  1.00 23.80 LIG 0.24  C 
ATOM      2 O    SER C   8       1.098  24.154  44.595  1.00 21.47 LIG-0.27  OA
ATOM      3  N   ILE C   9       0.611  23.511  46.699  1.00 23.49 LIG-0.35  N 
ATOM      4 H    ILE C   9       0.108  23.097  47.262  1.00 23.49 LIG 0.16  HD
ENDROOT
BRANCH 3 5
ATOM      5  CA  ILE C   9       1.728  24.229  47.304  1.00 20.80 LIG 0.18  C 
BRANCH 5 6
ATOM      6  CB  ILE C   9       1.570  24.349  48.829  1.00 28.93 LIG 0.01  C 
ATOM      7  CG2 ILE C   9       2.899  24.767  49.479  1.00 27.59 LIG 0.01  C 
BRANCH 6 8
ATOM      8  CG1 ILE C   9       0.410  25.281  49.198  1.00 40.08 LIG 0.00  C 
ATOM      9  CD1 ILE C   9      -0.962  24.665  49.075  1.00 35.68 LIG 0.01  C 
ENDBRANCH 6 8
ENDBRANCH 5 6
BRANCH 5 10
ATOM     10  C   ILE C   9       3.017  23.469  47.042  1.00 29.58 LIG 0.24  C 
ATOM     11  N   ILE C  10       4.089  24.197  46.746  1.00 24.64 LIG-0.34  N 
ATOM     12 H    ILE C  10       4.085  25.054  46.687  1.00 24.64 LIG 0.16  HD
ATOM     13 O    ILE C   9       3.040  22.240  47.110  1.00 37.49 LIG-0.27  OA
BRANCH 11 14
ATOM     14  CA  ILE C  10       5.385  23.582  46.493  1.00 23.95 LIG 0.19  C 
BRANCH 14 15
ATOM     15  CB  ILE C  10       5.695  23.463  44.978  1.00 22.27 LIG 0.01  C 
ATOM     16  CG2 ILE C  10       6.233  22.071  44.651  1.00 24.85 LIG 0.01  C 
BRANCH 15 17
ATOM     17  CG1 ILE C  10       4.455  23.780  44.138  1.00 32.35 LIG 0.00  C 
ATOM     18  CD1 ILE C  10       4.067  22.651  43.184  1.00 31.42 LIG 0.01  C 
ENDBRANCH 15 17
ENDBRANCH 14 15
BRANCH 14 19
ATOM     19  C   ILE C  10       6.492  24.401  47.137  1.00 24.88 LIG 0.20  C 
ATOM     20 OXT  ILE C  10       7.498  23.847  47.580  1.00 25.96 LIG-0.65  OA
ATOM     21 O    ILE C  10       6.407  25.625  47.207  1.00 20.25 LIG-0.65  OA
ENDBRANCH 14 19
ENDBRANCH 11 14
ENDBRANCH 5 10
ENDBRANCH 3 5
BRANCH 1 22
ATOM     22  CA  SER C   8      -0.743  22.645  44.881  1.00 22.40 LIG 0.20  C 
BRANCH 22 23
ATOM     23  N   SER C   8      -0.916  21.434  45.675  1.00 32.61 LIG-0.34  N 
ATOM     24 H    SER C   8      -1.682  21.321  46.050  1.00 32.61 LIG 0.16  HD
ATOM     25  C   ASP C   7       0.128  20.619  45.743  1.00 44.43 LIG 0.26  C 
ATOM     26 O    ASP C   7       1.107  20.746  45.031  1.00 41.29 LIG-0.27  OA
BRANCH 25 27
ATOM     27  CA  ASP C   7       0.138  19.509  46.735  1.00 57.36 LIG 0.41  C 
ATOM     28  N   ASP C   7       0.533  18.325  46.019  1.00 63.06 LIG 0.61  N 
BRANCH 27 29
ATOM     29  CB  ASP C   7       1.181  19.783  47.790  1.00 56.13 LIG 0.16  C 
BRANCH 29 30
ATOM     30  CG  ASP C   7       2.121  18.667  47.918  1.00 57.80 LIG 0.17  C 
ATOM     31 OD2  ASP C   7       1.932  17.795  48.710  1.00 66.43 LIG-0.65  OA
ATOM     32 OD1  ASP C   7       3.075  18.675  47.168  1.00 48.55 LIG-0.65  OA
ENDBRANCH 29 30
ENDBRANCH 27 29
ENDBRANCH 25 27
ENDBRANCH 22 23
BRANCH 22 33
ATOM     33  CB  SER C   8      -2.031  23.457  44.904  1.00 17.52 LIG 0.20  C 
BRANCH 33 34
ATOM     34 OG   SER C   8      -1.745  24.838  44.968  1.00 22.08 LIG-0.40  OA
ATOM     35 HG   SER C   8      -1.513  25.112  44.208  1.00 22.08 LIG 0.21  HD
ENDBRANCH 33 34
ENDBRANCH 22 33
ENDBRANCH 1 22
TORSDOF 15
ENDMDL
MODEL 5
USER: ADFR SOLUTION from run 91
USER: SCORE 12.009367 LL:  -2.922 LR:  -9.152 RR:   0.000 FEB:  -4.678
USER: RMSD 2.675859
USER: SEED 90
USER: STATUS no improvement in best in 2 clusters for 5 generations
USER: GENES 17
USER: genes 0 Translation |==|  0.49023 0.45483 0.43342
USER: genes 1 Rotation |==|  0.47150 0.55200 0.44605 0.99353
USER: genes 2 Torsion [C]-N--CA-[C] |==|  0.82750
USER: genes 3 Torsion [N]-CA--CB-[CG1] |==|  0.61053
USER: genes 4 Torsion [CA]-CB--CG1-[CD1] |==|  0.77389
USER: genes 5 Torsion [N]-CA--C-[N] |==|  0.41661
USER: genes 6 Torsion [C]-N--CA-[CB] |==|  0.86589
USER: genes 7 Torsion [N]-CA--CB-[CG2] |==|  0.34196
USER: genes 8 Torsion [CA]-CB--CG1-[CD1] |==|  0.25330
USER: genes 9 Torsion [N]-CA--C-[O] |==|  0.89414
USER: genes 10 Torsion [N]-C--CA-[N] |==|  0.38073
USER: genes 11 Torsion [C]-CA--N-[C] |==|  0.79434
USER: genes 12 Torsion [N]-C--CA-[N] |==|  0.16418
USER: genes 13 Torsion [C]-CA--CB-[CG] |==|  0.53213
USER: genes 14 Torsion [CA]-CB--CG-[OD2] |==|  0.68952
USER: genes 15 Torsion [C]-CA--CB-[OG] |==|  0.53236
USER: genes 16 Torsion [CA]-CB--OG-[HG] |==|  0.34868
ROOT
ATOM      1  C   SER C   8       0.654  23.818  45.833  1.00 23.80 LIG 0.24  C 
ATOM      2 O    SER C   8       1.185  24.521  44.975  1.00 21.47 LIG-0.27  OA
ATOM      3  N   ILE C   9       1.186  23.610  47.036  1.00 23.49 LIG-0.35  N 
ATOM      4 H    ILE C   9       0.804  23.153  47.657  1.00 23.49 LIG 0.16  HD
ENDROOT
BRANCH 3 5
ATOM      5  CA  ILE C   9       2.490  24.153  47.405  1.00 20.80 LIG 0.18  C 
BRANCH 5 6
ATOM      6  CB  ILE C   9       2.871  23.789  48.849  1.00 28.93 LIG 0.01  C 
ATOM      7  CG2 ILE C   9       3.717  22.504  48.877  1.00 27.59 LIG 0.01  C 
BRANCH 6 8
ATOM      8  CG1 ILE C   9       3.553  24.963  49.561  1.00 40.08 LIG 0.00  C 
ATOM      9  CD1 ILE C   9       5.022  25.121  49.256  1.00 35.68 LIG 0.01  C 
ENDBRANCH 6 8
ENDBRANCH 5 6
BRANCH 5 10
ATOM     10  C   ILE C   9       3.556  23.567  46.495  1.00 29.58 LIG 0.24  C 
ATOM     11  N   ILE C  10       4.615  24.331  46.248  1.00 24.64 LIG-0.34  N 
ATOM     12 H    ILE C  10       4.717  25.125  46.562  1.00 24.64 LIG 0.16  HD
ATOM     13 O    ILE C   9       3.422  22.437  46.025  1.00 37.49 LIG-0.27  OA
BRANCH 11 14
ATOM     14  CA  ILE C  10       5.710  23.872  45.405  1.00 23.95 LIG 0.19  C 
BRANCH 14 15
ATOM     15  CB  ILE C  10       6.195  22.451  45.792  1.00 22.27 LIG 0.01  C 
ATOM     16  CG2 ILE C  10       6.107  21.512  44.590  1.00 24.85 LIG 0.01  C 
BRANCH 15 17
ATOM     17  CG1 ILE C  10       7.619  22.490  46.350  1.00 32.35 LIG 0.00  C 
ATOM     18  CD1 ILE C  10       7.668  22.654  47.869  1.00 31.42 LIG 0.01  C 
ENDBRANCH 15 17
ENDBRANCH 14 15
BRANCH 14 19
ATOM     19  C   ILE C  10       5.277  23.841  43.947  1.00 24.88 LIG 0.20  C 
ATOM     20 OXT  ILE C  10       6.067  24.154  43.057  1.00 25.96 LIG-0.65  OA
ATOM     21 O    ILE C  10       4.142  23.487  43.638  1.00 20.25 LIG-0.65  OA
ENDBRANCH 14 19
ENDBRANCH 11 14
ENDBRANCH 5 10
ENDBRANCH 3 5
BRANCH 1 22
ATOM     22  CA  SER C   8      -0.669  23.115  45.554  1.00 22.40 LIG 0.20  C 
BRANCH 22 23
ATOM     23  N   SER C   8      -1.627  23.980  44.875  1.00 32.61 LIG-0.34  N 
ATOM     24 H    SER C   8      -1.766  23.827  44.040  1.00 32.61 LIG 0.16  HD
ATOM     25  C   ASP C   7      -2.196  24.924  45.613  1.00 44.43 LIG 0.26  C 
ATOM     26 O    ASP C   7      -2.101  24.955  46.826  1.00 41.29 LIG-0.27  OA
BRANCH 25 27
ATOM     27  CA  ASP C   7      -2.972  26.011  44.956  1.00 57.36 LIG 0.41  C 
ATOM     28  N   ASP C   7      -4.030  25.371  44.220  1.00 63.06 LIG 0.61  N 
BRANCH 27 29
ATOM     29  CB  ASP C   7      -3.604  26.889  46.008  1.00 56.13 LIG 0.16  C 
BRANCH 29 30
ATOM     30  CG  ASP C   7      -4.591  27.801  45.423  1.00 57.80 LIG 0.17  C 
ATOM     31 OD2  ASP C   7      -4.392  28.976  45.390  1.00 66.43 LIG-0.65  OA
ATOM     32 OD1  ASP C   7      -5.593  27.292  44.968  1.00 48.55 LIG-0.65  OA
ENDBRANCH 29 30
ENDBRANCH 27 29
ENDBRANCH 25 27
ENDBRANCH 22 23
BRANCH 22 33
ATOM     33  CB  SER C   8      -0.412  21.877  44.706  1.00 17.52 LIG 0.20  C 
BRANCH 33 34
ATOM     34 OG   SER C   8      -1.626  21.355  44.208  1.00 22.08 LIG-0.40  OA
ATOM     35 HG   SER C   8      -1.580  21.286  43.372  1.00 22.08 LIG 0.21  HD
ENDBRANCH 33 34
ENDBRANCH 22 33
ENDBRANCH 1 22
TORSDOF 15
ENDMDL
MODEL 6
USER: ADFR SOLUTION from run 146
USER: SCORE 12.319953 LL:  -3.466 LR:  -9.077 RR:   0.000 FEB:  -4.602
USER: RMSD 3.728756
USER: SEED 145
USER: STATUS no improvement in best in 4 clusters for 5 generations
USER: GENES 17
USER: genes 0 Translation |==|  0.45202 0.40597 0.39612
USER: genes 1 Rotation |==|  0.43573 0.56349 0.52531 0.99112
USER: genes 2 Torsion [C]-N--CA-[C] |==|  0.71670
USER: genes 3 Torsion [N]-CA--CB-[CG1] |==|  0.26726
USER: genes 4 Torsion [CA]-CB--CG1-[CD1] |==|  0.31051
USER: genes 5 Torsion [N]-CA--C-[N] |==|  0.45494
USER: genes 6 Torsion [C]-N--CA-[CB] |==|  0.28316
USER: genes 7 Torsion [N]-CA--CB-[CG2] |==|  0.62699
USER: genes 8 Torsion [CA]-CB--CG1-[CD1] |==|  0.70357
USER: genes 9 Torsion [N]-CA--C-[O] |==|  0.92086
USER: genes 10 Torsion [N]-C--CA-[N] |==|  0.07778
USER: genes 11 Torsion [C]-CA--N-[C] |==|  0.16916
USER: genes 12 Torsion [N]-C--CA-[N] |==|  0.84447
USER: genes 13 Torsion [C]-CA--CB-[CG] |==|  0.73134
USER: genes 14 Torsion [CA]-CB--CG-[OD2] |==|  0.27045
USER: genes 15 Torsion [C]-CA--CB-[OG] |==|  0.89911
USER: genes 16 Torsion [CA]-CB--OG-[HG] |==|  0.20503
ROOT
ATOM      1  C   SER C   8      -0.149  23.048  45.274  1.00 23.80 LIG 0.24  C 
ATOM      2 O    SER C   8       0.073  23.779  44.309  1.00 21.47 LIG-0.27  OA
ATOM      3  N   ILE C   9       0.496  23.158  46.434  1.00 23.49 LIG-0.35  N 
ATOM      4 H    ILE C   9       0.321  22.679  47.127  1.00 23.49 LIG 0.16  HD
ENDROOT
BRANCH 3 5
ATOM      5  CA  ILE C   9       1.574  24.124  46.626  1.00 20.80 LIG 0.18  C 
BRANCH 5 6
ATOM      6  CB  ILE C   9       1.496  24.796  48.007  1.00 28.93 LIG 0.01  C 
ATOM      7  CG2 ILE C   9       0.037  24.881  48.486  1.00 27.59 LIG 0.01  C 
BRANCH 6 8
ATOM      8  CG1 ILE C   9       2.413  24.101  49.020  1.00 40.08 LIG 0.00  C 
ATOM      9  CD1 ILE C   9       3.596  24.920  49.471  1.00 35.68 LIG 0.01  C 
ENDBRANCH 6 8
ENDBRANCH 5 6
BRANCH 5 10
ATOM     10  C   ILE C   9       2.911  23.408  46.547  1.00 29.58 LIG 0.24  C 
ATOM     11  N   ILE C  10       3.985  24.170  46.369  1.00 24.64 LIG-0.34  N 
ATOM     12 H    ILE C  10       3.959  25.025  46.288  1.00 24.64 LIG 0.16  HD
ATOM     13 O    ILE C   9       2.969  22.182  46.649  1.00 37.49 LIG-0.27  OA
BRANCH 11 14
ATOM     14  CA  ILE C  10       5.324  23.600  46.295  1.00 23.95 LIG 0.19  C 
BRANCH 14 15
ATOM     15  CB  ILE C  10       5.845  23.505  44.838  1.00 22.27 LIG 0.01  C 
ATOM     16  CG2 ILE C  10       6.475  22.137  44.584  1.00 24.85 LIG 0.01  C 
BRANCH 15 17
ATOM     17  CG1 ILE C  10       4.722  23.783  43.835  1.00 32.35 LIG 0.00  C 
ATOM     18  CD1 ILE C  10       4.234  22.529  43.111  1.00 31.42 LIG 0.01  C 
ENDBRANCH 15 17
ENDBRANCH 14 15
BRANCH 14 19
ATOM     19  C   ILE C  10       6.303  24.449  47.091  1.00 24.88 LIG 0.20  C 
ATOM     20 OXT  ILE C  10       7.311  23.940  47.582  1.00 25.96 LIG-0.65  OA
ATOM     21 O    ILE C  10       6.112  25.654  47.238  1.00 20.25 LIG-0.65  OA
ENDBRANCH 14 19
ENDBRANCH 11 14
ENDBRANCH 5 10
ENDBRANCH 3 5
BRANCH 1 22
ATOM     22  CA  SER C   8      -1.188  21.937  45.186  1.00 22.40 LIG 0.20  C 
BRANCH 22 23
ATOM     23  N   SER C   8      -1.770  21.614  46.483  1.00 32.61 LIG-0.34  N 
ATOM     24 H    SER C   8      -1.659  20.811  46.770  1.00 32.61 LIG 0.16  HD
ATOM     25  C   ASP C   7      -2.417  22.594  47.100  1.00 44.43 LIG 0.26  C 
ATOM     26 O    ASP C   7      -2.365  23.751  46.727  1.00 41.29 LIG-0.27  OA
BRANCH 25 27
ATOM     27  CA  ASP C   7      -3.264  22.291  48.286  1.00 57.36 LIG 0.41  C 
ATOM     28  N   ASP C   7      -4.216  21.296  47.865  1.00 63.06 LIG 0.61  N 
BRANCH 27 29
ATOM     29  CB  ASP C   7      -2.412  21.687  49.375  1.00 56.13 LIG 0.16  C 
BRANCH 29 30
ATOM     30  CG  ASP C   7      -2.485  20.223  49.363  1.00 57.80 LIG 0.17  C 
ATOM     31 OD2  ASP C   7      -1.642  19.574  48.823  1.00 66.43 LIG-0.65  OA
ATOM     32 OD1  ASP C   7      -3.426  19.724  49.942  1.00 48.55 LIG-0.65  OA
ENDBRANCH 29 30
ENDBRANCH 27 29
ENDBRANCH 25 27
ENDBRANCH 22 23
BRANCH 22 33
ATOM     33  CB  SER C   8      -2.292  22.357  44.223  1.00 17.52 LIG 0.20  C 
BRANCH 33 34
ATOM     34 OG   SER C   8      -2.546  23.741  44.334  1.00 22.08 LIG-0.40  OA
ATOM     35 HG   SER C   8      -1.920  24.171  43.975  1.00 22.08 LIG 0.21  HD
ENDBRANCH 33 34
ENDBRANCH 22 33
ENDBRANCH 1 22
TORSDOF 15
ENDMDL
