MODEL 1
USER: ADFR SOLUTION from run 75
USER: SCORE 24.518179 LL:  -4.671 LR: -21.259 RR:   0.000 FEB: -11.713
USER: RMSD 1.729379
USER: SEED 74
USER: STATUS searching
USER: GENES 34
USER: genes 0 Translation |==|  0.55324 0.50381 0.53150
USER: genes 1 Rotation |==|  0.54862 0.50642 0.54535 0.99552
USER: genes 2 Torsion [C]-N--CA-[C] |==|  0.65007
USER: genes 3 Torsion [N]-CA--C-[N] |==|  0.38098
USER: genes 4 Torsion [C]-N--CA-[C] |==|  0.58584
USER: genes 5 Torsion [N]-CA--C-[N] |==|  0.33284
USER: genes 6 Torsion [C]-N--CA-[CB] |==|  0.48485
USER: genes 7 Torsion [N]-CA--CB-[CG] |==|  0.73158
USER: genes 8 Torsion [CA]-CB--CG-[CD] |==|  0.24435
USER: genes 9 Torsion [CB]-CG--CD-[NE] |==|  0.44051
USER: genes 10 Torsion [CG]-CD--NE-[CZ] |==|  0.29559
USER: genes 11 Torsion [N]-CA--C-[N] |==|  0.42995
USER: genes 12 Torsion [C]-N--CA-[C] |==|  0.61406
USER: genes 13 Torsion [N]-CA--C-[O] |==|  0.94450
USER: genes 14 Torsion [N]-CA--CB-[CG] |==|  0.78619
USER: genes 15 Torsion [CA]-CB--CG-[CD2] |==|  0.76391
USER: genes 16 Torsion [N]-CA--CB-[CG2] |==|  0.48617
USER: genes 17 Torsion [CA]-CB--OG1-[HG1] |==|  0.27563
USER: genes 18 Torsion [N]-CA--CB-[CG] |==|  0.58361
USER: genes 19 Torsion [CA]-CB--CG-[OD2] |==|  0.80725
USER: genes 20 Torsion [N]-C--CA-[N] |==|  0.39975
USER: genes 21 Torsion [C]-CA--CB-[CG] |==|  0.48071
USER: genes 22 Torsion [CA]-CB--CG-[CD] |==|  0.39188
USER: genes 23 Torsion [CB]-CG--CD-[OE1] |==|  0.24085
USER: genes 24 Torsion [C]-CA--N-[C] |==|  0.82619
USER: genes 25 Torsion [N]-C--CA-[N] |==|  0.42036
USER: genes 26 Torsion [C]-CA--CB-[CG] |==|  0.54329
USER: genes 27 Torsion [CA]-CB--CG-[CD1] |==|  0.90538
USER: genes 28 Torsion [C]-CA--N-[C] |==|  0.72064
USER: genes 29 Torsion [N]-C--CA-[N] |==|  0.00583
USER: genes 30 Torsion [C]-CA--CB-[CG] |==|  0.86318
USER: genes 31 Torsion [CA]-CB--CG-[CD] |==|  0.41118
USER: genes 32 Torsion [CB]-CG--CD-[NE] |==|  0.72334
USER: genes 33 Torsion [CG]-CD--NE-[HE] |==|  0.02272
ROOT
ATOM      1  C   GLN B   6      23.374  20.565  34.132  1.00 31.06 LIG 0.24  C 
ATOM      2 O    GLN B   6      22.632  21.477  34.242  1.00 27.89 LIG-0.27  OA
ATOM      3  N   ASP B   7      23.049  19.440  33.548  1.00 28.12 LIG-0.35  N 
ATOM      4 H    ASP B   7      23.582  18.770  33.464  1.00 28.12 LIG 0.16  HD
ENDROOT
BRANCH 3 5
ATOM      5  CA  ASP B   7      21.726  19.233  32.978  1.00 30.55 LIG 0.19  C 
BRANCH 5 6
ATOM      6  C   ASP B   7      21.120  17.961  33.559  1.00 32.99 LIG 0.24  C 
ATOM      7 O    ASP B   7      21.803  16.945  33.686  1.00 33.42 LIG-0.27  OA
ATOM      8  N   THR B   8      19.838  18.012  33.912  1.00 18.35 LIG-0.34  N 
ATOM      9 H    THR B   8      19.317  18.675  33.746  1.00 18.35 LIG 0.16  HD
BRANCH 8 10
ATOM     10  CA  THR B   8      19.207  16.905  34.630  1.00 17.94 LIG 0.20  C 
BRANCH 10 11
ATOM     11  C   THR B   8      17.726  16.758  34.310  1.00 21.68 LIG 0.24  C 
ATOM     12  N   ARG B   9      17.350  15.601  33.775  1.00 16.45 LIG-0.35  N 
ATOM     13 H    ARG B   9      17.901  14.984  33.540  1.00 16.45 LIG 0.16  HD
ATOM     14 O    THR B   8      16.944  17.676  34.538  1.00 15.82 LIG-0.27  OA
BRANCH 12 15
ATOM     15  CA  ARG B   9      15.951  15.274  33.539  1.00 15.69 LIG 0.18  C 
BRANCH 15 16
ATOM     16  CB  ARG B   9      15.840  13.943  32.796  1.00 22.22 LIG 0.04  C 
BRANCH 16 17
ATOM     17  CG  ARG B   9      15.684  14.084  31.300  1.00 27.38 LIG 0.02  C 
BRANCH 17 18
ATOM     18  CD  ARG B   9      17.051  14.149  30.642  1.00 35.32 LIG 0.14  C 
BRANCH 18 19
ATOM     19  NE  ARG B   9      17.006  13.788  29.229  1.00 37.77 LIG-0.23  N 
ATOM     20  CZ  ARG B   9      17.121  14.668  28.238  1.00 46.08 LIG 0.67  C 
ATOM     21  NH2 ARG B   9      17.074  14.263  26.978  1.00 49.48 LIG-0.23  N 
ATOM     22  NH1 ARG B   9      17.277  15.956  28.509  1.00 43.14 LIG-0.23  N 
ATOM     23 2HH2 ARG B   9      17.148  14.834  26.339  1.00 49.48 LIG 0.17  HD
ATOM     24 1HH2 ARG B   9      16.969  13.428  26.798  1.00 49.48 LIG 0.17  HD
ATOM     25 2HH1 ARG B   9      17.351  16.525  27.869  1.00 43.14 LIG 0.17  HD
ATOM     26 1HH1 ARG B   9      17.304  16.223  29.326  1.00 43.14 LIG 0.17  HD
ATOM     27 HE   ARG B   9      16.899  12.959  29.025  1.00 37.77 LIG 0.18  HD
ENDBRANCH 18 19
ENDBRANCH 17 18
ENDBRANCH 16 17
ENDBRANCH 15 16
BRANCH 15 28
ATOM     28  C   ARG B   9      15.147  15.225  34.840  1.00 19.99 LIG 0.24  C 
ATOM     29  N   LEU B  10      13.841  15.454  34.727  1.00 16.17 LIG-0.34  N 
ATOM     30 H    LEU B  10      13.448  15.584  33.973  1.00 16.17 LIG 0.16  HD
ATOM     31 O    ARG B   9      15.698  14.979  35.928  1.00 21.50 LIG-0.27  OA
BRANCH 29 32
ATOM     32  CA  LEU B  10      12.945  15.507  35.876  1.00 18.39 LIG 0.18  C 
BRANCH 32 33
ATOM     33  C   LEU B  10      11.628  14.806  35.582  1.00 17.68 LIG 0.20  C 
ATOM     34 O    LEU B  10      11.265  14.609  34.414  1.00 17.59 LIG-0.65  OA
ATOM     35 OXT  LEU B  10      10.890  14.460  36.503  1.00 18.80 LIG-0.65  OA
ENDBRANCH 32 33
BRANCH 32 36
ATOM     36  CB  LEU B  10      12.650  16.964  36.253  1.00 18.94 LIG 0.04  C 
BRANCH 36 37
ATOM     37  CG  LEU B  10      13.737  17.727  37.010  1.00 21.44 LIG-0.02  C 
ATOM     38  CD2 LEU B  10      13.637  17.463  38.505  1.00 24.01 LIG 0.01  C 
ATOM     39  CD1 LEU B  10      13.648  19.221  36.719  1.00 19.43 LIG 0.01  C 
ENDBRANCH 36 37
ENDBRANCH 32 36
ENDBRANCH 29 32
ENDBRANCH 15 28
ENDBRANCH 12 15
ENDBRANCH 10 11
BRANCH 10 40
ATOM     40  CB  THR B   8      19.374  17.075  36.144  1.00 18.75 LIG 0.15  C 
ATOM     41  CG2 THR B   8      18.613  15.989  36.904  1.00 17.36 LIG 0.04  C 
BRANCH 40 42
ATOM     42 OG1  THR B   8      20.769  17.019  36.469  1.00 21.53 LIG-0.39  OA
ATOM     43 HG1  THR B   8      21.066  17.798  36.563  1.00 21.53 LIG 0.21  HD
ENDBRANCH 40 42
ENDBRANCH 10 40
ENDBRANCH 8 10
ENDBRANCH 5 6
BRANCH 5 44
ATOM     44  CB  ASP B   7      21.823  19.132  31.459  1.00 37.24 LIG 0.15  C 
BRANCH 44 45
ATOM     45  CG  ASP B   7      20.578  19.632  30.765  1.00 42.69 LIG 0.17  C 
ATOM     46 OD2  ASP B   7      19.530  18.962  30.873  1.00 42.74 LIG-0.65  OA
ATOM     47 OD1  ASP B   7      20.654  20.694  30.113  1.00 42.89 LIG-0.65  OA
ENDBRANCH 44 45
ENDBRANCH 5 44
ENDBRANCH 3 5
BRANCH 1 48
ATOM     48  CA  GLN B   6      24.762  20.620  34.773  1.00 35.47 LIG 0.18  C 
BRANCH 48 49
ATOM     49  CB  GLN B   6      24.649  20.294  36.266  1.00 41.05 LIG 0.04  C 
BRANCH 49 50
ATOM     50  CG  GLN B   6      26.001  20.168  36.918  1.00 49.54 LIG 0.10  C 
BRANCH 50 51
ATOM     51  CD  GLN B   6      26.099  20.744  38.303  1.00 53.43 LIG 0.21  C 
ATOM     52 OE1  GLN B   6      25.805  20.090  39.300  1.00 55.51 LIG-0.27  OA
ATOM     53  NE2 GLN B   6      26.546  21.956  38.369  1.00 53.53 LIG-0.37  N 
ATOM     54 21HE GLN B   6      26.742  22.382  37.648  1.00 53.53 LIG 0.16  HD
ATOM     55 22HE GLN B   6      26.648  22.336  39.133  1.00 53.53 LIG 0.16  HD
ENDBRANCH 50 51
ENDBRANCH 49 50
ENDBRANCH 48 49
BRANCH 48 56
ATOM     56  N   GLN B   6      25.330  21.932  34.614  1.00 36.83 LIG-0.35  N 
ATOM     57 H    GLN B   6      25.481  22.348  35.351  1.00 36.83 LIG 0.16  HD
ATOM     58  C   TRP B   5      25.584  22.424  33.421  1.00 39.64 LIG 0.24  C 
ATOM     59 O    TRP B   5      25.467  21.751  32.395  1.00 35.62 LIG-0.27  OA
BRANCH 58 60
ATOM     60  CA  TRP B   5      25.993  23.894  33.351  1.00 41.33 LIG 0.18  C 
BRANCH 60 61
ATOM     61  CB  TRP B   5      24.722  24.743  33.297  1.00 37.29 LIG 0.07  C 
BRANCH 61 62
ATOM     62  CG  TRP B   5      24.931  26.154  32.864  1.00 36.98 LIG-0.03  A 
ATOM     63  CD2 TRP B   5      24.024  26.951  32.098  1.00 30.66 LIG-0.00  A 
ATOM     64  CE3 TRP B   5      22.763  26.718  31.541  1.00 30.80 LIG 0.01  A 
ATOM     65  CE2 TRP B   5      24.625  28.213  31.920  1.00 30.13 LIG 0.04  A 
ATOM     66  CZ3 TRP B   5      22.152  27.738  30.833  1.00 32.32 LIG 0.00  A 
ATOM     67  CH2 TRP B   5      22.773  28.983  30.678  1.00 34.93 LIG 0.00  A 
ATOM     68  CZ2 TRP B   5      24.007  29.238  31.215  1.00 27.67 LIG 0.03  A 
ATOM     69  NE1 TRP B   5      25.839  28.184  32.557  1.00 35.78 LIG-0.36  N 
ATOM     70 HE1  TRP B   5      26.398  28.836  32.597  1.00 35.78 LIG 0.17  HD
ATOM     71  CD1 TRP B   5      26.016  26.942  33.119  1.00 40.20 LIG 0.10  A 
ENDBRANCH 61 62
ENDBRANCH 60 61
BRANCH 60 72
ATOM     72  N   TRP B   5      26.864  24.214  32.217  1.00 47.38 LIG-0.34  N 
ATOM     73 H    TRP B   5      26.453  24.306  31.467  1.00 47.38 LIG 0.16  HD
ATOM     74  C   ARG B   4      28.181  24.345  32.367  1.00 50.84 LIG 0.26  C 
ATOM     75 O    ARG B   4      28.758  24.091  33.424  1.00 48.34 LIG-0.27  OA
BRANCH 74 76
ATOM     76  CA  ARG B   4      28.975  24.815  31.145  1.00 49.37 LIG 0.40  C 
ATOM     77  N   ARG B   4      28.123  25.097  29.996  1.00 52.51 LIG 0.61  N 
BRANCH 76 78
ATOM     78  CB  ARG B   4      29.813  26.048  31.507  1.00 51.85 LIG 0.05  C 
BRANCH 78 79
ATOM     79  CG  ARG B   4      29.040  27.151  32.226  1.00 50.44 LIG 0.02  C 
BRANCH 79 80
ATOM     80  CD  ARG B   4      29.919  27.922  33.211  1.00 48.76 LIG 0.14  C 
BRANCH 80 81
ATOM     81  NE  ARG B   4      29.730  27.469  34.588  1.00 51.98 LIG-0.23  N 
ATOM     82 HE   ARG B   4      29.250  26.767  34.715  1.00 51.98 LIG 0.18  HD
ATOM     83  CZ  ARG B   4      30.249  28.065  35.660  1.00 51.78 LIG 0.67  C 
ATOM     84  NH1 ARG B   4      31.001  29.152  35.531  1.00 46.01 LIG-0.23  N 
ATOM     85  NH2 ARG B   4      30.010  27.572  36.869  1.00 56.06 LIG-0.23  N 
ATOM     86 2HH1 ARG B   4      31.333  29.530  36.228  1.00 46.01 LIG 0.17  HD
ATOM     87 1HH1 ARG B   4      31.157  29.477  34.751  1.00 46.01 LIG 0.17  HD
ATOM     88 1HH2 ARG B   4      29.522  26.870  36.958  1.00 56.06 LIG 0.17  HD
ATOM     89 2HH2 ARG B   4      30.343  27.954  37.563  1.00 56.06 LIG 0.17  HD
ENDBRANCH 80 81
ENDBRANCH 79 80
ENDBRANCH 78 79
ENDBRANCH 76 78
ENDBRANCH 74 76
ENDBRANCH 60 72
ENDBRANCH 58 60
ENDBRANCH 48 56
ENDBRANCH 1 48
TORSDOF 32
ENDMDL
MODEL 2
USER: ADFR SOLUTION from run 136
USER: SCORE 24.294437 LL:  -6.022 LR: -20.408 RR:   0.000 FEB: -10.863
USER: RMSD 3.076762
USER: SEED 135
USER: STATUS 1 or 2 clusters left
USER: GENES 34
USER: genes 0 Translation |==|  0.55068 0.49643 0.52483
USER: genes 1 Rotation |==|  0.50909 0.49566 0.52345 0.99935
USER: genes 2 Torsion [C]-N--CA-[C] |==|  0.62346
USER: genes 3 Torsion [N]-CA--C-[N] |==|  0.35916
USER: genes 4 Torsion [C]-N--CA-[C] |==|  0.62426
USER: genes 5 Torsion [N]-CA--C-[N] |==|  0.35067
USER: genes 6 Torsion [C]-N--CA-[CB] |==|  0.44179
USER: genes 7 Torsion [N]-CA--CB-[CG] |==|  0.72378
USER: genes 8 Torsion [CA]-CB--CG-[CD] |==|  0.24652
USER: genes 9 Torsion [CB]-CG--CD-[NE] |==|  0.42718
USER: genes 10 Torsion [CG]-CD--NE-[CZ] |==|  0.30508
USER: genes 11 Torsion [N]-CA--C-[N] |==|  0.33111
USER: genes 12 Torsion [C]-N--CA-[C] |==|  0.64908
USER: genes 13 Torsion [N]-CA--C-[O] |==|  0.91897
USER: genes 14 Torsion [N]-CA--CB-[CG] |==|  0.93972
USER: genes 15 Torsion [CA]-CB--CG-[CD2] |==|  0.60537
USER: genes 16 Torsion [N]-CA--CB-[CG2] |==|  0.48801
USER: genes 17 Torsion [CA]-CB--OG1-[HG1] |==|  0.22331
USER: genes 18 Torsion [N]-CA--CB-[CG] |==|  0.59313
USER: genes 19 Torsion [CA]-CB--CG-[OD2] |==|  0.82267
USER: genes 20 Torsion [N]-C--CA-[N] |==|  0.42116
USER: genes 21 Torsion [C]-CA--CB-[CG] |==|  0.48636
USER: genes 22 Torsion [CA]-CB--CG-[CD] |==|  0.39439
USER: genes 23 Torsion [CB]-CG--CD-[OE1] |==|  0.26143
USER: genes 24 Torsion [C]-CA--N-[C] |==|  0.83571
USER: genes 25 Torsion [N]-C--CA-[N] |==|  0.42100
USER: genes 26 Torsion [C]-CA--CB-[CG] |==|  0.52704
USER: genes 27 Torsion [CA]-CB--CG-[CD1] |==|  0.92423
USER: genes 28 Torsion [C]-CA--N-[C] |==|  0.72307
USER: genes 29 Torsion [N]-C--CA-[N] |==|  0.70775
USER: genes 30 Torsion [C]-CA--CB-[CG] |==|  0.73316
USER: genes 31 Torsion [CA]-CB--CG-[CD] |==|  0.36360
USER: genes 32 Torsion [CB]-CG--CD-[NE] |==|  0.69144
USER: genes 33 Torsion [CG]-CD--NE-[HE] |==|  0.89358
ROOT
ATOM      1  C   GLN B   6      23.298  20.360  33.997  1.00 31.06 LIG 0.24  C 
ATOM      2 O    GLN B   6      22.641  21.339  33.925  1.00 27.89 LIG-0.27  OA
ATOM      3  N   ASP B   7      22.893  19.190  33.574  1.00 28.12 LIG-0.35  N 
ATOM      4 H    ASP B   7      23.363  18.472  33.623  1.00 28.12 LIG 0.16  HD
ENDROOT
BRANCH 3 5
ATOM      5  CA  ASP B   7      21.581  19.010  32.970  1.00 30.55 LIG 0.19  C 
BRANCH 5 6
ATOM      6  C   ASP B   7      20.931  17.755  33.540  1.00 32.99 LIG 0.24  C 
ATOM      7 O    ASP B   7      21.542  16.687  33.556  1.00 33.42 LIG-0.27  OA
ATOM      8  N   THR B   8      19.691  17.880  34.007  1.00 18.35 LIG-0.34  N 
ATOM      9 H    THR B   8      19.210  18.587  33.920  1.00 18.35 LIG 0.16  HD
BRANCH 8 10
ATOM     10  CA  THR B   8      19.040  16.783  34.724  1.00 17.94 LIG 0.20  C 
BRANCH 10 11
ATOM     11  C   THR B   8      17.603  16.552  34.275  1.00 21.68 LIG 0.24  C 
ATOM     12  N   ARG B   9      17.295  15.316  33.897  1.00 16.45 LIG-0.35  N 
ATOM     13 H    ARG B   9      17.872  14.682  33.824  1.00 16.45 LIG 0.16  HD
ATOM     14 O    THR B   8      16.795  17.476  34.267  1.00 15.82 LIG-0.27  OA
BRANCH 12 15
ATOM     15  CA  ARG B   9      15.932  14.922  33.568  1.00 15.69 LIG 0.18  C 
BRANCH 15 16
ATOM     16  CB  ARG B   9      15.943  13.665  32.699  1.00 22.22 LIG 0.04  C 
BRANCH 16 17
ATOM     17  CG  ARG B   9      15.768  13.936  31.224  1.00 27.38 LIG 0.02  C 
BRANCH 17 18
ATOM     18  CD  ARG B   9      17.121  14.173  30.577  1.00 35.32 LIG 0.14  C 
BRANCH 18 19
ATOM     19  NE  ARG B   9      17.126  13.839  29.157  1.00 37.77 LIG-0.23  N 
ATOM     20  CZ  ARG B   9      17.209  14.744  28.185  1.00 46.08 LIG 0.67  C 
ATOM     21  NH2 ARG B   9      17.211  14.363  26.917  1.00 49.48 LIG-0.23  N 
ATOM     22  NH1 ARG B   9      17.284  16.033  28.485  1.00 43.14 LIG-0.23  N 
ATOM     23 2HH2 ARG B   9      17.265  14.950  26.291  1.00 49.48 LIG 0.17  HD
ATOM     24 1HH2 ARG B   9      17.159  13.528  26.719  1.00 49.48 LIG 0.17  HD
ATOM     25 2HH1 ARG B   9      17.337  16.618  27.858  1.00 43.14 LIG 0.17  HD
ATOM     26 1HH1 ARG B   9      17.279  16.285  29.308  1.00 43.14 LIG 0.17  HD
ATOM     27 HE   ARG B   9      17.072  13.009  28.935  1.00 37.77 LIG 0.18  HD
ENDBRANCH 18 19
ENDBRANCH 17 18
ENDBRANCH 16 17
ENDBRANCH 15 16
BRANCH 15 28
ATOM     28  C   ARG B   9      15.085  14.694  34.822  1.00 19.99 LIG 0.24  C 
ATOM     29  N   LEU B  10      14.016  15.477  34.952  1.00 16.17 LIG-0.34  N 
ATOM     30 H    LEU B  10      13.777  16.053  34.361  1.00 16.17 LIG 0.16  HD
ATOM     31 O    ARG B   9      15.390  13.822  35.655  1.00 21.50 LIG-0.27  OA
BRANCH 29 32
ATOM     32  CA  LEU B  10      13.142  15.433  36.118  1.00 18.39 LIG 0.18  C 
BRANCH 32 33
ATOM     33  C   LEU B  10      11.690  15.228  35.712  1.00 17.68 LIG 0.20  C 
ATOM     34 O    LEU B  10      11.277  15.639  34.619  1.00 17.59 LIG-0.65  OA
ATOM     35 OXT  LEU B  10      10.901  14.683  36.483  1.00 18.80 LIG-0.65  OA
ENDBRANCH 32 33
BRANCH 32 36
ATOM     36  CB  LEU B  10      13.247  16.741  36.912  1.00 18.94 LIG 0.04  C 
BRANCH 36 37
ATOM     37  CG  LEU B  10      14.507  17.583  36.714  1.00 21.44 LIG-0.02  C 
ATOM     38  CD2 LEU B  10      14.948  18.208  38.029  1.00 24.01 LIG 0.01  C 
ATOM     39  CD1 LEU B  10      14.277  18.656  35.657  1.00 19.43 LIG 0.01  C 
ENDBRANCH 36 37
ENDBRANCH 32 36
ENDBRANCH 29 32
ENDBRANCH 15 28
ENDBRANCH 12 15
ENDBRANCH 10 11
BRANCH 10 40
ATOM     40  CB  THR B   8      19.054  17.038  36.234  1.00 18.75 LIG 0.15  C 
ATOM     41  CG2 THR B   8      18.283  15.950  36.981  1.00 17.36 LIG 0.04  C 
BRANCH 40 42
ATOM     42 OG1  THR B   8      20.413  17.079  36.689  1.00 21.53 LIG-0.39  OA
ATOM     43 HG1  THR B   8      20.741  17.834  36.524  1.00 21.53 LIG 0.21  HD
ENDBRANCH 40 42
ENDBRANCH 10 40
ENDBRANCH 8 10
ENDBRANCH 5 6
BRANCH 5 44
ATOM     44  CB  ASP B   7      21.715  18.901  31.454  1.00 37.24 LIG 0.15  C 
BRANCH 44 45
ATOM     45  CG  ASP B   7      20.538  19.500  30.723  1.00 42.69 LIG 0.17  C 
ATOM     46 OD2  ASP B   7      19.414  18.981  30.882  1.00 42.74 LIG-0.65  OA
ATOM     47 OD1  ASP B   7      20.743  20.491  29.991  1.00 42.89 LIG-0.65  OA
ENDBRANCH 44 45
ENDBRANCH 5 44
ENDBRANCH 3 5
BRANCH 1 48
ATOM     48  CA  GLN B   6      24.656  20.395  34.698  1.00 35.47 LIG 0.18  C 
BRANCH 48 49
ATOM     49  CB  GLN B   6      24.467  20.127  36.194  1.00 41.05 LIG 0.04  C 
BRANCH 49 50
ATOM     50  CG  GLN B   6      25.784  20.031  36.920  1.00 49.54 LIG 0.10  C 
BRANCH 50 51
ATOM     51  CD  GLN B   6      25.803  20.641  38.294  1.00 53.43 LIG 0.21  C 
ATOM     52 OE1  GLN B   6      25.592  19.973  39.303  1.00 55.51 LIG-0.27  OA
ATOM     53  NE2 GLN B   6      26.090  21.902  38.336  1.00 53.53 LIG-0.37  N 
ATOM     54 21HE GLN B   6      26.232  22.336  37.607  1.00 53.53 LIG 0.16  HD
ATOM     55 22HE GLN B   6      26.139  22.306  39.093  1.00 53.53 LIG 0.16  HD
ENDBRANCH 50 51
ENDBRANCH 49 50
ENDBRANCH 48 49
BRANCH 48 56
ATOM     56  N   GLN B   6      25.273  21.682  34.520  1.00 36.83 LIG-0.35  N 
ATOM     57 H    GLN B   6      25.447  22.100  35.251  1.00 36.83 LIG 0.16  HD
ATOM     58  C   TRP B   5      25.535  22.153  33.320  1.00 39.64 LIG 0.24  C 
ATOM     59 O    TRP B   5      25.382  21.475  32.302  1.00 35.62 LIG-0.27  OA
BRANCH 58 60
ATOM     60  CA  TRP B   5      25.999  23.606  33.231  1.00 41.33 LIG 0.18  C 
BRANCH 60 61
ATOM     61  CB  TRP B   5      24.761  24.502  33.186  1.00 37.29 LIG 0.07  C 
BRANCH 61 62
ATOM     62  CG  TRP B   5      25.038  25.932  32.870  1.00 36.98 LIG-0.03  A 
ATOM     63  CD2 TRP B   5      24.139  26.854  32.247  1.00 30.66 LIG-0.00  A 
ATOM     64  CE3 TRP B   5      22.832  26.754  31.761  1.00 30.80 LIG 0.01  A 
ATOM     65  CE2 TRP B   5      24.812  28.087  32.143  1.00 30.13 LIG 0.04  A 
ATOM     66  CZ3 TRP B   5      22.248  27.873  31.194  1.00 32.32 LIG 0.00  A 
ATOM     67  CH2 TRP B   5      22.941  29.087  31.111  1.00 34.93 LIG 0.00  A 
ATOM     68  CZ2 TRP B   5      24.222  29.212  31.580  1.00 27.67 LIG 0.03  A 
ATOM     69  NE1 TRP B   5      26.060  27.923  32.686  1.00 35.78 LIG-0.36  N 
ATOM     70 HE1  TRP B   5      26.663  28.532  32.747  1.00 35.78 LIG 0.17  HD
ATOM     71  CD1 TRP B   5      26.188  26.624  33.119  1.00 40.20 LIG 0.10  A 
ENDBRANCH 61 62
ENDBRANCH 60 61
BRANCH 60 72
ATOM     72  N   TRP B   5      26.866  23.881  32.083  1.00 47.38 LIG-0.34  N 
ATOM     73 H    TRP B   5      26.449  23.994  31.340  1.00 47.38 LIG 0.16  HD
ATOM     74  C   ARG B   4      28.191  23.945  32.212  1.00 50.84 LIG 0.26  C 
ATOM     75 O    ARG B   4      28.772  23.662  33.259  1.00 48.34 LIG-0.27  OA
BRANCH 74 76
ATOM     76  CA  ARG B   4      28.987  24.375  30.977  1.00 49.37 LIG 0.40  C 
ATOM     77  N   ARG B   4      29.676  23.261  30.336  1.00 52.51 LIG 0.61  N 
BRANCH 76 78
ATOM     78  CB  ARG B   4      28.064  25.083  29.977  1.00 51.85 LIG 0.05  C 
BRANCH 78 79
ATOM     79  CG  ARG B   4      27.519  24.182  28.872  1.00 50.44 LIG 0.02  C 
BRANCH 79 80
ATOM     80  CD  ARG B   4      26.005  24.323  28.709  1.00 48.76 LIG 0.14  C 
BRANCH 80 81
ATOM     81  NE  ARG B   4      25.290  23.120  29.132  1.00 51.98 LIG-0.23  N 
ATOM     82 HE   ARG B   4      25.647  22.359  28.949  1.00 51.98 LIG 0.18  HD
ATOM     83  CZ  ARG B   4      24.128  23.118  29.782  1.00 51.78 LIG 0.67  C 
ATOM     84  NH1 ARG B   4      23.528  24.259  30.097  1.00 46.01 LIG-0.23  N 
ATOM     85  NH2 ARG B   4      23.562  21.964  30.116  1.00 56.06 LIG-0.23  N 
ATOM     86 2HH1 ARG B   4      22.777  24.249  30.517  1.00 46.01 LIG 0.17  HD
ATOM     87 1HH1 ARG B   4      23.889  25.009  29.882  1.00 46.01 LIG 0.17  HD
ATOM     88 1HH2 ARG B   4      23.945  21.222  29.912  1.00 56.06 LIG 0.17  HD
ATOM     89 2HH2 ARG B   4      22.811  21.959  30.535  1.00 56.06 LIG 0.17  HD
ENDBRANCH 80 81
ENDBRANCH 79 80
ENDBRANCH 78 79
ENDBRANCH 76 78
ENDBRANCH 74 76
ENDBRANCH 60 72
ENDBRANCH 58 60
ENDBRANCH 48 56
ENDBRANCH 1 48
TORSDOF 32
ENDMDL
MODEL 3
USER: ADFR SOLUTION from run 181
USER: SCORE 23.119561 LL:  -4.842 LR: -19.749 RR:   0.000 FEB: -10.204
USER: RMSD 1.488958
USER: SEED 180
USER: STATUS 1 or 2 clusters left
USER: GENES 34
USER: genes 0 Translation |==|  0.54711 0.49447 0.52342
USER: genes 1 Rotation |==|  0.52047 0.50001 0.52936 0.99872
USER: genes 2 Torsion [C]-N--CA-[C] |==|  0.64070
USER: genes 3 Torsion [N]-CA--C-[N] |==|  0.36951
USER: genes 4 Torsion [C]-N--CA-[C] |==|  0.58346
USER: genes 5 Torsion [N]-CA--C-[N] |==|  0.32052
USER: genes 6 Torsion [C]-N--CA-[CB] |==|  0.47249
USER: genes 7 Torsion [N]-CA--CB-[CG] |==|  0.52525
USER: genes 8 Torsion [CA]-CB--CG-[CD] |==|  0.57854
USER: genes 9 Torsion [CB]-CG--CD-[NE] |==|  0.61974
USER: genes 10 Torsion [CG]-CD--NE-[CZ] |==|  0.41904
USER: genes 11 Torsion [N]-CA--C-[N] |==|  0.42750
USER: genes 12 Torsion [C]-N--CA-[C] |==|  0.62342
USER: genes 13 Torsion [N]-CA--C-[O] |==|  0.97297
USER: genes 14 Torsion [N]-CA--CB-[CG] |==|  0.87520
USER: genes 15 Torsion [CA]-CB--CG-[CD2] |==|  0.78208
USER: genes 16 Torsion [N]-CA--CB-[CG2] |==|  0.50473
USER: genes 17 Torsion [CA]-CB--OG1-[HG1] |==|  0.24666
USER: genes 18 Torsion [N]-CA--CB-[CG] |==|  0.59644
USER: genes 19 Torsion [CA]-CB--CG-[OD2] |==|  0.76632
USER: genes 20 Torsion [N]-C--CA-[N] |==|  0.39579
USER: genes 21 Torsion [C]-CA--CB-[CG] |==|  0.48105
USER: genes 22 Torsion [CA]-CB--CG-[CD] |==|  0.41003
USER: genes 23 Torsion [CB]-CG--CD-[OE1] |==|  0.23550
USER: genes 24 Torsion [C]-CA--N-[C] |==|  0.78601
USER: genes 25 Torsion [N]-C--CA-[N] |==|  0.36287
USER: genes 26 Torsion [C]-CA--CB-[CG] |==|  0.37684
USER: genes 27 Torsion [CA]-CB--CG-[CD1] |==|  0.64102
USER: genes 28 Torsion [C]-CA--N-[C] |==|  0.83101
USER: genes 29 Torsion [N]-C--CA-[N] |==|  0.96898
USER: genes 30 Torsion [C]-CA--CB-[CG] |==|  0.81115
USER: genes 31 Torsion [CA]-CB--CG-[CD] |==|  0.51423
USER: genes 32 Torsion [CB]-CG--CD-[NE] |==|  0.67627
USER: genes 33 Torsion [CG]-CD--NE-[HE] |==|  0.97021
ROOT
ATOM      1  C   GLN B   6      23.190  20.306  33.968  1.00 31.06 LIG 0.24  C 
ATOM      2 O    GLN B   6      22.509  21.270  33.952  1.00 27.89 LIG-0.27  OA
ATOM      3  N   ASP B   7      22.806  19.146  33.501  1.00 28.12 LIG-0.35  N 
ATOM      4 H    ASP B   7      23.294  18.438  33.510  1.00 28.12 LIG 0.16  HD
ENDROOT
BRANCH 3 5
ATOM      5  CA  ASP B   7      21.487  18.960  32.914  1.00 30.55 LIG 0.19  C 
BRANCH 5 6
ATOM      6  C   ASP B   7      20.815  17.751  33.554  1.00 32.99 LIG 0.24  C 
ATOM      7 O    ASP B   7      21.429  16.693  33.685  1.00 33.42 LIG-0.27  OA
ATOM      8  N   THR B   8      19.554  17.903  33.950  1.00 18.35 LIG-0.34  N 
ATOM      9 H    THR B   8      19.076  18.598  33.784  1.00 18.35 LIG 0.16  HD
BRANCH 8 10
ATOM     10  CA  THR B   8      18.875  16.864  34.723  1.00 17.94 LIG 0.20  C 
BRANCH 10 11
ATOM     11  C   THR B   8      17.373  16.828  34.476  1.00 21.68 LIG 0.24  C 
ATOM     12  N   ARG B   9      16.895  15.729  33.902  1.00 16.45 LIG-0.35  N 
ATOM     13 H    ARG B   9      17.391  15.093  33.604  1.00 16.45 LIG 0.16  HD
ATOM     14 O    THR B   8      16.665  17.779  34.794  1.00 15.82 LIG-0.27  OA
BRANCH 12 15
ATOM     15  CA  ARG B   9      15.467  15.504  33.725  1.00 15.69 LIG 0.18  C 
BRANCH 15 16
ATOM     16  CB  ARG B   9      15.233  14.290  32.827  1.00 22.22 LIG 0.04  C 
BRANCH 16 17
ATOM     17  CG  ARG B   9      13.795  14.103  32.407  1.00 27.38 LIG 0.02  C 
BRANCH 17 18
ATOM     18  CD  ARG B   9      13.516  12.631  32.157  1.00 35.32 LIG 0.14  C 
BRANCH 18 19
ATOM     19  NE  ARG B   9      12.726  12.411  30.951  1.00 37.77 LIG-0.23  N 
ATOM     20  CZ  ARG B   9      12.804  11.310  30.208  1.00 46.08 LIG 0.67  C 
ATOM     21  NH2 ARG B   9      12.051  11.181  29.126  1.00 49.48 LIG-0.23  N 
ATOM     22  NH1 ARG B   9      13.641  10.339  30.547  1.00 43.14 LIG-0.23  N 
ATOM     23 2HH2 ARG B   9      12.103  10.467  28.648  1.00 49.48 LIG 0.17  HD
ATOM     24 1HH2 ARG B   9      11.509  11.810  28.902  1.00 49.48 LIG 0.17  HD
ATOM     25 2HH1 ARG B   9      13.691   9.628  30.067  1.00 43.14 LIG 0.17  HD
ATOM     26 1HH1 ARG B   9      14.134  10.421  31.247  1.00 43.14 LIG 0.17  HD
ATOM     27 HE   ARG B   9      12.180  13.028  30.705  1.00 37.77 LIG 0.18  HD
ENDBRANCH 18 19
ENDBRANCH 17 18
ENDBRANCH 16 17
ENDBRANCH 15 16
BRANCH 15 28
ATOM     28  C   ARG B   9      14.746  15.323  35.062  1.00 19.99 LIG 0.24  C 
ATOM     29  N   LEU B  10      13.455  15.646  35.077  1.00 16.17 LIG-0.34  N 
ATOM     30 H    LEU B  10      13.025  15.904  34.378  1.00 16.17 LIG 0.16  HD
ATOM     31 O    ARG B   9      15.347  14.895  36.064  1.00 21.50 LIG-0.27  OA
BRANCH 29 32
ATOM     32  CA  LEU B  10      12.640  15.593  36.284  1.00 18.39 LIG 0.18  C 
BRANCH 32 33
ATOM     33  C   LEU B  10      11.290  14.947  36.012  1.00 17.68 LIG 0.20  C 
ATOM     34 O    LEU B  10      10.929  14.707  34.852  1.00 17.59 LIG-0.65  OA
ATOM     35 OXT  LEU B  10      10.527  14.689  36.941  1.00 18.80 LIG-0.65  OA
ENDBRANCH 32 33
BRANCH 32 36
ATOM     36  CB  LEU B  10      12.404  17.007  36.829  1.00 18.94 LIG 0.04  C 
BRANCH 36 37
ATOM     37  CG  LEU B  10      13.608  17.947  36.888  1.00 21.44 LIG-0.02  C 
ATOM     38  CD2 LEU B  10      14.484  17.624  38.089  1.00 24.01 LIG 0.01  C 
ATOM     39  CD1 LEU B  10      13.154  19.402  36.927  1.00 19.43 LIG 0.01  C 
ENDBRANCH 36 37
ENDBRANCH 32 36
ENDBRANCH 29 32
ENDBRANCH 15 28
ENDBRANCH 12 15
ENDBRANCH 10 11
BRANCH 10 40
ATOM     40  CB  THR B   8      19.128  17.048  36.222  1.00 18.75 LIG 0.15  C 
ATOM     41  CG2 THR B   8      18.455  15.941  37.032  1.00 17.36 LIG 0.04  C 
BRANCH 40 42
ATOM     42 OG1  THR B   8      20.541  17.044  36.462  1.00 21.53 LIG-0.39  OA
ATOM     43 HG1  THR B   8      20.839  17.826  36.392  1.00 21.53 LIG 0.21  HD
ENDBRANCH 40 42
ENDBRANCH 10 40
ENDBRANCH 8 10
ENDBRANCH 5 6
BRANCH 5 44
ATOM     44  CB  ASP B   7      21.610  18.768  31.405  1.00 37.24 LIG 0.15  C 
BRANCH 44 45
ATOM     45  CG  ASP B   7      20.455  19.376  30.647  1.00 42.69 LIG 0.17  C 
ATOM     46 OD2  ASP B   7      19.409  18.706  30.523  1.00 42.74 LIG-0.65  OA
ATOM     47 OD1  ASP B   7      20.598  20.524  30.178  1.00 42.89 LIG-0.65  OA
ENDBRANCH 44 45
ENDBRANCH 5 44
ENDBRANCH 3 5
BRANCH 1 48
ATOM     48  CA  GLN B   6      24.561  20.343  34.645  1.00 35.47 LIG 0.18  C 
BRANCH 48 49
ATOM     49  CB  GLN B   6      24.387  20.231  36.163  1.00 41.05 LIG 0.04  C 
BRANCH 49 50
ATOM     50  CG  GLN B   6      25.708  20.097  36.873  1.00 49.54 LIG 0.10  C 
BRANCH 50 51
ATOM     51  CD  GLN B   6      25.763  20.716  38.242  1.00 53.43 LIG 0.21  C 
ATOM     52 OE1  GLN B   6      25.381  20.114  39.243  1.00 55.51 LIG-0.27  OA
ATOM     53  NE2 GLN B   6      26.272  21.905  38.292  1.00 53.53 LIG-0.37  N 
ATOM     54 21HE GLN B   6      26.528  22.294  37.569  1.00 53.53 LIG 0.16  HD
ATOM     55 22HE GLN B   6      26.353  22.306  39.048  1.00 53.53 LIG 0.16  HD
ENDBRANCH 50 51
ENDBRANCH 49 50
ENDBRANCH 48 49
BRANCH 48 56
ATOM     56  N   GLN B   6      25.234  21.576  34.334  1.00 36.83 LIG-0.35  N 
ATOM     57 H    GLN B   6      25.226  22.157  34.967  1.00 36.83 LIG 0.16  HD
ATOM     58  C   TRP B   5      25.804  21.765  33.164  1.00 39.64 LIG 0.24  C 
ATOM     59 O    TRP B   5      25.900  20.865  32.328  1.00 35.62 LIG-0.27  OA
BRANCH 58 60
ATOM     60  CA  TRP B   5      26.311  23.174  32.859  1.00 41.33 LIG 0.18  C 
BRANCH 60 61
ATOM     61  CB  TRP B   5      25.363  23.816  31.846  1.00 37.29 LIG 0.07  C 
BRANCH 61 62
ATOM     62  CG  TRP B   5      24.987  25.225  32.149  1.00 36.98 LIG-0.03  A 
ATOM     63  CD2 TRP B   5      25.884  26.299  32.445  1.00 30.66 LIG-0.00  A 
ATOM     64  CE3 TRP B   5      27.275  26.399  32.549  1.00 30.80 LIG 0.01  A 
ATOM     65  CE2 TRP B   5      25.101  27.449  32.667  1.00 30.13 LIG 0.04  A 
ATOM     66  CZ3 TRP B   5      27.831  27.625  32.868  1.00 32.32 LIG 0.00  A 
ATOM     67  CH2 TRP B   5      27.025  28.751  33.077  1.00 34.93 LIG 0.00  A 
ATOM     68  CZ2 TRP B   5      25.661  28.682  32.980  1.00 27.67 LIG 0.03  A 
ATOM     69  NE1 TRP B   5      23.788  27.090  32.505  1.00 35.78 LIG-0.36  N 
ATOM     70 HE1  TRP B   5      23.112  27.615  32.583  1.00 35.78 LIG 0.17  HD
ATOM     71  CD1 TRP B   5      23.728  25.752  32.196  1.00 40.20 LIG 0.10  A 
ENDBRANCH 61 62
ENDBRANCH 60 61
BRANCH 60 72
ATOM     72  N   TRP B   5      27.688  23.213  32.360  1.00 47.38 LIG-0.34  N 
ATOM     73 H    TRP B   5      27.773  23.547  31.572  1.00 47.38 LIG 0.16  HD
ATOM     74  C   ARG B   4      28.705  22.760  33.091  1.00 50.84 LIG 0.26  C 
ATOM     75 O    ARG B   4      28.547  22.178  34.164  1.00 48.34 LIG-0.27  OA
BRANCH 74 76
ATOM     76  CA  ARG B   4      30.113  22.977  32.530  1.00 49.37 LIG 0.40  C 
ATOM     77  N   ARG B   4      30.102  23.425  31.142  1.00 52.51 LIG 0.61  N 
BRANCH 76 78
ATOM     78  CB  ARG B   4      30.881  23.972  33.409  1.00 51.85 LIG 0.05  C 
BRANCH 78 79
ATOM     79  CG  ARG B   4      30.347  25.401  33.365  1.00 50.44 LIG 0.02  C 
BRANCH 79 80
ATOM     80  CD  ARG B   4      31.225  26.368  34.159  1.00 48.76 LIG 0.14  C 
BRANCH 80 81
ATOM     81  NE  ARG B   4      30.512  26.957  35.291  1.00 51.98 LIG-0.23  N 
ATOM     82 HE   ARG B   4      29.662  26.836  35.333  1.00 51.98 LIG 0.18  HD
ATOM     83  CZ  ARG B   4      31.084  27.667  36.261  1.00 51.78 LIG 0.67  C 
ATOM     84  NH1 ARG B   4      32.394  27.888  36.255  1.00 46.01 LIG-0.23  N 
ATOM     85  NH2 ARG B   4      30.340  28.162  37.242  1.00 56.06 LIG-0.23  N 
ATOM     86 2HH1 ARG B   4      32.755  28.347  36.886  1.00 46.01 LIG 0.17  HD
ATOM     87 1HH1 ARG B   4      32.880  27.572  35.621  1.00 46.01 LIG 0.17  HD
ATOM     88 1HH2 ARG B   4      29.491  28.024  37.250  1.00 56.06 LIG 0.17  HD
ATOM     89 2HH2 ARG B   4      30.706  28.621  37.871  1.00 56.06 LIG 0.17  HD
ENDBRANCH 80 81
ENDBRANCH 79 80
ENDBRANCH 78 79
ENDBRANCH 76 78
ENDBRANCH 74 76
ENDBRANCH 60 72
ENDBRANCH 58 60
ENDBRANCH 48 56
ENDBRANCH 1 48
TORSDOF 32
ENDMDL
