MODEL 1
USER: ADFR SOLUTION from run 12
USER: SCORE 23.256352 LL:  -4.579 LR: -20.204 RR:   0.000 FEB: -11.852
USER: RMSD 3.538034
USER: SEED 257278
USER: STATUS searching
USER: GENES 30
USER: genes 0 Translation |==|  0.46661 0.49839 0.48022
USER: genes 1 Rotation |==|  0.51661 0.46511 0.52653 0.99780
USER: genes 2 Torsion [N]-CA--C-[N] |==|  0.41470
USER: genes 3 Torsion [C]-N--CA-[CB] |==|  0.28889
USER: genes 4 Torsion [N]-CA--CB-[CG2] |==|  0.46707
USER: genes 5 Torsion [CA]-CB--OG1-[HG1] |==|  0.22544
USER: genes 6 Torsion [N]-CA--C-[N] |==|  0.34755
USER: genes 7 Torsion [C]-N--CA-[C] |==|  0.78383
USER: genes 8 Torsion [N]-CA--C-[N] |==|  0.36946
USER: genes 9 Torsion [C]-N--CA-[CB] |==|  0.33102
USER: genes 10 Torsion [N]-CA--CB-[CG] |==|  0.82716
USER: genes 11 Torsion [CA]-CB--CG-[CD1] |==|  0.42294
USER: genes 12 Torsion [N]-CA--C-[OXT] |==|  0.91734
USER: genes 13 Torsion [N]-CA--CB-[CG] |==|  0.72741
USER: genes 14 Torsion [CA]-CB--CG-[CD] |==|  0.26626
USER: genes 15 Torsion [CB]-CG--CD-[NE] |==|  0.44468
USER: genes 16 Torsion [CG]-CD--NE-[CZ] |==|  0.31452
USER: genes 17 Torsion [C]-CA--CB-[CG2] |==|  0.03560
USER: genes 18 Torsion [CA]-CB--OG1-[HG1] |==|  0.92258
USER: genes 19 Torsion [C]-CA--N-[C] |==|  0.67806
USER: genes 20 Torsion [N]-C--CA-[N] |==|  0.45174
USER: genes 21 Torsion [N]-C--CA-[N] |==|  0.33360
USER: genes 22 Torsion [C]-CA--CB-[CG] |==|  0.59704
USER: genes 23 Torsion [CA]-CB--CG-[CD1] |==|  0.90269
USER: genes 24 Torsion [C]-CA--N-[C] |==|  0.77483
USER: genes 25 Torsion [N]-C--CA-[N] |==|  0.89291
USER: genes 26 Torsion [C]-CA--CB-[CG] |==|  0.10420
USER: genes 27 Torsion [CA]-CB--CG-[CD] |==|  0.58174
USER: genes 28 Torsion [CB]-CG--CD-[NE] |==|  0.47000
USER: genes 29 Torsion [CG]-CD--NE-[HE] |==|  0.94623
ROOT
ATOM      1  CA  THR G   7      43.549  14.987  -1.506  1.00 26.40 LIG 0.20  C 
ENDROOT
BRANCH 1 2
ATOM      2  C   THR G   7      43.013  15.586  -2.797  1.00 25.30 LIG 0.24  C 
ATOM      3  N   THR G   8      41.919  15.028  -3.306  1.00 15.59 LIG-0.34  N 
ATOM      4 H    THR G   8      41.507  14.357  -2.961  1.00 15.59 LIG 0.16  HD
ATOM      5 O    THR G   7      43.585  16.536  -3.333  1.00 25.63 LIG-0.27  OA
BRANCH 3 6
ATOM      6  CA  THR G   8      41.332  15.547  -4.534  1.00 11.76 LIG 0.20  C 
BRANCH 6 7
ATOM      7  CB  THR G   8      41.633  14.652  -5.757  1.00 16.39 LIG 0.15  C 
ATOM      8  CG2 THR G   8      40.771  15.065  -6.937  1.00 20.98 LIG 0.04  C 
BRANCH 7 9
ATOM      9 OG1  THR G   8      43.012  14.760  -6.127  1.00 14.98 LIG-0.39  OA
ATOM     10 HG1  THR G   8      43.476  14.266  -5.631  1.00 14.98 LIG 0.21  HD
ENDBRANCH 7 9
ENDBRANCH 6 7
BRANCH 6 11
ATOM     11  C   THR G   8      39.831  15.679  -4.384  1.00 14.98 LIG 0.24  C 
ATOM     12 O    THR G   8      39.146  14.711  -4.046  1.00 17.64 LIG-0.27  OA
ATOM     13  N   ARG G   9      39.305  16.872  -4.633  1.00 15.79 LIG-0.35  N 
ATOM     14 H    ARG G   9      39.755  17.570  -4.855  1.00 15.79 LIG 0.16  HD
BRANCH 13 15
ATOM     15  CA  ARG G   9      37.869  17.063  -4.539  1.00 12.84 LIG 0.18  C 
BRANCH 15 16
ATOM     16  C   ARG G   9      37.197  16.499  -5.779  1.00 12.32 LIG 0.24  C 
ATOM     17  N   LEU G  10      36.136  15.729  -5.572  1.00 12.88 LIG-0.34  N 
ATOM     18 H    LEU G  10      35.797  15.578  -4.796  1.00 12.88 LIG 0.16  HD
ATOM     19 O    ARG G   9      37.650  16.743  -6.900  1.00 17.68 LIG-0.27  OA
BRANCH 17 20
ATOM     20  CA  LEU G  10      35.448  15.064  -6.669  1.00 16.59 LIG 0.18  C 
BRANCH 20 21
ATOM     21  CB  LEU G  10      35.483  13.550  -6.499  1.00 15.66 LIG 0.04  C 
BRANCH 21 22
ATOM     22  CG  LEU G  10      36.857  12.893  -6.503  1.00 23.51 LIG-0.02  C 
ATOM     23  CD1 LEU G  10      36.801  11.627  -5.688  1.00 20.87 LIG 0.01  C 
ATOM     24  CD2 LEU G  10      37.282  12.608  -7.936  1.00 22.37 LIG 0.01  C 
ENDBRANCH 21 22
ENDBRANCH 20 21
BRANCH 20 25
ATOM     25  C   LEU G  10      34.006  15.502  -6.750  1.00 15.89 LIG 0.20  C 
ATOM     26 OXT  LEU G  10      33.427  15.837  -5.722  1.00 24.01 LIG-0.65  OA
ATOM     27 O    LEU G  10      33.408  15.550  -7.831  1.00 15.92 LIG-0.65  OA
ENDBRANCH 20 25
ENDBRANCH 17 20
ENDBRANCH 15 16
BRANCH 15 28
ATOM     28  CB  ARG G   9      37.507  18.537  -4.363  1.00 18.79 LIG 0.04  C 
BRANCH 28 29
ATOM     29  CG  ARG G   9      37.247  18.906  -2.917  1.00 22.18 LIG 0.02  C 
BRANCH 29 30
ATOM     30  CD  ARG G   9      38.475  19.493  -2.251  1.00 31.14 LIG 0.14  C 
BRANCH 30 31
ATOM     31  NE  ARG G   9      38.117  20.258  -1.062  1.00 29.63 LIG-0.23  N 
ATOM     32  CZ  ARG G   9      38.448  19.901   0.173  1.00 25.64 LIG 0.67  C 
ATOM     33  NH2 ARG G   9      38.084  20.651   1.204  1.00 30.24 LIG-0.23  N 
ATOM     34  NH1 ARG G   9      39.133  18.786   0.372  1.00 28.33 LIG-0.23  N 
ATOM     35 1HH2 ARG G   9      37.633  21.372   1.074  1.00 30.24 LIG 0.17  HD
ATOM     36 2HH2 ARG G   9      38.301  20.418   2.003  1.00 30.24 LIG 0.17  HD
ATOM     37 1HH1 ARG G   9      39.363  18.297  -0.297  1.00 28.33 LIG 0.17  HD
ATOM     38 2HH1 ARG G   9      39.349  18.551   1.171  1.00 28.33 LIG 0.17  HD
ATOM     39 HE   ARG G   9      37.664  20.981  -1.166  1.00 29.63 LIG 0.18  HD
ENDBRANCH 30 31
ENDBRANCH 29 30
ENDBRANCH 28 29
ENDBRANCH 15 28
ENDBRANCH 13 15
ENDBRANCH 6 11
ENDBRANCH 3 6
ENDBRANCH 1 2
BRANCH 1 40
ATOM     40  CB  THR G   7      42.870  15.680  -0.307  1.00 34.82 LIG 0.15  C 
ATOM     41  CG2 THR G   7      41.676  16.498  -0.770  1.00 38.74 LIG 0.04  C 
BRANCH 40 42
ATOM     42 OG1  THR G   7      42.425  14.691   0.631  1.00 40.69 LIG-0.39  OA
ATOM     43 HG1  THR G   7      42.262  13.973   0.226  1.00 40.69 LIG 0.21  HD
ENDBRANCH 40 42
ENDBRANCH 1 40
BRANCH 1 44
ATOM     44  N   THR G   7      44.996  15.146  -1.470  1.00 22.98 LIG-0.34  N 
ATOM     45  C   PRO G   6      45.830  14.112  -1.475  1.00 24.87 LIG 0.24  C 
ATOM     46 O    PRO G   6      45.471  12.937  -1.421  1.00 25.14 LIG-0.27  OA
ATOM     47 H    THR G   7      45.257  15.965  -1.445  1.00 22.98 LIG 0.16  HD
BRANCH 45 48
ATOM     48  CA  PRO G   6      47.313  14.433  -1.523  1.00 32.16 LIG 0.18  C 
ATOM     49  N   PRO G   6      48.077  13.253  -1.110  1.00 31.00 LIG-0.34  N 
ATOM     50  CD  PRO G   6      48.846  12.677  -2.223  1.00 36.67 LIG 0.13  C 
ATOM     51  C   TRP G   5      47.898  12.735   0.112  1.00 25.71 LIG 0.24  C 
ATOM     52  CG  PRO G   6      48.202  13.301  -3.431  1.00 44.45 LIG 0.02  C 
ATOM     53  CB  PRO G   6      47.751  14.644  -2.976  1.00 38.26 LIG 0.04  C 
ATOM     54 O    TRP G   5      47.150  13.244   0.949  1.00 31.33 LIG-0.27  OA
BRANCH 51 55
ATOM     55  CA  TRP G   5      48.664  11.464   0.437  1.00 33.03 LIG 0.18  C 
BRANCH 55 56
ATOM     56  CB  TRP G   5      47.676  10.336   0.732  1.00 34.46 LIG 0.07  C 
BRANCH 56 57
ATOM     57  CG  TRP G   5      48.140   9.378   1.788  1.00 31.46 LIG-0.03  A 
ATOM     58  CD2 TRP G   5      47.319   8.701   2.750  1.00 33.83 LIG-0.00  A 
ATOM     59  CE3 TRP G   5      45.949   8.702   3.025  1.00 34.43 LIG 0.01  A 
ATOM     60  CE2 TRP G   5      48.171   7.904   3.542  1.00 38.54 LIG 0.04  A 
ATOM     61  CZ3 TRP G   5      45.476   7.918   4.063  1.00 33.62 LIG 0.00  A 
ATOM     62  CH2 TRP G   5      46.344   7.133   4.830  1.00 35.83 LIG 0.00  A 
ATOM     63  CZ2 TRP G   5      47.692   7.106   4.584  1.00 36.99 LIG 0.03  A 
ATOM     64  NE1 TRP G   5      49.449   8.079   3.076  1.00 38.15 LIG-0.36  N 
ATOM     65  CD1 TRP G   5      49.422   8.965   2.020  1.00 30.20 LIG 0.10  A 
ATOM     66 HE1  TRP G   5      50.153   7.698   3.390  1.00 38.15 LIG 0.17  HD
ENDBRANCH 56 57
ENDBRANCH 55 56
BRANCH 55 67
ATOM     67  N   TRP G   5      49.537  11.699   1.579  1.00 35.55 LIG-0.34  N 
ATOM     68 H    TRP G   5      49.222  11.422   2.330  1.00 35.55 LIG 0.16  HD
ATOM     69  C   ARG G   4      50.716  12.294   1.443  1.00 46.16 LIG 0.26  C 
ATOM     70 O    ARG G   4      51.201  12.587   0.347  1.00 51.01 LIG-0.27  OA
BRANCH 69 71
ATOM     71  CA  ARG G   4      51.472  12.576   2.735  1.00 46.30 LIG 0.40  C 
ATOM     72  N   ARG G   4      50.562  12.998   3.798  1.00 41.08 LIG 0.61  N 
BRANCH 71 73
ATOM     73  CB  ARG G   4      52.258  11.337   3.168  1.00 45.78 LIG 0.05  C 
BRANCH 73 74
ATOM     74  CG  ARG G   4      52.857  10.576   1.996  1.00 42.28 LIG 0.02  C 
BRANCH 74 75
ATOM     75  CD  ARG G   4      52.968   9.095   2.326  1.00 34.41 LIG 0.14  C 
BRANCH 75 76
ATOM     76  NE  ARG G   4      53.299   8.300   1.147  1.00 34.91 LIG-0.23  N 
ATOM     77 HE   ARG G   4      53.153   8.644   0.372  1.00 34.91 LIG 0.18  HD
ATOM     78  CZ  ARG G   4      53.810   7.076   1.203  1.00 31.49 LIG 0.67  C 
ATOM     79  NH1 ARG G   4      54.048   6.513   2.380  1.00 30.98 LIG-0.23  N 
ATOM     80  NH2 ARG G   4      54.086   6.413   0.091  1.00 25.73 LIG-0.23  N 
ATOM     81 2HH1 ARG G   4      54.380   5.720   2.418  1.00 30.98 LIG 0.17  HD
ATOM     82 1HH1 ARG G   4      53.872   6.941   3.105  1.00 30.98 LIG 0.17  HD
ATOM     83 1HH2 ARG G   4      53.934   6.775  -0.675  1.00 25.73 LIG 0.17  HD
ATOM     84 2HH2 ARG G   4      54.418   5.621   0.134  1.00 25.73 LIG 0.17  HD
ENDBRANCH 75 76
ENDBRANCH 74 75
ENDBRANCH 73 74
ENDBRANCH 71 73
ENDBRANCH 69 71
ENDBRANCH 55 67
ENDBRANCH 51 55
ENDBRANCH 45 48
ENDBRANCH 1 44
TORSDOF 28
ENDMDL
MODEL 2
USER: ADFR SOLUTION from run 112
USER: SCORE 23.624867 LL:  -5.911 LR: -19.074 RR:   0.000 FEB: -10.722
USER: RMSD 3.979516
USER: SEED 111
USER: STATUS searching
USER: GENES 30
USER: genes 0 Translation |==|  0.46625 0.49999 0.49285
USER: genes 1 Rotation |==|  0.51199 0.45587 0.52158 0.99744
USER: genes 2 Torsion [N]-CA--C-[N] |==|  0.41214
USER: genes 3 Torsion [C]-N--CA-[CB] |==|  0.28308
USER: genes 4 Torsion [N]-CA--CB-[CG2] |==|  0.44896
USER: genes 5 Torsion [CA]-CB--OG1-[HG1] |==|  0.30747
USER: genes 6 Torsion [N]-CA--C-[N] |==|  0.33713
USER: genes 7 Torsion [C]-N--CA-[C] |==|  0.80001
USER: genes 8 Torsion [N]-CA--C-[N] |==|  0.40911
USER: genes 9 Torsion [C]-N--CA-[CB] |==|  0.27144
USER: genes 10 Torsion [N]-CA--CB-[CG] |==|  0.87290
USER: genes 11 Torsion [CA]-CB--CG-[CD1] |==|  0.28756
USER: genes 12 Torsion [N]-CA--C-[OXT] |==|  0.43262
USER: genes 13 Torsion [N]-CA--CB-[CG] |==|  0.73494
USER: genes 14 Torsion [CA]-CB--CG-[CD] |==|  0.25840
USER: genes 15 Torsion [CB]-CG--CD-[NE] |==|  0.45158
USER: genes 16 Torsion [CG]-CD--NE-[CZ] |==|  0.31119
USER: genes 17 Torsion [C]-CA--CB-[CG2] |==|  0.04882
USER: genes 18 Torsion [CA]-CB--OG1-[HG1] |==|  0.43364
USER: genes 19 Torsion [C]-CA--N-[C] |==|  0.69889
USER: genes 20 Torsion [N]-C--CA-[N] |==|  0.41295
USER: genes 21 Torsion [N]-C--CA-[N] |==|  0.42767
USER: genes 22 Torsion [C]-CA--CB-[CG] |==|  0.63753
USER: genes 23 Torsion [CA]-CB--CG-[CD1] |==|  0.31419
USER: genes 24 Torsion [C]-CA--N-[C] |==|  0.81497
USER: genes 25 Torsion [N]-C--CA-[N] |==|  0.52216
USER: genes 26 Torsion [C]-CA--CB-[CG] |==|  0.24892
USER: genes 27 Torsion [CA]-CB--CG-[CD] |==|  0.59697
USER: genes 28 Torsion [CB]-CG--CD-[NE] |==|  0.10859
USER: genes 29 Torsion [CG]-CD--NE-[HE] |==|  0.18931
ROOT
ATOM      1  CA  THR G   7      43.537  15.026  -1.212  1.00 26.40 LIG 0.20  C 
ENDROOT
BRANCH 1 2
ATOM      2  C   THR G   7      43.063  15.616  -2.531  1.00 25.30 LIG 0.24  C 
ATOM      3  N   THR G   8      41.987  15.062  -3.082  1.00 15.59 LIG-0.34  N 
ATOM      4 H    THR G   8      41.554  14.397  -2.749  1.00 15.59 LIG 0.16  HD
ATOM      5 O    THR G   7      43.665  16.556  -3.051  1.00 25.63 LIG-0.27  OA
BRANCH 3 6
ATOM      6  CA  THR G   8      41.458  15.574  -4.339  1.00 11.76 LIG 0.20  C 
BRANCH 6 7
ATOM      7  CB  THR G   8      41.848  14.691  -5.546  1.00 16.39 LIG 0.15  C 
ATOM      8  CG2 THR G   8      40.936  14.980  -6.726  1.00 20.98 LIG 0.04  C 
BRANCH 7 9
ATOM      9 OG1  THR G   8      43.203  14.945  -5.933  1.00 14.98 LIG-0.39  OA
ATOM     10 HG1  THR G   8      43.677  14.276  -5.752  1.00 14.98 LIG 0.21  HD
ENDBRANCH 7 9
ENDBRANCH 6 7
BRANCH 6 11
ATOM     11  C   THR G   8      39.948  15.671  -4.274  1.00 14.98 LIG 0.24  C 
ATOM     12 O    THR G   8      39.264  14.671  -4.046  1.00 17.64 LIG-0.27  OA
ATOM     13  N   ARG G   9      39.415  16.870  -4.472  1.00 15.79 LIG-0.35  N 
ATOM     14 H    ARG G   9      39.863  17.589  -4.617  1.00 15.79 LIG 0.16  HD
BRANCH 13 15
ATOM     15  CA  ARG G   9      37.972  17.031  -4.454  1.00 12.84 LIG 0.18  C 
BRANCH 15 16
ATOM     16  C   ARG G   9      37.375  16.414  -5.706  1.00 12.32 LIG 0.24  C 
ATOM     17  N   LEU G  10      36.169  15.875  -5.576  1.00 12.88 LIG-0.34  N 
ATOM     18 H    LEU G  10      35.708  15.900  -4.851  1.00 12.88 LIG 0.16  HD
ATOM     19 O    ARG G   9      38.009  16.409  -6.764  1.00 17.68 LIG-0.27  OA
BRANCH 17 20
ATOM     20  CA  LEU G  10      35.517  15.184  -6.680  1.00 16.59 LIG 0.18  C 
BRANCH 20 21
ATOM     21  CB  LEU G  10      35.708  13.676  -6.569  1.00 15.66 LIG 0.04  C 
BRANCH 21 22
ATOM     22  CG  LEU G  10      37.113  13.186  -6.246  1.00 23.51 LIG-0.02  C 
ATOM     23  CD1 LEU G  10      37.173  12.776  -4.797  1.00 20.87 LIG 0.01  C 
ATOM     24  CD2 LEU G  10      37.473  12.026  -7.163  1.00 22.37 LIG 0.01  C 
ENDBRANCH 21 22
ENDBRANCH 20 21
BRANCH 20 25
ATOM     25  C   LEU G  10      34.037  15.476  -6.705  1.00 15.89 LIG 0.20  C 
ATOM     26 OXT  LEU G  10      33.426  15.369  -7.762  1.00 24.01 LIG-0.65  OA
ATOM     27 O    LEU G  10      33.427  15.797  -5.678  1.00 15.92 LIG-0.65  OA
ENDBRANCH 20 25
ENDBRANCH 17 20
ENDBRANCH 15 16
BRANCH 15 28
ATOM     28  CB  ARG G   9      37.570  18.501  -4.343  1.00 18.79 LIG 0.04  C 
BRANCH 28 29
ATOM     29  CG  ARG G   9      37.295  18.925  -2.915  1.00 22.18 LIG 0.02  C 
BRANCH 29 30
ATOM     30  CD  ARG G   9      38.524  19.510  -2.249  1.00 31.14 LIG 0.14  C 
BRANCH 30 31
ATOM     31  NE  ARG G   9      38.167  20.274  -1.059  1.00 29.63 LIG-0.23  N 
ATOM     32  CZ  ARG G   9      38.478  19.904   0.177  1.00 25.64 LIG 0.67  C 
ATOM     33  NH2 ARG G   9      38.118  20.655   1.209  1.00 30.24 LIG-0.23  N 
ATOM     34  NH1 ARG G   9      39.141  18.776   0.377  1.00 28.33 LIG-0.23  N 
ATOM     35 1HH2 ARG G   9      37.681  21.384   1.078  1.00 30.24 LIG 0.17  HD
ATOM     36 2HH2 ARG G   9      38.322  20.413   2.008  1.00 30.24 LIG 0.17  HD
ATOM     37 1HH1 ARG G   9      39.369  18.286  -0.292  1.00 28.33 LIG 0.17  HD
ATOM     38 2HH1 ARG G   9      39.345  18.533   1.176  1.00 28.33 LIG 0.17  HD
ATOM     39 HE   ARG G   9      37.729  21.007  -1.164  1.00 29.63 LIG 0.18  HD
ENDBRANCH 30 31
ENDBRANCH 29 30
ENDBRANCH 28 29
ENDBRANCH 15 28
ENDBRANCH 13 15
ENDBRANCH 6 11
ENDBRANCH 3 6
ENDBRANCH 1 2
BRANCH 1 40
ATOM     40  CB  THR G   7      42.830  15.752  -0.050  1.00 34.82 LIG 0.15  C 
ATOM     41  CG2 THR G   7      41.603  16.494  -0.553  1.00 38.74 LIG 0.04  C 
BRANCH 40 42
ATOM     42 OG1  THR G   7      42.426  14.795   0.940  1.00 40.69 LIG-0.39  OA
ATOM     43 HG1  THR G   7      42.349  15.177   1.684  1.00 40.69 LIG 0.21  HD
ENDBRANCH 40 42
ENDBRANCH 1 40
BRANCH 1 44
ATOM     44  N   THR G   7      44.985  15.153  -1.124  1.00 22.98 LIG-0.34  N 
ATOM     45  C   PRO G   6      45.803  14.112  -1.229  1.00 24.87 LIG 0.24  C 
ATOM     46 O    PRO G   6      45.425  12.945  -1.319  1.00 25.14 LIG-0.27  OA
ATOM     47 H    THR G   7      45.257  15.959  -1.000  1.00 22.98 LIG 0.16  HD
BRANCH 45 48
ATOM     48  CA  PRO G   6      47.292  14.409  -1.205  1.00 32.16 LIG 0.18  C 
ATOM     49  N   PRO G   6      48.000  13.282  -0.595  1.00 31.00 LIG-0.34  N 
ATOM     50  CD  PRO G   6      48.837  12.565  -1.569  1.00 36.67 LIG 0.13  C 
ATOM     51  C   TRP G   5      47.723  12.920   0.664  1.00 25.71 LIG 0.24  C 
ATOM     52  CG  PRO G   6      48.295  13.042  -2.889  1.00 44.45 LIG 0.02  C 
ATOM     53  CB  PRO G   6      47.838  14.435  -2.636  1.00 38.26 LIG 0.04  C 
ATOM     54 O    TRP G   5      46.926  13.537   1.375  1.00 31.33 LIG-0.27  OA
BRANCH 51 55
ATOM     55  CA  TRP G   5      48.439  11.693   1.199  1.00 33.03 LIG 0.18  C 
BRANCH 55 56
ATOM     56  CB  TRP G   5      47.676  10.437   0.781  1.00 34.46 LIG 0.07  C 
BRANCH 56 57
ATOM     57  CG  TRP G   5      47.408   9.481   1.904  1.00 31.46 LIG-0.03  A 
ATOM     58  CD2 TRP G   5      48.383   8.733   2.643  1.00 33.83 LIG-0.00  A 
ATOM     59  CE3 TRP G   5      49.775   8.627   2.578  1.00 34.43 LIG 0.01  A 
ATOM     60  CE2 TRP G   5      47.687   7.966   3.601  1.00 38.54 LIG 0.04  A 
ATOM     61  CZ3 TRP G   5      50.422   7.777   3.459  1.00 33.62 LIG 0.00  A 
ATOM     62  CH2 TRP G   5      49.707   7.032   4.402  1.00 35.83 LIG 0.00  A 
ATOM     63  CZ2 TRP G   5      48.342   7.115   4.495  1.00 36.99 LIG 0.03  A 
ATOM     64  NE1 TRP G   5      46.352   8.245   3.459  1.00 38.15 LIG-0.36  N 
ATOM     65  CD1 TRP G   5      46.192   9.158   2.439  1.00 30.20 LIG 0.10  A 
ATOM     66 HE1  TRP G   5      45.717   7.906   3.930  1.00 38.15 LIG 0.17  HD
ENDBRANCH 56 57
ENDBRANCH 55 56
BRANCH 55 67
ATOM     67  N   TRP G   5      48.538  11.778   2.650  1.00 35.55 LIG-0.34  N 
ATOM     68 H    TRP G   5      48.080  11.186   3.073  1.00 35.55 LIG 0.16  HD
ATOM     69  C   ARG G   4      49.282  12.704   3.243  1.00 46.16 LIG 0.26  C 
ATOM     70 O    ARG G   4      50.018  13.477   2.624  1.00 51.01 LIG-0.27  OA
BRANCH 69 71
ATOM     71  CA  ARG G   4      49.203  12.747   4.764  1.00 46.30 LIG 0.40  C 
ATOM     72  N   ARG G   4      49.906  13.912   5.297  1.00 41.08 LIG 0.61  N 
BRANCH 71 73
ATOM     73  CB  ARG G   4      47.742  12.754   5.216  1.00 45.78 LIG 0.05  C 
BRANCH 73 74
ATOM     74  CG  ARG G   4      47.179  11.357   5.422  1.00 42.28 LIG 0.02  C 
BRANCH 74 75
ATOM     75  CD  ARG G   4      45.712  11.313   5.022  1.00 34.41 LIG 0.14  C 
BRANCH 75 76
ATOM     76  NE  ARG G   4      45.451  12.109   3.827  1.00 34.91 LIG-0.23  N 
ATOM     77 HE   ARG G   4      45.778  11.838   3.079  1.00 34.91 LIG 0.18  HD
ATOM     78  CZ  ARG G   4      44.737  13.229   3.829  1.00 31.49 LIG 0.67  C 
ATOM     79  NH1 ARG G   4      44.216  13.679   4.963  1.00 30.98 LIG-0.23  N 
ATOM     80  NH2 ARG G   4      44.540  13.901   2.705  1.00 25.73 LIG-0.23  N 
ATOM     81 2HH1 ARG G   4      43.753  14.403   4.966  1.00 30.98 LIG 0.17  HD
ATOM     82 1HH1 ARG G   4      44.341  13.245   5.695  1.00 30.98 LIG 0.17  HD
ATOM     83 1HH2 ARG G   4      44.876  13.613   1.967  1.00 25.73 LIG 0.17  HD
ATOM     84 2HH2 ARG G   4      44.077  14.625   2.713  1.00 25.73 LIG 0.17  HD
ENDBRANCH 75 76
ENDBRANCH 74 75
ENDBRANCH 73 74
ENDBRANCH 71 73
ENDBRANCH 69 71
ENDBRANCH 55 67
ENDBRANCH 51 55
ENDBRANCH 45 48
ENDBRANCH 1 44
TORSDOF 28
ENDMDL
MODEL 3
USER: ADFR SOLUTION from run 86
USER: SCORE 23.813975 LL:  -6.691 LR: -18.638 RR:   0.000 FEB: -10.285
USER: RMSD 3.469797
USER: SEED 85
USER: STATUS searching
USER: GENES 30
USER: genes 0 Translation |==|  0.46945 0.49475 0.48003
USER: genes 1 Rotation |==|  0.51462 0.45960 0.52267 0.99763
USER: genes 2 Torsion [N]-CA--C-[N] |==|  0.42836
USER: genes 3 Torsion [C]-N--CA-[CB] |==|  0.28333
USER: genes 4 Torsion [N]-CA--CB-[CG2] |==|  0.45847
USER: genes 5 Torsion [CA]-CB--OG1-[HG1] |==|  0.20836
USER: genes 6 Torsion [N]-CA--C-[N] |==|  0.39412
USER: genes 7 Torsion [C]-N--CA-[C] |==|  0.76927
USER: genes 8 Torsion [N]-CA--C-[N] |==|  0.38876
USER: genes 9 Torsion [C]-N--CA-[CB] |==|  0.32310
USER: genes 10 Torsion [N]-CA--CB-[CG] |==|  0.77120
USER: genes 11 Torsion [CA]-CB--CG-[CD1] |==|  0.88971
USER: genes 12 Torsion [N]-CA--C-[OXT] |==|  0.42358
USER: genes 13 Torsion [N]-CA--CB-[CG] |==|  0.64411
USER: genes 14 Torsion [CA]-CB--CG-[CD] |==|  0.94064
USER: genes 15 Torsion [CB]-CG--CD-[NE] |==|  0.75760
USER: genes 16 Torsion [CG]-CD--NE-[CZ] |==|  0.78564
USER: genes 17 Torsion [C]-CA--CB-[CG2] |==|  0.02963
USER: genes 18 Torsion [CA]-CB--OG1-[HG1] |==|  0.95996
USER: genes 19 Torsion [C]-CA--N-[C] |==|  0.67489
USER: genes 20 Torsion [N]-C--CA-[N] |==|  0.45235
USER: genes 21 Torsion [N]-C--CA-[N] |==|  0.37082
USER: genes 22 Torsion [C]-CA--CB-[CG] |==|  0.69204
USER: genes 23 Torsion [CA]-CB--CG-[CD1] |==|  0.28403
USER: genes 24 Torsion [C]-CA--N-[C] |==|  0.68368
USER: genes 25 Torsion [N]-C--CA-[N] |==|  0.96702
USER: genes 26 Torsion [C]-CA--CB-[CG] |==|  0.18806
USER: genes 27 Torsion [CA]-CB--CG-[CD] |==|  0.63829
USER: genes 28 Torsion [CB]-CG--CD-[NE] |==|  0.32282
USER: genes 29 Torsion [CG]-CD--NE-[HE] |==|  0.89526
ROOT
ATOM      1  CA  THR G   7      43.645  14.900  -1.510  1.00 26.40 LIG 0.20  C 
ENDROOT
BRANCH 1 2
ATOM      2  C   THR G   7      43.148  15.500  -2.816  1.00 25.30 LIG 0.24  C 
ATOM      3  N   THR G   8      42.001  15.025  -3.294  1.00 15.59 LIG-0.34  N 
ATOM      4 H    THR G   8      41.535  14.406  -2.921  1.00 15.59 LIG 0.16  HD
ATOM      5 O    THR G   7      43.795  16.376  -3.392  1.00 25.63 LIG-0.27  OA
BRANCH 3 6
ATOM      6  CA  THR G   8      41.446  15.553  -4.533  1.00 11.76 LIG 0.20  C 
BRANCH 6 7
ATOM      7  CB  THR G   8      41.693  14.615  -5.736  1.00 16.39 LIG 0.15  C 
ATOM      8  CG2 THR G   8      40.801  15.008  -6.902  1.00 20.98 LIG 0.04  C 
BRANCH 7 9
ATOM      9 OG1  THR G   8      43.061  14.687  -6.153  1.00 14.98 LIG-0.39  OA
ATOM     10 HG1  THR G   8      43.543  14.268  -5.607  1.00 14.98 LIG 0.21  HD
ENDBRANCH 7 9
ENDBRANCH 6 7
BRANCH 6 11
ATOM     11  C   THR G   8      39.955  15.778  -4.388  1.00 14.98 LIG 0.24  C 
ATOM     12 O    THR G   8      39.260  14.985  -3.751  1.00 17.64 LIG-0.27  OA
ATOM     13  N   ARG G   9      39.452  16.857  -4.975  1.00 15.79 LIG-0.35  N 
ATOM     14 H    ARG G   9      39.910  17.438  -5.412  1.00 15.79 LIG 0.16  HD
BRANCH 13 15
ATOM     15  CA  ARG G   9      38.026  17.119  -4.902  1.00 12.84 LIG 0.18  C 
BRANCH 15 16
ATOM     16  C   ARG G   9      37.306  16.325  -5.979  1.00 12.32 LIG 0.24  C 
ATOM     17  N   LEU G  10      36.149  15.778  -5.628  1.00 12.88 LIG-0.34  N 
ATOM     18 H    LEU G  10      35.779  15.888  -4.860  1.00 12.88 LIG 0.16  HD
ATOM     19 O    ARG G   9      37.806  16.195  -7.099  1.00 17.68 LIG-0.27  OA
BRANCH 17 20
ATOM     20  CA  LEU G  10      35.397  14.929  -6.541  1.00 16.59 LIG 0.18  C 
BRANCH 20 21
ATOM     21  CB  LEU G  10      35.288  13.508  -6.001  1.00 15.66 LIG 0.04  C 
BRANCH 21 22
ATOM     22  CG  LEU G  10      36.477  12.589  -6.248  1.00 23.51 LIG-0.02  C 
ATOM     23  CD1 LEU G  10      37.009  12.832  -7.637  1.00 20.87 LIG 0.01  C 
ATOM     24  CD2 LEU G  10      37.546  12.845  -5.195  1.00 22.37 LIG 0.01  C 
ENDBRANCH 21 22
ENDBRANCH 20 21
BRANCH 20 25
ATOM     25  C   LEU G  10      34.003  15.465  -6.758  1.00 15.89 LIG 0.20  C 
ATOM     26 OXT  LEU G  10      33.427  15.221  -7.812  1.00 24.01 LIG-0.65  OA
ATOM     27 O    LEU G  10      33.425  16.123  -5.885  1.00 15.92 LIG-0.65  OA
ENDBRANCH 20 25
ENDBRANCH 17 20
ENDBRANCH 15 16
BRANCH 15 28
ATOM     28  CB  ARG G   9      37.718  18.609  -5.047  1.00 18.79 LIG 0.04  C 
BRANCH 28 29
ATOM     29  CG  ARG G   9      36.836  19.135  -3.934  1.00 22.18 LIG 0.02  C 
BRANCH 29 30
ATOM     30  CD  ARG G   9      36.056  18.027  -3.256  1.00 31.14 LIG 0.14  C 
BRANCH 30 31
ATOM     31  NE  ARG G   9      34.796  17.771  -3.946  1.00 29.63 LIG-0.23  N 
ATOM     32  CZ  ARG G   9      33.722  18.542  -3.834  1.00 25.64 LIG 0.67  C 
ATOM     33  NH2 ARG G   9      32.613  18.242  -4.495  1.00 30.24 LIG-0.23  N 
ATOM     34  NH1 ARG G   9      33.760  19.608  -3.050  1.00 28.33 LIG-0.23  N 
ATOM     35 1HH2 ARG G   9      32.587  17.545  -4.999  1.00 30.24 LIG 0.17  HD
ATOM     36 2HH2 ARG G   9      31.919  18.744  -4.420  1.00 30.24 LIG 0.17  HD
ATOM     37 1HH1 ARG G   9      34.478  19.799  -2.616  1.00 28.33 LIG 0.17  HD
ATOM     38 2HH1 ARG G   9      33.066  20.111  -2.974  1.00 28.33 LIG 0.17  HD
ATOM     39 HE   ARG G   9      34.746  17.079  -4.455  1.00 29.63 LIG 0.18  HD
ENDBRANCH 30 31
ENDBRANCH 29 30
ENDBRANCH 28 29
ENDBRANCH 15 28
ENDBRANCH 13 15
ENDBRANCH 6 11
ENDBRANCH 3 6
ENDBRANCH 1 2
BRANCH 1 40
ATOM     40  CB  THR G   7      42.952  15.611  -0.331  1.00 34.82 LIG 0.15  C 
ATOM     41  CG2 THR G   7      41.815  16.488  -0.830  1.00 38.74 LIG 0.04  C 
BRANCH 40 42
ATOM     42 OG1  THR G   7      42.426  14.634   0.578  1.00 40.69 LIG-0.39  OA
ATOM     43 HG1  THR G   7      42.419  13.880   0.207  1.00 40.69 LIG 0.21  HD
ENDBRANCH 40 42
ENDBRANCH 1 40
BRANCH 1 44
ATOM     44  N   THR G   7      45.093  15.035  -1.443  1.00 22.98 LIG-0.34  N 
ATOM     45  C   PRO G   6      45.909  13.987  -1.402  1.00 24.87 LIG 0.24  C 
ATOM     46 O    PRO G   6      45.528  12.820  -1.327  1.00 25.14 LIG-0.27  OA
ATOM     47 H    THR G   7      45.368  15.850  -1.433  1.00 22.98 LIG 0.16  HD
BRANCH 45 48
ATOM     48  CA  PRO G   6      47.398  14.281  -1.422  1.00 32.16 LIG 0.18  C 
ATOM     49  N   PRO G   6      48.131  13.098  -0.967  1.00 31.00 LIG-0.34  N 
ATOM     50  CD  PRO G   6      48.915  12.484  -2.049  1.00 36.67 LIG 0.13  C 
ATOM     51  C   TRP G   5      47.915  12.610   0.261  1.00 25.71 LIG 0.24  C 
ATOM     52  CG  PRO G   6      48.310  13.093  -3.285  1.00 44.45 LIG 0.02  C 
ATOM     53  CB  PRO G   6      47.873  14.453  -2.869  1.00 38.26 LIG 0.04  C 
ATOM     54 O    TRP G   5      47.157  13.150   1.070  1.00 31.33 LIG-0.27  OA
BRANCH 51 55
ATOM     55  CA  TRP G   5      48.651  11.334   0.632  1.00 33.03 LIG 0.18  C 
BRANCH 55 56
ATOM     56  CB  TRP G   5      47.676  10.158   0.602  1.00 34.46 LIG 0.07  C 
BRANCH 56 57
ATOM     57  CG  TRP G   5      47.369   9.583   1.952  1.00 31.46 LIG-0.03  A 
ATOM     58  CD2 TRP G   5      48.212   8.717   2.725  1.00 33.83 LIG-0.00  A 
ATOM     59  CE3 TRP G   5      49.471   8.150   2.514  1.00 34.43 LIG 0.01  A 
ATOM     60  CE2 TRP G   5      47.526   8.424   3.923  1.00 38.54 LIG 0.04  A 
ATOM     61  CZ3 TRP G   5      50.004   7.325   3.490  1.00 33.62 LIG 0.00  A 
ATOM     62  CH2 TRP G   5      49.304   7.056   4.671  1.00 35.83 LIG 0.00  A 
ATOM     63  CZ2 TRP G   5      48.069   7.598   4.910  1.00 36.99 LIG 0.03  A 
ATOM     64  NE1 TRP G   5      46.329   9.091   3.885  1.00 38.15 LIG-0.36  N 
ATOM     65  CD1 TRP G   5      46.242   9.787   2.698  1.00 30.20 LIG 0.10  A 
ATOM     66 HE1  TRP G   5      45.729   9.078   4.501  1.00 38.15 LIG 0.17  HD
ENDBRANCH 56 57
ENDBRANCH 55 56
BRANCH 55 67
ATOM     67  N   TRP G   5      49.245  11.479   1.953  1.00 35.55 LIG-0.34  N 
ATOM     68 H    TRP G   5      48.677  11.550   2.594  1.00 35.55 LIG 0.16  HD
ATOM     69  C   ARG G   4      50.563  11.497   2.126  1.00 46.16 LIG 0.26  C 
ATOM     70 O    ARG G   4      51.365  11.285   1.213  1.00 51.01 LIG-0.27  OA
BRANCH 69 71
ATOM     71  CA  ARG G   4      51.044  11.768   3.546  1.00 46.30 LIG 0.40  C 
ATOM     72  N   ARG G   4      49.949  12.233   4.395  1.00 41.08 LIG 0.61  N 
BRANCH 71 73
ATOM     73  CB  ARG G   4      51.679  10.509   4.137  1.00 45.78 LIG 0.05  C 
BRANCH 73 74
ATOM     74  CG  ARG G   4      52.981  10.125   3.453  1.00 42.28 LIG 0.02  C 
BRANCH 74 75
ATOM     75  CD  ARG G   4      52.963   8.653   3.066  1.00 34.41 LIG 0.14  C 
BRANCH 75 76
ATOM     76  NE  ARG G   4      53.026   8.473   1.619  1.00 34.91 LIG-0.23  N 
ATOM     77 HE   ARG G   4      52.598   9.029   1.121  1.00 34.91 LIG 0.18  HD
ATOM     78  CZ  ARG G   4      53.707   7.499   1.027  1.00 31.49 LIG 0.67  C 
ATOM     79  NH1 ARG G   4      54.380   6.622   1.760  1.00 30.98 LIG-0.23  N 
ATOM     80  NH2 ARG G   4      53.720   7.396  -0.294  1.00 25.73 LIG-0.23  N 
ATOM     81 2HH1 ARG G   4      54.821   5.991   1.378  1.00 30.98 LIG 0.17  HD
ATOM     82 1HH1 ARG G   4      54.375   6.686   2.618  1.00 30.98 LIG 0.17  HD
ATOM     83 1HH2 ARG G   4      53.286   7.963  -0.773  1.00 25.73 LIG 0.17  HD
ATOM     84 2HH2 ARG G   4      54.162   6.763  -0.671  1.00 25.73 LIG 0.17  HD
ENDBRANCH 75 76
ENDBRANCH 74 75
ENDBRANCH 73 74
ENDBRANCH 71 73
ENDBRANCH 69 71
ENDBRANCH 55 67
ENDBRANCH 51 55
ENDBRANCH 45 48
ENDBRANCH 1 44
TORSDOF 28
ENDMDL
MODEL 4
USER: ADFR SOLUTION from run 89
USER: SCORE 23.372671 LL:  -6.437 LR: -18.322 RR:   0.000 FEB:  -9.970
USER: RMSD 3.626880
USER: SEED 88
USER: STATUS searching
USER: GENES 30
USER: genes 0 Translation |==|  0.46667 0.49630 0.47979
USER: genes 1 Rotation |==|  0.51763 0.47053 0.52055 0.99840
USER: genes 2 Torsion [N]-CA--C-[N] |==|  0.41548
USER: genes 3 Torsion [C]-N--CA-[CB] |==|  0.26667
USER: genes 4 Torsion [N]-CA--CB-[CG2] |==|  0.48810
USER: genes 5 Torsion [CA]-CB--OG1-[HG1] |==|  0.24645
USER: genes 6 Torsion [N]-CA--C-[N] |==|  0.33759
USER: genes 7 Torsion [C]-N--CA-[C] |==|  0.80358
USER: genes 8 Torsion [N]-CA--C-[N] |==|  0.42318
USER: genes 9 Torsion [C]-N--CA-[CB] |==|  0.32110
USER: genes 10 Torsion [N]-CA--CB-[CG] |==|  0.75896
USER: genes 11 Torsion [CA]-CB--CG-[CD1] |==|  0.89714
USER: genes 12 Torsion [N]-CA--C-[OXT] |==|  0.43305
USER: genes 13 Torsion [N]-CA--CB-[CG] |==|  0.25919
USER: genes 14 Torsion [CA]-CB--CG-[CD] |==|  0.24375
USER: genes 15 Torsion [CB]-CG--CD-[NE] |==|  0.18025
USER: genes 16 Torsion [CG]-CD--NE-[CZ] |==|  0.73188
USER: genes 17 Torsion [C]-CA--CB-[CG2] |==|  0.02793
USER: genes 18 Torsion [CA]-CB--OG1-[HG1] |==|  0.95792
USER: genes 19 Torsion [C]-CA--N-[C] |==|  0.66912
USER: genes 20 Torsion [N]-C--CA-[N] |==|  0.42121
USER: genes 21 Torsion [N]-C--CA-[N] |==|  0.42972
USER: genes 22 Torsion [C]-CA--CB-[CG] |==|  0.56585
USER: genes 23 Torsion [CA]-CB--CG-[CD1] |==|  0.81619
USER: genes 24 Torsion [C]-CA--N-[C] |==|  0.63225
USER: genes 25 Torsion [N]-C--CA-[N] |==|  0.78840
USER: genes 26 Torsion [C]-CA--CB-[CG] |==|  0.74813
USER: genes 27 Torsion [CA]-CB--CG-[CD] |==|  0.37756
USER: genes 28 Torsion [CB]-CG--CD-[NE] |==|  0.66600
USER: genes 29 Torsion [CG]-CD--NE-[HE] |==|  0.25219
ROOT
ATOM      1  CA  THR G   7      43.551  14.937  -1.516  1.00 26.40 LIG 0.20  C 
ENDROOT
BRANCH 1 2
ATOM      2  C   THR G   7      43.000  15.554  -2.792  1.00 25.30 LIG 0.24  C 
ATOM      3  N   THR G   8      41.879  15.027  -3.275  1.00 15.59 LIG-0.34  N 
ATOM      4 H    THR G   8      41.457  14.366  -2.922  1.00 15.59 LIG 0.16  HD
ATOM      5 O    THR G   7      43.584  16.490  -3.340  1.00 25.63 LIG-0.27  OA
BRANCH 3 6
ATOM      6  CA  THR G   8      41.275  15.566  -4.487  1.00 11.76 LIG 0.20  C 
BRANCH 6 7
ATOM      7  CB  THR G   8      41.685  14.777  -5.751  1.00 16.39 LIG 0.15  C 
ATOM      8  CG2 THR G   8      40.949  15.312  -6.967  1.00 20.98 LIG 0.04  C 
BRANCH 7 9
ATOM      9 OG1  THR G   8      43.095  14.889  -5.975  1.00 14.98 LIG-0.39  OA
ATOM     10 HG1  THR G   8      43.494  14.276  -5.562  1.00 14.98 LIG 0.21  HD
ENDBRANCH 7 9
ENDBRANCH 6 7
BRANCH 6 11
ATOM     11  C   THR G   8      39.766  15.554  -4.373  1.00 14.98 LIG 0.24  C 
ATOM     12 O    THR G   8      39.159  14.500  -4.177  1.00 17.64 LIG-0.27  OA
ATOM     13  N   ARG G   9      39.146  16.722  -4.494  1.00 15.79 LIG-0.35  N 
ATOM     14 H    ARG G   9      39.539  17.477  -4.614  1.00 15.79 LIG 0.16  HD
BRANCH 13 15
ATOM     15  CA  ARG G   9      37.697  16.781  -4.425  1.00 12.84 LIG 0.18  C 
BRANCH 15 16
ATOM     16  C   ARG G   9      37.102  16.158  -5.675  1.00 12.32 LIG 0.24  C 
ATOM     17  N   LEU G  10      35.893  15.624  -5.546  1.00 12.88 LIG-0.34  N 
ATOM     18 H    LEU G  10      35.430  15.655  -4.822  1.00 12.88 LIG 0.16  HD
ATOM     19 O    ARG G   9      37.739  16.144  -6.731  1.00 17.68 LIG-0.27  OA
BRANCH 17 20
ATOM     20  CA  LEU G  10      35.243  14.927  -6.647  1.00 16.59 LIG 0.18  C 
BRANCH 20 21
ATOM     21  CB  LEU G  10      35.040  13.453  -6.317  1.00 15.66 LIG 0.04  C 
BRANCH 21 22
ATOM     22  CG  LEU G  10      36.196  12.515  -6.636  1.00 23.51 LIG-0.02  C 
ATOM     23  CD1 LEU G  10      36.852  12.959  -7.918  1.00 20.87 LIG 0.01  C 
ATOM     24  CD2 LEU G  10      37.188  12.516  -5.480  1.00 22.37 LIG 0.01  C 
ENDBRANCH 21 22
ENDBRANCH 20 21
BRANCH 20 25
ATOM     25  C   LEU G  10      33.897  15.537  -6.955  1.00 15.89 LIG 0.20  C 
ATOM     26 OXT  LEU G  10      33.423  15.397  -8.077  1.00 24.01 LIG-0.65  OA
ATOM     27 O    LEU G  10      33.257  16.151  -6.094  1.00 15.92 LIG-0.65  OA
ENDBRANCH 20 25
ENDBRANCH 17 20
ENDBRANCH 15 16
BRANCH 15 28
ATOM     28  CB  ARG G   9      37.199  18.216  -4.259  1.00 18.79 LIG 0.04  C 
BRANCH 28 29
ATOM     29  CG  ARG G   9      36.872  18.878  -5.582  1.00 22.18 LIG 0.02  C 
BRANCH 29 30
ATOM     30  CD  ARG G   9      35.444  18.612  -6.013  1.00 31.14 LIG 0.14  C 
BRANCH 30 31
ATOM     31  NE  ARG G   9      34.492  19.217  -5.088  1.00 29.63 LIG-0.23  N 
ATOM     32  CZ  ARG G   9      33.907  18.560  -4.095  1.00 25.64 LIG 0.67  C 
ATOM     33  NH2 ARG G   9      33.051  19.182  -3.296  1.00 30.24 LIG-0.23  N 
ATOM     34  NH1 ARG G   9      34.173  17.276  -3.912  1.00 28.33 LIG-0.23  N 
ATOM     35 1HH2 ARG G   9      32.874  20.014  -3.420  1.00 30.24 LIG 0.17  HD
ATOM     36 2HH2 ARG G   9      32.674  18.753  -2.653  1.00 30.24 LIG 0.17  HD
ATOM     37 1HH1 ARG G   9      34.723  16.872  -4.435  1.00 28.33 LIG 0.17  HD
ATOM     38 2HH1 ARG G   9      33.796  16.846  -3.270  1.00 28.33 LIG 0.17  HD
ATOM     39 HE   ARG G   9      34.297  20.048  -5.193  1.00 29.63 LIG 0.18  HD
ENDBRANCH 30 31
ENDBRANCH 29 30
ENDBRANCH 28 29
ENDBRANCH 15 28
ENDBRANCH 13 15
ENDBRANCH 6 11
ENDBRANCH 3 6
ENDBRANCH 1 2
BRANCH 1 40
ATOM     40  CB  THR G   7      42.915  15.640  -0.300  1.00 34.82 LIG 0.15  C 
ATOM     41  CG2 THR G   7      41.773  16.540  -0.740  1.00 38.74 LIG 0.04  C 
BRANCH 40 42
ATOM     42 OG1  THR G   7      42.412  14.656   0.615  1.00 40.69 LIG-0.39  OA
ATOM     43 HG1  THR G   7      42.369  13.911   0.230  1.00 40.69 LIG 0.21  HD
ENDBRANCH 40 42
ENDBRANCH 1 40
BRANCH 1 44
ATOM     44  N   THR G   7      45.002  15.063  -1.512  1.00 22.98 LIG-0.34  N 
ATOM     45  C   PRO G   6      45.811  14.010  -1.478  1.00 24.87 LIG 0.24  C 
ATOM     46 O    PRO G   6      45.426  12.848  -1.357  1.00 25.14 LIG-0.27  OA
ATOM     47 H    THR G   7      45.282  15.875  -1.534  1.00 22.98 LIG 0.16  HD
BRANCH 45 48
ATOM     48  CA  PRO G   6      47.301  14.292  -1.567  1.00 32.16 LIG 0.18  C 
ATOM     49  N   PRO G   6      48.036  13.234  -0.869  1.00 31.00 LIG-0.34  N 
ATOM     50  CD  PRO G   6      48.816  12.401  -1.798  1.00 36.67 LIG 0.13  C 
ATOM     51  C   TRP G   5      47.825  13.022   0.436  1.00 25.71 LIG 0.24  C 
ATOM     52  CG  PRO G   6      48.205  12.729  -3.133  1.00 44.45 LIG 0.02  C 
ATOM     53  CB  PRO G   6      47.769  14.147  -3.018  1.00 38.26 LIG 0.04  C 
ATOM     54 O    TRP G   5      47.070  13.725   1.112  1.00 31.33 LIG-0.27  OA
BRANCH 51 55
ATOM     55  CA  TRP G   5      48.562  11.856   1.070  1.00 33.03 LIG 0.18  C 
BRANCH 55 56
ATOM     56  CB  TRP G   5      47.781  10.566   0.824  1.00 34.46 LIG 0.07  C 
BRANCH 56 57
ATOM     57  CG  TRP G   5      48.062   9.482   1.820  1.00 31.46 LIG-0.03  A 
ATOM     58  CD2 TRP G   5      47.139   8.931   2.769  1.00 33.83 LIG-0.00  A 
ATOM     59  CE3 TRP G   5      45.801   9.188   3.080  1.00 34.43 LIG 0.01  A 
ATOM     60  CE2 TRP G   5      47.828   7.941   3.501  1.00 38.54 LIG 0.04  A 
ATOM     61  CZ3 TRP G   5      45.199   8.460   4.091  1.00 33.62 LIG 0.00  A 
ATOM     62  CH2 TRP G   5      45.905   7.481   4.797  1.00 35.83 LIG 0.00  A 
ATOM     63  CZ2 TRP G   5      47.217   7.201   4.515  1.00 36.99 LIG 0.03  A 
ATOM     64  NE1 TRP G   5      49.108   7.885   3.010  1.00 38.15 LIG-0.36  N 
ATOM     65  CD1 TRP G   5      49.240   8.812   1.999  1.00 30.20 LIG 0.10  A 
ATOM     66 HE1  TRP G   5      49.727   7.356   3.288  1.00 38.15 LIG 0.17  HD
ENDBRANCH 56 57
ENDBRANCH 55 56
BRANCH 55 67
ATOM     67  N   TRP G   5      48.724  12.098   2.497  1.00 35.55 LIG-0.34  N 
ATOM     68 H    TRP G   5      48.008  12.355   2.898  1.00 35.55 LIG 0.16  HD
ATOM     69  C   ARG G   4      49.894  11.927   3.103  1.00 46.16 LIG 0.26  C 
ATOM     70 O    ARG G   4      50.884  11.455   2.539  1.00 51.01 LIG-0.27  OA
BRANCH 69 71
ATOM     71  CA  ARG G   4      49.945  12.326   4.573  1.00 46.30 LIG 0.40  C 
ATOM     72  N   ARG G   4      50.007  13.778   4.725  1.00 41.08 LIG 0.61  N 
BRANCH 71 73
ATOM     73  CB  ARG G   4      48.731  11.764   5.314  1.00 45.78 LIG 0.05  C 
BRANCH 73 74
ATOM     74  CG  ARG G   4      47.548  12.720   5.324  1.00 42.28 LIG 0.02  C 
BRANCH 74 75
ATOM     75  CD  ARG G   4      46.259  11.972   5.019  1.00 34.41 LIG 0.14  C 
BRANCH 75 76
ATOM     76  NE  ARG G   4      45.602  12.491   3.822  1.00 34.91 LIG-0.23  N 
ATOM     77 HE   ARG G   4      45.799  12.135   3.064  1.00 34.91 LIG 0.18  HD
ATOM     78  CZ  ARG G   4      44.718  13.481   3.838  1.00 31.49 LIG 0.67  C 
ATOM     79  NH1 ARG G   4      44.389  14.055   4.988  1.00 30.98 LIG-0.23  N 
ATOM     80  NH2 ARG G   4      44.161  13.901   2.713  1.00 25.73 LIG-0.23  N 
ATOM     81 2HH1 ARG G   4      43.816  14.697   5.000  1.00 30.98 LIG 0.17  HD
ATOM     82 1HH1 ARG G   4      44.748  13.785   5.721  1.00 30.98 LIG 0.17  HD
ATOM     83 1HH2 ARG G   4      44.371  13.532   1.965  1.00 25.73 LIG 0.17  HD
ATOM     84 2HH2 ARG G   4      43.589  14.543   2.730  1.00 25.73 LIG 0.17  HD
ENDBRANCH 75 76
ENDBRANCH 74 75
ENDBRANCH 73 74
ENDBRANCH 71 73
ENDBRANCH 69 71
ENDBRANCH 55 67
ENDBRANCH 51 55
ENDBRANCH 45 48
ENDBRANCH 1 44
TORSDOF 28
ENDMDL
MODEL 5
USER: ADFR SOLUTION from run 91
USER: SCORE 21.904374 LL:  -5.522 LR: -18.294 RR:   0.000 FEB:  -9.942
USER: RMSD 3.856123
USER: SEED 90
USER: STATUS no improvement in best in 8 clusters for 5 generations
USER: GENES 30
USER: genes 0 Translation |==|  0.46611 0.50577 0.46444
USER: genes 1 Rotation |==|  0.46087 0.50152 0.48094 0.99810
USER: genes 2 Torsion [N]-CA--C-[N] |==|  0.40589
USER: genes 3 Torsion [C]-N--CA-[CB] |==|  0.27096
USER: genes 4 Torsion [N]-CA--CB-[CG2] |==|  0.47880
USER: genes 5 Torsion [CA]-CB--OG1-[HG1] |==|  0.14037
USER: genes 6 Torsion [N]-CA--C-[N] |==|  0.33564
USER: genes 7 Torsion [C]-N--CA-[C] |==|  0.76232
USER: genes 8 Torsion [N]-CA--C-[N] |==|  0.25809
USER: genes 9 Torsion [C]-N--CA-[CB] |==|  0.37000
USER: genes 10 Torsion [N]-CA--CB-[CG] |==|  0.96268
USER: genes 11 Torsion [CA]-CB--CG-[CD1] |==|  0.23974
USER: genes 12 Torsion [N]-CA--C-[OXT] |==|  0.39958
USER: genes 13 Torsion [N]-CA--CB-[CG] |==|  0.72780
USER: genes 14 Torsion [CA]-CB--CG-[CD] |==|  0.27539
USER: genes 15 Torsion [CB]-CG--CD-[NE] |==|  0.43312
USER: genes 16 Torsion [CG]-CD--NE-[CZ] |==|  0.30804
USER: genes 17 Torsion [C]-CA--CB-[CG2] |==|  0.24405
USER: genes 18 Torsion [CA]-CB--OG1-[HG1] |==|  0.48410
USER: genes 19 Torsion [C]-CA--N-[C] |==|  0.66774
USER: genes 20 Torsion [N]-C--CA-[N] |==|  0.36121
USER: genes 21 Torsion [N]-C--CA-[N] |==|  0.23617
USER: genes 22 Torsion [C]-CA--CB-[CG] |==|  0.30027
USER: genes 23 Torsion [CA]-CB--CG-[CD1] |==|  0.54269
USER: genes 24 Torsion [C]-CA--N-[C] |==|  0.71675
USER: genes 25 Torsion [N]-C--CA-[N] |==|  0.37521
USER: genes 26 Torsion [C]-CA--CB-[CG] |==|  0.08412
USER: genes 27 Torsion [CA]-CB--CG-[CD] |==|  0.58461
USER: genes 28 Torsion [CB]-CG--CD-[NE] |==|  0.27918
USER: genes 29 Torsion [CG]-CD--NE-[HE] |==|  0.99479
ROOT
ATOM      1  CA  THR G   7      43.532  15.165  -1.873  1.00 26.40 LIG 0.20  C 
ENDROOT
BRANCH 1 2
ATOM      2  C   THR G   7      42.912  15.588  -3.195  1.00 25.30 LIG 0.24  C 
ATOM      3  N   THR G   8      41.695  15.122  -3.461  1.00 15.59 LIG-0.34  N 
ATOM      4 H    THR G   8      41.248  14.599  -2.945  1.00 15.59 LIG 0.16  HD
ATOM      5 O    THR G   7      43.526  16.322  -3.971  1.00 25.63 LIG-0.27  OA
BRANCH 3 6
ATOM      6  CA  THR G   8      41.022  15.489  -4.700  1.00 11.76 LIG 0.20  C 
BRANCH 6 7
ATOM      7  CB  THR G   8      41.173  14.410  -5.795  1.00 16.39 LIG 0.15  C 
ATOM      8  CG2 THR G   8      40.303  14.750  -6.993  1.00 20.98 LIG 0.04  C 
BRANCH 7 9
ATOM      9 OG1  THR G   8      42.537  14.319  -6.222  1.00 14.98 LIG-0.39  OA
ATOM     10 HG1  THR G   8      43.036  14.243  -5.551  1.00 14.98 LIG 0.21  HD
ENDBRANCH 7 9
ENDBRANCH 6 7
BRANCH 6 11
ATOM     11  C   THR G   8      39.548  15.725  -4.448  1.00 14.98 LIG 0.24  C 
ATOM     12 O    THR G   8      38.839  14.829  -3.985  1.00 17.64 LIG-0.27  OA
ATOM     13  N   ARG G   9      39.072  16.927  -4.747  1.00 15.79 LIG-0.35  N 
ATOM     14 H    ARG G   9      39.541  17.579  -5.055  1.00 15.79 LIG 0.16  HD
BRANCH 13 15
ATOM     15  CA  ARG G   9      37.661  17.214  -4.559  1.00 12.84 LIG 0.18  C 
BRANCH 15 16
ATOM     16  C   ARG G   9      36.884  16.774  -5.787  1.00 12.32 LIG 0.24  C 
ATOM     17  N   LEU G  10      36.378  15.547  -5.753  1.00 12.88 LIG-0.34  N 
ATOM     18 H    LEU G  10      36.431  15.025  -5.071  1.00 12.88 LIG 0.16  HD
ATOM     19 O    ARG G   9      36.766  17.529  -6.756  1.00 17.68 LIG-0.27  OA
BRANCH 17 20
ATOM     20  CA  LEU G  10      35.679  14.976  -6.895  1.00 16.59 LIG 0.18  C 
BRANCH 20 21
ATOM     21  CB  LEU G  10      36.165  13.561  -7.182  1.00 15.66 LIG 0.04  C 
BRANCH 21 22
ATOM     22  CG  LEU G  10      37.448  13.125  -6.488  1.00 23.51 LIG-0.02  C 
ATOM     23  CD1 LEU G  10      37.112  12.582  -5.123  1.00 20.87 LIG 0.01  C 
ATOM     24  CD2 LEU G  10      38.159  12.080  -7.337  1.00 22.37 LIG 0.01  C 
ENDBRANCH 21 22
ENDBRANCH 20 21
BRANCH 20 25
ATOM     25  C   LEU G  10      34.190  14.928  -6.651  1.00 15.89 LIG 0.20  C 
ATOM     26 OXT  LEU G  10      33.426  15.133  -7.588  1.00 24.01 LIG-0.65  OA
ATOM     27 O    LEU G  10      33.730  14.664  -5.534  1.00 15.92 LIG-0.65  OA
ENDBRANCH 20 25
ENDBRANCH 17 20
ENDBRANCH 15 16
BRANCH 15 28
ATOM     28  CB  ARG G   9      37.419  18.696  -4.281  1.00 18.79 LIG 0.04  C 
BRANCH 28 29
ATOM     29  CG  ARG G   9      37.270  18.997  -2.803  1.00 22.18 LIG 0.02  C 
BRANCH 29 30
ATOM     30  CD  ARG G   9      38.552  19.531  -2.199  1.00 31.14 LIG 0.14  C 
BRANCH 30 31
ATOM     31  NE  ARG G   9      38.283  20.323  -1.004  1.00 29.63 LIG-0.23  N 
ATOM     32  CZ  ARG G   9      38.612  19.942   0.224  1.00 25.64 LIG 0.67  C 
ATOM     33  NH2 ARG G   9      38.334  20.720   1.261  1.00 30.24 LIG-0.23  N 
ATOM     34  NH1 ARG G   9      39.210  18.776   0.411  1.00 28.33 LIG-0.23  N 
ATOM     35 1HH2 ARG G   9      37.939  21.474   1.139  1.00 30.24 LIG 0.17  HD
ATOM     36 2HH2 ARG G   9      38.549  20.471   2.055  1.00 30.24 LIG 0.17  HD
ATOM     37 1HH1 ARG G   9      39.384  18.269  -0.262  1.00 28.33 LIG 0.17  HD
ATOM     38 2HH1 ARG G   9      39.424  18.525   1.205  1.00 28.33 LIG 0.17  HD
ATOM     39 HE   ARG G   9      37.888  21.081  -1.101  1.00 29.63 LIG 0.18  HD
ENDBRANCH 30 31
ENDBRANCH 29 30
ENDBRANCH 28 29
ENDBRANCH 15 28
ENDBRANCH 13 15
ENDBRANCH 6 11
ENDBRANCH 3 6
ENDBRANCH 1 2
BRANCH 1 40
ATOM     40  CB  THR G   7      43.183  16.208  -0.793  1.00 34.82 LIG 0.15  C 
ATOM     41  CG2 THR G   7      41.856  15.872  -0.134  1.00 38.74 LIG 0.04  C 
BRANCH 40 42
ATOM     42 OG1  THR G   7      44.212  16.228   0.207  1.00 40.69 LIG-0.39  OA
ATOM     43 HG1  THR G   7      44.061  16.849   0.752  1.00 40.69 LIG 0.21  HD
ENDBRANCH 40 42
ENDBRANCH 1 40
BRANCH 1 44
ATOM     44  N   THR G   7      44.972  15.027  -2.043  1.00 22.98 LIG-0.34  N 
ATOM     45  C   PRO G   6      45.610  13.881  -1.839  1.00 24.87 LIG 0.24  C 
ATOM     46 O    PRO G   6      45.075  12.860  -1.408  1.00 25.14 LIG-0.27  OA
ATOM     47 H    THR G   7      45.365  15.752  -2.285  1.00 22.98 LIG 0.16  HD
BRANCH 45 48
ATOM     48  CA  PRO G   6      47.099  13.866  -2.140  1.00 32.16 LIG 0.18  C 
ATOM     49  N   PRO G   6      47.818  13.298  -0.998  1.00 31.00 LIG-0.34  N 
ATOM     50  CD  PRO G   6      48.419  11.994  -1.319  1.00 36.67 LIG 0.13  C 
ATOM     51  C   TRP G   5      47.737  13.885   0.203  1.00 25.71 LIG 0.24  C 
ATOM     52  CG  PRO G   6      47.693  11.592  -2.574  1.00 44.45 LIG 0.02  C 
ATOM     53  CB  PRO G   6      47.390  12.872  -3.269  1.00 38.26 LIG 0.04  C 
ATOM     54 O    TRP G   5      47.122  14.937   0.391  1.00 31.33 LIG-0.27  OA
BRANCH 51 55
ATOM     55  CA  TRP G   5      48.442  13.191   1.355  1.00 33.03 LIG 0.18  C 
BRANCH 55 56
ATOM     56  CB  TRP G   5      47.750  13.553   2.668  1.00 34.46 LIG 0.07  C 
BRANCH 56 57
ATOM     57  CG  TRP G   5      46.960  12.432   3.273  1.00 31.46 LIG-0.03  A 
ATOM     58  CD2 TRP G   5      47.055  11.040   2.937  1.00 33.83 LIG-0.00  A 
ATOM     59  CE3 TRP G   5      47.820  10.315   2.020  1.00 34.43 LIG 0.01  A 
ATOM     60  CE2 TRP G   5      46.131  10.349   3.749  1.00 38.54 LIG 0.04  A 
ATOM     61  CZ3 TRP G   5      47.649   8.944   1.945  1.00 33.62 LIG 0.00  A 
ATOM     62  CH2 TRP G   5      46.729   8.283   2.766  1.00 35.83 LIG 0.00  A 
ATOM     63  CZ2 TRP G   5      45.965   8.964   3.678  1.00 36.99 LIG 0.03  A 
ATOM     64  NE1 TRP G   5      45.513  11.276   4.549  1.00 38.15 LIG-0.36  N 
ATOM     65  CD1 TRP G   5      46.018  12.525   4.258  1.00 30.20 LIG 0.10  A 
ATOM     66 HE1  TRP G   5      44.910  11.105   5.137  1.00 38.15 LIG 0.17  HD
ENDBRANCH 56 57
ENDBRANCH 55 56
BRANCH 55 67
ATOM     67  N   TRP G   5      49.843  13.590   1.382  1.00 35.55 LIG-0.34  N 
ATOM     68 H    TRP G   5      49.984  14.368   1.719  1.00 35.55 LIG 0.16  HD
ATOM     69  C   ARG G   4      50.801  12.797   0.917  1.00 46.16 LIG 0.26  C 
ATOM     70 O    ARG G   4      50.596  11.641   0.536  1.00 51.01 LIG-0.27  OA
BRANCH 69 71
ATOM     71  CA  ARG G   4      52.206  13.388   0.904  1.00 46.30 LIG 0.40  C 
ATOM     72  N   ARG G   4      53.186  12.433   1.416  1.00 41.08 LIG 0.61  N 
BRANCH 71 73
ATOM     73  CB  ARG G   4      52.580  13.828  -0.512  1.00 45.78 LIG 0.05  C 
BRANCH 73 74
ATOM     74  CG  ARG G   4      51.378  14.266  -1.333  1.00 42.28 LIG 0.02  C 
BRANCH 74 75
ATOM     75  CD  ARG G   4      51.609  13.974  -2.809  1.00 34.41 LIG 0.14  C 
BRANCH 75 76
ATOM     76  NE  ARG G   4      50.923  12.757  -3.234  1.00 34.91 LIG-0.23  N 
ATOM     77 HE   ARG G   4      50.487  12.310  -2.643  1.00 34.91 LIG 0.18  HD
ATOM     78  CZ  ARG G   4      50.935  12.303  -4.481  1.00 31.49 LIG 0.67  C 
ATOM     79  NH1 ARG G   4      51.597  12.966  -5.420  1.00 30.98 LIG-0.23  N 
ATOM     80  NH2 ARG G   4      50.290  11.190  -4.796  1.00 25.73 LIG-0.23  N 
ATOM     81 2HH1 ARG G   4      51.606  12.673  -6.229  1.00 30.98 LIG 0.17  HD
ATOM     82 1HH1 ARG G   4      52.017  13.690  -5.221  1.00 30.98 LIG 0.17  HD
ATOM     83 1HH2 ARG G   4      49.859  10.757  -4.191  1.00 25.73 LIG 0.17  HD
ATOM     84 2HH2 ARG G   4      50.301  10.901  -5.605  1.00 25.73 LIG 0.17  HD
ENDBRANCH 75 76
ENDBRANCH 74 75
ENDBRANCH 73 74
ENDBRANCH 71 73
ENDBRANCH 69 71
ENDBRANCH 55 67
ENDBRANCH 51 55
ENDBRANCH 45 48
ENDBRANCH 1 44
TORSDOF 28
ENDMDL
MODEL 6
USER: ADFR SOLUTION from run 52
USER: SCORE 21.468574 LL:  -4.839 LR: -18.219 RR:   0.000 FEB:  -9.867
USER: RMSD 4.688481
USER: SEED 51
USER: STATUS no improvement in best in 10 clusters for 5 generations
USER: GENES 30
USER: genes 0 Translation |==|  0.46317 0.49958 0.48717
USER: genes 1 Rotation |==|  0.51462 0.44947 0.53435 0.99604
USER: genes 2 Torsion [N]-CA--C-[N] |==|  0.42402
USER: genes 3 Torsion [C]-N--CA-[CB] |==|  0.28179
USER: genes 4 Torsion [N]-CA--CB-[CG2] |==|  0.45153
USER: genes 5 Torsion [CA]-CB--OG1-[HG1] |==|  0.26664
USER: genes 6 Torsion [N]-CA--C-[N] |==|  0.34869
USER: genes 7 Torsion [C]-N--CA-[C] |==|  0.79664
USER: genes 8 Torsion [N]-CA--C-[N] |==|  0.40731
USER: genes 9 Torsion [C]-N--CA-[CB] |==|  0.28306
USER: genes 10 Torsion [N]-CA--CB-[CG] |==|  0.86648
USER: genes 11 Torsion [CA]-CB--CG-[CD1] |==|  0.46813
USER: genes 12 Torsion [N]-CA--C-[OXT] |==|  0.43145
USER: genes 13 Torsion [N]-CA--CB-[CG] |==|  0.76749
USER: genes 14 Torsion [CA]-CB--CG-[CD] |==|  0.21895
USER: genes 15 Torsion [CB]-CG--CD-[NE] |==|  0.59994
USER: genes 16 Torsion [CG]-CD--NE-[CZ] |==|  0.75131
USER: genes 17 Torsion [C]-CA--CB-[CG2] |==|  0.02809
USER: genes 18 Torsion [CA]-CB--OG1-[HG1] |==|  0.96597
USER: genes 19 Torsion [C]-CA--N-[C] |==|  0.69838
USER: genes 20 Torsion [N]-C--CA-[N] |==|  0.28896
USER: genes 21 Torsion [N]-C--CA-[N] |==|  0.47594
USER: genes 22 Torsion [C]-CA--CB-[CG] |==|  0.32340
USER: genes 23 Torsion [CA]-CB--CG-[CD1] |==|  0.03890
USER: genes 24 Torsion [C]-CA--N-[C] |==|  0.81159
USER: genes 25 Torsion [N]-C--CA-[N] |==|  0.39597
USER: genes 26 Torsion [C]-CA--CB-[CG] |==|  0.21945
USER: genes 27 Torsion [CA]-CB--CG-[CD] |==|  0.59052
USER: genes 28 Torsion [CB]-CG--CD-[NE] |==|  0.51304
USER: genes 29 Torsion [CG]-CD--NE-[HE] |==|  0.83877
ROOT
ATOM      1  CA  THR G   7      43.433  15.016  -1.344  1.00 26.40 LIG 0.20  C 
ENDROOT
BRANCH 1 2
ATOM      2  C   THR G   7      42.964  15.591  -2.671  1.00 25.30 LIG 0.24  C 
ATOM      3  N   THR G   8      41.880  15.043  -3.212  1.00 15.59 LIG-0.34  N 
ATOM      4 H    THR G   8      41.439  14.390  -2.867  1.00 15.59 LIG 0.16  HD
ATOM      5 O    THR G   7      43.578  16.515  -3.207  1.00 25.63 LIG-0.27  OA
BRANCH 3 6
ATOM      6  CA  THR G   8      41.355  15.542  -4.476  1.00 11.76 LIG 0.20  C 
BRANCH 6 7
ATOM      7  CB  THR G   8      41.741  14.642  -5.671  1.00 16.39 LIG 0.15  C 
ATOM      8  CG2 THR G   8      40.846  14.937  -6.863  1.00 20.98 LIG 0.04  C 
BRANCH 7 9
ATOM      9 OG1  THR G   8      43.104  14.866  -6.046  1.00 14.98 LIG-0.39  OA
ATOM     10 HG1  THR G   8      43.594  14.290  -5.681  1.00 14.98 LIG 0.21  HD
ENDBRANCH 7 9
ENDBRANCH 6 7
BRANCH 6 11
ATOM     11  C   THR G   8      39.846  15.650  -4.413  1.00 14.98 LIG 0.24  C 
ATOM     12 O    THR G   8      39.160  14.676  -4.098  1.00 17.64 LIG-0.27  OA
ATOM     13  N   ARG G   9      39.316  16.830  -4.711  1.00 15.79 LIG-0.35  N 
ATOM     14 H    ARG G   9      39.765  17.533  -4.918  1.00 15.79 LIG 0.16  HD
BRANCH 13 15
ATOM     15  CA  ARG G   9      37.874  16.997  -4.701  1.00 12.84 LIG 0.18  C 
BRANCH 15 16
ATOM     16  C   ARG G   9      37.272  16.303  -5.910  1.00 12.32 LIG 0.24  C 
ATOM     17  N   LEU G  10      36.070  15.766  -5.740  1.00 12.88 LIG-0.34  N 
ATOM     18 H    LEU G  10      35.613  15.832  -5.015  1.00 12.88 LIG 0.16  HD
ATOM     19 O    ARG G   9      37.899  16.238  -6.970  1.00 17.68 LIG-0.27  OA
BRANCH 17 20
ATOM     20  CA  LEU G  10      35.415  15.007  -6.796  1.00 16.59 LIG 0.18  C 
BRANCH 20 21
ATOM     21  CB  LEU G  10      35.527  13.508  -6.541  1.00 15.66 LIG 0.04  C 
BRANCH 21 22
ATOM     22  CG  LEU G  10      36.909  12.977  -6.183  1.00 23.51 LIG-0.02  C 
ATOM     23  CD1 LEU G  10      36.781  11.557  -5.696  1.00 20.87 LIG 0.01  C 
ATOM     24  CD2 LEU G  10      37.820  13.063  -7.399  1.00 22.37 LIG 0.01  C 
ENDBRANCH 21 22
ENDBRANCH 20 21
BRANCH 20 25
ATOM     25  C   LEU G  10      33.952  15.365  -6.896  1.00 15.89 LIG 0.20  C 
ATOM     26 OXT  LEU G  10      33.369  15.196  -7.960  1.00 24.01 LIG-0.65  OA
ATOM     27 O    LEU G  10      33.330  15.802  -5.921  1.00 15.92 LIG-0.65  OA
ENDBRANCH 20 25
ENDBRANCH 17 20
ENDBRANCH 15 16
BRANCH 15 28
ATOM     28  CB  ARG G   9      37.477  18.473  -4.684  1.00 18.79 LIG 0.04  C 
BRANCH 28 29
ATOM     29  CG  ARG G   9      37.482  19.063  -3.289  1.00 22.18 LIG 0.02  C 
BRANCH 29 30
ATOM     30  CD  ARG G   9      38.882  19.400  -2.820  1.00 31.14 LIG 0.14  C 
BRANCH 30 31
ATOM     31  NE  ARG G   9      39.035  19.149  -1.391  1.00 29.63 LIG-0.23  N 
ATOM     32  CZ  ARG G   9      38.783  20.051  -0.451  1.00 25.64 LIG 0.67  C 
ATOM     33  NH2 ARG G   9      38.946  19.745   0.829  1.00 30.24 LIG-0.23  N 
ATOM     34  NH1 ARG G   9      38.378  21.263  -0.797  1.00 28.33 LIG-0.23  N 
ATOM     35 1HH2 ARG G   9      39.216  18.959   1.052  1.00 30.24 LIG 0.17  HD
ATOM     36 2HH2 ARG G   9      38.781  20.331   1.435  1.00 30.24 LIG 0.17  HD
ATOM     37 1HH1 ARG G   9      38.279  21.463  -1.628  1.00 28.33 LIG 0.17  HD
ATOM     38 2HH1 ARG G   9      38.213  21.851  -0.191  1.00 28.33 LIG 0.17  HD
ATOM     39 HE   ARG G   9      39.305  18.371  -1.143  1.00 29.63 LIG 0.18  HD
ENDBRANCH 30 31
ENDBRANCH 29 30
ENDBRANCH 28 29
ENDBRANCH 15 28
ENDBRANCH 13 15
ENDBRANCH 6 11
ENDBRANCH 3 6
ENDBRANCH 1 2
BRANCH 1 40
ATOM     40  CB  THR G   7      42.658  15.696  -0.197  1.00 34.82 LIG 0.15  C 
ATOM     41  CG2 THR G   7      41.513  16.530  -0.746  1.00 38.74 LIG 0.04  C 
BRANCH 40 42
ATOM     42 OG1  THR G   7      42.129  14.695   0.684  1.00 40.69 LIG-0.39  OA
ATOM     43 HG1  THR G   7      42.196  13.940   0.324  1.00 40.69 LIG 0.21  HD
ENDBRANCH 40 42
ENDBRANCH 1 40
BRANCH 1 44
ATOM     44  N   THR G   7      44.869  15.217  -1.217  1.00 22.98 LIG-0.34  N 
ATOM     45  C   PRO G   6      45.742  14.219  -1.302  1.00 24.87 LIG 0.24  C 
ATOM     46 O    PRO G   6      45.427  13.035  -1.406  1.00 25.14 LIG-0.27  OA
ATOM     47 H    THR G   7      45.097  16.035  -1.082  1.00 22.98 LIG 0.16  HD
BRANCH 45 48
ATOM     48  CA  PRO G   6      47.213  14.592  -1.237  1.00 32.16 LIG 0.18  C 
ATOM     49  N   PRO G   6      47.739  14.252   0.087  1.00 31.00 LIG-0.34  N 
ATOM     50  CD  PRO G   6      48.709  13.147   0.026  1.00 36.67 LIG 0.13  C 
ATOM     51  C   TRP G   5      47.215  14.817   1.181  1.00 25.71 LIG 0.24  C 
ATOM     52  CG  PRO G   6      48.447  12.547  -1.328  1.00 44.45 LIG 0.02  C 
ATOM     53  CB  PRO G   6      48.018  13.691  -2.179  1.00 38.26 LIG 0.04  C 
ATOM     54 O    TRP G   5      46.329  15.673   1.130  1.00 31.33 LIG-0.27  OA
BRANCH 51 55
ATOM     55  CA  TRP G   5      47.757  14.353   2.521  1.00 33.03 LIG 0.18  C 
BRANCH 55 56
ATOM     56  CB  TRP G   5      47.364  12.895   2.752  1.00 34.46 LIG 0.07  C 
BRANCH 56 57
ATOM     57  CG  TRP G   5      48.528  11.954   2.836  1.00 31.46 LIG-0.03  A 
ATOM     58  CD2 TRP G   5      48.479  10.522   2.754  1.00 33.83 LIG-0.00  A 
ATOM     59  CE3 TRP G   5      47.444   9.596   2.597  1.00 34.43 LIG 0.01  A 
ATOM     60  CE2 TRP G   5      49.801  10.049   2.883  1.00 38.54 LIG 0.04  A 
ATOM     61  CZ3 TRP G   5      47.755   8.247   2.569  1.00 33.62 LIG 0.00  A 
ATOM     62  CH2 TRP G   5      49.076   7.806   2.695  1.00 35.83 LIG 0.00  A 
ATOM     63  CZ2 TRP G   5      50.114   8.688   2.846  1.00 36.99 LIG 0.03  A 
ATOM     64  NE1 TRP G   5      50.617  11.142   3.025  1.00 38.15 LIG-0.36  N 
ATOM     65  CD1 TRP G   5      49.845  12.283   2.995  1.00 30.20 LIG 0.10  A 
ATOM     66 HE1  TRP G   5      51.472  11.120   3.118  1.00 38.15 LIG 0.17  HD
ENDBRANCH 56 57
ENDBRANCH 55 56
BRANCH 55 67
ATOM     67  N   TRP G   5      47.234  15.204   3.581  1.00 35.55 LIG-0.34  N 
ATOM     68 H    TRP G   5      46.689  14.810   4.116  1.00 35.55 LIG 0.16  HD
ATOM     69  C   ARG G   4      47.588  16.480   3.688  1.00 46.16 LIG 0.26  C 
ATOM     70 O    ARG G   4      48.454  17.001   2.980  1.00 51.01 LIG-0.27  OA
BRANCH 69 71
ATOM     71  CA  ARG G   4      46.877  17.278   4.774  1.00 46.30 LIG 0.40  C 
ATOM     72  N   ARG G   4      47.788  18.225   5.415  1.00 41.08 LIG 0.61  N 
BRANCH 71 73
ATOM     73  CB  ARG G   4      45.672  18.012   4.185  1.00 45.78 LIG 0.05  C 
BRANCH 73 74
ATOM     74  CG  ARG G   4      44.464  17.110   3.993  1.00 42.28 LIG 0.02  C 
BRANCH 74 75
ATOM     75  CD  ARG G   4      43.660  17.552   2.779  1.00 34.41 LIG 0.14  C 
BRANCH 75 76
ATOM     76  NE  ARG G   4      42.433  16.774   2.630  1.00 34.91 LIG-0.23  N 
ATOM     77 HE   ARG G   4      42.501  15.920   2.553  1.00 34.91 LIG 0.18  HD
ATOM     78  CZ  ARG G   4      41.219  17.311   2.606  1.00 31.49 LIG 0.67  C 
ATOM     79  NH1 ARG G   4      41.075  18.625   2.723  1.00 30.98 LIG-0.23  N 
ATOM     80  NH2 ARG G   4      40.149  16.544   2.469  1.00 25.73 LIG-0.23  N 
ATOM     81 2HH1 ARG G   4      40.289  18.974   2.709  1.00 30.98 LIG 0.17  HD
ATOM     82 1HH1 ARG G   4      41.768  19.127   2.814  1.00 30.98 LIG 0.17  HD
ATOM     83 1HH2 ARG G   4      40.237  15.692   2.393  1.00 25.73 LIG 0.17  HD
ATOM     84 2HH2 ARG G   4      39.366  16.898   2.454  1.00 25.73 LIG 0.17  HD
ENDBRANCH 75 76
ENDBRANCH 74 75
ENDBRANCH 73 74
ENDBRANCH 71 73
ENDBRANCH 69 71
ENDBRANCH 55 67
ENDBRANCH 51 55
ENDBRANCH 45 48
ENDBRANCH 1 44
TORSDOF 28
ENDMDL
