MODEL 1
USER: ADFR SOLUTION from run 113
USER: SCORE 16.769698 LL:  -3.663 LR: -13.945 RR:   0.000 FEB:  -6.786
USER: RMSD 4.202991
USER: SEED 112
USER: STATUS searching
USER: GENES 26
USER: genes 0 Translation |==|  0.36763 0.64430 0.49673
USER: genes 1 Rotation |==|  0.62741 0.61638 0.40720 0.96001
USER: genes 2 Torsion [C]-N--CA-[C] |==|  0.57475
USER: genes 3 Torsion [N]-CA--C-[N] |==|  0.42778
USER: genes 4 Torsion [C]-N--CA-[C] |==|  0.73186
USER: genes 5 Torsion [N]-CA--C-[N] |==|  0.90118
USER: genes 6 Torsion [C]-N--CA-[CB] |==|  0.14874
USER: genes 7 Torsion [N]-CA--C-[O] |==|  0.07709
USER: genes 8 Torsion [N]-CA--CB-[CG] |==|  0.24023
USER: genes 9 Torsion [CA]-CB--CG-[CD2] |==|  0.28779
USER: genes 10 Torsion [CE2]-CZ--OH-[HH] |==|  0.50311
USER: genes 11 Torsion [N]-CA--CB-[OG] |==|  0.34105
USER: genes 12 Torsion [CA]-CB--OG-[HG] |==|  0.70159
USER: genes 13 Torsion [N]-CA--CB-[CG2] |==|  0.11378
USER: genes 14 Torsion [CA]-CB--OG1-[HG1] |==|  0.01641
USER: genes 15 Torsion [N]-C--CA-[N] |==|  0.51664
USER: genes 16 Torsion [C]-CA--N-[C] |==|  0.74350
USER: genes 17 Torsion [N]-C--CA-[CB] |==|  0.59941
USER: genes 18 Torsion [N]-C--CA-[N] |==|  0.45785
USER: genes 19 Torsion [C]-CA--N-[C] |==|  0.76692
USER: genes 20 Torsion [N]-C--CA-[N] |==|  0.34910
USER: genes 21 Torsion [C]-CA--CB-[CG2] |==|  0.54438
USER: genes 22 Torsion [C]-CA--CB-[OG] |==|  0.65632
USER: genes 23 Torsion [CA]-CB--OG-[HG] |==|  0.41800
USER: genes 24 Torsion [C]-CA--CB-[OG] |==|  0.73096
USER: genes 25 Torsion [CA]-CB--OG-[HG] |==|  0.05889
ROOT
ATOM      1  C   SER B 156      35.293 -13.015  -9.898  1.00 15.87 LIG 0.24  C 
ATOM      2 O    SER B 156      34.343 -12.248 -10.062  1.00 15.60 LIG-0.27  OA
ATOM      3  N   THR B 157      36.504 -12.791 -10.397  1.00 16.26 LIG-0.34  N 
ATOM      4 H    THR B 157      37.186 -13.297 -10.258  1.00 16.26 LIG 0.16  HD
ENDROOT
BRANCH 3 5
ATOM      5  CA  THR B 157      36.767 -11.638 -11.240  1.00 15.91 LIG 0.20  C 
BRANCH 5 6
ATOM      6  C   THR B 157      37.938 -12.082 -12.111  1.00 16.14 LIG 0.24  C 
ATOM      7 O    THR B 157      38.717 -12.952 -11.709  1.00 15.69 LIG-0.27  OA
ATOM      8  N   SER B 158      38.067 -11.495 -13.294  1.00 15.14 LIG-0.34  N 
ATOM      9 H    SER B 158      37.537 -10.887 -13.593  1.00 15.14 LIG 0.16  HD
BRANCH 8 10
ATOM     10  CA  SER B 158      39.154 -11.856 -14.198  1.00 18.36 LIG 0.20  C 
BRANCH 10 11
ATOM     11  C   SER B 158      40.324 -10.886 -14.062  1.00 20.96 LIG 0.24  C 
ATOM     12 O    SER B 158      41.486 -11.281 -14.170  1.00 20.92 LIG-0.27  OA
ATOM     13  N   TYR B 159      40.010  -9.616 -13.825  1.00 23.40 LIG-0.35  N 
ATOM     14 H    TYR B 159      39.203  -9.328 -13.746  1.00 23.40 LIG 0.16  HD
BRANCH 13 15
ATOM     15  CA  TYR B 159      41.036  -8.588 -13.678  1.00 28.83 LIG 0.17  C 
BRANCH 15 16
ATOM     16  C   TYR B 159      40.407  -7.207 -13.539  1.00 30.09 LIG 0.22  C 
ATOM     17 O    TYR B 159      39.261  -7.156 -13.043  1.00 33.46 LIG-0.29  OA
ENDBRANCH 15 16
BRANCH 15 18
ATOM     18  CB  TYR B 159      41.975  -8.601 -14.887  1.00 32.38 LIG 0.07  C 
BRANCH 18 19
ATOM     19  CG  TYR B 159      41.484  -7.761 -16.045  1.00 36.58 LIG-0.06  A 
ATOM     20  CD2 TYR B 159      42.045  -6.512 -16.314  1.00 38.67 LIG 0.01  A 
ATOM     21  CE2 TYR B 159      41.604  -5.741 -17.387  1.00 40.79 LIG 0.04  A 
ATOM     22  CZ  TYR B 159      40.589  -6.218 -18.201  1.00 41.05 LIG 0.07  A 
ATOM     23  CE1 TYR B 159      40.015  -7.455 -17.954  1.00 40.09 LIG 0.04  A 
ATOM     24  CD1 TYR B 159      40.466  -8.219 -16.880  1.00 38.09 LIG 0.01  A 
BRANCH 22 25
ATOM     25 OH   TYR B 159      40.148  -5.460 -19.262  1.00 43.66 LIG-0.36  OA
ATOM     26 HH   TYR B 159      39.524  -5.864 -19.655  1.00 43.66 LIG 0.22  HD
ENDBRANCH 22 25
ENDBRANCH 18 19
ENDBRANCH 15 18
ENDBRANCH 13 15
ENDBRANCH 10 11
BRANCH 10 27
ATOM     27  CB  SER B 158      38.658 -11.858 -15.645  1.00 15.79 LIG 0.20  C 
BRANCH 27 28
ATOM     28 OG   SER B 158      39.424 -10.974 -16.444  1.00 17.90 LIG-0.40  OA
ATOM     29 HG   SER B 158      38.966 -10.294 -16.628  1.00 17.90 LIG 0.21  HD
ENDBRANCH 27 28
ENDBRANCH 10 27
ENDBRANCH 8 10
ENDBRANCH 5 6
BRANCH 5 30
ATOM     30  CB  THR B 157      37.202 -10.404 -10.419  1.00 18.18 LIG 0.15  C 
ATOM     31  CG2 THR B 157      38.157 -10.807  -9.308  1.00 16.96 LIG 0.04  C 
BRANCH 30 32
ATOM     32 OG1  THR B 157      37.839  -9.454 -11.284  1.00 15.90 LIG-0.39  OA
ATOM     33 HG1  THR B 157      37.780  -9.717 -12.080  1.00 15.90 LIG 0.21  HD
ENDBRANCH 30 32
ENDBRANCH 5 30
ENDBRANCH 3 5
BRANCH 1 34
ATOM     34  CA  SER B 156      35.128 -14.289  -9.088  1.00 16.58 LIG 0.20  C 
BRANCH 34 35
ATOM     35  N   SER B 156      33.718 -14.436  -8.749  1.00 15.80 LIG-0.34  N 
ATOM     36 H    SER B 156      33.255 -14.849  -9.344  1.00 15.80 LIG 0.16  HD
ATOM     37  C   PRO B 155      33.209 -13.966  -7.614  1.00 18.36 LIG 0.24  C 
ATOM     38 O    PRO B 155      33.877 -13.365  -6.771  1.00 18.57 LIG-0.27  OA
BRANCH 37 39
ATOM     39  CA  PRO B 155      31.718 -14.198  -7.404  1.00 19.30 LIG 0.18  C 
ATOM     40  CB  PRO B 155      31.051 -13.031  -6.686  1.00 17.99 LIG 0.04  C 
ATOM     41  CG  PRO B 155      31.309 -13.364  -5.247  1.00 20.29 LIG 0.02  C 
ATOM     42  CD  PRO B 155      30.999 -14.853  -5.187  1.00 20.15 LIG 0.13  C 
ATOM     43  N   PRO B 155      31.453 -15.329  -6.507  1.00 20.34 LIG-0.34  N 
ATOM     44  C   SER B 154      31.547 -16.607  -6.912  1.00 23.17 LIG 0.24  C 
ATOM     45 O    SER B 154      31.862 -16.908  -8.063  1.00 21.43 LIG-0.27  OA
BRANCH 44 46
ATOM     46  CA  SER B 154      31.246 -17.689  -5.879  1.00 26.04 LIG 0.20  C 
BRANCH 46 47
ATOM     47  N   SER B 154      31.032 -18.989  -6.506  1.00 29.08 LIG-0.34  N 
ATOM     48 H    SER B 154      31.730 -19.493  -6.523  1.00 29.08 LIG 0.16  HD
ATOM     49  C   VAL B 153      29.850 -19.341  -7.003  1.00 31.74 LIG 0.26  C 
ATOM     50 O    VAL B 153      28.866 -18.605  -6.975  1.00 31.76 LIG-0.27  OA
BRANCH 49 51
ATOM     51  CA  VAL B 153      29.766 -20.730  -7.628  1.00 34.29 LIG 0.40  C 
ATOM     52  N   VAL B 153      28.659 -21.512  -7.010  1.00 34.52 LIG 0.61  N 
BRANCH 51 53
ATOM     53  CB  VAL B 153      29.556 -20.572  -9.154  1.00 36.17 LIG 0.03  C 
ATOM     54  CG2 VAL B 153      29.079 -21.882  -9.753  1.00 38.03 LIG 0.01  C 
ATOM     55  CG1 VAL B 153      30.850 -20.126  -9.815  1.00 38.39 LIG 0.01  C 
ENDBRANCH 51 53
ENDBRANCH 49 51
ENDBRANCH 46 47
BRANCH 46 56
ATOM     56  CB  SER B 154      32.398 -17.765  -4.875  1.00 27.48 LIG 0.20  C 
BRANCH 56 57
ATOM     57 OG   SER B 154      32.937 -19.075  -4.817  1.00 30.72 LIG-0.40  OA
ATOM     58 HG   SER B 154      33.751 -19.034  -4.615  1.00 30.72 LIG 0.21  HD
ENDBRANCH 56 57
ENDBRANCH 46 56
ENDBRANCH 44 46
ENDBRANCH 37 39
ENDBRANCH 34 35
BRANCH 34 59
ATOM     59  CB  SER B 156      35.593 -15.464  -9.949  1.00 16.81 LIG 0.20  C 
BRANCH 59 60
ATOM     60 OG   SER B 156      34.485 -16.088 -10.581  1.00 16.65 LIG-0.40  OA
ATOM     61 HG   SER B 156      33.840 -15.551 -10.610  1.00 16.65 LIG 0.21  HD
ENDBRANCH 59 60
ENDBRANCH 34 59
ENDBRANCH 1 34
TORSDOF 24
ENDMDL
MODEL 2
USER: ADFR SOLUTION from run 71
USER: SCORE 17.595005 LL:  -4.939 LR: -13.751 RR:   0.000 FEB:  -6.592
USER: RMSD 3.382934
USER: SEED 70
USER: STATUS 1 or 2 clusters left
USER: GENES 26
USER: genes 0 Translation |==|  0.38304 0.67710 0.48725
USER: genes 1 Rotation |==|  0.48622 0.49309 0.52867 0.99894
USER: genes 2 Torsion [C]-N--CA-[C] |==|  0.78708
USER: genes 3 Torsion [N]-CA--C-[N] |==|  0.45172
USER: genes 4 Torsion [C]-N--CA-[C] |==|  0.82396
USER: genes 5 Torsion [N]-CA--C-[N] |==|  0.91177
USER: genes 6 Torsion [C]-N--CA-[CB] |==|  0.38198
USER: genes 7 Torsion [N]-CA--C-[O] |==|  0.12381
USER: genes 8 Torsion [N]-CA--CB-[CG] |==|  0.09125
USER: genes 9 Torsion [CA]-CB--CG-[CD2] |==|  0.76103
USER: genes 10 Torsion [CE2]-CZ--OH-[HH] |==|  0.98724
USER: genes 11 Torsion [N]-CA--CB-[OG] |==|  0.20029
USER: genes 12 Torsion [CA]-CB--OG-[HG] |==|  0.73824
USER: genes 13 Torsion [N]-CA--CB-[CG2] |==|  0.07310
USER: genes 14 Torsion [CA]-CB--OG1-[HG1] |==|  0.13710
USER: genes 15 Torsion [N]-C--CA-[N] |==|  0.54746
USER: genes 16 Torsion [C]-CA--N-[C] |==|  0.55488
USER: genes 17 Torsion [N]-C--CA-[CB] |==|  0.59266
USER: genes 18 Torsion [N]-C--CA-[N] |==|  0.17136
USER: genes 19 Torsion [C]-CA--N-[C] |==|  0.16797
USER: genes 20 Torsion [N]-C--CA-[N] |==|  0.92854
USER: genes 21 Torsion [C]-CA--CB-[CG2] |==|  0.60095
USER: genes 22 Torsion [C]-CA--CB-[OG] |==|  0.49215
USER: genes 23 Torsion [CA]-CB--OG-[HG] |==|  0.37974
USER: genes 24 Torsion [C]-CA--CB-[OG] |==|  0.82980
USER: genes 25 Torsion [CA]-CB--OG-[HG] |==|  0.19908
ROOT
ATOM      1  C   SER B 156      35.720 -12.252 -10.097  1.00 15.87 LIG 0.24  C 
ATOM      2 O    SER B 156      34.873 -12.285 -10.991  1.00 15.60 LIG-0.27  OA
ATOM      3  N   THR B 157      36.861 -11.577 -10.198  1.00 16.26 LIG-0.34  N 
ATOM      4 H    THR B 157      37.443 -11.513  -9.568  1.00 16.26 LIG 0.16  HD
ENDROOT
BRANCH 3 5
ATOM      5  CA  THR B 157      37.213 -10.878 -11.422  1.00 15.91 LIG 0.20  C 
BRANCH 5 6
ATOM      6  C   THR B 157      37.667 -11.991 -12.361  1.00 16.14 LIG 0.24  C 
ATOM      7 O    THR B 157      37.971 -13.100 -11.909  1.00 15.69 LIG-0.27  OA
ATOM      8  N   SER B 158      37.714 -11.707 -13.656  1.00 15.14 LIG-0.34  N 
ATOM      9 H    SER B 158      37.508 -10.943 -13.992  1.00 15.14 LIG 0.16  HD
BRANCH 8 10
ATOM     10  CA  SER B 158      38.133 -12.709 -14.631  1.00 18.36 LIG 0.20  C 
BRANCH 10 11
ATOM     11  C   SER B 158      39.582 -13.125 -14.398  1.00 20.96 LIG 0.24  C 
ATOM     12 O    SER B 158      39.958 -14.270 -14.657  1.00 20.92 LIG-0.27  OA
ATOM     13  N   TYR B 159      40.391 -12.191 -13.909  1.00 23.40 LIG-0.35  N 
ATOM     14 H    TYR B 159      40.141 -11.389 -13.722  1.00 23.40 LIG 0.16  HD
BRANCH 13 15
ATOM     15  CA  TYR B 159      41.802 -12.461 -13.645  1.00 28.83 LIG 0.17  C 
BRANCH 15 16
ATOM     16  C   TYR B 159      42.040 -12.707 -12.159  1.00 30.09 LIG 0.22  C 
ATOM     17 O    TYR B 159      41.228 -13.455 -11.573  1.00 33.46 LIG-0.29  OA
ENDBRANCH 15 16
BRANCH 15 18
ATOM     18  CB  TYR B 159      42.663 -11.285 -14.111  1.00 32.38 LIG 0.07  C 
BRANCH 18 19
ATOM     19  CG  TYR B 159      41.980  -9.942 -13.973  1.00 36.58 LIG-0.06  A 
ATOM     20  CD2 TYR B 159      41.145  -9.455 -14.979  1.00 38.67 LIG 0.01  A 
ATOM     21  CE2 TYR B 159      40.505  -8.223 -14.851  1.00 40.79 LIG 0.04  A 
ATOM     22  CZ  TYR B 159      40.702  -7.467 -13.706  1.00 41.05 LIG 0.07  A 
ATOM     23  CE1 TYR B 159      41.528  -7.928 -12.694  1.00 40.09 LIG 0.04  A 
ATOM     24  CD1 TYR B 159      42.160  -9.161 -12.832  1.00 38.09 LIG 0.01  A 
BRANCH 22 25
ATOM     25 OH   TYR B 159      40.074  -6.249 -13.574  1.00 43.66 LIG-0.36  OA
ATOM     26 HH   TYR B 159      39.659  -6.068 -14.282  1.00 43.66 LIG 0.22  HD
ENDBRANCH 22 25
ENDBRANCH 18 19
ENDBRANCH 15 18
ENDBRANCH 13 15
ENDBRANCH 10 11
BRANCH 10 27
ATOM     27  CB  SER B 158      37.982 -12.159 -16.050  1.00 15.79 LIG 0.20  C 
BRANCH 27 28
ATOM     28 OG   SER B 158      38.969 -11.180 -16.322  1.00 17.90 LIG-0.40  OA
ATOM     29 HG   SER B 158      38.658 -10.416 -16.160  1.00 17.90 LIG 0.21  HD
ENDBRANCH 27 28
ENDBRANCH 10 27
ENDBRANCH 8 10
ENDBRANCH 5 6
BRANCH 5 30
ATOM     30  CB  THR B 157      38.387  -9.896 -11.215  1.00 18.18 LIG 0.15  C 
ATOM     31  CG2 THR B 157      39.265 -10.345 -10.059  1.00 16.96 LIG 0.04  C 
BRANCH 30 32
ATOM     32 OG1  THR B 157      39.168  -9.824 -12.415  1.00 15.90 LIG-0.39  OA
ATOM     33 HG1  THR B 157      38.660  -9.696 -13.072  1.00 15.90 LIG 0.21  HD
ENDBRANCH 30 32
ENDBRANCH 5 30
ENDBRANCH 3 5
BRANCH 1 34
ATOM     34  CA  SER B 156      35.498 -12.997  -8.792  1.00 16.58 LIG 0.20  C 
BRANCH 34 35
ATOM     35  N   SER B 156      34.443 -13.980  -9.002  1.00 15.80 LIG-0.34  N 
ATOM     36 H    SER B 156      34.307 -14.180  -9.827  1.00 15.80 LIG 0.16  HD
ATOM     37  C   PRO B 155      33.759 -14.512  -7.993  1.00 18.36 LIG 0.24  C 
ATOM     38 O    PRO B 155      33.951 -14.213  -6.814  1.00 18.57 LIG-0.27  OA
BRANCH 37 39
ATOM     39  CA  PRO B 155      32.687 -15.526  -8.373  1.00 19.30 LIG 0.18  C 
ATOM     40  CB  PRO B 155      31.492 -15.478  -7.431  1.00 17.99 LIG 0.04  C 
ATOM     41  CG  PRO B 155      31.941 -16.368  -6.312  1.00 20.29 LIG 0.02  C 
ATOM     42  CD  PRO B 155      32.556 -17.549  -7.051  1.00 20.15 LIG 0.13  C 
ATOM     43  N   PRO B 155      33.158 -16.909  -8.235  1.00 20.34 LIG-0.34  N 
ATOM     44  C   SER B 154      33.962 -17.490  -9.141  1.00 23.17 LIG 0.24  C 
ATOM     45 O    SER B 154      34.356 -16.896 -10.144  1.00 21.43 LIG-0.27  OA
BRANCH 44 46
ATOM     46  CA  SER B 154      34.379 -18.935  -8.877  1.00 26.04 LIG 0.20  C 
BRANCH 46 47
ATOM     47  N   SER B 154      33.228 -19.831  -8.842  1.00 29.08 LIG-0.34  N 
ATOM     48 H    SER B 154      33.122 -20.243  -8.094  1.00 29.08 LIG 0.16  HD
ATOM     49  C   VAL B 153      32.425 -19.980  -9.891  1.00 31.74 LIG 0.26  C 
ATOM     50 O    VAL B 153      32.595 -19.387 -10.954  1.00 31.76 LIG-0.27  OA
BRANCH 49 51
ATOM     51  CA  VAL B 153      31.258 -20.946  -9.718  1.00 34.29 LIG 0.40  C 
ATOM     52  N   VAL B 153      31.577 -21.967  -8.681  1.00 34.52 LIG 0.61  N 
BRANCH 51 53
ATOM     53  CB  VAL B 153      29.997 -20.134  -9.334  1.00 36.17 LIG 0.03  C 
ATOM     54  CG2 VAL B 153      29.153 -20.916  -8.345  1.00 38.03 LIG 0.01  C 
ATOM     55  CG1 VAL B 153      29.189 -19.805 -10.579  1.00 38.39 LIG 0.01  C 
ENDBRANCH 51 53
ENDBRANCH 49 51
ENDBRANCH 46 47
BRANCH 46 56
ATOM     56  CB  SER B 154      35.368 -19.381  -9.957  1.00 27.48 LIG 0.20  C 
BRANCH 56 57
ATOM     57 OG   SER B 154      35.830 -20.698  -9.711  1.00 30.72 LIG-0.40  OA
ATOM     58 HG   SER B 154      35.837 -21.131 -10.430  1.00 30.72 LIG 0.21  HD
ENDBRANCH 56 57
ENDBRANCH 46 56
ENDBRANCH 44 46
ENDBRANCH 37 39
ENDBRANCH 34 35
BRANCH 34 59
ATOM     59  CB  SER B 156      36.805 -13.693  -8.411  1.00 16.81 LIG 0.20  C 
BRANCH 59 60
ATOM     60 OG   SER B 156      37.179 -14.631  -9.409  1.00 16.65 LIG-0.40  OA
ATOM     61 HG   SER B 156      37.439 -14.223 -10.095  1.00 16.65 LIG 0.21  HD
ENDBRANCH 59 60
ENDBRANCH 34 59
ENDBRANCH 1 34
TORSDOF 24
ENDMDL
MODEL 3
USER: ADFR SOLUTION from run 113
USER: SCORE 15.853733 LL:  -3.832 LR: -13.190 RR:   0.000 FEB:  -6.031
USER: RMSD 4.853911
USER: SEED 112
USER: STATUS searching
USER: GENES 26
USER: genes 0 Translation |==|  0.37203 0.64168 0.49933
USER: genes 1 Rotation |==|  0.63934 0.57918 0.42779 0.96808
USER: genes 2 Torsion [C]-N--CA-[C] |==|  0.62605
USER: genes 3 Torsion [N]-CA--C-[N] |==|  0.42222
USER: genes 4 Torsion [C]-N--CA-[C] |==|  0.71271
USER: genes 5 Torsion [N]-CA--C-[N] |==|  0.89291
USER: genes 6 Torsion [C]-N--CA-[CB] |==|  0.15271
USER: genes 7 Torsion [N]-CA--C-[O] |==|  0.03686
USER: genes 8 Torsion [N]-CA--CB-[CG] |==|  0.25625
USER: genes 9 Torsion [CA]-CB--CG-[CD2] |==|  0.27475
USER: genes 10 Torsion [CE2]-CZ--OH-[HH] |==|  0.49579
USER: genes 11 Torsion [N]-CA--CB-[OG] |==|  0.35290
USER: genes 12 Torsion [CA]-CB--OG-[HG] |==|  0.76688
USER: genes 13 Torsion [N]-CA--CB-[CG2] |==|  0.30202
USER: genes 14 Torsion [CA]-CB--OG1-[HG1] |==|  0.92291
USER: genes 15 Torsion [N]-C--CA-[N] |==|  0.50955
USER: genes 16 Torsion [C]-CA--N-[C] |==|  0.75780
USER: genes 17 Torsion [N]-C--CA-[CB] |==|  0.64650
USER: genes 18 Torsion [N]-C--CA-[N] |==|  0.19989
USER: genes 19 Torsion [C]-CA--N-[C] |==|  0.64061
USER: genes 20 Torsion [N]-C--CA-[N] |==|  0.55589
USER: genes 21 Torsion [C]-CA--CB-[CG2] |==|  0.80423
USER: genes 22 Torsion [C]-CA--CB-[OG] |==|  0.60511
USER: genes 23 Torsion [CA]-CB--OG-[HG] |==|  0.64763
USER: genes 24 Torsion [C]-CA--CB-[OG] |==|  0.70736
USER: genes 25 Torsion [CA]-CB--OG-[HG] |==|  0.09584
ROOT
ATOM      1  C   SER B 156      35.415 -13.076  -9.843  1.00 15.87 LIG 0.24  C 
ATOM      2 O    SER B 156      34.481 -12.333 -10.151  1.00 15.60 LIG-0.27  OA
ATOM      3  N   THR B 157      36.686 -12.801 -10.118  1.00 16.26 LIG-0.34  N 
ATOM      4 H    THR B 157      37.351 -13.289  -9.875  1.00 16.26 LIG 0.16  HD
ENDROOT
BRANCH 3 5
ATOM      5  CA  THR B 157      37.050 -11.615 -10.874  1.00 15.91 LIG 0.20  C 
BRANCH 5 6
ATOM      6  C   THR B 157      38.071 -12.127 -11.886  1.00 16.14 LIG 0.24  C 
ATOM      7 O    THR B 157      38.768 -13.112 -11.622  1.00 15.69 LIG-0.27  OA
ATOM      8  N   SER B 158      38.164 -11.470 -13.035  1.00 15.14 LIG-0.34  N 
ATOM      9 H    SER B 158      37.690 -10.782 -13.239  1.00 15.14 LIG 0.16  HD
BRANCH 8 10
ATOM     10  CA  SER B 158      39.109 -11.887 -14.065  1.00 18.36 LIG 0.20  C 
BRANCH 10 11
ATOM     11  C   SER B 158      40.327 -10.968 -14.095  1.00 20.96 LIG 0.24  C 
ATOM     12 O    SER B 158      41.455 -11.423 -14.291  1.00 20.92 LIG-0.27  OA
ATOM     13  N   TYR B 159      40.091  -9.674 -13.900  1.00 23.40 LIG-0.35  N 
ATOM     14 H    TYR B 159      39.309  -9.344 -13.760  1.00 23.40 LIG 0.16  HD
BRANCH 13 15
ATOM     15  CA  TYR B 159      41.170  -8.690 -13.908  1.00 28.83 LIG 0.17  C 
BRANCH 15 16
ATOM     16  C   TYR B 159      40.620  -7.277 -13.750  1.00 30.09 LIG 0.22  C 
ATOM     17 O    TYR B 159      39.428  -7.173 -13.388  1.00 33.46 LIG-0.29  OA
ENDBRANCH 15 16
BRANCH 15 18
ATOM     18  CB  TYR B 159      41.964  -8.785 -15.213  1.00 32.38 LIG 0.07  C 
BRANCH 18 19
ATOM     19  CG  TYR B 159      41.462  -7.857 -16.297  1.00 36.58 LIG-0.06  A 
ATOM     20  CD2 TYR B 159      42.088  -6.635 -16.542  1.00 38.67 LIG 0.01  A 
ATOM     21  CE2 TYR B 159      41.635  -5.782 -17.547  1.00 40.79 LIG 0.04  A 
ATOM     22  CZ  TYR B 159      40.543  -6.151 -18.316  1.00 41.05 LIG 0.07  A 
ATOM     23  CE1 TYR B 159      39.903  -7.359 -18.092  1.00 40.09 LIG 0.04  A 
ATOM     24  CD1 TYR B 159      40.366  -8.205 -17.086  1.00 38.09 LIG 0.01  A 
BRANCH 22 25
ATOM     25 OH   TYR B 159      40.091  -5.313 -19.310  1.00 43.66 LIG-0.36  OA
ATOM     26 HH   TYR B 159      39.442  -5.671 -19.705  1.00 43.66 LIG 0.22  HD
ENDBRANCH 22 25
ENDBRANCH 18 19
ENDBRANCH 15 18
ENDBRANCH 13 15
ENDBRANCH 10 11
BRANCH 10 27
ATOM     27  CB  SER B 158      38.431 -11.880 -15.437  1.00 15.79 LIG 0.20  C 
BRANCH 27 28
ATOM     28 OG   SER B 158      39.178 -11.117 -16.367  1.00 17.90 LIG-0.40  OA
ATOM     29 HG   SER B 158      38.977 -10.305 -16.289  1.00 17.90 LIG 0.21  HD
ENDBRANCH 27 28
ENDBRANCH 10 27
ENDBRANCH 8 10
ENDBRANCH 5 6
BRANCH 5 30
ATOM     30  CB  THR B 157      37.726 -10.545  -9.989  1.00 18.18 LIG 0.15  C 
ATOM     31  CG2 THR B 157      39.207 -10.439 -10.310  1.00 16.96 LIG 0.04  C 
BRANCH 30 32
ATOM     32 OG1  THR B 157      37.092  -9.277 -10.204  1.00 15.90 LIG-0.39  OA
ATOM     33 HG1  THR B 157      36.772  -9.251 -10.981  1.00 15.90 LIG 0.21  HD
ENDBRANCH 30 32
ENDBRANCH 5 30
ENDBRANCH 3 5
BRANCH 1 34
ATOM     34  CA  SER B 156      35.157 -14.378  -9.106  1.00 16.58 LIG 0.20  C 
BRANCH 34 35
ATOM     35  N   SER B 156      33.716 -14.547  -8.967  1.00 15.80 LIG-0.34  N 
ATOM     36 H    SER B 156      33.354 -15.004  -9.599  1.00 15.80 LIG 0.16  HD
ATOM     37  C   PRO B 155      33.036 -14.033  -7.947  1.00 18.36 LIG 0.24  C 
ATOM     38 O    PRO B 155      33.561 -13.370  -7.051  1.00 18.57 LIG-0.27  OA
BRANCH 37 39
ATOM     39  CA  PRO B 155      31.536 -14.297  -7.942  1.00 19.30 LIG 0.18  C 
ATOM     40  CB  PRO B 155      30.729 -13.013  -7.798  1.00 17.99 LIG 0.04  C 
ATOM     41  CG  PRO B 155      30.703 -12.826  -6.311  1.00 20.29 LIG 0.02  C 
ATOM     42  CD  PRO B 155      30.404 -14.230  -5.803  1.00 20.15 LIG 0.13  C 
ATOM     43  N   PRO B 155      31.114 -15.081  -6.777  1.00 20.34 LIG-0.34  N 
ATOM     44  C   SER B 154      31.299 -16.410  -6.697  1.00 23.17 LIG 0.24  C 
ATOM     45 O    SER B 154      31.837 -17.052  -7.599  1.00 21.43 LIG-0.27  OA
BRANCH 44 46
ATOM     46  CA  SER B 154      30.813 -17.106  -5.429  1.00 26.04 LIG 0.20  C 
BRANCH 46 47
ATOM     47  N   SER B 154      29.357 -17.178  -5.377  1.00 29.08 LIG-0.34  N 
ATOM     48 H    SER B 154      28.992 -17.494  -6.089  1.00 29.08 LIG 0.16  HD
ATOM     49  C   VAL B 153      28.674 -16.782  -4.307  1.00 31.74 LIG 0.26  C 
ATOM     50 O    VAL B 153      29.213 -16.327  -3.300  1.00 31.76 LIG-0.27  OA
BRANCH 49 51
ATOM     51  CA  VAL B 153      27.157 -16.914  -4.385  1.00 34.29 LIG 0.40  C 
ATOM     52  N   VAL B 153      26.505 -16.024  -3.385  1.00 34.52 LIG 0.61  N 
BRANCH 51 53
ATOM     53  CB  VAL B 153      26.705 -16.565  -5.824  1.00 36.17 LIG 0.03  C 
ATOM     54  CG2 VAL B 153      26.874 -15.080  -6.079  1.00 38.03 LIG 0.01  C 
ATOM     55  CG1 VAL B 153      25.255 -16.977  -6.030  1.00 38.39 LIG 0.01  C 
ENDBRANCH 51 53
ENDBRANCH 49 51
ENDBRANCH 46 47
BRANCH 46 56
ATOM     56  CB  SER B 154      31.419 -18.511  -5.359  1.00 27.48 LIG 0.20  C 
BRANCH 56 57
ATOM     57 OG   SER B 154      30.485 -19.442  -4.839  1.00 30.72 LIG-0.40  OA
ATOM     58 HG   SER B 154      30.830 -19.854  -4.194  1.00 30.72 LIG 0.21  HD
ENDBRANCH 56 57
ENDBRANCH 46 56
ENDBRANCH 44 46
ENDBRANCH 37 39
ENDBRANCH 34 35
BRANCH 34 59
ATOM     59  CB  SER B 156      35.749 -15.520  -9.933  1.00 16.81 LIG 0.20  C 
BRANCH 59 60
ATOM     60 OG   SER B 156      34.719 -16.253 -10.579  1.00 16.65 LIG-0.40  OA
ATOM     61 HG   SER B 156      34.098 -15.732 -10.797  1.00 16.65 LIG 0.21  HD
ENDBRANCH 59 60
ENDBRANCH 34 59
ENDBRANCH 1 34
TORSDOF 24
ENDMDL
MODEL 4
USER: ADFR SOLUTION from run 113
USER: SCORE 16.193625 LL:  -3.766 LR: -13.181 RR:   0.000 FEB:  -6.022
USER: RMSD 3.057616
USER: SEED 112
USER: STATUS searching
USER: GENES 26
USER: genes 0 Translation |==|  0.36115 0.64281 0.50236
USER: genes 1 Rotation |==|  0.62311 0.62632 0.40056 0.95717
USER: genes 2 Torsion [C]-N--CA-[C] |==|  0.58392
USER: genes 3 Torsion [N]-CA--C-[N] |==|  0.39093
USER: genes 4 Torsion [C]-N--CA-[C] |==|  0.81111
USER: genes 5 Torsion [N]-CA--C-[N] |==|  0.92422
USER: genes 6 Torsion [C]-N--CA-[CB] |==|  0.49155
USER: genes 7 Torsion [N]-CA--C-[O] |==|  0.91322
USER: genes 8 Torsion [N]-CA--CB-[CG] |==|  0.28980
USER: genes 9 Torsion [CA]-CB--CG-[CD2] |==|  0.22804
USER: genes 10 Torsion [CE2]-CZ--OH-[HH] |==|  0.34661
USER: genes 11 Torsion [N]-CA--CB-[OG] |==|  0.35902
USER: genes 12 Torsion [CA]-CB--OG-[HG] |==|  0.75142
USER: genes 13 Torsion [N]-CA--CB-[CG2] |==|  0.10138
USER: genes 14 Torsion [CA]-CB--OG1-[HG1] |==|  0.05060
USER: genes 15 Torsion [N]-C--CA-[N] |==|  0.53863
USER: genes 16 Torsion [C]-CA--N-[C] |==|  0.73074
USER: genes 17 Torsion [N]-C--CA-[CB] |==|  0.61833
USER: genes 18 Torsion [N]-C--CA-[N] |==|  0.43986
USER: genes 19 Torsion [C]-CA--N-[C] |==|  0.80504
USER: genes 20 Torsion [N]-C--CA-[N] |==|  0.31012
USER: genes 21 Torsion [C]-CA--CB-[CG2] |==|  0.50586
USER: genes 22 Torsion [C]-CA--CB-[OG] |==|  0.64630
USER: genes 23 Torsion [CA]-CB--OG-[HG] |==|  0.58590
USER: genes 24 Torsion [C]-CA--CB-[OG] |==|  0.75478
USER: genes 25 Torsion [CA]-CB--OG-[HG] |==|  0.04788
ROOT
ATOM      1  C   SER B 156      35.113 -13.050  -9.779  1.00 15.87 LIG 0.24  C 
ATOM      2 O    SER B 156      34.165 -12.272  -9.906  1.00 15.60 LIG-0.27  OA
ATOM      3  N   THR B 157      36.301 -12.847 -10.340  1.00 16.26 LIG-0.34  N 
ATOM      4 H    THR B 157      36.983 -13.359 -10.229  1.00 16.26 LIG 0.16  HD
ENDROOT
BRANCH 3 5
ATOM      5  CA  THR B 157      36.536 -11.706 -11.209  1.00 15.91 LIG 0.20  C 
BRANCH 5 6
ATOM      6  C   THR B 157      37.598 -12.204 -12.185  1.00 16.14 LIG 0.24  C 
ATOM      7 O    THR B 157      38.519 -12.925 -11.788  1.00 15.69 LIG-0.27  OA
ATOM      8  N   SER B 158      37.476 -11.828 -13.452  1.00 15.14 LIG-0.34  N 
ATOM      9 H    SER B 158      36.845 -11.327 -13.750  1.00 15.14 LIG 0.16  HD
BRANCH 8 10
ATOM     10  CA  SER B 158      38.442 -12.257 -14.459  1.00 18.36 LIG 0.20  C 
BRANCH 10 11
ATOM     11  C   SER B 158      39.806 -11.618 -14.216  1.00 20.96 LIG 0.24  C 
ATOM     12 O    SER B 158      40.839 -12.177 -14.590  1.00 20.92 LIG-0.27  OA
ATOM     13  N   TYR B 159      39.802 -10.445 -13.591  1.00 23.40 LIG-0.35  N 
ATOM     14 H    TYR B 159      39.088 -10.045 -13.323  1.00 23.40 LIG 0.16  HD
BRANCH 13 15
ATOM     15  CA  TYR B 159      41.041  -9.728 -13.301  1.00 28.83 LIG 0.17  C 
BRANCH 15 16
ATOM     16  C   TYR B 159      41.941 -10.544 -12.382  1.00 30.09 LIG 0.22  C 
ATOM     17 O    TYR B 159      41.375 -11.299 -11.562  1.00 33.46 LIG-0.29  OA
ENDBRANCH 15 16
BRANCH 15 18
ATOM     18  CB  TYR B 159      40.731  -8.380 -12.646  1.00 32.38 LIG 0.07  C 
BRANCH 18 19
ATOM     19  CG  TYR B 159      40.995  -8.354 -11.157  1.00 36.58 LIG-0.06  A 
ATOM     20  CD2 TYR B 159      42.281  -8.145 -10.660  1.00 38.67 LIG 0.01  A 
ATOM     21  CE2 TYR B 159      42.527  -8.109  -9.288  1.00 40.79 LIG 0.04  A 
ATOM     22  CZ  TYR B 159      41.477  -8.287  -8.401  1.00 41.05 LIG 0.07  A 
ATOM     23  CE1 TYR B 159      40.191  -8.499  -8.870  1.00 40.09 LIG 0.04  A 
ATOM     24  CD1 TYR B 159      39.957  -8.530 -10.243  1.00 38.09 LIG 0.01  A 
BRANCH 22 25
ATOM     25 OH   TYR B 159      41.713  -8.254  -7.045  1.00 43.66 LIG-0.36  OA
ATOM     26 HH   TYR B 159      41.216  -7.679  -6.688  1.00 43.66 LIG 0.22  HD
ENDBRANCH 22 25
ENDBRANCH 18 19
ENDBRANCH 15 18
ENDBRANCH 13 15
ENDBRANCH 10 11
BRANCH 10 27
ATOM     27  CB  SER B 158      37.945 -11.885 -15.857  1.00 15.79 LIG 0.20  C 
BRANCH 27 28
ATOM     28 OG   SER B 158      38.946 -11.195 -16.583  1.00 17.90 LIG-0.40  OA
ATOM     29 HG   SER B 158      38.876 -10.370 -16.441  1.00 17.90 LIG 0.21  HD
ENDBRANCH 27 28
ENDBRANCH 10 27
ENDBRANCH 8 10
ENDBRANCH 5 6
BRANCH 5 30
ATOM     30  CB  THR B 157      37.103 -10.495 -10.437  1.00 18.18 LIG 0.15  C 
ATOM     31  CG2 THR B 157      38.058 -10.951  -9.347  1.00 16.96 LIG 0.04  C 
BRANCH 30 32
ATOM     32 OG1  THR B 157      37.790  -9.626 -11.349  1.00 15.90 LIG-0.39  OA
ATOM     33 HG1  THR B 157      37.548  -9.798 -12.135  1.00 15.90 LIG 0.21  HD
ENDBRANCH 30 32
ENDBRANCH 5 30
ENDBRANCH 3 5
BRANCH 1 34
ATOM     34  CA  SER B 156      34.973 -14.312  -8.948  1.00 16.58 LIG 0.20  C 
BRANCH 34 35
ATOM     35  N   SER B 156      33.555 -14.539  -8.697  1.00 15.80 LIG-0.34  N 
ATOM     36 H    SER B 156      33.145 -14.940  -9.338  1.00 15.80 LIG 0.16  HD
ATOM     37  C   PRO B 155      32.963 -14.154  -7.571  1.00 18.36 LIG 0.24  C 
ATOM     38 O    PRO B 155      33.554 -13.570  -6.662  1.00 18.57 LIG-0.27  OA
BRANCH 37 39
ATOM     39  CA  PRO B 155      31.476 -14.463  -7.458  1.00 19.30 LIG 0.18  C 
ATOM     40  CB  PRO B 155      30.690 -13.297  -6.871  1.00 17.99 LIG 0.04  C 
ATOM     41  CG  PRO B 155      30.852 -13.524  -5.398  1.00 20.29 LIG 0.02  C 
ATOM     42  CD  PRO B 155      30.622 -15.023  -5.263  1.00 20.15 LIG 0.13  C 
ATOM     43  N   PRO B 155      31.205 -15.550  -6.511  1.00 20.34 LIG-0.34  N 
ATOM     44  C   SER B 154      31.402 -16.843  -6.822  1.00 23.17 LIG 0.24  C 
ATOM     45 O    SER B 154      31.823 -17.195  -7.924  1.00 21.43 LIG-0.27  OA
BRANCH 44 46
ATOM     46  CA  SER B 154      31.081 -17.876  -5.745  1.00 26.04 LIG 0.20  C 
BRANCH 46 47
ATOM     47  N   SER B 154      30.841 -19.196  -6.318  1.00 29.08 LIG-0.34  N 
ATOM     48 H    SER B 154      31.458 -19.772  -6.152  1.00 29.08 LIG 0.16  HD
ATOM     49  C   VAL B 153      29.753 -19.461  -7.035  1.00 31.74 LIG 0.26  C 
ATOM     50 O    VAL B 153      28.885 -18.623  -7.268  1.00 31.76 LIG-0.27  OA
BRANCH 49 51
ATOM     51  CA  VAL B 153      29.627 -20.883  -7.573  1.00 34.29 LIG 0.40  C 
ATOM     52  N   VAL B 153      28.510 -21.598  -6.895  1.00 34.52 LIG 0.61  N 
BRANCH 51 53
ATOM     53  CB  VAL B 153      29.401 -20.814  -9.103  1.00 36.17 LIG 0.03  C 
ATOM     54  CG2 VAL B 153      29.219 -22.210  -9.667  1.00 38.03 LIG 0.01  C 
ATOM     55  CG1 VAL B 153      30.577 -20.120  -9.773  1.00 38.39 LIG 0.01  C 
ENDBRANCH 51 53
ENDBRANCH 49 51
ENDBRANCH 46 47
BRANCH 46 56
ATOM     56  CB  SER B 154      32.234 -17.933  -4.740  1.00 27.48 LIG 0.20  C 
BRANCH 56 57
ATOM     57 OG   SER B 154      32.692 -19.263  -4.567  1.00 30.72 LIG-0.40  OA
ATOM     58 HG   SER B 154      32.980 -19.361  -3.784  1.00 30.72 LIG 0.21  HD
ENDBRANCH 56 57
ENDBRANCH 46 56
ENDBRANCH 44 46
ENDBRANCH 37 39
ENDBRANCH 34 35
BRANCH 34 59
ATOM     59  CB  SER B 156      35.566 -15.476  -9.743  1.00 16.81 LIG 0.20  C 
BRANCH 59 60
ATOM     60 OG   SER B 156      34.579 -16.060 -10.581  1.00 16.65 LIG-0.40  OA
ATOM     61 HG   SER B 156      33.934 -15.529 -10.666  1.00 16.65 LIG 0.21  HD
ENDBRANCH 59 60
ENDBRANCH 34 59
ENDBRANCH 1 34
TORSDOF 24
ENDMDL
MODEL 5
USER: ADFR SOLUTION from run 115
USER: SCORE 16.284743 LL:  -4.468 LR: -13.030 RR:   0.000 FEB:  -5.871
USER: RMSD 3.664966
USER: SEED 114
USER: STATUS searching
USER: GENES 26
USER: genes 0 Translation |==|  0.38633 0.68669 0.48616
USER: genes 1 Rotation |==|  0.48035 0.49389 0.50605 0.99954
USER: genes 2 Torsion [C]-N--CA-[C] |==|  0.79136
USER: genes 3 Torsion [N]-CA--C-[N] |==|  0.46597
USER: genes 4 Torsion [C]-N--CA-[C] |==|  0.84407
USER: genes 5 Torsion [N]-CA--C-[N] |==|  0.88161
USER: genes 6 Torsion [C]-N--CA-[CB] |==|  0.25919
USER: genes 7 Torsion [N]-CA--C-[O] |==|  0.33638
USER: genes 8 Torsion [N]-CA--CB-[CG] |==|  0.80525
USER: genes 9 Torsion [CA]-CB--CG-[CD2] |==|  0.79950
USER: genes 10 Torsion [CE2]-CZ--OH-[HH] |==|  0.74055
USER: genes 11 Torsion [N]-CA--CB-[OG] |==|  0.14353
USER: genes 12 Torsion [CA]-CB--OG-[HG] |==|  0.68393
USER: genes 13 Torsion [N]-CA--CB-[CG2] |==|  0.10309
USER: genes 14 Torsion [CA]-CB--OG1-[HG1] |==|  0.08934
USER: genes 15 Torsion [N]-C--CA-[N] |==|  0.55135
USER: genes 16 Torsion [C]-CA--N-[C] |==|  0.55858
USER: genes 17 Torsion [N]-C--CA-[CB] |==|  0.57843
USER: genes 18 Torsion [N]-C--CA-[N] |==|  0.16094
USER: genes 19 Torsion [C]-CA--N-[C] |==|  0.18320
USER: genes 20 Torsion [N]-C--CA-[N] |==|  0.42059
USER: genes 21 Torsion [C]-CA--CB-[CG2] |==|  0.53910
USER: genes 22 Torsion [C]-CA--CB-[OG] |==|  0.60958
USER: genes 23 Torsion [CA]-CB--OG-[HG] |==|  0.71775
USER: genes 24 Torsion [C]-CA--CB-[OG] |==|  0.82650
USER: genes 25 Torsion [CA]-CB--OG-[HG] |==|  0.18168
ROOT
ATOM      1  C   SER B 156      35.812 -12.030 -10.120  1.00 15.87 LIG 0.24  C 
ATOM      2 O    SER B 156      34.964 -12.005 -11.014  1.00 15.60 LIG-0.27  OA
ATOM      3  N   THR B 157      37.009 -11.463 -10.234  1.00 16.26 LIG-0.34  N 
ATOM      4 H    THR B 157      37.595 -11.438  -9.605  1.00 16.26 LIG 0.16  HD
ENDROOT
BRANCH 3 5
ATOM      5  CA  THR B 157      37.422 -10.826 -11.473  1.00 15.91 LIG 0.20  C 
BRANCH 5 6
ATOM      6  C   THR B 157      37.735 -11.997 -12.398  1.00 16.14 LIG 0.24  C 
ATOM      7 O    THR B 157      37.824 -13.142 -11.944  1.00 15.69 LIG-0.27  OA
ATOM      8  N   SER B 158      37.901 -11.721 -13.686  1.00 15.14 LIG-0.34  N 
ATOM      9 H    SER B 158      37.845 -10.933 -14.023  1.00 15.14 LIG 0.16  HD
BRANCH 8 10
ATOM     10  CA  SER B 158      38.201 -12.776 -14.648  1.00 18.36 LIG 0.20  C 
BRANCH 10 11
ATOM     11  C   SER B 158      39.452 -13.548 -14.241  1.00 20.96 LIG 0.24  C 
ATOM     12 O    SER B 158      39.491 -14.777 -14.329  1.00 20.92 LIG-0.27  OA
ATOM     13  N   TYR B 159      40.473 -12.822 -13.798  1.00 23.40 LIG-0.35  N 
ATOM     14 H    TYR B 159      40.459 -11.964 -13.731  1.00 23.40 LIG 0.16  HD
BRANCH 13 15
ATOM     15  CA  TYR B 159      41.729 -13.439 -13.381  1.00 28.83 LIG 0.17  C 
BRANCH 15 16
ATOM     16  C   TYR B 159      42.350 -12.677 -12.216  1.00 30.09 LIG 0.22  C 
ATOM     17 O    TYR B 159      42.544 -13.319 -11.161  1.00 33.46 LIG-0.29  OA
ENDBRANCH 15 16
BRANCH 15 18
ATOM     18  CB  TYR B 159      42.715 -13.475 -14.551  1.00 32.38 LIG 0.07  C 
BRANCH 18 19
ATOM     19  CG  TYR B 159      42.328 -14.449 -15.642  1.00 36.58 LIG-0.06  A 
ATOM     20  CD2 TYR B 159      42.437 -15.825 -15.446  1.00 38.67 LIG 0.01  A 
ATOM     21  CE2 TYR B 159      42.070 -16.726 -16.444  1.00 40.79 LIG 0.04  A 
ATOM     22  CZ  TYR B 159      41.591 -16.248 -17.654  1.00 41.05 LIG 0.07  A 
ATOM     23  CE1 TYR B 159      41.475 -14.885 -17.873  1.00 40.09 LIG 0.04  A 
ATOM     24  CD1 TYR B 159      41.842 -13.994 -16.867  1.00 38.09 LIG 0.01  A 
BRANCH 22 25
ATOM     25 OH   TYR B 159      41.228 -17.133 -18.644  1.00 43.66 LIG-0.36  OA
ATOM     26 HH   TYR B 159      41.879 -17.261 -19.159  1.00 43.66 LIG 0.22  HD
ENDBRANCH 22 25
ENDBRANCH 18 19
ENDBRANCH 15 18
ENDBRANCH 13 15
ENDBRANCH 10 11
BRANCH 10 27
ATOM     27  CB  SER B 158      38.400 -12.178 -16.042  1.00 15.79 LIG 0.20  C 
BRANCH 27 28
ATOM     28 OG   SER B 158      39.340 -11.118 -16.008  1.00 17.90 LIG-0.40  OA
ATOM     29 HG   SER B 158      38.953 -10.395 -16.190  1.00 17.90 LIG 0.21  HD
ENDBRANCH 27 28
ENDBRANCH 10 27
ENDBRANCH 8 10
ENDBRANCH 5 6
BRANCH 5 30
ATOM     30  CB  THR B 157      38.702  -9.981 -11.294  1.00 18.18 LIG 0.15  C 
ATOM     31  CG2 THR B 157      39.661 -10.656 -10.327  1.00 16.96 LIG 0.04  C 
BRANCH 30 32
ATOM     32 OG1  THR B 157      39.341  -9.805 -12.565  1.00 15.90 LIG-0.39  OA
ATOM     33 HG1  THR B 157      38.758  -9.779 -13.170  1.00 15.90 LIG 0.21  HD
ENDBRANCH 30 32
ENDBRANCH 5 30
ENDBRANCH 3 5
BRANCH 1 34
ATOM     34  CA  SER B 156      35.523 -12.722  -8.799  1.00 16.58 LIG 0.20  C 
BRANCH 34 35
ATOM     35  N   SER B 156      34.404 -13.634  -8.997  1.00 15.80 LIG-0.34  N 
ATOM     36 H    SER B 156      34.275 -13.860  -9.816  1.00 15.80 LIG 0.16  HD
ATOM     37  C   PRO B 155      33.657 -14.070  -7.987  1.00 18.36 LIG 0.24  C 
ATOM     38 O    PRO B 155      33.840 -13.732  -6.816  1.00 18.57 LIG-0.27  OA
BRANCH 37 39
ATOM     39  CA  PRO B 155      32.524 -15.020  -8.354  1.00 19.30 LIG 0.18  C 
ATOM     40  CB  PRO B 155      31.361 -14.931  -7.374  1.00 17.99 LIG 0.04  C 
ATOM     41  CG  PRO B 155      31.798 -15.867  -6.288  1.00 20.29 LIG 0.02  C 
ATOM     42  CD  PRO B 155      32.329 -17.062  -7.069  1.00 20.15 LIG 0.13  C 
ATOM     43  N   PRO B 155      32.927 -16.427  -8.258  1.00 20.34 LIG-0.34  N 
ATOM     44  C   SER B 154      33.674 -17.029  -9.200  1.00 23.17 LIG 0.24  C 
ATOM     45 O    SER B 154      34.067 -16.434 -10.203  1.00 21.43 LIG-0.27  OA
BRANCH 44 46
ATOM     46  CA  SER B 154      34.023 -18.498  -8.978  1.00 26.04 LIG 0.20  C 
BRANCH 46 47
ATOM     47  N   SER B 154      32.827 -19.322  -8.838  1.00 29.08 LIG-0.34  N 
ATOM     48 H    SER B 154      32.728 -19.673  -8.059  1.00 29.08 LIG 0.16  HD
ATOM     49  C   VAL B 153      31.978 -19.500  -9.845  1.00 31.74 LIG 0.26  C 
ATOM     50 O    VAL B 153      32.139 -18.995 -10.954  1.00 31.76 LIG-0.27  OA
BRANCH 49 51
ATOM     51  CA  VAL B 153      30.767 -20.384  -9.561  1.00 34.29 LIG 0.40  C 
ATOM     52  N   VAL B 153      29.617 -19.980 -10.417  1.00 34.52 LIG 0.61  N 
BRANCH 51 53
ATOM     53  CB  VAL B 153      31.163 -21.859  -9.814  1.00 36.17 LIG 0.03  C 
ATOM     54  CG2 VAL B 153      29.921 -22.727  -9.882  1.00 38.03 LIG 0.01  C 
ATOM     55  CG1 VAL B 153      32.091 -22.346  -8.713  1.00 38.39 LIG 0.01  C 
ENDBRANCH 51 53
ENDBRANCH 49 51
ENDBRANCH 46 47
BRANCH 46 56
ATOM     56  CB  SER B 154      34.879 -18.996 -10.146  1.00 27.48 LIG 0.20  C 
BRANCH 56 57
ATOM     57 OG   SER B 154      34.515 -20.314 -10.517  1.00 30.72 LIG-0.40  OA
ATOM     58 HG   SER B 154      35.073 -20.858 -10.204  1.00 30.72 LIG 0.21  HD
ENDBRANCH 56 57
ENDBRANCH 46 56
ENDBRANCH 44 46
ENDBRANCH 37 39
ENDBRANCH 34 35
BRANCH 34 59
ATOM     59  CB  SER B 156      36.774 -13.496  -8.383  1.00 16.81 LIG 0.20  C 
BRANCH 59 60
ATOM     60 OG   SER B 156      37.077 -14.503  -9.338  1.00 16.65 LIG-0.40  OA
ATOM     61 HG   SER B 156      37.286 -14.143 -10.068  1.00 16.65 LIG 0.21  HD
ENDBRANCH 59 60
ENDBRANCH 34 59
ENDBRANCH 1 34
TORSDOF 24
ENDMDL
MODEL 6
USER: ADFR SOLUTION from run 156
USER: SCORE 16.411048 LL:  -4.715 LR: -12.928 RR:   0.000 FEB:  -5.769
USER: RMSD 4.055216
USER: SEED 155
USER: STATUS no improvement in best in 4 clusters for 5 generations
USER: GENES 26
USER: genes 0 Translation |==|  0.38156 0.67880 0.49116
USER: genes 1 Rotation |==|  0.48625 0.49266 0.51781 0.99944
USER: genes 2 Torsion [C]-N--CA-[C] |==|  0.79425
USER: genes 3 Torsion [N]-CA--C-[N] |==|  0.48676
USER: genes 4 Torsion [C]-N--CA-[C] |==|  0.85833
USER: genes 5 Torsion [N]-CA--C-[N] |==|  0.88010
USER: genes 6 Torsion [C]-N--CA-[CB] |==|  0.75935
USER: genes 7 Torsion [N]-CA--C-[O] |==|  0.16185
USER: genes 8 Torsion [N]-CA--CB-[CG] |==|  0.24583
USER: genes 9 Torsion [CA]-CB--CG-[CD2] |==|  0.26072
USER: genes 10 Torsion [CE2]-CZ--OH-[HH] |==|  0.08245
USER: genes 11 Torsion [N]-CA--CB-[OG] |==|  0.13191
USER: genes 12 Torsion [CA]-CB--OG-[HG] |==|  0.71867
USER: genes 13 Torsion [N]-CA--CB-[CG2] |==|  0.80883
USER: genes 14 Torsion [CA]-CB--OG1-[HG1] |==|  0.75275
USER: genes 15 Torsion [N]-C--CA-[N] |==|  0.56025
USER: genes 16 Torsion [C]-CA--N-[C] |==|  0.55573
USER: genes 17 Torsion [N]-C--CA-[CB] |==|  0.57831
USER: genes 18 Torsion [N]-C--CA-[N] |==|  0.16661
USER: genes 19 Torsion [C]-CA--N-[C] |==|  0.14747
USER: genes 20 Torsion [N]-C--CA-[N] |==|  0.96515
USER: genes 21 Torsion [C]-CA--CB-[CG2] |==|  0.77747
USER: genes 22 Torsion [C]-CA--CB-[OG] |==|  0.51884
USER: genes 23 Torsion [CA]-CB--OG-[HG] |==|  0.41877
USER: genes 24 Torsion [C]-CA--CB-[OG] |==|  0.83671
USER: genes 25 Torsion [CA]-CB--OG-[HG] |==|  0.17003
ROOT
ATOM      1  C   SER B 156      35.679 -12.213 -10.015  1.00 15.87 LIG 0.24  C 
ATOM      2 O    SER B 156      34.834 -12.208 -10.911  1.00 15.60 LIG-0.27  OA
ATOM      3  N   THR B 157      36.848 -11.588 -10.112  1.00 16.26 LIG-0.34  N 
ATOM      4 H    THR B 157      37.431 -11.549  -9.481  1.00 16.26 LIG 0.16  HD
ENDROOT
BRANCH 3 5
ATOM      5  CA  THR B 157      37.234 -10.903 -11.334  1.00 15.91 LIG 0.20  C 
BRANCH 5 6
ATOM      6  C   THR B 157      37.579 -12.038 -12.294  1.00 16.14 LIG 0.24  C 
ATOM      7 O    THR B 157      37.571 -13.209 -11.901  1.00 15.69 LIG-0.27  OA
ATOM      8  N   SER B 158      37.878 -11.702 -13.543  1.00 15.14 LIG-0.34  N 
ATOM      9 H    SER B 158      37.890 -10.894 -13.837  1.00 15.14 LIG 0.16  HD
BRANCH 8 10
ATOM     10  CA  SER B 158      38.218 -12.717 -14.533  1.00 18.36 LIG 0.20  C 
BRANCH 10 11
ATOM     11  C   SER B 158      39.303 -13.653 -14.007  1.00 20.96 LIG 0.24  C 
ATOM     12 O    SER B 158      39.225 -14.870 -14.182  1.00 20.92 LIG-0.27  OA
ATOM     13  N   TYR B 159      40.314 -13.077 -13.365  1.00 23.40 LIG-0.35  N 
ATOM     14 H    TYR B 159      40.381 -12.229 -13.235  1.00 23.40 LIG 0.16  HD
BRANCH 13 15
ATOM     15  CA  TYR B 159      41.418 -13.860 -12.817  1.00 28.83 LIG 0.17  C 
BRANCH 15 16
ATOM     16  C   TYR B 159      41.732 -15.057 -13.707  1.00 30.09 LIG 0.22  C 
ATOM     17 O    TYR B 159      42.037 -14.813 -14.894  1.00 33.46 LIG-0.29  OA
ENDBRANCH 15 16
BRANCH 15 18
ATOM     18  CB  TYR B 159      41.072 -14.349 -11.408  1.00 32.38 LIG 0.07  C 
BRANCH 18 19
ATOM     19  CG  TYR B 159      40.351 -15.678 -11.387  1.00 36.58 LIG-0.06  A 
ATOM     20  CD2 TYR B 159      41.054 -16.873 -11.236  1.00 38.67 LIG 0.01  A 
ATOM     21  CE2 TYR B 159      40.393 -18.099 -11.205  1.00 40.79 LIG 0.04  A 
ATOM     22  CZ  TYR B 159      39.013 -18.135 -11.329  1.00 41.05 LIG 0.07  A 
ATOM     23  CE1 TYR B 159      38.292 -16.962 -11.482  1.00 40.09 LIG 0.04  A 
ATOM     24  CD1 TYR B 159      38.963 -15.742 -11.509  1.00 38.09 LIG 0.01  A 
BRANCH 22 25
ATOM     25 OH   TYR B 159      38.353 -19.343 -11.300  1.00 43.66 LIG-0.36  OA
ATOM     26 HH   TYR B 159      38.784 -19.887 -10.825  1.00 43.66 LIG 0.22  HD
ENDBRANCH 22 25
ENDBRANCH 18 19
ENDBRANCH 15 18
ENDBRANCH 13 15
ENDBRANCH 10 11
BRANCH 10 27
ATOM     27  CB  SER B 158      38.698 -12.054 -15.825  1.00 15.79 LIG 0.20  C 
BRANCH 27 28
ATOM     28 OG   SER B 158      39.655 -11.046 -15.552  1.00 17.90 LIG-0.40  OA
ATOM     29 HG   SER B 158      39.286 -10.292 -15.592  1.00 17.90 LIG 0.21  HD
ENDBRANCH 27 28
ENDBRANCH 10 27
ENDBRANCH 8 10
ENDBRANCH 5 6
BRANCH 5 30
ATOM     30  CB  THR B 157      38.487 -10.023 -11.138  1.00 18.18 LIG 0.15  C 
ATOM     31  CG2 THR B 157      38.174  -8.834 -10.246  1.00 16.96 LIG 0.04  C 
BRANCH 30 32
ATOM     32 OG1  THR B 157      39.534 -10.807 -10.550  1.00 15.90 LIG-0.39  OA
ATOM     33 HG1  THR B 157      39.476 -10.769  -9.713  1.00 15.90 LIG 0.21  HD
ENDBRANCH 30 32
ENDBRANCH 5 30
ENDBRANCH 3 5
BRANCH 1 34
ATOM     34  CA  SER B 156      35.421 -12.948  -8.712  1.00 16.58 LIG 0.20  C 
BRANCH 34 35
ATOM     35  N   SER B 156      34.401 -13.961  -8.952  1.00 15.80 LIG-0.34  N 
ATOM     36 H    SER B 156      34.308 -14.176  -9.780  1.00 15.80 LIG 0.16  HD
ATOM     37  C   PRO B 155      33.684 -14.494  -7.968  1.00 18.36 LIG 0.24  C 
ATOM     38 O    PRO B 155      33.815 -14.172  -6.786  1.00 18.57 LIG-0.27  OA
BRANCH 37 39
ATOM     39  CA  PRO B 155      32.656 -15.540  -8.380  1.00 19.30 LIG 0.18  C 
ATOM     40  CB  PRO B 155      31.475 -15.594  -7.419  1.00 17.99 LIG 0.04  C 
ATOM     41  CG  PRO B 155      31.985 -16.512  -6.350  1.00 20.29 LIG 0.02  C 
ATOM     42  CD  PRO B 155      32.643 -17.626  -7.152  1.00 20.15 LIG 0.13  C 
ATOM     43  N   PRO B 155      33.194 -16.904  -8.313  1.00 20.34 LIG-0.34  N 
ATOM     44  C   SER B 154      34.011 -17.403  -9.256  1.00 23.17 LIG 0.24  C 
ATOM     45 O    SER B 154      34.359 -16.745 -10.236  1.00 21.43 LIG-0.27  OA
BRANCH 44 46
ATOM     46  CA  SER B 154      34.501 -18.836  -9.066  1.00 26.04 LIG 0.20  C 
BRANCH 46 47
ATOM     47  N   SER B 154      33.392 -19.783  -9.017  1.00 29.08 LIG-0.34  N 
ATOM     48 H    SER B 154      33.395 -20.297  -8.326  1.00 29.08 LIG 0.16  HD
ATOM     49  C   VAL B 153      32.468 -19.829  -9.971  1.00 31.74 LIG 0.26  C 
ATOM     50 O    VAL B 153      32.483 -19.091 -10.954  1.00 31.76 LIG-0.27  OA
BRANCH 49 51
ATOM     51  CA  VAL B 153      31.362 -20.865  -9.794  1.00 34.29 LIG 0.40  C 
ATOM     52  N   VAL B 153      31.720 -21.827  -8.714  1.00 34.52 LIG 0.61  N 
BRANCH 51 53
ATOM     53  CB  VAL B 153      30.041 -20.126  -9.470  1.00 36.17 LIG 0.03  C 
ATOM     54  CG2 VAL B 153      30.005 -19.740  -8.004  1.00 38.03 LIG 0.01  C 
ATOM     55  CG1 VAL B 153      28.852 -21.009  -9.816  1.00 38.39 LIG 0.01  C 
ENDBRANCH 51 53
ENDBRANCH 49 51
ENDBRANCH 46 47
BRANCH 46 56
ATOM     56  CB  SER B 154      35.459 -19.198 -10.204  1.00 27.48 LIG 0.20  C 
BRANCH 56 57
ATOM     57 OG   SER B 154      35.816 -20.569 -10.152  1.00 30.72 LIG-0.40  OA
ATOM     58 HG   SER B 154      35.982 -20.845 -10.927  1.00 30.72 LIG 0.21  HD
ENDBRANCH 56 57
ENDBRANCH 46 56
ENDBRANCH 44 46
ENDBRANCH 37 39
ENDBRANCH 34 35
BRANCH 34 59
ATOM     59  CB  SER B 156      36.728 -13.606  -8.267  1.00 16.81 LIG 0.20  C 
BRANCH 59 60
ATOM     60 OG   SER B 156      37.197 -14.503  -9.263  1.00 16.65 LIG-0.40  OA
ATOM     61 HG   SER B 156      37.349 -14.081  -9.973  1.00 16.65 LIG 0.21  HD
ENDBRANCH 59 60
ENDBRANCH 34 59
ENDBRANCH 1 34
TORSDOF 24
ENDMDL
MODEL 7
USER: ADFR SOLUTION from run 113
USER: SCORE 16.101606 LL:  -4.079 LR: -12.916 RR:   0.000 FEB:  -5.757
USER: RMSD 5.008058
USER: SEED 112
USER: STATUS searching
USER: GENES 26
USER: genes 0 Translation |==|  0.36763 0.64430 0.49673
USER: genes 1 Rotation |==|  0.62741 0.61638 0.40720 0.96001
USER: genes 2 Torsion [C]-N--CA-[C] |==|  0.57475
USER: genes 3 Torsion [N]-CA--C-[N] |==|  0.42778
USER: genes 4 Torsion [C]-N--CA-[C] |==|  0.73186
USER: genes 5 Torsion [N]-CA--C-[N] |==|  0.90118
USER: genes 6 Torsion [C]-N--CA-[CB] |==|  0.14874
USER: genes 7 Torsion [N]-CA--C-[O] |==|  0.07709
USER: genes 8 Torsion [N]-CA--CB-[CG] |==|  0.24023
USER: genes 9 Torsion [CA]-CB--CG-[CD2] |==|  0.28779
USER: genes 10 Torsion [CE2]-CZ--OH-[HH] |==|  0.50311
USER: genes 11 Torsion [N]-CA--CB-[OG] |==|  0.34105
USER: genes 12 Torsion [CA]-CB--OG-[HG] |==|  0.70159
USER: genes 13 Torsion [N]-CA--CB-[CG2] |==|  0.11378
USER: genes 14 Torsion [CA]-CB--OG1-[HG1] |==|  0.01641
USER: genes 15 Torsion [N]-C--CA-[N] |==|  0.51664
USER: genes 16 Torsion [C]-CA--N-[C] |==|  0.74350
USER: genes 17 Torsion [N]-C--CA-[CB] |==|  0.59941
USER: genes 18 Torsion [N]-C--CA-[N] |==|  0.86667
USER: genes 19 Torsion [C]-CA--N-[C] |==|  0.84756
USER: genes 20 Torsion [N]-C--CA-[N] |==|  0.49069
USER: genes 21 Torsion [C]-CA--CB-[CG2] |==|  0.76650
USER: genes 22 Torsion [C]-CA--CB-[OG] |==|  0.60541
USER: genes 23 Torsion [CA]-CB--OG-[HG] |==|  0.64767
USER: genes 24 Torsion [C]-CA--CB-[OG] |==|  0.70765
USER: genes 25 Torsion [CA]-CB--OG-[HG] |==|  0.09579
ROOT
ATOM      1  C   SER B 156      35.293 -13.015  -9.898  1.00 15.87 LIG 0.24  C 
ATOM      2 O    SER B 156      34.343 -12.248 -10.062  1.00 15.60 LIG-0.27  OA
ATOM      3  N   THR B 157      36.504 -12.791 -10.397  1.00 16.26 LIG-0.34  N 
ATOM      4 H    THR B 157      37.186 -13.297 -10.258  1.00 16.26 LIG 0.16  HD
ENDROOT
BRANCH 3 5
ATOM      5  CA  THR B 157      36.767 -11.638 -11.240  1.00 15.91 LIG 0.20  C 
BRANCH 5 6
ATOM      6  C   THR B 157      37.938 -12.082 -12.111  1.00 16.14 LIG 0.24  C 
ATOM      7 O    THR B 157      38.717 -12.952 -11.709  1.00 15.69 LIG-0.27  OA
ATOM      8  N   SER B 158      38.067 -11.495 -13.294  1.00 15.14 LIG-0.34  N 
ATOM      9 H    SER B 158      37.537 -10.887 -13.593  1.00 15.14 LIG 0.16  HD
BRANCH 8 10
ATOM     10  CA  SER B 158      39.154 -11.856 -14.198  1.00 18.36 LIG 0.20  C 
BRANCH 10 11
ATOM     11  C   SER B 158      40.324 -10.886 -14.062  1.00 20.96 LIG 0.24  C 
ATOM     12 O    SER B 158      41.486 -11.281 -14.170  1.00 20.92 LIG-0.27  OA
ATOM     13  N   TYR B 159      40.010  -9.616 -13.825  1.00 23.40 LIG-0.35  N 
ATOM     14 H    TYR B 159      39.203  -9.328 -13.746  1.00 23.40 LIG 0.16  HD
BRANCH 13 15
ATOM     15  CA  TYR B 159      41.036  -8.588 -13.678  1.00 28.83 LIG 0.17  C 
BRANCH 15 16
ATOM     16  C   TYR B 159      40.407  -7.207 -13.539  1.00 30.09 LIG 0.22  C 
ATOM     17 O    TYR B 159      39.261  -7.156 -13.043  1.00 33.46 LIG-0.29  OA
ENDBRANCH 15 16
BRANCH 15 18
ATOM     18  CB  TYR B 159      41.975  -8.601 -14.887  1.00 32.38 LIG 0.07  C 
BRANCH 18 19
ATOM     19  CG  TYR B 159      41.484  -7.761 -16.045  1.00 36.58 LIG-0.06  A 
ATOM     20  CD2 TYR B 159      42.045  -6.512 -16.314  1.00 38.67 LIG 0.01  A 
ATOM     21  CE2 TYR B 159      41.604  -5.741 -17.387  1.00 40.79 LIG 0.04  A 
ATOM     22  CZ  TYR B 159      40.589  -6.218 -18.201  1.00 41.05 LIG 0.07  A 
ATOM     23  CE1 TYR B 159      40.015  -7.455 -17.954  1.00 40.09 LIG 0.04  A 
ATOM     24  CD1 TYR B 159      40.466  -8.219 -16.880  1.00 38.09 LIG 0.01  A 
BRANCH 22 25
ATOM     25 OH   TYR B 159      40.148  -5.460 -19.262  1.00 43.66 LIG-0.36  OA
ATOM     26 HH   TYR B 159      39.524  -5.864 -19.655  1.00 43.66 LIG 0.22  HD
ENDBRANCH 22 25
ENDBRANCH 18 19
ENDBRANCH 15 18
ENDBRANCH 13 15
ENDBRANCH 10 11
BRANCH 10 27
ATOM     27  CB  SER B 158      38.658 -11.858 -15.645  1.00 15.79 LIG 0.20  C 
BRANCH 27 28
ATOM     28 OG   SER B 158      39.424 -10.974 -16.444  1.00 17.90 LIG-0.40  OA
ATOM     29 HG   SER B 158      38.966 -10.294 -16.628  1.00 17.90 LIG 0.21  HD
ENDBRANCH 27 28
ENDBRANCH 10 27
ENDBRANCH 8 10
ENDBRANCH 5 6
BRANCH 5 30
ATOM     30  CB  THR B 157      37.202 -10.404 -10.419  1.00 18.18 LIG 0.15  C 
ATOM     31  CG2 THR B 157      38.157 -10.807  -9.308  1.00 16.96 LIG 0.04  C 
BRANCH 30 32
ATOM     32 OG1  THR B 157      37.839  -9.454 -11.284  1.00 15.90 LIG-0.39  OA
ATOM     33 HG1  THR B 157      37.780  -9.717 -12.080  1.00 15.90 LIG 0.21  HD
ENDBRANCH 30 32
ENDBRANCH 5 30
ENDBRANCH 3 5
BRANCH 1 34
ATOM     34  CA  SER B 156      35.128 -14.289  -9.088  1.00 16.58 LIG 0.20  C 
BRANCH 34 35
ATOM     35  N   SER B 156      33.718 -14.436  -8.749  1.00 15.80 LIG-0.34  N 
ATOM     36 H    SER B 156      33.255 -14.849  -9.344  1.00 15.80 LIG 0.16  HD
ATOM     37  C   PRO B 155      33.209 -13.966  -7.614  1.00 18.36 LIG 0.24  C 
ATOM     38 O    PRO B 155      33.877 -13.365  -6.771  1.00 18.57 LIG-0.27  OA
BRANCH 37 39
ATOM     39  CA  PRO B 155      31.718 -14.198  -7.404  1.00 19.30 LIG 0.18  C 
ATOM     40  CB  PRO B 155      31.051 -13.031  -6.686  1.00 17.99 LIG 0.04  C 
ATOM     41  CG  PRO B 155      31.309 -13.364  -5.247  1.00 20.29 LIG 0.02  C 
ATOM     42  CD  PRO B 155      30.999 -14.853  -5.187  1.00 20.15 LIG 0.13  C 
ATOM     43  N   PRO B 155      31.453 -15.329  -6.507  1.00 20.34 LIG-0.34  N 
ATOM     44  C   SER B 154      31.547 -16.607  -6.912  1.00 23.17 LIG 0.24  C 
ATOM     45 O    SER B 154      31.862 -16.908  -8.063  1.00 21.43 LIG-0.27  OA
BRANCH 44 46
ATOM     46  CA  SER B 154      31.246 -17.689  -5.879  1.00 26.04 LIG 0.20  C 
BRANCH 46 47
ATOM     47  N   SER B 154      31.947 -17.446  -4.622  1.00 29.08 LIG-0.34  N 
ATOM     48 H    SER B 154      31.436 -17.419  -3.931  1.00 29.08 LIG 0.16  HD
ATOM     49  C   VAL B 153      33.265 -17.283  -4.577  1.00 31.74 LIG 0.26  C 
ATOM     50 O    VAL B 153      33.979 -17.319  -5.577  1.00 31.76 LIG-0.27  OA
BRANCH 49 51
ATOM     51  CA  VAL B 153      33.870 -17.038  -3.198  1.00 34.29 LIG 0.40  C 
ATOM     52  N   VAL B 153      35.354 -16.955  -3.288  1.00 34.52 LIG 0.61  N 
BRANCH 51 53
ATOM     53  CB  VAL B 153      33.270 -15.733  -2.621  1.00 36.17 LIG 0.03  C 
ATOM     54  CG2 VAL B 153      34.036 -14.532  -3.140  1.00 38.03 LIG 0.01  C 
ATOM     55  CG1 VAL B 153      33.306 -15.770  -1.101  1.00 38.39 LIG 0.01  C 
ENDBRANCH 51 53
ENDBRANCH 49 51
ENDBRANCH 46 47
BRANCH 46 56
ATOM     56  CB  SER B 154      29.735 -17.755  -5.641  1.00 27.48 LIG 0.20  C 
BRANCH 56 57
ATOM     57 OG   SER B 154      29.445 -17.996  -4.275  1.00 30.72 LIG-0.40  OA
ATOM     58 HG   SER B 154      28.933 -18.658  -4.210  1.00 30.72 LIG 0.21  HD
ENDBRANCH 56 57
ENDBRANCH 46 56
ENDBRANCH 44 46
ENDBRANCH 37 39
ENDBRANCH 34 35
BRANCH 34 59
ATOM     59  CB  SER B 156      35.593 -15.464  -9.949  1.00 16.81 LIG 0.20  C 
BRANCH 59 60
ATOM     60 OG   SER B 156      34.479 -16.204 -10.425  1.00 16.65 LIG-0.40  OA
ATOM     61 HG   SER B 156      33.838 -15.682 -10.574  1.00 16.65 LIG 0.21  HD
ENDBRANCH 59 60
ENDBRANCH 34 59
ENDBRANCH 1 34
TORSDOF 24
ENDMDL
MODEL 8
USER: ADFR SOLUTION from run 115
USER: SCORE 16.576581 LL:  -5.030 LR: -12.879 RR:   0.000 FEB:  -5.720
USER: RMSD 3.257191
USER: SEED 114
USER: STATUS searching
USER: GENES 26
USER: genes 0 Translation |==|  0.38120 0.68650 0.49097
USER: genes 1 Rotation |==|  0.47717 0.48227 0.51063 0.99905
USER: genes 2 Torsion [C]-N--CA-[C] |==|  0.79444
USER: genes 3 Torsion [N]-CA--C-[N] |==|  0.46034
USER: genes 4 Torsion [C]-N--CA-[C] |==|  0.86667
USER: genes 5 Torsion [N]-CA--C-[N] |==|  0.86724
USER: genes 6 Torsion [C]-N--CA-[CB] |==|  0.79777
USER: genes 7 Torsion [N]-CA--C-[O] |==|  0.71365
USER: genes 8 Torsion [N]-CA--CB-[CG] |==|  0.82258
USER: genes 9 Torsion [CA]-CB--CG-[CD2] |==|  0.91263
USER: genes 10 Torsion [CE2]-CZ--OH-[HH] |==|  0.85681
USER: genes 11 Torsion [N]-CA--CB-[OG] |==|  0.11964
USER: genes 12 Torsion [CA]-CB--OG-[HG] |==|  0.72334
USER: genes 13 Torsion [N]-CA--CB-[CG2] |==|  0.43931
USER: genes 14 Torsion [CA]-CB--OG1-[HG1] |==|  0.90977
USER: genes 15 Torsion [N]-C--CA-[N] |==|  0.54782
USER: genes 16 Torsion [C]-CA--N-[C] |==|  0.55795
USER: genes 17 Torsion [N]-C--CA-[CB] |==|  0.57766
USER: genes 18 Torsion [N]-C--CA-[N] |==|  0.16059
USER: genes 19 Torsion [C]-CA--N-[C] |==|  0.18329
USER: genes 20 Torsion [N]-C--CA-[N] |==|  0.42095
USER: genes 21 Torsion [C]-CA--CB-[CG2] |==|  0.53914
USER: genes 22 Torsion [C]-CA--CB-[OG] |==|  0.60979
USER: genes 23 Torsion [CA]-CB--OG-[HG] |==|  0.71757
USER: genes 24 Torsion [C]-CA--CB-[OG] |==|  0.82994
USER: genes 25 Torsion [CA]-CB--OG-[HG] |==|  0.18168
ROOT
ATOM      1  C   SER B 156      35.669 -12.034 -10.019  1.00 15.87 LIG 0.24  C 
ATOM      2 O    SER B 156      34.864 -12.037 -10.951  1.00 15.60 LIG-0.27  OA
ATOM      3  N   THR B 157      36.859 -11.444 -10.085  1.00 16.26 LIG-0.34  N 
ATOM      4 H    THR B 157      37.415 -11.400  -9.431  1.00 16.26 LIG 0.16  HD
ENDROOT
BRANCH 3 5
ATOM      5  CA  THR B 157      37.316 -10.814 -11.312  1.00 15.91 LIG 0.20  C 
BRANCH 5 6
ATOM      6  C   THR B 157      37.668 -11.990 -12.217  1.00 16.14 LIG 0.24  C 
ATOM      7 O    THR B 157      37.780 -13.126 -11.746  1.00 15.69 LIG-0.27  OA
ATOM      8  N   SER B 158      37.841 -11.729 -13.507  1.00 15.14 LIG-0.34  N 
ATOM      9 H    SER B 158      37.768 -10.947 -13.856  1.00 15.14 LIG 0.16  HD
BRANCH 8 10
ATOM     10  CA  SER B 158      38.176 -12.790 -14.451  1.00 18.36 LIG 0.20  C 
BRANCH 10 11
ATOM     11  C   SER B 158      39.319 -13.651 -13.922  1.00 20.96 LIG 0.24  C 
ATOM     12 O    SER B 158      39.243 -14.881 -13.944  1.00 20.92 LIG-0.27  OA
ATOM     13  N   TYR B 159      40.376 -12.999 -13.449  1.00 23.40 LIG-0.35  N 
ATOM     14 H    TYR B 159      40.441 -12.141 -13.426  1.00 23.40 LIG 0.16  HD
BRANCH 13 15
ATOM     15  CA  TYR B 159      41.538 -13.706 -12.917  1.00 28.83 LIG 0.17  C 
BRANCH 15 16
ATOM     16  C   TYR B 159      41.993 -14.802 -13.874  1.00 30.09 LIG 0.22  C 
ATOM     17 O    TYR B 159      41.690 -15.977 -13.573  1.00 33.46 LIG-0.29  OA
ENDBRANCH 15 16
BRANCH 15 18
ATOM     18  CB  TYR B 159      41.204 -14.324 -11.557  1.00 32.38 LIG 0.07  C 
BRANCH 18 19
ATOM     19  CG  TYR B 159      40.882 -13.301 -10.489  1.00 36.58 LIG-0.06  A 
ATOM     20  CD2 TYR B 159      41.480 -12.042 -10.499  1.00 38.67 LIG 0.01  A 
ATOM     21  CE2 TYR B 159      41.177 -11.093  -9.524  1.00 40.79 LIG 0.04  A 
ATOM     22  CZ  TYR B 159      40.269 -11.405  -8.525  1.00 41.05 LIG 0.07  A 
ATOM     23  CE1 TYR B 159      39.662 -12.650  -8.493  1.00 40.09 LIG 0.04  A 
ATOM     24  CD1 TYR B 159      39.971 -13.590  -9.474  1.00 38.09 LIG 0.01  A 
BRANCH 22 25
ATOM     25 OH   TYR B 159      39.966 -10.472  -7.559  1.00 43.66 LIG-0.36  OA
ATOM     26 HH   TYR B 159      40.676 -10.179  -7.220  1.00 43.66 LIG 0.22  HD
ENDBRANCH 22 25
ENDBRANCH 18 19
ENDBRANCH 15 18
ENDBRANCH 13 15
ENDBRANCH 10 11
BRANCH 10 27
ATOM     27  CB  SER B 158      38.572 -12.189 -15.801  1.00 15.79 LIG 0.20  C 
BRANCH 27 28
ATOM     28 OG   SER B 158      39.420 -11.068 -15.627  1.00 17.90 LIG-0.40  OA
ATOM     29 HG   SER B 158      38.970 -10.362 -15.698  1.00 17.90 LIG 0.21  HD
ENDBRANCH 27 28
ENDBRANCH 10 27
ENDBRANCH 8 10
ENDBRANCH 5 6
BRANCH 5 30
ATOM     30  CB  THR B 157      38.586  -9.963 -11.091  1.00 18.18 LIG 0.15  C 
ATOM     31  CG2 THR B 157      39.335  -9.767 -12.398  1.00 16.96 LIG 0.04  C 
BRANCH 30 32
ATOM     32 OG1  THR B 157      38.219  -8.688 -10.547  1.00 15.90 LIG-0.39  OA
ATOM     33 HG1  THR B 157      37.467  -8.462 -10.847  1.00 15.90 LIG 0.21  HD
ENDBRANCH 30 32
ENDBRANCH 5 30
ENDBRANCH 3 5
BRANCH 1 34
ATOM     34  CA  SER B 156      35.334 -12.716  -8.704  1.00 16.58 LIG 0.20  C 
BRANCH 34 35
ATOM     35  N   SER B 156      34.223 -13.631  -8.934  1.00 15.80 LIG-0.34  N 
ATOM     36 H    SER B 156      34.122 -13.861  -9.756  1.00 15.80 LIG 0.16  HD
ATOM     37  C   PRO B 155      33.444 -14.063  -7.948  1.00 18.36 LIG 0.24  C 
ATOM     38 O    PRO B 155      33.587 -13.719  -6.773  1.00 18.57 LIG-0.27  OA
BRANCH 37 39
ATOM     39  CA  PRO B 155      32.325 -15.016  -8.348  1.00 19.30 LIG 0.18  C 
ATOM     40  CB  PRO B 155      31.132 -14.929  -7.404  1.00 17.99 LIG 0.04  C 
ATOM     41  CG  PRO B 155      31.538 -15.863  -6.304  1.00 20.29 LIG 0.02  C 
ATOM     42  CD  PRO B 155      32.095 -17.057  -7.067  1.00 20.15 LIG 0.13  C 
ATOM     43  N   PRO B 155      32.728 -16.422  -8.238  1.00 20.34 LIG-0.34  N 
ATOM     44  C   SER B 154      33.504 -17.023  -9.155  1.00 23.17 LIG 0.24  C 
ATOM     45 O    SER B 154      33.926 -16.429 -10.147  1.00 21.43 LIG-0.27  OA
BRANCH 44 46
ATOM     46  CA  SER B 154      33.851 -18.491  -8.922  1.00 26.04 LIG 0.20  C 
BRANCH 46 47
ATOM     47  N   SER B 154      32.653 -19.318  -8.814  1.00 29.08 LIG-0.34  N 
ATOM     48 H    SER B 154      32.533 -19.667  -8.037  1.00 29.08 LIG 0.16  HD
ATOM     49  C   VAL B 153      31.833 -19.500  -9.844  1.00 31.74 LIG 0.26  C 
ATOM     50 O    VAL B 153      32.025 -18.997 -10.949  1.00 31.76 LIG-0.27  OA
BRANCH 49 51
ATOM     51  CA  VAL B 153      30.617 -20.385  -9.593  1.00 34.29 LIG 0.40  C 
ATOM     52  N   VAL B 153      29.492 -19.989 -10.484  1.00 34.52 LIG 0.61  N 
BRANCH 51 53
ATOM     53  CB  VAL B 153      31.023 -21.861  -9.827  1.00 36.17 LIG 0.03  C 
ATOM     54  CG2 VAL B 153      29.786 -22.733  -9.929  1.00 38.03 LIG 0.01  C 
ATOM     55  CG1 VAL B 153      31.920 -22.341  -8.697  1.00 38.39 LIG 0.01  C 
ENDBRANCH 51 53
ENDBRANCH 49 51
ENDBRANCH 46 47
BRANCH 46 56
ATOM     56  CB  SER B 154      34.740 -18.989 -10.064  1.00 27.48 LIG 0.20  C 
BRANCH 56 57
ATOM     57 OG   SER B 154      34.389 -20.309 -10.444  1.00 30.72 LIG-0.40  OA
ATOM     58 HG   SER B 154      34.939 -20.851 -10.114  1.00 30.72 LIG 0.21  HD
ENDBRANCH 56 57
ENDBRANCH 46 56
ENDBRANCH 44 46
ENDBRANCH 37 39
ENDBRANCH 34 35
BRANCH 34 59
ATOM     59  CB  SER B 156      36.570 -13.486  -8.237  1.00 16.81 LIG 0.20  C 
BRANCH 59 60
ATOM     60 OG   SER B 156      36.924 -14.481  -9.186  1.00 16.65 LIG-0.40  OA
ATOM     61 HG   SER B 156      37.164 -14.113  -9.902  1.00 16.65 LIG 0.21  HD
ENDBRANCH 59 60
ENDBRANCH 34 59
ENDBRANCH 1 34
TORSDOF 24
ENDMDL
MODEL 9
USER: ADFR SOLUTION from run 98
USER: SCORE 17.050825 LL:  -4.718 LR: -12.771 RR:   0.000 FEB:  -5.612
USER: RMSD 2.778527
USER: SEED 97
USER: STATUS no improvement in best in 5 clusters for 5 generations
USER: GENES 26
USER: genes 0 Translation |==|  0.38186 0.67846 0.49235
USER: genes 1 Rotation |==|  0.50488 0.48812 0.50877 0.99976
USER: genes 2 Torsion [C]-N--CA-[C] |==|  0.79503
USER: genes 3 Torsion [N]-CA--C-[N] |==|  0.44860
USER: genes 4 Torsion [C]-N--CA-[C] |==|  0.80373
USER: genes 5 Torsion [N]-CA--C-[N] |==|  0.89027
USER: genes 6 Torsion [C]-N--CA-[CB] |==|  0.41586
USER: genes 7 Torsion [N]-CA--C-[O] |==|  0.21180
USER: genes 8 Torsion [N]-CA--CB-[CG] |==|  0.11222
USER: genes 9 Torsion [CA]-CB--CG-[CD2] |==|  0.76405
USER: genes 10 Torsion [CE2]-CZ--OH-[HH] |==|  0.44664
USER: genes 11 Torsion [N]-CA--CB-[OG] |==|  0.24480
USER: genes 12 Torsion [CA]-CB--OG-[HG] |==|  0.66725
USER: genes 13 Torsion [N]-CA--CB-[CG2] |==|  0.24727
USER: genes 14 Torsion [CA]-CB--OG1-[HG1] |==|  0.91575
USER: genes 15 Torsion [N]-C--CA-[N] |==|  0.48250
USER: genes 16 Torsion [C]-CA--N-[C] |==|  0.59273
USER: genes 17 Torsion [N]-C--CA-[CB] |==|  0.67752
USER: genes 18 Torsion [N]-C--CA-[N] |==|  0.44019
USER: genes 19 Torsion [C]-CA--N-[C] |==|  0.71799
USER: genes 20 Torsion [N]-C--CA-[N] |==|  0.38181
USER: genes 21 Torsion [C]-CA--CB-[CG2] |==|  0.16999
USER: genes 22 Torsion [C]-CA--CB-[OG] |==|  0.63756
USER: genes 23 Torsion [CA]-CB--OG-[HG] |==|  0.50484
USER: genes 24 Torsion [C]-CA--CB-[OG] |==|  0.87014
USER: genes 25 Torsion [CA]-CB--OG-[HG] |==|  0.19682
ROOT
ATOM      1  C   SER B 156      35.688 -12.221  -9.990  1.00 15.87 LIG 0.24  C 
ATOM      2 O    SER B 156      34.859 -12.118 -10.896  1.00 15.60 LIG-0.27  OA
ATOM      3  N   THR B 157      36.879 -11.631 -10.022  1.00 16.26 LIG-0.34  N 
ATOM      4 H    THR B 157      37.451 -11.661  -9.380  1.00 16.26 LIG 0.16  HD
ENDROOT
BRANCH 3 5
ATOM      5  CA  THR B 157      37.309 -10.871 -11.182  1.00 15.91 LIG 0.20  C 
BRANCH 5 6
ATOM      6  C   THR B 157      37.625 -11.941 -12.223  1.00 16.14 LIG 0.24  C 
ATOM      7 O    THR B 157      37.817 -13.110 -11.874  1.00 15.69 LIG-0.27  OA
ATOM      8  N   SER B 158      37.680 -11.552 -13.491  1.00 15.14 LIG-0.34  N 
ATOM      9 H    SER B 158      37.552 -10.745 -13.755  1.00 15.14 LIG 0.16  HD
BRANCH 8 10
ATOM     10  CA  SER B 158      37.974 -12.505 -14.556  1.00 18.36 LIG 0.20  C 
BRANCH 10 11
ATOM     11  C   SER B 158      39.431 -12.955 -14.502  1.00 20.96 LIG 0.24  C 
ATOM     12 O    SER B 158      39.736 -14.128 -14.725  1.00 20.92 LIG-0.27  OA
ATOM     13  N   TYR B 159      40.325 -12.017 -14.207  1.00 23.40 LIG-0.35  N 
ATOM     14 H    TYR B 159      40.124 -11.195 -14.049  1.00 23.40 LIG 0.16  HD
BRANCH 13 15
ATOM     15  CA  TYR B 159      41.752 -12.317 -14.128  1.00 28.83 LIG 0.17  C 
BRANCH 15 16
ATOM     16  C   TYR B 159      42.139 -12.757 -12.721  1.00 30.09 LIG 0.22  C 
ATOM     17 O    TYR B 159      41.828 -13.920 -12.388  1.00 33.46 LIG-0.29  OA
ENDBRANCH 15 16
BRANCH 15 18
ATOM     18  CB  TYR B 159      42.574 -11.087 -14.522  1.00 32.38 LIG 0.07  C 
BRANCH 18 19
ATOM     19  CG  TYR B 159      42.018  -9.788 -13.983  1.00 36.58 LIG-0.06  A 
ATOM     20  CD2 TYR B 159      41.015  -9.098 -14.664  1.00 38.67 LIG 0.01  A 
ATOM     21  CE2 TYR B 159      40.493  -7.907 -14.164  1.00 40.79 LIG 0.04  A 
ATOM     22  CZ  TYR B 159      40.977  -7.395 -12.971  1.00 41.05 LIG 0.07  A 
ATOM     23  CE1 TYR B 159      41.974  -8.061 -12.276  1.00 40.09 LIG 0.04  A 
ATOM     24  CD1 TYR B 159      42.487  -9.252 -12.784  1.00 38.09 LIG 0.01  A 
BRANCH 22 25
ATOM     25 OH   TYR B 159      40.466  -6.218 -12.472  1.00 43.66 LIG-0.36  OA
ATOM     26 HH   TYR B 159      40.642  -6.161 -11.653  1.00 43.66 LIG 0.22  HD
ENDBRANCH 22 25
ENDBRANCH 18 19
ENDBRANCH 15 18
ENDBRANCH 13 15
ENDBRANCH 10 11
BRANCH 10 27
ATOM     27  CB  SER B 158      37.684 -11.876 -15.920  1.00 15.79 LIG 0.20  C 
BRANCH 27 28
ATOM     28 OG   SER B 158      38.818 -11.184 -16.410  1.00 17.90 LIG-0.40  OA
ATOM     29 HG   SER B 158      38.626 -10.373 -16.520  1.00 17.90 LIG 0.21  HD
ENDBRANCH 27 28
ENDBRANCH 10 27
ENDBRANCH 8 10
ENDBRANCH 5 6
BRANCH 5 30
ATOM     30  CB  THR B 157      38.592 -10.058 -10.903  1.00 18.18 LIG 0.15  C 
ATOM     31  CG2 THR B 157      39.829 -10.884 -11.211  1.00 16.96 LIG 0.04  C 
BRANCH 30 32
ATOM     32 OG1  THR B 157      38.590  -8.871 -11.707  1.00 15.90 LIG-0.39  OA
ATOM     33 HG1  THR B 157      38.176  -9.018 -12.423  1.00 15.90 LIG 0.21  HD
ENDBRANCH 30 32
ENDBRANCH 5 30
ENDBRANCH 3 5
BRANCH 1 34
ATOM     34  CA  SER B 156      35.381 -13.043  -8.750  1.00 16.58 LIG 0.20  C 
BRANCH 34 35
ATOM     35  N   SER B 156      33.993 -13.481  -8.824  1.00 15.80 LIG-0.34  N 
ATOM     36 H    SER B 156      33.716 -13.637  -9.623  1.00 15.80 LIG 0.16  HD
ATOM     37  C   PRO B 155      33.236 -13.623  -7.741  1.00 18.36 LIG 0.24  C 
ATOM     38 O    PRO B 155      33.637 -13.388  -6.600  1.00 18.57 LIG-0.27  OA
BRANCH 37 39
ATOM     39  CA  PRO B 155      31.806 -14.090  -7.982  1.00 19.30 LIG 0.18  C 
ATOM     40  CB  PRO B 155      30.783 -13.040  -7.566  1.00 17.99 LIG 0.04  C 
ATOM     41  CG  PRO B 155      30.629 -13.318  -6.101  1.00 20.29 LIG 0.02  C 
ATOM     42  CD  PRO B 155      30.544 -14.838  -6.056  1.00 20.15 LIG 0.13  C 
ATOM     43  N   PRO B 155      31.450 -15.242  -7.147  1.00 20.34 LIG-0.34  N 
ATOM     44  C   SER B 154      31.855 -16.492  -7.432  1.00 23.17 LIG 0.24  C 
ATOM     45 O    SER B 154      32.552 -16.746  -8.414  1.00 21.43 LIG-0.27  OA
BRANCH 44 46
ATOM     46  CA  SER B 154      31.415 -17.602  -6.482  1.00 26.04 LIG 0.20  C 
BRANCH 46 47
ATOM     47  N   SER B 154      31.464 -18.912  -7.123  1.00 29.08 LIG-0.34  N 
ATOM     48 H    SER B 154      32.253 -19.251  -7.177  1.00 29.08 LIG 0.16  HD
ATOM     49  C   VAL B 153      30.367 -19.510  -7.577  1.00 31.74 LIG 0.26  C 
ATOM     50 O    VAL B 153      29.248 -19.007  -7.496  1.00 31.76 LIG-0.27  OA
BRANCH 49 51
ATOM     51  CA  VAL B 153      30.560 -20.878  -8.223  1.00 34.29 LIG 0.40  C 
ATOM     52  N   VAL B 153      29.493 -21.818  -7.780  1.00 34.52 LIG 0.61  N 
BRANCH 51 53
ATOM     53  CB  VAL B 153      30.549 -20.703  -9.761  1.00 36.17 LIG 0.03  C 
ATOM     54  CG2 VAL B 153      31.689 -19.799 -10.192  1.00 38.03 LIG 0.01  C 
ATOM     55  CG1 VAL B 153      29.216 -20.128 -10.212  1.00 38.39 LIG 0.01  C 
ENDBRANCH 51 53
ENDBRANCH 49 51
ENDBRANCH 46 47
BRANCH 46 56
ATOM     56  CB  SER B 154      32.306 -17.585  -5.237  1.00 27.48 LIG 0.20  C 
BRANCH 56 57
ATOM     57 OG   SER B 154      32.803 -18.881  -4.949  1.00 30.72 LIG-0.40  OA
ATOM     58 HG   SER B 154      33.269 -18.854  -4.251  1.00 30.72 LIG 0.21  HD
ENDBRANCH 56 57
ENDBRANCH 46 56
ENDBRANCH 44 46
ENDBRANCH 37 39
ENDBRANCH 34 35
BRANCH 34 59
ATOM     59  CB  SER B 156      36.320 -14.249  -8.734  1.00 16.81 LIG 0.20  C 
BRANCH 59 60
ATOM     60 OG   SER B 156      36.352 -14.873 -10.009  1.00 16.65 LIG-0.40  OA
ATOM     61 HG   SER B 156      36.761 -14.379 -10.553  1.00 16.65 LIG 0.21  HD
ENDBRANCH 59 60
ENDBRANCH 34 59
ENDBRANCH 1 34
TORSDOF 24
ENDMDL
MODEL 10
USER: ADFR SOLUTION from run 196
USER: SCORE 15.885878 LL:  -4.114 LR: -12.757 RR:   0.000 FEB:  -5.598
USER: RMSD 4.641291
USER: SEED 195
USER: STATUS no improvement in best in 8 clusters for 5 generations
USER: GENES 26
USER: genes 0 Translation |==|  0.35612 0.64256 0.50668
USER: genes 1 Rotation |==|  0.62506 0.61907 0.39063 0.95631
USER: genes 2 Torsion [C]-N--CA-[C] |==|  0.59616
USER: genes 3 Torsion [N]-CA--C-[N] |==|  0.42544
USER: genes 4 Torsion [C]-N--CA-[C] |==|  0.76972
USER: genes 5 Torsion [N]-CA--C-[N] |==|  0.92813
USER: genes 6 Torsion [C]-N--CA-[CB] |==|  0.47696
USER: genes 7 Torsion [N]-CA--C-[O] |==|  0.43180
USER: genes 8 Torsion [N]-CA--CB-[CG] |==|  0.28403
USER: genes 9 Torsion [CA]-CB--CG-[CD2] |==|  0.74722
USER: genes 10 Torsion [CE2]-CZ--OH-[HH] |==|  0.89696
USER: genes 11 Torsion [N]-CA--CB-[OG] |==|  0.34511
USER: genes 12 Torsion [CA]-CB--OG-[HG] |==|  0.76036
USER: genes 13 Torsion [N]-CA--CB-[CG2] |==|  0.12412
USER: genes 14 Torsion [CA]-CB--OG1-[HG1] |==|  0.10509
USER: genes 15 Torsion [N]-C--CA-[N] |==|  0.54671
USER: genes 16 Torsion [C]-CA--N-[C] |==|  0.73945
USER: genes 17 Torsion [N]-C--CA-[CB] |==|  0.68414
USER: genes 18 Torsion [N]-C--CA-[N] |==|  0.85556
USER: genes 19 Torsion [C]-CA--N-[C] |==|  0.85078
USER: genes 20 Torsion [N]-C--CA-[N] |==|  0.33247
USER: genes 21 Torsion [C]-CA--CB-[CG2] |==|  0.51396
USER: genes 22 Torsion [C]-CA--CB-[OG] |==|  0.64265
USER: genes 23 Torsion [CA]-CB--OG-[HG] |==|  0.78845
USER: genes 24 Torsion [C]-CA--CB-[OG] |==|  0.76388
USER: genes 25 Torsion [CA]-CB--OG-[HG] |==|  0.02263
ROOT
ATOM      1  C   SER B 156      34.973 -13.055  -9.689  1.00 15.87 LIG 0.24  C 
ATOM      2 O    SER B 156      34.065 -12.236  -9.837  1.00 15.60 LIG-0.27  OA
ATOM      3  N   THR B 157      36.179 -12.912 -10.230  1.00 16.26 LIG-0.34  N 
ATOM      4 H    THR B 157      36.834 -13.455 -10.103  1.00 16.26 LIG 0.16  HD
ENDROOT
BRANCH 3 5
ATOM      5  CA  THR B 157      36.482 -11.791 -11.103  1.00 15.91 LIG 0.20  C 
BRANCH 5 6
ATOM      6  C   THR B 157      37.451 -12.376 -12.125  1.00 16.14 LIG 0.24  C 
ATOM      7 O    THR B 157      38.161 -13.342 -11.828  1.00 15.69 LIG-0.27  OA
ATOM      8  N   SER B 158      37.484 -11.803 -13.322  1.00 15.14 LIG-0.34  N 
ATOM      9 H    SER B 158      37.000 -11.130 -13.550  1.00 15.14 LIG 0.16  HD
BRANCH 8 10
ATOM     10  CA  SER B 158      38.377 -12.294 -14.366  1.00 18.36 LIG 0.20  C 
BRANCH 10 11
ATOM     11  C   SER B 158      39.782 -11.723 -14.198  1.00 20.96 LIG 0.24  C 
ATOM     12 O    SER B 158      40.764 -12.327 -14.634  1.00 20.92 LIG-0.27  OA
ATOM     13  N   TYR B 159      39.871 -10.557 -13.566  1.00 23.40 LIG-0.35  N 
ATOM     14 H    TYR B 159      39.193 -10.126 -13.256  1.00 23.40 LIG 0.16  HD
BRANCH 13 15
ATOM     15  CA  TYR B 159      41.157  -9.903 -13.344  1.00 28.83 LIG 0.17  C 
BRANCH 15 16
ATOM     16  C   TYR B 159      42.019 -10.708 -12.379  1.00 30.09 LIG 0.22  C 
ATOM     17 O    TYR B 159      43.256 -10.548 -12.459  1.00 33.46 LIG-0.29  OA
ENDBRANCH 15 16
BRANCH 15 18
ATOM     18  CB  TYR B 159      40.944  -8.494 -12.784  1.00 32.38 LIG 0.07  C 
BRANCH 18 19
ATOM     19  CG  TYR B 159      41.186  -8.391 -11.294  1.00 36.58 LIG-0.06  A 
ATOM     20  CD2 TYR B 159      40.145  -8.577 -10.384  1.00 38.67 LIG 0.01  A 
ATOM     21  CE2 TYR B 159      40.367  -8.494  -9.011  1.00 40.79 LIG 0.04  A 
ATOM     22  CZ  TYR B 159      41.640  -8.220  -8.539  1.00 41.05 LIG 0.07  A 
ATOM     23  CE1 TYR B 159      42.690  -8.030  -9.423  1.00 40.09 LIG 0.04  A 
ATOM     24  CD1 TYR B 159      42.458  -8.117 -10.794  1.00 38.09 LIG 0.01  A 
BRANCH 22 25
ATOM     25 OH   TYR B 159      41.865  -8.136  -7.183  1.00 43.66 LIG-0.36  OA
ATOM     26 HH   TYR B 159      41.205  -7.773  -6.811  1.00 43.66 LIG 0.22  HD
ENDBRANCH 22 25
ENDBRANCH 18 19
ENDBRANCH 15 18
ENDBRANCH 13 15
ENDBRANCH 10 11
BRANCH 10 27
ATOM     27  CB  SER B 158      37.834 -11.916 -15.745  1.00 15.79 LIG 0.20  C 
BRANCH 27 28
ATOM     28 OG   SER B 158      38.796 -11.187 -16.486  1.00 17.90 LIG-0.40  OA
ATOM     29 HG   SER B 158      38.736 -10.371 -16.297  1.00 17.90 LIG 0.21  HD
ENDBRANCH 27 28
ENDBRANCH 10 27
ENDBRANCH 8 10
ENDBRANCH 5 6
BRANCH 5 30
ATOM     30  CB  THR B 157      37.190 -10.643 -10.351  1.00 18.18 LIG 0.15  C 
ATOM     31  CG2 THR B 157      38.285 -11.186  -9.449  1.00 16.96 LIG 0.04  C 
BRANCH 30 32
ATOM     32 OG1  THR B 157      37.754  -9.727 -11.299  1.00 15.90 LIG-0.39  OA
ATOM     33 HG1  THR B 157      37.234  -9.645 -11.954  1.00 15.90 LIG 0.21  HD
ENDBRANCH 30 32
ENDBRANCH 5 30
ENDBRANCH 3 5
BRANCH 1 34
ATOM     34  CA  SER B 156      34.761 -14.303  -8.850  1.00 16.58 LIG 0.20  C 
BRANCH 34 35
ATOM     35  N   SER B 156      33.327 -14.502  -8.682  1.00 15.80 LIG-0.34  N 
ATOM     36 H    SER B 156      32.955 -14.941  -9.320  1.00 15.80 LIG 0.16  HD
ATOM     37  C   PRO B 155      32.665 -14.036  -7.626  1.00 18.36 LIG 0.24  C 
ATOM     38 O    PRO B 155      33.202 -13.397  -6.720  1.00 18.57 LIG-0.27  OA
BRANCH 37 39
ATOM     39  CA  PRO B 155      31.170 -14.325  -7.594  1.00 19.30 LIG 0.18  C 
ATOM     40  CB  PRO B 155      30.338 -13.055  -7.716  1.00 17.99 LIG 0.04  C 
ATOM     41  CG  PRO B 155      30.280 -12.583  -6.294  1.00 20.29 LIG 0.02  C 
ATOM     42  CD  PRO B 155      29.996 -13.867  -5.527  1.00 20.15 LIG 0.13  C 
ATOM     43  N   PRO B 155      30.739 -14.876  -6.304  1.00 20.34 LIG-0.34  N 
ATOM     44  C   SER B 154      30.946 -16.160  -5.964  1.00 23.17 LIG 0.24  C 
ATOM     45 O    SER B 154      31.513 -16.954  -6.715  1.00 21.43 LIG-0.27  OA
BRANCH 44 46
ATOM     46  CA  SER B 154      30.448 -16.606  -4.592  1.00 26.04 LIG 0.20  C 
BRANCH 46 47
ATOM     47  N   SER B 154      30.930 -15.727  -3.531  1.00 29.08 LIG-0.34  N 
ATOM     48 H    SER B 154      30.310 -15.407  -3.027  1.00 29.08 LIG 0.16  HD
ATOM     49  C   VAL B 153      32.223 -15.458  -3.378  1.00 31.74 LIG 0.26  C 
ATOM     50 O    VAL B 153      33.094 -15.919  -4.112  1.00 31.76 LIG-0.27  OA
BRANCH 49 51
ATOM     51  CA  VAL B 153      32.588 -14.526  -2.227  1.00 34.29 LIG 0.40  C 
ATOM     52  N   VAL B 153      33.492 -15.216  -1.265  1.00 34.52 LIG 0.61  N 
BRANCH 51 53
ATOM     53  CB  VAL B 153      33.256 -13.258  -2.812  1.00 36.17 LIG 0.03  C 
ATOM     54  CG2 VAL B 153      33.746 -12.362  -1.690  1.00 38.03 LIG 0.01  C 
ATOM     55  CG1 VAL B 153      32.272 -12.510  -3.697  1.00 38.39 LIG 0.01  C 
ENDBRANCH 51 53
ENDBRANCH 49 51
ENDBRANCH 46 47
BRANCH 46 56
ATOM     56  CB  SER B 154      28.918 -16.645  -4.597  1.00 27.48 LIG 0.20  C 
BRANCH 56 57
ATOM     57 OG   SER B 154      28.387 -15.922  -3.500  1.00 30.72 LIG-0.40  OA
ATOM     58 HG   SER B 154      28.472 -16.374  -2.798  1.00 30.72 LIG 0.21  HD
ENDBRANCH 56 57
ENDBRANCH 46 56
ENDBRANCH 44 46
ENDBRANCH 37 39
ENDBRANCH 34 35
BRANCH 34 59
ATOM     59  CB  SER B 156      35.378 -15.489  -9.593  1.00 16.81 LIG 0.20  C 
BRANCH 59 60
ATOM     60 OG   SER B 156      34.457 -16.020 -10.535  1.00 16.65 LIG-0.40  OA
ATOM     61 HG   SER B 156      33.787 -15.516 -10.588  1.00 16.65 LIG 0.21  HD
ENDBRANCH 59 60
ENDBRANCH 34 59
ENDBRANCH 1 34
TORSDOF 24
ENDMDL
MODEL 11
USER: ADFR SOLUTION from run 98
USER: SCORE 16.606448 LL:  -4.482 LR: -12.558 RR:   0.000 FEB:  -5.399
USER: RMSD 3.489873
USER: SEED 97
USER: STATUS no improvement in best in 5 clusters for 5 generations
USER: GENES 26
USER: genes 0 Translation |==|  0.36944 0.65005 0.49953
USER: genes 1 Rotation |==|  0.59501 0.54863 0.42054 0.98197
USER: genes 2 Torsion [C]-N--CA-[C] |==|  0.70885
USER: genes 3 Torsion [N]-CA--C-[N] |==|  0.42588
USER: genes 4 Torsion [C]-N--CA-[C] |==|  0.83567
USER: genes 5 Torsion [N]-CA--C-[N] |==|  0.90434
USER: genes 6 Torsion [C]-N--CA-[CB] |==|  0.43841
USER: genes 7 Torsion [N]-CA--C-[O] |==|  0.17018
USER: genes 8 Torsion [N]-CA--CB-[CG] |==|  0.99568
USER: genes 9 Torsion [CA]-CB--CG-[CD2] |==|  0.76091
USER: genes 10 Torsion [CE2]-CZ--OH-[HH] |==|  0.11855
USER: genes 11 Torsion [N]-CA--CB-[OG] |==|  0.27551
USER: genes 12 Torsion [CA]-CB--OG-[HG] |==|  0.65931
USER: genes 13 Torsion [N]-CA--CB-[CG2] |==|  0.69546
USER: genes 14 Torsion [CA]-CB--OG1-[HG1] |==|  0.78844
USER: genes 15 Torsion [N]-C--CA-[N] |==|  0.48849
USER: genes 16 Torsion [C]-CA--N-[C] |==|  0.55011
USER: genes 17 Torsion [N]-C--CA-[CB] |==|  0.85070
USER: genes 18 Torsion [N]-C--CA-[N] |==|  0.35217
USER: genes 19 Torsion [C]-CA--N-[C] |==|  0.80790
USER: genes 20 Torsion [N]-C--CA-[N] |==|  0.35223
USER: genes 21 Torsion [C]-CA--CB-[CG2] |==|  0.14463
USER: genes 22 Torsion [C]-CA--CB-[OG] |==|  0.63132
USER: genes 23 Torsion [CA]-CB--OG-[HG] |==|  0.49200
USER: genes 24 Torsion [C]-CA--CB-[OG] |==|  0.76968
USER: genes 25 Torsion [CA]-CB--OG-[HG] |==|  0.92368
ROOT
ATOM      1  C   SER B 156      35.343 -12.881  -9.839  1.00 15.87 LIG 0.24  C 
ATOM      2 O    SER B 156      34.465 -12.202 -10.374  1.00 15.60 LIG-0.27  OA
ATOM      3  N   THR B 157      36.642 -12.688 -10.046  1.00 16.26 LIG-0.34  N 
ATOM      4 H    THR B 157      37.266 -13.127  -9.650  1.00 16.26 LIG 0.16  HD
ENDROOT
BRANCH 3 5
ATOM      5  CA  THR B 157      37.110 -11.687 -10.989  1.00 15.91 LIG 0.20  C 
BRANCH 5 6
ATOM      6  C   THR B 157      37.565 -12.505 -12.194  1.00 16.14 LIG 0.24  C 
ATOM      7 O    THR B 157      37.942 -13.672 -12.047  1.00 15.69 LIG-0.27  OA
ATOM      8  N   SER B 158      37.530 -11.906 -13.378  1.00 15.14 LIG-0.34  N 
ATOM      9 H    SER B 158      37.272 -11.096 -13.503  1.00 15.14 LIG 0.16  HD
BRANCH 8 10
ATOM     10  CA  SER B 158      37.942 -12.609 -14.588  1.00 18.36 LIG 0.20  C 
BRANCH 10 11
ATOM     11  C   SER B 158      39.391 -13.078 -14.482  1.00 20.96 LIG 0.24  C 
ATOM     12 O    SER B 158      39.750 -14.136 -15.001  1.00 20.92 LIG-0.27  OA
ATOM     13  N   TYR B 159      40.217 -12.284 -13.808  1.00 23.40 LIG-0.35  N 
ATOM     14 H    TYR B 159      39.979 -11.544 -13.440  1.00 23.40 LIG 0.16  HD
BRANCH 13 15
ATOM     15  CA  TYR B 159      41.629 -12.617 -13.637  1.00 28.83 LIG 0.17  C 
BRANCH 15 16
ATOM     16  C   TYR B 159      41.819 -13.622 -12.507  1.00 30.09 LIG 0.22  C 
ATOM     17 O    TYR B 159      41.263 -14.733 -12.640  1.00 33.46 LIG-0.29  OA
ENDBRANCH 15 16
BRANCH 15 18
ATOM     18  CB  TYR B 159      42.438 -11.353 -13.337  1.00 32.38 LIG 0.07  C 
BRANCH 18 19
ATOM     19  CG  TYR B 159      41.607 -10.089 -13.328  1.00 36.58 LIG-0.06  A 
ATOM     20  CD2 TYR B 159      41.353  -9.389 -14.507  1.00 38.67 LIG 0.01  A 
ATOM     21  CE2 TYR B 159      40.577  -8.230 -14.505  1.00 40.79 LIG 0.04  A 
ATOM     22  CZ  TYR B 159      40.052  -7.762 -13.311  1.00 41.05 LIG 0.07  A 
ATOM     23  CE1 TYR B 159      40.292  -8.439 -12.126  1.00 40.09 LIG 0.04  A 
ATOM     24  CD1 TYR B 159      41.065  -9.597 -12.141  1.00 38.09 LIG 0.01  A 
BRANCH 22 25
ATOM     25 OH   TYR B 159      39.286  -6.618 -13.301  1.00 43.66 LIG-0.36  OA
ATOM     26 HH   TYR B 159      38.758  -6.629 -13.954  1.00 43.66 LIG 0.22  HD
ENDBRANCH 22 25
ENDBRANCH 18 19
ENDBRANCH 15 18
ENDBRANCH 13 15
ENDBRANCH 10 11
BRANCH 10 27
ATOM     27  CB  SER B 158      37.789 -11.696 -15.806  1.00 15.79 LIG 0.20  C 
BRANCH 27 28
ATOM     28 OG   SER B 158      39.032 -11.120 -16.167  1.00 17.90 LIG-0.40  OA
ATOM     29 HG   SER B 158      38.966 -10.282 -16.158  1.00 17.90 LIG 0.21  HD
ENDBRANCH 27 28
ENDBRANCH 10 27
ENDBRANCH 8 10
ENDBRANCH 5 6
BRANCH 5 30
ATOM     30  CB  THR B 157      38.320 -10.895 -10.444  1.00 18.18 LIG 0.15  C 
ATOM     31  CG2 THR B 157      37.923  -9.466 -10.117  1.00 16.96 LIG 0.04  C 
BRANCH 30 32
ATOM     32 OG1  THR B 157      38.821 -11.540  -9.266  1.00 15.90 LIG-0.39  OA
ATOM     33 HG1  THR B 157      38.313 -11.375  -8.618  1.00 15.90 LIG 0.21  HD
ENDBRANCH 30 32
ENDBRANCH 5 30
ENDBRANCH 3 5
BRANCH 1 34
ATOM     34  CA  SER B 156      34.978 -14.002  -8.881  1.00 16.58 LIG 0.20  C 
BRANCH 34 35
ATOM     35  N   SER B 156      33.532 -13.999  -8.704  1.00 15.80 LIG-0.34  N 
ATOM     36 H    SER B 156      33.104 -13.570  -9.314  1.00 15.80 LIG 0.16  HD
ATOM     37  C   PRO B 155      32.941 -14.610  -7.682  1.00 18.36 LIG 0.24  C 
ATOM     38 O    PRO B 155      33.562 -15.213  -6.805  1.00 18.57 LIG-0.27  OA
BRANCH 37 39
ATOM     39  CA  PRO B 155      31.421 -14.517  -7.635  1.00 19.30 LIG 0.18  C 
ATOM     40  CB  PRO B 155      30.933 -13.075  -7.703  1.00 17.99 LIG 0.04  C 
ATOM     41  CG  PRO B 155      31.006 -12.654  -6.267  1.00 20.29 LIG 0.02  C 
ATOM     42  CD  PRO B 155      30.415 -13.852  -5.536  1.00 20.15 LIG 0.13  C 
ATOM     43  N   PRO B 155      30.875 -14.987  -6.357  1.00 20.34 LIG-0.34  N 
ATOM     44  C   SER B 154      30.757 -16.292  -6.060  1.00 23.17 LIG 0.24  C 
ATOM     45 O    SER B 154      31.102 -17.176  -6.845  1.00 21.43 LIG-0.27  OA
BRANCH 44 46
ATOM     46  CA  SER B 154      30.174 -16.647  -4.695  1.00 26.04 LIG 0.20  C 
BRANCH 46 47
ATOM     47  N   SER B 154      29.049 -17.570  -4.813  1.00 29.08 LIG-0.34  N 
ATOM     48 H    SER B 154      29.207 -18.361  -4.515  1.00 29.08 LIG 0.16  HD
ATOM     49  C   VAL B 153      27.888 -17.193  -5.340  1.00 31.74 LIG 0.26  C 
ATOM     50 O    VAL B 153      27.682 -16.059  -5.766  1.00 31.76 LIG-0.27  OA
BRANCH 49 51
ATOM     51  CA  VAL B 153      26.796 -18.257  -5.400  1.00 34.29 LIG 0.40  C 
ATOM     52  N   VAL B 153      25.547 -17.756  -4.763  1.00 34.52 LIG 0.61  N 
BRANCH 51 53
ATOM     53  CB  VAL B 153      26.556 -18.635  -6.882  1.00 36.17 LIG 0.03  C 
ATOM     54  CG2 VAL B 153      27.870 -18.996  -7.548  1.00 38.03 LIG 0.01  C 
ATOM     55  CG1 VAL B 153      25.889 -17.481  -7.614  1.00 38.39 LIG 0.01  C 
ENDBRANCH 51 53
ENDBRANCH 49 51
ENDBRANCH 46 47
BRANCH 46 56
ATOM     56  CB  SER B 154      31.271 -17.255  -3.818  1.00 27.48 LIG 0.20  C 
BRANCH 56 57
ATOM     57 OG   SER B 154      30.818 -18.439  -3.185  1.00 30.72 LIG-0.40  OA
ATOM     58 HG   SER B 154      31.446 -18.778  -2.741  1.00 30.72 LIG 0.21  HD
ENDBRANCH 56 57
ENDBRANCH 46 56
ENDBRANCH 44 46
ENDBRANCH 37 39
ENDBRANCH 34 35
BRANCH 34 59
ATOM     59  CB  SER B 156      35.436 -15.324  -9.498  1.00 16.81 LIG 0.20  C 
BRANCH 59 60
ATOM     60 OG   SER B 156      34.471 -15.801 -10.425  1.00 16.65 LIG-0.40  OA
ATOM     61 HG   SER B 156      33.710 -15.518 -10.209  1.00 16.65 LIG 0.21  HD
ENDBRANCH 59 60
ENDBRANCH 34 59
ENDBRANCH 1 34
TORSDOF 24
ENDMDL
MODEL 12
USER: ADFR SOLUTION from run 1
USER: SCORE 15.646189 LL:  -4.278 LR: -12.453 RR:   0.000 FEB:  -5.293
USER: RMSD 2.312139
USER: SEED 271086
USER: STATUS 1 or 2 clusters left
USER: GENES 26
USER: genes 0 Translation |==|  0.38403 0.67994 0.49511
USER: genes 1 Rotation |==|  0.50022 0.49478 0.50807 0.99991
USER: genes 2 Torsion [C]-N--CA-[C] |==|  0.79299
USER: genes 3 Torsion [N]-CA--C-[N] |==|  0.47778
USER: genes 4 Torsion [C]-N--CA-[C] |==|  0.84104
USER: genes 5 Torsion [N]-CA--C-[N] |==|  0.93212
USER: genes 6 Torsion [C]-N--CA-[CB] |==|  0.46996
USER: genes 7 Torsion [N]-CA--C-[O] |==|  0.17269
USER: genes 8 Torsion [N]-CA--CB-[CG] |==|  0.46369
USER: genes 9 Torsion [CA]-CB--CG-[CD2] |==|  0.68176
USER: genes 10 Torsion [CE2]-CZ--OH-[HH] |==|  0.89967
USER: genes 11 Torsion [N]-CA--CB-[OG] |==|  0.14657
USER: genes 12 Torsion [CA]-CB--OG-[HG] |==|  0.69239
USER: genes 13 Torsion [N]-CA--CB-[CG2] |==|  0.16329
USER: genes 14 Torsion [CA]-CB--OG1-[HG1] |==|  0.95493
USER: genes 15 Torsion [N]-C--CA-[N] |==|  0.53188
USER: genes 16 Torsion [C]-CA--N-[C] |==|  0.58406
USER: genes 17 Torsion [N]-C--CA-[CB] |==|  0.57615
USER: genes 18 Torsion [N]-C--CA-[N] |==|  0.18019
USER: genes 19 Torsion [C]-CA--N-[C] |==|  0.62736
USER: genes 20 Torsion [N]-C--CA-[N] |==|  0.77696
USER: genes 21 Torsion [C]-CA--CB-[CG2] |==|  0.71766
USER: genes 22 Torsion [C]-CA--CB-[OG] |==|  0.66062
USER: genes 23 Torsion [CA]-CB--OG-[HG] |==|  0.66677
USER: genes 24 Torsion [C]-CA--CB-[OG] |==|  0.85622
USER: genes 25 Torsion [CA]-CB--OG-[HG] |==|  0.17063
ROOT
ATOM      1  C   SER B 156      35.748 -12.186  -9.932  1.00 15.87 LIG 0.24  C 
ATOM      2 O    SER B 156      34.896 -12.098 -10.818  1.00 15.60 LIG-0.27  OA
ATOM      3  N   THR B 157      36.939 -11.602 -10.006  1.00 16.26 LIG-0.34  N 
ATOM      4 H    THR B 157      37.528 -11.621  -9.380  1.00 16.26 LIG 0.16  HD
ENDROOT
BRANCH 3 5
ATOM      5  CA  THR B 157      37.341 -10.865 -11.192  1.00 15.91 LIG 0.20  C 
BRANCH 5 6
ATOM      6  C   THR B 157      37.645 -11.956 -12.214  1.00 16.14 LIG 0.24  C 
ATOM      7 O    THR B 157      37.660 -13.142 -11.871  1.00 15.69 LIG-0.27  OA
ATOM      8  N   SER B 158      37.884 -11.566 -13.460  1.00 15.14 LIG-0.34  N 
ATOM      9 H    SER B 158      37.879 -10.747 -13.720  1.00 15.14 LIG 0.16  HD
BRANCH 8 10
ATOM     10  CA  SER B 158      38.182 -12.538 -14.507  1.00 18.36 LIG 0.20  C 
BRANCH 10 11
ATOM     11  C   SER B 158      39.393 -13.388 -14.136  1.00 20.96 LIG 0.24  C 
ATOM     12 O    SER B 158      39.547 -14.511 -14.621  1.00 20.92 LIG-0.27  OA
ATOM     13  N   TYR B 159      40.250 -12.846 -13.277  1.00 23.40 LIG-0.35  N 
ATOM     14 H    TYR B 159      40.154 -12.064 -12.931  1.00 23.40 LIG 0.16  HD
BRANCH 13 15
ATOM     15  CA  TYR B 159      41.451 -13.555 -12.845  1.00 28.83 LIG 0.17  C 
BRANCH 15 16
ATOM     16  C   TYR B 159      41.094 -14.742 -11.957  1.00 30.09 LIG 0.22  C 
ATOM     17 O    TYR B 159      40.402 -15.645 -12.475  1.00 33.46 LIG-0.29  OA
ENDBRANCH 15 16
BRANCH 15 18
ATOM     18  CB  TYR B 159      42.378 -12.607 -12.079  1.00 32.38 LIG 0.07  C 
BRANCH 18 19
ATOM     19  CG  TYR B 159      43.485 -13.315 -11.330  1.00 36.58 LIG-0.06  A 
ATOM     20  CD2 TYR B 159      43.537 -13.291  -9.936  1.00 38.67 LIG 0.01  A 
ATOM     21  CE2 TYR B 159      44.549 -13.952  -9.242  1.00 40.79 LIG 0.04  A 
ATOM     22  CZ  TYR B 159      45.523 -14.643  -9.946  1.00 41.05 LIG 0.07  A 
ATOM     23  CE1 TYR B 159      45.494 -14.681 -11.331  1.00 40.09 LIG 0.04  A 
ATOM     24  CD1 TYR B 159      44.476 -14.019 -12.014  1.00 38.09 LIG 0.01  A 
BRANCH 22 25
ATOM     25 OH   TYR B 159      46.526 -15.298  -9.266  1.00 43.66 LIG-0.36  OA
ATOM     26 HH   TYR B 159      46.741 -14.852  -8.588  1.00 43.66 LIG 0.22  HD
ENDBRANCH 22 25
ENDBRANCH 18 19
ENDBRANCH 15 18
ENDBRANCH 13 15
ENDBRANCH 10 11
BRANCH 10 27
ATOM     27  CB  SER B 158      38.447 -11.820 -15.832  1.00 15.79 LIG 0.20  C 
BRANCH 27 28
ATOM     28 OG   SER B 158      39.437 -10.819 -15.676  1.00 17.90 LIG-0.40  OA
ATOM     29 HG   SER B 158      39.084 -10.061 -15.754  1.00 17.90 LIG 0.21  HD
ENDBRANCH 27 28
ENDBRANCH 10 27
ENDBRANCH 8 10
ENDBRANCH 5 6
BRANCH 5 30
ATOM     30  CB  THR B 157      38.623 -10.037 -10.957  1.00 18.18 LIG 0.15  C 
ATOM     31  CG2 THR B 157      39.774 -10.936 -10.538  1.00 16.96 LIG 0.04  C 
BRANCH 30 32
ATOM     32 OG1  THR B 157      38.968  -9.337 -12.160  1.00 15.90 LIG-0.39  OA
ATOM     33 HG1  THR B 157      38.553  -9.674 -12.809  1.00 15.90 LIG 0.21  HD
ENDBRANCH 30 32
ENDBRANCH 5 30
ENDBRANCH 3 5
BRANCH 1 34
ATOM     34  CA  SER B 156      35.472 -12.983  -8.669  1.00 16.58 LIG 0.20  C 
BRANCH 34 35
ATOM     35  N   SER B 156      34.259 -13.764  -8.877  1.00 15.80 LIG-0.34  N 
ATOM     36 H    SER B 156      34.127 -13.996  -9.694  1.00 15.80 LIG 0.16  HD
ATOM     37  C   PRO B 155      33.439 -14.081  -7.880  1.00 18.36 LIG 0.24  C 
ATOM     38 O    PRO B 155      33.630 -13.735  -6.713  1.00 18.57 LIG-0.27  OA
BRANCH 37 39
ATOM     39  CA  PRO B 155      32.213 -14.901  -8.257  1.00 19.30 LIG 0.18  C 
ATOM     40  CB  PRO B 155      31.049 -14.665  -7.303  1.00 17.99 LIG 0.04  C 
ATOM     41  CG  PRO B 155      31.355 -15.627  -6.195  1.00 20.29 LIG 0.02  C 
ATOM     42  CD  PRO B 155      31.761 -16.887  -6.948  1.00 20.15 LIG 0.13  C 
ATOM     43  N   PRO B 155      32.450 -16.344  -8.133  1.00 20.34 LIG-0.34  N 
ATOM     44  C   SER B 154      33.141 -17.042  -9.050  1.00 23.17 LIG 0.24  C 
ATOM     45 O    SER B 154      33.619 -16.512 -10.053  1.00 21.43 LIG-0.27  OA
BRANCH 44 46
ATOM     46  CA  SER B 154      33.317 -18.537  -8.801  1.00 26.04 LIG 0.20  C 
BRANCH 46 47
ATOM     47  N   SER B 154      32.040 -19.244  -8.836  1.00 29.08 LIG-0.34  N 
ATOM     48 H    SER B 154      31.534 -19.029  -9.497  1.00 29.08 LIG 0.16  HD
ATOM     49  C   VAL B 153      31.711 -20.139  -7.910  1.00 31.74 LIG 0.26  C 
ATOM     50 O    VAL B 153      32.444 -20.428  -6.967  1.00 31.76 LIG-0.27  OA
BRANCH 49 51
ATOM     51  CA  VAL B 153      30.347 -20.805  -8.067  1.00 34.29 LIG 0.40  C 
ATOM     52  N   VAL B 153      29.270 -19.911  -7.558  1.00 34.52 LIG 0.61  N 
BRANCH 51 53
ATOM     53  CB  VAL B 153      30.134 -21.144  -9.562  1.00 36.17 LIG 0.03  C 
ATOM     54  CG2 VAL B 153      29.217 -20.120 -10.204  1.00 38.03 LIG 0.01  C 
ATOM     55  CG1 VAL B 153      29.549 -22.541  -9.702  1.00 38.39 LIG 0.01  C 
ENDBRANCH 51 53
ENDBRANCH 49 51
ENDBRANCH 46 47
BRANCH 46 56
ATOM     56  CB  SER B 154      34.274 -19.116  -9.847  1.00 27.48 LIG 0.20  C 
BRANCH 56 57
ATOM     57 OG   SER B 154      33.656 -20.160 -10.579  1.00 30.72 LIG-0.40  OA
ATOM     58 HG   SER B 154      34.091 -20.870 -10.475  1.00 30.72 LIG 0.21  HD
ENDBRANCH 56 57
ENDBRANCH 46 56
ENDBRANCH 44 46
ENDBRANCH 37 39
ENDBRANCH 34 35
BRANCH 34 59
ATOM     59  CB  SER B 156      36.664 -13.909  -8.419  1.00 16.81 LIG 0.20  C 
BRANCH 59 60
ATOM     60 OG   SER B 156      36.961 -14.664  -9.585  1.00 16.65 LIG-0.40  OA
ATOM     61 HG   SER B 156      37.167 -14.143 -10.211  1.00 16.65 LIG 0.21  HD
ENDBRANCH 59 60
ENDBRANCH 34 59
ENDBRANCH 1 34
TORSDOF 24
ENDMDL
MODEL 13
USER: ADFR SOLUTION from run 129
USER: SCORE 17.022180 LL:  -5.293 LR: -12.352 RR:   0.000 FEB:  -5.193
USER: RMSD 3.961205
USER: SEED 128
USER: STATUS no improvement in best in 4 clusters for 5 generations
USER: GENES 26
USER: genes 0 Translation |==|  0.38001 0.67742 0.49362
USER: genes 1 Rotation |==|  0.48528 0.47980 0.54035 0.99774
USER: genes 2 Torsion [C]-N--CA-[C] |==|  0.80347
USER: genes 3 Torsion [N]-CA--C-[N] |==|  0.45494
USER: genes 4 Torsion [C]-N--CA-[C] |==|  0.81667
USER: genes 5 Torsion [N]-CA--C-[N] |==|  0.92682
USER: genes 6 Torsion [C]-N--CA-[CB] |==|  0.36596
USER: genes 7 Torsion [N]-CA--C-[O] |==|  0.01488
USER: genes 8 Torsion [N]-CA--CB-[CG] |==|  0.11763
USER: genes 9 Torsion [CA]-CB--CG-[CD2] |==|  0.73687
USER: genes 10 Torsion [CE2]-CZ--OH-[HH] |==|  0.49727
USER: genes 11 Torsion [N]-CA--CB-[OG] |==|  0.21934
USER: genes 12 Torsion [CA]-CB--OG-[HG] |==|  0.75308
USER: genes 13 Torsion [N]-CA--CB-[CG2] |==|  0.07562
USER: genes 14 Torsion [CA]-CB--OG1-[HG1] |==|  0.13547
USER: genes 15 Torsion [N]-C--CA-[N] |==|  0.52209
USER: genes 16 Torsion [C]-CA--N-[C] |==|  0.56191
USER: genes 17 Torsion [N]-C--CA-[CB] |==|  0.56571
USER: genes 18 Torsion [N]-C--CA-[N] |==|  0.86111
USER: genes 19 Torsion [C]-CA--N-[C] |==|  0.82951
USER: genes 20 Torsion [N]-C--CA-[N] |==|  0.32732
USER: genes 21 Torsion [C]-CA--CB-[CG2] |==|  0.52251
USER: genes 22 Torsion [C]-CA--CB-[OG] |==|  0.23096
USER: genes 23 Torsion [CA]-CB--OG-[HG] |==|  0.49978
USER: genes 24 Torsion [C]-CA--CB-[OG] |==|  0.84166
USER: genes 25 Torsion [CA]-CB--OG-[HG] |==|  0.18682
ROOT
ATOM      1  C   SER B 156      35.636 -12.245  -9.963  1.00 15.87 LIG 0.24  C 
ATOM      2 O    SER B 156      34.839 -12.318 -10.900  1.00 15.60 LIG-0.27  OA
ATOM      3  N   THR B 157      36.747 -11.515 -10.007  1.00 16.26 LIG-0.34  N 
ATOM      4 H    THR B 157      37.292 -11.423  -9.348  1.00 16.26 LIG 0.16  HD
ENDROOT
BRANCH 3 5
ATOM      5  CA  THR B 157      37.127 -10.800 -11.213  1.00 15.91 LIG 0.20  C 
BRANCH 5 6
ATOM      6  C   THR B 157      37.542 -11.907 -12.178  1.00 16.14 LIG 0.24  C 
ATOM      7 O    THR B 157      37.782 -13.042 -11.756  1.00 15.69 LIG-0.27  OA
ATOM      8  N   SER B 158      37.625 -11.587 -13.463  1.00 15.14 LIG-0.34  N 
ATOM      9 H    SER B 158      37.464 -10.803 -13.778  1.00 15.14 LIG 0.16  HD
BRANCH 8 10
ATOM     10  CA  SER B 158      38.011 -12.579 -14.461  1.00 18.36 LIG 0.20  C 
BRANCH 10 11
ATOM     11  C   SER B 158      39.455 -13.028 -14.257  1.00 20.96 LIG 0.24  C 
ATOM     12 O    SER B 158      39.828 -14.140 -14.633  1.00 20.92 LIG-0.27  OA
ATOM     13  N   TYR B 159      40.262 -12.156 -13.661  1.00 23.40 LIG-0.35  N 
ATOM     14 H    TYR B 159      40.014 -11.377 -13.392  1.00 23.40 LIG 0.16  HD
BRANCH 13 15
ATOM     15  CA  TYR B 159      41.668 -12.462 -13.411  1.00 28.83 LIG 0.17  C 
BRANCH 15 16
ATOM     16  C   TYR B 159      41.912 -12.729 -11.930  1.00 30.09 LIG 0.22  C 
ATOM     17 O    TYR B 159      40.906 -12.754 -11.188  1.00 33.46 LIG-0.29  OA
ENDBRANCH 15 16
BRANCH 15 18
ATOM     18  CB  TYR B 159      42.553 -11.301 -13.872  1.00 32.38 LIG 0.07  C 
BRANCH 18 19
ATOM     19  CG  TYR B 159      42.004  -9.939 -13.509  1.00 36.58 LIG-0.06  A 
ATOM     20  CD2 TYR B 159      41.232  -9.213 -14.415  1.00 38.67 LIG 0.01  A 
ATOM     21  CE2 TYR B 159      40.715  -7.962 -14.081  1.00 40.79 LIG 0.04  A 
ATOM     22  CZ  TYR B 159      40.973  -7.429 -12.828  1.00 41.05 LIG 0.07  A 
ATOM     23  CE1 TYR B 159      41.739  -8.130 -11.911  1.00 40.09 LIG 0.04  A 
ATOM     24  CD1 TYR B 159      42.248  -9.380 -12.256  1.00 38.09 LIG 0.01  A 
BRANCH 22 25
ATOM     25 OH   TYR B 159      40.466  -6.194 -12.492  1.00 43.66 LIG-0.36  OA
ATOM     26 HH   TYR B 159      40.689  -6.004 -11.704  1.00 43.66 LIG 0.22  HD
ENDBRANCH 22 25
ENDBRANCH 18 19
ENDBRANCH 15 18
ENDBRANCH 13 15
ENDBRANCH 10 11
BRANCH 10 27
ATOM     27  CB  SER B 158      37.850 -12.001 -15.868  1.00 15.79 LIG 0.20  C 
BRANCH 27 28
ATOM     28 OG   SER B 158      38.938 -11.156 -16.196  1.00 17.90 LIG-0.40  OA
ATOM     29 HG   SER B 158      38.768 -10.371 -15.948  1.00 17.90 LIG 0.21  HD
ENDBRANCH 27 28
ENDBRANCH 10 27
ENDBRANCH 8 10
ENDBRANCH 5 6
BRANCH 5 30
ATOM     30  CB  THR B 157      38.337  -9.869 -10.979  1.00 18.18 LIG 0.15  C 
ATOM     31  CG2 THR B 157      39.207 -10.391  -9.848  1.00 16.96 LIG 0.04  C 
BRANCH 30 32
ATOM     32 OG1  THR B 157      39.111  -9.781 -12.183  1.00 15.90 LIG-0.39  OA
ATOM     33 HG1  THR B 157      38.603  -9.619 -12.832  1.00 15.90 LIG 0.21  HD
ENDBRANCH 30 32
ENDBRANCH 5 30
ENDBRANCH 3 5
BRANCH 1 34
ATOM     34  CA  SER B 156      35.382 -12.999  -8.670  1.00 16.58 LIG 0.20  C 
BRANCH 34 35
ATOM     35  N   SER B 156      34.240 -13.881  -8.872  1.00 15.80 LIG-0.34  N 
ATOM     36 H    SER B 156      34.087 -14.075  -9.695  1.00 15.80 LIG 0.16  HD
ATOM     37  C   PRO B 155      33.507 -14.336  -7.860  1.00 18.36 LIG 0.24  C 
ATOM     38 O    PRO B 155      33.725 -14.044  -6.683  1.00 18.57 LIG-0.27  OA
BRANCH 37 39
ATOM     39  CA  PRO B 155      32.346 -15.248  -8.233  1.00 19.30 LIG 0.18  C 
ATOM     40  CB  PRO B 155      31.257 -15.255  -7.167  1.00 17.99 LIG 0.04  C 
ATOM     41  CG  PRO B 155      31.766 -16.290  -6.209  1.00 20.29 LIG 0.02  C 
ATOM     42  CD  PRO B 155      32.233 -17.404  -7.136  1.00 20.15 LIG 0.13  C 
ATOM     43  N   PRO B 155      32.747 -16.658  -8.300  1.00 20.34 LIG-0.34  N 
ATOM     44  C   SER B 154      33.420 -17.166  -9.346  1.00 23.17 LIG 0.24  C 
ATOM     45 O    SER B 154      33.743 -16.478 -10.315  1.00 21.43 LIG-0.27  OA
BRANCH 44 46
ATOM     46  CA  SER B 154      33.777 -18.649  -9.292  1.00 26.04 LIG 0.20  C 
BRANCH 46 47
ATOM     47  N   SER B 154      34.416 -19.004  -8.028  1.00 29.08 LIG-0.34  N 
ATOM     48 H    SER B 154      33.984 -19.585  -7.563  1.00 29.08 LIG 0.16  HD
ATOM     49  C   VAL B 153      35.569 -18.461  -7.651  1.00 31.74 LIG 0.26  C 
ATOM     50 O    VAL B 153      36.169 -17.628  -8.326  1.00 31.76 LIG-0.27  OA
BRANCH 49 51
ATOM     51  CA  VAL B 153      36.127 -18.923  -6.309  1.00 34.29 LIG 0.40  C 
ATOM     52  N   VAL B 153      37.444 -19.593  -6.496  1.00 34.52 LIG 0.61  N 
BRANCH 51 53
ATOM     53  CB  VAL B 153      36.253 -17.693  -5.376  1.00 36.17 LIG 0.03  C 
ATOM     54  CG2 VAL B 153      36.988 -18.075  -4.106  1.00 38.03 LIG 0.01  C 
ATOM     55  CG1 VAL B 153      34.873 -17.145  -5.048  1.00 38.39 LIG 0.01  C 
ENDBRANCH 51 53
ENDBRANCH 49 51
ENDBRANCH 46 47
BRANCH 46 56
ATOM     56  CB  SER B 154      32.510 -19.483  -9.500  1.00 27.48 LIG 0.20  C 
BRANCH 56 57
ATOM     57 OG   SER B 154      32.215 -19.624 -10.879  1.00 30.72 LIG-0.40  OA
ATOM     58 HG   SER B 154      31.519 -20.084 -10.971  1.00 30.72 LIG 0.21  HD
ENDBRANCH 56 57
ENDBRANCH 46 56
ENDBRANCH 44 46
ENDBRANCH 37 39
ENDBRANCH 34 35
BRANCH 34 59
ATOM     59  CB  SER B 156      36.632 -13.816  -8.341  1.00 16.81 LIG 0.20  C 
BRANCH 59 60
ATOM     60 OG   SER B 156      36.953 -14.690  -9.413  1.00 16.65 LIG-0.40  OA
ATOM     61 HG   SER B 156      37.193 -14.239 -10.080  1.00 16.65 LIG 0.21  HD
ENDBRANCH 59 60
ENDBRANCH 34 59
ENDBRANCH 1 34
TORSDOF 24
ENDMDL
MODEL 14
USER: ADFR SOLUTION from run 86
USER: SCORE 16.965191 LL:  -5.277 LR: -12.190 RR:   0.000 FEB:  -5.031
USER: RMSD 5.508505
USER: SEED 85
USER: STATUS searching
USER: GENES 26
USER: genes 0 Translation |==|  0.37917 0.68469 0.49051
USER: genes 1 Rotation |==|  0.46663 0.46366 0.55252 0.99478
USER: genes 2 Torsion [C]-N--CA-[C] |==|  0.78980
USER: genes 3 Torsion [N]-CA--C-[N] |==|  0.86438
USER: genes 4 Torsion [C]-N--CA-[C] |==|  0.74788
USER: genes 5 Torsion [N]-CA--C-[N] |==|  0.00421
USER: genes 6 Torsion [C]-N--CA-[CB] |==|  0.24019
USER: genes 7 Torsion [N]-CA--C-[O] |==|  0.52046
USER: genes 8 Torsion [N]-CA--CB-[CG] |==|  0.62729
USER: genes 9 Torsion [CA]-CB--CG-[CD2] |==|  0.72358
USER: genes 10 Torsion [CE2]-CZ--OH-[HH] |==|  0.15702
USER: genes 11 Torsion [N]-CA--CB-[OG] |==|  0.02124
USER: genes 12 Torsion [CA]-CB--OG-[HG] |==|  0.88344
USER: genes 13 Torsion [N]-CA--CB-[CG2] |==|  0.06043
USER: genes 14 Torsion [CA]-CB--OG1-[HG1] |==|  0.12526
USER: genes 15 Torsion [N]-C--CA-[N] |==|  0.47184
USER: genes 16 Torsion [C]-CA--N-[C] |==|  0.55975
USER: genes 17 Torsion [N]-C--CA-[CB] |==|  0.68950
USER: genes 18 Torsion [N]-C--CA-[N] |==|  0.40733
USER: genes 19 Torsion [C]-CA--N-[C] |==|  0.73894
USER: genes 20 Torsion [N]-C--CA-[N] |==|  0.37902
USER: genes 21 Torsion [C]-CA--CB-[CG2] |==|  0.15585
USER: genes 22 Torsion [C]-CA--CB-[OG] |==|  0.66926
USER: genes 23 Torsion [CA]-CB--OG-[HG] |==|  0.48700
USER: genes 24 Torsion [C]-CA--CB-[OG] |==|  0.45396
USER: genes 25 Torsion [CA]-CB--OG-[HG] |==|  0.04031
ROOT
ATOM      1  C   SER B 156      35.613 -12.076 -10.028  1.00 15.87 LIG 0.24  C 
ATOM      2 O    SER B 156      34.889 -12.255 -11.009  1.00 15.60 LIG-0.27  OA
ATOM      3  N   THR B 157      36.689 -11.296 -10.050  1.00 16.26 LIG-0.34  N 
ATOM      4 H    THR B 157      37.181 -11.130  -9.364  1.00 16.26 LIG 0.16  HD
ENDROOT
BRANCH 3 5
ATOM      5  CA  THR B 157      37.122 -10.648 -11.276  1.00 15.91 LIG 0.20  C 
BRANCH 5 6
ATOM      6  C   THR B 157      37.767 -11.775 -12.076  1.00 16.14 LIG 0.24  C 
ATOM      7 O    THR B 157      37.464 -11.949 -13.261  1.00 15.69 LIG-0.27  OA
ATOM      8  N   SER B 158      38.651 -12.535 -11.443  1.00 15.14 LIG-0.34  N 
ATOM      9 H    SER B 158      38.877 -12.432 -10.619  1.00 15.14 LIG 0.16  HD
BRANCH 8 10
ATOM     10  CA  SER B 158      39.323 -13.635 -12.126  1.00 18.36 LIG 0.20  C 
BRANCH 10 11
ATOM     11  C   SER B 158      38.540 -14.936 -11.970  1.00 20.96 LIG 0.24  C 
ATOM     12 O    SER B 158      38.963 -15.987 -12.454  1.00 20.92 LIG-0.27  OA
ATOM     13  N   TYR B 159      37.400 -14.857 -11.292  1.00 23.40 LIG-0.35  N 
ATOM     14 H    TYR B 159      37.093 -14.129 -10.950  1.00 23.40 LIG 0.16  HD
BRANCH 13 15
ATOM     15  CA  TYR B 159      36.559 -16.030 -11.069  1.00 28.83 LIG 0.17  C 
BRANCH 15 16
ATOM     16  C   TYR B 159      35.096 -15.631 -10.915  1.00 30.09 LIG 0.22  C 
ATOM     17 O    TYR B 159      34.298 -16.532 -10.579  1.00 33.46 LIG-0.29  OA
ENDBRANCH 15 16
BRANCH 15 18
ATOM     18  CB  TYR B 159      37.018 -16.779  -9.815  1.00 32.38 LIG 0.07  C 
BRANCH 18 19
ATOM     19  CG  TYR B 159      37.118 -18.277 -10.006  1.00 36.58 LIG-0.06  A 
ATOM     20  CD2 TYR B 159      36.101 -19.125  -9.569  1.00 38.67 LIG 0.01  A 
ATOM     21  CE2 TYR B 159      36.185 -20.504  -9.753  1.00 40.79 LIG 0.04  A 
ATOM     22  CZ  TYR B 159      37.297 -21.044 -10.379  1.00 41.05 LIG 0.07  A 
ATOM     23  CE1 TYR B 159      38.322 -20.222 -10.821  1.00 40.09 LIG 0.04  A 
ATOM     24  CD1 TYR B 159      38.226 -18.845 -10.634  1.00 38.09 LIG 0.01  A 
BRANCH 22 25
ATOM     25 OH   TYR B 159      37.386 -22.406 -10.563  1.00 43.66 LIG-0.36  OA
ATOM     26 HH   TYR B 159      36.716 -22.675 -10.993  1.00 43.66 LIG 0.22  HD
ENDBRANCH 22 25
ENDBRANCH 18 19
ENDBRANCH 15 18
ENDBRANCH 13 15
ENDBRANCH 10 11
BRANCH 10 27
ATOM     27  CB  SER B 158      40.735 -13.819 -11.567  1.00 15.79 LIG 0.20  C 
BRANCH 27 28
ATOM     28 OG   SER B 158      40.942 -12.998 -10.432  1.00 17.90 LIG-0.40  OA
ATOM     29 HG   SER B 158      40.608 -12.239 -10.570  1.00 17.90 LIG 0.21  HD
ENDBRANCH 27 28
ENDBRANCH 10 27
ENDBRANCH 8 10
ENDBRANCH 5 6
BRANCH 5 30
ATOM     30  CB  THR B 157      38.182  -9.556 -11.015  1.00 18.18 LIG 0.15  C 
ATOM     31  CG2 THR B 157      38.878  -9.791  -9.685  1.00 16.96 LIG 0.04  C 
BRANCH 30 32
ATOM     32 OG1  THR B 157      39.148  -9.565 -12.075  1.00 15.90 LIG-0.39  OA
ATOM     33 HG1  THR B 157      38.752  -9.617 -12.814  1.00 15.90 LIG 0.21  HD
ENDBRANCH 30 32
ENDBRANCH 5 30
ENDBRANCH 3 5
BRANCH 1 34
ATOM     34  CA  SER B 156      35.303 -12.750  -8.704  1.00 16.58 LIG 0.20  C 
BRANCH 34 35
ATOM     35  N   SER B 156      33.981 -13.356  -8.798  1.00 15.80 LIG-0.34  N 
ATOM     36 H    SER B 156      33.719 -13.505  -9.603  1.00 15.80 LIG 0.16  HD
ATOM     37  C   PRO B 155      33.256 -13.647  -7.722  1.00 18.36 LIG 0.24  C 
ATOM     38 O    PRO B 155      33.633 -13.421  -6.572  1.00 18.57 LIG-0.27  OA
BRANCH 37 39
ATOM     39  CA  PRO B 155      31.894 -14.278  -7.985  1.00 19.30 LIG 0.18  C 
ATOM     40  CB  PRO B 155      30.749 -13.345  -7.612  1.00 17.99 LIG 0.04  C 
ATOM     41  CG  PRO B 155      30.593 -13.614  -6.146  1.00 20.29 LIG 0.02  C 
ATOM     42  CD  PRO B 155      30.680 -15.132  -6.073  1.00 20.15 LIG 0.13  C 
ATOM     43  N   PRO B 155      31.652 -15.450  -7.136  1.00 20.34 LIG-0.34  N 
ATOM     44  C   SER B 154      32.203 -16.649  -7.388  1.00 23.17 LIG 0.24  C 
ATOM     45 O    SER B 154      32.948 -16.838  -8.350  1.00 21.43 LIG-0.27  OA
BRANCH 44 46
ATOM     46  CA  SER B 154      31.870 -17.786  -6.426  1.00 26.04 LIG 0.20  C 
BRANCH 46 47
ATOM     47  N   SER B 154      31.813 -19.073  -7.111  1.00 29.08 LIG-0.34  N 
ATOM     48 H    SER B 154      32.573 -19.468  -7.187  1.00 29.08 LIG 0.16  HD
ATOM     49  C   VAL B 153      30.668 -19.571  -7.570  1.00 31.74 LIG 0.26  C 
ATOM     50 O    VAL B 153      29.592 -18.989  -7.457  1.00 31.76 LIG-0.27  OA
BRANCH 49 51
ATOM     51  CA  VAL B 153      30.751 -20.927  -8.264  1.00 34.29 LIG 0.40  C 
ATOM     52  N   VAL B 153      29.635 -21.807  -7.820  1.00 34.52 LIG 0.61  N 
BRANCH 51 53
ATOM     53  CB  VAL B 153      30.711 -20.701  -9.795  1.00 36.17 LIG 0.03  C 
ATOM     54  CG2 VAL B 153      31.824 -19.760 -10.212  1.00 38.03 LIG 0.01  C 
ATOM     55  CG1 VAL B 153      29.359 -20.139 -10.204  1.00 38.39 LIG 0.01  C 
ENDBRANCH 51 53
ENDBRANCH 49 51
ENDBRANCH 46 47
BRANCH 46 56
ATOM     56  CB  SER B 154      32.914 -17.824  -5.307  1.00 27.48 LIG 0.20  C 
BRANCH 56 57
ATOM     57 OG   SER B 154      33.606 -19.061  -5.300  1.00 30.72 LIG-0.40  OA
ATOM     58 HG   SER B 154      34.216 -19.038  -4.723  1.00 30.72 LIG 0.21  HD
ENDBRANCH 56 57
ENDBRANCH 46 56
ENDBRANCH 44 46
ENDBRANCH 37 39
ENDBRANCH 34 35
BRANCH 34 59
ATOM     59  CB  SER B 156      36.363 -13.823  -8.455  1.00 16.81 LIG 0.20  C 
BRANCH 59 60
ATOM     60 OG   SER B 156      36.360 -14.220  -7.091  1.00 16.65 LIG-0.40  OA
ATOM     61 HG   SER B 156      35.658 -13.945  -6.721  1.00 16.65 LIG 0.21  HD
ENDBRANCH 59 60
ENDBRANCH 34 59
ENDBRANCH 1 34
TORSDOF 24
ENDMDL
MODEL 15
USER: ADFR SOLUTION from run 174
USER: SCORE 16.050957 LL:  -4.510 LR: -12.089 RR:   0.000 FEB:  -4.930
USER: RMSD 2.911840
USER: SEED 173
USER: STATUS searching
USER: GENES 26
USER: genes 0 Translation |==|  0.37955 0.68687 0.48868
USER: genes 1 Rotation |==|  0.48179 0.47315 0.51325 0.99877
USER: genes 2 Torsion [C]-N--CA-[C] |==|  0.80131
USER: genes 3 Torsion [N]-CA--C-[N] |==|  0.46660
USER: genes 4 Torsion [C]-N--CA-[C] |==|  0.85556
USER: genes 5 Torsion [N]-CA--C-[N] |==|  0.92283
USER: genes 6 Torsion [C]-N--CA-[CB] |==|  0.50913
USER: genes 7 Torsion [N]-CA--C-[O] |==|  0.25747
USER: genes 8 Torsion [N]-CA--CB-[CG] |==|  0.16006
USER: genes 9 Torsion [CA]-CB--CG-[CD2] |==|  0.58456
USER: genes 10 Torsion [CE2]-CZ--OH-[HH] |==|  0.07002
USER: genes 11 Torsion [N]-CA--CB-[OG] |==|  0.13181
USER: genes 12 Torsion [CA]-CB--OG-[HG] |==|  0.75087
USER: genes 13 Torsion [N]-CA--CB-[CG2] |==|  0.44395
USER: genes 14 Torsion [CA]-CB--OG1-[HG1] |==|  0.92291
USER: genes 15 Torsion [N]-C--CA-[N] |==|  0.48585
USER: genes 16 Torsion [C]-CA--N-[C] |==|  0.55884
USER: genes 17 Torsion [N]-C--CA-[CB] |==|  0.71337
USER: genes 18 Torsion [N]-C--CA-[N] |==|  0.44160
USER: genes 19 Torsion [C]-CA--N-[C] |==|  0.73002
USER: genes 20 Torsion [N]-C--CA-[N] |==|  0.33001
USER: genes 21 Torsion [C]-CA--CB-[CG2] |==|  0.51070
USER: genes 22 Torsion [C]-CA--CB-[OG] |==|  0.64230
USER: genes 23 Torsion [CA]-CB--OG-[HG] |==|  0.45570
USER: genes 24 Torsion [C]-CA--CB-[OG] |==|  0.86671
USER: genes 25 Torsion [CA]-CB--OG-[HG] |==|  0.18719
ROOT
ATOM      1  C   SER B 156      35.624 -12.025 -10.067  1.00 15.87 LIG 0.24  C 
ATOM      2 O    SER B 156      34.852 -12.021 -11.027  1.00 15.60 LIG-0.27  OA
ATOM      3  N   THR B 157      36.807 -11.420 -10.080  1.00 16.26 LIG-0.34  N 
ATOM      4 H    THR B 157      37.339 -11.381  -9.405  1.00 16.26 LIG 0.16  HD
ENDROOT
BRANCH 3 5
ATOM      5  CA  THR B 157      37.299 -10.761 -11.277  1.00 15.91 LIG 0.20  C 
BRANCH 5 6
ATOM      6  C   THR B 157      37.639 -11.915 -12.216  1.00 16.14 LIG 0.24  C 
ATOM      7 O    THR B 157      37.676 -13.073 -11.789  1.00 15.69 LIG-0.27  OA
ATOM      8  N   SER B 158      37.884 -11.609 -13.484  1.00 15.14 LIG-0.34  N 
ATOM      9 H    SER B 158      37.865 -10.811 -13.802  1.00 15.14 LIG 0.16  HD
BRANCH 8 10
ATOM     10  CA  SER B 158      38.215 -12.646 -14.456  1.00 18.36 LIG 0.20  C 
BRANCH 10 11
ATOM     11  C   SER B 158      39.359 -13.522 -13.954  1.00 20.96 LIG 0.24  C 
ATOM     12 O    SER B 158      39.464 -14.693 -14.322  1.00 20.92 LIG-0.27  OA
ATOM     13  N   TYR B 159      40.214 -12.947 -13.114  1.00 23.40 LIG-0.35  N 
ATOM     14 H    TYR B 159      40.151 -12.131 -12.848  1.00 23.40 LIG 0.16  HD
BRANCH 13 15
ATOM     15  CA  TYR B 159      41.354 -13.676 -12.563  1.00 28.83 LIG 0.17  C 
BRANCH 15 16
ATOM     16  C   TYR B 159      40.899 -14.953 -11.867  1.00 30.09 LIG 0.22  C 
ATOM     17 O    TYR B 159      40.885 -15.997 -12.554  1.00 33.46 LIG-0.29  OA
ENDBRANCH 15 16
BRANCH 15 18
ATOM     18  CB  TYR B 159      42.114 -12.796 -11.569  1.00 32.38 LIG 0.07  C 
BRANCH 18 19
ATOM     19  CG  TYR B 159      41.260 -12.294 -10.426  1.00 36.58 LIG-0.06  A 
ATOM     20  CD2 TYR B 159      41.524 -11.067  -9.817  1.00 38.67 LIG 0.01  A 
ATOM     21  CE2 TYR B 159      40.732 -10.596  -8.772  1.00 40.79 LIG 0.04  A 
ATOM     22  CZ  TYR B 159      39.664 -11.360  -8.325  1.00 41.05 LIG 0.07  A 
ATOM     23  CE1 TYR B 159      39.382 -12.582  -8.912  1.00 40.09 LIG 0.04  A 
ATOM     24  CD1 TYR B 159      40.179 -13.042  -9.959  1.00 38.09 LIG 0.01  A 
BRANCH 22 25
ATOM     25 OH   TYR B 159      38.878 -10.901  -7.292  1.00 43.66 LIG-0.36  OA
ATOM     26 HH   TYR B 159      38.917 -10.062  -7.261  1.00 43.66 LIG 0.22  HD
ENDBRANCH 22 25
ENDBRANCH 18 19
ENDBRANCH 15 18
ENDBRANCH 13 15
ENDBRANCH 10 11
BRANCH 10 27
ATOM     27  CB  SER B 158      38.607 -12.011 -15.791  1.00 15.79 LIG 0.20  C 
BRANCH 27 28
ATOM     28 OG   SER B 158      39.536 -10.959 -15.599  1.00 17.90 LIG-0.40  OA
ATOM     29 HG   SER B 158      39.122 -10.236 -15.487  1.00 17.90 LIG 0.21  HD
ENDBRANCH 27 28
ENDBRANCH 10 27
ENDBRANCH 8 10
ENDBRANCH 5 6
BRANCH 5 30
ATOM     30  CB  THR B 157      38.584  -9.948 -11.008  1.00 18.18 LIG 0.15  C 
ATOM     31  CG2 THR B 157      39.339  -9.691 -12.301  1.00 16.96 LIG 0.04  C 
BRANCH 30 32
ATOM     32 OG1  THR B 157      38.240  -8.699 -10.393  1.00 15.90 LIG-0.39  OA
ATOM     33 HG1  THR B 157      37.465  -8.474 -10.629  1.00 15.90 LIG 0.21  HD
ENDBRANCH 30 32
ENDBRANCH 5 30
ENDBRANCH 3 5
BRANCH 1 34
ATOM     34  CA  SER B 156      35.251 -12.736  -8.778  1.00 16.58 LIG 0.20  C 
BRANCH 34 35
ATOM     35  N   SER B 156      33.886 -13.230  -8.907  1.00 15.80 LIG-0.34  N 
ATOM     36 H    SER B 156      33.617 -13.314  -9.719  1.00 15.80 LIG 0.16  HD
ATOM     37  C   PRO B 155      33.134 -13.520  -7.849  1.00 18.36 LIG 0.24  C 
ATOM     38 O    PRO B 155      33.521 -13.387  -6.687  1.00 18.57 LIG-0.27  OA
BRANCH 37 39
ATOM     39  CA  PRO B 155      31.728 -14.026  -8.147  1.00 19.30 LIG 0.18  C 
ATOM     40  CB  PRO B 155      30.672 -12.951  -7.923  1.00 17.99 LIG 0.04  C 
ATOM     41  CG  PRO B 155      30.408 -13.076  -6.452  1.00 20.29 LIG 0.02  C 
ATOM     42  CD  PRO B 155      30.325 -14.584  -6.255  1.00 20.15 LIG 0.13  C 
ATOM     43  N   PRO B 155      31.313 -15.089  -7.226  1.00 20.34 LIG-0.34  N 
ATOM     44  C   SER B 154      31.744 -16.357  -7.347  1.00 23.17 LIG 0.24  C 
ATOM     45 O    SER B 154      32.515 -16.703  -8.242  1.00 21.43 LIG-0.27  OA
BRANCH 44 46
ATOM     46  CA  SER B 154      31.237 -17.366  -6.321  1.00 26.04 LIG 0.20  C 
BRANCH 46 47
ATOM     47  N   SER B 154      31.350 -18.736  -6.811  1.00 29.08 LIG-0.34  N 
ATOM     48 H    SER B 154      32.130 -19.086  -6.711  1.00 29.08 LIG 0.16  HD
ATOM     49  C   VAL B 153      30.320 -19.369  -7.364  1.00 31.74 LIG 0.26  C 
ATOM     50 O    VAL B 153      29.214 -18.852  -7.505  1.00 31.76 LIG-0.27  OA
BRANCH 49 51
ATOM     51  CA  VAL B 153      30.575 -20.799  -7.831  1.00 34.29 LIG 0.40  C 
ATOM     52  N   VAL B 153      29.693 -21.751  -7.100  1.00 34.52 LIG 0.61  N 
BRANCH 51 53
ATOM     53  CB  VAL B 153      30.332 -20.870  -9.358  1.00 36.17 LIG 0.03  C 
ATOM     54  CG2 VAL B 153      30.485 -22.299  -9.844  1.00 38.03 LIG 0.01  C 
ATOM     55  CG1 VAL B 153      31.305 -19.955 -10.084  1.00 38.39 LIG 0.01  C 
ENDBRANCH 51 53
ENDBRANCH 49 51
ENDBRANCH 46 47
BRANCH 46 56
ATOM     56  CB  SER B 154      32.022 -17.201  -5.017  1.00 27.48 LIG 0.20  C 
BRANCH 56 57
ATOM     57 OG   SER B 154      32.537 -18.444  -4.573  1.00 30.72 LIG-0.40  OA
ATOM     58 HG   SER B 154      33.133 -18.310  -3.996  1.00 30.72 LIG 0.21  HD
ENDBRANCH 56 57
ENDBRANCH 46 56
ENDBRANCH 44 46
ENDBRANCH 37 39
ENDBRANCH 34 35
BRANCH 34 59
ATOM     59  CB  SER B 156      36.221 -13.901  -8.578  1.00 16.81 LIG 0.20  C 
BRANCH 59 60
ATOM     60 OG   SER B 156      36.343 -14.658  -9.773  1.00 16.65 LIG-0.40  OA
ATOM     61 HG   SER B 156      36.726 -14.195 -10.360  1.00 16.65 LIG 0.21  HD
ENDBRANCH 59 60
ENDBRANCH 34 59
ENDBRANCH 1 34
TORSDOF 24
ENDMDL
MODEL 16
USER: ADFR SOLUTION from run 40
USER: SCORE 16.882410 LL:  -5.268 LR: -12.070 RR:   0.000 FEB:  -4.911
USER: RMSD 4.741345
USER: SEED 39
USER: STATUS searching
USER: GENES 26
USER: genes 0 Translation |==|  0.37468 0.67636 0.49746
USER: genes 1 Rotation |==|  0.49764 0.48166 0.51629 0.99939
USER: genes 2 Torsion [C]-N--CA-[C] |==|  0.79711
USER: genes 3 Torsion [N]-CA--C-[N] |==|  0.46313
USER: genes 4 Torsion [C]-N--CA-[C] |==|  0.79699
USER: genes 5 Torsion [N]-CA--C-[N] |==|  0.90433
USER: genes 6 Torsion [C]-N--CA-[CB] |==|  0.39562
USER: genes 7 Torsion [N]-CA--C-[O] |==|  0.06161
USER: genes 8 Torsion [N]-CA--CB-[CG] |==|  0.11052
USER: genes 9 Torsion [CA]-CB--CG-[CD2] |==|  0.24198
USER: genes 10 Torsion [CE2]-CZ--OH-[HH] |==|  0.99139
USER: genes 11 Torsion [N]-CA--CB-[OG] |==|  0.22082
USER: genes 12 Torsion [CA]-CB--OG-[HG] |==|  0.75492
USER: genes 13 Torsion [N]-CA--CB-[CG2] |==|  0.15782
USER: genes 14 Torsion [CA]-CB--OG1-[HG1] |==|  0.98090
USER: genes 15 Torsion [N]-C--CA-[N] |==|  0.49318
USER: genes 16 Torsion [C]-CA--N-[C] |==|  0.59726
USER: genes 17 Torsion [N]-C--CA-[CB] |==|  0.78775
USER: genes 18 Torsion [N]-C--CA-[N] |==|  0.88338
USER: genes 19 Torsion [C]-CA--N-[C] |==|  0.84440
USER: genes 20 Torsion [N]-C--CA-[N] |==|  0.38251
USER: genes 21 Torsion [C]-CA--CB-[CG2] |==|  0.62873
USER: genes 22 Torsion [C]-CA--CB-[OG] |==|  0.66463
USER: genes 23 Torsion [CA]-CB--OG-[HG] |==|  0.53314
USER: genes 24 Torsion [C]-CA--CB-[OG] |==|  0.85973
USER: genes 25 Torsion [CA]-CB--OG-[HG] |==|  0.19903
ROOT
ATOM      1  C   SER B 156      35.488 -12.270  -9.882  1.00 15.87 LIG 0.24  C 
ATOM      2 O    SER B 156      34.682 -12.218 -10.813  1.00 15.60 LIG-0.27  OA
ATOM      3  N   THR B 157      36.663 -11.647  -9.900  1.00 16.26 LIG-0.34  N 
ATOM      4 H    THR B 157      37.218 -11.641  -9.244  1.00 16.26 LIG 0.16  HD
ENDROOT
BRANCH 3 5
ATOM      5  CA  THR B 157      37.102 -10.907 -11.071  1.00 15.91 LIG 0.20  C 
BRANCH 5 6
ATOM      6  C   THR B 157      37.459 -11.997 -12.078  1.00 16.14 LIG 0.24  C 
ATOM      7 O    THR B 157      37.570 -13.171 -11.710  1.00 15.69 LIG-0.27  OA
ATOM      8  N   SER B 158      37.637 -11.620 -13.338  1.00 15.14 LIG-0.34  N 
ATOM      9 H    SER B 158      37.566 -10.810 -13.615  1.00 15.14 LIG 0.16  HD
BRANCH 8 10
ATOM     10  CA  SER B 158      37.978 -12.591 -14.372  1.00 18.36 LIG 0.20  C 
BRANCH 10 11
ATOM     11  C   SER B 158      39.424 -13.057 -14.229  1.00 20.96 LIG 0.24  C 
ATOM     12 O    SER B 158      39.743 -14.215 -14.507  1.00 20.92 LIG-0.27  OA
ATOM     13  N   TYR B 159      40.294 -12.151 -13.796  1.00 23.40 LIG-0.35  N 
ATOM     14 H    TYR B 159      40.084 -11.340 -13.598  1.00 23.40 LIG 0.16  HD
BRANCH 13 15
ATOM     15  CA  TYR B 159      41.708 -12.469 -13.621  1.00 28.83 LIG 0.17  C 
BRANCH 15 16
ATOM     16  C   TYR B 159      42.008 -12.837 -12.172  1.00 30.09 LIG 0.22  C 
ATOM     17 O    TYR B 159      41.045 -13.232 -11.480  1.00 33.46 LIG-0.29  OA
ENDBRANCH 15 16
BRANCH 15 18
ATOM     18  CB  TYR B 159      42.574 -11.275 -14.033  1.00 32.38 LIG 0.07  C 
BRANCH 18 19
ATOM     19  CG  TYR B 159      42.007  -9.939 -13.608  1.00 36.58 LIG-0.06  A 
ATOM     20  CD2 TYR B 159      42.286  -9.408 -12.349  1.00 38.67 LIG 0.01  A 
ATOM     21  CE2 TYR B 159      41.775  -8.172 -11.959  1.00 40.79 LIG 0.04  A 
ATOM     22  CZ  TYR B 159      40.972  -7.457 -12.834  1.00 41.05 LIG 0.07  A 
ATOM     23  CE1 TYR B 159      40.679  -7.963 -14.090  1.00 40.09 LIG 0.04  A 
ATOM     24  CD1 TYR B 159      41.198  -9.199 -14.470  1.00 38.09 LIG 0.01  A 
BRANCH 22 25
ATOM     25 OH   TYR B 159      40.463  -6.235 -12.454  1.00 43.66 LIG-0.36  OA
ATOM     26 HH   TYR B 159      40.685  -6.074 -11.660  1.00 43.66 LIG 0.22  HD
ENDBRANCH 22 25
ENDBRANCH 18 19
ENDBRANCH 15 18
ENDBRANCH 13 15
ENDBRANCH 10 11
BRANCH 10 27
ATOM     27  CB  SER B 158      37.774 -11.979 -15.759  1.00 15.79 LIG 0.20  C 
BRANCH 27 28
ATOM     28 OG   SER B 158      38.863 -11.145 -16.110  1.00 17.90 LIG-0.40  OA
ATOM     29 HG   SER B 158      38.721 -10.366 -15.830  1.00 17.90 LIG 0.21  HD
ENDBRANCH 27 28
ENDBRANCH 10 27
ENDBRANCH 8 10
ENDBRANCH 5 6
BRANCH 5 30
ATOM     30  CB  THR B 157      38.364 -10.064 -10.788  1.00 18.18 LIG 0.15  C 
ATOM     31  CG2 THR B 157      39.493 -10.942 -10.276  1.00 16.96 LIG 0.04  C 
BRANCH 30 32
ATOM     32 OG1  THR B 157      38.775  -9.399 -11.990  1.00 15.90 LIG-0.39  OA
ATOM     33 HG1  THR B 157      38.308  -9.670 -12.634  1.00 15.90 LIG 0.21  HD
ENDBRANCH 30 32
ENDBRANCH 5 30
ENDBRANCH 3 5
BRANCH 1 34
ATOM     34  CA  SER B 156      35.172 -13.064  -8.628  1.00 16.58 LIG 0.20  C 
BRANCH 34 35
ATOM     35  N   SER B 156      33.833 -13.622  -8.765  1.00 15.80 LIG-0.34  N 
ATOM     36 H    SER B 156      33.630 -13.853  -9.568  1.00 15.80 LIG 0.16  HD
ATOM     37  C   PRO B 155      33.010 -13.755  -7.729  1.00 18.36 LIG 0.24  C 
ATOM     38 O    PRO B 155      33.305 -13.412  -6.584  1.00 18.57 LIG-0.27  OA
BRANCH 37 39
ATOM     39  CA  PRO B 155      31.644 -14.356  -8.034  1.00 19.30 LIG 0.18  C 
ATOM     40  CB  PRO B 155      30.713 -13.353  -8.704  1.00 17.99 LIG 0.04  C 
ATOM     41  CG  PRO B 155      30.135 -12.629  -7.525  1.00 20.29 LIG 0.02  C 
ATOM     42  CD  PRO B 155      29.818 -13.763  -6.560  1.00 20.15 LIG 0.13  C 
ATOM     43  N   PRO B 155      30.912 -14.718  -6.815  1.00 20.34 LIG-0.34  N 
ATOM     44  C   SER B 154      31.190 -15.828  -6.110  1.00 23.17 LIG 0.24  C 
ATOM     45 O    SER B 154      32.079 -16.611  -6.446  1.00 21.43 LIG-0.27  OA
BRANCH 44 46
ATOM     46  CA  SER B 154      30.354 -16.088  -4.861  1.00 26.04 LIG 0.20  C 
BRANCH 46 47
ATOM     47  N   SER B 154      30.139 -14.866  -4.091  1.00 29.08 LIG-0.34  N 
ATOM     48 H    SER B 154      29.312 -14.678  -3.949  1.00 29.08 LIG 0.16  HD
ATOM     49  C   VAL B 153      31.154 -14.124  -3.659  1.00 31.74 LIG 0.26  C 
ATOM     50 O    VAL B 153      32.330 -14.406  -3.878  1.00 31.76 LIG-0.27  OA
BRANCH 49 51
ATOM     51  CA  VAL B 153      30.787 -12.874  -2.865  1.00 34.29 LIG 0.40  C 
ATOM     52  N   VAL B 153      31.689 -12.722  -1.690  1.00 34.52 LIG 0.61  N 
BRANCH 51 53
ATOM     53  CB  VAL B 153      30.879 -11.648  -3.805  1.00 36.17 LIG 0.03  C 
ATOM     54  CG2 VAL B 153      31.630 -10.522  -3.120  1.00 38.03 LIG 0.01  C 
ATOM     55  CG1 VAL B 153      29.485 -11.190  -4.203  1.00 38.39 LIG 0.01  C 
ENDBRANCH 51 53
ENDBRANCH 49 51
ENDBRANCH 46 47
BRANCH 46 56
ATOM     56  CB  SER B 154      29.013 -16.704  -5.268  1.00 27.48 LIG 0.20  C 
BRANCH 56 57
ATOM     57 OG   SER B 154      27.931 -15.895  -4.839  1.00 30.72 LIG-0.40  OA
ATOM     58 HG   SER B 154      27.212 -16.320  -4.924  1.00 30.72 LIG 0.21  HD
ENDBRANCH 56 57
ENDBRANCH 46 56
ENDBRANCH 44 46
ENDBRANCH 37 39
ENDBRANCH 34 35
BRANCH 34 59
ATOM     59  CB  SER B 156      36.205 -14.185  -8.500  1.00 16.81 LIG 0.20  C 
BRANCH 59 60
ATOM     60 OG   SER B 156      36.308 -14.909  -9.717  1.00 16.65 LIG-0.40  OA
ATOM     61 HG   SER B 156      36.693 -14.435 -10.294  1.00 16.65 LIG 0.21  HD
ENDBRANCH 59 60
ENDBRANCH 34 59
ENDBRANCH 1 34
TORSDOF 24
ENDMDL
MODEL 17
USER: ADFR SOLUTION from run 174
USER: SCORE 16.231516 LL:  -5.017 LR: -12.015 RR:   0.000 FEB:  -4.856
USER: RMSD 3.948939
USER: SEED 173
USER: STATUS searching
USER: GENES 26
USER: genes 0 Translation |==|  0.38173 0.68662 0.49031
USER: genes 1 Rotation |==|  0.47493 0.47636 0.52054 0.99839
USER: genes 2 Torsion [C]-N--CA-[C] |==|  0.80475
USER: genes 3 Torsion [N]-CA--C-[N] |==|  0.46832
USER: genes 4 Torsion [C]-N--CA-[C] |==|  0.85555
USER: genes 5 Torsion [N]-CA--C-[N] |==|  0.92106
USER: genes 6 Torsion [C]-N--CA-[CB] |==|  0.50549
USER: genes 7 Torsion [N]-CA--C-[O] |==|  0.25633
USER: genes 8 Torsion [N]-CA--CB-[CG] |==|  0.16024
USER: genes 9 Torsion [CA]-CB--CG-[CD2] |==|  0.58538
USER: genes 10 Torsion [CE2]-CZ--OH-[HH] |==|  0.06987
USER: genes 11 Torsion [N]-CA--CB-[OG] |==|  0.13156
USER: genes 12 Torsion [CA]-CB--OG-[HG] |==|  0.75147
USER: genes 13 Torsion [N]-CA--CB-[CG2] |==|  0.43823
USER: genes 14 Torsion [CA]-CB--OG1-[HG1] |==|  0.94013
USER: genes 15 Torsion [N]-C--CA-[N] |==|  0.53301
USER: genes 16 Torsion [C]-CA--N-[C] |==|  0.56111
USER: genes 17 Torsion [N]-C--CA-[CB] |==|  0.56832
USER: genes 18 Torsion [N]-C--CA-[N] |==|  0.86667
USER: genes 19 Torsion [C]-CA--N-[C] |==|  0.81394
USER: genes 20 Torsion [N]-C--CA-[N] |==|  0.41055
USER: genes 21 Torsion [C]-CA--CB-[CG2] |==|  0.26061
USER: genes 22 Torsion [C]-CA--CB-[OG] |==|  0.23231
USER: genes 23 Torsion [CA]-CB--OG-[HG] |==|  0.45574
USER: genes 24 Torsion [C]-CA--CB-[OG] |==|  0.82479
USER: genes 25 Torsion [CA]-CB--OG-[HG] |==|  0.18719
ROOT
ATOM      1  C   SER B 156      35.684 -12.031 -10.032  1.00 15.87 LIG 0.24  C 
ATOM      2 O    SER B 156      34.900 -12.076 -10.982  1.00 15.60 LIG-0.27  OA
ATOM      3  N   THR B 157      36.850 -11.395 -10.079  1.00 16.26 LIG-0.34  N 
ATOM      4 H    THR B 157      37.389 -11.321  -9.413  1.00 16.26 LIG 0.16  HD
ENDROOT
BRANCH 3 5
ATOM      5  CA  THR B 157      37.309 -10.758 -11.302  1.00 15.91 LIG 0.20  C 
BRANCH 5 6
ATOM      6  C   THR B 157      37.638 -11.929 -12.222  1.00 16.14 LIG 0.24  C 
ATOM      7 O    THR B 157      37.685 -13.079 -11.773  1.00 15.69 LIG-0.27  OA
ATOM      8  N   SER B 158      37.865 -11.649 -13.499  1.00 15.14 LIG-0.34  N 
ATOM      9 H    SER B 158      37.838 -10.857 -13.833  1.00 15.14 LIG 0.16  HD
BRANCH 8 10
ATOM     10  CA  SER B 158      38.184 -12.704 -14.455  1.00 18.36 LIG 0.20  C 
BRANCH 10 11
ATOM     11  C   SER B 158      39.338 -13.567 -13.952  1.00 20.96 LIG 0.24  C 
ATOM     12 O    SER B 158      39.434 -14.748 -14.289  1.00 20.92 LIG-0.27  OA
ATOM     13  N   TYR B 159      40.210 -12.970 -13.147  1.00 23.40 LIG-0.35  N 
ATOM     14 H    TYR B 159      40.154 -12.147 -12.903  1.00 23.40 LIG 0.16  HD
BRANCH 13 15
ATOM     15  CA  TYR B 159      41.361 -13.684 -12.600  1.00 28.83 LIG 0.17  C 
BRANCH 15 16
ATOM     16  C   TYR B 159      40.917 -14.923 -11.831  1.00 30.09 LIG 0.22  C 
ATOM     17 O    TYR B 159      40.864 -15.996 -12.470  1.00 33.46 LIG-0.29  OA
ENDBRANCH 15 16
BRANCH 15 18
ATOM     18  CB  TYR B 159      42.161 -12.767 -11.672  1.00 32.38 LIG 0.07  C 
BRANCH 18 19
ATOM     19  CG  TYR B 159      41.348 -12.206 -10.526  1.00 36.58 LIG-0.06  A 
ATOM     20  CD2 TYR B 159      41.639 -10.953  -9.987  1.00 38.67 LIG 0.01  A 
ATOM     21  CE2 TYR B 159      40.885 -10.427  -8.939  1.00 40.79 LIG 0.04  A 
ATOM     22  CZ  TYR B 159      39.831 -11.162  -8.420  1.00 41.05 LIG 0.07  A 
ATOM     23  CE1 TYR B 159      39.523 -12.410  -8.937  1.00 40.09 LIG 0.04  A 
ATOM     24  CD1 TYR B 159      40.282 -12.924  -9.986  1.00 38.09 LIG 0.01  A 
BRANCH 22 25
ATOM     25 OH   TYR B 159      39.083 -10.648  -7.384  1.00 43.66 LIG-0.36  OA
ATOM     26 HH   TYR B 159      39.127  -9.809  -7.394  1.00 43.66 LIG 0.22  HD
ENDBRANCH 22 25
ENDBRANCH 18 19
ENDBRANCH 15 18
ENDBRANCH 13 15
ENDBRANCH 10 11
BRANCH 10 27
ATOM     27  CB  SER B 158      38.555 -12.094 -15.809  1.00 15.79 LIG 0.20  C 
BRANCH 27 28
ATOM     28 OG   SER B 158      39.482 -11.035 -15.650  1.00 17.90 LIG-0.40  OA
ATOM     29 HG   SER B 158      39.066 -10.313 -15.544  1.00 17.90 LIG 0.21  HD
ENDBRANCH 27 28
ENDBRANCH 10 27
ENDBRANCH 8 10
ENDBRANCH 5 6
BRANCH 5 30
ATOM     30  CB  THR B 157      38.592  -9.928 -11.080  1.00 18.18 LIG 0.15  C 
ATOM     31  CG2 THR B 157      39.341  -9.737 -12.388  1.00 16.96 LIG 0.04  C 
BRANCH 30 32
ATOM     32 OG1  THR B 157      38.245  -8.650 -10.530  1.00 15.90 LIG-0.39  OA
ATOM     33 HG1  THR B 157      37.441  -8.479 -10.703  1.00 15.90 LIG 0.21  HD
ENDBRANCH 30 32
ENDBRANCH 5 30
ENDBRANCH 3 5
BRANCH 1 34
ATOM     34  CA  SER B 156      35.347 -12.713  -8.719  1.00 16.58 LIG 0.20  C 
BRANCH 34 35
ATOM     35  N   SER B 156      34.196 -13.581  -8.936  1.00 15.80 LIG-0.34  N 
ATOM     36 H    SER B 156      34.079 -13.810  -9.756  1.00 15.80 LIG 0.16  HD
ATOM     37  C   PRO B 155      33.406 -13.974  -7.941  1.00 18.36 LIG 0.24  C 
ATOM     38 O    PRO B 155      33.574 -13.632  -6.770  1.00 18.57 LIG-0.27  OA
BRANCH 37 39
ATOM     39  CA  PRO B 155      32.244 -14.879  -8.329  1.00 19.30 LIG 0.18  C 
ATOM     40  CB  PRO B 155      31.096 -14.798  -7.330  1.00 17.99 LIG 0.04  C 
ATOM     41  CG  PRO B 155      31.522 -15.785  -6.286  1.00 20.29 LIG 0.02  C 
ATOM     42  CD  PRO B 155      32.011 -16.963  -7.118  1.00 20.15 LIG 0.13  C 
ATOM     43  N   PRO B 155      32.611 -16.299  -8.291  1.00 20.34 LIG-0.34  N 
ATOM     44  C   SER B 154      33.330 -16.885  -9.264  1.00 23.17 LIG 0.24  C 
ATOM     45 O    SER B 154      33.726 -16.263 -10.250  1.00 21.43 LIG-0.27  OA
BRANCH 44 46
ATOM     46  CA  SER B 154      33.643 -18.369  -9.102  1.00 26.04 LIG 0.20  C 
BRANCH 46 47
ATOM     47  N   SER B 154      34.155 -18.671  -7.769  1.00 29.08 LIG-0.34  N 
ATOM     48 H    SER B 154      33.631 -19.157  -7.290  1.00 29.08 LIG 0.16  HD
ATOM     49  C   VAL B 153      35.335 -18.220  -7.354  1.00 31.74 LIG 0.26  C 
ATOM     50 O    VAL B 153      36.068 -17.522  -8.051  1.00 31.76 LIG-0.27  OA
BRANCH 49 51
ATOM     51  CA  VAL B 153      35.749 -18.612  -5.939  1.00 34.29 LIG 0.40  C 
ATOM     52  N   VAL B 153      37.228 -18.761  -5.853  1.00 34.52 LIG 0.61  N 
BRANCH 51 53
ATOM     53  CB  VAL B 153      35.237 -17.530  -4.958  1.00 36.17 LIG 0.03  C 
ATOM     54  CG2 VAL B 153      33.886 -17.931  -4.397  1.00 38.03 LIG 0.01  C 
ATOM     55  CG1 VAL B 153      35.141 -16.187  -5.665  1.00 38.39 LIG 0.01  C 
ENDBRANCH 51 53
ENDBRANCH 49 51
ENDBRANCH 46 47
BRANCH 46 56
ATOM     56  CB  SER B 154      32.381 -19.187  -9.385  1.00 27.48 LIG 0.20  C 
BRANCH 56 57
ATOM     57 OG   SER B 154      32.216 -19.404 -10.776  1.00 30.72 LIG-0.40  OA
ATOM     58 HG   SER B 154      31.660 -20.021 -10.900  1.00 30.72 LIG 0.21  HD
ENDBRANCH 56 57
ENDBRANCH 46 56
ENDBRANCH 44 46
ENDBRANCH 37 39
ENDBRANCH 34 35
BRANCH 34 59
ATOM     59  CB  SER B 156      36.560 -13.538  -8.284  1.00 16.81 LIG 0.20  C 
BRANCH 59 60
ATOM     60 OG   SER B 156      36.830 -14.563  -9.229  1.00 16.65 LIG-0.40  OA
ATOM     61 HG   SER B 156      37.087 -14.218  -9.951  1.00 16.65 LIG 0.21  HD
ENDBRANCH 59 60
ENDBRANCH 34 59
ENDBRANCH 1 34
TORSDOF 24
ENDMDL
MODEL 18
USER: ADFR SOLUTION from run 113
USER: SCORE 15.678907 LL:  -4.590 LR: -11.983 RR:   0.000 FEB:  -4.824
USER: RMSD 3.956230
USER: SEED 112
USER: STATUS searching
USER: GENES 26
USER: genes 0 Translation |==|  0.37739 0.68042 0.49527
USER: genes 1 Rotation |==|  0.49134 0.47153 0.51461 0.99890
USER: genes 2 Torsion [C]-N--CA-[C] |==|  0.80140
USER: genes 3 Torsion [N]-CA--C-[N] |==|  0.47105
USER: genes 4 Torsion [C]-N--CA-[C] |==|  0.84953
USER: genes 5 Torsion [N]-CA--C-[N] |==|  0.93333
USER: genes 6 Torsion [C]-N--CA-[CB] |==|  0.50568
USER: genes 7 Torsion [N]-CA--C-[O] |==|  0.24278
USER: genes 8 Torsion [N]-CA--CB-[CG] |==|  0.15682
USER: genes 9 Torsion [CA]-CB--CG-[CD2] |==|  0.09136
USER: genes 10 Torsion [CE2]-CZ--OH-[HH] |==|  0.62862
USER: genes 11 Torsion [N]-CA--CB-[OG] |==|  0.13411
USER: genes 12 Torsion [CA]-CB--OG-[HG] |==|  0.67833
USER: genes 13 Torsion [N]-CA--CB-[CG2] |==|  0.43265
USER: genes 14 Torsion [CA]-CB--OG1-[HG1] |==|  0.89557
USER: genes 15 Torsion [N]-C--CA-[N] |==|  0.47950
USER: genes 16 Torsion [C]-CA--N-[C] |==|  0.55244
USER: genes 17 Torsion [N]-C--CA-[CB] |==|  0.78215
USER: genes 18 Torsion [N]-C--CA-[N] |==|  0.18333
USER: genes 19 Torsion [C]-CA--N-[C] |==|  0.63861
USER: genes 20 Torsion [N]-C--CA-[N] |==|  0.48770
USER: genes 21 Torsion [C]-CA--CB-[CG2] |==|  0.76834
USER: genes 22 Torsion [C]-CA--CB-[OG] |==|  0.63103
USER: genes 23 Torsion [CA]-CB--OG-[HG] |==|  0.64468
USER: genes 24 Torsion [C]-CA--CB-[OG] |==|  0.87532
USER: genes 25 Torsion [CA]-CB--OG-[HG] |==|  0.19605
ROOT
ATOM      1  C   SER B 156      35.564 -12.175  -9.928  1.00 15.87 LIG 0.24  C 
ATOM      2 O    SER B 156      34.797 -12.140 -10.892  1.00 15.60 LIG-0.27  OA
ATOM      3  N   THR B 157      36.742 -11.561  -9.912  1.00 16.26 LIG-0.34  N 
ATOM      4 H    THR B 157      37.270 -11.543  -9.233  1.00 16.26 LIG 0.16  HD
ENDROOT
BRANCH 3 5
ATOM      5  CA  THR B 157      37.235 -10.853 -11.081  1.00 15.91 LIG 0.20  C 
BRANCH 5 6
ATOM      6  C   THR B 157      37.588 -11.967 -12.061  1.00 16.14 LIG 0.24  C 
ATOM      7 O    THR B 157      37.603 -13.144 -11.685  1.00 15.69 LIG-0.27  OA
ATOM      8  N   SER B 158      37.869 -11.609 -13.307  1.00 15.14 LIG-0.34  N 
ATOM      9 H    SER B 158      37.866 -10.797 -13.590  1.00 15.14 LIG 0.16  HD
BRANCH 8 10
ATOM     10  CA  SER B 158      38.215 -12.605 -14.316  1.00 18.36 LIG 0.20  C 
BRANCH 10 11
ATOM     11  C   SER B 158      39.373 -13.481 -13.846  1.00 20.96 LIG 0.24  C 
ATOM     12 O    SER B 158      39.535 -14.612 -14.308  1.00 20.92 LIG-0.27  OA
ATOM     13  N   TYR B 159      40.175 -12.951 -12.928  1.00 23.40 LIG-0.35  N 
ATOM     14 H    TYR B 159      40.072 -12.164 -12.596  1.00 23.40 LIG 0.16  HD
BRANCH 13 15
ATOM     15  CA  TYR B 159      41.321 -13.685 -12.398  1.00 28.83 LIG 0.17  C 
BRANCH 15 16
ATOM     16  C   TYR B 159      40.886 -15.019 -11.802  1.00 30.09 LIG 0.22  C 
ATOM     17 O    TYR B 159      40.822 -15.991 -12.584  1.00 33.46 LIG-0.29  OA
ENDBRANCH 15 16
BRANCH 15 18
ATOM     18  CB  TYR B 159      42.030 -12.854 -11.325  1.00 32.38 LIG 0.07  C 
BRANCH 18 19
ATOM     19  CG  TYR B 159      41.125 -12.433 -10.188  1.00 36.58 LIG-0.06  A 
ATOM     20  CD2 TYR B 159      40.076 -13.249  -9.765  1.00 38.67 LIG 0.01  A 
ATOM     21  CE2 TYR B 159      39.248 -12.869  -8.711  1.00 40.79 LIG 0.04  A 
ATOM     22  CZ  TYR B 159      39.467 -11.660  -8.071  1.00 41.05 LIG 0.07  A 
ATOM     23  CE1 TYR B 159      40.501 -10.830  -8.473  1.00 40.09 LIG 0.04  A 
ATOM     24  CD1 TYR B 159      41.325 -11.221  -9.527  1.00 38.09 LIG 0.01  A 
BRANCH 22 25
ATOM     25 OH   TYR B 159      38.652 -11.278  -7.029  1.00 43.66 LIG-0.36  OA
ATOM     26 HH   TYR B 159      38.419 -10.478  -7.133  1.00 43.66 LIG 0.22  HD
ENDBRANCH 22 25
ENDBRANCH 18 19
ENDBRANCH 15 18
ENDBRANCH 13 15
ENDBRANCH 10 11
BRANCH 10 27
ATOM     27  CB  SER B 158      38.596 -11.916 -15.628  1.00 15.79 LIG 0.20  C 
BRANCH 27 28
ATOM     28 OG   SER B 158      39.523 -10.870 -15.401  1.00 17.90 LIG-0.40  OA
ATOM     29 HG   SER B 158      39.173 -10.135 -15.609  1.00 17.90 LIG 0.21  HD
ENDBRANCH 27 28
ENDBRANCH 10 27
ENDBRANCH 8 10
ENDBRANCH 5 6
BRANCH 5 30
ATOM     30  CB  THR B 157      38.513 -10.042 -10.774  1.00 18.18 LIG 0.15  C 
ATOM     31  CG2 THR B 157      39.323  -9.816 -12.040  1.00 16.96 LIG 0.04  C 
BRANCH 30 32
ATOM     32 OG1  THR B 157      38.151  -8.778 -10.200  1.00 15.90 LIG-0.39  OA
ATOM     33 HG1  THR B 157      37.455  -8.490 -10.573  1.00 15.90 LIG 0.21  HD
ENDBRANCH 30 32
ENDBRANCH 5 30
ENDBRANCH 3 5
BRANCH 1 34
ATOM     34  CA  SER B 156      35.190 -12.937  -8.669  1.00 16.58 LIG 0.20  C 
BRANCH 34 35
ATOM     35  N   SER B 156      33.810 -13.389  -8.801  1.00 15.80 LIG-0.34  N 
ATOM     36 H    SER B 156      33.519 -13.397  -9.610  1.00 15.80 LIG 0.16  HD
ATOM     37  C   PRO B 155      33.080 -13.753  -7.752  1.00 18.36 LIG 0.24  C 
ATOM     38 O    PRO B 155      33.500 -13.729  -6.594  1.00 18.57 LIG-0.27  OA
BRANCH 37 39
ATOM     39  CA  PRO B 155      31.656 -14.202  -8.052  1.00 19.30 LIG 0.18  C 
ATOM     40  CB  PRO B 155      30.722 -13.023  -8.296  1.00 17.99 LIG 0.04  C 
ATOM     41  CG  PRO B 155      30.315 -12.654  -6.901  1.00 20.29 LIG 0.02  C 
ATOM     42  CD  PRO B 155      30.032 -14.009  -6.267  1.00 20.15 LIG 0.13  C 
ATOM     43  N   PRO B 155      31.034 -14.880  -6.909  1.00 20.34 LIG-0.34  N 
ATOM     44  C   SER B 154      31.317 -16.153  -6.586  1.00 23.17 LIG 0.24  C 
ATOM     45 O    SER B 154      32.117 -16.831  -7.231  1.00 21.43 LIG-0.27  OA
BRANCH 44 46
ATOM     46  CA  SER B 154      30.601 -16.740  -5.373  1.00 26.04 LIG 0.20  C 
BRANCH 46 47
ATOM     47  N   SER B 154      29.164 -16.858  -5.599  1.00 29.08 LIG-0.34  N 
ATOM     48 H    SER B 154      28.952 -17.247  -6.337  1.00 29.08 LIG 0.16  HD
ATOM     49  C   VAL B 153      28.278 -16.397  -4.722  1.00 31.74 LIG 0.26  C 
ATOM     50 O    VAL B 153      28.599 -15.839  -3.675  1.00 31.76 LIG-0.27  OA
BRANCH 49 51
ATOM     51  CA  VAL B 153      26.808 -16.588  -5.082  1.00 34.29 LIG 0.40  C 
ATOM     52  N   VAL B 153      25.935 -16.123  -3.968  1.00 34.52 LIG 0.61  N 
BRANCH 51 53
ATOM     53  CB  VAL B 153      26.513 -15.810  -6.387  1.00 36.17 LIG 0.03  C 
ATOM     54  CG2 VAL B 153      26.235 -14.352  -6.073  1.00 38.03 LIG 0.01  C 
ATOM     55  CG1 VAL B 153      25.330 -16.432  -7.110  1.00 38.39 LIG 0.01  C 
ENDBRANCH 51 53
ENDBRANCH 49 51
ENDBRANCH 46 47
BRANCH 46 56
ATOM     56  CB  SER B 154      31.203 -18.109  -5.043  1.00 27.48 LIG 0.20  C 
BRANCH 56 57
ATOM     57 OG   SER B 154      30.186 -19.073  -4.830  1.00 30.72 LIG-0.40  OA
ATOM     58 HG   SER B 154      30.316 -19.459  -4.096  1.00 30.72 LIG 0.21  HD
ENDBRANCH 56 57
ENDBRANCH 46 56
ENDBRANCH 44 46
ENDBRANCH 37 39
ENDBRANCH 34 35
BRANCH 34 59
ATOM     59  CB  SER B 156      36.132 -14.135  -8.539  1.00 16.81 LIG 0.20  C 
BRANCH 59 60
ATOM     60 OG   SER B 156      36.274 -14.795  -9.789  1.00 16.65 LIG-0.40  OA
ATOM     61 HG   SER B 156      36.720 -14.312 -10.312  1.00 16.65 LIG 0.21  HD
ENDBRANCH 59 60
ENDBRANCH 34 59
ENDBRANCH 1 34
TORSDOF 24
ENDMDL
