MODEL 1
USER: ADFR SOLUTION from run 45
USER: SCORE 24.169850 LL:  -4.972 LR: -23.361 RR:   0.000 FEB: -16.799
USER: RMSD 2.471827
USER: SEED 44
USER: STATUS no improvement in best in 2 clusters for 5 generations
USER: GENES 24
USER: genes 0 Translation |==|  0.59450 0.69011 0.54325
USER: genes 1 Rotation |==|  0.51595 0.48595 0.46547 0.99835
USER: genes 2 Torsion [CB]-CA--N-[C] |==|  0.24785
USER: genes 3 Torsion [N]-C--CA-[N] |==|  0.30915
USER: genes 4 Torsion [C]-CA--N-[C] |==|  0.72833
USER: genes 5 Torsion [N]-C--CA-[N] |==|  0.38078
USER: genes 6 Torsion [C]-CA--N-[C] |==|  0.74440
USER: genes 7 Torsion [C]-CA--CB-[CG1] |==|  0.13184
USER: genes 8 Torsion [C]-CA--CB-[CG] |==|  0.43370
USER: genes 9 Torsion [CA]-CB--CG-[CD2] |==|  0.08643
USER: genes 10 Torsion [N]-CA--C-[N] |==|  0.97034
USER: genes 11 Torsion [C]-N--CA-[CB] |==|  0.38109
USER: genes 12 Torsion [N]-CA--C-[N] |==|  0.50291
USER: genes 13 Torsion [C]-N--CA-[CB] |==|  0.80148
USER: genes 14 Torsion [N]-CA--C-[N] |==|  0.59405
USER: genes 15 Torsion [C]-N--CA-[C] |==|  0.78526
USER: genes 16 Torsion [N]-CA--C-[N] |==|  0.17238
USER: genes 17 Torsion [N]-CA--CB-[CG] |==|  0.15388
USER: genes 18 Torsion [CA]-CB--CG-[OD1] |==|  0.88537
USER: genes 19 Torsion [N]-CA--CB-[CG] |==|  0.96748
USER: genes 20 Torsion [CA]-CB--CG-[CD] |==|  0.42571
USER: genes 21 Torsion [CB]-CG--CD-[OE2] |==|  0.79057
USER: genes 22 Torsion [N]-CA--CB-[CG] |==|  0.11475
USER: genes 23 Torsion [CA]-CB--CG-[CD1] |==|  0.14652
ROOT
ATOM      1  CA  PHE B  20     -24.369   3.500   5.046  1.00 13.23 LIG 0.18  C 
ENDROOT
BRANCH 1 2
ATOM      2  N   PHE B  20     -25.525   2.664   5.400  1.00 12.51 LIG-0.35  N 
ATOM      3  C   PHE B  19     -26.678   2.741   4.745  1.00 15.18 LIG 0.24  C 
ATOM      4 O    PHE B  19     -26.793   3.368   3.656  1.00 16.84 LIG-0.27  OA
ATOM      5 H    PHE B  20     -25.385   2.130   6.060  1.00 12.51 LIG 0.16  HD
BRANCH 3 6
ATOM      6  CA  PHE B  19     -27.853   2.041   5.430  1.00 13.80 LIG 0.18  C 
BRANCH 6 7
ATOM      7  N   PHE B  19     -28.793   3.082   5.886  1.00 15.46 LIG-0.35  N 
ATOM      8 H    PHE B  19     -29.335   3.379   5.288  1.00 15.46 LIG 0.16  HD
ATOM      9  C   VAL B  18     -28.753   3.499   7.175  1.00 17.87 LIG 0.24  C 
ATOM     10 O    VAL B  18     -27.804   3.168   7.989  1.00 14.98 LIG-0.27  OA
BRANCH 9 11
ATOM     11  CA  VAL B  18     -29.874   4.381   7.674  1.00 19.74 LIG 0.18  C 
BRANCH 11 12
ATOM     12  N   VAL B  18     -30.258   3.919   8.997  1.00 21.15 LIG-0.35  N 
ATOM     13 H    VAL B  18     -29.794   4.285   9.621  1.00 21.15 LIG 0.16  HD
ATOM     14  C   ACE B  17     -31.280   2.969   9.280  1.00 26.64 LIG 0.21  C 
ATOM     15  CH3 ACE B  17     -31.595   2.549  10.722  1.00 30.92 LIG 0.12  C 
ATOM     16 O    ACE B  17     -31.751   2.420   8.291  1.00 27.10 LIG-0.27  OA
ENDBRANCH 11 12
BRANCH 11 17
ATOM     17  CB  VAL B  18     -29.463   5.855   7.762  1.00 20.98 LIG 0.01  C 
ATOM     18  CG1 VAL B  18     -28.764   6.271   6.474  1.00 20.40 LIG 0.01  C 
ATOM     19  CG2 VAL B  18     -30.722   6.695   7.885  1.00 23.95 LIG 0.01  C 
ENDBRANCH 11 17
ENDBRANCH 9 11
ENDBRANCH 6 7
BRANCH 6 20
ATOM     20  CB  PHE B  19     -28.577   1.027   4.517  1.00 13.70 LIG 0.07  C 
BRANCH 20 21
ATOM     21  CG  PHE B  19     -29.295  -0.015   5.302  1.00 13.96 LIG-0.06  A 
ATOM     22  CD2 PHE B  19     -29.837   0.272   6.573  1.00 16.27 LIG 0.01  A 
ATOM     23  CE2 PHE B  19     -30.490  -0.731   7.317  1.00 18.04 LIG 0.00  A 
ATOM     24  CZ  PHE B  19     -30.597  -2.022   6.779  1.00 16.65 LIG 0.00  A 
ATOM     25  CE1 PHE B  19     -30.011  -2.315   5.548  1.00 14.87 LIG 0.00  A 
ATOM     26  CD1 PHE B  19     -29.375  -1.311   4.800  1.00 13.97 LIG 0.01  A 
ENDBRANCH 20 21
ENDBRANCH 6 20
ENDBRANCH 3 6
ENDBRANCH 1 2
BRANCH 1 27
ATOM     27  C   PHE B  20     -23.003   2.856   5.318  1.00 13.67 LIG 0.24  C 
ATOM     28  N   ALA B  21     -23.000   1.737   6.029  1.00 11.86 LIG-0.35  N 
ATOM     29 H    ALA B  21     -23.696   1.340   6.340  1.00 11.86 LIG 0.16  HD
ATOM     30 O    PHE B  20     -22.008   3.435   4.864  1.00 17.11 LIG-0.27  OA
BRANCH 28 31
ATOM     31  CA  ALA B  21     -21.696   1.091   6.330  1.00 10.94 LIG 0.17  C 
ATOM     32  CB  ALA B  21     -21.709   0.630   7.818  1.00 11.33 LIG 0.04  C 
BRANCH 31 33
ATOM     33  C   ALA B  21     -21.560  -0.146   5.406  1.00  9.64 LIG 0.24  C 
ATOM     34  N   GLU B  22     -20.436  -0.884   5.550  1.00 10.05 LIG-0.35  N 
ATOM     35 H    GLU B  22     -19.781  -0.683   6.069  1.00 10.05 LIG 0.16  HD
ATOM     36 O    ALA B  21     -22.417  -0.405   4.538  1.00 10.80 LIG-0.27  OA
BRANCH 34 37
ATOM     37  CA  GLU B  22     -20.271  -2.120   4.794  1.00 10.43 LIG 0.18  C 
BRANCH 37 38
ATOM     38  C   GLU B  22     -20.412  -1.949   3.296  1.00 11.07 LIG 0.24  C 
ATOM     39  N   ASP B  23     -20.964  -2.986   2.629  1.00 12.14 LIG-0.34  N 
ATOM     40 H    ASP B  23     -21.212  -3.717   3.009  1.00 12.14 LIG 0.16  HD
ATOM     41 O    GLU B  22     -19.919  -0.921   2.773  1.00 12.27 LIG-0.27  OA
BRANCH 39 42
ATOM     42  CA  ASP B  23     -21.189  -2.959   1.208  1.00 13.57 LIG 0.19  C 
BRANCH 42 43
ATOM     43  C   ASP B  23     -22.429  -2.121   0.791  1.00 15.91 LIG 0.28  C 
ATOM     44  N   NH2 B  24     -22.433  -0.816   1.072  1.00 17.15 LIG-0.11  N 
ATOM     45 O    ASP B  23     -23.316  -2.612   0.117  1.00 19.42 LIG-0.27  OA
ENDBRANCH 42 43
BRANCH 42 46
ATOM     46  CB  ASP B  23     -21.397  -4.414   0.720  1.00 14.94 LIG 0.15  C 
BRANCH 46 47
ATOM     47  CG  ASP B  23     -22.532  -5.132   1.475  1.00 15.16 LIG 0.17  C 
ATOM     48 OD1  ASP B  23     -22.635  -4.972   2.698  1.00 16.89 LIG-0.65  OA
ATOM     49 OD2  ASP B  23     -23.147  -5.983   0.828  1.00 15.99 LIG-0.65  OA
ENDBRANCH 46 47
ENDBRANCH 42 46
ENDBRANCH 39 42
ENDBRANCH 37 38
BRANCH 37 50
ATOM     50  CB  GLU B  22     -21.243  -3.258   5.353  1.00 10.35 LIG 0.04  C 
BRANCH 50 51
ATOM     51  CG  GLU B  22     -21.891  -2.889   6.695  1.00 11.07 LIG 0.12  C 
BRANCH 51 52
ATOM     52  CD  GLU B  22     -23.222  -3.612   6.853  1.00 10.74 LIG 0.17  C 
ATOM     53 OE2  GLU B  22     -24.217  -3.200   6.200  1.00 11.81 LIG-0.65  OA
ATOM     54 OE1  GLU B  22     -23.255  -4.581   7.610  1.00 10.65 LIG-0.65  OA
ENDBRANCH 51 52
ENDBRANCH 50 51
ENDBRANCH 37 50
ENDBRANCH 34 37
ENDBRANCH 31 33
ENDBRANCH 28 31
ENDBRANCH 1 27
BRANCH 1 55
ATOM     55  CB  PHE B  20     -24.397   4.812   5.801  1.00 13.46 LIG 0.07  C 
BRANCH 55 56
ATOM     56  CG  PHE B  20     -24.809   4.659   7.241  1.00 12.78 LIG-0.06  A 
ATOM     57  CD2 PHE B  20     -25.864   5.394   7.752  1.00 14.51 LIG 0.01  A 
ATOM     58  CE2 PHE B  20     -26.345   5.198   9.075  1.00 14.84 LIG 0.00  A 
ATOM     59  CZ  PHE B  20     -25.660   4.281   9.908  1.00 14.03 LIG 0.00  A 
ATOM     60  CE1 PHE B  20     -24.601   3.573   9.390  1.00 13.64 LIG 0.00  A 
ATOM     61  CD1 PHE B  20     -24.137   3.734   8.051  1.00 13.32 LIG 0.01  A 
ENDBRANCH 55 56
ENDBRANCH 1 55
TORSDOF 22
ENDMDL
MODEL 2
USER: ADFR SOLUTION from run 149
USER: SCORE 22.306162 LL:  -5.148 LR: -22.026 RR:   0.000 FEB: -15.464
USER: RMSD 0.955174
USER: SEED 148
USER: STATUS no improvement in best in 3 clusters for 5 generations
USER: GENES 24
USER: genes 0 Translation |==|  0.56515 0.66114 0.51988
USER: genes 1 Rotation |==|  0.47728 0.52428 0.51166 0.99876
USER: genes 2 Torsion [CB]-CA--N-[C] |==|  0.37617
USER: genes 3 Torsion [N]-C--CA-[N] |==|  0.25924
USER: genes 4 Torsion [C]-CA--N-[C] |==|  0.70003
USER: genes 5 Torsion [N]-C--CA-[N] |==|  0.97439
USER: genes 6 Torsion [C]-CA--N-[C] |==|  0.79761
USER: genes 7 Torsion [C]-CA--CB-[CG1] |==|  0.20464
USER: genes 8 Torsion [C]-CA--CB-[CG] |==|  0.57866
USER: genes 9 Torsion [CA]-CB--CG-[CD2] |==|  0.29463
USER: genes 10 Torsion [N]-CA--C-[N] |==|  0.94886
USER: genes 11 Torsion [C]-N--CA-[CB] |==|  0.40825
USER: genes 12 Torsion [N]-CA--C-[N] |==|  0.59289
USER: genes 13 Torsion [C]-N--CA-[CB] |==|  0.76062
USER: genes 14 Torsion [N]-CA--C-[N] |==|  0.63660
USER: genes 15 Torsion [C]-N--CA-[C] |==|  0.75096
USER: genes 16 Torsion [N]-CA--C-[N] |==|  0.14794
USER: genes 17 Torsion [N]-CA--CB-[CG] |==|  0.17275
USER: genes 18 Torsion [CA]-CB--CG-[OD1] |==|  0.97234
USER: genes 19 Torsion [N]-CA--CB-[CG] |==|  0.99644
USER: genes 20 Torsion [CA]-CB--CG-[CD] |==|  0.47882
USER: genes 21 Torsion [CB]-CG--CD-[OE2] |==|  0.21341
USER: genes 22 Torsion [N]-CA--CB-[CG] |==|  0.10822
USER: genes 23 Torsion [CA]-CB--CG-[CD1] |==|  0.20910
ROOT
ATOM      1  CA  PHE B  20     -25.007   2.935   4.608  1.00 13.23 LIG 0.18  C 
ENDROOT
BRANCH 1 2
ATOM      2  N   PHE B  20     -25.915   1.982   5.261  1.00 12.51 LIG-0.35  N 
ATOM      3  C   PHE B  19     -26.614   1.087   4.570  1.00 15.18 LIG 0.24  C 
ATOM      4 O    PHE B  19     -26.387   0.851   3.351  1.00 16.84 LIG-0.27  OA
ATOM      5 H    PHE B  20     -25.950   2.058   6.117  1.00 12.51 LIG 0.16  HD
BRANCH 3 6
ATOM      6  CA  PHE B  19     -27.726   0.394   5.358  1.00 13.80 LIG 0.18  C 
BRANCH 6 7
ATOM      7  N   PHE B  19     -28.973   1.150   5.134  1.00 15.46 LIG-0.35  N 
ATOM      8 H    PHE B  19     -29.319   1.069   4.351  1.00 15.46 LIG 0.16  HD
ATOM      9  C   VAL B  18     -29.488   1.903   6.137  1.00 17.87 LIG 0.24  C 
ATOM     10 O    VAL B  18     -28.841   2.148   7.230  1.00 14.98 LIG-0.27  OA
BRANCH 9 11
ATOM     11  CA  VAL B  18     -30.878   2.468   5.964  1.00 19.74 LIG 0.18  C 
BRANCH 11 12
ATOM     12  N   VAL B  18     -31.293   2.232   4.591  1.00 21.15 LIG-0.35  N 
ATOM     13 H    VAL B  18     -31.889   1.615   4.529  1.00 21.15 LIG 0.16  HD
ATOM     14  C   ACE B  17     -30.800   2.919   3.446  1.00 26.64 LIG 0.21  C 
ATOM     15  CH3 ACE B  17     -31.309   2.580   2.038  1.00 30.92 LIG 0.12  C 
ATOM     16 O    ACE B  17     -29.849   3.661   3.668  1.00 27.10 LIG-0.27  OA
ENDBRANCH 11 12
BRANCH 11 17
ATOM     17  CB  VAL B  18     -31.894   1.818   6.909  1.00 20.98 LIG 0.01  C 
ATOM     18  CG1 VAL B  18     -31.673   2.326   8.329  1.00 20.40 LIG 0.01  C 
ATOM     19  CG2 VAL B  18     -33.286   2.254   6.486  1.00 23.95 LIG 0.01  C 
ENDBRANCH 11 17
ENDBRANCH 9 11
ENDBRANCH 6 7
BRANCH 6 20
ATOM     20  CB  PHE B  19     -27.920  -1.088   4.970  1.00 13.70 LIG 0.07  C 
BRANCH 20 21
ATOM     21  CG  PHE B  19     -29.323  -1.541   5.187  1.00 13.96 LIG-0.06  A 
ATOM     22  CD2 PHE B  19     -30.200  -1.749   4.102  1.00 16.27 LIG 0.01  A 
ATOM     23  CE2 PHE B  19     -31.531  -2.153   4.324  1.00 18.04 LIG 0.00  A 
ATOM     24  CZ  PHE B  19     -31.978  -2.345   5.639  1.00 16.65 LIG 0.00  A 
ATOM     25  CE1 PHE B  19     -31.125  -2.083   6.711  1.00 14.87 LIG 0.00  A 
ATOM     26  CD1 PHE B  19     -29.793  -1.698   6.488  1.00 13.97 LIG 0.01  A 
ENDBRANCH 20 21
ENDBRANCH 6 20
ENDBRANCH 3 6
ENDBRANCH 1 2
BRANCH 1 27
ATOM     27  C   PHE B  20     -23.518   2.587   4.727  1.00 13.67 LIG 0.24  C 
ATOM     28  N   ALA B  21     -23.178   1.730   5.679  1.00 11.86 LIG-0.35  N 
ATOM     29 H    ALA B  21     -23.721   1.348   6.225  1.00 11.86 LIG 0.16  HD
ATOM     30 O    PHE B  20     -22.746   3.141   3.935  1.00 17.11 LIG-0.27  OA
BRANCH 28 31
ATOM     31  CA  ALA B  21     -21.742   1.379   5.840  1.00 10.94 LIG 0.17  C 
ATOM     32  CB  ALA B  21     -21.467   1.121   7.351  1.00 11.33 LIG 0.04  C 
BRANCH 31 33
ATOM     33  C   ALA B  21     -21.483   0.079   5.036  1.00  9.64 LIG 0.24  C 
ATOM     34  N   GLU B  22     -20.561  -0.769   5.546  1.00 10.05 LIG-0.35  N 
ATOM     35 H    GLU B  22     -20.080  -0.610   6.240  1.00 10.05 LIG 0.16  HD
ATOM     36 O    ALA B  21     -22.054  -0.137   3.949  1.00 10.80 LIG-0.27  OA
BRANCH 34 37
ATOM     37  CA  GLU B  22     -20.326  -2.060   4.911  1.00 10.43 LIG 0.18  C 
BRANCH 37 38
ATOM     38  C   GLU B  22     -20.322  -2.011   3.398  1.00 11.07 LIG 0.24  C 
ATOM     39  N   ASP B  23     -21.086  -2.933   2.772  1.00 12.14 LIG-0.34  N 
ATOM     40 H    ASP B  23     -21.542  -3.534   3.187  1.00 12.14 LIG 0.16  HD
ATOM     41 O    GLU B  22     -19.543  -1.203   2.839  1.00 12.27 LIG-0.27  OA
BRANCH 39 42
ATOM     42  CA  ASP B  23     -21.205  -2.994   1.340  1.00 13.57 LIG 0.19  C 
BRANCH 42 43
ATOM     43  C   ASP B  23     -22.365  -2.128   0.776  1.00 15.91 LIG 0.28  C 
ATOM     44  N   NH2 B  24     -22.417  -0.839   1.120  1.00 17.15 LIG-0.11  N 
ATOM     45 O    ASP B  23     -23.134  -2.579  -0.055  1.00 19.42 LIG-0.27  OA
ENDBRANCH 42 43
BRANCH 42 46
ATOM     46  CB  ASP B  23     -21.454  -4.468   0.932  1.00 14.94 LIG 0.15  C 
BRANCH 46 47
ATOM     47  CG  ASP B  23     -22.768  -5.024   1.513  1.00 15.16 LIG 0.17  C 
ATOM     48 OD1  ASP B  23     -23.379  -4.362   2.360  1.00 16.89 LIG-0.65  OA
ATOM     49 OD2  ASP B  23     -23.019  -6.199   1.231  1.00 15.99 LIG-0.65  OA
ENDBRANCH 46 47
ENDBRANCH 42 46
ENDBRANCH 39 42
ENDBRANCH 37 38
BRANCH 37 50
ATOM     50  CB  GLU B  22     -21.350  -3.155   5.464  1.00 10.35 LIG 0.04  C 
BRANCH 50 51
ATOM     51  CG  GLU B  22     -22.300  -2.603   6.537  1.00 11.07 LIG 0.12  C 
BRANCH 51 52
ATOM     52  CD  GLU B  22     -23.363  -3.637   6.880  1.00 10.74 LIG 0.17  C 
ATOM     53 OE2  GLU B  22     -23.049  -4.607   7.620  1.00 11.81 LIG-0.65  OA
ATOM     54 OE1  GLU B  22     -24.492  -3.466   6.422  1.00 10.65 LIG-0.65  OA
ENDBRANCH 51 52
ENDBRANCH 50 51
ENDBRANCH 37 50
ENDBRANCH 34 37
ENDBRANCH 31 33
ENDBRANCH 28 31
ENDBRANCH 1 27
BRANCH 1 55
ATOM     55  CB  PHE B  20     -25.182   4.328   5.176  1.00 13.46 LIG 0.07  C 
BRANCH 55 56
ATOM     56  CG  PHE B  20     -25.403   4.337   6.665  1.00 12.78 LIG-0.06  A 
ATOM     57  CD2 PHE B  20     -26.670   4.532   7.186  1.00 14.51 LIG 0.01  A 
ATOM     58  CE2 PHE B  20     -26.931   4.443   8.580  1.00 14.84 LIG 0.00  A 
ATOM     59  CZ  PHE B  20     -25.839   4.232   9.454  1.00 14.03 LIG 0.00  A 
ATOM     60  CE1 PHE B  20     -24.582   4.060   8.921  1.00 13.64 LIG 0.00  A 
ATOM     61  CD1 PHE B  20     -24.318   4.108   7.520  1.00 13.32 LIG 0.01  A 
ENDBRANCH 55 56
ENDBRANCH 1 55
TORSDOF 22
ENDMDL
MODEL 3
USER: ADFR SOLUTION from run 70
USER: SCORE 23.583867 LL:  -5.842 LR: -21.924 RR:   0.000 FEB: -15.361
USER: RMSD 3.408731
USER: SEED 69
USER: STATUS no improvement in best in 3 clusters for 5 generations
USER: GENES 24
USER: genes 0 Translation |==|  0.61254 0.69977 0.55473
USER: genes 1 Rotation |==|  0.54909 0.46316 0.43502 0.99195
USER: genes 2 Torsion [CB]-CA--N-[C] |==|  0.19790
USER: genes 3 Torsion [N]-C--CA-[N] |==|  0.89621
USER: genes 4 Torsion [C]-CA--N-[C] |==|  0.63246
USER: genes 5 Torsion [N]-C--CA-[N] |==|  0.42327
USER: genes 6 Torsion [C]-CA--N-[C] |==|  0.76319
USER: genes 7 Torsion [C]-CA--CB-[CG1] |==|  0.07408
USER: genes 8 Torsion [C]-CA--CB-[CG] |==|  0.44818
USER: genes 9 Torsion [CA]-CB--CG-[CD2] |==|  0.30015
USER: genes 10 Torsion [N]-CA--C-[N] |==|  0.97417
USER: genes 11 Torsion [C]-N--CA-[CB] |==|  0.37137
USER: genes 12 Torsion [N]-CA--C-[N] |==|  0.50488
USER: genes 13 Torsion [C]-N--CA-[CB] |==|  0.81653
USER: genes 14 Torsion [N]-CA--C-[N] |==|  0.59908
USER: genes 15 Torsion [C]-N--CA-[C] |==|  0.78094
USER: genes 16 Torsion [N]-CA--C-[N] |==|  0.95400
USER: genes 17 Torsion [N]-CA--CB-[CG] |==|  0.17315
USER: genes 18 Torsion [CA]-CB--CG-[OD1] |==|  0.70065
USER: genes 19 Torsion [N]-CA--CB-[CG] |==|  0.79908
USER: genes 20 Torsion [CA]-CB--CG-[CD] |==|  0.35319
USER: genes 21 Torsion [CB]-CG--CD-[OE2] |==|  0.54532
USER: genes 22 Torsion [N]-CA--CB-[CG] |==|  0.11294
USER: genes 23 Torsion [CA]-CB--CG-[CD1] |==|  0.20077
ROOT
ATOM      1  CA  PHE B  20     -23.976   3.689   5.261  1.00 13.23 LIG 0.18  C 
ENDROOT
BRANCH 1 2
ATOM      2  N   PHE B  20     -25.251   2.970   5.396  1.00 12.51 LIG-0.35  N 
ATOM      3  C   PHE B  19     -26.395   3.471   4.938  1.00 15.18 LIG 0.24  C 
ATOM      4 O    PHE B  19     -26.433   4.477   4.179  1.00 16.84 LIG-0.27  OA
ATOM      5 H    PHE B  20     -25.187   2.209   5.791  1.00 12.51 LIG 0.16  HD
BRANCH 3 6
ATOM      6  CA  PHE B  19     -27.651   2.751   5.430  1.00 13.80 LIG 0.18  C 
BRANCH 6 7
ATOM      7  N   PHE B  19     -27.348   1.308   5.492  1.00 15.46 LIG-0.35  N 
ATOM      8 H    PHE B  19     -26.609   1.103   5.881  1.00 15.46 LIG 0.16  HD
ATOM      9  C   VAL B  18     -28.217   0.419   4.953  1.00 17.87 LIG 0.24  C 
ATOM     10 O    VAL B  18     -29.216   0.777   4.215  1.00 14.98 LIG-0.27  OA
BRANCH 9 11
ATOM     11  CA  VAL B  18     -28.004  -1.049   5.241  1.00 19.74 LIG 0.18  C 
BRANCH 11 12
ATOM     12  N   VAL B  18     -29.294  -1.715   5.170  1.00 21.15 LIG-0.35  N 
ATOM     13 H    VAL B  18     -29.446  -2.057   4.396  1.00 21.15 LIG 0.16  HD
ATOM     14  C   ACE B  17     -30.236  -1.815   6.233  1.00 26.64 LIG 0.21  C 
ATOM     15  CH3 ACE B  17     -31.576  -2.538   6.040  1.00 30.92 LIG 0.12  C 
ATOM     16 O    ACE B  17     -29.955  -1.152   7.225  1.00 27.10 LIG-0.27  OA
ENDBRANCH 11 12
BRANCH 11 17
ATOM     17  CB  VAL B  18     -27.049  -1.708   4.240  1.00 20.98 LIG 0.01  C 
ATOM     18  CG1 VAL B  18     -26.096  -0.663   3.675  1.00 20.40 LIG 0.01  C 
ATOM     19  CG2 VAL B  18     -26.209  -2.731   4.985  1.00 23.95 LIG 0.01  C 
ENDBRANCH 11 17
ENDBRANCH 9 11
ENDBRANCH 6 7
BRANCH 6 20
ATOM     20  CB  PHE B  19     -28.147   3.254   6.803  1.00 13.70 LIG 0.07  C 
BRANCH 20 21
ATOM     21  CG  PHE B  19     -29.568   2.883   7.053  1.00 13.96 LIG-0.06  A 
ATOM     22  CD2 PHE B  19     -29.908   1.887   7.993  1.00 16.27 LIG 0.01  A 
ATOM     23  CE2 PHE B  19     -31.254   1.527   8.200  1.00 18.04 LIG 0.00  A 
ATOM     24  CZ  PHE B  19     -32.257   2.170   7.459  1.00 16.65 LIG 0.00  A 
ATOM     25  CE1 PHE B  19     -31.912   3.113   6.491  1.00 14.87 LIG 0.00  A 
ATOM     26  CD1 PHE B  19     -30.571   3.483   6.297  1.00 13.97 LIG 0.01  A 
ENDBRANCH 20 21
ENDBRANCH 6 20
ENDBRANCH 3 6
ENDBRANCH 1 2
BRANCH 1 27
ATOM     27  C   PHE B  20     -22.730   2.846   5.563  1.00 13.67 LIG 0.24  C 
ATOM     28  N   ALA B  21     -22.931   1.646   6.088  1.00 11.86 LIG-0.35  N 
ATOM     29 H    ALA B  21     -23.698   1.299   6.263  1.00 11.86 LIG 0.16  HD
ATOM     30 O    PHE B  20     -21.632   3.355   5.306  1.00 17.11 LIG-0.27  OA
BRANCH 28 31
ATOM     31  CA  ALA B  21     -21.750   0.805   6.412  1.00 10.94 LIG 0.17  C 
ATOM     32  CB  ALA B  21     -21.946   0.212   7.839  1.00 11.33 LIG 0.04  C 
BRANCH 31 33
ATOM     33  C   ALA B  21     -21.694  -0.347   5.376  1.00  9.64 LIG 0.24  C 
ATOM     34  N   GLU B  22     -20.697  -1.247   5.530  1.00 10.05 LIG-0.35  N 
ATOM     35 H    GLU B  22     -20.073  -1.191   6.119  1.00 10.05 LIG 0.16  HD
ATOM     36 O    ALA B  21     -22.493  -0.399   4.420  1.00 10.80 LIG-0.27  OA
BRANCH 34 37
ATOM     37  CA  GLU B  22     -20.628  -2.418   4.664  1.00 10.43 LIG 0.18  C 
BRANCH 37 38
ATOM     38  C   GLU B  22     -20.473  -2.087   3.195  1.00 11.07 LIG 0.24  C 
ATOM     39  N   ASP B  23     -21.110  -2.908   2.331  1.00 12.14 LIG-0.34  N 
ATOM     40 H    ASP B  23     -21.568  -3.594   2.577  1.00 12.14 LIG 0.16  HD
ATOM     41 O    GLU B  22     -19.693  -1.157   2.881  1.00 12.27 LIG-0.27  OA
BRANCH 39 42
ATOM     42  CA  ASP B  23     -21.079  -2.705   0.907  1.00 13.57 LIG 0.19  C 
BRANCH 42 43
ATOM     43  C   ASP B  23     -22.053  -1.600   0.415  1.00 15.91 LIG 0.28  C 
ATOM     44  N   NH2 B  24     -23.026  -1.203   1.239  1.00 17.15 LIG-0.11  N 
ATOM     45 O    ASP B  23     -21.862  -1.022  -0.640  1.00 19.42 LIG-0.27  OA
ENDBRANCH 42 43
BRANCH 42 46
ATOM     46  CB  ASP B  23     -21.465  -4.037   0.216  1.00 14.94 LIG 0.15  C 
BRANCH 46 47
ATOM     47  CG  ASP B  23     -22.895  -4.489   0.567  1.00 15.16 LIG 0.17  C 
ATOM     48 OD1  ASP B  23     -23.052  -5.457   1.322  1.00 16.89 LIG-0.65  OA
ATOM     49 OD2  ASP B  23     -23.796  -3.968  -0.095  1.00 15.99 LIG-0.65  OA
ENDBRANCH 46 47
ENDBRANCH 42 46
ENDBRANCH 39 42
ENDBRANCH 37 38
BRANCH 37 50
ATOM     50  CB  GLU B  22     -21.872  -3.387   4.923  1.00 10.35 LIG 0.04  C 
BRANCH 50 51
ATOM     51  CG  GLU B  22     -21.782  -4.136   6.260  1.00 11.07 LIG 0.12  C 
BRANCH 51 52
ATOM     52  CD  GLU B  22     -23.058  -3.931   7.065  1.00 10.74 LIG 0.17  C 
ATOM     53 OE2  GLU B  22     -23.049  -4.202   8.295  1.00 11.81 LIG-0.65  OA
ATOM     54 OE1  GLU B  22     -24.042  -3.495   6.469  1.00 10.65 LIG-0.65  OA
ENDBRANCH 51 52
ENDBRANCH 50 51
ENDBRANCH 37 50
ENDBRANCH 34 37
ENDBRANCH 31 33
ENDBRANCH 28 31
ENDBRANCH 1 27
BRANCH 1 55
ATOM     55  CB  PHE B  20     -23.932   4.890   6.182  1.00 13.46 LIG 0.07  C 
BRANCH 55 56
ATOM     56  CG  PHE B  20     -24.520   4.619   7.540  1.00 12.78 LIG-0.06  A 
ATOM     57  CD2 PHE B  20     -25.760   5.129   7.883  1.00 14.51 LIG 0.01  A 
ATOM     58  CE2 PHE B  20     -26.390   4.806   9.115  1.00 14.84 LIG 0.00  A 
ATOM     59  CZ  PHE B  20     -25.680   4.007  10.043  1.00 14.03 LIG 0.00  A 
ATOM     60  CE1 PHE B  20     -24.440   3.525   9.694  1.00 13.64 LIG 0.00  A 
ATOM     61  CD1 PHE B  20     -23.817   3.810   8.443  1.00 13.32 LIG 0.01  A 
ENDBRANCH 55 56
ENDBRANCH 1 55
TORSDOF 22
ENDMDL
MODEL 4
USER: ADFR SOLUTION from run 38
USER: SCORE 23.776647 LL:  -5.553 LR: -21.685 RR:   0.000 FEB: -15.122
USER: RMSD 2.090997
USER: SEED 37
USER: STATUS no improvement in best in 3 clusters for 5 generations
USER: GENES 24
USER: genes 0 Translation |==|  0.58669 0.70140 0.53913
USER: genes 1 Rotation |==|  0.50876 0.46186 0.47994 0.99806
USER: genes 2 Torsion [CB]-CA--N-[C] |==|  0.19879
USER: genes 3 Torsion [N]-C--CA-[N] |==|  0.36448
USER: genes 4 Torsion [C]-CA--N-[C] |==|  0.64225
USER: genes 5 Torsion [N]-C--CA-[N] |==|  0.83563
USER: genes 6 Torsion [C]-CA--N-[C] |==|  0.70288
USER: genes 7 Torsion [C]-CA--CB-[CG1] |==|  0.22066
USER: genes 8 Torsion [C]-CA--CB-[CG] |==|  0.20788
USER: genes 9 Torsion [CA]-CB--CG-[CD2] |==|  0.31121
USER: genes 10 Torsion [N]-CA--C-[N] |==|  0.04512
USER: genes 11 Torsion [C]-N--CA-[CB] |==|  0.30047
USER: genes 12 Torsion [N]-CA--C-[N] |==|  0.52855
USER: genes 13 Torsion [C]-N--CA-[CB] |==|  0.77771
USER: genes 14 Torsion [N]-CA--C-[N] |==|  0.58319
USER: genes 15 Torsion [C]-N--CA-[C] |==|  0.81423
USER: genes 16 Torsion [N]-CA--C-[N] |==|  0.96327
USER: genes 17 Torsion [N]-CA--CB-[CG] |==|  0.18433
USER: genes 18 Torsion [CA]-CB--CG-[OD1] |==|  0.95410
USER: genes 19 Torsion [N]-CA--CB-[CG] |==|  0.95083
USER: genes 20 Torsion [CA]-CB--CG-[CD] |==|  0.45359
USER: genes 21 Torsion [CB]-CG--CD-[OE2] |==|  0.28833
USER: genes 22 Torsion [N]-CA--CB-[CG] |==|  0.12562
USER: genes 23 Torsion [CA]-CB--CG-[CD1] |==|  0.19618
ROOT
ATOM      1  CA  PHE B  20     -24.538   3.720   4.969  1.00 13.23 LIG 0.18  C 
ENDROOT
BRANCH 1 2
ATOM      2  N   PHE B  20     -25.678   2.834   5.245  1.00 12.51 LIG-0.35  N 
ATOM      3  C   PHE B  19     -26.880   3.047   4.719  1.00 15.18 LIG 0.24  C 
ATOM      4 O    PHE B  19     -27.072   3.881   3.793  1.00 16.84 LIG-0.27  OA
ATOM      5 H    PHE B  20     -25.495   2.177   5.768  1.00 12.51 LIG 0.16  HD
BRANCH 3 6
ATOM      6  CA  PHE B  19     -28.008   2.227   5.347  1.00 13.80 LIG 0.18  C 
BRANCH 6 7
ATOM      7  N   PHE B  19     -29.117   3.150   5.656  1.00 15.46 LIG-0.35  N 
ATOM      8 H    PHE B  19     -29.370   3.654   5.006  1.00 15.46 LIG 0.16  HD
ATOM      9  C   VAL B  18     -29.658   3.153   6.898  1.00 17.87 LIG 0.24  C 
ATOM     10 O    VAL B  18     -29.128   2.519   7.893  1.00 14.98 LIG-0.27  OA
BRANCH 9 11
ATOM     11  CA  VAL B  18     -30.938   3.926   7.117  1.00 19.74 LIG 0.18  C 
BRANCH 11 12
ATOM     12  N   VAL B  18     -30.690   5.316   6.774  1.00 21.15 LIG-0.35  N 
ATOM     13 H    VAL B  18     -30.622   5.438   5.925  1.00 21.15 LIG 0.16  HD
ATOM     14  C   ACE B  17     -30.566   6.390   7.700  1.00 26.64 LIG 0.21  C 
ATOM     15  CH3 ACE B  17     -30.296   7.823   7.220  1.00 30.92 LIG 0.12  C 
ATOM     16 O    ACE B  17     -30.532   6.046   8.876  1.00 27.10 LIG-0.27  OA
ENDBRANCH 11 12
BRANCH 11 17
ATOM     17  CB  VAL B  18     -32.092   3.399   6.258  1.00 20.98 LIG 0.01  C 
ATOM     18  CG1 VAL B  18     -32.682   2.149   6.900  1.00 20.40 LIG 0.01  C 
ATOM     19  CG2 VAL B  18     -33.187   4.453   6.233  1.00 23.95 LIG 0.01  C 
ENDBRANCH 11 17
ENDBRANCH 9 11
ENDBRANCH 6 7
BRANCH 6 20
ATOM     20  CB  PHE B  19     -28.504   1.076   4.443  1.00 13.70 LIG 0.07  C 
BRANCH 20 21
ATOM     21  CG  PHE B  19     -27.543  -0.061   4.412  1.00 13.96 LIG-0.06  A 
ATOM     22  CD2 PHE B  19     -27.867  -1.307   4.991  1.00 16.27 LIG 0.01  A 
ATOM     23  CE2 PHE B  19     -26.938  -2.366   4.978  1.00 18.04 LIG 0.00  A 
ATOM     24  CZ  PHE B  19     -25.683  -2.170   4.383  1.00 16.65 LIG 0.00  A 
ATOM     25  CE1 PHE B  19     -25.346  -0.919   3.864  1.00 14.87 LIG 0.00  A 
ATOM     26  CD1 PHE B  19     -26.278   0.131   3.862  1.00 13.97 LIG 0.01  A 
ENDBRANCH 20 21
ENDBRANCH 6 20
ENDBRANCH 3 6
ENDBRANCH 1 2
BRANCH 1 27
ATOM     27  C   PHE B  20     -23.174   3.162   5.394  1.00 13.67 LIG 0.24  C 
ATOM     28  N   ALA B  21     -23.110   1.862   5.642  1.00 11.86 LIG-0.35  N 
ATOM     29 H    ALA B  21     -23.763   1.307   5.575  1.00 11.86 LIG 0.16  HD
ATOM     30 O    PHE B  20     -22.241   3.969   5.486  1.00 17.11 LIG-0.27  OA
BRANCH 28 31
ATOM     31  CA  ALA B  21     -21.810   1.285   6.074  1.00 10.94 LIG 0.17  C 
ATOM     32  CB  ALA B  21     -21.916   0.915   7.584  1.00 11.33 LIG 0.04  C 
BRANCH 31 33
ATOM     33  C   ALA B  21     -21.567  -0.001   5.242  1.00  9.64 LIG 0.24  C 
ATOM     34  N   GLU B  22     -20.541  -0.787   5.637  1.00 10.05 LIG-0.35  N 
ATOM     35 H    GLU B  22     -19.992  -0.596   6.270  1.00 10.05 LIG 0.16  HD
ATOM     36 O    ALA B  21     -22.247  -0.256   4.229  1.00 10.80 LIG-0.27  OA
BRANCH 34 37
ATOM     37  CA  GLU B  22     -20.302  -2.065   4.975  1.00 10.43 LIG 0.18  C 
BRANCH 37 38
ATOM     38  C   GLU B  22     -20.334  -1.990   3.464  1.00 11.07 LIG 0.24  C 
ATOM     39  N   ASP B  23     -20.744  -3.107   2.823  1.00 12.14 LIG-0.34  N 
ATOM     40 H    ASP B  23     -20.961  -3.835   3.228  1.00 12.14 LIG 0.16  HD
ATOM     41 O    GLU B  22     -19.886  -0.955   2.917  1.00 12.27 LIG-0.27  OA
BRANCH 39 42
ATOM     42  CA  ASP B  23     -20.853  -3.180   1.390  1.00 13.57 LIG 0.19  C 
BRANCH 42 43
ATOM     43  C   ASP B  23     -21.967  -2.269   0.806  1.00 15.91 LIG 0.28  C 
ATOM     44  N   NH2 B  24     -22.861  -1.744   1.648  1.00 17.15 LIG-0.11  N 
ATOM     45 O    ASP B  23     -21.955  -1.940  -0.367  1.00 19.42 LIG-0.27  OA
ENDBRANCH 42 43
BRANCH 42 46
ATOM     46  CB  ASP B  23     -21.166  -4.645   0.998  1.00 14.94 LIG 0.15  C 
BRANCH 46 47
ATOM     47  CG  ASP B  23     -22.554  -5.101   1.485  1.00 15.16 LIG 0.17  C 
ATOM     48 OD1  ASP B  23     -23.131  -4.441   2.359  1.00 16.89 LIG-0.65  OA
ATOM     49 OD2  ASP B  23     -22.912  -6.219   1.105  1.00 15.99 LIG-0.65  OA
ENDBRANCH 46 47
ENDBRANCH 42 46
ENDBRANCH 39 42
ENDBRANCH 37 38
BRANCH 37 50
ATOM     50  CB  GLU B  22     -21.297  -3.184   5.533  1.00 10.35 LIG 0.04  C 
BRANCH 50 51
ATOM     51  CG  GLU B  22     -21.937  -2.804   6.876  1.00 11.07 LIG 0.12  C 
BRANCH 51 52
ATOM     52  CD  GLU B  22     -23.151  -3.681   7.147  1.00 10.74 LIG 0.17  C 
ATOM     53 OE2  GLU B  22     -23.049  -4.618   7.982  1.00 11.81 LIG-0.65  OA
ATOM     54 OE1  GLU B  22     -24.187  -3.421   6.537  1.00 10.65 LIG-0.65  OA
ENDBRANCH 51 52
ENDBRANCH 50 51
ENDBRANCH 37 50
ENDBRANCH 34 37
ENDBRANCH 31 33
ENDBRANCH 28 31
ENDBRANCH 1 27
BRANCH 1 55
ATOM     55  CB  PHE B  20     -24.708   5.054   5.666  1.00 13.46 LIG 0.07  C 
BRANCH 55 56
ATOM     56  CG  PHE B  20     -25.159   4.923   7.095  1.00 12.78 LIG-0.06  A 
ATOM     57  CD2 PHE B  20     -26.452   5.259   7.458  1.00 14.51 LIG 0.01  A 
ATOM     58  CE2 PHE B  20     -26.941   5.049   8.775  1.00 14.84 LIG 0.00  A 
ATOM     59  CZ  PHE B  20     -26.043   4.560   9.754  1.00 14.03 LIG 0.00  A 
ATOM     60  CE1 PHE B  20     -24.756   4.250   9.381  1.00 13.64 LIG 0.00  A 
ATOM     61  CD1 PHE B  20     -24.268   4.419   8.052  1.00 13.32 LIG 0.01  A 
ENDBRANCH 55 56
ENDBRANCH 1 55
TORSDOF 22
ENDMDL
