MODEL 1
USER: ADFR SOLUTION from run 176
USER: SCORE 21.085829 LL:  -2.254 LR: -20.166 RR:   0.000 FEB: -12.111
USER: RMSD 3.037225
USER: SEED 175
USER: STATUS no improvement in best in 2 clusters for 5 generations
USER: GENES 29
USER: genes 0 Translation |==|  0.59396 0.44447 0.46570
USER: genes 1 Rotation |==|  0.46206 0.56389 0.52787 0.99366
USER: genes 2 Torsion [N]-C--CA-[N] |==|  0.38125
USER: genes 3 Torsion [C]-CA--CB-[CG] |==|  0.46551
USER: genes 4 Torsion [CA]-CB--CG-[CD] |==|  0.50787
USER: genes 5 Torsion [CB]-CG--CD-[NE] |==|  0.15501
USER: genes 6 Torsion [CG]-CD--NE-[HE] |==|  0.21583
USER: genes 7 Torsion [C]-CA--N-[C] |==|  0.82294
USER: genes 8 Torsion [N]-C--CA-[N] |==|  0.53889
USER: genes 9 Torsion [C]-CA--N-[C] |==|  0.72447
USER: genes 10 Torsion [N]-C--CA-[N] |==|  0.95790
USER: genes 11 Torsion [C]-CA--CB-[OG] |==|  0.75375
USER: genes 12 Torsion [CA]-CB--OG-[HG] |==|  0.17541
USER: genes 13 Torsion [C]-CA--CB-[CG] |==|  0.40866
USER: genes 14 Torsion [CA]-CB--CG-[CD] |==|  0.23634
USER: genes 15 Torsion [CB]-CG--CD-[CE] |==|  0.48215
USER: genes 16 Torsion [CG]-CD--CE-[NZ] |==|  0.44297
USER: genes 17 Torsion [CD]-CE--NZ-[HZ3] |==|  0.56471
USER: genes 18 Torsion [C]-N--CA-[CB] |==|  0.49065
USER: genes 19 Torsion [N]-CA--C-[N] |==|  0.44264
USER: genes 20 Torsion [C]-N--CA-[CB] |==|  0.51703
USER: genes 21 Torsion [N]-CA--C-[N] |==|  0.44360
USER: genes 22 Torsion [N]-CA--C-[N] |==|  0.56404
USER: genes 23 Torsion [C]-N--CA-[CB] |==|  0.32354
USER: genes 24 Torsion [N]-CA--C-[O] |==|  0.72000
USER: genes 25 Torsion [N]-CA--CB-[CG] |==|  0.54928
USER: genes 26 Torsion [CA]-CB--CG-[CD] |==|  0.42184
USER: genes 27 Torsion [CB]-CG--CD-[NE] |==|  0.73528
USER: genes 28 Torsion [CG]-CD--NE-[HE] |==|  0.85799
ROOT
ATOM      1  C   ARG A  15      41.954  58.585  41.118  1.00 45.62 LIG 0.24  C 
ATOM      2 O    ARG A  15      41.220  58.655  42.115  1.00 41.49 LIG-0.27  OA
ATOM      3  N   ALA A  16      42.734  59.597  40.725  1.00 45.00 LIG-0.35  N 
ATOM      4 H    ALA A  16      43.325  59.537  40.104  1.00 45.00 LIG 0.16  HD
ENDROOT
BRANCH 1 5
ATOM      5  CA  ARG A  15      41.966  57.317  40.264  1.00 46.83 LIG 0.18  C 
BRANCH 5 6
ATOM      6  CB  ARG A  15      40.711  57.316  39.362  1.00 49.57 LIG 0.04  C 
BRANCH 6 7
ATOM      7  CG  ARG A  15      40.707  56.270  38.225  1.00 52.69 LIG 0.02  C 
BRANCH 7 8
ATOM      8  CD  ARG A  15      39.466  56.379  37.338  1.00 53.59 LIG 0.14  C 
BRANCH 8 9
ATOM      9  NE  ARG A  15      39.303  57.717  36.775  1.00 54.25 LIG-0.23  N 
ATOM     10  CZ  ARG A  15      38.448  58.633  37.214  1.00 51.22 LIG 0.67  C 
ATOM     11  NH1 ARG A  15      37.629  58.376  38.228  1.00 49.54 LIG-0.23  N 
ATOM     12  NH2 ARG A  15      38.400  59.815  36.625  1.00 55.83 LIG-0.23  N 
ATOM     13 2HH1 ARG A  15      37.080  58.980  38.501  1.00 49.54 LIG 0.17  HD
ATOM     14 1HH1 ARG A  15      37.647  57.606  38.611  1.00 49.54 LIG 0.17  HD
ATOM     15 2HH2 ARG A  15      37.849  60.413  36.904  1.00 55.83 LIG 0.17  HD
ATOM     16 1HH2 ARG A  15      38.921  59.986  35.962  1.00 55.83 LIG 0.17  HD
ATOM     17 HE   ARG A  15      39.801  57.928  36.106  1.00 54.25 LIG 0.18  HD
ENDBRANCH 8 9
ENDBRANCH 7 8
ENDBRANCH 6 7
ENDBRANCH 5 6
BRANCH 5 18
ATOM     18  N   ARG A  15      42.004  56.105  41.095  1.00 49.13 LIG-0.35  N 
ATOM     19 H    ARG A  15      41.309  55.604  41.020  1.00 49.13 LIG 0.16  HD
ATOM     20  C   LYS A  14      43.037  55.825  41.893  1.00 54.29 LIG 0.24  C 
ATOM     21 O    LYS A  14      44.017  56.568  41.998  1.00 54.85 LIG-0.27  OA
BRANCH 20 22
ATOM     22  CA  LYS A  14      42.989  54.524  42.702  1.00 53.70 LIG 0.18  C 
BRANCH 22 23
ATOM     23  N   LYS A  14      44.038  54.604  43.729  1.00 51.97 LIG-0.35  N 
ATOM     24  C   SER A  13      45.217  54.003  43.556  1.00 54.08 LIG 0.26  C 
ATOM     25 O    SER A  13      45.445  53.203  42.630  1.00 52.27 LIG-0.27  OA
ATOM     26 H    LYS A  14      43.824  55.058  44.427  1.00 51.97 LIG 0.16  HD
BRANCH 24 27
ATOM     27  CA  SER A  13      46.323  54.362  44.555  1.00 61.00 LIG 0.42  C 
ATOM     28  N   SER A  13      46.049  55.569  45.348  1.00 64.04 LIG 0.62  N 
BRANCH 27 29
ATOM     29  CB  SER A  13      46.617  53.173  45.464  1.00 62.15 LIG 0.21  C 
BRANCH 29 30
ATOM     30 OG   SER A  13      45.776  53.205  46.598  1.00 63.97 LIG-0.40  OA
ATOM     31 HG   SER A  13      44.975  53.128  46.355  1.00 63.97 LIG 0.21  HD
ENDBRANCH 29 30
ENDBRANCH 27 29
ENDBRANCH 24 27
ENDBRANCH 22 23
BRANCH 22 32
ATOM     32  CB  LYS A  14      41.596  54.380  43.340  1.00 53.93 LIG 0.04  C 
BRANCH 32 33
ATOM     33  CG  LYS A  14      41.069  52.943  43.495  1.00 52.68 LIG 0.00  C 
BRANCH 33 34
ATOM     34  CD  LYS A  14      41.561  52.280  44.773  1.00 44.05 LIG 0.03  C 
BRANCH 34 35
ATOM     35  CE  LYS A  14      40.902  50.915  44.986  1.00 42.34 LIG 0.23  C 
BRANCH 35 36
ATOM     36  NZ  LYS A  14      41.730  50.060  45.938  1.00 42.55 LIG-0.08  N 
ATOM     37 HZ1  LYS A  14      42.596  50.208  45.793  1.00 42.55 LIG 0.27  HD
ATOM     38 HZ2  LYS A  14      41.530  50.273  46.778  1.00 42.55 LIG 0.27  HD
ATOM     39 HZ3  LYS A  14      41.548  49.200  45.799  1.00 42.55 LIG 0.27  HD
ENDBRANCH 35 36
ENDBRANCH 34 35
ENDBRANCH 33 34
ENDBRANCH 32 33
ENDBRANCH 22 32
ENDBRANCH 20 22
ENDBRANCH 5 18
ENDBRANCH 1 5
BRANCH 3 40
ATOM     40  CA  ALA A  16      42.631  60.913  41.342  1.00 45.18 LIG 0.17  C 
ATOM     41  CB  ALA A  16      43.679  61.864  40.778  1.00 49.83 LIG 0.04  C 
BRANCH 40 42
ATOM     42  C   ALA A  16      41.227  61.485  41.104  1.00 49.79 LIG 0.24  C 
ATOM     43 O    ALA A  16      40.503  61.058  40.196  1.00 50.51 LIG-0.27  OA
ATOM     44  N   ARG A  17      40.847  62.445  41.936  1.00 50.44 LIG-0.35  N 
ATOM     45 H    ARG A  17      41.304  62.680  42.626  1.00 50.44 LIG 0.16  HD
BRANCH 44 46
ATOM     46  CA  ARG A  17      39.618  63.196  41.764  1.00 55.17 LIG 0.18  C 
BRANCH 46 47
ATOM     47  C   ARG A  17      39.597  63.762  40.340  1.00 63.19 LIG 0.24  C 
ATOM     48  N   PRO A  18      38.403  64.118  39.846  1.00 71.41 LIG-0.34  N 
ATOM     49  CD  PRO A  18      37.145  63.626  40.430  1.00 72.83 LIG 0.13  C 
ATOM     50  CA  PRO A  18      38.182  64.776  38.542  1.00 77.88 LIG 0.18  C 
ATOM     51  CG  PRO A  18      36.218  63.628  39.249  1.00 77.48 LIG 0.02  C 
ATOM     52  CB  PRO A  18      36.655  64.821  38.436  1.00 79.41 LIG 0.04  C 
ATOM     53 O    ARG A  17      40.636  63.831  39.680  1.00 63.05 LIG-0.27  OA
BRANCH 50 54
ATOM     54  C   PRO A  18      38.746  66.198  38.469  1.00 78.56 LIG 0.24  C 
ATOM     55 O    PRO A  18      39.640  66.536  39.256  1.00 75.87 LIG-0.27  OA
ATOM     56  N   ALA A  19      38.197  67.007  37.557  1.00 80.14 LIG-0.35  N 
ATOM     57 H    ALA A  19      37.492  66.794  37.113  1.00 80.14 LIG 0.16  HD
BRANCH 56 58
ATOM     58  CA  ALA A  19      38.723  68.339  37.205  1.00 81.44 LIG 0.16  C 
ATOM     59  CB  ALA A  19      39.170  68.355  35.746  1.00 83.90 LIG 0.04  C 
BRANCH 58 60
ATOM     60  C   ALA A  19      37.825  69.547  37.494  1.00 82.06 LIG 0.22  C 
ATOM     61 O    ALA A  19      37.175  70.077  36.578  1.00 84.95 LIG-0.29  OA
ENDBRANCH 58 60
ENDBRANCH 56 58
ENDBRANCH 50 54
ENDBRANCH 46 47
BRANCH 46 62
ATOM     62  CB  ARG A  17      39.594  64.314  42.821  1.00 51.88 LIG 0.04  C 
BRANCH 62 63
ATOM     63  CG  ARG A  17      38.265  64.952  43.106  1.00 49.36 LIG 0.02  C 
BRANCH 63 64
ATOM     64  CD  ARG A  17      38.227  65.484  44.568  1.00 46.57 LIG 0.14  C 
BRANCH 64 65
ATOM     65  NE  ARG A  17      37.614  64.534  45.517  1.00 43.47 LIG-0.23  N 
ATOM     66 HE   ARG A  17      36.844  64.210  45.313  1.00 43.47 LIG 0.18  HD
ATOM     67  CZ  ARG A  17      38.164  64.136  46.672  1.00 44.86 LIG 0.67  C 
ATOM     68  NH2 ARG A  17      37.495  63.283  47.440  1.00 38.62 LIG-0.23  N 
ATOM     69  NH1 ARG A  17      39.365  64.597  47.074  1.00 40.09 LIG-0.23  N 
ATOM     70 1HH2 ARG A  17      36.724  62.996  47.192  1.00 38.62 LIG 0.17  HD
ATOM     71 2HH2 ARG A  17      37.835  63.017  48.184  1.00 38.62 LIG 0.17  HD
ATOM     72 2HH1 ARG A  17      39.701  64.330  47.819  1.00 40.09 LIG 0.17  HD
ATOM     73 1HH1 ARG A  17      39.795  65.160  46.586  1.00 40.09 LIG 0.17  HD
ENDBRANCH 64 65
ENDBRANCH 63 64
ENDBRANCH 62 63
ENDBRANCH 46 62
ENDBRANCH 44 46
ENDBRANCH 40 42
ENDBRANCH 3 40
TORSDOF 27
ENDMDL
MODEL 2
USER: ADFR SOLUTION from run 11
USER: SCORE 19.510213 LL:  -2.745 LR: -18.935 RR:   0.000 FEB: -10.881
USER: RMSD 3.150543
USER: SEED 733500
USER: STATUS no improvement in best in 3 clusters for 5 generations
USER: GENES 29
USER: genes 0 Translation |==|  0.59825 0.43816 0.47444
USER: genes 1 Rotation |==|  0.46087 0.51194 0.49201 0.99826
USER: genes 2 Torsion [N]-C--CA-[N] |==|  0.33546
USER: genes 3 Torsion [C]-CA--CB-[CG] |==|  0.44748
USER: genes 4 Torsion [CA]-CB--CG-[CD] |==|  0.56173
USER: genes 5 Torsion [CB]-CG--CD-[NE] |==|  0.10486
USER: genes 6 Torsion [CG]-CD--NE-[HE] |==|  0.17293
USER: genes 7 Torsion [C]-CA--N-[C] |==|  0.77520
USER: genes 8 Torsion [N]-C--CA-[N] |==|  0.60768
USER: genes 9 Torsion [C]-CA--N-[C] |==|  0.69520
USER: genes 10 Torsion [N]-C--CA-[N] |==|  0.98694
USER: genes 11 Torsion [C]-CA--CB-[OG] |==|  0.84976
USER: genes 12 Torsion [CA]-CB--OG-[HG] |==|  0.91080
USER: genes 13 Torsion [C]-CA--CB-[CG] |==|  0.56030
USER: genes 14 Torsion [CA]-CB--CG-[CD] |==|  0.73759
USER: genes 15 Torsion [CB]-CG--CD-[CE] |==|  0.56862
USER: genes 16 Torsion [CG]-CD--CE-[NZ] |==|  0.52932
USER: genes 17 Torsion [CD]-CE--NZ-[HZ3] |==|  0.15011
USER: genes 18 Torsion [C]-N--CA-[CB] |==|  0.51667
USER: genes 19 Torsion [N]-CA--C-[N] |==|  0.43425
USER: genes 20 Torsion [C]-N--CA-[CB] |==|  0.43948
USER: genes 21 Torsion [N]-CA--C-[N] |==|  0.42358
USER: genes 22 Torsion [N]-CA--C-[N] |==|  0.02102
USER: genes 23 Torsion [C]-N--CA-[CB] |==|  0.16229
USER: genes 24 Torsion [N]-CA--C-[O] |==|  0.64691
USER: genes 25 Torsion [N]-CA--CB-[CG] |==|  0.46581
USER: genes 26 Torsion [CA]-CB--CG-[CD] |==|  0.52568
USER: genes 27 Torsion [CB]-CG--CD-[NE] |==|  0.81158
USER: genes 28 Torsion [CG]-CD--NE-[HE] |==|  0.83104
ROOT
ATOM      1  C   ARG A  15      42.021  58.396  41.295  1.00 45.62 LIG 0.24  C 
ATOM      2 O    ARG A  15      41.104  58.579  42.109  1.00 41.49 LIG-0.27  OA
ATOM      3  N   ALA A  16      42.989  59.293  41.085  1.00 45.00 LIG-0.35  N 
ATOM      4 H    ALA A  16      43.689  59.146  40.607  1.00 45.00 LIG 0.16  HD
ENDROOT
BRANCH 1 5
ATOM      5  CA  ARG A  15      42.058  57.116  40.459  1.00 46.83 LIG 0.18  C 
BRANCH 5 6
ATOM      6  CB  ARG A  15      40.786  57.060  39.583  1.00 49.57 LIG 0.04  C 
BRANCH 6 7
ATOM      7  CG  ARG A  15      40.853  56.110  38.368  1.00 52.69 LIG 0.02  C 
BRANCH 7 8
ATOM      8  CD  ARG A  15      39.846  56.483  37.279  1.00 53.59 LIG 0.14  C 
BRANCH 8 9
ATOM      9  NE  ARG A  15      39.706  57.929  37.128  1.00 54.25 LIG-0.23  N 
ATOM     10  CZ  ARG A  15      38.587  58.615  37.333  1.00 51.22 LIG 0.67  C 
ATOM     11  NH1 ARG A  15      37.463  58.004  37.685  1.00 49.54 LIG-0.23  N 
ATOM     12  NH2 ARG A  15      38.590  59.927  37.171  1.00 55.83 LIG-0.23  N 
ATOM     13 2HH1 ARG A  15      36.746  58.462  37.814  1.00 49.54 LIG 0.17  HD
ATOM     14 1HH1 ARG A  15      37.451  57.149  37.784  1.00 49.54 LIG 0.17  HD
ATOM     15 2HH2 ARG A  15      37.869  60.378  37.302  1.00 55.83 LIG 0.17  HD
ATOM     16 1HH2 ARG A  15      39.312  60.330  36.934  1.00 55.83 LIG 0.17  HD
ATOM     17 HE   ARG A  15      40.403  58.371  36.886  1.00 54.25 LIG 0.18  HD
ENDBRANCH 8 9
ENDBRANCH 7 8
ENDBRANCH 6 7
ENDBRANCH 5 6
BRANCH 5 18
ATOM     18  N   ARG A  15      42.152  55.919  41.307  1.00 49.13 LIG-0.35  N 
ATOM     19 H    ARG A  15      41.401  55.519  41.438  1.00 49.13 LIG 0.16  HD
ATOM     20  C   LYS A  14      43.312  55.504  41.820  1.00 54.29 LIG 0.24  C 
ATOM     21 O    LYS A  14      44.375  56.102  41.633  1.00 54.85 LIG-0.27  OA
BRANCH 20 22
ATOM     22  CA  LYS A  14      43.307  54.230  42.674  1.00 53.70 LIG 0.18  C 
BRANCH 22 23
ATOM     23  N   LYS A  14      44.237  54.442  43.791  1.00 51.97 LIG-0.35  N 
ATOM     24  C   SER A  13      45.399  53.787  43.854  1.00 54.08 LIG 0.26  C 
ATOM     25 O    SER A  13      45.689  52.841  43.098  1.00 52.27 LIG-0.27  OA
ATOM     26 H    LYS A  14      43.969  55.010  44.379  1.00 51.97 LIG 0.16  HD
BRANCH 24 27
ATOM     27  CA  SER A  13      46.403  54.270  44.907  1.00 61.00 LIG 0.42  C 
ATOM     28  N   SER A  13      45.979  55.473  45.636  1.00 64.04 LIG 0.62  N 
BRANCH 27 29
ATOM     29  CB  SER A  13      46.733  53.139  45.876  1.00 62.15 LIG 0.21  C 
BRANCH 29 30
ATOM     30 OG   SER A  13      45.547  52.611  46.432  1.00 63.97 LIG-0.40  OA
ATOM     31 HG   SER A  13      44.973  53.221  46.501  1.00 63.97 LIG 0.21  HD
ENDBRANCH 29 30
ENDBRANCH 27 29
ENDBRANCH 24 27
ENDBRANCH 22 23
BRANCH 22 32
ATOM     32  CB  LYS A  14      41.878  53.971  43.181  1.00 53.93 LIG 0.04  C 
BRANCH 32 33
ATOM     33  CG  LYS A  14      41.754  53.082  44.431  1.00 52.68 LIG 0.00  C 
BRANCH 33 34
ATOM     34  CD  LYS A  14      41.515  51.621  44.082  1.00 44.05 LIG 0.03  C 
BRANCH 34 35
ATOM     35  CE  LYS A  14      40.811  50.880  45.220  1.00 42.34 LIG 0.23  C 
BRANCH 35 36
ATOM     36  NZ  LYS A  14      40.812  49.377  44.967  1.00 42.55 LIG-0.08  N 
ATOM     37 HZ1  LYS A  14      40.477  48.955  45.675  1.00 42.55 LIG 0.27  HD
ATOM     38 HZ2  LYS A  14      40.314  49.196  44.252  1.00 42.55 LIG 0.27  HD
ATOM     39 HZ3  LYS A  14      41.646  49.100  44.824  1.00 42.55 LIG 0.27  HD
ENDBRANCH 35 36
ENDBRANCH 34 35
ENDBRANCH 33 34
ENDBRANCH 32 33
ENDBRANCH 22 32
ENDBRANCH 20 22
ENDBRANCH 5 18
ENDBRANCH 1 5
BRANCH 3 40
ATOM     40  CA  ALA A  16      42.923  60.627  41.670  1.00 45.18 LIG 0.17  C 
ATOM     41  CB  ALA A  16      44.062  61.502  41.165  1.00 49.83 LIG 0.04  C 
BRANCH 40 42
ATOM     42  C   ALA A  16      41.576  61.274  41.323  1.00 49.79 LIG 0.24  C 
ATOM     43 O    ALA A  16      40.919  60.907  40.341  1.00 50.51 LIG-0.27  OA
ATOM     44  N   ARG A  17      41.167  62.230  42.145  1.00 50.44 LIG-0.35  N 
ATOM     45 H    ARG A  17      41.569  62.424  42.880  1.00 50.44 LIG 0.16  HD
BRANCH 44 46
ATOM     46  CA  ARG A  17      39.996  63.047  41.885  1.00 55.17 LIG 0.18  C 
BRANCH 46 47
ATOM     47  C   ARG A  17      40.392  64.151  40.900  1.00 63.19 LIG 0.24  C 
ATOM     48  N   PRO A  18      39.423  64.636  40.111  1.00 71.41 LIG-0.34  N 
ATOM     49  CD  PRO A  18      38.168  63.901  39.883  1.00 72.83 LIG 0.13  C 
ATOM     50  CA  PRO A  18      39.573  65.768  39.174  1.00 77.88 LIG 0.18  C 
ATOM     51  CG  PRO A  18      37.770  64.359  38.510  1.00 77.48 LIG 0.02  C 
ATOM     52  CB  PRO A  18      38.222  65.797  38.453  1.00 79.41 LIG 0.04  C 
ATOM     53 O    ARG A  17      41.564  64.526  40.819  1.00 63.05 LIG-0.27  OA
BRANCH 50 54
ATOM     54  C   PRO A  18      39.816  67.112  39.868  1.00 78.56 LIG 0.24  C 
ATOM     55 O    PRO A  18      39.843  68.147  39.189  1.00 75.87 LIG-0.27  OA
ATOM     56  N   ALA A  19      40.016  67.069  41.190  1.00 80.14 LIG-0.35  N 
ATOM     57 H    ALA A  19      40.122  66.331  41.618  1.00 80.14 LIG 0.16  HD
BRANCH 56 58
ATOM     58  CA  ALA A  19      40.077  68.259  42.059  1.00 81.44 LIG 0.16  C 
ATOM     59  CB  ALA A  19      38.777  69.052  41.950  1.00 83.90 LIG 0.04  C 
BRANCH 58 60
ATOM     60  C   ALA A  19      40.436  68.034  43.531  1.00 82.06 LIG 0.22  C 
ATOM     61 O    ALA A  19      39.705  68.485  44.429  1.00 84.95 LIG-0.29  OA
ENDBRANCH 58 60
ENDBRANCH 56 58
ENDBRANCH 50 54
ENDBRANCH 46 47
BRANCH 46 62
ATOM     62  CB  ARG A  17      39.515  63.626  43.227  1.00 51.88 LIG 0.04  C 
BRANCH 62 63
ATOM     63  CG  ARG A  17      38.493  64.725  43.165  1.00 49.36 LIG 0.02  C 
BRANCH 63 64
ATOM     64  CD  ARG A  17      38.292  65.351  44.576  1.00 46.57 LIG 0.14  C 
BRANCH 64 65
ATOM     65  NE  ARG A  17      37.654  64.428  45.536  1.00 43.47 LIG-0.23  N 
ATOM     66 HE   ARG A  17      36.866  64.141  45.346  1.00 43.47 LIG 0.18  HD
ATOM     67  CZ  ARG A  17      38.207  64.004  46.680  1.00 44.86 LIG 0.67  C 
ATOM     68  NH2 ARG A  17      37.514  63.181  47.459  1.00 38.62 LIG-0.23  N 
ATOM     69  NH1 ARG A  17      39.435  64.408  47.059  1.00 40.09 LIG-0.23  N 
ATOM     70 1HH2 ARG A  17      36.725  62.931  47.227  1.00 38.62 LIG 0.17  HD
ATOM     71 2HH2 ARG A  17      37.855  62.899  48.197  1.00 38.62 LIG 0.17  HD
ATOM     72 2HH1 ARG A  17      39.772  64.123  47.797  1.00 40.09 LIG 0.17  HD
ATOM     73 1HH1 ARG A  17      39.882  64.950  46.563  1.00 40.09 LIG 0.17  HD
ENDBRANCH 64 65
ENDBRANCH 63 64
ENDBRANCH 62 63
ENDBRANCH 46 62
ENDBRANCH 44 46
ENDBRANCH 40 42
ENDBRANCH 3 40
TORSDOF 27
ENDMDL
MODEL 3
USER: ADFR SOLUTION from run 138
USER: SCORE 20.202329 LL:  -2.286 LR: -18.787 RR:   0.000 FEB: -10.733
USER: RMSD 1.508513
USER: SEED 137
USER: STATUS no improvement in best in 2 clusters for 5 generations
USER: GENES 29
USER: genes 0 Translation |==|  0.59868 0.45007 0.45060
USER: genes 1 Rotation |==|  0.46996 0.55404 0.53293 0.99507
USER: genes 2 Torsion [N]-C--CA-[N] |==|  0.43485
USER: genes 3 Torsion [C]-CA--CB-[CG] |==|  0.52399
USER: genes 4 Torsion [CA]-CB--CG-[CD] |==|  0.42144
USER: genes 5 Torsion [CB]-CG--CD-[NE] |==|  0.11537
USER: genes 6 Torsion [CG]-CD--NE-[HE] |==|  0.20517
USER: genes 7 Torsion [C]-CA--N-[C] |==|  0.72383
USER: genes 8 Torsion [N]-C--CA-[N] |==|  0.34934
USER: genes 9 Torsion [C]-CA--N-[C] |==|  0.79006
USER: genes 10 Torsion [N]-C--CA-[N] |==|  0.00973
USER: genes 11 Torsion [C]-CA--CB-[OG] |==|  0.77444
USER: genes 12 Torsion [CA]-CB--OG-[HG] |==|  0.35062
USER: genes 13 Torsion [C]-CA--CB-[CG] |==|  0.52511
USER: genes 14 Torsion [CA]-CB--CG-[CD] |==|  0.85837
USER: genes 15 Torsion [CB]-CG--CD-[CE] |==|  0.49541
USER: genes 16 Torsion [CG]-CD--CE-[NZ] |==|  0.37802
USER: genes 17 Torsion [CD]-CE--NZ-[HZ3] |==|  0.26795
USER: genes 18 Torsion [C]-N--CA-[CB] |==|  0.50059
USER: genes 19 Torsion [N]-CA--C-[N] |==|  0.44969
USER: genes 20 Torsion [C]-N--CA-[CB] |==|  0.52222
USER: genes 21 Torsion [N]-CA--C-[N] |==|  0.45111
USER: genes 22 Torsion [N]-CA--C-[N] |==|  0.53521
USER: genes 23 Torsion [C]-N--CA-[CB] |==|  0.38124
USER: genes 24 Torsion [N]-CA--C-[O] |==|  0.72197
USER: genes 25 Torsion [N]-CA--CB-[CG] |==|  0.56327
USER: genes 26 Torsion [CA]-CB--CG-[CD] |==|  0.41104
USER: genes 27 Torsion [CB]-CG--CD-[NE] |==|  0.71210
USER: genes 28 Torsion [CG]-CD--NE-[HE] |==|  0.86799
ROOT
ATOM      1  C   ARG A  15      42.028  58.753  40.813  1.00 45.62 LIG 0.24  C 
ATOM      2 O    ARG A  15      41.258  58.773  41.784  1.00 41.49 LIG-0.27  OA
ATOM      3  N   ALA A  16      42.802  59.792  40.485  1.00 45.00 LIG-0.35  N 
ATOM      4 H    ALA A  16      43.417  59.766  39.884  1.00 45.00 LIG 0.16  HD
ENDROOT
BRANCH 1 5
ATOM      5  CA  ARG A  15      42.096  57.518  39.914  1.00 46.83 LIG 0.18  C 
BRANCH 5 6
ATOM      6  CB  ARG A  15      41.199  57.755  38.678  1.00 49.57 LIG 0.04  C 
BRANCH 6 7
ATOM      7  CG  ARG A  15      40.984  56.529  37.764  1.00 52.69 LIG 0.02  C 
BRANCH 7 8
ATOM      8  CD  ARG A  15      39.645  56.580  37.026  1.00 53.59 LIG 0.14  C 
BRANCH 8 9
ATOM      9  NE  ARG A  15      39.338  57.918  36.528  1.00 54.25 LIG-0.23  N 
ATOM     10  CZ  ARG A  15      38.432  58.739  37.047  1.00 51.22 LIG 0.67  C 
ATOM     11  NH1 ARG A  15      37.695  58.376  38.090  1.00 49.54 LIG-0.23  N 
ATOM     12  NH2 ARG A  15      38.252  59.933  36.509  1.00 55.83 LIG-0.23  N 
ATOM     13 2HH1 ARG A  15      37.112  58.919  38.414  1.00 49.54 LIG 0.17  HD
ATOM     14 1HH1 ARG A  15      37.799  57.598  38.440  1.00 49.54 LIG 0.17  HD
ATOM     15 2HH2 ARG A  15      37.668  60.471  36.840  1.00 55.83 LIG 0.17  HD
ATOM     16 1HH2 ARG A  15      38.720  60.173  35.828  1.00 55.83 LIG 0.17  HD
ATOM     17 HE   ARG A  15      39.778  58.196  35.843  1.00 54.25 LIG 0.18  HD
ENDBRANCH 8 9
ENDBRANCH 7 8
ENDBRANCH 6 7
ENDBRANCH 5 6
BRANCH 5 18
ATOM     18  N   ARG A  15      41.675  56.305  40.630  1.00 49.13 LIG-0.35  N 
ATOM     19 H    ARG A  15      40.822  56.206  40.685  1.00 49.13 LIG 0.16  HD
ATOM     20  C   LYS A  14      42.556  55.444  41.143  1.00 54.29 LIG 0.24  C 
ATOM     21 O    LYS A  14      43.776  55.615  41.067  1.00 54.85 LIG-0.27  OA
BRANCH 20 22
ATOM     22  CA  LYS A  14      42.015  54.197  41.852  1.00 53.70 LIG 0.18  C 
BRANCH 22 23
ATOM     23  N   LYS A  14      42.644  53.025  41.228  1.00 51.97 LIG-0.35  N 
ATOM     24  C   SER A  13      42.253  52.592  40.027  1.00 54.08 LIG 0.26  C 
ATOM     25 O    SER A  13      41.235  53.017  39.448  1.00 52.27 LIG-0.27  OA
ATOM     26 H    LYS A  14      43.266  52.659  41.695  1.00 51.97 LIG 0.16  HD
BRANCH 24 27
ATOM     27  CA  SER A  13      43.139  51.537  39.355  1.00 61.00 LIG 0.42  C 
ATOM     28  N   SER A  13      44.270  51.089  40.179  1.00 64.04 LIG 0.62  N 
BRANCH 27 29
ATOM     29  CB  SER A  13      42.295  50.349  38.905  1.00 62.15 LIG 0.21  C 
BRANCH 29 30
ATOM     30 OG   SER A  13      42.051  49.483  39.993  1.00 63.97 LIG-0.40  OA
ATOM     31 HG   SER A  13      41.224  49.354  40.068  1.00 63.97 LIG 0.21  HD
ENDBRANCH 29 30
ENDBRANCH 27 29
ENDBRANCH 24 27
ENDBRANCH 22 23
BRANCH 22 32
ATOM     32  CB  LYS A  14      42.359  54.281  43.350  1.00 53.93 LIG 0.04  C 
BRANCH 32 33
ATOM     33  CG  LYS A  14      42.082  53.015  44.180  1.00 52.68 LIG 0.00  C 
BRANCH 33 34
ATOM     34  CD  LYS A  14      40.670  52.487  43.978  1.00 44.05 LIG 0.03  C 
BRANCH 34 35
ATOM     35  CE  LYS A  14      40.430  51.206  44.780  1.00 42.34 LIG 0.23  C 
BRANCH 35 36
ATOM     36  NZ  LYS A  14      39.073  51.251  45.472  1.00 42.55 LIG-0.08  N 
ATOM     37 HZ1  LYS A  14      39.133  50.860  46.270  1.00 42.55 LIG 0.27  HD
ATOM     38 HZ2  LYS A  14      38.820  52.097  45.576  1.00 42.55 LIG 0.27  HD
ATOM     39 HZ3  LYS A  14      38.472  50.821  44.975  1.00 42.55 LIG 0.27  HD
ENDBRANCH 35 36
ENDBRANCH 34 35
ENDBRANCH 33 34
ENDBRANCH 32 33
ENDBRANCH 22 32
ENDBRANCH 20 22
ENDBRANCH 5 18
ENDBRANCH 1 5
BRANCH 3 40
ATOM     40  CA  ALA A  16      42.652  61.083  41.145  1.00 45.18 LIG 0.17  C 
ATOM     41  CB  ALA A  16      43.643  62.098  40.591  1.00 49.83 LIG 0.04  C 
BRANCH 40 42
ATOM     42  C   ALA A  16      41.219  61.596  40.952  1.00 49.79 LIG 0.24  C 
ATOM     43 O    ALA A  16      40.481  61.131  40.074  1.00 50.51 LIG-0.27  OA
ATOM     44  N   ARG A  17      40.830  62.549  41.788  1.00 50.44 LIG-0.35  N 
ATOM     45 H    ARG A  17      41.301  62.809  42.458  1.00 50.44 LIG 0.16  HD
BRANCH 44 46
ATOM     46  CA  ARG A  17      39.567  63.249  41.652  1.00 55.17 LIG 0.18  C 
BRANCH 46 47
ATOM     47  C   ARG A  17      39.453  63.758  40.211  1.00 63.19 LIG 0.24  C 
ATOM     48  N   PRO A  18      38.230  64.105  39.785  1.00 71.41 LIG-0.34  N 
ATOM     49  CD  PRO A  18      37.012  63.648  40.473  1.00 72.83 LIG 0.13  C 
ATOM     50  CA  PRO A  18      37.925  64.713  38.474  1.00 77.88 LIG 0.18  C 
ATOM     51  CG  PRO A  18      36.006  63.612  39.358  1.00 77.48 LIG 0.02  C 
ATOM     52  CB  PRO A  18      36.395  64.768  38.470  1.00 79.41 LIG 0.04  C 
ATOM     53 O    ARG A  17      40.445  63.792  39.480  1.00 63.05 LIG-0.27  OA
BRANCH 50 54
ATOM     54  C   PRO A  18      38.492  66.126  38.306  1.00 78.56 LIG 0.24  C 
ATOM     55 O    PRO A  18      39.303  66.556  39.137  1.00 75.87 LIG-0.27  OA
ATOM     56  N   ALA A  19      38.036  66.827  37.262  1.00 80.14 LIG-0.35  N 
ATOM     57 H    ALA A  19      37.379  66.560  36.776  1.00 80.14 LIG 0.16  HD
BRANCH 56 58
ATOM     58  CA  ALA A  19      38.593  68.121  36.825  1.00 81.44 LIG 0.16  C 
ATOM     59  CB  ALA A  19      38.707  68.151  35.303  1.00 83.90 LIG 0.04  C 
BRANCH 58 60
ATOM     60  C   ALA A  19      37.896  69.390  37.326  1.00 82.06 LIG 0.22  C 
ATOM     61 O    ALA A  19      37.102  70.000  36.591  1.00 84.95 LIG-0.29  OA
ENDBRANCH 58 60
ENDBRANCH 56 58
ENDBRANCH 50 54
ENDBRANCH 46 47
BRANCH 46 62
ATOM     62  CB  ARG A  17      39.556  64.406  42.667  1.00 51.88 LIG 0.04  C 
BRANCH 62 63
ATOM     63  CG  ARG A  17      38.211  64.930  43.086  1.00 49.36 LIG 0.02  C 
BRANCH 63 64
ATOM     64  CD  ARG A  17      38.264  65.431  44.558  1.00 46.57 LIG 0.14  C 
BRANCH 64 65
ATOM     65  NE  ARG A  17      37.637  64.496  45.514  1.00 43.47 LIG-0.23  N 
ATOM     66 HE   ARG A  17      36.862  64.184  45.312  1.00 43.47 LIG 0.18  HD
ATOM     67  CZ  ARG A  17      38.183  64.095  46.669  1.00 44.86 LIG 0.67  C 
ATOM     68  NH2 ARG A  17      37.501  63.257  47.443  1.00 38.62 LIG-0.23  N 
ATOM     69  NH1 ARG A  17      39.392  64.537  47.067  1.00 40.09 LIG-0.23  N 
ATOM     70 1HH2 ARG A  17      36.724  62.982  47.198  1.00 38.62 LIG 0.17  HD
ATOM     71 2HH2 ARG A  17      37.837  62.990  48.188  1.00 38.62 LIG 0.17  HD
ATOM     72 2HH1 ARG A  17      39.724  64.268  47.813  1.00 40.09 LIG 0.17  HD
ATOM     73 1HH1 ARG A  17      39.831  65.090  46.575  1.00 40.09 LIG 0.17  HD
ENDBRANCH 64 65
ENDBRANCH 63 64
ENDBRANCH 62 63
ENDBRANCH 46 62
ENDBRANCH 44 46
ENDBRANCH 40 42
ENDBRANCH 3 40
TORSDOF 27
ENDMDL
MODEL 4
USER: ADFR SOLUTION from run 31
USER: SCORE 19.349251 LL:  -2.519 LR: -18.737 RR:   0.000 FEB: -10.683
USER: RMSD 3.984405
USER: SEED 30
USER: STATUS no improvement in best in 3 clusters for 5 generations
USER: GENES 29
USER: genes 0 Translation |==|  0.58923 0.44637 0.47073
USER: genes 1 Rotation |==|  0.47048 0.53793 0.51173 0.99755
USER: genes 2 Torsion [N]-C--CA-[N] |==|  0.35905
USER: genes 3 Torsion [C]-CA--CB-[CG] |==|  0.51759
USER: genes 4 Torsion [CA]-CB--CG-[CD] |==|  0.59939
USER: genes 5 Torsion [CB]-CG--CD-[NE] |==|  0.01148
USER: genes 6 Torsion [CG]-CD--NE-[HE] |==|  0.23754
USER: genes 7 Torsion [C]-CA--N-[C] |==|  0.85000
USER: genes 8 Torsion [N]-C--CA-[N] |==|  0.50343
USER: genes 9 Torsion [C]-CA--N-[C] |==|  0.65446
USER: genes 10 Torsion [N]-C--CA-[N] |==|  0.01822
USER: genes 11 Torsion [C]-CA--CB-[OG] |==|  0.76530
USER: genes 12 Torsion [CA]-CB--OG-[HG] |==|  0.00557
USER: genes 13 Torsion [C]-CA--CB-[CG] |==|  0.40499
USER: genes 14 Torsion [CA]-CB--CG-[CD] |==|  0.23427
USER: genes 15 Torsion [CB]-CG--CD-[CE] |==|  0.50658
USER: genes 16 Torsion [CG]-CD--CE-[NZ] |==|  0.47243
USER: genes 17 Torsion [CD]-CE--NZ-[HZ3] |==|  0.21749
USER: genes 18 Torsion [C]-N--CA-[CB] |==|  0.50003
USER: genes 19 Torsion [N]-CA--C-[N] |==|  0.43496
USER: genes 20 Torsion [C]-N--CA-[CB] |==|  0.51982
USER: genes 21 Torsion [N]-CA--C-[N] |==|  0.88073
USER: genes 22 Torsion [N]-CA--C-[N] |==|  0.30318
USER: genes 23 Torsion [C]-N--CA-[CB] |==|  0.51110
USER: genes 24 Torsion [N]-CA--C-[O] |==|  0.43097
USER: genes 25 Torsion [N]-CA--CB-[CG] |==|  0.53470
USER: genes 26 Torsion [CA]-CB--CG-[CD] |==|  0.43136
USER: genes 27 Torsion [CB]-CG--CD-[NE] |==|  0.75981
USER: genes 28 Torsion [CG]-CD--NE-[HE] |==|  0.83645
ROOT
ATOM      1  C   ARG A  15      41.879  58.642  41.220  1.00 45.62 LIG 0.24  C 
ATOM      2 O    ARG A  15      41.047  58.729  42.135  1.00 41.49 LIG-0.27  OA
ATOM      3  N   ALA A  16      42.756  59.614  40.948  1.00 45.00 LIG-0.35  N 
ATOM      4 H    ALA A  16      43.407  59.535  40.391  1.00 45.00 LIG 0.16  HD
ENDROOT
BRANCH 1 5
ATOM      5  CA  ARG A  15      41.909  57.401  40.328  1.00 46.83 LIG 0.18  C 
BRANCH 5 6
ATOM      6  CB  ARG A  15      40.648  57.403  39.434  1.00 49.57 LIG 0.04  C 
BRANCH 6 7
ATOM      7  CG  ARG A  15      40.438  56.139  38.574  1.00 52.69 LIG 0.02  C 
BRANCH 7 8
ATOM      8  CD  ARG A  15      39.830  56.458  37.207  1.00 53.59 LIG 0.14  C 
BRANCH 8 9
ATOM      9  NE  ARG A  15      39.677  57.895  36.991  1.00 54.25 LIG-0.23  N 
ATOM     10  CZ  ARG A  15      38.572  58.591  37.233  1.00 51.22 LIG 0.67  C 
ATOM     11  NH1 ARG A  15      37.474  58.000  37.688  1.00 49.54 LIG-0.23  N 
ATOM     12  NH2 ARG A  15      38.561  59.893  37.004  1.00 55.83 LIG-0.23  N 
ATOM     13 2HH1 ARG A  15      36.766  58.465  37.839  1.00 49.54 LIG 0.17  HD
ATOM     14 1HH1 ARG A  15      37.470  57.151  37.831  1.00 49.54 LIG 0.17  HD
ATOM     15 2HH2 ARG A  15      37.850  60.351  37.159  1.00 55.83 LIG 0.17  HD
ATOM     16 1HH2 ARG A  15      39.265  60.283  36.701  1.00 55.83 LIG 0.17  HD
ATOM     17 HE   ARG A  15      40.356  58.323  36.683  1.00 54.25 LIG 0.18  HD
ENDBRANCH 8 9
ENDBRANCH 7 8
ENDBRANCH 6 7
ENDBRANCH 5 6
BRANCH 5 18
ATOM     18  N   ARG A  15      41.975  56.166  41.122  1.00 49.13 LIG-0.35  N 
ATOM     19 H    ARG A  15      41.358  55.595  40.938  1.00 49.13 LIG 0.16  HD
ATOM     20  C   LYS A  14      42.919  55.966  42.044  1.00 54.29 LIG 0.24  C 
ATOM     21 O    LYS A  14      43.785  56.806  42.302  1.00 54.85 LIG-0.27  OA
BRANCH 20 22
ATOM     22  CA  LYS A  14      42.914  54.634  42.803  1.00 53.70 LIG 0.18  C 
BRANCH 22 23
ATOM     23  N   LYS A  14      44.019  54.672  43.770  1.00 51.97 LIG-0.35  N 
ATOM     24  C   SER A  13      44.961  53.725  43.778  1.00 54.08 LIG 0.26  C 
ATOM     25 O    SER A  13      44.875  52.675  43.115  1.00 52.27 LIG-0.27  OA
ATOM     26 H    LYS A  14      44.000  55.340  44.312  1.00 51.97 LIG 0.16  HD
BRANCH 24 27
ATOM     27  CA  SER A  13      46.199  53.995  44.641  1.00 61.00 LIG 0.42  C 
ATOM     28  N   SER A  13      46.105  55.208  45.466  1.00 64.04 LIG 0.62  N 
BRANCH 27 29
ATOM     29  CB  SER A  13      46.513  52.778  45.504  1.00 62.15 LIG 0.21  C 
BRANCH 29 30
ATOM     30 OG   SER A  13      45.743  52.806  46.688  1.00 63.97 LIG-0.40  OA
ATOM     31 HG   SER A  13      45.237  53.476  46.677  1.00 63.97 LIG 0.21  HD
ENDBRANCH 29 30
ENDBRANCH 27 29
ENDBRANCH 24 27
ENDBRANCH 22 23
BRANCH 22 32
ATOM     32  CB  LYS A  14      41.559  54.464  43.512  1.00 53.93 LIG 0.04  C 
BRANCH 32 33
ATOM     33  CG  LYS A  14      41.023  53.025  43.611  1.00 52.68 LIG 0.00  C 
BRANCH 33 34
ATOM     34  CD  LYS A  14      41.594  52.276  44.805  1.00 44.05 LIG 0.03  C 
BRANCH 34 35
ATOM     35  CE  LYS A  14      41.093  50.830  44.852  1.00 42.34 LIG 0.23  C 
BRANCH 35 36
ATOM     36  NZ  LYS A  14      41.857  50.029  45.900  1.00 42.55 LIG-0.08  N 
ATOM     37 HZ1  LYS A  14      41.756  49.159  45.741  1.00 42.55 LIG 0.27  HD
ATOM     38 HZ2  LYS A  14      42.720  50.238  45.862  1.00 42.55 LIG 0.27  HD
ATOM     39 HZ3  LYS A  14      41.541  50.222  46.710  1.00 42.55 LIG 0.27  HD
ENDBRANCH 35 36
ENDBRANCH 34 35
ENDBRANCH 33 34
ENDBRANCH 32 33
ENDBRANCH 22 32
ENDBRANCH 20 22
ENDBRANCH 5 18
ENDBRANCH 1 5
BRANCH 3 40
ATOM     40  CA  ALA A  16      42.665  60.916  41.596  1.00 45.18 LIG 0.17  C 
ATOM     41  CB  ALA A  16      43.774  61.843  41.117  1.00 49.83 LIG 0.04  C 
BRANCH 40 42
ATOM     42  C   ALA A  16      41.297  61.544  41.300  1.00 49.79 LIG 0.24  C 
ATOM     43 O    ALA A  16      40.632  61.204  40.313  1.00 50.51 LIG-0.27  OA
ATOM     44  N   ARG A  17      40.879  62.454  42.170  1.00 50.44 LIG-0.35  N 
ATOM     45 H    ARG A  17      41.289  62.626  42.905  1.00 50.44 LIG 0.16  HD
BRANCH 44 46
ATOM     46  CA  ARG A  17      39.685  63.252  41.964  1.00 55.17 LIG 0.18  C 
BRANCH 46 47
ATOM     47  C   ARG A  17      39.773  63.896  40.577  1.00 63.19 LIG 0.24  C 
ATOM     48  N   PRO A  18      40.958  64.412  40.221  1.00 71.41 LIG-0.34  N 
ATOM     49  CD  PRO A  18      41.994  64.731  41.217  1.00 72.83 LIG 0.13  C 
ATOM     50  CA  PRO A  18      41.277  64.980  38.896  1.00 77.88 LIG 0.18  C 
ATOM     51  CG  PRO A  18      42.733  65.863  40.563  1.00 77.48 LIG 0.02  C 
ATOM     52  CB  PRO A  18      42.693  65.532  39.092  1.00 79.41 LIG 0.04  C 
ATOM     53 O    ARG A  17      38.774  63.970  39.858  1.00 63.05 LIG-0.27  OA
BRANCH 50 54
ATOM     54  C   PRO A  18      41.280  63.944  37.768  1.00 78.56 LIG 0.24  C 
ATOM     55 O    PRO A  18      42.204  63.123  37.703  1.00 75.87 LIG-0.27  OA
ATOM     56  N   ALA A  19      40.273  64.020  36.891  1.00 80.14 LIG-0.35  N 
ATOM     57 H    ALA A  19      39.717  64.676  36.880  1.00 80.14 LIG 0.16  HD
BRANCH 56 58
ATOM     58  CA  ALA A  19      39.996  63.006  35.856  1.00 81.44 LIG 0.16  C 
ATOM     59  CB  ALA A  19      38.836  63.464  34.976  1.00 83.90 LIG 0.04  C 
BRANCH 58 60
ATOM     60  C   ALA A  19      41.172  62.553  34.985  1.00 82.06 LIG 0.22  C 
ATOM     61 O    ALA A  19      41.155  61.437  34.442  1.00 84.95 LIG-0.29  OA
ENDBRANCH 58 60
ENDBRANCH 56 58
ENDBRANCH 50 54
ENDBRANCH 46 47
BRANCH 46 62
ATOM     62  CB  ARG A  17      39.624  64.308  43.081  1.00 51.88 LIG 0.04  C 
BRANCH 62 63
ATOM     63  CG  ARG A  17      38.331  65.057  43.238  1.00 49.36 LIG 0.02  C 
BRANCH 63 64
ATOM     64  CD  ARG A  17      38.191  65.586  44.694  1.00 46.57 LIG 0.14  C 
BRANCH 64 65
ATOM     65  NE  ARG A  17      37.590  64.601  45.615  1.00 43.47 LIG-0.23  N 
ATOM     66 HE   ARG A  17      36.804  64.309  45.425  1.00 43.47 LIG 0.18  HD
ATOM     67  CZ  ARG A  17      38.173  64.128  46.724  1.00 44.86 LIG 0.67  C 
ATOM     68  NH2 ARG A  17      37.512  63.251  47.471  1.00 38.62 LIG-0.23  N 
ATOM     69  NH1 ARG A  17      39.401  64.536  47.101  1.00 40.09 LIG-0.23  N 
ATOM     70 1HH2 ARG A  17      36.724  62.998  47.240  1.00 38.62 LIG 0.17  HD
ATOM     71 2HH2 ARG A  17      37.873  62.937  48.186  1.00 38.62 LIG 0.17  HD
ATOM     72 2HH1 ARG A  17      39.759  64.219  47.816  1.00 40.09 LIG 0.17  HD
ATOM     73 1HH1 ARG A  17      39.828  65.113  46.626  1.00 40.09 LIG 0.17  HD
ENDBRANCH 64 65
ENDBRANCH 63 64
ENDBRANCH 62 63
ENDBRANCH 46 62
ENDBRANCH 44 46
ENDBRANCH 40 42
ENDBRANCH 3 40
TORSDOF 27
ENDMDL
