MODEL 1
USER: ADFR SOLUTION from run 97
USER: SCORE 19.111629 LL:  -3.747 LR: -17.217 RR:   0.000 FEB: -10.952
USER: RMSD 2.312128
USER: SEED 96
USER: STATUS no improvement in best in 2 clusters for 5 generations
USER: GENES 23
USER: genes 0 Translation |==|  0.43898 0.53020 0.53514
USER: genes 1 Rotation |==|  0.49127 0.56656 0.38366 0.98162
USER: genes 2 Torsion [N]-C--CA-[N] |==|  0.40946
USER: genes 3 Torsion [C]-CA--CB-[CG2] |==|  0.99704
USER: genes 4 Torsion [CA]-CB--OG1-[HG1] |==|  0.96234
USER: genes 5 Torsion [C]-CA--N-[C] |==|  0.60556
USER: genes 6 Torsion [N]-C--CA-[N] |==|  0.50899
USER: genes 7 Torsion [N]-C--CA-[N] |==|  0.41606
USER: genes 8 Torsion [C]-CA--CB-[CG] |==|  0.36744
USER: genes 9 Torsion [CA]-CB--CG-[CD1] |==|  0.98805
USER: genes 10 Torsion [CE2]-CZ--OH-[HH] |==|  0.88832
USER: genes 11 Torsion [C]-N--CA-[CB] |==|  0.23312
USER: genes 12 Torsion [N]-CA--C-[N] |==|  0.29393
USER: genes 13 Torsion [C]-N--CA-[CB] |==|  0.49578
USER: genes 14 Torsion [N]-CA--CB-[CG2] |==|  0.23116
USER: genes 15 Torsion [CA]-CB--CG1-[CD1] |==|  0.30585
USER: genes 16 Torsion [N]-CA--C-[N] |==|  0.44558
USER: genes 17 Torsion [C]-N--CA-[C] |==|  0.63219
USER: genes 18 Torsion [N]-CA--C-[O] |==|  0.93876
USER: genes 19 Torsion [N]-CA--CB-[CG2] |==|  0.62287
USER: genes 20 Torsion [CA]-CB--CG1-[CD1] |==|  0.72616
USER: genes 21 Torsion [N]-CA--CB-[OG] |==|  0.73840
USER: genes 22 Torsion [CA]-CB--OG-[HG] |==|  0.27399
ROOT
ATOM      1  C   THR C   7      13.624  48.891  63.663  1.00 18.08 LIG 0.24  C 
ATOM      2 O    THR C   7      12.761  49.663  64.100  1.00 21.38 LIG-0.27  OA
ATOM      3  N   SER C   8      14.187  49.032  62.471  1.00 10.50 LIG-0.34  N 
ATOM      4 H    SER C   8      14.789  48.502  62.159  1.00 10.50 LIG 0.16  HD
ENDROOT
BRANCH 1 5
ATOM      5  CA  THR C   7      14.110  47.708  64.482  1.00 13.33 LIG 0.20  C 
BRANCH 5 6
ATOM      6  CB  THR C   7      13.304  46.445  64.133  1.00 16.97 LIG 0.15  C 
ATOM      7  CG2 THR C   7      12.243  46.764  63.089  1.00 19.32 LIG 0.04  C 
BRANCH 6 8
ATOM      8 OG1  THR C   7      14.190  45.425  63.641  1.00 21.79 LIG-0.39  OA
ATOM      9 HG1  THR C   7      14.937  45.766  63.463  1.00 21.79 LIG 0.21  HD
ENDBRANCH 6 8
ENDBRANCH 5 6
BRANCH 5 10
ATOM     10  N   THR C   7      14.080  48.024  65.896  1.00 19.25 LIG-0.34  N 
ATOM     11 H    THR C   7      13.408  48.498  66.144  1.00 19.25 LIG 0.16  HD
ATOM     12  C   PRO C   6      15.035  47.595  66.710  1.00 35.57 LIG 0.24  C 
ATOM     13 O    PRO C   6      15.879  46.756  66.377  1.00 20.23 LIG-0.27  OA
BRANCH 12 14
ATOM     14  CA  PRO C   6      15.030  48.192  68.110  1.00 23.31 LIG 0.18  C 
ATOM     15  N   PRO C   6      16.160  47.720  68.911  1.00 34.44 LIG-0.34  N 
ATOM     16  CD  PRO C   6      17.113  48.803  69.209  1.00 34.96 LIG 0.13  C 
ATOM     17  C   TYR C   5      16.282  46.434  69.255  1.00 33.78 LIG 0.26  C 
ATOM     18  CG  PRO C   6      16.736  49.860  68.215  1.00 38.31 LIG 0.02  C 
ATOM     19  CB  PRO C   6      15.271  49.703  68.023  1.00 34.95 LIG 0.04  C 
ATOM     20 O    TYR C   5      15.460  45.575  68.932  1.00 45.70 LIG-0.27  OA
BRANCH 17 21
ATOM     21  CA  TYR C   5      17.507  46.064  70.081  1.00 58.74 LIG 0.40  C 
ATOM     22  N   TYR C   5      17.234  44.936  70.964  1.00 59.06 LIG 0.61  N 
BRANCH 21 23
ATOM     23  CB  TYR C   5      18.674  45.742  69.153  1.00 34.94 LIG 0.09  C 
BRANCH 23 24
ATOM     24  CG  TYR C   5      19.961  46.426  69.541  1.00 34.23 LIG-0.06  A 
ATOM     25  CD2 TYR C   5      21.147  46.160  68.869  1.00 27.31 LIG 0.01  A 
ATOM     26  CE2 TYR C   5      22.323  46.782  69.229  1.00 26.06 LIG 0.04  A 
ATOM     27  CZ  TYR C   5      22.321  47.677  70.283  1.00 36.51 LIG 0.07  A 
ATOM     28  CE1 TYR C   5      21.159  47.951  70.964  1.00 26.29 LIG 0.04  A 
ATOM     29  CD1 TYR C   5      19.992  47.327  70.596  1.00 43.81 LIG 0.01  A 
BRANCH 27 30
ATOM     30 OH   TYR C   5      23.482  48.305  70.662  1.00 29.24 LIG-0.36  OA
ATOM     31 HH   TYR C   5      24.120  47.759  70.628  1.00 29.24 LIG 0.22  HD
ENDBRANCH 27 30
ENDBRANCH 23 24
ENDBRANCH 21 23
ENDBRANCH 17 21
ENDBRANCH 12 14
ENDBRANCH 5 10
ENDBRANCH 1 5
BRANCH 3 32
ATOM     32  CA  SER C   8      13.823  50.116  61.576  1.00 11.88 LIG 0.20  C 
BRANCH 32 33
ATOM     33  C   SER C   8      14.088  49.733  60.126  1.00 17.35 LIG 0.24  C 
ATOM     34  N   ILE C   9      13.013  49.452  59.391  1.00 10.16 LIG-0.35  N 
ATOM     35 H    ILE C   9      12.210  49.464  59.700  1.00 10.16 LIG 0.16  HD
ATOM     36 O    SER C   8      15.236  49.688  59.691  1.00 14.22 LIG-0.27  OA
BRANCH 34 37
ATOM     37  CA  ILE C   9      13.099  49.094  57.981  1.00 13.20 LIG 0.18  C 
BRANCH 37 38
ATOM     38  CB  ILE C   9      11.690  48.787  57.408  1.00  8.93 LIG 0.01  C 
ATOM     39  CG2 ILE C   9      10.979  50.085  57.004  1.00 11.66 LIG 0.01  C 
BRANCH 38 40
ATOM     40  CG1 ILE C   9      11.800  47.797  56.236  1.00 12.22 LIG 0.00  C 
ATOM     41  CD1 ILE C   9      11.236  46.396  56.562  1.00 19.01 LIG 0.01  C 
ENDBRANCH 38 40
ENDBRANCH 37 38
BRANCH 37 42
ATOM     42  C   ILE C   9      13.732  50.233  57.185  1.00 14.83 LIG 0.24  C 
ATOM     43 O    ILE C   9      13.770  51.367  57.656  1.00 18.18 LIG-0.27  OA
ATOM     44  N   ILE C  10      14.243  49.930  55.993  1.00 11.92 LIG-0.34  N 
ATOM     45 H    ILE C  10      14.238  49.142  55.650  1.00 11.92 LIG 0.16  HD
BRANCH 44 46
ATOM     46  CA  ILE C  10      14.870  50.955  55.158  1.00 12.50 LIG 0.19  C 
BRANCH 46 47
ATOM     47  C   ILE C  10      14.380  50.908  53.714  1.00 15.06 LIG 0.20  C 
ATOM     48 O    ILE C  10      13.879  49.893  53.215  1.00 13.42 LIG-0.65  OA
ATOM     49 OXT  ILE C  10      14.480  51.909  53.012  1.00 18.96 LIG-0.65  OA
ENDBRANCH 46 47
BRANCH 46 50
ATOM     50  CB  ILE C  10      16.408  50.841  55.163  1.00 14.56 LIG 0.01  C 
ATOM     51  CG2 ILE C  10      17.044  52.217  55.318  1.00 21.35 LIG 0.01  C 
BRANCH 50 52
ATOM     52  CG1 ILE C  10      16.854  49.893  56.276  1.00 14.22 LIG 0.00  C 
ATOM     53  CD1 ILE C  10      17.301  50.606  57.528  1.00 24.35 LIG 0.01  C 
ENDBRANCH 50 52
ENDBRANCH 46 50
ENDBRANCH 44 46
ENDBRANCH 37 42
ENDBRANCH 34 37
ENDBRANCH 32 33
BRANCH 32 54
ATOM     54  CB  SER C   8      14.601  51.388  61.917  1.00 17.33 LIG 0.20  C 
BRANCH 54 55
ATOM     55 OG   SER C   8      13.851  52.214  62.788  1.00 18.52 LIG-0.40  OA
ATOM     56 HG   SER C   8      14.110  52.096  63.578  1.00 18.52 LIG 0.21  HD
ENDBRANCH 54 55
ENDBRANCH 32 54
ENDBRANCH 3 32
TORSDOF 21
ENDMDL
MODEL 2
USER: ADFR SOLUTION from run 97
USER: SCORE 18.930578 LL:  -3.376 LR: -16.782 RR:   0.000 FEB: -10.518
USER: RMSD 3.454895
USER: SEED 96
USER: STATUS no improvement in best in 2 clusters for 5 generations
USER: GENES 23
USER: genes 0 Translation |==|  0.43576 0.53249 0.53396
USER: genes 1 Rotation |==|  0.51034 0.56344 0.40379 0.98643
USER: genes 2 Torsion [N]-C--CA-[N] |==|  0.40557
USER: genes 3 Torsion [C]-CA--CB-[CG2] |==|  0.01351
USER: genes 4 Torsion [CA]-CB--OG1-[HG1] |==|  0.94422
USER: genes 5 Torsion [C]-CA--N-[C] |==|  0.60790
USER: genes 6 Torsion [N]-C--CA-[N] |==|  0.50084
USER: genes 7 Torsion [N]-C--CA-[N] |==|  0.40393
USER: genes 8 Torsion [C]-CA--CB-[CG] |==|  0.36345
USER: genes 9 Torsion [CA]-CB--CG-[CD1] |==|  0.03116
USER: genes 10 Torsion [CE2]-CZ--OH-[HH] |==|  0.86556
USER: genes 11 Torsion [C]-N--CA-[CB] |==|  0.18972
USER: genes 12 Torsion [N]-CA--C-[N] |==|  0.54912
USER: genes 13 Torsion [C]-N--CA-[CB] |==|  0.86473
USER: genes 14 Torsion [N]-CA--CB-[CG2] |==|  0.39127
USER: genes 15 Torsion [CA]-CB--CG1-[CD1] |==|  0.88959
USER: genes 16 Torsion [N]-CA--C-[N] |==|  0.39392
USER: genes 17 Torsion [C]-N--CA-[C] |==|  0.74128
USER: genes 18 Torsion [N]-CA--C-[O] |==|  0.05036
USER: genes 19 Torsion [N]-CA--CB-[CG2] |==|  0.79480
USER: genes 20 Torsion [CA]-CB--CG1-[CD1] |==|  0.48038
USER: genes 21 Torsion [N]-CA--CB-[OG] |==|  0.81165
USER: genes 22 Torsion [CA]-CB--OG-[HG] |==|  0.28159
ROOT
ATOM      1  C   THR C   7      13.559  48.929  63.631  1.00 18.08 LIG 0.24  C 
ATOM      2 O    THR C   7      12.630  49.599  64.099  1.00 21.38 LIG-0.27  OA
ATOM      3  N   SER C   8      14.143  49.207  62.474  1.00 10.50 LIG-0.34  N 
ATOM      4 H    SER C   8      14.791  48.749  62.141  1.00 10.50 LIG 0.16  HD
ENDROOT
BRANCH 1 5
ATOM      5  CA  THR C   7      14.107  47.720  64.369  1.00 13.33 LIG 0.20  C 
BRANCH 5 6
ATOM      6  CB  THR C   7      13.382  46.440  63.917  1.00 16.97 LIG 0.15  C 
ATOM      7  CG2 THR C   7      12.416  46.750  62.781  1.00 19.32 LIG 0.04  C 
BRANCH 6 8
ATOM      8 OG1  THR C   7      14.345  45.461  63.493  1.00 21.79 LIG-0.39  OA
ATOM      9 HG1  THR C   7      15.071  45.843  63.310  1.00 21.79 LIG 0.21  HD
ENDBRANCH 6 8
ENDBRANCH 5 6
BRANCH 5 10
ATOM     10  N   THR C   7      14.045  47.928  65.800  1.00 19.25 LIG-0.34  N 
ATOM     11 H    THR C   7      13.337  48.332  66.075  1.00 19.25 LIG 0.16  HD
ATOM     12  C   PRO C   6      15.024  47.513  66.593  1.00 35.57 LIG 0.24  C 
ATOM     13 O    PRO C   6      15.930  46.764  66.210  1.00 20.23 LIG-0.27  OA
BRANCH 12 14
ATOM     14  CA  PRO C   6      14.966  48.004  68.032  1.00 23.31 LIG 0.18  C 
ATOM     15  N   PRO C   6      16.087  47.502  68.828  1.00 34.44 LIG-0.34  N 
ATOM     16  CD  PRO C   6      17.001  48.583  69.232  1.00 34.96 LIG 0.13  C 
ATOM     17  C   TYR C   5      16.234  46.198  69.080  1.00 33.78 LIG 0.26  C 
ATOM     18  CG  PRO C   6      16.622  49.701  68.308  1.00 38.31 LIG 0.02  C 
ATOM     19  CB  PRO C   6      15.168  49.522  68.063  1.00 34.95 LIG 0.04  C 
ATOM     20 O    TYR C   5      15.445  45.345  68.672  1.00 45.70 LIG-0.27  OA
BRANCH 17 21
ATOM     21  CA  TYR C   5      17.447  45.798  69.911  1.00 58.74 LIG 0.40  C 
ATOM     22  N   TYR C   5      17.150  44.664  70.777  1.00 59.06 LIG 0.61  N 
BRANCH 21 23
ATOM     23  CB  TYR C   5      18.617  45.470  68.988  1.00 34.94 LIG 0.09  C 
BRANCH 23 24
ATOM     24  CG  TYR C   5      19.902  46.157  69.376  1.00 34.23 LIG-0.06  A 
ATOM     25  CD2 TYR C   5      21.006  46.143  68.533  1.00 27.31 LIG 0.01  A 
ATOM     26  CE2 TYR C   5      22.182  46.766  68.891  1.00 26.06 LIG 0.04  A 
ATOM     27  CZ  TYR C   5      22.264  47.407  70.114  1.00 36.51 LIG 0.07  A 
ATOM     28  CE1 TYR C   5      21.185  47.428  70.964  1.00 26.29 LIG 0.04  A 
ATOM     29  CD1 TYR C   5      20.016  46.806  70.596  1.00 43.81 LIG 0.01  A 
BRANCH 27 30
ATOM     30 OH   TYR C   5      23.427  48.030  70.494  1.00 29.24 LIG-0.36  OA
ATOM     31 HH   TYR C   5      24.077  47.512  70.369  1.00 29.24 LIG 0.22  HD
ENDBRANCH 27 30
ENDBRANCH 23 24
ENDBRANCH 21 23
ENDBRANCH 17 21
ENDBRANCH 12 14
ENDBRANCH 5 10
ENDBRANCH 1 5
BRANCH 3 32
ATOM     32  CA  SER C   8      13.726  50.333  61.657  1.00 11.88 LIG 0.20  C 
BRANCH 32 33
ATOM     33  C   SER C   8      14.383  50.279  60.284  1.00 17.35 LIG 0.24  C 
ATOM     34  N   ILE C   9      14.376  51.416  59.590  1.00 10.16 LIG-0.35  N 
ATOM     35 H    ILE C   9      14.015  52.143  59.872  1.00 10.16 LIG 0.16  HD
ATOM     36 O    SER C   8      14.876  49.234  59.867  1.00 14.22 LIG-0.27  OA
BRANCH 34 37
ATOM     37  CA  ILE C   9      14.988  51.532  58.272  1.00 13.20 LIG 0.18  C 
BRANCH 37 38
ATOM     38  CB  ILE C   9      16.425  50.944  58.282  1.00  8.93 LIG 0.01  C 
ATOM     39  CG2 ILE C   9      16.702  50.181  56.981  1.00 11.66 LIG 0.01  C 
BRANCH 38 40
ATOM     40  CG1 ILE C   9      17.452  52.061  58.529  1.00 12.22 LIG 0.00  C 
ATOM     41  CD1 ILE C   9      17.117  53.376  57.791  1.00 19.01 LIG 0.01  C 
ENDBRANCH 38 40
ENDBRANCH 37 38
BRANCH 37 42
ATOM     42  C   ILE C   9      14.148  50.796  57.232  1.00 14.83 LIG 0.24  C 
ATOM     43 O    ILE C   9      13.594  49.739  57.523  1.00 18.18 LIG-0.27  OA
ATOM     44  N   ILE C  10      14.036  51.360  56.031  1.00 11.92 LIG-0.34  N 
ATOM     45 H    ILE C  10      14.405  52.105  55.810  1.00 11.92 LIG 0.16  HD
BRANCH 44 46
ATOM     46  CA  ILE C  10      13.251  50.729  54.970  1.00 12.50 LIG 0.19  C 
BRANCH 46 47
ATOM     47  C   ILE C  10      14.101  49.841  54.067  1.00 15.06 LIG 0.20  C 
ATOM     48 O    ILE C  10      15.217  49.425  54.404  1.00 13.42 LIG-0.65  OA
ATOM     49 OXT  ILE C  10      13.673  49.518  52.964  1.00 18.96 LIG-0.65  OA
ENDBRANCH 46 47
BRANCH 46 50
ATOM     50  CB  ILE C  10      12.522  51.770  54.095  1.00 14.56 LIG 0.01  C 
ATOM     51  CG2 ILE C  10      11.338  52.365  54.850  1.00 21.35 LIG 0.01  C 
BRANCH 50 52
ATOM     52  CG1 ILE C  10      13.503  52.855  53.655  1.00 14.22 LIG 0.00  C 
ATOM     53  CD1 ILE C  10      12.918  53.824  52.657  1.00 24.35 LIG 0.01  C 
ENDBRANCH 50 52
ENDBRANCH 46 50
ENDBRANCH 44 46
ENDBRANCH 37 42
ENDBRANCH 34 37
ENDBRANCH 32 33
BRANCH 32 54
ATOM     54  CB  SER C   8      14.075  51.658  62.337  1.00 17.33 LIG 0.20  C 
BRANCH 54 55
ATOM     55 OG   SER C   8      13.294  51.841  63.503  1.00 18.52 LIG-0.40  OA
ATOM     56 HG   SER C   8      13.754  51.654  64.181  1.00 18.52 LIG 0.21  HD
ENDBRANCH 54 55
ENDBRANCH 32 54
ENDBRANCH 3 32
TORSDOF 21
ENDMDL
MODEL 3
USER: ADFR SOLUTION from run 40
USER: SCORE 16.806082 LL:  -3.933 LR: -15.804 RR:   0.000 FEB:  -9.540
USER: RMSD 1.732170
USER: SEED 39
USER: STATUS no improvement in best in 1 clusters for 5 generations
USER: GENES 23
USER: genes 0 Translation |==|  0.42620 0.47607 0.50610
USER: genes 1 Rotation |==|  0.58593 0.36286 0.60557 0.96116
USER: genes 2 Torsion [N]-C--CA-[N] |==|  0.24155
USER: genes 3 Torsion [C]-CA--CB-[CG2] |==|  0.50386
USER: genes 4 Torsion [CA]-CB--OG1-[HG1] |==|  0.73563
USER: genes 5 Torsion [C]-CA--N-[C] |==|  0.61719
USER: genes 6 Torsion [N]-C--CA-[N] |==|  0.51395
USER: genes 7 Torsion [N]-C--CA-[N] |==|  0.19420
USER: genes 8 Torsion [C]-CA--CB-[CG] |==|  0.19798
USER: genes 9 Torsion [CA]-CB--CG-[CD1] |==|  0.18237
USER: genes 10 Torsion [CE2]-CZ--OH-[HH] |==|  0.71019
USER: genes 11 Torsion [C]-N--CA-[CB] |==|  0.43056
USER: genes 12 Torsion [N]-CA--C-[N] |==|  0.31864
USER: genes 13 Torsion [C]-N--CA-[CB] |==|  0.46667
USER: genes 14 Torsion [N]-CA--CB-[CG2] |==|  0.49913
USER: genes 15 Torsion [CA]-CB--CG1-[CD1] |==|  0.25121
USER: genes 16 Torsion [N]-CA--C-[N] |==|  0.42098
USER: genes 17 Torsion [C]-N--CA-[C] |==|  0.64016
USER: genes 18 Torsion [N]-CA--C-[O] |==|  0.94682
USER: genes 19 Torsion [N]-CA--CB-[CG2] |==|  0.71648
USER: genes 20 Torsion [CA]-CB--CG1-[CD1] |==|  0.72357
USER: genes 21 Torsion [N]-CA--CB-[OG] |==|  0.78710
USER: genes 22 Torsion [CA]-CB--OG-[HG] |==|  0.24235
ROOT
ATOM      1  C   THR C   7      13.366  47.998  62.879  1.00 18.08 LIG 0.24  C 
ATOM      2 O    THR C   7      12.254  47.795  62.374  1.00 21.38 LIG-0.27  OA
ATOM      3  N   SER C   8      14.107  49.060  62.597  1.00 10.50 LIG-0.34  N 
ATOM      4 H    SER C   8      14.880  49.211  62.944  1.00 10.50 LIG 0.16  HD
ENDROOT
BRANCH 1 5
ATOM      5  CA  THR C   7      13.965  47.026  63.879  1.00 13.33 LIG 0.20  C 
BRANCH 5 6
ATOM      6  CB  THR C   7      13.533  45.585  63.556  1.00 16.97 LIG 0.15  C 
ATOM      7  CG2 THR C   7      14.107  44.616  64.580  1.00 19.32 LIG 0.04  C 
BRANCH 6 8
ATOM      8 OG1  THR C   7      12.098  45.500  63.546  1.00 21.79 LIG-0.39  OA
ATOM      9 HG1  THR C   7      11.827  45.240  64.298  1.00 21.79 LIG 0.21  HD
ENDBRANCH 6 8
ENDBRANCH 5 6
BRANCH 5 10
ATOM     10  N   THR C   7      13.636  47.423  65.233  1.00 19.25 LIG-0.34  N 
ATOM     11 H    THR C   7      12.825  47.685  65.343  1.00 19.25 LIG 0.16  HD
ATOM     12  C   PRO C   6      14.543  47.370  66.198  1.00 35.57 LIG 0.24  C 
ATOM     13 O    PRO C   6      15.635  46.807  66.068  1.00 20.23 LIG-0.27  OA
BRANCH 12 14
ATOM     14  CA  PRO C   6      14.156  48.041  67.509  1.00 23.31 LIG 0.18  C 
ATOM     15  N   PRO C   6      15.258  48.037  68.473  1.00 34.44 LIG-0.34  N 
ATOM     16  CD  PRO C   6      15.764  49.394  68.735  1.00 34.96 LIG 0.13  C 
ATOM     17  C   TYR C   5      15.736  46.896  68.979  1.00 33.78 LIG 0.26  C 
ATOM     18  CG  PRO C   6      15.207  50.183  67.588  1.00 38.31 LIG 0.02  C 
ATOM     19  CB  PRO C   6      13.911  49.534  67.267  1.00 34.95 LIG 0.04  C 
ATOM     20 O    TYR C   5      15.285  45.790  68.679  1.00 45.70 LIG-0.27  OA
BRANCH 17 21
ATOM     21  CA  TYR C   5      16.891  47.021  69.965  1.00 58.74 LIG 0.40  C 
ATOM     22  N   TYR C   5      16.455  47.608  71.226  1.00 59.06 LIG 0.61  N 
BRANCH 21 23
ATOM     23  CB  TYR C   5      17.514  45.649  70.204  1.00 34.94 LIG 0.09  C 
BRANCH 23 24
ATOM     24  CG  TYR C   5      18.294  45.126  69.024  1.00 34.23 LIG-0.06  A 
ATOM     25  CD2 TYR C   5      17.888  43.987  68.342  1.00 27.31 LIG 0.01  A 
ATOM     26  CE2 TYR C   5      18.605  43.508  67.267  1.00 26.06 LIG 0.04  A 
ATOM     27  CZ  TYR C   5      19.754  44.168  66.870  1.00 36.51 LIG 0.07  A 
ATOM     28  CE1 TYR C   5      20.176  45.294  67.535  1.00 26.29 LIG 0.04  A 
ATOM     29  CD1 TYR C   5      19.451  45.765  68.604  1.00 43.81 LIG 0.01  A 
BRANCH 27 30
ATOM     30 OH   TYR C   5      20.488  43.706  65.806  1.00 29.24 LIG-0.36  OA
ATOM     31 HH   TYR C   5      21.180  43.322  66.089  1.00 29.24 LIG 0.22  HD
ENDBRANCH 27 30
ENDBRANCH 23 24
ENDBRANCH 21 23
ENDBRANCH 17 21
ENDBRANCH 12 14
ENDBRANCH 5 10
ENDBRANCH 1 5
BRANCH 3 32
ATOM     32  CA  SER C   8      13.665  50.075  61.657  1.00 11.88 LIG 0.20  C 
BRANCH 32 33
ATOM     33  C   SER C   8      13.972  49.659  60.225  1.00 17.35 LIG 0.24  C 
ATOM     34  N   ILE C   9      12.916  49.441  59.443  1.00 10.16 LIG-0.35  N 
ATOM     35 H    ILE C   9      12.102  49.510  59.713  1.00 10.16 LIG 0.16  HD
ATOM     36 O    SER C   8      15.133  49.534  59.846  1.00 14.22 LIG-0.27  OA
BRANCH 34 37
ATOM     37  CA  ILE C   9      13.045  49.063  58.041  1.00 13.20 LIG 0.18  C 
BRANCH 37 38
ATOM     38  CB  ILE C   9      11.679  48.589  57.475  1.00  8.93 LIG 0.01  C 
ATOM     39  CG2 ILE C   9      11.816  48.198  55.999  1.00 11.66 LIG 0.01  C 
BRANCH 38 40
ATOM     40  CG1 ILE C   9      11.123  47.437  58.330  1.00 12.22 LIG 0.00  C 
ATOM     41  CD1 ILE C   9      10.224  47.916  59.492  1.00 19.01 LIG 0.01  C 
ENDBRANCH 38 40
ENDBRANCH 37 38
BRANCH 37 42
ATOM     42  C   ILE C   9      13.550  50.245  57.219  1.00 14.83 LIG 0.24  C 
ATOM     43 O    ILE C   9      13.317  51.395  57.584  1.00 18.18 LIG-0.27  OA
ATOM     44  N   ILE C  10      14.255  49.967  56.123  1.00 11.92 LIG-0.34  N 
ATOM     45 H    ILE C  10      14.439  49.170  55.855  1.00 11.92 LIG 0.16  HD
BRANCH 44 46
ATOM     46  CA  ILE C  10      14.780  51.034  55.272  1.00 12.50 LIG 0.19  C 
BRANCH 46 47
ATOM     47  C   ILE C  10      14.433  50.829  53.801  1.00 15.06 LIG 0.20  C 
ATOM     48 O    ILE C  10      14.096  49.730  53.344  1.00 13.42 LIG-0.65  OA
ATOM     49 OXT  ILE C  10      14.485  51.783  53.031  1.00 18.96 LIG-0.65  OA
ENDBRANCH 46 47
BRANCH 46 50
ATOM     50  CB  ILE C  10      16.311  51.176  55.404  1.00 14.56 LIG 0.01  C 
ATOM     51  CG2 ILE C  10      16.661  52.364  56.292  1.00 21.35 LIG 0.01  C 
BRANCH 50 52
ATOM     52  CG1 ILE C  10      16.906  49.878  55.949  1.00 14.22 LIG 0.00  C 
ATOM     53  CD1 ILE C  10      17.195  49.926  57.430  1.00 24.35 LIG 0.01  C 
ENDBRANCH 50 52
ENDBRANCH 46 50
ENDBRANCH 44 46
ENDBRANCH 37 42
ENDBRANCH 34 37
ENDBRANCH 32 33
BRANCH 32 54
ATOM     54  CB  SER C   8      14.335  51.418  61.953  1.00 17.33 LIG 0.20  C 
BRANCH 54 55
ATOM     55 OG   SER C   8      13.735  52.039  63.074  1.00 18.52 LIG-0.40  OA
ATOM     56 HG   SER C   8      14.109  51.770  63.777  1.00 18.52 LIG 0.21  HD
ENDBRANCH 54 55
ENDBRANCH 32 54
ENDBRANCH 3 32
TORSDOF 21
ENDMDL
