MODEL 1
USER: ADFR SOLUTION from run 123
USER: SCORE 17.336626 LL:  -4.718 LR: -14.964 RR:   0.000 FEB:  -9.595
USER: RMSD 3.556029
USER: SEED 122
USER: STATUS no improvement in best in 6 clusters for 5 generations
USER: GENES 20
USER: genes 0 Translation |==|  0.40568 0.51630 0.47796
USER: genes 1 Rotation |==|  0.56776 0.49798 0.44021 0.99176
USER: genes 2 Torsion [C]-CA--CB-[CG] |==|  0.48426
USER: genes 3 Torsion [CA]-CB--CG-[CD1] |==|  0.76660
USER: genes 4 Torsion [CE2]-CZ--OH-[HH] |==|  0.00367
USER: genes 5 Torsion [N]-CA--C-[N] |==|  0.99393
USER: genes 6 Torsion [C]-N--CA-[CB] |==|  0.38681
USER: genes 7 Torsion [N]-CA--CB-[CG] |==|  0.78073
USER: genes 8 Torsion [CA]-CB--CG-[CD1] |==|  0.64831
USER: genes 9 Torsion [N]-CA--C-[N] |==|  0.03328
USER: genes 10 Torsion [C]-N--CA-[C] |==|  0.84234
USER: genes 11 Torsion [N]-CA--C-[O] |==|  0.32814
USER: genes 12 Torsion [N]-CA--CB-[CG] |==|  0.13546
USER: genes 13 Torsion [CA]-CB--CG-[CD2] |==|  0.75804
USER: genes 14 Torsion [CB]-CA--N-[C] |==|  0.84382
USER: genes 15 Torsion [N]-C--CA-[N] |==|  0.39299
USER: genes 16 Torsion [C]-CA--N-[C] |==|  0.83569
USER: genes 17 Torsion [N]-C--CA-[N] |==|  0.31213
USER: genes 18 Torsion [C]-CA--CB-[CG] |==|  0.45749
USER: genes 19 Torsion [CA]-CB--CG-[OD1] |==|  0.94096
ROOT
ATOM      1  CA  TYR C 307      14.158   6.625  13.199  1.00 19.42 LIG 0.18  C 
ENDROOT
BRANCH 1 2
ATOM      2  CB  TYR C 307      13.337   6.457  11.917  1.00 20.09 LIG 0.07  C 
BRANCH 2 3
ATOM      3  CG  TYR C 307      14.160   6.531  10.657  1.00 17.22 LIG-0.06  A 
ATOM      4  CD2 TYR C 307      14.613   5.376  10.034  1.00 23.64 LIG 0.01  A 
ATOM      5  CE2 TYR C 307      15.368   5.436   8.878  1.00 23.84 LIG 0.04  A 
ATOM      6  CZ  TYR C 307      15.678   6.662   8.329  1.00 20.80 LIG 0.07  A 
ATOM      7  CE1 TYR C 307      15.239   7.825   8.926  1.00 18.70 LIG 0.04  A 
ATOM      8  CD1 TYR C 307      14.482   7.756  10.084  1.00 26.65 LIG 0.01  A 
BRANCH 6 9
ATOM      9 OH   TYR C 307      16.429   6.719   7.177  1.00 27.63 LIG-0.36  OA
ATOM     10 HH   TYR C 307      16.606   5.940   6.919  1.00 27.63 LIG 0.22  HD
ENDBRANCH 6 9
ENDBRANCH 2 3
ENDBRANCH 1 2
BRANCH 1 11
ATOM     11  C   TYR C 307      13.225   6.677  14.405  1.00 24.68 LIG 0.24  C 
ATOM     12 O    TYR C 307      12.342   7.531  14.472  1.00 26.67 LIG-0.27  OA
ATOM     13  N   PHE C 308      13.426   5.780  15.362  1.00 19.41 LIG-0.35  N 
ATOM     14 H    PHE C 308      14.091   5.235  15.388  1.00 19.41 LIG 0.16  HD
BRANCH 13 15
ATOM     15  CA  PHE C 308      12.489   5.662  16.475  1.00 14.41 LIG 0.18  C 
BRANCH 15 16
ATOM     16  CB  PHE C 308      12.260   4.188  16.809  1.00 18.98 LIG 0.07  C 
BRANCH 16 17
ATOM     17  CG  PHE C 308      11.308   3.511  15.875  1.00 22.36 LIG-0.06  A 
ATOM     18  CD1 PHE C 308      10.210   2.827  16.364  1.00 16.86 LIG 0.01  A 
ATOM     19  CE1 PHE C 308       9.321   2.218  15.508  1.00 17.00 LIG 0.00  A 
ATOM     20  CZ  PHE C 308       9.521   2.292  14.151  1.00 20.65 LIG 0.00  A 
ATOM     21  CE2 PHE C 308      10.614   2.967  13.650  1.00 20.83 LIG 0.00  A 
ATOM     22  CD2 PHE C 308      11.496   3.579  14.506  1.00 21.63 LIG 0.01  A 
ENDBRANCH 16 17
ENDBRANCH 15 16
BRANCH 15 23
ATOM     23  C   PHE C 308      12.917   6.436  17.716  1.00 40.94 LIG 0.24  C 
ATOM     24  N   LEU C 309      13.917   7.294  17.553  1.00 39.04 LIG-0.34  N 
ATOM     25 H    LEU C 309      14.330   7.411  16.807  1.00 39.04 LIG 0.16  HD
ATOM     26 O    PHE C 308      12.342   6.269  18.792  1.00 37.89 LIG-0.27  OA
BRANCH 24 27
ATOM     27  CA  LEU C 309      14.407   8.122  18.646  1.00 41.86 LIG 0.18  C 
BRANCH 27 28
ATOM     28  C   LEU C 309      13.284   8.968  19.238  1.00 52.06 LIG 0.20  C 
ATOM     29 O    LEU C 309      12.941   8.836  20.414  1.00 44.07 LIG-0.65  OA
ATOM     30 OXT  LEU C 309      12.693   9.805  18.552  1.00 57.31 LIG-0.65  OA
ENDBRANCH 27 28
BRANCH 27 31
ATOM     31  CB  LEU C 309      15.544   9.021  18.157  1.00 45.69 LIG 0.04  C 
BRANCH 31 32
ATOM     32  CG  LEU C 309      15.263   9.787  16.863  1.00 42.90 LIG-0.02  C 
ATOM     33  CD2 LEU C 309      15.630   8.942  15.653  1.00 51.11 LIG 0.01  C 
ATOM     34  CD1 LEU C 309      16.015  11.108  16.848  1.00 45.19 LIG 0.01  C 
ENDBRANCH 31 32
ENDBRANCH 27 31
ENDBRANCH 24 27
ENDBRANCH 15 23
ENDBRANCH 13 15
ENDBRANCH 1 11
BRANCH 1 35
ATOM     35  N   TYR C 307      15.196   5.598  13.299  1.00 25.78 LIG-0.35  N 
ATOM     36 H    TYR C 307      15.997   5.899  13.385  1.00 25.78 LIG 0.16  HD
ATOM     37  C   ASP C 306      14.873   4.309  13.253  1.00 34.41 LIG 0.24  C 
ATOM     38 O    ASP C 306      13.712   3.929  13.099  1.00 33.93 LIG-0.27  OA
BRANCH 37 39
ATOM     39  CA  ASP C 306      16.003   3.281  13.380  1.00 28.99 LIG 0.19  C 
BRANCH 39 40
ATOM     40  N   ASP C 306      15.689   2.086  14.163  1.00 47.80 LIG-0.34  N 
ATOM     41  C   PRO C 305      15.318   2.175  15.439  1.00 55.24 LIG 0.25  C 
ATOM     42 O    PRO C 305      15.105   3.247  16.008  1.00 37.29 LIG-0.27  OA
ATOM     43 H    ASP C 306      15.764   1.346  13.733  1.00 47.80 LIG 0.16  HD
BRANCH 41 44
ATOM     44  CA  PRO C 305      15.135   0.870  16.211  1.00 46.84 LIG 0.35  C 
ATOM     45  N   PRO C 305      16.139   0.688  17.265  1.00 55.65 LIG 0.32  N 
ATOM     46  CD  PRO C 305      15.540   0.719  18.610  1.00 37.59 LIG 0.32  C 
ATOM     47  CG  PRO C 305      14.195   1.334  18.365  1.00 48.04 LIG 0.04  C 
ATOM     48  CB  PRO C 305      13.814   0.902  16.990  1.00 49.04 LIG 0.05  C 
ENDBRANCH 41 44
ENDBRANCH 39 40
BRANCH 39 49
ATOM     49  CB  ASP C 306      16.482   2.887  11.979  1.00 37.50 LIG 0.15  C 
BRANCH 49 50
ATOM     50  CG  ASP C 306      17.821   2.173  12.000  1.00 60.25 LIG 0.17  C 
ATOM     51 OD1  ASP C 306      18.565   2.325  12.992  1.00 61.15 LIG-0.65  OA
ATOM     52 OD2  ASP C 306      18.129   1.462  11.019  1.00 58.41 LIG-0.65  OA
ENDBRANCH 49 50
ENDBRANCH 39 49
ENDBRANCH 37 39
ENDBRANCH 1 35
TORSDOF 18
ENDMDL
MODEL 2
USER: ADFR SOLUTION from run 51
USER: SCORE 15.574222 LL:  -4.372 LR: -14.729 RR:   0.000 FEB:  -9.360
USER: RMSD 3.119333
USER: SEED 50
USER: STATUS searching
USER: GENES 20
USER: genes 0 Translation |==|  0.40819 0.51312 0.45831
USER: genes 1 Rotation |==|  0.64812 0.47176 0.29889 0.93222
USER: genes 2 Torsion [C]-CA--CB-[CG] |==|  0.49682
USER: genes 3 Torsion [CA]-CB--CG-[CD1] |==|  0.70684
USER: genes 4 Torsion [CE2]-CZ--OH-[HH] |==|  0.99880
USER: genes 5 Torsion [N]-CA--C-[N] |==|  0.13658
USER: genes 6 Torsion [C]-N--CA-[CB] |==|  0.36413
USER: genes 7 Torsion [N]-CA--CB-[CG] |==|  0.79770
USER: genes 8 Torsion [CA]-CB--CG-[CD1] |==|  0.65426
USER: genes 9 Torsion [N]-CA--C-[N] |==|  0.04851
USER: genes 10 Torsion [C]-N--CA-[C] |==|  0.86284
USER: genes 11 Torsion [N]-CA--C-[O] |==|  0.29572
USER: genes 12 Torsion [N]-CA--CB-[CG] |==|  0.11807
USER: genes 13 Torsion [CA]-CB--CG-[CD2] |==|  0.73046
USER: genes 14 Torsion [CB]-CA--N-[C] |==|  0.29010
USER: genes 15 Torsion [N]-C--CA-[N] |==|  0.37778
USER: genes 16 Torsion [C]-CA--N-[C] |==|  0.72578
USER: genes 17 Torsion [N]-C--CA-[N] |==|  0.70239
USER: genes 18 Torsion [C]-CA--CB-[CG] |==|  0.67007
USER: genes 19 Torsion [CA]-CB--CG-[OD1] |==|  0.84626
ROOT
ATOM      1  CA  TYR C 307      14.209   6.570  12.771  1.00 19.42 LIG 0.18  C 
ENDROOT
BRANCH 1 2
ATOM      2  CB  TYR C 307      13.652   7.294  11.541  1.00 20.09 LIG 0.07  C 
BRANCH 2 3
ATOM      3  CG  TYR C 307      14.522   7.163  10.317  1.00 17.22 LIG-0.06  A 
ATOM      4  CD2 TYR C 307      14.568   5.975   9.600  1.00 23.64 LIG 0.01  A 
ATOM      5  CE2 TYR C 307      15.363   5.848   8.477  1.00 23.84 LIG 0.04  A 
ATOM      6  CZ  TYR C 307      16.125   6.917   8.057  1.00 20.80 LIG 0.07  A 
ATOM      7  CE1 TYR C 307      16.096   8.109   8.749  1.00 18.70 LIG 0.04  A 
ATOM      8  CD1 TYR C 307      15.296   8.229   9.873  1.00 26.65 LIG 0.01  A 
BRANCH 6 9
ATOM      9 OH   TYR C 307      16.915   6.789   6.937  1.00 27.63 LIG-0.36  OA
ATOM     10 HH   TYR C 307      16.835   6.014   6.625  1.00 27.63 LIG 0.22  HD
ENDBRANCH 6 9
ENDBRANCH 2 3
ENDBRANCH 1 2
BRANCH 1 11
ATOM     11  C   TYR C 307      13.276   6.784  13.960  1.00 24.68 LIG 0.24  C 
ATOM     12 O    TYR C 307      12.318   7.550  13.869  1.00 26.67 LIG-0.27  OA
ATOM     13  N   PHE C 308      13.561   6.125  15.076  1.00 19.41 LIG-0.35  N 
ATOM     14 H    PHE C 308      14.273   5.660  15.200  1.00 19.41 LIG 0.16  HD
BRANCH 13 15
ATOM     15  CA  PHE C 308      12.640   6.153  16.208  1.00 14.41 LIG 0.18  C 
BRANCH 15 16
ATOM     16  CB  PHE C 308      12.392   4.733  16.714  1.00 18.98 LIG 0.07  C 
BRANCH 16 17
ATOM     17  CG  PHE C 308      11.529   3.922  15.801  1.00 22.36 LIG-0.06  A 
ATOM     18  CD1 PHE C 308      10.372   3.326  16.271  1.00 16.86 LIG 0.01  A 
ATOM     19  CE1 PHE C 308       9.565   2.594  15.431  1.00 17.00 LIG 0.00  A 
ATOM     20  CZ  PHE C 308       9.906   2.456  14.107  1.00 20.65 LIG 0.00  A 
ATOM     21  CE2 PHE C 308      11.058   3.042  13.626  1.00 20.83 LIG 0.00  A 
ATOM     22  CD2 PHE C 308      11.858   3.777  14.465  1.00 21.63 LIG 0.01  A 
ENDBRANCH 16 17
ENDBRANCH 15 16
BRANCH 15 23
ATOM     23  C   PHE C 308      13.100   7.059  17.345  1.00 40.94 LIG 0.24  C 
ATOM     24  N   LEU C 309      14.035   7.950  17.039  1.00 39.04 LIG-0.34  N 
ATOM     25 H    LEU C 309      14.390   8.023  16.258  1.00 39.04 LIG 0.16  HD
ATOM     26 O    PHE C 308      12.608   6.958  18.469  1.00 37.89 LIG-0.27  OA
BRANCH 24 27
ATOM     27  CA  LEU C 309      14.544   8.899  18.019  1.00 41.86 LIG 0.18  C 
BRANCH 27 28
ATOM     28  C   LEU C 309      13.402   9.604  18.744  1.00 52.06 LIG 0.20  C 
ATOM     29 O    LEU C 309      13.122   9.327  19.911  1.00 44.07 LIG-0.65  OA
ATOM     30 OXT  LEU C 309      12.732  10.470  18.178  1.00 57.31 LIG-0.65  OA
ENDBRANCH 27 28
BRANCH 27 31
ATOM     31  CB  LEU C 309      15.451   9.925  17.338  1.00 45.69 LIG 0.04  C 
BRANCH 31 32
ATOM     32  CG  LEU C 309      14.943  10.461  15.998  1.00 42.90 LIG-0.02  C 
ATOM     33  CD2 LEU C 309      15.583   9.704  14.844  1.00 51.11 LIG 0.01  C 
ATOM     34  CD1 LEU C 309      15.210  11.952  15.880  1.00 45.19 LIG 0.01  C 
ENDBRANCH 31 32
ENDBRANCH 27 31
ENDBRANCH 24 27
ENDBRANCH 15 23
ENDBRANCH 13 15
ENDBRANCH 1 11
BRANCH 1 35
ATOM     35  N   TYR C 307      14.478   5.162  12.478  1.00 25.78 LIG-0.35  N 
ATOM     36 H    TYR C 307      13.782   4.660  12.436  1.00 25.78 LIG 0.16  HD
ATOM     37  C   ASP C 306      15.727   4.739  12.299  1.00 34.41 LIG 0.24  C 
ATOM     38 O    ASP C 306      16.695   5.493  12.399  1.00 33.93 LIG-0.27  OA
BRANCH 37 39
ATOM     39  CA  ASP C 306      15.943   3.257  11.978  1.00 28.99 LIG 0.19  C 
BRANCH 39 40
ATOM     40  N   ASP C 306      16.903   2.971  10.912  1.00 47.80 LIG-0.34  N 
ATOM     41  C   PRO C 305      16.497   2.711   9.671  1.00 55.24 LIG 0.25  C 
ATOM     42 O    PRO C 305      15.322   2.802   9.310  1.00 37.29 LIG-0.27  OA
ATOM     43 H    ASP C 306      17.726   2.988  11.157  1.00 47.80 LIG 0.16  HD
BRANCH 41 44
ATOM     44  CA  PRO C 305      17.560   2.299   8.655  1.00 46.84 LIG 0.35  C 
ATOM     45  N   PRO C 305      17.850   3.356   7.678  1.00 55.65 LIG 0.32  N 
ATOM     46  CD  PRO C 305      19.223   3.872   7.815  1.00 37.59 LIG 0.32  C 
ATOM     47  CG  PRO C 305      19.632   3.386   9.173  1.00 48.04 LIG 0.04  C 
ATOM     48  CB  PRO C 305      18.908   2.095   9.359  1.00 49.04 LIG 0.05  C 
ENDBRANCH 41 44
ENDBRANCH 39 40
BRANCH 39 49
ATOM     49  CB  ASP C 306      16.340   2.518  13.261  1.00 37.50 LIG 0.15  C 
BRANCH 49 50
ATOM     50  CG  ASP C 306      17.715   1.883  13.168  1.00 60.25 LIG 0.17  C 
ATOM     51 OD1  ASP C 306      17.946   1.092  12.228  1.00 61.15 LIG-0.65  OA
ATOM     52 OD2  ASP C 306      18.563   2.173  14.038  1.00 58.41 LIG-0.65  OA
ENDBRANCH 49 50
ENDBRANCH 39 49
ENDBRANCH 37 39
ENDBRANCH 1 35
TORSDOF 18
ENDMDL
MODEL 3
USER: ADFR SOLUTION from run 5
USER: SCORE 16.983688 LL:  -4.697 LR: -14.705 RR:   0.000 FEB:  -9.335
USER: RMSD 3.578009
USER: SEED 837313
USER: STATUS searching
USER: GENES 20
USER: genes 0 Translation |==|  0.43022 0.55759 0.45547
USER: genes 1 Rotation |==|  0.71246 0.45021 0.38763 0.93561
USER: genes 2 Torsion [C]-CA--CB-[CG] |==|  0.59559
USER: genes 3 Torsion [CA]-CB--CG-[CD1] |==|  0.76091
USER: genes 4 Torsion [CE2]-CZ--OH-[HH] |==|  0.94186
USER: genes 5 Torsion [N]-CA--C-[N] |==|  0.12799
USER: genes 6 Torsion [C]-N--CA-[CB] |==|  0.38592
USER: genes 7 Torsion [N]-CA--CB-[CG] |==|  0.64973
USER: genes 8 Torsion [CA]-CB--CG-[CD1] |==|  0.69981
USER: genes 9 Torsion [N]-CA--C-[N] |==|  0.84799
USER: genes 10 Torsion [C]-N--CA-[C] |==|  0.75845
USER: genes 11 Torsion [N]-CA--C-[O] |==|  0.81064
USER: genes 12 Torsion [N]-CA--CB-[CG] |==|  0.74599
USER: genes 13 Torsion [CA]-CB--CG-[CD2] |==|  0.10135
USER: genes 14 Torsion [CB]-CA--N-[C] |==|  0.78048
USER: genes 15 Torsion [N]-C--CA-[N] |==|  0.81111
USER: genes 16 Torsion [C]-CA--N-[C] |==|  0.68461
USER: genes 17 Torsion [N]-C--CA-[N] |==|  0.99060
USER: genes 18 Torsion [C]-CA--CB-[CG] |==|  0.58121
USER: genes 19 Torsion [CA]-CB--CG-[OD1] |==|  0.83989
ROOT
ATOM      1  CA  TYR C 307      14.655   7.337  12.709  1.00 19.42 LIG 0.18  C 
ENDROOT
BRANCH 1 2
ATOM      2  CB  TYR C 307      14.225   8.116  11.463  1.00 20.09 LIG 0.07  C 
BRANCH 2 3
ATOM      3  CG  TYR C 307      15.025   7.776  10.231  1.00 17.22 LIG-0.06  A 
ATOM      4  CD2 TYR C 307      14.577   6.814   9.335  1.00 23.64 LIG 0.01  A 
ATOM      5  CE2 TYR C 307      15.305   6.497   8.204  1.00 23.84 LIG 0.04  A 
ATOM      6  CZ  TYR C 307      16.496   7.145   7.956  1.00 20.80 LIG 0.07  A 
ATOM      7  CE1 TYR C 307      16.962   8.107   8.827  1.00 18.70 LIG 0.04  A 
ATOM      8  CD1 TYR C 307      16.226   8.419   9.958  1.00 26.65 LIG 0.01  A 
BRANCH 6 9
ATOM      9 OH   TYR C 307      17.218   6.829   6.828  1.00 27.63 LIG-0.36  OA
ATOM     10 HH   TYR C 307      16.989   6.070   6.552  1.00 27.63 LIG 0.22  HD
ENDBRANCH 6 9
ENDBRANCH 2 3
ENDBRANCH 1 2
BRANCH 1 11
ATOM     11  C   TYR C 307      13.436   7.046  13.580  1.00 24.68 LIG 0.24  C 
ATOM     12 O    TYR C 307      12.352   7.571  13.329  1.00 26.67 LIG-0.27  OA
ATOM     13  N   PHE C 308      13.612   6.226  14.609  1.00 19.41 LIG-0.35  N 
ATOM     14 H    PHE C 308      14.374   5.921  14.865  1.00 19.41 LIG 0.16  HD
BRANCH 13 15
ATOM     15  CA  PHE C 308      12.471   5.775  15.400  1.00 14.41 LIG 0.18  C 
BRANCH 15 16
ATOM     16  CB  PHE C 308      12.624   4.293  15.737  1.00 18.98 LIG 0.07  C 
BRANCH 16 17
ATOM     17  CG  PHE C 308      11.441   3.470  15.338  1.00 22.36 LIG-0.06  A 
ATOM     18  CD1 PHE C 308      10.581   2.963  16.296  1.00 16.86 LIG 0.01  A 
ATOM     19  CE1 PHE C 308       9.481   2.220  15.933  1.00 17.00 LIG 0.00  A 
ATOM     20  CZ  PHE C 308       9.227   1.983  14.603  1.00 20.65 LIG 0.00  A 
ATOM     21  CE2 PHE C 308      10.078   2.480  13.638  1.00 20.83 LIG 0.00  A 
ATOM     22  CD2 PHE C 308      11.171   3.225  14.003  1.00 21.63 LIG 0.01  A 
ENDBRANCH 16 17
ENDBRANCH 15 16
BRANCH 15 23
ATOM     23  C   PHE C 308      12.245   6.596  16.664  1.00 40.94 LIG 0.24  C 
ATOM     24  N   LEU C 309      13.282   6.701  17.485  1.00 39.04 LIG-0.34  N 
ATOM     25 H    LEU C 309      14.043   6.324  17.346  1.00 39.04 LIG 0.16  HD
ATOM     26 O    PHE C 308      11.158   7.132  16.881  1.00 37.89 LIG-0.27  OA
BRANCH 24 27
ATOM     27  CA  LEU C 309      13.216   7.481  18.714  1.00 41.86 LIG 0.18  C 
BRANCH 27 28
ATOM     28  C   LEU C 309      13.562   8.943  18.454  1.00 52.06 LIG 0.20  C 
ATOM     29 O    LEU C 309      14.705   9.280  18.138  1.00 44.07 LIG-0.65  OA
ATOM     30 OXT  LEU C 309      12.705   9.824  18.552  1.00 57.31 LIG-0.65  OA
ENDBRANCH 27 28
BRANCH 27 31
ATOM     31  CB  LEU C 309      14.161   6.892  19.763  1.00 45.69 LIG 0.04  C 
BRANCH 31 32
ATOM     32  CG  LEU C 309      13.538   5.852  20.696  1.00 42.90 LIG-0.02  C 
ATOM     33  CD2 LEU C 309      12.534   4.993  19.942  1.00 51.11 LIG 0.01  C 
ATOM     34  CD1 LEU C 309      12.883   6.526  21.890  1.00 45.19 LIG 0.01  C 
ENDBRANCH 31 32
ENDBRANCH 27 31
ENDBRANCH 24 27
ENDBRANCH 15 23
ENDBRANCH 13 15
ENDBRANCH 1 11
BRANCH 1 35
ATOM     35  N   TYR C 307      15.421   6.144  12.348  1.00 25.78 LIG-0.35  N 
ATOM     36 H    TYR C 307      16.274   6.221  12.432  1.00 25.78 LIG 0.16  HD
ATOM     37  C   ASP C 306      14.799   5.047  11.925  1.00 34.41 LIG 0.24  C 
ATOM     38 O    ASP C 306      13.576   4.997  11.794  1.00 33.93 LIG-0.27  OA
BRANCH 37 39
ATOM     39  CA  ASP C 306      15.656   3.825  11.579  1.00 28.99 LIG 0.19  C 
BRANCH 39 40
ATOM     40  N   ASP C 306      16.511   3.963  10.400  1.00 47.80 LIG-0.34  N 
ATOM     41  C   PRO C 305      16.299   3.235   9.305  1.00 55.24 LIG 0.25  C 
ATOM     42 O    PRO C 305      15.323   2.496   9.164  1.00 37.29 LIG-0.27  OA
ATOM     43 H    ASP C 306      17.142   4.540  10.481  1.00 47.80 LIG 0.16  HD
BRANCH 41 44
ATOM     44  CA  PRO C 305      17.317   3.354   8.174  1.00 46.84 LIG 0.35  C 
ATOM     45  N   PRO C 305      18.364   4.344   8.453  1.00 55.65 LIG 0.32  N 
ATOM     46  CD  PRO C 305      19.689   3.719   8.602  1.00 37.59 LIG 0.32  C 
ATOM     47  CG  PRO C 305      19.358   2.272   8.810  1.00 48.04 LIG 0.04  C 
ATOM     48  CB  PRO C 305      18.103   2.044   8.036  1.00 49.04 LIG 0.05  C 
ENDBRANCH 41 44
ENDBRANCH 39 40
BRANCH 39 49
ATOM     49  CB  ASP C 306      16.495   3.438  12.801  1.00 37.50 LIG 0.15  C 
BRANCH 49 50
ATOM     50  CG  ASP C 306      17.808   2.778  12.423  1.00 60.25 LIG 0.17  C 
ATOM     51 OD1  ASP C 306      17.777   1.742  11.725  1.00 61.15 LIG-0.65  OA
ATOM     52 OD2  ASP C 306      18.870   3.295  12.829  1.00 58.41 LIG-0.65  OA
ENDBRANCH 49 50
ENDBRANCH 39 49
ENDBRANCH 37 39
ENDBRANCH 1 35
TORSDOF 18
ENDMDL
MODEL 4
USER: ADFR SOLUTION from run 182
USER: SCORE 17.308006 LL:  -4.712 LR: -14.516 RR:   0.000 FEB:  -9.146
USER: RMSD 3.747344
USER: SEED 181
USER: STATUS no improvement in best in 3 clusters for 5 generations
USER: GENES 20
USER: genes 0 Translation |==|  0.42459 0.54751 0.44928
USER: genes 1 Rotation |==|  0.66217 0.45649 0.41938 0.96401
USER: genes 2 Torsion [C]-CA--CB-[CG] |==|  0.55679
USER: genes 3 Torsion [CA]-CB--CG-[CD1] |==|  0.77133
USER: genes 4 Torsion [CE2]-CZ--OH-[HH] |==|  0.95823
USER: genes 5 Torsion [N]-CA--C-[N] |==|  0.09143
USER: genes 6 Torsion [C]-N--CA-[CB] |==|  0.37781
USER: genes 7 Torsion [N]-CA--CB-[CG] |==|  0.67525
USER: genes 8 Torsion [CA]-CB--CG-[CD1] |==|  0.70180
USER: genes 9 Torsion [N]-CA--C-[N] |==|  0.85033
USER: genes 10 Torsion [C]-N--CA-[C] |==|  0.79200
USER: genes 11 Torsion [N]-CA--C-[O] |==|  0.29782
USER: genes 12 Torsion [N]-CA--CB-[CG] |==|  0.78990
USER: genes 13 Torsion [CA]-CB--CG-[CD2] |==|  0.97996
USER: genes 14 Torsion [CB]-CA--N-[C] |==|  0.77212
USER: genes 15 Torsion [N]-C--CA-[N] |==|  0.38497
USER: genes 16 Torsion [C]-CA--N-[C] |==|  0.82871
USER: genes 17 Torsion [N]-C--CA-[N] |==|  0.38680
USER: genes 18 Torsion [C]-CA--CB-[CG] |==|  0.42849
USER: genes 19 Torsion [CA]-CB--CG-[OD1] |==|  0.12622
ROOT
ATOM      1  CA  TYR C 307      14.541   7.163  12.575  1.00 19.42 LIG 0.18  C 
ENDROOT
BRANCH 1 2
ATOM      2  CB  TYR C 307      14.003   7.576  11.201  1.00 20.09 LIG 0.07  C 
BRANCH 2 3
ATOM      3  CG  TYR C 307      14.983   7.358  10.077  1.00 17.22 LIG-0.06  A 
ATOM      4  CD2 TYR C 307      14.910   6.225   9.278  1.00 23.64 LIG 0.01  A 
ATOM      5  CE2 TYR C 307      15.805   6.019   8.246  1.00 23.84 LIG 0.04  A 
ATOM      6  CZ  TYR C 307      16.788   6.954   8.000  1.00 20.80 LIG 0.07  A 
ATOM      7  CE1 TYR C 307      16.881   8.089   8.776  1.00 18.70 LIG 0.04  A 
ATOM      8  CD1 TYR C 307      15.980   8.288   9.808  1.00 26.65 LIG 0.01  A 
BRANCH 6 9
ATOM      9 OH   TYR C 307      17.677   6.747   6.970  1.00 27.63 LIG-0.36  OA
ATOM     10 HH   TYR C 307      17.638   5.946   6.721  1.00 27.63 LIG 0.22  HD
ENDBRANCH 6 9
ENDBRANCH 2 3
ENDBRANCH 1 2
BRANCH 1 11
ATOM     11  C   TYR C 307      13.378   6.933  13.536  1.00 24.68 LIG 0.24  C 
ATOM     12 O    TYR C 307      12.285   7.458  13.327  1.00 26.67 LIG-0.27  OA
ATOM     13  N   PHE C 308      13.612   6.165  14.592  1.00 19.41 LIG-0.35  N 
ATOM     14 H    PHE C 308      14.386   5.864  14.815  1.00 19.41 LIG 0.16  HD
BRANCH 13 15
ATOM     15  CA  PHE C 308      12.520   5.770  15.477  1.00 14.41 LIG 0.18  C 
BRANCH 15 16
ATOM     16  CB  PHE C 308      12.641   4.287  15.822  1.00 18.98 LIG 0.07  C 
BRANCH 16 17
ATOM     17  CG  PHE C 308      11.488   3.470  15.333  1.00 22.36 LIG-0.06  A 
ATOM     18  CD1 PHE C 308      10.547   2.977  16.219  1.00 16.86 LIG 0.01  A 
ATOM     19  CE1 PHE C 308       9.475   2.240  15.772  1.00 17.00 LIG 0.00  A 
ATOM     20  CZ  PHE C 308       9.330   1.993  14.428  1.00 20.65 LIG 0.00  A 
ATOM     21  CE2 PHE C 308      10.263   2.475  13.533  1.00 20.83 LIG 0.00  A 
ATOM     22  CD2 PHE C 308      11.328   3.215  13.982  1.00 21.63 LIG 0.01  A 
ENDBRANCH 16 17
ENDBRANCH 15 16
BRANCH 15 23
ATOM     23  C   PHE C 308      12.427   6.613  16.743  1.00 40.94 LIG 0.24  C 
ATOM     24  N   LEU C 309      13.535   6.700  17.470  1.00 39.04 LIG-0.34  N 
ATOM     25 H    LEU C 309      14.270   6.299  17.271  1.00 39.04 LIG 0.16  HD
ATOM     26 O    PHE C 308      11.379   7.183  17.045  1.00 37.89 LIG-0.27  OA
BRANCH 24 27
ATOM     27  CA  LEU C 309      13.597   7.497  18.687  1.00 41.86 LIG 0.18  C 
BRANCH 27 28
ATOM     28  C   LEU C 309      13.663   8.986  18.363  1.00 52.06 LIG 0.20  C 
ATOM     29 O    LEU C 309      12.693   9.721  18.553  1.00 44.07 LIG-0.65  OA
ATOM     30 OXT  LEU C 309      14.690   9.490  17.904  1.00 57.31 LIG-0.65  OA
ENDBRANCH 27 28
BRANCH 27 31
ATOM     31  CB  LEU C 309      14.808   7.085  19.525  1.00 45.69 LIG 0.04  C 
BRANCH 31 32
ATOM     32  CG  LEU C 309      14.661   5.764  20.283  1.00 42.90 LIG-0.02  C 
ATOM     33  CD2 LEU C 309      13.240   5.234  20.162  1.00 51.11 LIG 0.01  C 
ATOM     34  CD1 LEU C 309      15.051   5.935  21.742  1.00 45.19 LIG 0.01  C 
ENDBRANCH 31 32
ENDBRANCH 27 31
ENDBRANCH 24 27
ENDBRANCH 15 23
ENDBRANCH 13 15
ENDBRANCH 1 11
BRANCH 1 35
ATOM     35  N   TYR C 307      15.451   6.023  12.464  1.00 25.78 LIG-0.35  N 
ATOM     36 H    TYR C 307      16.287   6.224  12.455  1.00 25.78 LIG 0.16  HD
ATOM     37  C   ASP C 306      14.971   4.785  12.386  1.00 34.41 LIG 0.24  C 
ATOM     38 O    ASP C 306      13.763   4.549  12.374  1.00 33.93 LIG-0.27  OA
BRANCH 37 39
ATOM     39  CA  ASP C 306      15.975   3.631  12.290  1.00 28.99 LIG 0.19  C 
BRANCH 39 40
ATOM     40  N   ASP C 306      15.658   2.446  13.086  1.00 47.80 LIG-0.34  N 
ATOM     41  C   PRO C 305      15.573   2.509  14.413  1.00 55.24 LIG 0.25  C 
ATOM     42 O    PRO C 305      15.637   3.566  15.045  1.00 37.29 LIG-0.27  OA
ATOM     43 H    ASP C 306      15.537   1.728  12.628  1.00 47.80 LIG 0.16  HD
BRANCH 41 44
ATOM     44  CA  PRO C 305      15.364   1.199  15.169  1.00 46.84 LIG 0.35  C 
ATOM     45  N   PRO C 305      16.161   1.120  16.399  1.00 55.65 LIG 0.32  N 
ATOM     46  CD  PRO C 305      15.314   1.104  17.605  1.00 37.59 LIG 0.32  C 
ATOM     47  CG  PRO C 305      13.991   1.587  17.093  1.00 48.04 LIG 0.04  C 
ATOM     48  CB  PRO C 305      13.921   1.111  15.681  1.00 49.04 LIG 0.05  C 
ENDBRANCH 41 44
ENDBRANCH 39 40
BRANCH 39 49
ATOM     49  CB  ASP C 306      16.158   3.247  10.817  1.00 37.50 LIG 0.15  C 
BRANCH 49 50
ATOM     50  CG  ASP C 306      17.506   2.606  10.544  1.00 60.25 LIG 0.17  C 
ATOM     51 OD1  ASP C 306      17.916   1.721  11.326  1.00 61.15 LIG-0.65  OA
ATOM     52 OD2  ASP C 306      18.156   2.991   9.549  1.00 58.41 LIG-0.65  OA
ENDBRANCH 49 50
ENDBRANCH 39 49
ENDBRANCH 37 39
ENDBRANCH 1 35
TORSDOF 18
ENDMDL
MODEL 5
USER: ADFR SOLUTION from run 83
USER: SCORE 15.303697 LL:  -4.348 LR: -14.486 RR:   0.000 FEB:  -9.117
USER: RMSD 3.177923
USER: SEED 82
USER: STATUS no improvement in best in 5 clusters for 5 generations
USER: GENES 20
USER: genes 0 Translation |==|  0.39129 0.49190 0.46720
USER: genes 1 Rotation |==|  0.61759 0.47151 0.28273 0.93377
USER: genes 2 Torsion [C]-CA--CB-[CG] |==|  0.45865
USER: genes 3 Torsion [CA]-CB--CG-[CD1] |==|  0.66657
USER: genes 4 Torsion [CE2]-CZ--OH-[HH] |==|  0.03972
USER: genes 5 Torsion [N]-CA--C-[N] |==|  0.09366
USER: genes 6 Torsion [C]-N--CA-[CB] |==|  0.39071
USER: genes 7 Torsion [N]-CA--CB-[CG] |==|  0.83164
USER: genes 8 Torsion [CA]-CB--CG-[CD1] |==|  0.09588
USER: genes 9 Torsion [N]-CA--C-[N] |==|  0.07692
USER: genes 10 Torsion [C]-N--CA-[C] |==|  0.84061
USER: genes 11 Torsion [N]-CA--C-[O] |==|  0.78018
USER: genes 12 Torsion [N]-CA--CB-[CG] |==|  0.08999
USER: genes 13 Torsion [CA]-CB--CG-[CD2] |==|  0.72927
USER: genes 14 Torsion [CB]-CA--N-[C] |==|  0.43788
USER: genes 15 Torsion [N]-C--CA-[N] |==|  0.43009
USER: genes 16 Torsion [C]-CA--N-[C] |==|  0.73347
USER: genes 17 Torsion [N]-C--CA-[N] |==|  0.58636
USER: genes 18 Torsion [C]-CA--CB-[CG] |==|  0.76332
USER: genes 19 Torsion [CA]-CB--CG-[OD1] |==|  0.27674
ROOT
ATOM      1  CA  TYR C 307      13.867   6.204  12.965  1.00 19.42 LIG 0.18  C 
ENDROOT
BRANCH 1 2
ATOM      2  CB  TYR C 307      13.267   6.833  11.703  1.00 20.09 LIG 0.07  C 
BRANCH 2 3
ATOM      3  CG  TYR C 307      14.193   6.806  10.515  1.00 17.22 LIG-0.06  A 
ATOM      4  CD2 TYR C 307      14.661   5.604  10.003  1.00 23.64 LIG 0.01  A 
ATOM      5  CE2 TYR C 307      15.511   5.572   8.914  1.00 23.84 LIG 0.04  A 
ATOM      6  CZ  TYR C 307      15.902   6.753   8.320  1.00 20.80 LIG 0.07  A 
ATOM      7  CE1 TYR C 307      15.449   7.961   8.805  1.00 18.70 LIG 0.04  A 
ATOM      8  CD1 TYR C 307      14.597   7.984   9.897  1.00 26.65 LIG 0.01  A 
BRANCH 6 9
ATOM      9 OH   TYR C 307      16.746   6.719   7.234  1.00 27.63 LIG-0.36  OA
ATOM     10 HH   TYR C 307      16.781   5.937   6.930  1.00 27.63 LIG 0.22  HD
ENDBRANCH 6 9
ENDBRANCH 2 3
ENDBRANCH 1 2
BRANCH 1 11
ATOM     11  C   TYR C 307      13.034   6.598  14.182  1.00 24.68 LIG 0.24  C 
ATOM     12 O    TYR C 307      12.318   7.597  14.149  1.00 26.67 LIG-0.27  OA
ATOM     13  N   PHE C 308      13.137   5.827  15.257  1.00 19.41 LIG-0.35  N 
ATOM     14 H    PHE C 308      13.698   5.181  15.342  1.00 19.41 LIG 0.16  HD
BRANCH 13 15
ATOM     15  CA  PHE C 308      12.265   6.041  16.408  1.00 14.41 LIG 0.18  C 
BRANCH 15 16
ATOM     16  CB  PHE C 308      11.835   4.697  16.993  1.00 18.98 LIG 0.07  C 
BRANCH 16 17
ATOM     17  CG  PHE C 308      11.072   3.848  16.026  1.00 22.36 LIG-0.06  A 
ATOM     18  CD1 PHE C 308      11.377   3.871  14.677  1.00 16.86 LIG 0.01  A 
ATOM     19  CE1 PHE C 308      10.690   3.079  13.786  1.00 17.00 LIG 0.00  A 
ATOM     20  CZ  PHE C 308       9.693   2.249  14.239  1.00 20.65 LIG 0.00  A 
ATOM     21  CE2 PHE C 308       9.377   2.219  15.582  1.00 20.83 LIG 0.00  A 
ATOM     22  CD2 PHE C 308      10.068   3.006  16.469  1.00 21.63 LIG 0.01  A 
ENDBRANCH 16 17
ENDBRANCH 15 16
BRANCH 15 23
ATOM     23  C   PHE C 308      12.884   6.926  17.484  1.00 40.94 LIG 0.24  C 
ATOM     24  N   LEU C 309      13.782   7.810  17.067  1.00 39.04 LIG-0.34  N 
ATOM     25 H    LEU C 309      14.032   7.889  16.248  1.00 39.04 LIG 0.16  HD
ATOM     26 O    PHE C 308      12.544   6.816  18.662  1.00 37.89 LIG-0.27  OA
BRANCH 24 27
ATOM     27  CA  LEU C 309      14.430   8.739  17.983  1.00 41.86 LIG 0.18  C 
BRANCH 27 28
ATOM     28  C   LEU C 309      13.400   9.589  18.721  1.00 52.06 LIG 0.20  C 
ATOM     29 O    LEU C 309      12.871  10.560  18.178  1.00 44.07 LIG-0.65  OA
ATOM     30 OXT  LEU C 309      13.072   9.322  19.879  1.00 57.31 LIG-0.65  OA
ENDBRANCH 27 28
BRANCH 27 31
ATOM     31  CB  LEU C 309      15.406   9.636  17.220  1.00 45.69 LIG 0.04  C 
BRANCH 31 32
ATOM     32  CG  LEU C 309      15.003   9.970  15.782  1.00 42.90 LIG-0.02  C 
ATOM     33  CD2 LEU C 309      15.707   9.044  14.803  1.00 51.11 LIG 0.01  C 
ATOM     34  CD1 LEU C 309      15.306  11.425  15.464  1.00 45.19 LIG 0.01  C 
ENDBRANCH 31 32
ENDBRANCH 27 31
ENDBRANCH 24 27
ENDBRANCH 15 23
ENDBRANCH 13 15
ENDBRANCH 1 11
BRANCH 1 35
ATOM     35  N   TYR C 307      14.034   4.760  12.806  1.00 25.78 LIG-0.35  N 
ATOM     36 H    TYR C 307      13.532   4.399  12.208  1.00 25.78 LIG 0.16  HD
ATOM     37  C   ASP C 306      14.912   4.097  13.555  1.00 34.41 LIG 0.24  C 
ATOM     38 O    ASP C 306      15.588   4.655  14.419  1.00 33.93 LIG-0.27  OA
BRANCH 37 39
ATOM     39  CA  ASP C 306      15.054   2.588  13.330  1.00 28.99 LIG 0.19  C 
BRANCH 39 40
ATOM     40  N   ASP C 306      16.342   2.008  13.707  1.00 47.80 LIG-0.34  N 
ATOM     41  C   PRO C 305      17.305   1.821  12.806  1.00 55.24 LIG 0.25  C 
ATOM     42 O    PRO C 305      17.227   2.219  11.642  1.00 37.29 LIG-0.27  OA
ATOM     43 H    ASP C 306      16.415   1.807  14.540  1.00 47.80 LIG 0.16  HD
BRANCH 41 44
ATOM     44  CA  PRO C 305      18.567   1.094  13.265  1.00 46.84 LIG 0.35  C 
ATOM     45  N   PRO C 305      19.769   1.539  12.551  1.00 55.65 LIG 0.32  N 
ATOM     46  CD  PRO C 305      20.719   2.226  13.443  1.00 37.59 LIG 0.32  C 
ATOM     47  CG  PRO C 305      19.880   2.550  14.642  1.00 48.04 LIG 0.04  C 
ATOM     48  CB  PRO C 305      18.876   1.450  14.725  1.00 49.04 LIG 0.05  C 
ENDBRANCH 41 44
ENDBRANCH 39 40
BRANCH 39 49
ATOM     49  CB  ASP C 306      13.913   1.864  14.053  1.00 37.50 LIG 0.15  C 
BRANCH 49 50
ATOM     50  CG  ASP C 306      14.226   1.593  15.513  1.00 60.25 LIG 0.17  C 
ATOM     51 OD1  ASP C 306      13.752   2.359  16.379  1.00 61.15 LIG-0.65  OA
ATOM     52 OD2  ASP C 306      14.952   0.615  15.793  1.00 58.41 LIG-0.65  OA
ENDBRANCH 49 50
ENDBRANCH 39 49
ENDBRANCH 37 39
ENDBRANCH 1 35
TORSDOF 18
ENDMDL
MODEL 6
USER: ADFR SOLUTION from run 132
USER: SCORE 16.103789 LL:  -4.660 LR: -13.591 RR:   0.000 FEB:  -8.222
USER: RMSD 2.565464
USER: SEED 131
USER: STATUS searching
USER: GENES 20
USER: genes 0 Translation |==|  0.41004 0.50837 0.48268
USER: genes 1 Rotation |==|  0.51628 0.49892 0.48088 0.99937
USER: genes 2 Torsion [C]-CA--CB-[CG] |==|  0.46211
USER: genes 3 Torsion [CA]-CB--CG-[CD1] |==|  0.78007
USER: genes 4 Torsion [CE2]-CZ--OH-[HH] |==|  0.02988
USER: genes 5 Torsion [N]-CA--C-[N] |==|  0.93539
USER: genes 6 Torsion [C]-N--CA-[CB] |==|  0.40253
USER: genes 7 Torsion [N]-CA--CB-[CG] |==|  0.79931
USER: genes 8 Torsion [CA]-CB--CG-[CD1] |==|  0.64453
USER: genes 9 Torsion [N]-CA--C-[N] |==|  0.05075
USER: genes 10 Torsion [C]-N--CA-[C] |==|  0.83714
USER: genes 11 Torsion [N]-CA--C-[O] |==|  0.79935
USER: genes 12 Torsion [N]-CA--CB-[CG] |==|  0.14787
USER: genes 13 Torsion [CA]-CB--CG-[CD2] |==|  0.74802
USER: genes 14 Torsion [CB]-CA--N-[C] |==|  0.84769
USER: genes 15 Torsion [N]-C--CA-[N] |==|  0.85713
USER: genes 16 Torsion [C]-CA--N-[C] |==|  0.74156
USER: genes 17 Torsion [N]-C--CA-[N] |==|  0.47793
USER: genes 18 Torsion [C]-CA--CB-[CG] |==|  0.00989
USER: genes 19 Torsion [CA]-CB--CG-[OD1] |==|  0.75230
ROOT
ATOM      1  CA  TYR C 307      14.246   6.488  13.301  1.00 19.42 LIG 0.18  C 
ENDROOT
BRANCH 1 2
ATOM      2  CB  TYR C 307      13.476   5.931  12.100  1.00 20.09 LIG 0.07  C 
BRANCH 2 3
ATOM      3  CG  TYR C 307      14.221   6.050  10.796  1.00 17.22 LIG-0.06  A 
ATOM      4  CD2 TYR C 307      14.880   4.958  10.249  1.00 23.64 LIG 0.01  A 
ATOM      5  CE2 TYR C 307      15.564   5.060   9.053  1.00 23.84 LIG 0.04  A 
ATOM      6  CZ  TYR C 307      15.596   6.267   8.387  1.00 20.80 LIG 0.07  A 
ATOM      7  CE1 TYR C 307      14.948   7.367   8.906  1.00 18.70 LIG 0.04  A 
ATOM      8  CD1 TYR C 307      14.263   7.256  10.105  1.00 26.65 LIG 0.01  A 
BRANCH 6 9
ATOM      9 OH   TYR C 307      16.277   6.366   7.195  1.00 27.63 LIG-0.36  OA
ATOM     10 HH   TYR C 307      16.490   5.599   6.929  1.00 27.63 LIG 0.22  HD
ENDBRANCH 6 9
ENDBRANCH 2 3
ENDBRANCH 1 2
BRANCH 1 11
ATOM     11  C   TYR C 307      13.305   6.636  14.493  1.00 24.68 LIG 0.24  C 
ATOM     12 O    TYR C 307      12.534   7.593  14.562  1.00 26.67 LIG-0.27  OA
ATOM     13  N   PHE C 308      13.373   5.705  15.436  1.00 19.41 LIG-0.35  N 
ATOM     14 H    PHE C 308      13.964   5.080  15.462  1.00 19.41 LIG 0.16  HD
BRANCH 13 15
ATOM     15  CA  PHE C 308      12.408   5.686  16.530  1.00 14.41 LIG 0.18  C 
BRANCH 15 16
ATOM     16  CB  PHE C 308      12.097   4.243  16.925  1.00 18.98 LIG 0.07  C 
BRANCH 16 17
ATOM     17  CG  PHE C 308      11.259   3.522  15.918  1.00 22.36 LIG-0.06  A 
ATOM     18  CD1 PHE C 308      10.102   2.869  16.303  1.00 16.86 LIG 0.01  A 
ATOM     19  CE1 PHE C 308       9.318   2.219  15.378  1.00 17.00 LIG 0.00  A 
ATOM     20  CZ  PHE C 308       9.683   2.221  14.053  1.00 20.65 LIG 0.00  A 
ATOM     21  CE2 PHE C 308      10.837   2.864  13.656  1.00 20.83 LIG 0.00  A 
ATOM     22  CD2 PHE C 308      11.613   3.517  14.581  1.00 21.63 LIG 0.01  A 
ENDBRANCH 16 17
ENDBRANCH 15 16
BRANCH 15 23
ATOM     23  C   PHE C 308      12.849   6.495  17.745  1.00 40.94 LIG 0.24  C 
ATOM     24  N   LEU C 309      13.810   7.386  17.534  1.00 39.04 LIG-0.34  N 
ATOM     25 H    LEU C 309      14.192   7.507  16.773  1.00 39.04 LIG 0.16  HD
ATOM     26 O    PHE C 308      12.318   6.323  18.842  1.00 37.89 LIG-0.27  OA
BRANCH 24 27
ATOM     27  CA  LEU C 309      14.306   8.249  18.598  1.00 41.86 LIG 0.18  C 
BRANCH 27 28
ATOM     28  C   LEU C 309      13.181   9.095  19.186  1.00 52.06 LIG 0.20  C 
ATOM     29 O    LEU C 309      12.693  10.033  18.553  1.00 44.07 LIG-0.65  OA
ATOM     30 OXT  LEU C 309      12.731   8.858  20.309  1.00 57.31 LIG-0.65  OA
ENDBRANCH 27 28
BRANCH 27 31
ATOM     31  CB  LEU C 309      15.422   9.149  18.068  1.00 45.69 LIG 0.04  C 
BRANCH 31 32
ATOM     32  CG  LEU C 309      15.074   9.960  16.819  1.00 42.90 LIG-0.02  C 
ATOM     33  CD2 LEU C 309      15.437   9.185  15.562  1.00 51.11 LIG 0.01  C 
ATOM     34  CD1 LEU C 309      15.773  11.309  16.842  1.00 45.19 LIG 0.01  C 
ENDBRANCH 31 32
ENDBRANCH 27 31
ENDBRANCH 24 27
ENDBRANCH 15 23
ENDBRANCH 13 15
ENDBRANCH 1 11
BRANCH 1 35
ATOM     35  N   TYR C 307      15.436   5.685  13.585  1.00 25.78 LIG-0.35  N 
ATOM     36 H    TYR C 307      16.174   6.125  13.608  1.00 25.78 LIG 0.16  HD
ATOM     37  C   ASP C 306      15.331   4.374  13.785  1.00 34.41 LIG 0.24  C 
ATOM     38 O    ASP C 306      14.253   3.785  13.712  1.00 33.93 LIG-0.27  OA
BRANCH 37 39
ATOM     39  CA  ASP C 306      16.611   3.591  14.095  1.00 28.99 LIG 0.19  C 
BRANCH 39 40
ATOM     40  N   ASP C 306      17.721   3.795  13.165  1.00 47.80 LIG-0.34  N 
ATOM     41  C   PRO C 305      17.904   2.989  12.121  1.00 55.24 LIG 0.25  C 
ATOM     42 O    PRO C 305      17.106   2.104  11.802  1.00 37.29 LIG-0.27  OA
ATOM     43 H    ASP C 306      18.227   4.464  13.352  1.00 47.80 LIG 0.16  HD
BRANCH 41 44
ATOM     44  CA  PRO C 305      19.160   3.201  11.279  1.00 46.84 LIG 0.35  C 
ATOM     45  N   PRO C 305      19.355   2.148  10.275  1.00 55.65 LIG 0.32  N 
ATOM     46  CD  PRO C 305      19.229   2.665   8.901  1.00 37.59 LIG 0.32  C 
ATOM     47  CG  PRO C 305      18.546   3.985   9.100  1.00 48.04 LIG 0.04  C 
ATOM     48  CB  PRO C 305      19.015   4.470  10.430  1.00 49.04 LIG 0.05  C 
ENDBRANCH 41 44
ENDBRANCH 39 40
BRANCH 39 49
ATOM     49  CB  ASP C 306      17.055   3.902  15.528  1.00 37.50 LIG 0.15  C 
BRANCH 49 50
ATOM     50  CG  ASP C 306      16.081   4.809  16.257  1.00 60.25 LIG 0.17  C 
ATOM     51 OD1  ASP C 306      16.237   6.046  16.171  1.00 61.15 LIG-0.65  OA
ATOM     52 OD2  ASP C 306      15.163   4.282  16.921  1.00 58.41 LIG-0.65  OA
ENDBRANCH 49 50
ENDBRANCH 39 49
ENDBRANCH 37 39
ENDBRANCH 1 35
TORSDOF 18
ENDMDL
MODEL 7
USER: ADFR SOLUTION from run 12
USER: SCORE 15.416067 LL:  -4.491 LR: -13.567 RR:   0.000 FEB:  -8.197
USER: RMSD 4.024669
USER: SEED 417753
USER: STATUS no improvement in best in 4 clusters for 5 generations
USER: GENES 20
USER: genes 0 Translation |==|  0.43591 0.56549 0.43214
USER: genes 1 Rotation |==|  0.67353 0.49481 0.35579 0.94617
USER: genes 2 Torsion [C]-CA--CB-[CG] |==|  0.26393
USER: genes 3 Torsion [CA]-CB--CG-[CD1] |==|  0.92871
USER: genes 4 Torsion [CE2]-CZ--OH-[HH] |==|  0.72302
USER: genes 5 Torsion [N]-CA--C-[N] |==|  0.13676
USER: genes 6 Torsion [C]-N--CA-[CB] |==|  0.34327
USER: genes 7 Torsion [N]-CA--CB-[CG] |==|  0.70190
USER: genes 8 Torsion [CA]-CB--CG-[CD1] |==|  0.26092
USER: genes 9 Torsion [N]-CA--C-[N] |==|  0.08324
USER: genes 10 Torsion [C]-N--CA-[C] |==|  0.81809
USER: genes 11 Torsion [N]-CA--C-[O] |==|  0.72869
USER: genes 12 Torsion [N]-CA--CB-[CG] |==|  0.07963
USER: genes 13 Torsion [CA]-CB--CG-[CD2] |==|  0.72869
USER: genes 14 Torsion [CB]-CA--N-[C] |==|  0.78231
USER: genes 15 Torsion [N]-C--CA-[N] |==|  0.87859
USER: genes 16 Torsion [C]-CA--N-[C] |==|  0.65556
USER: genes 17 Torsion [N]-C--CA-[N] |==|  0.99288
USER: genes 18 Torsion [C]-CA--CB-[CG] |==|  0.63859
USER: genes 19 Torsion [CA]-CB--CG-[OD1] |==|  0.79647
ROOT
ATOM      1  CA  TYR C 307      14.770   7.474  12.202  1.00 19.42 LIG 0.18  C 
ENDROOT
BRANCH 1 2
ATOM      2  CB  TYR C 307      14.066   8.153  11.023  1.00 20.09 LIG 0.07  C 
BRANCH 2 3
ATOM      3  CG  TYR C 307      14.281   9.644  10.968  1.00 17.22 LIG-0.06  A 
ATOM      4  CD2 TYR C 307      14.190  10.332   9.766  1.00 23.64 LIG 0.01  A 
ATOM      5  CE2 TYR C 307      14.385  11.699   9.708  1.00 23.84 LIG 0.04  A 
ATOM      6  CZ  TYR C 307      14.674  12.395  10.862  1.00 20.80 LIG 0.07  A 
ATOM      7  CE1 TYR C 307      14.767  11.738  12.069  1.00 18.70 LIG 0.04  A 
ATOM      8  CD1 TYR C 307      14.569  10.367  12.119  1.00 26.65 LIG 0.01  A 
BRANCH 6 9
ATOM      9 OH   TYR C 307      14.866  13.757  10.802  1.00 27.63 LIG-0.36  OA
ATOM     10 HH   TYR C 307      15.689  13.924  10.799  1.00 27.63 LIG 0.22  HD
ENDBRANCH 6 9
ENDBRANCH 2 3
ENDBRANCH 1 2
BRANCH 1 11
ATOM     11  C   TYR C 307      13.798   7.332  13.370  1.00 24.68 LIG 0.24  C 
ATOM     12 O    TYR C 307      12.679   7.839  13.313  1.00 26.67 LIG-0.27  OA
ATOM     13  N   PHE C 308      14.225   6.659  14.431  1.00 19.41 LIG-0.35  N 
ATOM     14 H    PHE C 308      15.030   6.376  14.538  1.00 19.41 LIG 0.16  HD
BRANCH 13 15
ATOM     15  CA  PHE C 308      13.312   6.346  15.526  1.00 14.41 LIG 0.18  C 
BRANCH 15 16
ATOM     16  CB  PHE C 308      13.285   4.838  15.767  1.00 18.98 LIG 0.07  C 
BRANCH 16 17
ATOM     17  CG  PHE C 308      12.019   4.188  15.308  1.00 22.36 LIG-0.06  A 
ATOM     18  CD1 PHE C 308      11.932   3.630  14.045  1.00 16.86 LIG 0.01  A 
ATOM     19  CE1 PHE C 308      10.776   3.015  13.624  1.00 17.00 LIG 0.00  A 
ATOM     20  CZ  PHE C 308       9.693   2.948  14.467  1.00 20.65 LIG 0.00  A 
ATOM     21  CE2 PHE C 308       9.765   3.504  15.727  1.00 20.83 LIG 0.00  A 
ATOM     22  CD2 PHE C 308      10.922   4.111  16.147  1.00 21.63 LIG 0.01  A 
ENDBRANCH 16 17
ENDBRANCH 15 16
BRANCH 15 23
ATOM     23  C   PHE C 308      13.630   7.094  16.816  1.00 40.94 LIG 0.24  C 
ATOM     24  N   LEU C 309      14.193   8.288  16.675  1.00 39.04 LIG-0.34  N 
ATOM     25 H    LEU C 309      14.395   8.635  15.914  1.00 39.04 LIG 0.16  HD
ATOM     26 O    PHE C 308      13.357   6.604  17.911  1.00 37.89 LIG-0.27  OA
BRANCH 24 27
ATOM     27  CA  LEU C 309      14.522   9.124  17.821  1.00 41.86 LIG 0.18  C 
BRANCH 27 28
ATOM     28  C   LEU C 309      13.260   9.570  18.553  1.00 52.06 LIG 0.20  C 
ATOM     29 O    LEU C 309      12.762  10.678  18.345  1.00 44.07 LIG-0.65  OA
ATOM     30 OXT  LEU C 309      12.708   8.831  19.370  1.00 57.31 LIG-0.65  OA
ENDBRANCH 27 28
BRANCH 27 31
ATOM     31  CB  LEU C 309      15.330  10.342  17.370  1.00 45.69 LIG 0.04  C 
BRANCH 31 32
ATOM     32  CG  LEU C 309      15.057  10.816  15.941  1.00 42.90 LIG-0.02  C 
ATOM     33  CD2 LEU C 309      16.108  10.269  14.988  1.00 51.11 LIG 0.01  C 
ATOM     34  CD1 LEU C 309      15.011  12.335  15.880  1.00 45.19 LIG 0.01  C 
ENDBRANCH 31 32
ENDBRANCH 27 31
ENDBRANCH 24 27
ENDBRANCH 15 23
ENDBRANCH 13 15
ENDBRANCH 1 11
BRANCH 1 35
ATOM     35  N   TYR C 307      15.389   6.213  11.792  1.00 25.78 LIG-0.35  N 
ATOM     36 H    TYR C 307      16.238   6.249  11.665  1.00 25.78 LIG 0.16  HD
ATOM     37  C   ASP C 306      14.648   5.118  11.639  1.00 34.41 LIG 0.24  C 
ATOM     38 O    ASP C 306      13.429   5.124  11.804  1.00 33.93 LIG-0.27  OA
BRANCH 37 39
ATOM     39  CA  ASP C 306      15.357   3.824  11.225  1.00 28.99 LIG 0.19  C 
BRANCH 39 40
ATOM     40  N   ASP C 306      16.355   3.959  10.164  1.00 47.80 LIG-0.34  N 
ATOM     41  C   PRO C 305      16.275   3.239   9.047  1.00 55.24 LIG 0.25  C 
ATOM     42 O    PRO C 305      15.318   2.510   8.779  1.00 37.29 LIG-0.27  OA
ATOM     43 H    ASP C 306      16.977   4.529  10.327  1.00 47.80 LIG 0.16  HD
BRANCH 41 44
ATOM     44  CA  PRO C 305      17.429   3.352   8.053  1.00 46.84 LIG 0.35  C 
ATOM     45  N   PRO C 305      18.451   4.316   8.478  1.00 55.65 LIG 0.32  N 
ATOM     46  CD  PRO C 305      19.736   3.662   8.780  1.00 37.59 LIG 0.32  C 
ATOM     47  CG  PRO C 305      19.354   2.219   8.921  1.00 48.04 LIG 0.04  C 
ATOM     48  CB  PRO C 305      18.202   2.029   7.992  1.00 49.04 LIG 0.05  C 
ENDBRANCH 41 44
ENDBRANCH 39 40
BRANCH 39 49
ATOM     49  CB  ASP C 306      15.984   3.177  12.464  1.00 37.50 LIG 0.15  C 
BRANCH 49 50
ATOM     50  CG  ASP C 306      17.440   2.805  12.256  1.00 60.25 LIG 0.17  C 
ATOM     51 OD1  ASP C 306      17.708   1.823  11.531  1.00 61.15 LIG-0.65  OA
ATOM     52 OD2  ASP C 306      18.315   3.494  12.822  1.00 58.41 LIG-0.65  OA
ENDBRANCH 49 50
ENDBRANCH 39 49
ENDBRANCH 37 39
ENDBRANCH 1 35
TORSDOF 18
ENDMDL
MODEL 8
USER: ADFR SOLUTION from run 81
USER: SCORE 16.258958 LL:  -4.818 LR: -13.307 RR:   0.000 FEB:  -7.938
USER: RMSD 3.654210
USER: SEED 80
USER: STATUS no improvement in best in 4 clusters for 5 generations
USER: GENES 20
USER: genes 0 Translation |==|  0.40414 0.49682 0.46838
USER: genes 1 Rotation |==|  0.65768 0.46239 0.35463 0.95010
USER: genes 2 Torsion [C]-CA--CB-[CG] |==|  0.51294
USER: genes 3 Torsion [CA]-CB--CG-[CD1] |==|  0.74612
USER: genes 4 Torsion [CE2]-CZ--OH-[HH] |==|  0.05551
USER: genes 5 Torsion [N]-CA--C-[N] |==|  0.00074
USER: genes 6 Torsion [C]-N--CA-[CB] |==|  0.50898
USER: genes 7 Torsion [N]-CA--CB-[CG] |==|  0.06092
USER: genes 8 Torsion [CA]-CB--CG-[CD1] |==|  0.71771
USER: genes 9 Torsion [N]-CA--C-[N] |==|  0.79138
USER: genes 10 Torsion [C]-N--CA-[C] |==|  0.81383
USER: genes 11 Torsion [N]-CA--C-[O] |==|  0.86301
USER: genes 12 Torsion [N]-CA--CB-[CG] |==|  0.79721
USER: genes 13 Torsion [CA]-CB--CG-[CD2] |==|  0.63716
USER: genes 14 Torsion [CB]-CA--N-[C] |==|  0.24444
USER: genes 15 Torsion [N]-C--CA-[N] |==|  0.39213
USER: genes 16 Torsion [C]-CA--N-[C] |==|  0.72251
USER: genes 17 Torsion [N]-C--CA-[N] |==|  0.72106
USER: genes 18 Torsion [C]-CA--CB-[CG] |==|  0.54019
USER: genes 19 Torsion [CA]-CB--CG-[OD1] |==|  0.45658
ROOT
ATOM      1  CA  TYR C 307      14.127   6.289  12.990  1.00 19.42 LIG 0.18  C 
ENDROOT
BRANCH 1 2
ATOM      2  CB  TYR C 307      13.570   6.873  11.688  1.00 20.09 LIG 0.07  C 
BRANCH 2 3
ATOM      3  CG  TYR C 307      14.533   6.798  10.531  1.00 17.22 LIG-0.06  A 
ATOM      4  CD2 TYR C 307      14.568   5.683   9.705  1.00 23.64 LIG 0.01  A 
ATOM      5  CE2 TYR C 307      15.448   5.607   8.642  1.00 23.84 LIG 0.04  A 
ATOM      6  CZ  TYR C 307      16.308   6.655   8.393  1.00 20.80 LIG 0.07  A 
ATOM      7  CE1 TYR C 307      16.292   7.776   9.196  1.00 18.70 LIG 0.04  A 
ATOM      8  CD1 TYR C 307      15.406   7.844  10.259  1.00 26.65 LIG 0.01  A 
BRANCH 6 9
ATOM      9 OH   TYR C 307      17.182   6.578   7.333  1.00 27.63 LIG-0.36  OA
ATOM     10 HH   TYR C 307      16.910   6.003   6.786  1.00 27.63 LIG 0.22  HD
ENDBRANCH 6 9
ENDBRANCH 2 3
ENDBRANCH 1 2
BRANCH 1 11
ATOM     11  C   TYR C 307      13.045   6.305  14.066  1.00 24.68 LIG 0.24  C 
ATOM     12 O    TYR C 307      12.473   7.356  14.358  1.00 26.67 LIG-0.27  OA
ATOM     13  N   PHE C 308      12.772   5.153  14.665  1.00 19.41 LIG-0.35  N 
ATOM     14 H    PHE C 308      13.218   4.427  14.551  1.00 19.41 LIG 0.16  HD
BRANCH 13 15
ATOM     15  CA  PHE C 308      11.651   5.048  15.594  1.00 14.41 LIG 0.18  C 
BRANCH 15 16
ATOM     16  CB  PHE C 308      11.607   3.647  16.200  1.00 18.98 LIG 0.07  C 
BRANCH 16 17
ATOM     17  CG  PHE C 308      12.920   2.934  16.140  1.00 22.36 LIG-0.06  A 
ATOM     18  CD1 PHE C 308      13.152   1.967  15.178  1.00 16.86 LIG 0.01  A 
ATOM     19  CE1 PHE C 308      14.365   1.321  15.107  1.00 17.00 LIG 0.00  A 
ATOM     20  CZ  PHE C 308      15.362   1.641  15.996  1.00 20.65 LIG 0.00  A 
ATOM     21  CE2 PHE C 308      15.143   2.601  16.962  1.00 20.83 LIG 0.00  A 
ATOM     22  CD2 PHE C 308      13.934   3.248  17.027  1.00 21.63 LIG 0.01  A 
ENDBRANCH 16 17
ENDBRANCH 15 16
BRANCH 15 23
ATOM     23  C   PHE C 308      11.664   6.110  16.688  1.00 40.94 LIG 0.24  C 
ATOM     24  N   LEU C 309      12.550   5.934  17.661  1.00 39.04 LIG-0.34  N 
ATOM     25 H    LEU C 309      13.084   5.260  17.706  1.00 39.04 LIG 0.16  HD
ATOM     26 O    PHE C 308      10.898   7.072  16.640  1.00 37.89 LIG-0.27  OA
BRANCH 24 27
ATOM     27  CA  LEU C 309      12.693   6.887  18.753  1.00 41.86 LIG 0.18  C 
BRANCH 27 28
ATOM     28  C   LEU C 309      13.238   8.219  18.249  1.00 52.06 LIG 0.20  C 
ATOM     29 O    LEU C 309      14.235   8.266  17.526  1.00 44.07 LIG-0.65  OA
ATOM     30 OXT  LEU C 309      12.693   9.282  18.553  1.00 57.31 LIG-0.65  OA
ENDBRANCH 27 28
BRANCH 27 31
ATOM     31  CB  LEU C 309      13.611   6.315  19.834  1.00 45.69 LIG 0.04  C 
BRANCH 31 32
ATOM     32  CG  LEU C 309      13.004   5.197  20.684  1.00 42.90 LIG-0.02  C 
ATOM     33  CD2 LEU C 309      13.214   5.479  22.164  1.00 51.11 LIG 0.01  C 
ATOM     34  CD1 LEU C 309      13.597   3.850  20.302  1.00 45.19 LIG 0.01  C 
ENDBRANCH 31 32
ENDBRANCH 27 31
ENDBRANCH 24 27
ENDBRANCH 15 23
ENDBRANCH 13 15
ENDBRANCH 1 11
BRANCH 1 35
ATOM     35  N   TYR C 307      14.717   4.969  12.767  1.00 25.78 LIG-0.35  N 
ATOM     36 H    TYR C 307      14.181   4.307  12.883  1.00 25.78 LIG 0.16  HD
ATOM     37  C   ASP C 306      15.994   4.854  12.411  1.00 34.41 LIG 0.24  C 
ATOM     38 O    ASP C 306      16.729   5.833  12.285  1.00 33.93 LIG-0.27  OA
BRANCH 37 39
ATOM     39  CA  ASP C 306      16.549   3.446  12.175  1.00 28.99 LIG 0.19  C 
BRANCH 39 40
ATOM     40  N   ASP C 306      17.479   3.310  11.055  1.00 47.80 LIG-0.34  N 
ATOM     41  C   PRO C 305      17.078   2.831   9.879  1.00 55.24 LIG 0.25  C 
ATOM     42 O    PRO C 305      15.899   2.583   9.617  1.00 37.29 LIG-0.27  OA
ATOM     43 H    ASP C 306      18.284   3.561  11.224  1.00 47.80 LIG 0.16  HD
BRANCH 41 44
ATOM     44  CA  PRO C 305      18.145   2.606   8.809  1.00 46.84 LIG 0.35  C 
ATOM     45  N   PRO C 305      18.187   3.684   7.814  1.00 55.65 LIG 0.32  N 
ATOM     46  CD  PRO C 305      19.448   4.442   7.876  1.00 37.59 LIG 0.32  C 
ATOM     47  CG  PRO C 305      20.008   4.057   9.212  1.00 48.04 LIG 0.04  C 
ATOM     48  CB  PRO C 305      19.541   2.659   9.441  1.00 49.04 LIG 0.05  C 
ENDBRANCH 41 44
ENDBRANCH 39 40
BRANCH 39 49
ATOM     49  CB  ASP C 306      17.197   2.938  13.468  1.00 37.50 LIG 0.15  C 
BRANCH 49 50
ATOM     50  CG  ASP C 306      18.071   1.719  13.243  1.00 60.25 LIG 0.17  C 
ATOM     51 OD1  ASP C 306      18.879   1.389  14.138  1.00 61.15 LIG-0.65  OA
ATOM     52 OD2  ASP C 306      17.952   1.093  12.168  1.00 58.41 LIG-0.65  OA
ENDBRANCH 49 50
ENDBRANCH 39 49
ENDBRANCH 37 39
ENDBRANCH 1 35
TORSDOF 18
ENDMDL
