MODEL 1
USER: ADFR SOLUTION from run 42
USER: SCORE 19.868077 LL:  -4.138 LR: -17.820 RR:   0.000 FEB: -12.152
USER: RMSD 1.840717
USER: SEED 41
USER: STATUS no improvement in best in 3 clusters for 5 generations
USER: GENES 21
USER: genes 0 Translation |==|  0.57532 0.47272 0.54014
USER: genes 1 Rotation |==|  0.48162 0.51063 0.51408 0.99935
USER: genes 2 Torsion [C]-CA--CB-[CG] |==|  0.18820
USER: genes 3 Torsion [CA]-CB--CG-[CD] |==|  0.35763
USER: genes 4 Torsion [CB]-CG--CD-[OE1] |==|  0.04965
USER: genes 5 Torsion [N]-CA--C-[N] |==|  0.42801
USER: genes 6 Torsion [C]-N--CA-[CB] |==|  0.18614
USER: genes 7 Torsion [N]-CA--CB-[CG] |==|  0.66198
USER: genes 8 Torsion [CA]-CB--CG-[CD1] |==|  0.44689
USER: genes 9 Torsion [N]-CA--C-[N] |==|  0.56202
USER: genes 10 Torsion [C]-N--CA-[CB] |==|  0.17606
USER: genes 11 Torsion [N]-CA--C-[N] |==|  0.06776
USER: genes 12 Torsion [C]-N--CA-[C] |==|  0.74372
USER: genes 13 Torsion [N]-CA--C-[O] |==|  0.99067
USER: genes 14 Torsion [N]-CA--CB-[CG] |==|  0.72786
USER: genes 15 Torsion [CA]-CB--CG-[CD2] |==|  0.74768
USER: genes 16 Torsion [CB]-CA--N-[C] |==|  0.45556
USER: genes 17 Torsion [N]-C--CA-[N] |==|  0.25788
USER: genes 18 Torsion [N]-C--CA-[N] |==|  0.41076
USER: genes 19 Torsion [C]-CA--N-[C] |==|  0.85889
USER: genes 20 Torsion [N]-C--CA-[N] |==|  0.48363
ROOT
ATOM      1  CA  GLU A 233       1.933  24.965 -49.108  1.00 24.61 LIG 0.18  C 
ENDROOT
BRANCH 1 2
ATOM      2  CB  GLU A 233       3.262  24.263 -48.839  1.00 26.56 LIG 0.04  C 
BRANCH 2 3
ATOM      3  CG  GLU A 233       3.068  22.877 -48.215  1.00 28.50 LIG 0.12  C 
BRANCH 3 4
ATOM      4  CD  GLU A 233       3.804  21.776 -48.916  1.00 31.23 LIG 0.17  C 
ATOM      5 OE1  GLU A 233       4.728  22.074 -49.672  1.00 40.78 LIG-0.65  OA
ATOM      6 OE2  GLU A 233       3.497  20.602 -48.679  1.00 32.56 LIG-0.65  OA
ENDBRANCH 3 4
ENDBRANCH 2 3
ENDBRANCH 1 2
BRANCH 1 7
ATOM      7  C   GLU A 233       1.214  25.337 -47.806  1.00 22.49 LIG 0.24  C 
ATOM      8  N   LEU A 234       0.498  24.361 -47.252  1.00 21.03 LIG-0.35  N 
ATOM      9 H    LEU A 234       0.445  23.565 -47.570  1.00 21.03 LIG 0.16  HD
ATOM     10 O    GLU A 233       1.257  26.485 -47.344  1.00 21.03 LIG-0.27  OA
BRANCH 8 11
ATOM     11  CA  LEU A 234      -0.276  24.575 -46.025  1.00 20.74 LIG 0.18  C 
BRANCH 11 12
ATOM     12  CB  LEU A 234      -1.415  25.546 -46.337  1.00 23.04 LIG 0.04  C 
BRANCH 12 13
ATOM     13  CG  LEU A 234      -1.327  26.794 -45.434  1.00 25.06 LIG-0.02  C 
ATOM     14  CD1 LEU A 234      -2.125  27.971 -46.007  1.00 33.19 LIG 0.01  C 
ATOM     15  CD2 LEU A 234      -1.751  26.429 -44.001  1.00 27.29 LIG 0.01  C 
ENDBRANCH 12 13
ENDBRANCH 11 12
BRANCH 11 16
ATOM     16  C   LEU A 234      -0.796  23.251 -45.467  1.00 18.65 LIG 0.24  C 
ATOM     17 O    LEU A 234      -0.277  22.200 -45.821  1.00 20.08 LIG-0.27  OA
ATOM     18  N   LEU A 235      -1.859  23.307 -44.657  1.00 16.33 LIG-0.35  N 
ATOM     19 H    LEU A 235      -2.317  24.022 -44.520  1.00 16.33 LIG 0.16  HD
BRANCH 18 20
ATOM     20  CA  LEU A 235      -2.339  22.146 -43.930  1.00 16.00 LIG 0.18  C 
BRANCH 20 21
ATOM     21  C   LEU A 235      -3.675  22.386 -43.214  1.00 15.60 LIG 0.24  C 
ATOM     22 O    LEU A 235      -3.988  21.727 -42.254  1.00 16.00 LIG-0.27  OA
ATOM     23  N   GLY A 236      -4.460  23.333 -43.691  1.00 15.05 LIG-0.35  N 
ATOM     24 H    GLY A 236      -4.271  23.836 -44.362  1.00 15.05 LIG 0.16  HD
BRANCH 23 25
ATOM     25  CA  GLY A 236      -5.777  23.589 -43.058  1.00 15.88 LIG 0.23  C 
BRANCH 25 26
ATOM     26  C   GLY A 236      -6.878  22.802 -43.714  1.00 16.68 LIG 0.19  C 
ATOM     27 O    GLY A 236      -6.633  22.102 -44.702  1.00 18.78 LIG-0.65  OA
ATOM     28 OXT  GLY A 236      -8.030  22.851 -43.291  1.00 16.61 LIG-0.65  OA
ENDBRANCH 25 26
ENDBRANCH 23 25
ENDBRANCH 20 21
BRANCH 20 29
ATOM     29  CB  LEU A 235      -1.266  21.664 -42.927  1.00 17.17 LIG 0.04  C 
BRANCH 29 30
ATOM     30  CG  LEU A 235      -0.367  20.497 -43.355  1.00 20.01 LIG-0.02  C 
ATOM     31  CD1 LEU A 235       0.964  20.633 -42.765  1.00 21.18 LIG 0.01  C 
ATOM     32  CD2 LEU A 235      -1.002  19.159 -42.916  1.00 23.81 LIG 0.01  C 
ENDBRANCH 29 30
ENDBRANCH 20 29
ENDBRANCH 18 20
ENDBRANCH 11 16
ENDBRANCH 8 11
ENDBRANCH 1 7
BRANCH 1 33
ATOM     33  N   GLU A 233       2.123  26.195 -49.883  1.00 26.21 LIG-0.35  N 
ATOM     34 H    GLU A 233       2.935  26.479 -49.901  1.00 26.21 LIG 0.16  HD
ATOM     35  C   PRO A 232       1.117  26.802 -50.498  1.00 29.12 LIG 0.24  C 
ATOM     36 O    PRO A 232      -0.030  26.336 -50.574  1.00 29.57 LIG-0.27  OA
BRANCH 35 37
ATOM     37  CA  PRO A 232       1.450  28.140 -51.158  1.00 32.50 LIG 0.18  C 
ATOM     38  CB  PRO A 232       0.201  29.030 -51.179  1.00 34.03 LIG 0.04  C 
ATOM     39  CG  PRO A 232       0.100  29.589 -52.549  1.00 39.71 LIG 0.02  C 
ATOM     40  CD  PRO A 232       1.126  28.977 -53.436  1.00 41.14 LIG 0.13  C 
ATOM     41  N   PRO A 232       1.823  28.011 -52.565  1.00 36.81 LIG-0.34  N 
ATOM     42  C   ALA A 231       2.849  27.214 -52.905  1.00 38.01 LIG 0.24  C 
ATOM     43 O    ALA A 231       3.458  26.535 -52.081  1.00 37.25 LIG-0.27  OA
BRANCH 42 44
ATOM     44  CA  ALA A 231       3.217  27.132 -54.373  1.00 42.70 LIG 0.17  C 
ATOM     45  CB  ALA A 231       2.421  26.018 -55.026  1.00 44.12 LIG 0.04  C 
BRANCH 44 46
ATOM     46  N   ALA A 231       4.657  26.918 -54.548  1.00 44.69 LIG-0.35  N 
ATOM     47 H    ALA A 231       4.858  26.265 -55.071  1.00 44.69 LIG 0.16  HD
ATOM     48  C   PRO A 230       5.556  27.687 -53.936  1.00 46.57 LIG 0.25  C 
ATOM     49 O    PRO A 230       5.254  28.477 -53.048  1.00 46.08 LIG-0.27  OA
BRANCH 48 50
ATOM     50  CA  PRO A 230       7.028  27.575 -54.403  1.00 51.04 LIG 0.35  C 
ATOM     51  N   PRO A 230       7.897  28.561 -53.758  1.00 55.48 LIG 0.32  N 
ATOM     52  CD  PRO A 230       8.566  28.004 -52.572  1.00 58.51 LIG 0.32  C 
ATOM     53  CG  PRO A 230       8.743  26.566 -52.941  1.00 57.35 LIG 0.04  C 
ATOM     54  CB  PRO A 230       7.672  26.228 -53.998  1.00 52.45 LIG 0.05  C 
ENDBRANCH 48 50
ENDBRANCH 44 46
ENDBRANCH 42 44
ENDBRANCH 35 37
ENDBRANCH 1 33
TORSDOF 19
ENDMDL
MODEL 2
USER: ADFR SOLUTION from run 139
USER: SCORE 19.170429 LL:  -4.425 LR: -16.999 RR:   0.000 FEB: -11.332
USER: RMSD 3.657283
USER: SEED 138
USER: STATUS 1 or 2 clusters left
USER: GENES 21
USER: genes 0 Translation |==|  0.57765 0.46935 0.54632
USER: genes 1 Rotation |==|  0.47578 0.50324 0.51585 0.99915
USER: genes 2 Torsion [C]-CA--CB-[CG] |==|  0.20903
USER: genes 3 Torsion [CA]-CB--CG-[CD] |==|  0.34106
USER: genes 4 Torsion [CB]-CG--CD-[OE1] |==|  0.05798
USER: genes 5 Torsion [N]-CA--C-[N] |==|  0.42732
USER: genes 6 Torsion [C]-N--CA-[CB] |==|  0.18707
USER: genes 7 Torsion [N]-CA--CB-[CG] |==|  0.67038
USER: genes 8 Torsion [CA]-CB--CG-[CD1] |==|  0.43988
USER: genes 9 Torsion [N]-CA--C-[N] |==|  0.55185
USER: genes 10 Torsion [C]-N--CA-[CB] |==|  0.18596
USER: genes 11 Torsion [N]-CA--C-[N] |==|  0.06180
USER: genes 12 Torsion [C]-N--CA-[C] |==|  0.74699
USER: genes 13 Torsion [N]-CA--C-[O] |==|  0.98911
USER: genes 14 Torsion [N]-CA--CB-[CG] |==|  0.73456
USER: genes 15 Torsion [CA]-CB--CG-[CD2] |==|  0.76786
USER: genes 16 Torsion [CB]-CA--N-[C] |==|  0.44946
USER: genes 17 Torsion [N]-C--CA-[N] |==|  0.29555
USER: genes 18 Torsion [N]-C--CA-[N] |==|  0.86686
USER: genes 19 Torsion [C]-CA--N-[C] |==|  0.84490
USER: genes 20 Torsion [N]-C--CA-[N] |==|  0.45366
ROOT
ATOM      1  CA  GLU A 233       1.989  24.902 -48.964  1.00 24.61 LIG 0.18  C 
ENDROOT
BRANCH 1 2
ATOM      2  CB  GLU A 233       3.315  24.218 -48.640  1.00 26.56 LIG 0.04  C 
BRANCH 2 3
ATOM      3  CG  GLU A 233       3.120  22.775 -48.163  1.00 28.50 LIG 0.12  C 
BRANCH 3 4
ATOM      4  CD  GLU A 233       3.848  21.752 -48.981  1.00 31.23 LIG 0.17  C 
ATOM      5 OE1  GLU A 233       4.803  22.115 -49.665  1.00 40.78 LIG-0.65  OA
ATOM      6 OE2  GLU A 233       3.500  20.567 -48.907  1.00 32.56 LIG-0.65  OA
ENDBRANCH 3 4
ENDBRANCH 2 3
ENDBRANCH 1 2
BRANCH 1 7
ATOM      7  C   GLU A 233       1.228  25.297 -47.693  1.00 22.49 LIG 0.24  C 
ATOM      8  N   LEU A 234       0.499  24.328 -47.141  1.00 21.03 LIG-0.35  N 
ATOM      9 H    LEU A 234       0.461  23.525 -47.445  1.00 21.03 LIG 0.16  HD
ATOM     10 O    GLU A 233       1.251  26.453 -47.254  1.00 21.03 LIG-0.27  OA
BRANCH 8 11
ATOM     11  CA  LEU A 234      -0.313  24.562 -45.943  1.00 20.74 LIG 0.18  C 
BRANCH 11 12
ATOM     12  CB  LEU A 234      -1.451  25.514 -46.313  1.00 23.04 LIG 0.04  C 
BRANCH 12 13
ATOM     13  CG  LEU A 234      -1.357  26.816 -45.490  1.00 25.06 LIG-0.02  C 
ATOM     14  CD1 LEU A 234      -2.104  27.973 -46.165  1.00 33.19 LIG 0.01  C 
ATOM     15  CD2 LEU A 234      -1.838  26.558 -44.052  1.00 27.29 LIG 0.01  C 
ENDBRANCH 12 13
ENDBRANCH 11 12
BRANCH 11 16
ATOM     16  C   LEU A 234      -0.836  23.246 -45.370  1.00 18.65 LIG 0.24  C 
ATOM     17 O    LEU A 234      -0.341  22.189 -45.736  1.00 20.08 LIG-0.27  OA
ATOM     18  N   LEU A 235      -1.879  23.319 -44.534  1.00 16.33 LIG-0.35  N 
ATOM     19 H    LEU A 235      -2.323  24.040 -44.387  1.00 16.33 LIG 0.16  HD
BRANCH 18 20
ATOM     20  CA  LEU A 235      -2.355  22.165 -43.793  1.00 16.00 LIG 0.18  C 
BRANCH 20 21
ATOM     21  C   LEU A 235      -3.713  22.397 -43.116  1.00 15.60 LIG 0.24  C 
ATOM     22 O    LEU A 235      -4.055  21.728 -42.173  1.00 16.00 LIG-0.27  OA
ATOM     23  N   GLY A 236      -4.484  23.349 -43.606  1.00 15.05 LIG-0.35  N 
ATOM     24 H    GLY A 236      -4.275  23.859 -44.266  1.00 15.05 LIG 0.16  HD
BRANCH 23 25
ATOM     25  CA  GLY A 236      -5.820  23.597 -43.010  1.00 15.88 LIG 0.23  C 
BRANCH 25 26
ATOM     26  C   GLY A 236      -6.896  22.795 -43.689  1.00 16.68 LIG 0.19  C 
ATOM     27 O    GLY A 236      -6.620  22.099 -44.671  1.00 18.78 LIG-0.65  OA
ATOM     28 OXT  GLY A 236      -8.058  22.829 -43.291  1.00 16.61 LIG-0.65  OA
ENDBRANCH 25 26
ENDBRANCH 23 25
ENDBRANCH 20 21
BRANCH 20 29
ATOM     29  CB  LEU A 235      -1.300  21.724 -42.754  1.00 17.17 LIG 0.04  C 
BRANCH 29 30
ATOM     30  CG  LEU A 235      -0.333  20.603 -43.155  1.00 20.01 LIG-0.02  C 
ATOM     31  CD1 LEU A 235       0.906  20.697 -42.386  1.00 21.18 LIG 0.01  C 
ATOM     32  CD2 LEU A 235      -0.998  19.229 -42.916  1.00 23.81 LIG 0.01  C 
ENDBRANCH 29 30
ENDBRANCH 20 29
ENDBRANCH 18 20
ENDBRANCH 11 16
ENDBRANCH 8 11
ENDBRANCH 1 7
BRANCH 1 33
ATOM     33  N   GLU A 233       2.192  26.116 -49.761  1.00 26.21 LIG-0.35  N 
ATOM     34 H    GLU A 233       2.995  26.424 -49.737  1.00 26.21 LIG 0.16  HD
ATOM     35  C   PRO A 232       1.209  26.676 -50.453  1.00 29.12 LIG 0.24  C 
ATOM     36 O    PRO A 232       0.083  26.174 -50.586  1.00 29.57 LIG-0.27  OA
BRANCH 35 37
ATOM     37  CA  PRO A 232       1.545  28.005 -51.130  1.00 32.50 LIG 0.18  C 
ATOM     38  CB  PRO A 232       0.377  28.984 -50.953  1.00 34.03 LIG 0.04  C 
ATOM     39  CG  PRO A 232       0.123  29.588 -52.282  1.00 39.71 LIG 0.02  C 
ATOM     40  CD  PRO A 232       0.962  28.931 -53.320  1.00 41.14 LIG 0.13  C 
ATOM     41  N   PRO A 232       1.701  27.892 -52.578  1.00 36.81 LIG-0.34  N 
ATOM     42  C   ALA A 231       2.606  27.033 -53.077  1.00 38.01 LIG 0.24  C 
ATOM     43 O    ALA A 231       3.273  26.288 -52.363  1.00 37.25 LIG-0.27  OA
BRANCH 42 44
ATOM     44  CA  ALA A 231       2.752  26.968 -54.585  1.00 42.70 LIG 0.17  C 
ATOM     45  CB  ALA A 231       3.499  28.196 -55.068  1.00 44.12 LIG 0.04  C 
BRANCH 44 46
ATOM     46  N   ALA A 231       1.444  26.860 -55.240  1.00 44.69 LIG-0.35  N 
ATOM     47 H    ALA A 231       1.287  27.473 -55.823  1.00 44.69 LIG 0.16  HD
ATOM     48  C   PRO A 230       0.590  25.884 -54.936  1.00 46.57 LIG 0.25  C 
ATOM     49 O    PRO A 230       0.747  25.146 -53.970  1.00 46.08 LIG-0.27  OA
BRANCH 48 50
ATOM     50  CA  PRO A 230      -0.627  25.682 -55.873  1.00 51.04 LIG 0.35  C 
ATOM     51  N   PRO A 230      -1.266  24.378 -55.686  1.00 55.48 LIG 0.32  N 
ATOM     52  CD  PRO A 230      -2.402  24.458 -54.755  1.00 58.51 LIG 0.32  C 
ATOM     53  CG  PRO A 230      -2.931  25.835 -55.000  1.00 57.35 LIG 0.04  C 
ATOM     54  CB  PRO A 230      -1.772  26.676 -55.571  1.00 52.45 LIG 0.05  C 
ENDBRANCH 48 50
ENDBRANCH 44 46
ENDBRANCH 42 44
ENDBRANCH 35 37
ENDBRANCH 1 33
TORSDOF 19
ENDMDL
MODEL 3
USER: ADFR SOLUTION from run 39
USER: SCORE 17.892327 LL:  -4.107 LR: -16.946 RR:   0.000 FEB: -11.278
USER: RMSD 3.785621
USER: SEED 38
USER: STATUS no improvement in best in 4 clusters for 5 generations
USER: GENES 21
USER: genes 0 Translation |==|  0.54104 0.44111 0.53352
USER: genes 1 Rotation |==|  0.41699 0.59903 0.66609 0.95356
USER: genes 2 Torsion [C]-CA--CB-[CG] |==|  0.16618
USER: genes 3 Torsion [CA]-CB--CG-[CD] |==|  0.23871
USER: genes 4 Torsion [CB]-CG--CD-[OE1] |==|  0.23059
USER: genes 5 Torsion [N]-CA--C-[N] |==|  0.19595
USER: genes 6 Torsion [C]-N--CA-[CB] |==|  0.26294
USER: genes 7 Torsion [N]-CA--CB-[CG] |==|  0.64337
USER: genes 8 Torsion [CA]-CB--CG-[CD1] |==|  0.45992
USER: genes 9 Torsion [N]-CA--C-[N] |==|  0.40730
USER: genes 10 Torsion [C]-N--CA-[CB] |==|  0.37425
USER: genes 11 Torsion [N]-CA--C-[N] |==|  0.07387
USER: genes 12 Torsion [C]-N--CA-[C] |==|  0.75957
USER: genes 13 Torsion [N]-CA--C-[O] |==|  0.97254
USER: genes 14 Torsion [N]-CA--CB-[CG] |==|  0.75541
USER: genes 15 Torsion [CA]-CB--CG-[CD2] |==|  0.39501
USER: genes 16 Torsion [CB]-CA--N-[C] |==|  0.78318
USER: genes 17 Torsion [N]-C--CA-[N] |==|  0.72143
USER: genes 18 Torsion [N]-C--CA-[N] |==|  0.43547
USER: genes 19 Torsion [C]-CA--N-[C] |==|  0.74853
USER: genes 20 Torsion [N]-C--CA-[N] |==|  0.54518
ROOT
ATOM      1  CA  GLU A 233       1.110  24.373 -49.262  1.00 24.61 LIG 0.18  C 
ENDROOT
BRANCH 1 2
ATOM      2  CB  GLU A 233       2.603  24.598 -49.493  1.00 26.56 LIG 0.04  C 
BRANCH 2 3
ATOM      3  CG  GLU A 233       3.467  23.774 -48.532  1.00 28.50 LIG 0.12  C 
BRANCH 3 4
ATOM      4  CD  GLU A 233       3.751  22.379 -49.001  1.00 31.23 LIG 0.17  C 
ATOM      5 OE1  GLU A 233       4.675  22.199 -49.791  1.00 40.78 LIG-0.65  OA
ATOM      6 OE2  GLU A 233       3.081  21.445 -48.544  1.00 32.56 LIG-0.65  OA
ENDBRANCH 3 4
ENDBRANCH 2 3
ENDBRANCH 1 2
BRANCH 1 7
ATOM      7  C   GLU A 233       0.691  24.759 -47.838  1.00 22.49 LIG 0.24  C 
ATOM      8  N   LEU A 234      -0.517  24.339 -47.466  1.00 21.03 LIG-0.35  N 
ATOM      9 H    LEU A 234      -1.034  23.866 -47.963  1.00 21.03 LIG 0.16  HD
ATOM     10 O    GLU A 233       1.411  25.460 -47.116  1.00 21.03 LIG-0.27  OA
BRANCH 8 11
ATOM     11  CA  LEU A 234      -1.072  24.662 -46.148  1.00 20.74 LIG 0.18  C 
BRANCH 11 12
ATOM     12  CB  LEU A 234      -1.938  25.915 -46.284  1.00 23.04 LIG 0.04  C 
BRANCH 12 13
ATOM     13  CG  LEU A 234      -1.532  26.970 -45.234  1.00 25.06 LIG-0.02  C 
ATOM     14  CD1 LEU A 234      -2.117  28.350 -45.557  1.00 33.19 LIG 0.01  C 
ATOM     15  CD2 LEU A 234      -1.913  26.477 -43.828  1.00 27.29 LIG 0.01  C 
ENDBRANCH 12 13
ENDBRANCH 11 12
BRANCH 11 16
ATOM     16  C   LEU A 234      -1.863  23.483 -45.584  1.00 18.65 LIG 0.24  C 
ATOM     17 O    LEU A 234      -2.531  22.786 -46.337  1.00 20.08 LIG-0.27  OA
ATOM     18  N   LEU A 235      -1.840  23.314 -44.256  1.00 16.33 LIG-0.35  N 
ATOM     19 H    LEU A 235      -1.495  23.881 -43.709  1.00 16.33 LIG 0.16  HD
BRANCH 18 20
ATOM     20  CA  LEU A 235      -2.405  22.139 -43.617  1.00 16.00 LIG 0.18  C 
BRANCH 20 21
ATOM     21  C   LEU A 235      -3.793  22.387 -43.010  1.00 15.60 LIG 0.24  C 
ATOM     22 O    LEU A 235      -4.186  21.728 -42.080  1.00 16.00 LIG-0.27  OA
ATOM     23  N   GLY A 236      -4.531  23.340 -43.545  1.00 15.05 LIG-0.35  N 
ATOM     24 H    GLY A 236      -4.286  23.844 -44.198  1.00 15.05 LIG 0.16  HD
BRANCH 23 25
ATOM     25  CA  GLY A 236      -5.893  23.604 -43.018  1.00 15.88 LIG 0.23  C 
BRANCH 25 26
ATOM     26  C   GLY A 236      -6.926  22.725 -43.668  1.00 16.68 LIG 0.19  C 
ATOM     27 O    GLY A 236      -6.625  22.042 -44.652  1.00 18.78 LIG-0.65  OA
ATOM     28 OXT  GLY A 236      -8.078  22.683 -43.244  1.00 16.61 LIG-0.65  OA
ENDBRANCH 25 26
ENDBRANCH 23 25
ENDBRANCH 20 21
BRANCH 20 29
ATOM     29  CB  LEU A 235      -1.434  21.595 -42.546  1.00 17.17 LIG 0.04  C 
BRANCH 29 30
ATOM     30  CG  LEU A 235      -0.370  20.588 -42.998  1.00 20.01 LIG-0.02  C 
ATOM     31  CD1 LEU A 235      -0.150  20.685 -44.440  1.00 21.18 LIG 0.01  C 
ATOM     32  CD2 LEU A 235       0.954  20.852 -42.245  1.00 23.81 LIG 0.01  C 
ENDBRANCH 29 30
ENDBRANCH 20 29
ENDBRANCH 18 20
ENDBRANCH 11 16
ENDBRANCH 8 11
ENDBRANCH 1 7
BRANCH 1 33
ATOM     33  N   GLU A 233       0.299  25.157 -50.197  1.00 26.21 LIG-0.35  N 
ATOM     34 H    GLU A 233      -0.021  24.703 -50.854  1.00 26.21 LIG 0.16  HD
ATOM     35  C   PRO A 232       0.088  26.456 -50.027  1.00 29.12 LIG 0.24  C 
ATOM     36 O    PRO A 232       0.447  27.090 -49.024  1.00 29.57 LIG-0.27  OA
BRANCH 35 37
ATOM     37  CA  PRO A 232      -0.671  27.160 -51.153  1.00 32.50 LIG 0.18  C 
ATOM     38  CB  PRO A 232      -1.352  26.115 -52.047  1.00 34.03 LIG 0.04  C 
ATOM     39  CG  PRO A 232      -1.053  26.495 -53.448  1.00 39.71 LIG 0.02  C 
ATOM     40  CD  PRO A 232      -0.092  27.630 -53.485  1.00 41.14 LIG 0.13  C 
ATOM     41  N   PRO A 232       0.201  27.897 -52.064  1.00 36.81 LIG-0.34  N 
ATOM     42  C   ALA A 231       1.013  28.848 -51.572  1.00 38.01 LIG 0.24  C 
ATOM     43 O    ALA A 231       1.097  29.087 -50.370  1.00 37.25 LIG-0.27  OA
BRANCH 42 44
ATOM     44  CA  ALA A 231       1.881  29.605 -52.558  1.00 42.70 LIG 0.17  C 
ATOM     45  CB  ALA A 231       3.101  28.769 -52.895  1.00 44.12 LIG 0.04  C 
BRANCH 44 46
ATOM     46  N   ALA A 231       2.275  30.912 -52.022  1.00 44.69 LIG-0.35  N 
ATOM     47 H    ALA A 231       3.007  30.905 -51.570  1.00 44.69 LIG 0.16  HD
ATOM     48  C   PRO A 230       1.540  32.003 -52.234  1.00 46.57 LIG 0.25  C 
ATOM     49 O    PRO A 230       0.410  31.956 -52.706  1.00 46.08 LIG-0.27  OA
BRANCH 48 50
ATOM     50  CA  PRO A 230       2.176  33.372 -51.883  1.00 51.04 LIG 0.35  C 
ATOM     51  N   PRO A 230       1.182  34.442 -51.791  1.00 55.48 LIG 0.32  N 
ATOM     52  CD  PRO A 230       0.738  34.655 -50.404  1.00 58.51 LIG 0.32  C 
ATOM     53  CG  PRO A 230       1.962  34.319 -49.613  1.00 57.35 LIG 0.04  C 
ATOM     54  CB  PRO A 230       2.822  33.376 -50.479  1.00 52.45 LIG 0.05  C 
ENDBRANCH 48 50
ENDBRANCH 44 46
ENDBRANCH 42 44
ENDBRANCH 35 37
ENDBRANCH 1 33
TORSDOF 19
ENDMDL
MODEL 4
USER: ADFR SOLUTION from run 42
USER: SCORE 18.779883 LL:  -4.249 LR: -16.939 RR:   0.000 FEB: -11.272
USER: RMSD 1.908246
USER: SEED 41
USER: STATUS no improvement in best in 3 clusters for 5 generations
USER: GENES 21
USER: genes 0 Translation |==|  0.57600 0.47099 0.54118
USER: genes 1 Rotation |==|  0.47751 0.50960 0.51797 0.99908
USER: genes 2 Torsion [C]-CA--CB-[CG] |==|  0.19291
USER: genes 3 Torsion [CA]-CB--CG-[CD] |==|  0.34990
USER: genes 4 Torsion [CB]-CG--CD-[OE1] |==|  0.05703
USER: genes 5 Torsion [N]-CA--C-[N] |==|  0.42590
USER: genes 6 Torsion [C]-N--CA-[CB] |==|  0.18576
USER: genes 7 Torsion [N]-CA--CB-[CG] |==|  0.66216
USER: genes 8 Torsion [CA]-CB--CG-[CD1] |==|  0.44673
USER: genes 9 Torsion [N]-CA--C-[N] |==|  0.56158
USER: genes 10 Torsion [C]-N--CA-[CB] |==|  0.17556
USER: genes 11 Torsion [N]-CA--C-[N] |==|  0.06782
USER: genes 12 Torsion [C]-N--CA-[C] |==|  0.74389
USER: genes 13 Torsion [N]-CA--C-[O] |==|  0.99080
USER: genes 14 Torsion [N]-CA--CB-[CG] |==|  0.72800
USER: genes 15 Torsion [CA]-CB--CG-[CD2] |==|  0.74781
USER: genes 16 Torsion [CB]-CA--N-[C] |==|  0.46163
USER: genes 17 Torsion [N]-C--CA-[N] |==|  0.26931
USER: genes 18 Torsion [N]-C--CA-[N] |==|  0.19668
USER: genes 19 Torsion [C]-CA--N-[C] |==|  0.63279
USER: genes 20 Torsion [N]-C--CA-[N] |==|  0.57001
ROOT
ATOM      1  CA  GLU A 233       1.949  24.933 -49.084  1.00 24.61 LIG 0.18  C 
ENDROOT
BRANCH 1 2
ATOM      2  CB  GLU A 233       3.289  24.256 -48.798  1.00 26.56 LIG 0.04  C 
BRANCH 2 3
ATOM      3  CG  GLU A 233       3.113  22.860 -48.191  1.00 28.50 LIG 0.12  C 
BRANCH 3 4
ATOM      4  CD  GLU A 233       3.833  21.773 -48.929  1.00 31.23 LIG 0.17  C 
ATOM      5 OE1  GLU A 233       4.768  22.079 -49.667  1.00 40.78 LIG-0.65  OA
ATOM      6 OE2  GLU A 233       3.500  20.597 -48.739  1.00 32.56 LIG-0.65  OA
ENDBRANCH 3 4
ENDBRANCH 2 3
ENDBRANCH 1 2
BRANCH 1 7
ATOM      7  C   GLU A 233       1.219  25.314 -47.791  1.00 22.49 LIG 0.24  C 
ATOM      8  N   LEU A 234       0.503  24.340 -47.232  1.00 21.03 LIG-0.35  N 
ATOM      9 H    LEU A 234       0.457  23.540 -47.543  1.00 21.03 LIG 0.16  HD
ATOM     10 O    GLU A 233       1.253  26.466 -47.340  1.00 21.03 LIG-0.27  OA
BRANCH 8 11
ATOM     11  CA  LEU A 234      -0.280  24.562 -46.013  1.00 20.74 LIG 0.18  C 
BRANCH 11 12
ATOM     12  CB  LEU A 234      -1.420  25.527 -46.342  1.00 23.04 LIG 0.04  C 
BRANCH 12 13
ATOM     13  CG  LEU A 234      -1.340  26.784 -45.450  1.00 25.06 LIG-0.02  C 
ATOM     14  CD1 LEU A 234      -2.137  27.953 -46.040  1.00 33.19 LIG 0.01  C 
ATOM     15  CD2 LEU A 234      -1.775  26.432 -44.017  1.00 27.29 LIG 0.01  C 
ENDBRANCH 12 13
ENDBRANCH 11 12
BRANCH 11 16
ATOM     16  C   LEU A 234      -0.800  23.241 -45.448  1.00 18.65 LIG 0.24  C 
ATOM     17 O    LEU A 234      -0.278  22.189 -45.791  1.00 20.08 LIG-0.27  OA
ATOM     18  N   LEU A 235      -1.868  23.301 -44.644  1.00 16.33 LIG-0.35  N 
ATOM     19 H    LEU A 235      -2.328  24.017 -44.514  1.00 16.33 LIG 0.16  HD
BRANCH 18 20
ATOM     20  CA  LEU A 235      -2.349  22.145 -43.910  1.00 16.00 LIG 0.18  C 
BRANCH 20 21
ATOM     21  C   LEU A 235      -3.688  22.390 -43.200  1.00 15.60 LIG 0.24  C 
ATOM     22 O    LEU A 235      -4.003  21.737 -42.236  1.00 16.00 LIG-0.27  OA
ATOM     23  N   GLY A 236      -4.471  23.333 -43.686  1.00 15.05 LIG-0.35  N 
ATOM     24 H    GLY A 236      -4.281  23.832 -44.360  1.00 15.05 LIG 0.16  HD
BRANCH 23 25
ATOM     25  CA  GLY A 236      -5.791  23.592 -43.058  1.00 15.88 LIG 0.23  C 
BRANCH 25 26
ATOM     26  C   GLY A 236      -6.889  22.800 -43.710  1.00 16.68 LIG 0.19  C 
ATOM     27 O    GLY A 236      -6.641  22.092 -44.692  1.00 18.78 LIG-0.65  OA
ATOM     28 OXT  GLY A 236      -8.043  22.852 -43.291  1.00 16.61 LIG-0.65  OA
ENDBRANCH 25 26
ENDBRANCH 23 25
ENDBRANCH 20 21
BRANCH 20 29
ATOM     29  CB  LEU A 235      -1.280  21.669 -42.902  1.00 17.17 LIG 0.04  C 
BRANCH 29 30
ATOM     30  CG  LEU A 235      -0.378  20.501 -43.320  1.00 20.01 LIG-0.02  C 
ATOM     31  CD1 LEU A 235       0.950  20.641 -42.726  1.00 21.18 LIG 0.01  C 
ATOM     32  CD2 LEU A 235      -1.014  19.165 -42.876  1.00 23.81 LIG 0.01  C 
ENDBRANCH 29 30
ENDBRANCH 20 29
ENDBRANCH 18 20
ENDBRANCH 11 16
ENDBRANCH 8 11
ENDBRANCH 1 7
BRANCH 1 33
ATOM     33  N   GLU A 233       2.123  26.153 -49.878  1.00 26.21 LIG-0.35  N 
ATOM     34 H    GLU A 233       2.935  26.433 -49.921  1.00 26.21 LIG 0.16  HD
ATOM     35  C   PRO A 232       1.102  26.757 -50.471  1.00 29.12 LIG 0.24  C 
ATOM     36 O    PRO A 232      -0.048  26.296 -50.510  1.00 29.57 LIG-0.27  OA
BRANCH 35 37
ATOM     37  CA  PRO A 232       1.423  28.086 -51.156  1.00 32.50 LIG 0.18  C 
ATOM     38  CB  PRO A 232       0.210  29.021 -51.061  1.00 34.03 LIG 0.04  C 
ATOM     39  CG  PRO A 232       0.006  29.591 -52.415  1.00 39.71 LIG 0.02  C 
ATOM     40  CD  PRO A 232       0.924  28.948 -53.393  1.00 41.14 LIG 0.13  C 
ATOM     41  N   PRO A 232       1.662  27.953 -52.591  1.00 36.81 LIG-0.34  N 
ATOM     42  C   ALA A 231       2.624  27.121 -53.024  1.00 38.01 LIG 0.24  C 
ATOM     43 O    ALA A 231       3.280  26.417 -52.260  1.00 37.25 LIG-0.27  OA
BRANCH 42 44
ATOM     44  CA  ALA A 231       2.854  27.035 -54.520  1.00 42.70 LIG 0.17  C 
ATOM     45  CB  ALA A 231       3.721  25.828 -54.823  1.00 44.12 LIG 0.04  C 
BRANCH 44 46
ATOM     46  N   ALA A 231       3.469  28.263 -55.033  1.00 44.69 LIG-0.35  N 
ATOM     47 H    ALA A 231       4.145  28.539 -54.579  1.00 44.69 LIG 0.16  HD
ATOM     48  C   PRO A 230       2.999  28.878 -56.117  1.00 46.57 LIG 0.25  C 
ATOM     49 O    PRO A 230       1.924  28.584 -56.629  1.00 46.08 LIG-0.27  OA
BRANCH 48 50
ATOM     50  CA  PRO A 230       3.877  29.988 -56.746  1.00 51.04 LIG 0.35  C 
ATOM     51  N   PRO A 230       3.089  30.963 -57.502  1.00 55.48 LIG 0.32  N 
ATOM     52  CD  PRO A 230       2.750  32.140 -56.686  1.00 58.51 LIG 0.32  C 
ATOM     53  CG  PRO A 230       3.930  32.258 -55.776  1.00 57.35 LIG 0.04  C 
ATOM     54  CB  PRO A 230       4.575  30.861 -55.677  1.00 52.45 LIG 0.05  C 
ENDBRANCH 48 50
ENDBRANCH 44 46
ENDBRANCH 42 44
ENDBRANCH 35 37
ENDBRANCH 1 33
TORSDOF 19
ENDMDL
MODEL 5
USER: ADFR SOLUTION from run 172
USER: SCORE 19.187154 LL:  -4.625 LR: -16.698 RR:   0.000 FEB: -11.030
USER: RMSD 5.027585
USER: SEED 171
USER: STATUS no improvement in best in 6 clusters for 5 generations
USER: GENES 21
USER: genes 0 Translation |==|  0.56726 0.46048 0.53987
USER: genes 1 Rotation |==|  0.45331 0.54362 0.55783 0.99252
USER: genes 2 Torsion [C]-CA--CB-[CG] |==|  0.19152
USER: genes 3 Torsion [CA]-CB--CG-[CD] |==|  0.32588
USER: genes 4 Torsion [CB]-CG--CD-[OE1] |==|  0.12056
USER: genes 5 Torsion [N]-CA--C-[N] |==|  0.38086
USER: genes 6 Torsion [C]-N--CA-[CB] |==|  0.19897
USER: genes 7 Torsion [N]-CA--CB-[CG] |==|  0.66122
USER: genes 8 Torsion [CA]-CB--CG-[CD1] |==|  0.44535
USER: genes 9 Torsion [N]-CA--C-[N] |==|  0.57879
USER: genes 10 Torsion [C]-N--CA-[CB] |==|  0.17667
USER: genes 11 Torsion [N]-CA--C-[N] |==|  0.06670
USER: genes 12 Torsion [C]-N--CA-[C] |==|  0.73014
USER: genes 13 Torsion [N]-CA--C-[O] |==|  0.98634
USER: genes 14 Torsion [N]-CA--CB-[CG] |==|  0.68921
USER: genes 15 Torsion [CA]-CB--CG-[CD2] |==|  0.34558
USER: genes 16 Torsion [CB]-CA--N-[C] |==|  0.19579
USER: genes 17 Torsion [N]-C--CA-[N] |==|  0.74478
USER: genes 18 Torsion [N]-C--CA-[N] |==|  0.88334
USER: genes 19 Torsion [C]-CA--N-[C] |==|  0.82303
USER: genes 20 Torsion [N]-C--CA-[N] |==|  0.54210
ROOT
ATOM      1  CA  GLU A 233       1.739  24.736 -49.114  1.00 24.61 LIG 0.18  C 
ENDROOT
BRANCH 1 2
ATOM      2  CB  GLU A 233       3.196  24.300 -48.970  1.00 26.56 LIG 0.04  C 
BRANCH 2 3
ATOM      3  CG  GLU A 233       3.331  22.975 -48.212  1.00 28.50 LIG 0.12  C 
BRANCH 3 4
ATOM      4  CD  GLU A 233       3.930  21.863 -49.018  1.00 31.23 LIG 0.17  C 
ATOM      5 OE1  GLU A 233       4.908  22.106 -49.723  1.00 40.78 LIG-0.65  OA
ATOM      6 OE2  GLU A 233       3.456  20.725 -48.916  1.00 32.56 LIG-0.65  OA
ENDBRANCH 3 4
ENDBRANCH 2 3
ENDBRANCH 1 2
BRANCH 1 7
ATOM      7  C   GLU A 233       1.133  25.145 -47.766  1.00 22.49 LIG 0.24  C 
ATOM      8  N   LEU A 234       0.373  24.222 -47.180  1.00 21.03 LIG-0.35  N 
ATOM      9 H    LEU A 234       0.236  23.438 -47.504  1.00 21.03 LIG 0.16  HD
ATOM     10 O    GLU A 233       1.299  26.277 -47.295  1.00 21.03 LIG-0.27  OA
BRANCH 8 11
ATOM     11  CA  LEU A 234      -0.305  24.479 -45.906  1.00 20.74 LIG 0.18  C 
BRANCH 11 12
ATOM     12  CB  LEU A 234      -1.451  25.458 -46.160  1.00 23.04 LIG 0.04  C 
BRANCH 12 13
ATOM     13  CG  LEU A 234      -1.284  26.725 -45.294  1.00 25.06 LIG-0.02  C 
ATOM     14  CD1 LEU A 234      -2.095  27.903 -45.844  1.00 33.19 LIG 0.01  C 
ATOM     15  CD2 LEU A 234      -1.624  26.401 -43.829  1.00 27.29 LIG 0.01  C 
ENDBRANCH 12 13
ENDBRANCH 11 12
BRANCH 11 16
ATOM     16  C   LEU A 234      -0.799  23.177 -45.276  1.00 18.65 LIG 0.24  C 
ATOM     17 O    LEU A 234      -0.247  22.122 -45.557  1.00 20.08 LIG-0.27  OA
ATOM     18  N   LEU A 235      -1.878  23.254 -44.488  1.00 16.33 LIG-0.35  N 
ATOM     19 H    LEU A 235      -2.357  23.963 -44.403  1.00 16.33 LIG 0.16  HD
BRANCH 18 20
ATOM     20  CA  LEU A 235      -2.339  22.126 -43.699  1.00 16.00 LIG 0.18  C 
BRANCH 20 21
ATOM     21  C   LEU A 235      -3.697  22.371 -43.026  1.00 15.60 LIG 0.24  C 
ATOM     22 O    LEU A 235      -4.014  21.759 -42.036  1.00 16.00 LIG-0.27  OA
ATOM     23  N   GLY A 236      -4.495  23.268 -43.571  1.00 15.05 LIG-0.35  N 
ATOM     24 H    GLY A 236      -4.304  23.738 -44.266  1.00 15.05 LIG 0.16  HD
BRANCH 23 25
ATOM     25  CA  GLY A 236      -5.832  23.524 -42.980  1.00 15.88 LIG 0.23  C 
BRANCH 25 26
ATOM     26  C   GLY A 236      -6.915  22.761 -43.691  1.00 16.68 LIG 0.19  C 
ATOM     27 O    GLY A 236      -6.647  22.102 -44.700  1.00 18.78 LIG-0.65  OA
ATOM     28 OXT  GLY A 236      -8.077  22.791 -43.291  1.00 16.61 LIG-0.65  OA
ENDBRANCH 25 26
ENDBRANCH 23 25
ENDBRANCH 20 21
BRANCH 20 29
ATOM     29  CB  LEU A 235      -1.275  21.739 -42.649  1.00 17.17 LIG 0.04  C 
BRANCH 29 30
ATOM     30  CG  LEU A 235      -0.558  20.395 -42.824  1.00 20.01 LIG-0.02  C 
ATOM     31  CD1 LEU A 235      -0.997  19.737 -44.054  1.00 21.18 LIG 0.01  C 
ATOM     32  CD2 LEU A 235       0.970  20.618 -42.864  1.00 23.81 LIG 0.01  C 
ENDBRANCH 29 30
ENDBRANCH 20 29
ENDBRANCH 18 20
ENDBRANCH 11 16
ENDBRANCH 8 11
ENDBRANCH 1 7
BRANCH 1 33
ATOM     33  N   GLU A 233       1.608  25.873 -50.029  1.00 26.21 LIG-0.35  N 
ATOM     34 H    GLU A 233       1.401  26.614 -49.645  1.00 26.21 LIG 0.16  HD
ATOM     35  C   PRO A 232       1.797  25.749 -51.336  1.00 29.12 LIG 0.24  C 
ATOM     36 O    PRO A 232       2.209  24.714 -51.882  1.00 29.57 LIG-0.27  OA
BRANCH 35 37
ATOM     37  CA  PRO A 232       1.500  26.995 -52.173  1.00 32.50 LIG 0.18  C 
ATOM     38  CB  PRO A 232       1.625  28.247 -51.295  1.00 34.03 LIG 0.04  C 
ATOM     39  CG  PRO A 232       0.428  29.078 -51.567  1.00 39.71 LIG 0.02  C 
ATOM     40  CD  PRO A 232      -0.522  28.348 -52.449  1.00 41.14 LIG 0.13  C 
ATOM     41  N   PRO A 232       0.127  27.041 -52.670  1.00 36.81 LIG-0.34  N 
ATOM     42  C   ALA A 231      -0.337  26.027 -53.419  1.00 38.01 LIG 0.24  C 
ATOM     43 O    ALA A 231       0.331  25.023 -53.657  1.00 37.25 LIG-0.27  OA
BRANCH 42 44
ATOM     44  CA  ALA A 231      -1.759  26.131 -53.935  1.00 42.70 LIG 0.17  C 
ATOM     45  CB  ALA A 231      -1.780  27.015 -55.167  1.00 44.12 LIG 0.04  C 
BRANCH 44 46
ATOM     46  N   ALA A 231      -2.660  26.650 -52.902  1.00 44.69 LIG-0.35  N 
ATOM     47 H    ALA A 231      -3.018  27.409 -53.092  1.00 44.69 LIG 0.16  HD
ATOM     48  C   PRO A 230      -2.888  25.981 -51.774  1.00 46.57 LIG 0.25  C 
ATOM     49 O    PRO A 230      -2.222  25.009 -51.437  1.00 46.08 LIG-0.27  OA
BRANCH 48 50
ATOM     50  CA  PRO A 230      -4.063  26.459 -50.884  1.00 51.04 LIG 0.35  C 
ATOM     51  N   PRO A 230      -4.004  25.899 -49.533  1.00 55.48 LIG 0.32  N 
ATOM     52  CD  PRO A 230      -3.340  26.815 -48.592  1.00 58.51 LIG 0.32  C 
ATOM     53  CG  PRO A 230      -3.708  28.161 -49.131  1.00 57.35 LIG 0.04  C 
ATOM     54  CB  PRO A 230      -4.025  27.983 -50.630  1.00 52.45 LIG 0.05  C 
ENDBRANCH 48 50
ENDBRANCH 44 46
ENDBRANCH 42 44
ENDBRANCH 35 37
ENDBRANCH 1 33
TORSDOF 19
ENDMDL
MODEL 6
USER: ADFR SOLUTION from run 100
USER: SCORE 18.560605 LL:  -4.425 LR: -16.648 RR:   0.000 FEB: -10.981
USER: RMSD 5.864903
USER: SEED 99
USER: STATUS no improvement in best in 9 clusters for 5 generations
USER: GENES 21
USER: genes 0 Translation |==|  0.56700 0.46425 0.53560
USER: genes 1 Rotation |==|  0.44526 0.54829 0.57108 0.98951
USER: genes 2 Torsion [C]-CA--CB-[CG] |==|  0.19056
USER: genes 3 Torsion [CA]-CB--CG-[CD] |==|  0.31382
USER: genes 4 Torsion [CB]-CG--CD-[OE1] |==|  0.61854
USER: genes 5 Torsion [N]-CA--C-[N] |==|  0.37525
USER: genes 6 Torsion [C]-N--CA-[CB] |==|  0.19662
USER: genes 7 Torsion [N]-CA--CB-[CG] |==|  0.66572
USER: genes 8 Torsion [CA]-CB--CG-[CD1] |==|  0.42024
USER: genes 9 Torsion [N]-CA--C-[N] |==|  0.58742
USER: genes 10 Torsion [C]-N--CA-[CB] |==|  0.17096
USER: genes 11 Torsion [N]-CA--C-[N] |==|  0.05636
USER: genes 12 Torsion [C]-N--CA-[C] |==|  0.74856
USER: genes 13 Torsion [N]-CA--C-[O] |==|  0.97487
USER: genes 14 Torsion [N]-CA--CB-[CG] |==|  0.76504
USER: genes 15 Torsion [CA]-CB--CG-[CD2] |==|  0.80295
USER: genes 16 Torsion [CB]-CA--N-[C] |==|  0.29990
USER: genes 17 Torsion [N]-C--CA-[N] |==|  0.84858
USER: genes 18 Torsion [N]-C--CA-[N] |==|  0.45537
USER: genes 19 Torsion [C]-CA--N-[C] |==|  0.83046
USER: genes 20 Torsion [N]-C--CA-[N] |==|  0.55528
ROOT
ATOM      1  CA  GLU A 233       1.733  24.807 -49.213  1.00 24.61 LIG 0.18  C 
ENDROOT
BRANCH 1 2
ATOM      2  CB  GLU A 233       3.215  24.455 -49.088  1.00 26.56 LIG 0.04  C 
BRANCH 2 3
ATOM      3  CG  GLU A 233       3.437  23.168 -48.287  1.00 28.50 LIG 0.12  C 
BRANCH 3 4
ATOM      4  CD  GLU A 233       3.984  22.028 -49.092  1.00 31.23 LIG 0.17  C 
ATOM      5 OE1  GLU A 233       3.514  20.905 -48.919  1.00 40.78 LIG-0.65  OA
ATOM      6 OE2  GLU A 233       4.855  22.256 -49.940  1.00 32.56 LIG-0.65  OA
ENDBRANCH 3 4
ENDBRANCH 2 3
ENDBRANCH 1 2
BRANCH 1 7
ATOM      7  C   GLU A 233       1.132  25.223 -47.866  1.00 22.49 LIG 0.24  C 
ATOM      8  N   LEU A 234       0.401  24.293 -47.256  1.00 21.03 LIG-0.35  N 
ATOM      9 H    LEU A 234       0.279  23.500 -47.565  1.00 21.03 LIG 0.16  HD
ATOM     10 O    GLU A 233       1.277  26.367 -47.415  1.00 21.03 LIG-0.27  OA
BRANCH 8 11
ATOM     11  CA  LEU A 234      -0.269  24.555 -45.978  1.00 20.74 LIG 0.18  C 
BRANCH 11 12
ATOM     12  CB  LEU A 234      -1.428  25.519 -46.232  1.00 23.04 LIG 0.04  C 
BRANCH 12 13
ATOM     13  CG  LEU A 234      -1.246  26.813 -45.411  1.00 25.06 LIG-0.02  C 
ATOM     14  CD1 LEU A 234      -1.897  28.020 -46.096  1.00 33.19 LIG 0.01  C 
ATOM     15  CD2 LEU A 234      -1.759  26.595 -43.977  1.00 27.29 LIG 0.01  C 
ENDBRANCH 12 13
ENDBRANCH 11 12
BRANCH 11 16
ATOM     16  C   LEU A 234      -0.744  23.254 -45.332  1.00 18.65 LIG 0.24  C 
ATOM     17 O    LEU A 234      -0.147  22.211 -45.563  1.00 20.08 LIG-0.27  OA
ATOM     18  N   LEU A 235      -1.854  23.314 -44.587  1.00 16.33 LIG-0.35  N 
ATOM     19 H    LEU A 235      -2.359  24.009 -44.539  1.00 16.33 LIG 0.16  HD
BRANCH 18 20
ATOM     20  CA  LEU A 235      -2.307  22.193 -43.785  1.00 16.00 LIG 0.18  C 
BRANCH 20 21
ATOM     21  C   LEU A 235      -3.675  22.429 -43.128  1.00 15.60 LIG 0.24  C 
ATOM     22 O    LEU A 235      -4.020  21.781 -42.172  1.00 16.00 LIG-0.27  OA
ATOM     23  N   GLY A 236      -4.449  23.360 -43.651  1.00 15.05 LIG-0.35  N 
ATOM     24 H    GLY A 236      -4.238  23.856 -44.322  1.00 15.05 LIG 0.16  HD
BRANCH 23 25
ATOM     25  CA  GLY A 236      -5.794  23.611 -43.076  1.00 15.88 LIG 0.23  C 
BRANCH 25 26
ATOM     26  C   GLY A 236      -6.852  22.772 -43.737  1.00 16.68 LIG 0.19  C 
ATOM     27 O    GLY A 236      -6.580  22.119 -44.749  1.00 18.78 LIG-0.65  OA
ATOM     28 OXT  GLY A 236      -7.997  22.732 -43.293  1.00 16.61 LIG-0.65  OA
ENDBRANCH 25 26
ENDBRANCH 23 25
ENDBRANCH 20 21
BRANCH 20 29
ATOM     29  CB  LEU A 235      -1.248  21.837 -42.718  1.00 17.17 LIG 0.04  C 
BRANCH 29 30
ATOM     30  CG  LEU A 235      -0.100  20.911 -43.137  1.00 20.01 LIG-0.02  C 
ATOM     31  CD1 LEU A 235       0.953  20.909 -42.123  1.00 21.18 LIG 0.01  C 
ATOM     32  CD2 LEU A 235      -0.634  19.476 -43.344  1.00 23.81 LIG 0.01  C 
ENDBRANCH 29 30
ENDBRANCH 20 29
ENDBRANCH 18 20
ENDBRANCH 11 16
ENDBRANCH 8 11
ENDBRANCH 1 7
BRANCH 1 33
ATOM     33  N   GLU A 233       1.521  25.906 -50.159  1.00 26.21 LIG-0.35  N 
ATOM     34 H    GLU A 233       1.779  26.675 -49.871  1.00 26.21 LIG 0.16  HD
ATOM     35  C   PRO A 232       0.978  25.711 -51.354  1.00 29.12 LIG 0.24  C 
ATOM     36 O    PRO A 232       0.714  24.594 -51.821  1.00 29.57 LIG-0.27  OA
BRANCH 35 37
ATOM     37  CA  PRO A 232       0.707  26.973 -52.174  1.00 32.50 LIG 0.18  C 
ATOM     38  CB  PRO A 232       2.028  27.702 -52.451  1.00 34.03 LIG 0.04  C 
ATOM     39  CG  PRO A 232       1.795  29.134 -52.145  1.00 39.71 LIG 0.02  C 
ATOM     40  CD  PRO A 232       0.449  29.324 -51.542  1.00 41.14 LIG 0.13  C 
ATOM     41  N   PRO A 232      -0.105  27.959 -51.465  1.00 36.81 LIG-0.34  N 
ATOM     42  C   ALA A 231      -1.315  27.604 -51.001  1.00 38.01 LIG 0.24  C 
ATOM     43 O    ALA A 231      -1.749  26.458 -51.096  1.00 37.25 LIG-0.27  OA
BRANCH 42 44
ATOM     44  CA  ALA A 231      -2.133  28.667 -50.294  1.00 42.70 LIG 0.17  C 
ATOM     45  CB  ALA A 231      -1.537  28.928 -48.924  1.00 44.12 LIG 0.04  C 
BRANCH 44 46
ATOM     46  N   ALA A 231      -3.540  28.267 -50.184  1.00 44.69 LIG-0.35  N 
ATOM     47 H    ALA A 231      -3.828  28.196 -49.376  1.00 44.69 LIG 0.16  HD
ATOM     48  C   PRO A 230      -4.286  28.039 -51.263  1.00 46.57 LIG 0.25  C 
ATOM     49 O    PRO A 230      -3.810  27.950 -52.389  1.00 46.08 LIG-0.27  OA
BRANCH 48 50
ATOM     50  CA  PRO A 230      -5.816  27.908 -51.059  1.00 51.04 LIG 0.35  C 
ATOM     51  N   PRO A 230      -6.472  27.217 -52.171  1.00 55.48 LIG 0.32  N 
ATOM     52  CD  PRO A 230      -6.636  25.780 -51.898  1.00 58.51 LIG 0.32  C 
ATOM     53  CG  PRO A 230      -6.824  25.748 -50.415  1.00 57.35 LIG 0.04  C 
ATOM     54  CB  PRO A 230      -6.173  27.023 -49.842  1.00 52.45 LIG 0.05  C 
ENDBRANCH 48 50
ENDBRANCH 44 46
ENDBRANCH 42 44
ENDBRANCH 35 37
ENDBRANCH 1 33
TORSDOF 19
ENDMDL
MODEL 7
USER: ADFR SOLUTION from run 39
USER: SCORE 18.091770 LL:  -5.225 LR: -16.298 RR:   0.000 FEB: -10.630
USER: RMSD 3.439820
USER: SEED 38
USER: STATUS no improvement in best in 4 clusters for 5 generations
USER: GENES 21
USER: genes 0 Translation |==|  0.55881 0.44073 0.54013
USER: genes 1 Rotation |==|  0.41234 0.56614 0.63243 0.96947
USER: genes 2 Torsion [C]-CA--CB-[CG] |==|  0.20855
USER: genes 3 Torsion [CA]-CB--CG-[CD] |==|  0.26087
USER: genes 4 Torsion [CB]-CG--CD-[OE1] |==|  0.17390
USER: genes 5 Torsion [N]-CA--C-[N] |==|  0.23223
USER: genes 6 Torsion [C]-N--CA-[CB] |==|  0.26057
USER: genes 7 Torsion [N]-CA--CB-[CG] |==|  0.69069
USER: genes 8 Torsion [CA]-CB--CG-[CD1] |==|  0.44090
USER: genes 9 Torsion [N]-CA--C-[N] |==|  0.40885
USER: genes 10 Torsion [C]-N--CA-[CB] |==|  0.35181
USER: genes 11 Torsion [N]-CA--C-[N] |==|  0.07021
USER: genes 12 Torsion [C]-N--CA-[C] |==|  0.76025
USER: genes 13 Torsion [N]-CA--C-[O] |==|  0.96255
USER: genes 14 Torsion [N]-CA--CB-[CG] |==|  0.71840
USER: genes 15 Torsion [CA]-CB--CG-[CD2] |==|  0.37963
USER: genes 16 Torsion [CB]-CA--N-[C] |==|  0.78889
USER: genes 17 Torsion [N]-C--CA-[N] |==|  0.85898
USER: genes 18 Torsion [N]-C--CA-[N] |==|  0.83348
USER: genes 19 Torsion [C]-CA--N-[C] |==|  0.81470
USER: genes 20 Torsion [N]-C--CA-[N] |==|  0.38590
ROOT
ATOM      1  CA  GLU A 233       1.536  24.366 -49.108  1.00 24.61 LIG 0.18  C 
ENDROOT
BRANCH 1 2
ATOM      2  CB  GLU A 233       3.063  24.413 -49.094  1.00 26.56 LIG 0.04  C 
BRANCH 2 3
ATOM      3  CG  GLU A 233       3.671  23.245 -48.309  1.00 28.50 LIG 0.12  C 
BRANCH 3 4
ATOM      4  CD  GLU A 233       4.034  22.060 -49.152  1.00 31.23 LIG 0.17  C 
ATOM      5 OE1  GLU A 233       4.891  22.197 -50.023  1.00 40.78 LIG-0.65  OA
ATOM      6 OE2  GLU A 233       3.499  20.970 -48.916  1.00 32.56 LIG-0.65  OA
ENDBRANCH 3 4
ENDBRANCH 2 3
ENDBRANCH 1 2
BRANCH 1 7
ATOM      7  C   GLU A 233       0.942  24.797 -47.762  1.00 22.49 LIG 0.24  C 
ATOM      8  N   LEU A 234      -0.257  24.292 -47.481  1.00 21.03 LIG-0.35  N 
ATOM      9 H    LEU A 234      -0.678  23.744 -47.992  1.00 21.03 LIG 0.16  HD
ATOM     10 O    GLU A 233       1.522  25.603 -47.024  1.00 21.03 LIG-0.27  OA
BRANCH 8 11
ATOM     11  CA  LEU A 234      -0.970  24.640 -46.248  1.00 20.74 LIG 0.18  C 
BRANCH 11 12
ATOM     12  CB  LEU A 234      -1.905  25.813 -46.548  1.00 23.04 LIG 0.04  C 
BRANCH 12 13
ATOM     13  CG  LEU A 234      -1.419  27.090 -45.832  1.00 25.06 LIG-0.02  C 
ATOM     14  CD1 LEU A 234      -1.976  28.359 -46.489  1.00 33.19 LIG 0.01  C 
ATOM     15  CD2 LEU A 234      -1.750  27.003 -44.332  1.00 27.29 LIG 0.01  C 
ENDBRANCH 12 13
ENDBRANCH 11 12
BRANCH 11 16
ATOM     16  C   LEU A 234      -1.729  23.436 -45.694  1.00 18.65 LIG 0.24  C 
ATOM     17 O    LEU A 234      -2.252  22.644 -46.467  1.00 20.08 LIG-0.27  OA
ATOM     18  N   LEU A 235      -1.843  23.347 -44.364  1.00 16.33 LIG-0.35  N 
ATOM     19 H    LEU A 235      -1.606  23.972 -43.822  1.00 16.33 LIG 0.16  HD
BRANCH 18 20
ATOM     20  CA  LEU A 235      -2.387  22.170 -43.712  1.00 16.00 LIG 0.18  C 
BRANCH 20 21
ATOM     21  C   LEU A 235      -3.777  22.401 -43.102  1.00 15.60 LIG 0.24  C 
ATOM     22 O    LEU A 235      -4.165  21.728 -42.180  1.00 16.00 LIG-0.27  OA
ATOM     23  N   GLY A 236      -4.521  23.354 -43.627  1.00 15.05 LIG-0.35  N 
ATOM     24 H    GLY A 236      -4.280  23.868 -44.273  1.00 15.05 LIG 0.16  HD
BRANCH 23 25
ATOM     25  CA  GLY A 236      -5.886  23.602 -43.097  1.00 15.88 LIG 0.23  C 
BRANCH 25 26
ATOM     26  C   GLY A 236      -6.911  22.719 -43.754  1.00 16.68 LIG 0.19  C 
ATOM     27 O    GLY A 236      -6.624  22.097 -44.781  1.00 18.78 LIG-0.65  OA
ATOM     28 OXT  GLY A 236      -8.044  22.613 -43.291  1.00 16.61 LIG-0.65  OA
ENDBRANCH 25 26
ENDBRANCH 23 25
ENDBRANCH 20 21
BRANCH 20 29
ATOM     29  CB  LEU A 235      -1.404  21.652 -42.639  1.00 17.17 LIG 0.04  C 
BRANCH 29 30
ATOM     30  CG  LEU A 235      -0.535  20.440 -42.996  1.00 20.01 LIG-0.02  C 
ATOM     31  CD1 LEU A 235      -0.547  20.209 -44.440  1.00 21.18 LIG 0.01  C 
ATOM     32  CD2 LEU A 235       0.914  20.674 -42.513  1.00 23.81 LIG 0.01  C 
ENDBRANCH 29 30
ENDBRANCH 20 29
ENDBRANCH 18 20
ENDBRANCH 11 16
ENDBRANCH 8 11
ENDBRANCH 1 7
BRANCH 1 33
ATOM     33  N   GLU A 233       0.983  25.242 -50.144  1.00 26.21 LIG-0.35  N 
ATOM     34 H    GLU A 233       0.696  24.827 -50.841  1.00 26.21 LIG 0.16  HD
ATOM     35  C   PRO A 232       0.937  26.560 -50.000  1.00 29.12 LIG 0.24  C 
ATOM     36 O    PRO A 232       1.239  27.153 -48.955  1.00 29.57 LIG-0.27  OA
BRANCH 35 37
ATOM     37  CA  PRO A 232       0.449  27.345 -51.218  1.00 32.50 LIG 0.18  C 
ATOM     38  CB  PRO A 232      -1.019  27.000 -51.500  1.00 34.03 LIG 0.04  C 
ATOM     39  CG  PRO A 232      -1.123  26.738 -52.956  1.00 39.71 LIG 0.02  C 
ATOM     40  CD  PRO A 232       0.227  26.746 -53.582  1.00 41.14 LIG 0.13  C 
ATOM     41  N   PRO A 232       1.145  26.987 -52.452  1.00 36.81 LIG-0.34  N 
ATOM     42  C   ALA A 231       2.482  27.094 -52.509  1.00 38.01 LIG 0.24  C 
ATOM     43 O    ALA A 231       3.159  27.428 -51.539  1.00 37.25 LIG-0.27  OA
BRANCH 42 44
ATOM     44  CA  ALA A 231       3.159  26.737 -53.817  1.00 42.70 LIG 0.17  C 
ATOM     45  CB  ALA A 231       2.686  27.686 -54.901  1.00 44.12 LIG 0.04  C 
BRANCH 44 46
ATOM     46  N   ALA A 231       2.892  25.344 -54.189  1.00 44.69 LIG-0.35  N 
ATOM     47 H    ALA A 231       2.410  25.251 -54.896  1.00 44.69 LIG 0.16  HD
ATOM     48  C   PRO A 230       3.367  24.327 -53.472  1.00 46.57 LIG 0.25  C 
ATOM     49 O    PRO A 230       3.877  24.479 -52.368  1.00 46.08 LIG-0.27  OA
BRANCH 48 50
ATOM     50  CA  PRO A 230       3.280  22.911 -54.095  1.00 51.04 LIG 0.35  C 
ATOM     51  N   PRO A 230       4.489  22.121 -53.858  1.00 55.48 LIG 0.32  N 
ATOM     52  CD  PRO A 230       4.353  21.258 -52.674  1.00 58.51 LIG 0.32  C 
ATOM     53  CG  PRO A 230       2.894  20.928 -52.676  1.00 57.35 LIG 0.04  C 
ATOM     54  CB  PRO A 230       2.171  22.051 -53.447  1.00 52.45 LIG 0.05  C 
ENDBRANCH 48 50
ENDBRANCH 44 46
ENDBRANCH 42 44
ENDBRANCH 35 37
ENDBRANCH 1 33
TORSDOF 19
ENDMDL
MODEL 8
USER: ADFR SOLUTION from run 30
USER: SCORE 18.031963 LL:  -4.011 LR: -16.084 RR:   0.000 FEB: -10.416
USER: RMSD 3.677133
USER: SEED 29
USER: STATUS no improvement in best in 3 clusters for 5 generations
USER: GENES 21
USER: genes 0 Translation |==|  0.57335 0.45748 0.53907
USER: genes 1 Rotation |==|  0.45228 0.53111 0.55387 0.99381
USER: genes 2 Torsion [C]-CA--CB-[CG] |==|  0.19113
USER: genes 3 Torsion [CA]-CB--CG-[CD] |==|  0.31163
USER: genes 4 Torsion [CB]-CG--CD-[OE1] |==|  0.04999
USER: genes 5 Torsion [N]-CA--C-[N] |==|  0.38530
USER: genes 6 Torsion [C]-N--CA-[CB] |==|  0.19302
USER: genes 7 Torsion [N]-CA--CB-[CG] |==|  0.65946
USER: genes 8 Torsion [CA]-CB--CG-[CD1] |==|  0.43532
USER: genes 9 Torsion [N]-CA--C-[N] |==|  0.56124
USER: genes 10 Torsion [C]-N--CA-[CB] |==|  0.18795
USER: genes 11 Torsion [N]-CA--C-[N] |==|  0.06257
USER: genes 12 Torsion [C]-N--CA-[C] |==|  0.75770
USER: genes 13 Torsion [N]-CA--C-[O] |==|  0.98624
USER: genes 14 Torsion [N]-CA--CB-[CG] |==|  0.73894
USER: genes 15 Torsion [CA]-CB--CG-[CD2] |==|  0.76360
USER: genes 16 Torsion [CB]-CA--N-[C] |==|  0.22478
USER: genes 17 Torsion [N]-C--CA-[N] |==|  0.70923
USER: genes 18 Torsion [N]-C--CA-[N] |==|  0.41723
USER: genes 19 Torsion [C]-CA--N-[C] |==|  0.80832
USER: genes 20 Torsion [N]-C--CA-[N] |==|  0.45997
ROOT
ATOM      1  CA  GLU A 233       1.885  24.680 -49.133  1.00 24.61 LIG 0.18  C 
ENDROOT
BRANCH 1 2
ATOM      2  CB  GLU A 233       3.328  24.227 -48.914  1.00 26.56 LIG 0.04  C 
BRANCH 2 3
ATOM      3  CG  GLU A 233       3.409  22.902 -48.149  1.00 28.50 LIG 0.12  C 
BRANCH 3 4
ATOM      4  CD  GLU A 233       3.923  21.753 -48.961  1.00 31.23 LIG 0.17  C 
ATOM      5 OE1  GLU A 233       4.537  21.992 -50.000  1.00 40.78 LIG-0.65  OA
ATOM      6 OE2  GLU A 233       3.760  20.601 -48.541  1.00 32.56 LIG-0.65  OA
ENDBRANCH 3 4
ENDBRANCH 2 3
ENDBRANCH 1 2
BRANCH 1 7
ATOM      7  C   GLU A 233       1.215  25.095 -47.818  1.00 22.49 LIG 0.24  C 
ATOM      8  N   LEU A 234       0.442  24.168 -47.256  1.00 21.03 LIG-0.35  N 
ATOM      9 H    LEU A 234       0.329  23.379 -47.577  1.00 21.03 LIG 0.16  HD
ATOM     10 O    GLU A 233       1.346  26.234 -47.353  1.00 21.03 LIG-0.27  OA
BRANCH 8 11
ATOM     11  CA  LEU A 234      -0.296  24.429 -46.015  1.00 20.74 LIG 0.18  C 
BRANCH 11 12
ATOM     12  CB  LEU A 234      -1.409  25.432 -46.320  1.00 23.04 LIG 0.04  C 
BRANCH 12 13
ATOM     13  CG  LEU A 234      -1.271  26.682 -45.425  1.00 25.06 LIG-0.02  C 
ATOM     14  CD1 LEU A 234      -1.954  27.906 -46.047  1.00 33.19 LIG 0.01  C 
ATOM     15  CD2 LEU A 234      -1.785  26.368 -44.010  1.00 27.29 LIG 0.01  C 
ENDBRANCH 12 13
ENDBRANCH 11 12
BRANCH 11 16
ATOM     16  C   LEU A 234      -0.845  23.133 -45.422  1.00 18.65 LIG 0.24  C 
ATOM     17 O    LEU A 234      -0.374  22.059 -45.772  1.00 20.08 LIG-0.27  OA
ATOM     18  N   LEU A 235      -1.884  23.240 -44.584  1.00 16.33 LIG-0.35  N 
ATOM     19 H    LEU A 235      -2.312  23.973 -44.447  1.00 16.33 LIG 0.16  HD
BRANCH 18 20
ATOM     20  CA  LEU A 235      -2.383  22.108 -43.825  1.00 16.00 LIG 0.18  C 
BRANCH 20 21
ATOM     21  C   LEU A 235      -3.742  22.373 -43.163  1.00 15.60 LIG 0.24  C 
ATOM     22 O    LEU A 235      -4.098  21.730 -42.207  1.00 16.00 LIG-0.27  OA
ATOM     23  N   GLY A 236      -4.497  23.322 -43.680  1.00 15.05 LIG-0.35  N 
ATOM     24 H    GLY A 236      -4.278  23.815 -44.350  1.00 15.05 LIG 0.16  HD
BRANCH 23 25
ATOM     25  CA  GLY A 236      -5.834  23.601 -43.099  1.00 15.88 LIG 0.23  C 
BRANCH 25 26
ATOM     26  C   GLY A 236      -6.901  22.731 -43.703  1.00 16.68 LIG 0.19  C 
ATOM     27 O    GLY A 236      -6.625  21.972 -44.637  1.00 18.78 LIG-0.65  OA
ATOM     28 OXT  GLY A 236      -8.058  22.768 -43.289  1.00 16.61 LIG-0.65  OA
ENDBRANCH 25 26
ENDBRANCH 23 25
ENDBRANCH 20 21
BRANCH 20 29
ATOM     29  CB  LEU A 235      -1.342  21.671 -42.771  1.00 17.17 LIG 0.04  C 
BRANCH 29 30
ATOM     30  CG  LEU A 235      -0.365  20.554 -43.156  1.00 20.01 LIG-0.02  C 
ATOM     31  CD1 LEU A 235       0.877  20.673 -42.394  1.00 21.18 LIG 0.01  C 
ATOM     32  CD2 LEU A 235      -1.014  19.177 -42.890  1.00 23.81 LIG 0.01  C 
ENDBRANCH 29 30
ENDBRANCH 20 29
ENDBRANCH 18 20
ENDBRANCH 11 16
ENDBRANCH 8 11
ENDBRANCH 1 7
BRANCH 1 33
ATOM     33  N   GLU A 233       1.814  25.819 -50.052  1.00 26.21 LIG-0.35  N 
ATOM     34 H    GLU A 233       1.736  26.582 -49.664  1.00 26.21 LIG 0.16  HD
ATOM     35  C   PRO A 232       1.868  25.664 -51.369  1.00 29.12 LIG 0.24  C 
ATOM     36 O    PRO A 232       2.098  24.583 -51.930  1.00 29.57 LIG-0.27  OA
BRANCH 35 37
ATOM     37  CA  PRO A 232       1.654  26.932 -52.197  1.00 32.50 LIG 0.18  C 
ATOM     38  CB  PRO A 232       1.699  28.161 -51.279  1.00 34.03 LIG 0.04  C 
ATOM     39  CG  PRO A 232       0.535  29.004 -51.641  1.00 39.71 LIG 0.02  C 
ATOM     40  CD  PRO A 232      -0.330  28.302 -52.626  1.00 41.14 LIG 0.13  C 
ATOM     41  N   PRO A 232       0.334  26.998 -52.819  1.00 36.81 LIG-0.34  N 
ATOM     42  C   ALA A 231      -0.060  26.005 -53.634  1.00 38.01 LIG 0.24  C 
ATOM     43 O    ALA A 231       0.625  25.005 -53.834  1.00 37.25 LIG-0.27  OA
BRANCH 42 44
ATOM     44  CA  ALA A 231      -1.427  26.129 -54.279  1.00 42.70 LIG 0.17  C 
ATOM     45  CB  ALA A 231      -2.474  25.553 -53.345  1.00 44.12 LIG 0.04  C 
BRANCH 44 46
ATOM     46  N   ALA A 231      -1.461  25.456 -55.581  1.00 44.69 LIG-0.35  N 
ATOM     47 H    ALA A 231      -1.948  24.747 -55.603  1.00 44.69 LIG 0.16  HD
ATOM     48  C   PRO A 230      -0.785  25.927 -56.627  1.00 46.57 LIG 0.25  C 
ATOM     49 O    PRO A 230       0.054  26.815 -56.526  1.00 46.08 LIG-0.27  OA
BRANCH 48 50
ATOM     50  CA  PRO A 230      -1.109  25.325 -58.017  1.00 51.04 LIG 0.35  C 
ATOM     51  N   PRO A 230      -0.569  26.130 -59.115  1.00 55.48 LIG 0.32  N 
ATOM     52  CD  PRO A 230       0.742  25.632 -59.561  1.00 58.51 LIG 0.32  C 
ATOM     53  CG  PRO A 230       0.631  24.160 -59.326  1.00 57.35 LIG 0.04  C 
ATOM     54  CB  PRO A 230      -0.437  23.949 -58.233  1.00 52.45 LIG 0.05  C 
ENDBRANCH 48 50
ENDBRANCH 44 46
ENDBRANCH 42 44
ENDBRANCH 35 37
ENDBRANCH 1 33
TORSDOF 19
ENDMDL
