MODEL 1
USER: ADFR SOLUTION from run 41
USER: SCORE 17.829268 LL:  -3.806 LR: -16.540 RR:   0.000 FEB: -11.469
USER: RMSD 2.442351
USER: SEED 40
USER: STATUS no improvement in best in 4 clusters for 5 generations
USER: GENES 19
USER: genes 0 Translation |==|  0.56039 0.49239 0.52719
USER: genes 1 Rotation |==|  0.50860 0.49112 0.61622 0.98615
USER: genes 2 Torsion [C]-N--CA-[C] |==|  0.82119
USER: genes 3 Torsion [N]-CA--C-[N] |==|  0.32330
USER: genes 4 Torsion [C]-N--CA-[CB] |==|  0.42699
USER: genes 5 Torsion [N]-CA--CB-[CG] |==|  0.71529
USER: genes 6 Torsion [CA]-CB--CG-[CD1] |==|  0.91478
USER: genes 7 Torsion [N]-CA--C-[N] |==|  0.91697
USER: genes 8 Torsion [C]-N--CA-[C] |==|  0.84082
USER: genes 9 Torsion [N]-CA--C-[OXT] |==|  0.45147
USER: genes 10 Torsion [N]-CA--CB-[CG] |==|  0.48922
USER: genes 11 Torsion [CA]-CB--CG-[CD2] |==|  0.46974
USER: genes 12 Torsion [N]-C--CA-[N] |==|  0.26065
USER: genes 13 Torsion [C]-CA--CB-[CG] |==|  0.46452
USER: genes 14 Torsion [CA]-CB--CG-[CD] |==|  0.67618
USER: genes 15 Torsion [CB]-CG--CD-[OE1] |==|  0.70031
USER: genes 16 Torsion [C]-CA--N-[C] |==|  0.15578
USER: genes 17 Torsion [N]-C--CA-[N] |==|  0.63750
USER: genes 18 Torsion [N]-C--CA-[N] |==|  0.36747
ROOT
ATOM      1  C   GLU N 233      55.304  22.404   1.734  1.00 68.48 LIG 0.24  C 
ATOM      2 O    GLU N 233      54.891  22.255   0.604  1.00 65.22 LIG-0.27  OA
ATOM      3  N   LEU N 234      55.947  23.503   2.080  1.00 77.80 LIG-0.35  N 
ATOM      4 H    LEU N 234      56.294  23.633   2.856  1.00 77.80 LIG 0.16  HD
ENDROOT
BRANCH 3 5
ATOM      5  CA  LEU N 234      56.122  24.609   1.147  1.00 75.39 LIG 0.18  C 
BRANCH 5 6
ATOM      6  C   LEU N 234      56.971  24.222  -0.039  1.00 71.67 LIG 0.24  C 
ATOM      7 O    LEU N 234      58.126  23.919   0.101  1.00 71.06 LIG-0.27  OA
ATOM      8  N   LEU N 235      56.383  24.252  -1.214  1.00 52.85 LIG-0.35  N 
ATOM      9 H    LEU N 235      55.577  24.524  -1.341  1.00 52.85 LIG 0.16  HD
BRANCH 8 10
ATOM     10  CA  LEU N 235      57.070  23.815  -2.431  1.00 54.39 LIG 0.18  C 
BRANCH 10 11
ATOM     11  CB  LEU N 235      56.066  23.334  -3.480  1.00 50.34 LIG 0.04  C 
BRANCH 11 12
ATOM     12  CG  LEU N 235      55.954  21.813  -3.608  1.00 52.64 LIG-0.02  C 
ATOM     13  CD2 LEU N 235      54.851  21.252  -2.724  1.00 52.33 LIG 0.01  C 
ATOM     14  CD1 LEU N 235      57.286  21.165  -3.278  1.00 53.22 LIG 0.01  C 
ENDBRANCH 11 12
ENDBRANCH 10 11
BRANCH 10 15
ATOM     15  C   LEU N 235      57.943  24.931  -3.016  1.00 52.64 LIG 0.24  C 
ATOM     16 O    LEU N 235      58.959  24.669  -3.663  1.00 52.05 LIG-0.27  OA
ATOM     17  N   GLY N 236      57.519  26.173  -2.793  1.00 57.75 LIG-0.35  N 
ATOM     18 H    GLY N 236      56.796  26.348  -2.362  1.00 57.75 LIG 0.16  HD
BRANCH 17 19
ATOM     19  CA  GLY N 236      58.221  27.359  -3.246  1.00 57.52 LIG 0.23  C 
BRANCH 19 20
ATOM     20  C   GLY N 236      59.647  27.429  -2.731  1.00 60.52 LIG 0.19  C 
ATOM     21 OXT  GLY N 236      60.471  28.175  -3.258  1.00 61.85 LIG-0.65  OA
ATOM     22 O    GLY N 236      60.021  26.751  -1.776  1.00 62.19 LIG-0.65  OA
ENDBRANCH 19 20
ENDBRANCH 17 19
ENDBRANCH 10 15
ENDBRANCH 8 10
ENDBRANCH 5 6
BRANCH 5 23
ATOM     23  CB  LEU N 234      56.751  25.806   1.867  1.00 79.47 LIG 0.04  C 
BRANCH 23 24
ATOM     24  CG  LEU N 234      57.101  27.044   1.037  1.00 81.24 LIG-0.02  C 
ATOM     25  CD1 LEU N 234      55.963  27.417   0.099  1.00 81.52 LIG 0.01  C 
ATOM     26  CD2 LEU N 234      57.458  28.212   1.947  1.00 82.88 LIG 0.01  C 
ENDBRANCH 23 24
ENDBRANCH 5 23
ENDBRANCH 3 5
BRANCH 1 27
ATOM     27  CA  GLU N 233      55.097  21.321   2.795  1.00 71.40 LIG 0.18  C 
BRANCH 27 28
ATOM     28  CB  GLU N 233      55.234  19.934   2.161  1.00 70.45 LIG 0.04  C 
BRANCH 28 29
ATOM     29  CG  GLU N 233      55.352  18.792   3.151  1.00 66.32 LIG 0.12  C 
BRANCH 29 30
ATOM     30  CD  GLU N 233      56.683  18.070   3.052  1.00 63.12 LIG 0.17  C 
ATOM     31 OE1  GLU N 233      56.706  16.925   2.555  1.00 63.49 LIG-0.65  OA
ATOM     32 OE2  GLU N 233      57.707  18.647   3.474  1.00 60.69 LIG-0.65  OA
ENDBRANCH 29 30
ENDBRANCH 28 29
ENDBRANCH 27 28
BRANCH 27 33
ATOM     33  N   GLU N 233      53.797  21.486   3.452  1.00 74.02 LIG-0.35  N 
ATOM     34 H    GLU N 233      53.855  21.561   4.306  1.00 74.02 LIG 0.16  HD
ATOM     35  C   PRO N 232      52.635  21.518   2.803  1.00 90.40 LIG 0.24  C 
ATOM     36 O    PRO N 232      52.532  21.435   1.593  1.00 95.63 LIG-0.27  OA
BRANCH 35 37
ATOM     37  CA  PRO N 232      51.370  21.638   3.620  1.00 87.45 LIG 0.18  C 
ATOM     38  N   PRO N 232      50.370  20.649   3.244  1.00 90.22 LIG-0.34  N 
ATOM     39  C   ALA N 231      49.325  20.779   2.418  1.00 63.79 LIG 0.26  C 
ATOM     40  CD  PRO N 232      50.361  19.521   4.192  1.00 90.52 LIG 0.13  C 
ATOM     41 O    ALA N 231      48.618  19.846   2.048  1.00 66.65 LIG-0.27  OA
ATOM     42  CG  PRO N 232      51.533  19.818   5.097  1.00 87.66 LIG 0.02  C 
ATOM     43  CB  PRO N 232      51.652  21.296   5.082  1.00 84.55 LIG 0.04  C 
BRANCH 39 44
ATOM     44  CA  ALA N 231      49.036  22.176   1.914  1.00 62.23 LIG 0.40  C 
ATOM     45  CB  ALA N 231      47.820  22.756   2.623  1.00 54.17 LIG 0.06  C 
ATOM     46  N   ALA N 231      48.831  22.172   0.475  1.00 63.17 LIG 0.61  N 
ENDBRANCH 39 44
ENDBRANCH 35 37
ENDBRANCH 27 33
ENDBRANCH 1 27
TORSDOF 17
ENDMDL
MODEL 2
USER: ADFR SOLUTION from run 94
USER: SCORE 17.772123 LL:  -3.844 LR: -15.815 RR:   0.000 FEB: -10.744
USER: RMSD 2.869772
USER: SEED 93
USER: STATUS no improvement in best in 2 clusters for 5 generations
USER: GENES 19
USER: genes 0 Translation |==|  0.54048 0.49542 0.51941
USER: genes 1 Rotation |==|  0.51944 0.54928 0.57327 0.99176
USER: genes 2 Torsion [C]-N--CA-[C] |==|  0.77106
USER: genes 3 Torsion [N]-CA--C-[N] |==|  0.37375
USER: genes 4 Torsion [C]-N--CA-[CB] |==|  0.33187
USER: genes 5 Torsion [N]-CA--CB-[CG] |==|  0.77535
USER: genes 6 Torsion [CA]-CB--CG-[CD1] |==|  0.44533
USER: genes 7 Torsion [N]-CA--C-[N] |==|  0.14971
USER: genes 8 Torsion [C]-N--CA-[C] |==|  0.57149
USER: genes 9 Torsion [N]-CA--C-[OXT] |==|  0.37838
USER: genes 10 Torsion [N]-CA--CB-[CG] |==|  0.41863
USER: genes 11 Torsion [CA]-CB--CG-[CD2] |==|  0.67087
USER: genes 12 Torsion [N]-C--CA-[N] |==|  0.33889
USER: genes 13 Torsion [C]-CA--CB-[CG] |==|  0.46547
USER: genes 14 Torsion [CA]-CB--CG-[CD] |==|  0.62391
USER: genes 15 Torsion [CB]-CG--CD-[OE1] |==|  0.73210
USER: genes 16 Torsion [C]-CA--N-[C] |==|  0.84306
USER: genes 17 Torsion [N]-C--CA-[N] |==|  0.62437
USER: genes 18 Torsion [N]-C--CA-[N] |==|  0.32639
ROOT
ATOM      1  C   GLU N 233      54.901  22.461   1.588  1.00 68.48 LIG 0.24  C 
ATOM      2 O    GLU N 233      54.213  22.395   0.593  1.00 65.22 LIG-0.27  OA
ATOM      3  N   LEU N 234      55.780  23.433   1.740  1.00 77.80 LIG-0.35  N 
ATOM      4 H    LEU N 234      56.318  23.495   2.408  1.00 77.80 LIG 0.16  HD
ENDROOT
BRANCH 3 5
ATOM      5  CA  LEU N 234      55.907  24.505   0.760  1.00 75.39 LIG 0.18  C 
BRANCH 5 6
ATOM      6  C   LEU N 234      56.765  24.101  -0.414  1.00 71.67 LIG 0.24  C 
ATOM      7 O    LEU N 234      57.818  23.545  -0.246  1.00 71.06 LIG-0.27  OA
ATOM      8  N   LEU N 235      56.305  24.404  -1.607  1.00 52.85 LIG-0.35  N 
ATOM      9 H    LEU N 235      55.585  24.855  -1.743  1.00 52.85 LIG 0.16  HD
BRANCH 8 10
ATOM     10  CA  LEU N 235      56.997  23.991  -2.828  1.00 54.39 LIG 0.18  C 
BRANCH 10 11
ATOM     11  CB  LEU N 235      56.101  23.095  -3.684  1.00 50.34 LIG 0.04  C 
BRANCH 11 12
ATOM     12  CG  LEU N 235      56.052  21.630  -3.242  1.00 52.64 LIG-0.02  C 
ATOM     13  CD2 LEU N 235      57.308  20.876  -3.648  1.00 52.33 LIG 0.01  C 
ATOM     14  CD1 LEU N 235      54.817  20.957  -3.811  1.00 53.22 LIG 0.01  C 
ENDBRANCH 11 12
ENDBRANCH 10 11
BRANCH 10 15
ATOM     15  C   LEU N 235      57.464  25.200  -3.648  1.00 52.64 LIG 0.24  C 
ATOM     16 O    LEU N 235      57.143  25.327  -4.831  1.00 52.05 LIG-0.27  OA
ATOM     17  N   GLY N 236      58.208  26.089  -2.993  1.00 57.75 LIG-0.35  N 
ATOM     18 H    GLY N 236      58.407  26.007  -2.161  1.00 57.75 LIG 0.16  HD
BRANCH 17 19
ATOM     19  CA  GLY N 236      58.761  27.283  -3.603  1.00 57.52 LIG 0.23  C 
BRANCH 19 20
ATOM     20  C   GLY N 236      60.011  27.776  -2.900  1.00 60.52 LIG 0.19  C 
ATOM     21 OXT  GLY N 236      60.993  28.143  -3.545  1.00 61.85 LIG-0.65  OA
ATOM     22 O    GLY N 236      60.083  27.827  -1.674  1.00 62.19 LIG-0.65  OA
ENDBRANCH 19 20
ENDBRANCH 17 19
ENDBRANCH 10 15
ENDBRANCH 8 10
ENDBRANCH 5 6
BRANCH 5 23
ATOM     23  CB  LEU N 234      56.492  25.755   1.425  1.00 79.47 LIG 0.04  C 
BRANCH 23 24
ATOM     24  CG  LEU N 234      57.323  26.708   0.563  1.00 81.24 LIG-0.02  C 
ATOM     25  CD1 LEU N 234      56.681  28.085   0.490  1.00 81.52 LIG 0.01  C 
ATOM     26  CD2 LEU N 234      58.748  26.803   1.095  1.00 82.88 LIG 0.01  C 
ENDBRANCH 23 24
ENDBRANCH 5 23
ENDBRANCH 3 5
BRANCH 1 27
ATOM     27  CA  GLU N 233      54.777  21.416   2.700  1.00 71.40 LIG 0.18  C 
BRANCH 27 28
ATOM     28  CB  GLU N 233      55.223  20.046   2.181  1.00 70.45 LIG 0.04  C 
BRANCH 28 29
ATOM     29  CG  GLU N 233      55.428  18.996   3.256  1.00 66.32 LIG 0.12  C 
BRANCH 29 30
ATOM     30  CD  GLU N 233      56.706  18.202   3.059  1.00 63.12 LIG 0.17  C 
ATOM     31 OE1  GLU N 233      56.639  17.098   2.478  1.00 63.49 LIG-0.65  OA
ATOM     32 OE2  GLU N 233      57.777  18.678   3.488  1.00 60.69 LIG-0.65  OA
ENDBRANCH 29 30
ENDBRANCH 28 29
ENDBRANCH 27 28
BRANCH 27 33
ATOM     33  N   GLU N 233      53.406  21.375   3.217  1.00 74.02 LIG-0.35  N 
ATOM     34 H    GLU N 233      53.049  20.594   3.169  1.00 74.02 LIG 0.16  HD
ATOM     35  C   PRO N 232      52.766  22.432   3.712  1.00 90.40 LIG 0.24  C 
ATOM     36 O    PRO N 232      53.260  23.540   3.808  1.00 95.63 LIG-0.27  OA
BRANCH 35 37
ATOM     37  CA  PRO N 232      51.335  22.248   4.158  1.00 87.45 LIG 0.18  C 
ATOM     38  N   PRO N 232      50.469  23.328   3.705  1.00 90.22 LIG-0.34  N 
ATOM     39  C   ALA N 231      50.071  24.423   4.363  1.00 63.79 LIG 0.26  C 
ATOM     40  CD  PRO N 232      49.697  22.922   2.516  1.00 90.52 LIG 0.13  C 
ATOM     41 O    ALA N 231      49.457  25.353   3.849  1.00 66.65 LIG-0.27  OA
ATOM     42  CG  PRO N 232      50.262  21.561   2.183  1.00 87.66 LIG 0.02  C 
ATOM     43  CB  PRO N 232      50.725  21.021   3.483  1.00 84.55 LIG 0.04  C 
BRANCH 39 44
ATOM     44  CA  ALA N 231      50.434  24.492   5.831  1.00 62.23 LIG 0.40  C 
ATOM     45  CB  ALA N 231      49.177  24.587   6.685  1.00 54.17 LIG 0.06  C 
ATOM     46  N   ALA N 231      51.312  25.622   6.090  1.00 63.17 LIG 0.61  N 
ENDBRANCH 39 44
ENDBRANCH 35 37
ENDBRANCH 27 33
ENDBRANCH 1 27
TORSDOF 17
ENDMDL
MODEL 3
USER: ADFR SOLUTION from run 61
USER: SCORE 17.734351 LL:  -3.708 LR: -15.338 RR:   0.000 FEB: -10.267
USER: RMSD 1.448774
USER: SEED 60
USER: STATUS 1 or 2 clusters left
USER: GENES 19
USER: genes 0 Translation |==|  0.55626 0.50413 0.53592
USER: genes 1 Rotation |==|  0.47934 0.49549 0.63165 0.98189
USER: genes 2 Torsion [C]-N--CA-[C] |==|  0.81515
USER: genes 3 Torsion [N]-CA--C-[N] |==|  0.35285
USER: genes 4 Torsion [C]-N--CA-[CB] |==|  0.41094
USER: genes 5 Torsion [N]-CA--CB-[CG] |==|  0.74309
USER: genes 6 Torsion [CA]-CB--CG-[CD1] |==|  0.47137
USER: genes 7 Torsion [N]-CA--C-[N] |==|  0.92909
USER: genes 8 Torsion [C]-N--CA-[C] |==|  0.81852
USER: genes 9 Torsion [N]-CA--C-[OXT] |==|  0.38341
USER: genes 10 Torsion [N]-CA--CB-[CG] |==|  0.40656
USER: genes 11 Torsion [CA]-CB--CG-[CD2] |==|  0.69105
USER: genes 12 Torsion [N]-C--CA-[N] |==|  0.37452
USER: genes 13 Torsion [C]-CA--CB-[CG] |==|  0.69381
USER: genes 14 Torsion [CA]-CB--CG-[CD] |==|  0.52927
USER: genes 15 Torsion [CB]-CG--CD-[OE1] |==|  0.03219
USER: genes 16 Torsion [C]-CA--N-[C] |==|  0.83889
USER: genes 17 Torsion [N]-C--CA-[N] |==|  0.27135
USER: genes 18 Torsion [N]-C--CA-[N] |==|  0.36827
ROOT
ATOM      1  C   GLU N 233      55.220  22.624   1.898  1.00 68.48 LIG 0.24  C 
ATOM      2 O    GLU N 233      54.835  22.317   0.791  1.00 65.22 LIG-0.27  OA
ATOM      3  N   LEU N 234      55.789  23.795   2.116  1.00 77.80 LIG-0.35  N 
ATOM      4 H    LEU N 234      56.116  24.036   2.873  1.00 77.80 LIG 0.16  HD
ENDROOT
BRANCH 3 5
ATOM      5  CA  LEU N 234      55.910  24.791   1.059  1.00 75.39 LIG 0.18  C 
BRANCH 5 6
ATOM      6  C   LEU N 234      56.841  24.343  -0.041  1.00 71.67 LIG 0.24  C 
ATOM      7 O    LEU N 234      57.961  23.982   0.207  1.00 71.06 LIG-0.27  OA
ATOM      8  N   LEU N 235      56.364  24.385  -1.264  1.00 52.85 LIG-0.35  N 
ATOM      9 H    LEU N 235      55.588  24.696  -1.466  1.00 52.85 LIG 0.16  HD
BRANCH 8 10
ATOM     10  CA  LEU N 235      57.133  23.894  -2.409  1.00 54.39 LIG 0.18  C 
BRANCH 10 11
ATOM     11  CB  LEU N 235      56.206  23.319  -3.481  1.00 50.34 LIG 0.04  C 
BRANCH 11 12
ATOM     12  CG  LEU N 235      55.955  21.813  -3.368  1.00 52.64 LIG-0.02  C 
ATOM     13  CD2 LEU N 235      57.215  21.009  -3.646  1.00 52.33 LIG 0.01  C 
ATOM     14  CD1 LEU N 235      54.838  21.402  -4.309  1.00 53.22 LIG 0.01  C 
ENDBRANCH 11 12
ENDBRANCH 10 11
BRANCH 10 15
ATOM     15  C   LEU N 235      58.010  24.998  -3.013  1.00 52.64 LIG 0.24  C 
ATOM     16 O    LEU N 235      59.027  24.723  -3.651  1.00 52.05 LIG-0.27  OA
ATOM     17  N   GLY N 236      57.585  26.245  -2.816  1.00 57.75 LIG-0.35  N 
ATOM     18 H    GLY N 236      56.861  26.429  -2.391  1.00 57.75 LIG 0.16  HD
BRANCH 17 19
ATOM     19  CA  GLY N 236      58.290  27.421  -3.289  1.00 57.52 LIG 0.23  C 
BRANCH 19 20
ATOM     20  C   GLY N 236      59.641  27.604  -2.622  1.00 60.52 LIG 0.19  C 
ATOM     21 OXT  GLY N 236      60.625  27.945  -3.276  1.00 61.85 LIG-0.65  OA
ATOM     22 O    GLY N 236      59.792  27.422  -1.416  1.00 62.19 LIG-0.65  OA
ENDBRANCH 19 20
ENDBRANCH 17 19
ENDBRANCH 10 15
ENDBRANCH 8 10
ENDBRANCH 5 6
BRANCH 5 23
ATOM     23  CB  LEU N 234      56.402  26.119   1.646  1.00 79.47 LIG 0.04  C 
BRANCH 23 24
ATOM     24  CG  LEU N 234      57.310  26.997   0.782  1.00 81.24 LIG-0.02  C 
ATOM     25  CD1 LEU N 234      56.744  28.402   0.642  1.00 81.52 LIG 0.01  C 
ATOM     26  CD2 LEU N 234      58.719  27.036   1.357  1.00 82.88 LIG 0.01  C 
ENDBRANCH 23 24
ENDBRANCH 5 23
ENDBRANCH 3 5
BRANCH 1 27
ATOM     27  CA  GLU N 233      55.064  21.663   3.079  1.00 71.40 LIG 0.18  C 
BRANCH 27 28
ATOM     28  CB  GLU N 233      56.146  20.581   3.018  1.00 70.45 LIG 0.04  C 
BRANCH 28 29
ATOM     29  CG  GLU N 233      55.637  19.193   2.682  1.00 66.32 LIG 0.12  C 
BRANCH 29 30
ATOM     30  CD  GLU N 233      56.692  18.121   2.884  1.00 63.12 LIG 0.17  C 
ATOM     31 OE1  GLU N 233      57.742  18.423   3.489  1.00 63.49 LIG-0.65  OA
ATOM     32 OE2  GLU N 233      56.474  16.977   2.434  1.00 60.69 LIG-0.65  OA
ENDBRANCH 29 30
ENDBRANCH 28 29
ENDBRANCH 27 28
BRANCH 27 33
ATOM     33  N   GLU N 233      53.720  21.079   3.092  1.00 74.02 LIG-0.35  N 
ATOM     34 H    GLU N 233      53.723  20.220   3.056  1.00 74.02 LIG 0.16  HD
ATOM     35  C   PRO N 232      52.599  21.795   3.154  1.00 90.40 LIG 0.24  C 
ATOM     36 O    PRO N 232      52.573  23.009   3.227  1.00 95.63 LIG-0.27  OA
BRANCH 35 37
ATOM     37  CA  PRO N 232      51.283  21.055   3.105  1.00 87.45 LIG 0.18  C 
ATOM     38  N   PRO N 232      50.718  20.836   4.430  1.00 90.22 LIG-0.34  N 
ATOM     39  C   ALA N 231      50.795  19.752   5.211  1.00 63.79 LIG 0.26  C 
ATOM     40  CD  PRO N 232      49.660  21.820   4.721  1.00 90.52 LIG 0.13  C 
ATOM     41 O    ALA N 231      50.409  19.712   6.375  1.00 66.65 LIG-0.27  OA
ATOM     42  CG  PRO N 232      49.718  22.754   3.535  1.00 87.66 LIG 0.02  C 
ATOM     43  CB  PRO N 232      50.220  21.914   2.422  1.00 84.55 LIG 0.04  C 
BRANCH 39 44
ATOM     44  CA  ALA N 231      51.418  18.521   4.590  1.00 62.23 LIG 0.40  C 
ATOM     45  CB  ALA N 231      50.344  17.500   4.241  1.00 54.17 LIG 0.06  C 
ATOM     46  N   ALA N 231      52.403  17.936   5.486  1.00 63.17 LIG 0.61  N 
ENDBRANCH 39 44
ENDBRANCH 35 37
ENDBRANCH 27 33
ENDBRANCH 1 27
TORSDOF 17
ENDMDL
MODEL 4
USER: ADFR SOLUTION from run 187
USER: SCORE 17.025212 LL:  -3.756 LR: -14.770 RR:   0.000 FEB:  -9.699
USER: RMSD 3.212188
USER: SEED 186
USER: STATUS searching
USER: GENES 19
USER: genes 0 Translation |==|  0.54711 0.54903 0.54630
USER: genes 1 Rotation |==|  0.46649 0.55728 0.57750 0.98948
USER: genes 2 Torsion [C]-N--CA-[C] |==|  0.76414
USER: genes 3 Torsion [N]-CA--C-[N] |==|  0.35280
USER: genes 4 Torsion [C]-N--CA-[CB] |==|  0.43133
USER: genes 5 Torsion [N]-CA--CB-[CG] |==|  0.69688
USER: genes 6 Torsion [CA]-CB--CG-[CD1] |==|  0.08160
USER: genes 7 Torsion [N]-CA--C-[N] |==|  0.91935
USER: genes 8 Torsion [C]-N--CA-[C] |==|  0.82248
USER: genes 9 Torsion [N]-CA--C-[OXT] |==|  0.44572
USER: genes 10 Torsion [N]-CA--CB-[CG] |==|  0.35306
USER: genes 11 Torsion [CA]-CB--CG-[CD2] |==|  0.73511
USER: genes 12 Torsion [N]-C--CA-[N] |==|  0.31692
USER: genes 13 Torsion [C]-CA--CB-[CG] |==|  0.22577
USER: genes 14 Torsion [CA]-CB--CG-[CD] |==|  0.38349
USER: genes 15 Torsion [CB]-CG--CD-[OE1] |==|  0.81036
USER: genes 16 Torsion [C]-CA--N-[C] |==|  0.78889
USER: genes 17 Torsion [N]-C--CA-[N] |==|  0.44694
USER: genes 18 Torsion [N]-C--CA-[N] |==|  0.26487
ROOT
ATOM      1  C   GLU N 233      55.035  23.466   2.092  1.00 68.48 LIG 0.24  C 
ATOM      2 O    GLU N 233      54.354  23.165   1.136  1.00 65.22 LIG-0.27  OA
ATOM      3  N   LEU N 234      55.874  24.483   2.033  1.00 77.80 LIG-0.35  N 
ATOM      4 H    LEU N 234      56.407  24.705   2.670  1.00 77.80 LIG 0.16  HD
ENDROOT
BRANCH 3 5
ATOM      5  CA  LEU N 234      55.962  25.329   0.849  1.00 75.39 LIG 0.18  C 
BRANCH 5 6
ATOM      6  C   LEU N 234      56.887  24.752  -0.194  1.00 71.67 LIG 0.24  C 
ATOM      7 O    LEU N 234      58.017  24.449   0.083  1.00 71.06 LIG-0.27  OA
ATOM      8  N   LEU N 235      56.394  24.619  -1.405  1.00 52.85 LIG-0.35  N 
ATOM      9 H    LEU N 235      55.609  24.886  -1.635  1.00 52.85 LIG 0.16  HD
BRANCH 8 10
ATOM     10  CA  LEU N 235      57.158  23.991  -2.484  1.00 54.39 LIG 0.18  C 
BRANCH 10 11
ATOM     11  CB  LEU N 235      56.223  23.416  -3.548  1.00 50.34 LIG 0.04  C 
BRANCH 11 12
ATOM     12  CG  LEU N 235      56.163  21.886  -3.588  1.00 52.64 LIG-0.02  C 
ATOM     13  CD2 LEU N 235      54.830  21.388  -4.124  1.00 52.33 LIG 0.01  C 
ATOM     14  CD1 LEU N 235      56.428  21.321  -2.204  1.00 53.22 LIG 0.01  C 
ENDBRANCH 11 12
ENDBRANCH 10 11
BRANCH 10 15
ATOM     15  C   LEU N 235      58.139  24.979  -3.128  1.00 52.64 LIG 0.24  C 
ATOM     16 O    LEU N 235      59.183  24.587  -3.651  1.00 52.05 LIG-0.27  OA
ATOM     17  N   GLY N 236      57.773  26.259  -3.095  1.00 57.75 LIG-0.35  N 
ATOM     18 H    GLY N 236      57.031  26.524  -2.750  1.00 57.75 LIG 0.16  HD
BRANCH 17 19
ATOM     19  CA  GLY N 236      58.578  27.341  -3.630  1.00 57.52 LIG 0.23  C 
BRANCH 19 20
ATOM     20  C   GLY N 236      59.899  27.506  -2.903  1.00 60.52 LIG 0.19  C 
ATOM     21 OXT  GLY N 236      60.835  28.110  -3.425  1.00 61.85 LIG-0.65  OA
ATOM     22 O    GLY N 236      60.074  27.048  -1.775  1.00 62.19 LIG-0.65  OA
ENDBRANCH 19 20
ENDBRANCH 17 19
ENDBRANCH 10 15
ENDBRANCH 8 10
ENDBRANCH 5 6
BRANCH 5 23
ATOM     23  CB  LEU N 234      56.435  26.732   1.244  1.00 79.47 LIG 0.04  C 
BRANCH 23 24
ATOM     24  CG  LEU N 234      57.641  27.320   0.507  1.00 81.24 LIG-0.02  C 
ATOM     25  CD1 LEU N 234      57.453  28.805   0.240  1.00 81.52 LIG 0.01  C 
ATOM     26  CD2 LEU N 234      58.921  27.069   1.295  1.00 82.88 LIG 0.01  C 
ENDBRANCH 23 24
ENDBRANCH 5 23
ENDBRANCH 3 5
BRANCH 1 27
ATOM     27  CA  GLU N 233      54.949  22.674   3.399  1.00 71.40 LIG 0.18  C 
BRANCH 27 28
ATOM     28  CB  GLU N 233      55.263  21.198   3.136  1.00 70.45 LIG 0.04  C 
BRANCH 28 29
ATOM     29  CG  GLU N 233      56.741  20.867   3.057  1.00 66.32 LIG 0.12  C 
BRANCH 29 30
ATOM     30  CD  GLU N 233      57.089  19.578   3.777  1.00 63.12 LIG 0.17  C 
ATOM     31 OE1  GLU N 233      57.000  19.547   5.022  1.00 63.49 LIG-0.65  OA
ATOM     32 OE2  GLU N 233      57.456  18.596   3.099  1.00 60.69 LIG-0.65  OA
ENDBRANCH 29 30
ENDBRANCH 28 29
ENDBRANCH 27 28
BRANCH 27 33
ATOM     33  N   GLU N 233      53.631  22.841   4.017  1.00 74.02 LIG-0.35  N 
ATOM     34 H    GLU N 233      53.120  22.157   3.918  1.00 74.02 LIG 0.16  HD
ATOM     35  C   PRO N 232      53.250  23.938   4.669  1.00 90.40 LIG 0.24  C 
ATOM     36 O    PRO N 232      53.963  24.908   4.839  1.00 95.63 LIG-0.27  OA
BRANCH 35 37
ATOM     37  CA  PRO N 232      51.838  23.987   5.206  1.00 87.45 LIG 0.18  C 
ATOM     38  N   PRO N 232      51.676  24.992   6.248  1.00 90.22 LIG-0.34  N 
ATOM     39  C   ALA N 231      51.707  24.840   7.578  1.00 63.79 LIG 0.26  C 
ATOM     40  CD  PRO N 232      51.053  26.215   5.710  1.00 90.52 LIG 0.13  C 
ATOM     41 O    ALA N 231      51.705  25.770   8.378  1.00 66.65 LIG-0.27  OA
ATOM     42  CG  PRO N 232      50.980  25.943   4.226  1.00 87.66 LIG 0.02  C 
ATOM     43  CB  PRO N 232      50.877  24.468   4.121  1.00 84.55 LIG 0.04  C 
BRANCH 39 44
ATOM     44  CA  ALA N 231      51.766  23.418   8.090  1.00 62.23 LIG 0.40  C 
ATOM     45  CB  ALA N 231      50.916  23.269   9.345  1.00 54.17 LIG 0.06  C 
ATOM     46  N   ALA N 231      53.140  23.024   8.357  1.00 63.17 LIG 0.61  N 
ENDBRANCH 39 44
ENDBRANCH 35 37
ENDBRANCH 27 33
ENDBRANCH 1 27
TORSDOF 17
ENDMDL
