MODEL 1
USER: ADFR SOLUTION from run 178
USER: SCORE 18.893861 LL:  -5.866 LR: -14.408 RR:   0.000 FEB:  -7.548
USER: RMSD 0.791664
USER: SEED 177
USER: STATUS 1 or 2 clusters left
USER: GENES 25
USER: genes 0 Translation |==|  0.66221 0.52904 0.54316
USER: genes 1 Rotation |==|  0.44691 0.47552 0.46305 0.99519
USER: genes 2 Torsion [C]-N--CA-[C] |==|  0.63329
USER: genes 3 Torsion [N]-CA--C-[N] |==|  0.44344
USER: genes 4 Torsion [C]-N--CA-[C] |==|  0.61111
USER: genes 5 Torsion [N]-CA--C-[N] |==|  0.46517
USER: genes 6 Torsion [C]-N--CA-[C] |==|  0.72922
USER: genes 7 Torsion [N]-CA--C-[N] |==|  0.40772
USER: genes 8 Torsion [C]-N--CA-[CB] |==|  0.24646
USER: genes 9 Torsion [N]-CA--C-[N] |==|  0.41350
USER: genes 10 Torsion [N]-CA--CB-[OG] |==|  0.78912
USER: genes 11 Torsion [CA]-CB--OG-[HG] |==|  0.75223
USER: genes 12 Torsion [N]-CA--CB-[CG] |==|  0.79187
USER: genes 13 Torsion [CA]-CB--CG-[OD2] |==|  0.26988
USER: genes 14 Torsion [N]-CA--CB-[SG] |==|  0.78642
USER: genes 15 Torsion [CA]-CB--SG-[HG] |==|  0.73235
USER: genes 16 Torsion [N]-CA--CB-[OG1] |==|  0.00046
USER: genes 17 Torsion [CA]-CB--OG1-[HG1] |==|  0.42961
USER: genes 18 Torsion [N]-C--CA-[N] |==|  0.94216
USER: genes 19 Torsion [C]-CA--N-[C] |==|  0.82572
USER: genes 20 Torsion [N]-C--CA-[N] |==|  0.93410
USER: genes 21 Torsion [C]-CA--N-[C] |==|  0.83884
USER: genes 22 Torsion [N]-C--CA-[N] |==|  0.97462
USER: genes 23 Torsion [C]-CA--CB-[CG] |==|  0.75770
USER: genes 24 Torsion [CA]-CB--CG-[CD2] |==|  0.72039
ROOT
ATOM      1  C   ALA E  68      10.453   4.268  28.344  1.00 21.38 LIG 0.24  C 
ATOM      2 O    ALA E  68      11.125   3.242  28.499  1.00 23.30 LIG-0.27  OA
ATOM      3  N   THR E  69       9.122   4.261  28.209  1.00 18.30 LIG-0.34  N 
ATOM      4 H    THR E  69       8.656   4.953  27.998  1.00 18.30 LIG 0.16  HD
ENDROOT
BRANCH 3 5
ATOM      5  CA  THR E  69       8.342   3.043  28.416  1.00 19.45 LIG 0.20  C 
BRANCH 5 6
ATOM      6  C   THR E  69       7.338   2.804  27.273  1.00 19.66 LIG 0.24  C 
ATOM      7  N   CYS E  70       6.885   1.573  27.123  1.00 18.57 LIG-0.34  N 
ATOM      8 H    CYS E  70       7.067   0.923  27.657  1.00 18.57 LIG 0.16  HD
ATOM      9 O    THR E  69       7.003   3.707  26.533  1.00 20.15 LIG-0.27  OA
BRANCH 7 10
ATOM     10  CA  CYS E  70       6.019   1.215  26.012  1.00 18.45 LIG 0.18  C 
BRANCH 10 11
ATOM     11  C   CYS E  70       4.968   0.272  26.568  1.00 19.42 LIG 0.24  C 
ATOM     12  N   ASP E  71       3.915   0.027  25.769  1.00 17.61 LIG-0.34  N 
ATOM     13 H    ASP E  71       3.809   0.399  25.001  1.00 17.61 LIG 0.16  HD
ATOM     14 O    CYS E  70       5.106  -0.179  27.710  1.00 18.07 LIG-0.27  OA
BRANCH 12 15
ATOM     15  CA  ASP E  71       2.853  -0.893  26.125  1.00 16.95 LIG 0.19  C 
BRANCH 15 16
ATOM     16  C   ASP E  71       3.221  -2.167  25.427  1.00 18.90 LIG 0.24  C 
ATOM     17 O    ASP E  71       3.792  -2.121  24.310  1.00 16.52 LIG-0.27  OA
ATOM     18  N   SER E  72       2.887  -3.297  26.053  1.00 19.80 LIG-0.34  N 
ATOM     19 H    SER E  72       2.439  -3.330  26.787  1.00 19.80 LIG 0.16  HD
BRANCH 18 20
ATOM     20  CA  SER E  72       3.273  -4.597  25.515  1.00 20.01 LIG 0.20  C 
BRANCH 20 21
ATOM     21  C   SER E  72       2.293  -5.689  25.811  1.00 24.22 LIG 0.29  C 
ATOM     22  N   NH2 E  73       2.214  -6.679  24.854  1.00 28.43 LIG-0.11  N 
ATOM     23 O    SER E  72       1.475  -5.571  26.696  1.00 27.83 LIG-0.27  OA
ENDBRANCH 20 21
BRANCH 20 24
ATOM     24  CB  SER E  72       4.633  -4.996  26.037  1.00 25.59 LIG 0.20  C 
BRANCH 24 25
ATOM     25 OG   SER E  72       5.653  -4.281  25.384  1.00 28.15 LIG-0.40  OA
ATOM     26 HG   SER E  72       5.894  -4.702  24.697  1.00 28.15 LIG 0.21  HD
ENDBRANCH 24 25
ENDBRANCH 20 24
ENDBRANCH 18 20
ENDBRANCH 15 16
BRANCH 15 27
ATOM     27  CB  ASP E  71       1.483  -0.352  25.684  1.00 12.80 LIG 0.15  C 
BRANCH 27 28
ATOM     28  CG  ASP E  71       1.003   0.761  26.576  1.00 14.21 LIG 0.17  C 
ATOM     29 OD2  ASP E  71       1.168   1.948  26.257  1.00 15.44 LIG-0.65  OA
ATOM     30 OD1  ASP E  71       0.464   0.452  27.647  1.00 16.80 LIG-0.65  OA
ENDBRANCH 27 28
ENDBRANCH 15 27
ENDBRANCH 12 15
ENDBRANCH 10 11
BRANCH 10 31
ATOM     31  CB  CYS E  70       6.826   0.559  24.858  1.00 19.19 LIG 0.10  C 
BRANCH 31 32
ATOM     32 SG   CYS E  70       7.793   1.669  23.808  1.00 25.14 LIG-0.18  SA
ATOM     33 HG   CYS E  70       7.164   1.937  22.822  1.00 25.14 LIG 0.10  HD
ENDBRANCH 31 32
ENDBRANCH 10 31
ENDBRANCH 7 10
ENDBRANCH 5 6
BRANCH 5 34
ATOM     34  CB  THR E  69       7.649   3.079  29.790  1.00 17.77 LIG 0.15  C 
ATOM     35  CG2 THR E  69       8.135   1.953  30.637  1.00 20.71 LIG 0.04  C 
BRANCH 34 36
ATOM     36 OG1  THR E  69       7.949   4.278  30.480  1.00 16.43 LIG-0.39  OA
ATOM     37 HG1  THR E  69       7.335   4.448  31.026  1.00 16.43 LIG 0.21  HD
ENDBRANCH 34 36
ENDBRANCH 5 34
ENDBRANCH 3 5
BRANCH 1 38
ATOM     38  CA  ALA E  68      11.150   5.624  28.308  1.00 20.08 LIG 0.17  C 
ATOM     39  CB  ALA E  68      11.497   6.078  29.706  1.00 20.16 LIG 0.04  C 
BRANCH 38 40
ATOM     40  N   ALA E  68      10.320   6.604  27.663  1.00 18.16 LIG-0.35  N 
ATOM     41 H    ALA E  68      10.081   7.261  28.164  1.00 18.16 LIG 0.16  HD
ATOM     42  C   TRP E  67       9.976   6.468  26.398  1.00 18.88 LIG 0.24  C 
ATOM     43 O    TRP E  67      10.272   5.493  25.688  1.00 21.47 LIG-0.27  OA
BRANCH 42 44
ATOM     44  CA  TRP E  67       9.098   7.549  25.881  1.00 17.18 LIG 0.18  C 
BRANCH 44 45
ATOM     45  N   TRP E  67       8.333   8.235  26.982  1.00 16.72 LIG-0.35  N 
ATOM     46  C   PRO E  66       7.500   7.614  27.831  1.00 16.87 LIG 0.24  C 
ATOM     47 O    PRO E  66       7.158   6.439  27.716  1.00 18.41 LIG-0.27  OA
ATOM     48 H    TRP E  67       8.481   9.081  27.018  1.00 16.72 LIG 0.16  HD
BRANCH 46 49
ATOM     49  CA  PRO E  66       6.903   8.441  28.995  1.00 17.04 LIG 0.18  C 
ATOM     50  CB  PRO E  66       5.406   8.728  28.789  1.00 18.40 LIG 0.04  C 
ATOM     51  CG  PRO E  66       5.305  10.168  28.375  1.00 18.41 LIG 0.02  C 
ATOM     52  CD  PRO E  66       6.482  10.860  29.004  1.00 21.21 LIG 0.13  C 
ATOM     53  N   PRO E  66       7.473   9.790  29.185  1.00 19.82 LIG-0.34  N 
ATOM     54  C   ACE E  65       8.769   9.893  29.618  1.00 17.72 LIG 0.22  C 
ATOM     55  CH3 ACE E  65       9.294  11.250  29.851  1.00 22.93 LIG 0.12  C 
ATOM     56 O    ACE E  65       9.502   8.945  29.772  1.00 18.13 LIG-0.27  OA
ENDBRANCH 46 49
ENDBRANCH 44 45
BRANCH 44 57
ATOM     57  CB  TRP E  67       9.901   8.577  25.042  1.00 18.36 LIG 0.07  C 
BRANCH 57 58
ATOM     58  CG  TRP E  67      10.491   9.642  25.816  1.00 19.51 LIG-0.03  A 
ATOM     59  CD1 TRP E  67      11.633   9.588  26.537  1.00 20.71 LIG 0.10  A 
ATOM     60  NE1 TRP E  67      11.875  10.795  27.124  1.00 21.73 LIG-0.36  N 
ATOM     61  CE2 TRP E  67      10.874  11.658  26.783  1.00 22.59 LIG 0.04  A 
ATOM     62 HE1  TRP E  67      12.548  10.981  27.627  1.00 21.73 LIG 0.17  HD
ATOM     63  CD2 TRP E  67       9.983  10.956  25.951  1.00 20.57 LIG-0.00  A 
ATOM     64  CZ2 TRP E  67      10.676  12.987  27.125  1.00 23.91 LIG 0.03  A 
ATOM     65  CE3 TRP E  67       8.862  11.616  25.449  1.00 19.56 LIG 0.01  A 
ATOM     66  CZ3 TRP E  67       8.667  12.914  25.782  1.00 20.82 LIG 0.00  A 
ATOM     67  CH2 TRP E  67       9.567  13.600  26.613  1.00 24.07 LIG 0.00  A 
ENDBRANCH 57 58
ENDBRANCH 44 57
ENDBRANCH 42 44
ENDBRANCH 38 40
ENDBRANCH 1 38
TORSDOF 23
ENDMDL
MODEL 2
USER: ADFR SOLUTION from run 108
USER: SCORE 17.304362 LL:  -4.828 LR: -13.779 RR:   0.000 FEB:  -6.918
USER: RMSD 2.096581
USER: SEED 107
USER: STATUS 1 or 2 clusters left
USER: GENES 25
USER: genes 0 Translation |==|  0.68630 0.56230 0.52514
USER: genes 1 Rotation |==|  0.42959 0.47579 0.46549 0.99322
USER: genes 2 Torsion [C]-N--CA-[C] |==|  0.62109
USER: genes 3 Torsion [N]-CA--C-[N] |==|  0.42620
USER: genes 4 Torsion [C]-N--CA-[C] |==|  0.60156
USER: genes 5 Torsion [N]-CA--C-[N] |==|  0.44274
USER: genes 6 Torsion [C]-N--CA-[C] |==|  0.77276
USER: genes 7 Torsion [N]-CA--C-[N] |==|  0.45855
USER: genes 8 Torsion [C]-N--CA-[CB] |==|  0.23860
USER: genes 9 Torsion [N]-CA--C-[N] |==|  0.42430
USER: genes 10 Torsion [N]-CA--CB-[OG] |==|  0.48239
USER: genes 11 Torsion [CA]-CB--OG-[HG] |==|  0.07063
USER: genes 12 Torsion [N]-CA--CB-[CG] |==|  0.78164
USER: genes 13 Torsion [CA]-CB--CG-[OD2] |==|  0.26123
USER: genes 14 Torsion [N]-CA--CB-[SG] |==|  0.81542
USER: genes 15 Torsion [CA]-CB--SG-[HG] |==|  0.16121
USER: genes 16 Torsion [N]-CA--CB-[OG1] |==|  0.08574
USER: genes 17 Torsion [CA]-CB--OG1-[HG1] |==|  0.84730
USER: genes 18 Torsion [N]-C--CA-[N] |==|  0.99674
USER: genes 19 Torsion [C]-CA--N-[C] |==|  0.76648
USER: genes 20 Torsion [N]-C--CA-[N] |==|  0.97979
USER: genes 21 Torsion [C]-CA--N-[C] |==|  0.75702
USER: genes 22 Torsion [N]-C--CA-[N] |==|  0.35392
USER: genes 23 Torsion [C]-CA--CB-[CG] |==|  0.64191
USER: genes 24 Torsion [CA]-CB--CG-[CD2] |==|  0.29825
ROOT
ATOM      1  C   ALA E  68      10.941   5.216  28.074  1.00 21.38 LIG 0.24  C 
ATOM      2 O    ALA E  68      11.620   4.207  28.296  1.00 23.30 LIG-0.27  OA
ATOM      3  N   THR E  69       9.609   5.193  27.949  1.00 18.30 LIG-0.34  N 
ATOM      4 H    THR E  69       9.137   5.865  27.693  1.00 18.30 LIG 0.16  HD
ENDROOT
BRANCH 3 5
ATOM      5  CA  THR E  69       8.838   3.988  28.246  1.00 19.45 LIG 0.20  C 
BRANCH 5 6
ATOM      6  C   THR E  69       7.754   3.724  27.183  1.00 19.66 LIG 0.24  C 
ATOM      7  N   CYS E  70       7.374   2.471  27.015  1.00 18.57 LIG-0.34  N 
ATOM      8 H    CYS E  70       7.647   1.815  27.500  1.00 18.57 LIG 0.16  HD
ATOM      9 O    THR E  69       7.294   4.631  26.519  1.00 20.15 LIG-0.27  OA
BRANCH 7 10
ATOM     10  CA  CYS E  70       6.438   2.098  25.968  1.00 18.45 LIG 0.18  C 
BRANCH 10 11
ATOM     11  C   CYS E  70       5.563   0.999  26.540  1.00 19.42 LIG 0.24  C 
ATOM     12  N   ASP E  71       4.383   0.806  25.925  1.00 17.61 LIG-0.34  N 
ATOM     13 H    ASP E  71       4.108   1.289  25.269  1.00 17.61 LIG 0.16  HD
ATOM     14 O    CYS E  70       5.948   0.379  27.537  1.00 18.07 LIG-0.27  OA
BRANCH 12 15
ATOM     15  CA  ASP E  71       3.455  -0.239  26.310  1.00 16.95 LIG 0.19  C 
BRANCH 15 16
ATOM     16  C   ASP E  71       3.981  -1.466  25.629  1.00 18.90 LIG 0.24  C 
ATOM     17 O    ASP E  71       4.815  -1.350  24.697  1.00 16.52 LIG-0.27  OA
ATOM     18  N   SER E  72       3.494  -2.632  26.058  1.00 19.80 LIG-0.34  N 
ATOM     19 H    SER E  72       2.875  -2.709  26.651  1.00 19.80 LIG 0.16  HD
BRANCH 18 20
ATOM     20  CA  SER E  72       3.995  -3.897  25.532  1.00 20.01 LIG 0.20  C 
BRANCH 20 21
ATOM     21  C   SER E  72       2.986  -5.000  25.549  1.00 24.22 LIG 0.29  C 
ATOM     22  N   NH2 E  73       3.168  -5.973  24.587  1.00 28.43 LIG-0.11  N 
ATOM     23 O    SER E  72       1.966  -4.905  26.194  1.00 27.83 LIG-0.27  OA
ENDBRANCH 20 21
BRANCH 20 24
ATOM     24  CB  SER E  72       5.220  -4.332  26.303  1.00 25.59 LIG 0.20  C 
BRANCH 24 25
ATOM     25 OG   SER E  72       5.633  -5.617  25.907  1.00 28.15 LIG-0.40  OA
ATOM     26 HG   SER E  72       5.374  -5.765  25.121  1.00 28.15 LIG 0.21  HD
ENDBRANCH 24 25
ENDBRANCH 20 24
ENDBRANCH 18 20
ENDBRANCH 15 16
BRANCH 15 27
ATOM     27  CB  ASP E  71       2.021   0.109  25.880  1.00 12.80 LIG 0.15  C 
BRANCH 27 28
ATOM     28  CG  ASP E  71       1.377   1.099  26.811  1.00 14.21 LIG 0.17  C 
ATOM     29 OD2  ASP E  71       1.413   2.315  26.572  1.00 15.44 LIG-0.65  OA
ATOM     30 OD1  ASP E  71       0.835   0.661  27.836  1.00 16.80 LIG-0.65  OA
ENDBRANCH 27 28
ENDBRANCH 15 27
ENDBRANCH 12 15
ENDBRANCH 10 11
BRANCH 10 31
ATOM     31  CB  CYS E  70       7.184   1.631  24.687  1.00 19.19 LIG 0.10  C 
BRANCH 31 32
ATOM     32 SG   CYS E  70       8.149   2.880  23.807  1.00 25.14 LIG-0.18  SA
ATOM     33 HG   CYS E  70       8.972   3.346  24.546  1.00 25.14 LIG 0.10  HD
ENDBRANCH 31 32
ENDBRANCH 10 31
ENDBRANCH 7 10
ENDBRANCH 5 6
BRANCH 5 34
ATOM     34  CB  THR E  69       8.243   4.069  29.664  1.00 17.77 LIG 0.15  C 
ATOM     35  CG2 THR E  69       9.219   3.541  30.658  1.00 20.71 LIG 0.04  C 
BRANCH 34 36
ATOM     36 OG1  THR E  69       7.967   5.410  30.023  1.00 16.43 LIG-0.39  OA
ATOM     37 HG1  THR E  69       8.663   5.872  29.937  1.00 16.43 LIG 0.21  HD
ENDBRANCH 34 36
ENDBRANCH 5 34
ENDBRANCH 3 5
BRANCH 1 38
ATOM     38  CA  ALA E  68      11.630   6.570  27.938  1.00 20.08 LIG 0.17  C 
ATOM     39  CB  ALA E  68      12.399   6.900  29.195  1.00 20.16 LIG 0.04  C 
BRANCH 38 40
ATOM     40  N   ALA E  68      10.670   7.603  27.663  1.00 18.16 LIG-0.35  N 
ATOM     41 H    ALA E  68      10.399   8.039  28.353  1.00 18.16 LIG 0.16  HD
ATOM     42  C   TRP E  67      10.261   7.831  26.430  1.00 18.88 LIG 0.24  C 
ATOM     43 O    TRP E  67      10.604   7.167  25.439  1.00 21.47 LIG-0.27  OA
BRANCH 42 44
ATOM     44  CA  TRP E  67       9.251   8.914  26.309  1.00 17.18 LIG 0.18  C 
BRANCH 44 45
ATOM     45  N   TRP E  67       8.779   9.404  27.653  1.00 16.72 LIG-0.35  N 
ATOM     46  C   PRO E  66       7.763   8.866  28.345  1.00 16.87 LIG 0.24  C 
ATOM     47 O    PRO E  66       7.012   8.002  27.897  1.00 18.41 LIG-0.27  OA
ATOM     48 H    TRP E  67       9.229  10.076  27.944  1.00 16.72 LIG 0.16  HD
BRANCH 46 49
ATOM     49  CA  PRO E  66       7.499   9.397  29.775  1.00 17.04 LIG 0.18  C 
ATOM     50  CB  PRO E  66       7.737   8.316  30.843  1.00 18.40 LIG 0.04  C 
ATOM     51  CG  PRO E  66       6.379   7.864  31.297  1.00 18.41 LIG 0.02  C 
ATOM     52  CD  PRO E  66       5.470   9.046  31.112  1.00 21.21 LIG 0.13  C 
ATOM     53  N   PRO E  66       6.116   9.834  30.054  1.00 19.82 LIG-0.34  N 
ATOM     54  C   ACE E  65       5.650  10.957  29.422  1.00 17.72 LIG 0.22  C 
ATOM     55  CH3 ACE E  65       4.287  11.403  29.761  1.00 22.93 LIG 0.12  C 
ATOM     56 O    ACE E  65       6.275  11.564  28.583  1.00 18.13 LIG-0.27  OA
ENDBRANCH 46 49
ENDBRANCH 44 45
BRANCH 44 57
ATOM     57  CB  TRP E  67       9.782  10.089  25.447  1.00 18.36 LIG 0.07  C 
BRANCH 57 58
ATOM     58  CG  TRP E  67       9.648  11.385  26.066  1.00 19.51 LIG-0.03  A 
ATOM     59  CD1 TRP E  67       8.505  12.081  26.260  1.00 20.71 LIG 0.10  A 
ATOM     60  NE1 TRP E  67       8.775  13.262  26.887  1.00 21.73 LIG-0.36  N 
ATOM     61  CE2 TRP E  67      10.119  13.344  27.110  1.00 22.59 LIG 0.04  A 
ATOM     62 HE1  TRP E  67       8.193  13.856  27.106  1.00 21.73 LIG 0.17  HD
ATOM     63  CD2 TRP E  67      10.699  12.166  26.603  1.00 20.57 LIG-0.00  A 
ATOM     64  CZ2 TRP E  67      10.871  14.340  27.713  1.00 23.91 LIG 0.03  A 
ATOM     65  CE3 TRP E  67      12.078  11.991  26.710  1.00 19.56 LIG 0.01  A 
ATOM     66  CZ3 TRP E  67      12.815  12.962  27.298  1.00 20.82 LIG 0.00  A 
ATOM     67  CH2 TRP E  67      12.220  14.131  27.800  1.00 24.07 LIG 0.00  A 
ENDBRANCH 57 58
ENDBRANCH 44 57
ENDBRANCH 42 44
ENDBRANCH 38 40
ENDBRANCH 1 38
TORSDOF 23
ENDMDL
MODEL 3
USER: ADFR SOLUTION from run 148
USER: SCORE 16.385059 LL:  -5.428 LR: -13.297 RR:   0.000 FEB:  -6.436
USER: RMSD 3.721004
USER: SEED 147
USER: STATUS no improvement in best in 2 clusters for 5 generations
USER: GENES 25
USER: genes 0 Translation |==|  0.62237 0.54170 0.61973
USER: genes 1 Rotation |==|  0.51362 0.43270 0.53309 0.99416
USER: genes 2 Torsion [C]-N--CA-[C] |==|  0.61111
USER: genes 3 Torsion [N]-CA--C-[N] |==|  0.52117
USER: genes 4 Torsion [C]-N--CA-[C] |==|  0.59717
USER: genes 5 Torsion [N]-CA--C-[N] |==|  0.46076
USER: genes 6 Torsion [C]-N--CA-[C] |==|  0.72683
USER: genes 7 Torsion [N]-CA--C-[N] |==|  0.36145
USER: genes 8 Torsion [C]-N--CA-[CB] |==|  0.26376
USER: genes 9 Torsion [N]-CA--C-[N] |==|  0.41453
USER: genes 10 Torsion [N]-CA--CB-[OG] |==|  0.86966
USER: genes 11 Torsion [CA]-CB--OG-[HG] |==|  0.23709
USER: genes 12 Torsion [N]-CA--CB-[CG] |==|  0.79309
USER: genes 13 Torsion [CA]-CB--CG-[OD2] |==|  0.24018
USER: genes 14 Torsion [N]-CA--CB-[SG] |==|  0.18126
USER: genes 15 Torsion [CA]-CB--SG-[HG] |==|  0.06234
USER: genes 16 Torsion [N]-CA--CB-[OG1] |==|  0.10061
USER: genes 17 Torsion [CA]-CB--OG1-[HG1] |==|  0.30236
USER: genes 18 Torsion [N]-C--CA-[N] |==|  0.85514
USER: genes 19 Torsion [C]-CA--N-[C] |==|  0.73910
USER: genes 20 Torsion [N]-C--CA-[N] |==|  0.27803
USER: genes 21 Torsion [C]-CA--N-[C] |==|  0.74424
USER: genes 22 Torsion [N]-C--CA-[N] |==|  0.02299
USER: genes 23 Torsion [C]-CA--CB-[CG] |==|  0.23371
USER: genes 24 Torsion [CA]-CB--CG-[CD2] |==|  0.77608
ROOT
ATOM      1  C   ALA E  68       9.646   4.628  29.493  1.00 21.38 LIG 0.24  C 
ATOM      2 O    ALA E  68      10.588   3.831  29.559  1.00 23.30 LIG-0.27  OA
ATOM      3  N   THR E  69       8.414   4.282  29.105  1.00 18.30 LIG-0.34  N 
ATOM      4 H    THR E  69       7.779   4.843  28.956  1.00 18.30 LIG 0.16  HD
ENDROOT
BRANCH 3 5
ATOM      5  CA  THR E  69       8.046   2.882  28.901  1.00 19.45 LIG 0.20  C 
BRANCH 5 6
ATOM      6  C   THR E  69       7.148   2.700  27.663  1.00 19.66 LIG 0.24  C 
ATOM      7  N   CYS E  70       6.630   1.501  27.471  1.00 18.57 LIG-0.34  N 
ATOM      8 H    CYS E  70       6.713   0.846  28.022  1.00 18.57 LIG 0.16  HD
ATOM      9 O    THR E  69       6.951   3.617  26.891  1.00 20.15 LIG-0.27  OA
BRANCH 7 10
ATOM     10  CA  CYS E  70       5.857   1.193  26.280  1.00 18.45 LIG 0.18  C 
BRANCH 10 11
ATOM     11  C   CYS E  70       4.768   0.227  26.708  1.00 19.42 LIG 0.24  C 
ATOM     12  N   ASP E  71       3.766   0.042  25.830  1.00 17.61 LIG-0.34  N 
ATOM     13 H    ASP E  71       3.710   0.463  25.082  1.00 17.61 LIG 0.16  HD
ATOM     14 O    CYS E  70       4.831  -0.296  27.825  1.00 18.07 LIG-0.27  OA
BRANCH 12 15
ATOM     15  CA  ASP E  71       2.678  -0.888  26.060  1.00 16.95 LIG 0.19  C 
BRANCH 15 16
ATOM     16  C   ASP E  71       3.073  -2.112  25.290  1.00 18.90 LIG 0.24  C 
ATOM     17 O    ASP E  71       3.413  -2.005  24.086  1.00 16.52 LIG-0.27  OA
ATOM     18  N   SER E  72       3.012  -3.268  25.953  1.00 19.80 LIG-0.34  N 
ATOM     19 H    SER E  72       2.718  -3.351  26.757  1.00 19.80 LIG 0.16  HD
BRANCH 18 20
ATOM     20  CA  SER E  72       3.456  -4.514  25.335  1.00 20.01 LIG 0.20  C 
BRANCH 20 21
ATOM     21  C   SER E  72       2.608  -5.696  25.683  1.00 24.22 LIG 0.29  C 
ATOM     22  N   NH2 E  73       2.531  -6.667  24.705  1.00 28.43 LIG-0.11  N 
ATOM     23 O    SER E  72       1.867  -5.674  26.639  1.00 27.83 LIG-0.27  OA
ENDBRANCH 20 21
BRANCH 20 24
ATOM     24  CB  SER E  72       4.890  -4.802  25.716  1.00 25.59 LIG 0.20  C 
BRANCH 24 25
ATOM     25 OG   SER E  72       5.692  -3.657  25.562  1.00 28.15 LIG-0.40  OA
ATOM     26 HG   SER E  72       5.645  -3.186  26.257  1.00 28.15 LIG 0.21  HD
ENDBRANCH 24 25
ENDBRANCH 20 24
ENDBRANCH 18 20
ENDBRANCH 15 16
BRANCH 15 27
ATOM     27  CB  ASP E  71       1.339  -0.299  25.589  1.00 12.80 LIG 0.15  C 
BRANCH 27 28
ATOM     28  CG  ASP E  71       0.826   0.758  26.529  1.00 14.21 LIG 0.17  C 
ATOM     29 OD2  ASP E  71       1.183   1.940  26.412  1.00 15.44 LIG-0.65  OA
ATOM     30 OD1  ASP E  71       0.061   0.404  27.436  1.00 16.80 LIG-0.65  OA
ENDBRANCH 27 28
ENDBRANCH 15 27
ENDBRANCH 12 15
ENDBRANCH 10 11
BRANCH 10 31
ATOM     31  CB  CYS E  70       6.756   0.587  25.167  1.00 19.19 LIG 0.10  C 
BRANCH 31 32
ATOM     32 SG   CYS E  70       7.501  -1.024  25.510  1.00 25.14 LIG-0.18  SA
ATOM     33 HG   CYS E  70       6.861  -1.590  26.354  1.00 25.14 LIG 0.10  HD
ENDBRANCH 31 32
ENDBRANCH 10 31
ENDBRANCH 7 10
ENDBRANCH 5 6
BRANCH 5 34
ATOM     34  CB  THR E  69       7.395   2.308  30.172  1.00 17.77 LIG 0.15  C 
ATOM     35  CG2 THR E  69       8.446   1.891  31.141  1.00 20.71 LIG 0.04  C 
BRANCH 34 36
ATOM     36 OG1  THR E  69       6.596   3.283  30.817  1.00 16.43 LIG-0.39  OA
ATOM     37 HG1  THR E  69       5.785   3.087  30.724  1.00 16.43 LIG 0.21  HD
ENDBRANCH 34 36
ENDBRANCH 5 34
ENDBRANCH 3 5
BRANCH 1 38
ATOM     38  CA  ALA E  68       9.871   6.089  29.874  1.00 20.08 LIG 0.17  C 
ATOM     39  CB  ALA E  68       9.167   6.411  31.170  1.00 20.16 LIG 0.04  C 
BRANCH 38 40
ATOM     40  N   ALA E  68       9.408   6.962  28.831  1.00 18.16 LIG-0.35  N 
ATOM     41 H    ALA E  68       8.572   7.162  28.871  1.00 18.16 LIG 0.16  HD
ATOM     42  C   TRP E  67      10.236   7.401  27.903  1.00 18.88 LIG 0.24  C 
ATOM     43 O    TRP E  67      11.428   7.069  27.808  1.00 21.47 LIG-0.27  OA
BRANCH 42 44
ATOM     44  CA  TRP E  67       9.604   8.276  26.882  1.00 17.18 LIG 0.18  C 
BRANCH 44 45
ATOM     45  N   TRP E  67       9.858   9.737  27.149  1.00 16.72 LIG-0.35  N 
ATOM     46  C   PRO E  66       9.045  10.532  27.861  1.00 16.87 LIG 0.24  C 
ATOM     47 O    PRO E  66       7.931  10.194  28.256  1.00 18.41 LIG-0.27  OA
ATOM     48 H    TRP E  67      10.588  10.021  26.795  1.00 16.72 LIG 0.16  HD
BRANCH 46 49
ATOM     49  CA  PRO E  66       9.524  11.973  28.163  1.00 17.04 LIG 0.18  C 
ATOM     50  CB  PRO E  66       8.499  13.026  27.711  1.00 18.40 LIG 0.04  C 
ATOM     51  CG  PRO E  66       9.049  13.640  26.456  1.00 18.41 LIG 0.02  C 
ATOM     52  CD  PRO E  66      10.544  13.538  26.569  1.00 21.21 LIG 0.13  C 
ATOM     53  N   PRO E  66      10.758  12.399  27.473  1.00 19.82 LIG-0.34  N 
ATOM     54  C   ACE E  65      11.940  11.804  27.829  1.00 17.72 LIG 0.22  C 
ATOM     55  CH3 ACE E  65      13.163  12.287  27.164  1.00 22.93 LIG 0.12  C 
ATOM     56 O    ACE E  65      12.021  10.889  28.614  1.00 18.13 LIG-0.27  OA
ENDBRANCH 46 49
ENDBRANCH 44 45
BRANCH 44 57
ATOM     57  CB  TRP E  67      10.056   7.889  25.449  1.00 18.36 LIG 0.07  C 
BRANCH 57 58
ATOM     58  CG  TRP E  67       9.299   6.810  24.861  1.00 19.51 LIG-0.03  A 
ATOM     59  CD1 TRP E  67       8.292   6.916  23.966  1.00 20.71 LIG 0.10  A 
ATOM     60  NE1 TRP E  67       7.828   5.677  23.633  1.00 21.73 LIG-0.36  N 
ATOM     61  CE2 TRP E  67       8.544   4.740  24.322  1.00 22.59 LIG 0.04  A 
ATOM     62 HE1  TRP E  67       7.190   5.514  23.080  1.00 21.73 LIG 0.17  HD
ATOM     63  CD2 TRP E  67       9.486   5.429  25.107  1.00 20.57 LIG-0.00  A 
ATOM     64  CZ2 TRP E  67       8.450   3.358  24.321  1.00 23.91 LIG 0.03  A 
ATOM     65  CE3 TRP E  67      10.360   4.699  25.912  1.00 19.56 LIG 0.01  A 
ATOM     66  CZ3 TRP E  67      10.270   3.349  25.913  1.00 20.82 LIG 0.00  A 
ATOM     67  CH2 TRP E  67       9.324   2.676  25.122  1.00 24.07 LIG 0.00  A 
ENDBRANCH 57 58
ENDBRANCH 44 57
ENDBRANCH 42 44
ENDBRANCH 38 40
ENDBRANCH 1 38
TORSDOF 23
ENDMDL
MODEL 4
USER: ADFR SOLUTION from run 72
USER: SCORE 18.108994 LL:  -6.456 LR: -12.933 RR:   0.000 FEB:  -6.072
USER: RMSD 3.194951
USER: SEED 71
USER: STATUS no improvement in best in 2 clusters for 5 generations
USER: GENES 25
USER: genes 0 Translation |==|  0.67729 0.53679 0.53359
USER: genes 1 Rotation |==|  0.45438 0.55574 0.47058 0.99391
USER: genes 2 Torsion [C]-N--CA-[C] |==|  0.66718
USER: genes 3 Torsion [N]-CA--C-[N] |==|  0.04283
USER: genes 4 Torsion [C]-N--CA-[C] |==|  0.77149
USER: genes 5 Torsion [N]-CA--C-[N] |==|  0.20553
USER: genes 6 Torsion [C]-N--CA-[C] |==|  0.64444
USER: genes 7 Torsion [N]-CA--C-[N] |==|  0.08803
USER: genes 8 Torsion [C]-N--CA-[CB] |==|  0.51751
USER: genes 9 Torsion [N]-CA--C-[N] |==|  0.38889
USER: genes 10 Torsion [N]-CA--CB-[OG] |==|  0.94023
USER: genes 11 Torsion [CA]-CB--OG-[HG] |==|  0.16611
USER: genes 12 Torsion [N]-CA--CB-[CG] |==|  0.56167
USER: genes 13 Torsion [CA]-CB--CG-[OD2] |==|  0.13339
USER: genes 14 Torsion [N]-CA--CB-[SG] |==|  0.14526
USER: genes 15 Torsion [CA]-CB--SG-[HG] |==|  0.11220
USER: genes 16 Torsion [N]-CA--CB-[OG1] |==|  0.09500
USER: genes 17 Torsion [CA]-CB--OG1-[HG1] |==|  0.34804
USER: genes 18 Torsion [N]-C--CA-[N] |==|  0.90824
USER: genes 19 Torsion [C]-CA--N-[C] |==|  0.82363
USER: genes 20 Torsion [N]-C--CA-[N] |==|  0.91101
USER: genes 21 Torsion [C]-CA--N-[C] |==|  0.85265
USER: genes 22 Torsion [N]-C--CA-[N] |==|  0.02605
USER: genes 23 Torsion [C]-CA--CB-[CG] |==|  0.76739
USER: genes 24 Torsion [CA]-CB--CG-[CD2] |==|  0.69893
ROOT
ATOM      1  C   ALA E  68      10.758   4.488  28.201  1.00 21.38 LIG 0.24  C 
ATOM      2 O    ALA E  68      11.434   3.460  28.085  1.00 23.30 LIG-0.27  OA
ATOM      3  N   THR E  69       9.453   4.483  28.490  1.00 18.30 LIG-0.34  N 
ATOM      4 H    THR E  69       8.951   5.181  28.472  1.00 18.30 LIG 0.16  HD
ENDROOT
BRANCH 3 5
ATOM      5  CA  THR E  69       8.763   3.251  28.871  1.00 19.45 LIG 0.20  C 
BRANCH 5 6
ATOM      6  C   THR E  69       7.621   2.909  27.896  1.00 19.66 LIG 0.24  C 
ATOM      7  N   CYS E  70       7.617   3.539  26.736  1.00 18.57 LIG-0.34  N 
ATOM      8 H    CYS E  70       8.239   4.073  26.474  1.00 18.57 LIG 0.16  HD
ATOM      9 O    THR E  69       6.756   2.112  28.199  1.00 20.15 LIG-0.27  OA
BRANCH 7 10
ATOM     10  CA  CYS E  70       6.529   3.370  25.787  1.00 18.45 LIG 0.18  C 
BRANCH 10 11
ATOM     11  C   CYS E  70       6.813   2.090  25.025  1.00 19.42 LIG 0.24  C 
ATOM     12  N   ASP E  71       6.606   0.945  25.699  1.00 17.61 LIG-0.34  N 
ATOM     13 H    ASP E  71       6.361   0.920  26.522  1.00 17.61 LIG 0.16  HD
ATOM     14 O    CYS E  70       7.248   2.160  23.870  1.00 18.07 LIG-0.27  OA
BRANCH 12 15
ATOM     15  CA  ASP E  71       6.776  -0.364  25.099  1.00 16.95 LIG 0.19  C 
BRANCH 15 16
ATOM     16  C   ASP E  71       5.489  -1.073  25.395  1.00 18.90 LIG 0.24  C 
ATOM     17 O    ASP E  71       5.488  -2.320  25.546  1.00 16.52 LIG-0.27  OA
ATOM     18  N   SER E  72       4.397  -0.309  25.457  1.00 19.80 LIG-0.34  N 
ATOM     19 H    SER E  72       4.386   0.534  25.290  1.00 19.80 LIG 0.16  HD
BRANCH 18 20
ATOM     20  CA  SER E  72       3.103  -0.874  25.826  1.00 20.01 LIG 0.20  C 
BRANCH 20 21
ATOM     21  C   SER E  72       2.732  -2.094  25.043  1.00 24.22 LIG 0.29  C 
ATOM     22  N   NH2 E  73       2.123  -3.094  25.774  1.00 28.43 LIG-0.11  N 
ATOM     23 O    SER E  72       3.157  -2.272  23.924  1.00 27.83 LIG-0.27  OA
ENDBRANCH 20 21
BRANCH 20 24
ATOM     24  CB  SER E  72       2.018   0.164  25.670  1.00 25.59 LIG 0.20  C 
BRANCH 24 25
ATOM     25 OG   SER E  72       2.555   1.463  25.699  1.00 28.15 LIG-0.40  OA
ATOM     26 HG   SER E  72       3.108   1.552  25.072  1.00 28.15 LIG 0.21  HD
ENDBRANCH 24 25
ENDBRANCH 20 24
ENDBRANCH 18 20
ENDBRANCH 15 16
BRANCH 15 27
ATOM     27  CB  ASP E  71       7.998  -1.087  25.687  1.00 12.80 LIG 0.15  C 
BRANCH 27 28
ATOM     28  CG  ASP E  71       8.518  -2.157  24.765  1.00 14.21 LIG 0.17  C 
ATOM     29 OD2  ASP E  71       8.704  -1.925  23.562  1.00 15.44 LIG-0.65  OA
ATOM     30 OD1  ASP E  71       8.726  -3.280  25.243  1.00 16.80 LIG-0.65  OA
ENDBRANCH 27 28
ENDBRANCH 15 27
ENDBRANCH 12 15
ENDBRANCH 10 11
BRANCH 10 31
ATOM     31  CB  CYS E  70       6.418   4.593  24.836  1.00 19.19 LIG 0.10  C 
BRANCH 31 32
ATOM     32 SG   CYS E  70       7.927   5.093  23.975  1.00 25.14 LIG-0.18  SA
ATOM     33 HG   CYS E  70       8.525   4.117  23.613  1.00 25.14 LIG 0.10  HD
ENDBRANCH 31 32
ENDBRANCH 10 31
ENDBRANCH 7 10
ENDBRANCH 5 6
BRANCH 5 34
ATOM     34  CB  THR E  69       8.268   3.343  30.326  1.00 17.77 LIG 0.15  C 
ATOM     35  CG2 THR E  69       9.363   2.966  31.263  1.00 20.71 LIG 0.04  C 
BRANCH 34 36
ATOM     36 OG1  THR E  69       7.881   4.666  30.649  1.00 16.43 LIG-0.39  OA
ATOM     37 HG1  THR E  69       7.093   4.665  30.939  1.00 16.43 LIG 0.21  HD
ENDBRANCH 34 36
ENDBRANCH 5 34
ENDBRANCH 3 5
BRANCH 1 38
ATOM     38  CA  ALA E  68      11.424   5.849  28.015  1.00 20.08 LIG 0.17  C 
ATOM     39  CB  ALA E  68      11.942   6.368  29.335  1.00 20.16 LIG 0.04  C 
BRANCH 38 40
ATOM     40  N   ALA E  68      10.503   6.791  27.442  1.00 18.16 LIG-0.35  N 
ATOM     41 H    ALA E  68      10.312   7.462  27.944  1.00 18.16 LIG 0.16  HD
ATOM     42  C   TRP E  67      10.011   6.602  26.233  1.00 18.88 LIG 0.24  C 
ATOM     43 O    TRP E  67      10.239   5.606  25.527  1.00 21.47 LIG-0.27  OA
BRANCH 42 44
ATOM     44  CA  TRP E  67       9.055   7.649  25.789  1.00 17.18 LIG 0.18  C 
BRANCH 44 45
ATOM     45  N   TRP E  67       8.269   8.224  26.937  1.00 16.72 LIG-0.35  N 
ATOM     46  C   PRO E  66       7.570   7.496  27.821  1.00 16.87 LIG 0.24  C 
ATOM     47 O    PRO E  66       7.377   6.287  27.711  1.00 18.41 LIG-0.27  OA
ATOM     48 H    TRP E  67       8.308   9.082  26.975  1.00 16.72 LIG 0.16  HD
BRANCH 46 49
ATOM     49  CA  PRO E  66       6.935   8.233  29.026  1.00 17.04 LIG 0.18  C 
ATOM     50  CB  PRO E  66       5.431   7.940  29.151  1.00 18.40 LIG 0.04  C 
ATOM     51  CG  PRO E  66       4.719   9.168  28.663  1.00 18.41 LIG 0.02  C 
ATOM     52  CD  PRO E  66       5.643  10.319  28.946  1.00 21.21 LIG 0.13  C 
ATOM     53  N   PRO E  66       6.979   9.708  28.973  1.00 19.82 LIG-0.34  N 
ATOM     54  C   ACE E  65       8.197  10.327  29.084  1.00 17.72 LIG 0.22  C 
ATOM     55  CH3 ACE E  65       8.205  11.800  29.084  1.00 22.93 LIG 0.12  C 
ATOM     56 O    ACE E  65       9.248   9.734  29.136  1.00 18.13 LIG-0.27  OA
ENDBRANCH 46 49
ENDBRANCH 44 45
BRANCH 44 57
ATOM     57  CB  TRP E  67       9.774   8.770  24.993  1.00 18.36 LIG 0.07  C 
BRANCH 57 58
ATOM     58  CG  TRP E  67      10.377   9.788  25.819  1.00 19.51 LIG-0.03  A 
ATOM     59  CD1 TRP E  67      11.488   9.666  26.580  1.00 20.71 LIG 0.10  A 
ATOM     60  NE1 TRP E  67      11.757  10.846  27.209  1.00 21.73 LIG-0.36  N 
ATOM     61  CE2 TRP E  67      10.806  11.760  26.855  1.00 22.59 LIG 0.04  A 
ATOM     62 HE1  TRP E  67      12.417  10.990  27.742  1.00 21.73 LIG 0.17  HD
ATOM     63  CD2 TRP E  67       9.920  11.118  25.971  1.00 20.57 LIG-0.00  A 
ATOM     64  CZ2 TRP E  67      10.651  13.086  27.227  1.00 23.91 LIG 0.03  A 
ATOM     65  CE3 TRP E  67       8.846  11.838  25.447  1.00 19.56 LIG 0.01  A 
ATOM     66  CZ3 TRP E  67       8.693  13.133  25.808  1.00 20.82 LIG 0.00  A 
ATOM     67  CH2 TRP E  67       9.588  13.759  26.691  1.00 24.07 LIG 0.00  A 
ENDBRANCH 57 58
ENDBRANCH 44 57
ENDBRANCH 42 44
ENDBRANCH 38 40
ENDBRANCH 1 38
TORSDOF 23
ENDMDL
MODEL 5
USER: ADFR SOLUTION from run 194
USER: SCORE 18.519383 LL:  -6.350 LR: -12.769 RR:   0.000 FEB:  -5.908
USER: RMSD 2.643315
USER: SEED 193
USER: STATUS no improvement in best in 2 clusters for 5 generations
USER: GENES 25
USER: genes 0 Translation |==|  0.67335 0.58861 0.42551
USER: genes 1 Rotation |==|  0.48125 0.61374 0.46911 0.98555
USER: genes 2 Torsion [C]-N--CA-[C] |==|  0.72555
USER: genes 3 Torsion [N]-CA--C-[N] |==|  0.45378
USER: genes 4 Torsion [C]-N--CA-[C] |==|  0.57993
USER: genes 5 Torsion [N]-CA--C-[N] |==|  0.40654
USER: genes 6 Torsion [C]-N--CA-[C] |==|  0.81131
USER: genes 7 Torsion [N]-CA--C-[N] |==|  0.34447
USER: genes 8 Torsion [C]-N--CA-[CB] |==|  0.84053
USER: genes 9 Torsion [N]-CA--C-[N] |==|  0.34451
USER: genes 10 Torsion [N]-CA--CB-[OG] |==|  0.93899
USER: genes 11 Torsion [CA]-CB--OG-[HG] |==|  0.97478
USER: genes 12 Torsion [N]-CA--CB-[CG] |==|  0.73861
USER: genes 13 Torsion [CA]-CB--CG-[OD2] |==|  0.78348
USER: genes 14 Torsion [N]-CA--CB-[SG] |==|  0.32462
USER: genes 15 Torsion [CA]-CB--SG-[HG] |==|  0.04752
USER: genes 16 Torsion [N]-CA--CB-[OG1] |==|  0.05374
USER: genes 17 Torsion [CA]-CB--OG1-[HG1] |==|  0.55480
USER: genes 18 Torsion [N]-C--CA-[N] |==|  0.95953
USER: genes 19 Torsion [C]-CA--N-[C] |==|  0.77468
USER: genes 20 Torsion [N]-C--CA-[N] |==|  0.97019
USER: genes 21 Torsion [C]-CA--N-[C] |==|  0.74036
USER: genes 22 Torsion [N]-C--CA-[N] |==|  0.96588
USER: genes 23 Torsion [C]-CA--CB-[CG] |==|  0.68660
USER: genes 24 Torsion [CA]-CB--CG-[CD2] |==|  0.18824
ROOT
ATOM      1  C   ALA E  68      10.678   5.966  26.580  1.00 21.38 LIG 0.24  C 
ATOM      2 O    ALA E  68      11.255   4.940  26.201  1.00 23.30 LIG-0.27  OA
ATOM      3  N   THR E  69       9.471   5.961  27.155  1.00 18.30 LIG-0.34  N 
ATOM      4 H    THR E  69       9.016   6.670  27.328  1.00 18.30 LIG 0.16  HD
ENDROOT
BRANCH 3 5
ATOM      5  CA  THR E  69       8.818   4.712  27.544  1.00 19.45 LIG 0.20  C 
BRANCH 5 6
ATOM      6  C   THR E  69       7.784   4.256  26.497  1.00 19.66 LIG 0.24  C 
ATOM      7  N   CYS E  70       7.383   3.000  26.561  1.00 18.57 LIG-0.34  N 
ATOM      8 H    CYS E  70       7.615   2.450  27.180  1.00 18.57 LIG 0.16  HD
ATOM      9 O    THR E  69       7.380   5.018  25.642  1.00 20.15 LIG-0.27  OA
BRANCH 7 10
ATOM     10  CA  CYS E  70       6.492   2.438  25.559  1.00 18.45 LIG 0.18  C 
BRANCH 10 11
ATOM     11  C   CYS E  70       5.697   1.347  26.250  1.00 19.42 LIG 0.24  C 
ATOM     12  N   ASP E  71       4.432   1.181  25.824  1.00 17.61 LIG-0.34  N 
ATOM     13 H    ASP E  71       4.068   1.676  25.223  1.00 17.61 LIG 0.16  HD
ATOM     14 O    CYS E  70       6.219   0.710  27.171  1.00 18.07 LIG-0.27  OA
BRANCH 12 15
ATOM     15  CA  ASP E  71       3.556   0.147  26.339  1.00 16.95 LIG 0.19  C 
BRANCH 15 16
ATOM     16  C   ASP E  71       4.165  -1.130  25.845  1.00 18.90 LIG 0.24  C 
ATOM     17 O    ASP E  71       4.340  -1.298  24.612  1.00 16.52 LIG-0.27  OA
ATOM     18  N   SER E  72       4.469  -2.036  26.775  1.00 19.80 LIG-0.34  N 
ATOM     19 H    SER E  72       4.290  -1.949  27.612  1.00 19.80 LIG 0.16  HD
BRANCH 18 20
ATOM     20  CA  SER E  72       5.146  -3.279  26.423  1.00 20.01 LIG 0.20  C 
BRANCH 20 21
ATOM     21  C   SER E  72       6.539  -3.084  25.912  1.00 24.22 LIG 0.29  C 
ATOM     22  N   NH2 E  73       7.516  -3.774  26.599  1.00 28.43 LIG-0.11  N 
ATOM     23 O    SER E  72       6.796  -2.205  25.121  1.00 27.83 LIG-0.27  OA
ENDBRANCH 20 21
BRANCH 20 24
ATOM     24  CB  SER E  72       4.342  -4.038  25.394  1.00 25.59 LIG 0.20  C 
BRANCH 24 25
ATOM     25 OG   SER E  72       2.992  -3.644  25.419  1.00 28.15 LIG-0.40  OA
ATOM     26 HG   SER E  72       2.857  -3.149  26.085  1.00 28.15 LIG 0.21  HD
ENDBRANCH 24 25
ENDBRANCH 20 24
ENDBRANCH 18 20
ENDBRANCH 15 16
BRANCH 15 27
ATOM     27  CB  ASP E  71       2.115   0.346  25.844  1.00 12.80 LIG 0.15  C 
BRANCH 27 28
ATOM     28  CG  ASP E  71       1.283   1.125  26.827  1.00 14.21 LIG 0.17  C 
ATOM     29 OD2  ASP E  71       0.824   0.583  27.842  1.00 15.44 LIG-0.65  OA
ATOM     30 OD1  ASP E  71       1.051   2.315  26.572  1.00 16.80 LIG-0.65  OA
ENDBRANCH 27 28
ENDBRANCH 15 27
ENDBRANCH 12 15
ENDBRANCH 10 11
BRANCH 10 31
ATOM     31  CB  CYS E  70       7.289   1.887  24.345  1.00 19.19 LIG 0.10  C 
BRANCH 31 32
ATOM     32 SG   CYS E  70       7.170   0.110  24.033  1.00 25.14 LIG-0.18  SA
ATOM     33 HG   CYS E  70       6.223  -0.338  24.620  1.00 25.14 LIG 0.10  HD
ENDBRANCH 31 32
ENDBRANCH 10 31
ENDBRANCH 7 10
ENDBRANCH 5 6
BRANCH 5 34
ATOM     34  CB  THR E  69       8.196   4.847  28.945  1.00 17.77 LIG 0.15  C 
ATOM     35  CG2 THR E  69       9.098   4.243  29.965  1.00 20.71 LIG 0.04  C 
BRANCH 34 36
ATOM     36 OG1  THR E  69       8.024   6.208  29.296  1.00 16.43 LIG-0.39  OA
ATOM     37 HG1  THR E  69       7.946   6.275  30.129  1.00 16.43 LIG 0.21  HD
ENDBRANCH 34 36
ENDBRANCH 5 34
ENDBRANCH 3 5
BRANCH 1 38
ATOM     38  CA  ALA E  68      11.359   7.319  26.399  1.00 20.08 LIG 0.17  C 
ATOM     39  CB  ALA E  68      12.508   7.466  27.368  1.00 20.16 LIG 0.04  C 
BRANCH 38 40
ATOM     40  N   ALA E  68      10.417   8.389  26.586  1.00 18.16 LIG-0.35  N 
ATOM     41 H    ALA E  68      10.435   8.755  27.364  1.00 18.16 LIG 0.16  HD
ATOM     42  C   TRP E  67       9.606   8.750  25.611  1.00 18.88 LIG 0.24  C 
ATOM     43 O    TRP E  67       9.537   8.187  24.506  1.00 21.47 LIG-0.27  OA
BRANCH 42 44
ATOM     44  CA  TRP E  67       8.677   9.854  25.963  1.00 17.18 LIG 0.18  C 
BRANCH 44 45
ATOM     45  N   TRP E  67       8.682  10.153  27.439  1.00 16.72 LIG-0.35  N 
ATOM     46  C   PRO E  66       7.828   9.620  28.327  1.00 16.87 LIG 0.24  C 
ATOM     47 O    PRO E  66       6.854   8.938  28.014  1.00 18.41 LIG-0.27  OA
ATOM     48 H    TRP E  67       9.296  10.709  27.668  1.00 16.72 LIG 0.16  HD
BRANCH 46 49
ATOM     49  CA  PRO E  66       8.061   9.921  29.827  1.00 17.04 LIG 0.18  C 
ATOM     50  CB  PRO E  66       7.049  10.942  30.372  1.00 18.40 LIG 0.04  C 
ATOM     51  CG  PRO E  66       7.790  12.241  30.510  1.00 18.41 LIG 0.02  C 
ATOM     52  CD  PRO E  66       9.225  11.870  30.763  1.00 21.21 LIG 0.13  C 
ATOM     53  N   PRO E  66       9.361  10.534  30.166  1.00 19.82 LIG-0.34  N 
ATOM     54  C   ACE E  65      10.494   9.777  30.020  1.00 17.72 LIG 0.22  C 
ATOM     55  CH3 ACE E  65      11.771  10.395  30.418  1.00 22.93 LIG 0.12  C 
ATOM     56 O    ACE E  65      10.502   8.665  29.547  1.00 18.13 LIG-0.27  OA
ENDBRANCH 46 49
ENDBRANCH 44 45
BRANCH 44 57
ATOM     57  CB  TRP E  67       8.979  11.133  25.139  1.00 18.36 LIG 0.07  C 
BRANCH 57 58
ATOM     58  CG  TRP E  67       9.481  12.236  25.921  1.00 19.51 LIG-0.03  A 
ATOM     59  CD1 TRP E  67       8.848  13.400  26.187  1.00 20.71 LIG 0.10  A 
ATOM     60  NE1 TRP E  67       9.635  14.195  26.967  1.00 21.73 LIG-0.36  N 
ATOM     61  CE2 TRP E  67      10.807  13.542  27.219  1.00 22.59 LIG 0.04  A 
ATOM     62 HE1  TRP E  67       9.426  14.979  27.254  1.00 21.73 LIG 0.17  HD
ATOM     63  CD2 TRP E  67      10.737  12.295  26.570  1.00 20.57 LIG-0.00  A 
ATOM     64  CZ2 TRP E  67      11.913  13.931  27.958  1.00 23.91 LIG 0.03  A 
ATOM     65  CE3 TRP E  67      11.816  11.417  26.673  1.00 19.56 LIG 0.01  A 
ATOM     66  CZ3 TRP E  67      12.897  11.795  27.395  1.00 20.82 LIG 0.00  A 
ATOM     67  CH2 TRP E  67      12.949  13.043  28.037  1.00 24.07 LIG 0.00  A 
ENDBRANCH 57 58
ENDBRANCH 44 57
ENDBRANCH 42 44
ENDBRANCH 38 40
ENDBRANCH 1 38
TORSDOF 23
ENDMDL
