MODEL 1
USER: ADFR SOLUTION from run 80
USER: SCORE 11.623946 LL:  -1.968 LR:  -9.656 RR:   0.000 FEB:  -6.971
USER: RMSD 1.863586
USER: SEED 79
USER: STATUS no improvement in best in 9 clusters for 5 generations
USER: GENES 11
USER: genes 0 Translation |==|  0.58937 0.37115 0.55997
USER: genes 1 Rotation |==|  0.51454 0.55400 0.47226 0.99609
USER: genes 2 Torsion [N]-C--CA-[N] |==|  0.41517
USER: genes 3 Torsion [C]-CA--CB-[CG] |==|  0.74392
USER: genes 4 Torsion [CA]-CB--CG-[CD2] |==|  0.59858
USER: genes 5 Torsion [CE2]-CZ--OH-[HH] |==|  0.75882
USER: genes 6 Torsion [N]-CA--C-[N] |==|  0.07002
USER: genes 7 Torsion [C]-N--CA-[C] |==|  0.76013
USER: genes 8 Torsion [N]-CA--CB-[CG] |==|  0.95172
USER: genes 9 Torsion [CA]-CB--CG-[ND1] |==|  0.22514
USER: genes 10 Torsion [N]-CA--C-[O] |==|  0.87832
ROOT
ATOM      1  C   TYR C  64      13.827  -2.778   8.156  1.00 51.57 LIG 0.26  C 
ATOM      2 O    TYR C  64      13.416  -3.426   7.193  1.00 54.62 LIG-0.27  OA
ATOM      3  N   PRO C  65      15.131  -2.515   8.340  1.00 43.10 LIG-0.34  N 
ATOM      4  CA  PRO C  65      15.752  -1.663   9.359  1.00 38.90 LIG 0.18  C 
ATOM      5  CB  PRO C  65      17.026  -2.423   9.697  1.00 40.80 LIG 0.04  C 
ATOM      6  CG  PRO C  65      17.404  -3.065   8.408  1.00 42.19 LIG 0.02  C 
ATOM      7  CD  PRO C  65      16.127  -3.374   7.675  1.00 44.37 LIG 0.13  C 
ENDROOT
BRANCH 1 8
ATOM      8  CA  TYR C  64      12.842  -2.248   9.196  1.00 49.73 LIG 0.40  C 
ATOM      9  N   TYR C  64      11.563  -1.969   8.547  1.00 50.52 LIG 0.61  N 
BRANCH 8 10
ATOM     10  CB  TYR C  64      12.670  -3.292  10.306  1.00 50.46 LIG 0.09  C 
BRANCH 10 11
ATOM     11  CG  TYR C  64      11.530  -4.268  10.111  1.00 47.68 LIG-0.06  A 
ATOM     12  CD2 TYR C  64      10.800  -4.728  11.202  1.00 48.34 LIG 0.01  A 
ATOM     13  CE2 TYR C  64       9.757  -5.620  11.042  1.00 49.15 LIG 0.04  A 
ATOM     14  CZ  TYR C  64       9.430  -6.064   9.777  1.00 50.59 LIG 0.07  A 
ATOM     15  CE1 TYR C  64      10.136  -5.624   8.675  1.00 46.73 LIG 0.04  A 
ATOM     16  CD1 TYR C  64      11.180  -4.729   8.846  1.00 46.22 LIG 0.01  A 
BRANCH 14 17
ATOM     17 OH   TYR C  64       8.392  -6.953   9.611  1.00 53.82 LIG-0.36  OA
ATOM     18 HH   TYR C  64       8.678  -7.738   9.702  1.00 53.82 LIG 0.22  HD
ENDBRANCH 14 17
ENDBRANCH 10 11
ENDBRANCH 8 10
ENDBRANCH 1 8
BRANCH 4 19
ATOM     19  C   PRO C  65      16.107  -0.284   8.811  1.00 37.07 LIG 0.24  C 
ATOM     20  N   HIS C  66      15.388   0.127   7.769  1.00 40.38 LIG-0.35  N 
ATOM     21 H    HIS C  66      14.784  -0.353   7.390  1.00 40.38 LIG 0.16  HD
ATOM     22 O    PRO C  65      17.026   0.376   9.328  1.00 29.28 LIG-0.27  OA
BRANCH 20 23
ATOM     23  CA  HIS C  66      15.560   1.443   7.170  1.00 40.25 LIG 0.17  C 
BRANCH 23 24
ATOM     24  CB  HIS C  66      15.195   1.408   5.679  1.00 42.68 LIG 0.09  C 
BRANCH 24 25
ATOM     25  CG  HIS C  66      15.156   0.029   5.094  1.00 48.80 LIG 0.06  A 
ATOM     26 ND1  HIS C  66      14.073  -0.813   5.236  1.00 53.13 LIG-0.24  NA
ATOM     27  CE1 HIS C  66      14.321  -1.954   4.617  1.00 55.16 LIG 0.23  A 
ATOM     28 NE2  HIS C  66      15.526  -1.883   4.079  1.00 53.86 LIG-0.25  NA
ATOM     29  CD2 HIS C  66      16.070  -0.653   4.364  1.00 53.41 LIG 0.14  A 
ENDBRANCH 24 25
ENDBRANCH 23 24
BRANCH 23 30
ATOM     30  C   HIS C  66      14.712   2.493   7.888  1.00 41.89 LIG 0.22  C 
ATOM     31 O    HIS C  66      13.544   2.251   8.202  1.00 44.58 LIG-0.29  OA
ENDBRANCH 23 30
ENDBRANCH 20 23
ENDBRANCH 4 19
TORSDOF 9
ENDMDL
MODEL 2
USER: ADFR SOLUTION from run 132
USER: SCORE 11.953612 LL:  -2.321 LR:  -9.632 RR:   0.000 FEB:  -6.948
USER: RMSD 2.177918
USER: SEED 131
USER: STATUS no improvement in best in 9 clusters for 5 generations
USER: GENES 11
USER: genes 0 Translation |==|  0.69611 0.35364 0.52586
USER: genes 1 Rotation |==|  0.44262 0.30605 0.58385 0.94951
USER: genes 2 Torsion [N]-C--CA-[N] |==|  0.50630
USER: genes 3 Torsion [C]-CA--CB-[CG] |==|  0.35694
USER: genes 4 Torsion [CA]-CB--CG-[CD2] |==|  0.50114
USER: genes 5 Torsion [CE2]-CZ--OH-[HH] |==|  0.24667
USER: genes 6 Torsion [N]-CA--C-[N] |==|  0.25973
USER: genes 7 Torsion [C]-N--CA-[C] |==|  0.73923
USER: genes 8 Torsion [N]-CA--CB-[CG] |==|  0.88856
USER: genes 9 Torsion [CA]-CB--CG-[ND1] |==|  0.21797
USER: genes 10 Torsion [N]-CA--C-[O] |==|  0.98257
ROOT
ATOM      1  C   TYR C  64      15.828  -3.054   7.542  1.00 51.57 LIG 0.26  C 
ATOM      2 O    TYR C  64      16.627  -3.850   7.049  1.00 54.62 LIG-0.27  OA
ATOM      3  N   PRO C  65      16.188  -2.166   8.484  1.00 43.10 LIG-0.34  N 
ATOM      4  CA  PRO C  65      15.387  -1.086   9.068  1.00 38.90 LIG 0.18  C 
ATOM      5  CB  PRO C  65      15.831  -1.093  10.524  1.00 40.80 LIG 0.04  C 
ATOM      6  CG  PRO C  65      17.263  -1.499  10.452  1.00 42.19 LIG 0.02  C 
ATOM      7  CD  PRO C  65      17.401  -2.429   9.278  1.00 44.37 LIG 0.13  C 
ENDROOT
BRANCH 1 8
ATOM      8  CA  TYR C  64      14.369  -3.058   7.090  1.00 49.73 LIG 0.40  C 
ATOM      9  N   TYR C  64      14.174  -4.124   6.110  1.00 50.52 LIG 0.61  N 
BRANCH 8 10
ATOM     10  CB  TYR C  64      13.464  -3.269   8.310  1.00 50.46 LIG 0.09  C 
BRANCH 10 11
ATOM     11  CG  TYR C  64      12.346  -2.263   8.474  1.00 47.68 LIG-0.06  A 
ATOM     12  CD2 TYR C  64      11.468  -2.352   9.548  1.00 48.34 LIG 0.01  A 
ATOM     13  CE2 TYR C  64      10.441  -1.442   9.713  1.00 49.15 LIG 0.04  A 
ATOM     14  CZ  TYR C  64      10.282  -0.423   8.795  1.00 50.59 LIG 0.07  A 
ATOM     15  CE1 TYR C  64      11.139  -0.309   7.718  1.00 46.73 LIG 0.04  A 
ATOM     16  CD1 TYR C  64      12.165  -1.226   7.563  1.00 46.22 LIG 0.01  A 
BRANCH 14 17
ATOM     17 OH   TYR C  64       9.261   0.486   8.952  1.00 53.82 LIG-0.36  OA
ATOM     18 HH   TYR C  64       9.526   1.126   9.428  1.00 53.82 LIG 0.22  HD
ENDBRANCH 14 17
ENDBRANCH 10 11
ENDBRANCH 8 10
ENDBRANCH 1 8
BRANCH 4 19
ATOM     19  C   PRO C  65      15.708   0.267   8.441  1.00 37.07 LIG 0.24  C 
ATOM     20  N   HIS C  66      14.932   0.630   7.421  1.00 40.38 LIG-0.35  N 
ATOM     21 H    HIS C  66      14.311   0.132   7.097  1.00 40.38 LIG 0.16  HD
ATOM     22 O    PRO C  65      16.651   0.951   8.877  1.00 29.28 LIG-0.27  OA
BRANCH 20 23
ATOM     23  CA  HIS C  66      15.068   1.917   6.756  1.00 40.25 LIG 0.17  C 
BRANCH 23 24
ATOM     24  CB  HIS C  66      14.804   1.775   5.250  1.00 42.68 LIG 0.09  C 
BRANCH 24 25
ATOM     25  CG  HIS C  66      15.385   0.534   4.645  1.00 48.80 LIG 0.06  A 
ATOM     26 ND1  HIS C  66      14.795  -0.706   4.771  1.00 53.13 LIG-0.24  NA
ATOM     27  CE1 HIS C  66      15.526  -1.606   4.136  1.00 55.16 LIG 0.23  A 
ATOM     28 NE2  HIS C  66      16.569  -0.995   3.602  1.00 53.86 LIG-0.25  NA
ATOM     29  CD2 HIS C  66      16.504   0.345   3.907  1.00 53.41 LIG 0.14  A 
ENDBRANCH 24 25
ENDBRANCH 23 24
BRANCH 23 30
ATOM     30  C   HIS C  66      14.116   2.952   7.354  1.00 41.89 LIG 0.22  C 
ATOM     31 O    HIS C  66      13.282   2.624   8.202  1.00 44.58 LIG-0.29  OA
ENDBRANCH 23 30
ENDBRANCH 20 23
ENDBRANCH 4 19
TORSDOF 9
ENDMDL
MODEL 3
USER: ADFR SOLUTION from run 175
USER: SCORE 10.689528 LL:  -1.204 LR:  -9.486 RR:   0.000 FEB:  -6.801
USER: RMSD 3.460146
USER: SEED 174
USER: STATUS no improvement in best in 7 clusters for 5 generations
USER: GENES 11
USER: genes 0 Translation |==|  0.57369 0.36410 0.58414
USER: genes 1 Rotation |==|  0.49492 0.55482 0.48341 0.99668
USER: genes 2 Torsion [N]-C--CA-[N] |==|  0.39829
USER: genes 3 Torsion [C]-CA--CB-[CG] |==|  0.75065
USER: genes 4 Torsion [CA]-CB--CG-[CD2] |==|  0.60164
USER: genes 5 Torsion [CE2]-CZ--OH-[HH] |==|  0.75929
USER: genes 6 Torsion [N]-CA--C-[N] |==|  0.11311
USER: genes 7 Torsion [C]-N--CA-[C] |==|  0.20294
USER: genes 8 Torsion [N]-CA--CB-[CG] |==|  0.50046
USER: genes 9 Torsion [CA]-CB--CG-[ND1] |==|  0.55695
USER: genes 10 Torsion [N]-CA--C-[O] |==|  0.06008
ROOT
ATOM      1  C   TYR C  64      13.533  -2.889   8.592  1.00 51.57 LIG 0.26  C 
ATOM      2 O    TYR C  64      13.153  -3.626   7.681  1.00 54.62 LIG-0.27  OA
ATOM      3  N   PRO C  65      14.822  -2.545   8.745  1.00 43.10 LIG-0.34  N 
ATOM      4  CA  PRO C  65      15.401  -1.589   9.694  1.00 38.90 LIG 0.18  C 
ATOM      5  CB  PRO C  65      16.715  -2.255  10.077  1.00 40.80 LIG 0.04  C 
ATOM      6  CG  PRO C  65      17.121  -2.969   8.834  1.00 42.19 LIG 0.02  C 
ATOM      7  CD  PRO C  65      15.859  -3.396   8.137  1.00 44.37 LIG 0.13  C 
ENDROOT
BRANCH 1 8
ATOM      8  CA  TYR C  64      12.525  -2.337   9.598  1.00 49.73 LIG 0.40  C 
ATOM      9  N   TYR C  64      11.273  -2.037   8.907  1.00 50.52 LIG 0.61  N 
BRANCH 8 10
ATOM     10  CB  TYR C  64      12.299  -3.374  10.705  1.00 50.46 LIG 0.09  C 
BRANCH 10 11
ATOM     11  CG  TYR C  64      11.185  -4.366  10.452  1.00 47.68 LIG-0.06  A 
ATOM     12  CD2 TYR C  64      10.383  -4.807  11.498  1.00 48.34 LIG 0.01  A 
ATOM     13  CE2 TYR C  64       9.361  -5.714  11.284  1.00 49.15 LIG 0.04  A 
ATOM     14  CZ  TYR C  64       9.131  -6.191  10.009  1.00 50.59 LIG 0.07  A 
ATOM     15  CE1 TYR C  64       9.912  -5.769   8.951  1.00 46.73 LIG 0.04  A 
ATOM     16  CD1 TYR C  64      10.932  -4.860   9.176  1.00 46.22 LIG 0.01  A 
BRANCH 14 17
ATOM     17 OH   TYR C  64       8.116  -7.094   9.790  1.00 53.82 LIG-0.36  OA
ATOM     18 HH   TYR C  64       8.401  -7.874   9.922  1.00 53.82 LIG 0.22  HD
ENDBRANCH 14 17
ENDBRANCH 10 11
ENDBRANCH 8 10
ENDBRANCH 1 8
BRANCH 4 19
ATOM     19  C   PRO C  65      15.680  -0.237   9.045  1.00 37.07 LIG 0.24  C 
ATOM     20  N   HIS C  66      14.748   0.203   8.202  1.00 40.38 LIG-0.35  N 
ATOM     21 H    HIS C  66      14.046  -0.247   7.994  1.00 40.38 LIG 0.16  HD
ATOM     22 O    PRO C  65      16.731   0.376   9.305  1.00 29.28 LIG-0.27  OA
BRANCH 20 23
ATOM     23  CA  HIS C  66      14.835   1.501   7.550  1.00 40.25 LIG 0.17  C 
BRANCH 23 24
ATOM     24  CB  HIS C  66      15.143   2.600   8.577  1.00 42.68 LIG 0.09  C 
BRANCH 24 25
ATOM     25  CG  HIS C  66      15.246   3.973   7.986  1.00 48.80 LIG 0.06  A 
ATOM     26 ND1  HIS C  66      15.900   5.011   8.616  1.00 53.13 LIG-0.24  NA
ATOM     27  CE1 HIS C  66      15.830   6.095   7.862  1.00 55.16 LIG 0.23  A 
ATOM     28 NE2  HIS C  66      15.154   5.798   6.767  1.00 53.86 LIG-0.25  NA
ATOM     29  CD2 HIS C  66      14.776   4.477   6.820  1.00 53.41 LIG 0.14  A 
ENDBRANCH 24 25
ENDBRANCH 23 24
BRANCH 23 30
ATOM     30  C   HIS C  66      15.901   1.500   6.454  1.00 41.89 LIG 0.22  C 
ATOM     31 O    HIS C  66      16.276   0.442   5.942  1.00 44.58 LIG-0.29  OA
ENDBRANCH 23 30
ENDBRANCH 20 23
ENDBRANCH 4 19
TORSDOF 9
ENDMDL
MODEL 4
USER: ADFR SOLUTION from run 58
USER: SCORE 10.990132 LL:  -1.504 LR:  -9.486 RR:   0.000 FEB:  -6.802
USER: RMSD 3.690676
USER: SEED 57
USER: STATUS no improvement in best in 8 clusters for 5 generations
USER: GENES 11
USER: genes 0 Translation |==|  0.69348 0.35419 0.52667
USER: genes 1 Rotation |==|  0.45147 0.30995 0.59374 0.95026
USER: genes 2 Torsion [N]-C--CA-[N] |==|  0.49806
USER: genes 3 Torsion [C]-CA--CB-[CG] |==|  0.35520
USER: genes 4 Torsion [CA]-CB--CG-[CD2] |==|  0.02178
USER: genes 5 Torsion [CE2]-CZ--OH-[HH] |==|  0.75853
USER: genes 6 Torsion [N]-CA--C-[N] |==|  0.32686
USER: genes 7 Torsion [C]-N--CA-[C] |==|  0.22762
USER: genes 8 Torsion [N]-CA--CB-[CG] |==|  0.51679
USER: genes 9 Torsion [CA]-CB--CG-[ND1] |==|  0.49891
USER: genes 10 Torsion [N]-CA--C-[O] |==|  0.96089
ROOT
ATOM      1  C   TYR C  64      15.779  -3.046   7.557  1.00 51.57 LIG 0.26  C 
ATOM      2 O    TYR C  64      16.602  -3.796   7.032  1.00 54.62 LIG-0.27  OA
ATOM      3  N   PRO C  65      16.121  -2.154   8.502  1.00 43.10 LIG-0.34  N 
ATOM      4  CA  PRO C  65      15.286  -1.121   9.123  1.00 38.90 LIG 0.18  C 
ATOM      5  CB  PRO C  65      15.768  -1.127  10.566  1.00 40.80 LIG 0.04  C 
ATOM      6  CG  PRO C  65      17.214  -1.464  10.452  1.00 42.19 LIG 0.02  C 
ATOM      7  CD  PRO C  65      17.365  -2.371   9.262  1.00 44.37 LIG 0.13  C 
ENDROOT
BRANCH 1 8
ATOM      8  CA  TYR C  64      14.311  -3.112   7.142  1.00 49.73 LIG 0.40  C 
ATOM      9  N   TYR C  64      14.152  -4.124   6.100  1.00 50.52 LIG 0.61  N 
BRANCH 8 10
ATOM     10  CB  TYR C  64      13.455  -3.456   8.367  1.00 50.46 LIG 0.09  C 
BRANCH 10 11
ATOM     11  CG  TYR C  64      12.292  -2.525   8.632  1.00 47.68 LIG-0.06  A 
ATOM     12  CD2 TYR C  64      11.952  -1.541   7.710  1.00 48.34 LIG 0.01  A 
ATOM     13  CE2 TYR C  64      10.893  -0.682   7.936  1.00 49.15 LIG 0.04  A 
ATOM     14  CZ  TYR C  64      10.157  -0.801   9.098  1.00 50.59 LIG 0.07  A 
ATOM     15  CE1 TYR C  64      10.471  -1.769  10.031  1.00 46.73 LIG 0.04  A 
ATOM     16  CD1 TYR C  64      11.533  -2.626   9.794  1.00 46.22 LIG 0.01  A 
BRANCH 14 17
ATOM     17 OH   TYR C  64       9.102   0.052   9.330  1.00 53.82 LIG-0.36  OA
ATOM     18 HH   TYR C  64       9.383   0.751   9.702  1.00 53.82 LIG 0.22  HD
ENDBRANCH 14 17
ENDBRANCH 10 11
ENDBRANCH 8 10
ENDBRANCH 1 8
BRANCH 4 19
ATOM     19  C   PRO C  65      15.527   0.254   8.507  1.00 37.07 LIG 0.24  C 
ATOM     20  N   HIS C  66      14.477   0.808   7.903  1.00 40.38 LIG-0.35  N 
ATOM     21 H    HIS C  66      13.716   0.418   7.821  1.00 40.38 LIG 0.16  HD
ATOM     22 O    PRO C  65      16.651   0.782   8.577  1.00 29.28 LIG-0.27  OA
BRANCH 20 23
ATOM     23  CA  HIS C  66      14.525   2.142   7.322  1.00 40.25 LIG 0.17  C 
BRANCH 23 24
ATOM     24  CB  HIS C  66      15.314   3.097   8.230  1.00 42.68 LIG 0.09  C 
BRANCH 24 25
ATOM     25  CG  HIS C  66      15.291   4.525   7.777  1.00 48.80 LIG 0.06  A 
ATOM     26 ND1  HIS C  66      15.932   5.537   8.460  1.00 53.13 LIG-0.24  NA
ATOM     27  CE1 HIS C  66      15.741   6.682   7.829  1.00 55.16 LIG 0.23  A 
ATOM     28 NE2  HIS C  66      14.999   6.450   6.760  1.00 53.86 LIG-0.25  NA
ATOM     29  CD2 HIS C  66      14.703   5.108   6.706  1.00 53.41 LIG 0.14  A 
ENDBRANCH 24 25
ENDBRANCH 23 24
BRANCH 23 30
ATOM     30  C   HIS C  66      15.151   2.116   5.928  1.00 41.89 LIG 0.22  C 
ATOM     31 O    HIS C  66      15.769   1.124   5.534  1.00 44.58 LIG-0.29  OA
ENDBRANCH 23 30
ENDBRANCH 20 23
ENDBRANCH 4 19
TORSDOF 9
ENDMDL
MODEL 5
USER: ADFR SOLUTION from run 70
USER: SCORE 11.124773 LL:  -1.649 LR:  -9.475 RR:   0.000 FEB:  -6.791
USER: RMSD 5.926460
USER: SEED 69
USER: STATUS no improvement in best in 10 clusters for 5 generations
USER: GENES 11
USER: genes 0 Translation |==|  0.74457 0.35609 0.50904
USER: genes 1 Rotation |==|  0.45712 0.21612 0.60613 0.89536
USER: genes 2 Torsion [N]-C--CA-[N] |==|  0.83238
USER: genes 3 Torsion [C]-CA--CB-[CG] |==|  0.26284
USER: genes 4 Torsion [CA]-CB--CG-[CD2] |==|  0.71323
USER: genes 5 Torsion [CE2]-CZ--OH-[HH] |==|  0.12220
USER: genes 6 Torsion [N]-CA--C-[N] |==|  0.33414
USER: genes 7 Torsion [C]-N--CA-[C] |==|  0.81169
USER: genes 8 Torsion [N]-CA--CB-[CG] |==|  0.65838
USER: genes 9 Torsion [CA]-CB--CG-[ND1] |==|  0.72395
USER: genes 10 Torsion [N]-CA--C-[O] |==|  0.89953
ROOT
ATOM      1  C   TYR C  64      16.737  -3.016   7.240  1.00 51.57 LIG 0.26  C 
ATOM      2 O    TYR C  64      17.796  -3.622   7.077  1.00 54.62 LIG-0.27  OA
ATOM      3  N   PRO C  65      16.547  -2.165   8.262  1.00 43.10 LIG-0.34  N 
ATOM      4  CA  PRO C  65      15.399  -1.287   8.513  1.00 38.90 LIG 0.18  C 
ATOM      5  CB  PRO C  65      15.261  -1.347  10.028  1.00 40.80 LIG 0.04  C 
ATOM      6  CG  PRO C  65      16.664  -1.502  10.503  1.00 42.19 LIG 0.02  C 
ATOM      7  CD  PRO C  65      17.401  -2.292   9.456  1.00 44.37 LIG 0.13  C 
ENDROOT
BRANCH 1 8
ATOM      8  CA  TYR C  64      15.581  -3.221   6.263  1.00 49.73 LIG 0.40  C 
ATOM      9  N   TYR C  64      14.428  -3.749   6.989  1.00 50.52 LIG 0.61  N 
BRANCH 8 10
ATOM     10  CB  TYR C  64      15.238  -1.883   5.599  1.00 50.46 LIG 0.09  C 
BRANCH 10 11
ATOM     11  CG  TYR C  64      15.901  -1.629   4.263  1.00 47.68 LIG-0.06  A 
ATOM     12  CD2 TYR C  64      16.987  -0.767   4.167  1.00 48.34 LIG 0.01  A 
ATOM     13  CE2 TYR C  64      17.604  -0.523   2.954  1.00 49.15 LIG 0.04  A 
ATOM     14  CZ  TYR C  64      17.136  -1.147   1.815  1.00 50.59 LIG 0.07  A 
ATOM     15  CE1 TYR C  64      16.060  -2.010   1.881  1.00 46.73 LIG 0.04  A 
ATOM     16  CD1 TYR C  64      15.449  -2.248   3.101  1.00 46.22 LIG 0.01  A 
BRANCH 14 17
ATOM     17 OH   TYR C  64      17.746  -0.909   0.605  1.00 53.82 LIG-0.36  OA
ATOM     18 HH   TYR C  64      18.580  -0.928   0.702  1.00 53.82 LIG 0.22  HD
ENDBRANCH 14 17
ENDBRANCH 10 11
ENDBRANCH 8 10
ENDBRANCH 1 8
BRANCH 4 19
ATOM     19  C   PRO C  65      15.673   0.149   8.080  1.00 37.07 LIG 0.24  C 
ATOM     20  N   HIS C  66      14.852   0.640   7.153  1.00 40.38 LIG-0.35  N 
ATOM     21 H    HIS C  66      14.226   0.181   6.782  1.00 40.38 LIG 0.16  HD
ATOM     22 O    PRO C  65      16.622   0.782   8.576  1.00 29.28 LIG-0.27  OA
BRANCH 20 23
ATOM     23  CA  HIS C  66      14.941   2.013   6.679  1.00 40.25 LIG 0.17  C 
BRANCH 23 24
ATOM     24  CB  HIS C  66      14.045   2.217   5.449  1.00 42.68 LIG 0.09  C 
BRANCH 24 25
ATOM     25  CG  HIS C  66      14.775   2.719   4.240  1.00 48.80 LIG 0.06  A 
ATOM     26 ND1  HIS C  66      14.776   4.045   3.865  1.00 53.13 LIG-0.24  NA
ATOM     27  CE1 HIS C  66      15.501   4.190   2.770  1.00 55.16 LIG 0.23  A 
ATOM     28 NE2  HIS C  66      15.970   3.006   2.420  1.00 53.86 LIG-0.25  NA
ATOM     29  CD2 HIS C  66      15.529   2.068   3.324  1.00 53.41 LIG 0.14  A 
ENDBRANCH 24 25
ENDBRANCH 23 24
BRANCH 23 30
ATOM     30  C   HIS C  66      14.550   3.003   7.776  1.00 41.89 LIG 0.22  C 
ATOM     31 O    HIS C  66      13.652   2.733   8.577  1.00 44.58 LIG-0.29  OA
ENDBRANCH 23 30
ENDBRANCH 20 23
ENDBRANCH 4 19
TORSDOF 9
ENDMDL
MODEL 6
USER: ADFR SOLUTION from run 92
USER: SCORE 10.702841 LL:  -1.307 LR:  -9.395 RR:   0.000 FEB:  -6.711
USER: RMSD 7.496641
USER: SEED 91
USER: STATUS no improvement in best in 12 clusters for 5 generations
USER: GENES 11
USER: genes 0 Translation |==|  0.57688 0.48335 0.40926
USER: genes 1 Rotation |==|  0.24055 0.16540 0.23438 0.51304
USER: genes 2 Torsion [N]-C--CA-[N] |==|  0.40390
USER: genes 3 Torsion [C]-CA--CB-[CG] |==|  0.56526
USER: genes 4 Torsion [CA]-CB--CG-[CD2] |==|  0.74710
USER: genes 5 Torsion [CE2]-CZ--OH-[HH] |==|  0.96665
USER: genes 6 Torsion [N]-CA--C-[N] |==|  0.13021
USER: genes 7 Torsion [C]-N--CA-[C] |==|  0.84919
USER: genes 8 Torsion [N]-CA--CB-[CG] |==|  0.21335
USER: genes 9 Torsion [CA]-CB--CG-[ND1] |==|  0.38729
USER: genes 10 Torsion [N]-CA--C-[O] |==|  0.99523
ROOT
ATOM      1  C   TYR C  64      13.592  -1.011   5.444  1.00 51.57 LIG 0.26  C 
ATOM      2 O    TYR C  64      12.612  -1.741   5.296  1.00 54.62 LIG-0.27  OA
ATOM      3  N   PRO C  65      13.571   0.067   6.246  1.00 43.10 LIG-0.34  N 
ATOM      4  CA  PRO C  65      14.683   0.948   6.614  1.00 38.90 LIG 0.18  C 
ATOM      5  CB  PRO C  65      14.021   2.318   6.655  1.00 40.80 LIG 0.04  C 
ATOM      6  CG  PRO C  65      12.636   2.025   7.119  1.00 42.19 LIG 0.02  C 
ATOM      7  CD  PRO C  65      12.269   0.667   6.589  1.00 44.37 LIG 0.13  C 
ENDROOT
BRANCH 1 8
ATOM      8  CA  TYR C  64      14.890  -1.316   4.699  1.00 49.73 LIG 0.40  C 
ATOM      9  N   TYR C  64      15.052  -2.764   4.590  1.00 50.52 LIG 0.61  N 
BRANCH 8 10
ATOM     10  CB  TYR C  64      14.837  -0.670   3.308  1.00 50.46 LIG 0.09  C 
BRANCH 10 11
ATOM     11  CG  TYR C  64      15.734  -1.298   2.264  1.00 47.68 LIG-0.06  A 
ATOM     12  CD2 TYR C  64      17.029  -0.831   2.074  1.00 48.34 LIG 0.01  A 
ATOM     13  CE2 TYR C  64      17.862  -1.392   1.124  1.00 49.15 LIG 0.04  A 
ATOM     14  CZ  TYR C  64      17.401  -2.436   0.348  1.00 50.59 LIG 0.07  A 
ATOM     15  CE1 TYR C  64      16.119  -2.922   0.515  1.00 46.73 LIG 0.04  A 
ATOM     16  CD1 TYR C  64      15.293  -2.353   1.471  1.00 46.22 LIG 0.01  A 
BRANCH 14 17
ATOM     17 OH   TYR C  64      18.224  -2.999  -0.601  1.00 53.82 LIG-0.36  OA
ATOM     18 HH   TYR C  64      18.900  -2.512  -0.710  1.00 53.82 LIG 0.22  HD
ENDBRANCH 14 17
ENDBRANCH 10 11
ENDBRANCH 8 10
ENDBRANCH 1 8
BRANCH 4 19
ATOM     19  C   PRO C  65      15.248   0.610   7.990  1.00 37.07 LIG 0.24  C 
ATOM     20  N   HIS C  66      15.479  -0.682   8.219  1.00 40.38 LIG-0.35  N 
ATOM     21 H    HIS C  66      15.292  -1.304   7.656  1.00 40.38 LIG 0.16  HD
ATOM     22 O    PRO C  65      15.454   1.513   8.820  1.00 29.28 LIG-0.27  OA
BRANCH 20 23
ATOM     23  CA  HIS C  66      16.075  -1.161   9.457  1.00 40.25 LIG 0.17  C 
BRANCH 23 24
ATOM     24  CB  HIS C  66      16.294  -2.680   9.396  1.00 42.68 LIG 0.09  C 
BRANCH 24 25
ATOM     25  CG  HIS C  66      17.477  -3.092   8.574  1.00 48.80 LIG 0.06  A 
ATOM     26 ND1  HIS C  66      18.334  -4.103   8.951  1.00 53.13 LIG-0.24  NA
ATOM     27  CE1 HIS C  66      19.276  -4.244   8.036  1.00 55.16 LIG 0.23  A 
ATOM     28 NE2  HIS C  66      19.061  -3.361   7.077  1.00 53.86 LIG-0.25  NA
ATOM     29  CD2 HIS C  66      17.942  -2.627   7.391  1.00 53.41 LIG 0.14  A 
ENDBRANCH 24 25
ENDBRANCH 23 24
BRANCH 23 30
ATOM     30  C   HIS C  66      17.401  -0.456   9.742  1.00 41.89 LIG 0.22  C 
ATOM     31 O    HIS C  66      17.854   0.376   8.952  1.00 44.58 LIG-0.29  OA
ENDBRANCH 23 30
ENDBRANCH 20 23
ENDBRANCH 4 19
TORSDOF 9
ENDMDL
MODEL 7
USER: ADFR SOLUTION from run 63
USER: SCORE 11.372239 LL:  -2.002 LR:  -9.370 RR:   0.000 FEB:  -6.685
USER: RMSD 3.319535
USER: SEED 62
USER: STATUS no improvement in best in 10 clusters for 5 generations
USER: GENES 11
USER: genes 0 Translation |==|  0.69139 0.35125 0.53137
USER: genes 1 Rotation |==|  0.44288 0.31848 0.58753 0.95401
USER: genes 2 Torsion [N]-C--CA-[N] |==|  0.49517
USER: genes 3 Torsion [C]-CA--CB-[CG] |==|  0.36892
USER: genes 4 Torsion [CA]-CB--CG-[CD2] |==|  0.05479
USER: genes 5 Torsion [CE2]-CZ--OH-[HH] |==|  0.71743
USER: genes 6 Torsion [N]-CA--C-[N] |==|  0.26988
USER: genes 7 Torsion [C]-N--CA-[C] |==|  0.84932
USER: genes 8 Torsion [N]-CA--CB-[CG] |==|  0.21313
USER: genes 9 Torsion [CA]-CB--CG-[ND1] |==|  0.88554
USER: genes 10 Torsion [N]-CA--C-[O] |==|  0.89767
ROOT
ATOM      1  C   TYR C  64      15.740  -3.092   7.642  1.00 51.57 LIG 0.26  C 
ATOM      2 O    TYR C  64      16.516  -3.889   7.115  1.00 54.62 LIG-0.27  OA
ATOM      3  N   PRO C  65      16.145  -2.191   8.553  1.00 43.10 LIG-0.34  N 
ATOM      4  CA  PRO C  65      15.371  -1.109   9.167  1.00 38.90 LIG 0.18  C 
ATOM      5  CB  PRO C  65      15.892  -1.098  10.597  1.00 40.80 LIG 0.04  C 
ATOM      6  CG  PRO C  65      17.320  -1.498  10.453  1.00 42.19 LIG 0.02  C 
ATOM      7  CD  PRO C  65      17.400  -2.440   9.284  1.00 44.37 LIG 0.13  C 
ENDROOT
BRANCH 1 8
ATOM      8  CA  TYR C  64      14.259  -3.107   7.268  1.00 49.73 LIG 0.40  C 
ATOM      9  N   TYR C  64      14.034  -4.122   6.241  1.00 50.52 LIG 0.61  N 
BRANCH 8 10
ATOM     10  CB  TYR C  64      13.426  -3.409   8.520  1.00 50.46 LIG 0.09  C 
BRANCH 10 11
ATOM     11  CG  TYR C  64      12.235  -2.503   8.745  1.00 47.68 LIG-0.06  A 
ATOM     12  CD2 TYR C  64      11.703  -1.764   7.694  1.00 48.34 LIG 0.01  A 
ATOM     13  CE2 TYR C  64      10.616  -0.931   7.882  1.00 49.15 LIG 0.04  A 
ATOM     14  CZ  TYR C  64      10.046  -0.829   9.134  1.00 50.59 LIG 0.07  A 
ATOM     15  CE1 TYR C  64      10.552  -1.552  10.196  1.00 46.73 LIG 0.04  A 
ATOM     16  CD1 TYR C  64      11.641  -2.384   9.997  1.00 46.22 LIG 0.01  A 
BRANCH 14 17
ATOM     17 OH   TYR C  64       8.964  -0.001   9.329  1.00 53.82 LIG-0.36  OA
ATOM     18 HH   TYR C  64       9.218   0.712   9.694  1.00 53.82 LIG 0.22  HD
ENDBRANCH 14 17
ENDBRANCH 10 11
ENDBRANCH 8 10
ENDBRANCH 1 8
BRANCH 4 19
ATOM     19  C   PRO C  65      15.650   0.238   8.509  1.00 37.07 LIG 0.24  C 
ATOM     20  N   HIS C  66      14.775   0.621   7.581  1.00 40.38 LIG-0.35  N 
ATOM     21 H    HIS C  66      14.111   0.138   7.326  1.00 40.38 LIG 0.16  HD
ATOM     22 O    PRO C  65      16.650   0.900   8.839  1.00 29.28 LIG-0.27  OA
BRANCH 20 23
ATOM     23  CA  HIS C  66      14.866   1.907   6.904  1.00 40.25 LIG 0.17  C 
BRANCH 23 24
ATOM     24  CB  HIS C  66      13.676   2.100   5.954  1.00 42.68 LIG 0.09  C 
BRANCH 24 25
ATOM     25  CG  HIS C  66      12.396   2.461   6.646  1.00 48.80 LIG 0.06  A 
ATOM     26 ND1  HIS C  66      11.994   1.875   7.827  1.00 53.13 LIG-0.24  NA
ATOM     27  CE1 HIS C  66      10.836   2.391   8.200  1.00 55.16 LIG 0.23  A 
ATOM     28 NE2  HIS C  66      10.472   3.290   7.303  1.00 53.86 LIG-0.25  NA
ATOM     29  CD2 HIS C  66      11.431   3.353   6.320  1.00 53.41 LIG 0.14  A 
ENDBRANCH 24 25
ENDBRANCH 23 24
BRANCH 23 30
ATOM     30  C   HIS C  66      14.920   3.058   7.909  1.00 41.89 LIG 0.22  C 
ATOM     31 O    HIS C  66      14.262   3.014   8.952  1.00 44.58 LIG-0.29  OA
ENDBRANCH 23 30
ENDBRANCH 20 23
ENDBRANCH 4 19
TORSDOF 9
ENDMDL
MODEL 8
USER: ADFR SOLUTION from run 115
USER: SCORE 11.355797 LL:  -2.020 LR:  -9.336 RR:   0.000 FEB:  -6.652
USER: RMSD 7.111072
USER: SEED 114
USER: STATUS no improvement in best in 9 clusters for 5 generations
USER: GENES 11
USER: genes 0 Translation |==|  0.55676 0.41962 0.47712
USER: genes 1 Rotation |==|  0.20621 0.12454 0.34948 0.50793
USER: genes 2 Torsion [N]-C--CA-[N] |==|  0.44982
USER: genes 3 Torsion [C]-CA--CB-[CG] |==|  0.36427
USER: genes 4 Torsion [CA]-CB--CG-[CD2] |==|  0.86941
USER: genes 5 Torsion [CE2]-CZ--OH-[HH] |==|  0.50556
USER: genes 6 Torsion [N]-CA--C-[N] |==|  0.00943
USER: genes 7 Torsion [C]-N--CA-[C] |==|  0.86199
USER: genes 8 Torsion [N]-CA--CB-[CG] |==|  0.08450
USER: genes 9 Torsion [CA]-CB--CG-[ND1] |==|  0.21656
USER: genes 10 Torsion [N]-CA--C-[O] |==|  0.23462
ROOT
ATOM      1  C   TYR C  64      13.215  -2.015   6.665  1.00 51.57 LIG 0.26  C 
ATOM      2 O    TYR C  64      12.275  -2.677   7.104  1.00 54.62 LIG-0.27  OA
ATOM      3  N   PRO C  65      13.365  -0.709   6.944  1.00 43.10 LIG-0.34  N 
ATOM      4  CA  PRO C  65      14.486   0.171   6.601  1.00 38.90 LIG 0.18  C 
ATOM      5  CB  PRO C  65      13.790   1.486   6.280  1.00 40.80 LIG 0.04  C 
ATOM      6  CG  PRO C  65      12.614   1.492   7.194  1.00 42.19 LIG 0.02  C 
ATOM      7  CD  PRO C  65      12.185   0.062   7.374  1.00 44.37 LIG 0.13  C 
ENDROOT
BRANCH 1 8
ATOM      8  CA  TYR C  64      14.261  -2.674   5.768  1.00 49.73 LIG 0.40  C 
ATOM      9  N   TYR C  64      14.185  -4.124   5.928  1.00 50.52 LIG 0.61  N 
BRANCH 8 10
ATOM     10  CB  TYR C  64      13.998  -2.275   4.311  1.00 50.46 LIG 0.09  C 
BRANCH 10 11
ATOM     11  CG  TYR C  64      15.204  -1.779   3.543  1.00 47.68 LIG-0.06  A 
ATOM     12  CD2 TYR C  64      16.058  -0.836   4.103  1.00 48.34 LIG 0.01  A 
ATOM     13  CE2 TYR C  64      17.163  -0.371   3.416  1.00 49.15 LIG 0.04  A 
ATOM     14  CZ  TYR C  64      17.428  -0.852   2.149  1.00 50.59 LIG 0.07  A 
ATOM     15  CE1 TYR C  64      16.598  -1.791   1.568  1.00 46.73 LIG 0.04  A 
ATOM     16  CD1 TYR C  64      15.493  -2.250   2.266  1.00 46.22 LIG 0.01  A 
BRANCH 14 17
ATOM     17 OH   TYR C  64      18.526  -0.394   1.459  1.00 53.82 LIG-0.36  OA
ATOM     18 HH   TYR C  64      18.547  -0.749   0.697  1.00 53.82 LIG 0.22  HD
ENDBRANCH 14 17
ENDBRANCH 10 11
ENDBRANCH 8 10
ENDBRANCH 1 8
BRANCH 4 19
ATOM     19  C   PRO C  65      15.438   0.367   7.776  1.00 37.07 LIG 0.24  C 
ATOM     20  N   HIS C  66      15.151  -0.328   8.875  1.00 40.38 LIG-0.35  N 
ATOM     21 H    HIS C  66      14.458  -0.830   8.952  1.00 40.38 LIG 0.16  HD
ATOM     22 O    PRO C  65      16.403   1.146   7.676  1.00 29.28 LIG-0.27  OA
BRANCH 20 23
ATOM     23  CA  HIS C  66      15.996  -0.299  10.061  1.00 40.25 LIG 0.17  C 
BRANCH 23 24
ATOM     24  CB  HIS C  66      15.523  -1.342  11.083  1.00 42.68 LIG 0.09  C 
BRANCH 24 25
ATOM     25  CG  HIS C  66      14.887  -2.552  10.469  1.00 48.80 LIG 0.06  A 
ATOM     26 ND1  HIS C  66      15.618  -3.570   9.894  1.00 53.13 LIG-0.24  NA
ATOM     27  CE1 HIS C  66      14.794  -4.499   9.441  1.00 55.16 LIG 0.23  A 
ATOM     28 NE2  HIS C  66      13.555  -4.121   9.702  1.00 53.86 LIG-0.25  NA
ATOM     29  CD2 HIS C  66      13.587  -2.905  10.344  1.00 53.41 LIG 0.14  A 
ENDBRANCH 24 25
ENDBRANCH 23 24
BRANCH 23 30
ATOM     30  C   HIS C  66      17.461  -0.550   9.702  1.00 41.89 LIG 0.22  C 
ATOM     31 O    HIS C  66      18.184   0.376   9.327  1.00 44.58 LIG-0.29  OA
ENDBRANCH 23 30
ENDBRANCH 20 23
ENDBRANCH 4 19
TORSDOF 9
ENDMDL
MODEL 9
USER: ADFR SOLUTION from run 65
USER: SCORE 10.671739 LL:  -1.363 LR:  -9.309 RR:   0.000 FEB:  -6.624
USER: RMSD 1.026016
USER: SEED 64
USER: STATUS no improvement in best in 9 clusters for 5 generations
USER: GENES 11
USER: genes 0 Translation |==|  0.61852 0.34052 0.52679
USER: genes 1 Rotation |==|  0.46716 0.45033 0.52007 0.99604
USER: genes 2 Torsion [N]-C--CA-[N] |==|  0.43802
USER: genes 3 Torsion [C]-CA--CB-[CG] |==|  0.48831
USER: genes 4 Torsion [CA]-CB--CG-[CD2] |==|  0.40480
USER: genes 5 Torsion [CE2]-CZ--OH-[HH] |==|  0.75770
USER: genes 6 Torsion [N]-CA--C-[N] |==|  0.09643
USER: genes 7 Torsion [C]-N--CA-[C] |==|  0.83107
USER: genes 8 Torsion [N]-CA--CB-[CG] |==|  0.68047
USER: genes 9 Torsion [CA]-CB--CG-[ND1] |==|  0.69045
USER: genes 10 Torsion [N]-CA--C-[O] |==|  0.92617
ROOT
ATOM      1  C   TYR C  64      14.373  -3.261   7.559  1.00 51.57 LIG 0.26  C 
ATOM      2 O    TYR C  64      14.502  -4.117   6.684  1.00 54.62 LIG-0.27  OA
ATOM      3  N   PRO C  65      15.428  -2.679   8.154  1.00 43.10 LIG-0.34  N 
ATOM      4  CA  PRO C  65      15.434  -1.569   9.112  1.00 38.90 LIG 0.18  C 
ATOM      5  CB  PRO C  65      16.555  -1.958  10.065  1.00 40.80 LIG 0.04  C 
ATOM      6  CG  PRO C  65      17.525  -2.675   9.192  1.00 42.19 LIG 0.02  C 
ATOM      7  CD  PRO C  65      16.728  -3.372   8.123  1.00 44.37 LIG 0.13  C 
ENDROOT
BRANCH 1 8
ATOM      8  CA  TYR C  64      12.979  -2.828   8.006  1.00 49.73 LIG 0.40  C 
ATOM      9  N   TYR C  64      12.020  -3.131   6.945  1.00 50.52 LIG 0.61  N 
BRANCH 8 10
ATOM     10  CB  TYR C  64      12.610  -3.568   9.297  1.00 50.46 LIG 0.09  C 
BRANCH 10 11
ATOM     11  CG  TYR C  64      11.291  -3.171   9.922  1.00 47.68 LIG-0.06  A 
ATOM     12  CD2 TYR C  64      10.510  -4.114  10.581  1.00 48.34 LIG 0.01  A 
ATOM     13  CE2 TYR C  64       9.301  -3.768  11.156  1.00 49.15 LIG 0.04  A 
ATOM     14  CZ  TYR C  64       8.860  -2.463  11.079  1.00 50.59 LIG 0.07  A 
ATOM     15  CE1 TYR C  64       9.615  -1.504  10.432  1.00 46.73 LIG 0.04  A 
ATOM     16  CD1 TYR C  64      10.825  -1.861   9.859  1.00 46.22 LIG 0.01  A 
BRANCH 14 17
ATOM     17 OH   TYR C  64       7.658  -2.112  11.649  1.00 53.82 LIG-0.36  OA
ATOM     18 HH   TYR C  64       7.037  -2.242  11.098  1.00 53.82 LIG 0.22  HD
ENDBRANCH 14 17
ENDBRANCH 10 11
ENDBRANCH 8 10
ENDBRANCH 1 8
BRANCH 4 19
ATOM     19  C   PRO C  65      15.768  -0.240   8.443  1.00 37.07 LIG 0.24  C 
ATOM     20  N   HIS C  66      15.313  -0.088   7.200  1.00 40.38 LIG-0.35  N 
ATOM     21 H    HIS C  66      14.891  -0.701   6.771  1.00 40.38 LIG 0.16  HD
ATOM     22 O    PRO C  65      16.435   0.616   9.051  1.00 29.28 LIG-0.27  OA
BRANCH 20 23
ATOM     23  CA  HIS C  66      15.493   1.145   6.448  1.00 40.25 LIG 0.17  C 
BRANCH 23 24
ATOM     24  CB  HIS C  66      14.934   0.995   5.026  1.00 42.68 LIG 0.09  C 
BRANCH 24 25
ATOM     25  CG  HIS C  66      15.974   1.080   3.951  1.00 48.80 LIG 0.06  A 
ATOM     26 ND1  HIS C  66      16.049   2.134   3.065  1.00 53.13 LIG-0.24  NA
ATOM     27  CE1 HIS C  66      17.061   1.940   2.238  1.00 55.16 LIG 0.23  A 
ATOM     28 NE2  HIS C  66      17.646   0.798   2.555  1.00 53.86 LIG-0.25  NA
ATOM     29  CD2 HIS C  66      16.984   0.241   3.623  1.00 53.41 LIG 0.14  A 
ENDBRANCH 24 25
ENDBRANCH 23 24
BRANCH 23 30
ATOM     30  C   HIS C  66      14.818   2.324   7.149  1.00 41.89 LIG 0.22  C 
ATOM     31 O    HIS C  66      13.851   2.144   7.894  1.00 44.58 LIG-0.29  OA
ENDBRANCH 23 30
ENDBRANCH 20 23
ENDBRANCH 4 19
TORSDOF 9
ENDMDL
MODEL 10
USER: ADFR SOLUTION from run 160
USER: SCORE 10.931524 LL:  -1.673 LR:  -9.259 RR:   0.000 FEB:  -6.574
USER: RMSD 3.921592
USER: SEED 159
USER: STATUS no improvement in best in 11 clusters for 5 generations
USER: GENES 11
USER: genes 0 Translation |==|  0.50976 0.40050 0.59442
USER: genes 1 Rotation |==|  0.77554 0.76304 0.31506 0.76587
USER: genes 2 Torsion [N]-C--CA-[N] |==|  0.24134
USER: genes 3 Torsion [C]-CA--CB-[CG] |==|  0.23905
USER: genes 4 Torsion [CA]-CB--CG-[CD2] |==|  0.42467
USER: genes 5 Torsion [CE2]-CZ--OH-[HH] |==|  0.84293
USER: genes 6 Torsion [N]-CA--C-[N] |==|  0.96861
USER: genes 7 Torsion [C]-N--CA-[C] |==|  0.75749
USER: genes 8 Torsion [N]-CA--CB-[CG] |==|  0.17691
USER: genes 9 Torsion [CA]-CB--CG-[ND1] |==|  0.29186
USER: genes 10 Torsion [N]-CA--C-[O] |==|  0.46509
ROOT
ATOM      1  C   TYR C  64      12.334  -2.316   8.777  1.00 51.57 LIG 0.26  C 
ATOM      2 O    TYR C  64      11.450  -1.470   8.908  1.00 54.62 LIG-0.27  OA
ATOM      3  N   PRO C  65      13.018  -2.468   7.630  1.00 43.10 LIG-0.34  N 
ATOM      4  CA  PRO C  65      14.168  -3.337   7.366  1.00 38.90 LIG 0.18  C 
ATOM      5  CB  PRO C  65      13.907  -3.812   5.943  1.00 40.80 LIG 0.04  C 
ATOM      6  CG  PRO C  65      13.224  -2.651   5.307  1.00 42.19 LIG 0.02  C 
ATOM      7  CD  PRO C  65      12.422  -1.966   6.379  1.00 44.37 LIG 0.13  C 
ENDROOT
BRANCH 1 8
ATOM      8  CA  TYR C  64      12.684  -3.242   9.940  1.00 49.73 LIG 0.40  C 
ATOM      9  N   TYR C  64      13.784  -2.659  10.702  1.00 50.52 LIG 0.61  N 
BRANCH 8 10
ATOM     10  CB  TYR C  64      11.446  -3.427  10.827  1.00 50.46 LIG 0.09  C 
BRANCH 10 11
ATOM     11  CG  TYR C  64      10.498  -4.526  10.402  1.00 47.68 LIG-0.06  A 
ATOM     12  CD2 TYR C  64       9.696  -5.167  11.339  1.00 48.34 LIG 0.01  A 
ATOM     13  CE2 TYR C  64       8.825  -6.174  10.968  1.00 49.15 LIG 0.04  A 
ATOM     14  CZ  TYR C  64       8.746  -6.551   9.643  1.00 50.59 LIG 0.07  A 
ATOM     15  CE1 TYR C  64       9.529  -5.931   8.690  1.00 46.73 LIG 0.04  A 
ATOM     16  CD1 TYR C  64      10.398  -4.923   9.072  1.00 46.22 LIG 0.01  A 
BRANCH 14 17
ATOM     17 OH   TYR C  64       7.881  -7.553   9.267  1.00 53.82 LIG-0.36  OA
ATOM     18 HH   TYR C  64       8.051  -8.250   9.704  1.00 53.82 LIG 0.22  HD
ENDBRANCH 14 17
ENDBRANCH 10 11
ENDBRANCH 8 10
ENDBRANCH 1 8
BRANCH 4 19
ATOM     19  C   PRO C  65      15.487  -2.571   7.417  1.00 37.07 LIG 0.24  C 
ATOM     20  N   HIS C  66      15.383  -1.244   7.451  1.00 40.38 LIG-0.35  N 
ATOM     21 H    HIS C  66      14.634  -0.825   7.409  1.00 40.38 LIG 0.16  HD
ATOM     22 O    PRO C  65      16.568  -3.186   7.414  1.00 29.28 LIG-0.27  OA
BRANCH 20 23
ATOM     23  CA  HIS C  66      16.543  -0.372   7.565  1.00 40.25 LIG 0.17  C 
BRANCH 23 24
ATOM     24  CB  HIS C  66      16.276   0.973   6.875  1.00 42.68 LIG 0.09  C 
BRANCH 24 25
ATOM     25  CG  HIS C  66      15.172   1.769   7.500  1.00 48.80 LIG 0.06  A 
ATOM     26 ND1  HIS C  66      15.402   2.879   8.286  1.00 53.13 LIG-0.24  NA
ATOM     27  CE1 HIS C  66      14.247   3.374   8.694  1.00 55.16 LIG 0.23  A 
ATOM     28 NE2  HIS C  66      13.275   2.626   8.202  1.00 53.86 LIG-0.25  NA
ATOM     29  CD2 HIS C  66      13.828   1.614   7.452  1.00 53.41 LIG 0.14  A 
ENDBRANCH 24 25
ENDBRANCH 23 24
BRANCH 23 30
ATOM     30  C   HIS C  66      16.919  -0.139   9.029  1.00 41.89 LIG 0.22  C 
ATOM     31 O    HIS C  66      17.999   0.376   9.327  1.00 44.58 LIG-0.29  OA
ENDBRANCH 23 30
ENDBRANCH 20 23
ENDBRANCH 4 19
TORSDOF 9
ENDMDL
MODEL 11
USER: ADFR SOLUTION from run 139
USER: SCORE 10.555351 LL:  -1.316 LR:  -9.239 RR:   0.000 FEB:  -6.554
USER: RMSD 2.255351
USER: SEED 138
USER: STATUS no improvement in best in 11 clusters for 5 generations
USER: GENES 11
USER: genes 0 Translation |==|  0.62205 0.35475 0.50960
USER: genes 1 Rotation |==|  0.53107 0.48023 0.51569 0.99839
USER: genes 2 Torsion [N]-C--CA-[N] |==|  0.49460
USER: genes 3 Torsion [C]-CA--CB-[CG] |==|  0.55223
USER: genes 4 Torsion [CA]-CB--CG-[CD2] |==|  0.35509
USER: genes 5 Torsion [CE2]-CZ--OH-[HH] |==|  0.85520
USER: genes 6 Torsion [N]-CA--C-[N] |==|  0.09839
USER: genes 7 Torsion [C]-N--CA-[C] |==|  0.81717
USER: genes 8 Torsion [N]-CA--CB-[CG] |==|  0.39919
USER: genes 9 Torsion [CA]-CB--CG-[ND1] |==|  0.20086
USER: genes 10 Torsion [N]-CA--C-[O] |==|  0.86066
ROOT
ATOM      1  C   TYR C  64      14.439  -3.037   7.250  1.00 51.57 LIG 0.26  C 
ATOM      2 O    TYR C  64      14.441  -3.647   6.180  1.00 54.62 LIG-0.27  OA
ATOM      3  N   PRO C  65      15.571  -2.605   7.831  1.00 43.10 LIG-0.34  N 
ATOM      4  CA  PRO C  65      15.717  -1.768   9.026  1.00 38.90 LIG 0.18  C 
ATOM      5  CB  PRO C  65      16.944  -2.364   9.702  1.00 40.80 LIG 0.04  C 
ATOM      6  CG  PRO C  65      17.783  -2.825   8.561  1.00 42.19 LIG 0.02  C 
ATOM      7  CD  PRO C  65      16.845  -3.247   7.464  1.00 44.37 LIG 0.13  C 
ENDROOT
BRANCH 1 8
ATOM      8  CA  TYR C  64      13.120  -2.751   7.964  1.00 49.73 LIG 0.40  C 
ATOM      9  N   TYR C  64      12.016  -3.257   7.152  1.00 50.52 LIG 0.61  N 
BRANCH 8 10
ATOM     10  CB  TYR C  64      13.135  -3.426   9.340  1.00 50.46 LIG 0.09  C 
BRANCH 10 11
ATOM     11  CG  TYR C  64      11.780  -3.622   9.985  1.00 47.68 LIG-0.06  A 
ATOM     12  CD2 TYR C  64      11.396  -4.874  10.452  1.00 48.34 LIG 0.01  A 
ATOM     13  CE2 TYR C  64      10.161  -5.071  11.042  1.00 49.15 LIG 0.04  A 
ATOM     14  CZ  TYR C  64       9.293  -4.006  11.173  1.00 50.59 LIG 0.07  A 
ATOM     15  CE1 TYR C  64       9.648  -2.751  10.719  1.00 46.73 LIG 0.04  A 
ATOM     16  CD1 TYR C  64      10.887  -2.565  10.130  1.00 46.22 LIG 0.01  A 
BRANCH 14 17
ATOM     17 OH   TYR C  64       8.062  -4.195  11.759  1.00 53.82 LIG-0.36  OA
ATOM     18 HH   TYR C  64       7.668  -4.837  11.385  1.00 53.82 LIG 0.22  HD
ENDBRANCH 14 17
ENDBRANCH 10 11
ENDBRANCH 8 10
ENDBRANCH 1 8
BRANCH 4 19
ATOM     19  C   PRO C  65      15.984  -0.309   8.672  1.00 37.07 LIG 0.24  C 
ATOM     20  N   HIS C  66      15.366   0.145   7.583  1.00 40.38 LIG-0.35  N 
ATOM     21 H    HIS C  66      14.875  -0.347   7.076  1.00 40.38 LIG 0.16  HD
ATOM     22 O    PRO C  65      16.748   0.376   9.376  1.00 29.28 LIG-0.27  OA
BRANCH 20 23
ATOM     23  CA  HIS C  66      15.467   1.530   7.146  1.00 40.25 LIG 0.17  C 
BRANCH 23 24
ATOM     24  CB  HIS C  66      14.822   1.707   5.764  1.00 42.68 LIG 0.09  C 
BRANCH 24 25
ATOM     25  CG  HIS C  66      14.111   3.014   5.589  1.00 48.80 LIG 0.06  A 
ATOM     26 ND1  HIS C  66      14.775   4.215   5.452  1.00 53.13 LIG-0.24  NA
ATOM     27  CE1 HIS C  66      13.895   5.190   5.311  1.00 55.16 LIG 0.23  A 
ATOM     28 NE2  HIS C  66      12.683   4.666   5.352  1.00 53.86 LIG-0.25  NA
ATOM     29  CD2 HIS C  66      12.791   3.306   5.525  1.00 53.41 LIG 0.14  A 
ENDBRANCH 24 25
ENDBRANCH 23 24
BRANCH 23 30
ATOM     30  C   HIS C  66      14.811   2.476   8.151  1.00 41.89 LIG 0.22  C 
ATOM     31 O    HIS C  66      13.668   2.263   8.563  1.00 44.58 LIG-0.29  OA
ENDBRANCH 23 30
ENDBRANCH 20 23
ENDBRANCH 4 19
TORSDOF 9
ENDMDL
MODEL 12
USER: ADFR SOLUTION from run 16
USER: SCORE 10.671526 LL:  -1.446 LR:  -9.226 RR:   0.000 FEB:  -6.541
USER: RMSD 6.617678
USER: SEED 404228
USER: STATUS no improvement in best in 13 clusters for 5 generations
USER: GENES 11
USER: genes 0 Translation |==|  0.74506 0.36678 0.51179
USER: genes 1 Rotation |==|  0.47917 0.21638 0.61566 0.89465
USER: genes 2 Torsion [N]-C--CA-[N] |==|  0.85017
USER: genes 3 Torsion [C]-CA--CB-[CG] |==|  0.26024
USER: genes 4 Torsion [CA]-CB--CG-[CD2] |==|  0.21780
USER: genes 5 Torsion [CE2]-CZ--OH-[HH] |==|  0.56878
USER: genes 6 Torsion [N]-CA--C-[N] |==|  0.39839
USER: genes 7 Torsion [C]-N--CA-[C] |==|  0.23727
USER: genes 8 Torsion [N]-CA--CB-[CG] |==|  0.51673
USER: genes 9 Torsion [CA]-CB--CG-[ND1] |==|  0.76152
USER: genes 10 Torsion [N]-CA--C-[O] |==|  0.98944
ROOT
ATOM      1  C   TYR C  64      16.746  -2.847   7.289  1.00 51.57 LIG 0.26  C 
ATOM      2 O    TYR C  64      17.846  -3.358   7.077  1.00 54.62 LIG-0.27  OA
ATOM      3  N   PRO C  65      16.512  -2.063   8.355  1.00 43.10 LIG-0.34  N 
ATOM      4  CA  PRO C  65      15.304  -1.295   8.671  1.00 38.90 LIG 0.18  C 
ATOM      5  CB  PRO C  65      15.206  -1.436  10.183  1.00 40.80 LIG 0.04  C 
ATOM      6  CG  PRO C  65      16.627  -1.499  10.623  1.00 42.19 LIG 0.02  C 
ATOM      7  CD  PRO C  65      17.401  -2.176   9.525  1.00 44.37 LIG 0.13  C 
ENDROOT
BRANCH 1 8
ATOM      8  CA  TYR C  64      15.588  -3.100   6.326  1.00 49.73 LIG 0.40  C 
ATOM      9  N   TYR C  64      14.443  -3.611   7.077  1.00 50.52 LIG 0.61  N 
BRANCH 8 10
ATOM     10  CB  TYR C  64      15.229  -1.790   5.614  1.00 50.46 LIG 0.09  C 
BRANCH 10 11
ATOM     11  CG  TYR C  64      15.901  -1.570   4.277  1.00 47.68 LIG-0.06  A 
ATOM     12  CD2 TYR C  64      15.434  -2.216   3.138  1.00 48.34 LIG 0.01  A 
ATOM     13  CE2 TYR C  64      16.037  -2.027   1.908  1.00 49.15 LIG 0.04  A 
ATOM     14  CZ  TYR C  64      17.122  -1.181   1.806  1.00 50.59 LIG 0.07  A 
ATOM     15  CE1 TYR C  64      17.607  -0.525   2.920  1.00 46.73 LIG 0.04  A 
ATOM     16  CD1 TYR C  64      16.995  -0.721   4.148  1.00 46.22 LIG 0.01  A 
BRANCH 14 17
ATOM     17 OH   TYR C  64      17.728  -0.988   0.585  1.00 53.82 LIG-0.36  OA
ATOM     18 HH   TYR C  64      18.526  -0.753   0.702  1.00 53.82 LIG 0.22  HD
ENDBRANCH 14 17
ENDBRANCH 10 11
ENDBRANCH 8 10
ENDBRANCH 1 8
BRANCH 4 19
ATOM     19  C   PRO C  65      15.452   0.178   8.302  1.00 37.07 LIG 0.24  C 
ATOM     20  N   HIS C  66      14.356   0.768   7.827  1.00 40.38 LIG-0.35  N 
ATOM     21 H    HIS C  66      13.615   0.355   7.693  1.00 40.38 LIG 0.16  HD
ATOM     22 O    PRO C  65      16.548   0.750   8.440  1.00 29.28 LIG-0.27  OA
BRANCH 20 23
ATOM     23  CA  HIS C  66      14.315   2.183   7.489  1.00 40.25 LIG 0.17  C 
BRANCH 23 24
ATOM     24  CB  HIS C  66      15.151   2.999   8.485  1.00 42.68 LIG 0.09  C 
BRANCH 24 25
ATOM     25  CG  HIS C  66      15.048   4.482   8.294  1.00 48.80 LIG 0.06  A 
ATOM     26 ND1  HIS C  66      15.841   5.179   7.407  1.00 53.13 LIG-0.24  NA
ATOM     27  CE1 HIS C  66      15.526   6.461   7.451  1.00 55.16 LIG 0.23  A 
ATOM     28 NE2  HIS C  66      14.557   6.623   8.335  1.00 53.86 LIG-0.25  NA
ATOM     29  CD2 HIS C  66      14.241   5.399   8.877  1.00 53.41 LIG 0.14  A 
ENDBRANCH 24 25
ENDBRANCH 23 24
BRANCH 23 30
ATOM     30  C   HIS C  66      14.819   2.426   6.066  1.00 41.89 LIG 0.22  C 
ATOM     31 O    HIS C  66      15.259   1.496   5.386  1.00 44.58 LIG-0.29  OA
ENDBRANCH 23 30
ENDBRANCH 20 23
ENDBRANCH 4 19
TORSDOF 9
ENDMDL
MODEL 13
USER: ADFR SOLUTION from run 168
USER: SCORE 10.643466 LL:  -1.443 LR:  -9.201 RR:   0.000 FEB:  -6.516
USER: RMSD 2.638410
USER: SEED 167
USER: STATUS no improvement in best in 9 clusters for 5 generations
USER: GENES 11
USER: genes 0 Translation |==|  0.67891 0.35887 0.51253
USER: genes 1 Rotation |==|  0.45943 0.33662 0.58569 0.96294
USER: genes 2 Torsion [N]-C--CA-[N] |==|  0.53222
USER: genes 3 Torsion [C]-CA--CB-[CG] |==|  0.37270
USER: genes 4 Torsion [CA]-CB--CG-[CD2] |==|  0.93642
USER: genes 5 Torsion [CE2]-CZ--OH-[HH] |==|  0.71897
USER: genes 6 Torsion [N]-CA--C-[N] |==|  0.20883
USER: genes 7 Torsion [C]-N--CA-[C] |==|  0.79699
USER: genes 8 Torsion [N]-CA--CB-[CG] |==|  0.53010
USER: genes 9 Torsion [CA]-CB--CG-[ND1] |==|  0.93566
USER: genes 10 Torsion [N]-CA--C-[O] |==|  0.99843
ROOT
ATOM      1  C   TYR C  64      15.506  -2.972   7.303  1.00 51.57 LIG 0.26  C 
ATOM      2 O    TYR C  64      16.232  -3.736   6.666  1.00 54.62 LIG-0.27  OA
ATOM      3  N   PRO C  65      15.991  -2.119   8.221  1.00 43.10 LIG-0.34  N 
ATOM      4  CA  PRO C  65      15.274  -1.076   8.961  1.00 38.90 LIG 0.18  C 
ATOM      5  CB  PRO C  65      15.922  -1.139  10.337  1.00 40.80 LIG 0.04  C 
ATOM      6  CG  PRO C  65      17.331  -1.523  10.044  1.00 42.19 LIG 0.02  C 
ATOM      7  CD  PRO C  65      17.306  -2.401   8.823  1.00 44.37 LIG 0.13  C 
ENDROOT
BRANCH 1 8
ATOM      8  CA  TYR C  64      13.997  -2.975   7.063  1.00 49.73 LIG 0.40  C 
ATOM      9  N   TYR C  64      13.643  -4.137   6.251  1.00 50.52 LIG 0.61  N 
BRANCH 8 10
ATOM     10  CB  TYR C  64      13.272  -3.015   8.413  1.00 50.46 LIG 0.09  C 
BRANCH 10 11
ATOM     11  CG  TYR C  64      12.120  -2.046   8.563  1.00 47.68 LIG-0.06  A 
ATOM     12  CD2 TYR C  64      12.052  -0.903   7.775  1.00 48.34 LIG 0.01  A 
ATOM     13  CE2 TYR C  64      11.007  -0.007   7.900  1.00 49.15 LIG 0.04  A 
ATOM     14  CZ  TYR C  64      10.010  -0.249   8.822  1.00 50.59 LIG 0.07  A 
ATOM     15  CE1 TYR C  64      10.050  -1.377   9.618  1.00 46.73 LIG 0.04  A 
ATOM     16  CD1 TYR C  64      11.101  -2.269   9.485  1.00 46.22 LIG 0.01  A 
BRANCH 14 17
ATOM     17 OH   TYR C  64       8.966   0.639   8.952  1.00 53.82 LIG-0.36  OA
ATOM     18 HH   TYR C  64       9.094   1.125   9.626  1.00 53.82 LIG 0.22  HD
ENDBRANCH 14 17
ENDBRANCH 10 11
ENDBRANCH 8 10
ENDBRANCH 1 8
BRANCH 4 19
ATOM     19  C   PRO C  65      15.493   0.306   8.354  1.00 37.07 LIG 0.24  C 
ATOM     20  N   HIS C  66      14.830   0.554   7.226  1.00 40.38 LIG-0.35  N 
ATOM     21 H    HIS C  66      14.336  -0.026   6.828  1.00 40.38 LIG 0.16  HD
ATOM     22 O    PRO C  65      16.261   1.116   8.903  1.00 29.28 LIG-0.27  OA
BRANCH 20 23
ATOM     23  CA  HIS C  66      14.882   1.846   6.556  1.00 40.25 LIG 0.17  C 
BRANCH 23 24
ATOM     24  CB  HIS C  66      14.353   1.730   5.120  1.00 42.68 LIG 0.09  C 
BRANCH 24 25
ATOM     25  CG  HIS C  66      14.606   2.943   4.278  1.00 48.80 LIG 0.06  A 
ATOM     26 ND1  HIS C  66      14.815   4.196   4.816  1.00 53.13 LIG-0.24  NA
ATOM     27  CE1 HIS C  66      15.013   5.064   3.840  1.00 55.16 LIG 0.23  A 
ATOM     28 NE2  HIS C  66      14.939   4.421   2.688  1.00 53.86 LIG-0.25  NA
ATOM     29  CD2 HIS C  66      14.685   3.092   2.935  1.00 53.41 LIG 0.14  A 
ENDBRANCH 24 25
ENDBRANCH 23 24
BRANCH 23 30
ATOM     30  C   HIS C  66      14.080   2.898   7.322  1.00 41.89 LIG 0.22  C 
ATOM     31 O    HIS C  66      13.485   2.603   8.361  1.00 44.58 LIG-0.29  OA
ENDBRANCH 23 30
ENDBRANCH 20 23
ENDBRANCH 4 19
TORSDOF 9
ENDMDL
MODEL 14
USER: ADFR SOLUTION from run 153
USER: SCORE 10.579366 LL:  -1.417 LR:  -9.162 RR:   0.000 FEB:  -6.478
USER: RMSD 6.301663
USER: SEED 152
USER: STATUS no improvement in best in 10 clusters for 5 generations
USER: GENES 11
USER: genes 0 Translation |==|  0.73943 0.35957 0.51092
USER: genes 1 Rotation |==|  0.45119 0.22075 0.58772 0.90242
USER: genes 2 Torsion [N]-C--CA-[N] |==|  0.83670
USER: genes 3 Torsion [C]-CA--CB-[CG] |==|  0.26125
USER: genes 4 Torsion [CA]-CB--CG-[CD2] |==|  0.18142
USER: genes 5 Torsion [CE2]-CZ--OH-[HH] |==|  0.69463
USER: genes 6 Torsion [N]-CA--C-[N] |==|  0.35570
USER: genes 7 Torsion [C]-N--CA-[C] |==|  0.84690
USER: genes 8 Torsion [N]-CA--CB-[CG] |==|  0.11094
USER: genes 9 Torsion [CA]-CB--CG-[ND1] |==|  0.11599
USER: genes 10 Torsion [N]-CA--C-[O] |==|  0.50060
ROOT
ATOM      1  C   TYR C  64      16.640  -2.961   7.274  1.00 51.57 LIG 0.26  C 
ATOM      2 O    TYR C  64      17.645  -3.645   7.077  1.00 54.62 LIG-0.27  OA
ATOM      3  N   PRO C  65      16.537  -2.120   8.317  1.00 43.10 LIG-0.34  N 
ATOM      4  CA  PRO C  65      15.468  -1.161   8.610  1.00 38.90 LIG 0.18  C 
ATOM      5  CB  PRO C  65      15.353  -1.244  10.125  1.00 40.80 LIG 0.04  C 
ATOM      6  CG  PRO C  65      16.748  -1.520  10.568  1.00 42.19 LIG 0.02  C 
ATOM      7  CD  PRO C  65      17.401  -2.341   9.491  1.00 44.37 LIG 0.13  C 
ENDROOT
BRANCH 1 8
ATOM      8  CA  TYR C  64      15.454  -3.053   6.316  1.00 49.73 LIG 0.40  C 
ATOM      9  N   TYR C  64      14.268  -3.467   7.062  1.00 50.52 LIG 0.61  N 
BRANCH 8 10
ATOM     10  CB  TYR C  64      15.230  -1.686   5.658  1.00 50.46 LIG 0.09  C 
BRANCH 10 11
ATOM     11  CG  TYR C  64      15.904  -1.491   4.317  1.00 47.68 LIG-0.06  A 
ATOM     12  CD2 TYR C  64      15.519  -2.250   3.217  1.00 48.34 LIG 0.01  A 
ATOM     13  CE2 TYR C  64      16.125  -2.085   1.986  1.00 49.15 LIG 0.04  A 
ATOM     14  CZ  TYR C  64      17.129  -1.150   1.841  1.00 50.59 LIG 0.07  A 
ATOM     15  CE1 TYR C  64      17.531  -0.381   2.916  1.00 46.73 LIG 0.04  A 
ATOM     16  CD1 TYR C  64      16.918  -0.553   4.145  1.00 46.22 LIG 0.01  A 
BRANCH 14 17
ATOM     17 OH   TYR C  64      17.737  -0.981   0.618  1.00 53.82 LIG-0.36  OA
ATOM     18 HH   TYR C  64      18.525  -1.271   0.654  1.00 53.82 LIG 0.22  HD
ENDBRANCH 14 17
ENDBRANCH 10 11
ENDBRANCH 8 10
ENDBRANCH 1 8
BRANCH 4 19
ATOM     19  C   PRO C  65      15.847   0.259   8.200  1.00 37.07 LIG 0.24  C 
ATOM     20  N   HIS C  66      14.967   0.892   7.427  1.00 40.38 LIG-0.35  N 
ATOM     21 H    HIS C  66      14.245   0.529   7.134  1.00 40.38 LIG 0.16  HD
ATOM     22 O    PRO C  65      16.926   0.751   8.577  1.00 29.28 LIG-0.27  OA
BRANCH 20 23
ATOM     23  CA  HIS C  66      15.151   2.272   7.003  1.00 40.25 LIG 0.17  C 
BRANCH 23 24
ATOM     24  CB  HIS C  66      13.947   2.746   6.176  1.00 42.68 LIG 0.09  C 
BRANCH 24 25
ATOM     25  CG  HIS C  66      12.625   2.270   6.698  1.00 48.80 LIG 0.06  A 
ATOM     26 ND1  HIS C  66      12.315   2.251   8.042  1.00 53.13 LIG-0.24  NA
ATOM     27  CE1 HIS C  66      11.088   1.788   8.202  1.00 55.16 LIG 0.23  A 
ATOM     28 NE2  HIS C  66      10.590   1.506   7.011  1.00 53.86 LIG-0.25  NA
ATOM     29  CD2 HIS C  66      11.533   1.798   6.053  1.00 53.41 LIG 0.14  A 
ENDBRANCH 24 25
ENDBRANCH 23 24
BRANCH 23 30
ATOM     30  C   HIS C  66      15.354   3.197   8.202  1.00 41.89 LIG 0.22  C 
ATOM     31 O    HIS C  66      15.522   4.409   8.042  1.00 44.58 LIG-0.29  OA
ENDBRANCH 23 30
ENDBRANCH 20 23
ENDBRANCH 4 19
TORSDOF 9
ENDMDL
MODEL 15
USER: ADFR SOLUTION from run 142
USER: SCORE 10.750405 LL:  -1.615 LR:  -9.136 RR:   0.000 FEB:  -6.451
USER: RMSD 2.916500
USER: SEED 141
USER: STATUS no improvement in best in 7 clusters for 5 generations
USER: GENES 11
USER: genes 0 Translation |==|  0.57538 0.36316 0.57719
USER: genes 1 Rotation |==|  0.48516 0.54338 0.47392 0.99721
USER: genes 2 Torsion [N]-C--CA-[N] |==|  0.40858
USER: genes 3 Torsion [C]-CA--CB-[CG] |==|  0.75192
USER: genes 4 Torsion [CA]-CB--CG-[CD2] |==|  0.59649
USER: genes 5 Torsion [CE2]-CZ--OH-[HH] |==|  0.74492
USER: genes 6 Torsion [N]-CA--C-[N] |==|  0.08069
USER: genes 7 Torsion [C]-N--CA-[C] |==|  0.85848
USER: genes 8 Torsion [N]-CA--CB-[CG] |==|  0.13089
USER: genes 9 Torsion [CA]-CB--CG-[ND1] |==|  0.10715
USER: genes 10 Torsion [N]-CA--C-[O] |==|  0.88273
ROOT
ATOM      1  C   TYR C  64      13.564  -2.904   8.466  1.00 51.57 LIG 0.26  C 
ATOM      2 O    TYR C  64      13.200  -3.669   7.573  1.00 54.62 LIG-0.27  OA
ATOM      3  N   PRO C  65      14.857  -2.594   8.663  1.00 43.10 LIG-0.34  N 
ATOM      4  CA  PRO C  65      15.425  -1.616   9.595  1.00 38.90 LIG 0.18  C 
ATOM      5  CB  PRO C  65      16.698  -2.305  10.066  1.00 40.80 LIG 0.04  C 
ATOM      6  CG  PRO C  65      17.134  -3.087   8.876  1.00 42.19 LIG 0.02  C 
ATOM      7  CD  PRO C  65      15.890  -3.505   8.140  1.00 44.37 LIG 0.13  C 
ENDROOT
BRANCH 1 8
ATOM      8  CA  TYR C  64      12.533  -2.276   9.401  1.00 49.73 LIG 0.40  C 
ATOM      9  N   TYR C  64      11.293  -2.049   8.663  1.00 50.52 LIG 0.61  N 
BRANCH 8 10
ATOM     10  CB  TYR C  64      12.292  -3.213  10.590  1.00 50.46 LIG 0.09  C 
BRANCH 10 11
ATOM     11  CG  TYR C  64      11.198  -4.241  10.399  1.00 47.68 LIG-0.06  A 
ATOM     12  CD2 TYR C  64      10.400  -4.629  11.469  1.00 48.34 LIG 0.01  A 
ATOM     13  CE2 TYR C  64       9.397  -5.567  11.312  1.00 49.15 LIG 0.04  A 
ATOM     14  CZ  TYR C  64       9.181  -6.130  10.071  1.00 50.59 LIG 0.07  A 
ATOM     15  CE1 TYR C  64       9.957  -5.763   8.990  1.00 46.73 LIG 0.04  A 
ATOM     16  CD1 TYR C  64      10.960  -4.822   9.158  1.00 46.22 LIG 0.01  A 
BRANCH 14 17
ATOM     17 OH   TYR C  64       8.184  -7.065   9.908  1.00 53.82 LIG-0.36  OA
ATOM     18 HH   TYR C  64       8.500  -7.835  10.023  1.00 53.82 LIG 0.22  HD
ENDBRANCH 14 17
ENDBRANCH 10 11
ENDBRANCH 8 10
ENDBRANCH 1 8
BRANCH 4 19
ATOM     19  C   PRO C  65      15.779  -0.304   8.901  1.00 37.07 LIG 0.24  C 
ATOM     20  N   HIS C  66      15.038   0.005   7.838  1.00 40.38 LIG-0.35  N 
ATOM     21 H    HIS C  66      14.422  -0.505   7.524  1.00 40.38 LIG 0.16  HD
ATOM     22 O    PRO C  65      16.715   0.396   9.326  1.00 29.28 LIG-0.27  OA
BRANCH 20 23
ATOM     23  CA  HIS C  66      15.207   1.251   7.104  1.00 40.25 LIG 0.17  C 
BRANCH 23 24
ATOM     24  CB  HIS C  66      14.110   1.402   6.041  1.00 42.68 LIG 0.09  C 
BRANCH 24 25
ATOM     25  CG  HIS C  66      12.729   1.117   6.547  1.00 48.80 LIG 0.06  A 
ATOM     26 ND1  HIS C  66      12.299   1.496   7.801  1.00 53.13 LIG-0.24  NA
ATOM     27  CE1 HIS C  66      11.044   1.116   7.968  1.00 55.16 LIG 0.23  A 
ATOM     28 NE2  HIS C  66      10.644   0.503   6.868  1.00 53.86 LIG-0.25  NA
ATOM     29  CD2 HIS C  66      11.680   0.490   5.964  1.00 53.41 LIG 0.14  A 
ENDBRANCH 24 25
ENDBRANCH 23 24
BRANCH 23 30
ATOM     30  C   HIS C  66      15.187   2.455   8.045  1.00 41.89 LIG 0.22  C 
ATOM     31 O    HIS C  66      14.371   2.519   8.968  1.00 44.58 LIG-0.29  OA
ENDBRANCH 23 30
ENDBRANCH 20 23
ENDBRANCH 4 19
TORSDOF 9
ENDMDL
MODEL 16
USER: ADFR SOLUTION from run 165
USER: SCORE 10.343830 LL:  -1.305 LR:  -9.039 RR:   0.000 FEB:  -6.354
USER: RMSD 2.948788
USER: SEED 164
USER: STATUS no improvement in best in 8 clusters for 5 generations
USER: GENES 11
USER: genes 0 Translation |==|  0.63797 0.32183 0.60108
USER: genes 1 Rotation |==|  0.28065 0.39678 0.57894 0.93012
USER: genes 2 Torsion [N]-C--CA-[N] |==|  0.31184
USER: genes 3 Torsion [C]-CA--CB-[CG] |==|  0.40555
USER: genes 4 Torsion [CA]-CB--CG-[CD2] |==|  0.93881
USER: genes 5 Torsion [CE2]-CZ--OH-[HH] |==|  0.55628
USER: genes 6 Torsion [N]-CA--C-[N] |==|  0.23968
USER: genes 7 Torsion [C]-N--CA-[C] |==|  0.15717
USER: genes 8 Torsion [N]-CA--CB-[CG] |==|  0.96695
USER: genes 9 Torsion [CA]-CB--CG-[ND1] |==|  0.32235
USER: genes 10 Torsion [N]-CA--C-[O] |==|  0.58250
ROOT
ATOM      1  C   TYR C  64      14.738  -3.555   8.897  1.00 51.57 LIG 0.26  C 
ATOM      2 O    TYR C  64      15.183  -4.702   8.952  1.00 54.62 LIG-0.27  OA
ATOM      3  N   PRO C  65      15.522  -2.473   9.041  1.00 43.10 LIG-0.34  N 
ATOM      4  CA  PRO C  65      15.161  -1.062   8.878  1.00 38.90 LIG 0.18  C 
ATOM      5  CB  PRO C  65      15.967  -0.384   9.978  1.00 40.80 LIG 0.04  C 
ATOM      6  CG  PRO C  65      17.203  -1.210  10.067  1.00 42.19 LIG 0.02  C 
ATOM      7  CD  PRO C  65      16.815  -2.624   9.730  1.00 44.37 LIG 0.13  C 
ENDROOT
BRANCH 1 8
ATOM      8  CA  TYR C  64      13.247  -3.325   8.660  1.00 49.73 LIG 0.40  C 
ATOM      9  N   TYR C  64      12.906  -3.749   7.303  1.00 50.52 LIG 0.61  N 
BRANCH 8 10
ATOM     10  CB  TYR C  64      12.443  -4.122   9.695  1.00 50.46 LIG 0.09  C 
BRANCH 10 11
ATOM     11  CG  TYR C  64      11.155  -3.477  10.156  1.00 47.68 LIG-0.06  A 
ATOM     12  CD2 TYR C  64      10.970  -2.105  10.034  1.00 48.34 LIG 0.01  A 
ATOM     13  CE2 TYR C  64       9.800  -1.499  10.452  1.00 49.15 LIG 0.04  A 
ATOM     14  CZ  TYR C  64       8.794  -2.269  11.000  1.00 50.59 LIG 0.07  A 
ATOM     15  CE1 TYR C  64       8.949  -3.635  11.132  1.00 46.73 LIG 0.04  A 
ATOM     16  CD1 TYR C  64      10.125  -4.232  10.710  1.00 46.22 LIG 0.01  A 
BRANCH 14 17
ATOM     17 OH   TYR C  64       7.626  -1.672  11.418  1.00 53.82 LIG-0.36  OA
ATOM     18 HH   TYR C  64       7.233  -2.177  11.964  1.00 53.82 LIG 0.22  HD
ENDBRANCH 14 17
ENDBRANCH 10 11
ENDBRANCH 8 10
ENDBRANCH 1 8
BRANCH 4 19
ATOM     19  C   PRO C  65      15.587  -0.517   7.519  1.00 37.07 LIG 0.24  C 
ATOM     20  N   HIS C  66      14.722  -0.703   6.524  1.00 40.38 LIG-0.35  N 
ATOM     21 H    HIS C  66      13.983  -1.133   6.612  1.00 40.38 LIG 0.16  HD
ATOM     22 O    PRO C  65      16.688   0.048   7.389  1.00 29.28 LIG-0.27  OA
BRANCH 20 23
ATOM     23  CA  HIS C  66      14.951  -0.188   5.182  1.00 40.25 LIG 0.17  C 
BRANCH 23 24
ATOM     24  CB  HIS C  66      14.940   1.348   5.185  1.00 42.68 LIG 0.09  C 
BRANCH 24 25
ATOM     25  CG  HIS C  66      14.428   1.950   6.459  1.00 48.80 LIG 0.06  A 
ATOM     26 ND1  HIS C  66      15.213   2.722   7.289  1.00 53.13 LIG-0.24  NA
ATOM     27  CE1 HIS C  66      14.497   3.116   8.327  1.00 55.16 LIG 0.23  A 
ATOM     28 NE2  HIS C  66      13.276   2.626   8.202  1.00 53.86 LIG-0.25  NA
ATOM     29  CD2 HIS C  66      13.208   1.892   7.041  1.00 53.41 LIG 0.14  A 
ENDBRANCH 24 25
ENDBRANCH 23 24
BRANCH 23 30
ATOM     30  C   HIS C  66      16.276  -0.696   4.614  1.00 41.89 LIG 0.22  C 
ATOM     31 O    HIS C  66      16.914  -0.019   3.804  1.00 44.58 LIG-0.29  OA
ENDBRANCH 23 30
ENDBRANCH 20 23
ENDBRANCH 4 19
TORSDOF 9
ENDMDL
MODEL 17
USER: ADFR SOLUTION from run 103
USER: SCORE 10.474397 LL:  -1.474 LR:  -9.001 RR:   0.000 FEB:  -6.316
USER: RMSD 5.311092
USER: SEED 102
USER: STATUS no improvement in best in 10 clusters for 5 generations
USER: GENES 11
USER: genes 0 Translation |==|  0.52237 0.36216 0.66846
USER: genes 1 Rotation |==|  0.33961 0.07814 0.69728 0.58596
USER: genes 2 Torsion [N]-C--CA-[N] |==|  0.07764
USER: genes 3 Torsion [C]-CA--CB-[CG] |==|  0.82366
USER: genes 4 Torsion [CA]-CB--CG-[CD2] |==|  0.20579
USER: genes 5 Torsion [CE2]-CZ--OH-[HH] |==|  0.20941
USER: genes 6 Torsion [N]-CA--C-[N] |==|  0.09567
USER: genes 7 Torsion [C]-N--CA-[C] |==|  0.16108
USER: genes 8 Torsion [N]-CA--CB-[CG] |==|  0.91668
USER: genes 9 Torsion [CA]-CB--CG-[ND1] |==|  0.81284
USER: genes 10 Torsion [N]-CA--C-[O] |==|  0.25636
ROOT
ATOM      1  C   TYR C  64      12.570  -2.920  10.109  1.00 51.57 LIG 0.26  C 
ATOM      2 O    TYR C  64      12.895  -2.812  11.292  1.00 54.62 LIG-0.27  OA
ATOM      3  N   PRO C  65      11.623  -2.147   9.552  1.00 43.10 LIG-0.34  N 
ATOM      4  CA  PRO C  65      11.221  -2.075   8.144  1.00 38.90 LIG 0.18  C 
ATOM      5  CB  PRO C  65       9.714  -1.882   8.238  1.00 40.80 LIG 0.04  C 
ATOM      6  CG  PRO C  65       9.540  -1.084   9.484  1.00 42.19 LIG 0.02  C 
ATOM      7  CD  PRO C  65      10.635  -1.495  10.429  1.00 44.37 LIG 0.13  C 
ENDROOT
BRANCH 1 8
ATOM      8  CA  TYR C  64      13.248  -3.963   9.223  1.00 49.73 LIG 0.40  C 
ATOM      9  N   TYR C  64      13.225  -3.502   7.837  1.00 50.52 LIG 0.61  N 
BRANCH 8 10
ATOM     10  CB  TYR C  64      14.690  -4.171   9.702  1.00 50.46 LIG 0.09  C 
BRANCH 10 11
ATOM     11  CG  TYR C  64      15.594  -2.962   9.594  1.00 47.68 LIG-0.06  A 
ATOM     12  CD2 TYR C  64      15.460  -1.900  10.480  1.00 48.34 LIG 0.01  A 
ATOM     13  CE2 TYR C  64      16.277  -0.788  10.395  1.00 49.15 LIG 0.04  A 
ATOM     14  CZ  TYR C  64      17.244  -0.729   9.412  1.00 50.59 LIG 0.07  A 
ATOM     15  CE1 TYR C  64      17.400  -1.770   8.518  1.00 46.73 LIG 0.04  A 
ATOM     16  CD1 TYR C  64      16.578  -2.880   8.613  1.00 46.22 LIG 0.01  A 
BRANCH 14 17
ATOM     17 OH   TYR C  64      18.060   0.376   9.321  1.00 53.82 LIG-0.36  OA
ATOM     18 HH   TYR C  64      18.635   0.351   9.933  1.00 53.82 LIG 0.22  HD
ENDBRANCH 14 17
ENDBRANCH 10 11
ENDBRANCH 8 10
ENDBRANCH 1 8
BRANCH 4 19
ATOM     19  C   PRO C  65      11.848  -0.881   7.431  1.00 37.07 LIG 0.24  C 
ATOM     20  N   HIS C  66      13.076  -0.551   7.827  1.00 40.38 LIG-0.35  N 
ATOM     21 H    HIS C  66      13.491  -0.947   8.467  1.00 40.38 LIG 0.16  HD
ATOM     22 O    PRO C  65      11.213  -0.275   6.550  1.00 29.28 LIG-0.27  OA
BRANCH 20 23
ATOM     23  CA  HIS C  66      13.836   0.523   7.204  1.00 40.25 LIG 0.17  C 
BRANCH 23 24
ATOM     24  CB  HIS C  66      14.143   0.185   5.738  1.00 42.68 LIG 0.09  C 
BRANCH 24 25
ATOM     25  CG  HIS C  66      14.276  -1.282   5.467  1.00 48.80 LIG 0.06  A 
ATOM     26 ND1  HIS C  66      15.311  -2.044   5.968  1.00 53.13 LIG-0.24  NA
ATOM     27  CE1 HIS C  66      15.167  -3.296   5.569  1.00 55.16 LIG 0.23  A 
ATOM     28 NE2  HIS C  66      14.077  -3.374   4.827  1.00 53.86 LIG-0.25  NA
ATOM     29  CD2 HIS C  66      13.502  -2.127   4.747  1.00 53.41 LIG 0.14  A 
ENDBRANCH 24 25
ENDBRANCH 23 24
BRANCH 23 30
ATOM     30  C   HIS C  66      13.083   1.851   7.284  1.00 41.89 LIG 0.22  C 
ATOM     31 O    HIS C  66      13.272   2.626   8.225  1.00 44.58 LIG-0.29  OA
ENDBRANCH 23 30
ENDBRANCH 20 23
ENDBRANCH 4 19
TORSDOF 9
ENDMDL
MODEL 18
USER: ADFR SOLUTION from run 160
USER: SCORE 10.321360 LL:  -1.417 LR:  -8.904 RR:   0.000 FEB:  -6.220
USER: RMSD 4.044761
USER: SEED 159
USER: STATUS no improvement in best in 11 clusters for 5 generations
USER: GENES 11
USER: genes 0 Translation |==|  0.48458 0.40827 0.60294
USER: genes 1 Rotation |==|  0.75300 0.84170 0.38188 0.73511
USER: genes 2 Torsion [N]-C--CA-[N] |==|  0.19549
USER: genes 3 Torsion [C]-CA--CB-[CG] |==|  0.21310
USER: genes 4 Torsion [CA]-CB--CG-[CD2] |==|  0.49790
USER: genes 5 Torsion [CE2]-CZ--OH-[HH] |==|  0.77564
USER: genes 6 Torsion [N]-CA--C-[N] |==|  0.14417
USER: genes 7 Torsion [C]-N--CA-[C] |==|  0.17406
USER: genes 8 Torsion [N]-CA--CB-[CG] |==|  0.94463
USER: genes 9 Torsion [CA]-CB--CG-[ND1] |==|  0.86600
USER: genes 10 Torsion [N]-CA--C-[O] |==|  0.13467
ROOT
ATOM      1  C   TYR C  64      11.862  -2.194   8.930  1.00 51.57 LIG 0.26  C 
ATOM      2 O    TYR C  64      10.801  -1.744   9.363  1.00 54.62 LIG-0.27  OA
ATOM      3  N   PRO C  65      12.369  -1.820   7.743  1.00 43.10 LIG-0.34  N 
ATOM      4  CA  PRO C  65      13.666  -2.171   7.158  1.00 38.90 LIG 0.18  C 
ATOM      5  CB  PRO C  65      13.332  -2.331   5.681  1.00 40.80 LIG 0.04  C 
ATOM      6  CG  PRO C  65      12.247  -1.336   5.457  1.00 42.19 LIG 0.02  C 
ATOM      7  CD  PRO C  65      11.460  -1.244   6.736  1.00 44.37 LIG 0.13  C 
ENDROOT
BRANCH 1 8
ATOM      8  CA  TYR C  64      12.648  -3.216   9.748  1.00 49.73 LIG 0.40  C 
ATOM      9  N   TYR C  64      13.868  -2.590  10.253  1.00 50.52 LIG 0.61  N 
BRANCH 8 10
ATOM     10  CB  TYR C  64      11.775  -3.715  10.905  1.00 50.46 LIG 0.09  C 
BRANCH 10 11
ATOM     11  CG  TYR C  64      10.705  -4.716  10.530  1.00 47.68 LIG-0.06  A 
ATOM     12  CD2 TYR C  64       9.864  -5.248  11.501  1.00 48.34 LIG 0.01  A 
ATOM     13  CE2 TYR C  64       8.882  -6.165  11.175  1.00 49.15 LIG 0.04  A 
ATOM     14  CZ  TYR C  64       8.729  -6.560   9.862  1.00 50.59 LIG 0.07  A 
ATOM     15  CE1 TYR C  64       9.549  -6.047   8.876  1.00 46.73 LIG 0.04  A 
ATOM     16  CD1 TYR C  64      10.530  -5.129   9.213  1.00 46.22 LIG 0.01  A 
BRANCH 14 17
ATOM     17 OH   TYR C  64       7.754  -7.473   9.531  1.00 53.82 LIG-0.36  OA
ATOM     18 HH   TYR C  64       8.026  -8.249   9.702  1.00 53.82 LIG 0.22  HD
ENDBRANCH 14 17
ENDBRANCH 10 11
ENDBRANCH 8 10
ENDBRANCH 1 8
BRANCH 4 19
ATOM     19  C   PRO C  65      14.692  -1.056   7.334  1.00 37.07 LIG 0.24  C 
ATOM     20  N   HIS C  66      14.844  -0.602   8.576  1.00 40.38 LIG-0.35  N 
ATOM     21 H    HIS C  66      14.378  -0.878   9.243  1.00 40.38 LIG 0.16  HD
ATOM     22 O    PRO C  65      15.317  -0.620   6.351  1.00 29.28 LIG-0.27  OA
BRANCH 20 23
ATOM     23  CA  HIS C  66      15.827   0.415   8.922  1.00 40.25 LIG 0.17  C 
BRANCH 23 24
ATOM     24  CB  HIS C  66      17.244  -0.066   8.577  1.00 42.68 LIG 0.09  C 
BRANCH 24 25
ATOM     25  CG  HIS C  66      17.363  -1.553   8.433  1.00 48.80 LIG 0.06  A 
ATOM     26 ND1  HIS C  66      16.853  -2.437   9.360  1.00 53.13 LIG-0.24  NA
ATOM     27  CE1 HIS C  66      17.104  -3.674   8.970  1.00 55.16 LIG 0.23  A 
ATOM     28 NE2  HIS C  66      17.759  -3.625   7.824  1.00 53.86 LIG-0.25  NA
ATOM     29  CD2 HIS C  66      17.935  -2.309   7.467  1.00 53.41 LIG 0.14  A 
ENDBRANCH 24 25
ENDBRANCH 23 24
BRANCH 23 30
ATOM     30  C   HIS C  66      15.536   1.732   8.202  1.00 41.89 LIG 0.22  C 
ATOM     31 O    HIS C  66      14.401   2.215   8.207  1.00 44.58 LIG-0.29  OA
ENDBRANCH 23 30
ENDBRANCH 20 23
ENDBRANCH 4 19
TORSDOF 9
ENDMDL
MODEL 19
USER: ADFR SOLUTION from run 92
USER: SCORE 10.648196 LL:  -1.858 LR:  -8.790 RR:   0.000 FEB:  -6.105
USER: RMSD 7.170076
USER: SEED 91
USER: STATUS no improvement in best in 12 clusters for 5 generations
USER: GENES 11
USER: genes 0 Translation |==|  0.58885 0.45190 0.40677
USER: genes 1 Rotation |==|  0.79089 0.81546 0.74808 0.56572
USER: genes 2 Torsion [N]-C--CA-[N] |==|  0.39881
USER: genes 3 Torsion [C]-CA--CB-[CG] |==|  0.19267
USER: genes 4 Torsion [CA]-CB--CG-[CD2] |==|  0.73611
USER: genes 5 Torsion [CE2]-CZ--OH-[HH] |==|  0.24503
USER: genes 6 Torsion [N]-CA--C-[N] |==|  0.17945
USER: genes 7 Torsion [C]-N--CA-[C] |==|  0.86751
USER: genes 8 Torsion [N]-CA--CB-[CG] |==|  0.16912
USER: genes 9 Torsion [CA]-CB--CG-[ND1] |==|  0.38764
USER: genes 10 Torsion [N]-CA--C-[O] |==|  0.97453
ROOT
ATOM      1  C   TYR C  64      13.817  -1.507   5.399  1.00 51.57 LIG 0.26  C 
ATOM      2 O    TYR C  64      12.680  -1.952   5.241  1.00 54.62 LIG-0.27  OA
ATOM      3  N   PRO C  65      14.050  -0.335   6.015  1.00 43.10 LIG-0.34  N 
ATOM      4  CA  PRO C  65      15.339   0.258   6.382  1.00 38.90 LIG 0.18  C 
ATOM      5  CB  PRO C  65      15.108   1.740   6.124  1.00 40.80 LIG 0.04  C 
ATOM      6  CG  PRO C  65      13.667   1.932   6.446  1.00 42.19 LIG 0.02  C 
ATOM      7  CD  PRO C  65      12.960   0.653   6.090  1.00 44.37 LIG 0.13  C 
ENDROOT
BRANCH 1 8
ATOM      8  CA  TYR C  64      15.022  -2.290   4.884  1.00 49.73 LIG 0.40  C 
ATOM      9  N   TYR C  64      14.778  -3.719   5.063  1.00 50.52 LIG 0.61  N 
BRANCH 8 10
ATOM     10  CB  TYR C  64      15.243  -1.959   3.402  1.00 50.46 LIG 0.09  C 
BRANCH 10 11
ATOM     11  CG  TYR C  64      15.727  -0.555   3.113  1.00 47.68 LIG-0.06  A 
ATOM     12  CD2 TYR C  64      14.823   0.451   2.791  1.00 48.34 LIG 0.01  A 
ATOM     13  CE2 TYR C  64      15.249   1.738   2.523  1.00 49.15 LIG 0.04  A 
ATOM     14  CZ  TYR C  64      16.595   2.034   2.577  1.00 50.59 LIG 0.07  A 
ATOM     15  CE1 TYR C  64      17.516   1.056   2.896  1.00 46.73 LIG 0.04  A 
ATOM     16  CD1 TYR C  64      17.080  -0.231   3.163  1.00 46.22 LIG 0.01  A 
BRANCH 14 17
ATOM     17 OH   TYR C  64      17.026   3.314   2.311  1.00 53.82 LIG-0.36  OA
ATOM     18 HH   TYR C  64      17.019   3.765   3.020  1.00 53.82 LIG 0.22  HD
ENDBRANCH 14 17
ENDBRANCH 10 11
ENDBRANCH 8 10
ENDBRANCH 1 8
BRANCH 4 19
ATOM     19  C   PRO C  65      15.669   0.039   7.855  1.00 37.07 LIG 0.24  C 
ATOM     20  N   HIS C  66      15.850  -1.228   8.224  1.00 40.38 LIG-0.35  N 
ATOM     21 H    HIS C  66      15.754  -1.896   7.692  1.00 40.38 LIG 0.16  HD
ATOM     22 O    PRO C  65      15.744   1.008   8.630  1.00 29.28 LIG-0.27  OA
BRANCH 20 23
ATOM     23  CA  HIS C  66      16.233  -1.600   9.579  1.00 40.25 LIG 0.17  C 
BRANCH 23 24
ATOM     24  CB  HIS C  66      16.606  -3.088   9.643  1.00 42.68 LIG 0.09  C 
BRANCH 24 25
ATOM     25  CG  HIS C  66      17.766  -3.462   8.772  1.00 48.80 LIG 0.06  A 
ATOM     26 ND1  HIS C  66      18.749  -4.343   9.173  1.00 53.13 LIG-0.24  NA
ATOM     27  CE1 HIS C  66      19.635  -4.483   8.202  1.00 55.16 LIG 0.23  A 
ATOM     28 NE2  HIS C  66      19.263  -3.724   7.186  1.00 53.86 LIG-0.25  NA
ATOM     29  CD2 HIS C  66      18.097  -3.075   7.518  1.00 53.41 LIG 0.14  A 
ENDBRANCH 24 25
ENDBRANCH 23 24
BRANCH 23 30
ATOM     30  C   HIS C  66      17.401  -0.749  10.077  1.00 41.89 LIG 0.22  C 
ATOM     31 O    HIS C  66      18.006   0.001   9.308  1.00 44.58 LIG-0.29  OA
ENDBRANCH 23 30
ENDBRANCH 20 23
ENDBRANCH 4 19
TORSDOF 9
ENDMDL
MODEL 20
USER: ADFR SOLUTION from run 182
USER: SCORE 10.151109 LL:  -1.367 LR:  -8.784 RR:   0.000 FEB:  -6.100
USER: RMSD 2.544885
USER: SEED 181
USER: STATUS no improvement in best in 10 clusters for 5 generations
USER: GENES 11
USER: genes 0 Translation |==|  0.64010 0.33209 0.61565
USER: genes 1 Rotation |==|  0.21076 0.40275 0.59407 0.88475
USER: genes 2 Torsion [N]-C--CA-[N] |==|  0.25930
USER: genes 3 Torsion [C]-CA--CB-[CG] |==|  0.39162
USER: genes 4 Torsion [CA]-CB--CG-[CD2] |==|  0.94460
USER: genes 5 Torsion [CE2]-CZ--OH-[HH] |==|  0.30690
USER: genes 6 Torsion [N]-CA--C-[N] |==|  0.37054
USER: genes 7 Torsion [C]-N--CA-[C] |==|  0.18601
USER: genes 8 Torsion [N]-CA--CB-[CG] |==|  0.42557
USER: genes 9 Torsion [CA]-CB--CG-[ND1] |==|  0.77034
USER: genes 10 Torsion [N]-CA--C-[O] |==|  0.04503
ROOT
ATOM      1  C   TYR C  64      14.778  -3.394   9.159  1.00 51.57 LIG 0.26  C 
ATOM      2 O    TYR C  64      15.228  -4.449   9.606  1.00 54.62 LIG-0.27  OA
ATOM      3  N   PRO C  65      15.549  -2.311   8.961  1.00 43.10 LIG-0.34  N 
ATOM      4  CA  PRO C  65      15.185  -1.040   8.328  1.00 38.90 LIG 0.18  C 
ATOM      5  CB  PRO C  65      15.946  -0.021   9.165  1.00 40.80 LIG 0.04  C 
ATOM      6  CG  PRO C  65      17.183  -0.749   9.563  1.00 42.19 LIG 0.02  C 
ATOM      7  CD  PRO C  65      16.818  -2.201   9.702  1.00 44.37 LIG 0.13  C 
ENDROOT
BRANCH 1 8
ATOM      8  CA  TYR C  64      13.295  -3.282   8.812  1.00 49.73 LIG 0.40  C 
ATOM      9  N   TYR C  64      13.087  -3.749   7.443  1.00 50.52 LIG 0.61  N 
BRANCH 8 10
ATOM     10  CB  TYR C  64      12.481  -4.125   9.801  1.00 50.46 LIG 0.09  C 
BRANCH 10 11
ATOM     11  CG  TYR C  64      11.169  -3.518  10.249  1.00 47.68 LIG-0.06  A 
ATOM     12  CD2 TYR C  64      10.945  -2.151  10.123  1.00 48.34 LIG 0.01  A 
ATOM     13  CE2 TYR C  64       9.753  -1.580  10.528  1.00 49.15 LIG 0.04  A 
ATOM     14  CZ  TYR C  64       8.764  -2.379  11.066  1.00 50.59 LIG 0.07  A 
ATOM     15  CE1 TYR C  64       8.959  -3.739  11.202  1.00 46.73 LIG 0.04  A 
ATOM     16  CD1 TYR C  64      10.156  -4.302  10.793  1.00 46.22 LIG 0.01  A 
BRANCH 14 17
ATOM     17 OH   TYR C  64       7.575  -1.817  11.472  1.00 53.82 LIG-0.36  OA
ATOM     18 HH   TYR C  64       6.959  -2.060  10.954  1.00 53.82 LIG 0.22  HD
ENDBRANCH 14 17
ENDBRANCH 10 11
ENDBRANCH 8 10
ENDBRANCH 1 8
BRANCH 4 19
ATOM     19  C   PRO C  65      15.657  -0.968   6.879  1.00 37.07 LIG 0.24  C 
ATOM     20  N   HIS C  66      14.757  -0.533   5.999  1.00 40.38 LIG-0.35  N 
ATOM     21 H    HIS C  66      13.946  -0.337   6.206  1.00 40.38 LIG 0.16  HD
ATOM     22 O    PRO C  65      16.813  -1.315   6.580  1.00 29.28 LIG-0.27  OA
BRANCH 20 23
ATOM     23  CA  HIS C  66      15.069  -0.348   4.589  1.00 40.25 LIG 0.17  C 
BRANCH 23 24
ATOM     24  CB  HIS C  66      16.276   0.586   4.423  1.00 42.68 LIG 0.09  C 
BRANCH 24 25
ATOM     25  CG  HIS C  66      17.054   0.357   3.163  1.00 48.80 LIG 0.06  A 
ATOM     26 ND1  HIS C  66      18.013  -0.626   3.044  1.00 53.13 LIG-0.24  NA
ATOM     27  CE1 HIS C  66      18.526  -0.593   1.827  1.00 55.16 LIG 0.23  A 
ATOM     28 NE2  HIS C  66      17.935   0.376   1.151  1.00 53.86 LIG-0.25  NA
ATOM     29  CD2 HIS C  66      17.010   0.987   1.966  1.00 53.41 LIG 0.14  A 
ENDBRANCH 24 25
ENDBRANCH 23 24
BRANCH 23 30
ATOM     30  C   HIS C  66      15.349  -1.685   3.904  1.00 41.89 LIG 0.22  C 
ATOM     31 O    HIS C  66      15.015  -2.747   4.436  1.00 44.58 LIG-0.29  OA
ENDBRANCH 23 30
ENDBRANCH 20 23
ENDBRANCH 4 19
TORSDOF 9
ENDMDL
MODEL 21
USER: ADFR SOLUTION from run 26
USER: SCORE 10.836233 LL:  -2.084 LR:  -8.752 RR:   0.000 FEB:  -6.067
USER: RMSD 5.633902
USER: SEED 25
USER: STATUS no improvement in best in 9 clusters for 5 generations
USER: GENES 11
USER: genes 0 Translation |==|  0.50408 0.37049 0.57680
USER: genes 1 Rotation |==|  0.23665 0.09127 0.56803 0.59467
USER: genes 2 Torsion [N]-C--CA-[N] |==|  0.82248
USER: genes 3 Torsion [C]-CA--CB-[CG] |==|  0.23361
USER: genes 4 Torsion [CA]-CB--CG-[CD2] |==|  0.46149
USER: genes 5 Torsion [CE2]-CZ--OH-[HH] |==|  0.68535
USER: genes 6 Torsion [N]-CA--C-[N] |==|  0.02170
USER: genes 7 Torsion [C]-N--CA-[C] |==|  0.59508
USER: genes 8 Torsion [N]-CA--CB-[CG] |==|  0.85327
USER: genes 9 Torsion [CA]-CB--CG-[ND1] |==|  0.22375
USER: genes 10 Torsion [N]-CA--C-[O] |==|  0.58004
ROOT
ATOM      1  C   TYR C  64      12.228  -2.789   8.459  1.00 51.57 LIG 0.26  C 
ATOM      2 O    TYR C  64      12.123  -3.177   9.623  1.00 54.62 LIG-0.27  OA
ATOM      3  N   PRO C  65      11.924  -1.532   8.092  1.00 43.10 LIG-0.34  N 
ATOM      4  CA  PRO C  65      12.113  -0.897   6.785  1.00 38.90 LIG 0.18  C 
ATOM      5  CB  PRO C  65      10.875  -0.020   6.659  1.00 40.80 LIG 0.04  C 
ATOM      6  CG  PRO C  65      10.594   0.392   8.063  1.00 42.19 LIG 0.02  C 
ATOM      7  CD  PRO C  65      11.026  -0.742   8.952  1.00 44.37 LIG 0.13  C 
ENDROOT
BRANCH 1 8
ATOM      8  CA  TYR C  64      12.713  -3.748   7.375  1.00 49.73 LIG 0.40  C 
ATOM      9  N   TYR C  64      11.641  -3.955   6.403  1.00 50.52 LIG 0.61  N 
BRANCH 8 10
ATOM     10  CB  TYR C  64      13.954  -3.155   6.696  1.00 50.46 LIG 0.09  C 
BRANCH 10 11
ATOM     11  CG  TYR C  64      15.268  -3.416   7.399  1.00 47.68 LIG-0.06  A 
ATOM     12  CD2 TYR C  64      16.474  -3.185   6.747  1.00 48.34 LIG 0.01  A 
ATOM     13  CE2 TYR C  64      17.684  -3.419   7.375  1.00 49.15 LIG 0.04  A 
ATOM     14  CZ  TYR C  64      17.698  -3.888   8.672  1.00 50.59 LIG 0.07  A 
ATOM     15  CE1 TYR C  64      16.515  -4.124   9.345  1.00 46.73 LIG 0.04  A 
ATOM     16  CD1 TYR C  64      15.308  -3.887   8.708  1.00 46.22 LIG 0.01  A 
BRANCH 14 17
ATOM     17 OH   TYR C  64      18.898  -4.123   9.303  1.00 53.82 LIG-0.36  OA
ATOM     18 HH   TYR C  64      18.986  -4.947   9.441  1.00 53.82 LIG 0.22  HD
ENDBRANCH 14 17
ENDBRANCH 10 11
ENDBRANCH 8 10
ENDBRANCH 1 8
BRANCH 4 19
ATOM     19  C   PRO C  65      13.365  -0.026   6.749  1.00 37.07 LIG 0.24  C 
ATOM     20  N   HIS C  66      14.156  -0.106   7.817  1.00 40.38 LIG-0.35  N 
ATOM     21 H    HIS C  66      13.972  -0.582   8.510  1.00 40.38 LIG 0.16  HD
ATOM     22 O    PRO C  65      13.589   0.707   5.769  1.00 29.28 LIG-0.27  OA
BRANCH 20 23
ATOM     23  CA  HIS C  66      15.418   0.612   7.911  1.00 40.25 LIG 0.17  C 
BRANCH 23 24
ATOM     24  CB  HIS C  66      15.211   1.980   8.577  1.00 42.68 LIG 0.09  C 
BRANCH 24 25
ATOM     25  CG  HIS C  66      14.138   2.810   7.941  1.00 48.80 LIG 0.06  A 
ATOM     26 ND1  HIS C  66      12.797   2.626   8.202  1.00 53.13 LIG-0.24  NA
ATOM     27  CE1 HIS C  66      12.091   3.499   7.505  1.00 55.16 LIG 0.23  A 
ATOM     28 NE2  HIS C  66      12.925   4.243   6.801  1.00 53.86 LIG-0.25  NA
ATOM     29  CD2 HIS C  66      14.212   3.831   7.056  1.00 53.41 LIG 0.14  A 
ENDBRANCH 24 25
ENDBRANCH 23 24
BRANCH 23 30
ATOM     30  C   HIS C  66      16.457  -0.194   8.691  1.00 41.89 LIG 0.22  C 
ATOM     31 O    HIS C  66      17.347   0.376   9.327  1.00 44.58 LIG-0.29  OA
ENDBRANCH 23 30
ENDBRANCH 20 23
ENDBRANCH 4 19
TORSDOF 9
ENDMDL
MODEL 22
USER: ADFR SOLUTION from run 88
USER: SCORE 10.896162 LL:  -2.260 LR:  -8.636 RR:   0.000 FEB:  -5.952
USER: RMSD 6.609812
USER: SEED 87
USER: STATUS no improvement in best in 8 clusters for 5 generations
USER: GENES 11
USER: genes 0 Translation |==|  0.68647 0.34512 0.49583
USER: genes 1 Rotation |==|  0.55794 0.12008 0.63068 0.79193
USER: genes 2 Torsion [N]-C--CA-[N] |==|  0.87120
USER: genes 3 Torsion [C]-CA--CB-[CG] |==|  0.31181
USER: genes 4 Torsion [CA]-CB--CG-[CD2] |==|  0.21568
USER: genes 5 Torsion [CE2]-CZ--OH-[HH] |==|  0.75406
USER: genes 6 Torsion [N]-CA--C-[N] |==|  0.07469
USER: genes 7 Torsion [C]-N--CA-[C] |==|  0.68884
USER: genes 8 Torsion [N]-CA--CB-[CG] |==|  0.01664
USER: genes 9 Torsion [CA]-CB--CG-[ND1] |==|  0.29045
USER: genes 10 Torsion [N]-CA--C-[O] |==|  0.81685
ROOT
ATOM      1  C   TYR C  64      15.647  -3.188   7.002  1.00 51.57 LIG 0.26  C 
ATOM      2 O    TYR C  64      16.847  -3.296   7.257  1.00 54.62 LIG-0.27  OA
ATOM      3  N   PRO C  65      14.734  -2.913   7.949  1.00 43.10 LIG-0.34  N 
ATOM      4  CA  PRO C  65      13.305  -2.636   7.780  1.00 38.90 LIG 0.18  C 
ATOM      5  CB  PRO C  65      12.688  -3.317   8.993  1.00 40.80 LIG 0.04  C 
ATOM      6  CG  PRO C  65      13.731  -3.167  10.047  1.00 42.19 LIG 0.02  C 
ATOM      7  CD  PRO C  65      15.066  -3.198   9.356  1.00 44.37 LIG 0.13  C 
ENDROOT
BRANCH 1 8
ATOM      8  CA  TYR C  64      15.151  -3.374   5.570  1.00 49.73 LIG 0.40  C 
ATOM      9  N   TYR C  64      13.981  -4.249   5.577  1.00 50.52 LIG 0.61  N 
BRANCH 8 10
ATOM     10  CB  TYR C  64      14.799  -2.004   4.977  1.00 50.46 LIG 0.09  C 
BRANCH 10 11
ATOM     11  CG  TYR C  64      15.697  -1.529   3.855  1.00 47.68 LIG-0.06  A 
ATOM     12  CD2 TYR C  64      15.552  -2.041   2.571  1.00 48.34 LIG 0.01  A 
ATOM     13  CE2 TYR C  64      16.365  -1.620   1.535  1.00 49.15 LIG 0.04  A 
ATOM     14  CZ  TYR C  64      17.338  -0.672   1.777  1.00 50.59 LIG 0.07  A 
ATOM     15  CE1 TYR C  64      17.504  -0.145   3.042  1.00 46.73 LIG 0.04  A 
ATOM     16  CD1 TYR C  64      16.685  -0.573   4.073  1.00 46.22 LIG 0.01  A 
BRANCH 14 17
ATOM     17 OH   TYR C  64      18.151  -0.248   0.750  1.00 53.82 LIG-0.36  OA
ATOM     18 HH   TYR C  64      18.824  -0.749   0.700  1.00 53.82 LIG 0.22  HD
ENDBRANCH 14 17
ENDBRANCH 10 11
ENDBRANCH 8 10
ENDBRANCH 1 8
BRANCH 4 19
ATOM     19  C   PRO C  65      13.004  -1.141   7.822  1.00 37.07 LIG 0.24  C 
ATOM     20  N   HIS C  66      13.999  -0.340   7.446  1.00 40.38 LIG-0.35  N 
ATOM     21 H    HIS C  66      14.781  -0.624   7.227  1.00 40.38 LIG 0.16  HD
ATOM     22 O    PRO C  65      11.890  -0.738   8.202  1.00 29.28 LIG-0.27  OA
BRANCH 20 23
ATOM     23  CA  HIS C  66      13.853   1.106   7.371  1.00 40.25 LIG 0.17  C 
BRANCH 23 24
ATOM     24  CB  HIS C  66      14.940   1.802   8.202  1.00 42.68 LIG 0.09  C 
BRANCH 24 25
ATOM     25  CG  HIS C  66      15.964   0.867   8.769  1.00 48.80 LIG 0.06  A 
ATOM     26 ND1  HIS C  66      17.238   0.751   8.252  1.00 53.13 LIG-0.24  NA
ATOM     27  CE1 HIS C  66      17.915  -0.142   8.952  1.00 55.16 LIG 0.23  A 
ATOM     28 NE2  HIS C  66      17.127  -0.611   9.904  1.00 53.86 LIG-0.25  NA
ATOM     29  CD2 HIS C  66      15.901   0.004   9.809  1.00 53.41 LIG 0.14  A 
ENDBRANCH 24 25
ENDBRANCH 23 24
BRANCH 23 30
ATOM     30  C   HIS C  66      13.914   1.594   5.923  1.00 41.89 LIG 0.22  C 
ATOM     31 O    HIS C  66      14.953   1.488   5.267  1.00 44.58 LIG-0.29  OA
ENDBRANCH 23 30
ENDBRANCH 20 23
ENDBRANCH 4 19
TORSDOF 9
ENDMDL
MODEL 23
USER: ADFR SOLUTION from run 143
USER: SCORE 10.919619 LL:  -2.283 LR:  -8.636 RR:   0.000 FEB:  -5.952
USER: RMSD 5.774883
USER: SEED 142
USER: STATUS no improvement in best in 6 clusters for 5 generations
USER: GENES 11
USER: genes 0 Translation |==|  0.54545 0.32345 0.48947
USER: genes 1 Rotation |==|  0.49243 0.75192 0.63391 0.91055
USER: genes 2 Torsion [N]-C--CA-[N] |==|  0.44591
USER: genes 3 Torsion [C]-CA--CB-[CG] |==|  0.24293
USER: genes 4 Torsion [CA]-CB--CG-[CD2] |==|  0.16787
USER: genes 5 Torsion [CE2]-CZ--OH-[HH] |==|  0.46109
USER: genes 6 Torsion [N]-CA--C-[N] |==|  0.26515
USER: genes 7 Torsion [C]-N--CA-[C] |==|  0.77863
USER: genes 8 Torsion [N]-CA--CB-[CG] |==|  0.94592
USER: genes 9 Torsion [CA]-CB--CG-[ND1] |==|  0.33736
USER: genes 10 Torsion [N]-CA--C-[O] |==|  0.97291
ROOT
ATOM      1  C   TYR C  64      13.003  -3.530   6.887  1.00 51.57 LIG 0.26  C 
ATOM      2 O    TYR C  64      12.491  -4.499   6.327  1.00 54.62 LIG-0.27  OA
ATOM      3  N   PRO C  65      13.587  -2.531   6.203  1.00 43.10 LIG-0.34  N 
ATOM      4  CA  PRO C  65      14.122  -1.268   6.719  1.00 38.90 LIG 0.18  C 
ATOM      5  CB  PRO C  65      15.359  -1.054   5.858  1.00 40.80 LIG 0.04  C 
ATOM      6  CG  PRO C  65      14.976  -1.643   4.544  1.00 42.19 LIG 0.02  C 
ATOM      7  CD  PRO C  65      14.045  -2.789   4.827  1.00 44.37 LIG 0.13  C 
ENDROOT
BRANCH 1 8
ATOM      8  CA  TYR C  64      12.993  -3.435   8.412  1.00 49.73 LIG 0.40  C 
ATOM      9  N   TYR C  64      11.954  -4.317   8.939  1.00 50.52 LIG 0.61  N 
BRANCH 8 10
ATOM     10  CB  TYR C  64      14.371  -3.837   8.951  1.00 50.46 LIG 0.09  C 
BRANCH 10 11
ATOM     11  CG  TYR C  64      15.385  -2.718   9.046  1.00 47.68 LIG-0.06  A 
ATOM     12  CD2 TYR C  64      15.139  -1.609   9.848  1.00 48.34 LIG 0.01  A 
ATOM     13  CE2 TYR C  64      16.054  -0.578   9.945  1.00 49.15 LIG 0.04  A 
ATOM     14  CZ  TYR C  64      17.236  -0.648   9.235  1.00 50.59 LIG 0.07  A 
ATOM     15  CE1 TYR C  64      17.508  -1.738   8.432  1.00 46.73 LIG 0.04  A 
ATOM     16  CD1 TYR C  64      16.584  -2.766   8.342  1.00 46.22 LIG 0.01  A 
BRANCH 14 17
ATOM     17 OH   TYR C  64      18.151   0.376   9.327  1.00 53.82 LIG-0.36  OA
ATOM     18 HH   TYR C  64      18.887   0.124   9.009  1.00 53.82 LIG 0.22  HD
ENDBRANCH 14 17
ENDBRANCH 10 11
ENDBRANCH 8 10
ENDBRANCH 1 8
BRANCH 4 19
ATOM     19  C   PRO C  65      13.150  -0.110   6.517  1.00 37.07 LIG 0.24  C 
ATOM     20  N   HIS C  66      12.364   0.173   7.555  1.00 40.38 LIG-0.35  N 
ATOM     21 H    HIS C  66      12.362  -0.279   8.286  1.00 40.38 LIG 0.16  HD
ATOM     22 O    PRO C  65      13.117   0.496   5.432  1.00 29.28 LIG-0.27  OA
BRANCH 20 23
ATOM     23  CA  HIS C  66      11.427   1.287   7.545  1.00 40.25 LIG 0.17  C 
BRANCH 23 24
ATOM     24  CB  HIS C  66      10.313   1.063   8.577  1.00 42.68 LIG 0.09  C 
BRANCH 24 25
ATOM     25  CG  HIS C  66      10.158  -0.365   9.004  1.00 48.80 LIG 0.06  A 
ATOM     26 ND1  HIS C  66      10.276  -0.769  10.318  1.00 53.13 LIG-0.24  NA
ATOM     27  CE1 HIS C  66      10.088  -2.075  10.392  1.00 55.16 LIG 0.23  A 
ATOM     28 NE2  HIS C  66       9.852  -2.533   9.176  1.00 53.86 LIG-0.25  NA
ATOM     29  CD2 HIS C  66       9.892  -1.483   8.289  1.00 53.41 LIG 0.14  A 
ENDBRANCH 24 25
ENDBRANCH 23 24
BRANCH 23 30
ATOM     30  C   HIS C  66      12.139   2.610   7.827  1.00 41.89 LIG 0.22  C 
ATOM     31 O    HIS C  66      13.314   2.626   8.202  1.00 44.58 LIG-0.29  OA
ENDBRANCH 23 30
ENDBRANCH 20 23
ENDBRANCH 4 19
TORSDOF 9
ENDMDL
MODEL 24
USER: ADFR SOLUTION from run 80
USER: SCORE 10.772876 LL:  -2.248 LR:  -8.525 RR:   0.000 FEB:  -5.840
USER: RMSD 5.216704
USER: SEED 79
USER: STATUS no improvement in best in 9 clusters for 5 generations
USER: GENES 11
USER: genes 0 Translation |==|  0.56068 0.34200 0.47940
USER: genes 1 Rotation |==|  0.47855 0.70012 0.69369 0.91470
USER: genes 2 Torsion [N]-C--CA-[N] |==|  0.42424
USER: genes 3 Torsion [C]-CA--CB-[CG] |==|  0.19740
USER: genes 4 Torsion [CA]-CB--CG-[CD2] |==|  0.20731
USER: genes 5 Torsion [CE2]-CZ--OH-[HH] |==|  0.43266
USER: genes 6 Torsion [N]-CA--C-[N] |==|  0.33817
USER: genes 7 Torsion [C]-N--CA-[C] |==|  0.14525
USER: genes 8 Torsion [N]-CA--CB-[CG] |==|  0.97746
USER: genes 9 Torsion [CA]-CB--CG-[ND1] |==|  0.84804
USER: genes 10 Torsion [N]-CA--C-[O] |==|  0.11183
ROOT
ATOM      1  C   TYR C  64      13.289  -3.238   6.706  1.00 51.57 LIG 0.26  C 
ATOM      2 O    TYR C  64      13.121  -4.197   5.953  1.00 54.62 LIG-0.27  OA
ATOM      3  N   PRO C  65      13.733  -2.048   6.266  1.00 43.10 LIG-0.34  N 
ATOM      4  CA  PRO C  65      13.863  -0.793   7.012  1.00 38.90 LIG 0.18  C 
ATOM      5  CB  PRO C  65      15.146  -0.201   6.446  1.00 40.80 LIG 0.04  C 
ATOM      6  CG  PRO C  65      15.143  -0.653   5.027  1.00 42.19 LIG 0.02  C 
ATOM      7  CD  PRO C  65      14.469  -1.996   4.991  1.00 44.37 LIG 0.13  C 
ENDROOT
BRANCH 1 8
ATOM      8  CA  TYR C  64      12.994  -3.377   8.198  1.00 49.73 LIG 0.40  C 
ATOM      9  N   TYR C  64      11.971  -4.403   8.390  1.00 50.52 LIG 0.61  N 
BRANCH 8 10
ATOM     10  CB  TYR C  64      14.285  -3.754   8.935  1.00 50.46 LIG 0.09  C 
BRANCH 10 11
ATOM     11  CG  TYR C  64      15.322  -2.657   9.033  1.00 47.68 LIG-0.06  A 
ATOM     12  CD2 TYR C  64      15.148  -1.598   9.917  1.00 48.34 LIG 0.01  A 
ATOM     13  CE2 TYR C  64      16.085  -0.587  10.020  1.00 49.15 LIG 0.04  A 
ATOM     14  CZ  TYR C  64      17.217  -0.627   9.231  1.00 50.59 LIG 0.07  A 
ATOM     15  CE1 TYR C  64      17.418  -1.668   8.345  1.00 46.73 LIG 0.04  A 
ATOM     16  CD1 TYR C  64      16.473  -2.676   8.251  1.00 46.22 LIG 0.01  A 
BRANCH 14 17
ATOM     17 OH   TYR C  64      18.154   0.376   9.328  1.00 53.82 LIG-0.36  OA
ATOM     18 HH   TYR C  64      18.902   0.087   9.075  1.00 53.82 LIG 0.22  HD
ENDBRANCH 14 17
ENDBRANCH 10 11
ENDBRANCH 8 10
ENDBRANCH 1 8
BRANCH 4 19
ATOM     19  C   PRO C  65      12.698   0.154   6.744  1.00 37.07 LIG 0.24  C 
ATOM     20  N   HIS C  66      11.998   0.526   7.814  1.00 40.38 LIG-0.35  N 
ATOM     21 H    HIS C  66      12.151   0.234   8.608  1.00 40.38 LIG 0.16  HD
ATOM     22 O    PRO C  65      12.445   0.521   5.583  1.00 29.28 LIG-0.27  OA
BRANCH 20 23
ATOM     23  CA  HIS C  66      10.896   1.474   7.735  1.00 40.25 LIG 0.17  C 
BRANCH 23 24
ATOM     24  CB  HIS C  66      11.420   2.885   7.431  1.00 42.68 LIG 0.09  C 
BRANCH 24 25
ATOM     25  CG  HIS C  66      12.913   3.002   7.478  1.00 48.80 LIG 0.06  A 
ATOM     26 ND1  HIS C  66      13.659   2.626   8.575  1.00 53.13 LIG-0.24  NA
ATOM     27  CE1 HIS C  66      14.940   2.840   8.329  1.00 55.16 LIG 0.23  A 
ATOM     28 NE2  HIS C  66      15.052   3.341   7.112  1.00 53.86 LIG-0.25  NA
ATOM     29  CD2 HIS C  66      13.798   3.453   6.559  1.00 53.41 LIG 0.14  A 
ENDBRANCH 24 25
ENDBRANCH 23 24
BRANCH 23 30
ATOM     30  C   HIS C  66       9.881   1.057   6.671  1.00 41.89 LIG 0.22  C 
ATOM     31 O    HIS C  66       9.568  -0.128   6.530  1.00 44.58 LIG-0.29  OA
ENDBRANCH 23 30
ENDBRANCH 20 23
ENDBRANCH 4 19
TORSDOF 9
ENDMDL
MODEL 25
USER: ADFR SOLUTION from run 1
USER: SCORE 10.218784 LL:  -1.700 LR:  -8.519 RR:   0.000 FEB:  -5.835
USER: RMSD 3.181570
USER: SEED 17592
USER: STATUS no improvement in best in 10 clusters for 5 generations
USER: GENES 11
USER: genes 0 Translation |==|  0.69789 0.36659 0.51765
USER: genes 1 Rotation |==|  0.31355 0.35037 0.63174 0.91892
USER: genes 2 Torsion [N]-C--CA-[N] |==|  0.40712
USER: genes 3 Torsion [C]-CA--CB-[CG] |==|  0.34798
USER: genes 4 Torsion [CA]-CB--CG-[CD2] |==|  0.00435
USER: genes 5 Torsion [CE2]-CZ--OH-[HH] |==|  0.81071
USER: genes 6 Torsion [N]-CA--C-[N] |==|  0.06730
USER: genes 7 Torsion [C]-N--CA-[C] |==|  0.73983
USER: genes 8 Torsion [N]-CA--CB-[CG] |==|  0.39595
USER: genes 9 Torsion [CA]-CB--CG-[ND1] |==|  0.20720
USER: genes 10 Torsion [N]-CA--C-[O] |==|  0.90137
ROOT
ATOM      1  C   TYR C  64      15.862  -2.850   7.395  1.00 51.57 LIG 0.26  C 
ATOM      2 O    TYR C  64      16.623  -3.817   7.400  1.00 54.62 LIG-0.27  OA
ATOM      3  N   PRO C  65      16.283  -1.603   7.667  1.00 43.10 LIG-0.34  N 
ATOM      4  CA  PRO C  65      15.528  -0.350   7.580  1.00 38.90 LIG 0.18  C 
ATOM      5  CB  PRO C  65      16.049   0.436   8.775  1.00 40.80 LIG 0.04  C 
ATOM      6  CG  PRO C  65      17.469   0.001   8.888  1.00 42.19 LIG 0.02  C 
ATOM      7  CD  PRO C  65      17.533  -1.430   8.428  1.00 44.37 LIG 0.13  C 
ENDROOT
BRANCH 1 8
ATOM      8  CA  TYR C  64      14.381  -3.045   7.076  1.00 49.73 LIG 0.40  C 
ATOM      9  N   TYR C  64      14.239  -4.124   6.100  1.00 50.52 LIG 0.61  N 
BRANCH 8 10
ATOM     10  CB  TYR C  64      13.626  -3.380   8.368  1.00 50.46 LIG 0.09  C 
BRANCH 10 11
ATOM     11  CG  TYR C  64      12.450  -2.484   8.687  1.00 47.68 LIG-0.06  A 
ATOM     12  CD2 TYR C  64      12.091  -1.457   7.821  1.00 48.34 LIG 0.01  A 
ATOM     13  CE2 TYR C  64      11.020  -0.628   8.098  1.00 49.15 LIG 0.04  A 
ATOM     14  CZ  TYR C  64      10.291  -0.821   9.254  1.00 50.59 LIG 0.07  A 
ATOM     15  CE1 TYR C  64      10.624  -1.834  10.132  1.00 46.73 LIG 0.04  A 
ATOM     16  CD1 TYR C  64      11.699  -2.659   9.845  1.00 46.22 LIG 0.01  A 
BRANCH 14 17
ATOM     17 OH   TYR C  64       9.224   0.001   9.535  1.00 53.82 LIG-0.36  OA
ATOM     18 HH   TYR C  64       9.503   0.776   9.702  1.00 53.82 LIG 0.22  HD
ENDBRANCH 14 17
ENDBRANCH 10 11
ENDBRANCH 8 10
ENDBRANCH 1 8
BRANCH 4 19
ATOM     19  C   PRO C  65      15.832   0.411   6.293  1.00 37.07 LIG 0.24  C 
ATOM     20  N   HIS C  66      16.276  -0.326   5.276  1.00 40.38 LIG-0.35  N 
ATOM     21 H    HIS C  66      16.425  -1.171   5.332  1.00 40.38 LIG 0.16  HD
ATOM     22 O    PRO C  65      15.674   1.644   6.243  1.00 29.28 LIG-0.27  OA
BRANCH 20 23
ATOM     23  CA  HIS C  66      16.551   0.239   3.963  1.00 40.25 LIG 0.17  C 
BRANCH 23 24
ATOM     24  CB  HIS C  66      17.769  -0.446   3.327  1.00 42.68 LIG 0.09  C 
BRANCH 24 25
ATOM     25  CG  HIS C  66      17.647  -0.652   1.848  1.00 48.80 LIG 0.06  A 
ATOM     26 ND1  HIS C  66      17.777   0.375   0.937  1.00 53.13 LIG-0.24  NA
ATOM     27  CE1 HIS C  66      17.625  -0.102  -0.286  1.00 55.16 LIG 0.23  A 
ATOM     28 NE2  HIS C  66      17.400  -1.401  -0.202  1.00 53.86 LIG-0.25  NA
ATOM     29  CD2 HIS C  66      17.408  -1.770   1.123  1.00 53.41 LIG 0.14  A 
ENDBRANCH 24 25
ENDBRANCH 23 24
BRANCH 23 30
ATOM     30  C   HIS C  66      15.340   0.109   3.040  1.00 41.89 LIG 0.22  C 
ATOM     31 O    HIS C  66      14.606  -0.881   3.100  1.00 44.58 LIG-0.29  OA
ENDBRANCH 23 30
ENDBRANCH 20 23
ENDBRANCH 4 19
TORSDOF 9
ENDMDL
MODEL 26
USER: ADFR SOLUTION from run 174
USER: SCORE 10.391920 LL:  -1.869 LR:  -8.522 RR:   0.000 FEB:  -5.838
USER: RMSD 4.488251
USER: SEED 173
USER: STATUS no improvement in best in 11 clusters for 5 generations
USER: GENES 11
USER: genes 0 Translation |==|  0.75021 0.35075 0.52197
USER: genes 1 Rotation |==|  0.44666 0.20746 0.60521 0.88795
USER: genes 2 Torsion [N]-C--CA-[N] |==|  0.84399
USER: genes 3 Torsion [C]-CA--CB-[CG] |==|  0.51004
USER: genes 4 Torsion [CA]-CB--CG-[CD2] |==|  0.67412
USER: genes 5 Torsion [CE2]-CZ--OH-[HH] |==|  0.61686
USER: genes 6 Torsion [N]-CA--C-[N] |==|  0.32717
USER: genes 7 Torsion [C]-N--CA-[C] |==|  0.78714
USER: genes 8 Torsion [N]-CA--CB-[CG] |==|  0.77966
USER: genes 9 Torsion [CA]-CB--CG-[ND1] |==|  0.04442
USER: genes 10 Torsion [N]-CA--C-[O] |==|  0.94236
ROOT
ATOM      1  C   TYR C  64      16.842  -3.100   7.473  1.00 51.57 LIG 0.26  C 
ATOM      2 O    TYR C  64      17.898  -3.728   7.382  1.00 54.62 LIG-0.27  OA
ATOM      3  N   PRO C  65      16.614  -2.219   8.461  1.00 43.10 LIG-0.34  N 
ATOM      4  CA  PRO C  65      15.471  -1.316   8.628  1.00 38.90 LIG 0.18  C 
ATOM      5  CB  PRO C  65      15.251  -1.333  10.134  1.00 40.80 LIG 0.04  C 
ATOM      6  CG  PRO C  65      16.624  -1.499  10.687  1.00 42.19 LIG 0.02  C 
ATOM      7  CD  PRO C  65      17.401  -2.328   9.702  1.00 44.37 LIG 0.13  C 
ENDROOT
BRANCH 1 8
ATOM      8  CA  TYR C  64      15.737  -3.312   6.441  1.00 49.73 LIG 0.40  C 
ATOM      9  N   TYR C  64      14.509  -3.704   7.129  1.00 50.52 LIG 0.61  N 
BRANCH 8 10
ATOM     10  CB  TYR C  64      15.526  -2.013   5.653  1.00 50.46 LIG 0.09  C 
BRANCH 10 11
ATOM     11  CG  TYR C  64      14.398  -2.039   4.645  1.00 47.68 LIG-0.06  A 
ATOM     12  CD2 TYR C  64      14.659  -1.874   3.289  1.00 48.34 LIG 0.01  A 
ATOM     13  CE2 TYR C  64      13.641  -1.893   2.355  1.00 49.15 LIG 0.04  A 
ATOM     14  CZ  TYR C  64      12.339  -2.081   2.773  1.00 50.59 LIG 0.07  A 
ATOM     15  CE1 TYR C  64      12.049  -2.248   4.113  1.00 46.73 LIG 0.04  A 
ATOM     16  CD1 TYR C  64      13.077  -2.228   5.040  1.00 46.22 LIG 0.01  A 
BRANCH 14 17
ATOM     17 OH   TYR C  64      11.320  -2.101   1.848  1.00 53.82 LIG-0.36  OA
ATOM     18 HH   TYR C  64      10.663  -1.667   2.144  1.00 53.82 LIG 0.22  HD
ENDBRANCH 14 17
ENDBRANCH 10 11
ENDBRANCH 8 10
ENDBRANCH 1 8
BRANCH 4 19
ATOM     19  C   PRO C  65      15.793   0.104   8.173  1.00 37.07 LIG 0.24  C 
ATOM     20  N   HIS C  66      15.066   0.564   7.156  1.00 40.38 LIG-0.35  N 
ATOM     21 H    HIS C  66      14.475   0.095   6.744  1.00 40.38 LIG 0.16  HD
ATOM     22 O    PRO C  65      16.695   0.751   8.735  1.00 29.28 LIG-0.27  OA
BRANCH 20 23
ATOM     23  CA  HIS C  66      15.208   1.920   6.646  1.00 40.25 LIG 0.17  C 
BRANCH 23 24
ATOM     24  CB  HIS C  66      14.622   2.026   5.230  1.00 42.68 LIG 0.09  C 
BRANCH 24 25
ATOM     25  CG  HIS C  66      15.526   1.501   4.157  1.00 48.80 LIG 0.06  A 
ATOM     26 ND1  HIS C  66      16.611   0.692   4.422  1.00 53.13 LIG-0.24  NA
ATOM     27  CE1 HIS C  66      17.216   0.385   3.289  1.00 55.16 LIG 0.23  A 
ATOM     28 NE2  HIS C  66      16.564   0.965   2.297  1.00 53.86 LIG-0.25  NA
ATOM     29  CD2 HIS C  66      15.503   1.671   2.814  1.00 53.41 LIG 0.14  A 
ENDBRANCH 24 25
ENDBRANCH 23 24
BRANCH 23 30
ATOM     30  C   HIS C  66      14.526   2.932   7.567  1.00 41.89 LIG 0.22  C 
ATOM     31 O    HIS C  66      13.651   2.573   8.358  1.00 44.58 LIG-0.29  OA
ENDBRANCH 23 30
ENDBRANCH 20 23
ENDBRANCH 4 19
TORSDOF 9
ENDMDL
MODEL 27
USER: ADFR SOLUTION from run 100
USER: SCORE 10.569968 LL:  -2.070 LR:  -8.500 RR:   0.000 FEB:  -5.816
USER: RMSD 2.445201
USER: SEED 99
USER: STATUS no improvement in best in 10 clusters for 5 generations
USER: GENES 11
USER: genes 0 Translation |==|  0.65033 0.33687 0.56979
USER: genes 1 Rotation |==|  0.41020 0.38296 0.57867 0.97122
USER: genes 2 Torsion [N]-C--CA-[N] |==|  0.42515
USER: genes 3 Torsion [C]-CA--CB-[CG] |==|  0.42810
USER: genes 4 Torsion [CA]-CB--CG-[CD2] |==|  0.88406
USER: genes 5 Torsion [CE2]-CZ--OH-[HH] |==|  0.48144
USER: genes 6 Torsion [N]-CA--C-[N] |==|  0.23435
USER: genes 7 Torsion [C]-N--CA-[C] |==|  0.82568
USER: genes 8 Torsion [N]-CA--CB-[CG] |==|  0.01198
USER: genes 9 Torsion [CA]-CB--CG-[ND1] |==|  0.24181
USER: genes 10 Torsion [N]-CA--C-[O] |==|  0.90259
ROOT
ATOM      1  C   TYR C  64      14.970  -3.318   8.333  1.00 51.57 LIG 0.26  C 
ATOM      2 O    TYR C  64      15.511  -4.275   7.779  1.00 54.62 LIG-0.27  OA
ATOM      3  N   PRO C  65      15.671  -2.372   8.981  1.00 43.10 LIG-0.34  N 
ATOM      4  CA  PRO C  65      15.182  -1.125   9.575  1.00 38.90 LIG 0.18  C 
ATOM      5  CB  PRO C  65      16.027  -1.003  10.835  1.00 40.80 LIG 0.04  C 
ATOM      6  CG  PRO C  65      17.330  -1.609  10.443  1.00 42.19 LIG 0.02  C 
ATOM      7  CD  PRO C  65      17.032  -2.695   9.446  1.00 44.37 LIG 0.13  C 
ENDROOT
BRANCH 1 8
ATOM      8  CA  TYR C  64      13.449  -3.179   8.303  1.00 49.73 LIG 0.40  C 
ATOM      9  N   TYR C  64      12.931  -3.840   7.108  1.00 50.52 LIG 0.61  N 
BRANCH 8 10
ATOM     10  CB  TYR C  64      12.860  -3.809   9.571  1.00 50.46 LIG 0.09  C 
BRANCH 10 11
ATOM     11  CG  TYR C  64      11.521  -3.258  10.011  1.00 47.68 LIG-0.06  A 
ATOM     12  CD2 TYR C  64      11.272  -1.891   9.966  1.00 48.34 LIG 0.01  A 
ATOM     13  CE2 TYR C  64      10.055  -1.370  10.365  1.00 49.15 LIG 0.04  A 
ATOM     14  CZ  TYR C  64       9.067  -2.221  10.816  1.00 50.59 LIG 0.07  A 
ATOM     15  CE1 TYR C  64       9.286  -3.584  10.870  1.00 46.73 LIG 0.04  A 
ATOM     16  CD1 TYR C  64      10.508  -4.095  10.468  1.00 46.22 LIG 0.01  A 
BRANCH 14 17
ATOM     17 OH   TYR C  64       7.853  -1.710  11.216  1.00 53.82 LIG-0.36  OA
ATOM     18 HH   TYR C  64       7.322  -2.341  11.376  1.00 53.82 LIG 0.22  HD
ENDBRANCH 14 17
ENDBRANCH 10 11
ENDBRANCH 8 10
ENDBRANCH 1 8
BRANCH 4 19
ATOM     19  C   PRO C  65      15.434   0.076   8.670  1.00 37.07 LIG 0.24  C 
ATOM     20  N   HIS C  66      14.518   0.292   7.727  1.00 40.38 LIG-0.35  N 
ATOM     21 H    HIS C  66      13.842  -0.222   7.596  1.00 40.38 LIG 0.16  HD
ATOM     22 O    PRO C  65      16.450   0.777   8.828  1.00 29.28 LIG-0.27  OA
BRANCH 20 23
ATOM     23  CA  HIS C  66      14.580   1.432   6.824  1.00 40.25 LIG 0.17  C 
BRANCH 23 24
ATOM     24  CB  HIS C  66      13.465   1.347   5.772  1.00 42.68 LIG 0.09  C 
BRANCH 24 25
ATOM     25  CG  HIS C  66      12.528   0.195   5.971  1.00 48.80 LIG 0.06  A 
ATOM     26 ND1  HIS C  66      11.414   0.269   6.781  1.00 53.13 LIG-0.24  NA
ATOM     27  CE1 HIS C  66      10.780  -0.890   6.761  1.00 55.16 LIG 0.23  A 
ATOM     28 NE2  HIS C  66      11.441  -1.714   5.968  1.00 53.86 LIG-0.25  NA
ATOM     29  CD2 HIS C  66      12.539  -1.059   5.462  1.00 53.41 LIG 0.14  A 
ENDBRANCH 24 25
ENDBRANCH 23 24
BRANCH 23 30
ATOM     30  C   HIS C  66      14.472   2.751   7.590  1.00 41.89 LIG 0.22  C 
ATOM     31 O    HIS C  66      13.757   2.840   8.592  1.00 44.58 LIG-0.29  OA
ENDBRANCH 23 30
ENDBRANCH 20 23
ENDBRANCH 4 19
TORSDOF 9
ENDMDL
MODEL 28
USER: ADFR SOLUTION from run 44
USER: SCORE 11.137243 LL:  -2.640 LR:  -8.498 RR:   0.000 FEB:  -5.813
USER: RMSD 5.893836
USER: SEED 43
USER: STATUS no improvement in best in 11 clusters for 5 generations
USER: GENES 11
USER: genes 0 Translation |==|  0.50564 0.38861 0.62277
USER: genes 1 Rotation |==|  0.29957 0.08408 0.66827 0.59233
USER: genes 2 Torsion [N]-C--CA-[N] |==|  0.85325
USER: genes 3 Torsion [C]-CA--CB-[CG] |==|  0.29074
USER: genes 4 Torsion [CA]-CB--CG-[CD2] |==|  0.46412
USER: genes 5 Torsion [CE2]-CZ--OH-[HH] |==|  0.95195
USER: genes 6 Torsion [N]-CA--C-[N] |==|  0.04664
USER: genes 7 Torsion [C]-N--CA-[C] |==|  0.78407
USER: genes 8 Torsion [N]-CA--CB-[CG] |==|  0.18867
USER: genes 9 Torsion [CA]-CB--CG-[ND1] |==|  0.28646
USER: genes 10 Torsion [N]-CA--C-[O] |==|  0.98299
ROOT
ATOM      1  C   TYR C  64      12.257  -2.503   9.287  1.00 51.57 LIG 0.26  C 
ATOM      2 O    TYR C  64      12.499  -2.528  10.494  1.00 54.62 LIG-0.27  OA
ATOM      3  N   PRO C  65      11.502  -1.544   8.725  1.00 43.10 LIG-0.34  N 
ATOM      4  CA  PRO C  65      11.232  -1.315   7.303  1.00 38.90 LIG 0.18  C 
ATOM      5  CB  PRO C  65       9.777  -0.868   7.308  1.00 40.80 LIG 0.04  C 
ATOM      6  CG  PRO C  65       9.642  -0.132   8.595  1.00 42.19 LIG 0.02  C 
ATOM      7  CD  PRO C  65      10.572  -0.785   9.580  1.00 44.37 LIG 0.13  C 
ENDROOT
BRANCH 1 8
ATOM      8  CA  TYR C  64      12.817  -3.591   8.373  1.00 49.73 LIG 0.40  C 
ATOM      9  N   TYR C  64      11.724  -4.179   7.602  1.00 50.52 LIG 0.61  N 
BRANCH 8 10
ATOM     10  CB  TYR C  64      13.868  -2.975   7.442  1.00 50.46 LIG 0.09  C 
BRANCH 10 11
ATOM     11  CG  TYR C  64      15.308  -3.284   7.789  1.00 47.68 LIG-0.06  A 
ATOM     12  CD2 TYR C  64      16.326  -3.013   6.882  1.00 48.34 LIG 0.01  A 
ATOM     13  CE2 TYR C  64      17.647  -3.290   7.183  1.00 49.15 LIG 0.04  A 
ATOM     14  CZ  TYR C  64      17.963  -3.845   8.406  1.00 50.59 LIG 0.07  A 
ATOM     15  CE1 TYR C  64      16.973  -4.124   9.327  1.00 46.73 LIG 0.04  A 
ATOM     16  CD1 TYR C  64      15.653  -3.842   9.016  1.00 46.22 LIG 0.01  A 
BRANCH 14 17
ATOM     17 OH   TYR C  64      19.276  -4.124   8.712  1.00 53.82 LIG-0.36  OA
ATOM     18 HH   TYR C  64      19.733  -4.134   8.006  1.00 53.82 LIG 0.22  HD
ENDBRANCH 14 17
ENDBRANCH 10 11
ENDBRANCH 8 10
ENDBRANCH 1 8
BRANCH 4 19
ATOM     19  C   PRO C  65      12.108  -0.207   6.726  1.00 37.07 LIG 0.24  C 
ATOM     20  N   HIS C  66      13.175   0.123   7.452  1.00 40.38 LIG-0.35  N 
ATOM     21 H    HIS C  66      13.356  -0.226   8.216  1.00 40.38 LIG 0.16  HD
ATOM     22 O    PRO C  65      11.801   0.336   5.650  1.00 29.28 LIG-0.27  OA
BRANCH 20 23
ATOM     23  CA  HIS C  66      14.143   1.116   7.010  1.00 40.25 LIG 0.17  C 
BRANCH 23 24
ATOM     24  CB  HIS C  66      14.952   1.647   8.202  1.00 42.68 LIG 0.09  C 
BRANCH 24 25
ATOM     25  CG  HIS C  66      15.868   0.633   8.816  1.00 48.80 LIG 0.06  A 
ATOM     26 ND1  HIS C  66      17.230   0.626   8.597  1.00 53.13 LIG-0.24  NA
ATOM     27  CE1 HIS C  66      17.776  -0.374   9.265  1.00 55.16 LIG 0.23  A 
ATOM     28 NE2  HIS C  66      16.819  -1.017   9.910  1.00 53.86 LIG-0.25  NA
ATOM     29  CD2 HIS C  66      15.615  -0.406   9.644  1.00 53.41 LIG 0.14  A 
ENDBRANCH 24 25
ENDBRANCH 23 24
BRANCH 23 30
ATOM     30  C   HIS C  66      15.089   0.537   5.958  1.00 41.89 LIG 0.22  C 
ATOM     31 O    HIS C  66      15.050  -0.661   5.668  1.00 44.58 LIG-0.29  OA
ENDBRANCH 23 30
ENDBRANCH 20 23
ENDBRANCH 4 19
TORSDOF 9
ENDMDL
MODEL 29
USER: ADFR SOLUTION from run 171
USER: SCORE 11.172612 LL:  -2.674 LR:  -8.499 RR:   0.000 FEB:  -5.814
USER: RMSD 6.621766
USER: SEED 170
USER: STATUS no improvement in best in 13 clusters for 5 generations
USER: GENES 11
USER: genes 0 Translation |==|  0.60500 0.38120 0.45369
USER: genes 1 Rotation |==|  0.32531 0.07496 0.31697 0.57296
USER: genes 2 Torsion [N]-C--CA-[N] |==|  0.82272
USER: genes 3 Torsion [C]-CA--CB-[CG] |==|  0.23419
USER: genes 4 Torsion [CA]-CB--CG-[CD2] |==|  0.32953
USER: genes 5 Torsion [CE2]-CZ--OH-[HH] |==|  0.01140
USER: genes 6 Torsion [N]-CA--C-[N] |==|  0.04065
USER: genes 7 Torsion [C]-N--CA-[C] |==|  0.75700
USER: genes 8 Torsion [N]-CA--CB-[CG] |==|  0.97510
USER: genes 9 Torsion [CA]-CB--CG-[ND1] |==|  0.22096
USER: genes 10 Torsion [N]-CA--C-[O] |==|  0.17442
ROOT
ATOM      1  C   TYR C  64      14.120  -2.620   6.243  1.00 51.57 LIG 0.26  C 
ATOM      2 O    TYR C  64      13.685  -3.748   6.476  1.00 54.62 LIG-0.27  OA
ATOM      3  N   PRO C  65      13.564  -1.514   6.767  1.00 43.10 LIG-0.34  N 
ATOM      4  CA  PRO C  65      14.039  -0.130   6.681  1.00 38.90 LIG 0.18  C 
ATOM      5  CB  PRO C  65      12.744   0.659   6.550  1.00 40.80 LIG 0.04  C 
ATOM      6  CG  PRO C  65      11.769  -0.132   7.352  1.00 42.19 LIG 0.02  C 
ATOM      7  CD  PRO C  65      12.167  -1.578   7.233  1.00 44.37 LIG 0.13  C 
ENDROOT
BRANCH 1 8
ATOM      8  CA  TYR C  64      15.330  -2.442   5.329  1.00 49.73 LIG 0.40  C 
ATOM      9  N   TYR C  64      14.925  -1.698   4.138  1.00 50.52 LIG 0.61  N 
BRANCH 8 10
ATOM     10  CB  TYR C  64      16.430  -1.692   6.089  1.00 50.46 LIG 0.09  C 
BRANCH 10 11
ATOM     11  CG  TYR C  64      17.323  -2.551   6.958  1.00 47.68 LIG-0.06  A 
ATOM     12  CD2 TYR C  64      18.689  -2.624   6.711  1.00 48.34 LIG 0.01  A 
ATOM     13  CE2 TYR C  64      19.519  -3.404   7.494  1.00 49.15 LIG 0.04  A 
ATOM     14  CZ  TYR C  64      18.984  -4.124   8.543  1.00 50.59 LIG 0.07  A 
ATOM     15  CE1 TYR C  64      17.631  -4.069   8.814  1.00 46.73 LIG 0.04  A 
ATOM     16  CD1 TYR C  64      16.808  -3.284   8.023  1.00 46.22 LIG 0.01  A 
BRANCH 14 17
ATOM     17 OH   TYR C  64      19.804  -4.903   9.327  1.00 53.82 LIG-0.36  OA
ATOM     18 HH   TYR C  64      20.603  -4.800   9.087  1.00 53.82 LIG 0.22  HD
ENDBRANCH 14 17
ENDBRANCH 10 11
ENDBRANCH 8 10
ENDBRANCH 1 8
BRANCH 4 19
ATOM     19  C   PRO C  65      14.776   0.299   7.946  1.00 37.07 LIG 0.24  C 
ATOM     20  N   HIS C  66      15.137  -0.685   8.767  1.00 40.38 LIG-0.35  N 
ATOM     21 H    HIS C  66      14.943  -1.511   8.632  1.00 40.38 LIG 0.16  HD
ATOM     22 O    PRO C  65      14.995   1.504   8.163  1.00 29.28 LIG-0.27  OA
BRANCH 20 23
ATOM     23  CA  HIS C  66      15.901  -0.447   9.983  1.00 40.25 LIG 0.17  C 
BRANCH 23 24
ATOM     24  CB  HIS C  66      15.560  -1.499  11.048  1.00 42.68 LIG 0.09  C 
BRANCH 24 25
ATOM     25  CG  HIS C  66      14.397  -2.373  10.689  1.00 48.80 LIG 0.06  A 
ATOM     26 ND1  HIS C  66      14.505  -3.444   9.827  1.00 53.13 LIG-0.24  NA
ATOM     27  CE1 HIS C  66      13.326  -4.027   9.702  1.00 55.16 LIG 0.23  A 
ATOM     28 NE2  HIS C  66      12.456  -3.374  10.452  1.00 53.86 LIG-0.25  NA
ATOM     29  CD2 HIS C  66      13.102  -2.334  11.079  1.00 53.41 LIG 0.14  A 
ENDBRANCH 24 25
ENDBRANCH 23 24
BRANCH 23 30
ATOM     30  C   HIS C  66      17.404  -0.460   9.703  1.00 41.89 LIG 0.22  C 
ATOM     31 O    HIS C  66      17.911   0.376   8.952  1.00 44.58 LIG-0.29  OA
ENDBRANCH 23 30
ENDBRANCH 20 23
ENDBRANCH 4 19
TORSDOF 9
ENDMDL
MODEL 30
USER: ADFR SOLUTION from run 113
USER: SCORE 10.732198 LL:  -2.240 LR:  -8.492 RR:   0.000 FEB:  -5.808
USER: RMSD 6.611564
USER: SEED 112
USER: STATUS no improvement in best in 6 clusters for 5 generations
USER: GENES 11
USER: genes 0 Translation |==|  0.55407 0.38112 0.66573
USER: genes 1 Rotation |==|  0.47446 0.93798 0.36615 0.69901
USER: genes 2 Torsion [N]-C--CA-[N] |==|  0.44967
USER: genes 3 Torsion [C]-CA--CB-[CG] |==|  0.35787
USER: genes 4 Torsion [CA]-CB--CG-[CD2] |==|  0.96972
USER: genes 5 Torsion [CE2]-CZ--OH-[HH] |==|  0.87534
USER: genes 6 Torsion [N]-CA--C-[N] |==|  0.05340
USER: genes 7 Torsion [C]-N--CA-[C] |==|  0.76782
USER: genes 8 Torsion [N]-CA--CB-[CG] |==|  0.91871
USER: genes 9 Torsion [CA]-CB--CG-[ND1] |==|  0.21408
USER: genes 10 Torsion [N]-CA--C-[O] |==|  0.82260
ROOT
ATOM      1  C   TYR C  64      13.165  -2.621  10.060  1.00 51.57 LIG 0.26  C 
ATOM      2 O    TYR C  64      12.446  -2.789  11.045  1.00 54.62 LIG-0.27  OA
ATOM      3  N   PRO C  65      12.720  -2.812   8.806  1.00 43.10 LIG-0.34  N 
ATOM      4  CA  PRO C  65      13.413  -2.535   7.544  1.00 38.90 LIG 0.18  C 
ATOM      5  CB  PRO C  65      12.970  -3.694   6.662  1.00 40.80 LIG 0.04  C 
ATOM      6  CG  PRO C  65      11.585  -3.980   7.127  1.00 42.19 LIG 0.02  C 
ATOM      7  CD  PRO C  65      11.538  -3.666   8.597  1.00 44.37 LIG 0.13  C 
ENDROOT
BRANCH 1 8
ATOM      8  CA  TYR C  64      14.617  -2.186  10.240  1.00 49.73 LIG 0.40  C 
ATOM      9  N   TYR C  64      14.787  -1.624  11.578  1.00 50.52 LIG 0.61  N 
BRANCH 8 10
ATOM     10  CB  TYR C  64      15.536  -3.397  10.039  1.00 50.46 LIG 0.09  C 
BRANCH 10 11
ATOM     11  CG  TYR C  64      16.673  -3.198   9.061  1.00 47.68 LIG-0.06  A 
ATOM     12  CD2 TYR C  64      16.711  -2.074   8.243  1.00 48.34 LIG 0.01  A 
ATOM     13  CE2 TYR C  64      17.741  -1.878   7.343  1.00 49.15 LIG 0.04  A 
ATOM     14  CZ  TYR C  64      18.753  -2.812   7.253  1.00 50.59 LIG 0.07  A 
ATOM     15  CE1 TYR C  64      18.742  -3.937   8.053  1.00 46.73 LIG 0.04  A 
ATOM     16  CD1 TYR C  64      17.705  -4.125   8.952  1.00 46.22 LIG 0.01  A 
BRANCH 14 17
ATOM     17 OH   TYR C  64      19.782  -2.623   6.358  1.00 53.82 LIG-0.36  OA
ATOM     18 HH   TYR C  64      19.469  -2.377   5.618  1.00 53.82 LIG 0.22  HD
ENDBRANCH 14 17
ENDBRANCH 10 11
ENDBRANCH 8 10
ENDBRANCH 1 8
BRANCH 4 19
ATOM     19  C   PRO C  65      12.964  -1.216   6.924  1.00 37.07 LIG 0.24  C 
ATOM     20  N   HIS C  66      12.366  -0.361   7.752  1.00 40.38 LIG-0.35  N 
ATOM     21 H    HIS C  66      12.200  -0.537   8.576  1.00 40.38 LIG 0.16  HD
ATOM     22 O    PRO C  65      13.153  -0.998   5.714  1.00 29.28 LIG-0.27  OA
BRANCH 20 23
ATOM     23  CA  HIS C  66      11.937   0.964   7.330  1.00 40.25 LIG 0.17  C 
BRANCH 23 24
ATOM     24  CB  HIS C  66      10.773   1.455   8.202  1.00 42.68 LIG 0.09  C 
BRANCH 24 25
ATOM     25  CG  HIS C  66       9.913   0.355   8.746  1.00 48.80 LIG 0.06  A 
ATOM     26 ND1  HIS C  66      10.293  -0.432   9.813  1.00 53.13 LIG-0.24  NA
ATOM     27  CE1 HIS C  66       9.340  -1.310  10.070  1.00 55.16 LIG 0.23  A 
ATOM     28 NE2  HIS C  66       8.355  -1.122   9.209  1.00 53.86 LIG-0.25  NA
ATOM     29  CD2 HIS C  66       8.691  -0.086   8.369  1.00 53.41 LIG 0.14  A 
ENDBRANCH 24 25
ENDBRANCH 23 24
BRANCH 23 30
ATOM     30  C   HIS C  66      13.090   1.965   7.390  1.00 41.89 LIG 0.22  C 
ATOM     31 O    HIS C  66      13.619   2.251   8.467  1.00 44.58 LIG-0.29  OA
ENDBRANCH 23 30
ENDBRANCH 20 23
ENDBRANCH 4 19
TORSDOF 9
ENDMDL
MODEL 31
USER: ADFR SOLUTION from run 41
USER: SCORE 10.204775 LL:  -1.791 LR:  -8.414 RR:   0.000 FEB:  -5.729
USER: RMSD 2.913045
USER: SEED 40
USER: STATUS no improvement in best in 12 clusters for 5 generations
USER: GENES 11
USER: genes 0 Translation |==|  0.67132 0.33253 0.60540
USER: genes 1 Rotation |==|  0.39760 0.59362 0.64783 0.95705
USER: genes 2 Torsion [N]-C--CA-[N] |==|  0.87742
USER: genes 3 Torsion [C]-CA--CB-[CG] |==|  0.15755
USER: genes 4 Torsion [CA]-CB--CG-[CD2] |==|  0.25786
USER: genes 5 Torsion [CE2]-CZ--OH-[HH] |==|  0.57471
USER: genes 6 Torsion [N]-CA--C-[N] |==|  0.66049
USER: genes 7 Torsion [C]-N--CA-[C] |==|  0.21688
USER: genes 8 Torsion [N]-CA--CB-[CG] |==|  0.81958
USER: genes 9 Torsion [CA]-CB--CG-[ND1] |==|  0.77038
USER: genes 10 Torsion [N]-CA--C-[O] |==|  0.92168
ROOT
ATOM      1  C   TYR C  64      15.363  -3.387   8.974  1.00 51.57 LIG 0.26  C 
ATOM      2 O    TYR C  64      15.507  -4.463   8.394  1.00 54.62 LIG-0.27  OA
ATOM      3  N   PRO C  65      16.105  -2.306   8.676  1.00 43.10 LIG-0.34  N 
ATOM      4  CA  PRO C  65      15.966  -0.939   9.188  1.00 38.90 LIG 0.18  C 
ATOM      5  CB  PRO C  65      17.412  -0.485   9.319  1.00 40.80 LIG 0.04  C 
ATOM      6  CG  PRO C  65      18.103  -1.187   8.202  1.00 42.19 LIG 0.02  C 
ATOM      7  CD  PRO C  65      17.400  -2.502   8.002  1.00 44.37 LIG 0.13  C 
ENDROOT
BRANCH 1 8
ATOM      8  CA  TYR C  64      14.316  -3.247  10.077  1.00 49.73 LIG 0.40  C 
ATOM      9  N   TYR C  64      14.900  -2.523  11.204  1.00 50.52 LIG 0.61  N 
BRANCH 8 10
ATOM     10  CB  TYR C  64      13.098  -2.498   9.524  1.00 50.46 LIG 0.09  C 
BRANCH 10 11
ATOM     11  CG  TYR C  64      12.451  -3.117   8.304  1.00 47.68 LIG-0.06  A 
ATOM     12  CD2 TYR C  64      11.391  -4.006   8.442  1.00 48.34 LIG 0.01  A 
ATOM     13  CE2 TYR C  64      10.789  -4.581   7.339  1.00 49.15 LIG 0.04  A 
ATOM     14  CZ  TYR C  64      11.245  -4.268   6.075  1.00 50.59 LIG 0.07  A 
ATOM     15  CE1 TYR C  64      12.296  -3.387   5.907  1.00 46.73 LIG 0.04  A 
ATOM     16  CD1 TYR C  64      12.891  -2.815   7.019  1.00 46.22 LIG 0.01  A 
BRANCH 14 17
ATOM     17 OH   TYR C  64      10.651  -4.837   4.972  1.00 53.82 LIG-0.36  OA
ATOM     18 HH   TYR C  64      11.206  -4.874   4.342  1.00 53.82 LIG 0.22  HD
ENDBRANCH 14 17
ENDBRANCH 10 11
ENDBRANCH 8 10
ENDBRANCH 1 8
BRANCH 4 19
ATOM     19  C   PRO C  65      15.231  -0.034   8.204  1.00 37.07 LIG 0.24  C 
ATOM     20  N   HIS C  66      15.896   1.050   7.809  1.00 40.38 LIG-0.35  N 
ATOM     21 H    HIS C  66      16.674   1.265   8.105  1.00 40.38 LIG 0.16  HD
ATOM     22 O    PRO C  65      14.080  -0.320   7.830  1.00 29.28 LIG-0.27  OA
BRANCH 20 23
ATOM     23  CA  HIS C  66      15.360   1.981   6.826  1.00 40.25 LIG 0.17  C 
BRANCH 23 24
ATOM     24  CB  HIS C  66      14.738   1.220   5.647  1.00 42.68 LIG 0.09  C 
BRANCH 24 25
ATOM     25  CG  HIS C  66      15.725   0.427   4.846  1.00 48.80 LIG 0.06  A 
ATOM     26 ND1  HIS C  66      16.504   0.986   3.855  1.00 53.13 LIG-0.24  NA
ATOM     27  CE1 HIS C  66      17.277   0.054   3.326  1.00 55.16 LIG 0.23  A 
ATOM     28 NE2  HIS C  66      17.028  -1.091   3.938  1.00 53.86 LIG-0.25  NA
ATOM     29  CD2 HIS C  66      16.059  -0.884   4.892  1.00 53.41 LIG 0.14  A 
ENDBRANCH 24 25
ENDBRANCH 23 24
BRANCH 23 30
ATOM     30  C   HIS C  66      14.319   2.908   7.453  1.00 41.89 LIG 0.22  C 
ATOM     31 O    HIS C  66      13.651   2.540   8.423  1.00 44.58 LIG-0.29  OA
ENDBRANCH 23 30
ENDBRANCH 20 23
ENDBRANCH 4 19
TORSDOF 9
ENDMDL
MODEL 32
USER: ADFR SOLUTION from run 129
USER: SCORE 10.527720 LL:  -2.182 LR:  -8.345 RR:   0.000 FEB:  -5.661
USER: RMSD 5.762437
USER: SEED 128
USER: STATUS no improvement in best in 8 clusters for 5 generations
USER: GENES 11
USER: genes 0 Translation |==|  0.53939 0.42313 0.43468
USER: genes 1 Rotation |==|  0.74868 0.84177 0.46151 0.76433
USER: genes 2 Torsion [N]-C--CA-[N] |==|  0.87038
USER: genes 3 Torsion [C]-CA--CB-[CG] |==|  0.62320
USER: genes 4 Torsion [CA]-CB--CG-[CD2] |==|  0.24439
USER: genes 5 Torsion [CE2]-CZ--OH-[HH] |==|  0.12253
USER: genes 6 Torsion [N]-CA--C-[N] |==|  0.10716
USER: genes 7 Torsion [C]-N--CA-[C] |==|  0.62254
USER: genes 8 Torsion [N]-CA--CB-[CG] |==|  0.10111
USER: genes 9 Torsion [CA]-CB--CG-[ND1] |==|  0.22417
USER: genes 10 Torsion [N]-CA--C-[O] |==|  0.21452
ROOT
ATOM      1  C   TYR C  64      12.890  -1.960   5.901  1.00 51.57 LIG 0.26  C 
ATOM      2 O    TYR C  64      11.690  -1.776   6.111  1.00 54.62 LIG-0.27  OA
ATOM      3  N   PRO C  65      13.557  -1.309   4.933  1.00 43.10 LIG-0.34  N 
ATOM      4  CA  PRO C  65      14.995  -1.331   4.648  1.00 38.90 LIG 0.18  C 
ATOM      5  CB  PRO C  65      15.033  -1.290   3.127  1.00 40.80 LIG 0.04  C 
ATOM      6  CG  PRO C  65      13.843  -0.470   2.769  1.00 42.19 LIG 0.02  C 
ATOM      7  CD  PRO C  65      12.793  -0.731   3.814  1.00 44.37 LIG 0.13  C 
ENDROOT
BRANCH 1 8
ATOM      8  CA  TYR C  64      13.670  -2.959   6.753  1.00 49.73 LIG 0.40  C 
ATOM      9  N   TYR C  64      14.471  -3.811   5.878  1.00 50.52 LIG 0.61  N 
BRANCH 8 10
ATOM     10  CB  TYR C  64      14.565  -2.194   7.735  1.00 50.46 LIG 0.09  C 
BRANCH 10 11
ATOM     11  CG  TYR C  64      15.980  -2.714   7.867  1.00 47.68 LIG-0.06  A 
ATOM     12  CD2 TYR C  64      16.981  -2.260   7.015  1.00 48.34 LIG 0.01  A 
ATOM     13  CE2 TYR C  64      18.278  -2.725   7.121  1.00 49.15 LIG 0.04  A 
ATOM     14  CZ  TYR C  64      18.589  -3.656   8.091  1.00 50.59 LIG 0.07  A 
ATOM     15  CE1 TYR C  64      17.616  -4.124   8.952  1.00 46.73 LIG 0.04  A 
ATOM     16  CD1 TYR C  64      16.319  -3.651   8.837  1.00 46.22 LIG 0.01  A 
BRANCH 14 17
ATOM     17 OH   TYR C  64      19.879  -4.124   8.202  1.00 53.82 LIG-0.36  OA
ATOM     18 HH   TYR C  64      20.417  -3.481   8.144  1.00 53.82 LIG 0.22  HD
ENDBRANCH 14 17
ENDBRANCH 10 11
ENDBRANCH 8 10
ENDBRANCH 1 8
BRANCH 4 19
ATOM     19  C   PRO C  65      15.707  -0.105   5.212  1.00 37.07 LIG 0.24  C 
ATOM     20  N   HIS C  66      15.283   0.312   6.404  1.00 40.38 LIG-0.35  N 
ATOM     21 H    HIS C  66      14.627  -0.047   6.827  1.00 40.38 LIG 0.16  HD
ATOM     22 O    PRO C  65      16.613   0.446   4.562  1.00 29.28 LIG-0.27  OA
BRANCH 20 23
ATOM     23  CA  HIS C  66      15.901   1.428   7.105  1.00 40.25 LIG 0.17  C 
BRANCH 23 24
ATOM     24  CB  HIS C  66      15.047   2.696   6.958  1.00 42.68 LIG 0.09  C 
BRANCH 24 25
ATOM     25  CG  HIS C  66      13.571   2.440   6.966  1.00 48.80 LIG 0.06  A 
ATOM     26 ND1  HIS C  66      12.851   2.251   8.127  1.00 53.13 LIG-0.24  NA
ATOM     27  CE1 HIS C  66      11.580   2.050   7.827  1.00 55.16 LIG 0.23  A 
ATOM     28 NE2  HIS C  66      11.449   2.102   6.513  1.00 53.86 LIG-0.25  NA
ATOM     29  CD2 HIS C  66      12.680   2.343   5.951  1.00 53.41 LIG 0.14  A 
ENDBRANCH 24 25
ENDBRANCH 23 24
BRANCH 23 30
ATOM     30  C   HIS C  66      16.102   1.107   8.586  1.00 41.89 LIG 0.22  C 
ATOM     31 O    HIS C  66      17.027   0.377   8.952  1.00 44.58 LIG-0.29  OA
ENDBRANCH 23 30
ENDBRANCH 20 23
ENDBRANCH 4 19
TORSDOF 9
ENDMDL
MODEL 33
USER: ADFR SOLUTION from run 155
USER: SCORE 10.046612 LL:  -1.706 LR:  -8.341 RR:   0.000 FEB:  -5.656
USER: RMSD 5.910132
USER: SEED 154
USER: STATUS no improvement in best in 10 clusters for 5 generations
USER: GENES 11
USER: genes 0 Translation |==|  0.54772 0.32574 0.48801
USER: genes 1 Rotation |==|  0.49489 0.75431 0.62296 0.91253
USER: genes 2 Torsion [N]-C--CA-[N] |==|  0.45050
USER: genes 3 Torsion [C]-CA--CB-[CG] |==|  0.24861
USER: genes 4 Torsion [CA]-CB--CG-[CD2] |==|  0.65968
USER: genes 5 Torsion [CE2]-CZ--OH-[HH] |==|  0.72310
USER: genes 6 Torsion [N]-CA--C-[N] |==|  0.26339
USER: genes 7 Torsion [C]-N--CA-[C] |==|  0.76590
USER: genes 8 Torsion [N]-CA--CB-[CG] |==|  0.53679
USER: genes 9 Torsion [CA]-CB--CG-[ND1] |==|  0.81808
USER: genes 10 Torsion [N]-CA--C-[O] |==|  0.98467
ROOT
ATOM      1  C   TYR C  64      13.046  -3.494   6.861  1.00 51.57 LIG 0.26  C 
ATOM      2 O    TYR C  64      12.489  -4.449   6.320  1.00 54.62 LIG-0.27  OA
ATOM      3  N   PRO C  65      13.667  -2.532   6.158  1.00 43.10 LIG-0.34  N 
ATOM      4  CA  PRO C  65      14.260  -1.285   6.650  1.00 38.90 LIG 0.18  C 
ATOM      5  CB  PRO C  65      15.499  -1.139   5.778  1.00 40.80 LIG 0.04  C 
ATOM      6  CG  PRO C  65      15.084  -1.733   4.476  1.00 42.19 LIG 0.02  C 
ATOM      7  CD  PRO C  65      14.105  -2.833   4.783  1.00 44.37 LIG 0.13  C 
ENDROOT
BRANCH 1 8
ATOM      8  CA  TYR C  64      13.049  -3.374   8.384  1.00 49.73 LIG 0.40  C 
ATOM      9  N   TYR C  64      12.002  -4.232   8.934  1.00 50.52 LIG 0.61  N 
BRANCH 8 10
ATOM     10  CB  TYR C  64      14.425  -3.787   8.919  1.00 50.46 LIG 0.09  C 
BRANCH 10 11
ATOM     11  CG  TYR C  64      15.442  -2.671   9.033  1.00 47.68 LIG-0.06  A 
ATOM     12  CD2 TYR C  64      16.660  -2.757   8.369  1.00 48.34 LIG 0.01  A 
ATOM     13  CE2 TYR C  64      17.600  -1.748   8.463  1.00 49.15 LIG 0.04  A 
ATOM     14  CZ  TYR C  64      17.326  -0.632   9.229  1.00 50.59 LIG 0.07  A 
ATOM     15  CE1 TYR C  64      16.123  -0.520   9.898  1.00 46.73 LIG 0.04  A 
ATOM     16  CD1 TYR C  64      15.188  -1.536   9.797  1.00 46.22 LIG 0.01  A 
BRANCH 14 17
ATOM     17 OH   TYR C  64      18.257   0.376   9.327  1.00 53.82 LIG-0.36  OA
ATOM     18 HH   TYR C  64      18.679   0.299  10.050  1.00 53.82 LIG 0.22  HD
ENDBRANCH 14 17
ENDBRANCH 10 11
ENDBRANCH 8 10
ENDBRANCH 1 8
BRANCH 4 19
ATOM     19  C   PRO C  65      13.337  -0.090   6.434  1.00 37.07 LIG 0.24  C 
ATOM     20  N   HIS C  66      12.562   0.235   7.467  1.00 40.38 LIG-0.35  N 
ATOM     21 H    HIS C  66      12.539  -0.209   8.202  1.00 40.38 LIG 0.16  HD
ATOM     22 O    PRO C  65      13.332   0.507   5.343  1.00 29.28 LIG-0.27  OA
BRANCH 20 23
ATOM     23  CA  HIS C  66      11.672   1.387   7.443  1.00 40.25 LIG 0.17  C 
BRANCH 23 24
ATOM     24  CB  HIS C  66      10.485   1.170   8.392  1.00 42.68 LIG 0.09  C 
BRANCH 24 25
ATOM     25  CG  HIS C  66       9.367   2.150   8.202  1.00 48.80 LIG 0.06  A 
ATOM     26 ND1  HIS C  66       9.503   3.498   8.461  1.00 53.13 LIG-0.24  NA
ATOM     27  CE1 HIS C  66       8.361   4.111   8.202  1.00 55.16 LIG 0.23  A 
ATOM     28 NE2  HIS C  66       7.489   3.210   7.784  1.00 53.86 LIG-0.25  NA
ATOM     29  CD2 HIS C  66       8.094   1.975   7.777  1.00 53.41 LIG 0.14  A 
ENDBRANCH 24 25
ENDBRANCH 23 24
BRANCH 23 30
ATOM     30  C   HIS C  66      12.415   2.668   7.826  1.00 41.89 LIG 0.22  C 
ATOM     31 O    HIS C  66      13.589   2.626   8.202  1.00 44.58 LIG-0.29  OA
ENDBRANCH 23 30
ENDBRANCH 20 23
ENDBRANCH 4 19
TORSDOF 9
ENDMDL
MODEL 34
USER: ADFR SOLUTION from run 53
USER: SCORE 10.372963 LL:  -2.052 LR:  -8.321 RR:   0.000 FEB:  -5.636
USER: RMSD 5.242588
USER: SEED 52
USER: STATUS no improvement in best in 7 clusters for 5 generations
USER: GENES 11
USER: genes 0 Translation |==|  0.56092 0.38201 0.63072
USER: genes 1 Rotation |==|  0.51763 0.89670 0.39477 0.78503
USER: genes 2 Torsion [N]-C--CA-[N] |==|  0.47082
USER: genes 3 Torsion [C]-CA--CB-[CG] |==|  0.28941
USER: genes 4 Torsion [CA]-CB--CG-[CD2] |==|  0.55844
USER: genes 5 Torsion [CE2]-CZ--OH-[HH] |==|  0.25895
USER: genes 6 Torsion [N]-CA--C-[N] |==|  0.36433
USER: genes 7 Torsion [C]-N--CA-[C] |==|  0.17972
USER: genes 8 Torsion [N]-CA--CB-[CG] |==|  0.81069
USER: genes 9 Torsion [CA]-CB--CG-[ND1] |==|  0.18282
USER: genes 10 Torsion [N]-CA--C-[O] |==|  0.10091
ROOT
ATOM      1  C   TYR C  64      13.293  -2.607   9.430  1.00 51.57 LIG 0.26  C 
ATOM      2 O    TYR C  64      12.246  -2.885  10.014  1.00 54.62 LIG-0.27  OA
ATOM      3  N   PRO C  65      13.389  -2.608   8.090  1.00 43.10 LIG-0.34  N 
ATOM      4  CA  PRO C  65      14.521  -2.184   7.260  1.00 38.90 LIG 0.18  C 
ATOM      5  CB  PRO C  65      14.494  -3.193   6.121  1.00 40.80 LIG 0.04  C 
ATOM      6  CG  PRO C  65      13.045  -3.493   5.952  1.00 42.19 LIG 0.02  C 
ATOM      7  CD  PRO C  65      12.409  -3.384   7.310  1.00 44.37 LIG 0.13  C 
ENDROOT
BRANCH 1 8
ATOM      8  CA  TYR C  64      14.543  -2.250  10.231  1.00 49.73 LIG 0.40  C 
ATOM      9  N   TYR C  64      14.176  -2.062  11.633  1.00 50.52 LIG 0.61  N 
BRANCH 8 10
ATOM     10  CB  TYR C  64      15.574  -3.377  10.087  1.00 50.46 LIG 0.09  C 
BRANCH 10 11
ATOM     11  CG  TYR C  64      16.733  -3.085   9.160  1.00 47.68 LIG-0.06  A 
ATOM     12  CD2 TYR C  64      17.474  -4.124   8.608  1.00 48.34 LIG 0.01  A 
ATOM     13  CE2 TYR C  64      18.536  -3.875   7.760  1.00 49.15 LIG 0.04  A 
ATOM     14  CZ  TYR C  64      18.870  -2.572   7.452  1.00 50.59 LIG 0.07  A 
ATOM     15  CE1 TYR C  64      18.151  -1.520   7.984  1.00 46.73 LIG 0.04  A 
ATOM     16  CD1 TYR C  64      17.088  -1.780   8.833  1.00 46.22 LIG 0.01  A 
BRANCH 14 17
ATOM     17 OH   TYR C  64      19.927  -2.316   6.608  1.00 53.82 LIG-0.36  OA
ATOM     18 HH   TYR C  64      19.645  -2.242   5.820  1.00 53.82 LIG 0.22  HD
ENDBRANCH 14 17
ENDBRANCH 10 11
ENDBRANCH 8 10
ENDBRANCH 1 8
BRANCH 4 19
ATOM     19  C   PRO C  65      14.325  -0.777   6.703  1.00 37.07 LIG 0.24  C 
ATOM     20  N   HIS C  66      15.355   0.054   6.855  1.00 40.38 LIG-0.35  N 
ATOM     21 H    HIS C  66      16.077  -0.157   7.271  1.00 40.38 LIG 0.16  HD
ATOM     22 O    PRO C  65      13.251  -0.464   6.159  1.00 29.28 LIG-0.27  OA
BRANCH 20 23
ATOM     23  CA  HIS C  66      15.350   1.409   6.325  1.00 40.25 LIG 0.17  C 
BRANCH 23 24
ATOM     24  CB  HIS C  66      15.122   1.392   4.807  1.00 42.68 LIG 0.09  C 
BRANCH 24 25
ATOM     25  CG  HIS C  66      16.261   0.807   4.027  1.00 48.80 LIG 0.06  A 
ATOM     26 ND1  HIS C  66      16.626  -0.519   4.118  1.00 53.13 LIG-0.24  NA
ATOM     27  CE1 HIS C  66      17.654  -0.747   3.320  1.00 55.16 LIG 0.23  A 
ATOM     28 NE2  HIS C  66      17.969   0.384   2.714  1.00 53.86 LIG-0.25  NA
ATOM     29  CD2 HIS C  66      17.113   1.372   3.140  1.00 53.41 LIG 0.14  A 
ENDBRANCH 24 25
ENDBRANCH 23 24
BRANCH 23 30
ATOM     30  C   HIS C  66      14.279   2.265   7.002  1.00 41.89 LIG 0.22  C 
ATOM     31 O    HIS C  66      14.024   2.122   8.200  1.00 44.58 LIG-0.29  OA
ENDBRANCH 23 30
ENDBRANCH 20 23
ENDBRANCH 4 19
TORSDOF 9
ENDMDL
MODEL 35
USER: ADFR SOLUTION from run 86
USER: SCORE 10.275699 LL:  -2.009 LR:  -8.267 RR:   0.000 FEB:  -5.582
USER: RMSD 3.357970
USER: SEED 85
USER: STATUS no improvement in best in 8 clusters for 5 generations
USER: GENES 11
USER: genes 0 Translation |==|  0.51353 0.38340 0.55916
USER: genes 1 Rotation |==|  0.81647 0.73858 0.37860 0.77963
USER: genes 2 Torsion [N]-C--CA-[N] |==|  0.33462
USER: genes 3 Torsion [C]-CA--CB-[CG] |==|  0.72644
USER: genes 4 Torsion [CA]-CB--CG-[CD2] |==|  0.68836
USER: genes 5 Torsion [CE2]-CZ--OH-[HH] |==|  0.74760
USER: genes 6 Torsion [N]-CA--C-[N] |==|  0.03882
USER: genes 7 Torsion [C]-N--CA-[C] |==|  0.74462
USER: genes 8 Torsion [N]-CA--CB-[CG] |==|  0.92663
USER: genes 9 Torsion [CA]-CB--CG-[ND1] |==|  0.34869
USER: genes 10 Torsion [N]-CA--C-[O] |==|  0.89492
ROOT
ATOM      1  C   TYR C  64      12.405  -2.585   8.142  1.00 51.57 LIG 0.26  C 
ATOM      2 O    TYR C  64      11.488  -1.763   8.147  1.00 54.62 LIG-0.27  OA
ATOM      3  N   PRO C  65      13.385  -2.562   7.223  1.00 43.10 LIG-0.34  N 
ATOM      4  CA  PRO C  65      14.594  -3.388   7.163  1.00 38.90 LIG 0.18  C 
ATOM      5  CB  PRO C  65      14.754  -3.636   5.670  1.00 40.80 LIG 0.04  C 
ATOM      6  CG  PRO C  65      14.232  -2.386   5.049  1.00 42.19 LIG 0.02  C 
ATOM      7  CD  PRO C  65      13.140  -1.870   5.945  1.00 44.37 LIG 0.13  C 
ENDROOT
BRANCH 1 8
ATOM      8  CA  TYR C  64      12.453  -3.682   9.204  1.00 49.73 LIG 0.40  C 
ATOM      9  N   TYR C  64      12.524  -3.066  10.526  1.00 50.52 LIG 0.61  N 
BRANCH 8 10
ATOM     10  CB  TYR C  64      11.200  -4.558   9.080  1.00 50.46 LIG 0.09  C 
BRANCH 10 11
ATOM     11  CG  TYR C  64      10.081  -4.236  10.046  1.00 47.68 LIG-0.06  A 
ATOM     12  CD2 TYR C  64       9.737  -5.132  11.052  1.00 48.34 LIG 0.01  A 
ATOM     13  CE2 TYR C  64       8.717  -4.853  11.943  1.00 49.15 LIG 0.04  A 
ATOM     14  CZ  TYR C  64       8.026  -3.663  11.834  1.00 50.59 LIG 0.07  A 
ATOM     15  CE1 TYR C  64       8.347  -2.754  10.846  1.00 46.73 LIG 0.04  A 
ATOM     16  CD1 TYR C  64       9.371  -3.042   9.959  1.00 46.22 LIG 0.01  A 
BRANCH 14 17
ATOM     17 OH   TYR C  64       7.009  -3.379  12.717  1.00 53.82 LIG-0.36  OA
ATOM     18 HH   TYR C  64       6.280  -3.657  12.404  1.00 53.82 LIG 0.22  HD
ENDBRANCH 14 17
ENDBRANCH 10 11
ENDBRANCH 8 10
ENDBRANCH 1 8
BRANCH 4 19
ATOM     19  C   PRO C  65      15.818  -2.648   7.694  1.00 37.07 LIG 0.24  C 
ATOM     20  N   HIS C  66      15.567  -1.532   8.377  1.00 40.38 LIG-0.35  N 
ATOM     21 H    HIS C  66      14.777  -1.212   8.489  1.00 40.38 LIG 0.16  HD
ATOM     22 O    PRO C  65      16.960  -3.087   7.471  1.00 29.28 LIG-0.27  OA
BRANCH 20 23
ATOM     23  CA  HIS C  66      16.620  -0.745   9.003  1.00 40.25 LIG 0.17  C 
BRANCH 23 24
ATOM     24  CB  HIS C  66      16.277   0.750   8.952  1.00 42.68 LIG 0.09  C 
BRANCH 24 25
ATOM     25  CG  HIS C  66      15.374   1.130   7.817  1.00 48.80 LIG 0.06  A 
ATOM     26 ND1  HIS C  66      14.187   1.807   8.001  1.00 53.13 LIG-0.24  NA
ATOM     27  CE1 HIS C  66      13.611   2.005   6.828  1.00 55.16 LIG 0.23  A 
ATOM     28 NE2  HIS C  66      14.380   1.481   5.891  1.00 53.86 LIG-0.25  NA
ATOM     29  CD2 HIS C  66      15.490   0.926   6.484  1.00 53.41 LIG 0.14  A 
ENDBRANCH 24 25
ENDBRANCH 23 24
BRANCH 23 30
ATOM     30  C   HIS C  66      16.847  -1.178  10.451  1.00 41.89 LIG 0.22  C 
ATOM     31 O    HIS C  66      15.896  -1.500  11.168  1.00 44.58 LIG-0.29  OA
ENDBRANCH 23 30
ENDBRANCH 20 23
ENDBRANCH 4 19
TORSDOF 9
ENDMDL
MODEL 36
USER: ADFR SOLUTION from run 37
USER: SCORE 10.463602 LL:  -2.208 LR:  -8.255 RR:   0.000 FEB:  -5.571
USER: RMSD 6.783205
USER: SEED 36
USER: STATUS no improvement in best in 6 clusters for 5 generations
USER: GENES 11
USER: genes 0 Translation |==|  0.62163 0.35362 0.42307
USER: genes 1 Rotation |==|  0.47842 0.12587 0.45213 0.82752
USER: genes 2 Torsion [N]-C--CA-[N] |==|  0.84834
USER: genes 3 Torsion [C]-CA--CB-[CG] |==|  0.28339
USER: genes 4 Torsion [CA]-CB--CG-[CD2] |==|  0.54624
USER: genes 5 Torsion [CE2]-CZ--OH-[HH] |==|  0.51922
USER: genes 6 Torsion [N]-CA--C-[N] |==|  0.93448
USER: genes 7 Torsion [C]-N--CA-[C] |==|  0.88346
USER: genes 8 Torsion [N]-CA--CB-[CG] |==|  0.00468
USER: genes 9 Torsion [CA]-CB--CG-[ND1] |==|  0.26997
USER: genes 10 Torsion [N]-CA--C-[O] |==|  0.84001
ROOT
ATOM      1  C   TYR C  64      14.432  -3.054   5.692  1.00 51.57 LIG 0.26  C 
ATOM      2 O    TYR C  64      15.262  -3.961   5.629  1.00 54.62 LIG-0.27  OA
ATOM      3  N   PRO C  65      13.922  -2.628   6.860  1.00 43.10 LIG-0.34  N 
ATOM      4  CA  PRO C  65      13.030  -1.490   7.101  1.00 38.90 LIG 0.18  C 
ATOM      5  CB  PRO C  65      12.112  -2.013   8.197  1.00 40.80 LIG 0.04  C 
ATOM      6  CG  PRO C  65      12.991  -2.920   8.986  1.00 42.19 LIG 0.02  C 
ATOM      7  CD  PRO C  65      13.978  -3.526   8.027  1.00 44.37 LIG 0.13  C 
ENDROOT
BRANCH 1 8
ATOM      8  CA  TYR C  64      13.942  -2.377   4.414  1.00 49.73 LIG 0.40  C 
ATOM      9  N   TYR C  64      12.484  -2.448   4.363  1.00 50.52 LIG 0.61  N 
BRANCH 8 10
ATOM     10  CB  TYR C  64      14.415  -0.918   4.404  1.00 50.46 LIG 0.09  C 
BRANCH 10 11
ATOM     11  CG  TYR C  64      15.611  -0.626   3.524  1.00 47.68 LIG-0.06  A 
ATOM     12  CD2 TYR C  64      16.337   0.548   3.688  1.00 48.34 LIG 0.01  A 
ATOM     13  CE2 TYR C  64      17.431   0.830   2.892  1.00 49.15 LIG 0.04  A 
ATOM     14  CZ  TYR C  64      17.813  -0.069   1.916  1.00 50.59 LIG 0.07  A 
ATOM     15  CE1 TYR C  64      17.111  -1.243   1.732  1.00 46.73 LIG 0.04  A 
ATOM     16  CD1 TYR C  64      16.016  -1.517   2.535  1.00 46.22 LIG 0.01  A 
BRANCH 14 17
ATOM     17 OH   TYR C  64      18.901   0.207   1.120  1.00 53.82 LIG-0.36  OA
ATOM     18 HH   TYR C  64      18.960  -0.374   0.515  1.00 53.82 LIG 0.22  HD
ENDBRANCH 14 17
ENDBRANCH 10 11
ENDBRANCH 8 10
ENDBRANCH 1 8
BRANCH 4 19
ATOM     19  C   PRO C  65      13.788  -0.267   7.607  1.00 37.07 LIG 0.24  C 
ATOM     20  N   HIS C  66      14.953  -0.514   8.204  1.00 40.38 LIG-0.35  N 
ATOM     21 H    HIS C  66      15.258  -1.306   8.340  1.00 40.38 LIG 0.16  HD
ATOM     22 O    PRO C  65      13.307   0.871   7.462  1.00 29.28 LIG-0.27  OA
BRANCH 20 23
ATOM     23  CA  HIS C  66      15.825   0.547   8.685  1.00 40.25 LIG 0.17  C 
BRANCH 23 24
ATOM     24  CB  HIS C  66      17.234   0.002   8.961  1.00 42.68 LIG 0.09  C 
BRANCH 24 25
ATOM     25  CG  HIS C  66      17.397  -1.453   8.641  1.00 48.80 LIG 0.06  A 
ATOM     26 ND1  HIS C  66      17.932  -1.902   7.452  1.00 53.13 LIG-0.24  NA
ATOM     27  CE1 HIS C  66      17.954  -3.223   7.452  1.00 55.16 LIG 0.23  A 
ATOM     28 NE2  HIS C  66      17.453  -3.648   8.598  1.00 53.86 LIG-0.25  NA
ATOM     29  CD2 HIS C  66      17.096  -2.560   9.359  1.00 53.41 LIG 0.14  A 
ENDBRANCH 24 25
ENDBRANCH 23 24
BRANCH 23 30
ATOM     30  C   HIS C  66      15.901   1.698   7.682  1.00 41.89 LIG 0.22  C 
ATOM     31 O    HIS C  66      16.276   1.500   6.524  1.00 44.58 LIG-0.29  OA
ENDBRANCH 23 30
ENDBRANCH 20 23
ENDBRANCH 4 19
TORSDOF 9
ENDMDL
MODEL 37
USER: ADFR SOLUTION from run 169
USER: SCORE 10.350720 LL:  -2.103 LR:  -8.248 RR:   0.000 FEB:  -5.563
USER: RMSD 4.900518
USER: SEED 168
USER: STATUS no improvement in best in 9 clusters for 5 generations
USER: GENES 11
USER: genes 0 Translation |==|  0.50315 0.38330 0.47472
USER: genes 1 Rotation |==|  0.88949 0.70606 0.46513 0.73372
USER: genes 2 Torsion [N]-C--CA-[N] |==|  0.24857
USER: genes 3 Torsion [C]-CA--CB-[CG] |==|  0.28437
USER: genes 4 Torsion [CA]-CB--CG-[CD2] |==|  0.27495
USER: genes 5 Torsion [CE2]-CZ--OH-[HH] |==|  0.74692
USER: genes 6 Torsion [N]-CA--C-[N] |==|  0.95904
USER: genes 7 Torsion [C]-N--CA-[C] |==|  0.75787
USER: genes 8 Torsion [N]-CA--CB-[CG] |==|  0.00197
USER: genes 9 Torsion [CA]-CB--CG-[ND1] |==|  0.27442
USER: genes 10 Torsion [N]-CA--C-[O] |==|  0.04664
ROOT
ATOM      1  C   TYR C  64      12.210  -2.587   6.622  1.00 51.57 LIG 0.26  C 
ATOM      2 O    TYR C  64      11.340  -1.723   6.733  1.00 54.62 LIG-0.27  OA
ATOM      3  N   PRO C  65      13.409  -2.332   6.072  1.00 43.10 LIG-0.34  N 
ATOM      4  CA  PRO C  65      14.576  -3.216   5.985  1.00 38.90 LIG 0.18  C 
ATOM      5  CB  PRO C  65      15.146  -2.880   4.614  1.00 40.80 LIG 0.04  C 
ATOM      6  CG  PRO C  65      14.836  -1.432   4.451  1.00 42.19 LIG 0.02  C 
ATOM      7  CD  PRO C  65      13.543  -1.172   5.174  1.00 44.37 LIG 0.13  C 
ENDROOT
BRANCH 1 8
ATOM      8  CA  TYR C  64      11.943  -4.007   7.115  1.00 49.73 LIG 0.40  C 
ATOM      9  N   TYR C  64      12.368  -4.119   8.509  1.00 50.52 LIG 0.61  N 
BRANCH 8 10
ATOM     10  CB  TYR C  64      10.446  -4.315   6.979  1.00 50.46 LIG 0.09  C 
BRANCH 10 11
ATOM     11  CG  TYR C  64      10.064  -5.181   5.798  1.00 47.68 LIG-0.06  A 
ATOM     12  CD2 TYR C  64       9.845  -6.544   5.965  1.00 48.34 LIG 0.01  A 
ATOM     13  CE2 TYR C  64       9.496  -7.349   4.897  1.00 49.15 LIG 0.04  A 
ATOM     14  CZ  TYR C  64       9.361  -6.793   3.641  1.00 50.59 LIG 0.07  A 
ATOM     15  CE1 TYR C  64       9.571  -5.442   3.446  1.00 46.73 LIG 0.04  A 
ATOM     16  CD1 TYR C  64       9.920  -4.643   4.523  1.00 46.22 LIG 0.01  A 
BRANCH 14 17
ATOM     17 OH   TYR C  64       9.014  -7.589   2.573  1.00 53.82 LIG-0.36  OA
ATOM     18 HH   TYR C  64       9.710  -7.879   2.202  1.00 53.82 LIG 0.22  HD
ENDBRANCH 14 17
ENDBRANCH 10 11
ENDBRANCH 8 10
ENDBRANCH 1 8
BRANCH 4 19
ATOM     19  C   PRO C  65      15.610  -2.904   7.062  1.00 37.07 LIG 0.24  C 
ATOM     20  N   HIS C  66      15.460  -1.737   7.686  1.00 40.38 LIG-0.35  N 
ATOM     21 H    HIS C  66      14.850  -1.165   7.485  1.00 40.38 LIG 0.16  HD
ATOM     22 O    PRO C  65      16.526  -3.710   7.301  1.00 29.28 LIG-0.27  OA
BRANCH 20 23
ATOM     23  CA  HIS C  66      16.325  -1.320   8.780  1.00 40.25 LIG 0.17  C 
BRANCH 23 24
ATOM     24  CB  HIS C  66      16.444   0.211   8.818  1.00 42.68 LIG 0.09  C 
BRANCH 24 25
ATOM     25  CG  HIS C  66      15.649   0.910   7.758  1.00 48.80 LIG 0.06  A 
ATOM     26 ND1  HIS C  66      14.410   1.467   7.998  1.00 53.13 LIG-0.24  NA
ATOM     27  CE1 HIS C  66      13.953   2.013   6.885  1.00 55.16 LIG 0.23  A 
ATOM     28 NE2  HIS C  66      14.849   1.831   5.932  1.00 53.86 LIG-0.25  NA
ATOM     29  CD2 HIS C  66      15.919   1.142   6.453  1.00 53.41 LIG 0.14  A 
ENDBRANCH 24 25
ENDBRANCH 23 24
BRANCH 23 30
ATOM     30  C   HIS C  66      15.806  -1.834  10.123  1.00 41.89 LIG 0.22  C 
ATOM     31 O    HIS C  66      14.977  -2.747  10.170  1.00 44.58 LIG-0.29  OA
ENDBRANCH 23 30
ENDBRANCH 20 23
ENDBRANCH 4 19
TORSDOF 9
ENDMDL
MODEL 38
USER: ADFR SOLUTION from run 199
USER: SCORE 10.598284 LL:  -2.456 LR:  -8.142 RR:   0.000 FEB:  -5.457
USER: RMSD 3.660023
USER: SEED 198
USER: STATUS no improvement in best in 11 clusters for 5 generations
USER: GENES 11
USER: genes 0 Translation |==|  0.64046 0.34650 0.49515
USER: genes 1 Rotation |==|  0.54072 0.48906 0.53028 0.99730
USER: genes 2 Torsion [N]-C--CA-[N] |==|  0.83429
USER: genes 3 Torsion [C]-CA--CB-[CG] |==|  0.20666
USER: genes 4 Torsion [CA]-CB--CG-[CD2] |==|  0.92405
USER: genes 5 Torsion [CE2]-CZ--OH-[HH] |==|  0.07872
USER: genes 6 Torsion [N]-CA--C-[N] |==|  0.04684
USER: genes 7 Torsion [C]-N--CA-[C] |==|  0.84894
USER: genes 8 Torsion [N]-CA--CB-[CG] |==|  0.83331
USER: genes 9 Torsion [CA]-CB--CG-[ND1] |==|  0.68914
USER: genes 10 Torsion [N]-CA--C-[O] |==|  0.89043
ROOT
ATOM      1  C   TYR C  64      14.785  -3.167   6.990  1.00 51.57 LIG 0.26  C 
ATOM      2 O    TYR C  64      14.788  -3.738   5.899  1.00 54.62 LIG-0.27  OA
ATOM      3  N   PRO C  65      15.907  -2.685   7.551  1.00 43.10 LIG-0.34  N 
ATOM      4  CA  PRO C  65      16.041  -1.882   8.770  1.00 38.90 LIG 0.18  C 
ATOM      5  CB  PRO C  65      17.324  -2.423   9.385  1.00 40.80 LIG 0.04  C 
ATOM      6  CG  PRO C  65      18.151  -2.792   8.202  1.00 42.19 LIG 0.02  C 
ATOM      7  CD  PRO C  65      17.205  -3.234   7.120  1.00 44.37 LIG 0.13  C 
ENDROOT
BRANCH 1 8
ATOM      8  CA  TYR C  64      13.475  -2.988   7.755  1.00 49.73 LIG 0.40  C 
ATOM      9  N   TYR C  64      13.584  -3.652   9.052  1.00 50.52 LIG 0.61  N 
BRANCH 8 10
ATOM     10  CB  TYR C  64      13.195  -1.491   7.933  1.00 50.46 LIG 0.09  C 
BRANCH 10 11
ATOM     11  CG  TYR C  64      12.724  -0.764   6.693  1.00 47.68 LIG-0.06  A 
ATOM     12  CD2 TYR C  64      13.084  -1.219   5.429  1.00 48.34 LIG 0.01  A 
ATOM     13  CE2 TYR C  64      12.663  -0.566   4.286  1.00 49.15 LIG 0.04  A 
ATOM     14  CZ  TYR C  64      11.870   0.558   4.397  1.00 50.59 LIG 0.07  A 
ATOM     15  CE1 TYR C  64      11.496   1.032   5.639  1.00 46.73 LIG 0.04  A 
ATOM     16  CD1 TYR C  64      11.922   0.370   6.779  1.00 46.22 LIG 0.01  A 
BRANCH 14 17
ATOM     17 OH   TYR C  64      11.448   1.213   3.263  1.00 53.82 LIG-0.36  OA
ATOM     18 HH   TYR C  64      11.393   0.666   2.627  1.00 53.82 LIG 0.22  HD
ENDBRANCH 14 17
ENDBRANCH 10 11
ENDBRANCH 8 10
ENDBRANCH 1 8
BRANCH 4 19
ATOM     19  C   PRO C  65      16.206  -0.398   8.460  1.00 37.07 LIG 0.24  C 
ATOM     20  N   HIS C  66      15.860  -0.021   7.231  1.00 40.38 LIG-0.35  N 
ATOM     21 H    HIS C  66      15.595  -0.569   6.623  1.00 40.38 LIG 0.16  HD
ATOM     22 O    PRO C  65      16.651   0.376   9.327  1.00 29.28 LIG-0.27  OA
BRANCH 20 23
ATOM     23  CA  HIS C  66      15.900   1.368   6.799  1.00 40.25 LIG 0.17  C 
BRANCH 23 24
ATOM     24  CB  HIS C  66      15.369   1.501   5.364  1.00 42.68 LIG 0.09  C 
BRANCH 24 25
ATOM     25  CG  HIS C  66      16.148   0.717   4.352  1.00 48.80 LIG 0.06  A 
ATOM     26 ND1  HIS C  66      16.918   1.312   3.375  1.00 53.13 LIG-0.24  NA
ATOM     27  CE1 HIS C  66      17.487   0.377   2.635  1.00 55.16 LIG 0.23  A 
ATOM     28 NE2  HIS C  66      17.114  -0.804   3.095  1.00 53.86 LIG-0.25  NA
ATOM     29  CD2 HIS C  66      16.275  -0.618   4.169  1.00 53.41 LIG 0.14  A 
ENDBRANCH 24 25
ENDBRANCH 23 24
BRANCH 23 30
ATOM     30  C   HIS C  66      15.089   2.262   7.737  1.00 41.89 LIG 0.22  C 
ATOM     31 O    HIS C  66      14.014   1.876   8.202  1.00 44.58 LIG-0.29  OA
ENDBRANCH 23 30
ENDBRANCH 20 23
ENDBRANCH 4 19
TORSDOF 9
ENDMDL
MODEL 39
USER: ADFR SOLUTION from run 26
USER: SCORE 10.537893 LL:  -2.464 LR:  -8.074 RR:   0.000 FEB:  -5.390
USER: RMSD 5.941839
USER: SEED 25
USER: STATUS no improvement in best in 9 clusters for 5 generations
USER: GENES 11
USER: genes 0 Translation |==|  0.51209 0.38465 0.65864
USER: genes 1 Rotation |==|  0.31860 0.10586 0.73716 0.57416
USER: genes 2 Torsion [N]-C--CA-[N] |==|  0.85176
USER: genes 3 Torsion [C]-CA--CB-[CG] |==|  0.15418
USER: genes 4 Torsion [CA]-CB--CG-[CD2] |==|  0.56964
USER: genes 5 Torsion [CE2]-CZ--OH-[HH] |==|  0.67200
USER: genes 6 Torsion [N]-CA--C-[N] |==|  0.96807
USER: genes 7 Torsion [C]-N--CA-[C] |==|  0.54996
USER: genes 8 Torsion [N]-CA--CB-[CG] |==|  0.10245
USER: genes 9 Torsion [CA]-CB--CG-[ND1] |==|  0.17894
USER: genes 10 Torsion [N]-CA--C-[O] |==|  0.82833
ROOT
ATOM      1  C   TYR C  64      12.378  -2.566   9.933  1.00 51.57 LIG 0.26  C 
ATOM      2 O    TYR C  64      12.713  -2.235  11.070  1.00 54.62 LIG-0.27  OA
ATOM      3  N   PRO C  65      11.477  -1.869   9.219  1.00 43.10 LIG-0.34  N 
ATOM      4  CA  PRO C  65      11.075  -2.067   7.823  1.00 38.90 LIG 0.18  C 
ATOM      5  CB  PRO C  65       9.583  -1.768   7.861  1.00 40.80 LIG 0.04  C 
ATOM      6  CG  PRO C  65       9.462  -0.721   8.914  1.00 42.19 LIG 0.02  C 
ATOM      7  CD  PRO C  65      10.533  -0.992   9.934  1.00 44.37 LIG 0.13  C 
ENDROOT
BRANCH 1 8
ATOM      8  CA  TYR C  64      12.988  -3.808   9.287  1.00 49.73 LIG 0.40  C 
ATOM      9  N   TYR C  64      11.914  -4.687   8.831  1.00 50.52 LIG 0.61  N 
BRANCH 8 10
ATOM     10  CB  TYR C  64      13.876  -3.381   8.112  1.00 50.46 LIG 0.09  C 
BRANCH 10 11
ATOM     11  CG  TYR C  64      14.965  -2.385   8.447  1.00 47.68 LIG-0.06  A 
ATOM     12  CD2 TYR C  64      15.478  -1.545   7.465  1.00 48.34 LIG 0.01  A 
ATOM     13  CE2 TYR C  64      16.474  -0.630   7.753  1.00 49.15 LIG 0.04  A 
ATOM     14  CZ  TYR C  64      16.969  -0.547   9.039  1.00 50.59 LIG 0.07  A 
ATOM     15  CE1 TYR C  64      16.478  -1.368  10.034  1.00 46.73 LIG 0.04  A 
ATOM     16  CD1 TYR C  64      15.480  -2.280   9.735  1.00 46.22 LIG 0.01  A 
BRANCH 14 17
ATOM     17 OH   TYR C  64      17.961   0.362   9.332  1.00 53.82 LIG-0.36  OA
ATOM     18 HH   TYR C  64      18.648  -0.047   9.591  1.00 53.82 LIG 0.22  HD
ENDBRANCH 14 17
ENDBRANCH 10 11
ENDBRANCH 8 10
ENDBRANCH 1 8
BRANCH 4 19
ATOM     19  C   PRO C  65      11.770  -1.086   6.884  1.00 37.07 LIG 0.24  C 
ATOM     20  N   HIS C  66      12.419  -0.083   7.474  1.00 40.38 LIG-0.35  N 
ATOM     21 H    HIS C  66      12.425   0.044   8.324  1.00 40.38 LIG 0.16  HD
ATOM     22 O    PRO C  65      11.701  -1.243   5.652  1.00 29.28 LIG-0.27  OA
BRANCH 20 23
ATOM     23  CA  HIS C  66      13.185   0.901   6.722  1.00 40.25 LIG 0.17  C 
BRANCH 23 24
ATOM     24  CB  HIS C  66      12.246   1.900   6.030  1.00 42.68 LIG 0.09  C 
BRANCH 24 25
ATOM     25  CG  HIS C  66      11.035   2.257   6.837  1.00 48.80 LIG 0.06  A 
ATOM     26 ND1  HIS C  66      11.110   2.925   8.041  1.00 53.13 LIG-0.24  NA
ATOM     27  CE1 HIS C  66       9.891   3.104   8.520  1.00 55.16 LIG 0.23  A 
ATOM     28 NE2  HIS C  66       9.028   2.576   7.670  1.00 53.86 LIG-0.25  NA
ATOM     29  CD2 HIS C  66       9.719   2.038   6.610  1.00 53.41 LIG 0.14  A 
ENDBRANCH 24 25
ENDBRANCH 23 24
BRANCH 23 30
ATOM     30  C   HIS C  66      14.163   1.650   7.628  1.00 41.89 LIG 0.22  C 
ATOM     31 O    HIS C  66      13.752   2.333   8.569  1.00 44.58 LIG-0.29  OA
ENDBRANCH 23 30
ENDBRANCH 20 23
ENDBRANCH 4 19
TORSDOF 9
ENDMDL
MODEL 40
USER: ADFR SOLUTION from run 45
USER: SCORE 10.137961 LL:  -2.170 LR:  -7.968 RR:   0.000 FEB:  -5.283
USER: RMSD 3.138083
USER: SEED 44
USER: STATUS searching
USER: GENES 11
USER: genes 0 Translation |==|  0.67217 0.31584 0.63927
USER: genes 1 Rotation |==|  0.32371 0.65379 0.59985 0.93046
USER: genes 2 Torsion [N]-C--CA-[N] |==|  0.87413
USER: genes 3 Torsion [C]-CA--CB-[CG] |==|  0.31571
USER: genes 4 Torsion [CA]-CB--CG-[CD2] |==|  0.40092
USER: genes 5 Torsion [CE2]-CZ--OH-[HH] |==|  0.29978
USER: genes 6 Torsion [N]-CA--C-[N] |==|  0.28311
USER: genes 7 Torsion [C]-N--CA-[C] |==|  0.66780
USER: genes 8 Torsion [N]-CA--CB-[CG] |==|  0.87444
USER: genes 9 Torsion [CA]-CB--CG-[ND1] |==|  0.40184
USER: genes 10 Torsion [N]-CA--C-[O] |==|  0.99147
ROOT
ATOM      1  C   TYR C  64      15.379  -3.649   9.584  1.00 51.57 LIG 0.26  C 
ATOM      2 O    TYR C  64      15.320  -4.874   9.470  1.00 54.62 LIG-0.27  OA
ATOM      3  N   PRO C  65      16.189  -2.896   8.821  1.00 43.10 LIG-0.34  N 
ATOM      4  CA  PRO C  65      16.276  -1.434   8.757  1.00 38.90 LIG 0.18  C 
ATOM      5  CB  PRO C  65      17.768  -1.197   8.577  1.00 40.80 LIG 0.04  C 
ATOM      6  CG  PRO C  65      18.215  -2.371   7.777  1.00 42.19 LIG 0.02  C 
ATOM      7  CD  PRO C  65      17.349  -3.534   8.175  1.00 44.37 LIG 0.13  C 
ENDROOT
BRANCH 1 8
ATOM      8  CA  TYR C  64      14.517  -2.937  10.623  1.00 49.73 LIG 0.40  C 
ATOM      9  N   TYR C  64      15.335  -1.959  11.336  1.00 50.52 LIG 0.61  N 
BRANCH 8 10
ATOM     10  CB  TYR C  64      13.342  -2.249   9.917  1.00 50.46 LIG 0.09  C 
BRANCH 10 11
ATOM     11  CG  TYR C  64      11.972  -2.807  10.238  1.00 47.68 LIG-0.06  A 
ATOM     12  CD2 TYR C  64      10.870  -1.963  10.325  1.00 48.34 LIG 0.01  A 
ATOM     13  CE2 TYR C  64       9.612  -2.456  10.618  1.00 49.15 LIG 0.04  A 
ATOM     14  CZ  TYR C  64       9.443  -3.810  10.827  1.00 50.59 LIG 0.07  A 
ATOM     15  CE1 TYR C  64      10.520  -4.671  10.745  1.00 46.73 LIG 0.04  A 
ATOM     16  CD1 TYR C  64      11.776  -4.167  10.451  1.00 46.22 LIG 0.01  A 
BRANCH 14 17
ATOM     17 OH   TYR C  64       8.194  -4.307  11.119  1.00 53.82 LIG-0.36  OA
ATOM     18 HH   TYR C  64       7.898  -4.730  10.456  1.00 53.82 LIG 0.22  HD
ENDBRANCH 14 17
ENDBRANCH 10 11
ENDBRANCH 8 10
ENDBRANCH 1 8
BRANCH 4 19
ATOM     19  C   PRO C  65      15.518  -0.869   7.560  1.00 37.07 LIG 0.24  C 
ATOM     20  N   HIS C  66      14.326  -0.339   7.827  1.00 40.38 LIG-0.35  N 
ATOM     21 H    HIS C  66      13.971  -0.339   8.610  1.00 40.38 LIG 0.16  HD
ATOM     22 O    PRO C  65      16.014  -0.930   6.420  1.00 29.28 LIG-0.27  OA
BRANCH 20 23
ATOM     23  CA  HIS C  66      13.507   0.298   6.806  1.00 40.25 LIG 0.17  C 
BRANCH 23 24
ATOM     24  CB  HIS C  66      12.176  -0.450   6.640  1.00 42.68 LIG 0.09  C 
BRANCH 24 25
ATOM     25  CG  HIS C  66      12.319  -1.940   6.580  1.00 48.80 LIG 0.06  A 
ATOM     26 ND1  HIS C  66      11.389  -2.803   7.121  1.00 53.13 LIG-0.24  NA
ATOM     27  CE1 HIS C  66      11.776  -4.049   6.916  1.00 55.16 LIG 0.23  A 
ATOM     28 NE2  HIS C  66      12.924  -4.028   6.262  1.00 53.86 LIG-0.25  NA
ATOM     29  CD2 HIS C  66      13.285  -2.719   6.040  1.00 53.41 LIG 0.14  A 
ENDBRANCH 24 25
ENDBRANCH 23 24
BRANCH 23 30
ATOM     30  C   HIS C  66      13.240   1.764   7.145  1.00 41.89 LIG 0.22  C 
ATOM     31 O    HIS C  66      13.651   2.251   8.202  1.00 44.58 LIG-0.29  OA
ENDBRANCH 23 30
ENDBRANCH 20 23
ENDBRANCH 4 19
TORSDOF 9
ENDMDL
MODEL 41
USER: ADFR SOLUTION from run 6
USER: SCORE 10.026546 LL:  -2.103 LR:  -7.924 RR:   0.000 FEB:  -5.239
USER: RMSD 4.872549
USER: SEED 263892
USER: STATUS no improvement in best in 10 clusters for 5 generations
USER: GENES 11
USER: genes 0 Translation |==|  0.50151 0.37137 0.54587
USER: genes 1 Rotation |==|  0.30192 0.08438 0.50919 0.69477
USER: genes 2 Torsion [N]-C--CA-[N] |==|  0.43046
USER: genes 3 Torsion [C]-CA--CB-[CG] |==|  0.82561
USER: genes 4 Torsion [CA]-CB--CG-[CD2] |==|  0.18509
USER: genes 5 Torsion [CE2]-CZ--OH-[HH] |==|  0.85345
USER: genes 6 Torsion [N]-CA--C-[N] |==|  0.12589
USER: genes 7 Torsion [C]-N--CA-[C] |==|  0.67654
USER: genes 8 Torsion [N]-CA--CB-[CG] |==|  0.07421
USER: genes 9 Torsion [CA]-CB--CG-[ND1] |==|  0.13423
USER: genes 10 Torsion [N]-CA--C-[O] |==|  0.91928
ROOT
ATOM      1  C   TYR C  64      12.179  -2.775   7.903  1.00 51.57 LIG 0.26  C 
ATOM      2 O    TYR C  64      12.403  -3.633   8.757  1.00 54.62 LIG-0.27  OA
ATOM      3  N   PRO C  65      11.704  -1.558   8.215  1.00 43.10 LIG-0.34  N 
ATOM      4  CA  PRO C  65      11.508  -0.404   7.332  1.00 38.90 LIG 0.18  C 
ATOM      5  CB  PRO C  65      10.220   0.208   7.865  1.00 40.80 LIG 0.04  C 
ATOM      6  CG  PRO C  65      10.277  -0.074   9.327  1.00 42.19 LIG 0.02  C 
ATOM      7  CD  PRO C  65      11.001  -1.381   9.498  1.00 44.37 LIG 0.13  C 
ENDROOT
BRANCH 1 8
ATOM      8  CA  TYR C  64      12.439  -3.079   6.429  1.00 49.73 LIG 0.40  C 
ATOM      9  N   TYR C  64      13.455  -4.124   6.327  1.00 50.52 LIG 0.61  N 
BRANCH 8 10
ATOM     10  CB  TYR C  64      11.130  -3.529   5.768  1.00 50.46 LIG 0.09  C 
BRANCH 10 11
ATOM     11  CG  TYR C  64      10.529  -4.805   6.315  1.00 47.68 LIG-0.06  A 
ATOM     12  CD2 TYR C  64      10.037  -4.853   7.614  1.00 48.34 LIG 0.01  A 
ATOM     13  CE2 TYR C  64       9.486  -6.011   8.130  1.00 49.15 LIG 0.04  A 
ATOM     14  CZ  TYR C  64       9.421  -7.143   7.342  1.00 50.59 LIG 0.07  A 
ATOM     15  CE1 TYR C  64       9.901  -7.124   6.047  1.00 46.73 LIG 0.04  A 
ATOM     16  CD1 TYR C  64      10.451  -5.958   5.540  1.00 46.22 LIG 0.01  A 
BRANCH 14 17
ATOM     17 OH   TYR C  64       8.874  -8.299   7.849  1.00 53.82 LIG-0.36  OA
ATOM     18 HH   TYR C  64       9.247  -8.491   8.577  1.00 53.82 LIG 0.22  HD
ENDBRANCH 14 17
ENDBRANCH 10 11
ENDBRANCH 8 10
ENDBRANCH 1 8
BRANCH 4 19
ATOM     19  C   PRO C  65      12.644   0.606   7.452  1.00 37.07 LIG 0.24  C 
ATOM     20  N   HIS C  66      13.874   0.095   7.452  1.00 40.38 LIG-0.35  N 
ATOM     21 H    HIS C  66      14.038  -0.748   7.425  1.00 40.38 LIG 0.16  HD
ATOM     22 O    PRO C  65      12.394   1.820   7.554  1.00 29.28 LIG-0.27  OA
BRANCH 20 23
ATOM     23  CA  HIS C  66      15.067   0.929   7.496  1.00 40.25 LIG 0.17  C 
BRANCH 23 24
ATOM     24  CB  HIS C  66      15.919   0.586   8.726  1.00 42.68 LIG 0.09  C 
BRANCH 24 25
ATOM     25  CG  HIS C  66      15.747  -0.821   9.212  1.00 48.80 LIG 0.06  A 
ATOM     26 ND1  HIS C  66      15.798  -1.913   8.372  1.00 53.13 LIG-0.24  NA
ATOM     27  CE1 HIS C  66      15.617  -3.017   9.076  1.00 55.16 LIG 0.23  A 
ATOM     28 NE2  HIS C  66      15.450  -2.680  10.343  1.00 53.86 LIG-0.25  NA
ATOM     29  CD2 HIS C  66      15.526  -1.312  10.453  1.00 53.41 LIG 0.14  A 
ENDBRANCH 24 25
ENDBRANCH 23 24
BRANCH 23 30
ATOM     30  C   HIS C  66      15.901   0.769   6.225  1.00 41.89 LIG 0.22  C 
ATOM     31 O    HIS C  66      15.888  -0.290   5.593  1.00 44.58 LIG-0.29  OA
ENDBRANCH 23 30
ENDBRANCH 20 23
ENDBRANCH 4 19
TORSDOF 9
ENDMDL
MODEL 42
USER: ADFR SOLUTION from run 129
USER: SCORE 10.049567 LL:  -2.194 LR:  -7.855 RR:   0.000 FEB:  -5.170
USER: RMSD 5.035057
USER: SEED 128
USER: STATUS no improvement in best in 8 clusters for 5 generations
USER: GENES 11
USER: genes 0 Translation |==|  0.53320 0.51891 0.48962
USER: genes 1 Rotation |==|  0.75299 0.71046 0.52891 0.87532
USER: genes 2 Torsion [N]-C--CA-[N] |==|  0.44229
USER: genes 3 Torsion [C]-CA--CB-[CG] |==|  0.27017
USER: genes 4 Torsion [CA]-CB--CG-[CD2] |==|  0.17791
USER: genes 5 Torsion [CE2]-CZ--OH-[HH] |==|  0.33144
USER: genes 6 Torsion [N]-CA--C-[N] |==|  0.93660
USER: genes 7 Torsion [C]-N--CA-[C] |==|  0.65436
USER: genes 8 Torsion [N]-CA--CB-[CG] |==|  0.18931
USER: genes 9 Torsion [CA]-CB--CG-[ND1] |==|  0.38535
USER: genes 10 Torsion [N]-CA--C-[O] |==|  0.99427
ROOT
ATOM      1  C   TYR C  64      12.774  -0.451   6.890  1.00 51.57 LIG 0.26  C 
ATOM      2 O    TYR C  64      11.769  -0.169   6.236  1.00 54.62 LIG-0.27  OA
ATOM      3  N   PRO C  65      13.984   0.057   6.602  1.00 43.10 LIG-0.34  N 
ATOM      4  CA  PRO C  65      15.233  -0.087   7.356  1.00 38.90 LIG 0.18  C 
ATOM      5  CB  PRO C  65      16.276  -0.198   6.253  1.00 40.80 LIG 0.04  C 
ATOM      6  CG  PRO C  65      15.729   0.660   5.166  1.00 42.19 LIG 0.02  C 
ATOM      7  CD  PRO C  65      14.229   0.572   5.244  1.00 44.37 LIG 0.13  C 
ENDROOT
BRANCH 1 8
ATOM      8  CA  TYR C  64      12.670  -1.411   8.073  1.00 49.73 LIG 0.40  C 
ATOM      9  N   TYR C  64      11.283  -1.460   8.531  1.00 50.52 LIG 0.61  N 
BRANCH 8 10
ATOM     10  CB  TYR C  64      13.146  -2.802   7.637  1.00 50.46 LIG 0.09  C 
BRANCH 10 11
ATOM     11  CG  TYR C  64      14.582  -3.136   7.979  1.00 47.68 LIG-0.06  A 
ATOM     12  CD2 TYR C  64      14.988  -3.226   9.305  1.00 48.34 LIG 0.01  A 
ATOM     13  CE2 TYR C  64      16.296  -3.530   9.635  1.00 49.15 LIG 0.04  A 
ATOM     14  CZ  TYR C  64      17.217  -3.749   8.631  1.00 50.59 LIG 0.07  A 
ATOM     15  CE1 TYR C  64      16.841  -3.668   7.304  1.00 46.73 LIG 0.04  A 
ATOM     16  CD1 TYR C  64      15.528  -3.364   6.985  1.00 46.22 LIG 0.01  A 
BRANCH 14 17
ATOM     17 OH   TYR C  64      18.521  -4.051   8.952  1.00 53.82 LIG-0.36  OA
ATOM     18 HH   TYR C  64      18.718  -4.807   8.644  1.00 53.82 LIG 0.22  HD
ENDBRANCH 14 17
ENDBRANCH 10 11
ENDBRANCH 8 10
ENDBRANCH 1 8
BRANCH 4 19
ATOM     19  C   PRO C  65      15.524   1.139   8.217  1.00 37.07 LIG 0.24  C 
ATOM     20  N   HIS C  66      14.939   2.270   7.828  1.00 40.38 LIG-0.35  N 
ATOM     21 H    HIS C  66      14.456   2.336   7.120  1.00 40.38 LIG 0.16  HD
ATOM     22 O    PRO C  65      16.276   1.046   9.203  1.00 29.28 LIG-0.27  OA
BRANCH 20 23
ATOM     23  CA  HIS C  66      15.065   3.512   8.577  1.00 40.25 LIG 0.17  C 
BRANCH 23 24
ATOM     24  CB  HIS C  66      15.859   4.549   7.770  1.00 42.68 LIG 0.09  C 
BRANCH 24 25
ATOM     25  CG  HIS C  66      15.144   5.048   6.551  1.00 48.80 LIG 0.06  A 
ATOM     26 ND1  HIS C  66      15.151   6.373   6.169  1.00 53.13 LIG-0.24  NA
ATOM     27  CE1 HIS C  66      14.444   6.514   5.062  1.00 55.16 LIG 0.23  A 
ATOM     28 NE2  HIS C  66      13.978   5.329   4.711  1.00 53.86 LIG-0.25  NA
ATOM     29  CD2 HIS C  66      14.401   4.395   5.627  1.00 53.41 LIG 0.14  A 
ENDBRANCH 24 25
ENDBRANCH 23 24
BRANCH 23 30
ATOM     30  C   HIS C  66      13.694   4.078   8.944  1.00 41.89 LIG 0.22  C 
ATOM     31 O    HIS C  66      12.660   3.514   8.577  1.00 44.58 LIG-0.29  OA
ENDBRANCH 23 30
ENDBRANCH 20 23
ENDBRANCH 4 19
TORSDOF 9
ENDMDL
MODEL 43
USER: ADFR SOLUTION from run 132
USER: SCORE 10.024815 LL:  -2.265 LR:  -7.760 RR:   0.000 FEB:  -5.075
USER: RMSD 2.678111
USER: SEED 131
USER: STATUS no improvement in best in 9 clusters for 5 generations
USER: GENES 11
USER: genes 0 Translation |==|  0.59995 0.36517 0.55561
USER: genes 1 Rotation |==|  0.47629 0.48639 0.49580 0.99923
USER: genes 2 Torsion [N]-C--CA-[N] |==|  0.26469
USER: genes 3 Torsion [C]-CA--CB-[CG] |==|  0.76205
USER: genes 4 Torsion [CA]-CB--CG-[CD2] |==|  0.29169
USER: genes 5 Torsion [CE2]-CZ--OH-[HH] |==|  0.15479
USER: genes 6 Torsion [N]-CA--C-[N] |==|  0.08672
USER: genes 7 Torsion [C]-N--CA-[C] |==|  0.78562
USER: genes 8 Torsion [N]-CA--CB-[CG] |==|  0.96946
USER: genes 9 Torsion [CA]-CB--CG-[ND1] |==|  0.23075
USER: genes 10 Torsion [N]-CA--C-[O] |==|  0.94730
ROOT
ATOM      1  C   TYR C  64      14.025  -2.873   8.078  1.00 51.57 LIG 0.26  C 
ATOM      2 O    TYR C  64      13.942  -3.695   7.165  1.00 54.62 LIG-0.27  OA
ATOM      3  N   PRO C  65      15.207  -2.428   8.538  1.00 43.10 LIG-0.34  N 
ATOM      4  CA  PRO C  65      15.460  -1.371   9.522  1.00 38.90 LIG 0.18  C 
ATOM      5  CB  PRO C  65      16.654  -1.915  10.294  1.00 40.80 LIG 0.04  C 
ATOM      6  CG  PRO C  65      17.415  -2.682   9.269  1.00 42.19 LIG 0.02  C 
ATOM      7  CD  PRO C  65      16.410  -3.244   8.301  1.00 44.37 LIG 0.13  C 
ENDROOT
BRANCH 1 8
ATOM      8  CA  TYR C  64      12.758  -2.325   8.731  1.00 49.73 LIG 0.40  C 
ATOM      9  N   TYR C  64      12.260  -1.200   7.942  1.00 50.52 LIG 0.61  N 
BRANCH 8 10
ATOM     10  CB  TYR C  64      11.708  -3.440   8.808  1.00 50.46 LIG 0.09  C 
BRANCH 10 11
ATOM     11  CG  TYR C  64      10.854  -3.617   7.572  1.00 47.68 LIG-0.06  A 
ATOM     12  CD2 TYR C  64      11.073  -4.686   6.710  1.00 48.34 LIG 0.01  A 
ATOM     13  CE2 TYR C  64      10.303  -4.863   5.576  1.00 49.15 LIG 0.04  A 
ATOM     14  CZ  TYR C  64       9.296  -3.963   5.291  1.00 50.59 LIG 0.07  A 
ATOM     15  CE1 TYR C  64       9.054  -2.893   6.130  1.00 46.73 LIG 0.04  A 
ATOM     16  CD1 TYR C  64       9.831  -2.725   7.264  1.00 46.22 LIG 0.01  A 
BRANCH 14 17
ATOM     17 OH   TYR C  64       8.525  -4.132   4.163  1.00 53.82 LIG-0.36  OA
ATOM     18 HH   TYR C  64       8.178  -4.898   4.173  1.00 53.82 LIG 0.22  HD
ENDBRANCH 14 17
ENDBRANCH 10 11
ENDBRANCH 8 10
ENDBRANCH 1 8
BRANCH 4 19
ATOM     19  C   PRO C  65      15.837  -0.051   8.857  1.00 37.07 LIG 0.24  C 
ATOM     20  N   HIS C  66      15.291   0.172   7.663  1.00 40.38 LIG-0.35  N 
ATOM     21 H    HIS C  66      14.787  -0.395   7.258  1.00 40.38 LIG 0.16  HD
ATOM     22 O    PRO C  65      16.618   0.734   9.424  1.00 29.28 LIG-0.27  OA
BRANCH 20 23
ATOM     23  CA  HIS C  66      15.500   1.410   6.927  1.00 40.25 LIG 0.17  C 
BRANCH 23 24
ATOM     24  CB  HIS C  66      15.181   1.213   5.439  1.00 42.68 LIG 0.09  C 
BRANCH 24 25
ATOM     25  CG  HIS C  66      14.991  -0.220   5.042  1.00 48.80 LIG 0.06  A 
ATOM     26 ND1  HIS C  66      13.797  -0.889   5.206  1.00 53.13 LIG-0.24  NA
ATOM     27  CE1 HIS C  66      13.926  -2.129   4.767  1.00 55.16 LIG 0.23  A 
ATOM     28 NE2  HIS C  66      15.160  -2.289   4.325  1.00 53.86 LIG-0.25  NA
ATOM     29  CD2 HIS C  66      15.848  -1.109   4.487  1.00 53.41 LIG 0.14  A 
ENDBRANCH 24 25
ENDBRANCH 23 24
BRANCH 23 30
ATOM     30  C   HIS C  66      14.645   2.543   7.496  1.00 41.89 LIG 0.22  C 
ATOM     31 O    HIS C  66      13.666   2.297   8.204  1.00 44.58 LIG-0.29  OA
ENDBRANCH 23 30
ENDBRANCH 20 23
ENDBRANCH 4 19
TORSDOF 9
ENDMDL
