MODEL 1
USER: ADFR SOLUTION from run 82
USER: SCORE 25.073149 LL:  -7.512 LR: -18.901 RR:   0.000 FEB: -11.444
USER: RMSD 1.607048
USER: SEED 81
USER: STATUS 1 or 2 clusters left
USER: GENES 27
USER: genes 0 Translation |==|  0.51626 0.49308 0.64723
USER: genes 1 Rotation |==|  0.52353 0.49702 0.55971 0.99586
USER: genes 2 Torsion [C]-CA--N-[C] |==|  0.79693
USER: genes 3 Torsion [N]-C--CA-[N] |==|  0.89267
USER: genes 4 Torsion [C]-CA--N-[C] |==|  0.84500
USER: genes 5 Torsion [N]-C--CA-[N] |==|  0.95556
USER: genes 6 Torsion [C]-CA--N-[C] |==|  0.77845
USER: genes 7 Torsion [N]-C--CA-[N] |==|  0.04698
USER: genes 8 Torsion [C]-CA--N-[H1] |==|  0.43519
USER: genes 9 Torsion [C]-CA--CB-[CG] |==|  0.37769
USER: genes 10 Torsion [CA]-CB--CG-[OD2] |==|  0.47227
USER: genes 11 Torsion [C]-CA--CB-[CG] |==|  0.73123
USER: genes 12 Torsion [CA]-CB--CG-[CD] |==|  0.77754
USER: genes 13 Torsion [CB]-CG--CD-[OE1] |==|  0.88758
USER: genes 14 Torsion [N]-CA--C-[N] |==|  0.94182
USER: genes 15 Torsion [C]-N--CA-[CB] |==|  0.39408
USER: genes 16 Torsion [N]-CA--CB-[CG] |==|  0.91857
USER: genes 17 Torsion [CA]-CB--CG-[CD] |==|  0.53287
USER: genes 18 Torsion [CB]-CG--CD-[NE] |==|  0.75491
USER: genes 19 Torsion [CG]-CD--NE-[HE] |==|  0.81473
USER: genes 20 Torsion [N]-CA--C-[N] |==|  0.90877
USER: genes 21 Torsion [C]-N--CA-[CB] |==|  0.40272
USER: genes 22 Torsion [N]-CA--CB-[CG] |==|  0.82725
USER: genes 23 Torsion [CA]-CB--CG-[ND1] |==|  0.54193
USER: genes 24 Torsion [N]-CA--C-[O] |==|  0.99977
USER: genes 25 Torsion [N]-CA--CB-[CG] |==|  0.82201
USER: genes 26 Torsion [CA]-CB--CG-[CD2] |==|  0.29123
ROOT
ATOM      1  CA  PHE A   4      63.134  45.572 111.034  1.00  8.73 LIG 0.18  C 
ENDROOT
BRANCH 1 2
ATOM      2  N   PHE A   4      62.338  44.629 110.262  1.00  8.80 LIG-0.35  N 
ATOM      3  C   GLU A   3      61.011  44.662 110.293  1.00  9.88 LIG 0.24  C 
ATOM      4 O    GLU A   3      60.388  45.478 110.989  1.00 11.78 LIG-0.27  OA
ATOM      5 H    PHE A   4      62.797  44.068 109.799  1.00  8.80 LIG 0.16  HD
BRANCH 3 6
ATOM      6  CA  GLU A   3      60.266  43.599 109.469  1.00  9.13 LIG 0.18  C 
BRANCH 6 7
ATOM      7  N   GLU A   3      60.890  43.301 108.173  1.00  7.51 LIG-0.35  N 
ATOM      8  C   ALA A   2      61.124  44.267 107.287  1.00 12.24 LIG 0.24  C 
ATOM      9 O    ALA A   2      60.864  45.458 107.525  1.00 10.29 LIG-0.27  OA
ATOM     10 H    GLU A   3      61.082  42.472 108.048  1.00  7.51 LIG 0.16  HD
BRANCH 8 11
ATOM     11  CA  ALA A   2      61.752  43.848 105.955  1.00  7.33 LIG 0.17  C 
ATOM     12  CB  ALA A   2      60.730  43.954 104.828  1.00  8.39 LIG 0.04  C 
BRANCH 11 13
ATOM     13  N   ALA A   2      62.344  42.505 105.986  1.00  8.02 LIG-0.35  N 
ATOM     14 H    ALA A   2      61.850  41.893 105.637  1.00  8.02 LIG 0.16  HD
ATOM     15  C   ASP A   1      63.546  42.275 106.515  1.00  8.83 LIG 0.25  C 
ATOM     16 O    ASP A   1      64.238  43.158 107.017  1.00  7.52 LIG-0.27  OA
BRANCH 15 17
ATOM     17  CA  ASP A   1      64.052  40.840 106.482  1.00  7.69 LIG 0.28  C 
BRANCH 17 18
ATOM     18  N   ASP A   1      63.296  39.998 105.510  1.00 12.20 LIG-0.07  N 
ATOM     19 H3   ASP A   1      63.091  40.483 104.793  1.00 12.20 LIG 0.28  HD
ATOM     20 H1   ASP A   1      63.797  39.305 105.265  1.00 12.20 LIG 0.28  HD
ATOM     21 H2   ASP A   1      62.548  39.702 105.892  1.00 12.20 LIG 0.28  HD
ENDBRANCH 17 18
BRANCH 17 22
ATOM     22  CB  ASP A   1      65.542  40.850 106.134  1.00 12.14 LIG 0.15  C 
BRANCH 22 23
ATOM     23  CG  ASP A   1      66.362  39.902 107.004  1.00 11.50 LIG 0.17  C 
ATOM     24 OD2  ASP A   1      67.544  39.707 106.663  1.00  7.11 LIG-0.65  OA
ATOM     25 OD1  ASP A   1      65.852  39.371 108.026  1.00  8.56 LIG-0.65  OA
ENDBRANCH 22 23
ENDBRANCH 17 22
ENDBRANCH 15 17
ENDBRANCH 11 13
ENDBRANCH 8 11
ENDBRANCH 6 7
BRANCH 6 26
ATOM     26  CB  GLU A   3      60.108  42.316 110.302  1.00  8.36 LIG 0.04  C 
BRANCH 26 27
ATOM     27  CG  GLU A   3      61.164  41.227 110.049  1.00  8.75 LIG 0.12  C 
BRANCH 27 28
ATOM     28  CD  GLU A   3      60.905  40.386 108.800  1.00 11.41 LIG 0.17  C 
ATOM     29 OE1  GLU A   3      59.738  40.035 108.538  1.00  7.99 LIG-0.65  OA
ATOM     30 OE2  GLU A   3      61.878  40.083 108.065  1.00 13.12 LIG-0.65  OA
ENDBRANCH 27 28
ENDBRANCH 26 27
ENDBRANCH 6 26
ENDBRANCH 3 6
ENDBRANCH 1 2
BRANCH 1 31
ATOM     31  C   PHE A   4      63.098  46.980 110.432  1.00 10.65 LIG 0.24  C 
ATOM     32  N   ARG A   5      62.761  47.082 109.152  1.00  9.73 LIG-0.35  N 
ATOM     33 H    ARG A   5      62.562  46.411 108.651  1.00  9.73 LIG 0.16  HD
ATOM     34 O    PHE A   4      63.328  47.958 111.128  1.00 11.27 LIG-0.27  OA
BRANCH 32 35
ATOM     35  CA  ARG A   5      62.701  48.378 108.477  1.00 16.16 LIG 0.18  C 
BRANCH 35 36
ATOM     36  CB  ARG A   5      63.227  48.261 107.033  1.00 18.38 LIG 0.04  C 
BRANCH 36 37
ATOM     37  CG  ARG A   5      64.286  47.175 106.798  1.00 17.37 LIG 0.02  C 
BRANCH 37 38
ATOM     38  CD  ARG A   5      64.966  47.312 105.419  1.00 18.74 LIG 0.14  C 
BRANCH 38 39
ATOM     39  NE  ARG A   5      64.238  46.589 104.370  1.00 16.23 LIG-0.23  N 
ATOM     40 HE   ARG A   5      64.214  45.730 104.415  1.00 16.23 LIG 0.18  HD
ATOM     41  CZ  ARG A   5      63.614  47.176 103.356  1.00 23.02 LIG 0.67  C 
ATOM     42  NH2 ARG A   5      62.952  46.449 102.461  1.00 17.77 LIG-0.23  N 
ATOM     43  NH1 ARG A   5      63.649  48.499 103.231  1.00 22.06 LIG-0.23  N 
ATOM     44 1HH2 ARG A   5      62.925  45.593 102.536  1.00 17.77 LIG 0.17  HD
ATOM     45 2HH2 ARG A   5      62.549  46.836 101.806  1.00 17.77 LIG 0.17  HD
ATOM     46 2HH1 ARG A   5      63.245  48.880 102.575  1.00 22.06 LIG 0.17  HD
ATOM     47 1HH1 ARG A   5      64.076  48.974 103.807  1.00 22.06 LIG 0.17  HD
ENDBRANCH 38 39
ENDBRANCH 37 38
ENDBRANCH 36 37
ENDBRANCH 35 36
BRANCH 35 48
ATOM     48  C   ARG A   5      61.264  48.940 108.458  1.00 22.64 LIG 0.24  C 
ATOM     49 O    ARG A   5      61.061  50.146 108.517  1.00 28.37 LIG-0.27  OA
ATOM     50  N   HIS A   6      60.286  48.049 108.379  1.00 30.17 LIG-0.35  N 
ATOM     51 H    HIS A   6      60.412  47.205 108.483  1.00 30.17 LIG 0.16  HD
BRANCH 50 52
ATOM     52  CA  HIS A   6      58.892  48.401 108.108  1.00 40.98 LIG 0.17  C 
BRANCH 52 53
ATOM     53  CB  HIS A   6      58.208  47.305 107.250  1.00 38.64 LIG 0.09  C 
BRANCH 53 54
ATOM     54  CG  HIS A   6      58.814  47.100 105.889  1.00 38.02 LIG 0.06  A 
ATOM     55 ND1  HIS A   6      58.167  46.402 104.889  1.00 51.26 LIG-0.24  NA
ATOM     56  CE1 HIS A   6      58.923  46.381 103.804  1.00 35.95 LIG 0.23  A 
ATOM     57 NE2  HIS A   6      60.038  47.043 104.062  1.00 45.10 LIG-0.25  NA
ATOM     58  CD2 HIS A   6      59.996  47.499 105.361  1.00 36.38 LIG 0.14  A 
ENDBRANCH 53 54
ENDBRANCH 52 53
BRANCH 52 59
ATOM     59  C   HIS A   6      58.140  48.525 109.427  1.00 40.61 LIG 0.22  C 
ATOM     60 O    HIS A   6      58.730  48.331 110.497  1.00 40.83 LIG-0.29  OA
ENDBRANCH 52 59
ENDBRANCH 50 52
ENDBRANCH 35 48
ENDBRANCH 32 35
ENDBRANCH 1 31
BRANCH 1 61
ATOM     61  CB  PHE A   4      64.581  45.076 111.172  1.00  8.88 LIG 0.07  C 
BRANCH 61 62
ATOM     62  CG  PHE A   4      64.703  43.791 111.949  1.00  5.46 LIG-0.06  A 
ATOM     63  CD2 PHE A   4      64.951  42.587 111.301  1.00  6.98 LIG 0.01  A 
ATOM     64  CE2 PHE A   4      65.057  41.397 112.028  1.00  8.89 LIG 0.00  A 
ATOM     65  CZ  PHE A   4      64.907  41.418 113.413  1.00  4.47 LIG 0.00  A 
ATOM     66  CE1 PHE A   4      64.664  42.608 114.062  1.00  8.64 LIG 0.00  A 
ATOM     67  CD1 PHE A   4      64.548  43.789 113.330  1.00  9.90 LIG 0.01  A 
ENDBRANCH 61 62
ENDBRANCH 1 61
TORSDOF 25
ENDMDL
MODEL 2
USER: ADFR SOLUTION from run 181
USER: SCORE 23.722856 LL:  -6.940 LR: -18.256 RR:   0.000 FEB: -10.798
USER: RMSD 2.814917
USER: SEED 180
USER: STATUS searching
USER: GENES 27
USER: genes 0 Translation |==|  0.51002 0.50368 0.64658
USER: genes 1 Rotation |==|  0.50014 0.47595 0.56149 0.99562
USER: genes 2 Torsion [C]-CA--N-[C] |==|  0.78419
USER: genes 3 Torsion [N]-C--CA-[N] |==|  0.88310
USER: genes 4 Torsion [C]-CA--N-[C] |==|  0.85165
USER: genes 5 Torsion [N]-C--CA-[N] |==|  0.96057
USER: genes 6 Torsion [C]-CA--N-[C] |==|  0.80191
USER: genes 7 Torsion [N]-C--CA-[N] |==|  0.02298
USER: genes 8 Torsion [C]-CA--N-[H1] |==|  0.41537
USER: genes 9 Torsion [C]-CA--CB-[CG] |==|  0.39134
USER: genes 10 Torsion [CA]-CB--CG-[OD2] |==|  0.47880
USER: genes 11 Torsion [C]-CA--CB-[CG] |==|  0.70847
USER: genes 12 Torsion [CA]-CB--CG-[CD] |==|  0.78032
USER: genes 13 Torsion [CB]-CG--CD-[OE1] |==|  0.88945
USER: genes 14 Torsion [N]-CA--C-[N] |==|  0.94786
USER: genes 15 Torsion [C]-N--CA-[CB] |==|  0.39717
USER: genes 16 Torsion [N]-CA--CB-[CG] |==|  0.89642
USER: genes 17 Torsion [CA]-CB--CG-[CD] |==|  0.52404
USER: genes 18 Torsion [CB]-CG--CD-[NE] |==|  0.80290
USER: genes 19 Torsion [CG]-CD--NE-[HE] |==|  0.80867
USER: genes 20 Torsion [N]-CA--C-[N] |==|  0.95597
USER: genes 21 Torsion [C]-N--CA-[CB] |==|  0.85783
USER: genes 22 Torsion [N]-CA--CB-[CG] |==|  0.71787
USER: genes 23 Torsion [CA]-CB--CG-[ND1] |==|  0.40410
USER: genes 24 Torsion [N]-CA--C-[O] |==|  0.99076
USER: genes 25 Torsion [N]-CA--CB-[CG] |==|  0.84291
USER: genes 26 Torsion [CA]-CB--CG-[CD2] |==|  0.77121
ROOT
ATOM      1  CA  PHE A   4      63.026  45.779 111.021  1.00  8.73 LIG 0.18  C 
ENDROOT
BRANCH 1 2
ATOM      2  N   PHE A   4      62.307  44.770 110.258  1.00  8.80 LIG-0.35  N 
ATOM      3  C   GLU A   3      60.978  44.744 110.234  1.00  9.88 LIG 0.24  C 
ATOM      4 O    GLU A   3      60.291  45.557 110.869  1.00 11.78 LIG-0.27  OA
ATOM      5 H    PHE A   4      62.809  44.212 109.838  1.00  8.80 LIG 0.16  HD
BRANCH 3 6
ATOM      6  CA  GLU A   3      60.317  43.615 109.426  1.00  9.13 LIG 0.18  C 
BRANCH 6 7
ATOM      7  N   GLU A   3      60.961  43.348 108.132  1.00  7.51 LIG-0.35  N 
ATOM      8  C   ALA A   2      61.162  44.327 107.253  1.00 12.24 LIG 0.24  C 
ATOM      9 O    ALA A   2      60.853  45.506 107.494  1.00 10.29 LIG-0.27  OA
ATOM     10 H    GLU A   3      61.186  42.528 108.005  1.00  7.51 LIG 0.16  HD
BRANCH 8 11
ATOM     11  CA  ALA A   2      61.815  43.940 105.923  1.00  7.33 LIG 0.17  C 
ATOM     12  CB  ALA A   2      60.808  44.052 104.783  1.00  8.39 LIG 0.04  C 
BRANCH 11 13
ATOM     13  N   ALA A   2      62.423  42.604 105.939  1.00  8.02 LIG-0.35  N 
ATOM     14 H    ALA A   2      62.000  42.017 105.475  1.00  8.02 LIG 0.16  HD
ATOM     15  C   ASP A   1      63.538  42.344 106.622  1.00  8.83 LIG 0.25  C 
ATOM     16 O    ASP A   1      64.130  43.191 107.288  1.00  7.52 LIG-0.27  OA
BRANCH 15 17
ATOM     17  CA  ASP A   1      64.073  40.921 106.556  1.00  7.69 LIG 0.28  C 
BRANCH 17 18
ATOM     18  N   ASP A   1      63.342  40.090 105.556  1.00 12.20 LIG-0.07  N 
ATOM     19 H3   ASP A   1      63.042  40.610 104.899  1.00 12.20 LIG 0.28  HD
ATOM     20 H1   ASP A   1      63.892  39.476 105.221  1.00 12.20 LIG 0.28  HD
ATOM     21 H2   ASP A   1      62.654  39.686 105.952  1.00 12.20 LIG 0.28  HD
ENDBRANCH 17 18
BRANCH 17 22
ATOM     22  CB  ASP A   1      65.565  40.970 106.221  1.00 12.14 LIG 0.15  C 
BRANCH 22 23
ATOM     23  CG  ASP A   1      66.382  39.933 106.986  1.00 11.50 LIG 0.17  C 
ATOM     24 OD2  ASP A   1      67.577  39.809 106.663  1.00  7.11 LIG-0.65  OA
ATOM     25 OD1  ASP A   1      65.853  39.261 107.911  1.00  8.56 LIG-0.65  OA
ENDBRANCH 22 23
ENDBRANCH 17 22
ENDBRANCH 15 17
ENDBRANCH 11 13
ENDBRANCH 8 11
ENDBRANCH 6 7
BRANCH 6 26
ATOM     26  CB  GLU A   3      60.259  42.336 110.276  1.00  8.36 LIG 0.04  C 
BRANCH 26 27
ATOM     27  CG  GLU A   3      61.275  41.244 109.902  1.00  8.75 LIG 0.12  C 
BRANCH 27 28
ATOM     28  CD  GLU A   3      60.879  40.414 108.682  1.00 11.41 LIG 0.17  C 
ATOM     29 OE1  GLU A   3      59.685  40.082 108.538  1.00  7.99 LIG-0.65  OA
ATOM     30 OE2  GLU A   3      61.767  40.102 107.850  1.00 13.12 LIG-0.65  OA
ENDBRANCH 27 28
ENDBRANCH 26 27
ENDBRANCH 6 26
ENDBRANCH 3 6
ENDBRANCH 1 2
BRANCH 1 31
ATOM     31  C   PHE A   4      63.049  47.132 110.304  1.00 10.65 LIG 0.24  C 
ATOM     32  N   ARG A   5      62.792  47.131 109.002  1.00  9.73 LIG-0.35  N 
ATOM     33 H    ARG A   5      62.613  46.423 108.547  1.00  9.73 LIG 0.16  HD
ATOM     34 O    PHE A   4      63.253  48.162 110.930  1.00 11.27 LIG-0.27  OA
BRANCH 32 35
ATOM     35  CA  ARG A   5      62.794  48.367 108.220  1.00 16.16 LIG 0.18  C 
BRANCH 35 36
ATOM     36  CB  ARG A   5      63.378  48.118 106.816  1.00 18.38 LIG 0.04  C 
BRANCH 36 37
ATOM     37  CG  ARG A   5      64.551  47.130 106.750  1.00 17.37 LIG 0.02  C 
BRANCH 37 38
ATOM     38  CD  ARG A   5      65.210  47.100 105.355  1.00 18.74 LIG 0.14  C 
BRANCH 38 39
ATOM     39  NE  ARG A   5      64.352  46.460 104.352  1.00 16.23 LIG-0.23  N 
ATOM     40 HE   ARG A   5      64.215  45.614 104.419  1.00 16.23 LIG 0.18  HD
ATOM     41  CZ  ARG A   5      63.771  47.105 103.347  1.00 23.02 LIG 0.67  C 
ATOM     42  NH2 ARG A   5      62.983  46.457 102.495  1.00 17.77 LIG-0.23  N 
ATOM     43  NH1 ARG A   5      63.977  48.409 103.189  1.00 22.06 LIG-0.23  N 
ATOM     44 1HH2 ARG A   5      62.846  45.613 102.592  1.00 17.77 LIG 0.17  HD
ATOM     45 2HH2 ARG A   5      62.609  46.881 101.846  1.00 17.77 LIG 0.17  HD
ATOM     46 2HH1 ARG A   5      63.601  48.828 102.539  1.00 22.06 LIG 0.17  HD
ATOM     47 1HH1 ARG A   5      64.486  48.834 103.736  1.00 22.06 LIG 0.17  HD
ENDBRANCH 38 39
ENDBRANCH 37 38
ENDBRANCH 36 37
ENDBRANCH 35 36
BRANCH 35 48
ATOM     48  C   ARG A   5      61.373  48.956 108.090  1.00 22.64 LIG 0.24  C 
ATOM     49 O    ARG A   5      61.205  50.115 107.734  1.00 28.37 LIG-0.27  OA
ATOM     50  N   HIS A   6      60.370  48.142 108.387  1.00 30.17 LIG-0.35  N 
ATOM     51 H    HIS A   6      60.483  47.382 108.774  1.00 30.17 LIG 0.16  HD
BRANCH 50 52
ATOM     52  CA  HIS A   6      58.969  48.445 108.093  1.00 40.98 LIG 0.17  C 
BRANCH 52 53
ATOM     53  CB  HIS A   6      58.590  49.850 108.626  1.00 38.64 LIG 0.09  C 
BRANCH 53 54
ATOM     54  CG  HIS A   6      57.818  49.848 109.917  1.00 38.02 LIG 0.06  A 
ATOM     55 ND1  HIS A   6      57.974  50.830 110.874  1.00 51.26 LIG-0.24  NA
ATOM     56  CE1 HIS A   6      57.173  50.582 111.898  1.00 35.95 LIG 0.23  A 
ATOM     57 NE2  HIS A   6      56.501  49.473 111.639  1.00 45.10 LIG-0.25  NA
ATOM     58  CD2 HIS A   6      56.890  48.992 110.408  1.00 36.38 LIG 0.14  A 
ENDBRANCH 53 54
ENDBRANCH 52 53
BRANCH 52 59
ATOM     59  C   HIS A   6      58.759  48.425 106.584  1.00 40.61 LIG 0.22  C 
ATOM     60 O    HIS A   6      59.719  48.239 105.827  1.00 40.83 LIG-0.29  OA
ENDBRANCH 52 59
ENDBRANCH 50 52
ENDBRANCH 35 48
ENDBRANCH 32 35
ENDBRANCH 1 31
BRANCH 1 61
ATOM     61  CB  PHE A   4      64.453  45.305 111.337  1.00  8.88 LIG 0.07  C 
BRANCH 61 62
ATOM     62  CG  PHE A   4      64.500  43.992 112.073  1.00  5.46 LIG-0.06  A 
ATOM     63  CD2 PHE A   4      64.327  43.941 113.451  1.00  6.98 LIG 0.01  A 
ATOM     64  CE2 PHE A   4      64.377  42.719 114.130  1.00  8.89 LIG 0.00  A 
ATOM     65  CZ  PHE A   4      64.609  41.543 113.418  1.00  4.47 LIG 0.00  A 
ATOM     66  CE1 PHE A   4      64.778  41.587 112.053  1.00  8.64 LIG 0.00  A 
ATOM     67  CD1 PHE A   4      64.738  42.809 111.385  1.00  9.90 LIG 0.01  A 
ENDBRANCH 61 62
ENDBRANCH 1 61
TORSDOF 25
ENDMDL
MODEL 3
USER: ADFR SOLUTION from run 197
USER: SCORE 23.346626 LL:  -8.243 LR: -16.925 RR:   0.000 FEB:  -9.467
USER: RMSD 1.903443
USER: SEED 196
USER: STATUS no improvement in best in 1 clusters for 5 generations
USER: GENES 27
USER: genes 0 Translation |==|  0.52707 0.54769 0.64128
USER: genes 1 Rotation |==|  0.44509 0.45632 0.52192 0.99457
USER: genes 2 Torsion [C]-CA--N-[C] |==|  0.77585
USER: genes 3 Torsion [N]-C--CA-[N] |==|  0.88912
USER: genes 4 Torsion [C]-CA--N-[C] |==|  0.84877
USER: genes 5 Torsion [N]-C--CA-[N] |==|  0.91111
USER: genes 6 Torsion [C]-CA--N-[C] |==|  0.81362
USER: genes 7 Torsion [N]-C--CA-[N] |==|  0.96705
USER: genes 8 Torsion [C]-CA--N-[H1] |==|  0.37313
USER: genes 9 Torsion [C]-CA--CB-[CG] |==|  0.53805
USER: genes 10 Torsion [CA]-CB--CG-[OD2] |==|  0.47529
USER: genes 11 Torsion [C]-CA--CB-[CG] |==|  0.81773
USER: genes 12 Torsion [CA]-CB--CG-[CD] |==|  0.75674
USER: genes 13 Torsion [CB]-CG--CD-[OE1] |==|  0.30109
USER: genes 14 Torsion [N]-CA--C-[N] |==|  0.99039
USER: genes 15 Torsion [C]-N--CA-[CB] |==|  0.38281
USER: genes 16 Torsion [N]-CA--CB-[CG] |==|  0.81308
USER: genes 17 Torsion [CA]-CB--CG-[CD] |==|  0.53483
USER: genes 18 Torsion [CB]-CG--CD-[NE] |==|  0.86756
USER: genes 19 Torsion [CG]-CD--NE-[HE] |==|  0.78585
USER: genes 20 Torsion [N]-CA--C-[N] |==|  0.02600
USER: genes 21 Torsion [C]-N--CA-[CB] |==|  0.45520
USER: genes 22 Torsion [N]-CA--CB-[CG] |==|  0.78687
USER: genes 23 Torsion [CA]-CB--CG-[ND1] |==|  0.51185
USER: genes 24 Torsion [N]-CA--C-[O] |==|  0.93763
USER: genes 25 Torsion [N]-CA--CB-[CG] |==|  0.83906
USER: genes 26 Torsion [CA]-CB--CG-[CD2] |==|  0.42025
ROOT
ATOM      1  CA  PHE A   4      63.320  46.637 110.918  1.00  8.73 LIG 0.18  C 
ENDROOT
BRANCH 1 2
ATOM      2  N   PHE A   4      62.504  45.616 110.279  1.00  8.80 LIG-0.35  N 
ATOM      3  C   GLU A   3      61.190  45.765 110.153  1.00  9.88 LIG 0.24  C 
ATOM      4 O    GLU A   3      60.595  46.764 110.586  1.00 11.78 LIG-0.27  OA
ATOM      5 H    PHE A   4      62.941  44.930 110.001  1.00  8.80 LIG 0.16  HD
BRANCH 3 6
ATOM      6  CA  GLU A   3      60.415  44.611 109.496  1.00  9.13 LIG 0.18  C 
BRANCH 6 7
ATOM      7  N   GLU A   3      61.107  44.001 108.352  1.00  7.51 LIG-0.35  N 
ATOM      8  C   ALA A   2      61.522  44.743 107.327  1.00 12.24 LIG 0.24  C 
ATOM      9 O    ALA A   2      61.379  45.977 107.305  1.00 10.29 LIG-0.27  OA
ATOM     10 H    GLU A   3      61.214  43.150 108.408  1.00  7.51 LIG 0.16  HD
BRANCH 8 11
ATOM     11  CA  ALA A   2      62.207  44.008 106.172  1.00  7.33 LIG 0.17  C 
ATOM     12  CB  ALA A   2      61.188  43.632 105.101  1.00  8.39 LIG 0.04  C 
BRANCH 11 13
ATOM     13  N   ALA A   2      62.961  42.824 106.600  1.00  8.02 LIG-0.35  N 
ATOM     14 H    ALA A   2      62.635  42.078 106.323  1.00  8.02 LIG 0.16  HD
ATOM     15  C   ASP A   1      64.057  42.919 107.354  1.00  8.83 LIG 0.25  C 
ATOM     16 O    ASP A   1      64.509  43.991 107.748  1.00  7.52 LIG-0.27  OA
BRANCH 15 17
ATOM     17  CA  ASP A   1      64.753  41.618 107.728  1.00  7.69 LIG 0.28  C 
BRANCH 17 18
ATOM     18  N   ASP A   1      63.919  40.422 107.412  1.00 12.20 LIG-0.07  N 
ATOM     19 H3   ASP A   1      63.251  40.659 106.874  1.00 12.20 LIG 0.28  HD
ATOM     20 H1   ASP A   1      64.421  39.808 107.008  1.00 12.20 LIG 0.28  HD
ATOM     21 H2   ASP A   1      63.587  40.084 108.166  1.00 12.20 LIG 0.28  HD
ENDBRANCH 17 18
BRANCH 17 22
ATOM     22  CB  ASP A   1      66.092  41.545 106.990  1.00 12.14 LIG 0.15  C 
BRANCH 22 23
ATOM     23  CG  ASP A   1      66.716  40.153 107.026  1.00 11.50 LIG 0.17  C 
ATOM     24 OD2  ASP A   1      67.716  39.967 106.309  1.00  7.11 LIG-0.65  OA
ATOM     25 OD1  ASP A   1      66.236  39.258 107.772  1.00  8.56 LIG-0.65  OA
ENDBRANCH 22 23
ENDBRANCH 17 22
ENDBRANCH 15 17
ENDBRANCH 11 13
ENDBRANCH 8 11
ENDBRANCH 6 7
BRANCH 6 26
ATOM     26  CB  GLU A   3      60.075  43.548 110.552  1.00  8.36 LIG 0.04  C 
BRANCH 26 27
ATOM     27  CG  GLU A   3      61.279  42.812 111.164  1.00  8.75 LIG 0.12  C 
BRANCH 27 28
ATOM     28  CD  GLU A   3      61.722  41.578 110.379  1.00 11.41 LIG 0.17  C 
ATOM     29 OE1  GLU A   3      62.790  41.620 109.737  1.00  7.99 LIG-0.65  OA
ATOM     30 OE2  GLU A   3      61.000  40.551 110.413  1.00 13.12 LIG-0.65  OA
ENDBRANCH 27 28
ENDBRANCH 26 27
ENDBRANCH 6 26
ENDBRANCH 3 6
ENDBRANCH 1 2
BRANCH 1 31
ATOM     31  C   PHE A   4      63.643  47.792 109.964  1.00 10.65 LIG 0.24  C 
ATOM     32  N   ARG A   5      63.217  47.679 108.712  1.00  9.73 LIG-0.35  N 
ATOM     33 H    ARG A   5      62.774  47.005 108.413  1.00  9.73 LIG 0.16  HD
ATOM     34 O    PHE A   4      64.230  48.784 110.370  1.00 11.27 LIG-0.27  OA
BRANCH 32 35
ATOM     35  CA  ARG A   5      63.477  48.721 107.720  1.00 16.16 LIG 0.18  C 
BRANCH 35 36
ATOM     36  CB  ARG A   5      63.883  48.094 106.372  1.00 18.38 LIG 0.04  C 
BRANCH 36 37
ATOM     37  CG  ARG A   5      65.236  47.368 106.357  1.00 17.37 LIG 0.02  C 
BRANCH 37 38
ATOM     38  CD  ARG A   5      65.709  47.044 104.925  1.00 18.74 LIG 0.14  C 
BRANCH 38 39
ATOM     39  NE  ARG A   5      64.647  46.432 104.118  1.00 16.23 LIG-0.23  N 
ATOM     40 HE   ARG A   5      64.467  45.601 104.252  1.00 16.23 LIG 0.18  HD
ATOM     41  CZ  ARG A   5      63.947  47.077 103.193  1.00 23.02 LIG 0.67  C 
ATOM     42  NH2 ARG A   5      62.980  46.457 102.524  1.00 17.77 LIG-0.23  N 
ATOM     43  NH1 ARG A   5      64.212  48.354 102.932  1.00 22.06 LIG-0.23  N 
ATOM     44 1HH2 ARG A   5      62.805  45.631 102.688  1.00 17.77 LIG 0.17  HD
ATOM     45 2HH2 ARG A   5      62.530  46.882 101.926  1.00 17.77 LIG 0.17  HD
ATOM     46 2HH1 ARG A   5      63.758  48.773 102.334  1.00 22.06 LIG 0.17  HD
ATOM     47 1HH1 ARG A   5      64.835  48.760 103.362  1.00 22.06 LIG 0.17  HD
ENDBRANCH 38 39
ENDBRANCH 37 38
ENDBRANCH 36 37
ENDBRANCH 35 36
BRANCH 35 48
ATOM     48  C   ARG A   5      62.244  49.628 107.515  1.00 22.64 LIG 0.24  C 
ATOM     49 O    ARG A   5      62.213  50.449 106.608  1.00 28.37 LIG-0.27  OA
ATOM     50  N   HIS A   6      61.245  49.463 108.371  1.00 30.17 LIG-0.35  N 
ATOM     51 H    HIS A   6      61.318  48.997 109.090  1.00 30.17 LIG 0.16  HD
BRANCH 50 52
ATOM     52  CA  HIS A   6      59.919  50.053 108.189  1.00 40.98 LIG 0.17  C 
BRANCH 52 53
ATOM     53  CB  HIS A   6      58.883  49.365 109.114  1.00 38.64 LIG 0.09  C 
BRANCH 53 54
ATOM     54  CG  HIS A   6      58.423  48.011 108.650  1.00 38.02 LIG 0.06  A 
ATOM     55 ND1  HIS A   6      57.441  47.297 109.307  1.00 51.26 LIG-0.24  NA
ATOM     56  CE1 HIS A   6      57.234  46.150 108.682  1.00 35.95 LIG 0.23  A 
ATOM     57 NE2  HIS A   6      58.047  46.093 107.640  1.00 45.10 LIG-0.25  NA
ATOM     58  CD2 HIS A   6      58.804  47.243 107.601  1.00 36.38 LIG 0.14  A 
ENDBRANCH 53 54
ENDBRANCH 52 53
BRANCH 52 59
ATOM     59  C   HIS A   6      59.977  51.534 108.540  1.00 40.61 LIG 0.22  C 
ATOM     60 O    HIS A   6      60.870  51.961 109.281  1.00 40.83 LIG-0.29  OA
ENDBRANCH 52 59
ENDBRANCH 50 52
ENDBRANCH 35 48
ENDBRANCH 32 35
ENDBRANCH 1 31
BRANCH 1 61
ATOM     61  CB  PHE A   4      64.608  46.024 111.488  1.00  8.88 LIG 0.07  C 
BRANCH 61 62
ATOM     62  CG  PHE A   4      64.359  44.924 112.485  1.00  5.46 LIG-0.06  A 
ATOM     63  CD2 PHE A   4      65.277  43.894 112.655  1.00  6.98 LIG 0.01  A 
ATOM     64  CE2 PHE A   4      65.037  42.872 113.580  1.00  8.89 LIG 0.00  A 
ATOM     65  CZ  PHE A   4      63.864  42.883 114.332  1.00  4.47 LIG 0.00  A 
ATOM     66  CE1 PHE A   4      62.951  43.902 114.170  1.00  8.64 LIG 0.00  A 
ATOM     67  CD1 PHE A   4      63.192  44.911 113.239  1.00  9.90 LIG 0.01  A 
ENDBRANCH 61 62
ENDBRANCH 1 61
TORSDOF 25
ENDMDL
