MODEL 1
USER: ADFR SOLUTION from run 186
USER: SCORE 22.223385 LL:  -4.168 LR: -20.197 RR:   0.000 FEB: -11.248
USER: RMSD 3.619396
USER: SEED 185
USER: STATUS no improvement in best in 4 clusters for 5 generations
USER: GENES 32
USER: genes 0 Translation |==|  0.66502 0.50053 0.46248
USER: genes 1 Rotation |==|  0.52131 0.48276 0.51759 0.99894
USER: genes 2 Torsion [C]-CA--N-[C] |==|  0.67914
USER: genes 3 Torsion [N]-C--CA-[N] |==|  0.82916
USER: genes 4 Torsion [C]-CA--N-[C] |==|  0.90783
USER: genes 5 Torsion [N]-C--CA-[N] |==|  0.47127
USER: genes 6 Torsion [C]-CA--CB-[CG] |==|  0.28675
USER: genes 7 Torsion [CA]-CB--CG-[CD] |==|  0.07302
USER: genes 8 Torsion [CB]-CG--CD-[NE] |==|  0.50560
USER: genes 9 Torsion [CG]-CD--NE-[CZ] |==|  0.30670
USER: genes 10 Torsion [C]-CA--N-[C] |==|  0.63877
USER: genes 11 Torsion [N]-C--CA-[N] |==|  0.43395
USER: genes 12 Torsion [C]-CA--N-[H1] |==|  0.38363
USER: genes 13 Torsion [C]-CA--CB-[CG2] |==|  0.18645
USER: genes 14 Torsion [CA]-CB--OG1-[HG1] |==|  0.80616
USER: genes 15 Torsion [N]-CA--CB-[CG] |==|  0.80081
USER: genes 16 Torsion [CA]-CB--CG-[CD] |==|  0.51337
USER: genes 17 Torsion [CB]-CG--CD-[CE] |==|  0.63604
USER: genes 18 Torsion [CG]-CD--CE-[NZ] |==|  0.52189
USER: genes 19 Torsion [CD]-CE--NZ-[HZ1] |==|  0.53214
USER: genes 20 Torsion [N]-CA--C-[N] |==|  0.41902
USER: genes 21 Torsion [C]-N--CA-[CB] |==|  0.50200
USER: genes 22 Torsion [N]-CA--C-[N] |==|  0.33889
USER: genes 23 Torsion [C]-N--CA-[CB] |==|  0.86357
USER: genes 24 Torsion [N]-CA--CB-[CG2] |==|  0.40021
USER: genes 25 Torsion [CA]-CB--OG1-[HG1] |==|  0.69660
USER: genes 26 Torsion [N]-CA--C-[N] |==|  0.34340
USER: genes 27 Torsion [C]-N--CA-[CB] |==|  0.81105
USER: genes 28 Torsion [N]-CA--C-[O] |==|  0.46518
USER: genes 29 Torsion [N]-CA--CB-[CG] |==|  0.05797
USER: genes 30 Torsion [CA]-CB--CG-[CD] |==|  0.59684
USER: genes 31 Torsion [CB]-CG--CD-[NE2] |==|  0.02465
ROOT
ATOM      1  CA  LYS B   4      38.207  55.131   9.911  1.00 30.17 LIG 0.18  C 
ENDROOT
BRANCH 1 2
ATOM      2  N   LYS B   4      38.786  53.880  10.359  1.00 25.68 LIG-0.35  N 
ATOM      3 H    LYS B   4      38.377  53.182  10.069  1.00 25.68 LIG 0.16  HD
ATOM      4  C   THR B   3      39.862  53.827  11.152  1.00 23.58 LIG 0.24  C 
ATOM      5 O    THR B   3      40.468  54.827  11.554  1.00 24.56 LIG-0.27  OA
BRANCH 4 6
ATOM      6  CA  THR B   3      40.326  52.432  11.579  1.00 21.46 LIG 0.20  C 
BRANCH 6 7
ATOM      7  N   THR B   3      39.308  51.742  12.344  1.00 21.22 LIG-0.34  N 
ATOM      8 H    THR B   3      39.301  50.891  12.223  1.00 21.22 LIG 0.16  HD
ATOM      9  C   ARG B   2      38.476  52.364  13.145  1.00 21.22 LIG 0.24  C 
ATOM     10 O    ARG B   2      38.495  53.558  13.297  1.00 22.30 LIG-0.27  OA
BRANCH 9 11
ATOM     11  CA  ARG B   2      37.482  51.477  13.911  1.00 22.28 LIG 0.18  C 
BRANCH 11 12
ATOM     12  CB  ARG B   2      36.401  50.893  12.997  1.00 24.95 LIG 0.04  C 
BRANCH 12 13
ATOM     13  CG  ARG B   2      36.531  49.442  12.590  1.00 25.01 LIG 0.02  C 
BRANCH 13 14
ATOM     14  CD  ARG B   2      37.332  48.683  13.665  1.00 28.81 LIG 0.14  C 
BRANCH 14 15
ATOM     15  NE  ARG B   2      37.575  47.269  13.377  1.00 31.55 LIG-0.23  N 
ATOM     16 HE   ARG B   2      36.898  46.739  13.402  1.00 31.55 LIG 0.18  HD
ATOM     17  CZ  ARG B   2      38.766  46.731  13.077  1.00 33.58 LIG 0.67  C 
ATOM     18  NH2 ARG B   2      39.849  47.487  12.950  1.00 33.13 LIG-0.23  N 
ATOM     19  NH1 ARG B   2      38.870  45.433  12.876  1.00 37.12 LIG-0.23  N 
ATOM     20 1HH2 ARG B   2      39.796  48.338  13.061  1.00 33.13 LIG 0.17  HD
ATOM     21 2HH2 ARG B   2      40.606  47.125  12.758  1.00 33.13 LIG 0.17  HD
ATOM     22 2HH1 ARG B   2      39.634  45.088  12.684  1.00 37.12 LIG 0.17  HD
ATOM     23 1HH1 ARG B   2      38.174  44.931  12.936  1.00 37.12 LIG 0.17  HD
ENDBRANCH 14 15
ENDBRANCH 13 14
ENDBRANCH 12 13
ENDBRANCH 11 12
BRANCH 11 24
ATOM     24  N   ARG B   2      36.814  52.279  14.919  1.00 22.27 LIG-0.35  N 
ATOM     25  C   ALA B   1      36.750  51.848  16.168  1.00 22.85 LIG 0.25  C 
ATOM     26 O    ALA B   1      37.245  50.770  16.518  1.00 22.62 LIG-0.27  OA
ATOM     27 H    ARG B   2      36.482  53.020  14.636  1.00 22.27 LIG 0.16  HD
BRANCH 25 28
ATOM     28  CA  ALA B   1      35.995  52.750  17.159  1.00 23.76 LIG 0.27  C 
ATOM     29  CB  ALA B   1      36.855  53.919  17.623  1.00 24.39 LIG 0.05  C 
BRANCH 28 30
ATOM     30  N   ALA B   1      35.490  52.013  18.311  1.00 25.03 LIG-0.07  N 
ATOM     31 H1   ALA B   1      35.623  52.490  19.050  1.00 25.03 LIG 0.28  HD
ATOM     32 H3   ALA B   1      35.919  51.236  18.377  1.00 25.03 LIG 0.28  HD
ATOM     33 H2   ALA B   1      34.619  51.862  18.208  1.00 25.03 LIG 0.28  HD
ENDBRANCH 28 30
ENDBRANCH 25 28
ENDBRANCH 11 24
ENDBRANCH 9 11
ENDBRANCH 6 7
BRANCH 6 34
ATOM     34  CB  THR B   3      40.726  51.616  10.355  1.00 21.53 LIG 0.15  C 
ATOM     35  CG2 THR B   3      41.936  52.167   9.708  1.00 22.92 LIG 0.04  C 
BRANCH 34 36
ATOM     36 OG1  THR B   3      40.981  50.284  10.776  1.00 22.47 LIG-0.39  OA
ATOM     37 HG1  THR B   3      41.685  50.264  11.235  1.00 22.47 LIG 0.21  HD
ENDBRANCH 34 36
ENDBRANCH 6 34
ENDBRANCH 4 6
ENDBRANCH 1 2
BRANCH 1 38
ATOM     38  CB  LYS B   4      38.156  55.161   8.406  1.00 32.55 LIG 0.04  C 
BRANCH 38 39
ATOM     39  CG  LYS B   4      39.509  55.321   7.772  1.00 30.49 LIG 0.00  C 
BRANCH 39 40
ATOM     40  CD  LYS B   4      39.368  55.462   6.256  1.00 34.18 LIG 0.03  C 
BRANCH 40 41
ATOM     41  CE  LYS B   4      40.319  54.523   5.535  1.00 33.34 LIG 0.23  C 
BRANCH 41 42
ATOM     42  NZ  LYS B   4      40.370  54.737   4.066  1.00 36.76 LIG-0.08  N 
ATOM     43 HZ1  LYS B   4      40.805  54.062   3.683  1.00 36.76 LIG 0.27  HD
ATOM     44 HZ2  LYS B   4      39.542  54.777   3.743  1.00 36.76 LIG 0.27  HD
ATOM     45 HZ3  LYS B   4      40.793  55.500   3.891  1.00 36.76 LIG 0.27  HD
ENDBRANCH 41 42
ENDBRANCH 40 41
ENDBRANCH 39 40
ENDBRANCH 38 39
ENDBRANCH 1 38
BRANCH 1 46
ATOM     46  C   LYS B   4      36.823  55.277  10.473  1.00 34.41 LIG 0.24  C 
ATOM     47  N   GLN B   5      36.386  56.511  10.684  1.00 39.81 LIG-0.35  N 
ATOM     48 H    GLN B   5      36.805  57.229  10.464  1.00 39.81 LIG 0.16  HD
ATOM     49 O    LYS B   4      36.137  54.260  10.699  1.00 33.27 LIG-0.27  OA
BRANCH 47 50
ATOM     50  CA  GLN B   5      35.093  56.711  11.338  1.00 46.50 LIG 0.18  C 
BRANCH 50 51
ATOM     51  C   GLN B   5      33.975  55.903  10.673  1.00 52.91 LIG 0.24  C 
ATOM     52  N   THR B   6      33.329  55.045  11.472  1.00 59.38 LIG-0.34  N 
ATOM     53 H    THR B   6      33.415  55.053  12.329  1.00 59.38 LIG 0.16  HD
ATOM     54 O    GLN B   5      33.759  56.010   9.476  1.00 55.19 LIG-0.27  OA
BRANCH 52 55
ATOM     55  CA  THR B   6      32.391  53.981  10.983  1.00 66.40 LIG 0.20  C 
BRANCH 55 56
ATOM     56  CB  THR B   6      31.327  54.527   9.970  1.00 64.05 LIG 0.15  C 
ATOM     57  CG2 THR B   6      31.028  53.490   8.892  1.00 70.60 LIG 0.04  C 
BRANCH 56 58
ATOM     58 OG1  THR B   6      30.102  54.886  10.632  1.00 62.34 LIG-0.39  OA
ATOM     59 HG1  THR B   6      29.502  54.333  10.431  1.00 62.34 LIG 0.21  HD
ENDBRANCH 56 58
ENDBRANCH 55 56
BRANCH 55 60
ATOM     60  C   THR B   6      33.121  52.820  10.246  1.00 68.19 LIG 0.24  C 
ATOM     61 O    THR B   6      33.837  53.049   9.247  1.00 63.20 LIG-0.27  OA
ATOM     62  N   ALA B   7      32.921  51.588  10.724  1.00 78.65 LIG-0.35  N 
ATOM     63 H    ALA B   7      32.523  51.427  11.470  1.00 78.65 LIG 0.16  HD
BRANCH 62 64
ATOM     64  CA  ALA B   7      33.367  50.386  10.014  1.00 81.14 LIG 0.16  C 
ATOM     65  CB  ALA B   7      32.564  50.194   8.725  1.00 91.84 LIG 0.04  C 
BRANCH 64 66
ATOM     66  C   ALA B   7      34.868  50.480   9.697  1.00 81.58 LIG 0.22  C 
ATOM     67 O    ALA B   7      35.504  49.494   9.311  1.00 77.41 LIG-0.29  OA
ENDBRANCH 64 66
ENDBRANCH 62 64
ENDBRANCH 55 60
ENDBRANCH 52 55
ENDBRANCH 50 51
BRANCH 50 68
ATOM     68  CB  GLN B   5      34.707  58.191  11.501  1.00 52.07 LIG 0.04  C 
BRANCH 68 69
ATOM     69  CG  GLN B   5      35.374  59.208  10.606  1.00 55.77 LIG 0.10  C 
BRANCH 69 70
ATOM     70  CD  GLN B   5      35.600  60.522  11.339  1.00 63.27 LIG 0.21  C 
ATOM     71  NE2 GLN B   5      35.362  60.513  12.637  1.00 63.75 LIG-0.37  N 
ATOM     72 21HE GLN B   5      35.103  59.789  13.021  1.00 63.75 LIG 0.16  HD
ATOM     73 22HE GLN B   5      35.466  61.231  13.098  1.00 63.75 LIG 0.16  HD
ATOM     74 OE1  GLN B   5      35.967  61.521  10.753  1.00 68.43 LIG-0.27  OA
ENDBRANCH 69 70
ENDBRANCH 68 69
ENDBRANCH 50 68
ENDBRANCH 47 50
ENDBRANCH 1 46
TORSDOF 30
ENDMDL
MODEL 2
USER: ADFR SOLUTION from run 109
USER: SCORE 22.569323 LL:  -4.065 LR: -20.063 RR:   0.000 FEB: -11.114
USER: RMSD 4.291984
USER: SEED 108
USER: STATUS no improvement in best in 6 clusters for 5 generations
USER: GENES 32
USER: genes 0 Translation |==|  0.67048 0.50292 0.46422
USER: genes 1 Rotation |==|  0.54316 0.49431 0.50315 0.99809
USER: genes 2 Torsion [C]-CA--N-[C] |==|  0.67215
USER: genes 3 Torsion [N]-C--CA-[N] |==|  0.87497
USER: genes 4 Torsion [C]-CA--N-[C] |==|  0.83538
USER: genes 5 Torsion [N]-C--CA-[N] |==|  0.16430
USER: genes 6 Torsion [C]-CA--CB-[CG] |==|  0.61308
USER: genes 7 Torsion [CA]-CB--CG-[CD] |==|  0.34047
USER: genes 8 Torsion [CB]-CG--CD-[NE] |==|  0.41735
USER: genes 9 Torsion [CG]-CD--NE-[CZ] |==|  0.20276
USER: genes 10 Torsion [C]-CA--N-[C] |==|  0.76066
USER: genes 11 Torsion [N]-C--CA-[N] |==|  0.76574
USER: genes 12 Torsion [C]-CA--N-[H1] |==|  0.43383
USER: genes 13 Torsion [C]-CA--CB-[CG2] |==|  0.18128
USER: genes 14 Torsion [CA]-CB--OG1-[HG1] |==|  0.85044
USER: genes 15 Torsion [N]-CA--CB-[CG] |==|  0.82322
USER: genes 16 Torsion [CA]-CB--CG-[CD] |==|  0.49569
USER: genes 17 Torsion [CB]-CG--CD-[CE] |==|  0.62896
USER: genes 18 Torsion [CG]-CD--CE-[NZ] |==|  0.55504
USER: genes 19 Torsion [CD]-CE--NZ-[HZ1] |==|  0.50560
USER: genes 20 Torsion [N]-CA--C-[N] |==|  0.44813
USER: genes 21 Torsion [C]-N--CA-[CB] |==|  0.48504
USER: genes 22 Torsion [N]-CA--C-[N] |==|  0.34485
USER: genes 23 Torsion [C]-N--CA-[CB] |==|  0.84247
USER: genes 24 Torsion [N]-CA--CB-[CG2] |==|  0.59651
USER: genes 25 Torsion [CA]-CB--OG1-[HG1] |==|  0.76514
USER: genes 26 Torsion [N]-CA--C-[N] |==|  0.38055
USER: genes 27 Torsion [C]-N--CA-[CB] |==|  0.43651
USER: genes 28 Torsion [N]-CA--C-[O] |==|  0.33465
USER: genes 29 Torsion [N]-CA--CB-[CG] |==|  0.04572
USER: genes 30 Torsion [CA]-CB--CG-[CD] |==|  0.55883
USER: genes 31 Torsion [CB]-CG--CD-[NE2] |==|  0.05096
ROOT
ATOM      1  CA  LYS B   4      38.334  55.185   9.952  1.00 30.17 LIG 0.18  C 
ENDROOT
BRANCH 1 2
ATOM      2  N   LYS B   4      38.865  53.871  10.259  1.00 25.68 LIG-0.35  N 
ATOM      3 H    LYS B   4      38.386  53.222   9.962  1.00 25.68 LIG 0.16  HD
ATOM      4  C   THR B   3      40.001  53.695  10.945  1.00 23.58 LIG 0.24  C 
ATOM      5 O    THR B   3      40.705  54.624  11.355  1.00 24.56 LIG-0.27  OA
BRANCH 4 6
ATOM      6  CA  THR B   3      40.405  52.247  11.231  1.00 21.46 LIG 0.20  C 
BRANCH 6 7
ATOM      7  N   THR B   3      39.281  51.460  11.692  1.00 21.22 LIG-0.34  N 
ATOM      8 H    THR B   3      39.105  50.781  11.193  1.00 21.22 LIG 0.16  HD
ATOM      9  C   ARG B   2      38.598  51.759  12.771  1.00 21.22 LIG 0.24  C 
ATOM     10 O    ARG B   2      38.854  52.717  13.454  1.00 22.30 LIG-0.27  OA
BRANCH 9 11
ATOM     11  CA  ARG B   2      37.458  50.797  13.140  1.00 22.28 LIG 0.18  C 
BRANCH 11 12
ATOM     12  CB  ARG B   2      36.751  51.203  14.436  1.00 24.95 LIG 0.04  C 
BRANCH 12 13
ATOM     13  CG  ARG B   2      36.364  50.104  15.401  1.00 25.01 LIG 0.02  C 
BRANCH 13 14
ATOM     14  CD  ARG B   2      37.017  50.378  16.770  1.00 28.81 LIG 0.14  C 
BRANCH 14 15
ATOM     15  NE  ARG B   2      36.271  49.879  17.925  1.00 31.55 LIG-0.23  N 
ATOM     16 HE   ARG B   2      35.870  50.460  18.417  1.00 31.55 LIG 0.18  HD
ATOM     17  CZ  ARG B   2      36.161  48.591  18.281  1.00 33.58 LIG 0.67  C 
ATOM     18  NH2 ARG B   2      36.690  47.625  17.541  1.00 33.13 LIG-0.23  N 
ATOM     19  NH1 ARG B   2      35.494  48.263  19.370  1.00 37.12 LIG-0.23  N 
ATOM     20 1HH2 ARG B   2      37.114  47.820  16.818  1.00 33.13 LIG 0.17  HD
ATOM     21 2HH2 ARG B   2      36.610  46.804  17.784  1.00 33.13 LIG 0.17  HD
ATOM     22 2HH1 ARG B   2      35.423  47.437  19.598  1.00 37.12 LIG 0.17  HD
ATOM     23 1HH1 ARG B   2      35.129  48.875  19.852  1.00 37.12 LIG 0.17  HD
ENDBRANCH 14 15
ENDBRANCH 13 14
ENDBRANCH 12 13
ENDBRANCH 11 12
BRANCH 11 24
ATOM     24  N   ARG B   2      38.008  49.469  13.340  1.00 22.27 LIG-0.35  N 
ATOM     25  C   ALA B   1      38.167  48.657  12.307  1.00 22.85 LIG 0.25  C 
ATOM     26 O    ALA B   1      37.860  48.991  11.157  1.00 22.62 LIG-0.27  OA
ATOM     27 H    ARG B   2      38.207  49.274  14.154  1.00 22.27 LIG 0.16  HD
BRANCH 25 28
ATOM     28  CA  ALA B   1      38.726  47.260  12.623  1.00 23.76 LIG 0.27  C 
ATOM     29  CB  ALA B   1      38.132  46.694  13.908  1.00 24.39 LIG 0.05  C 
BRANCH 28 30
ATOM     30  N   ALA B   1      40.182  47.245  12.697  1.00 25.03 LIG-0.07  N 
ATOM     31 H1   ALA B   1      40.447  46.559  13.198  1.00 25.03 LIG 0.28  HD
ATOM     32 H3   ALA B   1      40.469  48.006  13.060  1.00 25.03 LIG 0.28  HD
ATOM     33 H2   ALA B   1      40.520  47.162  11.878  1.00 25.03 LIG 0.28  HD
ENDBRANCH 28 30
ENDBRANCH 25 28
ENDBRANCH 11 24
ENDBRANCH 9 11
ENDBRANCH 6 7
BRANCH 6 34
ATOM     34  CB  THR B   3      41.028  51.621   9.988  1.00 21.53 LIG 0.15  C 
ATOM     35  CG2 THR B   3      42.302  52.281   9.629  1.00 22.92 LIG 0.04  C 
BRANCH 34 36
ATOM     36 OG1  THR B   3      41.268  50.247  10.257  1.00 22.47 LIG-0.39  OA
ATOM     37 HG1  THR B   3      41.723  50.174  10.959  1.00 22.47 LIG 0.21  HD
ENDBRANCH 34 36
ENDBRANCH 6 34
ENDBRANCH 4 6
ENDBRANCH 1 2
BRANCH 1 38
ATOM     38  CB  LYS B   4      38.211  55.351   8.461  1.00 32.55 LIG 0.04  C 
BRANCH 38 39
ATOM     39  CG  LYS B   4      39.534  55.305   7.750  1.00 30.49 LIG 0.00  C 
BRANCH 39 40
ATOM     40  CD  LYS B   4      39.327  55.441   6.242  1.00 34.18 LIG 0.03  C 
BRANCH 40 41
ATOM     41  CE  LYS B   4      40.142  54.403   5.488  1.00 33.34 LIG 0.23  C 
BRANCH 41 42
ATOM     42  NZ  LYS B   4      40.370  54.744   4.061  1.00 36.76 LIG-0.08  N 
ATOM     43 HZ1  LYS B   4      40.825  54.088   3.668  1.00 36.76 LIG 0.27  HD
ATOM     44 HZ2  LYS B   4      39.587  54.848   3.651  1.00 36.76 LIG 0.27  HD
ATOM     45 HZ3  LYS B   4      40.835  55.501   4.007  1.00 36.76 LIG 0.27  HD
ENDBRANCH 41 42
ENDBRANCH 40 41
ENDBRANCH 39 40
ENDBRANCH 38 39
ENDBRANCH 1 38
BRANCH 1 46
ATOM     46  C   LYS B   4      36.989  55.350  10.599  1.00 34.41 LIG 0.24  C 
ATOM     47  N   GLN B   5      36.539  56.588  10.743  1.00 39.81 LIG-0.35  N 
ATOM     48 H    GLN B   5      36.924  57.294  10.439  1.00 39.81 LIG 0.16  HD
ATOM     49 O    LYS B   4      36.345  54.341  10.951  1.00 33.27 LIG-0.27  OA
BRANCH 47 50
ATOM     50  CA  GLN B   5      35.290  56.816  11.471  1.00 46.50 LIG 0.18  C 
BRANCH 50 51
ATOM     51  C   GLN B   5      34.114  56.050  10.858  1.00 52.91 LIG 0.24  C 
ATOM     52  N   THR B   6      33.459  55.233  11.692  1.00 59.38 LIG-0.34  N 
ATOM     53 H    THR B   6      33.577  55.249  12.545  1.00 59.38 LIG 0.16  HD
ATOM     54 O    GLN B   5      33.860  56.151   9.668  1.00 55.19 LIG-0.27  OA
BRANCH 52 55
ATOM     55  CA  THR B   6      32.458  54.206  11.252  1.00 66.40 LIG 0.20  C 
BRANCH 55 56
ATOM     56  CB  THR B   6      31.278  54.822  10.425  1.00 64.05 LIG 0.15  C 
ATOM     57  CG2 THR B   6      29.975  54.084  10.714  1.00 70.60 LIG 0.04  C 
BRANCH 56 58
ATOM     58 OG1  THR B   6      31.103  56.220  10.714  1.00 62.34 LIG-0.39  OA
ATOM     59 HG1  THR B   6      30.625  56.307  11.399  1.00 62.34 LIG 0.21  HD
ENDBRANCH 56 58
ENDBRANCH 55 56
BRANCH 55 60
ATOM     60  C   THR B   6      33.078  53.101  10.348  1.00 68.19 LIG 0.24  C 
ATOM     61 O    THR B   6      33.869  53.401   9.427  1.00 63.20 LIG-0.27  OA
ATOM     62  N   ALA B   7      32.704  51.842  10.597  1.00 78.65 LIG-0.35  N 
ATOM     63 H    ALA B   7      32.250  51.611  11.291  1.00 78.65 LIG 0.16  HD
BRANCH 62 64
ATOM     64  CA  ALA B   7      33.037  50.731   9.702  1.00 81.14 LIG 0.16  C 
ATOM     65  CB  ALA B   7      33.003  49.401  10.459  1.00 91.84 LIG 0.04  C 
BRANCH 64 66
ATOM     66  C   ALA B   7      32.062  50.693   8.514  1.00 81.58 LIG 0.22  C 
ATOM     67 O    ALA B   7      32.466  50.794   7.351  1.00 77.41 LIG-0.29  OA
ENDBRANCH 64 66
ENDBRANCH 62 64
ENDBRANCH 55 60
ENDBRANCH 52 55
ENDBRANCH 50 51
BRANCH 50 68
ATOM     68  CB  GLN B   5      34.957  58.304  11.674  1.00 52.07 LIG 0.04  C 
BRANCH 68 69
ATOM     69  CG  GLN B   5      35.681  59.322  10.825  1.00 55.77 LIG 0.10  C 
BRANCH 69 70
ATOM     70  CD  GLN B   5      35.647  60.700  11.470  1.00 63.27 LIG 0.21  C 
ATOM     71  NE2 GLN B   5      35.364  60.733  12.758  1.00 63.75 LIG-0.37  N 
ATOM     72 21HE GLN B   5      35.220  60.000  13.185  1.00 63.75 LIG 0.16  HD
ATOM     73 22HE GLN B   5      35.324  61.486  13.170  1.00 63.75 LIG 0.16  HD
ATOM     74 OE1  GLN B   5      35.858  61.707  10.825  1.00 68.43 LIG-0.27  OA
ENDBRANCH 69 70
ENDBRANCH 68 69
ENDBRANCH 50 68
ENDBRANCH 47 50
ENDBRANCH 1 46
TORSDOF 30
ENDMDL
MODEL 3
USER: ADFR SOLUTION from run 52
USER: SCORE 21.215276 LL:  -3.844 LR: -19.167 RR:   0.000 FEB: -10.218
USER: RMSD 3.004538
USER: SEED 51
USER: STATUS no improvement in best in 7 clusters for 5 generations
USER: GENES 32
USER: genes 0 Translation |==|  0.66616 0.49891 0.45953
USER: genes 1 Rotation |==|  0.50958 0.49082 0.50758 0.99977
USER: genes 2 Torsion [C]-CA--N-[C] |==|  0.68909
USER: genes 3 Torsion [N]-C--CA-[N] |==|  0.83363
USER: genes 4 Torsion [C]-CA--N-[C] |==|  0.89318
USER: genes 5 Torsion [N]-C--CA-[N] |==|  0.48296
USER: genes 6 Torsion [C]-CA--CB-[CG] |==|  0.29867
USER: genes 7 Torsion [CA]-CB--CG-[CD] |==|  0.97265
USER: genes 8 Torsion [CB]-CG--CD-[NE] |==|  0.47691
USER: genes 9 Torsion [CG]-CD--NE-[CZ] |==|  0.43545
USER: genes 10 Torsion [C]-CA--N-[C] |==|  0.63889
USER: genes 11 Torsion [N]-C--CA-[N] |==|  0.46362
USER: genes 12 Torsion [C]-CA--N-[H1] |==|  0.79598
USER: genes 13 Torsion [C]-CA--CB-[CG2] |==|  0.18001
USER: genes 14 Torsion [CA]-CB--OG1-[HG1] |==|  0.77120
USER: genes 15 Torsion [N]-CA--CB-[CG] |==|  0.75105
USER: genes 16 Torsion [CA]-CB--CG-[CD] |==|  0.50700
USER: genes 17 Torsion [CB]-CG--CD-[CE] |==|  0.69545
USER: genes 18 Torsion [CG]-CD--CE-[NZ] |==|  0.56753
USER: genes 19 Torsion [CD]-CE--NZ-[HZ1] |==|  0.49415
USER: genes 20 Torsion [N]-CA--C-[N] |==|  0.42290
USER: genes 21 Torsion [C]-N--CA-[CB] |==|  0.51111
USER: genes 22 Torsion [N]-CA--C-[N] |==|  0.42348
USER: genes 23 Torsion [C]-N--CA-[CB] |==|  0.52897
USER: genes 24 Torsion [N]-CA--CB-[CG2] |==|  0.57110
USER: genes 25 Torsion [CA]-CB--OG1-[HG1] |==|  0.63295
USER: genes 26 Torsion [N]-CA--C-[N] |==|  0.43247
USER: genes 27 Torsion [C]-N--CA-[CB] |==|  0.39572
USER: genes 28 Torsion [N]-CA--C-[O] |==|  0.01137
USER: genes 29 Torsion [N]-CA--CB-[CG] |==|  0.95226
USER: genes 30 Torsion [CA]-CB--CG-[CD] |==|  0.59060
USER: genes 31 Torsion [CB]-CG--CD-[NE2] |==|  0.11947
ROOT
ATOM      1  CA  LYS B   4      38.233  55.094   9.840  1.00 30.17 LIG 0.18  C 
ENDROOT
BRANCH 1 2
ATOM      2  N   LYS B   4      38.778  53.842  10.328  1.00 25.68 LIG-0.35  N 
ATOM      3 H    LYS B   4      38.360  53.146  10.045  1.00 25.68 LIG 0.16  HD
ATOM      4  C   THR B   3      39.835  53.786  11.146  1.00 23.58 LIG 0.24  C 
ATOM      5 O    THR B   3      40.452  54.783  11.539  1.00 24.56 LIG-0.27  OA
BRANCH 4 6
ATOM      6  CA  THR B   3      40.261  52.393  11.614  1.00 21.46 LIG 0.20  C 
BRANCH 6 7
ATOM      7  N   THR B   3      39.200  51.726  12.339  1.00 21.22 LIG-0.34  N 
ATOM      8 H    THR B   3      39.143  50.884  12.175  1.00 21.22 LIG 0.16  HD
ATOM      9  C   ARG B   2      38.402  52.354  13.170  1.00 21.22 LIG 0.24  C 
ATOM     10 O    ARG B   2      38.490  53.535  13.383  1.00 22.30 LIG-0.27  OA
BRANCH 9 11
ATOM     11  CA  ARG B   2      37.353  51.489  13.886  1.00 22.28 LIG 0.18  C 
BRANCH 11 12
ATOM     12  CB  ARG B   2      36.301  50.933  12.921  1.00 24.95 LIG 0.04  C 
BRANCH 12 13
ATOM     13  CG  ARG B   2      36.356  49.457  12.593  1.00 25.01 LIG 0.02  C 
BRANCH 13 14
ATOM     14  CD  ARG B   2      37.665  48.862  13.148  1.00 28.81 LIG 0.14  C 
BRANCH 14 15
ATOM     15  NE  ARG B   2      37.766  47.405  13.072  1.00 31.55 LIG-0.23  N 
ATOM     16 HE   ARG B   2      37.031  46.960  13.028  1.00 31.55 LIG 0.18  HD
ATOM     17  CZ  ARG B   2      38.909  46.705  13.065  1.00 33.58 LIG 0.67  C 
ATOM     18  NH2 ARG B   2      40.088  47.314  13.061  1.00 33.13 LIG-0.23  N 
ATOM     19  NH1 ARG B   2      38.876  45.388  13.034  1.00 37.12 LIG-0.23  N 
ATOM     20 1HH2 ARG B   2      40.129  48.173  13.063  1.00 33.13 LIG 0.17  HD
ATOM     21 2HH2 ARG B   2      40.813  46.849  13.056  1.00 33.13 LIG 0.17  HD
ATOM     22 2HH1 ARG B   2      39.610  44.939  13.030  1.00 37.12 LIG 0.17  HD
ATOM     23 1HH1 ARG B   2      38.120  44.977  13.018  1.00 37.12 LIG 0.17  HD
ENDBRANCH 14 15
ENDBRANCH 13 14
ENDBRANCH 12 13
ENDBRANCH 11 12
BRANCH 11 24
ATOM     24  N   ARG B   2      36.659  52.304  14.865  1.00 22.27 LIG-0.35  N 
ATOM     25  C   ALA B   1      36.528  51.872  16.109  1.00 22.85 LIG 0.25  C 
ATOM     26 O    ALA B   1      36.981  50.783  16.477  1.00 22.62 LIG-0.27  OA
ATOM     27 H    ARG B   2      36.357  53.054  14.570  1.00 22.27 LIG 0.16  HD
BRANCH 25 28
ATOM     28  CA  ALA B   1      35.749  52.790  17.067  1.00 23.76 LIG 0.27  C 
ATOM     29  CB  ALA B   1      36.519  54.071  17.367  1.00 24.39 LIG 0.05  C 
BRANCH 28 30
ATOM     30  N   ALA B   1      35.389  52.120  18.311  1.00 25.03 LIG-0.07  N 
ATOM     31 H1   ALA B   1      34.730  51.542  18.157  1.00 25.03 LIG 0.28  HD
ATOM     32 H3   ALA B   1      35.121  52.724  18.907  1.00 25.03 LIG 0.28  HD
ATOM     33 H2   ALA B   1      36.097  51.685  18.629  1.00 25.03 LIG 0.28  HD
ENDBRANCH 28 30
ENDBRANCH 25 28
ENDBRANCH 11 24
ENDBRANCH 9 11
ENDBRANCH 6 7
BRANCH 6 34
ATOM     34  CB  THR B   3      40.709  51.554  10.422  1.00 21.53 LIG 0.15  C 
ATOM     35  CG2 THR B   3      41.924  52.113   9.791  1.00 22.92 LIG 0.04  C 
BRANCH 34 36
ATOM     36 OG1  THR B   3      40.979  50.238  10.883  1.00 22.47 LIG-0.39  OA
ATOM     37 HG1  THR B   3      41.752  50.209  11.210  1.00 22.47 LIG 0.21  HD
ENDBRANCH 34 36
ENDBRANCH 6 34
ENDBRANCH 4 6
ENDBRANCH 1 2
BRANCH 1 38
ATOM     38  CB  LYS B   4      38.134  55.057   8.338  1.00 32.55 LIG 0.04  C 
BRANCH 38 39
ATOM     39  CG  LYS B   4      39.376  55.551   7.651  1.00 30.49 LIG 0.00  C 
BRANCH 39 40
ATOM     40  CD  LYS B   4      39.178  55.543   6.135  1.00 34.18 LIG 0.03  C 
BRANCH 40 41
ATOM     41  CE  LYS B   4      40.020  54.456   5.486  1.00 33.34 LIG 0.23  C 
BRANCH 41 42
ATOM     42  NZ  LYS B   4      40.341  54.721   4.061  1.00 36.76 LIG-0.08  N 
ATOM     43 HZ1  LYS B   4      40.858  54.069   3.747  1.00 36.76 LIG 0.27  HD
ATOM     44 HZ2  LYS B   4      39.588  54.756   3.588  1.00 36.76 LIG 0.27  HD
ATOM     45 HZ3  LYS B   4      40.769  55.498   3.992  1.00 36.76 LIG 0.27  HD
ENDBRANCH 41 42
ENDBRANCH 40 41
ENDBRANCH 39 40
ENDBRANCH 38 39
ENDBRANCH 1 38
BRANCH 1 46
ATOM     46  C   LYS B   4      36.876  55.323  10.437  1.00 34.41 LIG 0.24  C 
ATOM     47  N   GLN B   5      36.483  56.582  10.577  1.00 39.81 LIG-0.35  N 
ATOM     48 H    GLN B   5      36.915  57.269  10.294  1.00 39.81 LIG 0.16  HD
ATOM     49 O    LYS B   4      36.169  54.346  10.757  1.00 33.27 LIG-0.27  OA
BRANCH 47 50
ATOM     50  CA  GLN B   5      35.222  56.868  11.260  1.00 46.50 LIG 0.18  C 
BRANCH 50 51
ATOM     51  C   GLN B   5      34.074  55.995  10.746  1.00 52.91 LIG 0.24  C 
ATOM     52  N   THR B   6      33.092  55.755  11.625  1.00 59.38 LIG-0.34  N 
ATOM     53 H    THR B   6      33.020  56.184  12.368  1.00 59.38 LIG 0.16  HD
ATOM     54 O    GLN B   5      34.115  55.509   9.626  1.00 55.19 LIG-0.27  OA
BRANCH 52 55
ATOM     55  CA  THR B   6      32.016  54.729  11.427  1.00 66.40 LIG 0.20  C 
BRANCH 55 56
ATOM     56  CB  THR B   6      30.863  54.844  12.483  1.00 64.05 LIG 0.15  C 
ATOM     57  CG2 THR B   6      30.166  53.501  12.669  1.00 70.60 LIG 0.04  C 
BRANCH 56 58
ATOM     58 OG1  THR B   6      31.355  55.301  13.755  1.00 62.34 LIG-0.39  OA
ATOM     59 HG1  THR B   6      31.052  54.810  14.366  1.00 62.34 LIG 0.21  HD
ENDBRANCH 56 58
ENDBRANCH 55 56
BRANCH 55 60
ATOM     60  C   THR B   6      31.327  54.830  10.035  1.00 68.19 LIG 0.24  C 
ATOM     61 O    THR B   6      31.309  55.913   9.410  1.00 63.20 LIG-0.27  OA
ATOM     62  N   ALA B   7      30.751  53.717   9.570  1.00 78.65 LIG-0.35  N 
ATOM     63 H    ALA B   7      30.848  52.944   9.934  1.00 78.65 LIG 0.16  HD
BRANCH 62 64
ATOM     64  CA  ALA B   7      29.890  53.715   8.384  1.00 81.14 LIG 0.16  C 
ATOM     65  CB  ALA B   7      30.113  52.444   7.560  1.00 91.84 LIG 0.04  C 
BRANCH 64 66
ATOM     66  C   ALA B   7      28.413  53.831   8.795  1.00 81.58 LIG 0.22  C 
ATOM     67 O    ALA B   7      28.088  53.986   9.977  1.00 77.41 LIG-0.29  OA
ENDBRANCH 64 66
ENDBRANCH 62 64
ENDBRANCH 55 60
ENDBRANCH 52 55
ENDBRANCH 50 51
BRANCH 50 68
ATOM     68  CB  GLN B   5      34.846  58.359  11.263  1.00 52.07 LIG 0.04  C 
BRANCH 68 69
ATOM     69  CG  GLN B   5      35.926  59.370  10.956  1.00 55.77 LIG 0.10  C 
BRANCH 69 70
ATOM     70  CD  GLN B   5      35.700  60.665  11.722  1.00 63.27 LIG 0.21  C 
ATOM     71  NE2 GLN B   5      35.341  60.540  12.986  1.00 63.75 LIG-0.37  N 
ATOM     72 21HE GLN B   5      35.255  59.757  13.332  1.00 63.75 LIG 0.16  HD
ATOM     73 22HE GLN B   5      35.193  61.240  13.462  1.00 63.75 LIG 0.16  HD
ATOM     74 OE1  GLN B   5      35.834  61.749  11.189  1.00 68.43 LIG-0.27  OA
ENDBRANCH 69 70
ENDBRANCH 68 69
ENDBRANCH 50 68
ENDBRANCH 47 50
ENDBRANCH 1 46
TORSDOF 30
ENDMDL
MODEL 4
USER: ADFR SOLUTION from run 52
USER: SCORE 21.344655 LL:  -4.320 LR: -19.041 RR:   0.000 FEB: -10.092
USER: RMSD 3.090194
USER: SEED 51
USER: STATUS no improvement in best in 7 clusters for 5 generations
USER: GENES 32
USER: genes 0 Translation |==|  0.66614 0.49898 0.45900
USER: genes 1 Rotation |==|  0.51007 0.48774 0.50941 0.99966
USER: genes 2 Torsion [C]-CA--N-[C] |==|  0.68714
USER: genes 3 Torsion [N]-C--CA-[N] |==|  0.83334
USER: genes 4 Torsion [C]-CA--N-[C] |==|  0.89277
USER: genes 5 Torsion [N]-C--CA-[N] |==|  0.48299
USER: genes 6 Torsion [C]-CA--CB-[CG] |==|  0.29876
USER: genes 7 Torsion [CA]-CB--CG-[CD] |==|  0.97239
USER: genes 8 Torsion [CB]-CG--CD-[NE] |==|  0.47643
USER: genes 9 Torsion [CG]-CD--NE-[CZ] |==|  0.43532
USER: genes 10 Torsion [C]-CA--N-[C] |==|  0.63873
USER: genes 11 Torsion [N]-C--CA-[N] |==|  0.46314
USER: genes 12 Torsion [C]-CA--N-[H1] |==|  0.79610
USER: genes 13 Torsion [C]-CA--CB-[CG2] |==|  0.17966
USER: genes 14 Torsion [CA]-CB--OG1-[HG1] |==|  0.77109
USER: genes 15 Torsion [N]-CA--CB-[CG] |==|  0.75208
USER: genes 16 Torsion [CA]-CB--CG-[CD] |==|  0.50857
USER: genes 17 Torsion [CB]-CG--CD-[CE] |==|  0.69640
USER: genes 18 Torsion [CG]-CD--CE-[NZ] |==|  0.56550
USER: genes 19 Torsion [CD]-CE--NZ-[HZ1] |==|  0.49405
USER: genes 20 Torsion [N]-CA--C-[N] |==|  0.42065
USER: genes 21 Torsion [C]-N--CA-[CB] |==|  0.51672
USER: genes 22 Torsion [N]-CA--C-[N] |==|  0.26771
USER: genes 23 Torsion [C]-N--CA-[CB] |==|  0.19307
USER: genes 24 Torsion [N]-CA--CB-[CG2] |==|  0.57907
USER: genes 25 Torsion [CA]-CB--OG1-[HG1] |==|  0.87242
USER: genes 26 Torsion [N]-CA--C-[N] |==|  0.06027
USER: genes 27 Torsion [C]-N--CA-[CB] |==|  0.48640
USER: genes 28 Torsion [N]-CA--C-[O] |==|  0.01064
USER: genes 29 Torsion [N]-CA--CB-[CG] |==|  0.95114
USER: genes 30 Torsion [CA]-CB--CG-[CD] |==|  0.59817
USER: genes 31 Torsion [CB]-CG--CD-[NE2] |==|  0.11934
ROOT
ATOM      1  CA  LYS B   4      38.233  55.096   9.827  1.00 30.17 LIG 0.18  C 
ENDROOT
BRANCH 1 2
ATOM      2  N   LYS B   4      38.780  53.847  10.320  1.00 25.68 LIG-0.35  N 
ATOM      3 H    LYS B   4      38.365  53.149  10.037  1.00 25.68 LIG 0.16  HD
ATOM      4  C   THR B   3      39.836  53.796  11.140  1.00 23.58 LIG 0.24  C 
ATOM      5 O    THR B   3      40.449  54.796  11.531  1.00 24.56 LIG-0.27  OA
BRANCH 4 6
ATOM      6  CA  THR B   3      40.265  52.405  11.612  1.00 21.46 LIG 0.20  C 
BRANCH 6 7
ATOM      7  N   THR B   3      39.206  51.737  12.339  1.00 21.22 LIG-0.34  N 
ATOM      8 H    THR B   3      39.149  50.895  12.175  1.00 21.22 LIG 0.16  HD
ATOM      9  C   ARG B   2      38.408  52.366  13.169  1.00 21.22 LIG 0.24  C 
ATOM     10 O    ARG B   2      38.495  53.548  13.382  1.00 22.30 LIG-0.27  OA
BRANCH 9 11
ATOM     11  CA  ARG B   2      37.360  51.501  13.888  1.00 22.28 LIG 0.18  C 
BRANCH 11 12
ATOM     12  CB  ARG B   2      36.308  50.942  12.925  1.00 24.95 LIG 0.04  C 
BRANCH 12 13
ATOM     13  CG  ARG B   2      36.364  49.466  12.600  1.00 25.01 LIG 0.02  C 
BRANCH 13 14
ATOM     14  CD  ARG B   2      37.675  48.874  13.152  1.00 28.81 LIG 0.14  C 
BRANCH 14 15
ATOM     15  NE  ARG B   2      37.776  47.415  13.082  1.00 31.55 LIG-0.23  N 
ATOM     16 HE   ARG B   2      37.041  46.970  13.043  1.00 31.55 LIG 0.18  HD
ATOM     17  CZ  ARG B   2      38.920  46.716  13.073  1.00 33.58 LIG 0.67  C 
ATOM     18  NH2 ARG B   2      40.099  47.325  13.062  1.00 33.13 LIG-0.23  N 
ATOM     19  NH1 ARG B   2      38.886  45.399  13.049  1.00 37.12 LIG-0.23  N 
ATOM     20 1HH2 ARG B   2      40.139  48.184  13.060  1.00 33.13 LIG 0.17  HD
ATOM     21 2HH2 ARG B   2      40.823  46.861  13.056  1.00 33.13 LIG 0.17  HD
ATOM     22 2HH1 ARG B   2      39.620  44.950  13.043  1.00 37.12 LIG 0.17  HD
ATOM     23 1HH1 ARG B   2      38.130  44.988  13.038  1.00 37.12 LIG 0.17  HD
ENDBRANCH 14 15
ENDBRANCH 13 14
ENDBRANCH 12 13
ENDBRANCH 11 12
BRANCH 11 24
ATOM     24  N   ARG B   2      36.666  52.316  14.866  1.00 22.27 LIG-0.35  N 
ATOM     25  C   ALA B   1      36.536  51.885  16.111  1.00 22.85 LIG 0.25  C 
ATOM     26 O    ALA B   1      36.990  50.796  16.480  1.00 22.62 LIG-0.27  OA
ATOM     27 H    ARG B   2      36.364  53.065  14.571  1.00 22.27 LIG 0.16  HD
BRANCH 25 28
ATOM     28  CA  ALA B   1      35.757  52.803  17.068  1.00 23.76 LIG 0.27  C 
ATOM     29  CB  ALA B   1      36.528  54.083  17.370  1.00 24.39 LIG 0.05  C 
BRANCH 28 30
ATOM     30  N   ALA B   1      35.394  52.133  18.311  1.00 25.03 LIG-0.07  N 
ATOM     31 H1   ALA B   1      34.735  51.555  18.156  1.00 25.03 LIG 0.28  HD
ATOM     32 H3   ALA B   1      35.125  52.737  18.907  1.00 25.03 LIG 0.28  HD
ATOM     33 H2   ALA B   1      36.101  51.697  18.630  1.00 25.03 LIG 0.28  HD
ENDBRANCH 28 30
ENDBRANCH 25 28
ENDBRANCH 11 24
ENDBRANCH 9 11
ENDBRANCH 6 7
BRANCH 6 34
ATOM     34  CB  THR B   3      40.715  51.563  10.423  1.00 21.53 LIG 0.15  C 
ATOM     35  CG2 THR B   3      41.927  52.125   9.789  1.00 22.92 LIG 0.04  C 
BRANCH 34 36
ATOM     36 OG1  THR B   3      40.991  50.251  10.889  1.00 22.47 LIG-0.39  OA
ATOM     37 HG1  THR B   3      41.765  50.226  11.215  1.00 22.47 LIG 0.21  HD
ENDBRANCH 34 36
ENDBRANCH 6 34
ENDBRANCH 4 6
ENDBRANCH 1 2
BRANCH 1 38
ATOM     38  CB  LYS B   4      38.153  55.061   8.324  1.00 32.55 LIG 0.04  C 
BRANCH 38 39
ATOM     39  CG  LYS B   4      39.402  55.557   7.653  1.00 30.49 LIG 0.00  C 
BRANCH 39 40
ATOM     40  CD  LYS B   4      39.219  55.564   6.136  1.00 34.18 LIG 0.03  C 
BRANCH 40 41
ATOM     41  CE  LYS B   4      40.056  54.475   5.485  1.00 33.34 LIG 0.23  C 
BRANCH 41 42
ATOM     42  NZ  LYS B   4      40.378  54.742   4.060  1.00 36.76 LIG-0.08  N 
ATOM     43 HZ1  LYS B   4      40.893  54.088   3.745  1.00 36.76 LIG 0.27  HD
ATOM     44 HZ2  LYS B   4      39.626  54.780   3.587  1.00 36.76 LIG 0.27  HD
ATOM     45 HZ3  LYS B   4      40.810  55.517   3.993  1.00 36.76 LIG 0.27  HD
ENDBRANCH 41 42
ENDBRANCH 40 41
ENDBRANCH 39 40
ENDBRANCH 38 39
ENDBRANCH 1 38
BRANCH 1 46
ATOM     46  C   LYS B   4      36.866  55.314  10.408  1.00 34.41 LIG 0.24  C 
ATOM     47  N   GLN B   5      36.470  56.570  10.561  1.00 39.81 LIG-0.35  N 
ATOM     48 H    GLN B   5      36.905  57.262  10.294  1.00 39.81 LIG 0.16  HD
ATOM     49 O    LYS B   4      36.156  54.331  10.703  1.00 33.27 LIG-0.27  OA
BRANCH 47 50
ATOM     50  CA  GLN B   5      35.198  56.843  11.229  1.00 46.50 LIG 0.18  C 
BRANCH 50 51
ATOM     51  C   GLN B   5      34.070  55.942  10.721  1.00 52.91 LIG 0.24  C 
ATOM     52  N   THR B   6      33.826  54.850  11.456  1.00 59.38 LIG-0.34  N 
ATOM     53 H    THR B   6      34.160  54.735  12.241  1.00 59.38 LIG 0.16  HD
ATOM     54 O    GLN B   5      33.495  56.197   9.673  1.00 55.19 LIG-0.27  OA
BRANCH 52 55
ATOM     55  CA  THR B   6      32.959  53.710  11.010  1.00 66.40 LIG 0.20  C 
BRANCH 55 56
ATOM     56  CB  THR B   6      33.598  52.878   9.845  1.00 64.05 LIG 0.15  C 
ATOM     57  CG2 THR B   6      32.516  52.245   8.979  1.00 70.60 LIG 0.04  C 
BRANCH 56 58
ATOM     58 OG1  THR B   6      34.449  53.692   9.020  1.00 62.34 LIG-0.39  OA
ATOM     59 HG1  THR B   6      34.058  54.414   8.840  1.00 62.34 LIG 0.21  HD
ENDBRANCH 56 58
ENDBRANCH 55 56
BRANCH 55 60
ATOM     60  C   THR B   6      32.664  52.689  12.148  1.00 68.19 LIG 0.24  C 
ATOM     61 O    THR B   6      32.301  51.523  11.880  1.00 63.20 LIG-0.27  OA
ATOM     62  N   ALA B   7      32.799  53.134  13.401  1.00 78.65 LIG-0.35  N 
ATOM     63 H    ALA B   7      33.151  53.893  13.600  1.00 78.65 LIG 0.16  HD
BRANCH 62 64
ATOM     64  CA  ALA B   7      32.356  52.358  14.563  1.00 81.14 LIG 0.16  C 
ATOM     65  CB  ALA B   7      32.749  53.064  15.863  1.00 91.84 LIG 0.04  C 
BRANCH 64 66
ATOM     66  C   ALA B   7      30.835  52.143  14.512  1.00 81.58 LIG 0.22  C 
ATOM     67 O    ALA B   7      30.165  52.533  13.551  1.00 77.41 LIG-0.29  OA
ENDBRANCH 64 66
ENDBRANCH 62 64
ENDBRANCH 55 60
ENDBRANCH 52 55
ENDBRANCH 50 51
BRANCH 50 68
ATOM     68  CB  GLN B   5      34.796  58.328  11.206  1.00 52.07 LIG 0.04  C 
BRANCH 68 69
ATOM     69  CG  GLN B   5      35.862  59.353  10.901  1.00 55.77 LIG 0.10  C 
BRANCH 69 70
ATOM     70  CD  GLN B   5      35.639  60.632  11.696  1.00 63.27 LIG 0.21  C 
ATOM     71  NE2 GLN B   5      35.302  60.478  12.963  1.00 63.75 LIG-0.37  N 
ATOM     72 21HE GLN B   5      35.228  59.688  13.295  1.00 63.75 LIG 0.16  HD
ATOM     73 22HE GLN B   5      35.157  61.167  13.455  1.00 63.75 LIG 0.16  HD
ATOM     74 OE1  GLN B   5      35.756  61.727  11.183  1.00 68.43 LIG-0.27  OA
ENDBRANCH 69 70
ENDBRANCH 68 69
ENDBRANCH 50 68
ENDBRANCH 47 50
ENDBRANCH 1 46
TORSDOF 30
ENDMDL
MODEL 5
USER: ADFR SOLUTION from run 109
USER: SCORE 21.896360 LL:  -4.382 LR: -19.009 RR:   0.000 FEB: -10.060
USER: RMSD 3.671599
USER: SEED 108
USER: STATUS no improvement in best in 6 clusters for 5 generations
USER: GENES 32
USER: genes 0 Translation |==|  0.67048 0.50292 0.46422
USER: genes 1 Rotation |==|  0.54316 0.49431 0.50315 0.99809
USER: genes 2 Torsion [C]-CA--N-[C] |==|  0.67215
USER: genes 3 Torsion [N]-C--CA-[N] |==|  0.87497
USER: genes 4 Torsion [C]-CA--N-[C] |==|  0.83538
USER: genes 5 Torsion [N]-C--CA-[N] |==|  0.16430
USER: genes 6 Torsion [C]-CA--CB-[CG] |==|  0.61308
USER: genes 7 Torsion [CA]-CB--CG-[CD] |==|  0.34047
USER: genes 8 Torsion [CB]-CG--CD-[NE] |==|  0.41735
USER: genes 9 Torsion [CG]-CD--NE-[CZ] |==|  0.20276
USER: genes 10 Torsion [C]-CA--N-[C] |==|  0.76066
USER: genes 11 Torsion [N]-C--CA-[N] |==|  0.76574
USER: genes 12 Torsion [C]-CA--N-[H1] |==|  0.43383
USER: genes 13 Torsion [C]-CA--CB-[CG2] |==|  0.18128
USER: genes 14 Torsion [CA]-CB--OG1-[HG1] |==|  0.85044
USER: genes 15 Torsion [N]-CA--CB-[CG] |==|  0.82322
USER: genes 16 Torsion [CA]-CB--CG-[CD] |==|  0.49569
USER: genes 17 Torsion [CB]-CG--CD-[CE] |==|  0.62896
USER: genes 18 Torsion [CG]-CD--CE-[NZ] |==|  0.55504
USER: genes 19 Torsion [CD]-CE--NZ-[HZ1] |==|  0.50597
USER: genes 20 Torsion [N]-CA--C-[N] |==|  0.44940
USER: genes 21 Torsion [C]-N--CA-[CB] |==|  0.48504
USER: genes 22 Torsion [N]-CA--C-[N] |==|  0.41917
USER: genes 23 Torsion [C]-N--CA-[CB] |==|  0.18750
USER: genes 24 Torsion [N]-CA--CB-[CG2] |==|  0.71574
USER: genes 25 Torsion [CA]-CB--OG1-[HG1] |==|  0.83911
USER: genes 26 Torsion [N]-CA--C-[N] |==|  0.07180
USER: genes 27 Torsion [C]-N--CA-[CB] |==|  0.46829
USER: genes 28 Torsion [N]-CA--C-[O] |==|  0.33169
USER: genes 29 Torsion [N]-CA--CB-[CG] |==|  0.04306
USER: genes 30 Torsion [CA]-CB--CG-[CD] |==|  0.55879
USER: genes 31 Torsion [CB]-CG--CD-[NE2] |==|  0.04899
ROOT
ATOM      1  CA  LYS B   4      38.334  55.185   9.952  1.00 30.17 LIG 0.18  C 
ENDROOT
BRANCH 1 2
ATOM      2  N   LYS B   4      38.865  53.871  10.259  1.00 25.68 LIG-0.35  N 
ATOM      3 H    LYS B   4      38.386  53.222   9.962  1.00 25.68 LIG 0.16  HD
ATOM      4  C   THR B   3      40.001  53.695  10.945  1.00 23.58 LIG 0.24  C 
ATOM      5 O    THR B   3      40.705  54.624  11.355  1.00 24.56 LIG-0.27  OA
BRANCH 4 6
ATOM      6  CA  THR B   3      40.405  52.247  11.231  1.00 21.46 LIG 0.20  C 
BRANCH 6 7
ATOM      7  N   THR B   3      39.281  51.460  11.692  1.00 21.22 LIG-0.34  N 
ATOM      8 H    THR B   3      39.105  50.781  11.193  1.00 21.22 LIG 0.16  HD
ATOM      9  C   ARG B   2      38.598  51.759  12.771  1.00 21.22 LIG 0.24  C 
ATOM     10 O    ARG B   2      38.854  52.717  13.454  1.00 22.30 LIG-0.27  OA
BRANCH 9 11
ATOM     11  CA  ARG B   2      37.458  50.797  13.140  1.00 22.28 LIG 0.18  C 
BRANCH 11 12
ATOM     12  CB  ARG B   2      36.751  51.203  14.436  1.00 24.95 LIG 0.04  C 
BRANCH 12 13
ATOM     13  CG  ARG B   2      36.364  50.104  15.401  1.00 25.01 LIG 0.02  C 
BRANCH 13 14
ATOM     14  CD  ARG B   2      37.017  50.378  16.770  1.00 28.81 LIG 0.14  C 
BRANCH 14 15
ATOM     15  NE  ARG B   2      36.271  49.879  17.925  1.00 31.55 LIG-0.23  N 
ATOM     16 HE   ARG B   2      35.870  50.460  18.417  1.00 31.55 LIG 0.18  HD
ATOM     17  CZ  ARG B   2      36.161  48.591  18.281  1.00 33.58 LIG 0.67  C 
ATOM     18  NH2 ARG B   2      36.690  47.625  17.541  1.00 33.13 LIG-0.23  N 
ATOM     19  NH1 ARG B   2      35.494  48.263  19.370  1.00 37.12 LIG-0.23  N 
ATOM     20 1HH2 ARG B   2      37.114  47.820  16.818  1.00 33.13 LIG 0.17  HD
ATOM     21 2HH2 ARG B   2      36.610  46.804  17.784  1.00 33.13 LIG 0.17  HD
ATOM     22 2HH1 ARG B   2      35.423  47.437  19.598  1.00 37.12 LIG 0.17  HD
ATOM     23 1HH1 ARG B   2      35.129  48.875  19.852  1.00 37.12 LIG 0.17  HD
ENDBRANCH 14 15
ENDBRANCH 13 14
ENDBRANCH 12 13
ENDBRANCH 11 12
BRANCH 11 24
ATOM     24  N   ARG B   2      38.008  49.469  13.340  1.00 22.27 LIG-0.35  N 
ATOM     25  C   ALA B   1      38.167  48.657  12.307  1.00 22.85 LIG 0.25  C 
ATOM     26 O    ALA B   1      37.860  48.991  11.157  1.00 22.62 LIG-0.27  OA
ATOM     27 H    ARG B   2      38.207  49.274  14.154  1.00 22.27 LIG 0.16  HD
BRANCH 25 28
ATOM     28  CA  ALA B   1      38.726  47.260  12.623  1.00 23.76 LIG 0.27  C 
ATOM     29  CB  ALA B   1      38.132  46.694  13.908  1.00 24.39 LIG 0.05  C 
BRANCH 28 30
ATOM     30  N   ALA B   1      40.182  47.245  12.697  1.00 25.03 LIG-0.07  N 
ATOM     31 H1   ALA B   1      40.447  46.559  13.198  1.00 25.03 LIG 0.28  HD
ATOM     32 H3   ALA B   1      40.469  48.006  13.060  1.00 25.03 LIG 0.28  HD
ATOM     33 H2   ALA B   1      40.520  47.162  11.878  1.00 25.03 LIG 0.28  HD
ENDBRANCH 28 30
ENDBRANCH 25 28
ENDBRANCH 11 24
ENDBRANCH 9 11
ENDBRANCH 6 7
BRANCH 6 34
ATOM     34  CB  THR B   3      41.028  51.621   9.988  1.00 21.53 LIG 0.15  C 
ATOM     35  CG2 THR B   3      42.302  52.281   9.629  1.00 22.92 LIG 0.04  C 
BRANCH 34 36
ATOM     36 OG1  THR B   3      41.268  50.247  10.257  1.00 22.47 LIG-0.39  OA
ATOM     37 HG1  THR B   3      41.723  50.174  10.959  1.00 22.47 LIG 0.21  HD
ENDBRANCH 34 36
ENDBRANCH 6 34
ENDBRANCH 4 6
ENDBRANCH 1 2
BRANCH 1 38
ATOM     38  CB  LYS B   4      38.211  55.351   8.461  1.00 32.55 LIG 0.04  C 
BRANCH 38 39
ATOM     39  CG  LYS B   4      39.534  55.305   7.750  1.00 30.49 LIG 0.00  C 
BRANCH 39 40
ATOM     40  CD  LYS B   4      39.327  55.441   6.242  1.00 34.18 LIG 0.03  C 
BRANCH 40 41
ATOM     41  CE  LYS B   4      40.142  54.403   5.488  1.00 33.34 LIG 0.23  C 
BRANCH 41 42
ATOM     42  NZ  LYS B   4      40.370  54.744   4.061  1.00 36.76 LIG-0.08  N 
ATOM     43 HZ1  LYS B   4      40.823  54.087   3.668  1.00 36.76 LIG 0.27  HD
ATOM     44 HZ2  LYS B   4      39.587  54.850   3.652  1.00 36.76 LIG 0.27  HD
ATOM     45 HZ3  LYS B   4      40.836  55.500   4.007  1.00 36.76 LIG 0.27  HD
ENDBRANCH 41 42
ENDBRANCH 40 41
ENDBRANCH 39 40
ENDBRANCH 38 39
ENDBRANCH 1 38
BRANCH 1 46
ATOM     46  C   LYS B   4      36.989  55.350  10.599  1.00 34.41 LIG 0.24  C 
ATOM     47  N   GLN B   5      36.535  56.588  10.735  1.00 39.81 LIG-0.35  N 
ATOM     48 H    GLN B   5      36.917  57.293  10.426  1.00 39.81 LIG 0.16  HD
ATOM     49 O    LYS B   4      36.349  54.341  10.959  1.00 33.27 LIG-0.27  OA
BRANCH 47 50
ATOM     50  CA  GLN B   5      35.286  56.816  11.462  1.00 46.50 LIG 0.18  C 
BRANCH 50 51
ATOM     51  C   GLN B   5      34.112  56.042  10.856  1.00 52.91 LIG 0.24  C 
ATOM     52  N   THR B   6      33.147  55.691  11.715  1.00 59.38 LIG-0.34  N 
ATOM     53 H    THR B   6      33.098  56.007  12.513  1.00 59.38 LIG 0.16  HD
ATOM     54 O    GLN B   5      34.120  55.725   9.676  1.00 55.19 LIG-0.27  OA
BRANCH 52 55
ATOM     55  CA  THR B   6      32.050  54.717  11.397  1.00 66.40 LIG 0.20  C 
BRANCH 55 56
ATOM     56  CB  THR B   6      32.573  53.252  11.204  1.00 64.05 LIG 0.15  C 
ATOM     57  CG2 THR B   6      32.647  52.897   9.724  1.00 70.60 LIG 0.04  C 
BRANCH 56 58
ATOM     58 OG1  THR B   6      33.870  53.072  11.799  1.00 62.34 LIG-0.39  OA
ATOM     59 HG1  THR B   6      34.412  53.618  11.461  1.00 62.34 LIG 0.21  HD
ENDBRANCH 56 58
ENDBRANCH 55 56
BRANCH 55 60
ATOM     60  C   THR B   6      30.967  54.637  12.512  1.00 68.19 LIG 0.24  C 
ATOM     61 O    THR B   6      30.269  53.609  12.650  1.00 63.20 LIG-0.27  OA
ATOM     62  N   ALA B   7      30.818  55.720  13.281  1.00 78.65 LIG-0.35  N 
ATOM     63 H    ALA B   7      31.359  56.389  13.270  1.00 78.65 LIG 0.16  HD
BRANCH 62 64
ATOM     64  CA  ALA B   7      29.705  55.868  14.223  1.00 81.14 LIG 0.16  C 
ATOM     65  CB  ALA B   7      29.944  57.059  15.156  1.00 91.84 LIG 0.04  C 
BRANCH 64 66
ATOM     66  C   ALA B   7      28.381  56.044  13.463  1.00 81.58 LIG 0.22  C 
ATOM     67 O    ALA B   7      27.454  55.240  13.596  1.00 77.41 LIG-0.29  OA
ENDBRANCH 64 66
ENDBRANCH 62 64
ENDBRANCH 55 60
ENDBRANCH 52 55
ENDBRANCH 50 51
BRANCH 50 68
ATOM     68  CB  GLN B   5      34.948  58.305  11.655  1.00 52.07 LIG 0.04  C 
BRANCH 68 69
ATOM     69  CG  GLN B   5      35.683  59.320  10.814  1.00 55.77 LIG 0.10  C 
BRANCH 69 70
ATOM     70  CD  GLN B   5      35.638  60.701  11.453  1.00 63.27 LIG 0.21  C 
ATOM     71  NE2 GLN B   5      35.321  60.739  12.733  1.00 63.75 LIG-0.37  N 
ATOM     72 21HE GLN B   5      35.162  60.009  13.159  1.00 63.75 LIG 0.16  HD
ATOM     73 22HE GLN B   5      35.273  61.494  13.141  1.00 63.75 LIG 0.16  HD
ATOM     74 OE1  GLN B   5      35.870  61.705  10.811  1.00 68.43 LIG-0.27  OA
ENDBRANCH 69 70
ENDBRANCH 68 69
ENDBRANCH 50 68
ENDBRANCH 47 50
ENDBRANCH 1 46
TORSDOF 30
ENDMDL
MODEL 6
USER: ADFR SOLUTION from run 158
USER: SCORE 20.746815 LL:  -3.726 LR: -18.724 RR:   0.000 FEB:  -9.775
USER: RMSD 3.051517
USER: SEED 157
USER: STATUS no improvement in best in 8 clusters for 5 generations
USER: GENES 32
USER: genes 0 Translation |==|  0.67800 0.50767 0.44577
USER: genes 1 Rotation |==|  0.53918 0.51175 0.51828 0.99799
USER: genes 2 Torsion [C]-CA--N-[C] |==|  0.70275
USER: genes 3 Torsion [N]-C--CA-[N] |==|  0.87590
USER: genes 4 Torsion [C]-CA--N-[C] |==|  0.84011
USER: genes 5 Torsion [N]-C--CA-[N] |==|  0.16299
USER: genes 6 Torsion [C]-CA--CB-[CG] |==|  0.38192
USER: genes 7 Torsion [CA]-CB--CG-[CD] |==|  0.06627
USER: genes 8 Torsion [CB]-CG--CD-[NE] |==|  0.48415
USER: genes 9 Torsion [CG]-CD--NE-[CZ] |==|  0.39810
USER: genes 10 Torsion [C]-CA--N-[C] |==|  0.64609
USER: genes 11 Torsion [N]-C--CA-[N] |==|  0.91452
USER: genes 12 Torsion [C]-CA--N-[H1] |==|  0.42485
USER: genes 13 Torsion [C]-CA--CB-[CG2] |==|  0.21190
USER: genes 14 Torsion [CA]-CB--OG1-[HG1] |==|  0.81071
USER: genes 15 Torsion [N]-CA--CB-[CG] |==|  0.83963
USER: genes 16 Torsion [CA]-CB--CG-[CD] |==|  0.48456
USER: genes 17 Torsion [CB]-CG--CD-[CE] |==|  0.62867
USER: genes 18 Torsion [CG]-CD--CE-[NZ] |==|  0.54370
USER: genes 19 Torsion [CD]-CE--NZ-[HZ1] |==|  0.52080
USER: genes 20 Torsion [N]-CA--C-[N] |==|  0.44930
USER: genes 21 Torsion [C]-N--CA-[CB] |==|  0.48898
USER: genes 22 Torsion [N]-CA--C-[N] |==|  0.46704
USER: genes 23 Torsion [C]-N--CA-[CB] |==|  0.56692
USER: genes 24 Torsion [N]-CA--CB-[CG2] |==|  0.51203
USER: genes 25 Torsion [CA]-CB--OG1-[HG1] |==|  0.88008
USER: genes 26 Torsion [N]-CA--C-[N] |==|  0.36115
USER: genes 27 Torsion [C]-N--CA-[CB] |==|  0.45030
USER: genes 28 Torsion [N]-CA--C-[O] |==|  0.03715
USER: genes 29 Torsion [N]-CA--CB-[CG] |==|  0.00793
USER: genes 30 Torsion [CA]-CB--CG-[CD] |==|  0.58006
USER: genes 31 Torsion [CB]-CG--CD-[NE2] |==|  0.07275
ROOT
ATOM      1  CA  LYS B   4      38.509  55.292   9.509  1.00 30.17 LIG 0.18  C 
ENDROOT
BRANCH 1 2
ATOM      2  N   LYS B   4      39.145  54.022   9.801  1.00 25.68 LIG-0.35  N 
ATOM      3 H    LYS B   4      38.772  53.348   9.417  1.00 25.68 LIG 0.16  HD
ATOM      4  C   THR B   3      40.215  53.917  10.596  1.00 23.58 LIG 0.24  C 
ATOM      5 O    THR B   3      40.768  54.885  11.132  1.00 24.56 LIG-0.27  OA
BRANCH 4 6
ATOM      6  CA  THR B   3      40.743  52.503  10.846  1.00 21.46 LIG 0.20  C 
BRANCH 6 7
ATOM      7  N   THR B   3      39.669  51.574  11.129  1.00 21.22 LIG-0.34  N 
ATOM      8 H    THR B   3      39.638  50.905  10.590  1.00 21.22 LIG 0.16  HD
ATOM      9  C   ARG B   2      38.824  51.745  12.117  1.00 21.22 LIG 0.24  C 
ATOM     10 O    ARG B   2      38.877  52.692  12.859  1.00 22.30 LIG-0.27  OA
BRANCH 9 11
ATOM     11  CA  ARG B   2      37.766  50.646  12.301  1.00 22.28 LIG 0.18  C 
BRANCH 11 12
ATOM     12  CB  ARG B   2      36.864  50.903  13.512  1.00 24.95 LIG 0.04  C 
BRANCH 12 13
ATOM     13  CG  ARG B   2      35.381  50.654  13.351  1.00 25.01 LIG 0.02  C 
BRANCH 13 14
ATOM     14  CD  ARG B   2      35.156  49.645  12.209  1.00 28.81 LIG 0.14  C 
BRANCH 14 15
ATOM     15  NE  ARG B   2      33.771  49.210  12.027  1.00 31.55 LIG-0.23  N 
ATOM     16 HE   ARG B   2      33.294  49.105  12.735  1.00 31.55 LIG 0.18  HD
ATOM     17  CZ  ARG B   2      33.184  48.960  10.848  1.00 33.58 LIG 0.67  C 
ATOM     18  NH2 ARG B   2      33.825  49.162   9.704  1.00 33.13 LIG-0.23  N 
ATOM     19  NH1 ARG B   2      31.938  48.532  10.810  1.00 37.12 LIG-0.23  N 
ATOM     20 1HH2 ARG B   2      34.633  49.457   9.709  1.00 33.13 LIG 0.17  HD
ATOM     21 2HH2 ARG B   2      33.433  48.996   8.956  1.00 33.13 LIG 0.17  HD
ATOM     22 2HH1 ARG B   2      31.561  48.372  10.054  1.00 37.12 LIG 0.17  HD
ATOM     23 1HH1 ARG B   2      31.501  48.414  11.542  1.00 37.12 LIG 0.17  HD
ENDBRANCH 14 15
ENDBRANCH 13 14
ENDBRANCH 12 13
ENDBRANCH 11 12
BRANCH 11 24
ATOM     24  N   ARG B   2      38.436  49.377  12.519  1.00 22.27 LIG-0.35  N 
ATOM     25  C   ALA B   1      38.125  48.330  11.772  1.00 22.85 LIG 0.25  C 
ATOM     26 O    ALA B   1      37.271  48.390  10.880  1.00 22.62 LIG-0.27  OA
ATOM     27 H    ARG B   2      39.022  49.376  13.148  1.00 22.27 LIG 0.16  HD
BRANCH 25 28
ATOM     28  CA  ALA B   1      38.865  47.021  12.098  1.00 23.76 LIG 0.27  C 
ATOM     29  CB  ALA B   1      38.071  46.155  13.068  1.00 24.39 LIG 0.05  C 
BRANCH 28 30
ATOM     30  N   ALA B   1      40.206  47.254  12.619  1.00 25.03 LIG-0.07  N 
ATOM     31 H1   ALA B   1      40.444  46.574  13.141  1.00 25.03 LIG 0.28  HD
ATOM     32 H3   ALA B   1      40.215  48.008  13.092  1.00 25.03 LIG 0.28  HD
ATOM     33 H2   ALA B   1      40.780  47.323  11.942  1.00 25.03 LIG 0.28  HD
ENDBRANCH 28 30
ENDBRANCH 25 28
ENDBRANCH 11 24
ENDBRANCH 9 11
ENDBRANCH 6 7
BRANCH 6 34
ATOM     34  CB  THR B   3      41.563  52.031   9.650  1.00 21.53 LIG 0.15  C 
ATOM     35  CG2 THR B   3      42.902  52.656   9.629  1.00 22.92 LIG 0.04  C 
BRANCH 34 36
ATOM     36 OG1  THR B   3      41.702  50.620   9.739  1.00 22.47 LIG-0.39  OA
ATOM     37 HG1  THR B   3      42.190  50.427  10.395  1.00 22.47 LIG 0.21  HD
ENDBRANCH 34 36
ENDBRANCH 6 34
ENDBRANCH 4 6
ENDBRANCH 1 2
BRANCH 1 38
ATOM     38  CB  LYS B   4      38.281  55.421   8.026  1.00 32.55 LIG 0.04  C 
BRANCH 38 39
ATOM     39  CG  LYS B   4      39.544  55.307   7.222  1.00 30.49 LIG 0.00  C 
BRANCH 39 40
ATOM     40  CD  LYS B   4      39.220  55.309   5.728  1.00 34.18 LIG 0.03  C 
BRANCH 40 41
ATOM     41  CE  LYS B   4      39.979  54.207   5.008  1.00 33.34 LIG 0.23  C 
BRANCH 41 42
ATOM     42  NZ  LYS B   4      40.012  54.369   3.533  1.00 36.76 LIG-0.08  N 
ATOM     43 HZ1  LYS B   4      40.371  53.645   3.162  1.00 36.76 LIG 0.27  HD
ATOM     44 HZ2  LYS B   4      39.183  54.477   3.227  1.00 36.76 LIG 0.27  HD
ATOM     45 HZ3  LYS B   4      40.500  55.083   3.323  1.00 36.76 LIG 0.27  HD
ENDBRANCH 41 42
ENDBRANCH 40 41
ENDBRANCH 39 40
ENDBRANCH 38 39
ENDBRANCH 1 38
BRANCH 1 46
ATOM     46  C   LYS B   4      37.200  55.380  10.239  1.00 34.41 LIG 0.24  C 
ATOM     47  N   GLN B   5      36.674  56.588  10.387  1.00 39.81 LIG-0.35  N 
ATOM     48 H    GLN B   5      36.988  57.311  10.043  1.00 39.81 LIG 0.16  HD
ATOM     49 O    LYS B   4      36.652  54.339  10.654  1.00 33.27 LIG-0.27  OA
BRANCH 47 50
ATOM     50  CA  GLN B   5      35.461  56.748  11.189  1.00 46.50 LIG 0.18  C 
BRANCH 50 51
ATOM     51  C   GLN B   5      34.316  55.862  10.692  1.00 52.91 LIG 0.24  C 
ATOM     52  N   THR B   6      33.262  55.765  11.513  1.00 59.38 LIG-0.34  N 
ATOM     53 H    THR B   6      33.155  56.282  12.193  1.00 59.38 LIG 0.16  HD
ATOM     54 O    GLN B   5      34.417  55.245   9.643  1.00 55.19 LIG-0.27  OA
BRANCH 52 55
ATOM     55  CA  THR B   6      32.159  54.762  11.353  1.00 66.40 LIG 0.20  C 
BRANCH 55 56
ATOM     56  CB  THR B   6      30.817  55.220  12.024  1.00 64.05 LIG 0.15  C 
ATOM     57  CG2 THR B   6      29.764  54.122  11.925  1.00 70.60 LIG 0.04  C 
BRANCH 56 58
ATOM     58 OG1  THR B   6      31.010  55.566  13.406  1.00 62.34 LIG-0.39  OA
ATOM     59 HG1  THR B   6      31.506  54.995  13.772  1.00 62.34 LIG 0.21  HD
ENDBRANCH 56 58
ENDBRANCH 55 56
BRANCH 55 60
ATOM     60  C   THR B   6      31.810  54.474   9.863  1.00 68.19 LIG 0.24  C 
ATOM     61 O    THR B   6      31.580  55.413   9.070  1.00 63.20 LIG-0.27  OA
ATOM     62  N   ALA B   7      31.752  53.190   9.499  1.00 78.65 LIG-0.35  N 
ATOM     63 H    ALA B   7      32.012  52.541  10.001  1.00 78.65 LIG 0.16  HD
BRANCH 62 64
ATOM     64  CA  ALA B   7      31.233  52.764   8.196  1.00 81.14 LIG 0.16  C 
ATOM     65  CB  ALA B   7      31.684  51.336   7.877  1.00 91.84 LIG 0.04  C 
BRANCH 64 66
ATOM     66  C   ALA B   7      29.699  52.856   8.177  1.00 81.58 LIG 0.22  C 
ATOM     67 O    ALA B   7      29.083  53.465   9.057  1.00 77.41 LIG-0.29  OA
ENDBRANCH 64 66
ENDBRANCH 62 64
ENDBRANCH 55 60
ENDBRANCH 52 55
ENDBRANCH 50 51
BRANCH 50 68
ATOM     68  CB  GLN B   5      35.019  58.213  11.354  1.00 52.07 LIG 0.04  C 
BRANCH 68 69
ATOM     69  CG  GLN B   5      35.811  59.284  10.642  1.00 55.77 LIG 0.10  C 
BRANCH 69 70
ATOM     70  CD  GLN B   5      35.751  60.604  11.396  1.00 63.27 LIG 0.21  C 
ATOM     71  NE2 GLN B   5      35.539  60.524  12.695  1.00 63.75 LIG-0.37  N 
ATOM     72 21HE GLN B   5      35.452  59.754  13.070  1.00 63.75 LIG 0.16  HD
ATOM     73 22HE GLN B   5      35.488  61.240  13.168  1.00 63.75 LIG 0.16  HD
ATOM     74 OE1  GLN B   5      35.880  61.668  10.823  1.00 68.43 LIG-0.27  OA
ENDBRANCH 69 70
ENDBRANCH 68 69
ENDBRANCH 50 68
ENDBRANCH 47 50
ENDBRANCH 1 46
TORSDOF 30
ENDMDL
MODEL 7
USER: ADFR SOLUTION from run 4
USER: SCORE 19.318239 LL:  -3.767 LR: -18.668 RR:   0.000 FEB:  -9.719
USER: RMSD 3.578699
USER: SEED 899741
USER: STATUS searching
USER: GENES 32
USER: genes 0 Translation |==|  0.66449 0.49658 0.44682
USER: genes 1 Rotation |==|  0.49784 0.49858 0.52463 0.99939
USER: genes 2 Torsion [C]-CA--N-[C] |==|  0.71999
USER: genes 3 Torsion [N]-C--CA-[N] |==|  0.80595
USER: genes 4 Torsion [C]-CA--N-[C] |==|  0.89374
USER: genes 5 Torsion [N]-C--CA-[N] |==|  0.47367
USER: genes 6 Torsion [C]-CA--CB-[CG] |==|  0.29318
USER: genes 7 Torsion [CA]-CB--CG-[CD] |==|  0.06298
USER: genes 8 Torsion [CB]-CG--CD-[NE] |==|  0.49598
USER: genes 9 Torsion [CG]-CD--NE-[CZ] |==|  0.32815
USER: genes 10 Torsion [C]-CA--N-[C] |==|  0.63877
USER: genes 11 Torsion [N]-C--CA-[N] |==|  0.44022
USER: genes 12 Torsion [C]-CA--N-[H1] |==|  0.37648
USER: genes 13 Torsion [C]-CA--CB-[CG2] |==|  0.19361
USER: genes 14 Torsion [CA]-CB--OG1-[HG1] |==|  0.77369
USER: genes 15 Torsion [N]-CA--CB-[CG] |==|  0.83908
USER: genes 16 Torsion [CA]-CB--CG-[CD] |==|  0.56377
USER: genes 17 Torsion [CB]-CG--CD-[CE] |==|  0.67010
USER: genes 18 Torsion [CG]-CD--CE-[NZ] |==|  0.61517
USER: genes 19 Torsion [CD]-CE--NZ-[HZ1] |==|  0.17070
USER: genes 20 Torsion [N]-CA--C-[N] |==|  0.36773
USER: genes 21 Torsion [C]-N--CA-[CB] |==|  0.50005
USER: genes 22 Torsion [N]-CA--C-[N] |==|  0.74697
USER: genes 23 Torsion [C]-N--CA-[CB] |==|  0.18765
USER: genes 24 Torsion [N]-CA--CB-[CG2] |==|  0.64061
USER: genes 25 Torsion [CA]-CB--OG1-[HG1] |==|  0.84959
USER: genes 26 Torsion [N]-CA--C-[N] |==|  0.67613
USER: genes 27 Torsion [C]-N--CA-[CB] |==|  0.45097
USER: genes 28 Torsion [N]-CA--C-[O] |==|  0.21623
USER: genes 29 Torsion [N]-CA--CB-[CG] |==|  0.07254
USER: genes 30 Torsion [CA]-CB--CG-[CD] |==|  0.53083
USER: genes 31 Torsion [CB]-CG--CD-[NE2] |==|  0.03719
ROOT
ATOM      1  CA  LYS B   4      38.194  55.042   9.535  1.00 30.17 LIG 0.18  C 
ENDROOT
BRANCH 1 2
ATOM      2  N   LYS B   4      38.836  53.855  10.065  1.00 25.68 LIG-0.35  N 
ATOM      3 H    LYS B   4      38.559  53.121   9.713  1.00 25.68 LIG 0.16  HD
ATOM      4  C   THR B   3      39.774  53.907  11.018  1.00 23.58 LIG 0.24  C 
ATOM      5 O    THR B   3      40.192  54.962  11.512  1.00 24.56 LIG-0.27  OA
BRANCH 4 6
ATOM      6  CA  THR B   3      40.322  52.566  11.509  1.00 21.46 LIG 0.20  C 
BRANCH 6 7
ATOM      7  N   THR B   3      39.335  51.833  12.273  1.00 21.22 LIG-0.34  N 
ATOM      8 H    THR B   3      39.345  50.985  12.131  1.00 21.22 LIG 0.16  HD
ATOM      9  C   ARG B   2      38.502  52.416  13.103  1.00 21.22 LIG 0.24  C 
ATOM     10 O    ARG B   2      38.495  53.606  13.284  1.00 22.30 LIG-0.27  OA
BRANCH 9 11
ATOM     11  CA  ARG B   2      37.542  51.487  13.862  1.00 22.28 LIG 0.18  C 
BRANCH 11 12
ATOM     12  CB  ARG B   2      36.473  50.882  12.948  1.00 24.95 LIG 0.04  C 
BRANCH 12 13
ATOM     13  CG  ARG B   2      36.616  49.427  12.562  1.00 25.01 LIG 0.02  C 
BRANCH 13 14
ATOM     14  CD  ARG B   2      37.491  48.709  13.608  1.00 28.81 LIG 0.14  C 
BRANCH 14 15
ATOM     15  NE  ARG B   2      37.687  47.277  13.376  1.00 31.55 LIG-0.23  N 
ATOM     16 HE   ARG B   2      36.987  46.776  13.383  1.00 31.55 LIG 0.18  HD
ATOM     17  CZ  ARG B   2      38.867  46.681  13.153  1.00 33.58 LIG 0.67  C 
ATOM     18  NH2 ARG B   2      39.987  47.387  13.057  1.00 33.13 LIG-0.23  N 
ATOM     19  NH1 ARG B   2      38.925  45.374  12.998  1.00 37.12 LIG-0.23  N 
ATOM     20 1HH2 ARG B   2      39.964  48.243  13.139  1.00 33.13 LIG 0.17  HD
ATOM     21 2HH2 ARG B   2      40.735  46.988  12.914  1.00 33.13 LIG 0.17  HD
ATOM     22 2HH1 ARG B   2      39.683  44.991  12.855  1.00 37.12 LIG 0.17  HD
ATOM     23 1HH1 ARG B   2      38.207  44.903  13.039  1.00 37.12 LIG 0.17  HD
ENDBRANCH 14 15
ENDBRANCH 13 14
ENDBRANCH 12 13
ENDBRANCH 11 12
BRANCH 11 24
ATOM     24  N   ARG B   2      36.858  52.252  14.887  1.00 22.27 LIG-0.35  N 
ATOM     25  C   ALA B   1      36.817  51.801  16.131  1.00 22.85 LIG 0.25  C 
ATOM     26 O    ALA B   1      37.349  50.735  16.461  1.00 22.62 LIG-0.27  OA
ATOM     27 H    ARG B   2      36.500  52.987  14.619  1.00 22.27 LIG 0.16  HD
BRANCH 25 28
ATOM     28  CA  ALA B   1      36.042  52.665  17.140  1.00 23.76 LIG 0.27  C 
ATOM     29  CB  ALA B   1      36.848  53.883  17.573  1.00 24.39 LIG 0.05  C 
BRANCH 28 30
ATOM     30  N   ALA B   1      35.615  51.907  18.310  1.00 25.03 LIG-0.07  N 
ATOM     31 H1   ALA B   1      35.777  52.380  19.046  1.00 25.03 LIG 0.28  HD
ATOM     32 H3   ALA B   1      36.063  51.138  18.346  1.00 25.03 LIG 0.28  HD
ATOM     33 H2   ALA B   1      34.743  51.738  18.253  1.00 25.03 LIG 0.28  HD
ENDBRANCH 28 30
ENDBRANCH 25 28
ENDBRANCH 11 24
ENDBRANCH 9 11
ENDBRANCH 6 7
BRANCH 6 34
ATOM     34  CB  THR B   3      40.813  51.736  10.327  1.00 21.53 LIG 0.15  C 
ATOM     35  CG2 THR B   3      42.035  52.315   9.729  1.00 22.92 LIG 0.04  C 
BRANCH 34 36
ATOM     36 OG1  THR B   3      41.092  50.424  10.793  1.00 22.47 LIG-0.39  OA
ATOM     37 HG1  THR B   3      41.851  50.409  11.151  1.00 22.47 LIG 0.21  HD
ENDBRANCH 34 36
ENDBRANCH 6 34
ENDBRANCH 4 6
ENDBRANCH 1 2
BRANCH 1 38
ATOM     38  CB  LYS B   4      38.057  54.924   8.040  1.00 32.55 LIG 0.04  C 
BRANCH 38 39
ATOM     39  CG  LYS B   4      39.371  54.724   7.339  1.00 30.49 LIG 0.00  C 
BRANCH 39 40
ATOM     40  CD  LYS B   4      39.265  55.170   5.881  1.00 34.18 LIG 0.03  C 
BRANCH 40 41
ATOM     41  CE  LYS B   4      39.532  54.009   4.939  1.00 33.34 LIG 0.23  C 
BRANCH 41 42
ATOM     42  NZ  LYS B   4      40.370  54.371   3.767  1.00 36.76 LIG-0.08  N 
ATOM     43 HZ1  LYS B   4      41.167  54.651   4.047  1.00 36.76 LIG 0.27  HD
ATOM     44 HZ2  LYS B   4      40.474  53.658   3.245  1.00 36.76 LIG 0.27  HD
ATOM     45 HZ3  LYS B   4      39.972  55.020   3.307  1.00 36.76 LIG 0.27  HD
ENDBRANCH 41 42
ENDBRANCH 40 41
ENDBRANCH 39 40
ENDBRANCH 38 39
ENDBRANCH 1 38
BRANCH 1 46
ATOM     46  C   LYS B   4      36.841  55.208  10.162  1.00 34.41 LIG 0.24  C 
ATOM     47  N   GLN B   5      36.535  56.413  10.623  1.00 39.81 LIG-0.35  N 
ATOM     48 H    GLN B   5      37.022  57.116  10.533  1.00 39.81 LIG 0.16  HD
ATOM     49 O    LYS B   4      36.059  54.238  10.210  1.00 33.27 LIG-0.27  OA
BRANCH 47 50
ATOM     50  CA  GLN B   5      35.279  56.605  11.348  1.00 46.50 LIG 0.18  C 
BRANCH 50 51
ATOM     51  C   GLN B   5      34.073  56.071  10.571  1.00 52.91 LIG 0.24  C 
ATOM     52  N   THR B   6      33.466  56.955   9.769  1.00 59.38 LIG-0.34  N 
ATOM     53 H    THR B   6      33.811  57.718   9.574  1.00 59.38 LIG 0.16  HD
ATOM     54 O    GLN B   5      33.677  54.929  10.746  1.00 55.19 LIG-0.27  OA
BRANCH 52 55
ATOM     55  CA  THR B   6      32.130  56.729   9.125  1.00 66.40 LIG 0.20  C 
BRANCH 55 56
ATOM     56  CB  THR B   6      30.954  56.686  10.161  1.00 64.05 LIG 0.15  C 
ATOM     57  CG2 THR B   6      30.095  55.444   9.950  1.00 70.60 LIG 0.04  C 
BRANCH 56 58
ATOM     58 OG1  THR B   6      31.441  56.699  11.514  1.00 62.34 LIG-0.39  OA
ATOM     59 HG1  THR B   6      31.994  56.075  11.619  1.00 62.34 LIG 0.21  HD
ENDBRANCH 56 58
ENDBRANCH 55 56
BRANCH 55 60
ATOM     60  C   THR B   6      31.752  57.839   8.101  1.00 68.19 LIG 0.24  C 
ATOM     61 O    THR B   6      32.449  58.028   7.081  1.00 63.20 LIG-0.27  OA
ATOM     62  N   ALA B   7      30.674  58.575   8.387  1.00 78.65 LIG-0.35  N 
ATOM     63 H    ALA B   7      30.126  58.388   9.023  1.00 78.65 LIG 0.16  HD
BRANCH 62 64
ATOM     64  CA  ALA B   7      30.324  59.782   7.633  1.00 81.14 LIG 0.16  C 
ATOM     65  CB  ALA B   7      28.861  60.162   7.874  1.00 91.84 LIG 0.04  C 
BRANCH 64 66
ATOM     66  C   ALA B   7      31.249  60.945   8.028  1.00 81.58 LIG 0.22  C 
ATOM     67 O    ALA B   7      32.401  61.023   7.591  1.00 77.41 LIG-0.29  OA
ENDBRANCH 64 66
ENDBRANCH 62 64
ENDBRANCH 55 60
ENDBRANCH 52 55
ENDBRANCH 50 51
BRANCH 50 68
ATOM     68  CB  GLN B   5      35.057  58.051  11.824  1.00 52.07 LIG 0.04  C 
BRANCH 68 69
ATOM     69  CG  GLN B   5      35.724  59.168  11.057  1.00 55.77 LIG 0.10  C 
BRANCH 69 70
ATOM     70  CD  GLN B   5      35.626  60.487  11.809  1.00 63.27 LIG 0.21  C 
ATOM     71  NE2 GLN B   5      35.250  60.411  13.072  1.00 63.75 LIG-0.37  N 
ATOM     72 21HE GLN B   5      35.084  59.644  13.425  1.00 63.75 LIG 0.16  HD
ATOM     73 22HE GLN B   5      35.171  61.127  13.540  1.00 63.75 LIG 0.16  HD
ATOM     74 OE1  GLN B   5      35.871  61.546  11.267  1.00 68.43 LIG-0.27  OA
ENDBRANCH 69 70
ENDBRANCH 68 69
ENDBRANCH 50 68
ENDBRANCH 47 50
ENDBRANCH 1 46
TORSDOF 30
ENDMDL
MODEL 8
USER: ADFR SOLUTION from run 174
USER: SCORE 21.240957 LL:  -4.380 LR: -18.669 RR:   0.000 FEB:  -9.720
USER: RMSD 2.792010
USER: SEED 173
USER: STATUS no improvement in best in 3 clusters for 5 generations
USER: GENES 32
USER: genes 0 Translation |==|  0.66257 0.50690 0.45673
USER: genes 1 Rotation |==|  0.52125 0.46157 0.50888 0.99799
USER: genes 2 Torsion [C]-CA--N-[C] |==|  0.63975
USER: genes 3 Torsion [N]-C--CA-[N] |==|  0.86884
USER: genes 4 Torsion [C]-CA--N-[C] |==|  0.87507
USER: genes 5 Torsion [N]-C--CA-[N] |==|  0.41144
USER: genes 6 Torsion [C]-CA--CB-[CG] |==|  0.26731
USER: genes 7 Torsion [CA]-CB--CG-[CD] |==|  0.50781
USER: genes 8 Torsion [CB]-CG--CD-[NE] |==|  0.55844
USER: genes 9 Torsion [CG]-CD--NE-[CZ] |==|  0.27193
USER: genes 10 Torsion [C]-CA--N-[C] |==|  0.56186
USER: genes 11 Torsion [N]-C--CA-[N] |==|  0.41242
USER: genes 12 Torsion [C]-CA--N-[H1] |==|  0.54142
USER: genes 13 Torsion [C]-CA--CB-[CG2] |==|  0.18176
USER: genes 14 Torsion [CA]-CB--OG1-[HG1] |==|  0.77042
USER: genes 15 Torsion [N]-CA--CB-[CG] |==|  0.80094
USER: genes 16 Torsion [CA]-CB--CG-[CD] |==|  0.52154
USER: genes 17 Torsion [CB]-CG--CD-[CE] |==|  0.66795
USER: genes 18 Torsion [CG]-CD--CE-[NZ] |==|  0.51759
USER: genes 19 Torsion [CD]-CE--NZ-[HZ1] |==|  0.83690
USER: genes 20 Torsion [N]-CA--C-[N] |==|  0.42799
USER: genes 21 Torsion [C]-N--CA-[CB] |==|  0.48344
USER: genes 22 Torsion [N]-CA--C-[N] |==|  0.32485
USER: genes 23 Torsion [C]-N--CA-[CB] |==|  0.82757
USER: genes 24 Torsion [N]-CA--CB-[CG2] |==|  0.56166
USER: genes 25 Torsion [CA]-CB--OG1-[HG1] |==|  0.91460
USER: genes 26 Torsion [N]-CA--C-[N] |==|  0.42404
USER: genes 27 Torsion [C]-N--CA-[CB] |==|  0.49320
USER: genes 28 Torsion [N]-CA--C-[O] |==|  0.34055
USER: genes 29 Torsion [N]-CA--CB-[CG] |==|  0.99157
USER: genes 30 Torsion [CA]-CB--CG-[CD] |==|  0.57967
USER: genes 31 Torsion [CB]-CG--CD-[NE2] |==|  0.11609
ROOT
ATOM      1  CA  LYS B   4      38.150  55.274   9.772  1.00 30.17 LIG 0.18  C 
ENDROOT
BRANCH 1 2
ATOM      2  N   LYS B   4      38.642  54.001  10.260  1.00 25.68 LIG-0.35  N 
ATOM      3 H    LYS B   4      38.121  53.337  10.092  1.00 25.68 LIG 0.16  HD
ATOM      4  C   THR B   3      39.803  53.878  10.913  1.00 23.58 LIG 0.24  C 
ATOM      5 O    THR B   3      40.566  54.825  11.138  1.00 24.56 LIG-0.27  OA
BRANCH 4 6
ATOM      6  CA  THR B   3      40.163  52.476  11.407  1.00 21.46 LIG 0.20  C 
BRANCH 6 7
ATOM      7  N   THR B   3      39.048  51.846  12.083  1.00 21.22 LIG-0.34  N 
ATOM      8 H    THR B   3      38.919  51.028  11.852  1.00 21.22 LIG 0.16  HD
ATOM      9  C   ARG B   2      38.306  52.472  12.966  1.00 21.22 LIG 0.24  C 
ATOM     10 O    ARG B   2      38.495  53.621  13.273  1.00 22.30 LIG-0.27  OA
BRANCH 9 11
ATOM     11  CA  ARG B   2      37.186  51.646  13.617  1.00 22.28 LIG 0.18  C 
BRANCH 11 12
ATOM     12  CB  ARG B   2      35.853  51.786  12.874  1.00 24.95 LIG 0.04  C 
BRANCH 12 13
ATOM     13  CG  ARG B   2      35.497  50.723  11.860  1.00 25.01 LIG 0.02  C 
BRANCH 13 14
ATOM     14  CD  ARG B   2      34.161  51.092  11.185  1.00 28.81 LIG 0.14  C 
BRANCH 14 15
ATOM     15  NE  ARG B   2      33.452  49.975  10.559  1.00 31.55 LIG-0.23  N 
ATOM     16 HE   ARG B   2      33.702  49.742   9.770  1.00 31.55 LIG 0.18  HD
ATOM     17  CZ  ARG B   2      32.444  49.287  11.114  1.00 33.58 LIG 0.67  C 
ATOM     18  NH2 ARG B   2      32.041  49.536  12.354  1.00 33.13 LIG-0.23  N 
ATOM     19  NH1 ARG B   2      31.853  48.324  10.436  1.00 37.12 LIG-0.23  N 
ATOM     20 1HH2 ARG B   2      32.428  50.149  12.817  1.00 33.13 LIG 0.17  HD
ATOM     21 2HH2 ARG B   2      31.393  49.085  12.694  1.00 33.13 LIG 0.17  HD
ATOM     22 2HH1 ARG B   2      31.206  47.882  10.792  1.00 37.12 LIG 0.17  HD
ATOM     23 1HH1 ARG B   2      32.113  48.137   9.638  1.00 37.12 LIG 0.17  HD
ENDBRANCH 14 15
ENDBRANCH 13 14
ENDBRANCH 12 13
ENDBRANCH 11 12
BRANCH 11 24
ATOM     24  N   ARG B   2      36.980  52.117  14.973  1.00 22.27 LIG-0.35  N 
ATOM     25  C   ALA B   1      36.414  51.323  15.868  1.00 22.85 LIG 0.25  C 
ATOM     26 O    ALA B   1      36.046  50.176  15.590  1.00 22.62 LIG-0.27  OA
ATOM     27 H    ARG B   2      37.248  52.919  15.128  1.00 22.27 LIG 0.16  HD
BRANCH 25 28
ATOM     28  CA  ALA B   1      36.208  51.920  17.271  1.00 23.76 LIG 0.27  C 
ATOM     29  CB  ALA B   1      37.437  51.723  18.150  1.00 24.39 LIG 0.05  C 
BRANCH 28 30
ATOM     30  N   ALA B   1      35.026  51.385  17.936  1.00 25.03 LIG-0.07  N 
ATOM     31 H1   ALA B   1      34.820  51.898  18.634  1.00 25.03 LIG 0.28  HD
ATOM     32 H3   ALA B   1      35.192  50.556  18.216  1.00 25.03 LIG 0.28  HD
ATOM     33 H2   ALA B   1      34.343  51.374  17.366  1.00 25.03 LIG 0.28  HD
ENDBRANCH 28 30
ENDBRANCH 25 28
ENDBRANCH 11 24
ENDBRANCH 9 11
ENDBRANCH 6 7
BRANCH 6 34
ATOM     34  CB  THR B   3      40.642  51.616  10.243  1.00 21.53 LIG 0.15  C 
ATOM     35  CG2 THR B   3      41.911  52.125   9.679  1.00 22.92 LIG 0.04  C 
BRANCH 34 36
ATOM     36 OG1  THR B   3      40.834  50.292  10.720  1.00 22.47 LIG-0.39  OA
ATOM     37 HG1  THR B   3      41.588  50.233  11.086  1.00 22.47 LIG 0.21  HD
ENDBRANCH 34 36
ENDBRANCH 6 34
ENDBRANCH 4 6
ENDBRANCH 1 2
BRANCH 1 38
ATOM     38  CB  LYS B   4      38.226  55.310   8.269  1.00 32.55 LIG 0.04  C 
BRANCH 38 39
ATOM     39  CG  LYS B   4      39.632  55.418   7.751  1.00 30.49 LIG 0.00  C 
BRANCH 39 40
ATOM     40  CD  LYS B   4      39.621  55.642   6.238  1.00 34.18 LIG 0.03  C 
BRANCH 40 41
ATOM     41  CE  LYS B   4      40.344  54.515   5.520  1.00 33.34 LIG 0.23  C 
BRANCH 41 42
ATOM     42  NZ  LYS B   4      40.501  54.742   4.061  1.00 36.76 LIG-0.08  N 
ATOM     43 HZ1  LYS B   4      39.700  54.842   3.688  1.00 36.76 LIG 0.27  HD
ATOM     44 HZ2  LYS B   4      40.985  55.476   3.924  1.00 36.76 LIG 0.27  HD
ATOM     45 HZ3  LYS B   4      40.914  54.043   3.694  1.00 36.76 LIG 0.27  HD
ENDBRANCH 41 42
ENDBRANCH 40 41
ENDBRANCH 39 40
ENDBRANCH 38 39
ENDBRANCH 1 38
BRANCH 1 46
ATOM     46  C   LYS B   4      36.730  55.472  10.218  1.00 34.41 LIG 0.24  C 
ATOM     47  N   GLN B   5      36.305  56.722  10.336  1.00 39.81 LIG-0.35  N 
ATOM     48 H    GLN B   5      36.755  57.421  10.115  1.00 39.81 LIG 0.16  HD
ATOM     49 O    LYS B   4      36.008  54.479  10.439  1.00 33.27 LIG-0.27  OA
BRANCH 47 50
ATOM     50  CA  GLN B   5      34.970  56.977  10.878  1.00 46.50 LIG 0.18  C 
BRANCH 50 51
ATOM     51  C   GLN B   5      33.873  56.285  10.066  1.00 52.91 LIG 0.24  C 
ATOM     52  N   THR B   6      33.167  55.356  10.723  1.00 59.38 LIG-0.34  N 
ATOM     53 H    THR B   6      33.208  55.259  11.577  1.00 59.38 LIG 0.16  HD
ATOM     54 O    GLN B   5      33.722  56.540   8.881  1.00 55.19 LIG-0.27  OA
BRANCH 52 55
ATOM     55  CA  THR B   6      32.234  54.384  10.062  1.00 66.40 LIG 0.20  C 
BRANCH 55 56
ATOM     56  CB  THR B   6      31.040  55.088   9.330  1.00 64.05 LIG 0.15  C 
ATOM     57  CG2 THR B   6      29.870  54.125   9.160  1.00 70.60 LIG 0.04  C 
BRANCH 56 58
ATOM     58 OG1  THR B   6      30.593  56.251  10.047  1.00 62.34 LIG-0.39  OA
ATOM     59 HG1  THR B   6      30.718  56.139  10.870  1.00 62.34 LIG 0.21  HD
ENDBRANCH 56 58
ENDBRANCH 55 56
BRANCH 55 60
ATOM     60  C   THR B   6      32.934  53.506   8.984  1.00 68.19 LIG 0.24  C 
ATOM     61 O    THR B   6      33.929  53.936   8.360  1.00 63.20 LIG-0.27  OA
ATOM     62  N   ALA B   7      32.404  52.301   8.756  1.00 78.65 LIG-0.35  N 
ATOM     63 H    ALA B   7      31.792  51.950   9.249  1.00 78.65 LIG 0.16  HD
BRANCH 62 64
ATOM     64  CA  ALA B   7      32.822  51.457   7.633  1.00 81.14 LIG 0.16  C 
ATOM     65  CB  ALA B   7      32.086  50.115   7.664  1.00 91.84 LIG 0.04  C 
BRANCH 64 66
ATOM     66  C   ALA B   7      32.562  52.177   6.299  1.00 81.58 LIG 0.22  C 
ATOM     67 O    ALA B   7      33.476  52.387   5.496  1.00 77.41 LIG-0.29  OA
ENDBRANCH 64 66
ENDBRANCH 62 64
ENDBRANCH 55 60
ENDBRANCH 52 55
ENDBRANCH 50 51
BRANCH 50 68
ATOM     68  CB  GLN B   5      34.666  58.470  11.092  1.00 52.07 LIG 0.04  C 
BRANCH 68 69
ATOM     69  CG  GLN B   5      35.758  59.471  10.801  1.00 55.77 LIG 0.10  C 
BRANCH 69 70
ATOM     70  CD  GLN B   5      35.608  60.715  11.665  1.00 63.27 LIG 0.21  C 
ATOM     71  NE2 GLN B   5      35.284  60.511  12.928  1.00 63.75 LIG-0.37  N 
ATOM     72 21HE GLN B   5      35.179  59.709  13.220  1.00 63.75 LIG 0.16  HD
ATOM     73 22HE GLN B   5      35.179  61.180  13.457  1.00 63.75 LIG 0.16  HD
ATOM     74 OE1  GLN B   5      35.768  61.829  11.207  1.00 68.43 LIG-0.27  OA
ENDBRANCH 69 70
ENDBRANCH 68 69
ENDBRANCH 50 68
ENDBRANCH 47 50
ENDBRANCH 1 46
TORSDOF 30
ENDMDL
MODEL 9
USER: ADFR SOLUTION from run 140
USER: SCORE 21.190748 LL:  -5.194 LR: -18.635 RR:   0.000 FEB:  -9.686
USER: RMSD 4.188573
USER: SEED 139
USER: STATUS no improvement in best in 14 clusters for 5 generations
USER: GENES 32
USER: genes 0 Translation |==|  0.65721 0.48971 0.45950
USER: genes 1 Rotation |==|  0.50125 0.49501 0.51292 0.99981
USER: genes 2 Torsion [C]-CA--N-[C] |==|  0.67918
USER: genes 3 Torsion [N]-C--CA-[N] |==|  0.83907
USER: genes 4 Torsion [C]-CA--N-[C] |==|  0.88925
USER: genes 5 Torsion [N]-C--CA-[N] |==|  0.48313
USER: genes 6 Torsion [C]-CA--CB-[CG] |==|  0.25587
USER: genes 7 Torsion [CA]-CB--CG-[CD] |==|  0.06011
USER: genes 8 Torsion [CB]-CG--CD-[NE] |==|  0.47317
USER: genes 9 Torsion [CG]-CD--NE-[CZ] |==|  0.37176
USER: genes 10 Torsion [C]-CA--N-[C] |==|  0.61960
USER: genes 11 Torsion [N]-C--CA-[N] |==|  0.41820
USER: genes 12 Torsion [C]-CA--N-[H1] |==|  0.40565
USER: genes 13 Torsion [C]-CA--CB-[CG2] |==|  0.17841
USER: genes 14 Torsion [CA]-CB--OG1-[HG1] |==|  0.77206
USER: genes 15 Torsion [N]-CA--CB-[CG] |==|  0.76165
USER: genes 16 Torsion [CA]-CB--CG-[CD] |==|  0.50899
USER: genes 17 Torsion [CB]-CG--CD-[CE] |==|  0.65399
USER: genes 18 Torsion [CG]-CD--CE-[NZ] |==|  0.59312
USER: genes 19 Torsion [CD]-CE--NZ-[HZ1] |==|  0.49697
USER: genes 20 Torsion [N]-CA--C-[N] |==|  0.96805
USER: genes 21 Torsion [C]-N--CA-[CB] |==|  0.78878
USER: genes 22 Torsion [N]-CA--C-[N] |==|  0.21439
USER: genes 23 Torsion [C]-N--CA-[CB] |==|  0.25452
USER: genes 24 Torsion [N]-CA--CB-[CG2] |==|  0.76658
USER: genes 25 Torsion [CA]-CB--OG1-[HG1] |==|  0.51365
USER: genes 26 Torsion [N]-CA--C-[N] |==|  0.55458
USER: genes 27 Torsion [C]-N--CA-[CB] |==|  0.48175
USER: genes 28 Torsion [N]-CA--C-[O] |==|  0.31861
USER: genes 29 Torsion [N]-CA--CB-[CG] |==|  0.99630
USER: genes 30 Torsion [CA]-CB--CG-[CD] |==|  0.65304
USER: genes 31 Torsion [CB]-CG--CD-[NE2] |==|  0.44405
ROOT
ATOM      1  CA  LYS B   4      38.025  54.887   9.839  1.00 30.17 LIG 0.18  C 
ENDROOT
BRANCH 1 2
ATOM      2  N   LYS B   4      38.604  53.664  10.361  1.00 25.68 LIG-0.35  N 
ATOM      3 H    LYS B   4      38.169  52.954  10.148  1.00 25.68 LIG 0.16  HD
ATOM      4  C   THR B   3      39.715  53.653  11.106  1.00 23.58 LIG 0.24  C 
ATOM      5 O    THR B   3      40.356  54.669  11.396  1.00 24.56 LIG-0.27  OA
BRANCH 4 6
ATOM      6  CA  THR B   3      40.174  52.288  11.623  1.00 21.46 LIG 0.20  C 
BRANCH 6 7
ATOM      7  N   THR B   3      39.149  51.646  12.419  1.00 21.22 LIG-0.34  N 
ATOM      8 H    THR B   3      39.082  50.800  12.284  1.00 21.22 LIG 0.16  HD
ATOM      9  C   ARG B   2      38.394  52.302  13.269  1.00 21.22 LIG 0.24  C 
ATOM     10 O    ARG B   2      38.495  53.489  13.442  1.00 22.30 LIG-0.27  OA
BRANCH 9 11
ATOM     11  CA  ARG B   2      37.380  51.463  14.062  1.00 22.28 LIG 0.18  C 
BRANCH 11 12
ATOM     12  CB  ARG B   2      36.282  50.880  13.167  1.00 24.95 LIG 0.04  C 
BRANCH 12 13
ATOM     13  CG  ARG B   2      36.501  49.499  12.592  1.00 25.01 LIG 0.02  C 
BRANCH 13 14
ATOM     14  CD  ARG B   2      37.537  48.750  13.452  1.00 28.81 LIG 0.14  C 
BRANCH 14 15
ATOM     15  NE  ARG B   2      37.685  47.326  13.146  1.00 31.55 LIG-0.23  N 
ATOM     16 HE   ARG B   2      36.965  46.865  13.055  1.00 31.55 LIG 0.18  HD
ATOM     17  CZ  ARG B   2      38.851  46.681  12.997  1.00 33.58 LIG 0.67  C 
ATOM     18  NH2 ARG B   2      40.008  47.329  13.055  1.00 33.13 LIG-0.23  N 
ATOM     19  NH1 ARG B   2      38.862  45.385  12.763  1.00 37.12 LIG-0.23  N 
ATOM     20 1HH2 ARG B   2      40.020  48.179  13.189  1.00 33.13 LIG 0.17  HD
ATOM     21 2HH2 ARG B   2      40.747  46.900  12.957  1.00 33.13 LIG 0.17  HD
ATOM     22 2HH1 ARG B   2      39.610  44.971  12.668  1.00 37.12 LIG 0.17  HD
ATOM     23 1HH1 ARG B   2      38.120  44.952  12.705  1.00 37.12 LIG 0.17  HD
ENDBRANCH 14 15
ENDBRANCH 13 14
ENDBRANCH 12 13
ENDBRANCH 11 12
BRANCH 11 24
ATOM     24  N   ARG B   2      36.735  52.310  15.048  1.00 22.27 LIG-0.35  N 
ATOM     25  C   ALA B   1      36.542  51.861  16.277  1.00 22.85 LIG 0.25  C 
ATOM     26 O    ALA B   1      36.894  50.729  16.627  1.00 22.62 LIG-0.27  OA
ATOM     27 H    ARG B   2      36.504  53.089  14.766  1.00 22.27 LIG 0.16  HD
BRANCH 25 28
ATOM     28  CA  ALA B   1      35.822  52.818  17.243  1.00 23.76 LIG 0.27  C 
ATOM     29  CB  ALA B   1      36.796  53.788  17.902  1.00 24.39 LIG 0.05  C 
BRANCH 28 30
ATOM     30  N   ALA B   1      35.056  52.110  18.262  1.00 25.03 LIG-0.07  N 
ATOM     31 H1   ALA B   1      35.074  52.573  19.022  1.00 25.03 LIG 0.28  HD
ATOM     32 H3   ALA B   1      35.412  51.305  18.395  1.00 25.03 LIG 0.28  HD
ATOM     33 H2   ALA B   1      34.214  52.019  17.990  1.00 25.03 LIG 0.28  HD
ENDBRANCH 28 30
ENDBRANCH 25 28
ENDBRANCH 11 24
ENDBRANCH 9 11
ENDBRANCH 6 7
BRANCH 6 34
ATOM     34  CB  THR B   3      40.586  51.396  10.456  1.00 21.53 LIG 0.15  C 
ATOM     35  CG2 THR B   3      41.761  51.943   9.745  1.00 22.92 LIG 0.04  C 
BRANCH 34 36
ATOM     36 OG1  THR B   3      40.901  50.111  10.971  1.00 22.47 LIG-0.39  OA
ATOM     37 HG1  THR B   3      41.686  50.113  11.269  1.00 22.47 LIG 0.21  HD
ENDBRANCH 34 36
ENDBRANCH 6 34
ENDBRANCH 4 6
ENDBRANCH 1 2
BRANCH 1 38
ATOM     38  CB  LYS B   4      37.904  54.797   8.341  1.00 32.55 LIG 0.04  C 
BRANCH 38 39
ATOM     39  CG  LYS B   4      39.156  55.207   7.620  1.00 30.49 LIG 0.00  C 
BRANCH 39 40
ATOM     40  CD  LYS B   4      38.932  55.166   6.108  1.00 34.18 LIG 0.03  C 
BRANCH 40 41
ATOM     41  CE  LYS B   4      39.965  54.279   5.432  1.00 33.34 LIG 0.23  C 
BRANCH 41 42
ATOM     42  NZ  LYS B   4      40.353  54.742   4.076  1.00 36.76 LIG-0.08  N 
ATOM     43 HZ1  LYS B   4      40.969  54.194   3.740  1.00 36.76 LIG 0.27  HD
ATOM     44 HZ2  LYS B   4      39.638  54.745   3.547  1.00 36.76 LIG 0.27  HD
ATOM     45 HZ3  LYS B   4      40.686  55.566   4.128  1.00 36.76 LIG 0.27  HD
ENDBRANCH 41 42
ENDBRANCH 40 41
ENDBRANCH 39 40
ENDBRANCH 38 39
ENDBRANCH 1 38
BRANCH 1 46
ATOM     46  C   LYS B   4      36.672  55.108  10.450  1.00 34.41 LIG 0.24  C 
ATOM     47  N   GLN B   5      36.148  54.099  11.131  1.00 39.81 LIG-0.35  N 
ATOM     48 H    GLN B   5      36.547  53.357  11.304  1.00 39.81 LIG 0.16  HD
ATOM     49 O    LYS B   4      36.108  56.213  10.319  1.00 33.27 LIG-0.27  OA
BRANCH 47 50
ATOM     50  CA  GLN B   5      34.784  54.216  11.649  1.00 46.50 LIG 0.18  C 
BRANCH 50 51
ATOM     51  C   GLN B   5      33.786  54.629  10.565  1.00 52.91 LIG 0.24  C 
ATOM     52  N   THR B   6      33.414  53.658   9.721  1.00 59.38 LIG-0.34  N 
ATOM     53 H    THR B   6      33.588  52.828   9.864  1.00 59.38 LIG 0.16  HD
ATOM     54 O    GLN B   5      33.425  55.792  10.463  1.00 55.19 LIG-0.27  OA
BRANCH 52 55
ATOM     55  CA  THR B   6      32.660  53.893   8.445  1.00 66.40 LIG 0.20  C 
BRANCH 55 56
ATOM     56  CB  THR B   6      33.604  54.088   7.208  1.00 64.05 LIG 0.15  C 
ATOM     57  CG2 THR B   6      34.075  55.534   7.112  1.00 70.60 LIG 0.04  C 
BRANCH 56 58
ATOM     58 OG1  THR B   6      34.750  53.222   7.277  1.00 62.34 LIG-0.39  OA
ATOM     59 HG1  THR B   6      35.271  53.394   6.640  1.00 62.34 LIG 0.21  HD
ENDBRANCH 56 58
ENDBRANCH 55 56
BRANCH 55 60
ATOM     60  C   THR B   6      31.712  52.716   8.073  1.00 68.19 LIG 0.24  C 
ATOM     61 O    THR B   6      31.363  51.882   8.937  1.00 63.20 LIG-0.27  OA
ATOM     62  N   ALA B   7      31.321  52.642   6.797  1.00 78.65 LIG-0.35  N 
ATOM     63 H    ALA B   7      31.463  53.264   6.220  1.00 78.65 LIG 0.16  HD
BRANCH 62 64
ATOM     64  CA  ALA B   7      30.607  51.481   6.259  1.00 81.14 LIG 0.16  C 
ATOM     65  CB  ALA B   7      30.150  51.747   4.823  1.00 91.84 LIG 0.04  C 
BRANCH 64 66
ATOM     66  C   ALA B   7      31.504  50.233   6.311  1.00 81.58 LIG 0.22  C 
ATOM     67 O    ALA B   7      31.221  49.271   7.031  1.00 77.41 LIG-0.29  OA
ENDBRANCH 64 66
ENDBRANCH 62 64
ENDBRANCH 55 60
ENDBRANCH 52 55
ENDBRANCH 50 51
BRANCH 50 68
ATOM     68  CB  GLN B   5      34.673  55.108  12.897  1.00 52.07 LIG 0.04  C 
BRANCH 68 69
ATOM     69  CG  GLN B   5      35.936  55.720  13.454  1.00 55.77 LIG 0.10  C 
BRANCH 69 70
ATOM     70  CD  GLN B   5      36.116  55.369  14.924  1.00 63.27 LIG 0.21  C 
ATOM     71  NE2 GLN B   5      37.339  55.483  15.405  1.00 63.75 LIG-0.37  N 
ATOM     72 21HE GLN B   5      37.978  55.751  14.895  1.00 63.75 LIG 0.16  HD
ATOM     73 22HE GLN B   5      37.497  55.289  16.227  1.00 63.75 LIG 0.16  HD
ATOM     74 OE1  GLN B   5      35.182  54.995  15.605  1.00 68.43 LIG-0.27  OA
ENDBRANCH 69 70
ENDBRANCH 68 69
ENDBRANCH 50 68
ENDBRANCH 47 50
ENDBRANCH 1 46
TORSDOF 30
ENDMDL
MODEL 10
USER: ADFR SOLUTION from run 25
USER: SCORE 20.679220 LL:  -4.745 LR: -18.641 RR:   0.000 FEB:  -9.692
USER: RMSD 4.192579
USER: SEED 24
USER: STATUS no improvement in best in 18 clusters for 5 generations
USER: GENES 32
USER: genes 0 Translation |==|  0.66108 0.48884 0.46059
USER: genes 1 Rotation |==|  0.50554 0.48981 0.50661 0.99982
USER: genes 2 Torsion [C]-CA--N-[C] |==|  0.68094
USER: genes 3 Torsion [N]-C--CA-[N] |==|  0.84489
USER: genes 4 Torsion [C]-CA--N-[C] |==|  0.87545
USER: genes 5 Torsion [N]-C--CA-[N] |==|  0.50205
USER: genes 6 Torsion [C]-CA--CB-[CG] |==|  0.31104
USER: genes 7 Torsion [CA]-CB--CG-[CD] |==|  0.01124
USER: genes 8 Torsion [CB]-CG--CD-[NE] |==|  0.53287
USER: genes 9 Torsion [CG]-CD--NE-[CZ] |==|  0.33185
USER: genes 10 Torsion [C]-CA--N-[C] |==|  0.68360
USER: genes 11 Torsion [N]-C--CA-[N] |==|  0.41662
USER: genes 12 Torsion [C]-CA--N-[H1] |==|  0.56202
USER: genes 13 Torsion [C]-CA--CB-[CG2] |==|  0.15781
USER: genes 14 Torsion [CA]-CB--OG1-[HG1] |==|  0.79489
USER: genes 15 Torsion [N]-CA--CB-[CG] |==|  0.77318
USER: genes 16 Torsion [CA]-CB--CG-[CD] |==|  0.52795
USER: genes 17 Torsion [CB]-CG--CD-[CE] |==|  0.66459
USER: genes 18 Torsion [CG]-CD--CE-[NZ] |==|  0.58752
USER: genes 19 Torsion [CD]-CE--NZ-[HZ1] |==|  0.52085
USER: genes 20 Torsion [N]-CA--C-[N] |==|  0.42468
USER: genes 21 Torsion [C]-N--CA-[CB] |==|  0.46474
USER: genes 22 Torsion [N]-CA--C-[N] |==|  0.88202
USER: genes 23 Torsion [C]-N--CA-[CB] |==|  0.22716
USER: genes 24 Torsion [N]-CA--CB-[CG2] |==|  0.70598
USER: genes 25 Torsion [CA]-CB--OG1-[HG1] |==|  0.97119
USER: genes 26 Torsion [N]-CA--C-[N] |==|  0.02051
USER: genes 27 Torsion [C]-N--CA-[CB] |==|  0.27742
USER: genes 28 Torsion [N]-CA--C-[O] |==|  0.10273
USER: genes 29 Torsion [N]-CA--CB-[CG] |==|  0.03831
USER: genes 30 Torsion [CA]-CB--CG-[CD] |==|  0.53551
USER: genes 31 Torsion [CB]-CG--CD-[NE2] |==|  0.08649
ROOT
ATOM      1  CA  LYS B   4      38.115  54.868   9.865  1.00 30.17 LIG 0.18  C 
ENDROOT
BRANCH 1 2
ATOM      2  N   LYS B   4      38.652  53.622  10.376  1.00 25.68 LIG-0.35  N 
ATOM      3 H    LYS B   4      38.209  52.926  10.134  1.00 25.68 LIG 0.16  HD
ATOM      4  C   THR B   3      39.740  53.570  11.153  1.00 23.58 LIG 0.24  C 
ATOM      5 O    THR B   3      40.393  54.566  11.485  1.00 24.56 LIG-0.27  OA
BRANCH 4 6
ATOM      6  CA  THR B   3      40.155  52.184  11.653  1.00 21.46 LIG 0.20  C 
BRANCH 6 7
ATOM      7  N   THR B   3      39.077  51.528  12.362  1.00 21.22 LIG-0.34  N 
ATOM      8 H    THR B   3      38.969  50.703  12.144  1.00 21.22 LIG 0.16  HD
ATOM      9  C   ARG B   2      38.336  52.141  13.254  1.00 21.22 LIG 0.24  C 
ATOM     10 O    ARG B   2      38.495  53.299  13.543  1.00 22.30 LIG-0.27  OA
BRANCH 9 11
ATOM     11  CA  ARG B   2      37.259  51.288  13.942  1.00 22.28 LIG 0.18  C 
BRANCH 11 12
ATOM     12  CB  ARG B   2      36.246  50.715  12.945  1.00 24.95 LIG 0.04  C 
BRANCH 12 13
ATOM     13  CG  ARG B   2      36.246  49.219  12.721  1.00 25.01 LIG 0.02  C 
BRANCH 13 14
ATOM     14  CD  ARG B   2      37.261  48.563  13.677  1.00 28.81 LIG 0.14  C 
BRANCH 14 15
ATOM     15  NE  ARG B   2      37.567  47.161  13.391  1.00 31.55 LIG-0.23  N 
ATOM     16 HE   ARG B   2      36.915  46.601  13.421  1.00 31.55 LIG 0.18  HD
ATOM     17  CZ  ARG B   2      38.780  46.677  13.087  1.00 33.58 LIG 0.67  C 
ATOM     18  NH2 ARG B   2      39.827  47.481  12.953  1.00 33.13 LIG-0.23  N 
ATOM     19  NH1 ARG B   2      38.942  45.384  12.889  1.00 37.12 LIG-0.23  N 
ATOM     20 1HH2 ARG B   2      39.736  48.329  13.061  1.00 33.13 LIG 0.17  HD
ATOM     21 2HH2 ARG B   2      40.598  47.153  12.757  1.00 33.13 LIG 0.17  HD
ATOM     22 2HH1 ARG B   2      39.721  45.074  12.694  1.00 37.12 LIG 0.17  HD
ATOM     23 1HH1 ARG B   2      38.271  44.851  12.954  1.00 37.12 LIG 0.17  HD
ENDBRANCH 14 15
ENDBRANCH 13 14
ENDBRANCH 12 13
ENDBRANCH 11 12
BRANCH 11 24
ATOM     24  N   ARG B   2      36.525  52.118  14.878  1.00 22.27 LIG-0.35  N 
ATOM     25  C   ALA B   1      36.609  51.880  16.177  1.00 22.85 LIG 0.25  C 
ATOM     26 O    ALA B   1      37.300  50.961  16.633  1.00 22.62 LIG-0.27  OA
ATOM     27 H    ARG B   2      36.056  52.745  14.523  1.00 22.27 LIG 0.16  HD
BRANCH 25 28
ATOM     28  CA  ALA B   1      35.772  52.792  17.090  1.00 23.76 LIG 0.27  C 
ATOM     29  CB  ALA B   1      36.515  54.077  17.434  1.00 24.39 LIG 0.05  C 
BRANCH 28 30
ATOM     30  N   ALA B   1      35.346  52.119  18.311  1.00 25.03 LIG-0.07  N 
ATOM     31 H1   ALA B   1      34.630  52.531  18.643  1.00 25.03 LIG 0.28  HD
ATOM     32 H3   ALA B   1      36.005  52.142  18.909  1.00 25.03 LIG 0.28  HD
ATOM     33 H2   ALA B   1      35.142  51.272  18.128  1.00 25.03 LIG 0.28  HD
ENDBRANCH 28 30
ENDBRANCH 25 28
ENDBRANCH 11 24
ENDBRANCH 9 11
ENDBRANCH 6 7
BRANCH 6 34
ATOM     34  CB  THR B   3      40.632  51.327  10.485  1.00 21.53 LIG 0.15  C 
ATOM     35  CG2 THR B   3      41.745  51.973   9.758  1.00 22.92 LIG 0.04  C 
BRANCH 34 36
ATOM     36 OG1  THR B   3      41.067  50.078  11.002  1.00 22.47 LIG-0.39  OA
ATOM     37 HG1  THR B   3      41.805  50.177  11.390  1.00 22.47 LIG 0.21  HD
ENDBRANCH 34 36
ENDBRANCH 6 34
ENDBRANCH 4 6
ENDBRANCH 1 2
BRANCH 1 38
ATOM     38  CB  LYS B   4      38.022  54.807   8.363  1.00 32.55 LIG 0.04  C 
BRANCH 38 39
ATOM     39  CG  LYS B   4      39.326  55.102   7.678  1.00 30.49 LIG 0.00  C 
BRANCH 39 40
ATOM     40  CD  LYS B   4      39.105  55.268   6.174  1.00 34.18 LIG 0.03  C 
BRANCH 40 41
ATOM     41  CE  LYS B   4      39.924  54.254   5.392  1.00 33.34 LIG 0.23  C 
BRANCH 41 42
ATOM     42  NZ  LYS B   4      40.370  54.744   4.063  1.00 36.76 LIG-0.08  N 
ATOM     43 HZ1  LYS B   4      40.746  54.076   3.612  1.00 36.76 LIG 0.27  HD
ATOM     44 HZ2  LYS B   4      39.669  55.050   3.609  1.00 36.76 LIG 0.27  HD
ATOM     45 HZ3  LYS B   4      40.961  55.400   4.172  1.00 36.76 LIG 0.27  HD
ENDBRANCH 41 42
ENDBRANCH 40 41
ENDBRANCH 39 40
ENDBRANCH 38 39
ENDBRANCH 1 38
BRANCH 1 46
ATOM     46  C   LYS B   4      36.756  55.112  10.453  1.00 34.41 LIG 0.24  C 
ATOM     47  N   GLN B   5      36.363  56.374  10.559  1.00 39.81 LIG-0.35  N 
ATOM     48 H    GLN B   5      36.796  57.054  10.259  1.00 39.81 LIG 0.16  HD
ATOM     49 O    LYS B   4      36.048  54.143  10.797  1.00 33.27 LIG-0.27  OA
BRANCH 47 50
ATOM     50  CA  GLN B   5      35.100  56.677  11.231  1.00 46.50 LIG 0.18  C 
BRANCH 50 51
ATOM     51  C   GLN B   5      33.893  56.107  10.481  1.00 52.91 LIG 0.24  C 
ATOM     52  N   THR B   6      33.920  56.249   9.150  1.00 59.38 LIG-0.34  N 
ATOM     53 H    THR B   6      34.626  56.493   8.724  1.00 59.38 LIG 0.16  HD
ATOM     54 O    GLN B   5      32.953  55.623  11.093  1.00 55.19 LIG-0.27  OA
BRANCH 52 55
ATOM     55  CA  THR B   6      32.743  56.004   8.253  1.00 66.40 LIG 0.20  C 
BRANCH 55 56
ATOM     56  CB  THR B   6      31.761  57.226   8.191  1.00 64.05 LIG 0.15  C 
ATOM     57  CG2 THR B   6      30.492  56.937   8.985  1.00 70.60 LIG 0.04  C 
BRANCH 56 58
ATOM     58 OG1  THR B   6      32.375  58.423   8.699  1.00 62.34 LIG-0.39  OA
ATOM     59 HG1  THR B   6      33.103  58.228   9.071  1.00 62.34 LIG 0.21  HD
ENDBRANCH 56 58
ENDBRANCH 55 56
BRANCH 55 60
ATOM     60  C   THR B   6      33.152  55.714   6.779  1.00 68.19 LIG 0.24  C 
ATOM     61 O    THR B   6      32.283  55.607   5.886  1.00 63.20 LIG-0.27  OA
ATOM     62  N   ALA B   7      34.458  55.569   6.538  1.00 78.65 LIG-0.35  N 
ATOM     63 H    ALA B   7      35.070  55.746   7.115  1.00 78.65 LIG 0.16  HD
BRANCH 62 64
ATOM     64  CA  ALA B   7      34.971  55.088   5.252  1.00 81.14 LIG 0.16  C 
ATOM     65  CB  ALA B   7      35.451  56.259   4.391  1.00 91.84 LIG 0.04  C 
BRANCH 64 66
ATOM     66  C   ALA B   7      36.116  54.086   5.475  1.00 81.58 LIG 0.22  C 
ATOM     67 O    ALA B   7      36.091  53.284   6.414  1.00 77.41 LIG-0.29  OA
ENDBRANCH 64 66
ENDBRANCH 62 64
ENDBRANCH 55 60
ENDBRANCH 52 55
ENDBRANCH 50 51
BRANCH 50 68
ATOM     68  CB  GLN B   5      34.917  58.170  11.555  1.00 52.07 LIG 0.04  C 
BRANCH 68 69
ATOM     69  CG  GLN B   5      35.843  59.164  10.897  1.00 55.77 LIG 0.10  C 
BRANCH 69 70
ATOM     70  CD  GLN B   5      35.736  60.533  11.553  1.00 63.27 LIG 0.21  C 
ATOM     71  NE2 GLN B   5      35.446  60.540  12.840  1.00 63.75 LIG-0.37  N 
ATOM     72 21HE GLN B   5      35.337  59.798  13.260  1.00 63.75 LIG 0.16  HD
ATOM     73 22HE GLN B   5      35.367  61.287  13.258  1.00 63.75 LIG 0.16  HD
ATOM     74 OE1  GLN B   5      35.900  61.556  10.918  1.00 68.43 LIG-0.27  OA
ENDBRANCH 69 70
ENDBRANCH 68 69
ENDBRANCH 50 68
ENDBRANCH 47 50
ENDBRANCH 1 46
TORSDOF 30
ENDMDL
MODEL 11
USER: ADFR SOLUTION from run 2
USER: SCORE 19.081849 LL:  -4.023 LR: -18.571 RR:   0.000 FEB:  -9.622
USER: RMSD 4.448686
USER: SEED 786219
USER: STATUS no improvement in best in 4 clusters for 5 generations
USER: GENES 32
USER: genes 0 Translation |==|  0.66602 0.50876 0.44041
USER: genes 1 Rotation |==|  0.49973 0.48293 0.52378 0.99914
USER: genes 2 Torsion [C]-CA--N-[C] |==|  0.67282
USER: genes 3 Torsion [N]-C--CA-[N] |==|  0.85025
USER: genes 4 Torsion [C]-CA--N-[C] |==|  0.89642
USER: genes 5 Torsion [N]-C--CA-[N] |==|  0.03543
USER: genes 6 Torsion [C]-CA--CB-[CG] |==|  0.55078
USER: genes 7 Torsion [CA]-CB--CG-[CD] |==|  0.41741
USER: genes 8 Torsion [CB]-CG--CD-[NE] |==|  0.26296
USER: genes 9 Torsion [CG]-CD--NE-[CZ] |==|  0.75873
USER: genes 10 Torsion [C]-CA--N-[C] |==|  0.72783
USER: genes 11 Torsion [N]-C--CA-[N] |==|  0.30129
USER: genes 12 Torsion [C]-CA--N-[H1] |==|  0.41300
USER: genes 13 Torsion [C]-CA--CB-[CG2] |==|  0.20701
USER: genes 14 Torsion [CA]-CB--OG1-[HG1] |==|  0.72367
USER: genes 15 Torsion [N]-CA--CB-[CG] |==|  0.77588
USER: genes 16 Torsion [CA]-CB--CG-[CD] |==|  0.51307
USER: genes 17 Torsion [CB]-CG--CD-[CE] |==|  0.69281
USER: genes 18 Torsion [CG]-CD--CE-[NZ] |==|  0.51343
USER: genes 19 Torsion [CD]-CE--NZ-[HZ1] |==|  0.52191
USER: genes 20 Torsion [N]-CA--C-[N] |==|  0.40056
USER: genes 21 Torsion [C]-N--CA-[CB] |==|  0.45469
USER: genes 22 Torsion [N]-CA--C-[N] |==|  0.20902
USER: genes 23 Torsion [C]-N--CA-[CB] |==|  0.21601
USER: genes 24 Torsion [N]-CA--CB-[CG2] |==|  0.61030
USER: genes 25 Torsion [CA]-CB--OG1-[HG1] |==|  0.85403
USER: genes 26 Torsion [N]-CA--C-[N] |==|  0.56116
USER: genes 27 Torsion [C]-N--CA-[CB] |==|  0.49217
USER: genes 28 Torsion [N]-CA--C-[O] |==|  0.33298
USER: genes 29 Torsion [N]-CA--CB-[CG] |==|  0.05017
USER: genes 30 Torsion [CA]-CB--CG-[CD] |==|  0.51607
USER: genes 31 Torsion [CB]-CG--CD-[NE2] |==|  0.08944
ROOT
ATOM      1  CA  LYS B   4      38.230  55.316   9.381  1.00 30.17 LIG 0.18  C 
ENDROOT
BRANCH 1 2
ATOM      2  N   LYS B   4      38.835  54.122   9.938  1.00 25.68 LIG-0.35  N 
ATOM      3 H    LYS B   4      38.423  53.395   9.734  1.00 25.68 LIG 0.16  HD
ATOM      4  C   THR B   3      39.934  54.157  10.699  1.00 23.58 LIG 0.24  C 
ATOM      5 O    THR B   3      40.542  55.198  10.977  1.00 24.56 LIG-0.27  OA
BRANCH 4 6
ATOM      6  CA  THR B   3      40.423  52.818  11.253  1.00 21.46 LIG 0.20  C 
BRANCH 6 7
ATOM      7  N   THR B   3      39.375  52.121  11.969  1.00 21.22 LIG-0.34  N 
ATOM      8 H    THR B   3      39.386  51.269  11.858  1.00 21.22 LIG 0.16  HD
ATOM      9  C   ARG B   2      38.493  52.740  12.717  1.00 21.22 LIG 0.24  C 
ATOM     10 O    ARG B   2      38.487  53.936  12.857  1.00 22.30 LIG-0.27  OA
BRANCH 9 11
ATOM     11  CA  ARG B   2      37.471  51.847  13.438  1.00 22.28 LIG 0.18  C 
BRANCH 11 12
ATOM     12  CB  ARG B   2      37.337  52.198  14.923  1.00 24.95 LIG 0.04  C 
BRANCH 12 13
ATOM     13  CG  ARG B   2      36.711  51.168  15.837  1.00 25.01 LIG 0.02  C 
BRANCH 13 14
ATOM     14  CD  ARG B   2      37.303  51.319  17.252  1.00 28.81 LIG 0.14  C 
BRANCH 14 15
ATOM     15  NE  ARG B   2      36.522  52.154  18.165  1.00 31.55 LIG-0.23  N 
ATOM     16 HE   ARG B   2      35.950  51.758  18.671  1.00 31.55 LIG 0.18  HD
ATOM     17  CZ  ARG B   2      36.625  53.486  18.280  1.00 33.58 LIG 0.67  C 
ATOM     18  NH2 ARG B   2      37.529  54.168  17.588  1.00 33.13 LIG-0.23  N 
ATOM     19  NH1 ARG B   2      35.838  54.139  19.111  1.00 37.12 LIG-0.23  N 
ATOM     20 1HH2 ARG B   2      38.063  53.756  17.054  1.00 33.13 LIG 0.17  HD
ATOM     21 2HH2 ARG B   2      37.582  55.023  17.674  1.00 33.13 LIG 0.17  HD
ATOM     22 2HH1 ARG B   2      35.904  54.993  19.184  1.00 37.12 LIG 0.17  HD
ATOM     23 1HH1 ARG B   2      35.258  53.710  19.581  1.00 37.12 LIG 0.17  HD
ENDBRANCH 14 15
ENDBRANCH 13 14
ENDBRANCH 12 13
ENDBRANCH 11 12
BRANCH 11 24
ATOM     24  N   ARG B   2      37.908  50.466  13.355  1.00 22.27 LIG-0.35  N 
ATOM     25  C   ALA B   1      37.403  49.669  12.428  1.00 22.85 LIG 0.25  C 
ATOM     26 O    ALA B   1      36.556  50.059  11.616  1.00 22.62 LIG-0.27  OA
ATOM     27 H    ARG B   2      38.497  50.233  13.938  1.00 22.27 LIG 0.16  HD
BRANCH 25 28
ATOM     28  CA  ALA B   1      37.904  48.214  12.439  1.00 23.76 LIG 0.27  C 
ATOM     29  CB  ALA B   1      38.420  47.789  11.070  1.00 24.39 LIG 0.05  C 
BRANCH 28 30
ATOM     30  N   ALA B   1      36.887  47.278  12.902  1.00 25.03 LIG-0.07  N 
ATOM     31 H1   ALA B   1      36.999  46.493  12.497  1.00 25.03 LIG 0.28  HD
ATOM     32 H3   ALA B   1      36.078  47.598  12.710  1.00 25.03 LIG 0.28  HD
ATOM     33 H2   ALA B   1      36.961  47.170  13.782  1.00 25.03 LIG 0.28  HD
ENDBRANCH 28 30
ENDBRANCH 25 28
ENDBRANCH 11 24
ENDBRANCH 9 11
ENDBRANCH 6 7
BRANCH 6 34
ATOM     34  CB  THR B   3      40.970  51.952  10.123  1.00 21.53 LIG 0.15  C 
ATOM     35  CG2 THR B   3      42.294  52.428   9.668  1.00 22.92 LIG 0.04  C 
BRANCH 34 36
ATOM     36 OG1  THR B   3      41.087  50.620  10.603  1.00 22.47 LIG-0.39  OA
ATOM     37 HG1  THR B   3      41.884  50.469  10.820  1.00 22.47 LIG 0.21  HD
ENDBRANCH 34 36
ENDBRANCH 6 34
ENDBRANCH 4 6
ENDBRANCH 1 2
BRANCH 1 38
ATOM     38  CB  LYS B   4      38.186  55.214   7.879  1.00 32.55 LIG 0.04  C 
BRANCH 38 39
ATOM     39  CG  LYS B   4      39.493  55.559   7.224  1.00 30.49 LIG 0.00  C 
BRANCH 39 40
ATOM     40  CD  LYS B   4      39.340  55.546   5.703  1.00 34.18 LIG 0.03  C 
BRANCH 40 41
ATOM     41  CE  LYS B   4      40.095  54.377   5.093  1.00 33.34 LIG 0.23  C 
BRANCH 41 42
ATOM     42  NZ  LYS B   4      40.084  54.369   3.608  1.00 36.76 LIG-0.08  N 
ATOM     43 HZ1  LYS B   4      40.439  53.609   3.313  1.00 36.76 LIG 0.27  HD
ATOM     44 HZ2  LYS B   4      39.246  54.437   3.317  1.00 36.76 LIG 0.27  HD
ATOM     45 HZ3  LYS B   4      40.560  55.057   3.304  1.00 36.76 LIG 0.27  HD
ENDBRANCH 41 42
ENDBRANCH 40 41
ENDBRANCH 39 40
ENDBRANCH 38 39
ENDBRANCH 1 38
BRANCH 1 46
ATOM     46  C   LYS B   4      36.841  55.480   9.925  1.00 34.41 LIG 0.24  C 
ATOM     47  N   GLN B   5      36.426  56.719  10.154  1.00 39.81 LIG-0.35  N 
ATOM     48 H    GLN B   5      36.864  57.432   9.955  1.00 39.81 LIG 0.16  HD
ATOM     49 O    LYS B   4      36.130  54.473  10.120  1.00 33.27 LIG-0.27  OA
BRANCH 47 50
ATOM     50  CA  GLN B   5      35.128  56.933  10.793  1.00 46.50 LIG 0.18  C 
BRANCH 50 51
ATOM     51  C   GLN B   5      33.962  56.525   9.888  1.00 52.91 LIG 0.24  C 
ATOM     52  N   THR B   6      33.759  55.207   9.766  1.00 59.38 LIG-0.34  N 
ATOM     53 H    THR B   6      34.142  54.630  10.277  1.00 59.38 LIG 0.16  HD
ATOM     54 O    GLN B   5      33.323  57.369   9.279  1.00 55.19 LIG-0.27  OA
BRANCH 52 55
ATOM     55  CA  THR B   6      32.856  54.585   8.743  1.00 66.40 LIG 0.20  C 
BRANCH 55 56
ATOM     56  CB  THR B   6      33.502  54.527   7.315  1.00 64.05 LIG 0.15  C 
ATOM     57  CG2 THR B   6      32.468  54.850   6.243  1.00 70.60 LIG 0.04  C 
BRANCH 56 58
ATOM     58 OG1  THR B   6      34.606  55.441   7.198  1.00 62.34 LIG-0.39  OA
ATOM     59 HG1  THR B   6      34.360  56.209   7.435  1.00 62.34 LIG 0.21  HD
ENDBRANCH 56 58
ENDBRANCH 55 56
BRANCH 55 60
ATOM     60  C   THR B   6      32.463  53.119   9.090  1.00 68.19 LIG 0.24  C 
ATOM     61 O    THR B   6      32.544  52.698  10.264  1.00 63.20 LIG-0.27  OA
ATOM     62  N   ALA B   7      32.063  52.350   8.072  1.00 78.65 LIG-0.35  N 
ATOM     63 H    ALA B   7      31.899  52.652   7.284  1.00 78.65 LIG 0.16  HD
BRANCH 62 64
ATOM     64  CA  ALA B   7      31.867  50.904   8.210  1.00 81.14 LIG 0.16  C 
ATOM     65  CB  ALA B   7      31.343  50.304   6.903  1.00 91.84 LIG 0.04  C 
BRANCH 64 66
ATOM     66  C   ALA B   7      33.183  50.223   8.618  1.00 81.58 LIG 0.22  C 
ATOM     67 O    ALA B   7      33.275  49.585   9.672  1.00 77.41 LIG-0.29  OA
ENDBRANCH 64 66
ENDBRANCH 62 64
ENDBRANCH 55 60
ENDBRANCH 52 55
ENDBRANCH 50 51
BRANCH 50 68
ATOM     68  CB  GLN B   5      34.944  58.353  11.354  1.00 52.07 LIG 0.04  C 
BRANCH 68 69
ATOM     69  CG  GLN B   5      35.859  59.445  10.854  1.00 55.77 LIG 0.10  C 
BRANCH 69 70
ATOM     70  CD  GLN B   5      35.633  60.744  11.613  1.00 63.27 LIG 0.21  C 
ATOM     71  NE2 GLN B   5      35.272  60.624  12.877  1.00 63.75 LIG-0.37  N 
ATOM     72 21HE GLN B   5      35.186  59.843  13.227  1.00 63.75 LIG 0.16  HD
ATOM     73 22HE GLN B   5      35.123  61.327  13.350  1.00 63.75 LIG 0.16  HD
ATOM     74 OE1  GLN B   5      35.768  61.825  11.076  1.00 68.43 LIG-0.27  OA
ENDBRANCH 69 70
ENDBRANCH 68 69
ENDBRANCH 50 68
ENDBRANCH 47 50
ENDBRANCH 1 46
TORSDOF 30
ENDMDL
MODEL 12
USER: ADFR SOLUTION from run 158
USER: SCORE 21.191925 LL:  -4.612 LR: -18.378 RR:   0.000 FEB:  -9.429
USER: RMSD 2.906079
USER: SEED 157
USER: STATUS no improvement in best in 8 clusters for 5 generations
USER: GENES 32
USER: genes 0 Translation |==|  0.67742 0.50790 0.44668
USER: genes 1 Rotation |==|  0.54342 0.50810 0.52070 0.99761
USER: genes 2 Torsion [C]-CA--N-[C] |==|  0.70088
USER: genes 3 Torsion [N]-C--CA-[N] |==|  0.87372
USER: genes 4 Torsion [C]-CA--N-[C] |==|  0.84295
USER: genes 5 Torsion [N]-C--CA-[N] |==|  0.16104
USER: genes 6 Torsion [C]-CA--CB-[CG] |==|  0.37761
USER: genes 7 Torsion [CA]-CB--CG-[CD] |==|  0.06947
USER: genes 8 Torsion [CB]-CG--CD-[NE] |==|  0.48389
USER: genes 9 Torsion [CG]-CD--NE-[CZ] |==|  0.40002
USER: genes 10 Torsion [C]-CA--N-[C] |==|  0.64362
USER: genes 11 Torsion [N]-C--CA-[N] |==|  0.91809
USER: genes 12 Torsion [C]-CA--N-[H1] |==|  0.42572
USER: genes 13 Torsion [C]-CA--CB-[CG2] |==|  0.21248
USER: genes 14 Torsion [CA]-CB--OG1-[HG1] |==|  0.81055
USER: genes 15 Torsion [N]-CA--CB-[CG] |==|  0.84352
USER: genes 16 Torsion [CA]-CB--CG-[CD] |==|  0.48247
USER: genes 17 Torsion [CB]-CG--CD-[CE] |==|  0.63099
USER: genes 18 Torsion [CG]-CD--CE-[NZ] |==|  0.54155
USER: genes 19 Torsion [CD]-CE--NZ-[HZ1] |==|  0.52074
USER: genes 20 Torsion [N]-CA--C-[N] |==|  0.44062
USER: genes 21 Torsion [C]-N--CA-[CB] |==|  0.49446
USER: genes 22 Torsion [N]-CA--C-[N] |==|  0.32222
USER: genes 23 Torsion [C]-N--CA-[CB] |==|  0.16989
USER: genes 24 Torsion [N]-CA--CB-[CG2] |==|  0.56368
USER: genes 25 Torsion [CA]-CB--OG1-[HG1] |==|  0.16572
USER: genes 26 Torsion [N]-CA--C-[N] |==|  0.12124
USER: genes 27 Torsion [C]-N--CA-[CB] |==|  0.40792
USER: genes 28 Torsion [N]-CA--C-[O] |==|  0.02900
USER: genes 29 Torsion [N]-CA--CB-[CG] |==|  0.00786
USER: genes 30 Torsion [CA]-CB--CG-[CD] |==|  0.58010
USER: genes 31 Torsion [CB]-CG--CD-[NE2] |==|  0.07270
ROOT
ATOM      1  CA  LYS B   4      38.495  55.297   9.531  1.00 30.17 LIG 0.18  C 
ENDROOT
BRANCH 1 2
ATOM      2  N   LYS B   4      39.138  54.027   9.810  1.00 25.68 LIG-0.35  N 
ATOM      3 H    LYS B   4      38.770  53.356   9.416  1.00 25.68 LIG 0.16  HD
ATOM      4  C   THR B   3      40.205  53.919  10.608  1.00 23.58 LIG 0.24  C 
ATOM      5 O    THR B   3      40.750  54.883  11.159  1.00 24.56 LIG-0.27  OA
BRANCH 4 6
ATOM      6  CA  THR B   3      40.740  52.505  10.842  1.00 21.46 LIG 0.20  C 
BRANCH 6 7
ATOM      7  N   THR B   3      39.672  51.570  11.127  1.00 21.22 LIG-0.34  N 
ATOM      8 H    THR B   3      39.647  50.897  10.592  1.00 21.22 LIG 0.16  HD
ATOM      9  C   ARG B   2      38.822  51.739  12.112  1.00 21.22 LIG 0.24  C 
ATOM     10 O    ARG B   2      38.866  52.691  12.848  1.00 22.30 LIG-0.27  OA
BRANCH 9 11
ATOM     11  CA  ARG B   2      37.772  50.633  12.298  1.00 22.28 LIG 0.18  C 
BRANCH 11 12
ATOM     12  CB  ARG B   2      36.875  50.882  13.515  1.00 24.95 LIG 0.04  C 
BRANCH 12 13
ATOM     13  CG  ARG B   2      35.388  50.659  13.352  1.00 25.01 LIG 0.02  C 
BRANCH 13 14
ATOM     14  CD  ARG B   2      35.148  49.654  12.209  1.00 28.81 LIG 0.14  C 
BRANCH 14 15
ATOM     15  NE  ARG B   2      33.756  49.242  12.027  1.00 31.55 LIG-0.23  N 
ATOM     16 HE   ARG B   2      33.274  49.154  12.734  1.00 31.55 LIG 0.18  HD
ATOM     17  CZ  ARG B   2      33.169  48.989  10.848  1.00 33.58 LIG 0.67  C 
ATOM     18  NH2 ARG B   2      33.819  49.165   9.704  1.00 33.13 LIG-0.23  N 
ATOM     19  NH1 ARG B   2      31.916  48.583  10.810  1.00 37.12 LIG-0.23  N 
ATOM     20 1HH2 ARG B   2      34.631  49.446   9.710  1.00 33.13 LIG 0.17  HD
ATOM     21 2HH2 ARG B   2      33.427  48.998   8.957  1.00 33.13 LIG 0.17  HD
ATOM     22 2HH1 ARG B   2      31.539  48.421  10.053  1.00 37.12 LIG 0.17  HD
ATOM     23 1HH1 ARG B   2      31.474  48.481  11.541  1.00 37.12 LIG 0.17  HD
ENDBRANCH 14 15
ENDBRANCH 13 14
ENDBRANCH 12 13
ENDBRANCH 11 12
BRANCH 11 24
ATOM     24  N   ARG B   2      38.450  49.368  12.508  1.00 22.27 LIG-0.35  N 
ATOM     25  C   ALA B   1      38.129  48.317  11.772  1.00 22.85 LIG 0.25  C 
ATOM     26 O    ALA B   1      37.257  48.370  10.896  1.00 22.62 LIG-0.27  OA
ATOM     27 H    ARG B   2      39.048  49.372  13.126  1.00 22.27 LIG 0.16  HD
BRANCH 25 28
ATOM     28  CA  ALA B   1      38.879  47.012  12.089  1.00 23.76 LIG 0.27  C 
ATOM     29  CB  ALA B   1      38.092  46.133  13.053  1.00 24.39 LIG 0.05  C 
BRANCH 28 30
ATOM     30  N   ALA B   1      40.219  47.252  12.611  1.00 25.03 LIG-0.07  N 
ATOM     31 H1   ALA B   1      40.464  46.568  13.125  1.00 25.03 LIG 0.28  HD
ATOM     32 H3   ALA B   1      40.220  48.001  13.093  1.00 25.03 LIG 0.28  HD
ATOM     33 H2   ALA B   1      40.791  47.335  11.934  1.00 25.03 LIG 0.28  HD
ENDBRANCH 28 30
ENDBRANCH 25 28
ENDBRANCH 11 24
ENDBRANCH 9 11
ENDBRANCH 6 7
BRANCH 6 34
ATOM     34  CB  THR B   3      41.551  52.044   9.636  1.00 21.53 LIG 0.15  C 
ATOM     35  CG2 THR B   3      42.890  52.671   9.612  1.00 22.92 LIG 0.04  C 
BRANCH 34 36
ATOM     36 OG1  THR B   3      41.693  50.633   9.710  1.00 22.47 LIG-0.39  OA
ATOM     37 HG1  THR B   3      42.186  50.434  10.360  1.00 22.47 LIG 0.21  HD
ENDBRANCH 34 36
ENDBRANCH 6 34
ENDBRANCH 4 6
ENDBRANCH 1 2
BRANCH 1 38
ATOM     38  CB  LYS B   4      38.288  55.451   8.048  1.00 32.55 LIG 0.04  C 
BRANCH 38 39
ATOM     39  CG  LYS B   4      39.559  55.328   7.257  1.00 30.49 LIG 0.00  C 
BRANCH 39 40
ATOM     40  CD  LYS B   4      39.252  55.338   5.760  1.00 34.18 LIG 0.03  C 
BRANCH 40 41
ATOM     41  CE  LYS B   4      39.993  54.218   5.048  1.00 33.34 LIG 0.23  C 
BRANCH 41 42
ATOM     42  NZ  LYS B   4      40.030  54.370   3.572  1.00 36.76 LIG-0.08  N 
ATOM     43 HZ1  LYS B   4      40.378  53.637   3.206  1.00 36.76 LIG 0.27  HD
ATOM     44 HZ2  LYS B   4      39.204  54.490   3.264  1.00 36.76 LIG 0.27  HD
ATOM     45 HZ3  LYS B   4      40.531  55.074   3.358  1.00 36.76 LIG 0.27  HD
ENDBRANCH 41 42
ENDBRANCH 40 41
ENDBRANCH 39 40
ENDBRANCH 38 39
ENDBRANCH 1 38
BRANCH 1 46
ATOM     46  C   LYS B   4      37.175  55.362  10.243  1.00 34.41 LIG 0.24  C 
ATOM     47  N   GLN B   5      36.667  56.567  10.461  1.00 39.81 LIG-0.35  N 
ATOM     48 H    GLN B   5      37.001  57.305  10.171  1.00 39.81 LIG 0.16  HD
ATOM     49 O    LYS B   4      36.602  54.306  10.580  1.00 33.27 LIG-0.27  OA
BRANCH 47 50
ATOM     50  CA  GLN B   5      35.444  56.697  11.251  1.00 46.50 LIG 0.18  C 
BRANCH 50 51
ATOM     51  C   GLN B   5      34.306  55.829  10.706  1.00 52.91 LIG 0.24  C 
ATOM     52  N   THR B   6      33.881  54.855  11.520  1.00 59.38 LIG-0.34  N 
ATOM     53 H    THR B   6      34.109  54.810  12.349  1.00 59.38 LIG 0.16  HD
ATOM     54 O    GLN B   5      33.883  55.999   9.573  1.00 55.19 LIG-0.27  OA
BRANCH 52 55
ATOM     55  CA  THR B   6      32.973  53.739  11.096  1.00 66.40 LIG 0.20  C 
BRANCH 55 56
ATOM     56  CB  THR B   6      33.592  52.847   9.965  1.00 64.05 LIG 0.15  C 
ATOM     57  CG2 THR B   6      32.496  52.125   9.188  1.00 70.60 LIG 0.04  C 
BRANCH 56 58
ATOM     58 OG1  THR B   6      34.383  53.626   9.052  1.00 62.34 LIG-0.39  OA
ATOM     59 HG1  THR B   6      35.008  54.000   9.471  1.00 62.34 LIG 0.21  HD
ENDBRANCH 56 58
ENDBRANCH 55 56
BRANCH 55 60
ATOM     60  C   THR B   6      32.622  52.765  12.259  1.00 68.19 LIG 0.24  C 
ATOM     61 O    THR B   6      32.613  51.528  12.074  1.00 63.20 LIG-0.27  OA
ATOM     62  N   ALA B   7      32.317  53.322  13.435  1.00 78.65 LIG-0.35  N 
ATOM     63 H    ALA B   7      32.425  54.158  13.607  1.00 78.65 LIG 0.16  HD
BRANCH 62 64
ATOM     64  CA  ALA B   7      31.766  52.549  14.552  1.00 81.14 LIG 0.16  C 
ATOM     65  CB  ALA B   7      32.252  53.114  15.889  1.00 91.84 LIG 0.04  C 
BRANCH 64 66
ATOM     66  C   ALA B   7      30.230  52.554  14.498  1.00 81.58 LIG 0.22  C 
ATOM     67 O    ALA B   7      29.626  52.983  13.510  1.00 77.41 LIG-0.29  OA
ENDBRANCH 64 66
ENDBRANCH 62 64
ENDBRANCH 55 60
ENDBRANCH 52 55
ENDBRANCH 50 51
BRANCH 50 68
ATOM     68  CB  GLN B   5      34.998  58.154  11.464  1.00 52.07 LIG 0.04  C 
BRANCH 68 69
ATOM     69  CG  GLN B   5      35.799  59.251  10.804  1.00 55.77 LIG 0.10  C 
BRANCH 69 70
ATOM     70  CD  GLN B   5      35.727  60.543  11.605  1.00 63.27 LIG 0.21  C 
ATOM     71  NE2 GLN B   5      35.496  60.414  12.897  1.00 63.75 LIG-0.37  N 
ATOM     72 21HE GLN B   5      35.404  59.631  13.242  1.00 63.75 LIG 0.16  HD
ATOM     73 22HE GLN B   5      35.438  61.113  13.395  1.00 63.75 LIG 0.16  HD
ATOM     74 OE1  GLN B   5      35.863  61.627  11.074  1.00 68.43 LIG-0.27  OA
ENDBRANCH 69 70
ENDBRANCH 68 69
ENDBRANCH 50 68
ENDBRANCH 47 50
ENDBRANCH 1 46
TORSDOF 30
ENDMDL
MODEL 13
USER: ADFR SOLUTION from run 86
USER: SCORE 20.897587 LL:  -4.963 LR: -18.268 RR:   0.000 FEB:  -9.319
USER: RMSD 4.131163
USER: SEED 85
USER: STATUS no improvement in best in 11 clusters for 5 generations
USER: GENES 32
USER: genes 0 Translation |==|  0.62105 0.46771 0.44076
USER: genes 1 Rotation |==|  0.50020 0.46492 0.60389 0.98783
USER: genes 2 Torsion [C]-CA--N-[C] |==|  0.62584
USER: genes 3 Torsion [N]-C--CA-[N] |==|  0.87154
USER: genes 4 Torsion [C]-CA--N-[C] |==|  0.86621
USER: genes 5 Torsion [N]-C--CA-[N] |==|  0.44803
USER: genes 6 Torsion [C]-CA--CB-[CG] |==|  0.34679
USER: genes 7 Torsion [CA]-CB--CG-[CD] |==|  0.01665
USER: genes 8 Torsion [CB]-CG--CD-[NE] |==|  0.53415
USER: genes 9 Torsion [CG]-CD--NE-[CZ] |==|  0.35986
USER: genes 10 Torsion [C]-CA--N-[C] |==|  0.54326
USER: genes 11 Torsion [N]-C--CA-[N] |==|  0.42928
USER: genes 12 Torsion [C]-CA--N-[H1] |==|  0.15884
USER: genes 13 Torsion [C]-CA--CB-[CG2] |==|  0.22591
USER: genes 14 Torsion [CA]-CB--OG1-[HG1] |==|  0.76709
USER: genes 15 Torsion [N]-CA--CB-[CG] |==|  0.78975
USER: genes 16 Torsion [CA]-CB--CG-[CD] |==|  0.48750
USER: genes 17 Torsion [CB]-CG--CD-[CE] |==|  0.61848
USER: genes 18 Torsion [CG]-CD--CE-[NZ] |==|  0.57956
USER: genes 19 Torsion [CD]-CE--NZ-[HZ1] |==|  0.58034
USER: genes 20 Torsion [N]-CA--C-[N] |==|  0.50554
USER: genes 21 Torsion [C]-N--CA-[CB] |==|  0.44434
USER: genes 22 Torsion [N]-CA--C-[N] |==|  0.27641
USER: genes 23 Torsion [C]-N--CA-[CB] |==|  0.16145
USER: genes 24 Torsion [N]-CA--CB-[CG2] |==|  0.19922
USER: genes 25 Torsion [CA]-CB--OG1-[HG1] |==|  0.89817
USER: genes 26 Torsion [N]-CA--C-[N] |==|  0.08735
USER: genes 27 Torsion [C]-N--CA-[CB] |==|  0.28305
USER: genes 28 Torsion [N]-CA--C-[O] |==|  0.12766
USER: genes 29 Torsion [N]-CA--CB-[CG] |==|  0.73965
USER: genes 30 Torsion [CA]-CB--CG-[CD] |==|  0.99945
USER: genes 31 Torsion [CB]-CG--CD-[NE2] |==|  0.29658
ROOT
ATOM      1  CA  LYS B   4      37.184  54.392   9.389  1.00 30.17 LIG 0.18  C 
ENDROOT
BRANCH 1 2
ATOM      2  N   LYS B   4      38.095  53.449  10.009  1.00 25.68 LIG-0.35  N 
ATOM      3 H    LYS B   4      37.824  52.633   9.981  1.00 25.68 LIG 0.16  HD
ATOM      4  C   THR B   3      39.250  53.823  10.570  1.00 23.58 LIG 0.24  C 
ATOM      5 O    THR B   3      39.654  54.991  10.592  1.00 24.56 LIG-0.27  OA
BRANCH 4 6
ATOM      6  CA  THR B   3      40.079  52.716  11.225  1.00 21.46 LIG 0.20  C 
BRANCH 6 7
ATOM      7  N   THR B   3      39.262  51.860  12.059  1.00 21.22 LIG-0.34  N 
ATOM      8 H    THR B   3      39.386  51.020  11.922  1.00 21.22 LIG 0.16  HD
ATOM      9  C   ARG B   2      38.411  52.328  12.941  1.00 21.22 LIG 0.24  C 
ATOM     10 O    ARG B   2      38.243  53.508  13.116  1.00 22.30 LIG-0.27  OA
BRANCH 9 11
ATOM     11  CA  ARG B   2      37.650  51.282  13.770  1.00 22.28 LIG 0.18  C 
BRANCH 11 12
ATOM     12  CB  ARG B   2      36.472  50.676  13.001  1.00 24.95 LIG 0.04  C 
BRANCH 12 13
ATOM     13  CG  ARG B   2      36.422  49.170  12.861  1.00 25.01 LIG 0.02  C 
BRANCH 13 14
ATOM     14  CD  ARG B   2      37.557  48.545  13.695  1.00 28.81 LIG 0.14  C 
BRANCH 14 15
ATOM     15  NE  ARG B   2      37.808  47.127  13.437  1.00 31.55 LIG-0.23  N 
ATOM     16 HE   ARG B   2      37.131  46.596  13.456  1.00 31.55 LIG 0.18  HD
ATOM     17  CZ  ARG B   2      39.006  46.586  13.174  1.00 33.58 LIG 0.67  C 
ATOM     18  NH2 ARG B   2      40.091  47.341  13.058  1.00 33.13 LIG-0.23  N 
ATOM     19  NH1 ARG B   2      39.117  45.284  12.998  1.00 37.12 LIG-0.23  N 
ATOM     20 1HH2 ARG B   2      40.034  48.194  13.152  1.00 33.13 LIG 0.17  HD
ATOM     21 2HH2 ARG B   2      40.852  46.977  12.889  1.00 33.13 LIG 0.17  HD
ATOM     22 2HH1 ARG B   2      39.886  44.937  12.830  1.00 37.12 LIG 0.17  HD
ATOM     23 1HH1 ARG B   2      38.421  44.782  13.052  1.00 37.12 LIG 0.17  HD
ENDBRANCH 14 15
ENDBRANCH 13 14
ENDBRANCH 12 13
ENDBRANCH 11 12
BRANCH 11 24
ATOM     24  N   ARG B   2      37.112  51.920  14.957  1.00 22.27 LIG-0.35  N 
ATOM     25  C   ALA B   1      36.688  51.180  15.969  1.00 22.85 LIG 0.25  C 
ATOM     26 O    ALA B   1      36.732  49.945  15.943  1.00 22.62 LIG-0.27  OA
ATOM     27 H    ARG B   2      37.098  52.780  14.936  1.00 22.27 LIG 0.16  HD
BRANCH 25 28
ATOM     28  CA  ALA B   1      36.106  51.944  17.170  1.00 23.76 LIG 0.27  C 
ATOM     29  CB  ALA B   1      37.204  52.472  18.085  1.00 24.39 LIG 0.05  C 
BRANCH 28 30
ATOM     30  N   ALA B   1      35.160  51.141  17.936  1.00 25.03 LIG-0.07  N 
ATOM     31 H1   ALA B   1      35.559  50.394  18.211  1.00 25.03 LIG 0.28  HD
ATOM     32 H3   ALA B   1      34.463  50.933  17.423  1.00 25.03 LIG 0.28  HD
ATOM     33 H2   ALA B   1      34.880  51.605  18.642  1.00 25.03 LIG 0.28  HD
ENDBRANCH 28 30
ENDBRANCH 25 28
ENDBRANCH 11 24
ENDBRANCH 9 11
ENDBRANCH 6 7
BRANCH 6 34
ATOM     34  CB  THR B   3      40.800  51.900  10.159  1.00 21.53 LIG 0.15  C 
ATOM     35  CG2 THR B   3      42.038  52.571   9.707  1.00 22.92 LIG 0.04  C 
BRANCH 34 36
ATOM     36 OG1  THR B   3      41.126  50.634  10.715  1.00 22.47 LIG-0.39  OA
ATOM     37 HG1  THR B   3      41.844  50.694  11.146  1.00 22.47 LIG 0.21  HD
ENDBRANCH 34 36
ENDBRANCH 6 34
ENDBRANCH 4 6
ENDBRANCH 1 2
BRANCH 1 38
ATOM     38  CB  LYS B   4      37.285  54.291   7.890  1.00 32.55 LIG 0.04  C 
BRANCH 38 39
ATOM     39  CG  LYS B   4      38.523  54.936   7.335  1.00 30.49 LIG 0.00  C 
BRANCH 39 40
ATOM     40  CD  LYS B   4      38.612  54.697   5.828  1.00 34.18 LIG 0.03  C 
BRANCH 40 41
ATOM     41  CE  LYS B   4      40.031  54.339   5.420  1.00 33.34 LIG 0.23  C 
BRANCH 41 42
ATOM     42  NZ  LYS B   4      40.371  54.737   4.030  1.00 36.76 LIG-0.08  N 
ATOM     43 HZ1  LYS B   4      40.984  54.181   3.704  1.00 36.76 LIG 0.27  HD
ATOM     44 HZ2  LYS B   4      39.640  54.702   3.524  1.00 36.76 LIG 0.27  HD
ATOM     45 HZ3  LYS B   4      40.692  55.567   4.029  1.00 36.76 LIG 0.27  HD
ENDBRANCH 41 42
ENDBRANCH 40 41
ENDBRANCH 39 40
ENDBRANCH 38 39
ENDBRANCH 1 38
BRANCH 1 46
ATOM     46  C   LYS B   4      35.779  54.103   9.830  1.00 34.41 LIG 0.24  C 
ATOM     47  N   GLN B   5      34.819  54.859   9.315  1.00 39.81 LIG-0.35  N 
ATOM     48 H    GLN B   5      34.931  55.454   8.704  1.00 39.81 LIG 0.16  HD
ATOM     49 O    LYS B   4      35.562  53.171  10.630  1.00 33.27 LIG-0.27  OA
BRANCH 47 50
ATOM     50  CA  GLN B   5      33.447  54.700   9.796  1.00 46.50 LIG 0.18  C 
BRANCH 50 51
ATOM     51  C   GLN B   5      32.811  53.393   9.314  1.00 52.91 LIG 0.24  C 
ATOM     52  N   THR B   6      32.808  52.390  10.202  1.00 59.38 LIG-0.34  N 
ATOM     53 H    THR B   6      32.998  52.506  11.033  1.00 59.38 LIG 0.16  HD
ATOM     54 O    GLN B   5      32.404  53.286   8.167  1.00 55.19 LIG-0.27  OA
BRANCH 52 55
ATOM     55  CA  THR B   6      32.480  50.966   9.863  1.00 66.40 LIG 0.20  C 
BRANCH 55 56
ATOM     56  CB  THR B   6      33.420  50.372   8.757  1.00 64.05 LIG 0.15  C 
ATOM     57  CG2 THR B   6      34.819  50.131   9.313  1.00 70.60 LIG 0.04  C 
BRANCH 56 58
ATOM     58 OG1  THR B   6      32.902  49.137   8.232  1.00 62.34 LIG-0.39  OA
ATOM     59 HG1  THR B   6      32.538  48.700   8.850  1.00 62.34 LIG 0.21  HD
ENDBRANCH 56 58
ENDBRANCH 55 56
BRANCH 55 60
ATOM     60  C   THR B   6      32.602  50.007  11.083  1.00 68.19 LIG 0.24  C 
ATOM     61 O    THR B   6      32.923  48.810  10.923  1.00 63.20 LIG-0.27  OA
ATOM     62  N   ALA B   7      32.327  50.528  12.283  1.00 78.65 LIG-0.35  N 
ATOM     63 H    ALA B   7      32.212  51.369  12.421  1.00 78.65 LIG 0.16  HD
BRANCH 62 64
ATOM     64  CA  ALA B   7      32.194  49.702  13.487  1.00 81.14 LIG 0.16  C 
ATOM     65  CB  ALA B   7      33.462  49.786  14.340  1.00 91.84 LIG 0.04  C 
BRANCH 64 66
ATOM     66  C   ALA B   7      30.970  50.143  14.305  1.00 81.58 LIG 0.22  C 
ATOM     67 O    ALA B   7      29.881  50.356  13.763  1.00 77.41 LIG-0.29  OA
ENDBRANCH 64 66
ENDBRANCH 62 64
ENDBRANCH 55 60
ENDBRANCH 52 55
ENDBRANCH 50 51
BRANCH 50 68
ATOM     68  CB  GLN B   5      32.547  55.913   9.505  1.00 52.07 LIG 0.04  C 
BRANCH 68 69
ATOM     69  CG  GLN B   5      32.407  56.973  10.571  1.00 55.77 LIG 0.10  C 
BRANCH 69 70
ATOM     70  CD  GLN B   5      33.225  56.622  11.806  1.00 63.27 LIG 0.21  C 
ATOM     71  NE2 GLN B   5      34.323  57.328  11.997  1.00 63.75 LIG-0.37  N 
ATOM     72 21HE GLN B   5      34.536  57.951  11.442  1.00 63.75 LIG 0.16  HD
ATOM     73 22HE GLN B   5      34.826  57.165  12.674  1.00 63.75 LIG 0.16  HD
ATOM     74 OE1  GLN B   5      32.884  55.734  12.561  1.00 68.43 LIG-0.27  OA
ENDBRANCH 69 70
ENDBRANCH 68 69
ENDBRANCH 50 68
ENDBRANCH 47 50
ENDBRANCH 1 46
TORSDOF 30
ENDMDL
MODEL 14
USER: ADFR SOLUTION from run 25
USER: SCORE 20.456507 LL:  -3.859 LR: -18.245 RR:   0.000 FEB:  -9.296
USER: RMSD 4.276532
USER: SEED 24
USER: STATUS no improvement in best in 18 clusters for 5 generations
USER: GENES 32
USER: genes 0 Translation |==|  0.66604 0.51760 0.45824
USER: genes 1 Rotation |==|  0.54255 0.49410 0.51961 0.99777
USER: genes 2 Torsion [C]-CA--N-[C] |==|  0.67343
USER: genes 3 Torsion [N]-C--CA-[N] |==|  0.87883
USER: genes 4 Torsion [C]-CA--N-[C] |==|  0.85840
USER: genes 5 Torsion [N]-C--CA-[N] |==|  0.12114
USER: genes 6 Torsion [C]-CA--CB-[CG] |==|  0.88334
USER: genes 7 Torsion [CA]-CB--CG-[CD] |==|  0.41772
USER: genes 8 Torsion [CB]-CG--CD-[NE] |==|  0.61614
USER: genes 9 Torsion [CG]-CD--NE-[CZ] |==|  0.55764
USER: genes 10 Torsion [C]-CA--N-[C] |==|  0.63794
USER: genes 11 Torsion [N]-C--CA-[N] |==|  0.36090
USER: genes 12 Torsion [C]-CA--N-[H1] |==|  0.56563
USER: genes 13 Torsion [C]-CA--CB-[CG2] |==|  0.19419
USER: genes 14 Torsion [CA]-CB--OG1-[HG1] |==|  0.84282
USER: genes 15 Torsion [N]-CA--CB-[CG] |==|  0.81993
USER: genes 16 Torsion [CA]-CB--CG-[CD] |==|  0.46727
USER: genes 17 Torsion [CB]-CG--CD-[CE] |==|  0.63041
USER: genes 18 Torsion [CG]-CD--CE-[NZ] |==|  0.55564
USER: genes 19 Torsion [CD]-CE--NZ-[HZ1] |==|  0.51977
USER: genes 20 Torsion [N]-CA--C-[N] |==|  0.43726
USER: genes 21 Torsion [C]-N--CA-[CB] |==|  0.50000
USER: genes 22 Torsion [N]-CA--C-[N] |==|  0.43420
USER: genes 23 Torsion [C]-N--CA-[CB] |==|  0.54001
USER: genes 24 Torsion [N]-CA--CB-[CG2] |==|  0.61481
USER: genes 25 Torsion [CA]-CB--OG1-[HG1] |==|  0.73306
USER: genes 26 Torsion [N]-CA--C-[N] |==|  0.37439
USER: genes 27 Torsion [C]-N--CA-[CB] |==|  0.41804
USER: genes 28 Torsion [N]-CA--C-[O] |==|  0.03526
USER: genes 29 Torsion [N]-CA--CB-[CG] |==|  0.02123
USER: genes 30 Torsion [CA]-CB--CG-[CD] |==|  0.59528
USER: genes 31 Torsion [CB]-CG--CD-[NE2] |==|  0.05283
ROOT
ATOM      1  CA  LYS B   4      38.230  55.515   9.809  1.00 30.17 LIG 0.18  C 
ENDROOT
BRANCH 1 2
ATOM      2  N   LYS B   4      38.845  54.240  10.123  1.00 25.68 LIG-0.35  N 
ATOM      3 H    LYS B   4      38.414  53.560   9.819  1.00 25.68 LIG 0.16  HD
ATOM      4  C   THR B   3      39.980  54.140  10.824  1.00 23.58 LIG 0.24  C 
ATOM      5 O    THR B   3      40.615  55.114  11.244  1.00 24.56 LIG-0.27  OA
BRANCH 4 6
ATOM      6  CA  THR B   3      40.477  52.723  11.117  1.00 21.46 LIG 0.20  C 
BRANCH 6 7
ATOM      7  N   THR B   3      39.397  51.852  11.531  1.00 21.22 LIG-0.34  N 
ATOM      8 H    THR B   3      39.358  51.113  11.093  1.00 21.22 LIG 0.16  HD
ATOM      9  C   ARG B   2      38.556  52.169  12.487  1.00 21.22 LIG 0.24  C 
ATOM     10 O    ARG B   2      38.619  53.211  13.086  1.00 22.30 LIG-0.27  OA
BRANCH 9 11
ATOM     11  CA  ARG B   2      37.491  51.115  12.828  1.00 22.28 LIG 0.18  C 
BRANCH 11 12
ATOM     12  CB  ARG B   2      36.844  51.363  14.195  1.00 24.95 LIG 0.04  C 
BRANCH 12 13
ATOM     13  CG  ARG B   2      37.747  51.772  15.337  1.00 25.01 LIG 0.02  C 
BRANCH 13 14
ATOM     14  CD  ARG B   2      36.953  52.652  16.322  1.00 28.81 LIG 0.14  C 
BRANCH 14 15
ATOM     15  NE  ARG B   2      37.677  53.813  16.840  1.00 31.55 LIG-0.23  N 
ATOM     16 HE   ARG B   2      38.354  54.091  16.387  1.00 31.55 LIG 0.18  HD
ATOM     17  CZ  ARG B   2      37.373  54.481  17.962  1.00 33.58 LIG 0.67  C 
ATOM     18  NH2 ARG B   2      36.305  54.163  18.683  1.00 33.13 LIG-0.23  N 
ATOM     19  NH1 ARG B   2      38.124  55.490  18.352  1.00 37.12 LIG-0.23  N 
ATOM     20 1HH2 ARG B   2      35.794  53.518  18.434  1.00 33.13 LIG 0.17  HD
ATOM     21 2HH2 ARG B   2      36.125  54.602  19.401  1.00 33.13 LIG 0.17  HD
ATOM     22 2HH1 ARG B   2      37.929  55.919  19.072  1.00 37.12 LIG 0.17  HD
ATOM     23 1HH1 ARG B   2      38.810  55.722  17.887  1.00 37.12 LIG 0.17  HD
ENDBRANCH 14 15
ENDBRANCH 13 14
ENDBRANCH 12 13
ENDBRANCH 11 12
BRANCH 11 24
ATOM     24  N   ARG B   2      38.117  49.808  12.873  1.00 22.27 LIG-0.35  N 
ATOM     25  C   ALA B   1      37.581  48.797  12.208  1.00 22.85 LIG 0.25  C 
ATOM     26 O    ALA B   1      36.550  48.923  11.538  1.00 22.62 LIG-0.27  OA
ATOM     27 H    ARG B   2      38.831  49.760  13.350  1.00 22.27 LIG 0.16  HD
BRANCH 25 28
ATOM     28  CA  ALA B   1      38.298  47.442  12.342  1.00 23.76 LIG 0.27  C 
ATOM     29  CB  ALA B   1      39.069  47.088  11.076  1.00 24.39 LIG 0.05  C 
BRANCH 28 30
ATOM     30  N   ALA B   1      37.384  46.360  12.689  1.00 25.03 LIG-0.07  N 
ATOM     31 H1   ALA B   1      37.837  45.703  13.083  1.00 25.03 LIG 0.28  HD
ATOM     32 H3   ALA B   1      36.995  46.051  11.950  1.00 25.03 LIG 0.28  HD
ATOM     33 H2   ALA B   1      36.761  46.665  13.246  1.00 25.03 LIG 0.28  HD
ENDBRANCH 28 30
ENDBRANCH 25 28
ENDBRANCH 11 24
ENDBRANCH 9 11
ENDBRANCH 6 7
BRANCH 6 34
ATOM     34  CB  THR B   3      41.188  52.154   9.894  1.00 21.53 LIG 0.15  C 
ATOM     35  CG2 THR B   3      42.478  52.834   9.651  1.00 22.92 LIG 0.04  C 
BRANCH 34 36
ATOM     36 OG1  THR B   3      41.419  50.771  10.119  1.00 22.47 LIG-0.39  OA
ATOM     37 HG1  THR B   3      41.858  50.671  10.828  1.00 22.47 LIG 0.21  HD
ENDBRANCH 34 36
ENDBRANCH 6 34
ENDBRANCH 4 6
ENDBRANCH 1 2
BRANCH 1 38
ATOM     38  CB  LYS B   4      38.107  55.668   8.316  1.00 32.55 LIG 0.04  C 
BRANCH 38 39
ATOM     39  CG  LYS B   4      39.435  55.736   7.617  1.00 30.49 LIG 0.00  C 
BRANCH 39 40
ATOM     40  CD  LYS B   4      39.244  55.597   6.106  1.00 34.18 LIG 0.03  C 
BRANCH 40 41
ATOM     41  CE  LYS B   4      40.230  54.596   5.526  1.00 33.34 LIG 0.23  C 
BRANCH 41 42
ATOM     42  NZ  LYS B   4      40.437  54.742   4.063  1.00 36.76 LIG-0.08  N 
ATOM     43 HZ1  LYS B   4      40.939  54.071   3.766  1.00 36.76 LIG 0.27  HD
ATOM     44 HZ2  LYS B   4      39.650  54.729   3.649  1.00 36.76 LIG 0.27  HD
ATOM     45 HZ3  LYS B   4      40.846  55.515   3.897  1.00 36.76 LIG 0.27  HD
ENDBRANCH 41 42
ENDBRANCH 40 41
ENDBRANCH 39 40
ENDBRANCH 38 39
ENDBRANCH 1 38
BRANCH 1 46
ATOM     46  C   LYS B   4      36.874  55.593  10.446  1.00 34.41 LIG 0.24  C 
ATOM     47  N   GLN B   5      36.377  56.804  10.657  1.00 39.81 LIG-0.35  N 
ATOM     48 H    GLN B   5      36.739  57.540  10.399  1.00 39.81 LIG 0.16  HD
ATOM     49 O    LYS B   4      36.263  54.543  10.731  1.00 33.27 LIG-0.27  OA
BRANCH 47 50
ATOM     50  CA  GLN B   5      35.112  56.944  11.379  1.00 46.50 LIG 0.18  C 
BRANCH 50 51
ATOM     51  C   GLN B   5      34.005  56.070  10.785  1.00 52.91 LIG 0.24  C 
ATOM     52  N   THR B   6      33.010  55.750  11.622  1.00 59.38 LIG-0.34  N 
ATOM     53 H    THR B   6      32.906  56.130  12.387  1.00 59.38 LIG 0.16  HD
ATOM     54 O    GLN B   5      34.088  55.655   9.639  1.00 55.19 LIG-0.27  OA
BRANCH 52 55
ATOM     55  CA  THR B   6      31.971  54.705  11.335  1.00 66.40 LIG 0.20  C 
BRANCH 55 56
ATOM     56  CB  THR B   6      30.742  54.787  12.305  1.00 64.05 LIG 0.15  C 
ATOM     57  CG2 THR B   6      30.299  53.392  12.732  1.00 70.60 LIG 0.04  C 
BRANCH 56 58
ATOM     58 OG1  THR B   6      31.044  55.566  13.476  1.00 62.34 LIG-0.39  OA
ATOM     59 HG1  THR B   6      31.272  55.054  14.102  1.00 62.34 LIG 0.21  HD
ENDBRANCH 56 58
ENDBRANCH 55 56
BRANCH 55 60
ATOM     60  C   THR B   6      31.384  54.810   9.897  1.00 68.19 LIG 0.24  C 
ATOM     61 O    THR B   6      31.030  55.916   9.433  1.00 63.20 LIG-0.27  OA
ATOM     62  N   ALA B   7      31.265  53.667   9.215  1.00 78.65 LIG-0.35  N 
ATOM     63 H    ALA B   7      31.602  52.920   9.476  1.00 78.65 LIG 0.16  HD
BRANCH 62 64
ATOM     64  CA  ALA B   7      30.540  53.583   7.944  1.00 81.14 LIG 0.16  C 
ATOM     65  CB  ALA B   7      31.129  52.480   7.060  1.00 91.84 LIG 0.04  C 
BRANCH 64 66
ATOM     66  C   ALA B   7      29.046  53.322   8.197  1.00 81.58 LIG 0.22  C 
ATOM     67 O    ALA B   7      28.558  53.440   9.325  1.00 77.41 LIG-0.29  OA
ENDBRANCH 64 66
ENDBRANCH 62 64
ENDBRANCH 55 60
ENDBRANCH 52 55
ENDBRANCH 50 51
BRANCH 50 68
ATOM     68  CB  GLN B   5      34.658  58.403  11.550  1.00 52.07 LIG 0.04  C 
BRANCH 68 69
ATOM     69  CG  GLN B   5      35.430  59.483  10.830  1.00 55.77 LIG 0.10  C 
BRANCH 69 70
ATOM     70  CD  GLN B   5      35.478  60.764  11.649  1.00 63.27 LIG 0.21  C 
ATOM     71  NE2 GLN B   5      35.221  60.642  12.937  1.00 63.75 LIG-0.37  N 
ATOM     72 21HE GLN B   5      35.048  59.868  13.269  1.00 63.75 LIG 0.16  HD
ATOM     73 22HE GLN B   5      35.227  61.336  13.444  1.00 63.75 LIG 0.16  HD
ATOM     74 OE1  GLN B   5      35.728  61.837  11.135  1.00 68.43 LIG-0.27  OA
ENDBRANCH 69 70
ENDBRANCH 68 69
ENDBRANCH 50 68
ENDBRANCH 47 50
ENDBRANCH 1 46
TORSDOF 30
ENDMDL
