MODEL 1
USER: ADFR SOLUTION from run 109
USER: SCORE 21.892542 LL:  -7.197 LR: -15.079 RR:   0.000 FEB:  -6.130
USER: RMSD 3.759287
USER: SEED 108
USER: STATUS no improvement in best in 19 clusters for 5 generations
USER: GENES 32
USER: genes 0 Translation |==|  0.54117 0.44204 0.52960
USER: genes 1 Rotation |==|  0.44305 0.55871 0.55190 0.99053
USER: genes 2 Torsion [N]-CA--C-[N] |==|  0.88558
USER: genes 3 Torsion [C]-N--CA-[C] |==|  0.74301
USER: genes 4 Torsion [N]-CA--C-[N] |==|  0.01390
USER: genes 5 Torsion [C]-N--CA-[C] |==|  0.64390
USER: genes 6 Torsion [N]-CA--C-[N] |==|  0.47342
USER: genes 7 Torsion [C]-N--CA-[CB] |==|  0.64231
USER: genes 8 Torsion [N]-CA--CB-[CG] |==|  0.71703
USER: genes 9 Torsion [CA]-CB--CG-[CD] |==|  0.37355
USER: genes 10 Torsion [CB]-CG--CD-[NE2] |==|  0.19014
USER: genes 11 Torsion [N]-CA--C-[O] |==|  0.35597
USER: genes 12 Torsion [N]-CA--CB-[CG] |==|  0.85859
USER: genes 13 Torsion [CA]-CB--CG-[CD2] |==|  0.77176
USER: genes 14 Torsion [N]-CA--CB-[CG] |==|  0.84484
USER: genes 15 Torsion [CA]-CB--CG-[CD1] |==|  0.25010
USER: genes 16 Torsion [C]-CA--CB-[CG] |==|  0.67164
USER: genes 17 Torsion [CA]-CB--CG-[CD] |==|  0.74224
USER: genes 18 Torsion [CB]-CG--CD-[NE] |==|  0.68048
USER: genes 19 Torsion [CG]-CD--NE-[CZ] |==|  0.72162
USER: genes 20 Torsion [C]-CA--N-[C] |==|  0.82529
USER: genes 21 Torsion [N]-C--CA-[N] |==|  0.89212
USER: genes 22 Torsion [C]-CA--CB-[CG] |==|  0.49370
USER: genes 23 Torsion [CA]-CB--CG-[ND1] |==|  0.24952
USER: genes 24 Torsion [C]-CA--N-[C] |==|  0.85288
USER: genes 25 Torsion [N]-C--CA-[N] |==|  0.01397
USER: genes 26 Torsion [C]-CA--CB-[CG] |==|  0.50887
USER: genes 27 Torsion [CA]-CB--CG-[CD2] |==|  0.65186
USER: genes 28 Torsion [C]-CA--N-[C] |==|  0.76765
USER: genes 29 Torsion [N]-C--CA-[N] |==|  0.95892
USER: genes 30 Torsion [C]-CA--CB-[CG1] |==|  0.86066
USER: genes 31 Torsion [CA]-CB--CG1-[CD1] |==|  0.67927
ROOT
ATOM      1  CA  ARG D 692      10.529 -16.089  39.496  1.00 48.73 LIG 0.18  C 
ENDROOT
BRANCH 1 2
ATOM      2  C   ARG D 692       9.252 -15.358  39.879  1.00 46.10 LIG 0.24  C 
ATOM      3  N   LEU D 693       8.987 -14.209  39.262  1.00 50.64 LIG-0.35  N 
ATOM      4 H    LEU D 693       9.471 -13.852  38.649  1.00 50.64 LIG 0.16  HD
ATOM      5 O    ARG D 692       8.546 -15.780  40.793  1.00 52.04 LIG-0.27  OA
BRANCH 3 6
ATOM      6  CA  LEU D 693       7.780 -13.462  39.631  1.00 43.34 LIG 0.18  C 
BRANCH 6 7
ATOM      7  C   LEU D 693       6.591 -13.823  38.751  1.00 37.95 LIG 0.24  C 
ATOM      8  N   LEU D 694       6.780 -14.796  37.883  1.00 39.22 LIG-0.35  N 
ATOM      9 H    LEU D 694       7.536 -15.188  37.766  1.00 39.22 LIG 0.16  HD
ATOM     10 O    LEU D 693       5.529 -13.198  38.850  1.00 43.86 LIG-0.27  OA
BRANCH 8 11
ATOM     11  CA  LEU D 694       5.724 -15.295  37.042  1.00 38.59 LIG 0.18  C 
BRANCH 11 12
ATOM     12  C   LEU D 694       5.661 -16.782  37.183  1.00 46.22 LIG 0.24  C 
ATOM     13  N   GLN D 695       4.611 -17.350  36.619  1.00 66.87 LIG-0.35  N 
ATOM     14 H    GLN D 695       3.978 -16.877  36.280  1.00 66.87 LIG 0.16  HD
ATOM     15 O    LEU D 694       6.500 -17.358  37.825  1.00 54.70 LIG-0.27  OA
BRANCH 13 16
ATOM     16  CA  GLN D 695       4.351 -18.789  36.480  1.00 62.86 LIG 0.16  C 
BRANCH 16 17
ATOM     17  CB  GLN D 695       4.014 -19.136  35.055  1.00 63.26 LIG 0.04  C 
BRANCH 17 18
ATOM     18  CG  GLN D 695       2.532 -19.325  34.870  1.00 77.24 LIG 0.10  C 
BRANCH 18 19
ATOM     19  CD  GLN D 695       2.018 -18.643  33.669  1.00 84.08 LIG 0.21  C 
ATOM     20 OE1  GLN D 695       1.294 -17.672  33.777  1.00 83.40 LIG-0.27  OA
ATOM     21  NE2 GLN D 695       2.398 -19.127  32.502  1.00 79.17 LIG-0.37  N 
ATOM     22 22HE GLN D 695       2.133 -18.753  31.775  1.00 79.17 LIG 0.16  HD
ATOM     23 21HE GLN D 695       2.911 -19.816  32.469  1.00 79.17 LIG 0.16  HD
ENDBRANCH 18 19
ENDBRANCH 17 18
ENDBRANCH 16 17
BRANCH 16 24
ATOM     24  C   GLN D 695       5.407 -19.735  37.048  1.00 61.14 LIG 0.22  C 
ATOM     25 O    GLN D 695       5.094 -20.641  37.825  1.00 66.66 LIG-0.29  OA
ENDBRANCH 16 24
ENDBRANCH 13 16
ENDBRANCH 11 12
BRANCH 11 26
ATOM     26  CB  LEU D 694       5.984 -14.983  35.584  1.00 34.51 LIG 0.04  C 
BRANCH 26 27
ATOM     27  CG  LEU D 694       6.322 -13.576  35.158  1.00 27.71 LIG-0.02  C 
ATOM     28  CD2 LEU D 694       5.115 -12.703  34.990  1.00 26.48 LIG 0.01  C 
ATOM     29  CD1 LEU D 694       7.227 -13.519  33.961  1.00 27.00 LIG 0.01  C 
ENDBRANCH 26 27
ENDBRANCH 11 26
ENDBRANCH 8 11
ENDBRANCH 6 7
BRANCH 6 30
ATOM     30  CB  LEU D 693       8.016 -11.942  39.634  1.00 45.67 LIG 0.04  C 
BRANCH 30 31
ATOM     31  CG  LEU D 693       9.163 -11.441  40.526  1.00 55.29 LIG-0.02  C 
ATOM     32  CD1 LEU D 693      10.474 -11.402  39.753  1.00 47.80 LIG 0.01  C 
ATOM     33  CD2 LEU D 693       8.848 -10.084  41.171  1.00 51.02 LIG 0.01  C 
ENDBRANCH 30 31
ENDBRANCH 6 30
ENDBRANCH 3 6
ENDBRANCH 1 2
BRANCH 1 34
ATOM     34  CB  ARG D 692      11.688 -15.531  40.350  1.00 49.09 LIG 0.04  C 
BRANCH 34 35
ATOM     35  CG  ARG D 692      12.773 -14.882  39.469  1.00 50.62 LIG 0.02  C 
BRANCH 35 36
ATOM     36  CD  ARG D 692      13.907 -15.815  39.070  1.00 57.04 LIG 0.14  C 
BRANCH 36 37
ATOM     37  NE  ARG D 692      15.147 -15.352  39.665  1.00 60.90 LIG-0.23  N 
ATOM     38 HE   ARG D 692      15.287 -15.544  40.492  1.00 60.90 LIG 0.18  HD
ATOM     39  CZ  ARG D 692      16.078 -14.657  39.029  1.00 61.50 LIG 0.67  C 
ATOM     40  NH1 ARG D 692      15.878 -14.252  37.776  1.00 46.48 LIG-0.23  N 
ATOM     41  NH2 ARG D 692      17.192 -14.328  39.669  1.00 64.68 LIG-0.23  N 
ATOM     42 1HH1 ARG D 692      15.141 -14.442  37.375  1.00 46.48 LIG 0.17  HD
ATOM     43 2HH1 ARG D 692      16.486 -13.801  37.369  1.00 46.48 LIG 0.17  HD
ATOM     44 1HH2 ARG D 692      17.304 -14.566  40.488  1.00 64.68 LIG 0.17  HD
ATOM     45 2HH2 ARG D 692      17.803 -13.877  39.266  1.00 64.68 LIG 0.17  HD
ENDBRANCH 36 37
ENDBRANCH 35 36
ENDBRANCH 34 35
ENDBRANCH 1 34
BRANCH 1 46
ATOM     46  N   ARG D 692      10.850 -16.108  38.049  1.00 43.06 LIG-0.35  N 
ATOM     47  C   HIS D 691      10.061 -16.696  37.167  1.00 44.11 LIG 0.24  C 
ATOM     48 O    HIS D 691       9.039 -17.294  37.472  1.00 43.39 LIG-0.27  OA
ATOM     49 H    ARG D 692      11.583 -15.707  37.844  1.00 43.06 LIG 0.16  HD
BRANCH 47 50
ATOM     50  CA  HIS D 691      10.493 -16.582  35.755  1.00 41.80 LIG 0.18  C 
BRANCH 50 51
ATOM     51  CB  HIS D 691      11.559 -17.607  35.572  1.00 51.00 LIG 0.10  C 
BRANCH 51 52
ATOM     52  CG  HIS D 691      12.091 -17.692  34.201  1.00 57.86 LIG 0.06  A 
ATOM     53 ND1  HIS D 691      13.120 -16.968  33.795  1.00 60.60 LIG-0.24  NA
ATOM     54  CE1 HIS D 691      13.375 -17.246  32.520  1.00 72.50 LIG 0.23  A 
ATOM     55 NE2  HIS D 691      12.484 -18.142  32.103  1.00 67.35 LIG-0.25  NA
ATOM     56  CD2 HIS D 691      11.676 -18.434  33.113  1.00 66.29 LIG 0.14  A 
ENDBRANCH 51 52
ENDBRANCH 50 51
BRANCH 50 57
ATOM     57  N   HIS D 691      11.039 -15.272  35.481  1.00 39.94 LIG-0.35  N 
ATOM     58 H    HIS D 691      11.821 -15.289  35.125  1.00 39.94 LIG 0.16  HD
ATOM     59  C   LEU D 690      10.390 -14.152  35.757  1.00 35.88 LIG 0.24  C 
ATOM     60 O    LEU D 690       9.244 -14.130  36.255  1.00 34.66 LIG-0.27  OA
BRANCH 59 61
ATOM     61  CA  LEU D 690      11.130 -12.861  35.494  1.00 33.43 LIG 0.18  C 
BRANCH 61 62
ATOM     62  CB  LEU D 690      10.279 -11.949  34.609  1.00 31.34 LIG 0.04  C 
BRANCH 62 63
ATOM     63  CG  LEU D 690      10.913 -10.629  34.185  1.00 30.93 LIG-0.02  C 
ATOM     64  CD1 LEU D 690      11.134 -10.619  32.680  1.00 30.90 LIG 0.01  C 
ATOM     65  CD2 LEU D 690      10.004  -9.477  34.573  1.00 28.62 LIG 0.01  C 
ENDBRANCH 62 63
ENDBRANCH 61 62
BRANCH 61 66
ATOM     66  N   LEU D 690      12.424 -13.109  34.856  1.00 35.22 LIG-0.35  N 
ATOM     67 H    LEU D 690      12.418 -13.033  34.000  1.00 35.22 LIG 0.16  HD
ATOM     68  C   ILE D 689      13.503 -13.422  35.563  1.00 41.04 LIG 0.26  C 
ATOM     69 O    ILE D 689      13.501 -13.470  36.802  1.00 39.56 LIG-0.27  OA
BRANCH 68 70
ATOM     70  CA  ILE D 689      14.789 -13.674  34.748  1.00 40.35 LIG 0.40  C 
ATOM     71  N   ILE D 689      14.513 -13.867  33.270  1.00 40.45 LIG 0.61  N 
BRANCH 70 72
ATOM     72  CB  ILE D 689      15.750 -12.489  35.015  1.00 42.26 LIG 0.03  C 
ATOM     73  CG2 ILE D 689      17.013 -12.602  34.142  1.00 38.55 LIG 0.01  C 
BRANCH 72 74
ATOM     74  CG1 ILE D 689      15.049 -11.142  34.819  1.00 45.91 LIG 0.00  C 
ATOM     75  CD1 ILE D 689      15.603 -10.302  33.669  1.00 45.96 LIG 0.01  C 
ENDBRANCH 72 74
ENDBRANCH 70 72
ENDBRANCH 68 70
ENDBRANCH 61 66
ENDBRANCH 59 61
ENDBRANCH 50 57
ENDBRANCH 47 50
ENDBRANCH 1 46
TORSDOF 30
ENDMDL
MODEL 2
USER: ADFR SOLUTION from run 68
USER: SCORE 22.378283 LL:  -8.091 LR: -14.609 RR:   0.000 FEB:  -5.660
USER: RMSD 4.076392
USER: SEED 67
USER: STATUS no improvement in best in 13 clusters for 5 generations
USER: GENES 32
USER: genes 0 Translation |==|  0.64985 0.49728 0.48669
USER: genes 1 Rotation |==|  0.45486 0.61341 0.54355 0.98291
USER: genes 2 Torsion [N]-CA--C-[N] |==|  0.88919
USER: genes 3 Torsion [C]-N--CA-[C] |==|  0.71111
USER: genes 4 Torsion [N]-CA--C-[N] |==|  0.95656
USER: genes 5 Torsion [C]-N--CA-[C] |==|  0.79730
USER: genes 6 Torsion [N]-CA--C-[N] |==|  0.91718
USER: genes 7 Torsion [C]-N--CA-[CB] |==|  0.24275
USER: genes 8 Torsion [N]-CA--CB-[CG] |==|  0.61140
USER: genes 9 Torsion [CA]-CB--CG-[CD] |==|  0.28712
USER: genes 10 Torsion [CB]-CG--CD-[NE2] |==|  0.36693
USER: genes 11 Torsion [N]-CA--C-[O] |==|  0.08250
USER: genes 12 Torsion [N]-CA--CB-[CG] |==|  0.53679
USER: genes 13 Torsion [CA]-CB--CG-[CD2] |==|  0.07285
USER: genes 14 Torsion [N]-CA--CB-[CG] |==|  0.65809
USER: genes 15 Torsion [CA]-CB--CG-[CD1] |==|  0.30654
USER: genes 16 Torsion [C]-CA--CB-[CG] |==|  0.06154
USER: genes 17 Torsion [CA]-CB--CG-[CD] |==|  0.58747
USER: genes 18 Torsion [CB]-CG--CD-[NE] |==|  0.10706
USER: genes 19 Torsion [CG]-CD--NE-[CZ] |==|  0.36733
USER: genes 20 Torsion [C]-CA--N-[C] |==|  0.81937
USER: genes 21 Torsion [N]-C--CA-[N] |==|  0.90459
USER: genes 22 Torsion [C]-CA--CB-[CG] |==|  0.36775
USER: genes 23 Torsion [CA]-CB--CG-[ND1] |==|  0.81991
USER: genes 24 Torsion [C]-CA--N-[C] |==|  0.83985
USER: genes 25 Torsion [N]-C--CA-[N] |==|  0.92883
USER: genes 26 Torsion [C]-CA--CB-[CG] |==|  0.21840
USER: genes 27 Torsion [CA]-CB--CG-[CD2] |==|  0.05333
USER: genes 28 Torsion [C]-CA--N-[C] |==|  0.79621
USER: genes 29 Torsion [N]-C--CA-[N] |==|  0.62409
USER: genes 30 Torsion [C]-CA--CB-[CG1] |==|  0.72807
USER: genes 31 Torsion [CA]-CB--CG1-[CD1] |==|  0.28515
ROOT
ATOM      1  CA  ARG D 692      12.975 -15.053  38.659  1.00 48.73 LIG 0.18  C 
ENDROOT
BRANCH 1 2
ATOM      2  C   ARG D 692      11.859 -14.258  39.318  1.00 46.10 LIG 0.24  C 
ATOM      3  N   LEU D 693      11.519 -13.095  38.770  1.00 50.64 LIG-0.35  N 
ATOM      4 H    LEU D 693      11.868 -12.761  38.059  1.00 50.64 LIG 0.16  HD
ATOM      5 O    ARG D 692      11.360 -14.647  40.373  1.00 52.04 LIG-0.27  OA
BRANCH 3 6
ATOM      6  CA  LEU D 693      10.469 -12.287  39.400  1.00 43.34 LIG 0.18  C 
BRANCH 6 7
ATOM      7  C   LEU D 693       9.151 -12.369  38.642  1.00 37.95 LIG 0.24  C 
ATOM      8  N   LEU D 694       9.210 -12.850  37.417  1.00 39.22 LIG-0.35  N 
ATOM      9 H    LEU D 694       9.944 -13.067  37.027  1.00 39.22 LIG 0.16  HD
ATOM     10 O    LEU D 693       8.104 -11.970  39.165  1.00 43.86 LIG-0.27  OA
BRANCH 8 11
ATOM     11  CA  LEU D 694       8.035 -13.059  36.613  1.00 38.59 LIG 0.18  C 
BRANCH 11 12
ATOM     12  C   LEU D 694       7.293 -14.243  37.142  1.00 46.22 LIG 0.24  C 
ATOM     13  N   GLN D 695       8.049 -15.162  37.716  1.00 66.87 LIG-0.35  N 
ATOM     14 H    GLN D 695       8.906 -15.107  37.697  1.00 66.87 LIG 0.16  HD
ATOM     15 O    LEU D 694       6.105 -14.328  36.975  1.00 54.70 LIG-0.27  OA
BRANCH 13 16
ATOM     16  CA  GLN D 695       7.595 -16.358  38.437  1.00 62.86 LIG 0.16  C 
BRANCH 16 17
ATOM     17  CB  GLN D 695       7.389 -17.509  37.490  1.00 63.26 LIG 0.04  C 
BRANCH 17 18
ATOM     18  CG  GLN D 695       6.157 -18.299  37.843  1.00 77.24 LIG 0.10  C 
BRANCH 18 19
ATOM     19  CD  GLN D 695       5.022 -18.012  36.947  1.00 84.08 LIG 0.21  C 
ATOM     20 OE1  GLN D 695       4.727 -16.865  36.677  1.00 83.40 LIG-0.27  OA
ATOM     21  NE2 GLN D 695       4.378 -19.053  36.454  1.00 79.17 LIG-0.37  N 
ATOM     22 22HE GLN D 695       3.718 -18.934  35.916  1.00 79.17 LIG 0.16  HD
ATOM     23 21HE GLN D 695       4.619 -19.849  36.670  1.00 79.17 LIG 0.16  HD
ENDBRANCH 18 19
ENDBRANCH 17 18
ENDBRANCH 16 17
BRANCH 16 24
ATOM     24  C   GLN D 695       8.418 -16.779  39.653  1.00 61.14 LIG 0.22  C 
ATOM     25 O    GLN D 695       9.026 -15.942  40.327  1.00 66.66 LIG-0.29  OA
ENDBRANCH 16 24
ENDBRANCH 13 16
ENDBRANCH 11 12
BRANCH 11 26
ATOM     26  CB  LEU D 694       8.395 -13.349  35.172  1.00 34.51 LIG 0.04  C 
BRANCH 26 27
ATOM     27  CG  LEU D 694       7.335 -13.304  34.100  1.00 27.71 LIG-0.02  C 
ATOM     28  CD2 LEU D 694       6.188 -12.400  34.440  1.00 26.48 LIG 0.01  C 
ATOM     29  CD1 LEU D 694       6.867 -14.664  33.668  1.00 27.00 LIG 0.01  C 
ENDBRANCH 26 27
ENDBRANCH 11 26
ENDBRANCH 8 11
ENDBRANCH 6 7
BRANCH 6 30
ATOM     30  CB  LEU D 693      10.899 -10.823  39.591  1.00 45.67 LIG 0.04  C 
BRANCH 30 31
ATOM     31  CG  LEU D 693      10.843 -10.289  41.031  1.00 55.29 LIG-0.02  C 
ATOM     32  CD1 LEU D 693      12.244 -10.054  41.579  1.00 47.80 LIG 0.01  C 
ATOM     33  CD2 LEU D 693       9.972  -9.029  41.151  1.00 51.02 LIG 0.01  C 
ENDBRANCH 30 31
ENDBRANCH 6 30
ENDBRANCH 3 6
ENDBRANCH 1 2
BRANCH 1 34
ATOM     34  CB  ARG D 692      14.323 -14.583  39.245  1.00 49.09 LIG 0.04  C 
BRANCH 34 35
ATOM     35  CG  ARG D 692      14.135 -13.919  40.623  1.00 50.62 LIG 0.02  C 
BRANCH 35 36
ATOM     36  CD  ARG D 692      15.136 -12.817  40.938  1.00 57.04 LIG 0.14  C 
BRANCH 36 37
ATOM     37  NE  ARG D 692      15.398 -12.043  39.740  1.00 60.90 LIG-0.23  N 
ATOM     38 HE   ARG D 692      15.569 -12.475  39.016  1.00 60.90 LIG 0.18  HD
ATOM     39  CZ  ARG D 692      15.392 -10.720  39.678  1.00 61.50 LIG 0.67  C 
ATOM     40  NH1 ARG D 692      15.224  -9.994  40.782  1.00 46.48 LIG-0.23  N 
ATOM     41  NH2 ARG D 692      15.603 -10.125  38.511  1.00 64.68 LIG-0.23  N 
ATOM     42 1HH1 ARG D 692      15.118 -10.385  41.541  1.00 46.48 LIG 0.17  HD
ATOM     43 2HH1 ARG D 692      15.222  -9.135  40.735  1.00 46.48 LIG 0.17  HD
ATOM     44 1HH2 ARG D 692      15.741 -10.597  37.806  1.00 64.68 LIG 0.17  HD
ATOM     45 2HH2 ARG D 692      15.602  -9.266  38.459  1.00 64.68 LIG 0.17  HD
ENDBRANCH 36 37
ENDBRANCH 35 36
ENDBRANCH 34 35
ENDBRANCH 1 34
BRANCH 1 46
ATOM     46  N   ARG D 692      12.971 -15.058  37.177  1.00 43.06 LIG-0.35  N 
ATOM     47  C   HIS D 691      11.994 -15.616  36.483  1.00 44.11 LIG 0.24  C 
ATOM     48 O    HIS D 691      11.050 -16.196  36.998  1.00 43.39 LIG-0.27  OA
ATOM     49 H    ARG D 692      13.652 -14.670  36.821  1.00 43.06 LIG 0.16  HD
BRANCH 47 50
ATOM     50  CA  HIS D 691      12.111 -15.491  35.012  1.00 41.80 LIG 0.18  C 
BRANCH 50 51
ATOM     51  CB  HIS D 691      12.999 -16.605  34.578  1.00 51.00 LIG 0.10  C 
BRANCH 51 52
ATOM     52  CG  HIS D 691      12.491 -17.375  33.429  1.00 57.86 LIG 0.06  A 
ATOM     53 ND1  HIS D 691      11.385 -18.094  33.493  1.00 60.60 LIG-0.24  NA
ATOM     54  CE1 HIS D 691      11.175 -18.679  32.317  1.00 72.50 LIG 0.23  A 
ATOM     55 NE2  HIS D 691      12.171 -18.345  31.502  1.00 67.35 LIG-0.25  NA
ATOM     56  CD2 HIS D 691      13.002 -17.547  32.157  1.00 66.29 LIG 0.14  A 
ENDBRANCH 51 52
ENDBRANCH 50 51
BRANCH 50 57
ATOM     57  N   HIS D 691      12.713 -14.229  34.643  1.00 39.94 LIG-0.35  N 
ATOM     58 H    HIS D 691      13.427 -14.310  34.171  1.00 39.94 LIG 0.16  HD
ATOM     59  C   LEU D 690      12.207 -13.060  35.000  1.00 35.88 LIG 0.24  C 
ATOM     60 O    LEU D 690      11.156 -12.945  35.667  1.00 34.66 LIG-0.27  OA
BRANCH 59 61
ATOM     61  CA  LEU D 690      13.000 -11.834  34.612  1.00 33.43 LIG 0.18  C 
BRANCH 61 62
ATOM     62  CB  LEU D 690      12.448 -11.253  33.309  1.00 31.34 LIG 0.04  C 
BRANCH 62 63
ATOM     63  CG  LEU D 690      11.174 -10.423  33.420  1.00 30.93 LIG-0.02  C 
ATOM     64  CD1 LEU D 690       9.975 -11.253  32.988  1.00 30.90 LIG 0.01  C 
ATOM     65  CD2 LEU D 690      10.986  -9.964  34.853  1.00 28.62 LIG 0.01  C 
ENDBRANCH 62 63
ENDBRANCH 61 62
BRANCH 61 66
ATOM     66  N   LEU D 690      14.421 -12.146  34.457  1.00 35.22 LIG-0.35  N 
ATOM     67 H    LEU D 690      14.694 -12.163  33.641  1.00 35.22 LIG 0.16  HD
ATOM     68  C   ILE D 689      15.205 -12.380  35.503  1.00 41.04 LIG 0.26  C 
ATOM     69 O    ILE D 689      14.802 -12.294  36.673  1.00 39.56 LIG-0.27  OA
BRANCH 68 70
ATOM     70  CA  ILE D 689      16.676 -12.715  35.179  1.00 40.35 LIG 0.40  C 
ATOM     71  N   ILE D 689      17.197 -13.887  35.986  1.00 40.45 LIG 0.61  N 
BRANCH 70 72
ATOM     72  CB  ILE D 689      16.771 -12.964  33.653  1.00 42.26 LIG 0.03  C 
ATOM     73  CG2 ILE D 689      18.024 -12.289  33.066  1.00 38.55 LIG 0.01  C 
BRANCH 72 74
ATOM     74  CG1 ILE D 689      16.731 -14.459  33.324  1.00 45.91 LIG 0.00  C 
ATOM     75  CD1 ILE D 689      15.385 -14.955  32.797  1.00 45.96 LIG 0.01  C 
ENDBRANCH 72 74
ENDBRANCH 70 72
ENDBRANCH 68 70
ENDBRANCH 61 66
ENDBRANCH 59 61
ENDBRANCH 50 57
ENDBRANCH 47 50
ENDBRANCH 1 46
TORSDOF 30
ENDMDL
MODEL 3
USER: ADFR SOLUTION from run 30
USER: SCORE 21.924723 LL:  -7.897 LR: -14.520 RR:   0.000 FEB:  -5.571
USER: RMSD 3.291579
USER: SEED 29
USER: STATUS no improvement in best in 14 clusters for 5 generations
USER: GENES 32
USER: genes 0 Translation |==|  0.56902 0.45657 0.52787
USER: genes 1 Rotation |==|  0.46335 0.59540 0.52161 0.98897
USER: genes 2 Torsion [N]-CA--C-[N] |==|  0.94799
USER: genes 3 Torsion [C]-N--CA-[C] |==|  0.69198
USER: genes 4 Torsion [N]-CA--C-[N] |==|  0.89191
USER: genes 5 Torsion [C]-N--CA-[C] |==|  0.80867
USER: genes 6 Torsion [N]-CA--C-[N] |==|  0.92147
USER: genes 7 Torsion [C]-N--CA-[CB] |==|  0.30967
USER: genes 8 Torsion [N]-CA--CB-[CG] |==|  0.69000
USER: genes 9 Torsion [CA]-CB--CG-[CD] |==|  0.09755
USER: genes 10 Torsion [CB]-CG--CD-[NE2] |==|  0.69618
USER: genes 11 Torsion [N]-CA--C-[O] |==|  0.37764
USER: genes 12 Torsion [N]-CA--CB-[CG] |==|  0.75131
USER: genes 13 Torsion [CA]-CB--CG-[CD2] |==|  0.83154
USER: genes 14 Torsion [N]-CA--CB-[CG] |==|  0.91632
USER: genes 15 Torsion [CA]-CB--CG-[CD1] |==|  0.25609
USER: genes 16 Torsion [C]-CA--CB-[CG] |==|  0.70048
USER: genes 17 Torsion [CA]-CB--CG-[CD] |==|  0.49626
USER: genes 18 Torsion [CB]-CG--CD-[NE] |==|  0.58554
USER: genes 19 Torsion [CG]-CD--NE-[CZ] |==|  0.21374
USER: genes 20 Torsion [C]-CA--N-[C] |==|  0.77222
USER: genes 21 Torsion [N]-C--CA-[N] |==|  0.89972
USER: genes 22 Torsion [C]-CA--CB-[CG] |==|  0.42505
USER: genes 23 Torsion [CA]-CB--CG-[ND1] |==|  0.86924
USER: genes 24 Torsion [C]-CA--N-[C] |==|  0.83582
USER: genes 25 Torsion [N]-C--CA-[N] |==|  0.99628
USER: genes 26 Torsion [C]-CA--CB-[CG] |==|  0.49301
USER: genes 27 Torsion [CA]-CB--CG-[CD2] |==|  0.23684
USER: genes 28 Torsion [C]-CA--N-[C] |==|  0.77407
USER: genes 29 Torsion [N]-C--CA-[N] |==|  0.88705
USER: genes 30 Torsion [C]-CA--CB-[CG1] |==|  0.47775
USER: genes 31 Torsion [CA]-CB--CG1-[CD1] |==|  0.92213
ROOT
ATOM      1  CA  ARG D 692      11.156 -15.816  39.462  1.00 48.73 LIG 0.18  C 
ENDROOT
BRANCH 1 2
ATOM      2  C   ARG D 692      10.064 -14.938  40.051  1.00 46.10 LIG 0.24  C 
ATOM      3  N   LEU D 693       9.574 -13.963  39.289  1.00 50.64 LIG-0.35  N 
ATOM      4 H    LEU D 693       9.812 -13.800  38.479  1.00 50.64 LIG 0.16  HD
ATOM      5 O    ARG D 692       9.721 -15.076  41.224  1.00 52.04 LIG-0.27  OA
BRANCH 3 6
ATOM      6  CA  LEU D 693       8.543 -13.077  39.837  1.00 43.34 LIG 0.18  C 
BRANCH 6 7
ATOM      7  C   LEU D 693       7.188 -13.294  39.176  1.00 37.95 LIG 0.24  C 
ATOM      8  N   LEU D 694       7.201 -13.519  37.878  1.00 39.22 LIG-0.35  N 
ATOM      9 H    LEU D 694       7.915 -13.501  37.400  1.00 39.22 LIG 0.16  HD
ATOM     10 O    LEU D 693       6.149 -13.227  39.843  1.00 43.86 LIG-0.27  OA
BRANCH 8 11
ATOM     11  CA  LEU D 694       6.006 -13.819  37.135  1.00 38.59 LIG 0.18  C 
BRANCH 11 12
ATOM     12  C   LEU D 694       5.514 -15.171  37.540  1.00 46.22 LIG 0.24  C 
ATOM     13  N   GLN D 695       6.452 -16.003  37.954  1.00 66.87 LIG-0.35  N 
ATOM     14 H    GLN D 695       7.285 -15.795  37.903  1.00 66.87 LIG 0.16  HD
ATOM     15 O    LEU D 694       4.349 -15.444  37.419  1.00 54.70 LIG-0.27  OA
BRANCH 13 16
ATOM     16  CA  GLN D 695       6.258 -17.338  38.535  1.00 62.86 LIG 0.16  C 
BRANCH 16 17
ATOM     17  CB  GLN D 695       6.755 -18.406  37.600  1.00 63.26 LIG 0.04  C 
BRANCH 17 18
ATOM     18  CG  GLN D 695       5.620 -19.227  37.048  1.00 77.24 LIG 0.10  C 
BRANCH 18 19
ATOM     19  CD  GLN D 695       4.401 -18.430  36.821  1.00 84.08 LIG 0.21  C 
ATOM     20 OE1  GLN D 695       4.353 -17.626  35.911  1.00 83.40 LIG-0.27  OA
ATOM     21  NE2 GLN D 695       3.386 -18.654  37.634  1.00 79.17 LIG-0.37  N 
ATOM     22 22HE GLN D 695       2.649 -18.222  37.530  1.00 79.17 LIG 0.16  HD
ATOM     23 21HE GLN D 695       3.460 -19.232  38.266  1.00 79.17 LIG 0.16  HD
ENDBRANCH 18 19
ENDBRANCH 17 18
ENDBRANCH 16 17
BRANCH 16 24
ATOM     24  C   GLN D 695       6.784 -17.552  39.953  1.00 61.14 LIG 0.22  C 
ATOM     25 O    GLN D 695       6.109 -18.148  40.796  1.00 66.66 LIG-0.29  OA
ENDBRANCH 16 24
ENDBRANCH 13 16
ENDBRANCH 11 12
BRANCH 11 26
ATOM     26  CB  LEU D 694       6.274 -13.855  35.646  1.00 34.51 LIG 0.04  C 
BRANCH 26 27
ATOM     27  CG  LEU D 694       6.150 -12.599  34.820  1.00 27.71 LIG-0.02  C 
ATOM     28  CD2 LEU D 694       4.773 -12.007  34.848  1.00 26.48 LIG 0.01  C 
ATOM     29  CD1 LEU D 694       6.666 -12.754  33.419  1.00 27.00 LIG 0.01  C 
ENDBRANCH 26 27
ENDBRANCH 11 26
ENDBRANCH 8 11
ENDBRANCH 6 7
BRANCH 6 30
ATOM     30  CB  LEU D 693       8.953 -11.596  39.767  1.00 45.67 LIG 0.04  C 
BRANCH 30 31
ATOM     31  CG  LEU D 693      10.460 -11.310  39.859  1.00 55.29 LIG-0.02  C 
ATOM     32  CD1 LEU D 693      11.088 -11.252  38.472  1.00 47.80 LIG 0.01  C 
ATOM     33  CD2 LEU D 693      10.764 -10.042  40.669  1.00 51.02 LIG 0.01  C 
ENDBRANCH 30 31
ENDBRANCH 6 30
ENDBRANCH 3 6
ENDBRANCH 1 2
BRANCH 1 34
ATOM     34  CB  ARG D 692      12.488 -15.478  40.164  1.00 49.09 LIG 0.04  C 
BRANCH 34 35
ATOM     35  CG  ARG D 692      13.435 -14.703  39.228  1.00 50.62 LIG 0.02  C 
BRANCH 35 36
ATOM     36  CD  ARG D 692      14.762 -14.303  39.857  1.00 57.04 LIG 0.14  C 
BRANCH 36 37
ATOM     37  NE  ARG D 692      15.226 -13.064  39.262  1.00 60.90 LIG-0.23  N 
ATOM     38 HE   ARG D 692      15.856 -13.114  38.679  1.00 60.90 LIG 0.18  HD
ATOM     39  CZ  ARG D 692      14.751 -11.862  39.552  1.00 61.50 LIG 0.67  C 
ATOM     40  NH1 ARG D 692      13.839 -11.710  40.511  1.00 46.48 LIG-0.23  N 
ATOM     41  NH2 ARG D 692      15.227 -10.804  38.907  1.00 64.68 LIG-0.23  N 
ATOM     42 1HH1 ARG D 692      13.556 -12.396  40.947  1.00 46.48 LIG 0.17  HD
ATOM     43 2HH1 ARG D 692      13.535 -10.927  40.694  1.00 46.48 LIG 0.17  HD
ATOM     44 1HH2 ARG D 692      15.837 -10.904  38.310  1.00 64.68 LIG 0.17  HD
ATOM     45 2HH2 ARG D 692      14.926 -10.019  39.087  1.00 64.68 LIG 0.17  HD
ENDBRANCH 36 37
ENDBRANCH 35 36
ENDBRANCH 34 35
ENDBRANCH 1 34
BRANCH 1 46
ATOM     46  N   ARG D 692      11.272 -15.794  37.985  1.00 43.06 LIG-0.35  N 
ATOM     47  C   HIS D 691      10.490 -16.529  37.212  1.00 44.11 LIG 0.24  C 
ATOM     48 O    HIS D 691       9.647 -17.300  37.647  1.00 43.39 LIG-0.27  OA
ATOM     49 H    ARG D 692      11.884 -15.268  37.686  1.00 43.06 LIG 0.16  HD
BRANCH 47 50
ATOM     50  CA  HIS D 691      10.695 -16.355  35.756  1.00 41.80 LIG 0.18  C 
BRANCH 50 51
ATOM     51  CB  HIS D 691      11.855 -17.222  35.402  1.00 51.00 LIG 0.10  C 
BRANCH 51 52
ATOM     52  CG  HIS D 691      11.855 -17.695  34.008  1.00 57.86 LIG 0.06  A 
ATOM     53 ND1  HIS D 691      10.781 -18.209  33.433  1.00 60.60 LIG-0.24  NA
ATOM     54  CE1 HIS D 691      11.075 -18.552  32.183  1.00 72.50 LIG 0.23  A 
ATOM     55 NE2  HIS D 691      12.357 -18.273  31.964  1.00 67.35 LIG-0.25  NA
ATOM     56  CD2 HIS D 691      12.868 -17.748  33.069  1.00 66.29 LIG 0.14  A 
ENDBRANCH 51 52
ENDBRANCH 50 51
BRANCH 50 57
ATOM     57  N   HIS D 691      11.011 -14.981  35.434  1.00 39.94 LIG-0.35  N 
ATOM     58 H    HIS D 691      11.770 -14.882  35.043  1.00 39.94 LIG 0.16  HD
ATOM     59  C   LEU D 690      10.202 -13.973  35.719  1.00 35.88 LIG 0.24  C 
ATOM     60 O    LEU D 690       9.090 -14.123  36.268  1.00 34.66 LIG-0.27  OA
BRANCH 59 61
ATOM     61  CA  LEU D 690      10.713 -12.587  35.400  1.00 33.43 LIG 0.18  C 
BRANCH 61 62
ATOM     62  CB  LEU D 690       9.768 -11.903  34.411  1.00 31.34 LIG 0.04  C 
BRANCH 62 63
ATOM     63  CG  LEU D 690      10.107 -10.467  34.028  1.00 30.93 LIG-0.02  C 
ATOM     64  CD1 LEU D 690      10.699  -9.737  35.224  1.00 30.90 LIG 0.01  C 
ATOM     65  CD2 LEU D 690      11.105 -10.466  32.885  1.00 28.62 LIG 0.01  C 
ENDBRANCH 62 63
ENDBRANCH 61 62
BRANCH 61 66
ATOM     66  N   LEU D 690      12.067 -12.633  34.845  1.00 35.22 LIG-0.35  N 
ATOM     67 H    LEU D 690      12.101 -12.582  33.987  1.00 35.22 LIG 0.16  HD
ATOM     68  C   ILE D 689      13.138 -12.744  35.622  1.00 41.04 LIG 0.26  C 
ATOM     69 O    ILE D 689      13.067 -12.760  36.860  1.00 39.56 LIG-0.27  OA
BRANCH 68 70
ATOM     70  CA  ILE D 689      14.495 -12.800  34.890  1.00 40.35 LIG 0.40  C 
ATOM     71  N   ILE D 689      14.445 -13.650  33.635  1.00 40.45 LIG 0.61  N 
BRANCH 70 72
ATOM     72  CB  ILE D 689      14.925 -11.342  34.594  1.00 42.26 LIG 0.03  C 
ATOM     73  CG2 ILE D 689      14.759 -10.459  35.844  1.00 38.55 LIG 0.01  C 
BRANCH 72 74
ATOM     74  CG1 ILE D 689      16.353 -11.277  34.044  1.00 45.91 LIG 0.00  C 
ATOM     75  CD1 ILE D 689      17.260 -12.418  34.504  1.00 45.96 LIG 0.01  C 
ENDBRANCH 72 74
ENDBRANCH 70 72
ENDBRANCH 68 70
ENDBRANCH 61 66
ENDBRANCH 59 61
ENDBRANCH 50 57
ENDBRANCH 47 50
ENDBRANCH 1 46
TORSDOF 30
ENDMDL
MODEL 4
USER: ADFR SOLUTION from run 95
USER: SCORE 21.448530 LL:  -7.616 LR: -14.494 RR:   0.000 FEB:  -5.545
USER: RMSD 3.679051
USER: SEED 94
USER: STATUS no improvement in best in 11 clusters for 5 generations
USER: GENES 32
USER: genes 0 Translation |==|  0.57187 0.45506 0.52195
USER: genes 1 Rotation |==|  0.44352 0.60843 0.52778 0.98403
USER: genes 2 Torsion [N]-CA--C-[N] |==|  0.93643
USER: genes 3 Torsion [C]-N--CA-[C] |==|  0.65601
USER: genes 4 Torsion [N]-CA--C-[N] |==|  0.00641
USER: genes 5 Torsion [C]-N--CA-[C] |==|  0.78184
USER: genes 6 Torsion [N]-CA--C-[N] |==|  0.15752
USER: genes 7 Torsion [C]-N--CA-[CB] |==|  0.62113
USER: genes 8 Torsion [N]-CA--CB-[CG] |==|  0.16393
USER: genes 9 Torsion [CA]-CB--CG-[CD] |==|  0.67817
USER: genes 10 Torsion [CB]-CG--CD-[NE2] |==|  0.08656
USER: genes 11 Torsion [N]-CA--C-[O] |==|  0.40082
USER: genes 12 Torsion [N]-CA--CB-[CG] |==|  0.66012
USER: genes 13 Torsion [CA]-CB--CG-[CD2] |==|  0.30314
USER: genes 14 Torsion [N]-CA--CB-[CG] |==|  0.95635
USER: genes 15 Torsion [CA]-CB--CG-[CD1] |==|  0.24665
USER: genes 16 Torsion [C]-CA--CB-[CG] |==|  0.78956
USER: genes 17 Torsion [CA]-CB--CG-[CD] |==|  0.45003
USER: genes 18 Torsion [CB]-CG--CD-[NE] |==|  0.44869
USER: genes 19 Torsion [CG]-CD--NE-[CZ] |==|  0.33119
USER: genes 20 Torsion [C]-CA--N-[C] |==|  0.81288
USER: genes 21 Torsion [N]-C--CA-[N] |==|  0.88889
USER: genes 22 Torsion [C]-CA--CB-[CG] |==|  0.49675
USER: genes 23 Torsion [CA]-CB--CG-[ND1] |==|  0.78642
USER: genes 24 Torsion [C]-CA--N-[C] |==|  0.84433
USER: genes 25 Torsion [N]-C--CA-[N] |==|  0.97087
USER: genes 26 Torsion [C]-CA--CB-[CG] |==|  0.42550
USER: genes 27 Torsion [CA]-CB--CG-[CD2] |==|  0.25329
USER: genes 28 Torsion [C]-CA--N-[C] |==|  0.76384
USER: genes 29 Torsion [N]-C--CA-[N] |==|  0.97310
USER: genes 30 Torsion [C]-CA--CB-[CG1] |==|  0.87214
USER: genes 31 Torsion [CA]-CB--CG1-[CD1] |==|  0.66819
ROOT
ATOM      1  CA  ARG D 692      11.220 -15.845  39.347  1.00 48.73 LIG 0.18  C 
ENDROOT
BRANCH 1 2
ATOM      2  C   ARG D 692      10.127 -14.961  39.926  1.00 46.10 LIG 0.24  C 
ATOM      3  N   LEU D 693       9.620 -14.010  39.146  1.00 50.64 LIG-0.35  N 
ATOM      4 H    LEU D 693       9.848 -13.864  38.330  1.00 50.64 LIG 0.16  HD
ATOM      5 O    ARG D 692       9.798 -15.074  41.106  1.00 52.04 LIG-0.27  OA
BRANCH 3 6
ATOM      6  CA  LEU D 693       8.588 -13.119  39.684  1.00 43.34 LIG 0.18  C 
BRANCH 6 7
ATOM      7  C   LEU D 693       7.320 -13.135  38.841  1.00 37.95 LIG 0.24  C 
ATOM      8  N   LEU D 694       7.313 -13.956  37.811  1.00 39.22 LIG-0.35  N 
ATOM      9 H    LEU D 694       7.991 -14.430  37.577  1.00 39.22 LIG 0.16  HD
ATOM     10 O    LEU D 693       6.376 -12.385  39.117  1.00 43.86 LIG-0.27  OA
BRANCH 8 11
ATOM     11  CA  LEU D 694       6.156 -14.135  36.974  1.00 38.59 LIG 0.18  C 
BRANCH 11 12
ATOM     12  C   LEU D 694       5.192 -15.037  37.674  1.00 46.22 LIG 0.24  C 
ATOM     13  N   GLN D 695       4.814 -14.627  38.871  1.00 66.87 LIG-0.35  N 
ATOM     14 H    GLN D 695       5.174 -13.939  39.239  1.00 66.87 LIG 0.16  HD
ATOM     15 O    LEU D 694       4.866 -16.076  37.162  1.00 54.70 LIG-0.27  OA
BRANCH 13 16
ATOM     16  CA  GLN D 695       3.785 -15.230  39.729  1.00 62.86 LIG 0.16  C 
BRANCH 16 17
ATOM     17  CB  GLN D 695       2.912 -14.169  40.343  1.00 63.26 LIG 0.04  C 
BRANCH 17 18
ATOM     18  CG  GLN D 695       2.229 -13.340  39.288  1.00 77.24 LIG 0.10  C 
BRANCH 18 19
ATOM     19  CD  GLN D 695       2.652 -11.928  39.312  1.00 84.08 LIG 0.21  C 
ATOM     20 OE1  GLN D 695       1.874 -11.048  39.000  1.00 83.40 LIG-0.27  OA
ATOM     21  NE2 GLN D 695       3.888 -11.686  39.704  1.00 79.17 LIG-0.37  N 
ATOM     22 22HE GLN D 695       4.175 -10.876  39.747  1.00 79.17 LIG 0.16  HD
ATOM     23 21HE GLN D 695       4.408 -12.337  39.917  1.00 79.17 LIG 0.16  HD
ENDBRANCH 18 19
ENDBRANCH 17 18
ENDBRANCH 16 17
BRANCH 16 24
ATOM     24  C   GLN D 695       2.949 -16.350  39.114  1.00 61.14 LIG 0.22  C 
ATOM     25 O    GLN D 695       2.576 -17.309  39.796  1.00 66.66 LIG-0.29  OA
ENDBRANCH 16 24
ENDBRANCH 13 16
ENDBRANCH 11 12
BRANCH 11 26
ATOM     26  CB  LEU D 694       6.521 -14.786  35.657  1.00 34.51 LIG 0.04  C 
BRANCH 26 27
ATOM     27  CG  LEU D 694       6.204 -14.095  34.355  1.00 27.71 LIG-0.02  C 
ATOM     28  CD2 LEU D 694       7.421 -13.580  33.647  1.00 26.48 LIG 0.01  C 
ATOM     29  CD1 LEU D 694       5.142 -13.041  34.484  1.00 27.00 LIG 0.01  C 
ENDBRANCH 26 27
ENDBRANCH 11 26
ENDBRANCH 8 11
ENDBRANCH 6 7
BRANCH 6 30
ATOM     30  CB  LEU D 693       9.101 -11.680  39.869  1.00 45.67 LIG 0.04  C 
BRANCH 30 31
ATOM     31  CG  LEU D 693      10.627 -11.501  39.836  1.00 55.29 LIG-0.02  C 
ATOM     32  CD1 LEU D 693      11.116 -11.267  38.413  1.00 47.80 LIG 0.01  C 
ATOM     33  CD2 LEU D 693      11.104 -10.392  40.786  1.00 51.02 LIG 0.01  C 
ENDBRANCH 30 31
ENDBRANCH 6 30
ENDBRANCH 3 6
ENDBRANCH 1 2
BRANCH 1 34
ATOM     34  CB  ARG D 692      12.573 -15.408  39.948  1.00 49.09 LIG 0.04  C 
BRANCH 34 35
ATOM     35  CG  ARG D 692      13.075 -14.099  39.308  1.00 50.62 LIG 0.02  C 
BRANCH 35 36
ATOM     36  CD  ARG D 692      14.147 -13.372  40.108  1.00 57.04 LIG 0.14  C 
BRANCH 36 37
ATOM     37  NE  ARG D 692      14.841 -12.434  39.247  1.00 60.90 LIG-0.23  N 
ATOM     38 HE   ARG D 692      15.257 -12.752  38.564  1.00 60.90 LIG 0.18  HD
ATOM     39  CZ  ARG D 692      14.882 -11.123  39.434  1.00 61.50 LIG 0.67  C 
ATOM     40  NH1 ARG D 692      14.336 -10.580  40.521  1.00 46.48 LIG-0.23  N 
ATOM     41  NH2 ARG D 692      15.514 -10.362  38.551  1.00 64.68 LIG-0.23  N 
ATOM     42 1HH1 ARG D 692      13.954 -11.082  41.106  1.00 46.48 LIG 0.17  HD
ATOM     43 2HH1 ARG D 692      14.366  -9.729  40.637  1.00 46.48 LIG 0.17  HD
ATOM     44 1HH2 ARG D 692      15.892 -10.720  37.866  1.00 64.68 LIG 0.17  HD
ATOM     45 2HH2 ARG D 692      15.547  -9.510  38.663  1.00 64.68 LIG 0.17  HD
ENDBRANCH 36 37
ENDBRANCH 35 36
ENDBRANCH 34 35
ENDBRANCH 1 34
BRANCH 1 46
ATOM     46  N   ARG D 692      11.258 -15.933  37.868  1.00 43.06 LIG-0.35  N 
ATOM     47  C   HIS D 691      10.297 -16.522  37.178  1.00 44.11 LIG 0.24  C 
ATOM     48 O    HIS D 691       9.332 -17.065  37.698  1.00 43.39 LIG-0.27  OA
ATOM     49 H    ARG D 692      11.952 -15.572  37.510  1.00 43.06 LIG 0.16  HD
BRANCH 47 50
ATOM     50  CA  HIS D 691      10.456 -16.482  35.707  1.00 41.80 LIG 0.18  C 
BRANCH 50 51
ATOM     51  CB  HIS D 691      11.455 -17.537  35.376  1.00 51.00 LIG 0.10  C 
BRANCH 51 52
ATOM     52  CG  HIS D 691      11.736 -17.677  33.937  1.00 57.86 LIG 0.06  A 
ATOM     53 ND1  HIS D 691      10.907 -18.289  33.110  1.00 60.60 LIG-0.24  NA
ATOM     54  CE1 HIS D 691      11.418 -18.268  31.882  1.00 72.50 LIG 0.23  A 
ATOM     55 NE2  HIS D 691      12.596 -17.654  31.932  1.00 67.35 LIG-0.25  NA
ATOM     56  CD2 HIS D 691      12.825 -17.282  33.184  1.00 66.29 LIG 0.14  A 
ENDBRANCH 51 52
ENDBRANCH 50 51
BRANCH 50 57
ATOM     57  N   HIS D 691      10.957 -15.197  35.272  1.00 39.94 LIG-0.35  N 
ATOM     58 H    HIS D 691      11.682 -15.244  34.811  1.00 39.94 LIG 0.16  HD
ATOM     59  C   LEU D 690      10.354 -14.056  35.561  1.00 35.88 LIG 0.24  C 
ATOM     60 O    LEU D 690       9.289 -13.990  36.213  1.00 34.66 LIG-0.27  OA
BRANCH 59 61
ATOM     61  CA  LEU D 690      11.049 -12.791  35.112  1.00 33.43 LIG 0.18  C 
BRANCH 61 62
ATOM     62  CB  LEU D 690      10.239 -12.124  33.999  1.00 31.34 LIG 0.04  C 
BRANCH 62 63
ATOM     63  CG  LEU D 690      10.392 -10.614  33.858  1.00 30.93 LIG-0.02  C 
ATOM     64  CD1 LEU D 690      10.708  -9.996  35.211  1.00 30.90 LIG 0.01  C 
ATOM     65  CD2 LEU D 690      11.511 -10.302  32.882  1.00 28.62 LIG 0.01  C 
ENDBRANCH 62 63
ENDBRANCH 61 62
BRANCH 61 66
ATOM     66  N   LEU D 690      12.408 -13.069  34.643  1.00 35.22 LIG-0.35  N 
ATOM     67 H    LEU D 690      12.474 -13.177  33.793  1.00 35.22 LIG 0.16  HD
ATOM     68  C   ILE D 689      13.435 -13.141  35.480  1.00 41.04 LIG 0.26  C 
ATOM     69 O    ILE D 689      13.324 -12.926  36.697  1.00 39.56 LIG-0.27  OA
BRANCH 68 70
ATOM     70  CA  ILE D 689      14.802 -13.461  34.839  1.00 40.35 LIG 0.40  C 
ATOM     71  N   ILE D 689      14.682 -13.865  33.383  1.00 40.45 LIG 0.61  N 
BRANCH 70 72
ATOM     72  CB  ILE D 689      15.708 -12.219  35.030  1.00 42.26 LIG 0.03  C 
ATOM     73  CG2 ILE D 689      17.013 -12.365  34.226  1.00 38.55 LIG 0.01  C 
BRANCH 72 74
ATOM     74  CG1 ILE D 689      14.970 -10.925  34.675  1.00 45.91 LIG 0.00  C 
ATOM     75  CD1 ILE D 689      15.603 -10.128  33.534  1.00 45.96 LIG 0.01  C 
ENDBRANCH 72 74
ENDBRANCH 70 72
ENDBRANCH 68 70
ENDBRANCH 61 66
ENDBRANCH 59 61
ENDBRANCH 50 57
ENDBRANCH 47 50
ENDBRANCH 1 46
TORSDOF 30
ENDMDL
MODEL 5
USER: ADFR SOLUTION from run 109
USER: SCORE 21.753093 LL:  -7.581 LR: -14.457 RR:   0.000 FEB:  -5.508
USER: RMSD 3.328941
USER: SEED 108
USER: STATUS no improvement in best in 19 clusters for 5 generations
USER: GENES 32
USER: genes 0 Translation |==|  0.53927 0.46977 0.52535
USER: genes 1 Rotation |==|  0.51087 0.51816 0.57988 0.99312
USER: genes 2 Torsion [N]-CA--C-[N] |==|  0.91919
USER: genes 3 Torsion [C]-N--CA-[C] |==|  0.75583
USER: genes 4 Torsion [N]-CA--C-[N] |==|  0.97222
USER: genes 5 Torsion [C]-N--CA-[C] |==|  0.71517
USER: genes 6 Torsion [N]-CA--C-[N] |==|  0.45051
USER: genes 7 Torsion [C]-N--CA-[CB] |==|  0.66095
USER: genes 8 Torsion [N]-CA--CB-[CG] |==|  0.71765
USER: genes 9 Torsion [CA]-CB--CG-[CD] |==|  0.35036
USER: genes 10 Torsion [CB]-CG--CD-[NE2] |==|  0.19397
USER: genes 11 Torsion [N]-CA--C-[O] |==|  0.60726
USER: genes 12 Torsion [N]-CA--CB-[CG] |==|  0.85673
USER: genes 13 Torsion [CA]-CB--CG-[CD2] |==|  0.80549
USER: genes 14 Torsion [N]-CA--CB-[CG] |==|  0.78254
USER: genes 15 Torsion [CA]-CB--CG-[CD1] |==|  0.24229
USER: genes 16 Torsion [C]-CA--CB-[CG] |==|  0.62248
USER: genes 17 Torsion [CA]-CB--CG-[CD] |==|  0.72299
USER: genes 18 Torsion [CB]-CG--CD-[NE] |==|  0.62414
USER: genes 19 Torsion [CG]-CD--NE-[CZ] |==|  0.73554
USER: genes 20 Torsion [C]-CA--N-[C] |==|  0.82805
USER: genes 21 Torsion [N]-C--CA-[N] |==|  0.87371
USER: genes 22 Torsion [C]-CA--CB-[CG] |==|  0.62978
USER: genes 23 Torsion [CA]-CB--CG-[ND1] |==|  0.25660
USER: genes 24 Torsion [C]-CA--N-[C] |==|  0.84844
USER: genes 25 Torsion [N]-C--CA-[N] |==|  0.91226
USER: genes 26 Torsion [C]-CA--CB-[CG] |==|  0.90365
USER: genes 27 Torsion [CA]-CB--CG-[CD2] |==|  0.63083
USER: genes 28 Torsion [C]-CA--N-[C] |==|  0.81546
USER: genes 29 Torsion [N]-C--CA-[N] |==|  0.01068
USER: genes 30 Torsion [C]-CA--CB-[CG1] |==|  0.56226
USER: genes 31 Torsion [CA]-CB--CG1-[CD1] |==|  0.63404
ROOT
ATOM      1  CA  ARG D 692      10.487 -15.569  39.413  1.00 48.73 LIG 0.18  C 
ENDROOT
BRANCH 1 2
ATOM      2  C   ARG D 692       9.103 -15.085  39.818  1.00 46.10 LIG 0.24  C 
ATOM      3  N   LEU D 693       8.682 -13.925  39.320  1.00 50.64 LIG-0.35  N 
ATOM      4 H    LEU D 693       9.122 -13.432  38.771  1.00 50.64 LIG 0.16  HD
ATOM      5 O    ARG D 692       8.446 -15.710  40.648  1.00 52.04 LIG-0.27  OA
BRANCH 3 6
ATOM      6  CA  LEU D 693       7.366 -13.414  39.716  1.00 43.34 LIG 0.18  C 
BRANCH 6 7
ATOM      7  C   LEU D 693       6.253 -13.935  38.816  1.00 37.95 LIG 0.24  C 
ATOM      8  N   LEU D 694       6.633 -14.574  37.728  1.00 39.22 LIG-0.35  N 
ATOM      9 H    LEU D 694       7.455 -14.662  37.491  1.00 39.22 LIG 0.16  HD
ATOM     10 O    LEU D 693       5.069 -13.729  39.103  1.00 43.86 LIG-0.27  OA
BRANCH 8 11
ATOM     11  CA  LEU D 694       5.694 -15.188  36.827  1.00 38.59 LIG 0.18  C 
BRANCH 11 12
ATOM     12  C   LEU D 694       5.693 -16.663  37.066  1.00 46.22 LIG 0.24  C 
ATOM     13  N   GLN D 695       4.642 -17.304  36.589  1.00 66.87 LIG-0.35  N 
ATOM     14 H    GLN D 695       3.978 -16.877  36.249  1.00 66.87 LIG 0.16  HD
ATOM     15 O    LEU D 694       6.580 -17.166  37.706  1.00 54.70 LIG-0.27  OA
BRANCH 13 16
ATOM     16  CA  GLN D 695       4.431 -18.757  36.555  1.00 62.86 LIG 0.16  C 
BRANCH 16 17
ATOM     17  CB  GLN D 695       4.208 -19.233  35.145  1.00 63.26 LIG 0.04  C 
BRANCH 17 18
ATOM     18  CG  GLN D 695       2.748 -19.480  34.872  1.00 77.24 LIG 0.10  C 
BRANCH 18 19
ATOM     19  CD  GLN D 695       2.261 -18.753  33.685  1.00 84.08 LIG 0.21  C 
ATOM     20 OE1  GLN D 695       1.506 -17.809  33.810  1.00 83.40 LIG-0.27  OA
ATOM     21  NE2 GLN D 695       2.701 -19.168  32.513  1.00 79.17 LIG-0.37  N 
ATOM     22 22HE GLN D 695       2.454 -18.766  31.794  1.00 79.17 LIG 0.16  HD
ATOM     23 21HE GLN D 695       3.235 -19.840  32.467  1.00 79.17 LIG 0.16  HD
ENDBRANCH 18 19
ENDBRANCH 17 18
ENDBRANCH 16 17
BRANCH 16 24
ATOM     24  C   GLN D 695       5.468 -19.618  37.274  1.00 61.14 LIG 0.22  C 
ATOM     25 O    GLN D 695       5.837 -20.695  36.798  1.00 66.66 LIG-0.29  OA
ENDBRANCH 16 24
ENDBRANCH 13 16
ENDBRANCH 11 12
BRANCH 11 26
ATOM     26  CB  LEU D 694       6.082 -14.958  35.382  1.00 34.51 LIG 0.04  C 
BRANCH 26 27
ATOM     27  CG  LEU D 694       6.375 -13.563  34.887  1.00 27.71 LIG-0.02  C 
ATOM     28  CD2 LEU D 694       5.155 -12.695  34.812  1.00 26.48 LIG 0.01  C 
ATOM     29  CD1 LEU D 694       7.161 -13.538  33.608  1.00 27.00 LIG 0.01  C 
ENDBRANCH 26 27
ENDBRANCH 11 26
ENDBRANCH 8 11
ENDBRANCH 6 7
BRANCH 6 30
ATOM     30  CB  LEU D 693       7.336 -11.878  39.785  1.00 45.67 LIG 0.04  C 
BRANCH 30 31
ATOM     31  CG  LEU D 693       7.965 -11.249  41.040  1.00 55.29 LIG-0.02  C 
ATOM     32  CD1 LEU D 693       9.460 -11.036  40.849  1.00 47.80 LIG 0.01  C 
ATOM     33  CD2 LEU D 693       7.258  -9.951  41.456  1.00 51.02 LIG 0.01  C 
ENDBRANCH 30 31
ENDBRANCH 6 30
ENDBRANCH 3 6
ENDBRANCH 1 2
BRANCH 1 34
ATOM     34  CB  ARG D 692      11.481 -15.206  40.537  1.00 49.09 LIG 0.04  C 
BRANCH 34 35
ATOM     35  CG  ARG D 692      12.787 -14.622  39.963  1.00 50.62 LIG 0.02  C 
BRANCH 35 36
ATOM     36  CD  ARG D 692      13.940 -15.612  39.879  1.00 57.04 LIG 0.14  C 
BRANCH 36 37
ATOM     37  NE  ARG D 692      15.154 -14.984  40.365  1.00 60.90 LIG-0.23  N 
ATOM     38 HE   ARG D 692      15.295 -14.995  41.213  1.00 60.90 LIG 0.18  HD
ATOM     39  CZ  ARG D 692      16.060 -14.395  39.599  1.00 61.50 LIG 0.67  C 
ATOM     40  NH1 ARG D 692      15.854 -14.264  38.290  1.00 46.48 LIG-0.23  N 
ATOM     41  NH2 ARG D 692      17.154 -13.893  40.158  1.00 64.68 LIG-0.23  N 
ATOM     42 1HH1 ARG D 692      15.129 -14.564  37.937  1.00 46.48 LIG 0.17  HD
ATOM     43 2HH1 ARG D 692      16.446 -13.880  37.798  1.00 46.48 LIG 0.17  HD
ATOM     44 1HH2 ARG D 692      17.269 -13.953  41.008  1.00 64.68 LIG 0.17  HD
ATOM     45 2HH2 ARG D 692      17.748 -13.509  39.670  1.00 64.68 LIG 0.17  HD
ENDBRANCH 36 37
ENDBRANCH 35 36
ENDBRANCH 34 35
ENDBRANCH 1 34
BRANCH 1 46
ATOM     46  N   ARG D 692      10.956 -15.130  38.077  1.00 43.06 LIG-0.35  N 
ATOM     47  C   HIS D 691      10.322 -15.470  36.968  1.00 44.11 LIG 0.24  C 
ATOM     48 O    HIS D 691       9.335 -16.193  36.952  1.00 43.39 LIG-0.27  OA
ATOM     49 H    ARG D 692      11.665 -14.643  38.094  1.00 43.06 LIG 0.16  HD
BRANCH 47 50
ATOM     50  CA  HIS D 691      10.884 -14.910  35.719  1.00 41.80 LIG 0.18  C 
BRANCH 50 51
ATOM     51  CB  HIS D 691      12.148 -15.659  35.469  1.00 51.00 LIG 0.10  C 
BRANCH 51 52
ATOM     52  CG  HIS D 691      13.300 -14.808  35.125  1.00 57.86 LIG 0.06  A 
ATOM     53 ND1  HIS D 691      14.143 -14.354  36.036  1.00 60.60 LIG-0.24  NA
ATOM     54  CE1 HIS D 691      15.075 -13.615  35.441  1.00 72.50 LIG 0.23  A 
ATOM     55 NE2  HIS D 691      14.810 -13.580  34.138  1.00 67.35 LIG-0.25  NA
ATOM     56  CD2 HIS D 691      13.721 -14.301  33.911  1.00 66.29 LIG 0.14  A 
ENDBRANCH 51 52
ENDBRANCH 50 51
BRANCH 50 57
ATOM     57  N   HIS D 691      11.185 -13.503  35.869  1.00 39.94 LIG-0.35  N 
ATOM     58 H    HIS D 691      11.998 -13.299  35.674  1.00 39.94 LIG 0.16  HD
ATOM     59  C   LEU D 690      10.289 -12.616  36.269  1.00 35.88 LIG 0.24  C 
ATOM     60 O    LEU D 690       9.103 -12.912  36.531  1.00 34.66 LIG-0.27  OA
BRANCH 59 61
ATOM     61  CA  LEU D 690      10.780 -11.200  36.462  1.00 33.43 LIG 0.18  C 
BRANCH 61 62
ATOM     62  CB  LEU D 690      10.622 -10.416  35.158  1.00 31.34 LIG 0.04  C 
BRANCH 62 63
ATOM     63  CG  LEU D 690      10.835 -11.196  33.866  1.00 30.93 LIG-0.02  C 
ATOM     64  CD1 LEU D 690       9.499 -11.443  33.182  1.00 30.90 LIG 0.01  C 
ATOM     65  CD2 LEU D 690      11.744 -10.411  32.939  1.00 28.62 LIG 0.01  C 
ENDBRANCH 62 63
ENDBRANCH 61 62
BRANCH 61 66
ATOM     66  N   LEU D 690      12.180 -11.176  36.892  1.00 35.22 LIG-0.35  N 
ATOM     67 H    LEU D 690      12.722 -10.836  36.317  1.00 35.22 LIG 0.16  HD
ATOM     68  C   ILE D 689      12.556 -11.645  38.075  1.00 41.04 LIG 0.26  C 
ATOM     69 O    ILE D 689      11.749 -12.079  38.910  1.00 39.56 LIG-0.27  OA
BRANCH 68 70
ATOM     70  CA  ILE D 689      14.068 -11.569  38.377  1.00 40.35 LIG 0.40  C 
ATOM     71  N   ILE D 689      14.847 -10.874  37.278  1.00 40.45 LIG 0.61  N 
BRANCH 70 72
ATOM     72  CB  ILE D 689      14.235 -10.867  39.747  1.00 42.26 LIG 0.03  C 
ATOM     73  CG2 ILE D 689      13.916 -11.836  40.901  1.00 38.55 LIG 0.01  C 
BRANCH 72 74
ATOM     74  CG1 ILE D 689      15.628 -10.251  39.898  1.00 45.91 LIG 0.00  C 
ATOM     75  CD1 ILE D 689      16.326 -10.579  41.218  1.00 45.96 LIG 0.01  C 
ENDBRANCH 72 74
ENDBRANCH 70 72
ENDBRANCH 68 70
ENDBRANCH 61 66
ENDBRANCH 59 61
ENDBRANCH 50 57
ENDBRANCH 47 50
ENDBRANCH 1 46
TORSDOF 30
ENDMDL
MODEL 6
USER: ADFR SOLUTION from run 11
USER: SCORE 22.469999 LL:  -8.737 LR: -14.302 RR:   0.000 FEB:  -5.353
USER: RMSD 3.330508
USER: SEED 409035
USER: STATUS no improvement in best in 6 clusters for 5 generations
USER: GENES 32
USER: genes 0 Translation |==|  0.57715 0.45592 0.52212
USER: genes 1 Rotation |==|  0.44773 0.60639 0.52449 0.98513
USER: genes 2 Torsion [N]-CA--C-[N] |==|  0.94799
USER: genes 3 Torsion [C]-N--CA-[C] |==|  0.67076
USER: genes 4 Torsion [N]-CA--C-[N] |==|  0.90328
USER: genes 5 Torsion [C]-N--CA-[C] |==|  0.80340
USER: genes 6 Torsion [N]-CA--C-[N] |==|  0.87222
USER: genes 7 Torsion [C]-N--CA-[CB] |==|  0.77467
USER: genes 8 Torsion [N]-CA--CB-[CG] |==|  0.86922
USER: genes 9 Torsion [CA]-CB--CG-[CD] |==|  0.67259
USER: genes 10 Torsion [CB]-CG--CD-[NE2] |==|  0.26245
USER: genes 11 Torsion [N]-CA--C-[O] |==|  0.99070
USER: genes 12 Torsion [N]-CA--CB-[CG] |==|  0.74214
USER: genes 13 Torsion [CA]-CB--CG-[CD2] |==|  0.81591
USER: genes 14 Torsion [N]-CA--CB-[CG] |==|  0.93277
USER: genes 15 Torsion [CA]-CB--CG-[CD1] |==|  0.25093
USER: genes 16 Torsion [C]-CA--CB-[CG] |==|  0.82340
USER: genes 17 Torsion [CA]-CB--CG-[CD] |==|  0.48008
USER: genes 18 Torsion [CB]-CG--CD-[NE] |==|  0.26404
USER: genes 19 Torsion [CG]-CD--NE-[CZ] |==|  0.71001
USER: genes 20 Torsion [C]-CA--N-[C] |==|  0.80495
USER: genes 21 Torsion [N]-C--CA-[N] |==|  0.89097
USER: genes 22 Torsion [C]-CA--CB-[CG] |==|  0.46241
USER: genes 23 Torsion [CA]-CB--CG-[ND1] |==|  0.82147
USER: genes 24 Torsion [C]-CA--N-[C] |==|  0.84165
USER: genes 25 Torsion [N]-C--CA-[N] |==|  0.97608
USER: genes 26 Torsion [C]-CA--CB-[CG] |==|  0.42895
USER: genes 27 Torsion [CA]-CB--CG-[CD2] |==|  0.27149
USER: genes 28 Torsion [C]-CA--N-[C] |==|  0.78691
USER: genes 29 Torsion [N]-C--CA-[N] |==|  0.94605
USER: genes 30 Torsion [C]-CA--CB-[CG1] |==|  0.89997
USER: genes 31 Torsion [CA]-CB--CG1-[CD1] |==|  0.31557
ROOT
ATOM      1  CA  ARG D 692      11.339 -15.829  39.350  1.00 48.73 LIG 0.18  C 
ENDROOT
BRANCH 1 2
ATOM      2  C   ARG D 692      10.254 -14.936  39.932  1.00 46.10 LIG 0.24  C 
ATOM      3  N   LEU D 693       9.710 -14.021  39.134  1.00 50.64 LIG-0.35  N 
ATOM      4 H    LEU D 693       9.910 -13.903  38.306  1.00 50.64 LIG 0.16  HD
ATOM      5 O    ARG D 692       9.966 -15.008  41.125  1.00 52.04 LIG-0.27  OA
BRANCH 3 6
ATOM      6  CA  LEU D 693       8.685 -13.122  39.672  1.00 43.34 LIG 0.18  C 
BRANCH 6 7
ATOM      7  C   LEU D 693       7.351 -13.278  38.955  1.00 37.95 LIG 0.24  C 
ATOM      8  N   LEU D 694       7.408 -13.547  37.667  1.00 39.22 LIG-0.35  N 
ATOM      9 H    LEU D 694       8.142 -13.588  37.222  1.00 39.22 LIG 0.16  HD
ATOM     10 O    LEU D 693       6.289 -13.127  39.570  1.00 43.86 LIG-0.27  OA
BRANCH 8 11
ATOM     11  CA  LEU D 694       6.231 -13.798  36.878  1.00 38.59 LIG 0.18  C 
BRANCH 11 12
ATOM     12  C   LEU D 694       5.665 -15.125  37.268  1.00 46.22 LIG 0.24  C 
ATOM     13  N   GLN D 695       6.550 -16.100  37.368  1.00 66.87 LIG-0.35  N 
ATOM     14 H    GLN D 695       7.369 -15.982  37.136  1.00 66.87 LIG 0.16  HD
ATOM     15 O    LEU D 694       4.477 -15.251  37.408  1.00 54.70 LIG-0.27  OA
BRANCH 13 16
ATOM     16  CA  GLN D 695       6.314 -17.465  37.857  1.00 62.86 LIG 0.16  C 
BRANCH 16 17
ATOM     17  CB  GLN D 695       6.325 -17.503  39.361  1.00 63.26 LIG 0.04  C 
BRANCH 17 18
ATOM     18  CG  GLN D 695       7.506 -16.758  39.922  1.00 77.24 LIG 0.10  C 
BRANCH 18 19
ATOM     19  CD  GLN D 695       8.413 -17.627  40.693  1.00 84.08 LIG 0.21  C 
ATOM     20 OE1  GLN D 695       8.191 -17.863  41.864  1.00 83.40 LIG-0.27  OA
ATOM     21  NE2 GLN D 695       9.443 -18.136  40.043  1.00 79.17 LIG-0.37  N 
ATOM     22 22HE GLN D 695       9.991 -18.659  40.449  1.00 79.17 LIG 0.16  HD
ATOM     23 21HE GLN D 695       9.565 -17.944  39.214  1.00 79.17 LIG 0.16  HD
ENDBRANCH 18 19
ENDBRANCH 17 18
ENDBRANCH 16 17
BRANCH 16 24
ATOM     24  C   GLN D 695       5.097 -18.194  37.292  1.00 61.14 LIG 0.22  C 
ATOM     25 O    GLN D 695       4.325 -17.628  36.512  1.00 66.66 LIG-0.29  OA
ENDBRANCH 16 24
ENDBRANCH 13 16
ENDBRANCH 11 12
BRANCH 11 26
ATOM     26  CB  LEU D 694       6.556 -13.854  35.401  1.00 34.51 LIG 0.04  C 
BRANCH 26 27
ATOM     27  CG  LEU D 694       6.447 -12.612  34.551  1.00 27.71 LIG-0.02  C 
ATOM     28  CD2 LEU D 694       5.040 -12.115  34.409  1.00 26.48 LIG 0.01  C 
ATOM     29  CD1 LEU D 694       7.135 -12.738  33.223  1.00 27.00 LIG 0.01  C 
ENDBRANCH 26 27
ENDBRANCH 11 26
ENDBRANCH 8 11
ENDBRANCH 6 7
BRANCH 6 30
ATOM     30  CB  LEU D 693       9.139 -11.652  39.665  1.00 45.67 LIG 0.04  C 
BRANCH 30 31
ATOM     31  CG  LEU D 693      10.658 -11.417  39.678  1.00 55.29 LIG-0.02  C 
ATOM     32  CD1 LEU D 693      11.208 -11.338  38.261  1.00 47.80 LIG 0.01  C 
ATOM     33  CD2 LEU D 693      11.049 -10.183  40.505  1.00 51.02 LIG 0.01  C 
ENDBRANCH 30 31
ENDBRANCH 6 30
ENDBRANCH 3 6
ENDBRANCH 1 2
BRANCH 1 34
ATOM     34  CB  ARG D 692      12.693 -15.422  39.970  1.00 49.09 LIG 0.04  C 
BRANCH 34 35
ATOM     35  CG  ARG D 692      13.075 -13.979  39.586  1.00 50.62 LIG 0.02  C 
BRANCH 35 36
ATOM     36  CD  ARG D 692      14.310 -13.440  40.294  1.00 57.04 LIG 0.14  C 
BRANCH 36 37
ATOM     37  NE  ARG D 692      15.475 -13.640  39.453  1.00 60.90 LIG-0.23  N 
ATOM     38 HE   ARG D 692      15.575 -13.114  38.780  1.00 60.90 LIG 0.18  HD
ATOM     39  CZ  ARG D 692      16.397 -14.572  39.647  1.00 61.50 LIG 0.67  C 
ATOM     40  NH1 ARG D 692      16.251 -15.473  40.617  1.00 46.48 LIG-0.23  N 
ATOM     41  NH2 ARG D 692      17.443 -14.627  38.833  1.00 64.68 LIG-0.23  N 
ATOM     42 1HH1 ARG D 692      15.555 -15.451  41.122  1.00 46.48 LIG 0.17  HD
ATOM     43 2HH1 ARG D 692      16.852 -16.076  40.737  1.00 46.48 LIG 0.17  HD
ATOM     44 1HH2 ARG D 692      17.518 -14.062  38.190  1.00 64.68 LIG 0.17  HD
ATOM     45 2HH2 ARG D 692      18.047 -15.228  38.950  1.00 64.68 LIG 0.17  HD
ENDBRANCH 36 37
ENDBRANCH 35 36
ENDBRANCH 34 35
ENDBRANCH 1 34
BRANCH 1 46
ATOM     46  N   ARG D 692      11.390 -15.897  37.871  1.00 43.06 LIG-0.35  N 
ATOM     47  C   HIS D 691      10.454 -16.509  37.167  1.00 44.11 LIG 0.24  C 
ATOM     48 O    HIS D 691       9.505 -17.091  37.673  1.00 43.39 LIG-0.27  OA
ATOM     49 H    ARG D 692      12.074 -15.507  37.522  1.00 43.06 LIG 0.16  HD
BRANCH 47 50
ATOM     50  CA  HIS D 691      10.621 -16.444  35.697  1.00 41.80 LIG 0.18  C 
BRANCH 50 51
ATOM     51  CB  HIS D 691      11.644 -17.473  35.358  1.00 51.00 LIG 0.10  C 
BRANCH 51 52
ATOM     52  CG  HIS D 691      11.733 -17.790  33.922  1.00 57.86 LIG 0.06  A 
ATOM     53 ND1  HIS D 691      10.735 -18.346  33.257  1.00 60.60 LIG-0.24  NA
ATOM     54  CE1 HIS D 691      11.097 -18.521  31.989  1.00 72.50 LIG 0.23  A 
ATOM     55 NE2  HIS D 691      12.347 -18.089  31.850  1.00 67.35 LIG-0.25  NA
ATOM     56  CD2 HIS D 691      12.770 -17.638  33.023  1.00 66.29 LIG 0.14  A 
ENDBRANCH 51 52
ENDBRANCH 50 51
BRANCH 50 57
ATOM     57  N   HIS D 691      11.098 -15.143  35.284  1.00 39.94 LIG-0.35  N 
ATOM     58 H    HIS D 691      11.833 -15.167  34.838  1.00 39.94 LIG 0.16  HD
ATOM     59  C   LEU D 690      10.458 -14.020  35.570  1.00 35.88 LIG 0.24  C 
ATOM     60 O    LEU D 690       9.379 -13.988  36.199  1.00 34.66 LIG-0.27  OA
BRANCH 59 61
ATOM     61  CA  LEU D 690      11.130 -12.734  35.146  1.00 33.43 LIG 0.18  C 
BRANCH 61 62
ATOM     62  CB  LEU D 690      10.302 -12.055  34.054  1.00 31.34 LIG 0.04  C 
BRANCH 62 63
ATOM     63  CG  LEU D 690      10.451 -10.543  33.928  1.00 30.93 LIG-0.02  C 
ATOM     64  CD1 LEU D 690      10.946  -9.959  35.243  1.00 30.90 LIG 0.01  C 
ATOM     65  CD2 LEU D 690      11.438 -10.216  32.823  1.00 28.62 LIG 0.01  C 
ENDBRANCH 62 63
ENDBRANCH 61 62
BRANCH 61 66
ATOM     66  N   LEU D 690      12.490 -12.978  34.663  1.00 35.22 LIG-0.35  N 
ATOM     67 H    LEU D 690      12.572 -12.953  33.807  1.00 35.22 LIG 0.16  HD
ATOM     68  C   ILE D 689      13.496 -13.214  35.495  1.00 41.04 LIG 0.26  C 
ATOM     69 O    ILE D 689      13.364 -13.188  36.728  1.00 39.56 LIG-0.27  OA
BRANCH 68 70
ATOM     70  CA  ILE D 689      14.867 -13.472  34.835  1.00 40.35 LIG 0.40  C 
ATOM     71  N   ILE D 689      14.745 -13.871  33.378  1.00 40.45 LIG 0.61  N 
BRANCH 70 72
ATOM     72  CB  ILE D 689      15.723 -12.195  35.024  1.00 42.26 LIG 0.03  C 
ATOM     73  CG2 ILE D 689      16.892 -12.168  34.023  1.00 38.55 LIG 0.01  C 
BRANCH 72 74
ATOM     74  CG1 ILE D 689      14.870 -10.927  34.930  1.00 45.91 LIG 0.00  C 
ATOM     75  CD1 ILE D 689      14.763 -10.138  36.235  1.00 45.96 LIG 0.01  C 
ENDBRANCH 72 74
ENDBRANCH 70 72
ENDBRANCH 68 70
ENDBRANCH 61 66
ENDBRANCH 59 61
ENDBRANCH 50 57
ENDBRANCH 47 50
ENDBRANCH 1 46
TORSDOF 30
ENDMDL
MODEL 7
USER: ADFR SOLUTION from run 195
USER: SCORE 22.434632 LL:  -8.684 LR: -14.274 RR:   0.000 FEB:  -5.325
USER: RMSD 4.148166
USER: SEED 194
USER: STATUS searching
USER: GENES 32
USER: genes 0 Translation |==|  0.62284 0.45256 0.48183
USER: genes 1 Rotation |==|  0.48844 0.59183 0.45164 0.98897
USER: genes 2 Torsion [N]-CA--C-[N] |==|  0.94306
USER: genes 3 Torsion [C]-N--CA-[C] |==|  0.70823
USER: genes 4 Torsion [N]-CA--C-[N] |==|  0.94133
USER: genes 5 Torsion [C]-N--CA-[C] |==|  0.77790
USER: genes 6 Torsion [N]-CA--C-[N] |==|  0.88047
USER: genes 7 Torsion [C]-N--CA-[CB] |==|  0.81465
USER: genes 8 Torsion [N]-CA--CB-[CG] |==|  0.84731
USER: genes 9 Torsion [CA]-CB--CG-[CD] |==|  0.34055
USER: genes 10 Torsion [CB]-CG--CD-[NE2] |==|  0.50799
USER: genes 11 Torsion [N]-CA--C-[O] |==|  0.91558
USER: genes 12 Torsion [N]-CA--CB-[CG] |==|  0.43108
USER: genes 13 Torsion [CA]-CB--CG-[CD2] |==|  0.61819
USER: genes 14 Torsion [N]-CA--CB-[CG] |==|  0.85143
USER: genes 15 Torsion [CA]-CB--CG-[CD1] |==|  0.89997
USER: genes 16 Torsion [C]-CA--CB-[CG] |==|  0.78487
USER: genes 17 Torsion [CA]-CB--CG-[CD] |==|  0.37813
USER: genes 18 Torsion [CB]-CG--CD-[NE] |==|  0.36289
USER: genes 19 Torsion [CG]-CD--NE-[CZ] |==|  0.67898
USER: genes 20 Torsion [C]-CA--N-[C] |==|  0.80885
USER: genes 21 Torsion [N]-C--CA-[N] |==|  0.86667
USER: genes 22 Torsion [C]-CA--CB-[CG] |==|  0.35742
USER: genes 23 Torsion [CA]-CB--CG-[ND1] |==|  0.80270
USER: genes 24 Torsion [C]-CA--N-[C] |==|  0.82821
USER: genes 25 Torsion [N]-C--CA-[N] |==|  0.99847
USER: genes 26 Torsion [C]-CA--CB-[CG] |==|  0.21529
USER: genes 27 Torsion [CA]-CB--CG-[CD2] |==|  0.04831
USER: genes 28 Torsion [C]-CA--N-[C] |==|  0.77760
USER: genes 29 Torsion [N]-C--CA-[N] |==|  0.93488
USER: genes 30 Torsion [C]-CA--CB-[CG1] |==|  0.74066
USER: genes 31 Torsion [CA]-CB--CG1-[CD1] |==|  0.70957
ROOT
ATOM      1  CA  ARG D 692      12.367 -15.891  38.565  1.00 48.73 LIG 0.18  C 
ENDROOT
BRANCH 1 2
ATOM      2  C   ARG D 692      11.553 -14.759  39.170  1.00 46.10 LIG 0.24  C 
ATOM      3  N   LEU D 693      11.423 -13.641  38.461  1.00 50.64 LIG-0.35  N 
ATOM      4 H    LEU D 693      11.747 -13.511  37.675  1.00 50.64 LIG 0.16  HD
ATOM      5 O    ARG D 692      11.115 -14.854  40.315  1.00 52.04 LIG-0.27  OA
BRANCH 3 6
ATOM      6  CA  LEU D 693      10.672 -12.517  39.030  1.00 43.34 LIG 0.18  C 
BRANCH 6 7
ATOM      7  C   LEU D 693       9.296 -12.367  38.396  1.00 37.95 LIG 0.24  C 
ATOM      8  N   LEU D 694       9.136 -12.918  37.209  1.00 39.22 LIG-0.35  N 
ATOM      9 H    LEU D 694       9.770 -13.303  36.775  1.00 39.22 LIG 0.16  HD
ATOM     10 O    LEU D 693       8.407 -11.732  38.975  1.00 43.86 LIG-0.27  OA
BRANCH 8 11
ATOM     11  CA  LEU D 694       7.869 -12.923  36.526  1.00 38.59 LIG 0.18  C 
BRANCH 11 12
ATOM     12  C   LEU D 694       7.022 -14.016  37.093  1.00 46.22 LIG 0.24  C 
ATOM     13  N   GLN D 695       7.652 -15.157  37.303  1.00 66.87 LIG-0.35  N 
ATOM     14 H    GLN D 695       8.464 -15.271  37.043  1.00 66.87 LIG 0.16  HD
ATOM     15 O    LEU D 694       5.846 -13.831  37.268  1.00 54.70 LIG-0.27  OA
BRANCH 13 16
ATOM     16  CA  GLN D 695       7.120 -16.354  37.967  1.00 62.86 LIG 0.16  C 
BRANCH 16 17
ATOM     17  CB  GLN D 695       6.866 -16.088  39.426  1.00 63.26 LIG 0.04  C 
BRANCH 17 18
ATOM     18  CG  GLN D 695       8.101 -15.572  40.115  1.00 77.24 LIG 0.10  C 
BRANCH 18 19
ATOM     19  CD  GLN D 695       7.889 -14.262  40.756  1.00 84.08 LIG 0.21  C 
ATOM     20 OE1  GLN D 695       6.788 -13.748  40.754  1.00 83.40 LIG-0.27  OA
ATOM     21  NE2 GLN D 695       8.938 -13.708  41.334  1.00 79.17 LIG-0.37  N 
ATOM     22 22HE GLN D 695       8.858 -12.950  41.733  1.00 79.17 LIG 0.16  HD
ATOM     23 21HE GLN D 695       9.700 -14.104  41.313  1.00 79.17 LIG 0.16  HD
ENDBRANCH 18 19
ENDBRANCH 17 18
ENDBRANCH 16 17
BRANCH 16 24
ATOM     24  C   GLN D 695       5.918 -17.027  37.307  1.00 61.14 LIG 0.22  C 
ATOM     25 O    GLN D 695       5.099 -16.368  36.662  1.00 66.66 LIG-0.29  OA
ENDBRANCH 16 24
ENDBRANCH 13 16
ENDBRANCH 11 12
BRANCH 11 26
ATOM     26  CB  LEU D 694       8.040 -13.195  35.047  1.00 34.51 LIG 0.04  C 
BRANCH 26 27
ATOM     27  CG  LEU D 694       6.906 -13.790  34.248  1.00 27.71 LIG-0.02  C 
ATOM     28  CD2 LEU D 694       7.352 -14.857  33.294  1.00 26.48 LIG 0.01  C 
ATOM     29  CD1 LEU D 694       6.047 -12.759  33.575  1.00 27.00 LIG 0.01  C 
ENDBRANCH 26 27
ENDBRANCH 11 26
ENDBRANCH 8 11
ENDBRANCH 6 7
BRANCH 6 30
ATOM     30  CB  LEU D 693      11.456 -11.196  38.951  1.00 45.67 LIG 0.04  C 
BRANCH 30 31
ATOM     31  CG  LEU D 693      12.871 -11.217  39.551  1.00 55.29 LIG-0.02  C 
ATOM     32  CD1 LEU D 693      12.924 -12.102  40.788  1.00 47.80 LIG 0.01  C 
ATOM     33  CD2 LEU D 693      13.934 -11.625  38.520  1.00 51.02 LIG 0.01  C 
ENDBRANCH 30 31
ENDBRANCH 6 30
ENDBRANCH 3 6
ENDBRANCH 1 2
BRANCH 1 34
ATOM     34  CB  ARG D 692      13.714 -15.982  39.313  1.00 49.09 LIG 0.04  C 
BRANCH 34 35
ATOM     35  CG  ARG D 692      14.687 -14.879  38.853  1.00 50.62 LIG 0.02  C 
BRANCH 35 36
ATOM     36  CD  ARG D 692      15.436 -14.184  39.980  1.00 57.04 LIG 0.14  C 
BRANCH 36 37
ATOM     37  NE  ARG D 692      16.853 -14.149  39.671  1.00 60.90 LIG-0.23  N 
ATOM     38 HE   ARG D 692      17.100 -13.693  38.986  1.00 60.90 LIG 0.18  HD
ATOM     39  CZ  ARG D 692      17.794 -14.770  40.367  1.00 61.50 LIG 0.67  C 
ATOM     40  NH1 ARG D 692      17.467 -15.566  41.383  1.00 46.48 LIG-0.23  N 
ATOM     41  NH2 ARG D 692      19.064 -14.627  40.011  1.00 64.68 LIG-0.23  N 
ATOM     42 1HH1 ARG D 692      16.640 -15.680  41.591  1.00 46.48 LIG 0.17  HD
ATOM     43 2HH1 ARG D 692      18.082 -15.967  41.830  1.00 46.48 LIG 0.17  HD
ATOM     44 1HH2 ARG D 692      19.269 -14.136  39.335  1.00 64.68 LIG 0.17  HD
ATOM     45 2HH2 ARG D 692      19.683 -15.025  40.455  1.00 64.68 LIG 0.17  HD
ENDBRANCH 36 37
ENDBRANCH 35 36
ENDBRANCH 34 35
ENDBRANCH 1 34
BRANCH 1 46
ATOM     46  N   ARG D 692      12.538 -15.844  37.093  1.00 43.06 LIG-0.35  N 
ATOM     47  C   HIS D 691      11.527 -16.044  36.265  1.00 44.11 LIG 0.24  C 
ATOM     48 O    HIS D 691      10.395 -16.316  36.640  1.00 43.39 LIG-0.27  OA
ATOM     49 H    ARG D 692      13.342 -15.677  36.835  1.00 43.06 LIG 0.16  HD
BRANCH 47 50
ATOM     50  CA  HIS D 691      11.849 -15.911  34.827  1.00 41.80 LIG 0.18  C 
BRANCH 50 51
ATOM     51  CB  HIS D 691      12.696 -17.090  34.489  1.00 51.00 LIG 0.10  C 
BRANCH 51 52
ATOM     52  CG  HIS D 691      12.237 -17.852  33.315  1.00 57.86 LIG 0.06  A 
ATOM     53 ND1  HIS D 691      11.143 -18.595  33.336  1.00 60.60 LIG-0.24  NA
ATOM     54  CE1 HIS D 691      10.979 -19.166  32.147  1.00 72.50 LIG 0.23  A 
ATOM     55 NE2  HIS D 691      11.990 -18.799  31.365  1.00 67.35 LIG-0.25  NA
ATOM     56  CD2 HIS D 691      12.786 -17.994  32.056  1.00 66.29 LIG 0.14  A 
ENDBRANCH 51 52
ENDBRANCH 50 51
BRANCH 50 57
ATOM     57  N   HIS D 691      12.595 -14.699  34.569  1.00 39.94 LIG-0.35  N 
ATOM     58 H    HIS D 691      13.381 -14.836  34.248  1.00 39.94 LIG 0.16  HD
ATOM     59  C   LEU D 690      12.108 -13.493  34.809  1.00 35.88 LIG 0.24  C 
ATOM     60 O    LEU D 690      10.957 -13.296  35.255  1.00 34.66 LIG-0.27  OA
BRANCH 59 61
ATOM     61  CA  LEU D 690      13.041 -12.328  34.572  1.00 33.43 LIG 0.18  C 
BRANCH 61 62
ATOM     62  CB  LEU D 690      12.433 -11.381  33.537  1.00 31.34 LIG 0.04  C 
BRANCH 62 63
ATOM     63  CG  LEU D 690      11.326 -10.455  34.030  1.00 30.93 LIG-0.02  C 
ATOM     64  CD1 LEU D 690       9.972 -10.977  33.574  1.00 30.90 LIG 0.01  C 
ATOM     65  CD2 LEU D 690      11.359 -10.381  35.545  1.00 28.62 LIG 0.01  C 
ENDBRANCH 62 63
ENDBRANCH 61 62
BRANCH 61 66
ATOM     66  N   LEU D 690      14.356 -12.784  34.118  1.00 35.22 LIG-0.35  N 
ATOM     67 H    LEU D 690      14.479 -12.724  33.269  1.00 35.22 LIG 0.16  HD
ATOM     68  C   ILE D 689      15.267 -13.247  34.965  1.00 41.04 LIG 0.26  C 
ATOM     69 O    ILE D 689      15.088 -13.272  36.192  1.00 39.56 LIG-0.27  OA
BRANCH 68 70
ATOM     70  CA  ILE D 689      16.598 -13.709  34.335  1.00 40.35 LIG 0.40  C 
ATOM     71  N   ILE D 689      16.450 -14.085  32.874  1.00 40.45 LIG 0.61  N 
BRANCH 70 72
ATOM     72  CB  ILE D 689      17.632 -12.576  34.547  1.00 42.26 LIG 0.03  C 
ATOM     73  CG2 ILE D 689      19.022 -13.156  34.866  1.00 38.55 LIG 0.01  C 
BRANCH 72 74
ATOM     74  CG1 ILE D 689      17.680 -11.627  33.346  1.00 45.91 LIG 0.00  C 
ATOM     75  CD1 ILE D 689      18.901 -11.810  32.444  1.00 45.96 LIG 0.01  C 
ENDBRANCH 72 74
ENDBRANCH 70 72
ENDBRANCH 68 70
ENDBRANCH 61 66
ENDBRANCH 59 61
ENDBRANCH 50 57
ENDBRANCH 47 50
ENDBRANCH 1 46
TORSDOF 30
ENDMDL
MODEL 8
USER: ADFR SOLUTION from run 123
USER: SCORE 21.172077 LL:  -7.546 LR: -14.207 RR:   0.000 FEB:  -5.258
USER: RMSD 4.586199
USER: SEED 122
USER: STATUS no improvement in best in 13 clusters for 5 generations
USER: GENES 32
USER: genes 0 Translation |==|  0.61315 0.43113 0.51163
USER: genes 1 Rotation |==|  0.45565 0.61379 0.57655 0.97877
USER: genes 2 Torsion [N]-CA--C-[N] |==|  0.92965
USER: genes 3 Torsion [C]-N--CA-[C] |==|  0.68134
USER: genes 4 Torsion [N]-CA--C-[N] |==|  0.07144
USER: genes 5 Torsion [C]-N--CA-[C] |==|  0.18981
USER: genes 6 Torsion [N]-CA--C-[N] |==|  0.06115
USER: genes 7 Torsion [C]-N--CA-[CB] |==|  0.96095
USER: genes 8 Torsion [N]-CA--CB-[CG] |==|  0.37437
USER: genes 9 Torsion [CA]-CB--CG-[CD] |==|  0.77245
USER: genes 10 Torsion [CB]-CG--CD-[NE2] |==|  0.48929
USER: genes 11 Torsion [N]-CA--C-[O] |==|  0.17766
USER: genes 12 Torsion [N]-CA--CB-[CG] |==|  0.70341
USER: genes 13 Torsion [CA]-CB--CG-[CD2] |==|  0.82256
USER: genes 14 Torsion [N]-CA--CB-[CG] |==|  0.96690
USER: genes 15 Torsion [CA]-CB--CG-[CD1] |==|  0.25028
USER: genes 16 Torsion [C]-CA--CB-[CG] |==|  0.84955
USER: genes 17 Torsion [CA]-CB--CG-[CD] |==|  0.48605
USER: genes 18 Torsion [CB]-CG--CD-[NE] |==|  0.37333
USER: genes 19 Torsion [CG]-CD--NE-[CZ] |==|  0.30351
USER: genes 20 Torsion [C]-CA--N-[C] |==|  0.82345
USER: genes 21 Torsion [N]-C--CA-[N] |==|  0.89749
USER: genes 22 Torsion [C]-CA--CB-[CG] |==|  0.41558
USER: genes 23 Torsion [CA]-CB--CG-[ND1] |==|  0.90108
USER: genes 24 Torsion [C]-CA--N-[C] |==|  0.86307
USER: genes 25 Torsion [N]-C--CA-[N] |==|  0.94471
USER: genes 26 Torsion [C]-CA--CB-[CG] |==|  0.43478
USER: genes 27 Torsion [CA]-CB--CG-[CD2] |==|  0.28142
USER: genes 28 Torsion [C]-CA--N-[C] |==|  0.76736
USER: genes 29 Torsion [N]-C--CA-[N] |==|  0.93482
USER: genes 30 Torsion [C]-CA--CB-[CG1] |==|  0.89829
USER: genes 31 Torsion [CA]-CB--CG1-[CD1] |==|  0.28061
ROOT
ATOM      1  CA  ARG D 692      12.149 -16.293  39.146  1.00 48.73 LIG 0.18  C 
ENDROOT
BRANCH 1 2
ATOM      2  C   ARG D 692      10.954 -15.668  39.847  1.00 46.10 LIG 0.24  C 
ATOM      3  N   LEU D 693      10.275 -14.727  39.196  1.00 50.64 LIG-0.35  N 
ATOM      4 H    LEU D 693      10.446 -14.454  38.400  1.00 50.64 LIG 0.16  HD
ATOM      5 O    ARG D 692      10.692 -15.967  41.011  1.00 52.04 LIG-0.27  OA
BRANCH 3 6
ATOM      6  CA  LEU D 693       9.137 -14.080  39.857  1.00 43.34 LIG 0.18  C 
BRANCH 6 7
ATOM      7  C   LEU D 693       7.818 -14.389  39.162  1.00 37.95 LIG 0.24  C 
ATOM      8  N   LEU D 694       7.768 -15.514  38.478  1.00 39.22 LIG-0.35  N 
ATOM      9 H    LEU D 694       8.442 -16.037  38.373  1.00 39.22 LIG 0.16  HD
ATOM     10 O    LEU D 693       6.874 -13.594  39.229  1.00 43.86 LIG-0.27  OA
BRANCH 8 11
ATOM     11  CA  LEU D 694       6.565 -15.973  37.835  1.00 38.59 LIG 0.18  C 
BRANCH 11 12
ATOM     12  C   LEU D 694       6.245 -15.054  36.701  1.00 46.22 LIG 0.24  C 
ATOM     13  N   GLN D 695       7.270 -14.362  36.239  1.00 66.87 LIG-0.35  N 
ATOM     14 H    GLN D 695       8.035 -14.385  36.632  1.00 66.87 LIG 0.16  HD
ATOM     15 O    LEU D 694       5.109 -14.950  36.318  1.00 54.70 LIG-0.27  OA
BRANCH 13 16
ATOM     16  CA  GLN D 695       7.290 -13.489  35.058  1.00 62.86 LIG 0.16  C 
BRANCH 16 17
ATOM     17  CB  GLN D 695       6.075 -13.721  34.201  1.00 63.26 LIG 0.04  C 
BRANCH 17 18
ATOM     18  CG  GLN D 695       5.456 -12.421  33.760  1.00 77.24 LIG 0.10  C 
BRANCH 18 19
ATOM     19  CD  GLN D 695       4.581 -11.831  34.789  1.00 84.08 LIG 0.21  C 
ATOM     20 OE1  GLN D 695       4.382 -12.416  35.836  1.00 83.40 LIG-0.27  OA
ATOM     21  NE2 GLN D 695       4.058 -10.651  34.518  1.00 79.17 LIG-0.37  N 
ATOM     22 22HE GLN D 695       3.552 -10.262  35.094  1.00 79.17 LIG 0.16  HD
ATOM     23 21HE GLN D 695       4.224 -10.270  33.765  1.00 79.17 LIG 0.16  HD
ENDBRANCH 18 19
ENDBRANCH 17 18
ENDBRANCH 16 17
BRANCH 16 24
ATOM     24  C   GLN D 695       7.516 -12.000  35.310  1.00 61.14 LIG 0.22  C 
ATOM     25 O    GLN D 695       8.577 -11.593  35.791  1.00 66.66 LIG-0.29  OA
ENDBRANCH 16 24
ENDBRANCH 13 16
ENDBRANCH 11 12
BRANCH 11 26
ATOM     26  CB  LEU D 694       5.388 -15.954  38.787  1.00 34.51 LIG 0.04  C 
BRANCH 26 27
ATOM     27  CG  LEU D 694       4.836 -17.246  39.337  1.00 27.71 LIG-0.02  C 
ATOM     28  CD2 LEU D 694       4.259 -18.140  38.281  1.00 26.48 LIG 0.01  C 
ATOM     29  CD1 LEU D 694       3.886 -17.046  40.483  1.00 27.00 LIG 0.01  C 
ENDBRANCH 26 27
ENDBRANCH 11 26
ENDBRANCH 8 11
ENDBRANCH 6 7
BRANCH 6 30
ATOM     30  CB  LEU D 693       9.335 -12.562  40.001  1.00 45.67 LIG 0.04  C 
BRANCH 30 31
ATOM     31  CG  LEU D 693      10.751 -12.038  39.711  1.00 55.29 LIG-0.02  C 
ATOM     32  CD1 LEU D 693      10.905 -11.675  38.240  1.00 47.80 LIG 0.01  C 
ATOM     33  CD2 LEU D 693      11.135 -10.864  40.624  1.00 51.02 LIG 0.01  C 
ENDBRANCH 30 31
ENDBRANCH 6 30
ENDBRANCH 3 6
ENDBRANCH 1 2
BRANCH 1 34
ATOM     34  CB  ARG D 692      13.437 -15.672  39.726  1.00 49.09 LIG 0.04  C 
BRANCH 34 35
ATOM     35  CG  ARG D 692      13.406 -14.134  39.642  1.00 50.62 LIG 0.02  C 
BRANCH 35 36
ATOM     36  CD  ARG D 692      14.588 -13.438  40.303  1.00 57.04 LIG 0.14  C 
BRANCH 36 37
ATOM     37  NE  ARG D 692      15.094 -12.403  39.422  1.00 60.90 LIG-0.23  N 
ATOM     38 HE   ARG D 692      15.505 -12.652  38.710  1.00 60.90 LIG 0.18  HD
ATOM     39  CZ  ARG D 692      14.970 -11.101  39.636  1.00 61.50 LIG 0.67  C 
ATOM     40  NH1 ARG D 692      14.425 -10.652  40.765  1.00 46.48 LIG-0.23  N 
ATOM     41  NH2 ARG D 692      15.438 -10.249  38.733  1.00 64.68 LIG-0.23  N 
ATOM     42 1HH1 ARG D 692      14.150 -11.209  41.361  1.00 46.48 LIG 0.17  HD
ATOM     43 2HH1 ARG D 692      14.347  -9.806  40.898  1.00 46.48 LIG 0.17  HD
ATOM     44 1HH2 ARG D 692      15.816 -10.543  38.019  1.00 64.68 LIG 0.17  HD
ATOM     45 2HH2 ARG D 692      15.362  -9.402  38.862  1.00 64.68 LIG 0.17  HD
ENDBRANCH 36 37
ENDBRANCH 35 36
ENDBRANCH 34 35
ENDBRANCH 1 34
BRANCH 1 46
ATOM     46  N   ARG D 692      12.117 -16.254  37.665  1.00 43.06 LIG-0.35  N 
ATOM     47  C   HIS D 691      11.189 -16.888  36.968  1.00 44.11 LIG 0.24  C 
ATOM     48 O    HIS D 691      10.319 -17.577  37.480  1.00 43.39 LIG-0.27  OA
ATOM     49 H    ARG D 692      12.748 -15.788  37.309  1.00 43.06 LIG 0.16  HD
BRANCH 47 50
ATOM     50  CA  HIS D 691      11.264 -16.707  35.501  1.00 41.80 LIG 0.18  C 
BRANCH 50 51
ATOM     51  CB  HIS D 691      12.299 -17.668  35.024  1.00 51.00 LIG 0.10  C 
BRANCH 51 52
ATOM     52  CG  HIS D 691      12.075 -18.175  33.660  1.00 57.86 LIG 0.06  A 
ATOM     53 ND1  HIS D 691      10.866 -18.413  33.183  1.00 60.60 LIG-0.24  NA
ATOM     54  CE1 HIS D 691      10.968 -18.865  31.937  1.00 72.50 LIG 0.23  A 
ATOM     55 NE2  HIS D 691      12.258 -18.936  31.624  1.00 67.35 LIG-0.25  NA
ATOM     56  CD2 HIS D 691      12.968 -18.523  32.665  1.00 66.29 LIG 0.14  A 
ENDBRANCH 51 52
ENDBRANCH 50 51
BRANCH 50 57
ATOM     57  N   HIS D 691      11.669 -15.362  35.161  1.00 39.94 LIG-0.35  N 
ATOM     58 H    HIS D 691      12.311 -15.326  34.589  1.00 39.94 LIG 0.16  HD
ATOM     59  C   LEU D 690      11.103 -14.287  35.686  1.00 35.88 LIG 0.24  C 
ATOM     60 O    LEU D 690      10.157 -14.342  36.501  1.00 34.66 LIG-0.27  OA
BRANCH 59 61
ATOM     61  CA  LEU D 690      11.697 -12.953  35.299  1.00 33.43 LIG 0.18  C 
BRANCH 61 62
ATOM     62  CB  LEU D 690      10.820 -12.284  34.240  1.00 31.34 LIG 0.04  C 
BRANCH 62 63
ATOM     63  CG  LEU D 690      10.922 -10.767  34.131  1.00 30.93 LIG-0.02  C 
ATOM     64  CD1 LEU D 690      11.519 -10.194  35.408  1.00 30.90 LIG 0.01  C 
ATOM     65  CD2 LEU D 690      11.797 -10.397  32.949  1.00 28.62 LIG 0.01  C 
ENDBRANCH 62 63
ENDBRANCH 61 62
BRANCH 61 66
ATOM     66  N   LEU D 690      13.062 -13.105  34.792  1.00 35.22 LIG-0.35  N 
ATOM     67 H    LEU D 690      13.120 -13.143  33.935  1.00 35.22 LIG 0.16  HD
ATOM     68  C   ILE D 689      14.108 -13.176  35.608  1.00 41.04 LIG 0.26  C 
ATOM     69 O    ILE D 689      14.005 -13.063  36.838  1.00 39.56 LIG-0.27  OA
BRANCH 68 70
ATOM     70  CA  ILE D 689      15.480 -13.356  34.925  1.00 40.35 LIG 0.40  C 
ATOM     71  N   ILE D 689      15.367 -13.974  33.546  1.00 40.45 LIG 0.61  N 
BRANCH 70 72
ATOM     72  CB  ILE D 689      16.170 -11.970  34.893  1.00 42.26 LIG 0.03  C 
ATOM     73  CG2 ILE D 689      17.305 -11.948  33.853  1.00 38.55 LIG 0.01  C 
BRANCH 72 74
ATOM     74  CG1 ILE D 689      15.160 -10.845  34.647  1.00 45.91 LIG 0.00  C 
ATOM     75  CD1 ILE D 689      14.752 -10.077  35.904  1.00 45.96 LIG 0.01  C 
ENDBRANCH 72 74
ENDBRANCH 70 72
ENDBRANCH 68 70
ENDBRANCH 61 66
ENDBRANCH 59 61
ENDBRANCH 50 57
ENDBRANCH 47 50
ENDBRANCH 1 46
TORSDOF 30
ENDMDL
MODEL 9
USER: ADFR SOLUTION from run 59
USER: SCORE 20.717642 LL:  -7.577 LR: -13.878 RR:   0.000 FEB:  -4.929
USER: RMSD 4.219755
USER: SEED 58
USER: STATUS no improvement in best in 14 clusters for 5 generations
USER: GENES 32
USER: genes 0 Translation |==|  0.58749 0.43555 0.50117
USER: genes 1 Rotation |==|  0.47106 0.55475 0.51213 0.99600
USER: genes 2 Torsion [N]-CA--C-[N] |==|  0.90267
USER: genes 3 Torsion [C]-N--CA-[C] |==|  0.74244
USER: genes 4 Torsion [N]-CA--C-[N] |==|  0.93889
USER: genes 5 Torsion [C]-N--CA-[C] |==|  0.79963
USER: genes 6 Torsion [N]-CA--C-[N] |==|  0.92332
USER: genes 7 Torsion [C]-N--CA-[CB] |==|  0.21162
USER: genes 8 Torsion [N]-CA--CB-[CG] |==|  0.63444
USER: genes 9 Torsion [CA]-CB--CG-[CD] |==|  0.23598
USER: genes 10 Torsion [CB]-CG--CD-[NE2] |==|  0.57302
USER: genes 11 Torsion [N]-CA--C-[O] |==|  0.38085
USER: genes 12 Torsion [N]-CA--CB-[CG] |==|  0.70447
USER: genes 13 Torsion [CA]-CB--CG-[CD2] |==|  0.22721
USER: genes 14 Torsion [N]-CA--CB-[CG] |==|  0.00243
USER: genes 15 Torsion [CA]-CB--CG-[CD1] |==|  0.30223
USER: genes 16 Torsion [C]-CA--CB-[CG] |==|  0.78968
USER: genes 17 Torsion [CA]-CB--CG-[CD] |==|  0.76971
USER: genes 18 Torsion [CB]-CG--CD-[NE] |==|  0.65400
USER: genes 19 Torsion [CG]-CD--NE-[CZ] |==|  0.20563
USER: genes 20 Torsion [C]-CA--N-[C] |==|  0.85765
USER: genes 21 Torsion [N]-C--CA-[N] |==|  0.90761
USER: genes 22 Torsion [C]-CA--CB-[CG] |==|  0.43452
USER: genes 23 Torsion [CA]-CB--CG-[ND1] |==|  0.71684
USER: genes 24 Torsion [C]-CA--N-[C] |==|  0.77967
USER: genes 25 Torsion [N]-C--CA-[N] |==|  0.15370
USER: genes 26 Torsion [C]-CA--CB-[CG] |==|  0.44672
USER: genes 27 Torsion [CA]-CB--CG-[CD2] |==|  0.19054
USER: genes 28 Torsion [C]-CA--N-[C] |==|  0.76887
USER: genes 29 Torsion [N]-C--CA-[N] |==|  0.86577
USER: genes 30 Torsion [C]-CA--CB-[CG1] |==|  0.55986
USER: genes 31 Torsion [CA]-CB--CG1-[CD1] |==|  0.52906
ROOT
ATOM      1  CA  ARG D 692      11.572 -16.210  38.942  1.00 48.73 LIG 0.18  C 
ENDROOT
BRANCH 1 2
ATOM      2  C   ARG D 692      10.424 -15.312  39.372  1.00 46.10 LIG 0.24  C 
ATOM      3  N   LEU D 693      10.303 -14.130  38.773  1.00 50.64 LIG-0.35  N 
ATOM      4 H    LEU D 693      10.813 -13.837  38.146  1.00 50.64 LIG 0.16  HD
ATOM      5 O    ARG D 692       9.695 -15.641  40.307  1.00 52.04 LIG-0.27  OA
BRANCH 3 6
ATOM      6  CA  LEU D 693       9.226 -13.225  39.188  1.00 43.34 LIG 0.18  C 
BRANCH 6 7
ATOM      7  C   LEU D 693       7.972 -13.401  38.343  1.00 37.95 LIG 0.24  C 
ATOM      8  N   LEU D 694       8.140 -13.943  37.154  1.00 39.22 LIG-0.35  N 
ATOM      9 H    LEU D 694       8.909 -14.149  36.830  1.00 39.22 LIG 0.16  HD
ATOM     10 O    LEU D 693       6.875 -13.019  38.766  1.00 43.86 LIG-0.27  OA
BRANCH 8 11
ATOM     11  CA  LEU D 694       7.036 -14.241  36.279  1.00 38.59 LIG 0.18  C 
BRANCH 11 12
ATOM     12  C   LEU D 694       6.291 -15.414  36.829  1.00 46.22 LIG 0.24  C 
ATOM     13  N   GLN D 695       7.016 -16.244  37.556  1.00 66.87 LIG-0.35  N 
ATOM     14 H    GLN D 695       7.868 -16.148  37.622  1.00 66.87 LIG 0.16  HD
ATOM     15 O    LEU D 694       5.131 -15.570  36.547  1.00 54.70 LIG-0.27  OA
BRANCH 13 16
ATOM     16  CA  GLN D 695       6.535 -17.398  38.327  1.00 62.86 LIG 0.16  C 
BRANCH 16 17
ATOM     17  CB  GLN D 695       6.220 -18.555  37.419  1.00 63.26 LIG 0.04  C 
BRANCH 17 18
ATOM     18  CG  GLN D 695       4.869 -19.143  37.725  1.00 77.24 LIG 0.10  C 
BRANCH 18 19
ATOM     19  CD  GLN D 695       3.772 -18.434  37.042  1.00 84.08 LIG 0.21  C 
ATOM     20 OE1  GLN D 695       3.976 -17.851  35.995  1.00 83.40 LIG-0.27  OA
ATOM     21  NE2 GLN D 695       2.584 -18.487  37.613  1.00 79.17 LIG-0.37  N 
ATOM     22 22HE GLN D 695       1.911 -18.099  37.243  1.00 79.17 LIG 0.16  HD
ATOM     23 21HE GLN D 695       2.482 -18.910  38.355  1.00 79.17 LIG 0.16  HD
ENDBRANCH 18 19
ENDBRANCH 17 18
ENDBRANCH 16 17
BRANCH 16 24
ATOM     24  C   GLN D 695       7.395 -17.838  39.510  1.00 61.14 LIG 0.22  C 
ATOM     25 O    GLN D 695       6.880 -18.147  40.588  1.00 66.66 LIG-0.29  OA
ENDBRANCH 16 24
ENDBRANCH 13 16
ENDBRANCH 11 12
BRANCH 11 26
ATOM     26  CB  LEU D 694       7.514 -14.611  34.892  1.00 34.51 LIG 0.04  C 
BRANCH 26 27
ATOM     27  CG  LEU D 694       7.350 -13.641  33.748  1.00 27.71 LIG-0.02  C 
ATOM     28  CD2 LEU D 694       8.424 -12.596  33.700  1.00 26.48 LIG 0.01  C 
ATOM     29  CD1 LEU D 694       5.977 -13.039  33.672  1.00 27.00 LIG 0.01  C 
ENDBRANCH 26 27
ENDBRANCH 11 26
ENDBRANCH 8 11
ENDBRANCH 6 7
BRANCH 6 30
ATOM     30  CB  LEU D 693       9.675 -11.754  39.199  1.00 45.67 LIG 0.04  C 
BRANCH 30 31
ATOM     31  CG  LEU D 693      11.126 -11.491  38.764  1.00 55.29 LIG-0.02  C 
ATOM     32  CD1 LEU D 693      11.171 -10.815  37.400  1.00 47.80 LIG 0.01  C 
ATOM     33  CD2 LEU D 693      11.912 -10.692  39.815  1.00 51.02 LIG 0.01  C 
ENDBRANCH 30 31
ENDBRANCH 6 30
ENDBRANCH 3 6
ENDBRANCH 1 2
BRANCH 1 34
ATOM     34  CB  ARG D 692      12.778 -15.940  39.865  1.00 49.09 LIG 0.04  C 
BRANCH 34 35
ATOM     35  CG  ARG D 692      13.474 -14.612  39.505  1.00 50.62 LIG 0.02  C 
BRANCH 35 36
ATOM     36  CD  ARG D 692      14.466 -14.707  38.355  1.00 57.04 LIG 0.14  C 
BRANCH 36 37
ATOM     37  NE  ARG D 692      15.759 -14.214  38.789  1.00 60.90 LIG-0.23  N 
ATOM     38 HE   ARG D 692      16.008 -13.442  38.502  1.00 60.90 LIG 0.18  HD
ATOM     39  CZ  ARG D 692      16.586 -14.864  39.595  1.00 61.50 LIG 0.67  C 
ATOM     40  NH1 ARG D 692      16.299 -16.100  40.000  1.00 46.48 LIG-0.23  N 
ATOM     41  NH2 ARG D 692      17.725 -14.288  39.957  1.00 64.68 LIG-0.23  N 
ATOM     42 1HH1 ARG D 692      15.573 -16.481  39.737  1.00 46.48 LIG 0.17  HD
ATOM     43 2HH1 ARG D 692      16.840 -16.517  40.522  1.00 46.48 LIG 0.17  HD
ATOM     44 1HH2 ARG D 692      17.920 -13.502  39.669  1.00 64.68 LIG 0.17  HD
ATOM     45 2HH2 ARG D 692      18.268 -14.702  40.480  1.00 64.68 LIG 0.17  HD
ENDBRANCH 36 37
ENDBRANCH 35 36
ENDBRANCH 34 35
ENDBRANCH 1 34
BRANCH 1 46
ATOM     46  N   ARG D 692      11.931 -16.149  37.505  1.00 43.06 LIG-0.35  N 
ATOM     47  C   HIS D 691      11.026 -16.290  36.552  1.00 44.11 LIG 0.24  C 
ATOM     48 O    HIS D 691       9.845 -16.515  36.774  1.00 43.39 LIG-0.27  OA
ATOM     49 H    ARG D 692      12.768 -16.016  37.355  1.00 43.06 LIG 0.16  HD
BRANCH 47 50
ATOM     50  CA  HIS D 691      11.536 -16.151  35.169  1.00 41.80 LIG 0.18  C 
BRANCH 50 51
ATOM     51  CB  HIS D 691      12.050 -17.497  34.787  1.00 51.00 LIG 0.10  C 
BRANCH 51 52
ATOM     52  CG  HIS D 691      12.095 -17.741  33.336  1.00 57.86 LIG 0.06  A 
ATOM     53 ND1  HIS D 691      11.184 -18.468  32.711  1.00 60.60 LIG-0.24  NA
ATOM     54  CE1 HIS D 691      11.479 -18.520  31.415  1.00 72.50 LIG 0.23  A 
ATOM     55 NE2  HIS D 691      12.602 -17.836  31.216  1.00 67.35 LIG-0.25  NA
ATOM     56  CD2 HIS D 691      13.010 -17.348  32.379  1.00 66.29 LIG 0.14  A 
ENDBRANCH 51 52
ENDBRANCH 50 51
BRANCH 50 57
ATOM     57  N   HIS D 691      12.616 -15.193  35.105  1.00 39.94 LIG-0.35  N 
ATOM     58 H    HIS D 691      13.398 -15.551  35.078  1.00 39.94 LIG 0.16  HD
ATOM     59  C   LEU D 690      12.416 -13.885  35.092  1.00 35.88 LIG 0.24  C 
ATOM     60 O    LEU D 690      11.279 -13.367  35.110  1.00 34.66 LIG-0.27  OA
BRANCH 59 61
ATOM     61  CA  LEU D 690      13.649 -13.012  35.114  1.00 33.43 LIG 0.18  C 
BRANCH 61 62
ATOM     62  CB  LEU D 690      13.243 -11.541  35.025  1.00 31.34 LIG 0.04  C 
BRANCH 62 63
ATOM     63  CG  LEU D 690      14.280 -10.520  35.479  1.00 30.93 LIG-0.02  C 
ATOM     64  CD1 LEU D 690      14.783 -10.875  36.870  1.00 30.90 LIG 0.01  C 
ATOM     65  CD2 LEU D 690      15.443 -10.505  34.506  1.00 28.62 LIG 0.01  C 
ENDBRANCH 62 63
ENDBRANCH 61 62
BRANCH 61 66
ATOM     66  N   LEU D 690      14.557 -13.346  34.014  1.00 35.22 LIG-0.35  N 
ATOM     67 H    LEU D 690      14.477 -12.842  33.323  1.00 35.22 LIG 0.16  HD
ATOM     68  C   ILE D 689      15.424 -14.348  34.103  1.00 41.04 LIG 0.26  C 
ATOM     69 O    ILE D 689      15.560 -15.026  35.132  1.00 39.56 LIG-0.27  OA
BRANCH 68 70
ATOM     70  CA  ILE D 689      16.299 -14.590  32.855  1.00 40.35 LIG 0.40  C 
ATOM     71  N   ILE D 689      15.490 -14.628  31.574  1.00 40.45 LIG 0.61  N 
BRANCH 70 72
ATOM     72  CB  ILE D 689      17.387 -13.488  32.829  1.00 42.26 LIG 0.03  C 
ATOM     73  CG2 ILE D 689      18.495 -13.789  33.855  1.00 38.55 LIG 0.01  C 
BRANCH 72 74
ATOM     74  CG1 ILE D 689      17.960 -13.297  31.422  1.00 45.91 LIG 0.00  C 
ATOM     75  CD1 ILE D 689      19.205 -12.412  31.361  1.00 45.96 LIG 0.01  C 
ENDBRANCH 72 74
ENDBRANCH 70 72
ENDBRANCH 68 70
ENDBRANCH 61 66
ENDBRANCH 59 61
ENDBRANCH 50 57
ENDBRANCH 47 50
ENDBRANCH 1 46
TORSDOF 30
ENDMDL
MODEL 10
USER: ADFR SOLUTION from run 33
USER: SCORE 20.526145 LL:  -7.035 LR: -13.838 RR:   0.000 FEB:  -4.889
USER: RMSD 3.202427
USER: SEED 32
USER: STATUS no improvement in best in 19 clusters for 5 generations
USER: GENES 32
USER: genes 0 Translation |==|  0.54099 0.48585 0.53679
USER: genes 1 Rotation |==|  0.46748 0.54113 0.57324 0.99182
USER: genes 2 Torsion [N]-CA--C-[N] |==|  0.88005
USER: genes 3 Torsion [C]-N--CA-[C] |==|  0.75173
USER: genes 4 Torsion [N]-CA--C-[N] |==|  0.96279
USER: genes 5 Torsion [C]-N--CA-[C] |==|  0.72985
USER: genes 6 Torsion [N]-CA--C-[N] |==|  0.00284
USER: genes 7 Torsion [C]-N--CA-[CB] |==|  0.91307
USER: genes 8 Torsion [N]-CA--CB-[CG] |==|  0.32498
USER: genes 9 Torsion [CA]-CB--CG-[CD] |==|  0.66772
USER: genes 10 Torsion [CB]-CG--CD-[NE2] |==|  0.43494
USER: genes 11 Torsion [N]-CA--C-[O] |==|  0.21128
USER: genes 12 Torsion [N]-CA--CB-[CG] |==|  0.76138
USER: genes 13 Torsion [CA]-CB--CG-[CD2] |==|  0.90553
USER: genes 14 Torsion [N]-CA--CB-[CG] |==|  0.65081
USER: genes 15 Torsion [CA]-CB--CG-[CD1] |==|  0.38717
USER: genes 16 Torsion [C]-CA--CB-[CG] |==|  0.49400
USER: genes 17 Torsion [CA]-CB--CG-[CD] |==|  0.52038
USER: genes 18 Torsion [CB]-CG--CD-[NE] |==|  0.56104
USER: genes 19 Torsion [CG]-CD--NE-[CZ] |==|  0.22765
USER: genes 20 Torsion [C]-CA--N-[C] |==|  0.85141
USER: genes 21 Torsion [N]-C--CA-[N] |==|  0.87222
USER: genes 22 Torsion [C]-CA--CB-[CG] |==|  0.08940
USER: genes 23 Torsion [CA]-CB--CG-[ND1] |==|  0.71050
USER: genes 24 Torsion [C]-CA--N-[C] |==|  0.85951
USER: genes 25 Torsion [N]-C--CA-[N] |==|  0.96259
USER: genes 26 Torsion [C]-CA--CB-[CG] |==|  0.83599
USER: genes 27 Torsion [CA]-CB--CG-[CD2] |==|  0.64241
USER: genes 28 Torsion [C]-CA--N-[C] |==|  0.82059
USER: genes 29 Torsion [N]-C--CA-[N] |==|  0.61411
USER: genes 30 Torsion [C]-CA--CB-[CG1] |==|  0.60008
USER: genes 31 Torsion [CA]-CB--CG1-[CD1] |==|  0.68059
ROOT
ATOM      1  CA  ARG D 692      10.525 -15.267  39.636  1.00 48.73 LIG 0.18  C 
ENDROOT
BRANCH 1 2
ATOM      2  C   ARG D 692       9.177 -14.686  40.028  1.00 46.10 LIG 0.24  C 
ATOM      3  N   LEU D 693       8.863 -13.479  39.563  1.00 50.64 LIG-0.35  N 
ATOM      4 H    LEU D 693       9.355 -13.006  39.041  1.00 50.64 LIG 0.16  HD
ATOM      5 O    ARG D 692       8.451 -15.282  40.823  1.00 52.04 LIG-0.27  OA
BRANCH 3 6
ATOM      6  CA  LEU D 693       7.584 -12.875  39.949  1.00 43.34 LIG 0.18  C 
BRANCH 6 7
ATOM      7  C   LEU D 693       6.462 -13.244  38.987  1.00 37.95 LIG 0.24  C 
ATOM      8  N   LEU D 694       6.827 -13.790  37.845  1.00 39.22 LIG-0.35  N 
ATOM      9 H    LEU D 694       7.647 -13.898  37.611  1.00 39.22 LIG 0.16  HD
ATOM     10 O    LEU D 693       5.285 -13.005  39.279  1.00 43.86 LIG-0.27  OA
BRANCH 8 11
ATOM     11  CA  LEU D 694       5.874 -14.261  36.875  1.00 38.59 LIG 0.18  C 
BRANCH 11 12
ATOM     12  C   LEU D 694       5.696 -15.734  37.052  1.00 46.22 LIG 0.24  C 
ATOM     13  N   GLN D 695       6.404 -16.267  38.031  1.00 66.87 LIG-0.35  N 
ATOM     14 H    GLN D 695       6.983 -15.802  38.465  1.00 66.87 LIG 0.16  HD
ATOM     15 O    LEU D 694       4.996 -16.347  36.290  1.00 54.70 LIG-0.27  OA
BRANCH 13 16
ATOM     16  CA  GLN D 695       6.335 -17.650  38.523  1.00 62.86 LIG 0.16  C 
BRANCH 16 17
ATOM     17  CB  GLN D 695       4.946 -18.205  38.367  1.00 63.26 LIG 0.04  C 
BRANCH 17 18
ATOM     18  CG  GLN D 695       4.924 -19.378  37.424  1.00 77.24 LIG 0.10  C 
BRANCH 18 19
ATOM     19  CD  GLN D 695       4.062 -19.149  36.251  1.00 84.08 LIG 0.21  C 
ATOM     20 OE1  GLN D 695       3.168 -18.326  36.297  1.00 83.40 LIG-0.27  OA
ATOM     21  NE2 GLN D 695       4.326 -19.861  35.172  1.00 79.17 LIG-0.37  N 
ATOM     22 22HE GLN D 695       3.858 -19.751  34.459  1.00 79.17 LIG 0.16  HD
ATOM     23 21HE GLN D 695       4.968 -20.433  35.181  1.00 79.17 LIG 0.16  HD
ENDBRANCH 18 19
ENDBRANCH 17 18
ENDBRANCH 16 17
BRANCH 16 24
ATOM     24  C   GLN D 695       7.385 -18.620  37.985  1.00 61.14 LIG 0.22  C 
ATOM     25 O    GLN D 695       8.547 -18.590  38.400  1.00 66.66 LIG-0.29  OA
ENDBRANCH 16 24
ENDBRANCH 13 16
ENDBRANCH 11 12
BRANCH 11 26
ATOM     26  CB  LEU D 694       6.359 -14.023  35.462  1.00 34.51 LIG 0.04  C 
BRANCH 26 27
ATOM     27  CG  LEU D 694       6.106 -12.699  34.784  1.00 27.71 LIG-0.02  C 
ATOM     28  CD2 LEU D 694       4.803 -12.072  35.180  1.00 26.48 LIG 0.01  C 
ATOM     29  CD1 LEU D 694       6.273 -12.752  33.293  1.00 27.00 LIG 0.01  C 
ENDBRANCH 26 27
ENDBRANCH 11 26
ENDBRANCH 8 11
ENDBRANCH 6 7
BRANCH 6 30
ATOM     30  CB  LEU D 693       7.686 -11.348  40.107  1.00 45.67 LIG 0.04  C 
BRANCH 30 31
ATOM     31  CG  LEU D 693       7.214 -10.779  41.454  1.00 55.29 LIG-0.02  C 
ATOM     32  CD1 LEU D 693       8.145  -9.673  41.932  1.00 47.80 LIG 0.01  C 
ATOM     33  CD2 LEU D 693       5.754 -10.305  41.406  1.00 51.02 LIG 0.01  C 
ENDBRANCH 30 31
ENDBRANCH 6 30
ENDBRANCH 3 6
ENDBRANCH 1 2
BRANCH 1 34
ATOM     34  CB  ARG D 692      11.594 -14.725  40.609  1.00 49.09 LIG 0.04  C 
BRANCH 34 35
ATOM     35  CG  ARG D 692      12.984 -15.317  40.303  1.00 50.62 LIG 0.02  C 
BRANCH 35 36
ATOM     36  CD  ARG D 692      14.059 -14.971  41.322  1.00 57.04 LIG 0.14  C 
BRANCH 36 37
ATOM     37  NE  ARG D 692      15.368 -15.111  40.712  1.00 60.90 LIG-0.23  N 
ATOM     38 HE   ARG D 692      15.798 -15.841  40.855  1.00 60.90 LIG 0.18  HD
ATOM     39  CZ  ARG D 692      15.949 -14.195  39.951  1.00 61.50 LIG 0.67  C 
ATOM     40  NH1 ARG D 692      15.375 -13.008  39.767  1.00 46.48 LIG-0.23  N 
ATOM     41  NH2 ARG D 692      17.133 -14.457  39.412  1.00 64.68 LIG-0.23  N 
ATOM     42 1HH1 ARG D 692      14.621 -12.832  40.144  1.00 46.48 LIG 0.17  HD
ATOM     43 2HH1 ARG D 692      15.757 -12.418  39.272  1.00 46.48 LIG 0.17  HD
ATOM     44 1HH2 ARG D 692      17.514 -15.214  39.558  1.00 64.68 LIG 0.17  HD
ATOM     45 2HH2 ARG D 692      17.519 -13.870  38.916  1.00 64.68 LIG 0.17  HD
ENDBRANCH 36 37
ENDBRANCH 35 36
ENDBRANCH 34 35
ENDBRANCH 1 34
BRANCH 1 46
ATOM     46  N   ARG D 692      10.911 -15.095  38.216  1.00 43.06 LIG-0.35  N 
ATOM     47  C   HIS D 691      10.122 -15.476  37.226  1.00 44.11 LIG 0.24  C 
ATOM     48 O    HIS D 691       9.045 -16.027  37.400  1.00 43.39 LIG-0.27  OA
ATOM     49 H    ARG D 692      11.682 -14.729  38.100  1.00 43.06 LIG 0.16  HD
BRANCH 47 50
ATOM     50  CA  HIS D 691      10.627 -15.187  35.865  1.00 41.80 LIG 0.18  C 
BRANCH 50 51
ATOM     51  CB  HIS D 691      11.744 -16.147  35.633  1.00 51.00 LIG 0.10  C 
BRANCH 51 52
ATOM     52  CG  HIS D 691      11.575 -17.448  36.301  1.00 57.86 LIG 0.06  A 
ATOM     53 ND1  HIS D 691      12.244 -17.776  37.393  1.00 60.60 LIG-0.24  NA
ATOM     54  CE1 HIS D 691      11.895 -19.002  37.769  1.00 72.50 LIG 0.23  A 
ATOM     55 NE2  HIS D 691      11.009 -19.470  36.895  1.00 67.35 LIG-0.25  NA
ATOM     56  CD2 HIS D 691      10.794 -18.540  35.975  1.00 66.29 LIG 0.14  A 
ENDBRANCH 51 52
ENDBRANCH 50 51
BRANCH 50 57
ATOM     57  N   HIS D 691      11.133 -13.836  35.773  1.00 39.94 LIG-0.35  N 
ATOM     58 H    HIS D 691      11.922 -13.782  35.434  1.00 39.94 LIG 0.16  HD
ATOM     59  C   LEU D 690      10.442 -12.782  36.175  1.00 35.88 LIG 0.24  C 
ATOM     60 O    LEU D 690       9.288 -12.860  36.647  1.00 34.66 LIG-0.27  OA
BRANCH 59 61
ATOM     61  CA  LEU D 690      11.143 -11.445  36.096  1.00 33.43 LIG 0.18  C 
BRANCH 61 62
ATOM     62  CB  LEU D 690      10.537 -10.610  34.967  1.00 31.34 LIG 0.04  C 
BRANCH 62 63
ATOM     63  CG  LEU D 690      10.598 -11.212  33.568  1.00 30.93 LIG-0.02  C 
ATOM     64  CD1 LEU D 690       9.201 -11.599  33.107  1.00 30.90 LIG 0.01  C 
ATOM     65  CD2 LEU D 690      11.192 -10.204  32.603  1.00 28.62 LIG 0.01  C 
ENDBRANCH 62 63
ENDBRANCH 61 62
BRANCH 61 66
ATOM     66  N   LEU D 690      12.581 -11.610  35.879  1.00 35.22 LIG-0.35  N 
ATOM     67 H    LEU D 690      12.863 -11.301  35.127  1.00 35.22 LIG 0.16  HD
ATOM     68  C   ILE D 689      13.363 -12.189  36.781  1.00 41.04 LIG 0.26  C 
ATOM     69 O    ILE D 689      12.942 -12.574  37.882  1.00 39.56 LIG-0.27  OA
BRANCH 68 70
ATOM     70  CA  ILE D 689      14.854 -12.307  36.400  1.00 40.35 LIG 0.40  C 
ATOM     71  N   ILE D 689      15.451 -13.643  36.795  1.00 40.45 LIG 0.61  N 
BRANCH 70 72
ATOM     72  CB  ILE D 689      14.969 -12.040  34.879  1.00 42.26 LIG 0.03  C 
ATOM     73  CG2 ILE D 689      15.214 -10.545  34.603  1.00 38.55 LIG 0.01  C 
BRANCH 72 74
ATOM     74  CG1 ILE D 689      16.047 -12.916  34.234  1.00 45.91 LIG 0.00  C 
ATOM     75  CD1 ILE D 689      17.235 -12.141  33.667  1.00 45.96 LIG 0.01  C 
ENDBRANCH 72 74
ENDBRANCH 70 72
ENDBRANCH 68 70
ENDBRANCH 61 66
ENDBRANCH 59 61
ENDBRANCH 50 57
ENDBRANCH 47 50
ENDBRANCH 1 46
TORSDOF 30
ENDMDL
MODEL 11
USER: ADFR SOLUTION from run 182
USER: SCORE 21.581684 LL:  -8.384 LR: -13.672 RR:   0.000 FEB:  -4.723
USER: RMSD 3.607599
USER: SEED 181
USER: STATUS no improvement in best in 19 clusters for 5 generations
USER: GENES 32
USER: genes 0 Translation |==|  0.60425 0.46145 0.50631
USER: genes 1 Rotation |==|  0.45206 0.59136 0.53605 0.98791
USER: genes 2 Torsion [N]-CA--C-[N] |==|  0.94016
USER: genes 3 Torsion [C]-N--CA-[C] |==|  0.65485
USER: genes 4 Torsion [N]-CA--C-[N] |==|  0.95447
USER: genes 5 Torsion [C]-N--CA-[C] |==|  0.81763
USER: genes 6 Torsion [N]-CA--C-[N] |==|  0.90228
USER: genes 7 Torsion [C]-N--CA-[CB] |==|  0.79960
USER: genes 8 Torsion [N]-CA--CB-[CG] |==|  0.29028
USER: genes 9 Torsion [CA]-CB--CG-[CD] |==|  0.66965
USER: genes 10 Torsion [CB]-CG--CD-[NE2] |==|  0.61300
USER: genes 11 Torsion [N]-CA--C-[O] |==|  0.89896
USER: genes 12 Torsion [N]-CA--CB-[CG] |==|  0.64822
USER: genes 13 Torsion [CA]-CB--CG-[CD2] |==|  0.25551
USER: genes 14 Torsion [N]-CA--CB-[CG] |==|  0.96684
USER: genes 15 Torsion [CA]-CB--CG-[CD1] |==|  0.22923
USER: genes 16 Torsion [C]-CA--CB-[CG] |==|  0.88428
USER: genes 17 Torsion [CA]-CB--CG-[CD] |==|  0.52716
USER: genes 18 Torsion [CB]-CG--CD-[NE] |==|  0.34062
USER: genes 19 Torsion [CG]-CD--NE-[CZ] |==|  0.29160
USER: genes 20 Torsion [C]-CA--N-[C] |==|  0.83889
USER: genes 21 Torsion [N]-C--CA-[N] |==|  0.90417
USER: genes 22 Torsion [C]-CA--CB-[CG] |==|  0.40633
USER: genes 23 Torsion [CA]-CB--CG-[ND1] |==|  0.78688
USER: genes 24 Torsion [C]-CA--N-[C] |==|  0.84926
USER: genes 25 Torsion [N]-C--CA-[N] |==|  0.92497
USER: genes 26 Torsion [C]-CA--CB-[CG] |==|  0.17968
USER: genes 27 Torsion [CA]-CB--CG-[CD2] |==|  0.44729
USER: genes 28 Torsion [C]-CA--N-[C] |==|  0.82287
USER: genes 29 Torsion [N]-C--CA-[N] |==|  0.48600
USER: genes 30 Torsion [C]-CA--CB-[CG1] |==|  0.21281
USER: genes 31 Torsion [CA]-CB--CG1-[CD1] |==|  0.63544
ROOT
ATOM      1  CA  ARG D 692      11.949 -15.725  39.042  1.00 48.73 LIG 0.18  C 
ENDROOT
BRANCH 1 2
ATOM      2  C   ARG D 692      10.793 -14.902  39.588  1.00 46.10 LIG 0.24  C 
ATOM      3  N   LEU D 693      10.287 -13.949  38.810  1.00 50.64 LIG-0.35  N 
ATOM      4 H    LEU D 693      10.550 -13.771  38.011  1.00 50.64 LIG 0.16  HD
ATOM      5 O    ARG D 692      10.410 -15.063  40.746  1.00 52.04 LIG-0.27  OA
BRANCH 3 6
ATOM      6  CA  LEU D 693       9.194 -13.116  39.318  1.00 43.34 LIG 0.18  C 
BRANCH 6 7
ATOM      7  C   LEU D 693       7.974 -13.149  38.407  1.00 37.95 LIG 0.24  C 
ATOM      8  N   LEU D 694       8.170 -13.607  37.187  1.00 39.22 LIG-0.35  N 
ATOM      9 H    LEU D 694       8.941 -13.834  36.882  1.00 39.22 LIG 0.16  HD
ATOM     10 O    LEU D 693       6.881 -12.735  38.809  1.00 43.86 LIG-0.27  OA
BRANCH 8 11
ATOM     11  CA  LEU D 694       7.096 -13.769  36.242  1.00 38.59 LIG 0.18  C 
BRANCH 11 12
ATOM     12  C   LEU D 694       6.170 -14.829  36.745  1.00 46.22 LIG 0.24  C 
ATOM     13  N   GLN D 695       6.757 -15.822  37.388  1.00 66.87 LIG-0.35  N 
ATOM     14 H    GLN D 695       7.614 -15.882  37.426  1.00 66.87 LIG 0.16  HD
ATOM     15 O    LEU D 694       4.994 -14.761  36.500  1.00 54.70 LIG-0.27  OA
BRANCH 13 16
ATOM     16  CA  GLN D 695       6.101 -16.925  38.102  1.00 62.86 LIG 0.16  C 
BRANCH 16 17
ATOM     17  CB  GLN D 695       5.477 -16.438  39.382  1.00 63.26 LIG 0.04  C 
BRANCH 17 18
ATOM     18  CG  GLN D 695       3.981 -16.327  39.256  1.00 77.24 LIG 0.10  C 
BRANCH 18 19
ATOM     19  CD  GLN D 695       3.494 -14.951  39.459  1.00 84.08 LIG 0.21  C 
ATOM     20 OE1  GLN D 695       4.093 -14.010  38.977  1.00 83.40 LIG-0.27  OA
ATOM     21  NE2 GLN D 695       2.386 -14.811  40.161  1.00 79.17 LIG-0.37  N 
ATOM     22 22HE GLN D 695       2.057 -14.027  40.294  1.00 79.17 LIG 0.16  HD
ATOM     23 21HE GLN D 695       1.992 -15.502  40.485  1.00 79.17 LIG 0.16  HD
ENDBRANCH 18 19
ENDBRANCH 17 18
ENDBRANCH 16 17
BRANCH 16 24
ATOM     24  C   GLN D 695       5.124 -17.778  37.296  1.00 61.14 LIG 0.22  C 
ATOM     25 O    GLN D 695       4.401 -17.270  36.435  1.00 66.66 LIG-0.29  OA
ENDBRANCH 16 24
ENDBRANCH 13 16
ENDBRANCH 11 12
BRANCH 11 26
ATOM     26  CB  LEU D 694       7.611 -14.214  34.890  1.00 34.51 LIG 0.04  C 
BRANCH 26 27
ATOM     27  CG  LEU D 694       7.245 -13.441  33.647  1.00 27.71 LIG-0.02  C 
ATOM     28  CD2 LEU D 694       8.241 -12.377  33.297  1.00 26.48 LIG 0.01  C 
ATOM     29  CD1 LEU D 694       5.840 -12.910  33.668  1.00 27.00 LIG 0.01  C 
ENDBRANCH 26 27
ENDBRANCH 11 26
ENDBRANCH 8 11
ENDBRANCH 6 7
BRANCH 6 30
ATOM     30  CB  LEU D 693       9.640 -11.667  39.579  1.00 45.67 LIG 0.04  C 
BRANCH 30 31
ATOM     31  CG  LEU D 693      11.156 -11.414  39.547  1.00 55.29 LIG-0.02  C 
ATOM     32  CD1 LEU D 693      11.646 -11.233  38.117  1.00 47.80 LIG 0.01  C 
ATOM     33  CD2 LEU D 693      11.568 -10.234  40.438  1.00 51.02 LIG 0.01  C 
ENDBRANCH 30 31
ENDBRANCH 6 30
ENDBRANCH 3 6
ENDBRANCH 1 2
BRANCH 1 34
ATOM     34  CB  ARG D 692      13.246 -15.276  39.748  1.00 49.09 LIG 0.04  C 
BRANCH 34 35
ATOM     35  CG  ARG D 692      13.303 -13.743  39.895  1.00 50.62 LIG 0.02  C 
BRANCH 35 36
ATOM     36  CD  ARG D 692      14.645 -13.201  40.366  1.00 57.04 LIG 0.14  C 
BRANCH 36 37
ATOM     37  NE  ARG D 692      15.151 -12.250  39.395  1.00 60.90 LIG-0.23  N 
ATOM     38 HE   ARG D 692      15.476 -12.564  38.663  1.00 60.90 LIG 0.18  HD
ATOM     39  CZ  ARG D 692      15.152 -10.935  39.553  1.00 61.50 LIG 0.67  C 
ATOM     40  NH1 ARG D 692      14.748 -10.394  40.702  1.00 46.48 LIG-0.23  N 
ATOM     41  NH2 ARG D 692      15.603 -10.165  38.572  1.00 64.68 LIG-0.23  N 
ATOM     42 1HH1 ARG D 692      14.485 -10.900  41.346  1.00 46.48 LIG 0.17  HD
ATOM     43 2HH1 ARG D 692      14.751  -9.540  40.798  1.00 46.48 LIG 0.17  HD
ATOM     44 1HH2 ARG D 692      15.891 -10.520  37.844  1.00 64.68 LIG 0.17  HD
ATOM     45 2HH2 ARG D 692      15.608  -9.310  38.664  1.00 64.68 LIG 0.17  HD
ENDBRANCH 36 37
ENDBRANCH 35 36
ENDBRANCH 34 35
ENDBRANCH 1 34
BRANCH 1 46
ATOM     46  N   ARG D 692      12.083 -15.743  37.566  1.00 43.06 LIG-0.35  N 
ATOM     47  C   HIS D 691      11.106 -16.163  36.781  1.00 44.11 LIG 0.24  C 
ATOM     48 O    HIS D 691      10.045 -16.598  37.203  1.00 43.39 LIG-0.27  OA
ATOM     49 H    ARG D 692      12.842 -15.459  37.277  1.00 43.06 LIG 0.16  HD
BRANCH 47 50
ATOM     50  CA  HIS D 691      11.376 -16.070  35.328  1.00 41.80 LIG 0.18  C 
BRANCH 50 51
ATOM     51  CB  HIS D 691      12.137 -17.302  34.975  1.00 51.00 LIG 0.10  C 
BRANCH 51 52
ATOM     52  CG  HIS D 691      11.857 -17.823  33.627  1.00 57.86 LIG 0.06  A 
ATOM     53 ND1  HIS D 691      10.755 -18.493  33.341  1.00 60.60 LIG-0.24  NA
ATOM     54  CE1 HIS D 691      10.774 -18.841  32.058  1.00 72.50 LIG 0.23  A 
ATOM     55 NE2  HIS D 691      11.912 -18.406  31.525  1.00 67.35 LIG-0.25  NA
ATOM     56  CD2 HIS D 691      12.605 -17.779  32.465  1.00 66.29 LIG 0.14  A 
ENDBRANCH 51 52
ENDBRANCH 50 51
BRANCH 50 57
ATOM     57  N   HIS D 691      12.180 -14.908  35.021  1.00 39.94 LIG-0.35  N 
ATOM     58 H    HIS D 691      12.896 -15.087  34.578  1.00 39.94 LIG 0.16  HD
ATOM     59  C   LEU D 690      11.843 -13.683  35.391  1.00 35.88 LIG 0.24  C 
ATOM     60 O    LEU D 690      10.792 -13.422  36.016  1.00 34.66 LIG-0.27  OA
BRANCH 59 61
ATOM     61  CA  LEU D 690      12.831 -12.585  35.073  1.00 33.43 LIG 0.18  C 
BRANCH 61 62
ATOM     62  CB  LEU D 690      12.456 -11.920  33.748  1.00 31.34 LIG 0.04  C 
BRANCH 62 63
ATOM     63  CG  LEU D 690      11.128 -11.174  33.714  1.00 30.93 LIG-0.02  C 
ATOM     64  CD1 LEU D 690      10.930 -10.406  35.012  1.00 30.90 LIG 0.01  C 
ATOM     65  CD2 LEU D 690      11.114 -10.208  32.544  1.00 28.62 LIG 0.01  C 
ENDBRANCH 62 63
ENDBRANCH 61 62
BRANCH 61 66
ATOM     66  N   LEU D 690      14.199 -13.104  35.002  1.00 35.22 LIG-0.35  N 
ATOM     67 H    LEU D 690      14.564 -13.035  34.226  1.00 35.22 LIG 0.16  HD
ATOM     68  C   ILE D 689      14.803 -13.631  36.060  1.00 41.04 LIG 0.26  C 
ATOM     69 O    ILE D 689      14.276 -13.668  37.181  1.00 39.56 LIG-0.27  OA
BRANCH 68 70
ATOM     70  CA  ILE D 689      16.236 -14.153  35.823  1.00 40.35 LIG 0.40  C 
ATOM     71  N   ILE D 689      16.900 -14.627  37.100  1.00 40.45 LIG 0.61  N 
BRANCH 70 72
ATOM     72  CB  ILE D 689      16.154 -15.272  34.755  1.00 42.26 LIG 0.03  C 
ATOM     73  CG2 ILE D 689      15.039 -16.277  35.100  1.00 38.55 LIG 0.01  C 
BRANCH 72 74
ATOM     74  CG1 ILE D 689      15.976 -14.694  33.348  1.00 45.91 LIG 0.00  C 
ATOM     75  CD1 ILE D 689      14.853 -15.340  32.537  1.00 45.96 LIG 0.01  C 
ENDBRANCH 72 74
ENDBRANCH 70 72
ENDBRANCH 68 70
ENDBRANCH 61 66
ENDBRANCH 59 61
ENDBRANCH 50 57
ENDBRANCH 47 50
ENDBRANCH 1 46
TORSDOF 30
ENDMDL
MODEL 12
USER: ADFR SOLUTION from run 109
USER: SCORE 20.876585 LL:  -7.830 LR: -13.643 RR:   0.000 FEB:  -4.694
USER: RMSD 3.170642
USER: SEED 108
USER: STATUS no improvement in best in 19 clusters for 5 generations
USER: GENES 32
USER: genes 0 Translation |==|  0.54234 0.47141 0.53245
USER: genes 1 Rotation |==|  0.52816 0.54613 0.53026 0.99615
USER: genes 2 Torsion [N]-CA--C-[N] |==|  0.92285
USER: genes 3 Torsion [C]-N--CA-[C] |==|  0.71479
USER: genes 4 Torsion [N]-CA--C-[N] |==|  0.01604
USER: genes 5 Torsion [C]-N--CA-[C] |==|  0.78273
USER: genes 6 Torsion [N]-CA--C-[N] |==|  0.19027
USER: genes 7 Torsion [C]-N--CA-[CB] |==|  0.66077
USER: genes 8 Torsion [N]-CA--CB-[CG] |==|  0.85507
USER: genes 9 Torsion [CA]-CB--CG-[CD] |==|  0.34795
USER: genes 10 Torsion [CB]-CG--CD-[NE2] |==|  0.20535
USER: genes 11 Torsion [N]-CA--C-[O] |==|  0.16912
USER: genes 12 Torsion [N]-CA--CB-[CG] |==|  0.72075
USER: genes 13 Torsion [CA]-CB--CG-[CD2] |==|  0.83036
USER: genes 14 Torsion [N]-CA--CB-[CG] |==|  0.79007
USER: genes 15 Torsion [CA]-CB--CG-[CD1] |==|  0.24147
USER: genes 16 Torsion [C]-CA--CB-[CG] |==|  0.64930
USER: genes 17 Torsion [CA]-CB--CG-[CD] |==|  0.71010
USER: genes 18 Torsion [CB]-CG--CD-[NE] |==|  0.63281
USER: genes 19 Torsion [CG]-CD--NE-[CZ] |==|  0.74497
USER: genes 20 Torsion [C]-CA--N-[C] |==|  0.81632
USER: genes 21 Torsion [N]-C--CA-[N] |==|  0.85644
USER: genes 22 Torsion [C]-CA--CB-[CG] |==|  0.63399
USER: genes 23 Torsion [CA]-CB--CG-[ND1] |==|  0.25687
USER: genes 24 Torsion [C]-CA--N-[C] |==|  0.84600
USER: genes 25 Torsion [N]-C--CA-[N] |==|  0.91045
USER: genes 26 Torsion [C]-CA--CB-[CG] |==|  0.90286
USER: genes 27 Torsion [CA]-CB--CG-[CD2] |==|  0.63043
USER: genes 28 Torsion [C]-CA--N-[C] |==|  0.82028
USER: genes 29 Torsion [N]-C--CA-[N] |==|  0.01446
USER: genes 30 Torsion [C]-CA--CB-[CG1] |==|  0.56246
USER: genes 31 Torsion [CA]-CB--CG1-[CD1] |==|  0.63171
ROOT
ATOM      1  CA  ARG D 692      10.556 -15.538  39.552  1.00 48.73 LIG 0.18  C 
ENDROOT
BRANCH 1 2
ATOM      2  C   ARG D 692       9.355 -14.819  40.145  1.00 46.10 LIG 0.24  C 
ATOM      3  N   LEU D 693       9.101 -13.583  39.721  1.00 50.64 LIG-0.35  N 
ATOM      4 H    LEU D 693       9.551 -13.162  39.123  1.00 50.64 LIG 0.16  HD
ATOM      5 O    ARG D 692       8.706 -15.339  41.051  1.00 52.04 LIG-0.27  OA
BRANCH 3 6
ATOM      6  CA  LEU D 693       7.970 -12.849  40.297  1.00 43.34 LIG 0.18  C 
BRANCH 6 7
ATOM      7  C   LEU D 693       6.766 -12.825  39.365  1.00 37.95 LIG 0.24  C 
ATOM      8  N   LEU D 694       6.865 -13.543  38.265  1.00 39.22 LIG-0.35  N 
ATOM      9 H    LEU D 694       7.576 -13.971  38.039  1.00 39.22 LIG 0.16  HD
ATOM     10 O    LEU D 693       5.777 -12.135  39.638  1.00 43.86 LIG-0.27  OA
BRANCH 8 11
ATOM     11  CA  LEU D 694       5.779 -13.678  37.331  1.00 38.59 LIG 0.18  C 
BRANCH 11 12
ATOM     12  C   LEU D 694       4.799 -14.667  37.873  1.00 46.22 LIG 0.24  C 
ATOM     13  N   GLN D 695       4.140 -14.268  38.945  1.00 66.87 LIG-0.35  N 
ATOM     14 H    GLN D 695       4.338 -13.530  39.339  1.00 66.87 LIG 0.16  HD
ATOM     15 O    LEU D 694       4.703 -15.753  37.365  1.00 54.70 LIG-0.27  OA
BRANCH 13 16
ATOM     16  CA  GLN D 695       3.031 -14.963  39.613  1.00 62.86 LIG 0.16  C 
BRANCH 16 17
ATOM     17  CB  GLN D 695       1.808 -14.088  39.669  1.00 63.26 LIG 0.04  C 
BRANCH 17 18
ATOM     18  CG  GLN D 695       2.123 -12.739  40.258  1.00 77.24 LIG 0.10  C 
BRANCH 18 19
ATOM     19  CD  GLN D 695       1.723 -11.627  39.377  1.00 84.08 LIG 0.21  C 
ATOM     20 OE1  GLN D 695       2.561 -11.005  38.754  1.00 83.40 LIG-0.27  OA
ATOM     21  NE2 GLN D 695       0.431 -11.370  39.294  1.00 79.17 LIG-0.37  N 
ATOM     22 22HE GLN D 695       0.151 -10.739  38.782  1.00 79.17 LIG 0.16  HD
ATOM     23 21HE GLN D 695      -0.129 -11.834  39.751  1.00 79.17 LIG 0.16  HD
ENDBRANCH 18 19
ENDBRANCH 17 18
ENDBRANCH 16 17
BRANCH 16 24
ATOM     24  C   GLN D 695       2.692 -16.361  39.102  1.00 61.14 LIG 0.22  C 
ATOM     25 O    GLN D 695       3.524 -17.272  39.148  1.00 66.66 LIG-0.29  OA
ENDBRANCH 16 24
ENDBRANCH 13 16
ENDBRANCH 11 12
BRANCH 11 26
ATOM     26  CB  LEU D 694       6.261 -14.195  35.992  1.00 34.51 LIG 0.04  C 
BRANCH 26 27
ATOM     27  CG  LEU D 694       6.471 -13.243  34.841  1.00 27.71 LIG-0.02  C 
ATOM     28  CD2 LEU D 694       5.219 -12.528  34.429  1.00 26.48 LIG 0.01  C 
ATOM     29  CD1 LEU D 694       7.170 -13.871  33.670  1.00 27.00 LIG 0.01  C 
ENDBRANCH 26 27
ENDBRANCH 11 26
ENDBRANCH 8 11
ENDBRANCH 6 7
BRANCH 6 30
ATOM     30  CB  LEU D 693       8.359 -11.423  40.723  1.00 45.67 LIG 0.04  C 
BRANCH 30 31
ATOM     31  CG  LEU D 693       9.178 -11.308  42.018  1.00 55.29 LIG-0.02  C 
ATOM     32  CD1 LEU D 693      10.667 -11.447  41.734  1.00 47.80 LIG 0.01  C 
ATOM     33  CD2 LEU D 693       8.870 -10.015  42.788  1.00 51.02 LIG 0.01  C 
ENDBRANCH 30 31
ENDBRANCH 6 30
ENDBRANCH 3 6
ENDBRANCH 1 2
BRANCH 1 34
ATOM     34  CB  ARG D 692      11.730 -15.436  40.548  1.00 49.09 LIG 0.04  C 
BRANCH 34 35
ATOM     35  CG  ARG D 692      12.989 -14.857  39.875  1.00 50.62 LIG 0.02  C 
BRANCH 35 36
ATOM     36  CD  ARG D 692      14.069 -15.882  39.560  1.00 57.04 LIG 0.14  C 
BRANCH 36 37
ATOM     37  NE  ARG D 692      15.354 -15.387  40.016  1.00 60.90 LIG-0.23  N 
ATOM     38 HE   ARG D 692      15.582 -15.560  40.827  1.00 60.90 LIG 0.18  HD
ATOM     39  CZ  ARG D 692      16.202 -14.690  39.276  1.00 61.50 LIG 0.67  C 
ATOM     40  NH1 ARG D 692      15.869 -14.312  38.043  1.00 46.48 LIG-0.23  N 
ATOM     41  NH2 ARG D 692      17.370 -14.330  39.793  1.00 64.68 LIG-0.23  N 
ATOM     42 1HH1 ARG D 692      15.098 -14.522  37.723  1.00 46.48 LIG 0.17  HD
ATOM     43 2HH1 ARG D 692      16.423 -13.859  37.568  1.00 46.48 LIG 0.17  HD
ATOM     44 1HH2 ARG D 692      17.569 -14.550  40.600  1.00 64.68 LIG 0.17  HD
ATOM     45 2HH2 ARG D 692      17.928 -13.877  39.321  1.00 64.68 LIG 0.17  HD
ENDBRANCH 36 37
ENDBRANCH 35 36
ENDBRANCH 34 35
ENDBRANCH 1 34
BRANCH 1 46
ATOM     46  N   ARG D 692      10.938 -15.126  38.180  1.00 43.06 LIG-0.35  N 
ATOM     47  C   HIS D 691      10.155 -15.350  37.139  1.00 44.11 LIG 0.24  C 
ATOM     48 O    HIS D 691       9.086 -15.938  37.217  1.00 43.39 LIG-0.27  OA
ATOM     49 H    ARG D 692      11.703 -14.735  38.129  1.00 43.06 LIG 0.16  HD
BRANCH 47 50
ATOM     50  CA  HIS D 691      10.655 -14.831  35.846  1.00 41.80 LIG 0.18  C 
BRANCH 50 51
ATOM     51  CB  HIS D 691      11.872 -15.632  35.529  1.00 51.00 LIG 0.10  C 
BRANCH 51 52
ATOM     52  CG  HIS D 691      13.040 -14.829  35.130  1.00 57.86 LIG 0.06  A 
ATOM     53 ND1  HIS D 691      13.948 -14.418  35.997  1.00 60.60 LIG-0.24  NA
ATOM     54  CE1 HIS D 691      14.878 -13.715  35.359  1.00 72.50 LIG 0.23  A 
ATOM     55 NE2  HIS D 691      14.548 -13.660  34.071  1.00 67.35 LIG-0.25  NA
ATOM     56  CD2 HIS D 691      13.418 -14.331  33.897  1.00 66.29 LIG 0.14  A 
ENDBRANCH 51 52
ENDBRANCH 50 51
BRANCH 50 57
ATOM     57  N   HIS D 691      11.017 -13.435  35.950  1.00 39.94 LIG-0.35  N 
ATOM     58 H    HIS D 691      11.826 -13.267  35.711  1.00 39.94 LIG 0.16  HD
ATOM     59  C   LEU D 690      10.177 -12.505  36.375  1.00 35.88 LIG 0.24  C 
ATOM     60 O    LEU D 690       8.996 -12.749  36.702  1.00 34.66 LIG-0.27  OA
BRANCH 59 61
ATOM     61  CA  LEU D 690      10.731 -11.106  36.513  1.00 33.43 LIG 0.18  C 
BRANCH 61 62
ATOM     62  CB  LEU D 690      10.552 -10.348  35.197  1.00 31.34 LIG 0.04  C 
BRANCH 62 63
ATOM     63  CG  LEU D 690      10.689 -11.165  33.917  1.00 30.93 LIG-0.02  C 
ATOM     64  CD1 LEU D 690       9.320 -11.382  33.291  1.00 30.90 LIG 0.01  C 
ATOM     65  CD2 LEU D 690      11.587 -10.434  32.937  1.00 28.62 LIG 0.01  C 
ENDBRANCH 62 63
ENDBRANCH 61 62
BRANCH 61 66
ATOM     66  N   LEU D 690      12.147 -11.128  36.886  1.00 35.22 LIG-0.35  N 
ATOM     67 H    LEU D 690      12.676 -10.803  36.292  1.00 35.22 LIG 0.16  HD
ATOM     68  C   ILE D 689      12.555 -11.615  38.052  1.00 41.04 LIG 0.26  C 
ATOM     69 O    ILE D 689      11.768 -12.027  38.917  1.00 39.56 LIG-0.27  OA
BRANCH 68 70
ATOM     70  CA  ILE D 689      14.079 -11.588  38.294  1.00 40.35 LIG 0.40  C 
ATOM     71  N   ILE D 689      14.832 -10.884  37.184  1.00 40.45 LIG 0.61  N 
BRANCH 70 72
ATOM     72  CB  ILE D 689      14.320 -10.930  39.675  1.00 42.26 LIG 0.03  C 
ATOM     73  CG2 ILE D 689      14.023 -11.924  40.814  1.00 38.55 LIG 0.01  C 
BRANCH 72 74
ATOM     74  CG1 ILE D 689      15.735 -10.355  39.785  1.00 45.91 LIG 0.00  C 
ATOM     75  CD1 ILE D 689      16.468 -10.722  41.074  1.00 45.96 LIG 0.01  C 
ENDBRANCH 72 74
ENDBRANCH 70 72
ENDBRANCH 68 70
ENDBRANCH 61 66
ENDBRANCH 59 61
ENDBRANCH 50 57
ENDBRANCH 47 50
ENDBRANCH 1 46
TORSDOF 30
ENDMDL
MODEL 13
USER: ADFR SOLUTION from run 1
USER: SCORE 21.420404 LL:  -8.344 LR: -13.619 RR:   0.000 FEB:  -4.670
USER: RMSD 4.144816
USER: SEED 923312
USER: STATUS no improvement in best in 17 clusters for 5 generations
USER: GENES 32
USER: genes 0 Translation |==|  0.61470 0.45443 0.47812
USER: genes 1 Rotation |==|  0.48210 0.55591 0.51279 0.99638
USER: genes 2 Torsion [N]-CA--C-[N] |==|  0.96087
USER: genes 3 Torsion [C]-N--CA-[C] |==|  0.65089
USER: genes 4 Torsion [N]-CA--C-[N] |==|  0.07222
USER: genes 5 Torsion [C]-N--CA-[C] |==|  0.66780
USER: genes 6 Torsion [N]-CA--C-[N] |==|  0.96163
USER: genes 7 Torsion [C]-N--CA-[CB] |==|  0.51362
USER: genes 8 Torsion [N]-CA--CB-[CG] |==|  0.79845
USER: genes 9 Torsion [CA]-CB--CG-[CD] |==|  0.37556
USER: genes 10 Torsion [CB]-CG--CD-[NE2] |==|  0.50214
USER: genes 11 Torsion [N]-CA--C-[O] |==|  0.17644
USER: genes 12 Torsion [N]-CA--CB-[CG] |==|  0.67386
USER: genes 13 Torsion [CA]-CB--CG-[CD2] |==|  0.24508
USER: genes 14 Torsion [N]-CA--CB-[CG] |==|  0.94762
USER: genes 15 Torsion [CA]-CB--CG-[CD1] |==|  0.24404
USER: genes 16 Torsion [C]-CA--CB-[CG] |==|  0.91548
USER: genes 17 Torsion [CA]-CB--CG-[CD] |==|  0.56468
USER: genes 18 Torsion [CB]-CG--CD-[NE] |==|  0.31081
USER: genes 19 Torsion [CG]-CD--NE-[CZ] |==|  0.28658
USER: genes 20 Torsion [C]-CA--N-[C] |==|  0.80159
USER: genes 21 Torsion [N]-C--CA-[N] |==|  0.90520
USER: genes 22 Torsion [C]-CA--CB-[CG] |==|  0.35368
USER: genes 23 Torsion [CA]-CB--CG-[ND1] |==|  0.77429
USER: genes 24 Torsion [C]-CA--N-[C] |==|  0.83736
USER: genes 25 Torsion [N]-C--CA-[N] |==|  0.96576
USER: genes 26 Torsion [C]-CA--CB-[CG] |==|  0.15853
USER: genes 27 Torsion [CA]-CB--CG-[CD2] |==|  0.48033
USER: genes 28 Torsion [C]-CA--N-[C] |==|  0.79210
USER: genes 29 Torsion [N]-C--CA-[N] |==|  0.66173
USER: genes 30 Torsion [C]-CA--CB-[CG1] |==|  0.71248
USER: genes 31 Torsion [CA]-CB--CG1-[CD1] |==|  0.21542
ROOT
ATOM      1  CA  ARG D 692      12.184 -15.856  38.492  1.00 48.73 LIG 0.18  C 
ENDROOT
BRANCH 1 2
ATOM      2  C   ARG D 692      11.041 -14.975  38.968  1.00 46.10 LIG 0.24  C 
ATOM      3  N   LEU D 693      10.648 -13.984  38.172  1.00 50.64 LIG-0.35  N 
ATOM      4 H    LEU D 693      10.978 -13.810  37.398  1.00 50.64 LIG 0.16  HD
ATOM      5 O    ARG D 692      10.566 -15.128  40.093  1.00 52.04 LIG-0.27  OA
BRANCH 3 6
ATOM      6  CA  LEU D 693       9.571 -13.094  38.616  1.00 43.34 LIG 0.18  C 
BRANCH 6 7
ATOM      7  C   LEU D 693       8.436 -13.017  37.603  1.00 37.95 LIG 0.24  C 
ATOM      8  N   LEU D 694       8.288 -14.060  36.811  1.00 39.22 LIG-0.35  N 
ATOM      9 H    LEU D 694       8.818 -14.737  36.813  1.00 39.22 LIG 0.16  HD
ATOM     10 O    LEU D 693       7.730 -12.006  37.531  1.00 43.86 LIG-0.27  OA
BRANCH 8 11
ATOM     11  CA  LEU D 694       7.212 -14.161  35.860  1.00 38.59 LIG 0.18  C 
BRANCH 11 12
ATOM     12  C   LEU D 694       6.391 -15.364  36.190  1.00 46.22 LIG 0.24  C 
ATOM     13  N   GLN D 695       6.950 -16.205  37.041  1.00 66.87 LIG-0.35  N 
ATOM     14 H    GLN D 695       7.761 -16.096  37.304  1.00 66.87 LIG 0.16  HD
ATOM     15 O    LEU D 694       5.332 -15.533  35.644  1.00 54.70 LIG-0.27  OA
BRANCH 13 16
ATOM     16  CA  GLN D 695       6.334 -17.392  37.647  1.00 62.86 LIG 0.16  C 
BRANCH 16 17
ATOM     17  CB  GLN D 695       7.259 -18.020  38.654  1.00 63.26 LIG 0.04  C 
BRANCH 17 18
ATOM     18  CG  GLN D 695       8.412 -18.717  37.983  1.00 77.24 LIG 0.10  C 
BRANCH 18 19
ATOM     19  CD  GLN D 695       9.705 -18.427  38.629  1.00 84.08 LIG 0.21  C 
ATOM     20 OE1  GLN D 695       9.754 -17.719  39.615  1.00 83.40 LIG-0.27  OA
ATOM     21  NE2 GLN D 695      10.774 -18.986  38.094  1.00 79.17 LIG-0.37  N 
ATOM     22 22HE GLN D 695      11.548 -18.856  38.445  1.00 79.17 LIG 0.16  HD
ATOM     23 21HE GLN D 695      10.696 -19.481  37.396  1.00 79.17 LIG 0.16  HD
ENDBRANCH 18 19
ENDBRANCH 17 18
ENDBRANCH 16 17
BRANCH 16 24
ATOM     24  C   GLN D 695       4.927 -17.219  38.217  1.00 61.14 LIG 0.22  C 
ATOM     25 O    GLN D 695       3.978 -16.931  37.483  1.00 66.66 LIG-0.29  OA
ENDBRANCH 16 24
ENDBRANCH 13 16
ENDBRANCH 11 12
BRANCH 11 26
ATOM     26  CB  LEU D 694       7.735 -14.333  34.450  1.00 34.51 LIG 0.04  C 
BRANCH 26 27
ATOM     27  CG  LEU D 694       7.447 -13.289  33.400  1.00 27.71 LIG-0.02  C 
ATOM     28  CD2 LEU D 694       8.467 -12.191  33.364  1.00 26.48 LIG 0.01  C 
ATOM     29  CD1 LEU D 694       6.046 -12.752  33.464  1.00 27.00 LIG 0.01  C 
ENDBRANCH 26 27
ENDBRANCH 11 26
ENDBRANCH 8 11
ENDBRANCH 6 7
BRANCH 6 30
ATOM     30  CB  LEU D 693      10.085 -11.688  38.967  1.00 45.67 LIG 0.04  C 
BRANCH 30 31
ATOM     31  CG  LEU D 693      11.594 -11.571  39.236  1.00 55.29 LIG-0.02  C 
ATOM     32  CD1 LEU D 693      12.359 -11.322  37.943  1.00 47.80 LIG 0.01  C 
ATOM     33  CD2 LEU D 693      11.915 -10.508  40.296  1.00 51.02 LIG 0.01  C 
ENDBRANCH 30 31
ENDBRANCH 6 30
ENDBRANCH 3 6
ENDBRANCH 1 2
BRANCH 1 34
ATOM     34  CB  ARG D 692      13.397 -15.630  39.419  1.00 49.09 LIG 0.04  C 
BRANCH 34 35
ATOM     35  CG  ARG D 692      13.413 -14.194  39.981  1.00 50.62 LIG 0.02  C 
BRANCH 35 36
ATOM     36  CD  ARG D 692      14.784 -13.702  40.421  1.00 57.04 LIG 0.14  C 
BRANCH 36 37
ATOM     37  NE  ARG D 692      15.228 -12.645  39.533  1.00 60.90 LIG-0.23  N 
ATOM     38 HE   ARG D 692      15.526 -12.874  38.759  1.00 60.90 LIG 0.18  HD
ATOM     39  CZ  ARG D 692      15.210 -11.353  39.825  1.00 61.50 LIG 0.67  C 
ATOM     40  NH1 ARG D 692      14.847 -10.942  41.038  1.00 46.48 LIG-0.23  N 
ATOM     41  NH2 ARG D 692      15.602 -10.476  38.910  1.00 64.68 LIG-0.23  N 
ATOM     42 1HH1 ARG D 692      14.623 -11.516  41.638  1.00 46.48 LIG 0.17  HD
ATOM     43 2HH1 ARG D 692      14.838 -10.102  41.222  1.00 46.48 LIG 0.17  HD
ATOM     44 1HH2 ARG D 692      15.864 -10.748  38.137  1.00 64.68 LIG 0.17  HD
ATOM     45 2HH2 ARG D 692      15.594  -9.635  39.089  1.00 64.68 LIG 0.17  HD
ENDBRANCH 36 37
ENDBRANCH 35 36
ENDBRANCH 34 35
ENDBRANCH 1 34
BRANCH 1 46
ATOM     46  N   ARG D 692      12.536 -15.733  37.058  1.00 43.06 LIG-0.35  N 
ATOM     47  C   HIS D 691      11.751 -16.202  36.103  1.00 44.11 LIG 0.24  C 
ATOM     48 O    HIS D 691      10.706 -16.798  36.324  1.00 43.39 LIG-0.27  OA
ATOM     49 H    ARG D 692      13.284 -15.335  36.910  1.00 43.06 LIG 0.16  HD
BRANCH 47 50
ATOM     50  CA  HIS D 691      12.217 -15.954  34.720  1.00 41.80 LIG 0.18  C 
BRANCH 50 51
ATOM     51  CB  HIS D 691      13.173 -17.053  34.409  1.00 51.00 LIG 0.10  C 
BRANCH 51 52
ATOM     52  CG  HIS D 691      12.877 -17.781  33.163  1.00 57.86 LIG 0.06  A 
ATOM     53 ND1  HIS D 691      11.969 -18.739  33.101  1.00 60.60 LIG-0.24  NA
ATOM     54  CE1 HIS D 691      11.920 -19.217  31.861  1.00 72.50 LIG 0.23  A 
ATOM     55 NE2  HIS D 691      12.822 -18.570  31.130  1.00 67.35 LIG-0.25  NA
ATOM     56  CD2 HIS D 691      13.433 -17.682  31.902  1.00 66.29 LIG 0.14  A 
ENDBRANCH 51 52
ENDBRANCH 50 51
BRANCH 50 57
ATOM     57  N   HIS D 691      12.902 -14.684  34.621  1.00 39.94 LIG-0.35  N 
ATOM     58 H    HIS D 691      13.712 -14.747  34.339  1.00 39.94 LIG 0.16  HD
ATOM     59  C   LEU D 690      12.330 -13.533  34.938  1.00 35.88 LIG 0.24  C 
ATOM     60 O    LEU D 690      11.146 -13.442  35.326  1.00 34.66 LIG-0.27  OA
BRANCH 59 61
ATOM     61  CA  LEU D 690      13.204 -12.303  34.866  1.00 33.43 LIG 0.18  C 
BRANCH 61 62
ATOM     62  CB  LEU D 690      12.773 -11.431  33.686  1.00 31.34 LIG 0.04  C 
BRANCH 62 63
ATOM     63  CG  LEU D 690      11.319 -10.974  33.674  1.00 30.93 LIG-0.02  C 
ATOM     64  CD1 LEU D 690      10.970 -10.317  35.001  1.00 30.90 LIG 0.01  C 
ATOM     65  CD2 LEU D 690      11.103  -9.985  32.544  1.00 28.62 LIG 0.01  C 
ENDBRANCH 62 63
ENDBRANCH 61 62
BRANCH 61 66
ATOM     66  N   LEU D 690      14.617 -12.661  34.732  1.00 35.22 LIG-0.35  N 
ATOM     67 H    LEU D 690      14.940 -12.542  33.943  1.00 35.22 LIG 0.16  HD
ATOM     68  C   ILE D 689      15.321 -13.127  35.756  1.00 41.04 LIG 0.26  C 
ATOM     69 O    ILE D 689      14.849 -13.236  36.898  1.00 39.56 LIG-0.27  OA
BRANCH 68 70
ATOM     70  CA  ILE D 689      16.793 -13.479  35.455  1.00 40.35 LIG 0.40  C 
ATOM     71  N   ILE D 689      17.119 -14.927  35.760  1.00 40.45 LIG 0.61  N 
BRANCH 70 72
ATOM     72  CB  ILE D 689      17.065 -13.116  33.974  1.00 42.26 LIG 0.03  C 
ATOM     73  CG2 ILE D 689      18.361 -12.294  33.841  1.00 38.55 LIG 0.01  C 
BRANCH 72 74
ATOM     74  CG1 ILE D 689      17.095 -14.362  33.085  1.00 45.91 LIG 0.00  C 
ATOM     75  CD1 ILE D 689      15.717 -14.928  32.743  1.00 45.96 LIG 0.01  C 
ENDBRANCH 72 74
ENDBRANCH 70 72
ENDBRANCH 68 70
ENDBRANCH 61 66
ENDBRANCH 59 61
ENDBRANCH 50 57
ENDBRANCH 47 50
ENDBRANCH 1 46
TORSDOF 30
ENDMDL
MODEL 14
USER: ADFR SOLUTION from run 164
USER: SCORE 20.828946 LL:  -8.268 LR: -13.562 RR:   0.000 FEB:  -4.613
USER: RMSD 2.626129
USER: SEED 163
USER: STATUS no improvement in best in 14 clusters for 5 generations
USER: GENES 32
USER: genes 0 Translation |==|  0.57341 0.44744 0.51969
USER: genes 1 Rotation |==|  0.48248 0.57815 0.50125 0.99354
USER: genes 2 Torsion [N]-CA--C-[N] |==|  0.95399
USER: genes 3 Torsion [C]-N--CA-[C] |==|  0.68958
USER: genes 4 Torsion [N]-CA--C-[N] |==|  0.93780
USER: genes 5 Torsion [C]-N--CA-[C] |==|  0.76714
USER: genes 6 Torsion [N]-CA--C-[N] |==|  0.86752
USER: genes 7 Torsion [C]-N--CA-[CB] |==|  0.78880
USER: genes 8 Torsion [N]-CA--CB-[CG] |==|  0.91570
USER: genes 9 Torsion [CA]-CB--CG-[CD] |==|  0.34155
USER: genes 10 Torsion [CB]-CG--CD-[NE2] |==|  0.44968
USER: genes 11 Torsion [N]-CA--C-[O] |==|  0.96919
USER: genes 12 Torsion [N]-CA--CB-[CG] |==|  0.73081
USER: genes 13 Torsion [CA]-CB--CG-[CD2] |==|  0.81523
USER: genes 14 Torsion [N]-CA--CB-[CG] |==|  0.83334
USER: genes 15 Torsion [CA]-CB--CG-[CD1] |==|  0.54253
USER: genes 16 Torsion [C]-CA--CB-[CG] |==|  0.44716
USER: genes 17 Torsion [CA]-CB--CG-[CD] |==|  0.37146
USER: genes 18 Torsion [CB]-CG--CD-[NE] |==|  0.82849
USER: genes 19 Torsion [CG]-CD--NE-[CZ] |==|  0.39511
USER: genes 20 Torsion [C]-CA--N-[C] |==|  0.78781
USER: genes 21 Torsion [N]-C--CA-[N] |==|  0.88356
USER: genes 22 Torsion [C]-CA--CB-[CG] |==|  0.38823
USER: genes 23 Torsion [CA]-CB--CG-[ND1] |==|  0.84858
USER: genes 24 Torsion [C]-CA--N-[C] |==|  0.84282
USER: genes 25 Torsion [N]-C--CA-[N] |==|  0.84731
USER: genes 26 Torsion [C]-CA--CB-[CG] |==|  0.28428
USER: genes 27 Torsion [CA]-CB--CG-[CD2] |==|  0.35459
USER: genes 28 Torsion [C]-CA--N-[C] |==|  0.70254
USER: genes 29 Torsion [N]-C--CA-[N] |==|  0.24031
USER: genes 30 Torsion [C]-CA--CB-[CG1] |==|  0.58619
USER: genes 31 Torsion [CA]-CB--CG1-[CD1] |==|  0.44479
ROOT
ATOM      1  CA  ARG D 692      11.255 -15.987  39.303  1.00 48.73 LIG 0.18  C 
ENDROOT
BRANCH 1 2
ATOM      2  C   ARG D 692      10.202 -15.049  39.870  1.00 46.10 LIG 0.24  C 
ATOM      3  N   LEU D 693       9.827 -14.014  39.123  1.00 50.64 LIG-0.35  N 
ATOM      4 H    LEU D 693      10.119 -13.841  38.333  1.00 50.64 LIG 0.16  HD
ATOM      5 O    ARG D 692       9.789 -15.202  41.018  1.00 52.04 LIG-0.27  OA
BRANCH 3 6
ATOM      6  CA  LEU D 693       8.838 -13.071  39.654  1.00 43.34 LIG 0.18  C 
BRANCH 6 7
ATOM      7  C   LEU D 693       7.514 -13.145  38.905  1.00 37.95 LIG 0.24  C 
ATOM      8  N   LEU D 694       7.560 -13.640  37.684  1.00 39.22 LIG-0.35  N 
ATOM      9 H    LEU D 694       8.290 -13.869  37.292  1.00 39.22 LIG 0.16  HD
ATOM     10 O    LEU D 693       6.475 -12.729  39.429  1.00 43.86 LIG-0.27  OA
BRANCH 8 11
ATOM     11  CA  LEU D 694       6.379 -13.843  36.889  1.00 38.59 LIG 0.18  C 
BRANCH 11 12
ATOM     12  C   LEU D 694       5.770 -15.157  37.258  1.00 46.22 LIG 0.24  C 
ATOM     13  N   GLN D 695       6.618 -16.168  37.313  1.00 66.87 LIG-0.35  N 
ATOM     14 H    GLN D 695       7.436 -16.075  37.065  1.00 66.87 LIG 0.16  HD
ATOM     15 O    LEU D 694       4.581 -15.240  37.423  1.00 54.70 LIG-0.27  OA
BRANCH 13 16
ATOM     16  CA  GLN D 695       6.340 -17.534  37.774  1.00 62.86 LIG 0.16  C 
BRANCH 16 17
ATOM     17  CB  GLN D 695       6.261 -17.587  39.275  1.00 63.26 LIG 0.04  C 
BRANCH 17 18
ATOM     18  CG  GLN D 695       7.148 -16.551  39.910  1.00 77.24 LIG 0.10  C 
BRANCH 18 19
ATOM     19  CD  GLN D 695       6.409 -15.639  40.802  1.00 84.08 LIG 0.21  C 
ATOM     20 OE1  GLN D 695       5.198 -15.557  40.731  1.00 83.40 LIG-0.27  OA
ATOM     21  NE2 GLN D 695       7.124 -14.951  41.671  1.00 79.17 LIG-0.37  N 
ATOM     22 22HE GLN D 695       6.734 -14.416  42.221  1.00 79.17 LIG 0.16  HD
ATOM     23 21HE GLN D 695       7.979 -15.037  41.689  1.00 79.17 LIG 0.16  HD
ENDBRANCH 18 19
ENDBRANCH 17 18
ENDBRANCH 16 17
BRANCH 16 24
ATOM     24  C   GLN D 695       5.151 -18.245  37.129  1.00 61.14 LIG 0.22  C 
ATOM     25 O    GLN D 695       4.351 -17.627  36.422  1.00 66.66 LIG-0.29  OA
ENDBRANCH 16 24
ENDBRANCH 13 16
ENDBRANCH 11 12
BRANCH 11 26
ATOM     26  CB  LEU D 694       6.707 -13.889  35.412  1.00 34.51 LIG 0.04  C 
BRANCH 26 27
ATOM     27  CG  LEU D 694       6.552 -12.653  34.560  1.00 27.71 LIG-0.02  C 
ATOM     28  CD2 LEU D 694       5.126 -12.214  34.411  1.00 26.48 LIG 0.01  C 
ATOM     29  CD1 LEU D 694       7.250 -12.752  33.235  1.00 27.00 LIG 0.01  C 
ENDBRANCH 26 27
ENDBRANCH 11 26
ENDBRANCH 8 11
ENDBRANCH 6 7
BRANCH 6 30
ATOM     30  CB  LEU D 693       9.368 -11.627  39.682  1.00 45.67 LIG 0.04  C 
BRANCH 30 31
ATOM     31  CG  LEU D 693      10.625 -11.389  40.534  1.00 55.29 LIG-0.02  C 
ATOM     32  CD1 LEU D 693      10.833  -9.902  40.791  1.00 47.80 LIG 0.01  C 
ATOM     33  CD2 LEU D 693      10.600 -12.189  41.844  1.00 51.02 LIG 0.01  C 
ENDBRANCH 30 31
ENDBRANCH 6 30
ENDBRANCH 3 6
ENDBRANCH 1 2
BRANCH 1 34
ATOM     34  CB  ARG D 692      12.554 -15.817  40.118  1.00 49.09 LIG 0.04  C 
BRANCH 34 35
ATOM     35  CG  ARG D 692      13.495 -17.024  39.935  1.00 50.62 LIG 0.02  C 
BRANCH 35 36
ATOM     36  CD  ARG D 692      14.948 -16.661  39.666  1.00 57.04 LIG 0.14  C 
BRANCH 36 37
ATOM     37  NE  ARG D 692      15.039 -15.909  38.429  1.00 60.90 LIG-0.23  N 
ATOM     38 HE   ARG D 692      14.522 -16.143  37.782  1.00 60.90 LIG 0.18  HD
ATOM     39  CZ  ARG D 692      15.859 -14.890  38.222  1.00 61.50 LIG 0.67  C 
ATOM     40  NH1 ARG D 692      16.746 -14.539  39.151  1.00 46.48 LIG-0.23  N 
ATOM     41  NH2 ARG D 692      15.819 -14.252  37.059  1.00 64.68 LIG-0.23  N 
ATOM     42 1HH1 ARG D 692      16.789 -14.976  39.891  1.00 46.48 LIG 0.17  HD
ATOM     43 2HH1 ARG D 692      17.276 -13.877  39.010  1.00 46.48 LIG 0.17  HD
ATOM     44 1HH2 ARG D 692      15.264 -14.501  36.451  1.00 64.68 LIG 0.17  HD
ATOM     45 2HH2 ARG D 692      16.347 -13.589  36.914  1.00 64.68 LIG 0.17  HD
ENDBRANCH 36 37
ENDBRANCH 35 36
ENDBRANCH 34 35
ENDBRANCH 1 34
BRANCH 1 46
ATOM     46  N   ARG D 692      11.485 -15.887  37.842  1.00 43.06 LIG-0.35  N 
ATOM     47  C   HIS D 691      10.643 -16.407  36.965  1.00 44.11 LIG 0.24  C 
ATOM     48 O    HIS D 691       9.642 -17.034  37.284  1.00 43.39 LIG-0.27  OA
ATOM     49 H    ARG D 692      12.204 -15.467  37.625  1.00 43.06 LIG 0.16  HD
BRANCH 47 50
ATOM     50  CA  HIS D 691      10.986 -16.177  35.544  1.00 41.80 LIG 0.18  C 
BRANCH 50 51
ATOM     51  CB  HIS D 691      12.093 -17.125  35.233  1.00 51.00 LIG 0.10  C 
BRANCH 51 52
ATOM     52  CG  HIS D 691      11.995 -17.760  33.908  1.00 57.86 LIG 0.06  A 
ATOM     53 ND1  HIS D 691      10.919 -18.420  33.517  1.00 60.60 LIG-0.24  NA
ATOM     54  CE1 HIS D 691      11.114 -18.886  32.287  1.00 72.50 LIG 0.23  A 
ATOM     55 NE2  HIS D 691      12.337 -18.537  31.898  1.00 67.35 LIG-0.25  NA
ATOM     56  CD2 HIS D 691      12.908 -17.847  32.875  1.00 66.29 LIG 0.14  A 
ENDBRANCH 51 52
ENDBRANCH 50 51
BRANCH 50 57
ATOM     57  N   HIS D 691      11.445 -14.822  35.331  1.00 39.94 LIG-0.35  N 
ATOM     58 H    HIS D 691      12.227 -14.772  34.977  1.00 39.94 LIG 0.16  HD
ATOM     59  C   LEU D 690      10.724 -13.761  35.654  1.00 35.88 LIG 0.24  C 
ATOM     60 O    LEU D 690       9.578 -13.837  36.149  1.00 34.66 LIG-0.27  OA
BRANCH 59 61
ATOM     61  CA  LEU D 690      11.377 -12.414  35.453  1.00 33.43 LIG 0.18  C 
BRANCH 61 62
ATOM     62  CB  LEU D 690      11.586 -12.158  33.959  1.00 31.34 LIG 0.04  C 
BRANCH 62 63
ATOM     63  CG  LEU D 690      10.596 -11.213  33.287  1.00 30.93 LIG-0.02  C 
ATOM     64  CD1 LEU D 690       9.689 -10.582  34.331  1.00 30.90 LIG 0.01  C 
ATOM     65  CD2 LEU D 690      11.351 -10.127  32.544  1.00 28.62 LIG 0.01  C 
ENDBRANCH 62 63
ENDBRANCH 61 62
BRANCH 61 66
ATOM     66  N   LEU D 690      12.659 -12.333  36.156  1.00 35.22 LIG-0.35  N 
ATOM     67 H    LEU D 690      13.292 -12.790  35.794  1.00 35.22 LIG 0.16  HD
ATOM     68  C   ILE D 689      12.808 -11.609  37.259  1.00 41.04 LIG 0.26  C 
ATOM     69 O    ILE D 689      11.895 -10.915  37.731  1.00 39.56 LIG-0.27  OA
BRANCH 68 70
ATOM     70  CA  ILE D 689      14.213 -11.639  37.897  1.00 40.35 LIG 0.40  C 
ATOM     71  N   ILE D 689      15.144 -10.602  37.303  1.00 40.45 LIG 0.61  N 
BRANCH 70 72
ATOM     72  CB  ILE D 689      14.034 -11.460  39.425  1.00 42.26 LIG 0.03  C 
ATOM     73  CG2 ILE D 689      13.772 -12.816  40.107  1.00 38.55 LIG 0.01  C 
BRANCH 72 74
ATOM     74  CG1 ILE D 689      15.230 -10.737  40.050  1.00 45.91 LIG 0.00  C 
ATOM     75  CD1 ILE D 689      14.945 -10.104  41.412  1.00 45.96 LIG 0.01  C 
ENDBRANCH 72 74
ENDBRANCH 70 72
ENDBRANCH 68 70
ENDBRANCH 61 66
ENDBRANCH 59 61
ENDBRANCH 50 57
ENDBRANCH 47 50
ENDBRANCH 1 46
TORSDOF 30
ENDMDL
MODEL 15
USER: ADFR SOLUTION from run 3
USER: SCORE 21.293706 LL:  -8.353 LR: -13.548 RR:   0.000 FEB:  -4.599
USER: RMSD 3.537673
USER: SEED 575896
USER: STATUS no improvement in best in 21 clusters for 5 generations
USER: GENES 32
USER: genes 0 Translation |==|  0.56770 0.43973 0.50229
USER: genes 1 Rotation |==|  0.50921 0.52535 0.50918 0.99919
USER: genes 2 Torsion [N]-CA--C-[N] |==|  0.89092
USER: genes 3 Torsion [C]-N--CA-[C] |==|  0.74445
USER: genes 4 Torsion [N]-CA--C-[N] |==|  0.98333
USER: genes 5 Torsion [C]-N--CA-[C] |==|  0.77465
USER: genes 6 Torsion [N]-CA--C-[N] |==|  0.98163
USER: genes 7 Torsion [C]-N--CA-[CB] |==|  0.78932
USER: genes 8 Torsion [N]-CA--CB-[CG] |==|  0.89876
USER: genes 9 Torsion [CA]-CB--CG-[CD] |==|  0.32913
USER: genes 10 Torsion [CB]-CG--CD-[NE2] |==|  0.36632
USER: genes 11 Torsion [N]-CA--C-[O] |==|  0.82723
USER: genes 12 Torsion [N]-CA--CB-[CG] |==|  0.61455
USER: genes 13 Torsion [CA]-CB--CG-[CD2] |==|  0.30673
USER: genes 14 Torsion [N]-CA--CB-[CG] |==|  0.96000
USER: genes 15 Torsion [CA]-CB--CG-[CD1] |==|  0.27808
USER: genes 16 Torsion [C]-CA--CB-[CG] |==|  0.93790
USER: genes 17 Torsion [CA]-CB--CG-[CD] |==|  0.71542
USER: genes 18 Torsion [CB]-CG--CD-[NE] |==|  0.92644
USER: genes 19 Torsion [CG]-CD--NE-[CZ] |==|  0.41818
USER: genes 20 Torsion [C]-CA--N-[C] |==|  0.80035
USER: genes 21 Torsion [N]-C--CA-[N] |==|  0.90230
USER: genes 22 Torsion [C]-CA--CB-[CG] |==|  0.79744
USER: genes 23 Torsion [CA]-CB--CG-[ND1] |==|  0.74697
USER: genes 24 Torsion [C]-CA--N-[C] |==|  0.83394
USER: genes 25 Torsion [N]-C--CA-[N] |==|  0.10249
USER: genes 26 Torsion [C]-CA--CB-[CG] |==|  0.87203
USER: genes 27 Torsion [CA]-CB--CG-[CD2] |==|  0.78193
USER: genes 28 Torsion [C]-CA--N-[C] |==|  0.60662
USER: genes 29 Torsion [N]-C--CA-[N] |==|  0.26169
USER: genes 30 Torsion [C]-CA--CB-[CG1] |==|  0.53746
USER: genes 31 Torsion [CA]-CB--CG1-[CD1] |==|  0.41278
ROOT
ATOM      1  CA  ARG D 692      11.126 -16.132  38.964  1.00 48.73 LIG 0.18  C 
ENDROOT
BRANCH 1 2
ATOM      2  C   ARG D 692       9.948 -15.275  39.395  1.00 46.10 LIG 0.24  C 
ATOM      3  N   LEU D 693       9.955 -13.990  39.049  1.00 50.64 LIG-0.35  N 
ATOM      4 H    LEU D 693      10.567 -13.606  38.582  1.00 50.64 LIG 0.16  HD
ATOM      5 O    ARG D 692       9.071 -15.745  40.118  1.00 52.04 LIG-0.27  OA
BRANCH 3 6
ATOM      6  CA  LEU D 693       8.850 -13.127  39.477  1.00 43.34 LIG 0.18  C 
BRANCH 6 7
ATOM      7  C   LEU D 693       7.735 -13.066  38.442  1.00 37.95 LIG 0.24  C 
ATOM      8  N   LEU D 694       7.969 -13.672  37.295  1.00 39.22 LIG-0.35  N 
ATOM      9 H    LEU D 694       8.718 -14.046  37.100  1.00 39.22 LIG 0.16  HD
ATOM     10 O    LEU D 693       6.692 -12.448  38.682  1.00 43.86 LIG-0.27  OA
BRANCH 8 11
ATOM     11  CA  LEU D 694       6.978 -13.764  36.255  1.00 38.59 LIG 0.18  C 
BRANCH 11 12
ATOM     12  C   LEU D 694       6.047 -14.887  36.576  1.00 46.22 LIG 0.24  C 
ATOM     13  N   GLN D 695       6.394 -15.617  37.620  1.00 66.87 LIG-0.35  N 
ATOM     14 H    GLN D 695       7.146 -15.495  38.017  1.00 66.87 LIG 0.16  HD
ATOM     15 O    LEU D 694       5.101 -15.101  35.864  1.00 54.70 LIG-0.27  OA
BRANCH 13 16
ATOM     16  CA  GLN D 695       5.614 -16.693  38.247  1.00 62.86 LIG 0.16  C 
BRANCH 16 17
ATOM     17  CB  GLN D 695       4.493 -16.128  39.076  1.00 63.26 LIG 0.04  C 
BRANCH 17 18
ATOM     18  CG  GLN D 695       4.905 -14.854  39.764  1.00 77.24 LIG 0.10  C 
BRANCH 18 19
ATOM     19  CD  GLN D 695       4.093 -13.695  39.349  1.00 84.08 LIG 0.21  C 
ATOM     20 OE1  GLN D 695       3.877 -13.487  38.171  1.00 83.40 LIG-0.27  OA
ATOM     21  NE2 GLN D 695       3.613 -12.932  40.312  1.00 79.17 LIG-0.37  N 
ATOM     22 22HE GLN D 695       3.123 -12.253  40.117  1.00 79.17 LIG 0.16  HD
ATOM     23 21HE GLN D 695       3.789 -13.114  41.133  1.00 79.17 LIG 0.16  HD
ENDBRANCH 18 19
ENDBRANCH 17 18
ENDBRANCH 16 17
BRANCH 16 24
ATOM     24  C   GLN D 695       5.118 -17.806  37.326  1.00 61.14 LIG 0.22  C 
ATOM     25 O    GLN D 695       4.337 -17.563  36.403  1.00 66.66 LIG-0.29  OA
ENDBRANCH 16 24
ENDBRANCH 13 16
ENDBRANCH 11 12
BRANCH 11 26
ATOM     26  CB  LEU D 694       7.612 -14.061  34.913  1.00 34.51 LIG 0.04  C 
BRANCH 26 27
ATOM     27  CG  LEU D 694       7.123 -13.359  33.670  1.00 27.71 LIG-0.02  C 
ATOM     28  CD2 LEU D 694       8.114 -12.379  33.117  1.00 26.48 LIG 0.01  C 
ATOM     29  CD1 LEU D 694       5.760 -12.750  33.828  1.00 27.00 LIG 0.01  C 
ENDBRANCH 26 27
ENDBRANCH 11 26
ENDBRANCH 8 11
ENDBRANCH 6 7
BRANCH 6 30
ATOM     30  CB  LEU D 693       9.327 -11.713  39.849  1.00 45.67 LIG 0.04  C 
BRANCH 30 31
ATOM     31  CG  LEU D 693      10.842 -11.545  40.046  1.00 55.29 LIG-0.02  C 
ATOM     32  CD1 LEU D 693      11.486 -10.934  38.809  1.00 47.80 LIG 0.01  C 
ATOM     33  CD2 LEU D 693      11.179 -10.742  41.311  1.00 51.02 LIG 0.01  C 
ENDBRANCH 30 31
ENDBRANCH 6 30
ENDBRANCH 3 6
ENDBRANCH 1 2
BRANCH 1 34
ATOM     34  CB  ARG D 692      12.221 -16.042  40.048  1.00 49.09 LIG 0.04  C 
BRANCH 34 35
ATOM     35  CG  ARG D 692      12.068 -14.764  40.895  1.00 50.62 LIG 0.02  C 
BRANCH 35 36
ATOM     36  CD  ARG D 692      13.042 -13.648  40.543  1.00 57.04 LIG 0.14  C 
BRANCH 36 37
ATOM     37  NE  ARG D 692      14.244 -14.219  39.965  1.00 60.90 LIG-0.23  N 
ATOM     38 HE   ARG D 692      14.470 -15.009  40.218  1.00 60.90 LIG 0.18  HD
ATOM     39  CZ  ARG D 692      15.018 -13.613  39.078  1.00 61.50 LIG 0.67  C 
ATOM     40  NH1 ARG D 692      14.771 -12.355  38.716  1.00 46.48 LIG-0.23  N 
ATOM     41  NH2 ARG D 692      16.070 -14.256  38.589  1.00 64.68 LIG-0.23  N 
ATOM     42 1HH1 ARG D 692      14.106 -11.932  39.060  1.00 46.48 LIG 0.17  HD
ATOM     43 2HH1 ARG D 692      15.278 -11.966  38.140  1.00 46.48 LIG 0.17  HD
ATOM     44 1HH2 ARG D 692      16.242 -15.058  38.848  1.00 64.68 LIG 0.17  HD
ATOM     45 2HH2 ARG D 692      16.579 -13.872  38.012  1.00 64.68 LIG 0.17  HD
ENDBRANCH 36 37
ENDBRANCH 35 36
ENDBRANCH 34 35
ENDBRANCH 1 34
BRANCH 1 46
ATOM     46  N   ARG D 692      11.651 -15.865  37.604  1.00 43.06 LIG-0.35  N 
ATOM     47  C   HIS D 691      10.985 -16.213  36.517  1.00 44.11 LIG 0.24  C 
ATOM     48 O    HIS D 691       9.916 -16.807  36.545  1.00 43.39 LIG-0.27  OA
ATOM     49 H    ARG D 692      12.415 -15.469  37.591  1.00 43.06 LIG 0.16  HD
BRANCH 47 50
ATOM     50  CA  HIS D 691      11.617 -15.830  35.234  1.00 41.80 LIG 0.18  C 
BRANCH 50 51
ATOM     51  CB  HIS D 691      12.614 -16.897  34.937  1.00 51.00 LIG 0.10  C 
BRANCH 51 52
ATOM     52  CG  HIS D 691      13.815 -16.861  35.787  1.00 57.86 LIG 0.06  A 
ATOM     53 ND1  HIS D 691      14.902 -16.188  35.450  1.00 60.60 LIG-0.24  NA
ATOM     54  CE1 HIS D 691      15.822 -16.337  36.398  1.00 72.50 LIG 0.23  A 
ATOM     55 NE2  HIS D 691      15.324 -17.132  37.341  1.00 67.35 LIG-0.25  NA
ATOM     56  CD2 HIS D 691      14.091 -17.476  36.993  1.00 66.29 LIG 0.14  A 
ENDBRANCH 51 52
ENDBRANCH 50 51
BRANCH 50 57
ATOM     57  N   HIS D 691      12.300 -14.560  35.349  1.00 39.94 LIG-0.35  N 
ATOM     58 H    HIS D 691      13.142 -14.601  35.182  1.00 39.94 LIG 0.16  HD
ATOM     59  C   LEU D 690      11.679 -13.440  35.683  1.00 35.88 LIG 0.24  C 
ATOM     60 O    LEU D 690      10.451 -13.377  35.904  1.00 34.66 LIG-0.27  OA
BRANCH 59 61
ATOM     61  CA  LEU D 690      12.545 -12.212  35.848  1.00 33.43 LIG 0.18  C 
BRANCH 61 62
ATOM     62  CB  LEU D 690      11.689 -10.953  35.706  1.00 31.34 LIG 0.04  C 
BRANCH 62 63
ATOM     63  CG  LEU D 690      10.715 -10.922  34.533  1.00 30.93 LIG-0.02  C 
ATOM     64  CD1 LEU D 690       9.638  -9.877  34.780  1.00 30.90 LIG 0.01  C 
ATOM     65  CD2 LEU D 690      11.464 -10.590  33.256  1.00 28.62 LIG 0.01  C 
ENDBRANCH 62 63
ENDBRANCH 61 62
BRANCH 61 66
ATOM     66  N   LEU D 690      13.632 -12.190  34.867  1.00 35.22 LIG-0.35  N 
ATOM     67 H    LEU D 690      13.410 -12.473  34.086  1.00 35.22 LIG 0.16  HD
ATOM     68  C   ILE D 689      14.849 -11.764  35.181  1.00 41.04 LIG 0.26  C 
ATOM     69 O    ILE D 689      15.130 -11.307  36.300  1.00 39.56 LIG-0.27  OA
BRANCH 68 70
ATOM     70  CA  ILE D 689      15.893 -11.819  34.046  1.00 40.35 LIG 0.40  C 
ATOM     71  N   ILE D 689      16.004 -10.508  33.294  1.00 40.45 LIG 0.61  N 
BRANCH 70 72
ATOM     72  CB  ILE D 689      17.241 -12.252  34.674  1.00 42.26 LIG 0.03  C 
ATOM     73  CG2 ILE D 689      17.179 -13.715  35.148  1.00 38.55 LIG 0.01  C 
BRANCH 72 74
ATOM     74  CG1 ILE D 689      18.410 -12.020  33.711  1.00 45.91 LIG 0.00  C 
ATOM     75  CD1 ILE D 689      19.735 -11.685  34.395  1.00 45.96 LIG 0.01  C 
ENDBRANCH 72 74
ENDBRANCH 70 72
ENDBRANCH 68 70
ENDBRANCH 61 66
ENDBRANCH 59 61
ENDBRANCH 50 57
ENDBRANCH 47 50
ENDBRANCH 1 46
TORSDOF 30
ENDMDL
MODEL 16
USER: ADFR SOLUTION from run 50
USER: SCORE 20.797114 LL:  -8.114 LR: -13.399 RR:   0.000 FEB:  -4.450
USER: RMSD 3.805189
USER: SEED 49
USER: STATUS no improvement in best in 16 clusters for 5 generations
USER: GENES 32
USER: genes 0 Translation |==|  0.57519 0.49302 0.54006
USER: genes 1 Rotation |==|  0.47460 0.56908 0.56950 0.98965
USER: genes 2 Torsion [N]-CA--C-[N] |==|  0.90564
USER: genes 3 Torsion [C]-N--CA-[C] |==|  0.69641
USER: genes 4 Torsion [N]-CA--C-[N] |==|  0.91841
USER: genes 5 Torsion [C]-N--CA-[C] |==|  0.81013
USER: genes 6 Torsion [N]-CA--C-[N] |==|  0.91677
USER: genes 7 Torsion [C]-N--CA-[CB] |==|  0.60597
USER: genes 8 Torsion [N]-CA--CB-[CG] |==|  0.66773
USER: genes 9 Torsion [CA]-CB--CG-[CD] |==|  0.40506
USER: genes 10 Torsion [CB]-CG--CD-[NE2] |==|  0.10099
USER: genes 11 Torsion [N]-CA--C-[O] |==|  0.19394
USER: genes 12 Torsion [N]-CA--CB-[CG] |==|  0.43734
USER: genes 13 Torsion [CA]-CB--CG-[CD2] |==|  0.59188
USER: genes 14 Torsion [N]-CA--CB-[CG] |==|  0.93705
USER: genes 15 Torsion [CA]-CB--CG-[CD1] |==|  0.23418
USER: genes 16 Torsion [C]-CA--CB-[CG] |==|  0.58161
USER: genes 17 Torsion [CA]-CB--CG-[CD] |==|  0.48811
USER: genes 18 Torsion [CB]-CG--CD-[NE] |==|  0.48777
USER: genes 19 Torsion [CG]-CD--NE-[CZ] |==|  0.65779
USER: genes 20 Torsion [C]-CA--N-[C] |==|  0.82321
USER: genes 21 Torsion [N]-C--CA-[N] |==|  0.91164
USER: genes 22 Torsion [C]-CA--CB-[CG] |==|  0.82475
USER: genes 23 Torsion [CA]-CB--CG-[ND1] |==|  0.80691
USER: genes 24 Torsion [C]-CA--N-[C] |==|  0.84850
USER: genes 25 Torsion [N]-C--CA-[N] |==|  0.06674
USER: genes 26 Torsion [C]-CA--CB-[CG] |==|  0.75321
USER: genes 27 Torsion [CA]-CB--CG-[CD2] |==|  0.49421
USER: genes 28 Torsion [C]-CA--N-[C] |==|  0.63479
USER: genes 29 Torsion [N]-C--CA-[N] |==|  0.32326
USER: genes 30 Torsion [C]-CA--CB-[CG1] |==|  0.60444
USER: genes 31 Torsion [CA]-CB--CG1-[CD1] |==|  0.43058
ROOT
ATOM      1  CA  ARG D 692      11.295 -15.133  39.700  1.00 48.73 LIG 0.18  C 
ENDROOT
BRANCH 1 2
ATOM      2  C   ARG D 692      10.013 -14.526  40.248  1.00 46.10 LIG 0.24  C 
ATOM      3  N   LEU D 693       9.578 -13.395  39.697  1.00 50.64 LIG-0.35  N 
ATOM      4 H    LEU D 693       9.953 -12.987  39.041  1.00 50.64 LIG 0.16  HD
ATOM      5 O    ARG D 692       9.460 -15.024  41.227  1.00 52.04 LIG-0.27  OA
BRANCH 3 6
ATOM      6  CA  LEU D 693       8.363 -12.766  40.224  1.00 43.34 LIG 0.18  C 
BRANCH 6 7
ATOM      7  C   LEU D 693       7.192 -12.880  39.257  1.00 37.95 LIG 0.24  C 
ATOM      8  N   LEU D 694       7.495 -12.931  37.975  1.00 39.22 LIG-0.35  N 
ATOM      9 H    LEU D 694       8.297 -12.856  37.674  1.00 39.22 LIG 0.16  HD
ATOM     10 O    LEU D 693       6.031 -12.892  39.680  1.00 43.86 LIG-0.27  OA
BRANCH 8 11
ATOM     11  CA  LEU D 694       6.499 -13.118  36.954  1.00 38.59 LIG 0.18  C 
BRANCH 11 12
ATOM     12  C   LEU D 694       5.949 -14.502  37.067  1.00 46.22 LIG 0.24  C 
ATOM     13  N   GLN D 695       6.794 -15.401  37.538  1.00 66.87 LIG-0.35  N 
ATOM     14 H    GLN D 695       7.619 -15.204  37.679  1.00 66.87 LIG 0.16  HD
ATOM     15 O    LEU D 694       4.832 -14.735  36.684  1.00 54.70 LIG-0.27  OA
BRANCH 13 16
ATOM     16  CA  GLN D 695       6.500 -16.798  37.882  1.00 62.86 LIG 0.16  C 
BRANCH 16 17
ATOM     17  CB  GLN D 695       7.251 -17.214  39.118  1.00 63.26 LIG 0.04  C 
BRANCH 17 18
ATOM     18  CG  GLN D 695       8.180 -18.365  38.836  1.00 77.24 LIG 0.10  C 
BRANCH 18 19
ATOM     19  CD  GLN D 695       9.419 -18.303  39.632  1.00 84.08 LIG 0.21  C 
ATOM     20 OE1  GLN D 695      10.479 -18.645  39.146  1.00 83.40 LIG-0.27  OA
ATOM     21  NE2 GLN D 695       9.310 -17.848  40.865  1.00 79.17 LIG-0.37  N 
ATOM     22 22HE GLN D 695      10.008 -17.782  41.363  1.00 79.17 LIG 0.16  HD
ATOM     23 21HE GLN D 695       8.540 -17.616  41.172  1.00 79.17 LIG 0.16  HD
ENDBRANCH 18 19
ENDBRANCH 17 18
ENDBRANCH 16 17
BRANCH 16 24
ATOM     24  C   GLN D 695       5.026 -17.187  37.970  1.00 61.14 LIG 0.22  C 
ATOM     25 O    GLN D 695       4.324 -17.244  36.956  1.00 66.66 LIG-0.29  OA
ENDBRANCH 16 24
ENDBRANCH 13 16
ENDBRANCH 11 12
BRANCH 11 26
ATOM     26  CB  LEU D 694       7.093 -12.971  35.569  1.00 34.51 LIG 0.04  C 
BRANCH 26 27
ATOM     27  CG  LEU D 694       6.411 -13.601  34.380  1.00 27.71 LIG-0.02  C 
ATOM     28  CD2 LEU D 694       7.371 -14.066  33.326  1.00 26.48 LIG 0.01  C 
ATOM     29  CD1 LEU D 694       5.314 -12.752  33.804  1.00 27.00 LIG 0.01  C 
ENDBRANCH 26 27
ENDBRANCH 11 26
ENDBRANCH 8 11
ENDBRANCH 6 7
BRANCH 6 30
ATOM     30  CB  LEU D 693       8.596 -11.299  40.626  1.00 45.67 LIG 0.04  C 
BRANCH 30 31
ATOM     31  CG  LEU D 693      10.051 -10.911  40.935  1.00 55.29 LIG-0.02  C 
ATOM     32  CD1 LEU D 693      10.804 -10.564  39.658  1.00 47.80 LIG 0.01  C 
ATOM     33  CD2 LEU D 693      10.144  -9.779  41.970  1.00 51.02 LIG 0.01  C 
ENDBRANCH 30 31
ENDBRANCH 6 30
ENDBRANCH 3 6
ENDBRANCH 1 2
BRANCH 1 34
ATOM     34  CB  ARG D 692      12.479 -14.626  40.549  1.00 49.09 LIG 0.04  C 
BRANCH 34 35
ATOM     35  CG  ARG D 692      13.776 -14.556  39.719  1.00 50.62 LIG 0.02  C 
BRANCH 35 36
ATOM     36  CD  ARG D 692      14.970 -13.968  40.455  1.00 57.04 LIG 0.14  C 
BRANCH 36 37
ATOM     37  NE  ARG D 692      16.148 -14.050  39.613  1.00 60.90 LIG-0.23  N 
ATOM     38 HE   ARG D 692      16.110 -13.678  38.838  1.00 60.90 LIG 0.18  HD
ATOM     39  CZ  ARG D 692      17.277 -14.657  39.948  1.00 61.50 LIG 0.67  C 
ATOM     40  NH1 ARG D 692      17.367 -15.329  41.094  1.00 46.48 LIG-0.23  N 
ATOM     41  NH2 ARG D 692      18.303 -14.627  39.107  1.00 64.68 LIG-0.23  N 
ATOM     42 1HH1 ARG D 692      16.688 -15.371  41.622  1.00 46.48 LIG 0.17  HD
ATOM     43 2HH1 ARG D 692      18.102 -15.722  41.306  1.00 46.48 LIG 0.17  HD
ATOM     44 1HH2 ARG D 692      18.231 -14.217  38.355  1.00 64.68 LIG 0.17  HD
ATOM     45 2HH2 ARG D 692      19.041 -15.017  39.315  1.00 64.68 LIG 0.17  HD
ENDBRANCH 36 37
ENDBRANCH 35 36
ENDBRANCH 34 35
ENDBRANCH 1 34
BRANCH 1 46
ATOM     46  N   ARG D 692      11.521 -14.953  38.246  1.00 43.06 LIG-0.35  N 
ATOM     47  C   HIS D 691      10.712 -15.480  37.343  1.00 44.11 LIG 0.24  C 
ATOM     48 O    HIS D 691       9.749 -16.177  37.629  1.00 43.39 LIG-0.27  OA
ATOM     49 H    ARG D 692      12.214 -14.483  38.052  1.00 43.06 LIG 0.16  HD
BRANCH 47 50
ATOM     50  CA  HIS D 691      11.043 -15.166  35.935  1.00 41.80 LIG 0.18  C 
BRANCH 50 51
ATOM     51  CB  HIS D 691      12.029 -16.199  35.509  1.00 51.00 LIG 0.10  C 
BRANCH 51 52
ATOM     52  CG  HIS D 691      13.299 -16.170  36.254  1.00 57.86 LIG 0.06  A 
ATOM     53 ND1  HIS D 691      14.175 -15.188  36.124  1.00 60.60 LIG-0.24  NA
ATOM     54  CE1 HIS D 691      15.221 -15.428  36.908  1.00 72.50 LIG 0.23  A 
ATOM     55 NE2  HIS D 691      15.020 -16.587  37.529  1.00 67.35 LIG-0.25  NA
ATOM     56  CD2 HIS D 691      13.847 -17.072  37.144  1.00 66.29 LIG 0.14  A 
ENDBRANCH 51 52
ENDBRANCH 50 51
BRANCH 50 57
ATOM     57  N   HIS D 691      11.645 -13.856  35.821  1.00 39.94 LIG-0.35  N 
ATOM     58 H    HIS D 691      12.407 -13.857  35.421  1.00 39.94 LIG 0.16  HD
ATOM     59  C   LEU D 690      11.073 -12.760  36.292  1.00 35.88 LIG 0.24  C 
ATOM     60 O    LEU D 690       9.957 -12.758  36.853  1.00 34.66 LIG-0.27  OA
BRANCH 59 61
ATOM     61  CA  LEU D 690      11.868 -11.480  36.175  1.00 33.43 LIG 0.18  C 
BRANCH 61 62
ATOM     62  CB  LEU D 690      10.921 -10.304  35.933  1.00 31.34 LIG 0.04  C 
BRANCH 62 63
ATOM     63  CG  LEU D 690      10.587  -9.988  34.479  1.00 30.93 LIG-0.02  C 
ATOM     64  CD1 LEU D 690       9.982 -11.212  33.808  1.00 30.90 LIG 0.01  C 
ATOM     65  CD2 LEU D 690       9.603  -8.835  34.419  1.00 28.62 LIG 0.01  C 
ENDBRANCH 62 63
ENDBRANCH 61 62
BRANCH 61 66
ATOM     66  N   LEU D 690      12.851 -11.560  35.093  1.00 35.22 LIG-0.35  N 
ATOM     67 H    LEU D 690      12.535 -11.850  34.348  1.00 35.22 LIG 0.16  HD
ATOM     68  C   ILE D 689      14.119 -11.209  35.273  1.00 41.04 LIG 0.26  C 
ATOM     69 O    ILE D 689      14.539 -10.741  36.342  1.00 39.56 LIG-0.27  OA
BRANCH 68 70
ATOM     70  CA  ILE D 689      15.039 -11.368  34.044  1.00 40.35 LIG 0.40  C 
ATOM     71  N   ILE D 689      15.593 -10.044  33.557  1.00 40.45 LIG 0.61  N 
BRANCH 70 72
ATOM     72  CB  ILE D 689      16.159 -12.366  34.427  1.00 42.26 LIG 0.03  C 
ATOM     73  CG2 ILE D 689      15.769 -13.803  34.035  1.00 38.55 LIG 0.01  C 
BRANCH 72 74
ATOM     74  CG1 ILE D 689      17.505 -11.962  33.819  1.00 45.91 LIG 0.00  C 
ATOM     75  CD1 ILE D 689      18.725 -12.482  34.580  1.00 45.96 LIG 0.01  C 
ENDBRANCH 72 74
ENDBRANCH 70 72
ENDBRANCH 68 70
ENDBRANCH 61 66
ENDBRANCH 59 61
ENDBRANCH 50 57
ENDBRANCH 47 50
ENDBRANCH 1 46
TORSDOF 30
ENDMDL
MODEL 17
USER: ADFR SOLUTION from run 130
USER: SCORE 21.067451 LL:  -7.993 LR: -13.365 RR:   0.000 FEB:  -4.416
USER: RMSD 2.431966
USER: SEED 129
USER: STATUS no improvement in best in 17 clusters for 5 generations
USER: GENES 32
USER: genes 0 Translation |==|  0.54883 0.48688 0.52900
USER: genes 1 Rotation |==|  0.49562 0.51483 0.57887 0.99350
USER: genes 2 Torsion [N]-CA--C-[N] |==|  0.88395
USER: genes 3 Torsion [C]-N--CA-[C] |==|  0.77200
USER: genes 4 Torsion [N]-CA--C-[N] |==|  0.94756
USER: genes 5 Torsion [C]-N--CA-[C] |==|  0.75885
USER: genes 6 Torsion [N]-CA--C-[N] |==|  0.96485
USER: genes 7 Torsion [C]-N--CA-[CB] |==|  0.94353
USER: genes 8 Torsion [N]-CA--CB-[CG] |==|  0.77707
USER: genes 9 Torsion [CA]-CB--CG-[CD] |==|  0.31630
USER: genes 10 Torsion [CB]-CG--CD-[NE2] |==|  0.59976
USER: genes 11 Torsion [N]-CA--C-[O] |==|  0.18601
USER: genes 12 Torsion [N]-CA--CB-[CG] |==|  0.79366
USER: genes 13 Torsion [CA]-CB--CG-[CD2] |==|  0.79207
USER: genes 14 Torsion [N]-CA--CB-[CG] |==|  0.82965
USER: genes 15 Torsion [CA]-CB--CG-[CD1] |==|  0.22455
USER: genes 16 Torsion [C]-CA--CB-[CG] |==|  0.59631
USER: genes 17 Torsion [CA]-CB--CG-[CD] |==|  0.74817
USER: genes 18 Torsion [CB]-CG--CD-[NE] |==|  0.60040
USER: genes 19 Torsion [CG]-CD--NE-[CZ] |==|  0.78224
USER: genes 20 Torsion [C]-CA--N-[C] |==|  0.84429
USER: genes 21 Torsion [N]-C--CA-[N] |==|  0.86902
USER: genes 22 Torsion [C]-CA--CB-[CG] |==|  0.12286
USER: genes 23 Torsion [CA]-CB--CG-[ND1] |==|  0.68057
USER: genes 24 Torsion [C]-CA--N-[C] |==|  0.84806
USER: genes 25 Torsion [N]-C--CA-[N] |==|  0.90291
USER: genes 26 Torsion [C]-CA--CB-[CG] |==|  0.88751
USER: genes 27 Torsion [CA]-CB--CG-[CD2] |==|  0.77833
USER: genes 28 Torsion [C]-CA--N-[C] |==|  0.83564
USER: genes 29 Torsion [N]-C--CA-[N] |==|  0.06568
USER: genes 30 Torsion [C]-CA--CB-[CG1] |==|  0.87535
USER: genes 31 Torsion [CA]-CB--CG1-[CD1] |==|  0.57987
ROOT
ATOM      1  CA  ARG D 692      10.702 -15.248  39.485  1.00 48.73 LIG 0.18  C 
ENDROOT
BRANCH 1 2
ATOM      2  C   ARG D 692       9.311 -14.740  39.828  1.00 46.10 LIG 0.24  C 
ATOM      3  N   LEU D 693       8.999 -13.497  39.469  1.00 50.64 LIG-0.35  N 
ATOM      4 H    LEU D 693       9.515 -12.960  39.040  1.00 50.64 LIG 0.16  HD
ATOM      5 O    ARG D 692       8.545 -15.432  40.496  1.00 52.04 LIG-0.27  OA
BRANCH 3 6
ATOM      6  CA  LEU D 693       7.677 -12.964  39.815  1.00 43.34 LIG 0.18  C 
BRANCH 6 7
ATOM      7  C   LEU D 693       6.605 -13.402  38.826  1.00 37.95 LIG 0.24  C 
ATOM      8  N   LEU D 694       7.031 -13.828  37.654  1.00 39.22 LIG-0.35  N 
ATOM      9 H    LEU D 694       7.858 -13.824  37.419  1.00 39.22 LIG 0.16  HD
ATOM     10 O    LEU D 693       5.409 -13.321  39.124  1.00 43.86 LIG-0.27  OA
BRANCH 8 11
ATOM     11  CA  LEU D 694       6.139 -14.347  36.651  1.00 38.59 LIG 0.18  C 
BRANCH 11 12
ATOM     12  C   LEU D 694       5.937 -15.807  36.895  1.00 46.22 LIG 0.24  C 
ATOM     13  N   GLN D 695       6.779 -16.349  37.756  1.00 66.87 LIG-0.35  N 
ATOM     14 H    GLN D 695       7.440 -15.901  38.073  1.00 66.87 LIG 0.16  HD
ATOM     15 O    LEU D 694       5.095 -16.405  36.278  1.00 54.70 LIG-0.27  OA
BRANCH 13 16
ATOM     16  CA  GLN D 695       6.741 -17.717  38.290  1.00 62.86 LIG 0.16  C 
BRANCH 16 17
ATOM     17  CB  GLN D 695       5.369 -18.313  38.138  1.00 63.26 LIG 0.04  C 
BRANCH 17 18
ATOM     18  CG  GLN D 695       4.439 -17.837  39.222  1.00 77.24 LIG 0.10  C 
BRANCH 18 19
ATOM     19  CD  GLN D 695       3.343 -16.999  38.704  1.00 84.08 LIG 0.21  C 
ATOM     20 OE1  GLN D 695       2.832 -17.252  37.630  1.00 83.40 LIG-0.27  OA
ATOM     21  NE2 GLN D 695       2.949 -15.997  39.467  1.00 79.17 LIG-0.37  N 
ATOM     22 22HE GLN D 695       2.304 -15.490  39.211  1.00 79.17 LIG 0.16  HD
ATOM     23 21HE GLN D 695       3.338 -15.852  40.220  1.00 79.17 LIG 0.16  HD
ENDBRANCH 18 19
ENDBRANCH 17 18
ENDBRANCH 16 17
BRANCH 16 24
ATOM     24  C   GLN D 695       7.822 -18.676  37.793  1.00 61.14 LIG 0.22  C 
ATOM     25 O    GLN D 695       9.008 -18.501  38.087  1.00 66.66 LIG-0.29  OA
ENDBRANCH 16 24
ENDBRANCH 13 16
ENDBRANCH 11 12
BRANCH 11 26
ATOM     26  CB  LEU D 694       6.717 -14.189  35.261  1.00 34.51 LIG 0.04  C 
BRANCH 26 27
ATOM     27  CG  LEU D 694       6.752 -12.832  34.602  1.00 27.71 LIG-0.02  C 
ATOM     28  CD2 LEU D 694       5.411 -12.379  34.110  1.00 26.48 LIG 0.01  C 
ATOM     29  CD1 LEU D 694       7.809 -12.713  33.542  1.00 27.00 LIG 0.01  C 
ENDBRANCH 26 27
ENDBRANCH 11 26
ENDBRANCH 8 11
ENDBRANCH 6 7
BRANCH 6 30
ATOM     30  CB  LEU D 693       7.689 -11.433  39.964  1.00 45.67 LIG 0.04  C 
BRANCH 30 31
ATOM     31  CG  LEU D 693       8.603 -10.872  41.065  1.00 55.29 LIG-0.02  C 
ATOM     32  CD1 LEU D 693      10.047 -10.802  40.590  1.00 47.80 LIG 0.01  C 
ATOM     33  CD2 LEU D 693       8.116  -9.513  41.589  1.00 51.02 LIG 0.01  C 
ENDBRANCH 30 31
ENDBRANCH 6 30
ENDBRANCH 3 6
ENDBRANCH 1 2
BRANCH 1 34
ATOM     34  CB  ARG D 692      11.671 -14.821  40.607  1.00 49.09 LIG 0.04  C 
BRANCH 34 35
ATOM     35  CG  ARG D 692      13.070 -14.497  40.048  1.00 50.62 LIG 0.02  C 
BRANCH 35 36
ATOM     36  CD  ARG D 692      14.027 -15.679  40.008  1.00 57.04 LIG 0.14  C 
BRANCH 36 37
ATOM     37  NE  ARG D 692      15.371 -15.224  40.311  1.00 60.90 LIG-0.23  N 
ATOM     38 HE   ARG D 692      15.670 -15.366  41.105  1.00 60.90 LIG 0.18  HD
ATOM     39  CZ  ARG D 692      16.172 -14.607  39.455  1.00 61.50 LIG 0.67  C 
ATOM     40  NH1 ARG D 692      15.735 -14.277  38.241  1.00 46.48 LIG-0.23  N 
ATOM     41  NH2 ARG D 692      17.399 -14.278  39.837  1.00 64.68 LIG-0.23  N 
ATOM     42 1HH1 ARG D 692      14.928 -14.466  38.009  1.00 46.48 LIG 0.17  HD
ATOM     43 2HH1 ARG D 692      16.259 -13.876  37.690  1.00 46.48 LIG 0.17  HD
ATOM     44 1HH2 ARG D 692      17.667 -14.466  40.633  1.00 64.68 LIG 0.17  HD
ATOM     45 2HH2 ARG D 692      17.927 -13.877  39.290  1.00 64.68 LIG 0.17  HD
ENDBRANCH 36 37
ENDBRANCH 35 36
ENDBRANCH 34 35
ENDBRANCH 1 34
BRANCH 1 46
ATOM     46  N   ARG D 692      11.202 -14.889  38.137  1.00 43.06 LIG-0.35  N 
ATOM     47  C   HIS D 691      10.533 -15.194  37.038  1.00 44.11 LIG 0.24  C 
ATOM     48 O    HIS D 691       9.482 -15.820  37.044  1.00 43.39 LIG-0.27  OA
ATOM     49 H    ARG D 692      11.954 -14.470  38.138  1.00 43.06 LIG 0.16  HD
BRANCH 47 50
ATOM     50  CA  HIS D 691      11.139 -14.720  35.774  1.00 41.80 LIG 0.18  C 
BRANCH 50 51
ATOM     51  CB  HIS D 691      12.348 -15.564  35.560  1.00 51.00 LIG 0.10  C 
BRANCH 51 52
ATOM     52  CG  HIS D 691      12.139 -17.000  35.809  1.00 57.86 LIG 0.06  A 
ATOM     53 ND1  HIS D 691      12.749 -17.646  36.787  1.00 60.60 LIG-0.24  NA
ATOM     54  CE1 HIS D 691      12.375 -18.922  36.770  1.00 72.50 LIG 0.23  A 
ATOM     55 NE2  HIS D 691      11.532 -19.095  35.757  1.00 67.35 LIG-0.25  NA
ATOM     56  CD2 HIS D 691      11.369 -17.932  35.141  1.00 66.29 LIG 0.14  A 
ENDBRANCH 51 52
ENDBRANCH 50 51
BRANCH 50 57
ATOM     57  N   HIS D 691      11.536 -13.334  35.874  1.00 39.94 LIG-0.35  N 
ATOM     58 H    HIS D 691      12.362 -13.194  35.680  1.00 39.94 LIG 0.16  HD
ATOM     59  C   LEU D 690      10.702 -12.372  36.234  1.00 35.88 LIG 0.24  C 
ATOM     60 O    LEU D 690       9.496 -12.574  36.495  1.00 34.66 LIG-0.27  OA
BRANCH 59 61
ATOM     61  CA  LEU D 690      11.289 -10.987  36.379  1.00 33.43 LIG 0.18  C 
BRANCH 61 62
ATOM     62  CB  LEU D 690      11.271 -10.274  35.026  1.00 31.34 LIG 0.04  C 
BRANCH 62 63
ATOM     63  CG  LEU D 690      11.635 -11.116  33.808  1.00 30.93 LIG-0.02  C 
ATOM     64  CD1 LEU D 690      11.102 -10.458  32.545  1.00 30.90 LIG 0.01  C 
ATOM     65  CD2 LEU D 690      13.143 -11.253  33.714  1.00 28.62 LIG 0.01  C 
ENDBRANCH 62 63
ENDBRANCH 61 62
BRANCH 61 66
ATOM     66  N   LEU D 690      12.658 -11.041  36.896  1.00 35.22 LIG-0.35  N 
ATOM     67 H    LEU D 690      13.247 -10.687  36.379  1.00 35.22 LIG 0.16  HD
ATOM     68  C   ILE D 689      12.941 -11.595  38.069  1.00 41.04 LIG 0.26  C 
ATOM     69 O    ILE D 689      12.067 -12.049  38.823  1.00 39.56 LIG-0.27  OA
BRANCH 68 70
ATOM     70  CA  ILE D 689      14.432 -11.594  38.469  1.00 40.35 LIG 0.40  C 
ATOM     71  N   ILE D 689      15.220 -10.502  37.774  1.00 40.45 LIG 0.61  N 
BRANCH 70 72
ATOM     72  CB  ILE D 689      14.500 -11.475  40.012  1.00 42.26 LIG 0.03  C 
ATOM     73  CG2 ILE D 689      15.944 -11.213  40.476  1.00 38.55 LIG 0.01  C 
BRANCH 72 74
ATOM     74  CG1 ILE D 689      13.537 -10.406  40.537  1.00 45.91 LIG 0.00  C 
ATOM     75  CD1 ILE D 689      13.981  -9.739  41.838  1.00 45.96 LIG 0.01  C 
ENDBRANCH 72 74
ENDBRANCH 70 72
ENDBRANCH 68 70
ENDBRANCH 61 66
ENDBRANCH 59 61
ENDBRANCH 50 57
ENDBRANCH 47 50
ENDBRANCH 1 46
TORSDOF 30
ENDMDL
MODEL 18
USER: ADFR SOLUTION from run 86
USER: SCORE 21.078638 LL:  -8.457 LR: -13.312 RR:   0.000 FEB:  -4.363
USER: RMSD 3.127706
USER: SEED 85
USER: STATUS no improvement in best in 12 clusters for 5 generations
USER: GENES 32
USER: genes 0 Translation |==|  0.55900 0.51386 0.53661
USER: genes 1 Rotation |==|  0.39958 0.59924 0.60709 0.96755
USER: genes 2 Torsion [N]-CA--C-[N] |==|  0.88712
USER: genes 3 Torsion [C]-N--CA-[C] |==|  0.69110
USER: genes 4 Torsion [N]-CA--C-[N] |==|  0.95194
USER: genes 5 Torsion [C]-N--CA-[C] |==|  0.76819
USER: genes 6 Torsion [N]-CA--C-[N] |==|  0.91139
USER: genes 7 Torsion [C]-N--CA-[CB] |==|  0.80198
USER: genes 8 Torsion [N]-CA--CB-[CG] |==|  0.80169
USER: genes 9 Torsion [CA]-CB--CG-[CD] |==|  0.31532
USER: genes 10 Torsion [CB]-CG--CD-[NE2] |==|  0.51206
USER: genes 11 Torsion [N]-CA--C-[O] |==|  0.85790
USER: genes 12 Torsion [N]-CA--CB-[CG] |==|  0.80064
USER: genes 13 Torsion [CA]-CB--CG-[CD2] |==|  0.83574
USER: genes 14 Torsion [N]-CA--CB-[CG] |==|  0.63600
USER: genes 15 Torsion [CA]-CB--CG-[CD1] |==|  0.61694
USER: genes 16 Torsion [C]-CA--CB-[CG] |==|  0.85268
USER: genes 17 Torsion [CA]-CB--CG-[CD] |==|  0.46656
USER: genes 18 Torsion [CB]-CG--CD-[NE] |==|  0.07914
USER: genes 19 Torsion [CG]-CD--NE-[CZ] |==|  0.26816
USER: genes 20 Torsion [C]-CA--N-[C] |==|  0.83527
USER: genes 21 Torsion [N]-C--CA-[N] |==|  0.91552
USER: genes 22 Torsion [C]-CA--CB-[CG] |==|  0.69763
USER: genes 23 Torsion [CA]-CB--CG-[ND1] |==|  0.77042
USER: genes 24 Torsion [C]-CA--N-[C] |==|  0.85080
USER: genes 25 Torsion [N]-C--CA-[N] |==|  0.90447
USER: genes 26 Torsion [C]-CA--CB-[CG] |==|  0.41413
USER: genes 27 Torsion [CA]-CB--CG-[CD2] |==|  0.25007
USER: genes 28 Torsion [C]-CA--N-[C] |==|  0.74444
USER: genes 29 Torsion [N]-C--CA-[N] |==|  0.73538
USER: genes 30 Torsion [C]-CA--CB-[CG1] |==|  0.57636
USER: genes 31 Torsion [CA]-CB--CG1-[CD1] |==|  0.64771
ROOT
ATOM      1  CA  ARG D 692      10.930 -14.742  39.633  1.00 48.73 LIG 0.18  C 
ENDROOT
BRANCH 1 2
ATOM      2  C   ARG D 692       9.591 -14.236  40.142  1.00 46.10 LIG 0.24  C 
ATOM      3  N   LEU D 693       8.960 -13.315  39.419  1.00 50.64 LIG-0.35  N 
ATOM      4 H    LEU D 693       9.240 -12.993  38.673  1.00 50.64 LIG 0.16  HD
ATOM      5 O    ARG D 692       9.162 -14.608  41.233  1.00 52.04 LIG-0.27  OA
BRANCH 3 6
ATOM      6  CA  LEU D 693       7.681 -12.782  39.899  1.00 43.34 LIG 0.18  C 
BRANCH 6 7
ATOM      7  C   LEU D 693       6.513 -13.220  39.026  1.00 37.95 LIG 0.24  C 
ATOM      8  N   LEU D 694       6.817 -13.678  37.829  1.00 39.22 LIG-0.35  N 
ATOM      9 H    LEU D 694       7.618 -13.693  37.515  1.00 39.22 LIG 0.16  HD
ATOM     10 O    LEU D 693       5.351 -13.112  39.436  1.00 43.86 LIG-0.27  OA
BRANCH 8 11
ATOM     11  CA  LEU D 694       5.825 -14.200  36.927  1.00 38.59 LIG 0.18  C 
BRANCH 11 12
ATOM     12  C   LEU D 694       5.565 -15.630  37.274  1.00 46.22 LIG 0.24  C 
ATOM     13  N   GLN D 695       6.605 -16.284  37.758  1.00 66.87 LIG-0.35  N 
ATOM     14 H    GLN D 695       7.385 -15.924  37.780  1.00 66.87 LIG 0.16  HD
ATOM     15 O    LEU D 694       4.485 -16.113  37.051  1.00 54.70 LIG-0.27  OA
BRANCH 13 16
ATOM     16  CA  GLN D 695       6.618 -17.647  38.306  1.00 62.86 LIG 0.16  C 
BRANCH 16 17
ATOM     17  CB  GLN D 695       5.921 -17.695  39.639  1.00 63.26 LIG 0.04  C 
BRANCH 17 18
ATOM     18  CG  GLN D 695       6.734 -17.017  40.709  1.00 77.24 LIG 0.10  C 
BRANCH 18 19
ATOM     19  CD  GLN D 695       6.091 -15.793  41.222  1.00 84.08 LIG 0.21  C 
ATOM     20 OE1  GLN D 695       4.976 -15.483  40.850  1.00 83.40 LIG-0.27  OA
ATOM     21  NE2 GLN D 695       6.776 -15.087  42.101  1.00 79.17 LIG-0.37  N 
ATOM     22 22HE GLN D 695       6.435 -14.373  42.437  1.00 79.17 LIG 0.16  HD
ATOM     23 21HE GLN D 695       7.562 -15.341  42.338  1.00 79.17 LIG 0.16  HD
ENDBRANCH 18 19
ENDBRANCH 17 18
ENDBRANCH 16 17
BRANCH 16 24
ATOM     24  C   GLN D 695       6.129 -18.761  37.383  1.00 61.14 LIG 0.22  C 
ATOM     25 O    GLN D 695       5.044 -18.672  36.802  1.00 66.66 LIG-0.29  OA
ENDBRANCH 16 24
ENDBRANCH 13 16
ENDBRANCH 11 12
BRANCH 11 26
ATOM     26  CB  LEU D 694       6.304 -14.157  35.492  1.00 34.51 LIG 0.04  C 
BRANCH 26 27
ATOM     27  CG  LEU D 694       6.415 -12.838  34.768  1.00 27.71 LIG-0.02  C 
ATOM     28  CD2 LEU D 694       5.115 -12.096  34.687  1.00 26.48 LIG 0.01  C 
ATOM     29  CD1 LEU D 694       7.082 -12.949  33.427  1.00 27.00 LIG 0.01  C 
ENDBRANCH 26 27
ENDBRANCH 11 26
ENDBRANCH 8 11
ENDBRANCH 6 7
BRANCH 6 30
ATOM     30  CB  LEU D 693       7.708 -11.250  40.045  1.00 45.67 LIG 0.04  C 
BRANCH 30 31
ATOM     31  CG  LEU D 693       7.187 -10.693  41.379  1.00 55.29 LIG-0.02  C 
ATOM     32  CD1 LEU D 693       6.317  -9.464  41.151  1.00 47.80 LIG 0.01  C 
ATOM     33  CD2 LEU D 693       6.452 -11.758  42.206  1.00 51.02 LIG 0.01  C 
ENDBRANCH 30 31
ENDBRANCH 6 30
ENDBRANCH 3 6
ENDBRANCH 1 2
BRANCH 1 34
ATOM     34  CB  ARG D 692      12.039 -13.803  40.153  1.00 49.09 LIG 0.04  C 
BRANCH 34 35
ATOM     35  CG  ARG D 692      11.736 -12.332  39.807  1.00 50.62 LIG 0.02  C 
BRANCH 35 36
ATOM     36  CD  ARG D 692      12.617 -11.317  40.522  1.00 57.04 LIG 0.14  C 
BRANCH 36 37
ATOM     37  NE  ARG D 692      13.905 -11.916  40.816  1.00 60.90 LIG-0.23  N 
ATOM     38 HE   ARG D 692      13.968 -12.395  41.527  1.00 60.90 LIG 0.18  HD
ATOM     39  CZ  ARG D 692      14.991 -11.778  40.070  1.00 61.50 LIG 0.67  C 
ATOM     40  NH1 ARG D 692      14.981 -10.975  39.007  1.00 46.48 LIG-0.23  N 
ATOM     41  NH2 ARG D 692      16.102 -12.412  40.420  1.00 64.68 LIG-0.23  N 
ATOM     42 1HH1 ARG D 692      14.266 -10.543  38.802  1.00 46.48 LIG 0.17  HD
ATOM     43 2HH1 ARG D 692      15.689 -10.890  38.527  1.00 46.48 LIG 0.17  HD
ATOM     44 1HH2 ARG D 692      16.112 -12.906  41.124  1.00 64.68 LIG 0.17  HD
ATOM     45 2HH2 ARG D 692      16.813 -12.330  39.943  1.00 64.68 LIG 0.17  HD
ENDBRANCH 36 37
ENDBRANCH 35 36
ENDBRANCH 34 35
ENDBRANCH 1 34
BRANCH 1 46
ATOM     46  N   ARG D 692      11.018 -14.968  38.171  1.00 43.06 LIG-0.35  N 
ATOM     47  C   HIS D 691      10.219 -15.815  37.545  1.00 44.11 LIG 0.24  C 
ATOM     48 O    HIS D 691       9.381 -16.496  38.118  1.00 43.39 LIG-0.27  OA
ATOM     49 H    ARG D 692      11.627 -14.504  37.777  1.00 43.06 LIG 0.16  HD
BRANCH 47 50
ATOM     50  CA  HIS D 691      10.396 -15.888  36.077  1.00 41.80 LIG 0.18  C 
BRANCH 50 51
ATOM     51  CB  HIS D 691      11.450 -16.916  35.846  1.00 51.00 LIG 0.10  C 
BRANCH 51 52
ATOM     52  CG  HIS D 691      12.739 -16.372  35.387  1.00 57.86 LIG 0.06  A 
ATOM     53 ND1  HIS D 691      12.974 -16.081  34.119  1.00 60.60 LIG-0.24  NA
ATOM     54  CE1 HIS D 691      14.213 -15.615  33.999  1.00 72.50 LIG 0.23  A 
ATOM     55 NE2  HIS D 691      14.782 -15.629  35.201  1.00 67.35 LIG-0.25  NA
ATOM     56  CD2 HIS D 691      13.903 -16.095  36.078  1.00 66.29 LIG 0.14  A 
ENDBRANCH 51 52
ENDBRANCH 50 51
BRANCH 50 57
ATOM     57  N   HIS D 691      10.841 -14.621  35.542  1.00 39.94 LIG-0.35  N 
ATOM     58 H    HIS D 691      11.556 -14.676  35.067  1.00 39.94 LIG 0.16  HD
ATOM     59  C   LEU D 690      10.204 -13.483  35.766  1.00 35.88 LIG 0.24  C 
ATOM     60 O    LEU D 690       9.152 -13.409  36.438  1.00 34.66 LIG-0.27  OA
BRANCH 59 61
ATOM     61  CA  LEU D 690      10.842 -12.230  35.213  1.00 33.43 LIG 0.18  C 
BRANCH 61 62
ATOM     62  CB  LEU D 690      10.376 -12.005  33.774  1.00 31.34 LIG 0.04  C 
BRANCH 62 63
ATOM     63  CG  LEU D 690      10.282 -10.556  33.309  1.00 30.93 LIG-0.02  C 
ATOM     64  CD1 LEU D 690       9.941  -9.654  34.485  1.00 30.90 LIG 0.01  C 
ATOM     65  CD2 LEU D 690      11.605 -10.126  32.704  1.00 28.62 LIG 0.01  C 
ENDBRANCH 62 63
ENDBRANCH 61 62
BRANCH 61 66
ATOM     66  N   LEU D 690      12.303 -12.314  35.257  1.00 35.22 LIG-0.35  N 
ATOM     67 H    LEU D 690      12.659 -12.676  34.562  1.00 35.22 LIG 0.16  HD
ATOM     68  C   ILE D 689      12.999 -11.861  36.292  1.00 41.04 LIG 0.26  C 
ATOM     69 O    ILE D 689      12.468 -11.291  37.257  1.00 39.56 LIG-0.27  OA
BRANCH 68 70
ATOM     70  CA  ILE D 689      14.530 -12.037  36.201  1.00 40.35 LIG 0.40  C 
ATOM     71  N   ILE D 689      15.013 -13.293  36.899  1.00 40.45 LIG 0.61  N 
BRANCH 70 72
ATOM     72  CB  ILE D 689      14.913 -12.015  34.701  1.00 42.26 LIG 0.03  C 
ATOM     73  CG2 ILE D 689      15.035 -10.568  34.189  1.00 38.55 LIG 0.01  C 
BRANCH 72 74
ATOM     74  CG1 ILE D 689      16.190 -12.817  34.435  1.00 45.91 LIG 0.00  C 
ATOM     75  CD1 ILE D 689      17.275 -12.046  33.683  1.00 45.96 LIG 0.01  C 
ENDBRANCH 72 74
ENDBRANCH 70 72
ENDBRANCH 68 70
ENDBRANCH 61 66
ENDBRANCH 59 61
ENDBRANCH 50 57
ENDBRANCH 47 50
ENDBRANCH 1 46
TORSDOF 30
ENDMDL
MODEL 19
USER: ADFR SOLUTION from run 86
USER: SCORE 21.383069 LL:  -8.871 LR: -13.215 RR:   0.000 FEB:  -4.266
USER: RMSD 3.524374
USER: SEED 85
USER: STATUS no improvement in best in 12 clusters for 5 generations
USER: GENES 32
USER: genes 0 Translation |==|  0.59725 0.46060 0.52042
USER: genes 1 Rotation |==|  0.47727 0.57609 0.43383 0.98920
USER: genes 2 Torsion [N]-CA--C-[N] |==|  0.97060
USER: genes 3 Torsion [C]-N--CA-[C] |==|  0.69811
USER: genes 4 Torsion [N]-CA--C-[N] |==|  0.88827
USER: genes 5 Torsion [C]-N--CA-[C] |==|  0.78677
USER: genes 6 Torsion [N]-CA--C-[N] |==|  0.88401
USER: genes 7 Torsion [C]-N--CA-[CB] |==|  0.81533
USER: genes 8 Torsion [N]-CA--CB-[CG] |==|  0.83624
USER: genes 9 Torsion [CA]-CB--CG-[CD] |==|  0.35343
USER: genes 10 Torsion [CB]-CG--CD-[NE2] |==|  0.43996
USER: genes 11 Torsion [N]-CA--C-[O] |==|  0.84751
USER: genes 12 Torsion [N]-CA--CB-[CG] |==|  0.39453
USER: genes 13 Torsion [CA]-CB--CG-[CD2] |==|  0.63522
USER: genes 14 Torsion [N]-CA--CB-[CG] |==|  0.64513
USER: genes 15 Torsion [CA]-CB--CG-[CD1] |==|  0.95189
USER: genes 16 Torsion [C]-CA--CB-[CG] |==|  0.88605
USER: genes 17 Torsion [CA]-CB--CG-[CD] |==|  0.62992
USER: genes 18 Torsion [CB]-CG--CD-[NE] |==|  0.41432
USER: genes 19 Torsion [CG]-CD--NE-[CZ] |==|  0.17834
USER: genes 20 Torsion [C]-CA--N-[C] |==|  0.72351
USER: genes 21 Torsion [N]-C--CA-[N] |==|  0.87856
USER: genes 22 Torsion [C]-CA--CB-[CG] |==|  0.61626
USER: genes 23 Torsion [CA]-CB--CG-[ND1] |==|  0.84949
USER: genes 24 Torsion [C]-CA--N-[C] |==|  0.86107
USER: genes 25 Torsion [N]-C--CA-[N] |==|  0.92800
USER: genes 26 Torsion [C]-CA--CB-[CG] |==|  0.39505
USER: genes 27 Torsion [CA]-CB--CG-[CD2] |==|  0.28149
USER: genes 28 Torsion [C]-CA--N-[C] |==|  0.80105
USER: genes 29 Torsion [N]-C--CA-[N] |==|  0.68784
USER: genes 30 Torsion [C]-CA--CB-[CG1] |==|  0.58156
USER: genes 31 Torsion [CA]-CB--CG1-[CD1] |==|  0.64535
ROOT
ATOM      1  CA  ARG D 692      11.791 -15.741  39.317  1.00 48.73 LIG 0.18  C 
ENDROOT
BRANCH 1 2
ATOM      2  C   ARG D 692      11.016 -14.526  39.802  1.00 46.10 LIG 0.24  C 
ATOM      3  N   LEU D 693      10.824 -13.529  38.942  1.00 50.64 LIG-0.35  N 
ATOM      4 H    LEU D 693      11.088 -13.522  38.124  1.00 50.64 LIG 0.16  HD
ATOM      5 O    ARG D 692      10.664 -14.444  40.977  1.00 52.04 LIG-0.27  OA
BRANCH 3 6
ATOM      6  CA  LEU D 693      10.109 -12.329  39.387  1.00 43.34 LIG 0.18  C 
BRANCH 6 7
ATOM      7  C   LEU D 693       8.720 -12.228  38.771  1.00 37.95 LIG 0.24  C 
ATOM      8  N   LEU D 694       8.616 -12.571  37.503  1.00 39.22 LIG-0.35  N 
ATOM      9 H    LEU D 694       9.287 -12.795  37.016  1.00 39.22 LIG 0.16  HD
ATOM     10 O    LEU D 693       7.767 -11.815  39.442  1.00 43.86 LIG-0.27  OA
BRANCH 8 11
ATOM     11  CA  LEU D 694       7.354 -12.600  36.813  1.00 38.59 LIG 0.18  C 
BRANCH 11 12
ATOM     12  C   LEU D 694       6.610 -13.829  37.222  1.00 46.22 LIG 0.24  C 
ATOM     13  N   GLN D 695       7.346 -14.922  37.312  1.00 66.87 LIG-0.35  N 
ATOM     14 H    GLN D 695       8.169 -14.924  37.063  1.00 66.87 LIG 0.16  HD
ATOM     15 O    LEU D 694       5.419 -13.781  37.386  1.00 54.70 LIG-0.27  OA
BRANCH 13 16
ATOM     16  CA  GLN D 695       6.924 -16.235  37.815  1.00 62.86 LIG 0.16  C 
BRANCH 16 17
ATOM     17  CB  GLN D 695       6.617 -16.172  39.286  1.00 63.26 LIG 0.04  C 
BRANCH 17 18
ATOM     18  CG  GLN D 695       7.812 -15.716  40.079  1.00 77.24 LIG 0.10  C 
BRANCH 18 19
ATOM     19  CD  GLN D 695       7.508 -14.575  40.962  1.00 84.08 LIG 0.21  C 
ATOM     20 OE1  GLN D 695       6.542 -13.870  40.743  1.00 83.40 LIG-0.27  OA
ATOM     21  NE2 GLN D 695       8.316 -14.386  41.987  1.00 79.17 LIG-0.37  N 
ATOM     22 22HE GLN D 695       8.170 -13.740  42.536  1.00 79.17 LIG 0.16  HD
ATOM     23 21HE GLN D 695       8.989 -14.907  42.106  1.00 79.17 LIG 0.16  HD
ENDBRANCH 18 19
ENDBRANCH 17 18
ENDBRANCH 16 17
BRANCH 16 24
ATOM     24  C   GLN D 695       5.809 -16.939  37.044  1.00 61.14 LIG 0.22  C 
ATOM     25 O    GLN D 695       4.728 -16.378  36.842  1.00 66.66 LIG-0.29  OA
ENDBRANCH 16 24
ENDBRANCH 13 16
ENDBRANCH 11 12
BRANCH 11 26
ATOM     26  CB  LEU D 694       7.546 -12.658  35.312  1.00 34.51 LIG 0.04  C 
BRANCH 26 27
ATOM     27  CG  LEU D 694       6.624 -13.495  34.461  1.00 27.71 LIG-0.02  C 
ATOM     28  CD2 LEU D 694       7.353 -14.380  33.495  1.00 26.48 LIG 0.01  C 
ATOM     29  CD1 LEU D 694       5.547 -12.695  33.786  1.00 27.00 LIG 0.01  C 
ENDBRANCH 26 27
ENDBRANCH 11 26
ENDBRANCH 8 11
ENDBRANCH 6 7
BRANCH 6 30
ATOM     30  CB  LEU D 693      10.914 -11.044  39.130  1.00 45.67 LIG 0.04  C 
BRANCH 30 31
ATOM     31  CG  LEU D 693      11.100 -10.114  40.340  1.00 55.29 LIG-0.02  C 
ATOM     32  CD1 LEU D 693      10.098 -10.444  41.438  1.00 47.80 LIG 0.01  C 
ATOM     33  CD2 LEU D 693      12.542 -10.129  40.869  1.00 51.02 LIG 0.01  C 
ENDBRANCH 30 31
ENDBRANCH 6 30
ENDBRANCH 3 6
ENDBRANCH 1 2
BRANCH 1 34
ATOM     34  CB  ARG D 692      13.085 -15.861  40.150  1.00 49.09 LIG 0.04  C 
BRANCH 34 35
ATOM     35  CG  ARG D 692      13.730 -14.481  40.387  1.00 50.62 LIG 0.02  C 
BRANCH 35 36
ATOM     36  CD  ARG D 692      15.229 -14.429  40.130  1.00 57.04 LIG 0.14  C 
BRANCH 36 37
ATOM     37  NE  ARG D 692      15.595 -13.104  39.669  1.00 60.90 LIG-0.23  N 
ATOM     38 HE   ARG D 692      15.909 -13.032  38.871  1.00 60.90 LIG 0.18  HD
ATOM     39  CZ  ARG D 692      15.484 -11.996  40.386  1.00 61.50 LIG 0.67  C 
ATOM     40  NH1 ARG D 692      15.092 -12.052  41.658  1.00 46.48 LIG-0.23  N 
ATOM     41  NH2 ARG D 692      15.812 -10.833  39.838  1.00 64.68 LIG-0.23  N 
ATOM     42 1HH1 ARG D 692      14.910 -12.812  42.018  1.00 46.48 LIG 0.17  HD
ATOM     43 2HH1 ARG D 692      15.022 -11.329  42.118  1.00 46.48 LIG 0.17  HD
ATOM     44 1HH2 ARG D 692      16.093 -10.804  39.025  1.00 64.68 LIG 0.17  HD
ATOM     45 2HH2 ARG D 692      15.743 -10.107  40.294  1.00 64.68 LIG 0.17  HD
ENDBRANCH 36 37
ENDBRANCH 35 36
ENDBRANCH 34 35
ENDBRANCH 1 34
BRANCH 1 46
ATOM     46  N   ARG D 692      12.049 -15.799  37.859  1.00 43.06 LIG-0.35  N 
ATOM     47  C   HIS D 691      11.309 -16.536  37.047  1.00 44.11 LIG 0.24  C 
ATOM     48 O    HIS D 691      10.392 -17.246  37.433  1.00 43.39 LIG-0.27  OA
ATOM     49 H    ARG D 692      12.711 -15.316  37.597  1.00 43.06 LIG 0.16  HD
BRANCH 47 50
ATOM     50  CA  HIS D 691      11.660 -16.445  35.612  1.00 41.80 LIG 0.18  C 
BRANCH 50 51
ATOM     51  CB  HIS D 691      12.917 -17.230  35.450  1.00 51.00 LIG 0.10  C 
BRANCH 51 52
ATOM     52  CG  HIS D 691      13.917 -16.600  34.572  1.00 57.86 LIG 0.06  A 
ATOM     53 ND1  HIS D 691      13.637 -16.219  33.338  1.00 60.60 LIG-0.24  NA
ATOM     54  CE1 HIS D 691      14.724 -15.690  32.784  1.00 72.50 LIG 0.23  A 
ATOM     55 NE2  HIS D 691      15.715 -15.754  33.669  1.00 67.35 LIG-0.25  NA
ATOM     56  CD2 HIS D 691      15.253 -16.313  34.779  1.00 66.29 LIG 0.14  A 
ENDBRANCH 51 52
ENDBRANCH 50 51
BRANCH 50 57
ATOM     57  N   HIS D 691      11.900 -15.074  35.220  1.00 39.94 LIG-0.35  N 
ATOM     58 H    HIS D 691      12.637 -14.959  34.792  1.00 39.94 LIG 0.16  HD
ATOM     59  C   LEU D 690      11.059 -14.091  35.497  1.00 35.88 LIG 0.24  C 
ATOM     60 O    LEU D 690       9.978 -14.265  36.099  1.00 34.66 LIG-0.27  OA
BRANCH 59 61
ATOM     61  CA  LEU D 690      11.493 -12.699  35.098  1.00 33.43 LIG 0.18  C 
BRANCH 61 62
ATOM     62  CB  LEU D 690      10.891 -12.340  33.739  1.00 31.34 LIG 0.04  C 
BRANCH 62 63
ATOM     63  CG  LEU D 690      10.433 -10.897  33.558  1.00 30.93 LIG-0.02  C 
ATOM     64  CD1 LEU D 690      10.239 -10.240  34.916  1.00 30.90 LIG 0.01  C 
ATOM     65  CD2 LEU D 690      11.470 -10.127  32.763  1.00 28.62 LIG 0.01  C 
ENDBRANCH 62 63
ENDBRANCH 61 62
BRANCH 61 66
ATOM     66  N   LEU D 690      12.952 -12.592  35.042  1.00 35.22 LIG-0.35  N 
ATOM     67 H    LEU D 690      13.273 -12.529  34.246  1.00 35.22 LIG 0.16  HD
ATOM     68  C   ILE D 689      13.697 -12.593  36.141  1.00 41.04 LIG 0.26  C 
ATOM     69 O    ILE D 689      13.208 -12.628  37.280  1.00 39.56 LIG-0.27  OA
BRANCH 68 70
ATOM     70  CA  ILE D 689      15.221 -12.494  35.919  1.00 40.35 LIG 0.40  C 
ATOM     71  N   ILE D 689      15.950 -13.764  36.309  1.00 40.45 LIG 0.61  N 
BRANCH 70 72
ATOM     72  CB  ILE D 689      15.452 -12.117  34.435  1.00 42.26 LIG 0.03  C 
ATOM     73  CG2 ILE D 689      15.355 -10.593  34.236  1.00 38.55 LIG 0.01  C 
BRANCH 72 74
ATOM     74  CG1 ILE D 689      16.783 -12.669  33.915  1.00 45.91 LIG 0.00  C 
ATOM     75  CD1 ILE D 689      17.684 -11.627  33.253  1.00 45.96 LIG 0.01  C 
ENDBRANCH 72 74
ENDBRANCH 70 72
ENDBRANCH 68 70
ENDBRANCH 61 66
ENDBRANCH 59 61
ENDBRANCH 50 57
ENDBRANCH 47 50
ENDBRANCH 1 46
TORSDOF 30
ENDMDL
MODEL 20
USER: ADFR SOLUTION from run 13
USER: SCORE 21.360582 LL:  -8.656 LR: -13.164 RR:   0.000 FEB:  -4.215
USER: RMSD 2.990722
USER: SEED 4978
USER: STATUS no improvement in best in 17 clusters for 5 generations
USER: GENES 32
USER: genes 0 Translation |==|  0.56035 0.47601 0.52005
USER: genes 1 Rotation |==|  0.53249 0.54399 0.51766 0.99669
USER: genes 2 Torsion [N]-CA--C-[N] |==|  0.90367
USER: genes 3 Torsion [C]-N--CA-[C] |==|  0.76255
USER: genes 4 Torsion [N]-CA--C-[N] |==|  0.96568
USER: genes 5 Torsion [C]-N--CA-[C] |==|  0.79323
USER: genes 6 Torsion [N]-CA--C-[N] |==|  0.96123
USER: genes 7 Torsion [C]-N--CA-[CB] |==|  0.32252
USER: genes 8 Torsion [N]-CA--CB-[CG] |==|  0.86965
USER: genes 9 Torsion [CA]-CB--CG-[CD] |==|  0.81990
USER: genes 10 Torsion [CB]-CG--CD-[NE2] |==|  0.80328
USER: genes 11 Torsion [N]-CA--C-[O] |==|  0.81527
USER: genes 12 Torsion [N]-CA--CB-[CG] |==|  0.72297
USER: genes 13 Torsion [CA]-CB--CG-[CD2] |==|  0.79949
USER: genes 14 Torsion [N]-CA--CB-[CG] |==|  0.76303
USER: genes 15 Torsion [CA]-CB--CG-[CD1] |==|  0.13070
USER: genes 16 Torsion [C]-CA--CB-[CG] |==|  0.63314
USER: genes 17 Torsion [CA]-CB--CG-[CD] |==|  0.65812
USER: genes 18 Torsion [CB]-CG--CD-[NE] |==|  0.64799
USER: genes 19 Torsion [CG]-CD--NE-[CZ] |==|  0.76401
USER: genes 20 Torsion [C]-CA--N-[C] |==|  0.81357
USER: genes 21 Torsion [N]-C--CA-[N] |==|  0.85002
USER: genes 22 Torsion [C]-CA--CB-[CG] |==|  0.65315
USER: genes 23 Torsion [CA]-CB--CG-[ND1] |==|  0.24398
USER: genes 24 Torsion [C]-CA--N-[C] |==|  0.85803
USER: genes 25 Torsion [N]-C--CA-[N] |==|  0.89048
USER: genes 26 Torsion [C]-CA--CB-[CG] |==|  0.86431
USER: genes 27 Torsion [CA]-CB--CG-[CD2] |==|  0.77353
USER: genes 28 Torsion [C]-CA--N-[C] |==|  0.81278
USER: genes 29 Torsion [N]-C--CA-[N] |==|  0.05397
USER: genes 30 Torsion [C]-CA--CB-[CG1] |==|  0.55327
USER: genes 31 Torsion [CA]-CB--CG1-[CD1] |==|  0.62154
ROOT
ATOM      1  CA  ARG D 692      10.961 -15.452  39.310  1.00 48.73 LIG 0.18  C 
ENDROOT
BRANCH 1 2
ATOM      2  C   ARG D 692       9.796 -14.679  39.907  1.00 46.10 LIG 0.24  C 
ATOM      3  N   LEU D 693       9.691 -13.387  39.607  1.00 50.64 LIG-0.35  N 
ATOM      4 H    LEU D 693      10.220 -12.954  39.086  1.00 50.64 LIG 0.16  HD
ATOM      5 O    ARG D 692       9.040 -15.220  40.711  1.00 52.04 LIG-0.27  OA
BRANCH 3 6
ATOM      6  CA  LEU D 693       8.598 -12.604  40.193  1.00 43.34 LIG 0.18  C 
BRANCH 6 7
ATOM      7  C   LEU D 693       7.316 -12.709  39.379  1.00 37.95 LIG 0.24  C 
ATOM      8  N   LEU D 694       7.427 -13.247  38.181  1.00 39.22 LIG-0.35  N 
ATOM      9 H    LEU D 694       8.177 -13.487  37.836  1.00 39.22 LIG 0.16  HD
ATOM     10 O    LEU D 693       6.250 -12.279  39.833  1.00 43.86 LIG-0.27  OA
BRANCH 8 11
ATOM     11  CA  LEU D 694       6.289 -13.483  37.332  1.00 38.59 LIG 0.18  C 
BRANCH 11 12
ATOM     12  C   LEU D 694       5.532 -14.658  37.859  1.00 46.22 LIG 0.24  C 
ATOM     13  N   GLN D 695       6.179 -15.383  38.753  1.00 66.87 LIG-0.35  N 
ATOM     14 H    GLN D 695       7.004 -15.226  38.939  1.00 66.87 LIG 0.16  HD
ATOM     15 O    LEU D 694       4.441 -14.913  37.419  1.00 54.70 LIG-0.27  OA
BRANCH 13 16
ATOM     16  CA  GLN D 695       5.648 -16.506  39.536  1.00 62.86 LIG 0.16  C 
BRANCH 16 17
ATOM     17  CB  GLN D 695       6.361 -17.784  39.190  1.00 63.26 LIG 0.04  C 
BRANCH 17 18
ATOM     18  CG  GLN D 695       6.476 -17.964  37.700  1.00 77.24 LIG 0.10  C 
BRANCH 18 19
ATOM     19  CD  GLN D 695       5.166 -18.129  37.045  1.00 84.08 LIG 0.21  C 
ATOM     20 OE1  GLN D 695       4.723 -17.252  36.329  1.00 83.40 LIG-0.27  OA
ATOM     21  NE2 GLN D 695       4.532 -19.265  37.262  1.00 79.17 LIG-0.37  N 
ATOM     22 22HE GLN D 695       3.770 -19.410  36.890  1.00 79.17 LIG 0.16  HD
ATOM     23 21HE GLN D 695       4.879 -19.860  37.776  1.00 79.17 LIG 0.16  HD
ENDBRANCH 18 19
ENDBRANCH 17 18
ENDBRANCH 16 17
BRANCH 16 24
ATOM     24  C   GLN D 695       5.565 -16.308  41.049  1.00 61.14 LIG 0.22  C 
ATOM     25 O    GLN D 695       6.588 -16.195  41.730  1.00 66.66 LIG-0.29  OA
ENDBRANCH 16 24
ENDBRANCH 13 16
ENDBRANCH 11 12
BRANCH 11 26
ATOM     26  CB  LEU D 694       6.713 -13.806  35.916  1.00 34.51 LIG 0.04  C 
BRANCH 26 27
ATOM     27  CG  LEU D 694       6.677 -12.740  34.849  1.00 27.71 LIG-0.02  C 
ATOM     28  CD2 LEU D 694       5.286 -12.378  34.422  1.00 26.48 LIG 0.01  C 
ATOM     29  CD1 LEU D 694       7.564 -13.041  33.676  1.00 27.00 LIG 0.01  C 
ENDBRANCH 26 27
ENDBRANCH 11 26
ENDBRANCH 8 11
ENDBRANCH 6 7
BRANCH 6 30
ATOM     30  CB  LEU D 693       8.988 -11.131  40.407  1.00 45.67 LIG 0.04  C 
BRANCH 30 31
ATOM     31  CG  LEU D 693       9.720 -10.814  41.721  1.00 55.29 LIG-0.02  C 
ATOM     32  CD1 LEU D 693      10.844 -11.810  41.971  1.00 47.80 LIG 0.01  C 
ATOM     33  CD2 LEU D 693      10.229  -9.366  41.768  1.00 51.02 LIG 0.01  C 
ENDBRANCH 30 31
ENDBRANCH 6 30
ENDBRANCH 3 6
ENDBRANCH 1 2
BRANCH 1 34
ATOM     34  CB  ARG D 692      12.133 -15.424  40.313  1.00 49.09 LIG 0.04  C 
BRANCH 34 35
ATOM     35  CG  ARG D 692      13.456 -15.041  39.620  1.00 50.62 LIG 0.02  C 
BRANCH 35 36
ATOM     36  CD  ARG D 692      14.574 -16.061  39.779  1.00 57.04 LIG 0.14  C 
BRANCH 36 37
ATOM     37  NE  ARG D 692      15.758 -15.406  40.300  1.00 60.90 LIG-0.23  N 
ATOM     38 HE   ARG D 692      15.884 -15.428  41.150  1.00 60.90 LIG 0.18  HD
ATOM     39  CZ  ARG D 692      16.660 -14.775  39.562  1.00 61.50 LIG 0.67  C 
ATOM     40  NH1 ARG D 692      16.474 -14.627  38.252  1.00 46.48 LIG-0.23  N 
ATOM     41  NH2 ARG D 692      17.727 -14.251  40.151  1.00 64.68 LIG-0.23  N 
ATOM     42 1HH1 ARG D 692      15.766 -14.942  37.879  1.00 46.48 LIG 0.17  HD
ATOM     43 2HH1 ARG D 692      17.063 -14.216  37.778  1.00 46.48 LIG 0.17  HD
ATOM     44 1HH2 ARG D 692      17.827 -14.323  41.002  1.00 64.68 LIG 0.17  HD
ATOM     45 2HH2 ARG D 692      18.318 -13.839  39.682  1.00 64.68 LIG 0.17  HD
ENDBRANCH 36 37
ENDBRANCH 35 36
ENDBRANCH 34 35
ENDBRANCH 1 34
BRANCH 1 46
ATOM     46  N   ARG D 692      11.372 -15.043  37.946  1.00 43.06 LIG-0.35  N 
ATOM     47  C   HIS D 691      10.591 -15.229  36.896  1.00 44.11 LIG 0.24  C 
ATOM     48 O    HIS D 691       9.500 -15.779  36.958  1.00 43.39 LIG-0.27  OA
ATOM     49 H    ARG D 692      12.151 -14.679  37.905  1.00 43.06 LIG 0.16  HD
BRANCH 47 50
ATOM     50  CA  HIS D 691      11.122 -14.719  35.612  1.00 41.80 LIG 0.18  C 
BRANCH 50 51
ATOM     51  CB  HIS D 691      12.345 -15.522  35.328  1.00 51.00 LIG 0.10  C 
BRANCH 51 52
ATOM     52  CG  HIS D 691      13.561 -14.721  35.109  1.00 57.86 LIG 0.06  A 
ATOM     53 ND1  HIS D 691      14.348 -14.343  36.100  1.00 60.60 LIG-0.24  NA
ATOM     54  CE1 HIS D 691      15.360 -13.632  35.609  1.00 72.50 LIG 0.23  A 
ATOM     55 NE2  HIS D 691      15.203 -13.540  34.292  1.00 67.35 LIG-0.25  NA
ATOM     56  CD2 HIS D 691      14.102 -14.195  33.951  1.00 66.29 LIG 0.14  A 
ENDBRANCH 51 52
ENDBRANCH 50 51
BRANCH 50 57
ATOM     57  N   HIS D 691      11.483 -13.322  35.716  1.00 39.94 LIG-0.35  N 
ATOM     58 H    HIS D 691      12.279 -13.147  35.439  1.00 39.94 LIG 0.16  HD
ATOM     59  C   LEU D 690      10.662 -12.402  36.195  1.00 35.88 LIG 0.24  C 
ATOM     60 O    LEU D 690       9.499 -12.655  36.576  1.00 34.66 LIG-0.27  OA
BRANCH 59 61
ATOM     61  CA  LEU D 690      11.216 -11.002  36.323  1.00 33.43 LIG 0.18  C 
BRANCH 61 62
ATOM     62  CB  LEU D 690      11.131 -10.287  34.974  1.00 31.34 LIG 0.04  C 
BRANCH 62 63
ATOM     63  CG  LEU D 690      11.660 -11.050  33.765  1.00 30.93 LIG-0.02  C 
ATOM     64  CD1 LEU D 690      11.040 -10.499  32.490  1.00 30.90 LIG 0.01  C 
ATOM     65  CD2 LEU D 690      13.170 -10.916  33.696  1.00 28.62 LIG 0.01  C 
ENDBRANCH 62 63
ENDBRANCH 61 62
BRANCH 61 66
ATOM     66  N   LEU D 690      12.604 -11.020  36.791  1.00 35.22 LIG-0.35  N 
ATOM     67 H    LEU D 690      13.178 -10.752  36.210  1.00 35.22 LIG 0.16  HD
ATOM     68  C   ILE D 689      12.923 -11.421  38.016  1.00 41.04 LIG 0.26  C 
ATOM     69 O    ILE D 689      12.072 -11.750  38.855  1.00 39.56 LIG-0.27  OA
BRANCH 68 70
ATOM     70  CA  ILE D 689      14.428 -11.403  38.357  1.00 40.35 LIG 0.40  C 
ATOM     71  N   ILE D 689      15.224 -10.508  37.427  1.00 40.45 LIG 0.61  N 
BRANCH 70 72
ATOM     72  CB  ILE D 689      14.565 -10.977  39.839  1.00 42.26 LIG 0.03  C 
ATOM     73  CG2 ILE D 689      14.153 -12.126  40.778  1.00 38.55 LIG 0.01  C 
BRANCH 72 74
ATOM     74  CG1 ILE D 689      15.977 -10.474  40.152  1.00 45.91 LIG 0.00  C 
ATOM     75  CD1 ILE D 689      16.557 -10.995  41.467  1.00 45.96 LIG 0.01  C 
ENDBRANCH 72 74
ENDBRANCH 70 72
ENDBRANCH 68 70
ENDBRANCH 61 66
ENDBRANCH 59 61
ENDBRANCH 50 57
ENDBRANCH 47 50
ENDBRANCH 1 46
TORSDOF 30
ENDMDL
MODEL 21
USER: ADFR SOLUTION from run 22
USER: SCORE 20.850525 LL:  -8.133 LR: -13.164 RR:   0.000 FEB:  -4.215
USER: RMSD 3.207034
USER: SEED 21
USER: STATUS no improvement in best in 18 clusters for 5 generations
USER: GENES 32
USER: genes 0 Translation |==|  0.53134 0.46405 0.53288
USER: genes 1 Rotation |==|  0.43159 0.55494 0.56222 0.98829
USER: genes 2 Torsion [N]-CA--C-[N] |==|  0.85569
USER: genes 3 Torsion [C]-N--CA-[C] |==|  0.75141
USER: genes 4 Torsion [N]-CA--C-[N] |==|  0.95476
USER: genes 5 Torsion [C]-N--CA-[C] |==|  0.73806
USER: genes 6 Torsion [N]-CA--C-[N] |==|  0.00269
USER: genes 7 Torsion [C]-N--CA-[CB] |==|  0.57123
USER: genes 8 Torsion [N]-CA--CB-[CG] |==|  0.23722
USER: genes 9 Torsion [CA]-CB--CG-[CD] |==|  0.81536
USER: genes 10 Torsion [CB]-CG--CD-[NE2] |==|  0.26783
USER: genes 11 Torsion [N]-CA--C-[O] |==|  0.90923
USER: genes 12 Torsion [N]-CA--CB-[CG] |==|  0.78651
USER: genes 13 Torsion [CA]-CB--CG-[CD2] |==|  0.83061
USER: genes 14 Torsion [N]-CA--CB-[CG] |==|  0.66138
USER: genes 15 Torsion [CA]-CB--CG-[CD1] |==|  0.36541
USER: genes 16 Torsion [C]-CA--CB-[CG] |==|  0.43805
USER: genes 17 Torsion [CA]-CB--CG-[CD] |==|  0.40757
USER: genes 18 Torsion [CB]-CG--CD-[NE] |==|  0.73420
USER: genes 19 Torsion [CG]-CD--NE-[CZ] |==|  0.43858
USER: genes 20 Torsion [C]-CA--N-[C] |==|  0.82271
USER: genes 21 Torsion [N]-C--CA-[N] |==|  0.90276
USER: genes 22 Torsion [C]-CA--CB-[CG] |==|  0.03205
USER: genes 23 Torsion [CA]-CB--CG-[ND1] |==|  0.72904
USER: genes 24 Torsion [C]-CA--N-[C] |==|  0.85383
USER: genes 25 Torsion [N]-C--CA-[N] |==|  0.01446
USER: genes 26 Torsion [C]-CA--CB-[CG] |==|  0.50834
USER: genes 27 Torsion [CA]-CB--CG-[CD2] |==|  0.63954
USER: genes 28 Torsion [C]-CA--N-[C] |==|  0.76917
USER: genes 29 Torsion [N]-C--CA-[N] |==|  0.96602
USER: genes 30 Torsion [C]-CA--CB-[CG1] |==|  0.83817
USER: genes 31 Torsion [CA]-CB--CG1-[CD1] |==|  0.27794
ROOT
ATOM      1  CA  ARG D 692      10.308 -15.676  39.560  1.00 48.73 LIG 0.18  C 
ENDROOT
BRANCH 1 2
ATOM      2  C   ARG D 692       8.992 -14.994  39.897  1.00 46.10 LIG 0.24  C 
ATOM      3  N   LEU D 693       8.778 -13.779  39.399  1.00 50.64 LIG-0.35  N 
ATOM      4 H    LEU D 693       9.318 -13.352  38.885  1.00 50.64 LIG 0.16  HD
ATOM      5 O    ARG D 692       8.202 -15.522  40.678  1.00 52.04 LIG-0.27  OA
BRANCH 3 6
ATOM      6  CA  LEU D 693       7.533 -13.079  39.731  1.00 43.34 LIG 0.18  C 
BRANCH 6 7
ATOM      7  C   LEU D 693       6.419 -13.387  38.739  1.00 37.95 LIG 0.24  C 
ATOM      8  N   LEU D 694       6.789 -13.925  37.595  1.00 39.22 LIG-0.35  N 
ATOM      9 H    LEU D 694       7.609 -14.060  37.376  1.00 39.22 LIG 0.16  HD
ATOM     10 O    LEU D 693       5.246 -13.109  39.010  1.00 43.86 LIG-0.27  OA
BRANCH 8 11
ATOM     11  CA  LEU D 694       5.840 -14.341  36.596  1.00 38.59 LIG 0.18  C 
BRANCH 11 12
ATOM     12  C   LEU D 694       5.549 -15.795  36.785  1.00 46.22 LIG 0.24  C 
ATOM     13  N   GLN D 695       6.179 -16.362  37.798  1.00 66.87 LIG-0.35  N 
ATOM     14 H    GLN D 695       6.775 -15.934  38.246  1.00 66.87 LIG 0.16  HD
ATOM     15 O    LEU D 694       4.833 -16.367  36.006  1.00 54.70 LIG-0.27  OA
BRANCH 13 16
ATOM     16  CA  GLN D 695       5.991 -17.727  38.305  1.00 62.86 LIG 0.16  C 
BRANCH 16 17
ATOM     17  CB  GLN D 695       6.373 -17.816  39.757  1.00 63.26 LIG 0.04  C 
BRANCH 17 18
ATOM     18  CG  GLN D 695       5.228 -17.424  40.652  1.00 77.24 LIG 0.10  C 
BRANCH 18 19
ATOM     19  CD  GLN D 695       4.869 -16.000  40.526  1.00 84.08 LIG 0.21  C 
ATOM     20 OE1  GLN D 695       5.490 -15.153  41.138  1.00 83.40 LIG-0.27  OA
ATOM     21  NE2 GLN D 695       3.872 -15.709  39.712  1.00 79.17 LIG-0.37  N 
ATOM     22 22HE GLN D 695       3.637 -14.890  39.597  1.00 79.17 LIG 0.16  HD
ATOM     23 21HE GLN D 695       3.458 -16.338  39.297  1.00 79.17 LIG 0.16  HD
ENDBRANCH 18 19
ENDBRANCH 17 18
ENDBRANCH 16 17
BRANCH 16 24
ATOM     24  C   GLN D 695       4.631 -18.373  38.048  1.00 61.14 LIG 0.22  C 
ATOM     25 O    GLN D 695       3.602 -17.692  38.016  1.00 66.66 LIG-0.29  OA
ENDBRANCH 16 24
ENDBRANCH 13 16
ENDBRANCH 11 12
BRANCH 11 26
ATOM     26  CB  LEU D 694       6.394 -14.163  35.198  1.00 34.51 LIG 0.04  C 
BRANCH 26 27
ATOM     27  CG  LEU D 694       6.449 -12.791  34.573  1.00 27.71 LIG-0.02  C 
ATOM     28  CD2 LEU D 694       5.100 -12.156  34.422  1.00 26.48 LIG 0.01  C 
ATOM     29  CD1 LEU D 694       7.233 -12.752  33.293  1.00 27.00 LIG 0.01  C 
ENDBRANCH 26 27
ENDBRANCH 11 26
ENDBRANCH 8 11
ENDBRANCH 6 7
BRANCH 6 30
ATOM     30  CB  LEU D 693       7.738 -11.561  39.867  1.00 45.67 LIG 0.04  C 
BRANCH 30 31
ATOM     31  CG  LEU D 693       7.348 -10.948  41.221  1.00 55.29 LIG-0.02  C 
ATOM     32  CD1 LEU D 693       8.455 -10.044  41.747  1.00 47.80 LIG 0.01  C 
ATOM     33  CD2 LEU D 693       6.001 -10.214  41.162  1.00 51.02 LIG 0.01  C 
ENDBRANCH 30 31
ENDBRANCH 6 30
ENDBRANCH 3 6
ENDBRANCH 1 2
BRANCH 1 34
ATOM     34  CB  ARG D 692      11.425 -15.030  40.406  1.00 49.09 LIG 0.04  C 
BRANCH 34 35
ATOM     35  CG  ARG D 692      12.634 -15.974  40.555  1.00 50.62 LIG 0.02  C 
BRANCH 35 36
ATOM     36  CD  ARG D 692      13.983 -15.272  40.624  1.00 57.04 LIG 0.14  C 
BRANCH 36 37
ATOM     37  NE  ARG D 692      14.582 -15.243  39.304  1.00 60.90 LIG-0.23  N 
ATOM     38 HE   ARG D 692      14.315 -15.828  38.732  1.00 60.90 LIG 0.18  HD
ATOM     39  CZ  ARG D 692      15.512 -14.384  38.913  1.00 61.50 LIG 0.67  C 
ATOM     40  NH1 ARG D 692      16.032 -13.515  39.778  1.00 46.48 LIG-0.23  N 
ATOM     41  NH2 ARG D 692      15.952 -14.429  37.663  1.00 64.68 LIG-0.23  N 
ATOM     42 1HH1 ARG D 692      15.765 -13.511  40.596  1.00 46.48 LIG 0.17  HD
ATOM     43 2HH1 ARG D 692      16.636 -12.960  39.519  1.00 46.48 LIG 0.17  HD
ATOM     44 1HH2 ARG D 692      15.635 -15.012  37.116  1.00 64.68 LIG 0.17  HD
ATOM     45 2HH2 ARG D 692      16.556 -13.876  37.399  1.00 64.68 LIG 0.17  HD
ENDBRANCH 36 37
ENDBRANCH 35 36
ENDBRANCH 34 35
ENDBRANCH 1 34
BRANCH 1 46
ATOM     46  N   ARG D 692      10.650 -15.736  38.119  1.00 43.06 LIG-0.35  N 
ATOM     47  C   HIS D 691       9.914 -16.412  37.254  1.00 44.11 LIG 0.24  C 
ATOM     48 O    HIS D 691       8.928 -17.060  37.573  1.00 43.39 LIG-0.27  OA
ATOM     49 H    ARG D 692      11.360 -15.298  37.906  1.00 43.06 LIG 0.16  HD
BRANCH 47 50
ATOM     50  CA  HIS D 691      10.358 -16.331  35.844  1.00 41.80 LIG 0.18  C 
BRANCH 50 51
ATOM     51  CB  HIS D 691      11.427 -17.359  35.694  1.00 51.00 LIG 0.10  C 
BRANCH 51 52
ATOM     52  CG  HIS D 691      11.535 -18.291  36.829  1.00 57.86 LIG 0.06  A 
ATOM     53 ND1  HIS D 691      12.420 -18.130  37.797  1.00 60.60 LIG-0.24  NA
ATOM     54  CE1 HIS D 691      12.292 -19.118  38.677  1.00 72.50 LIG 0.23  A 
ATOM     55 NE2  HIS D 691      11.328 -19.931  38.253  1.00 67.35 LIG-0.25  NA
ATOM     56  CD2 HIS D 691      10.845 -19.454  37.115  1.00 66.29 LIG 0.14  A 
ENDBRANCH 51 52
ENDBRANCH 50 51
BRANCH 50 57
ATOM     57  N   HIS D 691      10.906 -15.026  35.544  1.00 39.94 LIG-0.35  N 
ATOM     58 H    HIS D 691      11.690 -15.051  35.191  1.00 39.94 LIG 0.16  HD
ATOM     59  C   LEU D 690      10.257 -13.901  35.794  1.00 35.88 LIG 0.24  C 
ATOM     60 O    LEU D 690       9.109 -13.868  36.287  1.00 34.66 LIG-0.27  OA
BRANCH 59 61
ATOM     61  CA  LEU D 690      10.998 -12.616  35.507  1.00 33.43 LIG 0.18  C 
BRANCH 61 62
ATOM     62  CB  LEU D 690      10.149 -11.720  34.603  1.00 31.34 LIG 0.04  C 
BRANCH 62 63
ATOM     63  CG  LEU D 690      10.783 -10.407  34.157  1.00 30.93 LIG-0.02  C 
ATOM     64  CD1 LEU D 690      11.110 -10.466  32.673  1.00 30.90 LIG 0.01  C 
ATOM     65  CD2 LEU D 690       9.826  -9.261  34.423  1.00 28.62 LIG 0.01  C 
ENDBRANCH 62 63
ENDBRANCH 61 62
BRANCH 61 66
ATOM     66  N   LEU D 690      12.293 -12.878  34.875  1.00 35.22 LIG-0.35  N 
ATOM     67 H    LEU D 690      12.289 -12.812  34.018  1.00 35.22 LIG 0.16  HD
ATOM     68  C   ILE D 689      13.369 -13.189  35.588  1.00 41.04 LIG 0.26  C 
ATOM     69 O    ILE D 689      13.363 -13.223  36.827  1.00 39.56 LIG-0.27  OA
BRANCH 68 70
ATOM     70  CA  ILE D 689      14.656 -13.456  34.779  1.00 40.35 LIG 0.40  C 
ATOM     71  N   ILE D 689      14.389 -13.603  33.294  1.00 40.45 LIG 0.61  N 
BRANCH 70 72
ATOM     72  CB  ILE D 689      15.647 -12.307  35.086  1.00 42.26 LIG 0.03  C 
ATOM     73  CG2 ILE D 689      16.993 -12.541  34.376  1.00 38.55 LIG 0.01  C 
BRANCH 72 74
ATOM     74  CG1 ILE D 689      15.052 -10.941  34.729  1.00 45.91 LIG 0.00  C 
ATOM     75  CD1 ILE D 689      14.496 -10.163  35.921  1.00 45.96 LIG 0.01  C 
ENDBRANCH 72 74
ENDBRANCH 70 72
ENDBRANCH 68 70
ENDBRANCH 61 66
ENDBRANCH 59 61
ENDBRANCH 50 57
ENDBRANCH 47 50
ENDBRANCH 1 46
TORSDOF 30
ENDMDL
MODEL 22
USER: ADFR SOLUTION from run 29
USER: SCORE 21.388150 LL:  -8.983 LR: -13.089 RR:   0.000 FEB:  -4.140
USER: RMSD 4.042029
USER: SEED 28
USER: STATUS no improvement in best in 14 clusters for 5 generations
USER: GENES 32
USER: genes 0 Translation |==|  0.59974 0.47470 0.47256
USER: genes 1 Rotation |==|  0.58868 0.47335 0.47317 0.99062
USER: genes 2 Torsion [N]-CA--C-[N] |==|  0.93791
USER: genes 3 Torsion [C]-N--CA-[C] |==|  0.74554
USER: genes 4 Torsion [N]-CA--C-[N] |==|  0.89177
USER: genes 5 Torsion [C]-N--CA-[C] |==|  0.82561
USER: genes 6 Torsion [N]-CA--C-[N] |==|  0.93209
USER: genes 7 Torsion [C]-N--CA-[CB] |==|  0.55520
USER: genes 8 Torsion [N]-CA--CB-[CG] |==|  0.73104
USER: genes 9 Torsion [CA]-CB--CG-[CD] |==|  0.53412
USER: genes 10 Torsion [CB]-CG--CD-[NE2] |==|  0.63044
USER: genes 11 Torsion [N]-CA--C-[O] |==|  0.43690
USER: genes 12 Torsion [N]-CA--CB-[CG] |==|  0.87034
USER: genes 13 Torsion [CA]-CB--CG-[CD2] |==|  0.85657
USER: genes 14 Torsion [N]-CA--CB-[CG] |==|  0.70921
USER: genes 15 Torsion [CA]-CB--CG-[CD1] |==|  0.11138
USER: genes 16 Torsion [C]-CA--CB-[CG] |==|  0.45989
USER: genes 17 Torsion [CA]-CB--CG-[CD] |==|  0.30626
USER: genes 18 Torsion [CB]-CG--CD-[NE] |==|  0.79151
USER: genes 19 Torsion [CG]-CD--NE-[CZ] |==|  0.38294
USER: genes 20 Torsion [C]-CA--N-[C] |==|  0.81029
USER: genes 21 Torsion [N]-C--CA-[N] |==|  0.87398
USER: genes 22 Torsion [C]-CA--CB-[CG] |==|  0.05415
USER: genes 23 Torsion [CA]-CB--CG-[ND1] |==|  0.69893
USER: genes 24 Torsion [C]-CA--N-[C] |==|  0.82214
USER: genes 25 Torsion [N]-C--CA-[N] |==|  0.85145
USER: genes 26 Torsion [C]-CA--CB-[CG] |==|  0.94766
USER: genes 27 Torsion [CA]-CB--CG-[CD2] |==|  0.74772
USER: genes 28 Torsion [C]-CA--N-[C] |==|  0.75245
USER: genes 29 Torsion [N]-C--CA-[N] |==|  0.17638
USER: genes 30 Torsion [C]-CA--CB-[CG1] |==|  0.69134
USER: genes 31 Torsion [CA]-CB--CG1-[CD1] |==|  0.19394
ROOT
ATOM      1  CA  ARG D 692      11.847 -15.476  38.384  1.00 48.73 LIG 0.18  C 
ENDROOT
BRANCH 1 2
ATOM      2  C   ARG D 692      10.723 -14.574  38.866  1.00 46.10 LIG 0.24  C 
ATOM      3  N   LEU D 693      10.837 -13.267  38.642  1.00 50.64 LIG-0.35  N 
ATOM      4 H    LEU D 693      11.490 -12.890  38.228  1.00 50.64 LIG 0.16  HD
ATOM      5 O    ARG D 692       9.792 -15.039  39.520  1.00 52.04 LIG-0.27  OA
BRANCH 3 6
ATOM      6  CA  LEU D 693       9.787 -12.365  39.123  1.00 43.34 LIG 0.18  C 
BRANCH 6 7
ATOM      7  C   LEU D 693       8.707 -12.130  38.075  1.00 37.95 LIG 0.24  C 
ATOM      8  N   LEU D 694       9.119 -12.011  36.829  1.00 39.22 LIG-0.35  N 
ATOM      9 H    LEU D 694       9.947 -12.013  36.600  1.00 39.22 LIG 0.16  HD
ATOM     10 O    LEU D 693       7.521 -12.033  38.410  1.00 43.86 LIG-0.27  OA
BRANCH 8 11
ATOM     11  CA  LEU D 694       8.206 -11.865  35.726  1.00 38.59 LIG 0.18  C 
BRANCH 11 12
ATOM     12  C   LEU D 694       7.362 -13.095  35.635  1.00 46.22 LIG 0.24  C 
ATOM     13  N   GLN D 695       7.902 -14.181  36.157  1.00 66.87 LIG-0.35  N 
ATOM     14 H    GLN D 695       8.713 -14.181  36.443  1.00 66.87 LIG 0.16  HD
ATOM     15 O    LEU D 694       6.305 -13.053  35.062  1.00 54.70 LIG-0.27  OA
BRANCH 13 16
ATOM     16  CA  GLN D 695       7.262 -15.492  36.333  1.00 62.86 LIG 0.16  C 
BRANCH 16 17
ATOM     17  CB  GLN D 695       7.989 -16.308  37.367  1.00 63.26 LIG 0.04  C 
BRANCH 17 18
ATOM     18  CG  GLN D 695       8.963 -17.262  36.729  1.00 77.24 LIG 0.10  C 
BRANCH 18 19
ATOM     19  CD  GLN D 695       9.476 -18.268  37.677  1.00 84.08 LIG 0.21  C 
ATOM     20 OE1  GLN D 695       8.711 -18.880  38.397  1.00 83.40 LIG-0.27  OA
ATOM     21  NE2 GLN D 695      10.779 -18.471  37.679  1.00 79.17 LIG-0.37  N 
ATOM     22 22HE GLN D 695      11.122 -19.058  38.207  1.00 79.17 LIG 0.16  HD
ATOM     23 21HE GLN D 695      11.286 -18.017  37.154  1.00 79.17 LIG 0.16  HD
ENDBRANCH 18 19
ENDBRANCH 17 18
ENDBRANCH 16 17
BRANCH 16 24
ATOM     24  C   GLN D 695       5.755 -15.491  36.584  1.00 61.14 LIG 0.22  C 
ATOM     25 O    GLN D 695       5.071 -16.487  36.336  1.00 66.66 LIG-0.29  OA
ENDBRANCH 16 24
ENDBRANCH 13 16
ENDBRANCH 11 12
BRANCH 11 26
ATOM     26  CB  LEU D 694       8.945 -11.717  34.413  1.00 34.51 LIG 0.04  C 
BRANCH 26 27
ATOM     27  CG  LEU D 694      10.109 -10.764  34.300  1.00 27.71 LIG-0.02  C 
ATOM     28  CD2 LEU D 694       9.790  -9.382  34.786  1.00 26.48 LIG 0.01  C 
ATOM     29  CD1 LEU D 694      10.734 -10.749  32.935  1.00 27.00 LIG 0.01  C 
ENDBRANCH 26 27
ENDBRANCH 11 26
ENDBRANCH 8 11
ENDBRANCH 6 7
BRANCH 6 30
ATOM     30  CB  LEU D 693      10.356 -11.028  39.629  1.00 45.67 LIG 0.04  C 
BRANCH 30 31
ATOM     31  CG  LEU D 693      10.400 -10.850  41.155  1.00 55.29 LIG-0.02  C 
ATOM     32  CD1 LEU D 693      10.825 -12.142  41.840  1.00 47.80 LIG 0.01  C 
ATOM     33  CD2 LEU D 693      11.287  -9.670  41.577  1.00 51.02 LIG 0.01  C 
ENDBRANCH 30 31
ENDBRANCH 6 30
ENDBRANCH 3 6
ENDBRANCH 1 2
BRANCH 1 34
ATOM     34  CB  ARG D 692      12.681 -15.917  39.606  1.00 49.09 LIG 0.04  C 
BRANCH 34 35
ATOM     35  CG  ARG D 692      13.605 -17.101  39.258  1.00 50.62 LIG 0.02  C 
BRANCH 35 36
ATOM     36  CD  ARG D 692      15.087 -16.759  39.225  1.00 57.04 LIG 0.14  C 
BRANCH 36 37
ATOM     37  NE  ARG D 692      15.387 -16.016  38.016  1.00 60.90 LIG-0.23  N 
ATOM     38 HE   ARG D 692      15.022 -16.282  37.284  1.00 60.90 LIG 0.18  HD
ATOM     39  CZ  ARG D 692      16.181 -14.958  37.956  1.00 61.50 LIG 0.67  C 
ATOM     40  NH1 ARG D 692      16.847 -14.553  39.036  1.00 46.48 LIG-0.23  N 
ATOM     41  NH2 ARG D 692      16.343 -14.334  36.796  1.00 64.68 LIG-0.23  N 
ATOM     42 1HH1 ARG D 692      16.762 -14.979  39.778  1.00 46.48 LIG 0.17  HD
ATOM     43 2HH1 ARG D 692      17.362 -13.866  38.990  1.00 46.48 LIG 0.17  HD
ATOM     44 1HH2 ARG D 692      15.934 -14.617  36.095  1.00 64.68 LIG 0.17  HD
ATOM     45 2HH2 ARG D 692      16.857 -13.646  36.746  1.00 64.68 LIG 0.17  HD
ENDBRANCH 36 37
ENDBRANCH 35 36
ENDBRANCH 34 35
ENDBRANCH 1 34
BRANCH 1 46
ATOM     46  N   ARG D 692      12.687 -14.929  37.292  1.00 43.06 LIG-0.35  N 
ATOM     47  C   HIS D 691      12.214 -14.746  36.071  1.00 44.11 LIG 0.24  C 
ATOM     48 O    HIS D 691      11.075 -15.043  35.740  1.00 43.39 LIG-0.27  OA
ATOM     49 H    ARG D 692      13.495 -14.746  37.525  1.00 43.06 LIG 0.16  HD
BRANCH 47 50
ATOM     50  CA  HIS D 691      13.162 -14.143  35.108  1.00 41.80 LIG 0.18  C 
BRANCH 50 51
ATOM     51  CB  HIS D 691      14.149 -15.212  34.784  1.00 51.00 LIG 0.10  C 
BRANCH 51 52
ATOM     52  CG  HIS D 691      13.688 -16.576  35.090  1.00 57.86 LIG 0.06  A 
ATOM     53 ND1  HIS D 691      14.180 -17.281  36.094  1.00 60.60 LIG-0.24  NA
ATOM     54  CE1 HIS D 691      13.584 -18.470  36.128  1.00 72.50 LIG 0.23  A 
ATOM     55 NE2  HIS D 691      12.718 -18.531  35.120  1.00 67.35 LIG-0.25  NA
ATOM     56  CD2 HIS D 691      12.761 -17.382  34.458  1.00 66.29 LIG 0.14  A 
ENDBRANCH 51 52
ENDBRANCH 50 51
BRANCH 50 57
ATOM     57  N   HIS D 691      13.854 -13.017  35.694  1.00 39.94 LIG-0.35  N 
ATOM     58 H    HIS D 691      14.703 -13.132  35.771  1.00 39.94 LIG 0.16  HD
ATOM     59  C   LEU D 690      13.234 -11.912  36.075  1.00 35.88 LIG 0.24  C 
ATOM     60 O    LEU D 690      12.003 -11.738  35.942  1.00 34.66 LIG-0.27  OA
BRANCH 59 61
ATOM     61  CA  LEU D 690      14.082 -10.860  36.752  1.00 33.43 LIG 0.18  C 
BRANCH 61 62
ATOM     62  CB  LEU D 690      15.057 -10.254  35.742  1.00 31.34 LIG 0.04  C 
BRANCH 62 63
ATOM     63  CG  LEU D 690      15.314 -11.063  34.475  1.00 30.93 LIG-0.02  C 
ATOM     64  CD1 LEU D 690      15.602 -10.127  33.311  1.00 30.90 LIG 0.01  C 
ATOM     65  CD2 LEU D 690      16.498 -11.987  34.690  1.00 28.62 LIG 0.01  C 
ENDBRANCH 62 63
ENDBRANCH 61 62
BRANCH 61 66
ATOM     66  N   LEU D 690      14.822 -11.421  37.885  1.00 35.22 LIG-0.35  N 
ATOM     67 H    LEU D 690      15.603 -11.720  37.685  1.00 35.22 LIG 0.16  HD
ATOM     68  C   ILE D 689      14.309 -11.452  39.108  1.00 41.04 LIG 0.26  C 
ATOM     69 O    ILE D 689      13.202 -10.964  39.383  1.00 39.56 LIG-0.27  OA
BRANCH 68 70
ATOM     70  CA  ILE D 689      15.200 -12.092  40.194  1.00 40.35 LIG 0.40  C 
ATOM     71  N   ILE D 689      16.487 -11.322  40.417  1.00 40.45 LIG 0.61  N 
BRANCH 70 72
ATOM     72  CB  ILE D 689      14.353 -12.206  41.485  1.00 42.26 LIG 0.03  C 
ATOM     73  CG2 ILE D 689      14.312 -13.662  41.985  1.00 38.55 LIG 0.01  C 
BRANCH 72 74
ATOM     74  CG1 ILE D 689      14.854 -11.251  42.573  1.00 45.91 LIG 0.00  C 
ATOM     75  CD1 ILE D 689      14.602  -9.772  42.281  1.00 45.96 LIG 0.01  C 
ENDBRANCH 72 74
ENDBRANCH 70 72
ENDBRANCH 68 70
ENDBRANCH 61 66
ENDBRANCH 59 61
ENDBRANCH 50 57
ENDBRANCH 47 50
ENDBRANCH 1 46
TORSDOF 30
ENDMDL
