MODEL 1
USER: ADFR SOLUTION from run 82
USER: SCORE 18.812885 LL:  -2.311 LR: -18.652 RR:   0.000 FEB: -14.476
USER: RMSD 0.898064
USER: SEED 81
USER: STATUS 1 or 2 clusters left
USER: GENES 16
USER: genes 0 Translation |==|  0.48594 0.56086 0.57559
USER: genes 1 Rotation |==|  0.48856 0.51684 0.53170 0.99858
USER: genes 2 Torsion [C]-CA--N-[C] |==|  0.63516
USER: genes 3 Torsion [N]-C--CA-[N] |==|  0.42797
USER: genes 4 Torsion [C]-CA--CB-[CG2] |==|  0.17376
USER: genes 5 Torsion [CA]-CB--OG1-[HG1] |==|  0.42449
USER: genes 6 Torsion [C]-CA--N-[C] |==|  0.57562
USER: genes 7 Torsion [N]-CA--C-[N] |==|  0.38889
USER: genes 8 Torsion [C]-N--CA-[CB] |==|  0.28655
USER: genes 9 Torsion [N]-CA--C-[N] |==|  0.36099
USER: genes 10 Torsion [C]-N--CA-[C] |==|  0.63265
USER: genes 11 Torsion [N]-CA--C-[N] |==|  0.43396
USER: genes 12 Torsion [N]-CA--CB-[CG2] |==|  0.32131
USER: genes 13 Torsion [CA]-CB--CG1-[CD1] |==|  0.88453
USER: genes 14 Torsion [N]-CA--CB-[OG1] |==|  0.65409
USER: genes 15 Torsion [CA]-CB--OG1-[HG1] |==|  0.90419
ROOT
ATOM      1  CA  THR B   3      26.214 -11.450 -10.113  1.00 36.32 LIG 0.20  C 
ENDROOT
BRANCH 1 2
ATOM      2  N   THR B   3      24.944 -11.345  -9.425  1.00 33.83 LIG-0.34  N 
ATOM      3 H    THR B   3      24.613 -12.098  -9.172  1.00 33.83 LIG 0.16  HD
ATOM      4  C   THR B   2      24.358 -10.164  -9.214  1.00 34.16 LIG 0.24  C 
ATOM      5 O    THR B   2      24.934  -9.079  -9.332  1.00 38.62 LIG-0.27  OA
BRANCH 4 6
ATOM      6  CA  THR B   2      22.875 -10.232  -8.829  1.00 35.31 LIG 0.20  C 
BRANCH 6 7
ATOM      7  CB  THR B   2      22.031 -10.414 -10.127  1.00 32.90 LIG 0.15  C 
ATOM      8  CG2 THR B   2      22.379 -11.691 -10.780  1.00 39.05 LIG 0.04  C 
BRANCH 7 9
ATOM      9 OG1  THR B   2      20.636 -10.431  -9.778  1.00 34.26 LIG-0.39  OA
ATOM     10 HG1  THR B   2      20.181 -10.160 -10.430  1.00 34.26 LIG 0.21  HD
ENDBRANCH 7 9
ENDBRANCH 6 7
BRANCH 6 11
ATOM     11  N   THR B   2      22.405  -9.075  -8.040  1.00 34.82 LIG-0.35  N 
ATOM     12 H    THR B   2      22.835  -8.343  -8.168  1.00 34.82 LIG 0.16  HD
ATOM     13  C   ACE B   1      21.344  -9.225  -7.174  1.00 34.45 LIG 0.21  C 
ATOM     14 O    ACE B   1      21.169 -10.336  -6.655  1.00 39.85 LIG-0.27  OA
ATOM     15  CH3 ACE B   1      21.273  -8.036  -6.278  1.00 40.13 LIG 0.12  C 
ENDBRANCH 6 11
ENDBRANCH 4 6
ENDBRANCH 1 2
BRANCH 1 16
ATOM     16  C   THR B   3      26.066 -12.527 -11.179  1.00 34.35 LIG 0.24  C 
ATOM     17  N   ALA B   4      26.657 -12.241 -12.326  1.00 33.34 LIG-0.35  N 
ATOM     18 H    ALA B   4      27.019 -11.481 -12.501  1.00 33.34 LIG 0.16  HD
ATOM     19 O    THR B   3      25.384 -13.558 -10.997  1.00 38.59 LIG-0.27  OA
BRANCH 17 20
ATOM     20  CA  ALA B   4      26.748 -13.197 -13.397  1.00 37.88 LIG 0.17  C 
ATOM     21  CB  ALA B   4      25.728 -12.884 -14.502  1.00 37.12 LIG 0.04  C 
BRANCH 20 22
ATOM     22  C   ALA B   4      28.175 -13.176 -13.946  1.00 28.06 LIG 0.24  C 
ATOM     23 O    ALA B   4      28.749 -12.120 -14.274  1.00 34.91 LIG-0.27  OA
ATOM     24  N   ILE B   5      28.722 -14.374 -14.046  1.00 35.61 LIG-0.35  N 
ATOM     25 H    ILE B   5      28.294 -15.102 -13.883  1.00 35.61 LIG 0.16  HD
BRANCH 24 26
ATOM     26  CA  ILE B   5      30.100 -14.585 -14.441  1.00 42.31 LIG 0.18  C 
BRANCH 26 27
ATOM     27  C   ILE B   5      30.113 -15.673 -15.517  1.00 33.28 LIG 0.25  C 
ATOM     28 N    NH2 B   6      31.307 -15.616 -16.398  1.00 40.53 LIG-0.06  NA
ATOM     29 O    ILE B   5      29.258 -16.579 -15.536  1.00 43.48 LIG-0.28  OA
ENDBRANCH 26 27
BRANCH 26 30
ATOM     30  CB  ILE B   5      30.948 -15.039 -13.240  1.00 45.91 LIG 0.01  C 
ATOM     31  CG2 ILE B   5      31.458 -16.435 -13.479  1.00 53.83 LIG 0.01  C 
BRANCH 30 32
ATOM     32  CG1 ILE B   5      32.123 -14.094 -12.953  1.00 44.58 LIG 0.00  C 
ATOM     33  CD1 ILE B   5      32.869 -13.583 -14.155  1.00 48.12 LIG 0.01  C 
ENDBRANCH 30 32
ENDBRANCH 26 30
ENDBRANCH 24 26
ENDBRANCH 20 22
ENDBRANCH 17 20
ENDBRANCH 1 16
BRANCH 1 34
ATOM     34  CB  THR B   3      27.338 -11.785  -9.120  1.00 43.32 LIG 0.15  C 
ATOM     35  CG2 THR B   3      27.941 -13.099  -9.440  1.00 50.01 LIG 0.04  C 
BRANCH 34 36
ATOM     36 OG1  THR B   3      28.362 -10.787  -9.238  1.00 43.78 LIG-0.39  OA
ATOM     37 HG1  THR B   3      28.419 -10.536 -10.038  1.00 43.78 LIG 0.21  HD
ENDBRANCH 34 36
ENDBRANCH 1 34
TORSDOF 14
ENDMDL
MODEL 2
USER: ADFR SOLUTION from run 70
USER: SCORE 19.143368 LL:  -2.557 LR: -18.012 RR:   0.000 FEB: -13.835
USER: RMSD 2.174639
USER: SEED 69
USER: STATUS no improvement in best in 2 clusters for 5 generations
USER: GENES 16
USER: genes 0 Translation |==|  0.48890 0.56267 0.58302
USER: genes 1 Rotation |==|  0.48123 0.52449 0.53881 0.99754
USER: genes 2 Torsion [C]-CA--N-[C] |==|  0.60681
USER: genes 3 Torsion [N]-C--CA-[N] |==|  0.89906
USER: genes 4 Torsion [C]-CA--CB-[CG2] |==|  0.12848
USER: genes 5 Torsion [CA]-CB--OG1-[HG1] |==|  0.54282
USER: genes 6 Torsion [C]-CA--N-[C] |==|  0.80998
USER: genes 7 Torsion [N]-CA--C-[N] |==|  0.41833
USER: genes 8 Torsion [C]-N--CA-[CB] |==|  0.25556
USER: genes 9 Torsion [N]-CA--C-[N] |==|  0.41715
USER: genes 10 Torsion [C]-N--CA-[C] |==|  0.60315
USER: genes 11 Torsion [N]-CA--C-[N] |==|  0.43356
USER: genes 12 Torsion [N]-CA--CB-[CG2] |==|  0.34955
USER: genes 13 Torsion [CA]-CB--CG1-[CD1] |==|  0.87328
USER: genes 14 Torsion [N]-CA--CB-[OG1] |==|  0.62891
USER: genes 15 Torsion [CA]-CB--OG1-[HG1] |==|  0.96992
ROOT
ATOM      1  CA  THR B   3      26.274 -11.420  -9.973  1.00 36.32 LIG 0.20  C 
ENDROOT
BRANCH 1 2
ATOM      2  N   THR B   3      25.022 -11.330  -9.252  1.00 33.83 LIG-0.34  N 
ATOM      3 H    THR B   3      24.651 -12.089  -9.087  1.00 33.83 LIG 0.16  HD
ATOM      4  C   THR B   2      24.510 -10.153  -8.884  1.00 34.16 LIG 0.24  C 
ATOM      5 O    THR B   2      25.146  -9.097  -8.878  1.00 38.62 LIG-0.27  OA
BRANCH 4 6
ATOM      6  CA  THR B   2      23.030 -10.185  -8.479  1.00 35.31 LIG 0.20  C 
BRANCH 6 7
ATOM      7  CB  THR B   2      22.936 -10.500  -6.955  1.00 32.90 LIG 0.15  C 
ATOM      8  CG2 THR B   2      23.898  -9.667  -6.208  1.00 39.05 LIG 0.04  C 
BRANCH 7 9
ATOM      9 OG1  THR B   2      21.606 -10.204  -6.498  1.00 34.26 LIG-0.39  OA
ATOM     10 HG1  THR B   2      21.600 -10.167  -5.660  1.00 34.26 LIG 0.21  HD
ENDBRANCH 7 9
ENDBRANCH 6 7
BRANCH 6 11
ATOM     11  N   THR B   2      22.209 -11.120  -9.274  1.00 34.82 LIG-0.35  N 
ATOM     12 H    THR B   2      21.914 -11.805  -8.846  1.00 34.82 LIG 0.16  HD
ATOM     13  C   ACE B   1      21.968 -10.857 -10.604  1.00 34.45 LIG 0.21  C 
ATOM     14 O    ACE B   1      22.824 -10.225 -11.237  1.00 39.85 LIG-0.27  OA
ATOM     15  CH3 ACE B   1      21.407 -12.078 -11.250  1.00 40.13 LIG 0.12  C 
ENDBRANCH 6 11
ENDBRANCH 4 6
ENDBRANCH 1 2
BRANCH 1 16
ATOM     16  C   THR B   3      26.126 -12.533 -11.002  1.00 34.35 LIG 0.24  C 
ATOM     17  N   ALA B   4      26.857 -12.367 -12.091  1.00 33.34 LIG-0.35  N 
ATOM     18 H    ALA B   4      27.308 -11.655 -12.260  1.00 33.34 LIG 0.16  HD
ATOM     19 O    THR B   3      25.330 -13.483 -10.849  1.00 38.59 LIG-0.27  OA
BRANCH 17 20
ATOM     20  CA  ALA B   4      26.958 -13.382 -13.105  1.00 37.88 LIG 0.17  C 
ATOM     21  CB  ALA B   4      25.894 -13.181 -14.194  1.00 37.12 LIG 0.04  C 
BRANCH 20 22
ATOM     22  C   ALA B   4      28.367 -13.335 -13.698  1.00 28.06 LIG 0.24  C 
ATOM     23 O    ALA B   4      29.028 -12.281 -13.767  1.00 34.91 LIG-0.27  OA
ATOM     24  N   ILE B   5      28.797 -14.505 -14.134  1.00 35.61 LIG-0.35  N 
ATOM     25 H    ILE B   5      28.308 -15.212 -14.146  1.00 35.61 LIG 0.16  HD
BRANCH 24 26
ATOM     26  CA  ILE B   5      30.139 -14.718 -14.636  1.00 42.31 LIG 0.18  C 
BRANCH 26 27
ATOM     27  C   ILE B   5      30.047 -15.702 -15.805  1.00 33.28 LIG 0.25  C 
ATOM     28 N    NH2 B   6      31.182 -15.595 -16.756  1.00 40.53 LIG-0.06  NA
ATOM     29 O    ILE B   5      29.164 -16.579 -15.848  1.00 43.48 LIG-0.28  OA
ENDBRANCH 26 27
BRANCH 26 30
ATOM     30  CB  ILE B   5      31.046 -15.306 -13.540  1.00 45.91 LIG 0.01  C 
ATOM     31  CG2 ILE B   5      31.690 -16.570 -14.040  1.00 53.83 LIG 0.01  C 
BRANCH 30 32
ATOM     32  CG1 ILE B   5      32.124 -14.318 -13.071  1.00 44.58 LIG 0.00  C 
ATOM     33  CD1 ILE B   5      32.864 -13.583 -14.155  1.00 48.12 LIG 0.01  C 
ENDBRANCH 30 32
ENDBRANCH 26 30
ENDBRANCH 24 26
ENDBRANCH 20 22
ENDBRANCH 17 20
ENDBRANCH 1 16
BRANCH 1 34
ATOM     34  CB  THR B   3      27.436 -11.692  -9.005  1.00 43.32 LIG 0.15  C 
ATOM     35  CG2 THR B   3      27.927 -13.081  -9.158  1.00 50.01 LIG 0.04  C 
BRANCH 34 36
ATOM     36 OG1  THR B   3      28.515 -10.803  -9.327  1.00 43.78 LIG-0.39  OA
ATOM     37 HG1  THR B   3      28.357 -10.423 -10.060  1.00 43.78 LIG 0.21  HD
ENDBRANCH 34 36
ENDBRANCH 1 34
TORSDOF 14
ENDMDL
MODEL 3
USER: ADFR SOLUTION from run 50
USER: SCORE 18.003667 LL:  -2.335 LR: -17.682 RR:   0.000 FEB: -13.506
USER: RMSD 2.162702
USER: SEED 49
USER: STATUS 1 or 2 clusters left
USER: GENES 16
USER: genes 0 Translation |==|  0.49219 0.56358 0.58103
USER: genes 1 Rotation |==|  0.47483 0.52446 0.54769 0.99648
USER: genes 2 Torsion [C]-CA--N-[C] |==|  0.60932
USER: genes 3 Torsion [N]-C--CA-[N] |==|  0.45466
USER: genes 4 Torsion [C]-CA--CB-[CG2] |==|  0.90650
USER: genes 5 Torsion [CA]-CB--OG1-[HG1] |==|  0.13012
USER: genes 6 Torsion [C]-CA--N-[C] |==|  0.54444
USER: genes 7 Torsion [N]-CA--C-[N] |==|  0.41823
USER: genes 8 Torsion [C]-N--CA-[CB] |==|  0.27583
USER: genes 9 Torsion [N]-CA--C-[N] |==|  0.34137
USER: genes 10 Torsion [C]-N--CA-[C] |==|  0.14810
USER: genes 11 Torsion [N]-CA--C-[N] |==|  0.12084
USER: genes 12 Torsion [N]-CA--CB-[CG2] |==|  0.53478
USER: genes 13 Torsion [CA]-CB--CG1-[CD1] |==|  0.69426
USER: genes 14 Torsion [N]-CA--CB-[OG1] |==|  0.57927
USER: genes 15 Torsion [CA]-CB--OG1-[HG1] |==|  0.02423
ROOT
ATOM      1  CA  THR B   3      26.341 -11.405 -10.011  1.00 36.32 LIG 0.20  C 
ENDROOT
BRANCH 1 2
ATOM      2  N   THR B   3      25.086 -11.344  -9.291  1.00 33.83 LIG-0.34  N 
ATOM      3 H    THR B   3      24.749 -12.112  -9.098  1.00 33.83 LIG 0.16  HD
ATOM      4  C   THR B   2      24.521 -10.178  -8.967  1.00 34.16 LIG 0.24  C 
ATOM      5 O    THR B   2      25.110  -9.095  -9.002  1.00 38.62 LIG-0.27  OA
BRANCH 4 6
ATOM      6  CA  THR B   2      23.044 -10.261  -8.560  1.00 35.31 LIG 0.20  C 
BRANCH 6 7
ATOM      7  CB  THR B   2      22.192 -10.565  -9.830  1.00 32.90 LIG 0.15  C 
ATOM      8  CG2 THR B   2      22.799  -9.921 -11.011  1.00 39.05 LIG 0.04  C 
BRANCH 7 9
ATOM      9 OG1  THR B   2      22.157 -11.987 -10.039  1.00 34.26 LIG-0.39  OA
ATOM     10 HG1  THR B   2      21.984 -12.373  -9.313  1.00 34.26 LIG 0.21  HD
ENDBRANCH 7 9
ENDBRANCH 6 7
BRANCH 6 11
ATOM     11  N   THR B   2      22.547  -9.063  -7.854  1.00 34.82 LIG-0.35  N 
ATOM     12 H    THR B   2      23.042  -8.364  -7.922  1.00 34.82 LIG 0.16  HD
ATOM     13  C   ACE B   1      21.364  -9.127  -7.150  1.00 34.45 LIG 0.21  C 
ATOM     14 O    ACE B   1      21.040 -10.214  -6.655  1.00 39.85 LIG-0.27  OA
ATOM     15  CH3 ACE B   1      21.249  -7.921  -6.280  1.00 40.13 LIG 0.12  C 
ENDBRANCH 6 11
ENDBRANCH 4 6
ENDBRANCH 1 2
BRANCH 1 16
ATOM     16  C   THR B   3      26.235 -12.547 -11.012  1.00 34.35 LIG 0.24  C 
ATOM     17  N   ALA B   4      26.959 -12.379 -12.106  1.00 33.34 LIG-0.35  N 
ATOM     18 H    ALA B   4      27.384 -11.655 -12.291  1.00 33.34 LIG 0.16  HD
ATOM     19 O    THR B   3      25.475 -13.522 -10.836  1.00 38.59 LIG-0.27  OA
BRANCH 17 20
ATOM     20  CA  ALA B   4      27.099 -13.414 -13.095  1.00 37.88 LIG 0.17  C 
ATOM     21  CB  ALA B   4      26.150 -13.176 -14.278  1.00 37.12 LIG 0.04  C 
BRANCH 20 22
ATOM     22  C   ALA B   4      28.556 -13.448 -13.558  1.00 28.06 LIG 0.24  C 
ATOM     23 O    ALA B   4      29.124 -12.454 -14.050  1.00 34.91 LIG-0.27  OA
ATOM     24  N   ILE B   5      29.136 -14.624 -13.396  1.00 35.61 LIG-0.35  N 
ATOM     25 H    ILE B   5      28.716 -15.322 -13.121  1.00 35.61 LIG 0.16  HD
BRANCH 24 26
ATOM     26  CA  ILE B   5      30.540 -14.857 -13.667  1.00 42.31 LIG 0.18  C 
BRANCH 26 27
ATOM     27  C   ILE B   5      31.343 -13.818 -12.881  1.00 33.28 LIG 0.25  C 
ATOM     28 N    NH2 B   6      30.854 -13.624 -11.492  1.00 40.53 LIG-0.06  NA
ATOM     29 O    ILE B   5      32.377 -13.304 -13.348  1.00 43.48 LIG-0.28  OA
ENDBRANCH 26 27
BRANCH 26 30
ATOM     30  CB  ILE B   5      30.838 -14.707 -15.169  1.00 45.91 LIG 0.01  C 
ATOM     31  CG2 ILE B   5      32.211 -15.246 -15.469  1.00 53.83 LIG 0.01  C 
BRANCH 30 32
ATOM     32  CG1 ILE B   5      29.796 -15.408 -16.052  1.00 44.58 LIG 0.00  C 
ATOM     33  CD1 ILE B   5      30.265 -16.637 -16.781  1.00 48.12 LIG 0.01  C 
ENDBRANCH 30 32
ENDBRANCH 26 30
ENDBRANCH 24 26
ENDBRANCH 20 22
ENDBRANCH 17 20
ENDBRANCH 1 16
BRANCH 1 34
ATOM     34  CB  THR B   3      27.511 -11.611  -9.036  1.00 43.32 LIG 0.15  C 
ATOM     35  CG2 THR B   3      27.773 -13.054  -8.835  1.00 50.01 LIG 0.04  C 
BRANCH 34 36
ATOM     36 OG1  THR B   3      28.688 -11.021  -9.607  1.00 43.78 LIG-0.39  OA
ATOM     37 HG1  THR B   3      28.478 -10.583 -10.292  1.00 43.78 LIG 0.21  HD
ENDBRANCH 34 36
ENDBRANCH 1 34
TORSDOF 14
ENDMDL
