MODEL 1
USER: ADFR SOLUTION from run 62
USER: SCORE 8.746531 LL:  -1.927 LR:  -7.703 RR:   0.000 FEB:  -5.018
USER: RMSD 4.363969
USER: SEED 61
USER: STATUS no improvement in best in 23 clusters for 5 generations
USER: GENES 11
USER: genes 0 Translation |==|  0.53003 0.51656 0.50875
USER: genes 1 Rotation |==|  0.34021 0.73001 0.77223 0.81218
USER: genes 2 Torsion [C]-N--CA-[CB] |==|  0.51710
USER: genes 3 Torsion [N]-CA--C-[N] |==|  0.43216
USER: genes 4 Torsion [C]-N--CA-[C] |==|  0.65089
USER: genes 5 Torsion [N]-CA--CB-[CG1] |==|  0.50370
USER: genes 6 Torsion [N]-CA--C-[O] |==|  0.25215
USER: genes 7 Torsion [N]-C--CA-[N] |==|  0.63503
USER: genes 8 Torsion [C]-CA--N-[C] |==|  0.65555
USER: genes 9 Torsion [N]-C--CA-[N] |==|  0.63386
USER: genes 10 Torsion [C]-CA--N-[H3] |==|  0.90835
ROOT
ATOM      1  C   ALA C   2      -5.398  18.744  31.937  1.00 14.06 LIG 0.24  C 
ATOM      2 O    ALA C   2      -4.405  18.039  31.791  1.00 12.98 LIG-0.27  OA
ATOM      3  N   ALA C   3      -6.547  18.505  31.318  1.00 13.94 LIG-0.35  N 
ATOM      4 H    ALA C   3      -7.250  18.991  31.410  1.00 13.94 LIG 0.16  HD
ENDROOT
BRANCH 3 5
ATOM      5  CA  ALA C   3      -6.710  17.371  30.410  1.00 13.65 LIG 0.17  C 
ATOM      6  CB  ALA C   3      -8.072  17.426  29.730  1.00 15.05 LIG 0.04  C 
BRANCH 5 7
ATOM      7  C   ALA C   3      -5.590  17.294  29.365  1.00 12.34 LIG 0.24  C 
ATOM      8  N   VAL C   4      -5.354  16.090  28.846  1.00 12.14 LIG-0.34  N 
ATOM      9 H    VAL C   4      -5.702  15.361  29.140  1.00 12.14 LIG 0.16  HD
ATOM     10 O    ALA C   3      -4.951  18.298  29.032  1.00 12.93 LIG-0.27  OA
BRANCH 8 11
ATOM     11  CA  VAL C   4      -4.463  15.923  27.708  1.00 11.36 LIG 0.19  C 
BRANCH 11 12
ATOM     12  CB  VAL C   4      -3.193  15.147  28.084  1.00 10.99 LIG 0.01  C 
ATOM     13  CG2 VAL C   4      -2.487  15.829  29.235  1.00 10.63 LIG 0.01  C 
ATOM     14  CG1 VAL C   4      -2.259  15.012  26.882  1.00  9.95 LIG 0.01  C 
ENDBRANCH 11 12
BRANCH 11 15
ATOM     15  C   VAL C   4      -5.226  15.172  26.620  1.00 12.38 LIG 0.20  C 
ATOM     16 O    VAL C   4      -5.857  15.831  25.779  1.00 12.95 LIG-0.65  OA
ATOM     17 OXT  VAL C   4      -5.201  13.928  26.567  1.00 15.04 LIG-0.65  OA
ENDBRANCH 11 15
ENDBRANCH 8 11
ENDBRANCH 5 7
ENDBRANCH 3 5
BRANCH 1 18
ATOM     18  CA  ALA C   2      -5.332  19.980  32.840  1.00 15.83 LIG 0.17  C 
ATOM     19  CB  ALA C   2      -6.604  20.820  32.741  1.00 17.22 LIG 0.04  C 
BRANCH 18 20
ATOM     20  N   ALA C   2      -4.153  20.810  32.590  1.00 18.67 LIG-0.35  N 
ATOM     21 H    ALA C   2      -4.071  21.074  31.776  1.00 18.67 LIG 0.16  HD
ATOM     22  C   ALA C   1      -3.293  21.117  33.563  1.00 21.34 LIG 0.25  C 
ATOM     23 O    ALA C   1      -3.440  20.741  34.735  1.00 22.28 LIG-0.27  OA
BRANCH 22 24
ATOM     24  CA  ALA C   1      -2.101  22.003  33.169  1.00 22.82 LIG 0.27  C 
ATOM     25  CB  ALA C   1      -2.048  22.191  31.646  1.00 23.12 LIG 0.05  C 
BRANCH 24 26
ATOM     26  N   ALA C   1      -0.800  21.470  33.664  1.00 23.94 LIG-0.07  N 
ATOM     27 H1   ALA C   1      -0.471  20.893  33.072  1.00 23.94 LIG 0.28  HD
ATOM     28 H3   ALA C   1      -0.925  21.057  34.442  1.00 23.94 LIG 0.28  HD
ATOM     29 H2   ALA C   1      -0.226  22.141  33.772  1.00 23.94 LIG 0.28  HD
ENDBRANCH 24 26
ENDBRANCH 22 24
ENDBRANCH 18 20
ENDBRANCH 1 18
TORSDOF 9
ENDMDL
MODEL 2
USER: ADFR SOLUTION from run 11
USER: SCORE 8.413723 LL:  -1.940 LR:  -7.118 RR:   0.000 FEB:  -4.433
USER: RMSD 3.305482
USER: SEED 511011
USER: STATUS no improvement in best in 14 clusters for 5 generations
USER: GENES 11
USER: genes 0 Translation |==|  0.50020 0.52531 0.53063
USER: genes 1 Rotation |==|  0.39726 0.66776 0.94908 0.59811
USER: genes 2 Torsion [C]-N--CA-[CB] |==|  0.82217
USER: genes 3 Torsion [N]-CA--C-[N] |==|  0.50412
USER: genes 4 Torsion [C]-N--CA-[C] |==|  0.81446
USER: genes 5 Torsion [N]-CA--CB-[CG1] |==|  0.07250
USER: genes 6 Torsion [N]-CA--C-[O] |==|  0.36513
USER: genes 7 Torsion [N]-C--CA-[N] |==|  0.46111
USER: genes 8 Torsion [C]-CA--N-[C] |==|  0.71821
USER: genes 9 Torsion [N]-C--CA-[N] |==|  0.49765
USER: genes 10 Torsion [C]-CA--N-[H3] |==|  0.94058
ROOT
ATOM      1  C   ALA C   2      -5.868  18.889  32.330  1.00 14.06 LIG 0.24  C 
ATOM      2 O    ALA C   2      -5.077  19.324  31.500  1.00 12.98 LIG-0.27  OA
ATOM      3  N   ALA C   3      -6.611  17.810  32.120  1.00 13.94 LIG-0.35  N 
ATOM      4 H    ALA C   3      -7.169  17.494  32.692  1.00 13.94 LIG 0.16  HD
ENDROOT
BRANCH 3 5
ATOM      5  CA  ALA C   3      -6.536  17.056  30.870  1.00 13.65 LIG 0.17  C 
ATOM      6  CB  ALA C   3      -7.004  17.915  29.702  1.00 15.05 LIG 0.04  C 
BRANCH 5 7
ATOM      7  C   ALA C   3      -5.129  16.507  30.604  1.00 12.34 LIG 0.24  C 
ATOM      8  N   VAL C   4      -4.969  15.832  29.466  1.00 12.14 LIG-0.34  N 
ATOM      9 H    VAL C   4      -5.615  15.595  28.951  1.00 12.14 LIG 0.16  HD
ATOM     10 O    ALA C   3      -4.206  16.688  31.404  1.00 12.93 LIG-0.27  OA
BRANCH 8 11
ATOM     11  CA  VAL C   4      -3.646  15.438  29.005  1.00 11.36 LIG 0.19  C 
BRANCH 11 12
ATOM     12  CB  VAL C   4      -3.718  14.513  27.782  1.00 10.99 LIG 0.01  C 
ATOM     13  CG2 VAL C   4      -2.509  14.721  26.898  1.00 10.63 LIG 0.01  C 
ATOM     14  CG1 VAL C   4      -5.008  14.747  26.996  1.00  9.95 LIG 0.01  C 
ENDBRANCH 11 12
BRANCH 11 15
ATOM     15  C   VAL C   4      -2.875  16.707  28.650  1.00 12.38 LIG 0.20  C 
ATOM     16 O    VAL C   4      -1.724  16.842  29.093  1.00 12.95 LIG-0.65  OA
ATOM     17 OXT  VAL C   4      -3.383  17.576  27.917  1.00 15.04 LIG-0.65  OA
ENDBRANCH 11 15
ENDBRANCH 8 11
ENDBRANCH 5 7
ENDBRANCH 3 5
BRANCH 1 18
ATOM     18  CA  ALA C   2      -6.052  19.618  33.666  1.00 15.83 LIG 0.17  C 
ATOM     19  CB  ALA C   2      -7.416  20.299  33.753  1.00 17.22 LIG 0.04  C 
BRANCH 18 20
ATOM     20  N   ALA C   2      -4.985  20.579  33.945  1.00 18.67 LIG-0.35  N 
ATOM     21 H    ALA C   2      -5.059  21.325  33.522  1.00 18.67 LIG 0.16  HD
ATOM     22  C   ALA C   1      -3.990  20.297  34.789  1.00 21.34 LIG 0.25  C 
ATOM     23 O    ALA C   1      -3.912  19.222  35.401  1.00 22.28 LIG-0.27  OA
BRANCH 22 24
ATOM     24  CA  ALA C   1      -2.938  21.398  34.999  1.00 22.82 LIG 0.27  C 
ATOM     25  CB  ALA C   1      -2.302  21.799  33.662  1.00 23.12 LIG 0.05  C 
BRANCH 24 26
ATOM     26  N   ALA C   1      -1.880  21.002  35.971  1.00 23.94 LIG-0.07  N 
ATOM     27 H1   ALA C   1      -1.161  20.721  35.529  1.00 23.94 LIG 0.28  HD
ATOM     28 H3   ALA C   1      -2.183  20.346  36.491  1.00 23.94 LIG 0.28  HD
ATOM     29 H2   ALA C   1      -1.662  21.703  36.475  1.00 23.94 LIG 0.28  HD
ENDBRANCH 24 26
ENDBRANCH 22 24
ENDBRANCH 18 20
ENDBRANCH 1 18
TORSDOF 9
ENDMDL
MODEL 3
USER: ADFR SOLUTION from run 60
USER: SCORE 7.806519 LL:  -1.757 LR:  -7.108 RR:   0.000 FEB:  -4.423
USER: RMSD 2.159062
USER: SEED 59
USER: STATUS no improvement in best in 19 clusters for 5 generations
USER: GENES 11
USER: genes 0 Translation |==|  0.36155 0.40007 0.52609
USER: genes 1 Rotation |==|  0.42385 0.46726 0.58572 0.98557
USER: genes 2 Torsion [C]-N--CA-[CB] |==|  0.48333
USER: genes 3 Torsion [N]-CA--C-[N] |==|  0.46044
USER: genes 4 Torsion [C]-N--CA-[C] |==|  0.77139
USER: genes 5 Torsion [N]-CA--CB-[CG1] |==|  0.97414
USER: genes 6 Torsion [N]-CA--C-[O] |==|  0.41454
USER: genes 7 Torsion [N]-C--CA-[N] |==|  0.19934
USER: genes 8 Torsion [C]-CA--N-[C] |==|  0.56668
USER: genes 9 Torsion [N]-C--CA-[N] |==|  0.94642
USER: genes 10 Torsion [C]-CA--N-[H3] |==|  0.27617
ROOT
ATOM      1  C   ALA C   2      -8.052  16.822  32.249  1.00 14.06 LIG 0.24  C 
ATOM      2 O    ALA C   2      -7.760  15.634  32.157  1.00 12.98 LIG-0.27  OA
ATOM      3  N   ALA C   3      -7.777  17.706  31.298  1.00 13.94 LIG-0.35  N 
ATOM      4 H    ALA C   3      -7.975  18.541  31.349  1.00 13.94 LIG 0.16  HD
ENDROOT
BRANCH 3 5
ATOM      5  CA  ALA C   3      -7.100  17.320  30.061  1.00 13.65 LIG 0.17  C 
ATOM      6  CB  ALA C   3      -7.047  18.497  29.095  1.00 15.05 LIG 0.04  C 
BRANCH 5 7
ATOM      7  C   ALA C   3      -5.691  16.769  30.315  1.00 12.34 LIG 0.24  C 
ATOM      8  N   VAL C   4      -5.121  16.127  29.296  1.00 12.14 LIG-0.34  N 
ATOM      9 H    VAL C   4      -5.531  15.910  28.572  1.00 12.14 LIG 0.16  HD
ATOM     10 O    ALA C   3      -5.128  16.919  31.404  1.00 12.93 LIG-0.27  OA
BRANCH 8 11
ATOM     11  CA  VAL C   4      -3.719  15.737  29.342  1.00 11.36 LIG 0.19  C 
BRANCH 11 12
ATOM     12  CB  VAL C   4      -3.420  14.566  28.397  1.00 10.99 LIG 0.01  C 
ATOM     13  CG2 VAL C   4      -2.509  15.020  27.278  1.00 10.63 LIG 0.01  C 
ATOM     14  CG1 VAL C   4      -4.712  13.975  27.834  1.00  9.95 LIG 0.01  C 
ENDBRANCH 11 12
BRANCH 11 15
ATOM     15  C   VAL C   4      -2.882  16.951  28.947  1.00 12.38 LIG 0.20  C 
ATOM     16 O    VAL C   4      -1.749  17.071  29.439  1.00 12.95 LIG-0.65  OA
ATOM     17 OXT  VAL C   4      -3.318  17.789  28.135  1.00 15.04 LIG-0.65  OA
ENDBRANCH 11 15
ENDBRANCH 8 11
ENDBRANCH 5 7
ENDBRANCH 3 5
BRANCH 1 18
ATOM     18  CA  ALA C   2      -8.735  17.345  33.517  1.00 15.83 LIG 0.17  C 
ATOM     19  CB  ALA C   2      -8.622  16.349  34.670  1.00 17.22 LIG 0.04  C 
BRANCH 18 20
ATOM     20  N   ALA C   2     -10.134  17.717  33.302  1.00 18.67 LIG-0.35  N 
ATOM     21 H    ALA C   2     -10.508  17.323  32.635  1.00 18.67 LIG 0.16  HD
ATOM     22  C   ALA C   1     -10.753  18.597  34.090  1.00 21.34 LIG 0.25  C 
ATOM     23 O    ALA C   1     -10.201  19.141  35.058  1.00 22.28 LIG-0.27  OA
BRANCH 22 24
ATOM     24  CA  ALA C   1     -12.225  18.894  33.760  1.00 22.82 LIG 0.27  C 
ATOM     25  CB  ALA C   1     -13.155  18.192  34.761  1.00 23.12 LIG 0.05  C 
BRANCH 24 26
ATOM     26  N   ALA C   1     -12.590  18.510  32.367  1.00 23.94 LIG-0.07  N 
ATOM     27 H1   ALA C   1     -13.133  19.124  32.022  1.00 23.94 LIG 0.28  HD
ATOM     28 H3   ALA C   1     -13.003  17.721  32.375  1.00 23.94 LIG 0.28  HD
ATOM     29 H2   ALA C   1     -11.853  18.455  31.871  1.00 23.94 LIG 0.28  HD
ENDBRANCH 24 26
ENDBRANCH 22 24
ENDBRANCH 18 20
ENDBRANCH 1 18
TORSDOF 9
ENDMDL
MODEL 4
USER: ADFR SOLUTION from run 7
USER: SCORE 7.971843 LL:  -1.685 LR:  -6.927 RR:   0.000 FEB:  -4.242
USER: RMSD 3.592051
USER: SEED 532310
USER: STATUS no improvement in best in 13 clusters for 5 generations
USER: GENES 11
USER: genes 0 Translation |==|  0.38096 0.40611 0.51950
USER: genes 1 Rotation |==|  0.47959 0.41491 0.62527 0.97608
USER: genes 2 Torsion [C]-N--CA-[CB] |==|  0.55568
USER: genes 3 Torsion [N]-CA--C-[N] |==|  0.38213
USER: genes 4 Torsion [C]-N--CA-[C] |==|  0.79426
USER: genes 5 Torsion [N]-CA--CB-[CG1] |==|  0.00115
USER: genes 6 Torsion [N]-CA--C-[O] |==|  0.40356
USER: genes 7 Torsion [N]-C--CA-[N] |==|  0.49295
USER: genes 8 Torsion [C]-CA--N-[C] |==|  0.81915
USER: genes 9 Torsion [N]-C--CA-[N] |==|  0.62831
USER: genes 10 Torsion [C]-CA--N-[H3] |==|  0.32029
ROOT
ATOM      1  C   ALA C   2      -7.746  16.922  32.130  1.00 14.06 LIG 0.24  C 
ATOM      2 O    ALA C   2      -7.191  15.870  31.831  1.00 12.98 LIG-0.27  OA
ATOM      3  N   ALA C   3      -7.563  18.048  31.454  1.00 13.94 LIG-0.35  N 
ATOM      4 H    ALA C   3      -7.945  18.793  31.652  1.00 13.94 LIG 0.16  HD
ENDROOT
BRANCH 3 5
ATOM      5  CA  ALA C   3      -6.679  18.114  30.292  1.00 13.65 LIG 0.17  C 
ATOM      6  CB  ALA C   3      -6.267  19.555  30.018  1.00 15.05 LIG 0.04  C 
BRANCH 5 7
ATOM      7  C   ALA C   3      -5.441  17.222  30.452  1.00 12.34 LIG 0.24  C 
ATOM      8  N   VAL C   4      -5.082  16.521  29.377  1.00 12.14 LIG-0.34  N 
ATOM      9 H    VAL C   4      -5.557  16.453  28.664  1.00 12.14 LIG 0.16  HD
ATOM     10 O    ALA C   3      -4.820  17.168  31.518  1.00 12.93 LIG-0.27  OA
BRANCH 8 11
ATOM     11  CA  VAL C   4      -3.818  15.800  29.337  1.00 11.36 LIG 0.19  C 
BRANCH 11 12
ATOM     12  CB  VAL C   4      -3.776  14.783  28.188  1.00 10.99 LIG 0.01  C 
ATOM     13  CG2 VAL C   4      -2.591  15.059  27.290  1.00 10.63 LIG 0.01  C 
ATOM     14  CG1 VAL C   4      -5.077  14.811  27.387  1.00  9.95 LIG 0.01  C 
ENDBRANCH 11 12
BRANCH 11 15
ATOM     15  C   VAL C   4      -2.699  16.823  29.165  1.00 12.38 LIG 0.20  C 
ATOM     16 O    VAL C   4      -1.612  16.607  29.723  1.00 12.95 LIG-0.65  OA
ATOM     17 OXT  VAL C   4      -2.867  17.840  28.466  1.00 15.04 LIG-0.65  OA
ENDBRANCH 11 15
ENDBRANCH 8 11
ENDBRANCH 5 7
ENDBRANCH 3 5
BRANCH 1 18
ATOM     18  CA  ALA C   2      -8.671  16.977  33.350  1.00 15.83 LIG 0.17  C 
ATOM     19  CB  ALA C   2      -8.196  18.009  34.372  1.00 17.22 LIG 0.04  C 
BRANCH 18 20
ATOM     20  N   ALA C   2      -8.854  15.674  33.991  1.00 18.67 LIG-0.35  N 
ATOM     21 H    ALA C   2      -8.537  15.624  34.789  1.00 18.67 LIG 0.16  HD
ATOM     22  C   ALA C   1      -9.464  14.666  33.366  1.00 21.34 LIG 0.25  C 
ATOM     23 O    ALA C   1      -9.929  14.766  32.221  1.00 22.28 LIG-0.27  OA
BRANCH 22 24
ATOM     24  CA  ALA C   1      -9.597  13.353  34.154  1.00 22.82 LIG 0.27  C 
ATOM     25  CB  ALA C   1      -8.760  13.407  35.439  1.00 23.12 LIG 0.05  C 
BRANCH 24 26
ATOM     26  N   ALA C   1      -9.219  12.158  33.348  1.00 23.94 LIG-0.07  N 
ATOM     27 H1   ALA C   1      -9.892  11.576  33.346  1.00 23.94 LIG 0.28  HD
ATOM     28 H3   ALA C   1      -8.498  11.776  33.702  1.00 23.94 LIG 0.28  HD
ATOM     29 H2   ALA C   1      -9.042  12.407  32.512  1.00 23.94 LIG 0.28  HD
ENDBRANCH 24 26
ENDBRANCH 22 24
ENDBRANCH 18 20
ENDBRANCH 1 18
TORSDOF 9
ENDMDL
MODEL 5
USER: ADFR SOLUTION from run 156
USER: SCORE 6.698555 LL:  -2.017 LR:  -6.827 RR:   0.000 FEB:  -4.143
USER: RMSD 3.170455
USER: SEED 155
USER: STATUS no improvement in best in 21 clusters for 5 generations
USER: GENES 11
USER: genes 0 Translation |==|  0.31058 0.30268 0.55470
USER: genes 1 Rotation |==|  0.65822 0.56361 0.40930 0.96119
USER: genes 2 Torsion [C]-N--CA-[CB] |==|  0.33926
USER: genes 3 Torsion [N]-CA--C-[N] |==|  0.37943
USER: genes 4 Torsion [C]-N--CA-[C] |==|  0.51801
USER: genes 5 Torsion [N]-CA--CB-[CG1] |==|  0.25305
USER: genes 6 Torsion [N]-CA--C-[O] |==|  0.44204
USER: genes 7 Torsion [N]-C--CA-[N] |==|  0.06479
USER: genes 8 Torsion [C]-CA--N-[C] |==|  0.60783
USER: genes 9 Torsion [N]-C--CA-[N] |==|  0.60209
USER: genes 10 Torsion [C]-CA--N-[H3] |==|  0.59781
ROOT
ATOM      1  C   ALA C   2      -8.854  15.215  32.764  1.00 14.06 LIG 0.24  C 
ATOM      2 O    ALA C   2      -9.516  14.721  31.857  1.00 12.98 LIG-0.27  OA
ATOM      3  N   ALA C   3      -8.073  16.273  32.590  1.00 13.94 LIG-0.35  N 
ATOM      4 H    ALA C   3      -7.603  16.629  33.215  1.00 13.94 LIG 0.16  HD
ENDROOT
BRANCH 3 5
ATOM      5  CA  ALA C   3      -7.945  16.930  31.290  1.00 13.65 LIG 0.17  C 
ATOM      6  CB  ALA C   3      -8.337  18.398  31.397  1.00 15.05 LIG 0.04  C 
BRANCH 5 7
ATOM      7  C   ALA C   3      -6.535  16.791  30.703  1.00 12.34 LIG 0.24  C 
ATOM      8  N   VAL C   4      -6.467  16.496  29.406  1.00 12.14 LIG-0.34  N 
ATOM      9 H    VAL C   4      -7.144  16.271  28.926  1.00 12.14 LIG 0.16  HD
ATOM     10 O    ALA C   3      -5.529  16.948  31.402  1.00 12.93 LIG-0.27  OA
BRANCH 8 11
ATOM     11  CA  VAL C   4      -5.200  16.537  28.690  1.00 11.36 LIG 0.19  C 
BRANCH 11 12
ATOM     12  CB  VAL C   4      -4.221  15.471  29.199  1.00 10.99 LIG 0.01  C 
ATOM     13  CG2 VAL C   4      -2.801  15.988  29.123  1.00 10.63 LIG 0.01  C 
ATOM     14  CG1 VAL C   4      -4.365  14.174  28.404  1.00  9.95 LIG 0.01  C 
ENDBRANCH 11 12
BRANCH 11 15
ATOM     15  C   VAL C   4      -5.490  16.311  27.208  1.00 12.38 LIG 0.20  C 
ATOM     16 O    VAL C   4      -4.648  16.686  26.378  1.00 12.95 LIG-0.65  OA
ATOM     17 OXT  VAL C   4      -6.539  15.746  26.844  1.00 15.04 LIG-0.65  OA
ENDBRANCH 11 15
ENDBRANCH 8 11
ENDBRANCH 5 7
ENDBRANCH 3 5
BRANCH 1 18
ATOM     18  CA  ALA C   2      -8.886  14.588  34.162  1.00 15.83 LIG 0.17  C 
ATOM     19  CB  ALA C   2     -10.250  13.974  34.473  1.00 17.22 LIG 0.04  C 
BRANCH 18 20
ATOM     20  N   ALA C   2      -8.496  15.522  35.218  1.00 18.67 LIG-0.35  N 
ATOM     21 H    ALA C   2      -8.786  16.324  35.107  1.00 18.67 LIG 0.16  HD
ATOM     22  C   ALA C   1      -7.750  15.136  36.255  1.00 21.34 LIG 0.25  C 
ATOM     23 O    ALA C   1      -7.357  13.970  36.403  1.00 22.28 LIG-0.27  OA
BRANCH 22 24
ATOM     24  CA  ALA C   1      -7.418  16.214  37.298  1.00 22.82 LIG 0.27  C 
ATOM     25  CB  ALA C   1      -7.601  17.617  36.702  1.00 23.12 LIG 0.05  C 
BRANCH 24 26
ATOM     26  N   ALA C   1      -6.042  16.070  37.855  1.00 23.94 LIG-0.07  N 
ATOM     27 H1   ALA C   1      -5.778  15.224  37.779  1.00 23.94 LIG 0.28  HD
ATOM     28 H3   ALA C   1      -6.043  16.304  38.713  1.00 23.94 LIG 0.28  HD
ATOM     29 H2   ALA C   1      -5.483  16.596  37.404  1.00 23.94 LIG 0.28  HD
ENDBRANCH 24 26
ENDBRANCH 22 24
ENDBRANCH 18 20
ENDBRANCH 1 18
TORSDOF 9
ENDMDL
MODEL 6
USER: ADFR SOLUTION from run 34
USER: SCORE 7.480304 LL:  -1.897 LR:  -6.657 RR:   0.000 FEB:  -3.973
USER: RMSD 1.935457
USER: SEED 33
USER: STATUS no improvement in best in 21 clusters for 5 generations
USER: GENES 11
USER: genes 0 Translation |==|  0.36960 0.40929 0.53262
USER: genes 1 Rotation |==|  0.43980 0.47851 0.56432 0.99171
USER: genes 2 Torsion [C]-N--CA-[CB] |==|  0.49444
USER: genes 3 Torsion [N]-CA--C-[N] |==|  0.46038
USER: genes 4 Torsion [C]-N--CA-[C] |==|  0.77703
USER: genes 5 Torsion [N]-CA--CB-[CG1] |==|  0.01636
USER: genes 6 Torsion [N]-CA--C-[O] |==|  0.40163
USER: genes 7 Torsion [N]-C--CA-[N] |==|  0.78827
USER: genes 8 Torsion [C]-CA--N-[C] |==|  0.64498
USER: genes 9 Torsion [N]-C--CA-[N] |==|  0.66541
USER: genes 10 Torsion [C]-CA--N-[H3] |==|  0.59767
ROOT
ATOM      1  C   ALA C   2      -7.925  16.974  32.366  1.00 14.06 LIG 0.24  C 
ATOM      2 O    ALA C   2      -7.747  15.774  32.188  1.00 12.98 LIG-0.27  OA
ATOM      3  N   ALA C   3      -7.609  17.890  31.460  1.00 13.94 LIG-0.35  N 
ATOM      4 H    ALA C   3      -7.728  18.734  31.572  1.00 13.94 LIG 0.16  HD
ENDROOT
BRANCH 3 5
ATOM      5  CA  ALA C   3      -7.021  17.528  30.172  1.00 13.65 LIG 0.17  C 
ATOM      6  CB  ALA C   3      -6.808  18.770  29.317  1.00 15.05 LIG 0.04  C 
BRANCH 5 7
ATOM      7  C   ALA C   3      -5.707  16.752  30.329  1.00 12.34 LIG 0.24  C 
ATOM      8  N   VAL C   4      -5.259  16.132  29.238  1.00 12.14 LIG-0.34  N 
ATOM      9 H    VAL C   4      -5.710  16.048  28.511  1.00 12.14 LIG 0.16  HD
ATOM     10 O    ALA C   3      -5.108  16.713  31.408  1.00 12.93 LIG-0.27  OA
BRANCH 8 11
ATOM     11  CA  VAL C   4      -3.931  15.536  29.203  1.00 11.36 LIG 0.19  C 
BRANCH 11 12
ATOM     12  CB  VAL C   4      -3.814  14.463  28.112  1.00 10.99 LIG 0.01  C 
ATOM     13  CG2 VAL C   4      -2.601  14.728  27.248  1.00 10.63 LIG 0.01  C 
ATOM     14  CG1 VAL C   4      -5.082  14.412  27.259  1.00  9.95 LIG 0.01  C 
ENDBRANCH 11 12
BRANCH 11 15
ATOM     15  C   VAL C   4      -2.922  16.652  28.944  1.00 12.38 LIG 0.20  C 
ATOM     16 O    VAL C   4      -1.812  16.583  29.493  1.00 12.95 LIG-0.65  OA
ATOM     17 OXT  VAL C   4      -3.201  17.599  28.184  1.00 15.04 LIG-0.65  OA
ENDBRANCH 11 15
ENDBRANCH 8 11
ENDBRANCH 5 7
ENDBRANCH 3 5
BRANCH 1 18
ATOM     18  CA  ALA C   2      -8.506  17.471  33.694  1.00 15.83 LIG 0.17  C 
ATOM     19  CB  ALA C   2      -9.640  18.472  33.474  1.00 17.22 LIG 0.04  C 
BRANCH 18 20
ATOM     20  N   ALA C   2      -7.494  18.037  34.587  1.00 18.67 LIG-0.35  N 
ATOM     21 H    ALA C   2      -7.002  18.643  34.226  1.00 18.67 LIG 0.16  HD
ATOM     22  C   ALA C   1      -7.368  17.629  35.851  1.00 21.34 LIG 0.25  C 
ATOM     23 O    ALA C   1      -8.100  16.766  36.356  1.00 22.28 LIG-0.27  OA
BRANCH 22 24
ATOM     24  CA  ALA C   1      -6.270  18.311  36.683  1.00 22.82 LIG 0.27  C 
ATOM     25  CB  ALA C   1      -5.580  19.413  35.868  1.00 23.12 LIG 0.05  C 
BRANCH 24 26
ATOM     26  N   ALA C   1      -5.258  17.346  37.199  1.00 23.94 LIG-0.07  N 
ATOM     27 H1   ALA C   1      -5.621  16.536  37.256  1.00 23.94 LIG 0.28  HD
ATOM     28 H3   ALA C   1      -4.984  17.606  38.005  1.00 23.94 LIG 0.28  HD
ATOM     29 H2   ALA C   1      -4.563  17.320  36.643  1.00 23.94 LIG 0.28  HD
ENDBRANCH 24 26
ENDBRANCH 22 24
ENDBRANCH 18 20
ENDBRANCH 1 18
TORSDOF 9
ENDMDL
MODEL 7
USER: ADFR SOLUTION from run 126
USER: SCORE 8.103694 LL:  -2.040 LR:  -6.603 RR:   0.000 FEB:  -3.918
USER: RMSD 3.816537
USER: SEED 125
USER: STATUS no improvement in best in 22 clusters for 5 generations
USER: GENES 11
USER: genes 0 Translation |==|  0.44837 0.42242 0.45936
USER: genes 1 Rotation |==|  0.32166 0.54892 0.77577 0.87384
USER: genes 2 Torsion [C]-N--CA-[CB] |==|  0.51128
USER: genes 3 Torsion [N]-CA--C-[N] |==|  0.41385
USER: genes 4 Torsion [C]-N--CA-[C] |==|  0.54796
USER: genes 5 Torsion [N]-CA--CB-[CG1] |==|  0.71922
USER: genes 6 Torsion [N]-CA--C-[O] |==|  0.60832
USER: genes 7 Torsion [N]-C--CA-[N] |==|  0.32850
USER: genes 8 Torsion [C]-CA--N-[C] |==|  0.85672
USER: genes 9 Torsion [N]-C--CA-[N] |==|  0.66467
USER: genes 10 Torsion [C]-CA--N-[H3] |==|  0.23612
ROOT
ATOM      1  C   ALA C   2      -6.684  17.191  31.047  1.00 14.06 LIG 0.24  C 
ATOM      2 O    ALA C   2      -5.620  16.623  31.272  1.00 12.98 LIG-0.27  OA
ATOM      3  N   ALA C   3      -7.225  17.251  29.838  1.00 13.94 LIG-0.35  N 
ATOM      4 H    ALA C   3      -7.969  17.646  29.666  1.00 13.94 LIG 0.16  HD
ENDROOT
BRANCH 3 5
ATOM      5  CA  ALA C   3      -6.585  16.637  28.676  1.00 13.65 LIG 0.17  C 
ATOM      6  CB  ALA C   3      -7.372  16.947  27.410  1.00 15.05 LIG 0.04  C 
BRANCH 5 7
ATOM      7  C   ALA C   3      -5.122  17.072  28.520  1.00 12.34 LIG 0.24  C 
ATOM      8  N   VAL C   4      -4.300  16.178  27.973  1.00 12.14 LIG-0.34  N 
ATOM      9 H    VAL C   4      -4.512  15.359  27.817  1.00 12.14 LIG 0.16  HD
ATOM     10 O    ALA C   3      -4.740  18.189  28.884  1.00 12.93 LIG-0.27  OA
BRANCH 8 11
ATOM     11  CA  VAL C   4      -2.944  16.539  27.587  1.00 11.36 LIG 0.19  C 
BRANCH 11 12
ATOM     12  CB  VAL C   4      -2.012  16.641  28.802  1.00 10.99 LIG 0.01  C 
ATOM     13  CG2 VAL C   4      -2.576  15.848  29.960  1.00 10.63 LIG 0.01  C 
ATOM     14  CG1 VAL C   4      -1.795  18.099  29.202  1.00  9.95 LIG 0.01  C 
ENDBRANCH 11 12
BRANCH 11 15
ATOM     15  C   VAL C   4      -2.429  15.470  26.626  1.00 12.38 LIG 0.20  C 
ATOM     16 O    VAL C   4      -1.245  15.111  26.722  1.00 12.95 LIG-0.65  OA
ATOM     17 OXT  VAL C   4      -3.185  14.958  25.779  1.00 15.04 LIG-0.65  OA
ENDBRANCH 11 15
ENDBRANCH 8 11
ENDBRANCH 5 7
ENDBRANCH 3 5
BRANCH 1 18
ATOM     18  CA  ALA C   2      -7.428  17.898  32.186  1.00 15.83 LIG 0.17  C 
ATOM     19  CB  ALA C   2      -6.601  19.039  32.776  1.00 17.22 LIG 0.04  C 
BRANCH 18 20
ATOM     20  N   ALA C   2      -7.860  16.983  33.243  1.00 18.67 LIG-0.35  N 
ATOM     21 H    ALA C   2      -7.628  17.222  34.036  1.00 18.67 LIG 0.16  HD
ATOM     22  C   ALA C   1      -8.555  15.876  32.971  1.00 21.34 LIG 0.25  C 
ATOM     23 O    ALA C   1      -8.894  15.560  31.821  1.00 22.28 LIG-0.27  OA
BRANCH 22 24
ATOM     24  CA  ALA C   1      -8.954  15.006  34.173  1.00 22.82 LIG 0.27  C 
ATOM     25  CB  ALA C   1      -8.508  15.663  35.487  1.00 23.12 LIG 0.05  C 
BRANCH 24 26
ATOM     26  N   ALA C   1      -8.412  13.621  34.085  1.00 23.94 LIG-0.07  N 
ATOM     27 H1   ALA C   1      -8.925  13.070  34.558  1.00 23.94 LIG 0.28  HD
ATOM     28 H3   ALA C   1      -7.583  13.604  34.408  1.00 23.94 LIG 0.28  HD
ATOM     29 H2   ALA C   1      -8.404  13.359  33.234  1.00 23.94 LIG 0.28  HD
ENDBRANCH 24 26
ENDBRANCH 22 24
ENDBRANCH 18 20
ENDBRANCH 1 18
TORSDOF 9
ENDMDL
MODEL 8
USER: ADFR SOLUTION from run 65
USER: SCORE 7.806557 LL:  -1.872 LR:  -6.570 RR:   0.000 FEB:  -3.885
USER: RMSD 3.855692
USER: SEED 64
USER: STATUS searching
USER: GENES 11
USER: genes 0 Translation |==|  0.37232 0.41065 0.52232
USER: genes 1 Rotation |==|  0.47554 0.43668 0.45764 0.99356
USER: genes 2 Torsion [C]-N--CA-[CB] |==|  0.83328
USER: genes 3 Torsion [N]-CA--C-[N] |==|  0.45762
USER: genes 4 Torsion [C]-N--CA-[C] |==|  0.58616
USER: genes 5 Torsion [N]-CA--CB-[CG1] |==|  0.76743
USER: genes 6 Torsion [N]-CA--C-[O] |==|  0.54744
USER: genes 7 Torsion [N]-C--CA-[N] |==|  0.31457
USER: genes 8 Torsion [C]-CA--N-[C] |==|  0.56184
USER: genes 9 Torsion [N]-C--CA-[N] |==|  0.90435
USER: genes 10 Torsion [C]-CA--N-[H3] |==|  0.98032
ROOT
ATOM      1  C   ALA C   2      -7.882  16.997  32.181  1.00 14.06 LIG 0.24  C 
ATOM      2 O    ALA C   2      -8.119  15.862  31.779  1.00 12.98 LIG-0.27  OA
ATOM      3  N   ALA C   3      -7.056  17.824  31.553  1.00 13.94 LIG-0.35  N 
ATOM      4 H    ALA C   3      -6.881  18.621  31.824  1.00 13.94 LIG 0.16  HD
ENDROOT
BRANCH 3 5
ATOM      5  CA  ALA C   3      -6.365  17.437  30.325  1.00 13.65 LIG 0.17  C 
ATOM      6  CB  ALA C   3      -5.482  16.221  30.572  1.00 15.05 LIG 0.04  C 
BRANCH 5 7
ATOM      7  C   ALA C   3      -7.337  17.170  29.169  1.00 12.34 LIG 0.24  C 
ATOM      8  N   VAL C   4      -6.800  17.123  27.951  1.00 12.14 LIG-0.34  N 
ATOM      9 H    VAL C   4      -5.989  17.344  27.772  1.00 12.14 LIG 0.16  HD
ATOM     10 O    ALA C   3      -8.545  17.008  29.369  1.00 12.93 LIG-0.27  OA
BRANCH 8 11
ATOM     11  CA  VAL C   4      -7.576  16.679  26.802  1.00 11.36 LIG 0.19  C 
BRANCH 11 12
ATOM     12  CB  VAL C   4      -8.298  17.846  26.114  1.00 10.99 LIG 0.01  C 
ATOM     13  CG2 VAL C   4      -7.408  19.068  26.089  1.00 10.63 LIG 0.01  C 
ATOM     14  CG1 VAL C   4      -9.621  18.158  26.814  1.00  9.95 LIG 0.01  C 
ENDBRANCH 11 12
BRANCH 11 15
ATOM     15  C   VAL C   4      -6.620  16.009  25.820  1.00 12.38 LIG 0.20  C 
ATOM     16 O    VAL C   4      -6.996  15.846  24.648  1.00 12.95 LIG-0.65  OA
ATOM     17 OXT  VAL C   4      -5.483  15.652  26.180  1.00 15.04 LIG-0.65  OA
ENDBRANCH 11 15
ENDBRANCH 8 11
ENDBRANCH 5 7
ENDBRANCH 3 5
BRANCH 1 18
ATOM     18  CA  ALA C   2      -8.527  17.498  33.477  1.00 15.83 LIG 0.17  C 
ATOM     19  CB  ALA C   2      -8.196  16.589  34.660  1.00 17.22 LIG 0.04  C 
BRANCH 18 20
ATOM     20  N   ALA C   2      -9.975  17.678  33.364  1.00 18.67 LIG-0.35  N 
ATOM     21 H    ALA C   2     -10.341  17.222  32.734  1.00 18.67 LIG 0.16  HD
ATOM     22  C   ALA C   1     -10.646  18.489  34.184  1.00 21.34 LIG 0.25  C 
ATOM     23 O    ALA C   1     -10.100  19.124  35.098  1.00 22.28 LIG-0.27  OA
BRANCH 22 24
ATOM     24  CA  ALA C   1     -12.164  18.582  33.963  1.00 22.82 LIG 0.27  C 
ATOM     25  CB  ALA C   1     -12.896  17.513  34.786  1.00 23.12 LIG 0.05  C 
BRANCH 24 26
ATOM     26  N   ALA C   1     -12.543  18.471  32.526  1.00 23.94 LIG-0.07  N 
ATOM     27 H1   ALA C   1     -12.991  17.714  32.395  1.00 23.94 LIG 0.28  HD
ATOM     28 H3   ALA C   1     -11.808  18.471  32.024  1.00 23.94 LIG 0.28  HD
ATOM     29 H2   ALA C   1     -13.057  19.161  32.300  1.00 23.94 LIG 0.28  HD
ENDBRANCH 24 26
ENDBRANCH 22 24
ENDBRANCH 18 20
ENDBRANCH 1 18
TORSDOF 9
ENDMDL
MODEL 9
USER: ADFR SOLUTION from run 58
USER: SCORE 8.299575 LL:  -2.260 LR:  -6.513 RR:   0.000 FEB:  -3.828
USER: RMSD 4.382078
USER: SEED 57
USER: STATUS no improvement in best in 23 clusters for 5 generations
USER: GENES 11
USER: genes 0 Translation |==|  0.44922 0.56634 0.58921
USER: genes 1 Rotation |==|  0.63061 0.70203 0.93820 0.51041
USER: genes 2 Torsion [C]-N--CA-[CB] |==|  0.86423
USER: genes 3 Torsion [N]-CA--C-[N] |==|  0.84591
USER: genes 4 Torsion [C]-N--CA-[C] |==|  0.70294
USER: genes 5 Torsion [N]-CA--CB-[CG1] |==|  0.54175
USER: genes 6 Torsion [N]-CA--C-[O] |==|  0.46610
USER: genes 7 Torsion [N]-C--CA-[N] |==|  0.42353
USER: genes 8 Torsion [C]-CA--N-[C] |==|  0.54144
USER: genes 9 Torsion [N]-C--CA-[N] |==|  0.60858
USER: genes 10 Torsion [C]-CA--N-[H3] |==|  0.21054
ROOT
ATOM      1  C   ALA C   2      -6.671  19.566  33.385  1.00 14.06 LIG 0.24  C 
ATOM      2 O    ALA C   2      -6.955  19.961  32.259  1.00 12.98 LIG-0.27  OA
ATOM      3  N   ALA C   3      -7.259  18.519  33.949  1.00 13.94 LIG-0.35  N 
ATOM      4 H    ALA C   3      -7.071  18.231  34.737  1.00 13.94 LIG 0.16  HD
ENDROOT
BRANCH 3 5
ATOM      5  CA  ALA C   3      -8.297  17.755  33.259  1.00 13.65 LIG 0.17  C 
ATOM      6  CB  ALA C   3      -9.349  18.690  32.680  1.00 15.05 LIG 0.04  C 
BRANCH 5 7
ATOM      7  C   ALA C   3      -7.721  16.848  32.164  1.00 12.34 LIG 0.24  C 
ATOM      8  N   VAL C   4      -6.978  17.449  31.237  1.00 12.14 LIG-0.34  N 
ATOM      9 H    VAL C   4      -6.904  18.302  31.155  1.00 12.14 LIG 0.16  HD
ATOM     10 O    ALA C   3      -7.940  15.632  32.154  1.00 12.93 LIG-0.27  OA
BRANCH 8 11
ATOM     11  CA  VAL C   4      -6.214  16.678  30.267  1.00 11.36 LIG 0.19  C 
BRANCH 11 12
ATOM     12  CB  VAL C   4      -6.421  17.191  28.836  1.00 10.99 LIG 0.01  C 
ATOM     13  CG2 VAL C   4      -7.880  17.515  28.604  1.00 10.63 LIG 0.01  C 
ATOM     14  CG1 VAL C   4      -5.926  16.170  27.813  1.00  9.95 LIG 0.01  C 
ENDBRANCH 11 12
BRANCH 11 15
ATOM     15  C   VAL C   4      -4.738  16.777  30.646  1.00 12.38 LIG 0.20  C 
ATOM     16 O    VAL C   4      -3.934  16.011  30.093  1.00 12.95 LIG-0.65  OA
ATOM     17 OXT  VAL C   4      -4.349  17.620  31.476  1.00 15.04 LIG-0.65  OA
ENDBRANCH 11 15
ENDBRANCH 8 11
ENDBRANCH 5 7
ENDBRANCH 3 5
BRANCH 1 18
ATOM     18  CA  ALA C   2      -5.618  20.311  34.213  1.00 15.83 LIG 0.17  C 
ATOM     19  CB  ALA C   2      -6.261  21.307  35.176  1.00 17.22 LIG 0.04  C 
BRANCH 18 20
ATOM     20  N   ALA C   2      -4.609  20.978  33.390  1.00 18.67 LIG-0.35  N 
ATOM     21 H    ALA C   2      -4.820  21.053  32.560  1.00 18.67 LIG 0.16  HD
ATOM     22  C   ALA C   1      -3.464  21.423  33.911  1.00 21.34 LIG 0.25  C 
ATOM     23 O    ALA C   1      -3.186  21.321  35.114  1.00 22.28 LIG-0.27  OA
BRANCH 22 24
ATOM     24  CA  ALA C   1      -2.493  22.113  32.939  1.00 22.82 LIG 0.27  C 
ATOM     25  CB  ALA C   1      -2.852  21.774  31.485  1.00 23.12 LIG 0.05  C 
BRANCH 24 26
ATOM     26  N   ALA C   1      -1.068  21.766  33.207  1.00 23.94 LIG-0.07  N 
ATOM     27 H1   ALA C   1      -0.538  22.345  32.789  1.00 23.94 LIG 0.28  HD
ATOM     28 H3   ALA C   1      -0.901  20.944  32.910  1.00 23.94 LIG 0.28  HD
ATOM     29 H2   ALA C   1      -0.914  21.802  34.083  1.00 23.94 LIG 0.28  HD
ENDBRANCH 24 26
ENDBRANCH 22 24
ENDBRANCH 18 20
ENDBRANCH 1 18
TORSDOF 9
ENDMDL
MODEL 10
USER: ADFR SOLUTION from run 3
USER: SCORE 7.261160 LL:  -1.794 LR:  -6.472 RR:   0.000 FEB:  -3.787
USER: RMSD 2.933245
USER: SEED 413619
USER: STATUS no improvement in best in 28 clusters for 5 generations
USER: GENES 11
USER: genes 0 Translation |==|  0.35124 0.44106 0.46462
USER: genes 1 Rotation |==|  0.40305 0.55747 0.72281 0.93319
USER: genes 2 Torsion [C]-N--CA-[CB] |==|  0.52018
USER: genes 3 Torsion [N]-CA--C-[N] |==|  0.34043
USER: genes 4 Torsion [C]-N--CA-[C] |==|  0.77297
USER: genes 5 Torsion [N]-CA--CB-[CG1] |==|  0.22252
USER: genes 6 Torsion [N]-CA--C-[O] |==|  0.41185
USER: genes 7 Torsion [N]-C--CA-[N] |==|  0.13754
USER: genes 8 Torsion [C]-CA--N-[C] |==|  0.62282
USER: genes 9 Torsion [N]-C--CA-[N] |==|  0.90799
USER: genes 10 Torsion [C]-CA--N-[H3] |==|  0.27004
ROOT
ATOM      1  C   ALA C   2      -8.214  17.499  31.142  1.00 14.06 LIG 0.24  C 
ATOM      2 O    ALA C   2      -7.396  16.589  31.045  1.00 12.98 LIG-0.27  OA
ATOM      3  N   ALA C   3      -8.768  18.082  30.088  1.00 13.94 LIG-0.35  N 
ATOM      4 H    ALA C   3      -9.342  18.720  30.141  1.00 13.94 LIG 0.16  HD
ENDROOT
BRANCH 3 5
ATOM      5  CA  ALA C   3      -8.440  17.676  28.722  1.00 13.65 LIG 0.17  C 
ATOM      6  CB  ALA C   3      -9.080  18.626  27.718  1.00 15.05 LIG 0.04  C 
BRANCH 5 7
ATOM      7  C   ALA C   3      -6.927  17.587  28.489  1.00 12.34 LIG 0.24  C 
ATOM      8  N   VAL C   4      -6.467  16.407  28.074  1.00 12.14 LIG-0.34  N 
ATOM      9 H    VAL C   4      -6.938  15.688  28.046  1.00 12.14 LIG 0.16  HD
ATOM     10 O    ALA C   3      -6.188  18.559  28.677  1.00 12.93 LIG-0.27  OA
BRANCH 8 11
ATOM     11  CA  VAL C   4      -5.091  16.251  27.626  1.00 11.36 LIG 0.19  C 
BRANCH 11 12
ATOM     12  CB  VAL C   4      -4.617  14.795  27.730  1.00 10.99 LIG 0.01  C 
ATOM     13  CG2 VAL C   4      -3.108  14.743  27.812  1.00 10.63 LIG 0.01  C 
ATOM     14  CG1 VAL C   4      -5.121  13.971  26.546  1.00  9.95 LIG 0.01  C 
ENDBRANCH 11 12
BRANCH 11 15
ATOM     15  C   VAL C   4      -5.014  16.719  26.175  1.00 12.38 LIG 0.20  C 
ATOM     16 O    VAL C   4      -3.959  17.237  25.777  1.00 12.95 LIG-0.65  OA
ATOM     17 OXT  VAL C   4      -5.981  16.568  25.405  1.00 15.04 LIG-0.65  OA
ENDBRANCH 11 15
ENDBRANCH 8 11
ENDBRANCH 5 7
ENDBRANCH 3 5
BRANCH 1 18
ATOM     18  CA  ALA C   2      -8.609  18.027  32.526  1.00 15.83 LIG 0.17  C 
ATOM     19  CB  ALA C   2      -8.001  17.183  33.645  1.00 17.22 LIG 0.04  C 
BRANCH 18 20
ATOM     20  N   ALA C   2     -10.056  18.141  32.703  1.00 18.67 LIG-0.35  N 
ATOM     21 H    ALA C   2     -10.504  17.466  32.415  1.00 18.67 LIG 0.16  HD
ATOM     22  C   ALA C   1     -10.610  19.216  33.269  1.00 21.34 LIG 0.25  C 
ATOM     23 O    ALA C   1      -9.944  20.171  33.694  1.00 22.28 LIG-0.27  OA
BRANCH 22 24
ATOM     24  CA  ALA C   1     -12.141  19.206  33.403  1.00 22.82 LIG 0.27  C 
ATOM     25  CB  ALA C   1     -12.562  18.595  34.747  1.00 23.12 LIG 0.05  C 
BRANCH 24 26
ATOM     26  N   ALA C   1     -12.811  18.487  32.283  1.00 23.94 LIG-0.07  N 
ATOM     27 H1   ALA C   1     -13.566  18.907  32.070  1.00 23.94 LIG 0.28  HD
ATOM     28 H3   ALA C   1     -12.997  17.653  32.533  1.00 23.94 LIG 0.28  HD
ATOM     29 H2   ALA C   1     -12.272  18.471  31.575  1.00 23.94 LIG 0.28  HD
ENDBRANCH 24 26
ENDBRANCH 22 24
ENDBRANCH 18 20
ENDBRANCH 1 18
TORSDOF 9
ENDMDL
MODEL 11
USER: ADFR SOLUTION from run 109
USER: SCORE 7.474734 LL:  -2.135 LR:  -6.456 RR:   0.000 FEB:  -3.772
USER: RMSD 3.230746
USER: SEED 108
USER: STATUS no improvement in best in 17 clusters for 5 generations
USER: GENES 11
USER: genes 0 Translation |==|  0.40937 0.50017 0.62339
USER: genes 1 Rotation |==|  0.42027 0.55621 0.27084 0.93356
USER: genes 2 Torsion [C]-N--CA-[CB] |==|  0.23331
USER: genes 3 Torsion [N]-CA--C-[N] |==|  0.53746
USER: genes 4 Torsion [C]-N--CA-[C] |==|  0.51491
USER: genes 5 Torsion [N]-CA--CB-[CG1] |==|  0.30570
USER: genes 6 Torsion [N]-CA--C-[O] |==|  0.44017
USER: genes 7 Torsion [N]-C--CA-[N] |==|  0.05793
USER: genes 8 Torsion [C]-CA--N-[C] |==|  0.69579
USER: genes 9 Torsion [N]-C--CA-[N] |==|  0.46962
USER: genes 10 Torsion [C]-CA--N-[H3] |==|  0.92477
ROOT
ATOM      1  C   ALA C   2      -7.298  18.474  34.000  1.00 14.06 LIG 0.24  C 
ATOM      2 O    ALA C   2      -8.396  17.926  34.006  1.00 12.98 LIG-0.27  OA
ATOM      3  N   ALA C   3      -6.499  18.471  32.941  1.00 13.94 LIG-0.35  N 
ATOM      4 H    ALA C   3      -5.728  18.850  32.923  1.00 13.94 LIG 0.16  HD
ENDROOT
BRANCH 3 5
ATOM      5  CA  ALA C   3      -6.876  17.809  31.694  1.00 13.65 LIG 0.17  C 
ATOM      6  CB  ALA C   3      -7.744  18.729  30.845  1.00 15.05 LIG 0.04  C 
BRANCH 5 7
ATOM      7  C   ALA C   3      -5.656  17.333  30.895  1.00 12.34 LIG 0.24  C 
ATOM      8  N   VAL C   4      -5.885  16.974  29.633  1.00 12.14 LIG-0.34  N 
ATOM      9 H    VAL C   4      -6.669  16.886  29.291  1.00 12.14 LIG 0.16  HD
ATOM     10 O    ALA C   3      -4.531  17.290  31.404  1.00 12.93 LIG-0.27  OA
BRANCH 8 11
ATOM     11  CA  VAL C   4      -4.788  16.700  28.717  1.00 11.36 LIG 0.19  C 
BRANCH 11 12
ATOM     12  CB  VAL C   4      -3.966  15.481  29.158  1.00 10.99 LIG 0.01  C 
ATOM     13  CG2 VAL C   4      -2.499  15.841  29.236  1.00 10.63 LIG 0.01  C 
ATOM     14  CG1 VAL C   4      -4.182  14.305  28.206  1.00  9.95 LIG 0.01  C 
ENDBRANCH 11 12
BRANCH 11 15
ATOM     15  C   VAL C   4      -5.382  16.453  27.333  1.00 12.38 LIG 0.20  C 
ATOM     16 O    VAL C   4      -4.650  16.600  26.342  1.00 12.95 LIG-0.65  OA
ATOM     17 OXT  VAL C   4      -6.567  16.093  27.204  1.00 15.04 LIG-0.65  OA
ENDBRANCH 11 15
ENDBRANCH 8 11
ENDBRANCH 5 7
ENDBRANCH 3 5
BRANCH 1 18
ATOM     18  CA  ALA C   2      -6.787  19.172  35.265  1.00 15.83 LIG 0.17  C 
ATOM     19  CB  ALA C   2      -7.922  19.838  36.040  1.00 17.22 LIG 0.04  C 
BRANCH 18 20
ATOM     20  N   ALA C   2      -5.721  20.138  34.994  1.00 18.67 LIG-0.35  N 
ATOM     21 H    ALA C   2      -5.981  20.848  34.584  1.00 18.67 LIG 0.16  HD
ATOM     22  C   ALA C   1      -4.459  19.911  35.364  1.00 21.34 LIG 0.25  C 
ATOM     23 O    ALA C   1      -4.109  18.888  35.971  1.00 22.28 LIG-0.27  OA
BRANCH 22 24
ATOM     24  CA  ALA C   1      -3.439  21.010  35.027  1.00 22.82 LIG 0.27  C 
ATOM     25  CB  ALA C   1      -3.245  21.120  33.509  1.00 23.12 LIG 0.05  C 
BRANCH 24 26
ATOM     26  N   ALA C   1      -2.125  20.799  35.697  1.00 23.94 LIG-0.07  N 
ATOM     27 H1   ALA C   1      -1.585  20.346  35.154  1.00 23.94 LIG 0.28  HD
ATOM     28 H3   ALA C   1      -2.244  20.337  36.448  1.00 23.94 LIG 0.28  HD
ATOM     29 H2   ALA C   1      -1.758  21.587  35.888  1.00 23.94 LIG 0.28  HD
ENDBRANCH 24 26
ENDBRANCH 22 24
ENDBRANCH 18 20
ENDBRANCH 1 18
TORSDOF 9
ENDMDL
MODEL 12
USER: ADFR SOLUTION from run 125
USER: SCORE 7.276603 LL:  -2.557 LR:  -6.454 RR:   0.000 FEB:  -3.770
USER: RMSD 3.882312
USER: SEED 124
USER: STATUS no improvement in best in 15 clusters for 5 generations
USER: GENES 11
USER: genes 0 Translation |==|  0.44332 0.54041 0.51910
USER: genes 1 Rotation |==|  0.22887 0.55380 0.42108 0.90910
USER: genes 2 Torsion [C]-N--CA-[CB] |==|  0.36983
USER: genes 3 Torsion [N]-CA--C-[N] |==|  0.66992
USER: genes 4 Torsion [C]-N--CA-[C] |==|  0.77500
USER: genes 5 Torsion [N]-CA--CB-[CG1] |==|  0.96845
USER: genes 6 Torsion [N]-CA--C-[O] |==|  0.91304
USER: genes 7 Torsion [N]-C--CA-[N] |==|  0.90561
USER: genes 8 Torsion [C]-CA--N-[C] |==|  0.83188
USER: genes 9 Torsion [N]-C--CA-[N] |==|  0.44045
USER: genes 10 Torsion [C]-CA--N-[H3] |==|  0.91071
ROOT
ATOM      1  C   ALA C   2      -6.764  19.138  32.123  1.00 14.06 LIG 0.24  C 
ATOM      2 O    ALA C   2      -7.227  18.392  32.980  1.00 12.98 LIG-0.27  OA
ATOM      3  N   ALA C   3      -6.406  18.714  30.918  1.00 13.94 LIG-0.35  N 
ATOM      4 H    ALA C   3      -6.079  19.224  30.308  1.00 13.94 LIG 0.16  HD
ENDROOT
BRANCH 3 5
ATOM      5  CA  ALA C   3      -6.541  17.312  30.524  1.00 13.65 LIG 0.17  C 
ATOM      6  CB  ALA C   3      -7.185  17.207  29.147  1.00 15.05 LIG 0.04  C 
BRANCH 5 7
ATOM      7  C   ALA C   3      -5.199  16.568  30.548  1.00 12.34 LIG 0.24  C 
ATOM      8  N   VAL C   4      -4.786  16.067  29.385  1.00 12.14 LIG-0.34  N 
ATOM      9 H    VAL C   4      -5.269  16.036  28.674  1.00 12.14 LIG 0.16  HD
ATOM     10 O    ALA C   3      -4.548  16.450  31.591  1.00 12.93 LIG-0.27  OA
BRANCH 8 11
ATOM     11  CA  VAL C   4      -3.445  15.521  29.235  1.00 11.36 LIG 0.19  C 
BRANCH 11 12
ATOM     12  CB  VAL C   4      -3.355  14.544  28.054  1.00 10.99 LIG 0.01  C 
ATOM     13  CG2 VAL C   4      -2.503  15.135  26.953  1.00 10.63 LIG 0.01  C 
ATOM     14  CG1 VAL C   4      -4.746  14.192  27.529  1.00  9.95 LIG 0.01  C 
ENDBRANCH 11 12
BRANCH 11 15
ATOM     15  C   VAL C   4      -2.485  16.687  29.018  1.00 12.38 LIG 0.20  C 
ATOM     16 O    VAL C   4      -2.905  17.697  28.432  1.00 12.95 LIG-0.65  OA
ATOM     17 OXT  VAL C   4      -1.313  16.634  29.436  1.00 15.04 LIG-0.65  OA
ENDBRANCH 11 15
ENDBRANCH 8 11
ENDBRANCH 5 7
ENDBRANCH 3 5
BRANCH 1 18
ATOM     18  CA  ALA C   2      -6.548  20.622  32.438  1.00 15.83 LIG 0.17  C 
ATOM     19  CB  ALA C   2      -7.779  21.457  32.090  1.00 17.22 LIG 0.04  C 
BRANCH 18 20
ATOM     20  N   ALA C   2      -5.358  21.177  31.792  1.00 18.67 LIG-0.35  N 
ATOM     21 H    ALA C   2      -5.518  21.825  31.250  1.00 18.67 LIG 0.16  HD
ATOM     22  C   ALA C   1      -4.138  20.699  32.043  1.00 21.34 LIG 0.25  C 
ATOM     23 O    ALA C   1      -3.927  19.775  32.842  1.00 22.28 LIG-0.27  OA
BRANCH 22 24
ATOM     24  CA  ALA C   1      -2.972  21.378  31.305  1.00 22.82 LIG 0.27  C 
ATOM     25  CB  ALA C   1      -2.899  20.893  29.850  1.00 23.12 LIG 0.05  C 
BRANCH 24 26
ATOM     26  N   ALA C   1      -1.662  21.164  31.982  1.00 23.94 LIG-0.07  N 
ATOM     27 H1   ALA C   1      -1.295  20.409  31.688  1.00 23.94 LIG 0.28  HD
ATOM     28 H3   ALA C   1      -1.787  21.110  32.861  1.00 23.94 LIG 0.28  HD
ATOM     29 H2   ALA C   1      -1.119  21.846  31.800  1.00 23.94 LIG 0.28  HD
ENDBRANCH 24 26
ENDBRANCH 22 24
ENDBRANCH 18 20
ENDBRANCH 1 18
TORSDOF 9
ENDMDL
MODEL 13
USER: ADFR SOLUTION from run 84
USER: SCORE 7.942947 LL:  -1.714 LR:  -6.417 RR:   0.000 FEB:  -3.732
USER: RMSD 3.110163
USER: SEED 83
USER: STATUS no improvement in best in 20 clusters for 5 generations
USER: GENES 11
USER: genes 0 Translation |==|  0.42104 0.43089 0.48609
USER: genes 1 Rotation |==|  0.40643 0.37788 0.79167 0.87584
USER: genes 2 Torsion [C]-N--CA-[CB] |==|  0.84984
USER: genes 3 Torsion [N]-CA--C-[N] |==|  0.42393
USER: genes 4 Torsion [C]-N--CA-[C] |==|  0.20444
USER: genes 5 Torsion [N]-CA--CB-[CG1] |==|  0.51925
USER: genes 6 Torsion [N]-CA--C-[O] |==|  0.20387
USER: genes 7 Torsion [N]-C--CA-[N] |==|  0.97541
USER: genes 8 Torsion [C]-CA--N-[C] |==|  0.79825
USER: genes 9 Torsion [N]-C--CA-[N] |==|  0.04869
USER: genes 10 Torsion [C]-CA--N-[H3] |==|  0.10201
ROOT
ATOM      1  C   ALA C   2      -7.115  17.331  31.529  1.00 14.06 LIG 0.24  C 
ATOM      2 O    ALA C   2      -5.990  16.903  31.767  1.00 12.98 LIG-0.27  OA
ATOM      3  N   ALA C   3      -7.393  18.066  30.460  1.00 13.94 LIG-0.35  N 
ATOM      4 H    ALA C   3      -8.176  18.373  30.281  1.00 13.94 LIG 0.16  HD
ENDROOT
BRANCH 3 5
ATOM      5  CA  ALA C   3      -6.367  18.419  29.481  1.00 13.65 LIG 0.17  C 
ATOM      6  CB  ALA C   3      -5.183  19.087  30.168  1.00 15.05 LIG 0.04  C 
BRANCH 5 7
ATOM      7  C   ALA C   3      -5.901  17.208  28.662  1.00 12.34 LIG 0.24  C 
ATOM      8  N   VAL C   4      -5.441  17.470  27.440  1.00 12.14 LIG-0.34  N 
ATOM      9 H    VAL C   4      -5.500  18.236  27.055  1.00 12.14 LIG 0.16  HD
ATOM     10 O    ALA C   3      -5.952  16.063  29.122  1.00 12.93 LIG-0.27  OA
BRANCH 8 11
ATOM     11  CA  VAL C   4      -4.785  16.440  26.647  1.00 11.36 LIG 0.19  C 
BRANCH 11 12
ATOM     12  CB  VAL C   4      -3.728  15.679  27.458  1.00 10.99 LIG 0.01  C 
ATOM     13  CG2 VAL C   4      -2.801  16.652  28.151  1.00 10.63 LIG 0.01  C 
ATOM     14  CG1 VAL C   4      -2.937  14.724  26.565  1.00  9.95 LIG 0.01  C 
ENDBRANCH 11 12
BRANCH 11 15
ATOM     15  C   VAL C   4      -5.858  15.472  26.154  1.00 12.38 LIG 0.20  C 
ATOM     16 O    VAL C   4      -6.620  15.847  25.250  1.00 12.95 LIG-0.65  OA
ATOM     17 OXT  VAL C   4      -5.953  14.328  26.636  1.00 15.04 LIG-0.65  OA
ENDBRANCH 11 15
ENDBRANCH 8 11
ENDBRANCH 5 7
ENDBRANCH 3 5
BRANCH 1 18
ATOM     18  CA  ALA C   2      -8.262  17.048  32.505  1.00 15.83 LIG 0.17  C 
ATOM     19  CB  ALA C   2      -8.585  15.557  32.578  1.00 17.22 LIG 0.04  C 
BRANCH 18 20
ATOM     20  N   ALA C   2      -9.470  17.817  32.206  1.00 18.67 LIG-0.35  N 
ATOM     21 H    ALA C   2     -10.113  17.353  31.873  1.00 18.67 LIG 0.16  HD
ATOM     22  C   ALA C   1      -9.542  19.128  32.442  1.00 21.34 LIG 0.25  C 
ATOM     23 O    ALA C   1      -8.610  19.775  32.941  1.00 22.28 LIG-0.27  OA
BRANCH 22 24
ATOM     24  CA  ALA C   1     -10.872  19.814  32.091  1.00 22.82 LIG 0.27  C 
ATOM     25  CB  ALA C   1     -11.231  20.870  33.147  1.00 23.12 LIG 0.05  C 
BRANCH 24 26
ATOM     26  N   ALA C   1     -11.994  18.846  31.934  1.00 23.94 LIG-0.07  N 
ATOM     27 H1   ALA C   1     -12.768  19.264  32.069  1.00 23.94 LIG 0.28  HD
ATOM     28 H3   ALA C   1     -11.905  18.189  32.528  1.00 23.94 LIG 0.28  HD
ATOM     29 H2   ALA C   1     -11.981  18.506  31.112  1.00 23.94 LIG 0.28  HD
ENDBRANCH 24 26
ENDBRANCH 22 24
ENDBRANCH 18 20
ENDBRANCH 1 18
TORSDOF 9
ENDMDL
MODEL 14
USER: ADFR SOLUTION from run 26
USER: SCORE 6.775525 LL:  -1.767 LR:  -6.341 RR:   0.000 FEB:  -3.656
USER: RMSD 4.471324
USER: SEED 25
USER: STATUS no improvement in best in 28 clusters for 5 generations
USER: GENES 11
USER: genes 0 Translation |==|  0.35697 0.37986 0.53696
USER: genes 1 Rotation |==|  0.67905 0.47374 0.45666 0.96408
USER: genes 2 Torsion [C]-N--CA-[CB] |==|  0.47248
USER: genes 3 Torsion [N]-CA--C-[N] |==|  0.42345
USER: genes 4 Torsion [C]-N--CA-[C] |==|  0.23060
USER: genes 5 Torsion [N]-CA--CB-[CG1] |==|  0.46274
USER: genes 6 Torsion [N]-CA--C-[O] |==|  0.77731
USER: genes 7 Torsion [N]-C--CA-[N] |==|  0.58123
USER: genes 8 Torsion [C]-CA--N-[C] |==|  0.67332
USER: genes 9 Torsion [N]-C--CA-[N] |==|  0.89410
USER: genes 10 Torsion [C]-CA--N-[H3] |==|  0.31300
ROOT
ATOM      1  C   ALA C   2      -8.124  16.489  32.444  1.00 14.06 LIG 0.24  C 
ATOM      2 O    ALA C   2      -8.339  16.004  31.338  1.00 12.98 LIG-0.27  OA
ATOM      3  N   ALA C   3      -7.400  17.587  32.619  1.00 13.94 LIG-0.35  N 
ATOM      4 H    ALA C   3      -7.240  17.937  33.388  1.00 13.94 LIG 0.16  HD
ENDROOT
BRANCH 3 5
ATOM      5  CA  ALA C   3      -6.804  18.303  31.493  1.00 13.65 LIG 0.17  C 
ATOM      6  CB  ALA C   3      -6.243  19.643  31.953  1.00 15.05 LIG 0.04  C 
BRANCH 5 7
ATOM      7  C   ALA C   3      -5.719  17.479  30.788  1.00 12.34 LIG 0.24  C 
ATOM      8  N   VAL C   4      -5.527  17.747  29.497  1.00 12.14 LIG-0.34  N 
ATOM      9 H    VAL C   4      -6.040  18.253  29.027  1.00 12.14 LIG 0.16  HD
ATOM     10 O    ALA C   3      -5.067  16.622  31.392  1.00 12.93 LIG-0.27  OA
BRANCH 8 11
ATOM     11  CA  VAL C   4      -4.399  17.183  28.770  1.00 11.36 LIG 0.19  C 
BRANCH 11 12
ATOM     12  CB  VAL C   4      -3.132  17.130  29.634  1.00 10.99 LIG 0.01  C 
ATOM     13  CG2 VAL C   4      -2.599  18.526  29.865  1.00 10.63 LIG 0.01  C 
ATOM     14  CG1 VAL C   4      -2.066  16.247  28.985  1.00  9.95 LIG 0.01  C 
ENDBRANCH 11 12
BRANCH 11 15
ATOM     15  C   VAL C   4      -4.784  15.774  28.326  1.00 12.38 LIG 0.20  C 
ATOM     16 O    VAL C   4      -4.707  14.853  29.154  1.00 12.95 LIG-0.65  OA
ATOM     17 OXT  VAL C   4      -5.184  15.559  27.167  1.00 15.04 LIG-0.65  OA
ENDBRANCH 11 15
ENDBRANCH 8 11
ENDBRANCH 5 7
ENDBRANCH 3 5
BRANCH 1 18
ATOM     18  CA  ALA C   2      -8.674  15.803  33.699  1.00 15.83 LIG 0.17  C 
ATOM     19  CB  ALA C   2      -7.818  16.105  34.928  1.00 17.22 LIG 0.04  C 
BRANCH 18 20
ATOM     20  N   ALA C   2      -8.838  14.358  33.537  1.00 18.67 LIG-0.35  N 
ATOM     21 H    ALA C   2      -8.105  13.932  33.387  1.00 18.67 LIG 0.16  HD
ATOM     22  C   ALA C   1     -10.035  13.775  33.620  1.00 21.34 LIG 0.25  C 
ATOM     23 O    ALA C   1     -11.076  14.406  33.855  1.00 22.28 LIG-0.27  OA
BRANCH 22 24
ATOM     24  CA  ALA C   1     -10.067  12.249  33.439  1.00 22.82 LIG 0.27  C 
ATOM     25  CB  ALA C   1      -9.787  11.540  34.771  1.00 23.12 LIG 0.05  C 
BRANCH 24 26
ATOM     26  N   ALA C   1      -9.113  11.774  32.396  1.00 23.94 LIG-0.07  N 
ATOM     27 H1   ALA C   1      -9.546  11.265  31.808  1.00 23.94 LIG 0.28  HD
ATOM     28 H3   ALA C   1      -8.466  11.299  32.780  1.00 23.94 LIG 0.28  HD
ATOM     29 H2   ALA C   1      -8.759  12.474  31.977  1.00 23.94 LIG 0.28  HD
ENDBRANCH 24 26
ENDBRANCH 22 24
ENDBRANCH 18 20
ENDBRANCH 1 18
TORSDOF 9
ENDMDL
MODEL 15
USER: ADFR SOLUTION from run 35
USER: SCORE 7.498518 LL:  -1.974 LR:  -6.302 RR:   0.000 FEB:  -3.617
USER: RMSD 3.160041
USER: SEED 34
USER: STATUS no improvement in best in 9 clusters for 5 generations
USER: GENES 11
USER: genes 0 Translation |==|  0.39135 0.41007 0.45757
USER: genes 1 Rotation |==|  0.36656 0.52634 0.74750 0.91260
USER: genes 2 Torsion [C]-N--CA-[CB] |==|  0.50565
USER: genes 3 Torsion [N]-CA--C-[N] |==|  0.35511
USER: genes 4 Torsion [C]-N--CA-[C] |==|  0.60393
USER: genes 5 Torsion [N]-CA--CB-[CG1] |==|  0.59674
USER: genes 6 Torsion [N]-CA--C-[O] |==|  0.51780
USER: genes 7 Torsion [N]-C--CA-[N] |==|  0.04824
USER: genes 8 Torsion [C]-CA--N-[C] |==|  0.75862
USER: genes 9 Torsion [N]-C--CA-[N] |==|  0.01884
USER: genes 10 Torsion [C]-CA--N-[H3] |==|  0.05251
ROOT
ATOM      1  C   ALA C   2      -7.582  16.987  31.015  1.00 14.06 LIG 0.24  C 
ATOM      2 O    ALA C   2      -6.627  16.224  31.111  1.00 12.98 LIG-0.27  OA
ATOM      3  N   ALA C   3      -8.057  17.401  29.848  1.00 13.94 LIG-0.35  N 
ATOM      4 H    ALA C   3      -8.725  17.937  29.766  1.00 13.94 LIG 0.16  HD
ENDROOT
BRANCH 3 5
ATOM      5  CA  ALA C   3      -7.469  16.971  28.581  1.00 13.65 LIG 0.17  C 
ATOM      6  CB  ALA C   3      -8.181  17.638  27.411  1.00 15.05 LIG 0.04  C 
BRANCH 5 7
ATOM      7  C   ALA C   3      -5.960  17.240  28.518  1.00 12.34 LIG 0.24  C 
ATOM      8  N   VAL C   4      -5.194  16.203  28.186  1.00 12.14 LIG-0.34  N 
ATOM      9 H    VAL C   4      -5.477  15.393  28.125  1.00 12.14 LIG 0.16  HD
ATOM     10 O    ALA C   3      -5.496  18.359  28.760  1.00 12.93 LIG-0.27  OA
BRANCH 8 11
ATOM     11  CA  VAL C   4      -3.778  16.375  27.896  1.00 11.36 LIG 0.19  C 
BRANCH 11 12
ATOM     12  CB  VAL C   4      -2.902  16.076  29.120  1.00 10.99 LIG 0.01  C 
ATOM     13  CG2 VAL C   4      -3.712  16.221  30.389  1.00 10.63 LIG 0.01  C 
ATOM     14  CG1 VAL C   4      -1.680  16.994  29.154  1.00  9.95 LIG 0.01  C 
ENDBRANCH 11 12
BRANCH 11 15
ATOM     15  C   VAL C   4      -3.414  15.430  26.754  1.00 12.38 LIG 0.20  C 
ATOM     16 O    VAL C   4      -2.221  15.330  26.429  1.00 12.95 LIG-0.65  OA
ATOM     17 OXT  VAL C   4      -4.291  14.761  26.177  1.00 15.04 LIG-0.65  OA
ENDBRANCH 11 15
ENDBRANCH 8 11
ENDBRANCH 5 7
ENDBRANCH 3 5
BRANCH 1 18
ATOM     18  CA  ALA C   2      -8.257  17.528  32.280  1.00 15.83 LIG 0.17  C 
ATOM     19  CB  ALA C   2      -8.348  16.462  33.370  1.00 17.22 LIG 0.04  C 
BRANCH 18 20
ATOM     20  N   ALA C   2      -9.576  18.107  32.023  1.00 18.67 LIG-0.35  N 
ATOM     21 H    ALA C   2     -10.231  17.558  32.124  1.00 18.67 LIG 0.16  HD
ATOM     22  C   ALA C   1      -9.723  19.383  31.663  1.00 21.34 LIG 0.25  C 
ATOM     23 O    ALA C   1      -8.767  20.162  31.540  1.00 22.28 LIG-0.27  OA
BRANCH 22 24
ATOM     24  CA  ALA C   1     -11.163  19.867  31.431  1.00 22.82 LIG 0.27  C 
ATOM     25  CB  ALA C   1     -11.422  21.176  32.191  1.00 23.12 LIG 0.05  C 
BRANCH 24 26
ATOM     26  N   ALA C   1     -12.181  18.846  31.810  1.00 23.94 LIG-0.07  N 
ATOM     27 H1   ALA C   1     -12.859  19.243  32.228  1.00 23.94 LIG 0.28  HD
ATOM     28 H3   ALA C   1     -11.810  18.245  32.353  1.00 23.94 LIG 0.28  HD
ATOM     29 H2   ALA C   1     -12.481  18.440  31.078  1.00 23.94 LIG 0.28  HD
ENDBRANCH 24 26
ENDBRANCH 22 24
ENDBRANCH 18 20
ENDBRANCH 1 18
TORSDOF 9
ENDMDL
MODEL 16
USER: ADFR SOLUTION from run 196
USER: SCORE 7.603149 LL:  -2.016 LR:  -6.288 RR:   0.000 FEB:  -3.603
USER: RMSD 3.354384
USER: SEED 195
USER: STATUS no improvement in best in 28 clusters for 5 generations
USER: GENES 11
USER: genes 0 Translation |==|  0.38090 0.46970 0.40439
USER: genes 1 Rotation |==|  0.36900 0.54165 0.96891 0.60595
USER: genes 2 Torsion [C]-N--CA-[CB] |==|  0.86239
USER: genes 3 Torsion [N]-CA--C-[N] |==|  0.92024
USER: genes 4 Torsion [C]-N--CA-[C] |==|  0.52557
USER: genes 5 Torsion [N]-CA--CB-[CG1] |==|  0.22893
USER: genes 6 Torsion [N]-CA--C-[O] |==|  0.53174
USER: genes 7 Torsion [N]-C--CA-[N] |==|  0.80557
USER: genes 8 Torsion [C]-CA--N-[C] |==|  0.81075
USER: genes 9 Torsion [N]-C--CA-[N] |==|  0.97140
USER: genes 10 Torsion [C]-CA--N-[H3] |==|  0.10879
ROOT
ATOM      1  C   ALA C   2      -7.747  17.971  30.058  1.00 14.06 LIG 0.24  C 
ATOM      2 O    ALA C   2      -6.920  18.801  29.694  1.00 12.98 LIG-0.27  OA
ATOM      3  N   ALA C   3      -8.253  17.056  29.242  1.00 13.94 LIG-0.35  N 
ATOM      4 H    ALA C   3      -8.833  16.469  29.483  1.00 13.94 LIG 0.16  HD
ENDROOT
BRANCH 3 5
ATOM      5  CA  ALA C   3      -7.855  16.971  27.838  1.00 13.65 LIG 0.17  C 
ATOM      6  CB  ALA C   3      -7.940  18.341  27.178  1.00 15.05 LIG 0.04  C 
BRANCH 5 7
ATOM      7  C   ALA C   3      -6.452  16.376  27.666  1.00 12.34 LIG 0.24  C 
ATOM      8  N   VAL C   4      -5.603  16.575  28.674  1.00 12.14 LIG-0.34  N 
ATOM      9 H    VAL C   4      -5.756  17.100  29.337  1.00 12.14 LIG 0.16  HD
ATOM     10 O    ALA C   3      -6.139  15.750  26.648  1.00 12.93 LIG-0.27  OA
BRANCH 8 11
ATOM     11  CA  VAL C   4      -4.318  15.894  28.721  1.00 11.36 LIG 0.19  C 
BRANCH 11 12
ATOM     12  CB  VAL C   4      -3.369  16.385  27.619  1.00 10.99 LIG 0.01  C 
ATOM     13  CG2 VAL C   4      -2.357  15.312  27.286  1.00 10.63 LIG 0.01  C 
ATOM     14  CG1 VAL C   4      -2.668  17.677  28.038  1.00  9.95 LIG 0.01  C 
ENDBRANCH 11 12
BRANCH 11 15
ATOM     15  C   VAL C   4      -3.699  16.154  30.092  1.00 12.38 LIG 0.20  C 
ATOM     16 O    VAL C   4      -2.510  15.846  30.270  1.00 12.95 LIG-0.65  OA
ATOM     17 OXT  VAL C   4      -4.366  16.679  31.003  1.00 15.04 LIG-0.65  OA
ENDBRANCH 11 15
ENDBRANCH 8 11
ENDBRANCH 5 7
ENDBRANCH 3 5
BRANCH 1 18
ATOM     18  CA  ALA C   2      -8.260  17.986  31.502  1.00 15.83 LIG 0.17  C 
ATOM     19  CB  ALA C   2      -8.094  16.625  32.174  1.00 17.22 LIG 0.04  C 
BRANCH 18 20
ATOM     20  N   ALA C   2      -9.646  18.442  31.612  1.00 18.67 LIG-0.35  N 
ATOM     21 H    ALA C   2     -10.203  17.832  31.853  1.00 18.67 LIG 0.16  HD
ATOM     22  C   ALA C   1      -9.991  19.705  31.354  1.00 21.34 LIG 0.25  C 
ATOM     23 O    ALA C   1      -9.170  20.573  31.025  1.00 22.28 LIG-0.27  OA
BRANCH 22 24
ATOM     24  CA  ALA C   1     -11.479  20.055  31.516  1.00 22.82 LIG 0.27  C 
ATOM     25  CB  ALA C   1     -11.681  21.031  32.683  1.00 23.12 LIG 0.05  C 
BRANCH 24 26
ATOM     26  N   ALA C   1     -12.335  18.849  31.704  1.00 23.94 LIG-0.07  N 
ATOM     27 H1   ALA C   1     -13.103  19.087  32.085  1.00 23.94 LIG 0.28  HD
ATOM     28 H3   ALA C   1     -11.914  18.264  32.226  1.00 23.94 LIG 0.28  HD
ATOM     29 H2   ALA C   1     -12.501  18.476  30.913  1.00 23.94 LIG 0.28  HD
ENDBRANCH 24 26
ENDBRANCH 22 24
ENDBRANCH 18 20
ENDBRANCH 1 18
TORSDOF 9
ENDMDL
MODEL 17
USER: ADFR SOLUTION from run 103
USER: SCORE 7.507135 LL:  -1.844 LR:  -6.272 RR:   0.000 FEB:  -3.587
USER: RMSD 3.659055
USER: SEED 102
USER: STATUS no improvement in best in 11 clusters for 5 generations
USER: GENES 11
USER: genes 0 Translation |==|  0.52294 0.52334 0.50106
USER: genes 1 Rotation |==|  0.32743 0.72138 0.74419 0.83404
USER: genes 2 Torsion [C]-N--CA-[CB] |==|  0.48934
USER: genes 3 Torsion [N]-CA--C-[N] |==|  0.47662
USER: genes 4 Torsion [C]-N--CA-[C] |==|  0.73562
USER: genes 5 Torsion [N]-CA--CB-[CG1] |==|  0.57473
USER: genes 6 Torsion [N]-CA--C-[O] |==|  0.29398
USER: genes 7 Torsion [N]-C--CA-[N] |==|  0.43821
USER: genes 8 Torsion [C]-CA--N-[C] |==|  0.73874
USER: genes 9 Torsion [N]-C--CA-[N] |==|  0.05908
USER: genes 10 Torsion [C]-CA--N-[H3] |==|  0.14527
ROOT
ATOM      1  C   ALA C   2      -5.510  18.856  31.798  1.00 14.06 LIG 0.24  C 
ATOM      2 O    ALA C   2      -4.570  18.068  31.802  1.00 12.98 LIG-0.27  OA
ATOM      3  N   ALA C   3      -6.589  18.684  31.047  1.00 13.94 LIG-0.35  N 
ATOM      4 H    ALA C   3      -7.255  19.229  31.033  1.00 13.94 LIG 0.16  HD
ENDROOT
BRANCH 3 5
ATOM      5  CA  ALA C   3      -6.736  17.530  30.162  1.00 13.65 LIG 0.17  C 
ATOM      6  CB  ALA C   3      -8.105  17.541  29.496  1.00 15.05 LIG 0.04  C 
BRANCH 5 7
ATOM      7  C   ALA C   3      -5.625  17.461  29.106  1.00 12.34 LIG 0.24  C 
ATOM      8  N   VAL C   4      -5.583  16.350  28.372  1.00 12.14 LIG-0.34  N 
ATOM      9 H    VAL C   4      -6.052  15.647  28.532  1.00 12.14 LIG 0.16  HD
ATOM     10 O    ALA C   3      -4.823  18.388  28.954  1.00 12.93 LIG-0.27  OA
BRANCH 8 11
ATOM     11  CA  VAL C   4      -4.711  16.248  27.211  1.00 11.36 LIG 0.19  C 
BRANCH 11 12
ATOM     12  CB  VAL C   4      -4.127  14.837  27.056  1.00 10.99 LIG 0.01  C 
ATOM     13  CG2 VAL C   4      -3.972  14.185  28.412  1.00 10.63 LIG 0.01  C 
ATOM     14  CG1 VAL C   4      -2.787  14.879  26.323  1.00  9.95 LIG 0.01  C 
ENDBRANCH 11 12
BRANCH 11 15
ATOM     15  C   VAL C   4      -5.532  16.608  25.975  1.00 12.38 LIG 0.20  C 
ATOM     16 O    VAL C   4      -5.339  17.710  25.440  1.00 12.95 LIG-0.65  OA
ATOM     17 OXT  VAL C   4      -6.360  15.806  25.504  1.00 15.04 LIG-0.65  OA
ENDBRANCH 11 15
ENDBRANCH 8 11
ENDBRANCH 5 7
ENDBRANCH 3 5
BRANCH 1 18
ATOM     18  CA  ALA C   2      -5.450  20.119  32.664  1.00 15.83 LIG 0.17  C 
ATOM     19  CB  ALA C   2      -5.099  21.354  31.836  1.00 17.22 LIG 0.04  C 
BRANCH 18 20
ATOM     20  N   ALA C   2      -4.538  19.993  33.801  1.00 18.67 LIG-0.35  N 
ATOM     21 H    ALA C   2      -3.719  20.184  33.621  1.00 18.67 LIG 0.16  HD
ATOM     22  C   ALA C   1      -4.968  19.610  35.005  1.00 21.34 LIG 0.25  C 
ATOM     23 O    ALA C   1      -6.157  19.356  35.246  1.00 22.28 LIG-0.27  OA
BRANCH 22 24
ATOM     24  CA  ALA C   1      -3.908  19.525  36.114  1.00 22.82 LIG 0.27  C 
ATOM     25  CB  ALA C   1      -4.506  19.939  37.466  1.00 23.12 LIG 0.05  C 
BRANCH 24 26
ATOM     26  N   ALA C   1      -2.699  20.345  35.817  1.00 23.94 LIG-0.07  N 
ATOM     27 H1   ALA C   1      -2.165  20.356  36.529  1.00 23.94 LIG 0.28  HD
ATOM     28 H3   ALA C   1      -2.945  21.177  35.619  1.00 23.94 LIG 0.28  HD
ATOM     29 H2   ALA C   1      -2.263  19.992  35.127  1.00 23.94 LIG 0.28  HD
ENDBRANCH 24 26
ENDBRANCH 22 24
ENDBRANCH 18 20
ENDBRANCH 1 18
TORSDOF 9
ENDMDL
MODEL 18
USER: ADFR SOLUTION from run 188
USER: SCORE 7.803783 LL:  -1.892 LR:  -6.272 RR:   0.000 FEB:  -3.587
USER: RMSD 4.517982
USER: SEED 187
USER: STATUS no improvement in best in 21 clusters for 5 generations
USER: GENES 11
USER: genes 0 Translation |==|  0.50337 0.50047 0.50143
USER: genes 1 Rotation |==|  0.34241 0.49635 0.44421 0.97121
USER: genes 2 Torsion [C]-N--CA-[CB] |==|  0.84264
USER: genes 3 Torsion [N]-CA--C-[N] |==|  0.36213
USER: genes 4 Torsion [C]-N--CA-[C] |==|  0.61711
USER: genes 5 Torsion [N]-CA--CB-[CG1] |==|  0.76266
USER: genes 6 Torsion [N]-CA--C-[O] |==|  0.13648
USER: genes 7 Torsion [N]-C--CA-[N] |==|  0.89859
USER: genes 8 Torsion [C]-CA--N-[C] |==|  0.73202
USER: genes 9 Torsion [N]-C--CA-[N] |==|  0.80681
USER: genes 10 Torsion [C]-CA--N-[H3] |==|  0.31334
ROOT
ATOM      1  C   ALA C   2      -5.818  18.479  31.805  1.00 14.06 LIG 0.24  C 
ATOM      2 O    ALA C   2      -6.236  17.361  32.087  1.00 12.98 LIG-0.27  OA
ATOM      3  N   ALA C   3      -5.157  18.738  30.684  1.00 13.94 LIG-0.35  N 
ATOM      4 H    ALA C   3      -4.858  19.516  30.474  1.00 13.94 LIG 0.16  HD
ENDROOT
BRANCH 3 5
ATOM      5  CA  ALA C   3      -4.879  17.697  29.696  1.00 13.65 LIG 0.17  C 
ATOM      6  CB  ALA C   3      -4.117  16.545  30.338  1.00 15.05 LIG 0.04  C 
BRANCH 5 7
ATOM      7  C   ALA C   3      -6.155  17.185  29.015  1.00 12.34 LIG 0.24  C 
ATOM      8  N   VAL C   4      -6.129  17.136  27.684  1.00 12.14 LIG-0.34  N 
ATOM      9 H    VAL C   4      -5.504  17.475  27.201  1.00 12.14 LIG 0.16  HD
ATOM     10 O    ALA C   3      -7.141  16.839  29.673  1.00 12.93 LIG-0.27  OA
BRANCH 8 11
ATOM     11  CA  VAL C   4      -7.192  16.484  26.934  1.00 11.36 LIG 0.19  C 
BRANCH 11 12
ATOM     12  CB  VAL C   4      -8.182  17.498  26.345  1.00 10.99 LIG 0.01  C 
ATOM     13  CG2 VAL C   4      -7.447  18.735  25.880  1.00 10.63 LIG 0.01  C 
ATOM     14  CG1 VAL C   4      -9.260  17.864  27.365  1.00  9.95 LIG 0.01  C 
ENDBRANCH 11 12
BRANCH 11 15
ATOM     15  C   VAL C   4      -6.547  15.676  25.811  1.00 12.38 LIG 0.20  C 
ATOM     16 O    VAL C   4      -5.602  14.923  26.093  1.00 12.95 LIG-0.65  OA
ATOM     17 OXT  VAL C   4      -6.972  15.757  24.643  1.00 15.04 LIG-0.65  OA
ENDBRANCH 11 15
ENDBRANCH 8 11
ENDBRANCH 5 7
ENDBRANCH 3 5
BRANCH 1 18
ATOM     18  CA  ALA C   2      -6.024  19.640  32.783  1.00 15.83 LIG 0.17  C 
ATOM     19  CB  ALA C   2      -7.305  20.415  32.476  1.00 17.22 LIG 0.04  C 
BRANCH 18 20
ATOM     20  N   ALA C   2      -4.881  20.551  32.840  1.00 18.67 LIG-0.35  N 
ATOM     21 H    ALA C   2      -4.872  21.149  32.222  1.00 18.67 LIG 0.16  HD
ATOM     22  C   ALA C   1      -3.944  20.440  33.784  1.00 21.34 LIG 0.25  C 
ATOM     23 O    ALA C   1      -3.986  19.581  34.677  1.00 22.28 LIG-0.27  OA
BRANCH 22 24
ATOM     24  CA  ALA C   1      -2.800  21.466  33.736  1.00 22.82 LIG 0.27  C 
ATOM     25  CB  ALA C   1      -3.357  22.896  33.730  1.00 23.12 LIG 0.05  C 
BRANCH 24 26
ATOM     26  N   ALA C   1      -1.896  21.264  32.568  1.00 23.94 LIG-0.07  N 
ATOM     27 H1   ALA C   1      -1.054  21.211  32.850  1.00 23.94 LIG 0.28  HD
ATOM     28 H3   ALA C   1      -1.978  21.950  32.007  1.00 23.94 LIG 0.28  HD
ATOM     29 H2   ALA C   1      -2.116  20.510  32.149  1.00 23.94 LIG 0.28  HD
ENDBRANCH 24 26
ENDBRANCH 22 24
ENDBRANCH 18 20
ENDBRANCH 1 18
TORSDOF 9
ENDMDL
MODEL 19
USER: ADFR SOLUTION from run 64
USER: SCORE 6.841707 LL:  -1.802 LR:  -6.265 RR:   0.000 FEB:  -3.580
USER: RMSD 2.819020
USER: SEED 63
USER: STATUS no improvement in best in 21 clusters for 5 generations
USER: GENES 11
USER: genes 0 Translation |==|  0.34928 0.38427 0.52821
USER: genes 1 Rotation |==|  0.48728 0.42225 0.40913 0.98532
USER: genes 2 Torsion [C]-N--CA-[CB] |==|  0.20775
USER: genes 3 Torsion [N]-CA--C-[N] |==|  0.60118
USER: genes 4 Torsion [C]-N--CA-[C] |==|  0.49938
USER: genes 5 Torsion [N]-CA--CB-[CG1] |==|  0.19441
USER: genes 6 Torsion [N]-CA--C-[O] |==|  0.43136
USER: genes 7 Torsion [N]-C--CA-[N] |==|  0.31261
USER: genes 8 Torsion [C]-CA--N-[C] |==|  0.59059
USER: genes 9 Torsion [N]-C--CA-[N] |==|  0.94555
USER: genes 10 Torsion [C]-CA--N-[H3] |==|  0.24082
ROOT
ATOM      1  C   ALA C   2      -8.245  16.561  32.287  1.00 14.06 LIG 0.24  C 
ATOM      2 O    ALA C   2      -8.651  15.516  31.790  1.00 12.98 LIG-0.27  OA
ATOM      3  N   ALA C   3      -7.235  17.254  31.778  1.00 13.94 LIG-0.35  N 
ATOM      4 H    ALA C   3      -6.939  17.988  32.115  1.00 13.94 LIG 0.16  HD
ENDROOT
BRANCH 3 5
ATOM      5  CA  ALA C   3      -6.529  16.816  30.575  1.00 13.65 LIG 0.17  C 
ATOM      6  CB  ALA C   3      -7.379  17.072  29.337  1.00 15.05 LIG 0.04  C 
BRANCH 5 7
ATOM      7  C   ALA C   3      -5.155  17.482  30.431  1.00 12.34 LIG 0.24  C 
ATOM      8  N   VAL C   4      -4.777  17.784  29.189  1.00 12.14 LIG-0.34  N 
ATOM      9 H    VAL C   4      -5.194  17.527  28.482  1.00 12.14 LIG 0.16  HD
ATOM     10 O    ALA C   3      -4.449  17.721  31.416  1.00 12.93 LIG-0.27  OA
BRANCH 8 11
ATOM     11  CA  VAL C   4      -3.595  18.595  28.938  1.00 11.36 LIG 0.19  C 
BRANCH 11 12
ATOM     12  CB  VAL C   4      -2.329  17.960  29.529  1.00 10.99 LIG 0.01  C 
ATOM     13  CG2 VAL C   4      -1.195  18.960  29.529  1.00 10.63 LIG 0.01  C 
ATOM     14  CG1 VAL C   4      -1.938  16.702  28.755  1.00  9.95 LIG 0.01  C 
ENDBRANCH 11 12
BRANCH 11 15
ATOM     15  C   VAL C   4      -3.443  18.748  27.427  1.00 12.38 LIG 0.20  C 
ATOM     16 O    VAL C   4      -2.826  19.733  26.993  1.00 12.95 LIG-0.65  OA
ATOM     17 OXT  VAL C   4      -3.910  17.893  26.650  1.00 15.04 LIG-0.65  OA
ENDBRANCH 11 15
ENDBRANCH 8 11
ENDBRANCH 5 7
ENDBRANCH 3 5
BRANCH 1 18
ATOM     18  CA  ALA C   2      -8.890  17.099  33.569  1.00 15.83 LIG 0.17  C 
ATOM     19  CB  ALA C   2      -8.841  16.072  34.698  1.00 17.22 LIG 0.04  C 
BRANCH 18 20
ATOM     20  N   ALA C   2     -10.261  17.569  33.367  1.00 18.67 LIG-0.35  N 
ATOM     21 H    ALA C   2     -10.700  17.135  32.768  1.00 18.67 LIG 0.16  HD
ATOM     22  C   ALA C   1     -10.763  18.588  34.067  1.00 21.34 LIG 0.25  C 
ATOM     23 O    ALA C   1     -10.118  19.188  34.938  1.00 22.28 LIG-0.27  OA
BRANCH 22 24
ATOM     24  CA  ALA C   1     -12.219  18.975  33.763  1.00 22.82 LIG 0.27  C 
ATOM     25  CB  ALA C   1     -13.154  18.476  34.873  1.00 23.12 LIG 0.05  C 
BRANCH 24 26
ATOM     26  N   ALA C   1     -12.683  18.472  32.439  1.00 23.94 LIG-0.07  N 
ATOM     27 H1   ALA C   1     -13.328  19.000  32.130  1.00 23.94 LIG 0.28  HD
ATOM     28 H3   ALA C   1     -12.996  17.643  32.529  1.00 23.94 LIG 0.28  HD
ATOM     29 H2   ALA C   1     -12.002  18.471  31.866  1.00 23.94 LIG 0.28  HD
ENDBRANCH 24 26
ENDBRANCH 22 24
ENDBRANCH 18 20
ENDBRANCH 1 18
TORSDOF 9
ENDMDL
MODEL 20
USER: ADFR SOLUTION from run 89
USER: SCORE 7.922411 LL:  -1.989 LR:  -6.220 RR:   0.000 FEB:  -3.535
USER: RMSD 3.659490
USER: SEED 88
USER: STATUS no improvement in best in 21 clusters for 5 generations
USER: GENES 11
USER: genes 0 Translation |==|  0.34788 0.41539 0.48854
USER: genes 1 Rotation |==|  0.39952 0.52817 0.73194 0.93048
USER: genes 2 Torsion [C]-N--CA-[CB] |==|  0.52778
USER: genes 3 Torsion [N]-CA--C-[N] |==|  0.41308
USER: genes 4 Torsion [C]-N--CA-[C] |==|  0.59655
USER: genes 5 Torsion [N]-CA--CB-[CG1] |==|  0.19389
USER: genes 6 Torsion [N]-CA--C-[O] |==|  0.93349
USER: genes 7 Torsion [N]-C--CA-[N] |==|  0.40944
USER: genes 8 Torsion [C]-CA--N-[C] |==|  0.84843
USER: genes 9 Torsion [N]-C--CA-[N] |==|  0.68717
USER: genes 10 Torsion [C]-CA--N-[H3] |==|  0.20381
ROOT
ATOM      1  C   ALA C   2      -8.267  17.075  31.573  1.00 14.06 LIG 0.24  C 
ATOM      2 O    ALA C   2      -7.388  16.221  31.523  1.00 12.98 LIG-0.27  OA
ATOM      3  N   ALA C   3      -8.751  17.672  30.492  1.00 13.94 LIG-0.35  N 
ATOM      4 H    ALA C   3      -9.366  18.272  30.511  1.00 13.94 LIG 0.16  HD
ENDROOT
BRANCH 3 5
ATOM      5  CA  ALA C   3      -8.266  17.348  29.151  1.00 13.65 LIG 0.17  C 
ATOM      6  CB  ALA C   3      -8.809  18.344  28.134  1.00 15.05 LIG 0.04  C 
BRANCH 5 7
ATOM      7  C   ALA C   3      -6.734  17.292  29.084  1.00 12.34 LIG 0.24  C 
ATOM      8  N   VAL C   4      -6.218  16.436  28.204  1.00 12.14 LIG-0.34  N 
ATOM      9 H    VAL C   4      -6.677  15.850  27.773  1.00 12.14 LIG 0.16  HD
ATOM     10 O    ALA C   3      -6.032  18.005  29.808  1.00 12.93 LIG-0.27  OA
BRANCH 8 11
ATOM     11  CA  VAL C   4      -4.794  16.434  27.902  1.00 11.36 LIG 0.19  C 
BRANCH 11 12
ATOM     12  CB  VAL C   4      -4.027  15.424  28.766  1.00 10.99 LIG 0.01  C 
ATOM     13  CG2 VAL C   4      -2.538  15.665  28.652  1.00 10.63 LIG 0.01  C 
ATOM     14  CG1 VAL C   4      -4.373  13.990  28.365  1.00  9.95 LIG 0.01  C 
ENDBRANCH 11 12
BRANCH 11 15
ATOM     15  C   VAL C   4      -4.627  16.087  26.425  1.00 12.38 LIG 0.20  C 
ATOM     16 O    VAL C   4      -5.531  15.449  25.863  1.00 12.95 LIG-0.65  OA
ATOM     17 OXT  VAL C   4      -3.616  16.451  25.795  1.00 15.04 LIG-0.65  OA
ENDBRANCH 11 15
ENDBRANCH 8 11
ENDBRANCH 5 7
ENDBRANCH 3 5
BRANCH 1 18
ATOM     18  CA  ALA C   2      -8.828  17.516  32.929  1.00 15.83 LIG 0.17  C 
ATOM     19  CB  ALA C   2      -8.062  18.711  33.494  1.00 17.22 LIG 0.04  C 
BRANCH 18 20
ATOM     20  N   ALA C   2      -8.874  16.432  33.910  1.00 18.67 LIG-0.35  N 
ATOM     21 H    ALA C   2      -8.471  16.604  34.650  1.00 18.67 LIG 0.16  HD
ATOM     22  C   ALA C   1      -9.497  15.280  33.652  1.00 21.34 LIG 0.25  C 
ATOM     23 O    ALA C   1     -10.088  15.058  32.585  1.00 22.28 LIG-0.27  OA
BRANCH 22 24
ATOM     24  CA  ALA C   1      -9.479  14.227  34.771  1.00 22.82 LIG 0.27  C 
ATOM     25  CB  ALA C   1      -8.962  14.839  36.081  1.00 23.12 LIG 0.05  C 
BRANCH 24 26
ATOM     26  N   ALA C   1      -8.672  13.025  34.416  1.00 23.94 LIG-0.07  N 
ATOM     27 H1   ALA C   1      -8.843  12.371  34.994  1.00 23.94 LIG 0.28  HD
ATOM     28 H3   ALA C   1      -7.806  13.228  34.446  1.00 23.94 LIG 0.28  HD
ATOM     29 H2   ALA C   1      -8.885  12.756  33.595  1.00 23.94 LIG 0.28  HD
ENDBRANCH 24 26
ENDBRANCH 22 24
ENDBRANCH 18 20
ENDBRANCH 1 18
TORSDOF 9
ENDMDL
MODEL 21
USER: ADFR SOLUTION from run 168
USER: SCORE 7.459506 LL:  -1.923 LR:  -6.178 RR:   0.000 FEB:  -3.493
USER: RMSD 3.388579
USER: SEED 167
USER: STATUS no improvement in best in 29 clusters for 5 generations
USER: GENES 11
USER: genes 0 Translation |==|  0.34603 0.36785 0.55286
USER: genes 1 Rotation |==|  0.52331 0.50039 0.65539 0.97467
USER: genes 2 Torsion [C]-N--CA-[CB] |==|  0.51667
USER: genes 3 Torsion [N]-CA--C-[N] |==|  0.43328
USER: genes 4 Torsion [C]-N--CA-[C] |==|  0.51804
USER: genes 5 Torsion [N]-CA--CB-[CG1] |==|  0.28430
USER: genes 6 Torsion [N]-CA--C-[O] |==|  0.44554
USER: genes 7 Torsion [N]-C--CA-[N] |==|  0.15232
USER: genes 8 Torsion [C]-CA--N-[C] |==|  0.18665
USER: genes 9 Torsion [N]-C--CA-[N] |==|  0.23989
USER: genes 10 Torsion [C]-CA--N-[H3] |==|  0.91193
ROOT
ATOM      1  C   ALA C   2      -8.296  16.291  32.731  1.00 14.06 LIG 0.24  C 
ATOM      2 O    ALA C   2      -7.771  15.338  32.164  1.00 12.98 LIG-0.27  OA
ATOM      3  N   ALA C   3      -8.511  17.454  32.131  1.00 13.94 LIG-0.35  N 
ATOM      4 H    ALA C   3      -8.877  18.130  32.515  1.00 13.94 LIG 0.16  HD
ENDROOT
BRANCH 3 5
ATOM      5  CA  ALA C   3      -8.133  17.683  30.738  1.00 13.65 LIG 0.17  C 
ATOM      6  CB  ALA C   3      -8.358  19.141  30.359  1.00 15.05 LIG 0.04  C 
BRANCH 5 7
ATOM      7  C   ALA C   3      -6.683  17.272  30.452  1.00 12.34 LIG 0.24  C 
ATOM      8  N   VAL C   4      -6.398  16.971  29.186  1.00 12.14 LIG-0.34  N 
ATOM      9 H    VAL C   4      -6.987  16.884  28.566  1.00 12.14 LIG 0.16  HD
ATOM     10 O    ALA C   3      -5.838  17.227  31.352  1.00 12.93 LIG-0.27  OA
BRANCH 8 11
ATOM     11  CA  VAL C   4      -5.023  16.764  28.753  1.00 11.36 LIG 0.19  C 
BRANCH 11 12
ATOM     12  CB  VAL C   4      -4.397  15.526  29.408  1.00 10.99 LIG 0.01  C 
ATOM     13  CG2 VAL C   4      -3.004  15.846  29.902  1.00 10.63 LIG 0.01  C 
ATOM     14  CG1 VAL C   4      -4.366  14.349  28.433  1.00  9.95 LIG 0.01  C 
ENDBRANCH 11 12
BRANCH 11 15
ATOM     15  C   VAL C   4      -5.029  16.601  27.235  1.00 12.38 LIG 0.20  C 
ATOM     16 O    VAL C   4      -3.968  16.782  26.618  1.00 12.95 LIG-0.65  OA
ATOM     17 OXT  VAL C   4      -6.070  16.276  26.633  1.00 15.04 LIG-0.65  OA
ENDBRANCH 11 15
ENDBRANCH 8 11
ENDBRANCH 5 7
ENDBRANCH 3 5
BRANCH 1 18
ATOM     18  CA  ALA C   2      -8.704  16.173  34.203  1.00 15.83 LIG 0.17  C 
ATOM     19  CB  ALA C   2      -8.402  14.785  34.763  1.00 17.22 LIG 0.04  C 
BRANCH 18 20
ATOM     20  N   ALA C   2     -10.105  16.523  34.439  1.00 18.67 LIG-0.35  N 
ATOM     21 H    ALA C   2     -10.220  17.240  34.900  1.00 18.67 LIG 0.16  HD
ATOM     22  C   ALA C   1     -11.103  15.773  33.966  1.00 21.34 LIG 0.25  C 
ATOM     23 O    ALA C   1     -10.916  14.752  33.289  1.00 22.28 LIG-0.27  OA
BRANCH 22 24
ATOM     24  CA  ALA C   1     -12.528  16.256  34.278  1.00 22.82 LIG 0.27  C 
ATOM     25  CB  ALA C   1     -13.493  15.066  34.377  1.00 23.12 LIG 0.05  C 
BRANCH 24 26
ATOM     26  N   ALA C   1     -13.033  17.241  33.279  1.00 23.94 LIG-0.07  N 
ATOM     27 H1   ALA C   1     -13.425  16.809  32.608  1.00 23.94 LIG 0.28  HD
ATOM     28 H3   ALA C   1     -12.352  17.721  32.965  1.00 23.94 LIG 0.28  HD
ATOM     29 H2   ALA C   1     -13.623  17.782  33.667  1.00 23.94 LIG 0.28  HD
ENDBRANCH 24 26
ENDBRANCH 22 24
ENDBRANCH 18 20
ENDBRANCH 1 18
TORSDOF 9
ENDMDL
MODEL 22
USER: ADFR SOLUTION from run 53
USER: SCORE 6.545061 LL:  -2.352 LR:  -6.181 RR:   0.000 FEB:  -3.497
USER: RMSD 3.499727
USER: SEED 52
USER: STATUS no improvement in best in 26 clusters for 5 generations
USER: GENES 11
USER: genes 0 Translation |==|  0.39453 0.47181 0.68965
USER: genes 1 Rotation |==|  0.42956 0.68715 0.39846 0.94688
USER: genes 2 Torsion [C]-N--CA-[CB] |==|  0.40600
USER: genes 3 Torsion [N]-CA--C-[N] |==|  0.78683
USER: genes 4 Torsion [C]-N--CA-[C] |==|  0.66657
USER: genes 5 Torsion [N]-CA--CB-[CG1] |==|  0.20233
USER: genes 6 Torsion [N]-CA--C-[O] |==|  0.50148
USER: genes 7 Torsion [N]-C--CA-[N] |==|  0.99323
USER: genes 8 Torsion [C]-CA--N-[C] |==|  0.67222
USER: genes 9 Torsion [N]-C--CA-[N] |==|  0.45324
USER: genes 10 Torsion [C]-CA--N-[H3] |==|  0.24849
ROOT
ATOM      1  C   ALA C   2      -7.532  18.006  35.193  1.00 14.06 LIG 0.24  C 
ATOM      2 O    ALA C   2      -8.257  17.044  35.426  1.00 12.98 LIG-0.27  OA
ATOM      3  N   ALA C   3      -7.469  18.587  34.002  1.00 13.94 LIG-0.35  N 
ATOM      4 H    ALA C   3      -6.965  19.260  33.824  1.00 13.94 LIG 0.16  HD
ENDROOT
BRANCH 3 5
ATOM      5  CA  ALA C   3      -8.269  18.116  32.872  1.00 13.65 LIG 0.17  C 
ATOM      6  CB  ALA C   3      -8.677  19.285  31.986  1.00 15.05 LIG 0.04  C 
BRANCH 5 7
ATOM      7  C   ALA C   3      -7.540  17.046  32.048  1.00 12.34 LIG 0.24  C 
ATOM      8  N   VAL C   4      -6.585  17.486  31.230  1.00 12.14 LIG-0.34  N 
ATOM      9 H    VAL C   4      -6.443  18.316  31.057  1.00 12.14 LIG 0.16  HD
ATOM     10 O    ALA C   3      -7.829  15.850  32.149  1.00 12.93 LIG-0.27  OA
BRANCH 8 11
ATOM     11  CA  VAL C   4      -5.690  16.561  30.551  1.00 11.36 LIG 0.19  C 
BRANCH 11 12
ATOM     12  CB  VAL C   4      -5.810  16.665  29.025  1.00 10.99 LIG 0.01  C 
ATOM     13  CG2 VAL C   4      -5.176  15.458  28.369  1.00 10.63 LIG 0.01  C 
ATOM     14  CG1 VAL C   4      -5.169  17.955  28.514  1.00  9.95 LIG 0.01  C 
ENDBRANCH 11 12
BRANCH 11 15
ATOM     15  C   VAL C   4      -4.263  16.887  30.983  1.00 12.38 LIG 0.20  C 
ATOM     16 O    VAL C   4      -3.334  16.215  30.508  1.00 12.95 LIG-0.65  OA
ATOM     17 OXT  VAL C   4      -4.034  17.817  31.779  1.00 15.04 LIG-0.65  OA
ENDBRANCH 11 15
ENDBRANCH 8 11
ENDBRANCH 5 7
ENDBRANCH 3 5
BRANCH 1 18
ATOM     18  CA  ALA C   2      -6.625  18.564  36.295  1.00 15.83 LIG 0.17  C 
ATOM     19  CB  ALA C   2      -7.430  19.008  37.516  1.00 17.22 LIG 0.04  C 
BRANCH 18 20
ATOM     20  N   ALA C   2      -5.763  19.651  35.832  1.00 18.67 LIG-0.35  N 
ATOM     21 H    ALA C   2      -6.186  20.345  35.551  1.00 18.67 LIG 0.16  HD
ATOM     22  C   ALA C   1      -4.432  19.547  35.854  1.00 21.34 LIG 0.25  C 
ATOM     23 O    ALA C   1      -3.842  18.543  36.279  1.00 22.28 LIG-0.27  OA
BRANCH 22 24
ATOM     24  CA  ALA C   1      -3.643  20.764  35.347  1.00 22.82 LIG 0.27  C 
ATOM     25  CB  ALA C   1      -3.742  20.874  33.819  1.00 23.12 LIG 0.05  C 
BRANCH 24 26
ATOM     26  N   ALA C   1      -2.213  20.737  35.766  1.00 23.94 LIG-0.07  N 
ATOM     27 H1   ALA C   1      -1.911  21.570  35.846  1.00 23.94 LIG 0.28  HD
ATOM     28 H3   ALA C   1      -1.732  20.306  35.154  1.00 23.94 LIG 0.28  HD
ATOM     29 H2   ALA C   1      -2.141  20.320  36.548  1.00 23.94 LIG 0.28  HD
ENDBRANCH 24 26
ENDBRANCH 22 24
ENDBRANCH 18 20
ENDBRANCH 1 18
TORSDOF 9
ENDMDL
MODEL 23
USER: ADFR SOLUTION from run 6
USER: SCORE 7.662995 LL:  -2.095 LR:  -6.160 RR:   0.000 FEB:  -3.476
USER: RMSD 3.620208
USER: SEED 239176
USER: STATUS no improvement in best in 24 clusters for 5 generations
USER: GENES 11
USER: genes 0 Translation |==|  0.46799 0.50732 0.47683
USER: genes 1 Rotation |==|  0.33033 0.32134 0.66748 0.90156
USER: genes 2 Torsion [C]-N--CA-[CB] |==|  0.80302
USER: genes 3 Torsion [N]-CA--C-[N] |==|  0.26015
USER: genes 4 Torsion [C]-N--CA-[C] |==|  0.57750
USER: genes 5 Torsion [N]-CA--CB-[CG1] |==|  0.26958
USER: genes 6 Torsion [N]-CA--C-[O] |==|  0.44965
USER: genes 7 Torsion [N]-C--CA-[N] |==|  0.46585
USER: genes 8 Torsion [C]-CA--N-[C] |==|  0.84353
USER: genes 9 Torsion [N]-C--CA-[N] |==|  0.55841
USER: genes 10 Torsion [C]-CA--N-[H3] |==|  0.94667
ROOT
ATOM      1  C   ALA C   2      -6.375  18.592  31.362  1.00 14.06 LIG 0.24  C 
ATOM      2 O    ALA C   2      -5.751  17.716  31.952  1.00 12.98 LIG-0.27  OA
ATOM      3  N   ALA C   3      -5.849  19.313  30.381  1.00 13.94 LIG-0.35  N 
ATOM      4 H    ALA C   3      -6.274  19.930  29.959  1.00 13.94 LIG 0.16  HD
ENDROOT
BRANCH 3 5
ATOM      5  CA  ALA C   3      -4.473  19.111  29.930  1.00 13.65 LIG 0.17  C 
ATOM      6  CB  ALA C   3      -3.490  19.609  30.982  1.00 15.05 LIG 0.04  C 
BRANCH 5 7
ATOM      7  C   ALA C   3      -4.185  17.646  29.576  1.00 12.34 LIG 0.24  C 
ATOM      8  N   VAL C   4      -4.342  17.312  28.296  1.00 12.14 LIG-0.34  N 
ATOM      9 H    VAL C   4      -4.697  17.823  27.703  1.00 12.14 LIG 0.16  HD
ATOM     10 O    ALA C   3      -3.827  16.835  30.436  1.00 12.93 LIG-0.27  OA
BRANCH 8 11
ATOM     11  CA  VAL C   4      -3.909  16.014  27.799  1.00 11.36 LIG 0.19  C 
BRANCH 11 12
ATOM     12  CB  VAL C   4      -4.994  14.943  27.973  1.00 10.99 LIG 0.01  C 
ATOM     13  CG2 VAL C   4      -4.371  13.634  28.404  1.00 10.63 LIG 0.01  C 
ATOM     14  CG1 VAL C   4      -5.792  14.760  26.682  1.00  9.95 LIG 0.01  C 
ENDBRANCH 11 12
BRANCH 11 15
ATOM     15  C   VAL C   4      -3.565  16.169  26.320  1.00 12.38 LIG 0.20  C 
ATOM     16 O    VAL C   4      -2.863  15.299  25.783  1.00 12.95 LIG-0.65  OA
ATOM     17 OXT  VAL C   4      -3.996  17.136  25.664  1.00 15.04 LIG-0.65  OA
ENDBRANCH 11 15
ENDBRANCH 8 11
ENDBRANCH 5 7
ENDBRANCH 3 5
BRANCH 1 18
ATOM     18  CA  ALA C   2      -7.817  18.911  31.773  1.00 15.83 LIG 0.17  C 
ATOM     19  CB  ALA C   2      -7.926  20.293  32.417  1.00 17.22 LIG 0.04  C 
BRANCH 18 20
ATOM     20  N   ALA C   2      -8.402  17.895  32.647  1.00 18.67 LIG-0.35  N 
ATOM     21 H    ALA C   2      -8.694  18.197  33.398  1.00 18.67 LIG 0.16  HD
ATOM     22  C   ALA C   1      -8.465  16.612  32.286  1.00 21.34 LIG 0.25  C 
ATOM     23 O    ALA C   1      -8.055  16.200  31.191  1.00 22.28 LIG-0.27  OA
BRANCH 22 24
ATOM     24  CA  ALA C   1      -9.112  15.648  33.293  1.00 22.82 LIG 0.27  C 
ATOM     25  CB  ALA C   1      -8.780  16.068  34.732  1.00 23.12 LIG 0.05  C 
BRANCH 24 26
ATOM     26  N   ALA C   1      -8.712  14.230  33.070  1.00 23.94 LIG-0.07  N 
ATOM     27 H1   ALA C   1      -8.081  14.004  33.654  1.00 23.94 LIG 0.28  HD
ATOM     28 H3   ALA C   1      -8.397  14.137  32.242  1.00 23.94 LIG 0.28  HD
ATOM     29 H2   ALA C   1      -9.419  13.701  33.179  1.00 23.94 LIG 0.28  HD
ENDBRANCH 24 26
ENDBRANCH 22 24
ENDBRANCH 18 20
ENDBRANCH 1 18
TORSDOF 9
ENDMDL
MODEL 24
USER: ADFR SOLUTION from run 36
USER: SCORE 7.302632 LL:  -1.934 LR:  -6.157 RR:   0.000 FEB:  -3.472
USER: RMSD 3.715496
USER: SEED 35
USER: STATUS no improvement in best in 21 clusters for 5 generations
USER: GENES 11
USER: genes 0 Translation |==|  0.38639 0.41215 0.53400
USER: genes 1 Rotation |==|  0.46271 0.44650 0.48517 0.99551
USER: genes 2 Torsion [C]-N--CA-[CB] |==|  0.84751
USER: genes 3 Torsion [N]-CA--C-[N] |==|  0.45487
USER: genes 4 Torsion [C]-N--CA-[C] |==|  0.58910
USER: genes 5 Torsion [N]-CA--CB-[CG1] |==|  0.77899
USER: genes 6 Torsion [N]-CA--C-[O] |==|  0.55520
USER: genes 7 Torsion [N]-C--CA-[N] |==|  0.84108
USER: genes 8 Torsion [C]-CA--N-[C] |==|  0.65302
USER: genes 9 Torsion [N]-C--CA-[N] |==|  0.66669
USER: genes 10 Torsion [C]-CA--N-[H3] |==|  0.57398
ROOT
ATOM      1  C   ALA C   2      -7.660  17.021  32.391  1.00 14.06 LIG 0.24  C 
ATOM      2 O    ALA C   2      -7.798  15.846  32.069  1.00 12.98 LIG-0.27  OA
ATOM      3  N   ALA C   3      -6.954  17.885  31.674  1.00 13.94 LIG-0.35  N 
ATOM      4 H    ALA C   3      -6.848  18.711  31.888  1.00 13.94 LIG 0.16  HD
ENDROOT
BRANCH 3 5
ATOM      5  CA  ALA C   3      -6.284  17.492  30.436  1.00 13.65 LIG 0.17  C 
ATOM      6  CB  ALA C   3      -5.364  16.304  30.683  1.00 15.05 LIG 0.04  C 
BRANCH 5 7
ATOM      7  C   ALA C   3      -7.278  17.178  29.310  1.00 12.34 LIG 0.24  C 
ATOM      8  N   VAL C   4      -6.775  17.140  28.078  1.00 12.14 LIG-0.34  N 
ATOM      9 H    VAL C   4      -5.978  17.391  27.874  1.00 12.14 LIG 0.16  HD
ATOM     10 O    ALA C   3      -8.473  16.971  29.547  1.00 12.93 LIG-0.27  OA
BRANCH 8 11
ATOM     11  CA  VAL C   4      -7.566  16.657  26.956  1.00 11.36 LIG 0.19  C 
BRANCH 11 12
ATOM     12  CB  VAL C   4      -8.332  17.793  26.264  1.00 10.99 LIG 0.01  C 
ATOM     13  CG2 VAL C   4      -7.438  19.003  26.104  1.00 10.63 LIG 0.01  C 
ATOM     14  CG1 VAL C   4      -9.594  18.156  27.046  1.00  9.95 LIG 0.01  C 
ENDBRANCH 11 12
BRANCH 11 15
ATOM     15  C   VAL C   4      -6.617  15.992  25.963  1.00 12.38 LIG 0.20  C 
ATOM     16 O    VAL C   4      -6.996  15.846  24.791  1.00 12.95 LIG-0.65  OA
ATOM     17 OXT  VAL C   4      -5.481  15.622  26.317  1.00 15.04 LIG-0.65  OA
ENDBRANCH 11 15
ENDBRANCH 8 11
ENDBRANCH 5 7
ENDBRANCH 3 5
BRANCH 1 18
ATOM     18  CA  ALA C   2      -8.293  17.537  33.688  1.00 15.83 LIG 0.17  C 
ATOM     19  CB  ALA C   2      -9.404  18.548  33.411  1.00 17.22 LIG 0.04  C 
BRANCH 18 20
ATOM     20  N   ALA C   2      -7.314  18.100  34.619  1.00 18.67 LIG-0.35  N 
ATOM     21 H    ALA C   2      -6.825  18.725  34.285  1.00 18.67 LIG 0.16  HD
ATOM     22  C   ALA C   1      -7.208  17.662  35.875  1.00 21.34 LIG 0.25  C 
ATOM     23 O    ALA C   1      -7.935  16.772  36.340  1.00 22.28 LIG-0.27  OA
BRANCH 22 24
ATOM     24  CA  ALA C   1      -6.145  18.344  36.750  1.00 22.82 LIG 0.27  C 
ATOM     25  CB  ALA C   1      -5.467  19.488  35.983  1.00 23.12 LIG 0.05  C 
BRANCH 24 26
ATOM     26  N   ALA C   1      -5.119  17.389  37.256  1.00 23.94 LIG-0.07  N 
ATOM     27 H1   ALA C   1      -5.496  16.596  37.399  1.00 23.94 LIG 0.28  HD
ATOM     28 H3   ALA C   1      -4.778  17.696  38.019  1.00 23.94 LIG 0.28  HD
ATOM     29 H2   ALA C   1      -4.469  17.304  36.654  1.00 23.94 LIG 0.28  HD
ENDBRANCH 24 26
ENDBRANCH 22 24
ENDBRANCH 18 20
ENDBRANCH 1 18
TORSDOF 9
ENDMDL
MODEL 25
USER: ADFR SOLUTION from run 36
USER: SCORE 7.493387 LL:  -2.045 LR:  -6.083 RR:   0.000 FEB:  -3.398
USER: RMSD 3.388590
USER: SEED 35
USER: STATUS no improvement in best in 21 clusters for 5 generations
USER: GENES 11
USER: genes 0 Translation |==|  0.42601 0.47336 0.38177
USER: genes 1 Rotation |==|  0.65336 0.20075 0.42021 0.86133
USER: genes 2 Torsion [C]-N--CA-[CB] |==|  0.53434
USER: genes 3 Torsion [N]-CA--C-[N] |==|  0.27019
USER: genes 4 Torsion [C]-N--CA-[C] |==|  0.67877
USER: genes 5 Torsion [N]-CA--CB-[CG1] |==|  0.73984
USER: genes 6 Torsion [N]-CA--C-[O] |==|  0.65295
USER: genes 7 Torsion [N]-C--CA-[N] |==|  0.90903
USER: genes 8 Torsion [C]-CA--N-[C] |==|  0.83889
USER: genes 9 Torsion [N]-C--CA-[N] |==|  0.13213
USER: genes 10 Torsion [C]-CA--N-[H3] |==|  0.26661
ROOT
ATOM      1  C   ALA C   2      -7.036  18.031  29.651  1.00 14.06 LIG 0.24  C 
ATOM      2 O    ALA C   2      -6.472  17.384  28.775  1.00 12.98 LIG-0.27  OA
ATOM      3  N   ALA C   3      -6.378  18.679  30.604  1.00 13.94 LIG-0.35  N 
ATOM      4 H    ALA C   3      -6.761  19.135  31.224  1.00 13.94 LIG 0.16  HD
ENDROOT
BRANCH 3 5
ATOM      5  CA  ALA C   3      -4.918  18.666  30.675  1.00 13.65 LIG 0.17  C 
ATOM      6  CB  ALA C   3      -4.447  19.220  32.014  1.00 15.05 LIG 0.04  C 
BRANCH 5 7
ATOM      7  C   ALA C   3      -4.335  17.268  30.437  1.00 12.34 LIG 0.24  C 
ATOM      8  N   VAL C   4      -3.914  17.012  29.199  1.00 12.14 LIG-0.34  N 
ATOM      9 H    VAL C   4      -4.055  17.527  28.525  1.00 12.14 LIG 0.16  HD
ATOM     10 O    ALA C   3      -4.264  16.436  31.348  1.00 12.93 LIG-0.27  OA
BRANCH 8 11
ATOM     11  CA  VAL C   4      -3.160  15.804  28.895  1.00 11.36 LIG 0.19  C 
BRANCH 11 12
ATOM     12  CB  VAL C   4      -3.835  14.971  27.797  1.00 10.99 LIG 0.01  C 
ATOM     13  CG2 VAL C   4      -4.616  15.870  26.865  1.00 10.63 LIG 0.01  C 
ATOM     14  CG1 VAL C   4      -4.745  13.903  28.404  1.00  9.95 LIG 0.01  C 
ENDBRANCH 11 12
BRANCH 11 15
ATOM     15  C   VAL C   4      -1.764  16.223  28.444  1.00 12.38 LIG 0.20  C 
ATOM     16 O    VAL C   4      -1.353  15.820  27.344  1.00 12.95 LIG-0.65  OA
ATOM     17 OXT  VAL C   4      -1.061  16.967  29.154  1.00 15.04 LIG-0.65  OA
ENDBRANCH 11 15
ENDBRANCH 8 11
ENDBRANCH 5 7
ENDBRANCH 3 5
BRANCH 1 18
ATOM     18  CA  ALA C   2      -8.567  18.088  29.692  1.00 15.83 LIG 0.17  C 
ATOM     19  CB  ALA C   2      -9.112  19.241  28.852  1.00 17.22 LIG 0.04  C 
BRANCH 18 20
ATOM     20  N   ALA C   2      -9.102  18.153  31.053  1.00 18.67 LIG-0.35  N 
ATOM     21 H    ALA C   2      -9.594  18.841  31.208  1.00 18.67 LIG 0.16  HD
ATOM     22  C   ALA C   1      -8.832  17.209  31.957  1.00 21.34 LIG 0.25  C 
ATOM     23 O    ALA C   1      -8.134  16.216  31.706  1.00 22.28 LIG-0.27  OA
BRANCH 22 24
ATOM     24  CA  ALA C   1      -9.463  17.394  33.347  1.00 22.82 LIG 0.27  C 
ATOM     25  CB  ALA C   1      -9.251  16.140  34.207  1.00 23.12 LIG 0.05  C 
BRANCH 24 26
ATOM     26  N   ALA C   1     -10.914  17.728  33.279  1.00 23.94 LIG-0.07  N 
ATOM     27 H1   ALA C   1     -11.117  18.299  33.930  1.00 23.94 LIG 0.28  HD
ATOM     28 H3   ALA C   1     -11.395  16.985  33.375  1.00 23.94 LIG 0.28  HD
ATOM     29 H2   ALA C   1     -11.096  18.100  32.492  1.00 23.94 LIG 0.28  HD
ENDBRANCH 24 26
ENDBRANCH 22 24
ENDBRANCH 18 20
ENDBRANCH 1 18
TORSDOF 9
ENDMDL
MODEL 26
USER: ADFR SOLUTION from run 188
USER: SCORE 7.934194 LL:  -2.302 LR:  -6.028 RR:   0.000 FEB:  -3.343
USER: RMSD 4.261188
USER: SEED 187
USER: STATUS no improvement in best in 21 clusters for 5 generations
USER: GENES 11
USER: genes 0 Translation |==|  0.52682 0.49032 0.46909
USER: genes 1 Rotation |==|  0.34902 0.46081 0.48881 0.97492
USER: genes 2 Torsion [C]-N--CA-[CB] |==|  0.81085
USER: genes 3 Torsion [N]-CA--C-[N] |==|  0.19462
USER: genes 4 Torsion [C]-N--CA-[C] |==|  0.71950
USER: genes 5 Torsion [N]-CA--CB-[CG1] |==|  0.90205
USER: genes 6 Torsion [N]-CA--C-[O] |==|  0.96915
USER: genes 7 Torsion [N]-C--CA-[N] |==|  0.42470
USER: genes 8 Torsion [C]-CA--N-[C] |==|  0.82509
USER: genes 9 Torsion [N]-C--CA-[N] |==|  0.43752
USER: genes 10 Torsion [C]-CA--N-[H3] |==|  0.04367
ROOT
ATOM      1  C   ALA C   2      -5.449  18.311  31.223  1.00 14.06 LIG 0.24  C 
ATOM      2 O    ALA C   2      -5.639  17.124  31.465  1.00 12.98 LIG-0.27  OA
ATOM      3  N   ALA C   3      -4.772  18.729  30.161  1.00 13.94 LIG-0.35  N 
ATOM      4 H    ALA C   3      -4.631  19.557  29.978  1.00 13.94 LIG 0.16  HD
ENDROOT
BRANCH 3 5
ATOM      5  CA  ALA C   3      -4.201  17.792  29.195  1.00 13.65 LIG 0.17  C 
ATOM      6  CB  ALA C   3      -3.061  17.005  29.827  1.00 15.05 LIG 0.04  C 
BRANCH 5 7
ATOM      7  C   ALA C   3      -5.255  16.840  28.614  1.00 12.34 LIG 0.24  C 
ATOM      8  N   VAL C   4      -6.148  17.387  27.791  1.00 12.14 LIG-0.34  N 
ATOM      9 H    VAL C   4      -6.235  18.233  27.666  1.00 12.14 LIG 0.16  HD
ATOM     10 O    ALA C   3      -5.263  15.638  28.899  1.00 12.93 LIG-0.27  OA
BRANCH 8 11
ATOM     11  CA  VAL C   4      -7.067  16.561  27.021  1.00 11.36 LIG 0.19  C 
BRANCH 11 12
ATOM     12  CB  VAL C   4      -8.485  17.147  27.004  1.00 10.99 LIG 0.01  C 
ATOM     13  CG2 VAL C   4      -8.630  18.127  25.861  1.00 10.63 LIG 0.01  C 
ATOM     14  CG1 VAL C   4      -8.814  17.819  28.336  1.00  9.95 LIG 0.01  C 
ENDBRANCH 11 12
BRANCH 11 15
ATOM     15  C   VAL C   4      -6.529  16.462  25.596  1.00 12.38 LIG 0.20  C 
ATOM     16 O    VAL C   4      -5.597  17.212  25.264  1.00 12.95 LIG-0.65  OA
ATOM     17 OXT  VAL C   4      -7.000  15.635  24.793  1.00 15.04 LIG-0.65  OA
ENDBRANCH 11 15
ENDBRANCH 8 11
ENDBRANCH 5 7
ENDBRANCH 3 5
BRANCH 1 18
ATOM     18  CA  ALA C   2      -5.975  19.382  32.185  1.00 15.83 LIG 0.17  C 
ATOM     19  CB  ALA C   2      -4.893  19.845  33.159  1.00 17.22 LIG 0.04  C 
BRANCH 18 20
ATOM     20  N   ALA C   2      -7.169  18.957  32.916  1.00 18.67 LIG-0.35  N 
ATOM     21 H    ALA C   2      -7.066  18.910  33.769  1.00 18.67 LIG 0.16  HD
ATOM     22  C   ALA C   1      -8.312  18.674  32.287  1.00 21.34 LIG 0.25  C 
ATOM     23 O    ALA C   1      -8.444  18.766  31.058  1.00 22.28 LIG-0.27  OA
BRANCH 22 24
ATOM     24  CA  ALA C   1      -9.493  18.248  33.173  1.00 22.82 LIG 0.27  C 
ATOM     25  CB  ALA C   1      -9.350  16.779  33.595  1.00 23.12 LIG 0.05  C 
BRANCH 24 26
ATOM     26  N   ALA C   1     -10.813  18.465  32.515  1.00 23.94 LIG-0.07  N 
ATOM     27 H1   ALA C   1     -11.329  17.752  32.643  1.00 23.94 LIG 0.28  HD
ATOM     28 H3   ALA C   1     -10.692  18.590  31.642  1.00 23.94 LIG 0.28  HD
ATOM     29 H2   ALA C   1     -11.206  19.182  32.867  1.00 23.94 LIG 0.28  HD
ENDBRANCH 24 26
ENDBRANCH 22 24
ENDBRANCH 18 20
ENDBRANCH 1 18
TORSDOF 9
ENDMDL
MODEL 27
USER: ADFR SOLUTION from run 122
USER: SCORE 6.944362 LL:  -1.698 LR:  -5.989 RR:   0.000 FEB:  -3.304
USER: RMSD 2.814621
USER: SEED 121
USER: STATUS no improvement in best in 18 clusters for 5 generations
USER: GENES 11
USER: genes 0 Translation |==|  0.37468 0.40929 0.51538
USER: genes 1 Rotation |==|  0.68974 0.41589 0.42442 0.94857
USER: genes 2 Torsion [C]-N--CA-[CB] |==|  0.51434
USER: genes 3 Torsion [N]-CA--C-[N] |==|  0.37222
USER: genes 4 Torsion [C]-N--CA-[C] |==|  0.20891
USER: genes 5 Torsion [N]-CA--CB-[CG1] |==|  0.49659
USER: genes 6 Torsion [N]-CA--C-[O] |==|  0.24234
USER: genes 7 Torsion [N]-C--CA-[N] |==|  0.26535
USER: genes 8 Torsion [C]-CA--N-[C] |==|  0.75308
USER: genes 9 Torsion [N]-C--CA-[N] |==|  0.95242
USER: genes 10 Torsion [C]-CA--N-[H3] |==|  0.17442
ROOT
ATOM      1  C   ALA C   2      -7.845  16.974  32.056  1.00 14.06 LIG 0.24  C 
ATOM      2 O    ALA C   2      -7.951  16.578  30.900  1.00 12.98 LIG-0.27  OA
ATOM      3  N   ALA C   3      -6.960  17.892  32.423  1.00 13.94 LIG-0.35  N 
ATOM      4 H    ALA C   3      -6.874  18.178  33.229  1.00 13.94 LIG 0.16  HD
ENDROOT
BRANCH 3 5
ATOM      5  CA  ALA C   3      -6.041  18.502  31.464  1.00 13.65 LIG 0.17  C 
ATOM      6  CB  ALA C   3      -5.059  19.421  32.179  1.00 15.05 LIG 0.04  C 
BRANCH 5 7
ATOM      7  C   ALA C   3      -5.290  17.456  30.630  1.00 12.34 LIG 0.24  C 
ATOM      8  N   VAL C   4      -5.232  17.684  29.319  1.00 12.14 LIG-0.34  N 
ATOM      9 H    VAL C   4      -5.678  18.298  28.915  1.00 12.14 LIG 0.16  HD
ATOM     10 O    ALA C   3      -4.771  16.467  31.156  1.00 12.93 LIG-0.27  OA
BRANCH 8 11
ATOM     11  CA  VAL C   4      -4.383  16.880  28.452  1.00 11.36 LIG 0.19  C 
BRANCH 11 12
ATOM     12  CB  VAL C   4      -2.979  16.690  29.044  1.00 10.99 LIG 0.01  C 
ATOM     13  CG2 VAL C   4      -2.324  18.033  29.274  1.00 10.63 LIG 0.01  C 
ATOM     14  CG1 VAL C   4      -2.116  15.819  28.131  1.00  9.95 LIG 0.01  C 
ENDBRANCH 11 12
BRANCH 11 15
ATOM     15  C   VAL C   4      -5.055  15.523  28.263  1.00 12.38 LIG 0.20  C 
ATOM     16 O    VAL C   4      -5.882  15.397  27.348  1.00 12.95 LIG-0.65  OA
ATOM     17 OXT  VAL C   4      -4.764  14.560  28.998  1.00 15.04 LIG-0.65  OA
ENDBRANCH 11 15
ENDBRANCH 8 11
ENDBRANCH 5 7
ENDBRANCH 3 5
BRANCH 1 18
ATOM     18  CA  ALA C   2      -8.736  16.380  33.152  1.00 15.83 LIG 0.17  C 
ATOM     19  CB  ALA C   2      -8.923  14.874  32.972  1.00 17.22 LIG 0.04  C 
BRANCH 18 20
ATOM     20  N   ALA C   2     -10.035  17.045  33.257  1.00 18.67 LIG-0.35  N 
ATOM     21 H    ALA C   2     -10.655  16.692  32.775  1.00 18.67 LIG 0.16  HD
ATOM     22  C   ALA C   1     -10.216  18.108  34.042  1.00 21.34 LIG 0.25  C 
ATOM     23 O    ALA C   1      -9.314  18.590  34.741  1.00 22.28 LIG-0.27  OA
BRANCH 22 24
ATOM     24  CA  ALA C   1     -11.632  18.706  34.067  1.00 22.82 LIG 0.27  C 
ATOM     25  CB  ALA C   1     -12.336  18.372  35.389  1.00 23.12 LIG 0.05  C 
BRANCH 24 26
ATOM     26  N   ALA C   1     -12.466  18.258  32.916  1.00 23.94 LIG-0.07  N 
ATOM     27 H1   ALA C   1     -13.259  18.659  32.950  1.00 23.94 LIG 0.28  HD
ATOM     28 H3   ALA C   1     -12.578  17.376  32.956  1.00 23.94 LIG 0.28  HD
ATOM     29 H2   ALA C   1     -12.059  18.472  32.154  1.00 23.94 LIG 0.28  HD
ENDBRANCH 24 26
ENDBRANCH 22 24
ENDBRANCH 18 20
ENDBRANCH 1 18
TORSDOF 9
ENDMDL
MODEL 28
USER: ADFR SOLUTION from run 139
USER: SCORE 7.137268 LL:  -1.911 LR:  -5.981 RR:   0.000 FEB:  -3.296
USER: RMSD 4.047661
USER: SEED 138
USER: STATUS no improvement in best in 19 clusters for 5 generations
USER: GENES 11
USER: genes 0 Translation |==|  0.56134 0.52494 0.48978
USER: genes 1 Rotation |==|  0.37643 0.46834 0.57085 0.97823
USER: genes 2 Torsion [C]-N--CA-[CB] |==|  0.81826
USER: genes 3 Torsion [N]-CA--C-[N] |==|  0.46111
USER: genes 4 Torsion [C]-N--CA-[C] |==|  0.62378
USER: genes 5 Torsion [N]-CA--CB-[CG1] |==|  0.64068
USER: genes 6 Torsion [N]-CA--C-[O] |==|  0.46485
USER: genes 7 Torsion [N]-C--CA-[N] |==|  0.79619
USER: genes 8 Torsion [C]-CA--N-[C] |==|  0.67828
USER: genes 9 Torsion [N]-C--CA-[N] |==|  0.59007
USER: genes 10 Torsion [C]-CA--N-[H3] |==|  0.01585
ROOT
ATOM      1  C   ALA C   2      -4.905  18.883  31.595  1.00 14.06 LIG 0.24  C 
ATOM      2 O    ALA C   2      -4.693  17.683  31.736  1.00 12.98 LIG-0.27  OA
ATOM      3  N   ALA C   3      -4.538  19.555  30.512  1.00 13.94 LIG-0.35  N 
ATOM      4 H    ALA C   3      -4.680  20.396  30.400  1.00 13.94 LIG 0.16  HD
ENDROOT
BRANCH 3 5
ATOM      5  CA  ALA C   3      -3.850  18.905  29.398  1.00 13.65 LIG 0.17  C 
ATOM      6  CB  ALA C   3      -2.475  18.417  29.836  1.00 15.05 LIG 0.04  C 
BRANCH 5 7
ATOM      7  C   ALA C   3      -4.666  17.751  28.803  1.00 12.34 LIG 0.24  C 
ATOM      8  N   VAL C   4      -4.259  17.295  27.619  1.00 12.14 LIG-0.34  N 
ATOM      9 H    VAL C   4      -3.659  17.676  27.135  1.00 12.14 LIG 0.16  HD
ATOM     10 O    ALA C   3      -5.641  17.279  29.396  1.00 12.93 LIG-0.27  OA
BRANCH 8 11
ATOM     11  CA  VAL C   4      -4.820  16.080  27.047  1.00 11.36 LIG 0.19  C 
BRANCH 11 12
ATOM     12  CB  VAL C   4      -5.825  16.385  25.928  1.00 10.99 LIG 0.01  C 
ATOM     13  CG2 VAL C   4      -6.071  17.875  25.840  1.00 10.63 LIG 0.01  C 
ATOM     14  CG1 VAL C   4      -7.137  15.635  26.154  1.00  9.95 LIG 0.01  C 
ENDBRANCH 11 12
BRANCH 11 15
ATOM     15  C   VAL C   4      -3.667  15.245  26.496  1.00 12.38 LIG 0.20  C 
ATOM     16 O    VAL C   4      -3.891  14.067  26.178  1.00 12.95 LIG-0.65  OA
ATOM     17 OXT  VAL C   4      -2.534  15.741  26.350  1.00 15.04 LIG-0.65  OA
ENDBRANCH 11 15
ENDBRANCH 8 11
ENDBRANCH 5 7
ENDBRANCH 3 5
BRANCH 1 18
ATOM     18  CA  ALA C   2      -5.592  19.673  32.714  1.00 15.83 LIG 0.17  C 
ATOM     19  CB  ALA C   2      -6.768  20.493  32.185  1.00 17.22 LIG 0.04  C 
BRANCH 18 20
ATOM     20  N   ALA C   2      -4.670  20.529  33.460  1.00 18.67 LIG-0.35  N 
ATOM     21 H    ALA C   2      -4.314  21.159  32.994  1.00 18.67 LIG 0.16  HD
ATOM     22  C   ALA C   1      -4.420  20.328  34.755  1.00 21.34 LIG 0.25  C 
ATOM     23 O    ALA C   1      -4.958  19.425  35.412  1.00 22.28 LIG-0.27  OA
BRANCH 22 24
ATOM     24  CA  ALA C   1      -3.438  21.304  35.422  1.00 22.82 LIG 0.27  C 
ATOM     25  CB  ALA C   1      -2.507  21.933  34.376  1.00 23.12 LIG 0.05  C 
BRANCH 24 26
ATOM     26  N   ALA C   1      -2.635  20.664  36.502  1.00 23.94 LIG-0.07  N 
ATOM     27 H1   ALA C   1      -1.769  20.792  36.344  1.00 23.94 LIG 0.28  HD
ATOM     28 H3   ALA C   1      -2.806  19.790  36.522  1.00 23.94 LIG 0.28  HD
ATOM     29 H2   ALA C   1      -2.849  21.026  37.286  1.00 23.94 LIG 0.28  HD
ENDBRANCH 24 26
ENDBRANCH 22 24
ENDBRANCH 18 20
ENDBRANCH 1 18
TORSDOF 9
ENDMDL
MODEL 29
USER: ADFR SOLUTION from run 62
USER: SCORE 7.490845 LL:  -1.835 LR:  -5.970 RR:   0.000 FEB:  -3.285
USER: RMSD 3.852413
USER: SEED 61
USER: STATUS no improvement in best in 23 clusters for 5 generations
USER: GENES 11
USER: genes 0 Translation |==|  0.57765 0.52572 0.47859
USER: genes 1 Rotation |==|  0.33625 0.44790 0.64154 0.94770
USER: genes 2 Torsion [C]-N--CA-[CB] |==|  0.82300
USER: genes 3 Torsion [N]-CA--C-[N] |==|  0.43746
USER: genes 4 Torsion [C]-N--CA-[C] |==|  0.59714
USER: genes 5 Torsion [N]-CA--CB-[CG1] |==|  0.57042
USER: genes 6 Torsion [N]-CA--C-[O] |==|  0.11450
USER: genes 7 Torsion [N]-C--CA-[N] |==|  0.35571
USER: genes 8 Torsion [C]-CA--N-[C] |==|  0.71839
USER: genes 9 Torsion [N]-C--CA-[N] |==|  0.47068
USER: genes 10 Torsion [C]-CA--N-[H3] |==|  0.49242
ROOT
ATOM      1  C   ALA C   2      -4.648  18.895  31.394  1.00 14.06 LIG 0.24  C 
ATOM      2 O    ALA C   2      -4.108  17.859  31.765  1.00 12.98 LIG-0.27  OA
ATOM      3  N   ALA C   3      -4.421  19.438  30.205  1.00 13.94 LIG-0.35  N 
ATOM      4 H    ALA C   3      -4.791  20.164  29.932  1.00 13.94 LIG 0.16  HD
ENDROOT
BRANCH 3 5
ATOM      5  CA  ALA C   3      -3.501  18.831  29.245  1.00 13.65 LIG 0.17  C 
ATOM      6  CB  ALA C   3      -2.082  18.823  29.799  1.00 15.05 LIG 0.04  C 
BRANCH 5 7
ATOM      7  C   ALA C   3      -3.930  17.414  28.843  1.00 12.34 LIG 0.24  C 
ATOM      8  N   VAL C   4      -3.462  16.969  27.678  1.00 12.14 LIG-0.34  N 
ATOM      9 H    VAL C   4      -3.046  17.457  27.106  1.00 12.14 LIG 0.16  HD
ATOM     10 O    ALA C   3      -4.665  16.735  29.567  1.00 12.93 LIG-0.27  OA
BRANCH 8 11
ATOM     11  CA  VAL C   4      -3.629  15.578  27.282  1.00 11.36 LIG 0.19  C 
BRANCH 11 12
ATOM     12  CB  VAL C   4      -4.883  15.374  26.421  1.00 10.99 LIG 0.01  C 
ATOM     13  CG2 VAL C   4      -5.959  16.356  26.827  1.00 10.63 LIG 0.01  C 
ATOM     14  CG1 VAL C   4      -5.394  13.938  26.532  1.00  9.95 LIG 0.01  C 
ENDBRANCH 11 12
BRANCH 11 15
ATOM     15  C   VAL C   4      -2.388  15.161  26.498  1.00 12.38 LIG 0.20  C 
ATOM     16 O    VAL C   4      -1.278  15.540  26.904  1.00 12.95 LIG-0.65  OA
ATOM     17 OXT  VAL C   4      -2.485  14.441  25.486  1.00 15.04 LIG-0.65  OA
ENDBRANCH 11 15
ENDBRANCH 8 11
ENDBRANCH 5 7
ENDBRANCH 3 5
BRANCH 1 18
ATOM     18  CA  ALA C   2      -5.607  19.636  32.332  1.00 15.83 LIG 0.17  C 
ATOM     19  CB  ALA C   2      -4.862  20.314  33.480  1.00 17.22 LIG 0.04  C 
BRANCH 18 20
ATOM     20  N   ALA C   2      -6.673  18.780  32.853  1.00 18.67 LIG-0.35  N 
ATOM     21 H    ALA C   2      -6.432  18.266  33.499  1.00 18.67 LIG 0.16  HD
ATOM     22  C   ALA C   1      -7.908  18.813  32.349  1.00 21.34 LIG 0.25  C 
ATOM     23 O    ALA C   1      -8.239  19.574  31.428  1.00 22.28 LIG-0.27  OA
BRANCH 22 24
ATOM     24  CA  ALA C   1      -8.936  17.869  32.992  1.00 22.82 LIG 0.27  C 
ATOM     25  CB  ALA C   1      -8.575  16.404  32.710  1.00 23.12 LIG 0.05  C 
BRANCH 24 26
ATOM     26  N   ALA C   1     -10.331  18.147  32.545  1.00 23.94 LIG-0.07  N 
ATOM     27 H1   ALA C   1     -10.566  18.966  32.799  1.00 23.94 LIG 0.28  HD
ATOM     28 H3   ALA C   1     -10.884  17.553  32.911  1.00 23.94 LIG 0.28  HD
ATOM     29 H2   ALA C   1     -10.376  18.087  31.659  1.00 23.94 LIG 0.28  HD
ENDBRANCH 24 26
ENDBRANCH 22 24
ENDBRANCH 18 20
ENDBRANCH 1 18
TORSDOF 9
ENDMDL
MODEL 30
USER: ADFR SOLUTION from run 125
USER: SCORE 7.089999 LL:  -1.901 LR:  -5.963 RR:   0.000 FEB:  -3.279
USER: RMSD 3.110420
USER: SEED 124
USER: STATUS no improvement in best in 15 clusters for 5 generations
USER: GENES 11
USER: genes 0 Translation |==|  0.36539 0.43292 0.51473
USER: genes 1 Rotation |==|  0.41665 0.60746 0.64474 0.95886
USER: genes 2 Torsion [C]-N--CA-[CB] |==|  0.47778
USER: genes 3 Torsion [N]-CA--C-[N] |==|  0.47836
USER: genes 4 Torsion [C]-N--CA-[C] |==|  0.61475
USER: genes 5 Torsion [N]-CA--CB-[CG1] |==|  0.47136
USER: genes 6 Torsion [N]-CA--C-[O] |==|  0.31259
USER: genes 7 Torsion [N]-C--CA-[N] |==|  0.47073
USER: genes 8 Torsion [C]-CA--N-[C] |==|  0.54174
USER: genes 9 Torsion [N]-C--CA-[N] |==|  0.26141
USER: genes 10 Torsion [C]-CA--N-[H3] |==|  0.92331
ROOT
ATOM      1  C   ALA C   2      -7.991  17.364  32.044  1.00 14.06 LIG 0.24  C 
ATOM      2 O    ALA C   2      -7.565  16.220  31.929  1.00 12.98 LIG-0.27  OA
ATOM      3  N   ALA C   3      -8.441  18.071  31.016  1.00 13.94 LIG-0.35  N 
ATOM      4 H    ALA C   3      -8.742  18.874  31.082  1.00 13.94 LIG 0.16  HD
ENDROOT
BRANCH 3 5
ATOM      5  CA  ALA C   3      -8.461  17.528  29.659  1.00 13.65 LIG 0.17  C 
ATOM      6  CB  ALA C   3      -9.203  18.471  28.720  1.00 15.05 LIG 0.04  C 
BRANCH 5 7
ATOM      7  C   ALA C   3      -7.052  17.238  29.126  1.00 12.34 LIG 0.24  C 
ATOM      8  N   VAL C   4      -6.986  16.594  27.963  1.00 12.14 LIG-0.34  N 
ATOM      9 H    VAL C   4      -7.663  16.240  27.568  1.00 12.14 LIG 0.16  HD
ATOM     10 O    ALA C   3      -6.044  17.589  29.749  1.00 12.93 LIG-0.27  OA
BRANCH 8 11
ATOM     11  CA  VAL C   4      -5.722  16.440  27.257  1.00 11.36 LIG 0.19  C 
BRANCH 11 12
ATOM     12  CB  VAL C   4      -5.112  15.048  27.474  1.00 10.99 LIG 0.01  C 
ATOM     13  CG2 VAL C   4      -4.685  14.885  28.915  1.00 10.63 LIG 0.01  C 
ATOM     14  CG1 VAL C   4      -3.930  14.819  26.532  1.00  9.95 LIG 0.01  C 
ENDBRANCH 11 12
BRANCH 11 15
ATOM     15  C   VAL C   4      -5.984  16.666  25.770  1.00 12.38 LIG 0.20  C 
ATOM     16 O    VAL C   4      -5.495  17.671  25.232  1.00 12.95 LIG-0.65  OA
ATOM     17 OXT  VAL C   4      -6.656  15.851  25.110  1.00 15.04 LIG-0.65  OA
ENDBRANCH 11 15
ENDBRANCH 8 11
ENDBRANCH 5 7
ENDBRANCH 3 5
BRANCH 1 18
ATOM     18  CA  ALA C   2      -7.987  18.046  33.417  1.00 15.83 LIG 0.17  C 
ATOM     19  CB  ALA C   2      -7.017  19.225  33.458  1.00 17.22 LIG 0.04  C 
BRANCH 18 20
ATOM     20  N   ALA C   2      -7.710  17.120  34.515  1.00 18.67 LIG-0.35  N 
ATOM     21 H    ALA C   2      -7.386  16.363  34.268  1.00 18.67 LIG 0.16  HD
ATOM     22  C   ALA C   1      -7.952  17.448  35.786  1.00 21.34 LIG 0.25  C 
ATOM     23 O    ALA C   1      -8.404  18.553  36.122  1.00 22.28 LIG-0.27  OA
BRANCH 22 24
ATOM     24  CA  ALA C   1      -7.608  16.388  36.844  1.00 22.82 LIG 0.27  C 
ATOM     25  CB  ALA C   1      -8.655  16.385  37.967  1.00 23.12 LIG 0.05  C 
BRANCH 24 26
ATOM     26  N   ALA C   1      -6.244  16.569  37.417  1.00 23.94 LIG-0.07  N 
ATOM     27 H1   ALA C   1      -6.294  17.071  38.150  1.00 23.94 LIG 0.28  HD
ATOM     28 H3   ALA C   1      -5.721  16.970  36.819  1.00 23.94 LIG 0.28  HD
ATOM     29 H2   ALA C   1      -5.902  15.774  37.626  1.00 23.94 LIG 0.28  HD
ENDBRANCH 24 26
ENDBRANCH 22 24
ENDBRANCH 18 20
ENDBRANCH 1 18
TORSDOF 9
ENDMDL
MODEL 31
USER: ADFR SOLUTION from run 26
USER: SCORE 6.791041 LL:  -2.062 LR:  -5.923 RR:   0.000 FEB:  -3.238
USER: RMSD 2.614135
USER: SEED 25
USER: STATUS no improvement in best in 28 clusters for 5 generations
USER: GENES 11
USER: genes 0 Translation |==|  0.34850 0.37758 0.55085
USER: genes 1 Rotation |==|  0.50150 0.44821 0.39509 0.98612
USER: genes 2 Torsion [C]-N--CA-[CB] |==|  0.20328
USER: genes 3 Torsion [N]-CA--C-[N] |==|  0.57321
USER: genes 4 Torsion [C]-N--CA-[C] |==|  0.51236
USER: genes 5 Torsion [N]-CA--CB-[CG1] |==|  0.20628
USER: genes 6 Torsion [N]-CA--C-[O] |==|  0.93872
USER: genes 7 Torsion [N]-C--CA-[N] |==|  0.93333
USER: genes 8 Torsion [C]-CA--N-[C] |==|  0.65635
USER: genes 9 Torsion [N]-C--CA-[N] |==|  0.64156
USER: genes 10 Torsion [C]-CA--N-[H3] |==|  0.26279
ROOT
ATOM      1  C   ALA C   2      -8.257  16.451  32.694  1.00 14.06 LIG 0.24  C 
ATOM      2 O    ALA C   2      -8.759  15.471  32.154  1.00 12.98 LIG-0.27  OA
ATOM      3  N   ALA C   3      -7.261  17.140  32.153  1.00 13.94 LIG-0.35  N 
ATOM      4 H    ALA C   3      -6.900  17.828  32.520  1.00 13.94 LIG 0.16  HD
ENDROOT
BRANCH 3 5
ATOM      5  CA  ALA C   3      -6.687  16.774  30.859  1.00 13.65 LIG 0.17  C 
ATOM      6  CB  ALA C   3      -7.645  17.135  29.731  1.00 15.05 LIG 0.04  C 
BRANCH 5 7
ATOM      7  C   ALA C   3      -5.315  17.421  30.627  1.00 12.34 LIG 0.24  C 
ATOM      8  N   VAL C   4      -4.965  17.613  29.357  1.00 12.14 LIG-0.34  N 
ATOM      9 H    VAL C   4      -5.398  17.298  28.684  1.00 12.14 LIG 0.16  HD
ATOM     10 O    ALA C   3      -4.588  17.742  31.572  1.00 12.93 LIG-0.27  OA
BRANCH 8 11
ATOM     11  CA  VAL C   4      -3.788  18.396  29.010  1.00 11.36 LIG 0.19  C 
BRANCH 11 12
ATOM     12  CB  VAL C   4      -2.497  17.748  29.528  1.00 10.99 LIG 0.01  C 
ATOM     13  CG2 VAL C   4      -1.371  18.757  29.530  1.00 10.63 LIG 0.01  C 
ATOM     14  CG1 VAL C   4      -2.124  16.526  28.689  1.00  9.95 LIG 0.01  C 
ENDBRANCH 11 12
BRANCH 11 15
ATOM     15  C   VAL C   4      -3.734  18.515  27.489  1.00 12.38 LIG 0.20  C 
ATOM     16 O    VAL C   4      -4.339  17.671  26.810  1.00 12.95 LIG-0.65  OA
ATOM     17 OXT  VAL C   4      -3.114  19.448  26.945  1.00 15.04 LIG-0.65  OA
ENDBRANCH 11 15
ENDBRANCH 8 11
ENDBRANCH 5 7
ENDBRANCH 3 5
BRANCH 1 18
ATOM     18  CA  ALA C   2      -8.759  16.906  34.069  1.00 15.83 LIG 0.17  C 
ATOM     19  CB  ALA C   2     -10.049  17.717  33.958  1.00 17.22 LIG 0.04  C 
BRANCH 18 20
ATOM     20  N   ALA C   2      -7.755  17.650  34.829  1.00 18.67 LIG-0.35  N 
ATOM     21 H    ALA C   2      -7.442  18.341  34.422  1.00 18.67 LIG 0.16  HD
ATOM     22  C   ALA C   1      -7.372  17.266  36.048  1.00 21.34 LIG 0.25  C 
ATOM     23 O    ALA C   1      -7.848  16.276  36.622  1.00 22.28 LIG-0.27  OA
BRANCH 22 24
ATOM     24  CA  ALA C   1      -6.315  18.141  36.740  1.00 22.82 LIG 0.27  C 
ATOM     25  CB  ALA C   1      -5.814  19.238  35.790  1.00 23.12 LIG 0.05  C 
BRANCH 24 26
ATOM     26  N   ALA C   1      -5.163  17.349  37.258  1.00 23.94 LIG-0.07  N 
ATOM     27 H1   ALA C   1      -4.868  17.714  38.014  1.00 23.94 LIG 0.28  HD
ATOM     28 H3   ALA C   1      -4.509  17.346  36.655  1.00 23.94 LIG 0.28  HD
ATOM     29 H2   ALA C   1      -5.425  16.513  37.416  1.00 23.94 LIG 0.28  HD
ENDBRANCH 24 26
ENDBRANCH 22 24
ENDBRANCH 18 20
ENDBRANCH 1 18
TORSDOF 9
ENDMDL
MODEL 32
USER: ADFR SOLUTION from run 138
USER: SCORE 7.490004 LL:  -2.026 LR:  -5.919 RR:   0.000 FEB:  -3.234
USER: RMSD 3.615342
USER: SEED 137
USER: STATUS no improvement in best in 12 clusters for 5 generations
USER: GENES 11
USER: genes 0 Translation |==|  0.45463 0.42538 0.38662
USER: genes 1 Rotation |==|  0.50276 0.18217 0.47415 0.88511
USER: genes 2 Torsion [C]-N--CA-[CB] |==|  0.84662
USER: genes 3 Torsion [N]-CA--C-[N] |==|  0.84892
USER: genes 4 Torsion [C]-N--CA-[C] |==|  0.69471
USER: genes 5 Torsion [N]-CA--CB-[CG1] |==|  0.71254
USER: genes 6 Torsion [N]-CA--C-[O] |==|  0.24795
USER: genes 7 Torsion [N]-C--CA-[N] |==|  0.84863
USER: genes 8 Torsion [C]-CA--N-[C] |==|  0.83385
USER: genes 9 Torsion [N]-C--CA-[N] |==|  0.19949
USER: genes 10 Torsion [C]-CA--N-[H3] |==|  0.98956
ROOT
ATOM      1  C   ALA C   2      -6.586  17.240  29.738  1.00 14.06 LIG 0.24  C 
ATOM      2 O    ALA C   2      -6.241  16.108  29.415  1.00 12.98 LIG-0.27  OA
ATOM      3  N   ALA C   3      -5.728  18.158  30.164  1.00 13.94 LIG-0.35  N 
ATOM      4 H    ALA C   3      -5.955  18.955  30.394  1.00 13.94 LIG 0.16  HD
ENDROOT
BRANCH 3 5
ATOM      5  CA  ALA C   3      -4.297  17.881  30.277  1.00 13.65 LIG 0.17  C 
ATOM      6  CB  ALA C   3      -4.060  16.658  31.154  1.00 15.05 LIG 0.04  C 
BRANCH 5 7
ATOM      7  C   ALA C   3      -3.629  17.700  28.908  1.00 12.34 LIG 0.24  C 
ATOM      8  N   VAL C   4      -4.173  16.786  28.107  1.00 12.14 LIG-0.34  N 
ATOM      9 H    VAL C   4      -4.782  16.230  28.352  1.00 12.14 LIG 0.16  HD
ATOM     10 O    ALA C   3      -2.645  18.370  28.579  1.00 12.93 LIG-0.27  OA
BRANCH 8 11
ATOM     11  CA  VAL C   4      -3.761  16.663  26.716  1.00 11.36 LIG 0.19  C 
BRANCH 11 12
ATOM     12  CB  VAL C   4      -3.401  15.216  26.352  1.00 10.99 LIG 0.01  C 
ATOM     13  CG2 VAL C   4      -4.008  14.259  27.355  1.00 10.63 LIG 0.01  C 
ATOM     14  CG1 VAL C   4      -1.886  15.032  26.281  1.00  9.95 LIG 0.01  C 
ENDBRANCH 11 12
BRANCH 11 15
ATOM     15  C   VAL C   4      -4.914  17.147  25.841  1.00 12.38 LIG 0.20  C 
ATOM     16 O    VAL C   4      -4.964  18.350  25.543  1.00 12.95 LIG-0.65  OA
ATOM     17 OXT  VAL C   4      -5.772  16.349  25.419  1.00 15.04 LIG-0.65  OA
ENDBRANCH 11 15
ENDBRANCH 8 11
ENDBRANCH 5 7
ENDBRANCH 3 5
BRANCH 1 18
ATOM     18  CA  ALA C   2      -8.066  17.631  29.689  1.00 15.83 LIG 0.17  C 
ATOM     19  CB  ALA C   2      -8.347  18.640  28.577  1.00 17.22 LIG 0.04  C 
BRANCH 18 20
ATOM     20  N   ALA C   2      -8.569  18.132  30.969  1.00 18.67 LIG-0.35  N 
ATOM     21 H    ALA C   2      -8.875  18.936  30.940  1.00 18.67 LIG 0.16  HD
ATOM     22  C   ALA C   1      -8.544  17.384  32.073  1.00 21.34 LIG 0.25  C 
ATOM     23 O    ALA C   1      -8.115  16.221  32.088  1.00 22.28 LIG-0.27  OA
BRANCH 22 24
ATOM     24  CA  ALA C   1      -9.110  18.027  33.349  1.00 22.82 LIG 0.27  C 
ATOM     25  CB  ALA C   1      -8.678  17.236  34.591  1.00 23.12 LIG 0.05  C 
BRANCH 24 26
ATOM     26  N   ALA C   1     -10.594  18.158  33.316  1.00 23.94 LIG-0.07  N 
ATOM     27 H1   ALA C   1     -10.950  17.658  33.960  1.00 23.94 LIG 0.28  HD
ATOM     28 H3   ALA C   1     -10.900  17.884  32.526  1.00 23.94 LIG 0.28  HD
ATOM     29 H2   ALA C   1     -10.821  19.009  33.443  1.00 23.94 LIG 0.28  HD
ENDBRANCH 24 26
ENDBRANCH 22 24
ENDBRANCH 18 20
ENDBRANCH 1 18
TORSDOF 9
ENDMDL
MODEL 33
USER: ADFR SOLUTION from run 184
USER: SCORE 7.022932 LL:  -2.121 LR:  -5.860 RR:   0.000 FEB:  -3.175
USER: RMSD 3.183724
USER: SEED 183
USER: STATUS no improvement in best in 18 clusters for 5 generations
USER: GENES 11
USER: genes 0 Translation |==|  0.43859 0.53470 0.54627
USER: genes 1 Rotation |==|  0.57578 0.30276 0.04866 0.54057
USER: genes 2 Torsion [C]-N--CA-[CB] |==|  0.80521
USER: genes 3 Torsion [N]-CA--C-[N] |==|  0.55850
USER: genes 4 Torsion [C]-N--CA-[C] |==|  0.53456
USER: genes 5 Torsion [N]-CA--CB-[CG1] |==|  0.27824
USER: genes 6 Torsion [N]-CA--C-[O] |==|  0.95467
USER: genes 7 Torsion [N]-C--CA-[N] |==|  0.18769
USER: genes 8 Torsion [C]-CA--N-[C] |==|  0.75000
USER: genes 9 Torsion [N]-C--CA-[N] |==|  0.59203
USER: genes 10 Torsion [C]-CA--N-[H3] |==|  0.97396
ROOT
ATOM      1  C   ALA C   2      -6.838  19.044  32.612  1.00 14.06 LIG 0.24  C 
ATOM      2 O    ALA C   2      -6.567  19.526  31.517  1.00 12.98 LIG-0.27  OA
ATOM      3  N   ALA C   3      -7.040  17.746  32.796  1.00 13.94 LIG-0.35  N 
ATOM      4 H    ALA C   3      -7.232  17.394  33.557  1.00 13.94 LIG 0.16  HD
ENDROOT
BRANCH 3 5
ATOM      5  CA  ALA C   3      -6.952  16.789  31.694  1.00 13.65 LIG 0.17  C 
ATOM      6  CB  ALA C   3      -8.122  16.971  30.736  1.00 15.05 LIG 0.04  C 
BRANCH 5 7
ATOM      7  C   ALA C   3      -5.619  16.890  30.941  1.00 12.34 LIG 0.24  C 
ATOM      8  N   VAL C   4      -5.608  16.399  29.702  1.00 12.14 LIG-0.34  N 
ATOM      9 H    VAL C   4      -6.248  15.939  29.359  1.00 12.14 LIG 0.16  HD
ATOM     10 O    ALA C   3      -4.623  17.401  31.462  1.00 12.93 LIG-0.27  OA
BRANCH 8 11
ATOM     11  CA  VAL C   4      -4.473  16.616  28.817  1.00 11.36 LIG 0.19  C 
BRANCH 11 12
ATOM     12  CB  VAL C   4      -3.246  15.802  29.250  1.00 10.99 LIG 0.01  C 
ATOM     13  CG2 VAL C   4      -1.997  16.650  29.156  1.00 10.63 LIG 0.01  C 
ATOM     14  CG1 VAL C   4      -3.103  14.537  28.404  1.00  9.95 LIG 0.01  C 
ENDBRANCH 11 12
BRANCH 11 15
ATOM     15  C   VAL C   4      -4.893  16.211  27.407  1.00 12.38 LIG 0.20  C 
ATOM     16 O    VAL C   4      -5.911  15.514  27.272  1.00 12.95 LIG-0.65  OA
ATOM     17 OXT  VAL C   4      -4.240  16.587  26.415  1.00 15.04 LIG-0.65  OA
ENDBRANCH 11 15
ENDBRANCH 8 11
ENDBRANCH 5 7
ENDBRANCH 3 5
BRANCH 1 18
ATOM     18  CA  ALA C   2      -6.988  19.958  33.833  1.00 15.83 LIG 0.17  C 
ATOM     19  CB  ALA C   2      -7.039  21.431  33.431  1.00 17.22 LIG 0.04  C 
BRANCH 18 20
ATOM     20  N   ALA C   2      -5.951  19.741  34.842  1.00 18.67 LIG-0.35  N 
ATOM     21 H    ALA C   2      -5.248  20.226  34.739  1.00 18.67 LIG 0.16  HD
ATOM     22  C   ALA C   1      -6.108  18.857  35.829  1.00 21.34 LIG 0.25  C 
ATOM     23 O    ALA C   1      -7.137  18.179  35.969  1.00 22.28 LIG-0.27  OA
BRANCH 22 24
ATOM     24  CA  ALA C   1      -4.946  18.732  36.827  1.00 22.82 LIG 0.27  C 
ATOM     25  CB  ALA C   1      -3.633  19.210  36.190  1.00 23.12 LIG 0.05  C 
BRANCH 24 26
ATOM     26  N   ALA C   1      -4.784  17.346  37.351  1.00 23.94 LIG-0.07  N 
ATOM     27 H1   ALA C   1      -4.034  16.992  37.029  1.00 23.94 LIG 0.28  HD
ATOM     28 H3   ALA C   1      -5.478  16.850  37.097  1.00 23.94 LIG 0.28  HD
ATOM     29 H2   ALA C   1      -4.743  17.367  38.239  1.00 23.94 LIG 0.28  HD
ENDBRANCH 24 26
ENDBRANCH 22 24
ENDBRANCH 18 20
ENDBRANCH 1 18
TORSDOF 9
ENDMDL
MODEL 34
USER: ADFR SOLUTION from run 34
USER: SCORE 6.779274 LL:  -1.551 LR:  -5.846 RR:   0.000 FEB:  -3.161
USER: RMSD 3.083463
USER: SEED 33
USER: STATUS no improvement in best in 21 clusters for 5 generations
USER: GENES 11
USER: genes 0 Translation |==|  0.46540 0.43368 0.47125
USER: genes 1 Rotation |==|  0.40759 0.36666 0.71562 0.92094
USER: genes 2 Torsion [C]-N--CA-[CB] |==|  0.83657
USER: genes 3 Torsion [N]-CA--C-[N] |==|  0.41667
USER: genes 4 Torsion [C]-N--CA-[C] |==|  0.16875
USER: genes 5 Torsion [N]-CA--CB-[CG1] |==|  0.57438
USER: genes 6 Torsion [N]-CA--C-[O] |==|  0.69276
USER: genes 7 Torsion [N]-C--CA-[N] |==|  0.70467
USER: genes 8 Torsion [C]-CA--N-[C] |==|  0.64077
USER: genes 9 Torsion [N]-C--CA-[N] |==|  0.64339
USER: genes 10 Torsion [C]-CA--N-[H3] |==|  0.22426
ROOT
ATOM      1  C   ALA C   2      -6.416  17.377  31.261  1.00 14.06 LIG 0.24  C 
ATOM      2 O    ALA C   2      -5.502  16.582  31.459  1.00 12.98 LIG-0.27  OA
ATOM      3  N   ALA C   3      -6.377  18.293  30.303  1.00 13.94 LIG-0.35  N 
ATOM      4 H    ALA C   3      -7.009  18.856  30.153  1.00 13.94 LIG 0.16  HD
ENDROOT
BRANCH 3 5
ATOM      5  CA  ALA C   3      -5.230  18.420  29.406  1.00 13.65 LIG 0.17  C 
ATOM      6  CB  ALA C   3      -3.960  18.694  30.201  1.00 15.05 LIG 0.04  C 
BRANCH 5 7
ATOM      7  C   ALA C   3      -5.049  17.185  28.513  1.00 12.34 LIG 0.24  C 
ATOM      8  N   VAL C   4      -4.504  17.402  27.317  1.00 12.14 LIG-0.34  N 
ATOM      9 H    VAL C   4      -4.363  18.182  26.985  1.00 12.14 LIG 0.16  HD
ATOM     10 O    ALA C   3      -5.392  16.061  28.893  1.00 12.93 LIG-0.27  OA
BRANCH 8 11
ATOM     11  CA  VAL C   4      -4.096  16.295  26.464  1.00 11.36 LIG 0.19  C 
BRANCH 11 12
ATOM     12  CB  VAL C   4      -3.031  15.418  27.136  1.00 10.99 LIG 0.01  C 
ATOM     13  CG2 VAL C   4      -2.181  16.252  28.068  1.00 10.63 LIG 0.01  C 
ATOM     14  CG1 VAL C   4      -2.160  14.721  26.091  1.00  9.95 LIG 0.01  C 
ENDBRANCH 11 12
BRANCH 11 15
ATOM     15  C   VAL C   4      -5.336  15.460  26.154  1.00 12.38 LIG 0.20  C 
ATOM     16 O    VAL C   4      -5.423  14.326  26.650  1.00 12.95 LIG-0.65  OA
ATOM     17 OXT  VAL C   4      -6.246  15.914  25.436  1.00 15.04 LIG-0.65  OA
ENDBRANCH 11 15
ENDBRANCH 8 11
ENDBRANCH 5 7
ENDBRANCH 3 5
BRANCH 1 18
ATOM     18  CA  ALA C   2      -7.655  17.356  32.163  1.00 15.83 LIG 0.17  C 
ATOM     19  CB  ALA C   2      -8.831  18.091  31.522  1.00 17.22 LIG 0.04  C 
BRANCH 18 20
ATOM     20  N   ALA C   2      -7.397  17.881  33.504  1.00 18.67 LIG-0.35  N 
ATOM     21 H    ALA C   2      -7.007  18.648  33.516  1.00 18.67 LIG 0.16  HD
ATOM     22  C   ALA C   1      -7.746  17.205  34.600  1.00 21.34 LIG 0.25  C 
ATOM     23 O    ALA C   1      -8.322  16.108  34.560  1.00 22.28 LIG-0.27  OA
BRANCH 22 24
ATOM     24  CA  ALA C   1      -7.425  17.872  35.947  1.00 22.82 LIG 0.27  C 
ATOM     25  CB  ALA C   1      -6.639  19.173  35.732  1.00 23.12 LIG 0.05  C 
BRANCH 24 26
ATOM     26  N   ALA C   1      -6.679  16.971  36.871  1.00 23.94 LIG-0.07  N 
ATOM     27 H1   ALA C   1      -6.774  17.260  37.707  1.00 23.94 LIG 0.28  HD
ATOM     28 H3   ALA C   1      -5.816  16.971  36.654  1.00 23.94 LIG 0.28  HD
ATOM     29 H2   ALA C   1      -7.002  16.145  36.805  1.00 23.94 LIG 0.28  HD
ENDBRANCH 24 26
ENDBRANCH 22 24
ENDBRANCH 18 20
ENDBRANCH 1 18
TORSDOF 9
ENDMDL
MODEL 35
USER: ADFR SOLUTION from run 13
USER: SCORE 7.176250 LL:  -2.301 LR:  -5.821 RR:   0.000 FEB:  -3.136
USER: RMSD 3.213530
USER: SEED 665726
USER: STATUS no improvement in best in 13 clusters for 5 generations
USER: GENES 11
USER: genes 0 Translation |==|  0.37951 0.43398 0.50977
USER: genes 1 Rotation |==|  0.43384 0.61785 0.63539 0.96195
USER: genes 2 Torsion [C]-N--CA-[CB] |==|  0.46279
USER: genes 3 Torsion [N]-CA--C-[N] |==|  0.43323
USER: genes 4 Torsion [C]-N--CA-[C] |==|  0.64455
USER: genes 5 Torsion [N]-CA--CB-[CG1] |==|  0.50496
USER: genes 6 Torsion [N]-CA--C-[O] |==|  0.30153
USER: genes 7 Torsion [N]-C--CA-[N] |==|  0.85660
USER: genes 8 Torsion [C]-CA--N-[C] |==|  0.86641
USER: genes 9 Torsion [N]-C--CA-[N] |==|  0.47797
USER: genes 10 Torsion [C]-CA--N-[H3] |==|  0.31530
ROOT
ATOM      1  C   ALA C   2      -7.769  17.382  31.955  1.00 14.06 LIG 0.24  C 
ATOM      2 O    ALA C   2      -7.419  16.221  31.768  1.00 12.98 LIG-0.27  OA
ATOM      3  N   ALA C   3      -8.223  18.161  30.982  1.00 13.94 LIG-0.35  N 
ATOM      4 H    ALA C   3      -8.472  18.976  31.098  1.00 13.94 LIG 0.16  HD
ENDROOT
BRANCH 3 5
ATOM      5  CA  ALA C   3      -8.341  17.684  29.605  1.00 13.65 LIG 0.17  C 
ATOM      6  CB  ALA C   3      -9.183  18.648  28.779  1.00 15.05 LIG 0.04  C 
BRANCH 5 7
ATOM      7  C   ALA C   3      -6.974  17.463  28.947  1.00 12.34 LIG 0.24  C 
ATOM      8  N   VAL C   4      -6.944  16.597  27.934  1.00 12.14 LIG-0.34  N 
ATOM      9 H    VAL C   4      -7.600  16.087  27.717  1.00 12.14 LIG 0.16  HD
ATOM     10 O    ALA C   3      -5.966  18.061  29.339  1.00 12.93 LIG-0.27  OA
BRANCH 8 11
ATOM     11  CA  VAL C   4      -5.759  16.454  27.101  1.00 11.36 LIG 0.19  C 
BRANCH 11 12
ATOM     12  CB  VAL C   4      -5.071  15.099  27.315  1.00 10.99 LIG 0.01  C 
ATOM     13  CG2 VAL C   4      -4.746  14.904  28.779  1.00 10.63 LIG 0.01  C 
ATOM     14  CG1 VAL C   4      -3.806  14.989  26.463  1.00  9.95 LIG 0.01  C 
ENDBRANCH 11 12
BRANCH 11 15
ATOM     15  C   VAL C   4      -6.190  16.593  25.644  1.00 12.38 LIG 0.20  C 
ATOM     16 O    VAL C   4      -5.869  17.622  25.029  1.00 12.95 LIG-0.65  OA
ATOM     17 OXT  VAL C   4      -6.832  15.687  25.080  1.00 15.04 LIG-0.65  OA
ENDBRANCH 11 15
ENDBRANCH 8 11
ENDBRANCH 5 7
ENDBRANCH 3 5
BRANCH 1 18
ATOM     18  CA  ALA C   2      -7.658  17.997  33.354  1.00 15.83 LIG 0.17  C 
ATOM     19  CB  ALA C   2      -9.030  18.175  34.002  1.00 17.22 LIG 0.04  C 
BRANCH 18 20
ATOM     20  N   ALA C   2      -6.922  19.261  33.367  1.00 18.67 LIG-0.35  N 
ATOM     21 H    ALA C   2      -7.312  19.895  33.799  1.00 18.67 LIG 0.16  HD
ATOM     22  C   ALA C   1      -5.745  19.393  32.752  1.00 21.34 LIG 0.25  C 
ATOM     23 O    ALA C   1      -5.192  18.461  32.150  1.00 22.28 LIG-0.27  OA
BRANCH 22 24
ATOM     24  CA  ALA C   1      -5.073  20.772  32.850  1.00 22.82 LIG 0.27  C 
ATOM     25  CB  ALA C   1      -5.921  21.838  32.144  1.00 23.12 LIG 0.05  C 
BRANCH 24 26
ATOM     26  N   ALA C   1      -3.687  20.775  32.301  1.00 23.94 LIG-0.07  N 
ATOM     27 H1   ALA C   1      -3.127  21.099  32.911  1.00 23.94 LIG 0.28  HD
ATOM     28 H3   ALA C   1      -3.657  21.285  31.571  1.00 23.94 LIG 0.28  HD
ATOM     29 H2   ALA C   1      -3.448  19.944  32.092  1.00 23.94 LIG 0.28  HD
ENDBRANCH 24 26
ENDBRANCH 22 24
ENDBRANCH 18 20
ENDBRANCH 1 18
TORSDOF 9
ENDMDL
MODEL 36
USER: ADFR SOLUTION from run 76
USER: SCORE 7.291024 LL:  -1.807 LR:  -5.822 RR:   0.000 FEB:  -3.137
USER: RMSD 3.511206
USER: SEED 75
USER: STATUS no improvement in best in 8 clusters for 5 generations
USER: GENES 11
USER: genes 0 Translation |==|  0.37783 0.42135 0.50270
USER: genes 1 Rotation |==|  0.53079 0.38185 0.39951 0.97433
USER: genes 2 Torsion [C]-N--CA-[CB] |==|  0.84096
USER: genes 3 Torsion [N]-CA--C-[N] |==|  0.41391
USER: genes 4 Torsion [C]-N--CA-[C] |==|  0.72070
USER: genes 5 Torsion [N]-CA--CB-[CG1] |==|  0.14816
USER: genes 6 Torsion [N]-CA--C-[O] |==|  0.38549
USER: genes 7 Torsion [N]-C--CA-[N] |==|  0.30403
USER: genes 8 Torsion [C]-CA--N-[C] |==|  0.75248
USER: genes 9 Torsion [N]-C--CA-[N] |==|  0.96938
USER: genes 10 Torsion [C]-CA--N-[H3] |==|  0.14673
ROOT
ATOM      1  C   ALA C   2      -7.795  17.173  31.828  1.00 14.06 LIG 0.24  C 
ATOM      2 O    ALA C   2      -8.096  16.221  31.115  1.00 12.98 LIG-0.27  OA
ATOM      3  N   ALA C   3      -6.705  17.903  31.630  1.00 13.94 LIG-0.35  N 
ATOM      4 H    ALA C   3      -6.481  18.572  32.121  1.00 13.94 LIG 0.16  HD
ENDROOT
BRANCH 3 5
ATOM      5  CA  ALA C   3      -5.778  17.620  30.536  1.00 13.65 LIG 0.17  C 
ATOM      6  CB  ALA C   3      -5.261  16.190  30.633  1.00 15.05 LIG 0.04  C 
BRANCH 5 7
ATOM      7  C   ALA C   3      -6.406  17.872  29.159  1.00 12.34 LIG 0.24  C 
ATOM      8  N   VAL C   4      -5.572  18.268  28.199  1.00 12.14 LIG-0.34  N 
ATOM      9 H    VAL C   4      -4.754  18.495  28.333  1.00 12.14 LIG 0.16  HD
ATOM     10 O    ALA C   3      -7.615  17.712  28.965  1.00 12.93 LIG-0.27  OA
BRANCH 8 11
ATOM     11  CA  VAL C   4      -6.005  18.344  26.811  1.00 11.36 LIG 0.19  C 
BRANCH 11 12
ATOM     12  CB  VAL C   4      -5.475  19.604  26.114  1.00 10.99 LIG 0.01  C 
ATOM     13  CG2 VAL C   4      -5.868  19.598  24.654  1.00 10.63 LIG 0.01  C 
ATOM     14  CG1 VAL C   4      -3.958  19.714  26.264  1.00  9.95 LIG 0.01  C 
ENDBRANCH 11 12
BRANCH 11 15
ATOM     15  C   VAL C   4      -5.492  17.099  26.091  1.00 12.38 LIG 0.20  C 
ATOM     16 O    VAL C   4      -6.246  16.531  25.285  1.00 12.95 LIG-0.65  OA
ATOM     17 OXT  VAL C   4      -4.339  16.676  26.293  1.00 15.04 LIG-0.65  OA
ENDBRANCH 11 15
ENDBRANCH 8 11
ENDBRANCH 5 7
ENDBRANCH 3 5
BRANCH 1 18
ATOM     18  CA  ALA C   2      -8.679  17.542  33.024  1.00 15.83 LIG 0.17  C 
ATOM     19  CB  ALA C   2      -8.914  16.343  33.941  1.00 17.22 LIG 0.04  C 
BRANCH 18 20
ATOM     20  N   ALA C   2      -9.955  18.140  32.631  1.00 18.67 LIG-0.35  N 
ATOM     21 H    ALA C   2     -10.595  17.574  32.525  1.00 18.67 LIG 0.16  HD
ATOM     22  C   ALA C   1     -10.088  19.456  32.458  1.00 21.34 LIG 0.25  C 
ATOM     23 O    ALA C   1      -9.157  20.256  32.634  1.00 22.28 LIG-0.27  OA
BRANCH 22 24
ATOM     24  CA  ALA C   1     -11.484  19.956  32.054  1.00 22.82 LIG 0.27  C 
ATOM     25  CB  ALA C   1     -12.109  20.786  33.183  1.00 23.12 LIG 0.05  C 
BRANCH 24 26
ATOM     26  N   ALA C   1     -12.401  18.846  31.667  1.00 23.94 LIG-0.07  N 
ATOM     27 H1   ALA C   1     -13.221  19.168  31.542  1.00 23.94 LIG 0.28  HD
ATOM     28 H3   ALA C   1     -12.419  18.235  32.315  1.00 23.94 LIG 0.28  HD
ATOM     29 H2   ALA C   1     -12.113  18.471  30.913  1.00 23.94 LIG 0.28  HD
ENDBRANCH 24 26
ENDBRANCH 22 24
ENDBRANCH 18 20
ENDBRANCH 1 18
TORSDOF 9
ENDMDL
MODEL 37
USER: ADFR SOLUTION from run 62
USER: SCORE 7.088276 LL:  -1.938 LR:  -5.812 RR:   0.000 FEB:  -3.127
USER: RMSD 2.615753
USER: SEED 61
USER: STATUS no improvement in best in 23 clusters for 5 generations
USER: GENES 11
USER: genes 0 Translation |==|  0.47328 0.52055 0.50360
USER: genes 1 Rotation |==|  0.35891 0.67826 0.93848 0.57777
USER: genes 2 Torsion [C]-N--CA-[CB] |==|  0.82222
USER: genes 3 Torsion [N]-CA--C-[N] |==|  0.52732
USER: genes 4 Torsion [C]-N--CA-[C] |==|  0.80783
USER: genes 5 Torsion [N]-CA--CB-[CG1] |==|  0.02301
USER: genes 6 Torsion [N]-CA--C-[O] |==|  0.40845
USER: genes 7 Torsion [N]-C--CA-[N] |==|  0.94995
USER: genes 8 Torsion [C]-CA--N-[C] |==|  0.84320
USER: genes 9 Torsion [N]-C--CA-[N] |==|  0.52616
USER: genes 10 Torsion [C]-CA--N-[H3] |==|  0.37269
ROOT
ATOM      1  C   ALA C   2      -6.292  18.810  31.844  1.00 14.06 LIG 0.24  C 
ATOM      2 O    ALA C   2      -5.458  19.253  31.060  1.00 12.98 LIG-0.27  OA
ATOM      3  N   ALA C   3      -6.892  17.640  31.670  1.00 13.94 LIG-0.35  N 
ATOM      4 H    ALA C   3      -7.478  17.318  32.210  1.00 13.94 LIG 0.16  HD
ENDROOT
BRANCH 3 5
ATOM      5  CA  ALA C   3      -6.597  16.787  30.520  1.00 13.65 LIG 0.17  C 
ATOM      6  CB  ALA C   3      -7.010  17.477  29.227  1.00 15.05 LIG 0.04  C 
BRANCH 5 7
ATOM      7  C   ALA C   3      -5.120  16.377  30.463  1.00 12.34 LIG 0.24  C 
ATOM      8  N   VAL C   4      -4.723  15.772  29.344  1.00 12.14 LIG-0.34  N 
ATOM      9 H    VAL C   4      -5.256  15.502  28.726  1.00 12.14 LIG 0.16  HD
ATOM     10 O    ALA C   3      -4.353  16.602  31.404  1.00 12.93 LIG-0.27  OA
BRANCH 8 11
ATOM     11  CA  VAL C   4      -3.313  15.518  29.085  1.00 11.36 LIG 0.19  C 
BRANCH 11 12
ATOM     12  CB  VAL C   4      -3.111  14.599  27.873  1.00 10.99 LIG 0.01  C 
ATOM     13  CG2 VAL C   4      -2.081  15.190  26.937  1.00 10.63 LIG 0.01  C 
ATOM     14  CG1 VAL C   4      -4.431  14.361  27.141  1.00  9.95 LIG 0.01  C 
ENDBRANCH 11 12
BRANCH 11 15
ATOM     15  C   VAL C   4      -2.632  16.861  28.837  1.00 12.38 LIG 0.20  C 
ATOM     16 O    VAL C   4      -1.453  17.001  29.199  1.00 12.95 LIG-0.65  OA
ATOM     17 OXT  VAL C   4      -3.239  17.788  28.268  1.00 15.04 LIG-0.65  OA
ENDBRANCH 11 15
ENDBRANCH 8 11
ENDBRANCH 5 7
ENDBRANCH 3 5
BRANCH 1 18
ATOM     18  CA  ALA C   2      -6.702  19.634  33.069  1.00 15.83 LIG 0.17  C 
ATOM     19  CB  ALA C   2      -5.614  19.631  34.141  1.00 17.22 LIG 0.04  C 
BRANCH 18 20
ATOM     20  N   ALA C   2      -7.981  19.213  33.641  1.00 18.67 LIG-0.35  N 
ATOM     21 H    ALA C   2      -7.944  18.995  34.472  1.00 18.67 LIG 0.16  HD
ATOM     22  C   ALA C   1      -9.098  19.178  32.911  1.00 21.34 LIG 0.25  C 
ATOM     23 O    ALA C   1      -9.133  19.514  31.718  1.00 22.28 LIG-0.27  OA
BRANCH 22 24
ATOM     24  CA  ALA C   1     -10.375  18.725  33.636  1.00 22.82 LIG 0.27  C 
ATOM     25  CB  ALA C   1     -10.109  17.455  34.456  1.00 23.12 LIG 0.05  C 
BRANCH 24 26
ATOM     26  N   ALA C   1     -11.516  18.501  32.703  1.00 23.94 LIG-0.07  N 
ATOM     27 H1   ALA C   1     -12.099  19.168  32.783  1.00 23.94 LIG 0.28  HD
ATOM     28 H3   ALA C   1     -11.917  17.732  32.902  1.00 23.94 LIG 0.28  HD
ATOM     29 H2   ALA C   1     -11.214  18.471  31.866  1.00 23.94 LIG 0.28  HD
ENDBRANCH 24 26
ENDBRANCH 22 24
ENDBRANCH 18 20
ENDBRANCH 1 18
TORSDOF 9
ENDMDL
MODEL 38
USER: ADFR SOLUTION from run 186
USER: SCORE 6.461018 LL:  -2.419 LR:  -5.774 RR:   0.000 FEB:  -3.089
USER: RMSD 3.785606
USER: SEED 185
USER: STATUS no improvement in best in 18 clusters for 5 generations
USER: GENES 11
USER: genes 0 Translation |==|  0.40997 0.43580 0.47573
USER: genes 1 Rotation |==|  0.37996 0.59552 0.49521 0.97586
USER: genes 2 Torsion [C]-N--CA-[CB] |==|  0.32232
USER: genes 3 Torsion [N]-CA--C-[N] |==|  0.21164
USER: genes 4 Torsion [C]-N--CA-[C] |==|  0.70753
USER: genes 5 Torsion [N]-CA--CB-[CG1] |==|  0.76349
USER: genes 6 Torsion [N]-CA--C-[O] |==|  0.96592
USER: genes 7 Torsion [N]-C--CA-[N] |==|  0.91667
USER: genes 8 Torsion [C]-CA--N-[C] |==|  0.83697
USER: genes 9 Torsion [N]-C--CA-[N] |==|  0.22628
USER: genes 10 Torsion [C]-CA--N-[H3] |==|  0.34155
ROOT
ATOM      1  C   ALA C   2      -7.289  17.412  31.342  1.00 14.06 LIG 0.24  C 
ATOM      2 O    ALA C   2      -7.520  16.223  31.539  1.00 12.98 LIG-0.27  OA
ATOM      3  N   ALA C   3      -7.162  17.928  30.127  1.00 13.94 LIG-0.35  N 
ATOM      4 H    ALA C   3      -7.000  18.758  29.974  1.00 13.94 LIG 0.16  HD
ENDROOT
BRANCH 3 5
ATOM      5  CA  ALA C   3      -7.292  17.107  28.924  1.00 13.65 LIG 0.17  C 
ATOM      6  CB  ALA C   3      -8.493  17.554  28.102  1.00 15.05 LIG 0.04  C 
BRANCH 5 7
ATOM      7  C   ALA C   3      -6.019  17.122  28.069  1.00 12.34 LIG 0.24  C 
ATOM      8  N   VAL C   4      -5.004  16.383  28.515  1.00 12.14 LIG-0.34  N 
ATOM      9 H    VAL C   4      -4.984  16.008  29.288  1.00 12.14 LIG 0.16  HD
ATOM     10 O    ALA C   3      -5.951  17.783  27.028  1.00 12.93 LIG-0.27  OA
BRANCH 8 11
ATOM     11  CA  VAL C   4      -3.823  16.154  27.696  1.00 11.36 LIG 0.19  C 
BRANCH 11 12
ATOM     12  CB  VAL C   4      -2.526  16.362  28.491  1.00 10.99 LIG 0.01  C 
ATOM     13  CG2 VAL C   4      -2.692  15.846  29.903  1.00 10.63 LIG 0.01  C 
ATOM     14  CG1 VAL C   4      -2.122  17.836  28.500  1.00  9.95 LIG 0.01  C 
ENDBRANCH 11 12
BRANCH 11 15
ATOM     15  C   VAL C   4      -3.885  14.722  27.171  1.00 12.38 LIG 0.20  C 
ATOM     16 O    VAL C   4      -4.718  13.948  27.668  1.00 12.95 LIG-0.65  OA
ATOM     17 OXT  VAL C   4      -3.132  14.346  26.254  1.00 15.04 LIG-0.65  OA
ENDBRANCH 11 15
ENDBRANCH 8 11
ENDBRANCH 5 7
ENDBRANCH 3 5
BRANCH 1 18
ATOM     18  CA  ALA C   2      -7.102  18.361  32.531  1.00 15.83 LIG 0.17  C 
ATOM     19  CB  ALA C   2      -8.438  18.909  33.030  1.00 17.22 LIG 0.04  C 
BRANCH 18 20
ATOM     20  N   ALA C   2      -6.176  19.457  32.249  1.00 18.67 LIG-0.35  N 
ATOM     21 H    ALA C   2      -6.516  20.242  32.338  1.00 18.67 LIG 0.16  HD
ATOM     22  C   ALA C   1      -4.912  19.230  31.885  1.00 21.34 LIG 0.25  C 
ATOM     23 O    ALA C   1      -4.436  18.091  31.779  1.00 22.28 LIG-0.27  OA
BRANCH 22 24
ATOM     24  CA  ALA C   1      -4.042  20.470  31.626  1.00 22.82 LIG 0.27  C 
ATOM     25  CB  ALA C   1      -2.896  20.135  30.661  1.00 23.12 LIG 0.05  C 
BRANCH 24 26
ATOM     26  N   ALA C   1      -3.497  21.062  32.881  1.00 23.94 LIG-0.07  N 
ATOM     27 H1   ALA C   1      -3.817  21.886  32.983  1.00 23.94 LIG 0.28  HD
ATOM     28 H3   ALA C   1      -2.609  21.093  32.833  1.00 23.94 LIG 0.28  HD
ATOM     29 H2   ALA C   1      -3.740  20.562  33.575  1.00 23.94 LIG 0.28  HD
ENDBRANCH 24 26
ENDBRANCH 22 24
ENDBRANCH 18 20
ENDBRANCH 1 18
TORSDOF 9
ENDMDL
MODEL 39
USER: ADFR SOLUTION from run 147
USER: SCORE 7.422292 LL:  -1.987 LR:  -5.727 RR:   0.000 FEB:  -3.043
USER: RMSD 2.952935
USER: SEED 146
USER: STATUS no improvement in best in 23 clusters for 5 generations
USER: GENES 11
USER: genes 0 Translation |==|  0.32144 0.46889 0.58020
USER: genes 1 Rotation |==|  0.34482 0.45413 0.88747 0.77145
USER: genes 2 Torsion [C]-N--CA-[CB] |==|  0.82365
USER: genes 3 Torsion [N]-CA--C-[N] |==|  0.48325
USER: genes 4 Torsion [C]-N--CA-[C] |==|  0.78193
USER: genes 5 Torsion [N]-CA--CB-[CG1] |==|  0.58141
USER: genes 6 Torsion [N]-CA--C-[O] |==|  0.61917
USER: genes 7 Torsion [N]-C--CA-[N] |==|  0.42679
USER: genes 8 Torsion [C]-CA--N-[C] |==|  0.82727
USER: genes 9 Torsion [N]-C--CA-[N] |==|  0.53465
USER: genes 10 Torsion [C]-CA--N-[H3] |==|  0.71631
ROOT
ATOM      1  C   ALA C   2      -8.683  17.958  33.223  1.00 14.06 LIG 0.24  C 
ATOM      2 O    ALA C   2      -7.498  18.172  33.454  1.00 12.98 LIG-0.27  OA
ATOM      3  N   ALA C   3      -9.172  17.870  31.992  1.00 13.94 LIG-0.35  N 
ATOM      4 H    ALA C   3     -10.000  17.721  31.816  1.00 13.94 LIG 0.16  HD
ENDROOT
BRANCH 3 5
ATOM      5  CA  ALA C   3      -8.321  18.023  30.814  1.00 13.65 LIG 0.17  C 
ATOM      6  CB  ALA C   3      -7.732  19.427  30.762  1.00 15.05 LIG 0.04  C 
BRANCH 5 7
ATOM      7  C   ALA C   3      -7.207  16.970  30.758  1.00 12.34 LIG 0.24  C 
ATOM      8  N   VAL C   4      -6.463  16.962  29.653  1.00 12.14 LIG-0.34  N 
ATOM      9 H    VAL C   4      -6.643  17.417  28.947  1.00 12.14 LIG 0.16  HD
ATOM     10 O    ALA C   3      -7.019  16.183  31.692  1.00 12.93 LIG-0.27  OA
BRANCH 8 11
ATOM     11  CA  VAL C   4      -5.256  16.153  29.565  1.00 11.36 LIG 0.19  C 
BRANCH 11 12
ATOM     12  CB  VAL C   4      -4.834  15.912  28.109  1.00 10.99 LIG 0.01  C 
ATOM     13  CG2 VAL C   4      -6.044  15.953  27.202  1.00 10.63 LIG 0.01  C 
ATOM     14  CG1 VAL C   4      -4.099  14.580  27.967  1.00  9.95 LIG 0.01  C 
ENDBRANCH 11 12
BRANCH 11 15
ATOM     15  C   VAL C   4      -4.145  16.885  30.313  1.00 12.38 LIG 0.20  C 
ATOM     16 O    VAL C   4      -3.017  16.929  29.798  1.00 12.95 LIG-0.65  OA
ATOM     17 OXT  VAL C   4      -4.370  17.441  31.404  1.00 15.04 LIG-0.65  OA
ENDBRANCH 11 15
ENDBRANCH 8 11
ENDBRANCH 5 7
ENDBRANCH 3 5
BRANCH 1 18
ATOM     18  CA  ALA C   2      -9.673  17.812  34.383  1.00 15.83 LIG 0.17  C 
ATOM     19  CB  ALA C   2     -10.418  19.118  34.657  1.00 17.22 LIG 0.04  C 
BRANCH 18 20
ATOM     20  N   ALA C   2      -9.049  17.316  35.610  1.00 18.67 LIG-0.35  N 
ATOM     21 H    ALA C   2      -9.087  17.862  36.274  1.00 18.67 LIG 0.16  HD
ATOM     22  C   ALA C   1      -8.475  16.112  35.667  1.00 21.34 LIG 0.25  C 
ATOM     23 O    ALA C   1      -8.447  15.334  34.702  1.00 22.28 LIG-0.27  OA
BRANCH 22 24
ATOM     24  CA  ALA C   1      -7.863  15.709  37.018  1.00 22.82 LIG 0.27  C 
ATOM     25  CB  ALA C   1      -7.072  16.877  37.623  1.00 23.12 LIG 0.05  C 
BRANCH 24 26
ATOM     26  N   ALA C   1      -6.996  14.501  36.918  1.00 23.94 LIG-0.07  N 
ATOM     27 H1   ALA C   1      -6.770  14.367  36.068  1.00 23.94 LIG 0.28  HD
ATOM     28 H3   ALA C   1      -7.439  13.791  37.222  1.00 23.94 LIG 0.28  HD
ATOM     29 H2   ALA C   1      -6.260  14.623  37.404  1.00 23.94 LIG 0.28  HD
ENDBRANCH 24 26
ENDBRANCH 22 24
ENDBRANCH 18 20
ENDBRANCH 1 18
TORSDOF 9
ENDMDL
MODEL 40
USER: ADFR SOLUTION from run 111
USER: SCORE 6.720374 LL:  -1.896 LR:  -5.716 RR:   0.000 FEB:  -3.031
USER: RMSD 3.705250
USER: SEED 110
USER: STATUS no improvement in best in 35 clusters for 5 generations
USER: GENES 11
USER: genes 0 Translation |==|  0.58145 0.49096 0.44574
USER: genes 1 Rotation |==|  0.31565 0.35765 0.66110 0.91207
USER: genes 2 Torsion [C]-N--CA-[CB] |==|  0.78882
USER: genes 3 Torsion [N]-CA--C-[N] |==|  0.24784
USER: genes 4 Torsion [C]-N--CA-[C] |==|  0.68493
USER: genes 5 Torsion [N]-CA--CB-[CG1] |==|  0.74643
USER: genes 6 Torsion [N]-CA--C-[O] |==|  0.25234
USER: genes 7 Torsion [N]-C--CA-[N] |==|  0.69462
USER: genes 8 Torsion [C]-CA--N-[C] |==|  0.64431
USER: genes 9 Torsion [N]-C--CA-[N] |==|  0.49549
USER: genes 10 Torsion [C]-CA--N-[H3] |==|  0.98521
ROOT
ATOM      1  C   ALA C   2      -4.588  18.322  30.802  1.00 14.06 LIG 0.24  C 
ATOM      2 O    ALA C   2      -3.996  17.425  31.394  1.00 12.98 LIG-0.27  OA
ATOM      3  N   ALA C   3      -4.099  18.915  29.721  1.00 13.94 LIG-0.35  N 
ATOM      4 H    ALA C   3      -4.503  19.544  29.297  1.00 13.94 LIG 0.16  HD
ENDROOT
BRANCH 3 5
ATOM      5  CA  ALA C   3      -2.807  18.536  29.153  1.00 13.65 LIG 0.17  C 
ATOM      6  CB  ALA C   3      -1.670  19.102  29.994  1.00 15.05 LIG 0.04  C 
BRANCH 5 7
ATOM      7  C   ALA C   3      -2.660  17.016  29.003  1.00 12.34 LIG 0.24  C 
ATOM      8  N   VAL C   4      -3.084  16.497  27.852  1.00 12.14 LIG-0.34  N 
ATOM      9 H    VAL C   4      -3.527  16.935  27.259  1.00 12.14 LIG 0.16  HD
ATOM     10 O    ALA C   3      -2.174  16.325  29.904  1.00 12.93 LIG-0.27  OA
BRANCH 8 11
ATOM     11  CA  VAL C   4      -2.815  15.109  27.508  1.00 11.36 LIG 0.19  C 
BRANCH 11 12
ATOM     12  CB  VAL C   4      -4.101  14.346  27.162  1.00 10.99 LIG 0.01  C 
ATOM     13  CG2 VAL C   4      -5.108  15.281  26.529  1.00 10.63 LIG 0.01  C 
ATOM     14  CG1 VAL C   4      -4.692  13.680  28.404  1.00  9.95 LIG 0.01  C 
ENDBRANCH 11 12
BRANCH 11 15
ATOM     15  C   VAL C   4      -1.867  15.096  26.312  1.00 12.38 LIG 0.20  C 
ATOM     16 O    VAL C   4      -0.645  15.072  26.528  1.00 12.95 LIG-0.65  OA
ATOM     17 OXT  VAL C   4      -2.310  15.090  25.148  1.00 15.04 LIG-0.65  OA
ENDBRANCH 11 15
ENDBRANCH 8 11
ENDBRANCH 5 7
ENDBRANCH 3 5
BRANCH 1 18
ATOM     18  CA  ALA C   2      -5.938  18.822  31.328  1.00 15.83 LIG 0.17  C 
ATOM     19  CB  ALA C   2      -6.664  19.679  30.292  1.00 17.22 LIG 0.04  C 
BRANCH 18 20
ATOM     20  N   ALA C   2      -5.827  19.543  32.596  1.00 18.67 LIG-0.35  N 
ATOM     21 H    ALA C   2      -5.246  20.177  32.595  1.00 18.67 LIG 0.16  HD
ATOM     22  C   ALA C   1      -6.577  19.223  33.652  1.00 21.34 LIG 0.25  C 
ATOM     23 O    ALA C   1      -7.422  18.316  33.628  1.00 22.28 LIG-0.27  OA
BRANCH 22 24
ATOM     24  CA  ALA C   1      -6.368  20.065  34.921  1.00 22.82 LIG 0.27  C 
ATOM     25  CB  ALA C   1      -4.905  19.995  35.381  1.00 23.12 LIG 0.05  C 
BRANCH 24 26
ATOM     26  N   ALA C   1      -7.274  19.661  36.034  1.00 23.94 LIG-0.07  N 
ATOM     27 H1   ALA C   1      -6.791  19.330  36.704  1.00 23.94 LIG 0.28  HD
ATOM     28 H3   ALA C   1      -7.843  19.042  35.744  1.00 23.94 LIG 0.28  HD
ATOM     29 H2   ALA C   1      -7.728  20.371  36.320  1.00 23.94 LIG 0.28  HD
ENDBRANCH 24 26
ENDBRANCH 22 24
ENDBRANCH 18 20
ENDBRANCH 1 18
TORSDOF 9
ENDMDL
