MODEL 1
USER: ADFR SOLUTION from run 14
USER: SCORE 19.232820 LL:  -1.286 LR: -18.689 RR:   0.000 FEB: -13.021
USER: RMSD 2.572226
USER: SEED 268942
USER: STATUS no improvement in best in 3 clusters for 5 generations
USER: GENES 21
USER: genes 0 Translation |==|  0.49070 0.38769 0.59590
USER: genes 1 Rotation |==|  0.59232 0.57238 0.45127 0.98359
USER: genes 2 Torsion [N]-C--CA-[N] |==|  0.54443
USER: genes 3 Torsion [C]-CA--CB-[CG] |==|  0.54971
USER: genes 4 Torsion [CA]-CB--CG-[CD] |==|  0.85648
USER: genes 5 Torsion [CB]-CG--CD-[NE] |==|  0.41459
USER: genes 6 Torsion [CG]-CD--NE-[CZ] |==|  0.60699
USER: genes 7 Torsion [C]-CA--N-[C] |==|  0.69053
USER: genes 8 Torsion [N]-C--CA-[N] |==|  0.29453
USER: genes 9 Torsion [C]-CA--N-[H2] |==|  0.66186
USER: genes 10 Torsion [C]-N--CA-[C] |==|  0.57870
USER: genes 11 Torsion [N]-CA--C-[N] |==|  0.43186
USER: genes 12 Torsion [C]-N--CA-[CB] |==|  0.49100
USER: genes 13 Torsion [N]-CA--C-[O] |==|  0.81482
USER: genes 14 Torsion [N]-CA--CB-[CG] |==|  0.68769
USER: genes 15 Torsion [CA]-CB--CG-[CD] |==|  0.50304
USER: genes 16 Torsion [CB]-CG--CD-[CE] |==|  0.30368
USER: genes 17 Torsion [CG]-CD--CE-[NZ] |==|  0.62875
USER: genes 18 Torsion [CD]-CE--NZ-[HZ1] |==|  0.03773
USER: genes 19 Torsion [N]-CA--CB-[OG1] |==|  0.55850
USER: genes 20 Torsion [CA]-CB--OG1-[HG1] |==|  0.74934
ROOT
ATOM      1  C   ARG H   2     -15.439   1.436 -50.988  1.00 59.87 LIG 0.24  C 
ATOM      2 O    ARG H   2     -14.711   1.092 -50.043  1.00 53.61 LIG-0.27  OA
ATOM      3  N   THR H   3     -14.974   1.791 -52.190  1.00 55.49 LIG-0.34  N 
ATOM      4 H    THR H   3     -15.485   1.937 -52.866  1.00 55.49 LIG 0.16  HD
ENDROOT
BRANCH 1 5
ATOM      5  CA  ARG H   2     -16.969   1.468 -50.830  1.00 59.74 LIG 0.18  C 
BRANCH 5 6
ATOM      6  CB  ARG H   2     -17.508   2.733 -51.516  1.00 62.34 LIG 0.04  C 
BRANCH 6 7
ATOM      7  CG  ARG H   2     -18.914   3.156 -51.111  1.00 66.72 LIG 0.02  C 
BRANCH 7 8
ATOM      8  CD  ARG H   2     -19.927   2.025 -51.220  1.00 71.24 LIG 0.14  C 
BRANCH 8 9
ATOM      9  NE  ARG H   2     -20.989   2.177 -50.219  1.00 73.29 LIG-0.23  N 
ATOM     10  CZ  ARG H   2     -21.561   1.183 -49.536  1.00 77.12 LIG 0.67  C 
ATOM     11  NH1 ARG H   2     -21.201  -0.082 -49.724  1.00 77.82 LIG-0.23  N 
ATOM     12  NH2 ARG H   2     -22.516   1.459 -48.653  1.00 76.44 LIG-0.23  N 
ATOM     13 1HH1 ARG H   2     -20.588  -0.273 -50.296  1.00 77.82 LIG 0.17  HD
ATOM     14 2HH1 ARG H   2     -21.582  -0.709 -49.273  1.00 77.82 LIG 0.17  HD
ATOM     15 2HH2 ARG H   2     -22.889   0.824 -48.210  1.00 76.44 LIG 0.17  HD
ATOM     16 1HH2 ARG H   2     -22.762   2.273 -48.526  1.00 76.44 LIG 0.17  HD
ATOM     17 HE   ARG H   2     -21.268   2.975 -50.058  1.00 73.29 LIG 0.18  HD
ENDBRANCH 8 9
ENDBRANCH 7 8
ENDBRANCH 6 7
ENDBRANCH 5 6
BRANCH 5 18
ATOM     18  N   ARG H   2     -17.351   1.436 -49.408  1.00 53.58 LIG-0.35  N 
ATOM     19  C   ALA H   1     -17.957   0.389 -48.854  1.00 57.33 LIG 0.25  C 
ATOM     20 O    ALA H   1     -18.305  -0.605 -49.496  1.00 53.10 LIG-0.27  OA
ATOM     21 H    ARG H   2     -17.148   2.151 -48.976  1.00 53.58 LIG 0.16  HD
BRANCH 19 22
ATOM     22  CA  ALA H   1     -18.243   0.474 -47.349  1.00 57.31 LIG 0.27  C 
ATOM     23  CB  ALA H   1     -17.786  -0.796 -46.631  1.00 59.00 LIG 0.05  C 
BRANCH 22 24
ATOM     24  N   ALA H   1     -19.701   0.708 -47.107  1.00 52.22 LIG-0.07  N 
ATOM     25 H2   ALA H   1     -19.808   1.460 -46.642  1.00 52.22 LIG 0.28  HD
ATOM     26 H3   ALA H   1     -20.124   0.780 -47.887  1.00 52.22 LIG 0.28  HD
ATOM     27 H1   ALA H   1     -20.040   0.025 -46.649  1.00 52.22 LIG 0.28  HD
ENDBRANCH 22 24
ENDBRANCH 19 22
ENDBRANCH 5 18
ENDBRANCH 1 5
BRANCH 3 28
ATOM     28  CA  THR H   3     -13.553   1.969 -52.482  1.00 54.46 LIG 0.20  C 
BRANCH 28 29
ATOM     29  C   THR H   3     -13.377   3.000 -53.614  1.00 57.92 LIG 0.24  C 
ATOM     30  N   LYS H   4     -12.208   3.636 -53.653  1.00 54.07 LIG-0.35  N 
ATOM     31 H    LYS H   4     -11.561   3.475 -53.110  1.00 54.07 LIG 0.16  HD
ATOM     32 O    THR H   3     -14.286   3.227 -54.414  1.00 54.85 LIG-0.27  OA
BRANCH 30 33
ATOM     33  CA  LYS H   4     -11.911   4.688 -54.643  1.00 57.41 LIG 0.16  C 
BRANCH 33 34
ATOM     34  C   LYS H   4     -11.968   4.208 -56.094  1.00 56.46 LIG 0.22  C 
ATOM     35 O    LYS H   4     -11.141   3.393 -56.513  1.00 60.38 LIG-0.29  OA
ENDBRANCH 33 34
BRANCH 33 36
ATOM     36  CB  LYS H   4     -10.527   5.257 -54.358  1.00 56.01 LIG 0.03  C 
BRANCH 36 37
ATOM     37  CG  LYS H   4     -10.509   6.691 -53.875  1.00 58.87 LIG 0.00  C 
BRANCH 37 38
ATOM     38  CD  LYS H   4      -9.075   7.150 -53.651  1.00 59.29 LIG 0.03  C 
BRANCH 38 39
ATOM     39  CE  LYS H   4      -8.666   8.162 -54.709  1.00 63.77 LIG 0.23  C 
BRANCH 39 40
ATOM     40  NZ  LYS H   4      -7.327   7.845 -55.267  1.00 66.19 LIG-0.08  N 
ATOM     41 HZ1  LYS H   4      -7.093   7.020 -55.028  1.00 66.19 LIG 0.27  HD
ATOM     42 HZ2  LYS H   4      -7.355   7.899 -56.155  1.00 66.19 LIG 0.27  HD
ATOM     43 HZ3  LYS H   4      -6.730   8.425 -54.952  1.00 66.19 LIG 0.27  HD
ENDBRANCH 39 40
ENDBRANCH 38 39
ENDBRANCH 37 38
ENDBRANCH 36 37
ENDBRANCH 33 36
ENDBRANCH 30 33
ENDBRANCH 28 29
BRANCH 28 44
ATOM     44  CB  THR H   3     -12.862   0.630 -52.834  1.00 52.58 LIG 0.15  C 
ATOM     45  CG2 THR H   3     -13.128   0.285 -54.280  1.00 50.21 LIG 0.04  C 
BRANCH 44 46
ATOM     46 OG1  THR H   3     -11.444   0.729 -52.637  1.00 49.67 LIG-0.39  OA
ATOM     47 HG1  THR H   3     -11.079   0.987 -53.348  1.00 49.67 LIG 0.21  HD
ENDBRANCH 44 46
ENDBRANCH 28 44
ENDBRANCH 3 28
TORSDOF 19
ENDMDL
MODEL 2
USER: ADFR SOLUTION from run 178
USER: SCORE 19.220337 LL:  -1.539 LR: -18.238 RR:   0.000 FEB: -12.570
USER: RMSD 3.233350
USER: SEED 177
USER: STATUS no improvement in best in 3 clusters for 5 generations
USER: GENES 21
USER: genes 0 Translation |==|  0.49007 0.40676 0.58035
USER: genes 1 Rotation |==|  0.58911 0.55898 0.43542 0.98416
USER: genes 2 Torsion [N]-C--CA-[N] |==|  0.52778
USER: genes 3 Torsion [C]-CA--CB-[CG] |==|  0.52629
USER: genes 4 Torsion [CA]-CB--CG-[CD] |==|  0.34282
USER: genes 5 Torsion [CB]-CG--CD-[NE] |==|  0.54832
USER: genes 6 Torsion [CG]-CD--NE-[CZ] |==|  0.50993
USER: genes 7 Torsion [C]-CA--N-[C] |==|  0.73302
USER: genes 8 Torsion [N]-C--CA-[N] |==|  0.25149
USER: genes 9 Torsion [C]-CA--N-[H2] |==|  0.20374
USER: genes 10 Torsion [C]-N--CA-[C] |==|  0.59518
USER: genes 11 Torsion [N]-CA--C-[N] |==|  0.41829
USER: genes 12 Torsion [C]-N--CA-[CB] |==|  0.47746
USER: genes 13 Torsion [N]-CA--C-[O] |==|  0.93913
USER: genes 14 Torsion [N]-CA--CB-[CG] |==|  0.58703
USER: genes 15 Torsion [CA]-CB--CG-[CD] |==|  0.53138
USER: genes 16 Torsion [CB]-CG--CD-[CE] |==|  0.41059
USER: genes 17 Torsion [CG]-CD--CE-[NZ] |==|  0.65546
USER: genes 18 Torsion [CD]-CE--NZ-[HZ1] |==|  0.99685
USER: genes 19 Torsion [N]-CA--CB-[OG1] |==|  0.57609
USER: genes 20 Torsion [CA]-CB--OG1-[HG1] |==|  0.77743
ROOT
ATOM      1  C   ARG H   2     -15.455   1.822 -51.256  1.00 59.87 LIG 0.24  C 
ATOM      2 O    ARG H   2     -14.789   1.456 -50.274  1.00 53.61 LIG-0.27  OA
ATOM      3  N   THR H   3     -14.920   2.110 -52.447  1.00 55.49 LIG-0.34  N 
ATOM      4 H    THR H   3     -15.394   2.272 -53.147  1.00 55.49 LIG 0.16  HD
ENDROOT
BRANCH 1 5
ATOM      5  CA  ARG H   2     -16.984   1.963 -51.160  1.00 59.74 LIG 0.18  C 
BRANCH 5 6
ATOM      6  CB  ARG H   2     -17.392   3.315 -51.768  1.00 62.34 LIG 0.04  C 
BRANCH 6 7
ATOM      7  CG  ARG H   2     -18.845   3.722 -51.557  1.00 66.72 LIG 0.02  C 
BRANCH 7 8
ATOM      8  CD  ARG H   2     -18.987   5.071 -50.868  1.00 71.24 LIG 0.14  C 
BRANCH 8 9
ATOM      9  NE  ARG H   2     -20.338   5.238 -50.319  1.00 73.29 LIG-0.23  N 
ATOM     10  CZ  ARG H   2     -20.802   6.335 -49.717  1.00 77.12 LIG 0.67  C 
ATOM     11  NH1 ARG H   2     -20.038   7.409 -49.552  1.00 77.82 LIG-0.23  N 
ATOM     12  NH2 ARG H   2     -22.052   6.355 -49.264  1.00 76.44 LIG-0.23  N 
ATOM     13 1HH1 ARG H   2     -19.226   7.406 -49.836  1.00 77.82 LIG 0.17  HD
ATOM     14 2HH1 ARG H   2     -20.355   8.107 -49.161  1.00 77.82 LIG 0.17  HD
ATOM     15 2HH2 ARG H   2     -22.357   7.059 -48.875  1.00 76.44 LIG 0.17  HD
ATOM     16 1HH2 ARG H   2     -22.555   5.665 -49.360  1.00 76.44 LIG 0.17  HD
ATOM     17 HE   ARG H   2     -20.877   4.572 -50.392  1.00 73.29 LIG 0.18  HD
ENDBRANCH 8 9
ENDBRANCH 7 8
ENDBRANCH 6 7
ENDBRANCH 5 6
BRANCH 5 18
ATOM     18  N   ARG H   2     -17.436   1.856 -49.763  1.00 53.58 LIG-0.35  N 
ATOM     19  C   ALA H   1     -17.877   0.715 -49.241  1.00 57.33 LIG 0.25  C 
ATOM     20 O    ALA H   1     -18.006  -0.321 -49.897  1.00 53.10 LIG-0.27  OA
ATOM     21 H    ARG H   2     -17.387   2.592 -49.322  1.00 53.58 LIG 0.16  HD
BRANCH 19 22
ATOM     22  CA  ALA H   1     -18.259   0.738 -47.755  1.00 57.31 LIG 0.27  C 
ATOM     23  CB  ALA H   1     -17.961  -0.606 -47.090  1.00 59.00 LIG 0.05  C 
BRANCH 22 24
ATOM     24  N   ALA H   1     -19.706   1.085 -47.593  1.00 52.22 LIG-0.07  N 
ATOM     25 H2   ALA H   1     -20.207   0.391 -47.837  1.00 52.22 LIG 0.28  HD
ATOM     26 H3   ALA H   1     -19.871   1.284 -46.741  1.00 52.22 LIG 0.28  HD
ATOM     27 H1   ALA H   1     -19.903   1.786 -48.104  1.00 52.22 LIG 0.28  HD
ENDBRANCH 22 24
ENDBRANCH 19 22
ENDBRANCH 5 18
ENDBRANCH 1 5
BRANCH 3 28
ATOM     28  CA  THR H   3     -13.481   2.182 -52.686  1.00 54.46 LIG 0.20  C 
BRANCH 28 29
ATOM     29  C   THR H   3     -13.178   3.273 -53.733  1.00 57.92 LIG 0.24  C 
ATOM     30  N   LYS H   4     -11.995   3.875 -53.629  1.00 54.07 LIG-0.35  N 
ATOM     31 H    LYS H   4     -11.404   3.661 -53.042  1.00 54.07 LIG 0.16  HD
ATOM     32 O    THR H   3     -14.006   3.575 -54.594  1.00 54.85 LIG-0.27  OA
BRANCH 30 33
ATOM     33  CA  LYS H   4     -11.584   4.974 -54.522  1.00 57.41 LIG 0.16  C 
BRANCH 33 34
ATOM     34  C   LYS H   4     -11.409   4.554 -55.983  1.00 56.46 LIG 0.22  C 
ATOM     35 O    LYS H   4     -11.206   3.371 -56.269  1.00 60.38 LIG-0.29  OA
ENDBRANCH 33 34
BRANCH 33 36
ATOM     36  CB  LYS H   4     -10.276   5.563 -54.009  1.00 56.01 LIG 0.03  C 
BRANCH 36 37
ATOM     37  CG  LYS H   4     -10.089   7.040 -54.275  1.00 58.87 LIG 0.00  C 
BRANCH 37 38
ATOM     38  CD  LYS H   4      -8.654   7.449 -53.974  1.00 59.29 LIG 0.03  C 
BRANCH 38 39
ATOM     39  CE  LYS H   4      -8.212   8.573 -54.897  1.00 63.77 LIG 0.23  C 
BRANCH 39 40
ATOM     40  NZ  LYS H   4      -6.982   8.205 -55.642  1.00 66.19 LIG-0.08  N 
ATOM     41 HZ1  LYS H   4      -6.717   7.391 -55.396  1.00 66.19 LIG 0.27  HD
ATOM     42 HZ2  LYS H   4      -7.151   8.210 -56.516  1.00 66.19 LIG 0.27  HD
ATOM     43 HZ3  LYS H   4      -6.339   8.793 -55.461  1.00 66.19 LIG 0.27  HD
ENDBRANCH 39 40
ENDBRANCH 38 39
ENDBRANCH 37 38
ENDBRANCH 36 37
ENDBRANCH 33 36
ENDBRANCH 30 33
ENDBRANCH 28 29
BRANCH 28 44
ATOM     44  CB  THR H   3     -12.897   0.816 -53.119  1.00 52.58 LIG 0.15  C 
ATOM     45  CG2 THR H   3     -13.003   0.669 -54.619  1.00 50.21 LIG 0.04  C 
BRANCH 44 46
ATOM     46 OG1  THR H   3     -11.515   0.718 -52.744  1.00 49.67 LIG-0.39  OA
ATOM     47 HG1  THR H   3     -11.042   1.130 -53.303  1.00 49.67 LIG 0.21  HD
ENDBRANCH 44 46
ENDBRANCH 28 44
ENDBRANCH 3 28
TORSDOF 19
ENDMDL
MODEL 3
USER: ADFR SOLUTION from run 23
USER: SCORE 18.248820 LL:  -1.491 LR: -17.317 RR:   0.000 FEB: -11.650
USER: RMSD 4.197152
USER: SEED 22
USER: STATUS no improvement in best in 5 clusters for 5 generations
USER: GENES 21
USER: genes 0 Translation |==|  0.48681 0.40088 0.59499
USER: genes 1 Rotation |==|  0.57069 0.56597 0.44699 0.98769
USER: genes 2 Torsion [N]-C--CA-[N] |==|  0.52212
USER: genes 3 Torsion [C]-CA--CB-[CG] |==|  0.51033
USER: genes 4 Torsion [CA]-CB--CG-[CD] |==|  0.92139
USER: genes 5 Torsion [CB]-CG--CD-[NE] |==|  0.38797
USER: genes 6 Torsion [CG]-CD--NE-[CZ] |==|  0.58162
USER: genes 7 Torsion [C]-CA--N-[C] |==|  0.73145
USER: genes 8 Torsion [N]-C--CA-[N] |==|  0.23492
USER: genes 9 Torsion [C]-CA--N-[H2] |==|  0.51441
USER: genes 10 Torsion [C]-N--CA-[C] |==|  0.55976
USER: genes 11 Torsion [N]-CA--C-[N] |==|  0.47699
USER: genes 12 Torsion [C]-N--CA-[CB] |==|  0.83464
USER: genes 13 Torsion [N]-CA--C-[O] |==|  0.09957
USER: genes 14 Torsion [N]-CA--CB-[CG] |==|  0.79672
USER: genes 15 Torsion [CA]-CB--CG-[CD] |==|  0.29424
USER: genes 16 Torsion [CB]-CG--CD-[CE] |==|  0.26242
USER: genes 17 Torsion [CG]-CD--CE-[NZ] |==|  0.39992
USER: genes 18 Torsion [CD]-CE--NZ-[HZ1] |==|  0.33303
USER: genes 19 Torsion [N]-CA--CB-[OG1] |==|  0.49863
USER: genes 20 Torsion [CA]-CB--OG1-[HG1] |==|  0.79926
ROOT
ATOM      1  C   ARG H   2     -15.538   1.703 -51.003  1.00 59.87 LIG 0.24  C 
ATOM      2 O    ARG H   2     -14.827   1.442 -50.020  1.00 53.61 LIG-0.27  OA
ATOM      3  N   THR H   3     -15.052   1.944 -52.225  1.00 55.49 LIG-0.34  N 
ATOM      4 H    THR H   3     -15.551   2.030 -52.920  1.00 55.49 LIG 0.16  HD
ENDROOT
BRANCH 1 5
ATOM      5  CA  ARG H   2     -17.070   1.759 -50.873  1.00 59.74 LIG 0.18  C 
BRANCH 5 6
ATOM      6  CB  ARG H   2     -17.570   3.066 -51.509  1.00 62.34 LIG 0.04  C 
BRANCH 6 7
ATOM      7  CG  ARG H   2     -19.066   3.328 -51.390  1.00 66.72 LIG 0.02  C 
BRANCH 7 8
ATOM      8  CD  ARG H   2     -19.886   2.050 -51.305  1.00 71.24 LIG 0.14  C 
BRANCH 8 9
ATOM      9  NE  ARG H   2     -20.972   2.189 -50.327  1.00 73.29 LIG-0.23  N 
ATOM     10  CZ  ARG H   2     -21.504   1.197 -49.610  1.00 77.12 LIG 0.67  C 
ATOM     11  NH1 ARG H   2     -21.077  -0.055 -49.738  1.00 77.82 LIG-0.23  N 
ATOM     12  NH2 ARG H   2     -22.487   1.460 -48.755  1.00 76.44 LIG-0.23  N 
ATOM     13 1HH1 ARG H   2     -20.445  -0.239 -50.293  1.00 77.82 LIG 0.17  HD
ATOM     14 2HH1 ARG H   2     -21.432  -0.681 -49.267  1.00 77.82 LIG 0.17  HD
ATOM     15 2HH2 ARG H   2     -22.834   0.825 -48.290  1.00 76.44 LIG 0.17  HD
ATOM     16 1HH2 ARG H   2     -22.776   2.265 -48.667  1.00 76.44 LIG 0.17  HD
ATOM     17 HE   ARG H   2     -21.293   2.977 -50.206  1.00 73.29 LIG 0.18  HD
ENDBRANCH 8 9
ENDBRANCH 7 8
ENDBRANCH 6 7
ENDBRANCH 5 6
BRANCH 5 18
ATOM     18  N   ARG H   2     -17.482   1.668 -49.463  1.00 53.58 LIG-0.35  N 
ATOM     19  C   ALA H   1     -17.855   0.522 -48.899  1.00 57.33 LIG 0.25  C 
ATOM     20 O    ALA H   1     -17.949  -0.537 -49.525  1.00 53.10 LIG-0.27  OA
ATOM     21 H    ARG H   2     -17.458   2.418 -49.042  1.00 53.58 LIG 0.16  HD
BRANCH 19 22
ATOM     22  CA  ALA H   1     -18.201   0.567 -47.406  1.00 57.31 LIG 0.27  C 
ATOM     23  CB  ALA H   1     -17.959  -0.790 -46.744  1.00 59.00 LIG 0.05  C 
BRANCH 22 24
ATOM     24  N   ALA H   1     -19.623   0.990 -47.212  1.00 52.22 LIG-0.07  N 
ATOM     25 H2   ALA H   1     -19.789   1.085 -46.343  1.00 52.22 LIG 0.28  HD
ATOM     26 H3   ALA H   1     -19.762   1.766 -47.626  1.00 52.22 LIG 0.28  HD
ATOM     27 H1   ALA H   1     -20.166   0.372 -47.552  1.00 52.22 LIG 0.28  HD
ENDBRANCH 22 24
ENDBRANCH 19 22
ENDBRANCH 5 18
ENDBRANCH 1 5
BRANCH 3 28
ATOM     28  CA  THR H   3     -13.626   2.085 -52.510  1.00 54.46 LIG 0.20  C 
BRANCH 28 29
ATOM     29  C   THR H   3     -13.429   2.864 -53.825  1.00 57.92 LIG 0.24  C 
ATOM     30  N   LYS H   4     -12.179   3.215 -54.120  1.00 54.07 LIG-0.35  N 
ATOM     31 H    LYS H   4     -11.500   3.002 -53.637  1.00 54.07 LIG 0.16  HD
ATOM     32 O    THR H   3     -14.389   3.158 -54.539  1.00 54.85 LIG-0.27  OA
BRANCH 30 33
ATOM     33  CA  LYS H   4     -11.840   4.010 -55.315  1.00 57.41 LIG 0.16  C 
BRANCH 33 34
ATOM     34  C   LYS H   4     -12.458   5.409 -55.325  1.00 56.46 LIG 0.22  C 
ATOM     35 O    LYS H   4     -12.577   6.043 -54.273  1.00 60.38 LIG-0.29  OA
ENDBRANCH 33 34
BRANCH 33 36
ATOM     36  CB  LYS H   4     -12.294   3.252 -56.556  1.00 56.01 LIG 0.03  C 
BRANCH 36 37
ATOM     37  CG  LYS H   4     -11.456   2.045 -56.915  1.00 58.87 LIG 0.00  C 
BRANCH 37 38
ATOM     38  CD  LYS H   4     -12.204   0.766 -56.569  1.00 59.29 LIG 0.03  C 
BRANCH 38 39
ATOM     39  CE  LYS H   4     -12.957   0.241 -57.780  1.00 63.77 LIG 0.23  C 
BRANCH 39 40
ATOM     40  NZ  LYS H   4     -12.952  -1.243 -57.815  1.00 66.19 LIG-0.08  N 
ATOM     41 HZ1  LYS H   4     -13.789  -1.544 -57.789  1.00 66.19 LIG 0.27  HD
ATOM     42 HZ2  LYS H   4     -12.561  -1.521 -58.565  1.00 66.19 LIG 0.27  HD
ATOM     43 HZ3  LYS H   4     -12.503  -1.555 -57.113  1.00 66.19 LIG 0.27  HD
ENDBRANCH 39 40
ENDBRANCH 38 39
ENDBRANCH 37 38
ENDBRANCH 36 37
ENDBRANCH 33 36
ENDBRANCH 30 33
ENDBRANCH 28 29
BRANCH 28 44
ATOM     44  CB  THR H   3     -12.906   0.716 -52.559  1.00 52.58 LIG 0.15  C 
ATOM     45  CG2 THR H   3     -13.524  -0.145 -53.636  1.00 50.21 LIG 0.04  C 
BRANCH 44 46
ATOM     46 OG1  THR H   3     -11.512   0.890 -52.851  1.00 49.67 LIG-0.39  OA
ATOM     47 HG1  THR H   3     -11.420   1.112 -53.656  1.00 49.67 LIG 0.21  HD
ENDBRANCH 44 46
ENDBRANCH 28 44
ENDBRANCH 3 28
TORSDOF 19
ENDMDL
MODEL 4
USER: ADFR SOLUTION from run 124
USER: SCORE 18.174215 LL:  -2.500 LR: -16.891 RR:   0.000 FEB: -11.223
USER: RMSD 3.903324
USER: SEED 123
USER: STATUS no improvement in best in 3 clusters for 5 generations
USER: GENES 21
USER: genes 0 Translation |==|  0.50034 0.36947 0.56691
USER: genes 1 Rotation |==|  0.45815 0.50839 0.57615 0.99232
USER: genes 2 Torsion [N]-C--CA-[N] |==|  0.65790
USER: genes 3 Torsion [C]-CA--CB-[CG] |==|  0.25367
USER: genes 4 Torsion [CA]-CB--CG-[CD] |==|  0.76099
USER: genes 5 Torsion [CB]-CG--CD-[NE] |==|  0.70462
USER: genes 6 Torsion [CG]-CD--NE-[CZ] |==|  0.51222
USER: genes 7 Torsion [C]-CA--N-[C] |==|  0.66668
USER: genes 8 Torsion [N]-C--CA-[N] |==|  0.52209
USER: genes 9 Torsion [C]-CA--N-[H2] |==|  0.88929
USER: genes 10 Torsion [C]-N--CA-[C] |==|  0.64238
USER: genes 11 Torsion [N]-CA--C-[N] |==|  0.53855
USER: genes 12 Torsion [C]-N--CA-[CB] |==|  0.39496
USER: genes 13 Torsion [N]-CA--C-[O] |==|  0.99530
USER: genes 14 Torsion [N]-CA--CB-[CG] |==|  0.97377
USER: genes 15 Torsion [CA]-CB--CG-[CD] |==|  0.38414
USER: genes 16 Torsion [CB]-CG--CD-[CE] |==|  0.21223
USER: genes 17 Torsion [CG]-CD--CE-[NZ] |==|  0.60265
USER: genes 18 Torsion [CD]-CE--NZ-[HZ1] |==|  0.30621
USER: genes 19 Torsion [N]-CA--CB-[OG1] |==|  0.21945
USER: genes 20 Torsion [CA]-CB--OG1-[HG1] |==|  0.23023
ROOT
ATOM      1  C   ARG H   2     -15.193   1.067 -51.488  1.00 59.87 LIG 0.24  C 
ATOM      2 O    ARG H   2     -14.825   1.553 -50.406  1.00 53.61 LIG-0.27  OA
ATOM      3  N   THR H   3     -14.482   1.149 -52.617  1.00 55.49 LIG-0.34  N 
ATOM      4 H    THR H   3     -14.696   0.731 -53.337  1.00 55.49 LIG 0.16  HD
ENDROOT
BRANCH 1 5
ATOM      5  CA  ARG H   2     -16.529   0.311 -51.596  1.00 59.74 LIG 0.18  C 
BRANCH 5 6
ATOM      6  CB  ARG H   2     -16.713  -0.156 -53.048  1.00 62.34 LIG 0.04  C 
BRANCH 6 7
ATOM      7  CG  ARG H   2     -16.178  -1.546 -53.368  1.00 66.72 LIG 0.02  C 
BRANCH 7 8
ATOM      8  CD  ARG H   2     -14.702  -1.541 -53.737  1.00 71.24 LIG 0.14  C 
BRANCH 8 9
ATOM      9  NE  ARG H   2     -14.522  -1.753 -55.178  1.00 73.29 LIG-0.23  N 
ATOM     10  CZ  ARG H   2     -13.351  -1.884 -55.804  1.00 77.12 LIG 0.67  C 
ATOM     11  NH1 ARG H   2     -12.202  -1.823 -55.140  1.00 77.82 LIG-0.23  N 
ATOM     12  NH2 ARG H   2     -13.328  -2.072 -57.120  1.00 76.44 LIG-0.23  N 
ATOM     13 1HH1 ARG H   2     -12.203  -1.696 -54.289  1.00 77.82 LIG 0.17  HD
ATOM     14 2HH1 ARG H   2     -11.456  -1.910 -55.562  1.00 77.82 LIG 0.17  HD
ATOM     15 2HH2 ARG H   2     -12.577  -2.158 -57.529  1.00 76.44 LIG 0.17  HD
ATOM     16 1HH2 ARG H   2     -14.065  -2.109 -57.562  1.00 76.44 LIG 0.17  HD
ATOM     17 HE   ARG H   2     -15.232  -1.795 -55.661  1.00 73.29 LIG 0.18  HD
ENDBRANCH 8 9
ENDBRANCH 7 8
ENDBRANCH 6 7
ENDBRANCH 5 6
BRANCH 5 18
ATOM     18  N   ARG H   2     -17.651   1.162 -51.169  1.00 53.58 LIG-0.35  N 
ATOM     19  C   ALA H   1     -18.448   0.840 -50.154  1.00 57.33 LIG 0.25  C 
ATOM     20 O    ALA H   1     -18.353  -0.223 -49.535  1.00 53.10 LIG-0.27  OA
ATOM     21 H    ARG H   2     -17.742   1.880 -51.634  1.00 53.58 LIG 0.16  HD
BRANCH 19 22
ATOM     22  CA  ALA H   1     -19.540   1.851 -49.785  1.00 57.31 LIG 0.27  C 
ATOM     23  CB  ALA H   1     -18.960   3.259 -49.642  1.00 59.00 LIG 0.05  C 
BRANCH 22 24
ATOM     24  N   ALA H   1     -20.223   1.443 -48.517  1.00 52.22 LIG-0.07  N 
ATOM     25 H2   ALA H   1     -20.337   0.560 -48.512  1.00 52.22 LIG 0.28  HD
ATOM     26 H3   ALA H   1     -19.723   1.681 -47.820  1.00 52.22 LIG 0.28  HD
ATOM     27 H1   ALA H   1     -21.015   1.845 -48.464  1.00 52.22 LIG 0.28  HD
ENDBRANCH 22 24
ENDBRANCH 19 22
ENDBRANCH 5 18
ENDBRANCH 1 5
BRANCH 3 28
ATOM     28  CA  THR H   3     -13.269   1.954 -52.746  1.00 54.46 LIG 0.20  C 
BRANCH 28 29
ATOM     29  C   THR H   3     -13.376   2.864 -53.986  1.00 57.92 LIG 0.24  C 
ATOM     30  N   LYS H   4     -12.245   3.438 -54.392  1.00 54.07 LIG-0.35  N 
ATOM     31 H    LYS H   4     -11.482   3.298 -54.022  1.00 54.07 LIG 0.16  HD
ATOM     32 O    THR H   3     -14.458   3.057 -54.541  1.00 54.85 LIG-0.27  OA
BRANCH 30 33
ATOM     33  CA  LYS H   4     -12.197   4.377 -55.529  1.00 57.41 LIG 0.16  C 
BRANCH 33 34
ATOM     34  C   LYS H   4     -11.814   3.724 -56.857  1.00 56.46 LIG 0.22  C 
ATOM     35 O    LYS H   4     -11.547   2.520 -56.904  1.00 60.38 LIG-0.29  OA
ENDBRANCH 33 34
BRANCH 33 36
ATOM     36  CB  LYS H   4     -11.203   5.487 -55.210  1.00 56.01 LIG 0.03  C 
BRANCH 36 37
ATOM     37  CG  LYS H   4     -10.693   5.503 -53.786  1.00 58.87 LIG 0.00  C 
BRANCH 37 38
ATOM     38  CD  LYS H   4      -9.199   5.789 -53.767  1.00 59.29 LIG 0.03  C 
BRANCH 38 39
ATOM     39  CE  LYS H   4      -8.933   7.265 -54.016  1.00 63.77 LIG 0.23  C 
BRANCH 39 40
ATOM     40  NZ  LYS H   4      -7.714   7.460 -54.840  1.00 66.19 LIG-0.08  N 
ATOM     41 HZ1  LYS H   4      -7.944   7.755 -55.647  1.00 66.19 LIG 0.27  HD
ATOM     42 HZ2  LYS H   4      -7.183   8.057 -54.447  1.00 66.19 LIG 0.27  HD
ATOM     43 HZ3  LYS H   4      -7.282   6.686 -54.919  1.00 66.19 LIG 0.27  HD
ENDBRANCH 39 40
ENDBRANCH 38 39
ENDBRANCH 37 38
ENDBRANCH 36 37
ENDBRANCH 33 36
ENDBRANCH 30 33
ENDBRANCH 28 29
BRANCH 28 44
ATOM     44  CB  THR H   3     -11.995   1.077 -52.805  1.00 52.58 LIG 0.15  C 
ATOM     45  CG2 THR H   3     -12.109  -0.054 -51.811  1.00 50.21 LIG 0.04  C 
BRANCH 44 46
ATOM     46 OG1  THR H   3     -11.827   0.522 -54.118  1.00 49.67 LIG-0.39  OA
ATOM     47 HG1  THR H   3     -11.454   1.087 -54.616  1.00 49.67 LIG 0.21  HD
ENDBRANCH 44 46
ENDBRANCH 28 44
ENDBRANCH 3 28
TORSDOF 19
ENDMDL
MODEL 5
USER: ADFR SOLUTION from run 180
USER: SCORE 18.274497 LL:  -1.964 LR: -16.797 RR:   0.000 FEB: -11.129
USER: RMSD 4.394592
USER: SEED 179
USER: STATUS no improvement in best in 5 clusters for 5 generations
USER: GENES 21
USER: genes 0 Translation |==|  0.48871 0.39701 0.58590
USER: genes 1 Rotation |==|  0.55199 0.55242 0.44481 0.99143
USER: genes 2 Torsion [N]-C--CA-[N] |==|  0.51293
USER: genes 3 Torsion [C]-CA--CB-[CG] |==|  0.55235
USER: genes 4 Torsion [CA]-CB--CG-[CD] |==|  0.35120
USER: genes 5 Torsion [CB]-CG--CD-[NE] |==|  0.53597
USER: genes 6 Torsion [CG]-CD--NE-[CZ] |==|  0.48603
USER: genes 7 Torsion [C]-CA--N-[C] |==|  0.73828
USER: genes 8 Torsion [N]-C--CA-[N] |==|  0.22193
USER: genes 9 Torsion [C]-CA--N-[H2] |==|  0.52297
USER: genes 10 Torsion [C]-N--CA-[C] |==|  0.60199
USER: genes 11 Torsion [N]-CA--C-[N] |==|  0.46765
USER: genes 12 Torsion [C]-N--CA-[CB] |==|  0.88496
USER: genes 13 Torsion [N]-CA--C-[O] |==|  0.14653
USER: genes 14 Torsion [N]-CA--CB-[CG] |==|  0.71338
USER: genes 15 Torsion [CA]-CB--CG-[CD] |==|  0.18151
USER: genes 16 Torsion [CB]-CG--CD-[CE] |==|  0.23677
USER: genes 17 Torsion [CG]-CD--CE-[NZ] |==|  0.54163
USER: genes 18 Torsion [CD]-CE--NZ-[HZ1] |==|  0.55249
USER: genes 19 Torsion [N]-CA--CB-[OG1] |==|  0.38071
USER: genes 20 Torsion [CA]-CB--OG1-[HG1] |==|  0.14418
ROOT
ATOM      1  C   ARG H   2     -15.490   1.625 -51.160  1.00 59.87 LIG 0.24  C 
ATOM      2 O    ARG H   2     -14.826   1.443 -50.127  1.00 53.61 LIG-0.27  OA
ATOM      3  N   THR H   3     -14.947   1.763 -52.374  1.00 55.49 LIG-0.34  N 
ATOM      4 H    THR H   3     -15.414   1.794 -53.096  1.00 55.49 LIG 0.16  HD
ENDROOT
BRANCH 1 5
ATOM      5  CA  ARG H   2     -17.026   1.696 -51.105  1.00 59.74 LIG 0.18  C 
BRANCH 5 6
ATOM      6  CB  ARG H   2     -17.483   2.990 -51.796  1.00 62.34 LIG 0.04  C 
BRANCH 6 7
ATOM      7  CG  ARG H   2     -18.894   3.455 -51.459  1.00 66.72 LIG 0.02  C 
BRANCH 7 8
ATOM      8  CD  ARG H   2     -18.942   4.895 -50.968  1.00 71.24 LIG 0.14  C 
BRANCH 8 9
ATOM      9  NE  ARG H   2     -20.248   5.201 -50.372  1.00 73.29 LIG-0.23  N 
ATOM     10  CZ  ARG H   2     -20.577   6.343 -49.766  1.00 77.12 LIG 0.67  C 
ATOM     11  NH1 ARG H   2     -19.703   7.337 -49.642  1.00 77.82 LIG-0.23  N 
ATOM     12  NH2 ARG H   2     -21.800   6.492 -49.267  1.00 76.44 LIG-0.23  N 
ATOM     13 1HH1 ARG H   2     -18.907   7.250 -49.956  1.00 77.82 LIG 0.17  HD
ATOM     14 2HH1 ARG H   2     -19.934   8.066 -49.248  1.00 77.82 LIG 0.17  HD
ATOM     15 2HH2 ARG H   2     -22.018   7.226 -48.875  1.00 76.44 LIG 0.17  HD
ATOM     16 1HH2 ARG H   2     -22.373   5.855 -49.336  1.00 76.44 LIG 0.17  HD
ATOM     17 HE   ARG H   2     -20.853   4.592 -50.417  1.00 73.29 LIG 0.18  HD
ENDBRANCH 8 9
ENDBRANCH 7 8
ENDBRANCH 6 7
ENDBRANCH 5 6
BRANCH 5 18
ATOM     18  N   ARG H   2     -17.505   1.642 -49.715  1.00 53.58 LIG-0.35  N 
ATOM     19  C   ALA H   1     -17.870   0.506 -49.127  1.00 57.33 LIG 0.25  C 
ATOM     20 O    ALA H   1     -17.898  -0.577 -49.716  1.00 53.10 LIG-0.27  OA
ATOM     21 H    ARG H   2     -17.527   2.407 -49.323  1.00 53.58 LIG 0.16  HD
BRANCH 19 22
ATOM     22  CA  ALA H   1     -18.293   0.594 -47.655  1.00 57.31 LIG 0.27  C 
ATOM     23  CB  ALA H   1     -18.150  -0.761 -46.960  1.00 59.00 LIG 0.05  C 
BRANCH 22 24
ATOM     24  N   ALA H   1     -19.702   1.085 -47.545  1.00 52.22 LIG-0.07  N 
ATOM     25 H2   ALA H   1     -19.895   1.246 -46.691  1.00 52.22 LIG 0.28  HD
ATOM     26 H3   ALA H   1     -19.793   1.836 -48.015  1.00 52.22 LIG 0.28  HD
ATOM     27 H1   ALA H   1     -20.257   0.468 -47.864  1.00 52.22 LIG 0.28  HD
ENDBRANCH 22 24
ENDBRANCH 19 22
ENDBRANCH 5 18
ENDBRANCH 1 5
BRANCH 3 28
ATOM     28  CA  THR H   3     -13.508   1.877 -52.604  1.00 54.46 LIG 0.20  C 
BRANCH 28 29
ATOM     29  C   THR H   3     -13.238   2.864 -53.756  1.00 57.92 LIG 0.24  C 
ATOM     30  N   LYS H   4     -11.974   3.248 -53.917  1.00 54.07 LIG-0.35  N 
ATOM     31 H    LYS H   4     -11.323   2.951 -53.440  1.00 54.07 LIG 0.16  HD
ATOM     32 O    THR H   3     -14.157   3.282 -54.462  1.00 54.85 LIG-0.27  OA
BRANCH 30 33
ATOM     33  CA  LYS H   4     -11.568   4.230 -54.941  1.00 57.41 LIG 0.16  C 
BRANCH 33 34
ATOM     34  C   LYS H   4     -11.808   5.685 -54.533  1.00 56.46 LIG 0.22  C 
ATOM     35 O    LYS H   4     -11.367   6.111 -53.462  1.00 60.38 LIG-0.29  OA
ENDBRANCH 33 34
BRANCH 33 36
ATOM     36  CB  LYS H   4     -12.325   3.939 -56.230  1.00 56.01 LIG 0.03  C 
BRANCH 36 37
ATOM     37  CG  LYS H   4     -11.520   3.242 -57.305  1.00 58.87 LIG 0.00  C 
BRANCH 37 38
ATOM     38  CD  LYS H   4     -11.130   1.845 -56.844  1.00 59.29 LIG 0.03  C 
BRANCH 38 39
ATOM     39  CE  LYS H   4     -12.243   0.853 -57.139  1.00 63.77 LIG 0.23  C 
BRANCH 39 40
ATOM     40  NZ  LYS H   4     -12.045  -0.414 -56.392  1.00 66.19 LIG-0.08  N 
ATOM     41 HZ1  LYS H   4     -12.527  -1.061 -56.770  1.00 66.19 LIG 0.27  HD
ATOM     42 HZ2  LYS H   4     -11.184  -0.637 -56.409  1.00 66.19 LIG 0.27  HD
ATOM     43 HZ3  LYS H   4     -12.307  -0.306 -55.548  1.00 66.19 LIG 0.27  HD
ENDBRANCH 39 40
ENDBRANCH 38 39
ENDBRANCH 37 38
ENDBRANCH 36 37
ENDBRANCH 33 36
ENDBRANCH 30 33
ENDBRANCH 28 29
BRANCH 28 44
ATOM     44  CB  THR H   3     -12.856   0.501 -52.883  1.00 52.58 LIG 0.15  C 
ATOM     45  CG2 THR H   3     -13.922  -0.502 -53.254  1.00 50.21 LIG 0.04  C 
BRANCH 44 46
ATOM     46 OG1  THR H   3     -11.918   0.599 -53.965  1.00 49.67 LIG-0.39  OA
ATOM     47 HG1  THR H   3     -11.381   1.228 -53.815  1.00 49.67 LIG 0.21  HD
ENDBRANCH 44 46
ENDBRANCH 28 44
ENDBRANCH 3 28
TORSDOF 19
ENDMDL
MODEL 6
USER: ADFR SOLUTION from run 74
USER: SCORE 17.884764 LL:  -1.753 LR: -16.740 RR:   0.000 FEB: -11.073
USER: RMSD 2.762700
USER: SEED 73
USER: STATUS no improvement in best in 5 clusters for 5 generations
USER: GENES 21
USER: genes 0 Translation |==|  0.49303 0.37224 0.56353
USER: genes 1 Rotation |==|  0.38467 0.50591 0.52579 0.98580
USER: genes 2 Torsion [N]-C--CA-[N] |==|  0.54180
USER: genes 3 Torsion [C]-CA--CB-[CG] |==|  0.50253
USER: genes 4 Torsion [CA]-CB--CG-[CD] |==|  0.83908
USER: genes 5 Torsion [CB]-CG--CD-[NE] |==|  0.28338
USER: genes 6 Torsion [CG]-CD--NE-[CZ] |==|  0.65554
USER: genes 7 Torsion [C]-CA--N-[C] |==|  0.74124
USER: genes 8 Torsion [N]-C--CA-[N] |==|  0.25788
USER: genes 9 Torsion [C]-CA--N-[H2] |==|  0.76935
USER: genes 10 Torsion [C]-N--CA-[C] |==|  0.75846
USER: genes 11 Torsion [N]-CA--C-[N] |==|  0.47778
USER: genes 12 Torsion [C]-N--CA-[CB] |==|  0.38448
USER: genes 13 Torsion [N]-CA--C-[O] |==|  0.99239
USER: genes 14 Torsion [N]-CA--CB-[CG] |==|  0.42535
USER: genes 15 Torsion [CA]-CB--CG-[CD] |==|  0.53562
USER: genes 16 Torsion [CB]-CG--CD-[CE] |==|  0.51266
USER: genes 17 Torsion [CG]-CD--CE-[NZ] |==|  0.72110
USER: genes 18 Torsion [CD]-CE--NZ-[HZ1] |==|  0.32019
USER: genes 19 Torsion [N]-CA--CB-[OG1] |==|  0.30630
USER: genes 20 Torsion [CA]-CB--OG1-[HG1] |==|  0.22497
ROOT
ATOM      1  C   ARG H   2     -15.380   1.123 -51.546  1.00 59.87 LIG 0.24  C 
ATOM      2 O    ARG H   2     -14.969   1.835 -50.615  1.00 53.61 LIG-0.27  OA
ATOM      3  N   THR H   3     -14.618   0.742 -52.577  1.00 55.49 LIG-0.34  N 
ATOM      4 H    THR H   3     -14.880   0.174 -53.168  1.00 55.49 LIG 0.16  HD
ENDROOT
BRANCH 1 5
ATOM      5  CA  ARG H   2     -16.832   0.615 -51.566  1.00 59.74 LIG 0.18  C 
BRANCH 5 6
ATOM      6  CB  ARG H   2     -17.380   0.750 -52.995  1.00 62.34 LIG 0.04  C 
BRANCH 6 7
ATOM      7  CG  ARG H   2     -18.825   0.309 -53.193  1.00 66.72 LIG 0.02  C 
BRANCH 7 8
ATOM      8  CD  ARG H   2     -19.061  -1.141 -52.793  1.00 71.24 LIG 0.14  C 
BRANCH 8 9
ATOM      9  NE  ARG H   2     -19.707  -1.222 -51.478  1.00 73.29 LIG-0.23  N 
ATOM     10  CZ  ARG H   2     -19.241  -1.893 -50.423  1.00 77.12 LIG 0.67  C 
ATOM     11  NH1 ARG H   2     -18.105  -2.580 -50.487  1.00 77.82 LIG-0.23  N 
ATOM     12  NH2 ARG H   2     -19.928  -1.884 -49.285  1.00 76.44 LIG-0.23  N 
ATOM     13 1HH1 ARG H   2     -17.655  -2.597 -51.220  1.00 77.82 LIG 0.17  HD
ATOM     14 2HH1 ARG H   2     -17.821  -3.006 -49.796  1.00 77.82 LIG 0.17  HD
ATOM     15 2HH2 ARG H   2     -19.633  -2.315 -48.602  1.00 76.44 LIG 0.17  HD
ATOM     16 1HH2 ARG H   2     -20.667  -1.448 -49.232  1.00 76.44 LIG 0.17  HD
ATOM     17 HE   ARG H   2     -20.451  -0.801 -51.379  1.00 73.29 LIG 0.18  HD
ENDBRANCH 8 9
ENDBRANCH 7 8
ENDBRANCH 6 7
ENDBRANCH 5 6
BRANCH 5 18
ATOM     18  N   ARG H   2     -17.663   1.363 -50.610  1.00 53.58 LIG-0.35  N 
ATOM     19  C   ALA H   1     -17.867   0.948 -49.362  1.00 57.33 LIG 0.25  C 
ATOM     20 O    ALA H   1     -17.433  -0.121 -48.929  1.00 53.10 LIG-0.27  OA
ATOM     21 H    ARG H   2     -18.002   2.086 -50.931  1.00 53.58 LIG 0.16  HD
BRANCH 19 22
ATOM     22  CA  ALA H   1     -18.709   1.860 -48.460  1.00 57.31 LIG 0.27  C 
ATOM     23  CB  ALA H   1     -18.202   1.825 -47.017  1.00 59.00 LIG 0.05  C 
BRANCH 22 24
ATOM     24  N   ALA H   1     -20.150   1.460 -48.512  1.00 52.22 LIG-0.07  N 
ATOM     25 H2   ALA H   1     -20.534   1.826 -49.226  1.00 52.22 LIG 0.28  HD
ATOM     26 H3   ALA H   1     -20.210   0.573 -48.565  1.00 52.22 LIG 0.28  HD
ATOM     27 H1   ALA H   1     -20.563   1.741 -47.776  1.00 52.22 LIG 0.28  HD
ENDBRANCH 22 24
ENDBRANCH 19 22
ENDBRANCH 5 18
ENDBRANCH 1 5
BRANCH 3 28
ATOM     28  CA  THR H   3     -13.268   1.247 -52.810  1.00 54.46 LIG 0.20  C 
BRANCH 28 29
ATOM     29  C   THR H   3     -13.330   2.552 -53.629  1.00 57.92 LIG 0.24  C 
ATOM     30  N   LYS H   4     -12.183   3.211 -53.774  1.00 54.07 LIG-0.35  N 
ATOM     31 H    LYS H   4     -11.431   2.928 -53.466  1.00 54.07 LIG 0.16  HD
ATOM     32 O    THR H   3     -14.396   2.959 -54.094  1.00 54.85 LIG-0.27  OA
BRANCH 30 33
ATOM     33  CA  LYS H   4     -12.094   4.500 -54.483  1.00 57.41 LIG 0.16  C 
BRANCH 33 34
ATOM     34  C   LYS H   4     -11.597   4.382 -55.925  1.00 56.46 LIG 0.22  C 
ATOM     35 O    LYS H   4     -11.264   3.284 -56.380  1.00 60.38 LIG-0.29  OA
ENDBRANCH 33 34
BRANCH 33 36
ATOM     36  CB  LYS H   4     -11.165   5.426 -53.707  1.00 56.01 LIG 0.03  C 
BRANCH 36 37
ATOM     37  CG  LYS H   4     -10.467   6.480 -54.538  1.00 58.87 LIG 0.00  C 
BRANCH 37 38
ATOM     38  CD  LYS H   4      -9.349   7.126 -53.734  1.00 59.29 LIG 0.03  C 
BRANCH 38 39
ATOM     39  CE  LYS H   4      -8.713   8.263 -54.517  1.00 63.77 LIG 0.23  C 
BRANCH 39 40
ATOM     40  NZ  LYS H   4      -7.438   7.835 -55.147  1.00 66.19 LIG-0.08  N 
ATOM     41 HZ1  LYS H   4      -7.520   7.861 -56.032  1.00 66.19 LIG 0.27  HD
ATOM     42 HZ2  LYS H   4      -6.784   8.383 -54.894  1.00 66.19 LIG 0.27  HD
ATOM     43 HZ3  LYS H   4      -7.245   7.004 -54.892  1.00 66.19 LIG 0.27  HD
ENDBRANCH 39 40
ENDBRANCH 38 39
ENDBRANCH 37 38
ENDBRANCH 36 37
ENDBRANCH 33 36
ENDBRANCH 30 33
ENDBRANCH 28 29
BRANCH 28 44
ATOM     44  CB  THR H   3     -12.367   0.196 -53.503  1.00 52.58 LIG 0.15  C 
ATOM     45  CG2 THR H   3     -13.073  -1.139 -53.531  1.00 50.21 LIG 0.04  C 
BRANCH 44 46
ATOM     46 OG1  THR H   3     -12.077   0.593 -54.851  1.00 49.67 LIG-0.39  OA
ATOM     47 HG1  THR H   3     -11.452   1.154 -54.850  1.00 49.67 LIG 0.21  HD
ENDBRANCH 44 46
ENDBRANCH 28 44
ENDBRANCH 3 28
TORSDOF 19
ENDMDL
