MODEL 1
USER: ADFR SOLUTION from run 186
USER: SCORE 27.256357 LL:  -4.133 LR: -23.887 RR:   0.000 FEB: -14.938
USER: RMSD 2.091976
USER: SEED 185
USER: STATUS no improvement in best in 2 clusters for 5 generations
USER: GENES 32
USER: genes 0 Translation |==|  0.51221 0.39625 0.47517
USER: genes 1 Rotation |==|  0.49798 0.51965 0.51000 0.99951
USER: genes 2 Torsion [N]-CA--C-[N] |==|  0.45890
USER: genes 3 Torsion [C]-N--CA-[C] |==|  0.77363
USER: genes 4 Torsion [N]-CA--C-[N] |==|  0.38713
USER: genes 5 Torsion [C]-N--CA-[CB] |==|  0.50573
USER: genes 6 Torsion [N]-CA--C-[N] |==|  0.45940
USER: genes 7 Torsion [C]-N--CA-[CB] |==|  0.49577
USER: genes 8 Torsion [N]-CA--C-[O] |==|  0.85577
USER: genes 9 Torsion [N]-CA--CB-[OG1] |==|  0.10159
USER: genes 10 Torsion [CA]-CB--OG1-[HG1] |==|  0.52840
USER: genes 11 Torsion [N]-CA--CB-[CG] |==|  0.57740
USER: genes 12 Torsion [CA]-CB--CG-[CD] |==|  0.77853
USER: genes 13 Torsion [CB]-CG--CD-[NE2] |==|  0.31246
USER: genes 14 Torsion [C]-CA--CB-[CG] |==|  0.85054
USER: genes 15 Torsion [CA]-CB--CG-[CD] |==|  0.45397
USER: genes 16 Torsion [CB]-CG--CD-[CE] |==|  0.47665
USER: genes 17 Torsion [CG]-CD--CE-[NZ] |==|  0.52027
USER: genes 18 Torsion [CD]-CE--NZ-[HZ3] |==|  0.80640
USER: genes 19 Torsion [C]-CA--N-[C] |==|  0.60573
USER: genes 20 Torsion [N]-C--CA-[N] |==|  0.43240
USER: genes 21 Torsion [C]-CA--CB-[CG2] |==|  0.51433
USER: genes 22 Torsion [CA]-CB--OG1-[HG1] |==|  0.46710
USER: genes 23 Torsion [C]-CA--N-[C] |==|  0.67784
USER: genes 24 Torsion [N]-C--CA-[N] |==|  0.38920
USER: genes 25 Torsion [C]-CA--CB-[CG] |==|  0.52712
USER: genes 26 Torsion [CA]-CB--CG-[CD] |==|  0.35740
USER: genes 27 Torsion [CB]-CG--CD-[NE] |==|  0.63860
USER: genes 28 Torsion [CG]-CD--NE-[HE] |==|  0.32393
USER: genes 29 Torsion [C]-CA--N-[C] |==|  0.82038
USER: genes 30 Torsion [N]-C--CA-[N] |==|  0.33216
USER: genes 31 Torsion [C]-CA--N-[H2] |==|  0.73696
ROOT
ATOM      1  CA  LYS P   4      26.021 -33.736   8.944  1.00 25.22 LIG 0.18  C 
ENDROOT
BRANCH 1 2
ATOM      2  C   LYS P   4      24.502 -33.741   8.824  1.00 27.71 LIG 0.24  C 
ATOM      3  N   GLN P   5      23.908 -34.931   8.832  1.00 26.60 LIG-0.35  N 
ATOM      4 H    GLN P   5      24.332 -35.679   8.834  1.00 26.60 LIG 0.16  HD
ATOM      5 O    LYS P   4      23.878 -32.686   8.734  1.00 22.94 LIG-0.27  OA
BRANCH 3 6
ATOM      6  CA  GLN P   5      22.454 -35.060   8.838  1.00 30.64 LIG 0.18  C 
BRANCH 6 7
ATOM      7  C   GLN P   5      21.944 -34.885  10.262  1.00 34.53 LIG 0.24  C 
ATOM      8 O    GLN P   5      22.558 -35.387  11.205  1.00 31.76 LIG-0.27  OA
ATOM      9  N   THR P   6      20.831 -34.177  10.433  1.00 31.32 LIG-0.34  N 
ATOM     10 H    THR P   6      20.342 -33.867   9.797  1.00 31.32 LIG 0.16  HD
BRANCH 9 11
ATOM     11  CA  THR P   6      20.361 -33.878  11.785  1.00 35.73 LIG 0.20  C 
BRANCH 11 12
ATOM     12  C   THR P   6      20.148 -35.117  12.635  1.00 36.89 LIG 0.24  C 
ATOM     13 O    THR P   6      20.081 -36.231  12.118  1.00 31.31 LIG-0.27  OA
ATOM     14  N   ALA P   7      20.019 -34.897  13.940  1.00 39.63 LIG-0.35  N 
ATOM     15 H    ALA P   7      20.060 -34.115  14.295  1.00 39.63 LIG 0.16  HD
BRANCH 14 16
ATOM     16  CA  ALA P   7      19.795 -35.971  14.899  1.00 40.80 LIG 0.16  C 
ATOM     17  CB  ALA P   7      19.728 -35.405  16.307  1.00 41.57 LIG 0.04  C 
BRANCH 16 18
ATOM     18  C   ALA P   7      18.523 -36.750  14.579  1.00 41.43 LIG 0.22  C 
ATOM     19 O    ALA P   7      17.450 -36.162  14.411  1.00 42.77 LIG-0.29  OA
ENDBRANCH 16 18
ENDBRANCH 14 16
ENDBRANCH 11 12
BRANCH 11 20
ATOM     20  CB  THR P   6      19.050 -33.104  11.779  1.00 30.67 LIG 0.15  C 
ATOM     21  CG2 THR P   6      19.325 -31.632  11.619  1.00 25.27 LIG 0.04  C 
BRANCH 20 22
ATOM     22 OG1  THR P   6      18.226 -33.571  10.703  1.00 31.72 LIG-0.39  OA
ATOM     23 HG1  THR P   6      17.568 -33.057  10.610  1.00 31.72 LIG 0.21  HD
ENDBRANCH 20 22
ENDBRANCH 11 20
ENDBRANCH 9 11
ENDBRANCH 6 7
BRANCH 6 24
ATOM     24  CB  GLN P   5      22.016 -36.418   8.274  1.00 38.94 LIG 0.04  C 
BRANCH 24 25
ATOM     25  CG  GLN P   5      20.632 -36.421   7.623  1.00 42.79 LIG 0.10  C 
BRANCH 25 26
ATOM     26  CD  GLN P   5      19.489 -36.500   8.627  1.00 45.14 LIG 0.21  C 
ATOM     27  NE2 GLN P   5      18.715 -35.420   8.729  1.00 40.57 LIG-0.37  N 
ATOM     28 21HE GLN P   5      18.875 -34.729   8.243  1.00 40.57 LIG 0.16  HD
ATOM     29 22HE GLN P   5      18.055 -35.414   9.281  1.00 40.57 LIG 0.16  HD
ATOM     30 OE1  GLN P   5      19.303 -37.515   9.300  1.00 46.24 LIG-0.27  OA
ENDBRANCH 25 26
ENDBRANCH 24 25
ENDBRANCH 6 24
ENDBRANCH 3 6
ENDBRANCH 1 2
BRANCH 1 31
ATOM     31  CB  LYS P   4      26.435 -34.105  10.364  1.00 18.02 LIG 0.04  C 
BRANCH 31 32
ATOM     32  CG  LYS P   4      25.788 -33.250  11.429  1.00 21.69 LIG 0.00  C 
BRANCH 32 33
ATOM     33  CD  LYS P   4      25.907 -33.906  12.806  1.00 22.86 LIG 0.03  C 
BRANCH 33 34
ATOM     34  CE  LYS P   4      25.439 -32.945  13.896  1.00 21.56 LIG 0.23  C 
BRANCH 34 35
ATOM     35  NZ  LYS P   4      25.702 -33.480  15.268  1.00 19.01 LIG-0.08  N 
ATOM     36 HZ2  LYS P   4      25.549 -32.842  15.870  1.00 19.01 LIG 0.27  HD
ATOM     37 HZ1  LYS P   4      26.550 -33.745  15.326  1.00 19.01 LIG 0.27  HD
ATOM     38 HZ3  LYS P   4      25.163 -34.171  15.425  1.00 19.01 LIG 0.27  HD
ENDBRANCH 34 35
ENDBRANCH 33 34
ENDBRANCH 32 33
ENDBRANCH 31 32
ENDBRANCH 1 31
BRANCH 1 39
ATOM     39  N   LYS P   4      26.543 -32.428   8.574  1.00 21.49 LIG-0.35  N 
ATOM     40 H    LYS P   4      26.057 -31.769   8.837  1.00 21.49 LIG 0.16  HD
ATOM     41  C   THR P   3      27.669 -32.283   7.892  1.00 20.06 LIG 0.24  C 
ATOM     42 O    THR P   3      28.451 -33.204   7.683  1.00 20.20 LIG-0.27  OA
BRANCH 41 43
ATOM     43  CA  THR P   3      27.971 -30.872   7.395  1.00 21.79 LIG 0.20  C 
BRANCH 43 44
ATOM     44  CB  THR P   3      27.156 -30.590   6.108  1.00 23.67 LIG 0.15  C 
ATOM     45  CG2 THR P   3      27.539 -29.227   5.520  1.00 27.17 LIG 0.04  C 
BRANCH 44 46
ATOM     46 OG1  THR P   3      27.384 -31.626   5.143  1.00 23.16 LIG-0.39  OA
ATOM     47 HG1  THR P   3      26.825 -31.558   4.521  1.00 23.16 LIG 0.21  HD
ENDBRANCH 44 46
ENDBRANCH 43 44
BRANCH 43 48
ATOM     48  N   THR P   3      29.401 -30.688   7.189  1.00 19.24 LIG-0.34  N 
ATOM     49 H    THR P   3      29.741 -31.185   6.576  1.00 19.24 LIG 0.16  HD
ATOM     50  C   ARG P   2      30.094 -29.811   7.914  1.00 23.72 LIG 0.24  C 
ATOM     51 O    ARG P   2      29.578 -29.037   8.730  1.00 20.72 LIG-0.27  OA
BRANCH 50 52
ATOM     52  CA  ARG P   2      31.588 -29.778   7.697  1.00 19.94 LIG 0.18  C 
BRANCH 52 53
ATOM     53  CB  ARG P   2      32.294 -30.599   8.778  1.00 20.09 LIG 0.04  C 
BRANCH 53 54
ATOM     54  CG  ARG P   2      33.812 -30.434   8.782  1.00 23.61 LIG 0.02  C 
BRANCH 54 55
ATOM     55  CD  ARG P   2      34.351 -30.084  10.175  1.00 28.00 LIG 0.14  C 
BRANCH 55 56
ATOM     56  NE  ARG P   2      35.245 -28.928  10.133  1.00 23.66 LIG-0.23  N 
ATOM     57  CZ  ARG P   2      36.406 -28.899   9.478  1.00 25.68 LIG 0.67  C 
ATOM     58  NH1 ARG P   2      36.815 -29.960   8.787  1.00 22.73 LIG-0.23  N 
ATOM     59  NH2 ARG P   2      37.161 -27.807   9.512  1.00 20.68 LIG-0.23  N 
ATOM     60 2HH1 ARG P   2      37.565 -29.936   8.366  1.00 22.73 LIG 0.17  HD
ATOM     61 1HH1 ARG P   2      36.330 -30.670   8.761  1.00 22.73 LIG 0.17  HD
ATOM     62 2HH2 ARG P   2      37.910 -27.788   9.090  1.00 20.68 LIG 0.17  HD
ATOM     63 1HH2 ARG P   2      36.901 -27.119   9.957  1.00 20.68 LIG 0.17  HD
ATOM     64 HE   ARG P   2      35.006 -28.220  10.559  1.00 23.66 LIG 0.18  HD
ENDBRANCH 55 56
ENDBRANCH 54 55
ENDBRANCH 53 54
ENDBRANCH 52 53
BRANCH 52 65
ATOM     65  N   ARG P   2      32.024 -28.385   7.719  1.00 18.68 LIG-0.35  N 
ATOM     66  C   ALA P   1      31.612 -27.534   6.782  1.00 22.59 LIG 0.25  C 
ATOM     67 O    ALA P   1      30.983 -27.895   5.784  1.00 23.11 LIG-0.27  OA
ATOM     68 H    ARG P   2      32.548 -28.179   8.368  1.00 18.68 LIG 0.16  HD
BRANCH 66 69
ATOM     69  CA  ALA P   1      31.947 -26.063   6.990  1.00 20.73 LIG 0.27  C 
ATOM     70  CB  ALA P   1      30.662 -25.242   7.111  1.00 22.81 LIG 0.05  C 
BRANCH 69 71
ATOM     71  N   ALA P   1      32.773 -25.558   5.898  1.00 20.88 LIG-0.07  N 
ATOM     72 H1   ALA P   1      32.560 -24.709   5.734  1.00 20.88 LIG 0.28  HD
ATOM     73 H2   ALA P   1      33.631 -25.609   6.127  1.00 20.88 LIG 0.28  HD
ATOM     74 H3   ALA P   1      32.631 -26.045   5.168  1.00 20.88 LIG 0.28  HD
ENDBRANCH 69 71
ENDBRANCH 66 69
ENDBRANCH 52 65
ENDBRANCH 50 52
ENDBRANCH 43 48
ENDBRANCH 41 43
ENDBRANCH 1 39
TORSDOF 30
ENDMDL
MODEL 2
USER: ADFR SOLUTION from run 4
USER: SCORE 25.276048 LL:  -4.311 LR: -22.671 RR:   0.000 FEB: -13.722
USER: RMSD 2.142547
USER: SEED 138160
USER: STATUS no improvement in best in 2 clusters for 5 generations
USER: GENES 32
USER: genes 0 Translation |==|  0.50424 0.39403 0.47117
USER: genes 1 Rotation |==|  0.49615 0.51098 0.50638 0.99982
USER: genes 2 Torsion [N]-CA--C-[N] |==|  0.47150
USER: genes 3 Torsion [C]-N--CA-[C] |==|  0.76918
USER: genes 4 Torsion [N]-CA--C-[N] |==|  0.35321
USER: genes 5 Torsion [C]-N--CA-[CB] |==|  0.37660
USER: genes 6 Torsion [N]-CA--C-[N] |==|  0.85661
USER: genes 7 Torsion [C]-N--CA-[CB] |==|  0.23952
USER: genes 8 Torsion [N]-CA--C-[O] |==|  0.94812
USER: genes 9 Torsion [N]-CA--CB-[OG1] |==|  0.71959
USER: genes 10 Torsion [CA]-CB--OG1-[HG1] |==|  0.79818
USER: genes 11 Torsion [N]-CA--CB-[CG] |==|  0.61134
USER: genes 12 Torsion [CA]-CB--CG-[CD] |==|  0.76440
USER: genes 13 Torsion [CB]-CG--CD-[NE2] |==|  0.64976
USER: genes 14 Torsion [C]-CA--CB-[CG] |==|  0.79965
USER: genes 15 Torsion [CA]-CB--CG-[CD] |==|  0.32604
USER: genes 16 Torsion [CB]-CG--CD-[CE] |==|  0.37936
USER: genes 17 Torsion [CG]-CD--CE-[NZ] |==|  0.70281
USER: genes 18 Torsion [CD]-CE--NZ-[HZ3] |==|  0.15729
USER: genes 19 Torsion [C]-CA--N-[C] |==|  0.59801
USER: genes 20 Torsion [N]-C--CA-[N] |==|  0.44303
USER: genes 21 Torsion [C]-CA--CB-[CG2] |==|  0.50609
USER: genes 22 Torsion [CA]-CB--OG1-[HG1] |==|  0.47347
USER: genes 23 Torsion [C]-CA--N-[C] |==|  0.68741
USER: genes 24 Torsion [N]-C--CA-[N] |==|  0.37475
USER: genes 25 Torsion [C]-CA--CB-[CG] |==|  0.60985
USER: genes 26 Torsion [CA]-CB--CG-[CD] |==|  0.45368
USER: genes 27 Torsion [CB]-CG--CD-[NE] |==|  0.67403
USER: genes 28 Torsion [CG]-CD--NE-[HE] |==|  0.79652
USER: genes 29 Torsion [C]-CA--N-[C] |==|  0.82784
USER: genes 30 Torsion [N]-C--CA-[N] |==|  0.32192
USER: genes 31 Torsion [C]-CA--N-[H2] |==|  0.69839
ROOT
ATOM      1  CA  LYS P   4      25.811 -33.782   8.860  1.00 25.22 LIG 0.18  C 
ENDROOT
BRANCH 1 2
ATOM      2  C   LYS P   4      24.297 -33.767   8.687  1.00 27.71 LIG 0.24  C 
ATOM      3  N   GLN P   5      23.677 -34.940   8.776  1.00 26.60 LIG-0.35  N 
ATOM      4 H    GLN P   5      24.083 -35.694   8.857  1.00 26.60 LIG 0.16  HD
ATOM      5 O    LYS P   4      23.702 -32.711   8.485  1.00 22.94 LIG-0.27  OA
BRANCH 3 6
ATOM      6  CA  GLN P   5      22.221 -35.038   8.741  1.00 30.64 LIG 0.18  C 
BRANCH 6 7
ATOM      7  C   GLN P   5      21.670 -34.771  10.135  1.00 34.53 LIG 0.24  C 
ATOM      8 O    GLN P   5      22.098 -35.403  11.102  1.00 31.76 LIG-0.27  OA
ATOM      9  N   THR P   6      20.727 -33.839  10.254  1.00 31.32 LIG-0.34  N 
ATOM     10 H    THR P   6      20.359 -33.425   9.597  1.00 31.32 LIG 0.16  HD
BRANCH 9 11
ATOM     11  CA  THR P   6      20.247 -33.458  11.582  1.00 35.73 LIG 0.20  C 
BRANCH 11 12
ATOM     12  C   THR P   6      18.897 -34.059  11.927  1.00 36.89 LIG 0.24  C 
ATOM     13 O    THR P   6      18.736 -34.691  12.970  1.00 31.31 LIG-0.27  OA
ATOM     14  N   ALA P   7      17.942 -33.871  11.019  1.00 39.63 LIG-0.35  N 
ATOM     15 H    ALA P   7      18.062 -33.435  10.288  1.00 39.63 LIG 0.16  HD
BRANCH 14 16
ATOM     16  CA  ALA P   7      16.591 -34.394  11.182  1.00 40.80 LIG 0.16  C 
ATOM     17  CB  ALA P   7      15.748 -33.412  11.978  1.00 41.57 LIG 0.04  C 
BRANCH 16 18
ATOM     18  C   ALA P   7      15.938 -34.684   9.835  1.00 41.43 LIG 0.22  C 
ATOM     19 O    ALA P   7      16.378 -34.176   8.799  1.00 42.77 LIG-0.29  OA
ENDBRANCH 16 18
ENDBRANCH 14 16
ENDBRANCH 11 12
BRANCH 11 20
ATOM     20  CB  THR P   6      20.121 -31.948  11.735  1.00 30.67 LIG 0.15  C 
ATOM     21  CG2 THR P   6      18.848 -31.612  12.465  1.00 25.27 LIG 0.04  C 
BRANCH 20 22
ATOM     22 OG1  THR P   6      21.251 -31.447  12.459  1.00 31.72 LIG-0.39  OA
ATOM     23 HG1  THR P   6      21.185 -31.664  13.268  1.00 31.72 LIG 0.21  HD
ENDBRANCH 20 22
ENDBRANCH 11 20
ENDBRANCH 9 11
ENDBRANCH 6 7
BRANCH 6 24
ATOM     24  CB  GLN P   5      21.771 -36.418   8.242  1.00 38.94 LIG 0.04  C 
BRANCH 24 25
ATOM     25  CG  GLN P   5      20.566 -36.393   7.299  1.00 42.79 LIG 0.10  C 
BRANCH 25 26
ATOM     26  CD  GLN P   5      19.228 -36.373   8.026  1.00 45.14 LIG 0.21  C 
ATOM     27  NE2 GLN P   5      18.355 -37.322   7.687  1.00 40.57 LIG-0.37  N 
ATOM     28 21HE GLN P   5      18.562 -37.901   7.086  1.00 40.57 LIG 0.16  HD
ATOM     29 22HE GLN P   5      17.586 -37.355   8.069  1.00 40.57 LIG 0.16  HD
ATOM     30 OE1  GLN P   5      18.981 -35.521   8.881  1.00 46.24 LIG-0.27  OA
ENDBRANCH 25 26
ENDBRANCH 24 25
ENDBRANCH 6 24
ENDBRANCH 3 6
ENDBRANCH 1 2
BRANCH 1 31
ATOM     31  CB  LYS P   4      26.170 -34.147  10.296  1.00 18.02 LIG 0.04  C 
BRANCH 31 32
ATOM     32  CG  LYS P   4      25.877 -33.051  11.294  1.00 21.69 LIG 0.00  C 
BRANCH 32 33
ATOM     33  CD  LYS P   4      24.830 -33.504  12.313  1.00 22.86 LIG 0.03  C 
BRANCH 33 34
ATOM     34  CE  LYS P   4      25.236 -33.077  13.722  1.00 21.56 LIG 0.23  C 
BRANCH 34 35
ATOM     35  NZ  LYS P   4      25.700 -34.233  14.549  1.00 19.01 LIG-0.08  N 
ATOM     36 HZ2  LYS P   4      25.029 -34.807  14.661  1.00 19.01 LIG 0.27  HD
ATOM     37 HZ1  LYS P   4      25.974 -33.939  15.344  1.00 19.01 LIG 0.27  HD
ATOM     38 HZ3  LYS P   4      26.374 -34.642  14.136  1.00 19.01 LIG 0.27  HD
ENDBRANCH 34 35
ENDBRANCH 33 34
ENDBRANCH 32 33
ENDBRANCH 31 32
ENDBRANCH 1 31
BRANCH 1 39
ATOM     39  N   LYS P   4      26.364 -32.485   8.499  1.00 21.49 LIG-0.35  N 
ATOM     40 H    LYS P   4      25.862 -31.819   8.707  1.00 21.49 LIG 0.16  HD
ATOM     41  C   THR P   3      27.541 -32.358   7.904  1.00 20.06 LIG 0.24  C 
ATOM     42 O    THR P   3      28.334 -33.285   7.780  1.00 20.20 LIG-0.27  OA
BRANCH 41 43
ATOM     43  CA  THR P   3      27.885 -30.960   7.398  1.00 21.79 LIG 0.20  C 
BRANCH 43 44
ATOM     44  CB  THR P   3      27.099 -30.673   6.094  1.00 23.67 LIG 0.15  C 
ATOM     45  CG2 THR P   3      27.471 -29.294   5.537  1.00 27.17 LIG 0.04  C 
BRANCH 44 46
ATOM     46 OG1  THR P   3      27.372 -31.690   5.119  1.00 23.16 LIG-0.39  OA
ATOM     47 HG1  THR P   3      26.849 -31.603   4.469  1.00 23.16 LIG 0.21  HD
ENDBRANCH 44 46
ENDBRANCH 43 44
BRANCH 43 48
ATOM     48  N   THR P   3      29.322 -30.813   7.214  1.00 19.24 LIG-0.34  N 
ATOM     49 H    THR P   3      29.653 -31.291   6.580  1.00 19.24 LIG 0.16  HD
ATOM     50  C   ARG P   2      30.035 -29.994   7.987  1.00 23.72 LIG 0.24  C 
ATOM     51 O    ARG P   2      29.535 -29.244   8.834  1.00 20.72 LIG-0.27  OA
BRANCH 50 52
ATOM     52  CA  ARG P   2      31.532 -29.999   7.785  1.00 19.94 LIG 0.18  C 
BRANCH 52 53
ATOM     53  CB  ARG P   2      32.210 -30.787   8.908  1.00 20.09 LIG 0.04  C 
BRANCH 53 54
ATOM     54  CG  ARG P   2      33.513 -30.159   9.399  1.00 23.61 LIG 0.02  C 
BRANCH 54 55
ATOM     55  CD  ARG P   2      33.945 -30.719  10.760  1.00 28.00 LIG 0.14  C 
BRANCH 55 56
ATOM     56  NE  ARG P   2      33.973 -29.679  11.787  1.00 23.66 LIG-0.23  N 
ATOM     57  CZ  ARG P   2      33.074 -29.563  12.765  1.00 25.68 LIG 0.67  C 
ATOM     58  NH1 ARG P   2      32.076 -30.437  12.868  1.00 22.73 LIG-0.23  N 
ATOM     59  NH2 ARG P   2      33.172 -28.572  13.643  1.00 20.68 LIG-0.23  N 
ATOM     60 2HH1 ARG P   2      31.498 -30.358  13.501  1.00 22.73 LIG 0.17  HD
ATOM     61 1HH1 ARG P   2      32.008 -31.081  12.302  1.00 22.73 LIG 0.17  HD
ATOM     62 2HH2 ARG P   2      32.592 -28.497  14.273  1.00 20.68 LIG 0.17  HD
ATOM     63 1HH2 ARG P   2      33.815 -28.005  13.581  1.00 20.68 LIG 0.17  HD
ATOM     64 HE   ARG P   2      34.611 -29.103  11.758  1.00 23.66 LIG 0.18  HD
ENDBRANCH 55 56
ENDBRANCH 54 55
ENDBRANCH 53 54
ENDBRANCH 52 53
BRANCH 52 65
ATOM     65  N   ARG P   2      31.994 -28.615   7.754  1.00 18.68 LIG-0.35  N 
ATOM     66  C   ALA P   1      31.566 -27.781   6.809  1.00 22.59 LIG 0.25  C 
ATOM     67 O    ALA P   1      30.897 -28.156   5.843  1.00 23.11 LIG-0.27  OA
ATOM     68 H    ARG P   2      32.544 -28.402   8.379  1.00 18.68 LIG 0.16  HD
BRANCH 66 69
ATOM     69  CA  ALA P   1      31.936 -26.312   6.965  1.00 20.73 LIG 0.27  C 
ATOM     70  CB  ALA P   1      30.672 -25.453   7.014  1.00 22.81 LIG 0.05  C 
BRANCH 69 71
ATOM     71  N   ALA P   1      32.806 -25.875   5.877  1.00 20.88 LIG-0.07  N 
ATOM     72 H1   ALA P   1      32.496 -25.114   5.536  1.00 20.88 LIG 0.28  HD
ATOM     73 H2   ALA P   1      33.629 -25.747   6.189  1.00 20.88 LIG 0.28  HD
ATOM     74 H3   ALA P   1      32.823 -26.498   5.242  1.00 20.88 LIG 0.28  HD
ENDBRANCH 69 71
ENDBRANCH 66 69
ENDBRANCH 52 65
ENDBRANCH 50 52
ENDBRANCH 43 48
ENDBRANCH 41 43
ENDBRANCH 1 39
TORSDOF 30
ENDMDL
MODEL 3
USER: ADFR SOLUTION from run 185
USER: SCORE 25.519335 LL:  -3.866 LR: -22.621 RR:   0.000 FEB: -13.672
USER: RMSD 1.403083
USER: SEED 184
USER: STATUS 1 or 2 clusters left
USER: GENES 32
USER: genes 0 Translation |==|  0.50718 0.39390 0.47533
USER: genes 1 Rotation |==|  0.51203 0.52183 0.50537 0.99935
USER: genes 2 Torsion [N]-CA--C-[N] |==|  0.46716
USER: genes 3 Torsion [C]-N--CA-[C] |==|  0.77173
USER: genes 4 Torsion [N]-CA--C-[N] |==|  0.38876
USER: genes 5 Torsion [C]-N--CA-[CB] |==|  0.49700
USER: genes 6 Torsion [N]-CA--C-[N] |==|  0.43922
USER: genes 7 Torsion [C]-N--CA-[CB] |==|  0.51583
USER: genes 8 Torsion [N]-CA--C-[O] |==|  0.86011
USER: genes 9 Torsion [N]-CA--CB-[OG1] |==|  0.13719
USER: genes 10 Torsion [CA]-CB--OG1-[HG1] |==|  0.51597
USER: genes 11 Torsion [N]-CA--CB-[CG] |==|  0.08149
USER: genes 12 Torsion [CA]-CB--CG-[CD] |==|  0.76616
USER: genes 13 Torsion [CB]-CG--CD-[NE2] |==|  0.46537
USER: genes 14 Torsion [C]-CA--CB-[CG] |==|  0.89610
USER: genes 15 Torsion [CA]-CB--CG-[CD] |==|  0.54663
USER: genes 16 Torsion [CB]-CG--CD-[CE] |==|  0.47833
USER: genes 17 Torsion [CG]-CD--CE-[NZ] |==|  0.45772
USER: genes 18 Torsion [CD]-CE--NZ-[HZ3] |==|  0.10876
USER: genes 19 Torsion [C]-CA--N-[C] |==|  0.57975
USER: genes 20 Torsion [N]-C--CA-[N] |==|  0.43490
USER: genes 21 Torsion [C]-CA--CB-[CG2] |==|  0.51426
USER: genes 22 Torsion [CA]-CB--OG1-[HG1] |==|  0.48322
USER: genes 23 Torsion [C]-CA--N-[C] |==|  0.63084
USER: genes 24 Torsion [N]-C--CA-[N] |==|  0.40869
USER: genes 25 Torsion [C]-CA--CB-[CG] |==|  0.46798
USER: genes 26 Torsion [CA]-CB--CG-[CD] |==|  0.47633
USER: genes 27 Torsion [CB]-CG--CD-[NE] |==|  0.81357
USER: genes 28 Torsion [CG]-CD--NE-[HE] |==|  0.78518
USER: genes 29 Torsion [C]-CA--N-[C] |==|  0.81556
USER: genes 30 Torsion [N]-C--CA-[N] |==|  0.36768
USER: genes 31 Torsion [C]-CA--N-[H2] |==|  0.73688
ROOT
ATOM      1  CA  LYS P   4      25.888 -33.785   8.947  1.00 25.22 LIG 0.18  C 
ENDROOT
BRANCH 1 2
ATOM      2  C   LYS P   4      24.368 -33.752   8.843  1.00 27.71 LIG 0.24  C 
ATOM      3  N   GLN P   5      23.746 -34.928   8.853  1.00 26.60 LIG-0.35  N 
ATOM      4 H    GLN P   5      24.152 -35.686   8.849  1.00 26.60 LIG 0.16  HD
ATOM      5 O    LYS P   4      23.770 -32.682   8.763  1.00 22.94 LIG-0.27  OA
BRANCH 3 6
ATOM      6  CA  GLN P   5      22.290 -35.021   8.874  1.00 30.64 LIG 0.18  C 
BRANCH 6 7
ATOM      7  C   GLN P   5      21.800 -34.856  10.306  1.00 34.53 LIG 0.24  C 
ATOM      8 O    GLN P   5      22.417 -35.378  11.235  1.00 31.76 LIG-0.27  OA
ATOM      9  N   THR P   6      20.699 -34.134  10.499  1.00 31.32 LIG-0.34  N 
ATOM     10 H    THR P   6      20.208 -33.809   9.873  1.00 31.32 LIG 0.16  HD
BRANCH 9 11
ATOM     11  CA  THR P   6      20.250 -33.843  11.861  1.00 35.73 LIG 0.20  C 
BRANCH 11 12
ATOM     12  C   THR P   6      19.957 -35.091  12.674  1.00 36.89 LIG 0.24  C 
ATOM     13 O    THR P   6      19.686 -36.155  12.120  1.00 31.31 LIG-0.27  OA
ATOM     14  N   ALA P   7      19.992 -34.930  13.994  1.00 39.63 LIG-0.35  N 
ATOM     15 H    ALA P   7      20.176 -34.182  14.376  1.00 39.63 LIG 0.16  HD
BRANCH 14 16
ATOM     16  CA  ALA P   7      19.721 -36.019  14.925  1.00 40.80 LIG 0.16  C 
ATOM     17  CB  ALA P   7      19.700 -35.491  16.349  1.00 41.57 LIG 0.04  C 
BRANCH 16 18
ATOM     18  C   ALA P   7      18.406 -36.718  14.598  1.00 41.43 LIG 0.22  C 
ATOM     19 O    ALA P   7      17.370 -36.067  14.432  1.00 42.77 LIG-0.29  OA
ENDBRANCH 16 18
ENDBRANCH 14 16
ENDBRANCH 11 12
BRANCH 11 20
ATOM     20  CB  THR P   6      18.993 -32.986  11.880  1.00 30.67 LIG 0.15  C 
ATOM     21  CG2 THR P   6      19.326 -31.581  11.452  1.00 25.27 LIG 0.04  C 
BRANCH 20 22
ATOM     22 OG1  THR P   6      18.017 -33.551  10.996  1.00 31.72 LIG-0.39  OA
ATOM     23 HG1  THR P   6      17.354 -33.038  10.945  1.00 31.72 LIG 0.21  HD
ENDBRANCH 20 22
ENDBRANCH 11 20
ENDBRANCH 9 11
ENDBRANCH 6 7
BRANCH 6 24
ATOM     24  CB  GLN P   5      21.812 -36.359   8.294  1.00 38.94 LIG 0.04  C 
BRANCH 24 25
ATOM     25  CG  GLN P   5      22.792 -37.520   8.479  1.00 42.79 LIG 0.10  C 
BRANCH 25 26
ATOM     26  CD  GLN P   5      23.870 -37.581   7.404  1.00 45.14 LIG 0.21  C 
ATOM     27  NE2 GLN P   5      24.896 -38.398   7.641  1.00 40.57 LIG-0.37  N 
ATOM     28 21HE GLN P   5      24.924 -38.853   8.370  1.00 40.57 LIG 0.16  HD
ATOM     29 22HE GLN P   5      25.530 -38.470   7.064  1.00 40.57 LIG 0.16  HD
ATOM     30 OE1  GLN P   5      23.781 -36.907   6.377  1.00 46.24 LIG-0.27  OA
ENDBRANCH 25 26
ENDBRANCH 24 25
ENDBRANCH 6 24
ENDBRANCH 3 6
ENDBRANCH 1 2
BRANCH 1 31
ATOM     31  CB  LYS P   4      26.308 -34.241  10.341  1.00 18.02 LIG 0.04  C 
BRANCH 31 32
ATOM     32  CG  LYS P   4      25.418 -33.719  11.445  1.00 21.69 LIG 0.00  C 
BRANCH 32 33
ATOM     33  CD  LYS P   4      26.101 -33.851  12.807  1.00 22.86 LIG 0.03  C 
BRANCH 33 34
ATOM     34  CE  LYS P   4      25.280 -33.149  13.886  1.00 21.56 LIG 0.23  C 
BRANCH 34 35
ATOM     35  NZ  LYS P   4      25.700 -33.551  15.264  1.00 19.01 LIG-0.08  N 
ATOM     36 HZ2  LYS P   4      25.328 -34.332  15.472  1.00 19.01 LIG 0.27  HD
ATOM     37 HZ1  LYS P   4      25.437 -32.933  15.848  1.00 19.01 LIG 0.27  HD
ATOM     38 HZ3  LYS P   4      26.586 -33.628  15.293  1.00 19.01 LIG 0.27  HD
ENDBRANCH 34 35
ENDBRANCH 33 34
ENDBRANCH 32 33
ENDBRANCH 31 32
ENDBRANCH 1 31
BRANCH 1 39
ATOM     39  N   LYS P   4      26.434 -32.470   8.644  1.00 21.49 LIG-0.35  N 
ATOM     40 H    LYS P   4      25.906 -31.819   8.835  1.00 21.49 LIG 0.16  HD
ATOM     41  C   THR P   3      27.641 -32.308   8.122  1.00 20.06 LIG 0.24  C 
ATOM     42 O    THR P   3      28.459 -33.216   8.028  1.00 20.20 LIG-0.27  OA
BRANCH 41 43
ATOM     43  CA  THR P   3      27.984 -30.893   7.663  1.00 21.79 LIG 0.20  C 
BRANCH 43 44
ATOM     44  CB  THR P   3      27.330 -30.622   6.285  1.00 23.67 LIG 0.15  C 
ATOM     45  CG2 THR P   3      27.766 -29.255   5.746  1.00 27.17 LIG 0.04  C 
BRANCH 44 46
ATOM     46 OG1  THR P   3      27.687 -31.656   5.358  1.00 23.16 LIG-0.39  OA
ATOM     47 HG1  THR P   3      27.265 -31.548   4.640  1.00 23.16 LIG 0.21  HD
ENDBRANCH 44 46
ENDBRANCH 43 44
BRANCH 43 48
ATOM     48  N   THR P   3      29.427 -30.693   7.633  1.00 19.24 LIG-0.34  N 
ATOM     49 H    THR P   3      29.869 -31.323   7.250  1.00 19.24 LIG 0.16  HD
ATOM     50  C   ARG P   2      29.981 -29.606   8.169  1.00 23.72 LIG 0.24  C 
ATOM     51 O    ARG P   2      29.331 -28.663   8.635  1.00 20.72 LIG-0.27  OA
BRANCH 50 52
ATOM     52  CA  ARG P   2      31.491 -29.549   8.182  1.00 19.94 LIG 0.18  C 
BRANCH 52 53
ATOM     53  CB  ARG P   2      32.027 -30.147   9.484  1.00 20.09 LIG 0.04  C 
BRANCH 53 54
ATOM     54  CG  ARG P   2      33.535 -30.389   9.474  1.00 23.61 LIG 0.02  C 
BRANCH 54 55
ATOM     55  CD  ARG P   2      34.064 -30.789  10.857  1.00 28.00 LIG 0.14  C 
BRANCH 55 56
ATOM     56  NE  ARG P   2      33.956 -29.689  11.815  1.00 23.66 LIG-0.23  N 
ATOM     57  CZ  ARG P   2      33.016 -29.601  12.756  1.00 25.68 LIG 0.67  C 
ATOM     58  NH1 ARG P   2      32.102 -30.560  12.886  1.00 22.73 LIG-0.23  N 
ATOM     59  NH2 ARG P   2      32.988 -28.553  13.570  1.00 20.68 LIG-0.23  N 
ATOM     60 2HH1 ARG P   2      31.498 -30.499  13.495  1.00 22.73 LIG 0.17  HD
ATOM     61 1HH1 ARG P   2      32.116 -31.241  12.362  1.00 22.73 LIG 0.17  HD
ATOM     62 2HH2 ARG P   2      32.382 -28.495  14.177  1.00 20.68 LIG 0.17  HD
ATOM     63 1HH2 ARG P   2      33.577 -27.931  13.490  1.00 20.68 LIG 0.17  HD
ATOM     64 HE   ARG P   2      34.538 -29.058  11.767  1.00 23.66 LIG 0.18  HD
ENDBRANCH 55 56
ENDBRANCH 54 55
ENDBRANCH 53 54
ENDBRANCH 52 53
BRANCH 52 65
ATOM     65  N   ARG P   2      31.898 -28.155   8.031  1.00 18.68 LIG-0.35  N 
ATOM     66  C   ALA P   1      31.658 -27.501   6.897  1.00 22.59 LIG 0.25  C 
ATOM     67 O    ALA P   1      31.232 -28.059   5.883  1.00 23.11 LIG-0.27  OA
ATOM     68 H    ARG P   2      32.289 -27.815   8.717  1.00 18.68 LIG 0.16  HD
BRANCH 66 69
ATOM     69  CA  ALA P   1      31.931 -26.003   6.894  1.00 20.73 LIG 0.27  C 
ATOM     70  CB  ALA P   1      30.614 -25.228   6.947  1.00 22.81 LIG 0.05  C 
BRANCH 69 71
ATOM     71  N   ALA P   1      32.702 -25.616   5.716  1.00 20.88 LIG-0.07  N 
ATOM     72 H1   ALA P   1      32.445 -24.807   5.446  1.00 20.88 LIG 0.28  HD
ATOM     73 H2   ALA P   1      33.567 -25.600   5.920  1.00 20.88 LIG 0.28  HD
ATOM     74 H3   ALA P   1      32.562 -26.204   5.063  1.00 20.88 LIG 0.28  HD
ENDBRANCH 69 71
ENDBRANCH 66 69
ENDBRANCH 52 65
ENDBRANCH 50 52
ENDBRANCH 43 48
ENDBRANCH 41 43
ENDBRANCH 1 39
TORSDOF 30
ENDMDL
