MODEL 1
USER: ADFR SOLUTION from run 28
USER: SCORE 13.752419 LL:  -1.830 LR: -14.432 RR:   0.000 FEB:  -8.765
USER: RMSD 3.080881
USER: SEED 27
USER: STATUS no improvement in best in 1 clusters for 5 generations
USER: GENES 21
USER: genes 0 Translation |==|  0.50443 0.47481 0.42569
USER: genes 1 Rotation |==|  0.56060 0.49837 0.44499 0.99325
USER: genes 2 Torsion [C]-CA--CB-[CG] |==|  0.20634
USER: genes 3 Torsion [CA]-CB--CG-[OD1] |==|  0.29184
USER: genes 4 Torsion [N]-CA--C-[N] |==|  0.33889
USER: genes 5 Torsion [C]-N--CA-[CB] |==|  0.23729
USER: genes 6 Torsion [N]-CA--C-[N] |==|  0.23272
USER: genes 7 Torsion [C]-N--CA-[CB] |==|  0.15092
USER: genes 8 Torsion [N]-CA--CB-[CG] |==|  0.40780
USER: genes 9 Torsion [CA]-CB--CG-[SD] |==|  0.38931
USER: genes 10 Torsion [CB]-CG--SD-[CE] |==|  0.19462
USER: genes 11 Torsion [N]-CA--C-[O] |==|  0.87493
USER: genes 12 Torsion [N]-CA--CB-[CG] |==|  0.10476
USER: genes 13 Torsion [CA]-CB--CG-[OD1] |==|  0.76691
USER: genes 14 Torsion [CB]-CA--N-[C] |==|  0.28853
USER: genes 15 Torsion [N]-C--CA-[N] |==|  0.44768
USER: genes 16 Torsion [C]-CA--N-[C] |==|  0.82768
USER: genes 17 Torsion [N]-C--CA-[N] |==|  0.51507
USER: genes 18 Torsion [C]-CA--CB-[CG2] |==|  0.23339
USER: genes 19 Torsion [C]-CA--CB-[CG] |==|  0.75256
USER: genes 20 Torsion [CA]-CB--CG-[OD2] |==|  0.26643
ROOT
ATOM      1  CA  ASP E 180       2.638 -27.952  25.026  1.00 46.29 LIG 0.19  C 
ENDROOT
BRANCH 1 2
ATOM      2  CB  ASP E 180       1.305 -28.363  24.410  1.00 53.57 LIG 0.15  C 
BRANCH 2 3
ATOM      3  CG  ASP E 180       0.343 -27.205  24.285  1.00 52.91 LIG 0.17  C 
ATOM      4 OD1  ASP E 180       0.151 -26.711  23.151  1.00 53.16 LIG-0.65  OA
ATOM      5 OD2  ASP E 180      -0.227 -26.793  25.316  1.00 39.91 LIG-0.65  OA
ENDBRANCH 2 3
ENDBRANCH 1 2
BRANCH 1 6
ATOM      6  C   ASP E 180       2.467 -27.721  26.534  1.00 46.16 LIG 0.24  C 
ATOM      7 O    ASP E 180       2.173 -28.656  27.281  1.00 47.92 LIG-0.27  OA
ATOM      8  N   ASP E 181       2.649 -26.485  26.988  1.00 48.75 LIG-0.34  N 
ATOM      9 H    ASP E 181       2.807 -25.800  26.492  1.00 48.75 LIG 0.16  HD
BRANCH 8 10
ATOM     10  CA  ASP E 181       2.587 -26.212  28.420  1.00 45.01 LIG 0.19  C 
BRANCH 10 11
ATOM     11  C   ASP E 181       2.123 -24.794  28.737  1.00 47.33 LIG 0.24  C 
ATOM     12 O    ASP E 181       2.931 -23.889  28.979  1.00 41.27 LIG-0.27  OA
ATOM     13  N   MET E 182       0.804 -24.624  28.748  1.00 63.00 LIG-0.35  N 
ATOM     14 H    MET E 182       0.243 -25.267  28.643  1.00 63.00 LIG 0.16  HD
BRANCH 13 15
ATOM     15  CA  MET E 182       0.179 -23.323  28.942  1.00 43.88 LIG 0.16  C 
BRANCH 15 16
ATOM     16  CB  MET E 182       0.724 -22.325  27.921  1.00 44.38 LIG 0.04  C 
BRANCH 16 17
ATOM     17  CG  MET E 182      -0.291 -21.291  27.475  1.00 63.17 LIG 0.08  C 
BRANCH 17 18
ATOM     18 SD   MET E 182       0.428 -19.649  27.298  1.00101.17 LIG-0.17  SA
ATOM     19  CE  MET E 182       1.457 -19.889  25.850  1.00 68.91 LIG 0.09  C 
ENDBRANCH 17 18
ENDBRANCH 16 17
ENDBRANCH 15 16
BRANCH 15 20
ATOM     20  C   MET E 182      -1.344 -23.412  28.832  1.00 60.82 LIG 0.22  C 
ATOM     21 O    MET E 182      -1.884 -24.053  27.924  1.00 58.83 LIG-0.29  OA
ENDBRANCH 15 20
ENDBRANCH 13 15
ENDBRANCH 10 11
BRANCH 10 22
ATOM     22  CB  ASP E 181       3.950 -26.472  29.060  1.00 40.72 LIG 0.15  C 
BRANCH 22 23
ATOM     23  CG  ASP E 181       5.095 -26.044  28.166  1.00 40.82 LIG 0.17  C 
ATOM     24 OD1  ASP E 181       5.499 -26.829  27.279  1.00 47.44 LIG-0.65  OA
ATOM     25 OD2  ASP E 181       5.581 -24.911  28.350  1.00 24.37 LIG-0.65  OA
ENDBRANCH 22 23
ENDBRANCH 10 22
ENDBRANCH 8 10
ENDBRANCH 1 6
BRANCH 1 26
ATOM     26  N   ASP E 180       3.676 -28.963  24.801  1.00 48.48 LIG-0.34  N 
ATOM     27  C   ASP E 179       4.666 -28.875  23.910  1.00 52.76 LIG 0.24  C 
ATOM     28 O    ASP E 179       4.826 -27.932  23.134  1.00 54.54 LIG-0.27  OA
ATOM     29 H    ASP E 180       3.586 -29.647  25.315  1.00 48.48 LIG 0.16  HD
BRANCH 27 30
ATOM     30  CA  ASP E 179       5.629 -30.060  23.910  1.00 62.98 LIG 0.19  C 
BRANCH 30 31
ATOM     31  N   ASP E 179       6.443 -30.209  22.699  1.00 68.60 LIG-0.34  N 
ATOM     32  C   VAL E 178       5.915 -30.427  21.495  1.00 59.78 LIG 0.26  C 
ATOM     33 O    VAL E 178       4.735 -30.737  21.322  1.00 49.42 LIG-0.27  OA
ATOM     34 H    ASP E 179       7.288 -30.143  22.839  1.00 68.60 LIG 0.16  HD
BRANCH 32 35
ATOM     35  CA  VAL E 178       6.877 -30.301  20.309  1.00 59.92 LIG 0.40  C 
ATOM     36  N   VAL E 178       6.184 -30.431  19.031  1.00 55.12 LIG 0.61  N 
BRANCH 35 37
ATOM     37  CB  VAL E 178       7.628 -28.948  20.409  1.00 50.97 LIG 0.03  C 
ATOM     38  CG2 VAL E 178       8.837 -29.057  21.327  1.00 47.22 LIG 0.01  C 
ATOM     39  CG1 VAL E 178       6.689 -27.866  20.896  1.00 50.59 LIG 0.01  C 
ENDBRANCH 35 37
ENDBRANCH 32 35
ENDBRANCH 30 31
BRANCH 30 40
ATOM     40  CB  ASP E 179       6.544 -29.939  25.128  1.00 47.75 LIG 0.15  C 
BRANCH 40 41
ATOM     41  CG  ASP E 179       7.787 -29.136  24.836  1.00 48.80 LIG 0.17  C 
ATOM     42 OD2  ASP E 179       7.798 -27.915  25.127  1.00 55.56 LIG-0.65  OA
ATOM     43 OD1  ASP E 179       8.753 -29.730  24.318  1.00 40.87 LIG-0.65  OA
ENDBRANCH 40 41
ENDBRANCH 30 40
ENDBRANCH 27 30
ENDBRANCH 1 26
TORSDOF 19
ENDMDL
MODEL 2
USER: ADFR SOLUTION from run 96
USER: SCORE 12.794867 LL:  -1.803 LR: -13.697 RR:   0.000 FEB:  -8.030
USER: RMSD 3.301470
USER: SEED 95
USER: STATUS no improvement in best in 9 clusters for 5 generations
USER: GENES 21
USER: genes 0 Translation |==|  0.50426 0.46444 0.41517
USER: genes 1 Rotation |==|  0.57372 0.48430 0.43751 0.99032
USER: genes 2 Torsion [C]-CA--CB-[CG] |==|  0.20500
USER: genes 3 Torsion [CA]-CB--CG-[OD1] |==|  0.31433
USER: genes 4 Torsion [N]-CA--C-[N] |==|  0.29389
USER: genes 5 Torsion [C]-N--CA-[CB] |==|  0.27963
USER: genes 6 Torsion [N]-CA--C-[N] |==|  0.35909
USER: genes 7 Torsion [C]-N--CA-[CB] |==|  0.84381
USER: genes 8 Torsion [N]-CA--CB-[CG] |==|  0.87359
USER: genes 9 Torsion [CA]-CB--CG-[SD] |==|  0.49282
USER: genes 10 Torsion [CB]-CG--SD-[CE] |==|  0.64177
USER: genes 11 Torsion [N]-CA--C-[O] |==|  0.09567
USER: genes 12 Torsion [N]-CA--CB-[CG] |==|  0.19950
USER: genes 13 Torsion [CA]-CB--CG-[OD1] |==|  0.89160
USER: genes 14 Torsion [CB]-CA--N-[C] |==|  0.29892
USER: genes 15 Torsion [N]-C--CA-[N] |==|  0.41964
USER: genes 16 Torsion [C]-CA--N-[C] |==|  0.83884
USER: genes 17 Torsion [N]-C--CA-[N] |==|  0.50271
USER: genes 18 Torsion [C]-CA--CB-[CG2] |==|  0.23571
USER: genes 19 Torsion [C]-CA--CB-[CG] |==|  0.85592
USER: genes 20 Torsion [CA]-CB--CG-[OD2] |==|  0.26833
ROOT
ATOM      1  CA  ASP E 180       2.635 -28.123  24.813  1.00 46.29 LIG 0.19  C 
ENDROOT
BRANCH 1 2
ATOM      2  CB  ASP E 180       1.326 -28.453  24.103  1.00 53.57 LIG 0.15  C 
BRANCH 2 3
ATOM      3  CG  ASP E 180       0.410 -27.257  23.990  1.00 52.91 LIG 0.17  C 
ATOM      4 OD1  ASP E 180       0.178 -26.792  22.852  1.00 53.16 LIG-0.65  OA
ATOM      5 OD2  ASP E 180      -0.084 -26.786  25.035  1.00 39.91 LIG-0.65  OA
ENDBRANCH 2 3
ENDBRANCH 1 2
BRANCH 1 6
ATOM      6  C   ASP E 180       2.384 -27.955  26.318  1.00 46.16 LIG 0.24  C 
ATOM      7 O    ASP E 180       1.741 -28.801  26.944  1.00 47.92 LIG-0.27  OA
ATOM      8  N   ASP E 181       2.885 -26.873  26.905  1.00 48.75 LIG-0.34  N 
ATOM      9 H    ASP E 181       3.296 -26.240  26.493  1.00 48.75 LIG 0.16  HD
BRANCH 8 10
ATOM     10  CA  ASP E 181       2.759 -26.695  28.348  1.00 45.01 LIG 0.19  C 
BRANCH 10 11
ATOM     11  C   ASP E 181       2.350 -25.277  28.739  1.00 47.33 LIG 0.24  C 
ATOM     12 O    ASP E 181       2.963 -24.289  28.315  1.00 41.27 LIG-0.27  OA
ATOM     13  N   MET E 182       1.316 -25.200  29.571  1.00 63.00 LIG-0.35  N 
ATOM     14 H    MET E 182       0.933 -25.889  29.914  1.00 63.00 LIG 0.16  HD
BRANCH 13 15
ATOM     15  CA  MET E 182       0.729 -23.933  29.983  1.00 43.88 LIG 0.16  C 
BRANCH 15 16
ATOM     16  CB  MET E 182       1.800 -23.041  30.610  1.00 44.38 LIG 0.04  C 
BRANCH 16 17
ATOM     17  CG  MET E 182       2.690 -23.760  31.603  1.00 63.17 LIG 0.08  C 
BRANCH 17 18
ATOM     18 SD   MET E 182       3.985 -22.697  32.265  1.00101.17 LIG-0.17  SA
ATOM     19  CE  MET E 182       5.431 -23.718  31.985  1.00 68.91 LIG 0.09  C 
ENDBRANCH 17 18
ENDBRANCH 16 17
ENDBRANCH 15 16
BRANCH 15 20
ATOM     20  C   MET E 182       0.066 -23.215  28.806  1.00 60.82 LIG 0.22  C 
ATOM     21 O    MET E 182      -0.498 -23.846  27.906  1.00 58.83 LIG-0.29  OA
ENDBRANCH 15 20
ENDBRANCH 13 15
ENDBRANCH 10 11
BRANCH 10 22
ATOM     22  CB  ASP E 181       4.070 -27.071  29.037  1.00 40.72 LIG 0.15  C 
BRANCH 22 23
ATOM     23  CG  ASP E 181       5.162 -26.052  28.789  1.00 40.82 LIG 0.17  C 
ATOM     24 OD1  ASP E 181       5.259 -25.529  27.656  1.00 47.44 LIG-0.65  OA
ATOM     25 OD2  ASP E 181       5.917 -25.769  29.740  1.00 24.37 LIG-0.65  OA
ENDBRANCH 22 23
ENDBRANCH 10 22
ENDBRANCH 8 10
ENDBRANCH 1 6
BRANCH 1 26
ATOM     26  N   ASP E 180       3.646 -29.162  24.599  1.00 48.48 LIG-0.34  N 
ATOM     27  C   ASP E 179       4.727 -29.046  23.824  1.00 52.76 LIG 0.24  C 
ATOM     28 O    ASP E 179       5.008 -28.047  23.161  1.00 54.54 LIG-0.27  OA
ATOM     29 H    ASP E 180       3.474 -29.884  25.034  1.00 48.48 LIG 0.16  HD
BRANCH 27 30
ATOM     30  CA  ASP E 179       5.634 -30.274  23.809  1.00 62.98 LIG 0.19  C 
BRANCH 30 31
ATOM     31  N   ASP E 179       6.396 -30.479  22.573  1.00 68.60 LIG-0.34  N 
ATOM     32  C   VAL E 178       5.817 -30.611  21.380  1.00 59.78 LIG 0.26  C 
ATOM     33 O    VAL E 178       4.606 -30.792  21.234  1.00 49.42 LIG-0.27  OA
ATOM     34 H    ASP E 179       7.247 -30.504  22.690  1.00 68.60 LIG 0.16  HD
BRANCH 32 35
ATOM     35  CA  VAL E 178       6.754 -30.559  20.170  1.00 59.92 LIG 0.40  C 
ATOM     36  N   VAL E 178       6.027 -30.690  18.911  1.00 55.12 LIG 0.61  N 
BRANCH 35 37
ATOM     37  CB  VAL E 178       7.567 -29.238  20.217  1.00 50.97 LIG 0.03  C 
ATOM     38  CG2 VAL E 178       8.802 -29.384  21.094  1.00 47.22 LIG 0.01  C 
ATOM     39  CG1 VAL E 178       6.693 -28.107  20.717  1.00 50.59 LIG 0.01  C 
ENDBRANCH 35 37
ENDBRANCH 32 35
ENDBRANCH 30 31
BRANCH 30 40
ATOM     40  CB  ASP E 179       6.598 -30.179  24.992  1.00 47.75 LIG 0.15  C 
BRANCH 40 41
ATOM     41  CG  ASP E 179       7.321 -28.856  25.039  1.00 48.80 LIG 0.17  C 
ATOM     42 OD2  ASP E 179       6.871 -27.949  25.780  1.00 55.56 LIG-0.65  OA
ATOM     43 OD1  ASP E 179       8.342 -28.728  24.334  1.00 40.87 LIG-0.65  OA
ENDBRANCH 40 41
ENDBRANCH 30 40
ENDBRANCH 27 30
ENDBRANCH 1 26
TORSDOF 19
ENDMDL
MODEL 3
USER: ADFR SOLUTION from run 170
USER: SCORE 13.016316 LL:  -1.971 LR: -13.317 RR:   0.000 FEB:  -7.650
USER: RMSD 2.551849
USER: SEED 169
USER: STATUS no improvement in best in 5 clusters for 5 generations
USER: GENES 21
USER: genes 0 Translation |==|  0.50050 0.46303 0.42532
USER: genes 1 Rotation |==|  0.55973 0.49802 0.42748 0.99109
USER: genes 2 Torsion [C]-CA--CB-[CG] |==|  0.20660
USER: genes 3 Torsion [CA]-CB--CG-[OD1] |==|  0.29182
USER: genes 4 Torsion [N]-CA--C-[N] |==|  0.33487
USER: genes 5 Torsion [C]-N--CA-[CB] |==|  0.21094
USER: genes 6 Torsion [N]-CA--C-[N] |==|  0.47498
USER: genes 7 Torsion [C]-N--CA-[CB] |==|  0.24034
USER: genes 8 Torsion [N]-CA--CB-[CG] |==|  0.75379
USER: genes 9 Torsion [CA]-CB--CG-[SD] |==|  0.30578
USER: genes 10 Torsion [CB]-CG--SD-[CE] |==|  0.99143
USER: genes 11 Torsion [N]-CA--C-[O] |==|  0.44325
USER: genes 12 Torsion [N]-CA--CB-[CG] |==|  0.21464
USER: genes 13 Torsion [CA]-CB--CG-[OD1] |==|  0.88984
USER: genes 14 Torsion [CB]-CA--N-[C] |==|  0.29437
USER: genes 15 Torsion [N]-C--CA-[N] |==|  0.44581
USER: genes 16 Torsion [C]-CA--N-[C] |==|  0.81851
USER: genes 17 Torsion [N]-C--CA-[N] |==|  0.54995
USER: genes 18 Torsion [C]-CA--CB-[CG2] |==|  0.77353
USER: genes 19 Torsion [C]-CA--CB-[CG] |==|  0.85439
USER: genes 20 Torsion [CA]-CB--CG-[OD2] |==|  0.79192
ROOT
ATOM      1  CA  ASP E 180       2.553 -28.146  25.019  1.00 46.29 LIG 0.19  C 
ENDROOT
BRANCH 1 2
ATOM      2  CB  ASP E 180       1.189 -28.464  24.413  1.00 53.57 LIG 0.15  C 
BRANCH 2 3
ATOM      3  CG  ASP E 180       0.311 -27.241  24.290  1.00 52.91 LIG 0.17  C 
ATOM      4 OD1  ASP E 180       0.147 -26.739  23.156  1.00 53.16 LIG-0.65  OA
ATOM      5 OD2  ASP E 180      -0.222 -26.786  25.324  1.00 39.91 LIG-0.65  OA
ENDBRANCH 2 3
ENDBRANCH 1 2
BRANCH 1 6
ATOM      6  C   ASP E 180       2.409 -27.901  26.527  1.00 46.16 LIG 0.24  C 
ATOM      7 O    ASP E 180       2.030 -28.804  27.275  1.00 47.92 LIG-0.27  OA
ATOM      8  N   ASP E 181       2.710 -26.688  26.980  1.00 48.75 LIG-0.34  N 
ATOM      9 H    ASP E 181       2.930 -26.021  26.484  1.00 48.75 LIG 0.16  HD
BRANCH 8 10
ATOM     10  CA  ASP E 181       2.679 -26.411  28.413  1.00 45.01 LIG 0.19  C 
BRANCH 10 11
ATOM     11  C   ASP E 181       2.582 -24.922  28.730  1.00 47.33 LIG 0.24  C 
ATOM     12 O    ASP E 181       2.719 -24.064  27.848  1.00 41.27 LIG-0.27  OA
ATOM     13  N   MET E 182       2.363 -24.632  30.010  1.00 63.00 LIG-0.35  N 
ATOM     14 H    MET E 182       2.332 -25.226  30.630  1.00 63.00 LIG 0.16  HD
BRANCH 13 15
ATOM     15  CA  MET E 182       2.153 -23.272  30.484  1.00 43.88 LIG 0.16  C 
BRANCH 15 16
ATOM     16  CB  MET E 182       0.676 -22.899  30.365  1.00 44.38 LIG 0.04  C 
BRANCH 16 17
ATOM     17  CG  MET E 182       0.303 -22.298  29.024  1.00 63.17 LIG 0.08  C 
BRANCH 17 18
ATOM     18 SD   MET E 182      -0.724 -23.399  28.035  1.00101.17 LIG-0.17  SA
ATOM     19  CE  MET E 182      -0.785 -24.842  29.095  1.00 68.91 LIG 0.09  C 
ENDBRANCH 17 18
ENDBRANCH 16 17
ENDBRANCH 15 16
BRANCH 15 20
ATOM     20  C   MET E 182       2.624 -23.106  31.930  1.00 60.82 LIG 0.22  C 
ATOM     21 O    MET E 182       2.883 -21.991  32.395  1.00 58.83 LIG-0.29  OA
ENDBRANCH 15 20
ENDBRANCH 13 15
ENDBRANCH 10 11
BRANCH 10 22
ATOM     22  CB  ASP E 181       3.912 -27.011  29.087  1.00 40.72 LIG 0.15  C 
BRANCH 22 23
ATOM     23  CG  ASP E 181       5.155 -26.177  28.856  1.00 40.82 LIG 0.17  C 
ATOM     24 OD1  ASP E 181       5.340 -25.661  27.731  1.00 47.44 LIG-0.65  OA
ATOM     25 OD2  ASP E 181       5.941 -26.033  29.813  1.00 24.37 LIG-0.65  OA
ENDBRANCH 22 23
ENDBRANCH 10 22
ENDBRANCH 8 10
ENDBRANCH 1 6
BRANCH 1 26
ATOM     26  N   ASP E 180       3.515 -29.228  24.788  1.00 48.48 LIG-0.34  N 
ATOM     27  C   ASP E 179       4.526 -29.196  23.917  1.00 52.76 LIG 0.24  C 
ATOM     28 O    ASP E 179       4.773 -28.251  23.167  1.00 54.54 LIG-0.27  OA
ATOM     29 H    ASP E 180       3.364 -29.914  25.284  1.00 48.48 LIG 0.16  HD
BRANCH 27 30
ATOM     30  CA  ASP E 179       5.397 -30.451  23.907  1.00 62.98 LIG 0.19  C 
BRANCH 30 31
ATOM     31  N   ASP E 179       6.209 -30.642  22.701  1.00 68.60 LIG-0.34  N 
ATOM     32  C   VAL E 178       5.678 -30.865  21.499  1.00 59.78 LIG 0.26  C 
ATOM     33 O    VAL E 178       4.490 -31.144  21.327  1.00 49.42 LIG-0.27  OA
ATOM     34 H    ASP E 179       7.055 -30.598  22.843  1.00 68.60 LIG 0.16  HD
BRANCH 32 35
ATOM     35  CA  VAL E 178       6.646 -30.786  20.314  1.00 59.92 LIG 0.40  C 
ATOM     36  N   VAL E 178       5.941 -30.621  19.047  1.00 55.12 LIG 0.61  N 
BRANCH 35 37
ATOM     37  CB  VAL E 178       7.649 -29.628  20.557  1.00 50.97 LIG 0.03  C 
ATOM     38  CG2 VAL E 178       7.042 -28.286  20.175  1.00 47.22 LIG 0.01  C 
ATOM     39  CG1 VAL E 178       8.925 -29.873  19.780  1.00 50.59 LIG 0.01  C 
ENDBRANCH 35 37
ENDBRANCH 32 35
ENDBRANCH 30 31
BRANCH 30 40
ATOM     40  CB  ASP E 179       6.306 -30.418  25.135  1.00 47.75 LIG 0.15  C 
BRANCH 40 41
ATOM     41  CG  ASP E 179       7.075 -29.125  25.247  1.00 48.80 LIG 0.17  C 
ATOM     42 OD2  ASP E 179       8.048 -28.934  24.478  1.00 55.56 LIG-0.65  OA
ATOM     43 OD1  ASP E 179       6.701 -28.301  26.106  1.00 40.87 LIG-0.65  OA
ENDBRANCH 40 41
ENDBRANCH 30 40
ENDBRANCH 27 30
ENDBRANCH 1 26
TORSDOF 19
ENDMDL
MODEL 4
USER: ADFR SOLUTION from run 105
USER: SCORE 12.441826 LL:  -2.328 LR: -13.019 RR:   0.000 FEB:  -7.351
USER: RMSD 2.384081
USER: SEED 104
USER: STATUS no improvement in best in 6 clusters for 5 generations
USER: GENES 21
USER: genes 0 Translation |==|  0.50604 0.47078 0.42723
USER: genes 1 Rotation |==|  0.56679 0.49812 0.44360 0.99230
USER: genes 2 Torsion [C]-CA--CB-[CG] |==|  0.21039
USER: genes 3 Torsion [CA]-CB--CG-[OD1] |==|  0.29808
USER: genes 4 Torsion [N]-CA--C-[N] |==|  0.31670
USER: genes 5 Torsion [C]-N--CA-[CB] |==|  0.43996
USER: genes 6 Torsion [N]-CA--C-[N] |==|  0.98788
USER: genes 7 Torsion [C]-N--CA-[CB] |==|  0.85183
USER: genes 8 Torsion [N]-CA--CB-[CG] |==|  0.73852
USER: genes 9 Torsion [CA]-CB--CG-[SD] |==|  0.30885
USER: genes 10 Torsion [CB]-CG--SD-[CE] |==|  0.69284
USER: genes 11 Torsion [N]-CA--C-[O] |==|  0.23870
USER: genes 12 Torsion [N]-CA--CB-[CG] |==|  0.78559
USER: genes 13 Torsion [CA]-CB--CG-[OD1] |==|  0.30188
USER: genes 14 Torsion [CB]-CA--N-[C] |==|  0.28684
USER: genes 15 Torsion [N]-C--CA-[N] |==|  0.44808
USER: genes 16 Torsion [C]-CA--N-[C] |==|  0.82778
USER: genes 17 Torsion [N]-C--CA-[N] |==|  0.51477
USER: genes 18 Torsion [C]-CA--CB-[CG2] |==|  0.23482
USER: genes 19 Torsion [C]-CA--CB-[CG] |==|  0.87710
USER: genes 20 Torsion [CA]-CB--CG-[OD2] |==|  0.76561
ROOT
ATOM      1  CA  ASP E 180       2.673 -28.018  25.057  1.00 46.29 LIG 0.19  C 
ENDROOT
BRANCH 1 2
ATOM      2  CB  ASP E 180       1.340 -28.406  24.427  1.00 53.57 LIG 0.15  C 
BRANCH 2 3
ATOM      3  CG  ASP E 180       0.398 -27.232  24.296  1.00 52.91 LIG 0.17  C 
ATOM      4 OD1  ASP E 180       0.192 -26.760  23.155  1.00 53.16 LIG-0.65  OA
ATOM      5 OD2  ASP E 180      -0.143 -26.786  25.329  1.00 39.91 LIG-0.65  OA
ENDBRANCH 2 3
ENDBRANCH 1 2
BRANCH 1 6
ATOM      6  C   ASP E 180       2.499 -27.824  26.570  1.00 46.16 LIG 0.24  C 
ATOM      7 O    ASP E 180       2.056 -28.735  27.271  1.00 47.92 LIG-0.27  OA
ATOM      8  N   ASP E 181       2.843 -26.645  27.078  1.00 48.75 LIG-0.34  N 
ATOM      9 H    ASP E 181       3.109 -25.971  26.615  1.00 48.75 LIG 0.16  HD
BRANCH 8 10
ATOM     10  CA  ASP E 181       2.785 -26.422  28.520  1.00 45.01 LIG 0.19  C 
BRANCH 10 11
ATOM     11  C   ASP E 181       1.368 -26.168  29.026  1.00 47.33 LIG 0.24  C 
ATOM     12 O    ASP E 181       1.124 -26.055  30.234  1.00 41.27 LIG-0.27  OA
ATOM     13  N   MET E 182       0.436 -26.099  28.079  1.00 63.00 LIG-0.35  N 
ATOM     14 H    MET E 182       0.597 -26.240  27.246  1.00 63.00 LIG 0.16  HD
BRANCH 13 15
ATOM     15  CA  MET E 182      -0.954 -25.774  28.363  1.00 43.88 LIG 0.16  C 
BRANCH 15 16
ATOM     16  CB  MET E 182      -1.497 -26.706  29.445  1.00 44.38 LIG 0.04  C 
BRANCH 16 17
ATOM     17  CG  MET E 182      -2.211 -27.927  28.899  1.00 63.17 LIG 0.08  C 
BRANCH 17 18
ATOM     18 SD   MET E 182      -1.307 -29.453  29.209  1.00101.17 LIG-0.17  SA
ATOM     19  CE  MET E 182      -0.791 -29.879  27.546  1.00 68.91 LIG 0.09  C 
ENDBRANCH 17 18
ENDBRANCH 16 17
ENDBRANCH 15 16
BRANCH 15 20
ATOM     20  C   MET E 182      -1.110 -24.315  28.796  1.00 60.82 LIG 0.22  C 
ATOM     21 O    MET E 182      -1.242 -23.411  27.964  1.00 58.83 LIG-0.29  OA
ENDBRANCH 15 20
ENDBRANCH 13 15
ENDBRANCH 10 11
BRANCH 10 22
ATOM     22  CB  ASP E 181       3.695 -25.257  28.904  1.00 40.72 LIG 0.15  C 
BRANCH 22 23
ATOM     23  CG  ASP E 181       5.157 -25.654  28.928  1.00 40.82 LIG 0.17  C 
ATOM     24 OD1  ASP E 181       5.917 -25.225  28.031  1.00 47.44 LIG-0.65  OA
ATOM     25 OD2  ASP E 181       5.542 -26.391  29.857  1.00 24.37 LIG-0.65  OA
ENDBRANCH 22 23
ENDBRANCH 10 22
ENDBRANCH 8 10
ENDBRANCH 1 6
BRANCH 1 26
ATOM     26  N   ASP E 180       3.705 -29.030  24.810  1.00 48.48 LIG-0.34  N 
ATOM     27  C   ASP E 179       4.692 -28.930  23.916  1.00 52.76 LIG 0.24  C 
ATOM     28 O    ASP E 179       4.853 -27.975  23.156  1.00 54.54 LIG-0.27  OA
ATOM     29 H    ASP E 180       3.615 -29.722  25.312  1.00 48.48 LIG 0.16  HD
BRANCH 27 30
ATOM     30  CA  ASP E 179       5.650 -30.119  23.892  1.00 62.98 LIG 0.19  C 
BRANCH 30 31
ATOM     31  N   ASP E 179       6.460 -30.249  22.677  1.00 68.60 LIG-0.34  N 
ATOM     32  C   VAL E 178       5.929 -30.441  21.470  1.00 59.78 LIG 0.26  C 
ATOM     33 O    VAL E 178       4.747 -30.742  21.293  1.00 49.42 LIG-0.27  OA
ATOM     34 H    ASP E 179       7.307 -30.189  22.816  1.00 68.60 LIG 0.16  HD
BRANCH 32 35
ATOM     35  CA  VAL E 178       6.888 -30.297  20.284  1.00 59.92 LIG 0.40  C 
ATOM     36  N   VAL E 178       6.193 -30.402  19.005  1.00 55.12 LIG 0.61  N 
BRANCH 35 37
ATOM     37  CB  VAL E 178       7.645 -28.949  20.407  1.00 50.97 LIG 0.03  C 
ATOM     38  CG2 VAL E 178       8.862 -29.081  21.310  1.00 47.22 LIG 0.01  C 
ATOM     39  CG1 VAL E 178       6.713 -27.875  20.928  1.00 50.59 LIG 0.01  C 
ENDBRANCH 35 37
ENDBRANCH 32 35
ENDBRANCH 30 31
BRANCH 30 40
ATOM     40  CB  ASP E 179       6.569 -30.025  25.110  1.00 47.75 LIG 0.15  C 
BRANCH 40 41
ATOM     41  CG  ASP E 179       7.089 -28.627  25.331  1.00 48.80 LIG 0.17  C 
ATOM     42 OD2  ASP E 179       8.107 -28.256  24.698  1.00 55.56 LIG-0.65  OA
ATOM     43 OD1  ASP E 179       6.475 -27.901  26.138  1.00 40.87 LIG-0.65  OA
ENDBRANCH 40 41
ENDBRANCH 30 40
ENDBRANCH 27 30
ENDBRANCH 1 26
TORSDOF 19
ENDMDL
MODEL 5
USER: ADFR SOLUTION from run 33
USER: SCORE 12.596747 LL:  -1.757 LR: -12.894 RR:   0.000 FEB:  -7.226
USER: RMSD 4.580262
USER: SEED 32
USER: STATUS no improvement in best in 4 clusters for 5 generations
USER: GENES 21
USER: genes 0 Translation |==|  0.46954 0.47838 0.42401
USER: genes 1 Rotation |==|  0.51055 0.47898 0.45795 0.99767
USER: genes 2 Torsion [C]-CA--CB-[CG] |==|  0.21768
USER: genes 3 Torsion [CA]-CB--CG-[OD1] |==|  0.71084
USER: genes 4 Torsion [N]-CA--C-[N] |==|  0.38373
USER: genes 5 Torsion [C]-N--CA-[CB] |==|  0.83251
USER: genes 6 Torsion [N]-CA--C-[N] |==|  0.31514
USER: genes 7 Torsion [C]-N--CA-[CB] |==|  0.80586
USER: genes 8 Torsion [N]-CA--CB-[CG] |==|  0.50657
USER: genes 9 Torsion [CA]-CB--CG-[SD] |==|  0.24152
USER: genes 10 Torsion [CB]-CG--SD-[CE] |==|  0.63244
USER: genes 11 Torsion [N]-CA--C-[O] |==|  0.15726
USER: genes 12 Torsion [N]-CA--CB-[CG] |==|  0.78429
USER: genes 13 Torsion [CA]-CB--CG-[OD1] |==|  0.37011
USER: genes 14 Torsion [CB]-CA--N-[C] |==|  0.31667
USER: genes 15 Torsion [N]-C--CA-[N] |==|  0.44696
USER: genes 16 Torsion [C]-CA--N-[C] |==|  0.83306
USER: genes 17 Torsion [N]-C--CA-[N] |==|  0.52964
USER: genes 18 Torsion [C]-CA--CB-[CG2] |==|  0.78494
USER: genes 19 Torsion [C]-CA--CB-[CG] |==|  0.86417
USER: genes 20 Torsion [CA]-CB--CG-[OD2] |==|  0.80243
ROOT
ATOM      1  CA  ASP E 180       1.880 -27.893  24.992  1.00 46.29 LIG 0.19  C 
ENDROOT
BRANCH 1 2
ATOM      2  CB  ASP E 180       0.605 -28.487  24.402  1.00 53.57 LIG 0.15  C 
BRANCH 2 3
ATOM      3  CG  ASP E 180      -0.347 -27.429  23.894  1.00 52.91 LIG 0.17  C 
ATOM      4 OD1  ASP E 180      -1.358 -27.161  24.580  1.00 53.16 LIG-0.65  OA
ATOM      5 OD2  ASP E 180      -0.081 -26.860  22.815  1.00 39.91 LIG-0.65  OA
ENDBRANCH 2 3
ENDBRANCH 1 2
BRANCH 1 6
ATOM      6  C   ASP E 180       1.603 -27.365  26.407  1.00 46.16 LIG 0.24  C 
ATOM      7 O    ASP E 180       1.588 -28.134  27.370  1.00 47.92 LIG-0.27  OA
ATOM      8  N   ASP E 181       1.384 -26.061  26.541  1.00 48.75 LIG-0.34  N 
ATOM      9 H    ASP E 181       1.339 -25.503  25.888  1.00 48.75 LIG 0.16  HD
BRANCH 8 10
ATOM     10  CA  ASP E 181       1.201 -25.480  27.867  1.00 45.01 LIG 0.19  C 
BRANCH 10 11
ATOM     11  C   ASP E 181       2.434 -25.620  28.754  1.00 47.33 LIG 0.24  C 
ATOM     12 O    ASP E 181       2.817 -26.725  29.159  1.00 41.27 LIG-0.27  OA
ATOM     13  N   MET E 182       3.037 -24.475  29.064  1.00 63.00 LIG-0.35  N 
ATOM     14 H    MET E 182       2.733 -23.704  28.835  1.00 63.00 LIG 0.16  HD
BRANCH 13 15
ATOM     15  CA  MET E 182       4.276 -24.418  29.824  1.00 43.88 LIG 0.16  C 
BRANCH 15 16
ATOM     16  CB  MET E 182       4.019 -24.829  31.274  1.00 44.38 LIG 0.04  C 
BRANCH 16 17
ATOM     17  CG  MET E 182       5.246 -24.745  32.160  1.00 63.17 LIG 0.08  C 
BRANCH 17 18
ATOM     18 SD   MET E 182       5.474 -23.106  32.873  1.00101.17 LIG-0.17  SA
ATOM     19  CE  MET E 182       7.212 -22.833  32.532  1.00 68.91 LIG 0.09  C 
ENDBRANCH 17 18
ENDBRANCH 16 17
ENDBRANCH 15 16
BRANCH 15 20
ATOM     20  C   MET E 182       5.354 -25.311  29.206  1.00 60.82 LIG 0.22  C 
ATOM     21 O    MET E 182       5.708 -25.167  28.031  1.00 58.83 LIG-0.29  OA
ENDBRANCH 15 20
ENDBRANCH 13 15
ENDBRANCH 10 11
BRANCH 10 22
ATOM     22  CB  ASP E 181      -0.011 -26.113  28.551  1.00 40.72 LIG 0.15  C 
BRANCH 22 23
ATOM     23  CG  ASP E 181      -1.320 -25.555  28.031  1.00 40.82 LIG 0.17  C 
ATOM     24 OD1  ASP E 181      -2.241 -26.348  27.731  1.00 47.44 LIG-0.65  OA
ATOM     25 OD2  ASP E 181      -1.424 -24.317  27.935  1.00 24.37 LIG-0.65  OA
ENDBRANCH 22 23
ENDBRANCH 10 22
ENDBRANCH 8 10
ENDBRANCH 1 6
BRANCH 1 26
ATOM     26  N   ASP E 180       2.965 -28.877  25.041  1.00 48.48 LIG-0.34  N 
ATOM     27  C   ASP E 179       4.099 -28.818  24.338  1.00 52.76 LIG 0.24  C 
ATOM     28 O    ASP E 179       4.374 -27.932  23.528  1.00 54.54 LIG-0.27  OA
ATOM     29 H    ASP E 180       2.801 -29.522  25.585  1.00 48.48 LIG 0.16  HD
BRANCH 27 30
ATOM     30  CA  ASP E 179       5.075 -29.961  24.608  1.00 62.98 LIG 0.19  C 
BRANCH 30 31
ATOM     31  N   ASP E 179       6.095 -30.174  23.577  1.00 68.60 LIG-0.34  N 
ATOM     32  C   VAL E 178       5.796 -30.470  22.313  1.00 59.78 LIG 0.26  C 
ATOM     33 O    VAL E 178       4.667 -30.804  21.948  1.00 49.42 LIG-0.27  OA
ATOM     34 H    ASP E 179       6.901 -30.089  23.864  1.00 68.60 LIG 0.16  HD
BRANCH 32 35
ATOM     35  CA  VAL E 178       6.956 -30.406  21.315  1.00 59.92 LIG 0.40  C 
ATOM     36  N   VAL E 178       6.493 -30.499  19.935  1.00 55.12 LIG 0.61  N 
BRANCH 35 37
ATOM     37  CB  VAL E 178       7.757 -29.100  21.556  1.00 50.97 LIG 0.03  C 
ATOM     38  CG2 VAL E 178       7.035 -27.896  20.967  1.00 47.22 LIG 0.01  C 
ATOM     39  CG1 VAL E 178       9.146 -29.225  20.967  1.00 50.59 LIG 0.01  C 
ENDBRANCH 35 37
ENDBRANCH 32 35
ENDBRANCH 30 31
BRANCH 30 40
ATOM     40  CB  ASP E 179       5.755 -29.707  25.953  1.00 47.75 LIG 0.15  C 
BRANCH 40 41
ATOM     41  CG  ASP E 179       6.291 -28.302  26.072  1.00 48.80 LIG 0.17  C 
ATOM     42 OD2  ASP E 179       7.295 -27.981  25.391  1.00 55.56 LIG-0.65  OA
ATOM     43 OD1  ASP E 179       5.703 -27.521  26.845  1.00 40.87 LIG-0.65  OA
ENDBRANCH 40 41
ENDBRANCH 30 40
ENDBRANCH 27 30
ENDBRANCH 1 26
TORSDOF 19
ENDMDL
MODEL 6
USER: ADFR SOLUTION from run 175
USER: SCORE 12.167573 LL:  -1.286 LR: -12.706 RR:   0.000 FEB:  -7.038
USER: RMSD 2.691137
USER: SEED 174
USER: STATUS no improvement in best in 3 clusters for 5 generations
USER: GENES 21
USER: genes 0 Translation |==|  0.49783 0.47620 0.43211
USER: genes 1 Rotation |==|  0.50297 0.45817 0.45123 0.99585
USER: genes 2 Torsion [C]-CA--CB-[CG] |==|  0.19969
USER: genes 3 Torsion [CA]-CB--CG-[OD1] |==|  0.28915
USER: genes 4 Torsion [N]-CA--C-[N] |==|  0.25031
USER: genes 5 Torsion [C]-N--CA-[CB] |==|  0.43690
USER: genes 6 Torsion [N]-CA--C-[N] |==|  0.48881
USER: genes 7 Torsion [C]-N--CA-[CB] |==|  0.76369
USER: genes 8 Torsion [N]-CA--CB-[CG] |==|  0.15840
USER: genes 9 Torsion [CA]-CB--CG-[SD] |==|  0.45296
USER: genes 10 Torsion [CB]-CG--SD-[CE] |==|  0.45415
USER: genes 11 Torsion [N]-CA--C-[O] |==|  0.74498
USER: genes 12 Torsion [N]-CA--CB-[CG] |==|  0.87002
USER: genes 13 Torsion [CA]-CB--CG-[OD1] |==|  0.72091
USER: genes 14 Torsion [CB]-CA--N-[C] |==|  0.60220
USER: genes 15 Torsion [N]-C--CA-[N] |==|  0.11753
USER: genes 16 Torsion [C]-CA--N-[C] |==|  0.13970
USER: genes 17 Torsion [N]-C--CA-[N] |==|  0.23153
USER: genes 18 Torsion [C]-CA--CB-[CG2] |==|  0.55461
USER: genes 19 Torsion [C]-CA--CB-[CG] |==|  0.55852
USER: genes 20 Torsion [CA]-CB--CG-[OD2] |==|  0.79443
ROOT
ATOM      1  CA  ASP E 180       2.495 -27.929  25.156  1.00 46.29 LIG 0.19  C 
ENDROOT
BRANCH 1 2
ATOM      2  CB  ASP E 180       1.253 -28.507  24.486  1.00 53.57 LIG 0.15  C 
BRANCH 2 3
ATOM      3  CG  ASP E 180       0.302 -27.436  24.005  1.00 52.91 LIG 0.17  C 
ATOM      4 OD1  ASP E 180       0.261 -27.184  22.780  1.00 53.16 LIG-0.65  OA
ATOM      5 OD2  ASP E 180      -0.410 -26.852  24.848  1.00 39.91 LIG-0.65  OA
ENDBRANCH 2 3
ENDBRANCH 1 2
BRANCH 1 6
ATOM      6  C   ASP E 180       2.123 -27.341  26.525  1.00 46.16 LIG 0.24  C 
ATOM      7 O    ASP E 180       1.230 -27.852  27.204  1.00 47.92 LIG-0.27  OA
ATOM      8  N   ASP E 181       2.800 -26.274  26.936  1.00 48.75 LIG-0.34  N 
ATOM      9 H    ASP E 181       3.394 -25.862  26.471  1.00 48.75 LIG 0.16  HD
BRANCH 8 10
ATOM     10  CA  ASP E 181       2.558 -25.718  28.264  1.00 45.01 LIG 0.19  C 
BRANCH 10 11
ATOM     11  C   ASP E 181       1.303 -24.853  28.327  1.00 47.33 LIG 0.24  C 
ATOM     12 O    ASP E 181       0.644 -24.596  27.311  1.00 41.27 LIG-0.27  OA
ATOM     13  N   MET E 182       0.997 -24.393  29.537  1.00 63.00 LIG-0.35  N 
ATOM     14 H    MET E 182       1.490 -24.520  30.229  1.00 63.00 LIG 0.16  HD
BRANCH 13 15
ATOM     15  CA  MET E 182      -0.211 -23.628  29.807  1.00 43.88 LIG 0.16  C 
BRANCH 15 16
ATOM     16  CB  MET E 182       0.028 -22.149  29.503  1.00 44.38 LIG 0.04  C 
BRANCH 16 17
ATOM     17  CG  MET E 182       0.482 -21.882  28.082  1.00 63.17 LIG 0.08  C 
BRANCH 17 18
ATOM     18 SD   MET E 182       0.290 -20.155  27.607  1.00101.17 LIG-0.17  SA
ATOM     19  CE  MET E 182       1.339 -20.089  26.156  1.00 68.91 LIG 0.09  C 
ENDBRANCH 17 18
ENDBRANCH 16 17
ENDBRANCH 15 16
BRANCH 15 20
ATOM     20  C   MET E 182      -1.397 -24.149  28.992  1.00 60.82 LIG 0.22  C 
ATOM     21 O    MET E 182      -1.667 -23.679  27.882  1.00 58.83 LIG-0.29  OA
ENDBRANCH 15 20
ENDBRANCH 13 15
ENDBRANCH 10 11
BRANCH 10 22
ATOM     22  CB  ASP E 181       3.773 -24.912  28.721  1.00 40.72 LIG 0.15  C 
BRANCH 22 23
ATOM     23  CG  ASP E 181       5.073 -25.655  28.493  1.00 40.82 LIG 0.17  C 
ATOM     24 OD1  ASP E 181       5.617 -26.237  29.458  1.00 47.44 LIG-0.65  OA
ATOM     25 OD2  ASP E 181       5.542 -25.661  27.338  1.00 24.37 LIG-0.65  OA
ENDBRANCH 22 23
ENDBRANCH 10 22
ENDBRANCH 8 10
ENDBRANCH 1 6
BRANCH 1 26
ATOM     26  N   ASP E 180       3.541 -28.941  25.326  1.00 48.48 LIG-0.34  N 
ATOM     27  C   ASP E 179       4.367 -29.037  26.371  1.00 52.76 LIG 0.24  C 
ATOM     28 O    ASP E 179       4.376 -28.263  27.329  1.00 54.54 LIG-0.27  OA
ATOM     29 H    ASP E 180       3.578 -29.491  24.666  1.00 48.48 LIG 0.16  HD
BRANCH 27 30
ATOM     30  CA  ASP E 179       5.342 -30.211  26.306  1.00 62.98 LIG 0.19  C 
BRANCH 30 31
ATOM     31  N   ASP E 179       5.956 -30.447  24.996  1.00 68.60 LIG-0.34  N 
ATOM     32  C   VAL E 178       6.544 -29.483  24.288  1.00 59.78 LIG 0.26  C 
ATOM     33 O    VAL E 178       6.437 -28.286  24.559  1.00 49.42 LIG-0.27  OA
ATOM     34 H    ASP E 179       5.900 -31.262  24.729  1.00 68.60 LIG 0.16  HD
BRANCH 32 35
ATOM     35  CA  VAL E 178       7.355 -29.944  23.072  1.00 59.92 LIG 0.40  C 
ATOM     36  N   VAL E 178       6.509 -30.152  21.901  1.00 55.12 LIG 0.61  N 
BRANCH 35 37
ATOM     37  CB  VAL E 178       8.469 -28.904  22.786  1.00 50.97 LIG 0.03  C 
ATOM     38  CG2 VAL E 178       8.985 -29.030  21.359  1.00 47.22 LIG 0.01  C 
ATOM     39  CG1 VAL E 178       9.603 -29.070  23.775  1.00 50.59 LIG 0.01  C 
ENDBRANCH 35 37
ENDBRANCH 32 35
ENDBRANCH 30 31
BRANCH 30 40
ATOM     40  CB  ASP E 179       6.436 -29.989  27.349  1.00 47.75 LIG 0.15  C 
BRANCH 40 41
ATOM     41  CG  ASP E 179       7.687 -30.776  27.048  1.00 48.80 LIG 0.17  C 
ATOM     42 OD2  ASP E 179       7.680 -32.016  27.245  1.00 55.56 LIG-0.65  OA
ATOM     43 OD1  ASP E 179       8.674 -30.152  26.613  1.00 40.87 LIG-0.65  OA
ENDBRANCH 40 41
ENDBRANCH 30 40
ENDBRANCH 27 30
ENDBRANCH 1 26
TORSDOF 19
ENDMDL
MODEL 7
USER: ADFR SOLUTION from run 108
USER: SCORE 10.927932 LL:  -2.016 LR: -12.586 RR:   0.000 FEB:  -6.918
USER: RMSD 2.710256
USER: SEED 107
USER: STATUS no improvement in best in 4 clusters for 5 generations
USER: GENES 21
USER: genes 0 Translation |==|  0.51200 0.48082 0.44823
USER: genes 1 Rotation |==|  0.52264 0.46831 0.46304 0.99711
USER: genes 2 Torsion [C]-CA--CB-[CG] |==|  0.21075
USER: genes 3 Torsion [CA]-CB--CG-[OD1] |==|  0.29895
USER: genes 4 Torsion [N]-CA--C-[N] |==|  0.29761
USER: genes 5 Torsion [C]-N--CA-[CB] |==|  0.37422
USER: genes 6 Torsion [N]-CA--C-[N] |==|  0.40379
USER: genes 7 Torsion [C]-N--CA-[CB] |==|  0.81342
USER: genes 8 Torsion [N]-CA--CB-[CG] |==|  0.90185
USER: genes 9 Torsion [CA]-CB--CG-[SD] |==|  0.71295
USER: genes 10 Torsion [CB]-CG--SD-[CE] |==|  0.44952
USER: genes 11 Torsion [N]-CA--C-[O] |==|  0.75196
USER: genes 12 Torsion [N]-CA--CB-[CG] |==|  0.87567
USER: genes 13 Torsion [CA]-CB--CG-[OD1] |==|  0.72013
USER: genes 14 Torsion [CB]-CA--N-[C] |==|  0.23658
USER: genes 15 Torsion [N]-C--CA-[N] |==|  0.55796
USER: genes 16 Torsion [C]-CA--N-[C] |==|  0.18849
USER: genes 17 Torsion [N]-C--CA-[N] |==|  0.88156
USER: genes 18 Torsion [C]-CA--CB-[CG2] |==|  0.02688
USER: genes 19 Torsion [C]-CA--CB-[CG] |==|  0.53944
USER: genes 20 Torsion [CA]-CB--CG-[OD2] |==|  0.90215
ROOT
ATOM      1  CA  ASP E 180       2.803 -27.852  25.483  1.00 46.29 LIG 0.19  C 
ENDROOT
BRANCH 1 2
ATOM      2  CB  ASP E 180       1.571 -28.445  24.807  1.00 53.57 LIG 0.15  C 
BRANCH 2 3
ATOM      3  CG  ASP E 180       0.592 -27.387  24.355  1.00 52.91 LIG 0.17  C 
ATOM      4 OD1  ASP E 180       0.490 -27.157  23.129  1.00 53.16 LIG-0.65  OA
ATOM      5 OD2  ASP E 180      -0.080 -26.791  25.222  1.00 39.91 LIG-0.65  OA
ENDBRANCH 2 3
ENDBRANCH 1 2
BRANCH 1 6
ATOM      6  C   ASP E 180       2.449 -27.394  26.904  1.00 46.16 LIG 0.24  C 
ATOM      7 O    ASP E 180       1.862 -28.152  27.679  1.00 47.92 LIG-0.27  OA
ATOM      8  N   ASP E 181       2.800 -26.161  27.254  1.00 48.75 LIG-0.34  N 
ATOM      9 H    ASP E 181       3.166 -25.588  26.727  1.00 48.75 LIG 0.16  HD
BRANCH 8 10
ATOM     10  CA  ASP E 181       2.572 -25.691  28.617  1.00 45.01 LIG 0.19  C 
BRANCH 10 11
ATOM     11  C   ASP E 181       1.350 -24.784  28.737  1.00 47.33 LIG 0.24  C 
ATOM     12 O    ASP E 181       1.041 -23.995  27.836  1.00 41.27 LIG-0.27  OA
ATOM     13  N   MET E 182       0.674 -24.900  29.877  1.00 63.00 LIG-0.35  N 
ATOM     14 H    MET E 182       0.927 -25.402  30.527  1.00 63.00 LIG 0.16  HD
BRANCH 13 15
ATOM     15  CA  MET E 182      -0.566 -24.183  30.133  1.00 43.88 LIG 0.16  C 
BRANCH 15 16
ATOM     16  CB  MET E 182      -0.292 -22.683  30.231  1.00 44.38 LIG 0.04  C 
BRANCH 16 17
ATOM     17  CG  MET E 182       1.038 -22.345  30.875  1.00 63.17 LIG 0.08  C 
BRANCH 17 18
ATOM     18 SD   MET E 182       0.859 -21.782  32.577  1.00101.17 LIG-0.17  SA
ATOM     19  CE  MET E 182       2.531 -22.009  33.181  1.00 68.91 LIG 0.09  C 
ENDBRANCH 17 18
ENDBRANCH 16 17
ENDBRANCH 15 16
BRANCH 15 20
ATOM     20  C   MET E 182      -1.607 -24.459  29.046  1.00 60.82 LIG 0.22  C 
ATOM     21 O    MET E 182      -1.673 -23.760  28.030  1.00 58.83 LIG-0.29  OA
ENDBRANCH 15 20
ENDBRANCH 13 15
ENDBRANCH 10 11
BRANCH 10 22
ATOM     22  CB  ASP E 181       3.814 -24.967  29.134  1.00 40.72 LIG 0.15  C 
BRANCH 22 23
ATOM     23  CG  ASP E 181       5.090 -25.718  28.814  1.00 40.82 LIG 0.17  C 
ATOM     24 OD1  ASP E 181       5.632 -26.404  29.711  1.00 47.44 LIG-0.65  OA
ATOM     25 OD2  ASP E 181       5.542 -25.626  27.656  1.00 24.37 LIG-0.65  OA
ENDBRANCH 22 23
ENDBRANCH 10 22
ENDBRANCH 8 10
ENDBRANCH 1 6
BRANCH 1 26
ATOM     26  N   ASP E 180       3.907 -28.816  25.540  1.00 48.48 LIG-0.34  N 
ATOM     27  C   ASP E 179       4.796 -29.036  24.569  1.00 52.76 LIG 0.24  C 
ATOM     28 O    ASP E 179       4.792 -28.471  23.475  1.00 54.54 LIG-0.27  OA
ATOM     29 H    ASP E 180       3.932 -29.243  26.286  1.00 48.48 LIG 0.16  HD
BRANCH 27 30
ATOM     30  CA  ASP E 179       5.865 -30.073  24.909  1.00 62.98 LIG 0.19  C 
BRANCH 30 31
ATOM     31  N   ASP E 179       7.090 -29.999  24.108  1.00 68.60 LIG-0.34  N 
ATOM     32  C   VAL E 178       7.949 -28.984  24.190  1.00 59.78 LIG 0.26  C 
ATOM     33 O    VAL E 178       7.691 -27.928  24.772  1.00 49.42 LIG-0.27  OA
ATOM     34 H    ASP E 179       7.202 -30.670  23.582  1.00 68.60 LIG 0.16  HD
BRANCH 32 35
ATOM     35  CA  VAL E 178       9.294 -29.183  23.484  1.00 59.92 LIG 0.40  C 
ATOM     36  N   VAL E 178       9.834 -30.520  23.709  1.00 55.12 LIG 0.61  N 
BRANCH 35 37
ATOM     37  CB  VAL E 178       9.117 -28.892  21.971  1.00 50.97 LIG 0.03  C 
ATOM     38  CG2 VAL E 178       7.755 -28.277  21.684  1.00 47.22 LIG 0.01  C 
ATOM     39  CG1 VAL E 178       9.303 -30.164  21.171  1.00 50.59 LIG 0.01  C 
ENDBRANCH 35 37
ENDBRANCH 32 35
ENDBRANCH 30 31
BRANCH 30 40
ATOM     40  CB  ASP E 179       6.215 -29.938  26.390  1.00 47.75 LIG 0.15  C 
BRANCH 40 41
ATOM     41  CG  ASP E 179       7.485 -30.668  26.750  1.00 48.80 LIG 0.17  C 
ATOM     42 OD2  ASP E 179       7.745 -31.748  26.167  1.00 55.56 LIG-0.65  OA
ATOM     43 OD1  ASP E 179       8.222 -30.157  27.616  1.00 40.87 LIG-0.65  OA
ENDBRANCH 40 41
ENDBRANCH 30 40
ENDBRANCH 27 30
ENDBRANCH 1 26
TORSDOF 19
ENDMDL
