MODEL 1
USER: ADFR SOLUTION from run 18
USER: SCORE 12.082265 LL:  -1.225 LR: -11.943 RR:   0.000 FEB:  -7.170
USER: RMSD 3.183081
USER: SEED 17
USER: STATUS 1 or 2 clusters left
USER: GENES 18
USER: genes 0 Translation |==|  0.54217 0.42940 0.44011
USER: genes 1 Rotation |==|  0.54838 0.53329 0.57799 0.99038
USER: genes 2 Torsion [N]-C--CA-[N] |==|  0.36640
USER: genes 3 Torsion [C]-CA--CB-[CG] |==|  0.25148
USER: genes 4 Torsion [CA]-CB--CG-[OD1] |==|  0.86619
USER: genes 5 Torsion [C]-CA--N-[C] |==|  0.86100
USER: genes 6 Torsion [N]-C--CA-[N] |==|  0.98475
USER: genes 7 Torsion [C]-CA--N-[C] |==|  0.73227
USER: genes 8 Torsion [N]-C--CA-[N] |==|  0.31299
USER: genes 9 Torsion [C]-CA--CB-[CG1] |==|  0.28159
USER: genes 10 Torsion [C]-N--CA-[CB] |==|  0.16667
USER: genes 11 Torsion [N]-CA--C-[N] |==|  0.48492
USER: genes 12 Torsion [C]-N--CA-[CB] |==|  0.26232
USER: genes 13 Torsion [N]-CA--CB-[CG] |==|  0.75190
USER: genes 14 Torsion [CA]-CB--CG-[OD2] |==|  0.46764
USER: genes 15 Torsion [N]-CA--C-[O] |==|  0.38550
USER: genes 16 Torsion [N]-CA--CB-[CG] |==|  0.21646
USER: genes 17 Torsion [CA]-CB--CG-[OD1] |==|  0.89229
ROOT
ATOM      1  C   ASP D 179      73.021 -26.831  77.935  1.00 41.71 LIG 0.24  C 
ATOM      2 O    ASP D 179      73.092 -27.928  78.487  1.00 47.20 LIG-0.27  OA
ATOM      3  N   ASP D 180      72.951 -25.676  78.596  1.00 48.22 LIG-0.34  N 
ATOM      4 H    ASP D 180      72.979 -24.910  78.204  1.00 48.22 LIG 0.16  HD
ENDROOT
BRANCH 1 5
ATOM      5  CA  ASP D 179      73.019 -26.703  76.411  1.00 44.60 LIG 0.19  C 
BRANCH 5 6
ATOM      6  CB  ASP D 179      71.642 -27.023  75.820  1.00 48.27 LIG 0.15  C 
BRANCH 6 7
ATOM      7  CG  ASP D 179      70.763 -25.782  75.700  1.00 46.68 LIG 0.17  C 
ATOM      8 OD1  ASP D 179      70.662 -25.017  76.685  1.00 58.91 LIG-0.65  OA
ATOM      9 OD2  ASP D 179      70.187 -25.551  74.617  1.00 62.78 LIG-0.65  OA
ENDBRANCH 6 7
ENDBRANCH 5 6
BRANCH 5 10
ATOM     10  N   ASP D 179      74.101 -27.521  75.847  1.00 43.40 LIG-0.34  N 
ATOM     11 H    ASP D 179      73.820 -28.029  75.213  1.00 43.40 LIG 0.16  HD
ATOM     12  C   VAL D 178      75.378 -27.529  76.221  1.00 52.66 LIG 0.24  C 
ATOM     13 O    VAL D 178      75.801 -27.090  77.295  1.00 53.52 LIG-0.27  OA
BRANCH 12 14
ATOM     14  CA  VAL D 178      76.328 -28.147  75.187  1.00 43.72 LIG 0.18  C 
BRANCH 14 15
ATOM     15  N   VAL D 178      75.593 -28.708  74.069  1.00 54.34 LIG-0.35  N 
ATOM     16  C   GLY D 177      75.279 -29.997  73.996  1.00 48.99 LIG 0.25  C 
ATOM     17 O    GLY D 177      74.645 -30.460  73.057  1.00 61.87 LIG-0.27  OA
ATOM     18 H    VAL D 178      75.382 -28.133  73.465  1.00 54.34 LIG 0.16  HD
BRANCH 16 19
ATOM     19  CA  GLY D 177      75.719 -30.898  75.137  1.00 38.66 LIG 0.47  C 
ATOM     20  N   GLY D 177      74.588 -31.400  75.898  1.00 37.02 LIG 0.61  N 
ENDBRANCH 16 19
ENDBRANCH 14 15
BRANCH 14 21
ATOM     21  CB  VAL D 178      77.365 -27.115  74.695  1.00 39.80 LIG 0.01  C 
ATOM     22  CG2 VAL D 178      77.553 -27.217  73.196  1.00 46.96 LIG 0.01  C 
ATOM     23  CG1 VAL D 178      78.701 -27.357  75.399  1.00 37.07 LIG 0.01  C 
ENDBRANCH 14 21
ENDBRANCH 12 14
ENDBRANCH 5 10
ENDBRANCH 1 5
BRANCH 3 24
ATOM     24  CA  ASP D 180      72.822 -25.583  80.048  1.00 47.37 LIG 0.19  C 
BRANCH 24 25
ATOM     25  C   ASP D 180      72.753 -24.110  80.446  1.00 52.09 LIG 0.24  C 
ATOM     26 O    ASP D 180      72.919 -23.227  79.602  1.00 46.90 LIG-0.27  OA
ATOM     27  N   ASP D 181      72.522 -23.839  81.726  1.00 56.67 LIG-0.35  N 
ATOM     28 H    ASP D 181      72.412 -24.434  82.336  1.00 56.67 LIG 0.16  HD
BRANCH 27 29
ATOM     29  CA  ASP D 181      72.439 -22.461  82.193  1.00 54.32 LIG 0.17  C 
BRANCH 29 30
ATOM     30  CB  ASP D 181      70.985 -21.994  82.212  1.00 57.98 LIG 0.15  C 
BRANCH 30 31
ATOM     31  CG  ASP D 181      70.556 -21.378  80.899  1.00 59.80 LIG 0.17  C 
ATOM     32 OD2  ASP D 181      69.340 -21.160  80.712  1.00 65.59 LIG-0.65  OA
ATOM     33 OD1  ASP D 181      71.435 -21.113  80.052  1.00 62.88 LIG-0.65  OA
ENDBRANCH 30 31
ENDBRANCH 29 30
BRANCH 29 34
ATOM     34  C   ASP D 181      73.066 -22.300  83.573  1.00 55.94 LIG 0.22  C 
ATOM     35 O    ASP D 181      73.764 -21.317  83.837  1.00 49.69 LIG-0.29  OA
ENDBRANCH 29 34
ENDBRANCH 27 29
ENDBRANCH 24 25
BRANCH 24 36
ATOM     36  CB  ASP D 180      74.005 -26.246  80.756  1.00 41.39 LIG 0.15  C 
BRANCH 36 37
ATOM     37  CG  ASP D 180      75.252 -25.385  80.754  1.00 35.24 LIG 0.17  C 
ATOM     38 OD1  ASP D 180      75.525 -24.718  79.732  1.00 51.10 LIG-0.65  OA
ATOM     39 OD2  ASP D 180      75.947 -25.356  81.792  1.00 19.64 LIG-0.65  OA
ENDBRANCH 36 37
ENDBRANCH 24 36
ENDBRANCH 3 24
TORSDOF 16
ENDMDL
MODEL 2
USER: ADFR SOLUTION from run 70
USER: SCORE 10.978768 LL:  -1.815 LR: -11.609 RR:   0.000 FEB:  -6.836
USER: RMSD 3.260105
USER: SEED 69
USER: STATUS no improvement in best in 3 clusters for 5 generations
USER: GENES 18
USER: genes 0 Translation |==|  0.48940 0.46166 0.45526
USER: genes 1 Rotation |==|  0.52962 0.52133 0.47903 0.99822
USER: genes 2 Torsion [N]-C--CA-[N] |==|  0.25967
USER: genes 3 Torsion [C]-CA--CB-[CG] |==|  0.39653
USER: genes 4 Torsion [CA]-CB--CG-[OD1] |==|  0.33666
USER: genes 5 Torsion [C]-CA--N-[C] |==|  0.20115
USER: genes 6 Torsion [N]-C--CA-[N] |==|  0.89785
USER: genes 7 Torsion [C]-CA--N-[C] |==|  0.69090
USER: genes 8 Torsion [N]-C--CA-[N] |==|  0.40597
USER: genes 9 Torsion [C]-CA--CB-[CG1] |==|  0.26995
USER: genes 10 Torsion [C]-N--CA-[CB] |==|  0.26310
USER: genes 11 Torsion [N]-CA--C-[N] |==|  0.44988
USER: genes 12 Torsion [C]-N--CA-[CB] |==|  0.27465
USER: genes 13 Torsion [N]-CA--CB-[CG] |==|  0.64010
USER: genes 14 Torsion [CA]-CB--CG-[OD2] |==|  0.90057
USER: genes 15 Torsion [N]-CA--C-[O] |==|  0.57609
USER: genes 16 Torsion [N]-CA--CB-[CG] |==|  0.10008
USER: genes 17 Torsion [CA]-CB--CG-[OD1] |==|  0.82242
ROOT
ATOM      1  C   ASP D 179      71.992 -26.226  78.185  1.00 41.71 LIG 0.24  C 
ATOM      2 O    ASP D 179      71.632 -27.207  78.835  1.00 47.20 LIG-0.27  OA
ATOM      3  N   ASP D 180      72.371 -25.073  78.737  1.00 48.22 LIG-0.34  N 
ATOM      4 H    ASP D 180      72.693 -24.420  78.279  1.00 48.22 LIG 0.16  HD
ENDROOT
BRANCH 1 5
ATOM      5  CA  ASP D 179      72.045 -26.257  76.657  1.00 44.60 LIG 0.19  C 
BRANCH 5 6
ATOM      6  CB  ASP D 179      70.841 -26.999  76.066  1.00 48.27 LIG 0.15  C 
BRANCH 6 7
ATOM      7  CG  ASP D 179      70.341 -26.354  74.777  1.00 46.68 LIG 0.17  C 
ATOM      8 OD1  ASP D 179      70.317 -27.038  73.730  1.00 58.91 LIG-0.65  OA
ATOM      9 OD2  ASP D 179      69.949 -25.169  74.806  1.00 62.78 LIG-0.65  OA
ENDBRANCH 6 7
ENDBRANCH 5 6
BRANCH 5 10
ATOM     10  N   ASP D 179      73.338 -26.801  76.220  1.00 43.40 LIG-0.34  N 
ATOM     11 H    ASP D 179      73.846 -26.190  75.890  1.00 43.40 LIG 0.16  HD
ATOM     12  C   VAL D 178      73.741 -28.066  76.293  1.00 52.66 LIG 0.24  C 
ATOM     13 O    VAL D 178      72.992 -29.037  76.447  1.00 53.52 LIG-0.27  OA
BRANCH 12 14
ATOM     14  CA  VAL D 178      75.259 -28.246  76.167  1.00 43.72 LIG 0.18  C 
BRANCH 14 15
ATOM     15  N   VAL D 178      75.821 -27.307  75.216  1.00 54.34 LIG-0.35  N 
ATOM     16  C   GLY D 177      76.323 -27.690  74.046  1.00 48.99 LIG 0.25  C 
ATOM     17 O    GLY D 177      76.781 -26.890  73.242  1.00 61.87 LIG-0.27  OA
ATOM     18 H    VAL D 178      75.800 -26.488  75.478  1.00 54.34 LIG 0.16  HD
BRANCH 16 19
ATOM     19  CA  GLY D 177      76.297 -29.173  73.717  1.00 38.66 LIG 0.47  C 
ATOM     20  N   GLY D 177      76.099 -29.408  72.297  1.00 37.02 LIG 0.61  N 
ENDBRANCH 16 19
ENDBRANCH 14 15
BRANCH 14 21
ATOM     21  CB  VAL D 178      75.953 -28.114  77.540  1.00 39.80 LIG 0.01  C 
ATOM     22  CG2 VAL D 178      77.271 -27.383  77.406  1.00 46.96 LIG 0.01  C 
ATOM     23  CG1 VAL D 178      76.193 -29.505  78.128  1.00 37.07 LIG 0.01  C 
ENDBRANCH 14 21
ENDBRANCH 12 14
ENDBRANCH 5 10
ENDBRANCH 1 5
BRANCH 3 24
ATOM     24  CA  ASP D 180      72.283 -24.797  80.168  1.00 47.37 LIG 0.19  C 
BRANCH 24 25
ATOM     25  C   ASP D 180      71.928 -23.324  80.367  1.00 52.09 LIG 0.24  C 
ATOM     26 O    ASP D 180      72.098 -22.512  79.455  1.00 46.90 LIG-0.27  OA
ATOM     27  N   ASP D 181      71.449 -22.972  81.555  1.00 56.67 LIG-0.35  N 
ATOM     28 H    ASP D 181      71.329 -23.515  82.211  1.00 56.67 LIG 0.16  HD
BRANCH 27 29
ATOM     29  CA  ASP D 181      71.083 -21.589  81.831  1.00 54.32 LIG 0.17  C 
BRANCH 29 30
ATOM     30  CB  ASP D 181      69.575 -21.399  81.683  1.00 57.98 LIG 0.15  C 
BRANCH 30 31
ATOM     31  CG  ASP D 181      69.223 -20.224  80.797  1.00 59.80 LIG 0.17  C 
ATOM     32 OD2  ASP D 181      69.949 -19.208  80.839  1.00 65.59 LIG-0.65  OA
ATOM     33 OD1  ASP D 181      68.219 -20.315  80.060  1.00 62.88 LIG-0.65  OA
ENDBRANCH 30 31
ENDBRANCH 29 30
BRANCH 29 34
ATOM     34  C   ASP D 181      71.536 -21.157  83.221  1.00 55.94 LIG 0.22  C 
ATOM     35 O    ASP D 181      70.933 -20.273  83.834  1.00 49.69 LIG-0.29  OA
ENDBRANCH 29 34
ENDBRANCH 27 29
ENDBRANCH 24 25
BRANCH 24 36
ATOM     36  CB  ASP D 180      73.604 -25.101  80.877  1.00 41.39 LIG 0.15  C 
BRANCH 36 37
ATOM     37  CG  ASP D 180      74.817 -24.766  80.033  1.00 35.24 LIG 0.17  C 
ATOM     38 OD1  ASP D 180      75.004 -25.391  78.967  1.00 51.10 LIG-0.65  OA
ATOM     39 OD2  ASP D 180      75.573 -23.852  80.428  1.00 19.64 LIG-0.65  OA
ENDBRANCH 36 37
ENDBRANCH 24 36
ENDBRANCH 3 24
TORSDOF 16
ENDMDL
MODEL 3
USER: ADFR SOLUTION from run 192
USER: SCORE 11.611894 LL:  -2.621 LR: -10.885 RR:   0.000 FEB:  -6.113
USER: RMSD 2.876411
USER: SEED 191
USER: STATUS no improvement in best in 3 clusters for 5 generations
USER: GENES 18
USER: genes 0 Translation |==|  0.46933 0.50440 0.50660
USER: genes 1 Rotation |==|  0.47511 0.48127 0.31143 0.96203
USER: genes 2 Torsion [N]-C--CA-[N] |==|  0.20861
USER: genes 3 Torsion [C]-CA--CB-[CG] |==|  0.47367
USER: genes 4 Torsion [CA]-CB--CG-[OD1] |==|  0.75733
USER: genes 5 Torsion [C]-CA--N-[C] |==|  0.60556
USER: genes 6 Torsion [N]-C--CA-[N] |==|  0.31100
USER: genes 7 Torsion [C]-CA--N-[C] |==|  0.74567
USER: genes 8 Torsion [N]-C--CA-[N] |==|  0.35343
USER: genes 9 Torsion [C]-CA--CB-[CG1] |==|  0.81292
USER: genes 10 Torsion [C]-N--CA-[CB] |==|  0.43770
USER: genes 11 Torsion [N]-CA--C-[N] |==|  0.41256
USER: genes 12 Torsion [C]-N--CA-[CB] |==|  0.18279
USER: genes 13 Torsion [N]-CA--CB-[CG] |==|  0.59689
USER: genes 14 Torsion [CA]-CB--CG-[OD2] |==|  0.49566
USER: genes 15 Torsion [N]-CA--C-[O] |==|  0.29812
USER: genes 16 Torsion [N]-CA--CB-[CG] |==|  0.89901
USER: genes 17 Torsion [CA]-CB--CG-[OD1] |==|  0.71086
ROOT
ATOM      1  C   ASP D 179      71.601 -25.424  79.032  1.00 41.71 LIG 0.24  C 
ATOM      2 O    ASP D 179      70.686 -25.761  79.783  1.00 47.20 LIG-0.27  OA
ATOM      3  N   ASP D 180      72.622 -24.657  79.411  1.00 48.22 LIG-0.34  N 
ATOM      4 H    ASP D 180      73.295 -24.489  78.902  1.00 48.22 LIG 0.16  HD
ENDROOT
BRANCH 1 5
ATOM      5  CA  ASP D 179      71.645 -25.881  77.573  1.00 44.60 LIG 0.19  C 
BRANCH 5 6
ATOM      6  CB  ASP D 179      70.255 -26.281  77.065  1.00 48.27 LIG 0.15  C 
BRANCH 6 7
ATOM      7  CG  ASP D 179      70.237 -26.516  75.558  1.00 46.68 LIG 0.17  C 
ATOM      8 OD1  ASP D 179      70.035 -25.543  74.798  1.00 58.91 LIG-0.65  OA
ATOM      9 OD2  ASP D 179      70.446 -27.668  75.123  1.00 62.78 LIG-0.65  OA
ENDBRANCH 6 7
ENDBRANCH 5 6
BRANCH 5 10
ATOM     10  N   ASP D 179      72.650 -26.942  77.420  1.00 43.40 LIG-0.34  N 
ATOM     11 H    ASP D 179      72.659 -27.473  78.096  1.00 43.40 LIG 0.16  HD
ATOM     12  C   VAL D 178      73.476 -27.120  76.392  1.00 52.66 LIG 0.24  C 
ATOM     13 O    VAL D 178      73.753 -26.257  75.553  1.00 53.52 LIG-0.27  OA
BRANCH 12 14
ATOM     14  CA  VAL D 178      74.089 -28.525  76.321  1.00 43.72 LIG 0.18  C 
BRANCH 14 15
ATOM     15  N   VAL D 178      73.590 -29.256  75.172  1.00 54.34 LIG-0.35  N 
ATOM     16  C   GLY D 177      72.519 -30.040  75.234  1.00 48.99 LIG 0.25  C 
ATOM     17 O    GLY D 177      72.095 -30.642  74.257  1.00 61.87 LIG-0.27  OA
ATOM     18 H    VAL D 178      74.050 -29.136  74.455  1.00 54.34 LIG 0.16  HD
BRANCH 16 19
ATOM     19  CA  GLY D 177      71.808 -30.160  76.571  1.00 38.66 LIG 0.47  C 
ATOM     20  N   GLY D 177      70.387 -29.879  76.456  1.00 37.02 LIG 0.61  N 
ENDBRANCH 16 19
ENDBRANCH 14 15
BRANCH 14 21
ATOM     21  CB  VAL D 178      75.631 -28.460  76.299  1.00 39.80 LIG 0.01  C 
ATOM     22  CG2 VAL D 178      76.150 -27.653  77.469  1.00 46.96 LIG 0.01  C 
ATOM     23  CG1 VAL D 178      76.099 -27.826  74.988  1.00 37.07 LIG 0.01  C 
ENDBRANCH 14 21
ENDBRANCH 12 14
ENDBRANCH 5 10
ENDBRANCH 1 5
BRANCH 3 24
ATOM     24  CA  ASP D 180      72.710 -24.021  80.723  1.00 47.37 LIG 0.19  C 
BRANCH 24 25
ATOM     25  C   ASP D 180      71.880 -22.738  80.709  1.00 52.09 LIG 0.24  C 
ATOM     26 O    ASP D 180      71.770 -22.078  79.673  1.00 46.90 LIG-0.27  OA
ATOM     27  N   ASP D 181      71.309 -22.374  81.851  1.00 56.67 LIG-0.35  N 
ATOM     28 H    ASP D 181      71.377 -22.810  82.589  1.00 56.67 LIG 0.16  HD
BRANCH 27 29
ATOM     29  CA  ASP D 181      70.499 -21.165  81.927  1.00 54.32 LIG 0.17  C 
BRANCH 29 30
ATOM     30  CB  ASP D 181      69.240 -21.315  81.074  1.00 57.98 LIG 0.15  C 
BRANCH 30 31
ATOM     31  CG  ASP D 181      68.824 -20.015  80.423  1.00 59.80 LIG 0.17  C 
ATOM     32 OD2  ASP D 181      67.823 -20.016  79.675  1.00 65.59 LIG-0.65  OA
ATOM     33 OD1  ASP D 181      69.498 -18.990  80.657  1.00 62.88 LIG-0.65  OA
ENDBRANCH 30 31
ENDBRANCH 29 30
BRANCH 29 34
ATOM     34  C   ASP D 181      70.125 -20.832  83.367  1.00 55.94 LIG 0.22  C 
ATOM     35 O    ASP D 181      70.653 -19.882  83.951  1.00 49.69 LIG-0.29  OA
ENDBRANCH 29 34
ENDBRANCH 27 29
ENDBRANCH 24 25
BRANCH 24 36
ATOM     36  CB  ASP D 180      74.158 -23.685  81.084  1.00 41.39 LIG 0.15  C 
BRANCH 36 37
ATOM     37  CG  ASP D 180      75.144 -24.728  80.597  1.00 35.24 LIG 0.17  C 
ATOM     38 OD1  ASP D 180      75.632 -25.531  81.421  1.00 51.10 LIG-0.65  OA
ATOM     39 OD2  ASP D 180      75.410 -24.759  79.376  1.00 19.64 LIG-0.65  OA
ENDBRANCH 36 37
ENDBRANCH 24 36
ENDBRANCH 3 24
TORSDOF 16
ENDMDL
MODEL 4
USER: ADFR SOLUTION from run 99
USER: SCORE 11.557576 LL:  -2.959 LR: -10.218 RR:   0.000 FEB:  -5.446
USER: RMSD 3.144664
USER: SEED 98
USER: STATUS no improvement in best in 3 clusters for 5 generations
USER: GENES 18
USER: genes 0 Translation |==|  0.53399 0.46441 0.51136
USER: genes 1 Rotation |==|  0.44808 0.58459 0.59761 0.98023
USER: genes 2 Torsion [N]-C--CA-[N] |==|  0.32235
USER: genes 3 Torsion [C]-CA--CB-[CG] |==|  0.69138
USER: genes 4 Torsion [CA]-CB--CG-[OD1] |==|  0.67161
USER: genes 5 Torsion [C]-CA--N-[C] |==|  0.61416
USER: genes 6 Torsion [N]-C--CA-[N] |==|  0.32814
USER: genes 7 Torsion [C]-CA--N-[C] |==|  0.69700
USER: genes 8 Torsion [N]-C--CA-[N] |==|  0.34618
USER: genes 9 Torsion [C]-CA--CB-[CG1] |==|  0.41640
USER: genes 10 Torsion [C]-N--CA-[CB] |==|  0.26660
USER: genes 11 Torsion [N]-CA--C-[N] |==|  0.33620
USER: genes 12 Torsion [C]-N--CA-[CB] |==|  0.83978
USER: genes 13 Torsion [N]-CA--CB-[CG] |==|  0.42644
USER: genes 14 Torsion [CA]-CB--CG-[OD2] |==|  0.13402
USER: genes 15 Torsion [N]-CA--C-[O] |==|  0.04832
USER: genes 16 Torsion [N]-CA--CB-[CG] |==|  0.87019
USER: genes 17 Torsion [CA]-CB--CG-[OD1] |==|  0.21637
ROOT
ATOM      1  C   ASP D 179      72.862 -26.174  79.110  1.00 41.71 LIG 0.24  C 
ATOM      2 O    ASP D 179      73.157 -26.932  80.034  1.00 47.20 LIG-0.27  OA
ATOM      3  N   ASP D 180      72.683 -24.862  79.261  1.00 48.22 LIG-0.34  N 
ATOM      4 H    ASP D 180      72.551 -24.330  78.599  1.00 48.22 LIG 0.16  HD
ENDROOT
BRANCH 1 5
ATOM      5  CA  ASP D 179      72.683 -26.690  77.682  1.00 44.60 LIG 0.19  C 
BRANCH 5 6
ATOM      6  CB  ASP D 179      71.521 -27.684  77.582  1.00 48.27 LIG 0.15  C 
BRANCH 6 7
ATOM      7  CG  ASP D 179      72.000 -29.105  77.301  1.00 46.68 LIG 0.17  C 
ATOM      8 OD1  ASP D 179      71.637 -29.666  76.243  1.00 58.91 LIG-0.65  OA
ATOM      9 OD2  ASP D 179      72.758 -29.661  78.122  1.00 62.78 LIG-0.65  OA
ENDBRANCH 6 7
ENDBRANCH 5 6
BRANCH 5 10
ATOM     10  N   ASP D 179      73.957 -27.230  77.191  1.00 43.40 LIG-0.34  N 
ATOM     11 H    ASP D 179      74.366 -27.684  77.796  1.00 43.40 LIG 0.16  HD
ATOM     12  C   VAL D 178      74.478 -27.077  75.976  1.00 52.66 LIG 0.24  C 
ATOM     13 O    VAL D 178      74.137 -26.208  75.167  1.00 53.52 LIG-0.27  OA
BRANCH 12 14
ATOM     14  CA  VAL D 178      75.576 -28.092  75.635  1.00 43.72 LIG 0.18  C 
BRANCH 14 15
ATOM     15  N   VAL D 178      75.200 -28.911  74.499  1.00 54.34 LIG-0.35  N 
ATOM     16  C   GLY D 177      74.886 -30.197  74.617  1.00 48.99 LIG 0.25  C 
ATOM     17 O    GLY D 177      74.554 -30.877  73.657  1.00 61.87 LIG-0.27  OA
ATOM     18 H    VAL D 178      75.199 -28.490  73.749  1.00 54.34 LIG 0.16  HD
BRANCH 16 19
ATOM     19  CA  GLY D 177      74.934 -30.811  76.006  1.00 38.66 LIG 0.47  C 
ATOM     20  N   GLY D 177      73.670 -31.430  76.368  1.00 37.02 LIG 0.61  N 
ENDBRANCH 16 19
ENDBRANCH 14 15
BRANCH 14 21
ATOM     21  CB  VAL D 178      76.926 -27.389  75.377  1.00 39.80 LIG 0.01  C 
ATOM     22  CG2 VAL D 178      77.062 -27.009  73.918  1.00 46.96 LIG 0.01  C 
ATOM     23  CG1 VAL D 178      78.073 -28.319  75.776  1.00 37.07 LIG 0.01  C 
ENDBRANCH 14 21
ENDBRANCH 12 14
ENDBRANCH 5 10
ENDBRANCH 1 5
BRANCH 3 24
ATOM     24  CA  ASP D 180      72.692 -24.190  80.558  1.00 47.37 LIG 0.19  C 
BRANCH 24 25
ATOM     25  C   ASP D 180      71.651 -23.072  80.543  1.00 52.09 LIG 0.24  C 
ATOM     26 O    ASP D 180      71.732 -22.155  79.722  1.00 46.90 LIG-0.27  OA
ATOM     27  N   ASP D 181      70.684 -23.133  81.452  1.00 56.67 LIG-0.35  N 
ATOM     28 H    ASP D 181      70.609 -23.755  82.041  1.00 56.67 LIG 0.16  HD
BRANCH 27 29
ATOM     29  CA  ASP D 181      69.650 -22.108  81.509  1.00 54.32 LIG 0.17  C 
BRANCH 29 30
ATOM     30  CB  ASP D 181      70.277 -20.730  81.705  1.00 57.98 LIG 0.15  C 
BRANCH 30 31
ATOM     31  CG  ASP D 181      69.414 -19.616  81.154  1.00 59.80 LIG 0.17  C 
ATOM     32 OD2  ASP D 181      68.200 -19.601  81.451  1.00 65.59 LIG-0.65  OA
ATOM     33 OD1  ASP D 181      69.949 -18.756  80.423  1.00 62.88 LIG-0.65  OA
ENDBRANCH 30 31
ENDBRANCH 29 30
BRANCH 29 34
ATOM     34  C   ASP D 181      68.780 -22.121  80.257  1.00 55.94 LIG 0.22  C 
ATOM     35 O    ASP D 181      68.770 -23.101  79.507  1.00 49.69 LIG-0.29  OA
ENDBRANCH 29 34
ENDBRANCH 27 29
ENDBRANCH 24 25
BRANCH 24 36
ATOM     36  CB  ASP D 180      74.068 -23.600  80.870  1.00 41.39 LIG 0.15  C 
BRANCH 36 37
ATOM     37  CG  ASP D 180      75.200 -24.571  80.604  1.00 35.24 LIG 0.17  C 
ATOM     38 OD1  ASP D 180      75.574 -24.757  79.425  1.00 51.10 LIG-0.65  OA
ATOM     39 OD2  ASP D 180      75.735 -25.132  81.585  1.00 19.64 LIG-0.65  OA
ENDBRANCH 36 37
ENDBRANCH 24 36
ENDBRANCH 3 24
TORSDOF 16
ENDMDL
MODEL 5
USER: ADFR SOLUTION from run 5
USER: SCORE 10.366412 LL:  -2.147 LR: -10.133 RR:   0.000 FEB:  -5.360
USER: RMSD 2.505270
USER: SEED 401539
USER: STATUS no improvement in best in 4 clusters for 5 generations
USER: GENES 18
USER: genes 0 Translation |==|  0.51549 0.43589 0.43673
USER: genes 1 Rotation |==|  0.55897 0.53280 0.49675 0.99542
USER: genes 2 Torsion [N]-C--CA-[N] |==|  0.24255
USER: genes 3 Torsion [C]-CA--CB-[CG] |==|  0.37066
USER: genes 4 Torsion [CA]-CB--CG-[OD1] |==|  0.89502
USER: genes 5 Torsion [C]-CA--N-[C] |==|  0.15904
USER: genes 6 Torsion [N]-C--CA-[N] |==|  0.44331
USER: genes 7 Torsion [C]-CA--N-[C] |==|  0.80851
USER: genes 8 Torsion [N]-C--CA-[N] |==|  0.41237
USER: genes 9 Torsion [C]-CA--CB-[CG1] |==|  0.44776
USER: genes 10 Torsion [C]-N--CA-[CB] |==|  0.20556
USER: genes 11 Torsion [N]-CA--C-[N] |==|  0.45368
USER: genes 12 Torsion [C]-N--CA-[CB] |==|  0.28654
USER: genes 13 Torsion [N]-CA--CB-[CG] |==|  0.76295
USER: genes 14 Torsion [CA]-CB--CG-[OD2] |==|  0.59278
USER: genes 15 Torsion [N]-CA--C-[O] |==|  0.56718
USER: genes 16 Torsion [N]-CA--CB-[CG] |==|  0.23227
USER: genes 17 Torsion [CA]-CB--CG-[OD1] |==|  0.88364
ROOT
ATOM      1  C   ASP D 179      72.501 -26.709  77.879  1.00 41.71 LIG 0.24  C 
ATOM      2 O    ASP D 179      72.233 -27.784  78.415  1.00 47.20 LIG-0.27  OA
ATOM      3  N   ASP D 180      72.826 -25.608  78.556  1.00 48.22 LIG-0.34  N 
ATOM      4 H    ASP D 180      73.085 -24.883  78.173  1.00 48.22 LIG 0.16  HD
ENDROOT
BRANCH 1 5
ATOM      5  CA  ASP D 179      72.492 -26.551  76.358  1.00 44.60 LIG 0.19  C 
BRANCH 5 6
ATOM      6  CB  ASP D 179      71.410 -27.419  75.707  1.00 48.27 LIG 0.15  C 
BRANCH 6 7
ATOM      7  CG  ASP D 179      70.599 -26.649  74.670  1.00 46.68 LIG 0.17  C 
ATOM      8 OD1  ASP D 179      70.315 -25.450  74.895  1.00 58.91 LIG-0.65  OA
ATOM      9 OD2  ASP D 179      70.258 -27.226  73.617  1.00 62.78 LIG-0.65  OA
ENDBRANCH 6 7
ENDBRANCH 5 6
BRANCH 5 10
ATOM     10  N   ASP D 179      73.840 -26.804  75.830  1.00 43.40 LIG-0.34  N 
ATOM     11 H    ASP D 179      74.137 -26.133  75.381  1.00 43.40 LIG 0.16  HD
ATOM     12  C   VAL D 178      74.568 -27.906  75.986  1.00 52.66 LIG 0.24  C 
ATOM     13 O    VAL D 178      74.119 -29.005  76.327  1.00 53.52 LIG-0.27  OA
BRANCH 12 14
ATOM     14  CA  VAL D 178      76.063 -27.713  75.700  1.00 43.72 LIG 0.18  C 
BRANCH 14 15
ATOM     15  N   VAL D 178      76.855 -28.756  76.322  1.00 54.34 LIG-0.35  N 
ATOM     16  C   GLY D 177      77.000 -28.853  77.639  1.00 48.99 LIG 0.25  C 
ATOM     17 O    GLY D 177      77.658 -29.745  78.158  1.00 61.87 LIG-0.27  OA
ATOM     18 H    VAL D 178      77.219 -29.299  75.763  1.00 54.34 LIG 0.16  HD
BRANCH 16 19
ATOM     19  CA  GLY D 177      76.301 -27.819  78.505  1.00 38.66 LIG 0.47  C 
ATOM     20  N   GLY D 177      75.900 -28.370  79.789  1.00 37.02 LIG 0.61  N 
ENDBRANCH 16 19
ENDBRANCH 14 15
BRANCH 14 21
ATOM     21  CB  VAL D 178      76.337 -27.652  74.182  1.00 39.80 LIG 0.01  C 
ATOM     22  CG2 VAL D 178      76.311 -29.039  73.576  1.00 46.96 LIG 0.01  C 
ATOM     23  CG1 VAL D 178      77.702 -27.007  73.933  1.00 37.07 LIG 0.01  C 
ENDBRANCH 14 21
ENDBRANCH 12 14
ENDBRANCH 5 10
ENDBRANCH 1 5
BRANCH 3 24
ATOM     24  CA  ASP D 180      72.779 -25.513  80.014  1.00 47.37 LIG 0.19  C 
BRANCH 24 25
ATOM     25  C   ASP D 180      72.852 -24.042  80.417  1.00 52.09 LIG 0.24  C 
ATOM     26 O    ASP D 180      73.250 -23.194  79.614  1.00 46.90 LIG-0.27  OA
ATOM     27  N   ASP D 181      72.486 -23.735  81.656  1.00 56.67 LIG-0.35  N 
ATOM     28 H    ASP D 181      72.214 -24.307  82.238  1.00 56.67 LIG 0.16  HD
BRANCH 27 29
ATOM     29  CA  ASP D 181      72.523 -22.356  82.124  1.00 54.32 LIG 0.17  C 
BRANCH 29 30
ATOM     30  CB  ASP D 181      71.115 -21.766  82.153  1.00 57.98 LIG 0.15  C 
BRANCH 30 31
ATOM     31  CG  ASP D 181      70.696 -21.200  80.814  1.00 59.80 LIG 0.17  C 
ATOM     32 OD2  ASP D 181      69.949 -20.198  80.798  1.00 65.59 LIG-0.65  OA
ATOM     33 OD1  ASP D 181      71.112 -21.757  79.777  1.00 62.88 LIG-0.65  OA
ENDBRANCH 30 31
ENDBRANCH 29 30
BRANCH 29 34
ATOM     34  C   ASP D 181      73.169 -22.250  83.501  1.00 55.94 LIG 0.22  C 
ATOM     35 O    ASP D 181      72.912 -21.300  84.246  1.00 49.69 LIG-0.29  OA
ENDBRANCH 29 34
ENDBRANCH 27 29
ENDBRANCH 24 25
BRANCH 24 36
ATOM     36  CB  ASP D 180      73.938 -26.276  80.659  1.00 41.39 LIG 0.15  C 
BRANCH 36 37
ATOM     37  CG  ASP D 180      75.217 -25.466  80.718  1.00 35.24 LIG 0.17  C 
ATOM     38 OD1  ASP D 180      75.543 -24.777  79.727  1.00 51.10 LIG-0.65  OA
ATOM     39 OD2  ASP D 180      75.885 -25.501  81.773  1.00 19.64 LIG-0.65  OA
ENDBRANCH 36 37
ENDBRANCH 24 36
ENDBRANCH 3 24
TORSDOF 16
ENDMDL
