MODEL 1
USER: ADFR SOLUTION from run 147
USER: SCORE 24.576887 LL:  -4.884 LR: -20.664 RR:   0.000 FEB: -12.908
USER: RMSD 4.915113
USER: SEED 146
USER: STATUS searching
USER: GENES 28
USER: genes 0 Translation |==|  0.44690 0.51558 0.39371
USER: genes 1 Rotation |==|  0.58689 0.49765 0.50422 0.99237
USER: genes 2 Torsion [C]-CA--N-[C] |==|  0.76534
USER: genes 3 Torsion [N]-C--CA-[N] |==|  0.92259
USER: genes 4 Torsion [C]-CA--CB-[CG] |==|  0.30906
USER: genes 5 Torsion [CA]-CB--CG-[CD] |==|  0.17515
USER: genes 6 Torsion [CB]-CG--CD-[NE] |==|  0.66147
USER: genes 7 Torsion [CG]-CD--NE-[HE] |==|  0.86684
USER: genes 8 Torsion [C]-CA--N-[C] |==|  0.74108
USER: genes 9 Torsion [N]-C--CA-[N] |==|  0.56549
USER: genes 10 Torsion [C]-CA--N-[H3] |==|  0.09948
USER: genes 11 Torsion [C]-CA--CB-[CG] |==|  0.48254
USER: genes 12 Torsion [CA]-CB--CG-[ND2] |==|  0.30751
USER: genes 13 Torsion [N]-CA--CB-[CG] |==|  0.71863
USER: genes 14 Torsion [CA]-CB--CG-[CD1] |==|  0.05080
USER: genes 15 Torsion [N]-CA--C-[N] |==|  0.29851
USER: genes 16 Torsion [C]-N--CA-[CB] |==|  0.51299
USER: genes 17 Torsion [N]-CA--C-[N] |==|  0.40687
USER: genes 18 Torsion [C]-N--CA-[C] |==|  0.80698
USER: genes 19 Torsion [N]-CA--C-[N] |==|  0.46111
USER: genes 20 Torsion [C]-N--CA-[C] |==|  0.55296
USER: genes 21 Torsion [N]-CA--CB-[CG2] |==|  0.47125
USER: genes 22 Torsion [CA]-CB--OG1-[HG1] |==|  0.08014
USER: genes 23 Torsion [N]-CA--C-[O] |==|  0.36489
USER: genes 24 Torsion [N]-CA--CB-[CG] |==|  0.27518
USER: genes 25 Torsion [CA]-CB--CG-[CD2] |==|  0.70279
USER: genes 26 Torsion [N]-CA--CB-[CG] |==|  0.58924
USER: genes 27 Torsion [CA]-CB--CG-[CD1] |==|  0.95054
ROOT
ATOM      1  CA  LEU B   3     -19.416 -22.485 -30.549  1.00 17.18 LIG 0.18  C 
ENDROOT
BRANCH 1 2
ATOM      2  N   LEU B   3     -20.432 -23.203 -29.875  1.00 21.09 LIG-0.35  N 
ATOM      3  C   ARG B   2     -20.281 -24.487 -29.560  1.00 20.79 LIG 0.24  C 
ATOM      4 O    ARG B   2     -19.225 -25.123 -29.755  1.00 18.81 LIG-0.27  OA
ATOM      5 H    LEU B   3     -21.135 -22.742 -29.693  1.00 21.09 LIG 0.16  HD
BRANCH 3 6
ATOM      6  CA  ARG B   2     -21.523 -25.174 -29.007  1.00 21.42 LIG 0.18  C 
BRANCH 6 7
ATOM      7  CB  ARG B   2     -22.315 -25.930 -30.080  1.00 36.36 LIG 0.04  C 
BRANCH 7 8
ATOM      8  CG  ARG B   2     -22.245 -27.432 -29.885  1.00 41.67 LIG 0.02  C 
BRANCH 8 9
ATOM      9  CD  ARG B   2     -22.872 -27.902 -28.572  1.00 51.14 LIG 0.14  C 
BRANCH 9 10
ATOM     10  NE  ARG B   2     -21.906 -28.638 -27.736  1.00 53.41 LIG-0.23  N 
ATOM     11 HE   ARG B   2     -21.443 -29.254 -28.118  1.00 53.41 LIG 0.18  HD
ATOM     12  CZ  ARG B   2     -21.690 -28.428 -26.432  1.00 50.83 LIG 0.67  C 
ATOM     13  NH1 ARG B   2     -22.370 -27.497 -25.775  1.00 40.00 LIG-0.23  N 
ATOM     14  NH2 ARG B   2     -20.791 -29.167 -25.779  1.00 54.23 LIG-0.23  N 
ATOM     15 1HH1 ARG B   2     -22.956 -27.021 -26.188  1.00 40.00 LIG 0.17  HD
ATOM     16 2HH1 ARG B   2     -22.224 -27.368 -24.937  1.00 40.00 LIG 0.17  HD
ATOM     17 1HH2 ARG B   2     -20.351 -29.778 -26.196  1.00 54.23 LIG 0.17  HD
ATOM     18 2HH2 ARG B   2     -20.651 -29.033 -24.942  1.00 54.23 LIG 0.17  HD
ENDBRANCH 9 10
ENDBRANCH 8 9
ENDBRANCH 7 8
ENDBRANCH 6 7
BRANCH 6 19
ATOM     19  N   ARG B   2     -22.335 -24.168 -28.358  1.00 29.89 LIG-0.35  N 
ATOM     20  C   ASN B   1     -22.211 -23.939 -27.058  1.00 39.87 LIG 0.25  C 
ATOM     21 O    ASN B   1     -21.674 -24.746 -26.286  1.00 37.46 LIG-0.27  OA
ATOM     22 H    ARG B   2     -22.882 -23.753 -28.876  1.00 29.89 LIG 0.16  HD
BRANCH 20 23
ATOM     23  CA  ASN B   1     -22.790 -22.604 -26.556  1.00 47.73 LIG 0.28  C 
BRANCH 23 24
ATOM     24  N   ASN B   1     -22.210 -22.124 -25.326  1.00 51.86 LIG-0.07  N 
ATOM     25 H3   ASN B   1     -21.343 -22.327 -25.308  1.00 51.86 LIG 0.28  HD
ATOM     26 H1   ASN B   1     -22.309 -21.241 -25.276  1.00 51.86 LIG 0.28  HD
ATOM     27 H2   ASN B   1     -22.619 -22.508 -24.636  1.00 51.86 LIG 0.28  HD
ENDBRANCH 23 24
BRANCH 23 28
ATOM     28  CB  ASN B   1     -22.675 -21.496 -27.583  1.00 49.79 LIG 0.14  C 
BRANCH 28 29
ATOM     29  CG  ASN B   1     -23.386 -20.245 -27.122  1.00 59.47 LIG 0.22  C 
ATOM     30  ND2 ASN B   1     -22.619 -19.196 -26.807  1.00 63.81 LIG-0.37  N 
ATOM     31 21HD ASN B   1     -22.979 -18.471 -26.519  1.00 63.81 LIG 0.16  HD
ATOM     32 22HD ASN B   1     -21.765 -19.247 -26.895  1.00 63.81 LIG 0.16  HD
ATOM     33 OD1  ASN B   1     -24.610 -20.227 -27.017  1.00 60.25 LIG-0.27  OA
ENDBRANCH 28 29
ENDBRANCH 23 28
ENDBRANCH 20 23
ENDBRANCH 6 19
ENDBRANCH 3 6
ENDBRANCH 1 2
BRANCH 1 34
ATOM     34  CB  LEU B   3     -20.050 -21.360 -31.414  1.00 28.79 LIG 0.04  C 
BRANCH 34 35
ATOM     35  CG  LEU B   3     -20.117 -21.761 -32.892  1.00 33.15 LIG-0.02  C 
ATOM     36  CD2 LEU B   3     -21.419 -21.247 -33.492  1.00 30.13 LIG 0.01  C 
ATOM     37  CD1 LEU B   3     -19.981 -23.292 -33.144  1.00 27.67 LIG 0.01  C 
ENDBRANCH 34 35
ENDBRANCH 1 34
BRANCH 1 38
ATOM     38  C   LEU B   3     -18.375 -21.942 -29.596  1.00 20.33 LIG 0.24  C 
ATOM     39  N   LEU B   4     -17.194 -22.551 -29.620  1.00 23.83 LIG-0.35  N 
ATOM     40 H    LEU B   4     -17.001 -23.214 -30.132  1.00 23.83 LIG 0.16  HD
ATOM     41 O    LEU B   3     -18.613 -20.991 -28.857  1.00 22.70 LIG-0.27  OA
BRANCH 39 42
ATOM     42  CA  LEU B   4     -16.109 -22.118 -28.746  1.00 22.91 LIG 0.18  C 
BRANCH 42 43
ATOM     43  C   LEU B   4     -15.808 -20.646 -29.042  1.00 30.74 LIG 0.24  C 
ATOM     44 O    LEU B   4     -15.899 -20.182 -30.214  1.00 30.11 LIG-0.27  OA
ATOM     45  N   LEU B   5     -15.417 -19.893 -28.022  1.00 32.41 LIG-0.35  N 
ATOM     46 H    LEU B   5     -15.400 -20.136 -27.197  1.00 32.41 LIG 0.16  HD
BRANCH 45 47
ATOM     47  CA  LEU B   5     -14.971 -18.522 -28.300  1.00 35.50 LIG 0.18  C 
BRANCH 47 48
ATOM     48  C   LEU B   5     -13.641 -18.533 -29.044  1.00 33.38 LIG 0.24  C 
ATOM     49 O    LEU B   5     -12.945 -19.570 -29.111  1.00 25.58 LIG-0.27  OA
ATOM     50  N   THR B   6     -13.304 -17.369 -29.591  1.00 32.99 LIG-0.34  N 
ATOM     51 H    THR B   6     -13.853 -16.710 -29.658  1.00 32.99 LIG 0.16  HD
BRANCH 50 52
ATOM     52  CA  THR B   6     -11.985 -17.077 -30.135  1.00 39.09 LIG 0.19  C 
BRANCH 52 53
ATOM     53  CB  THR B   6     -11.831 -17.685 -31.556  1.00 66.99 LIG 0.14  C 
ATOM     54  CG2 THR B   6     -10.570 -17.177 -32.229  1.00 64.52 LIG 0.04  C 
BRANCH 53 55
ATOM     55 OG1  THR B   6     -11.759 -19.121 -31.469  1.00 68.32 LIG-0.39  OA
ATOM     56 HG1  THR B   6     -12.186 -19.383 -30.794  1.00 68.32 LIG 0.21  HD
ENDBRANCH 53 55
ENDBRANCH 52 53
BRANCH 52 57
ATOM     57  C   THR B   6     -11.817 -15.554 -30.231  1.00 46.48 LIG 0.22  C 
ATOM     58 O    THR B   6     -10.798 -14.999 -29.793  1.00 50.47 LIG-0.29  OA
ENDBRANCH 52 57
ENDBRANCH 50 52
ENDBRANCH 47 48
BRANCH 47 59
ATOM     59  CB  LEU B   5     -14.795 -17.729 -27.011  1.00 41.25 LIG 0.04  C 
BRANCH 59 60
ATOM     60  CG  LEU B   5     -13.390 -17.584 -26.449  1.00 47.99 LIG-0.02  C 
ATOM     61  CD2 LEU B   5     -13.227 -18.441 -25.223  1.00 50.88 LIG 0.01  C 
ATOM     62  CD1 LEU B   5     -13.172 -16.127 -26.098  1.00 54.72 LIG 0.01  C 
ENDBRANCH 59 60
ENDBRANCH 47 59
ENDBRANCH 45 47
ENDBRANCH 42 43
BRANCH 42 63
ATOM     63  CB  LEU B   4     -14.882 -22.932 -29.102  1.00 23.96 LIG 0.04  C 
BRANCH 63 64
ATOM     64  CG  LEU B   4     -13.827 -23.328 -28.092  1.00 38.52 LIG-0.02  C 
ATOM     65  CD1 LEU B   4     -13.906 -22.497 -26.864  1.00 46.71 LIG 0.01  C 
ATOM     66  CD2 LEU B   4     -13.974 -24.827 -27.789  1.00 36.33 LIG 0.01  C 
ENDBRANCH 63 64
ENDBRANCH 42 63
ENDBRANCH 39 42
ENDBRANCH 1 38
TORSDOF 26
ENDMDL
MODEL 2
USER: ADFR SOLUTION from run 105
USER: SCORE 25.159061 LL:  -5.197 LR: -20.575 RR:   0.000 FEB: -12.820
USER: RMSD 3.428188
USER: SEED 104
USER: STATUS 1 or 2 clusters left
USER: GENES 28
USER: genes 0 Translation |==|  0.44171 0.50740 0.38667
USER: genes 1 Rotation |==|  0.60261 0.49181 0.54412 0.98730
USER: genes 2 Torsion [C]-CA--N-[C] |==|  0.81029
USER: genes 3 Torsion [N]-C--CA-[N] |==|  0.39724
USER: genes 4 Torsion [C]-CA--CB-[CG] |==|  0.07916
USER: genes 5 Torsion [CA]-CB--CG-[CD] |==|  0.20649
USER: genes 6 Torsion [CB]-CG--CD-[NE] |==|  0.47349
USER: genes 7 Torsion [CG]-CD--NE-[HE] |==|  0.88078
USER: genes 8 Torsion [C]-CA--N-[C] |==|  0.76111
USER: genes 9 Torsion [N]-C--CA-[N] |==|  0.18147
USER: genes 10 Torsion [C]-CA--N-[H3] |==|  0.23658
USER: genes 11 Torsion [C]-CA--CB-[CG] |==|  0.42929
USER: genes 12 Torsion [CA]-CB--CG-[ND2] |==|  0.50740
USER: genes 13 Torsion [N]-CA--CB-[CG] |==|  0.79671
USER: genes 14 Torsion [CA]-CB--CG-[CD1] |==|  0.59517
USER: genes 15 Torsion [N]-CA--C-[N] |==|  0.33072
USER: genes 16 Torsion [C]-N--CA-[CB] |==|  0.51678
USER: genes 17 Torsion [N]-CA--C-[N] |==|  0.47015
USER: genes 18 Torsion [C]-N--CA-[C] |==|  0.84681
USER: genes 19 Torsion [N]-CA--C-[N] |==|  0.90273
USER: genes 20 Torsion [C]-N--CA-[C] |==|  0.74964
USER: genes 21 Torsion [N]-CA--CB-[CG2] |==|  0.56213
USER: genes 22 Torsion [CA]-CB--OG1-[HG1] |==|  0.58548
USER: genes 23 Torsion [N]-CA--C-[O] |==|  0.79535
USER: genes 24 Torsion [N]-CA--CB-[CG] |==|  0.15376
USER: genes 25 Torsion [CA]-CB--CG-[CD2] |==|  0.63462
USER: genes 26 Torsion [N]-CA--CB-[CG] |==|  0.63128
USER: genes 27 Torsion [CA]-CB--CG-[CD1] |==|  0.90471
ROOT
ATOM      1  CA  LEU B   3     -19.545 -22.688 -30.697  1.00 17.18 LIG 0.18  C 
ENDROOT
BRANCH 1 2
ATOM      2  N   LEU B   3     -20.466 -23.596 -30.124  1.00 21.09 LIG-0.35  N 
ATOM      3  C   ARG B   2     -20.065 -24.745 -29.590  1.00 20.79 LIG 0.24  C 
ATOM      4 O    ARG B   2     -18.865 -25.071 -29.478  1.00 18.81 LIG-0.27  OA
ATOM      5 H    LEU B   3     -21.287 -23.339 -30.155  1.00 21.09 LIG 0.16  HD
BRANCH 3 6
ATOM      6  CA  ARG B   2     -21.180 -25.700 -29.183  1.00 21.42 LIG 0.18  C 
BRANCH 6 7
ATOM      7  CB  ARG B   2     -21.594 -25.544 -27.716  1.00 36.36 LIG 0.04  C 
BRANCH 7 8
ATOM      8  CG  ARG B   2     -21.365 -24.134 -27.207  1.00 41.67 LIG 0.02  C 
BRANCH 8 9
ATOM      9  CD  ARG B   2     -22.389 -23.126 -27.734  1.00 51.14 LIG 0.14  C 
BRANCH 9 10
ATOM     10  NE  ARG B   2     -22.278 -21.824 -27.051  1.00 53.41 LIG-0.23  N 
ATOM     11 HE   ARG B   2     -22.170 -21.835 -26.198  1.00 53.41 LIG 0.18  HD
ATOM     12  CZ  ARG B   2     -22.332 -20.628 -27.648  1.00 50.83 LIG 0.67  C 
ATOM     13  NH1 ARG B   2     -22.500 -20.534 -28.961  1.00 40.00 LIG-0.23  N 
ATOM     14  NH2 ARG B   2     -22.227 -19.515 -26.918  1.00 54.23 LIG-0.23  N 
ATOM     15 1HH1 ARG B   2     -22.575 -21.246 -29.436  1.00 40.00 LIG 0.17  HD
ATOM     16 2HH1 ARG B   2     -22.533 -19.761 -29.336  1.00 40.00 LIG 0.17  HD
ATOM     17 1HH2 ARG B   2     -22.125 -19.568 -26.066  1.00 54.23 LIG 0.17  HD
ATOM     18 2HH2 ARG B   2     -22.261 -18.746 -27.300  1.00 54.23 LIG 0.17  HD
ENDBRANCH 9 10
ENDBRANCH 8 9
ENDBRANCH 7 8
ENDBRANCH 6 7
BRANCH 6 19
ATOM     19  N   ARG B   2     -20.737 -27.048 -29.468  1.00 29.89 LIG-0.35  N 
ATOM     20  C   ASN B   1     -20.908 -27.571 -30.675  1.00 39.87 LIG 0.25  C 
ATOM     21 O    ASN B   1     -21.711 -27.107 -31.496  1.00 37.46 LIG-0.27  OA
ATOM     22 H    ARG B   2     -20.369 -27.457 -28.807  1.00 29.89 LIG 0.16  HD
BRANCH 20 23
ATOM     23  CA  ASN B   1     -20.051 -28.809 -30.994  1.00 47.73 LIG 0.28  C 
BRANCH 23 24
ATOM     24  N   ASN B   1     -20.353 -29.969 -30.191  1.00 51.86 LIG-0.07  N 
ATOM     25 H3   ASN B   1     -21.029 -30.416 -30.558  1.00 51.86 LIG 0.28  HD
ATOM     26 H1   ASN B   1     -19.637 -30.496 -30.149  1.00 51.86 LIG 0.28  HD
ATOM     27 H2   ASN B   1     -20.579 -29.710 -29.370  1.00 51.86 LIG 0.28  HD
ENDBRANCH 23 24
BRANCH 23 28
ATOM     28  CB  ASN B   1     -20.138 -29.221 -32.449  1.00 49.79 LIG 0.14  C 
BRANCH 28 29
ATOM     29  CG  ASN B   1     -18.903 -29.976 -32.881  1.00 59.47 LIG 0.22  C 
ATOM     30  ND2 ASN B   1     -18.840 -30.345 -34.165  1.00 63.81 LIG-0.37  N 
ATOM     31 21HD ASN B   1     -18.166 -30.796 -34.450  1.00 63.81 LIG 0.16  HD
ATOM     32 22HD ASN B   1     -19.473 -30.131 -34.705  1.00 63.81 LIG 0.16  HD
ATOM     33 OD1  ASN B   1     -18.026 -30.254 -32.067  1.00 60.25 LIG-0.27  OA
ENDBRANCH 28 29
ENDBRANCH 23 28
ENDBRANCH 20 23
ENDBRANCH 6 19
ENDBRANCH 3 6
ENDBRANCH 1 2
BRANCH 1 34
ATOM     34  CB  LEU B   3     -20.305 -21.615 -31.525  1.00 28.79 LIG 0.04  C 
BRANCH 34 35
ATOM     35  CG  LEU B   3     -20.847 -22.199 -32.834  1.00 33.15 LIG-0.02  C 
ATOM     36  CD2 LEU B   3     -20.047 -23.444 -33.196  1.00 30.13 LIG 0.01  C 
ATOM     37  CD1 LEU B   3     -20.845 -21.199 -34.029  1.00 27.67 LIG 0.01  C 
ENDBRANCH 34 35
ENDBRANCH 1 34
BRANCH 1 38
ATOM     38  C   LEU B   3     -18.644 -22.059 -29.656  1.00 20.33 LIG 0.24  C 
ATOM     39  N   LEU B   4     -17.343 -22.292 -29.800  1.00 23.83 LIG-0.35  N 
ATOM     40 H    LEU B   4     -17.003 -22.765 -30.432  1.00 23.83 LIG 0.16  HD
ATOM     41 O    LEU B   3     -19.096 -21.371 -28.746  1.00 22.70 LIG-0.27  OA
BRANCH 39 42
ATOM     42  CA  LEU B   4     -16.375 -21.741 -28.859  1.00 22.91 LIG 0.18  C 
BRANCH 42 43
ATOM     43  C   LEU B   4     -16.536 -20.218 -28.836  1.00 30.74 LIG 0.24  C 
ATOM     44 O    LEU B   4     -17.225 -19.620 -29.710  1.00 30.11 LIG-0.27  OA
ATOM     45  N   LEU B   5     -15.894 -19.558 -27.882  1.00 32.41 LIG-0.35  N 
ATOM     46 H    LEU B   5     -15.466 -19.914 -27.226  1.00 32.41 LIG 0.16  HD
BRANCH 45 47
ATOM     47  CA  LEU B   5     -15.900 -18.090 -27.925  1.00 35.50 LIG 0.18  C 
BRANCH 47 48
ATOM     48  C   LEU B   5     -15.375 -17.593 -29.267  1.00 33.38 LIG 0.24  C 
ATOM     49 O    LEU B   5     -15.843 -16.565 -29.805  1.00 25.58 LIG-0.27  OA
ATOM     50  N   THR B   6     -14.408 -18.338 -29.793  1.00 32.99 LIG-0.34  N 
ATOM     51 H    THR B   6     -14.003 -18.954 -29.351  1.00 32.99 LIG 0.16  HD
BRANCH 50 52
ATOM     52  CA  THR B   6     -13.928 -18.200 -31.161  1.00 39.09 LIG 0.19  C 
BRANCH 52 53
ATOM     53  CB  THR B   6     -12.433 -18.608 -31.263  1.00 66.99 LIG 0.14  C 
ATOM     54  CG2 THR B   6     -11.781 -17.980 -32.478  1.00 64.52 LIG 0.04  C 
BRANCH 53 55
ATOM     55 OG1  THR B   6     -11.727 -18.172 -30.085  1.00 68.32 LIG-0.39  OA
ATOM     56 HG1  THR B   6     -10.929 -17.999 -30.283  1.00 68.32 LIG 0.21  HD
ENDBRANCH 53 55
ENDBRANCH 52 53
BRANCH 52 57
ATOM     57  C   THR B   6     -14.752 -19.125 -32.069  1.00 46.48 LIG 0.22  C 
ATOM     58 O    THR B   6     -14.580 -20.354 -32.047  1.00 50.47 LIG-0.29  OA
ENDBRANCH 52 57
ENDBRANCH 50 52
ENDBRANCH 47 48
BRANCH 47 59
ATOM     59  CB  LEU B   5     -15.030 -17.502 -26.821  1.00 41.25 LIG 0.04  C 
BRANCH 59 60
ATOM     60  CG  LEU B   5     -13.578 -17.948 -26.743  1.00 47.99 LIG-0.02  C 
ATOM     61  CD2 LEU B   5     -13.227 -18.339 -25.334  1.00 50.88 LIG 0.01  C 
ATOM     62  CD1 LEU B   5     -12.709 -16.793 -27.196  1.00 54.72 LIG 0.01  C 
ENDBRANCH 59 60
ENDBRANCH 47 59
ENDBRANCH 45 47
ENDBRANCH 42 43
BRANCH 42 63
ATOM     63  CB  LEU B   4     -14.991 -22.062 -29.386  1.00 23.96 LIG 0.04  C 
BRANCH 63 64
ATOM     64  CG  LEU B   4     -13.889 -22.639 -28.525  1.00 38.52 LIG-0.02  C 
ATOM     65  CD1 LEU B   4     -13.955 -22.126 -27.133  1.00 46.71 LIG 0.01  C 
ATOM     66  CD2 LEU B   4     -13.971 -24.172 -28.583  1.00 36.33 LIG 0.01  C 
ENDBRANCH 63 64
ENDBRANCH 42 63
ENDBRANCH 39 42
ENDBRANCH 1 38
TORSDOF 26
ENDMDL
MODEL 3
USER: ADFR SOLUTION from run 117
USER: SCORE 23.186278 LL:  -3.746 LR: -20.500 RR:   0.000 FEB: -12.745
USER: RMSD 3.422999
USER: SEED 116
USER: STATUS searching
USER: GENES 28
USER: genes 0 Translation |==|  0.45762 0.52160 0.35781
USER: genes 1 Rotation |==|  0.59695 0.44818 0.51927 0.98738
USER: genes 2 Torsion [C]-CA--N-[C] |==|  0.81377
USER: genes 3 Torsion [N]-C--CA-[N] |==|  0.41043
USER: genes 4 Torsion [C]-CA--CB-[CG] |==|  0.82555
USER: genes 5 Torsion [CA]-CB--CG-[CD] |==|  0.59914
USER: genes 6 Torsion [CB]-CG--CD-[NE] |==|  0.37392
USER: genes 7 Torsion [CG]-CD--NE-[HE] |==|  0.32665
USER: genes 8 Torsion [C]-CA--N-[C] |==|  0.78738
USER: genes 9 Torsion [N]-C--CA-[N] |==|  0.11179
USER: genes 10 Torsion [C]-CA--N-[H3] |==|  0.19206
USER: genes 11 Torsion [C]-CA--CB-[CG] |==|  0.39553
USER: genes 12 Torsion [CA]-CB--CG-[ND2] |==|  0.54084
USER: genes 13 Torsion [N]-CA--CB-[CG] |==|  0.89105
USER: genes 14 Torsion [CA]-CB--CG-[CD1] |==|  0.52689
USER: genes 15 Torsion [N]-CA--C-[N] |==|  0.31769
USER: genes 16 Torsion [C]-N--CA-[CB] |==|  0.48552
USER: genes 17 Torsion [N]-CA--C-[N] |==|  0.44251
USER: genes 18 Torsion [C]-N--CA-[C] |==|  0.80713
USER: genes 19 Torsion [N]-CA--C-[N] |==|  0.44826
USER: genes 20 Torsion [C]-N--CA-[C] |==|  0.51300
USER: genes 21 Torsion [N]-CA--CB-[CG2] |==|  0.27710
USER: genes 22 Torsion [CA]-CB--OG1-[HG1] |==|  0.94456
USER: genes 23 Torsion [N]-CA--C-[O] |==|  0.99089
USER: genes 24 Torsion [N]-CA--CB-[CG] |==|  0.29229
USER: genes 25 Torsion [CA]-CB--CG-[CD2] |==|  0.69993
USER: genes 26 Torsion [N]-CA--CB-[CG] |==|  0.56258
USER: genes 27 Torsion [CA]-CB--CG-[CD1] |==|  0.98070
ROOT
ATOM      1  CA  LEU B   3     -19.151 -22.336 -31.303  1.00 17.18 LIG 0.18  C 
ENDROOT
BRANCH 1 2
ATOM      2  N   LEU B   3     -20.261 -23.106 -30.881  1.00 21.09 LIG-0.35  N 
ATOM      3  C   ARG B   2     -20.100 -24.279 -30.276  1.00 20.79 LIG 0.24  C 
ATOM      4 O    ARG B   2     -18.985 -24.746 -29.964  1.00 18.81 LIG-0.27  OA
ATOM      5 H    LEU B   3     -21.026 -22.751 -31.049  1.00 21.09 LIG 0.16  HD
BRANCH 3 6
ATOM      6  CA  ARG B   2     -21.378 -25.077 -30.048  1.00 21.42 LIG 0.18  C 
BRANCH 6 7
ATOM      7  CB  ARG B   2     -22.065 -24.739 -28.721  1.00 36.36 LIG 0.04  C 
BRANCH 7 8
ATOM      8  CG  ARG B   2     -21.196 -25.084 -27.526  1.00 41.67 LIG 0.02  C 
BRANCH 8 9
ATOM      9  CD  ARG B   2     -21.993 -25.596 -26.326  1.00 51.14 LIG 0.14  C 
BRANCH 9 10
ATOM     10  NE  ARG B   2     -21.374 -26.792 -25.726  1.00 53.41 LIG-0.23  N 
ATOM     11 HE   ARG B   2     -21.101 -26.728 -24.912  1.00 53.41 LIG 0.18  HD
ATOM     12  CZ  ARG B   2     -21.199 -27.967 -26.340  1.00 50.83 LIG 0.67  C 
ATOM     13  NH1 ARG B   2     -21.592 -28.138 -27.596  1.00 40.00 LIG-0.23  N 
ATOM     14  NH2 ARG B   2     -20.616 -28.977 -25.692  1.00 54.23 LIG-0.23  N 
ATOM     15 1HH1 ARG B   2     -21.962 -27.490 -28.023  1.00 40.00 LIG 0.17  HD
ATOM     16 2HH1 ARG B   2     -21.476 -28.897 -27.984  1.00 40.00 LIG 0.17  HD
ATOM     17 1HH2 ARG B   2     -20.352 -28.872 -24.880  1.00 54.23 LIG 0.17  HD
ATOM     18 2HH2 ARG B   2     -20.503 -29.732 -26.086  1.00 54.23 LIG 0.17  HD
ENDBRANCH 9 10
ENDBRANCH 8 9
ENDBRANCH 7 8
ENDBRANCH 6 7
BRANCH 6 19
ATOM     19  N   ARG B   2     -21.045 -26.482 -30.131  1.00 29.89 LIG-0.35  N 
ATOM     20  C   ASN B   1     -20.841 -27.057 -31.308  1.00 39.87 LIG 0.25  C 
ATOM     21 O    ASN B   1     -21.226 -26.555 -32.372  1.00 37.46 LIG-0.27  OA
ATOM     22 H    ARG B   2     -20.996 -26.889 -29.374  1.00 29.89 LIG 0.16  HD
BRANCH 20 23
ATOM     23  CA  ASN B   1     -20.098 -28.405 -31.273  1.00 47.73 LIG 0.28  C 
BRANCH 23 24
ATOM     24  N   ASN B   1     -20.490 -29.276 -30.192  1.00 51.86 LIG-0.07  N 
ATOM     25 H3   ASN B   1     -21.319 -29.566 -30.330  1.00 51.86 LIG 0.28  HD
ATOM     26 H1   ASN B   1     -19.935 -29.970 -30.154  1.00 51.86 LIG 0.28  HD
ATOM     27 H2   ASN B   1     -20.457 -28.828 -29.424  1.00 51.86 LIG 0.28  HD
ENDBRANCH 23 24
BRANCH 23 28
ATOM     28  CB  ASN B   1     -20.239 -29.184 -32.565  1.00 49.79 LIG 0.14  C 
BRANCH 28 29
ATOM     29  CG  ASN B   1     -18.959 -29.904 -32.915  1.00 59.47 LIG 0.22  C 
ATOM     30  ND2 ASN B   1     -18.851 -30.372 -34.163  1.00 63.81 LIG-0.37  N 
ATOM     31 21HD ASN B   1     -18.150 -30.808 -34.400  1.00 63.81 LIG 0.16  HD
ATOM     32 22HD ASN B   1     -19.484 -30.235 -34.729  1.00 63.81 LIG 0.16  HD
ATOM     33 OD1  ASN B   1     -18.086 -30.070 -32.067  1.00 60.25 LIG-0.27  OA
ENDBRANCH 28 29
ENDBRANCH 23 28
ENDBRANCH 20 23
ENDBRANCH 6 19
ENDBRANCH 3 6
ENDBRANCH 1 2
BRANCH 1 34
ATOM     34  CB  LEU B   3     -19.628 -21.185 -32.232  1.00 28.79 LIG 0.04  C 
BRANCH 34 35
ATOM     35  CG  LEU B   3     -20.745 -21.651 -33.171  1.00 33.15 LIG-0.02  C 
ATOM     36  CD2 LEU B   3     -20.352 -22.984 -33.795  1.00 30.13 LIG 0.01  C 
ATOM     37  CD1 LEU B   3     -21.109 -20.627 -34.287  1.00 27.67 LIG 0.01  C 
ENDBRANCH 34 35
ENDBRANCH 1 34
BRANCH 1 38
ATOM     38  C   LEU B   3     -18.342 -21.817 -30.135  1.00 20.33 LIG 0.24  C 
ATOM     39  N   LEU B   4     -17.107 -22.297 -30.027  1.00 23.83 LIG-0.35  N 
ATOM     40 H    LEU B   4     -16.760 -22.867 -30.569  1.00 23.83 LIG 0.16  HD
ATOM     41 O    LEU B   3     -18.803 -20.995 -29.348  1.00 22.70 LIG-0.27  OA
BRANCH 39 42
ATOM     42  CA  LEU B   4     -16.230 -21.873 -28.942  1.00 22.91 LIG 0.18  C 
BRANCH 42 43
ATOM     43  C   LEU B   4     -15.864 -20.402 -29.163  1.00 30.74 LIG 0.24  C 
ATOM     44 O    LEU B   4     -15.935 -19.875 -30.310  1.00 30.11 LIG-0.27  OA
ATOM     45  N   LEU B   5     -15.440 -19.720 -28.107  1.00 32.41 LIG-0.35  N 
ATOM     46 H    LEU B   5     -15.434 -20.005 -27.296  1.00 32.41 LIG 0.16  HD
BRANCH 45 47
ATOM     47  CA  LEU B   5     -14.934 -18.358 -28.316  1.00 35.50 LIG 0.18  C 
BRANCH 47 48
ATOM     48  C   LEU B   5     -13.607 -18.389 -29.064  1.00 33.38 LIG 0.24  C 
ATOM     49 O    LEU B   5     -12.915 -19.430 -29.114  1.00 25.58 LIG-0.27  OA
ATOM     50  N   THR B   6     -13.266 -17.238 -29.635  1.00 32.99 LIG-0.34  N 
ATOM     51 H    THR B   6     -13.812 -16.578 -29.712  1.00 32.99 LIG 0.16  HD
BRANCH 50 52
ATOM     52  CA  THR B   6     -11.948 -16.963 -30.189  1.00 39.09 LIG 0.19  C 
BRANCH 52 53
ATOM     53  CB  THR B   6     -11.664 -17.878 -31.411  1.00 66.99 LIG 0.14  C 
ATOM     54  CG2 THR B   6     -11.905 -17.137 -32.711  1.00 64.52 LIG 0.04  C 
BRANCH 53 55
ATOM     55 OG1  THR B   6     -10.293 -18.322 -31.382  1.00 68.32 LIG-0.39  OA
ATOM     56 HG1  THR B   6      -9.842 -17.808 -30.893  1.00 68.32 LIG 0.21  HD
ENDBRANCH 53 55
ENDBRANCH 52 53
BRANCH 52 57
ATOM     57  C   THR B   6     -11.901 -15.499 -30.650  1.00 46.48 LIG 0.22  C 
ATOM     58 O    THR B   6     -12.908 -14.779 -30.577  1.00 50.47 LIG-0.29  OA
ENDBRANCH 52 57
ENDBRANCH 50 52
ENDBRANCH 47 48
BRANCH 47 59
ATOM     59  CB  LEU B   5     -14.721 -17.640 -26.989  1.00 41.25 LIG 0.04  C 
BRANCH 59 60
ATOM     60  CG  LEU B   5     -13.294 -17.462 -26.495  1.00 47.99 LIG-0.02  C 
ATOM     61  CD2 LEU B   5     -13.030 -18.367 -25.324  1.00 50.88 LIG 0.01  C 
ATOM     62  CD1 LEU B   5     -13.117 -16.015 -26.085  1.00 54.72 LIG 0.01  C 
ENDBRANCH 59 60
ENDBRANCH 47 59
ENDBRANCH 45 47
ENDBRANCH 42 43
BRANCH 42 63
ATOM     63  CB  LEU B   4     -14.960 -22.694 -29.031  1.00 23.96 LIG 0.04  C 
BRANCH 63 64
ATOM     64  CG  LEU B   4     -14.035 -22.921 -27.856  1.00 38.52 LIG-0.02  C 
ATOM     65  CD1 LEU B   4     -14.438 -22.113 -26.677  1.00 46.71 LIG 0.01  C 
ATOM     66  CD2 LEU B   4     -13.997 -24.425 -27.543  1.00 36.33 LIG 0.01  C 
ENDBRANCH 63 64
ENDBRANCH 42 63
ENDBRANCH 39 42
ENDBRANCH 1 38
TORSDOF 26
ENDMDL
MODEL 4
USER: ADFR SOLUTION from run 72
USER: SCORE 22.774228 LL:  -3.810 LR: -20.453 RR:   0.000 FEB: -12.697
USER: RMSD 4.163631
USER: SEED 71
USER: STATUS searching
USER: GENES 28
USER: genes 0 Translation |==|  0.44793 0.51561 0.35832
USER: genes 1 Rotation |==|  0.57887 0.43504 0.53310 0.98833
USER: genes 2 Torsion [C]-CA--N-[C] |==|  0.79516
USER: genes 3 Torsion [N]-C--CA-[N] |==|  0.40992
USER: genes 4 Torsion [C]-CA--CB-[CG] |==|  0.84970
USER: genes 5 Torsion [CA]-CB--CG-[CD] |==|  0.59019
USER: genes 6 Torsion [CB]-CG--CD-[NE] |==|  0.35702
USER: genes 7 Torsion [CG]-CD--NE-[HE] |==|  0.33638
USER: genes 8 Torsion [C]-CA--N-[C] |==|  0.81784
USER: genes 9 Torsion [N]-C--CA-[N] |==|  0.08349
USER: genes 10 Torsion [C]-CA--N-[H3] |==|  0.87240
USER: genes 11 Torsion [C]-CA--CB-[CG] |==|  0.38226
USER: genes 12 Torsion [CA]-CB--CG-[ND2] |==|  0.54202
USER: genes 13 Torsion [N]-CA--CB-[CG] |==|  0.90190
USER: genes 14 Torsion [CA]-CB--CG-[CD1] |==|  0.52742
USER: genes 15 Torsion [N]-CA--C-[N] |==|  0.31396
USER: genes 16 Torsion [C]-N--CA-[CB] |==|  0.49554
USER: genes 17 Torsion [N]-CA--C-[N] |==|  0.46241
USER: genes 18 Torsion [C]-N--CA-[C] |==|  0.66768
USER: genes 19 Torsion [N]-CA--C-[N] |==|  0.69858
USER: genes 20 Torsion [C]-N--CA-[C] |==|  0.77177
USER: genes 21 Torsion [N]-CA--CB-[CG2] |==|  0.58457
USER: genes 22 Torsion [CA]-CB--OG1-[HG1] |==|  0.41030
USER: genes 23 Torsion [N]-CA--C-[O] |==|  0.97462
USER: genes 24 Torsion [N]-CA--CB-[CG] |==|  0.60910
USER: genes 25 Torsion [CA]-CB--CG-[CD2] |==|  0.07588
USER: genes 26 Torsion [N]-CA--CB-[CG] |==|  0.64351
USER: genes 27 Torsion [CA]-CB--CG-[CD1] |==|  0.40516
ROOT
ATOM      1  CA  LEU B   3     -19.391 -22.485 -31.292  1.00 17.18 LIG 0.18  C 
ENDROOT
BRANCH 1 2
ATOM      2  N   LEU B   3     -20.499 -23.263 -30.884  1.00 21.09 LIG-0.35  N 
ATOM      3  C   ARG B   2     -20.337 -24.446 -30.298  1.00 20.79 LIG 0.24  C 
ATOM      4 O    ARG B   2     -19.221 -24.916 -29.994  1.00 18.81 LIG-0.27  OA
ATOM      5 H    LEU B   3     -21.265 -22.907 -31.046  1.00 21.09 LIG 0.16  HD
BRANCH 3 6
ATOM      6  CA  ARG B   2     -21.613 -25.249 -30.085  1.00 21.42 LIG 0.18  C 
BRANCH 6 7
ATOM      7  CB  ARG B   2     -22.299 -24.938 -28.750  1.00 36.36 LIG 0.04  C 
BRANCH 7 8
ATOM      8  CG  ARG B   2     -21.356 -25.105 -27.573  1.00 41.67 LIG 0.02  C 
BRANCH 8 9
ATOM      9  CD  ARG B   2     -22.056 -25.582 -26.300  1.00 51.14 LIG 0.14  C 
BRANCH 9 10
ATOM     10  NE  ARG B   2     -21.387 -26.758 -25.714  1.00 53.41 LIG-0.23  N 
ATOM     11 HE   ARG B   2     -21.094 -26.684 -24.909  1.00 53.41 LIG 0.18  HD
ATOM     12  CZ  ARG B   2     -21.198 -27.931 -26.330  1.00 50.83 LIG 0.67  C 
ATOM     13  NH1 ARG B   2     -21.621 -28.117 -27.574  1.00 40.00 LIG-0.23  N 
ATOM     14  NH2 ARG B   2     -20.568 -28.921 -25.695  1.00 54.23 LIG-0.23  N 
ATOM     15 1HH1 ARG B   2     -22.021 -27.481 -27.992  1.00 40.00 LIG 0.17  HD
ATOM     16 2HH1 ARG B   2     -21.495 -28.874 -27.962  1.00 40.00 LIG 0.17  HD
ATOM     17 1HH2 ARG B   2     -20.285 -28.806 -24.891  1.00 54.23 LIG 0.17  HD
ATOM     18 2HH2 ARG B   2     -20.446 -29.675 -26.090  1.00 54.23 LIG 0.17  HD
ENDBRANCH 9 10
ENDBRANCH 8 9
ENDBRANCH 7 8
ENDBRANCH 6 7
BRANCH 6 19
ATOM     19  N   ARG B   2     -21.279 -26.653 -30.195  1.00 29.89 LIG-0.35  N 
ATOM     20  C   ASN B   1     -20.865 -27.156 -31.350  1.00 39.87 LIG 0.25  C 
ATOM     21 O    ASN B   1     -21.046 -26.583 -32.432  1.00 37.46 LIG-0.27  OA
ATOM     22 H    ARG B   2     -21.372 -27.106 -29.470  1.00 29.89 LIG 0.16  HD
BRANCH 20 23
ATOM     23  CA  ASN B   1     -20.149 -28.517 -31.266  1.00 47.73 LIG 0.28  C 
BRANCH 23 24
ATOM     24  N   ASN B   1     -20.587 -29.357 -30.178  1.00 51.86 LIG-0.07  N 
ATOM     25 H3   ASN B   1     -20.635 -28.875 -29.432  1.00 51.86 LIG 0.28  HD
ATOM     26 H1   ASN B   1     -21.389 -29.693 -30.367  1.00 51.86 LIG 0.28  HD
ATOM     27 H2   ASN B   1     -20.006 -30.022 -30.065  1.00 51.86 LIG 0.28  HD
ENDBRANCH 23 24
BRANCH 23 28
ATOM     28  CB  ASN B   1     -20.269 -29.320 -32.545  1.00 49.79 LIG 0.14  C 
BRANCH 28 29
ATOM     29  CG  ASN B   1     -18.957 -29.977 -32.905  1.00 59.47 LIG 0.22  C 
ATOM     30  ND2 ASN B   1     -18.841 -30.448 -34.152  1.00 63.81 LIG-0.37  N 
ATOM     31 21HD ASN B   1     -18.121 -30.850 -34.394  1.00 63.81 LIG 0.16  HD
ATOM     32 22HD ASN B   1     -19.487 -30.348 -34.711  1.00 63.81 LIG 0.16  HD
ATOM     33 OD1  ASN B   1     -18.067 -30.092 -32.068  1.00 60.25 LIG-0.27  OA
ENDBRANCH 28 29
ENDBRANCH 23 28
ENDBRANCH 20 23
ENDBRANCH 6 19
ENDBRANCH 3 6
ENDBRANCH 1 2
BRANCH 1 34
ATOM     34  CB  LEU B   3     -19.845 -21.424 -32.334  1.00 28.79 LIG 0.04  C 
BRANCH 34 35
ATOM     35  CG  LEU B   3     -20.951 -21.970 -33.243  1.00 33.15 LIG-0.02  C 
ATOM     36  CD2 LEU B   3     -20.561 -23.361 -33.727  1.00 30.13 LIG 0.01  C 
ATOM     37  CD1 LEU B   3     -21.286 -21.058 -34.460  1.00 27.67 LIG 0.01  C 
ENDBRANCH 34 35
ENDBRANCH 1 34
BRANCH 1 38
ATOM     38  C   LEU B   3     -18.678 -21.850 -30.119  1.00 20.33 LIG 0.24  C 
ATOM     39  N   LEU B   4     -17.448 -22.293 -29.880  1.00 23.83 LIG-0.35  N 
ATOM     40 H    LEU B   4     -17.053 -22.900 -30.344  1.00 23.83 LIG 0.16  HD
ATOM     41 O    LEU B   3     -19.208 -20.974 -29.441  1.00 22.70 LIG-0.27  OA
BRANCH 39 42
ATOM     42  CA  LEU B   4     -16.660 -21.758 -28.775  1.00 22.91 LIG 0.18  C 
BRANCH 42 43
ATOM     43  C   LEU B   4     -16.377 -20.279 -29.055  1.00 30.74 LIG 0.24  C 
ATOM     44 O    LEU B   4     -16.548 -19.786 -30.205  1.00 30.11 LIG-0.27  OA
ATOM     45  N   LEU B   5     -15.914 -19.552 -28.046  1.00 32.41 LIG-0.35  N 
ATOM     46 H    LEU B   5     -15.840 -19.815 -27.231  1.00 32.41 LIG 0.16  HD
BRANCH 45 47
ATOM     47  CA  LEU B   5     -15.486 -18.175 -28.319  1.00 35.50 LIG 0.18  C 
BRANCH 47 48
ATOM     48  C   LEU B   5     -14.012 -17.994 -27.974  1.00 33.38 LIG 0.24  C 
ATOM     49 O    LEU B   5     -13.115 -18.514 -28.674  1.00 25.58 LIG-0.27  OA
ATOM     50  N   THR B   6     -13.784 -17.260 -26.890  1.00 32.99 LIG-0.34  N 
ATOM     51 H    THR B   6     -14.398 -16.797 -26.505  1.00 32.99 LIG 0.16  HD
BRANCH 50 52
ATOM     52  CA  THR B   6     -12.487 -17.156 -26.237  1.00 39.09 LIG 0.19  C 
BRANCH 52 53
ATOM     53  CB  THR B   6     -12.408 -15.865 -25.377  1.00 66.99 LIG 0.14  C 
ATOM     54  CG2 THR B   6     -10.986 -15.343 -25.311  1.00 64.52 LIG 0.04  C 
BRANCH 53 55
ATOM     55 OG1  THR B   6     -13.247 -14.843 -25.950  1.00 68.32 LIG-0.39  OA
ATOM     56 HG1  THR B   6     -13.559 -14.360 -25.338  1.00 68.32 LIG 0.21  HD
ENDBRANCH 53 55
ENDBRANCH 52 53
BRANCH 52 57
ATOM     57  C   THR B   6     -12.298 -18.371 -25.317  1.00 46.48 LIG 0.22  C 
ATOM     58 O    THR B   6     -13.237 -19.150 -25.094  1.00 50.47 LIG-0.29  OA
ENDBRANCH 52 57
ENDBRANCH 50 52
ENDBRANCH 47 48
BRANCH 47 59
ATOM     59  CB  LEU B   5     -16.297 -17.174 -27.506  1.00 41.25 LIG 0.04  C 
BRANCH 59 60
ATOM     60  CG  LEU B   5     -16.705 -15.872 -28.177  1.00 47.99 LIG-0.02  C 
ATOM     61  CD2 LEU B   5     -16.817 -16.064 -29.664  1.00 50.88 LIG 0.01  C 
ATOM     62  CD1 LEU B   5     -15.649 -14.832 -27.864  1.00 54.72 LIG 0.01  C 
ENDBRANCH 59 60
ENDBRANCH 47 59
ENDBRANCH 45 47
ENDBRANCH 42 43
BRANCH 42 63
ATOM     63  CB  LEU B   4     -15.337 -22.497 -28.757  1.00 23.96 LIG 0.04  C 
BRANCH 63 64
ATOM     64  CG  LEU B   4     -14.774 -23.160 -27.519  1.00 38.52 LIG-0.02  C 
ATOM     65  CD1 LEU B   4     -14.021 -24.395 -27.853  1.00 46.71 LIG 0.01  C 
ATOM     66  CD2 LEU B   4     -13.909 -22.138 -26.764  1.00 36.33 LIG 0.01  C 
ENDBRANCH 63 64
ENDBRANCH 42 63
ENDBRANCH 39 42
ENDBRANCH 1 38
TORSDOF 26
ENDMDL
MODEL 5
USER: ADFR SOLUTION from run 76
USER: SCORE 24.369048 LL:  -4.906 LR: -20.400 RR:   0.000 FEB: -12.644
USER: RMSD 5.585485
USER: SEED 75
USER: STATUS no improvement in best in 6 clusters for 5 generations
USER: GENES 28
USER: genes 0 Translation |==|  0.44742 0.51517 0.38490
USER: genes 1 Rotation |==|  0.58366 0.48272 0.50849 0.99258
USER: genes 2 Torsion [C]-CA--N-[C] |==|  0.76913
USER: genes 3 Torsion [N]-C--CA-[N] |==|  0.89398
USER: genes 4 Torsion [C]-CA--CB-[CG] |==|  0.85507
USER: genes 5 Torsion [CA]-CB--CG-[CD] |==|  0.39623
USER: genes 6 Torsion [CB]-CG--CD-[NE] |==|  0.40681
USER: genes 7 Torsion [CG]-CD--NE-[HE] |==|  0.93117
USER: genes 8 Torsion [C]-CA--N-[C] |==|  0.78358
USER: genes 9 Torsion [N]-C--CA-[N] |==|  0.50123
USER: genes 10 Torsion [C]-CA--N-[H3] |==|  0.87985
USER: genes 11 Torsion [C]-CA--CB-[CG] |==|  0.45851
USER: genes 12 Torsion [CA]-CB--CG-[ND2] |==|  0.32404
USER: genes 13 Torsion [N]-CA--CB-[CG] |==|  0.82586
USER: genes 14 Torsion [CA]-CB--CG-[CD1] |==|  0.54551
USER: genes 15 Torsion [N]-CA--C-[N] |==|  0.30420
USER: genes 16 Torsion [C]-N--CA-[CB] |==|  0.50375
USER: genes 17 Torsion [N]-CA--C-[N] |==|  0.42861
USER: genes 18 Torsion [C]-N--CA-[C] |==|  0.79598
USER: genes 19 Torsion [N]-CA--C-[N] |==|  0.45975
USER: genes 20 Torsion [C]-N--CA-[C] |==|  0.51016
USER: genes 21 Torsion [N]-CA--CB-[CG2] |==|  0.23991
USER: genes 22 Torsion [CA]-CB--OG1-[HG1] |==|  0.03239
USER: genes 23 Torsion [N]-CA--C-[O] |==|  0.02627
USER: genes 24 Torsion [N]-CA--CB-[CG] |==|  0.26883
USER: genes 25 Torsion [CA]-CB--CG-[CD2] |==|  0.70496
USER: genes 26 Torsion [N]-CA--CB-[CG] |==|  0.57311
USER: genes 27 Torsion [CA]-CB--CG-[CD1] |==|  0.96161
ROOT
ATOM      1  CA  LEU B   3     -19.403 -22.496 -30.734  1.00 17.18 LIG 0.18  C 
ENDROOT
BRANCH 1 2
ATOM      2  N   LEU B   3     -20.455 -23.212 -30.115  1.00 21.09 LIG-0.35  N 
ATOM      3  C   ARG B   2     -20.306 -24.483 -29.751  1.00 20.79 LIG 0.24  C 
ATOM      4 O    ARG B   2     -19.229 -25.105 -29.848  1.00 18.81 LIG-0.27  OA
ATOM      5 H    LEU B   3     -21.177 -22.759 -30.000  1.00 21.09 LIG 0.16  HD
BRANCH 3 6
ATOM      6  CA  ARG B   2     -21.575 -25.176 -29.270  1.00 21.42 LIG 0.18  C 
BRANCH 6 7
ATOM      7  CB  ARG B   2     -22.404 -25.765 -30.416  1.00 36.36 LIG 0.04  C 
BRANCH 7 8
ATOM      8  CG  ARG B   2     -22.688 -24.741 -31.499  1.00 41.67 LIG 0.02  C 
BRANCH 8 9
ATOM      9  CD  ARG B   2     -22.652 -25.328 -32.911  1.00 51.14 LIG 0.14  C 
BRANCH 9 10
ATOM     10  NE  ARG B   2     -23.621 -24.667 -33.804  1.00 53.41 LIG-0.23  N 
ATOM     11 HE   ARG B   2     -24.303 -24.293 -33.437  1.00 53.41 LIG 0.18  HD
ATOM     12  CZ  ARG B   2     -23.528 -24.600 -35.137  1.00 50.83 LIG 0.67  C 
ATOM     13  NH1 ARG B   2     -22.504 -25.156 -35.772  1.00 40.00 LIG-0.23  N 
ATOM     14  NH2 ARG B   2     -24.477 -23.978 -35.840  1.00 54.23 LIG-0.23  N 
ATOM     15 1HH1 ARG B   2     -21.893 -25.565 -35.327  1.00 40.00 LIG 0.17  HD
ATOM     16 2HH1 ARG B   2     -22.452 -25.109 -36.629  1.00 40.00 LIG 0.17  HD
ATOM     17 1HH2 ARG B   2     -25.147 -23.622 -35.436  1.00 54.23 LIG 0.17  HD
ATOM     18 2HH2 ARG B   2     -24.418 -23.934 -36.696  1.00 54.23 LIG 0.17  HD
ENDBRANCH 9 10
ENDBRANCH 8 9
ENDBRANCH 7 8
ENDBRANCH 6 7
BRANCH 6 19
ATOM     19  N   ARG B   2     -22.339 -24.220 -28.499  1.00 29.89 LIG-0.35  N 
ATOM     20  C   ASN B   1     -21.995 -23.936 -27.250  1.00 39.87 LIG 0.25  C 
ATOM     21 O    ASN B   1     -21.254 -24.666 -26.578  1.00 37.46 LIG-0.27  OA
ATOM     22 H    ARG B   2     -23.007 -23.871 -28.913  1.00 29.89 LIG 0.16  HD
BRANCH 20 23
ATOM     23  CA  ASN B   1     -22.588 -22.637 -26.674  1.00 47.73 LIG 0.28  C 
BRANCH 23 24
ATOM     24  N   ASN B   1     -22.191 -22.347 -25.318  1.00 51.86 LIG-0.07  N 
ATOM     25 H3   ASN B   1     -22.227 -23.092 -24.833  1.00 51.86 LIG 0.28  HD
ATOM     26 H1   ASN B   1     -21.359 -22.030 -25.314  1.00 51.86 LIG 0.28  HD
ATOM     27 H2   ASN B   1     -22.741 -21.740 -24.971  1.00 51.86 LIG 0.28  HD
ENDBRANCH 23 24
BRANCH 23 28
ATOM     28  CB  ASN B   1     -22.264 -21.422 -27.518  1.00 49.79 LIG 0.14  C 
BRANCH 28 29
ATOM     29  CG  ASN B   1     -23.138 -20.247 -27.149  1.00 59.47 LIG 0.22  C 
ATOM     30  ND2 ASN B   1     -22.522 -19.169 -26.651  1.00 63.81 LIG-0.37  N 
ATOM     31 21HD ASN B   1     -22.982 -18.486 -26.405  1.00 63.81 LIG 0.16  HD
ATOM     32 22HD ASN B   1     -21.666 -19.160 -26.576  1.00 63.81 LIG 0.16  HD
ATOM     33 OD1  ASN B   1     -24.358 -20.313 -27.278  1.00 60.25 LIG-0.27  OA
ENDBRANCH 28 29
ENDBRANCH 23 28
ENDBRANCH 20 23
ENDBRANCH 6 19
ENDBRANCH 3 6
ENDBRANCH 1 2
BRANCH 1 34
ATOM     34  CB  LEU B   3     -19.989 -21.385 -31.651  1.00 28.79 LIG 0.04  C 
BRANCH 34 35
ATOM     35  CG  LEU B   3     -20.825 -21.982 -32.788  1.00 33.15 LIG-0.02  C 
ATOM     36  CD2 LEU B   3     -20.134 -23.233 -33.315  1.00 30.13 LIG 0.01  C 
ATOM     37  CD1 LEU B   3     -21.106 -20.995 -33.959  1.00 27.67 LIG 0.01  C 
ENDBRANCH 34 35
ENDBRANCH 1 34
BRANCH 1 38
ATOM     38  C   LEU B   3     -18.426 -21.933 -29.725  1.00 20.33 LIG 0.24  C 
ATOM     39  N   LEU B   4     -17.228 -22.507 -29.698  1.00 23.83 LIG-0.35  N 
ATOM     40 H    LEU B   4     -16.991 -23.158 -30.208  1.00 23.83 LIG 0.16  HD
ATOM     41 O    LEU B   3     -18.729 -20.999 -28.989  1.00 22.70 LIG-0.27  OA
BRANCH 39 42
ATOM     42  CA  LEU B   4     -16.200 -22.054 -28.768  1.00 22.91 LIG 0.18  C 
BRANCH 42 43
ATOM     43  C   LEU B   4     -15.869 -20.593 -29.087  1.00 30.74 LIG 0.24  C 
ATOM     44 O    LEU B   4     -16.020 -20.128 -30.253  1.00 30.11 LIG-0.27  OA
ATOM     45  N   LEU B   5     -15.389 -19.853 -28.097  1.00 32.41 LIG-0.35  N 
ATOM     46 H    LEU B   5     -15.327 -20.094 -27.275  1.00 32.41 LIG 0.16  HD
BRANCH 45 47
ATOM     47  CA  LEU B   5     -14.915 -18.498 -28.408  1.00 35.50 LIG 0.18  C 
BRANCH 47 48
ATOM     48  C   LEU B   5     -13.586 -18.553 -29.152  1.00 33.38 LIG 0.24  C 
ATOM     49 O    LEU B   5     -12.906 -19.602 -29.186  1.00 25.58 LIG-0.27  OA
ATOM     50  N   THR B   6     -13.232 -17.412 -29.736  1.00 32.99 LIG-0.34  N 
ATOM     51 H    THR B   6     -13.770 -16.747 -29.823  1.00 32.99 LIG 0.16  HD
BRANCH 50 52
ATOM     52  CA  THR B   6     -11.908 -17.159 -30.289  1.00 39.09 LIG 0.19  C 
BRANCH 52 53
ATOM     53  CB  THR B   6     -11.621 -18.110 -31.482  1.00 66.99 LIG 0.14  C 
ATOM     54  CG2 THR B   6     -12.155 -17.531 -32.778  1.00 64.52 LIG 0.04  C 
BRANCH 53 55
ATOM     55 OG1  THR B   6     -10.200 -18.308 -31.618  1.00 68.32 LIG-0.39  OA
ATOM     56 HG1  THR B   6      -9.808 -18.006 -30.939  1.00 68.32 LIG 0.21  HD
ENDBRANCH 53 55
ENDBRANCH 52 53
BRANCH 52 57
ATOM     57  C   THR B   6     -11.853 -15.709 -30.791  1.00 46.48 LIG 0.22  C 
ATOM     58 O    THR B   6     -12.771 -14.913 -30.537  1.00 50.47 LIG-0.29  OA
ENDBRANCH 52 57
ENDBRANCH 50 52
ENDBRANCH 47 48
BRANCH 47 59
ATOM     59  CB  LEU B   5     -14.722 -17.677 -27.139  1.00 41.25 LIG 0.04  C 
BRANCH 59 60
ATOM     60  CG  LEU B   5     -13.323 -17.591 -26.550  1.00 47.99 LIG-0.02  C 
ATOM     61  CD2 LEU B   5     -13.226 -18.433 -25.309  1.00 50.88 LIG 0.01  C 
ATOM     62  CD1 LEU B   5     -13.042 -16.140 -26.219  1.00 54.72 LIG 0.01  C 
ENDBRANCH 59 60
ENDBRANCH 47 59
ENDBRANCH 45 47
ENDBRANCH 42 43
BRANCH 42 63
ATOM     63  CB  LEU B   4     -14.958 -22.885 -29.016  1.00 23.96 LIG 0.04  C 
BRANCH 63 64
ATOM     64  CG  LEU B   4     -13.911 -23.149 -27.957  1.00 38.52 LIG-0.02  C 
ATOM     65  CD1 LEU B   4     -14.075 -22.247 -26.788  1.00 46.71 LIG 0.01  C 
ATOM     66  CD2 LEU B   4     -13.975 -24.632 -27.559  1.00 36.33 LIG 0.01  C 
ENDBRANCH 63 64
ENDBRANCH 42 63
ENDBRANCH 39 42
ENDBRANCH 1 38
TORSDOF 26
ENDMDL
MODEL 6
USER: ADFR SOLUTION from run 23
USER: SCORE 23.135170 LL:  -4.452 LR: -20.311 RR:   0.000 FEB: -12.555
USER: RMSD 4.481287
USER: SEED 22
USER: STATUS no improvement in best in 13 clusters for 5 generations
USER: GENES 28
USER: genes 0 Translation |==|  0.43271 0.52239 0.36333
USER: genes 1 Rotation |==|  0.58080 0.53785 0.51548 0.99173
USER: genes 2 Torsion [C]-CA--N-[C] |==|  0.79571
USER: genes 3 Torsion [N]-C--CA-[N] |==|  0.90166
USER: genes 4 Torsion [C]-CA--CB-[CG] |==|  0.31513
USER: genes 5 Torsion [CA]-CB--CG-[CD] |==|  0.22082
USER: genes 6 Torsion [CB]-CG--CD-[NE] |==|  0.62590
USER: genes 7 Torsion [CG]-CD--NE-[HE] |==|  0.84340
USER: genes 8 Torsion [C]-CA--N-[C] |==|  0.73509
USER: genes 9 Torsion [N]-C--CA-[N] |==|  0.52268
USER: genes 10 Torsion [C]-CA--N-[H3] |==|  0.07641
USER: genes 11 Torsion [C]-CA--CB-[CG] |==|  0.46918
USER: genes 12 Torsion [CA]-CB--CG-[ND2] |==|  0.30709
USER: genes 13 Torsion [N]-CA--CB-[CG] |==|  0.76664
USER: genes 14 Torsion [CA]-CB--CG-[CD1] |==|  0.61007
USER: genes 15 Torsion [N]-CA--C-[N] |==|  0.37738
USER: genes 16 Torsion [C]-N--CA-[CB] |==|  0.29389
USER: genes 17 Torsion [N]-CA--C-[N] |==|  0.41862
USER: genes 18 Torsion [C]-N--CA-[C] |==|  0.61825
USER: genes 19 Torsion [N]-CA--C-[N] |==|  0.44898
USER: genes 20 Torsion [C]-N--CA-[C] |==|  0.73147
USER: genes 21 Torsion [N]-CA--CB-[CG2] |==|  0.28183
USER: genes 22 Torsion [CA]-CB--OG1-[HG1] |==|  0.99941
USER: genes 23 Torsion [N]-CA--C-[O] |==|  0.06475
USER: genes 24 Torsion [N]-CA--CB-[CG] |==|  0.66355
USER: genes 25 Torsion [CA]-CB--CG-[CD2] |==|  0.75060
USER: genes 26 Torsion [N]-CA--CB-[CG] |==|  0.65429
USER: genes 27 Torsion [CA]-CB--CG-[CD1] |==|  0.17943
ROOT
ATOM      1  CA  LEU B   3     -19.767 -22.317 -31.187  1.00 17.18 LIG 0.18  C 
ENDROOT
BRANCH 1 2
ATOM      2  N   LEU B   3     -20.616 -23.083 -30.353  1.00 21.09 LIG-0.35  N 
ATOM      3  C   ARG B   2     -20.229 -24.259 -29.865  1.00 20.79 LIG 0.24  C 
ATOM      4 O    ARG B   2     -19.085 -24.730 -30.031  1.00 18.81 LIG-0.27  OA
ATOM      5 H    LEU B   3     -21.382 -22.726 -30.198  1.00 21.09 LIG 0.16  HD
BRANCH 3 6
ATOM      6  CA  ARG B   2     -21.310 -25.052 -29.142  1.00 21.42 LIG 0.18  C 
BRANCH 6 7
ATOM      7  CB  ARG B   2     -22.118 -25.955 -30.081  1.00 36.36 LIG 0.04  C 
BRANCH 7 8
ATOM      8  CG  ARG B   2     -21.885 -27.426 -29.795  1.00 41.67 LIG 0.02  C 
BRANCH 8 9
ATOM      9  CD  ARG B   2     -22.682 -27.943 -28.596  1.00 51.14 LIG 0.14  C 
BRANCH 9 10
ATOM     10  NE  ARG B   2     -21.852 -28.773 -27.704  1.00 53.41 LIG-0.23  N 
ATOM     11 HE   ARG B   2     -21.460 -29.455 -28.052  1.00 53.41 LIG 0.18  HD
ATOM     12  CZ  ARG B   2     -21.657 -28.555 -26.398  1.00 50.83 LIG 0.67  C 
ATOM     13  NH1 ARG B   2     -22.232 -27.523 -25.793  1.00 40.00 LIG-0.23  N 
ATOM     14  NH2 ARG B   2     -20.888 -29.385 -25.692  1.00 54.23 LIG-0.23  N 
ATOM     15 1HH1 ARG B   2     -22.735 -26.988 -26.239  1.00 40.00 LIG 0.17  HD
ATOM     16 2HH1 ARG B   2     -22.102 -27.390 -24.953  1.00 40.00 LIG 0.17  HD
ATOM     17 1HH2 ARG B   2     -20.518 -30.060 -26.076  1.00 54.23 LIG 0.17  HD
ATOM     18 2HH2 ARG B   2     -20.762 -29.246 -24.853  1.00 54.23 LIG 0.17  HD
ENDBRANCH 9 10
ENDBRANCH 8 9
ENDBRANCH 7 8
ENDBRANCH 6 7
BRANCH 6 19
ATOM     19  N   ARG B   2     -22.161 -24.112 -28.447  1.00 29.89 LIG-0.35  N 
ATOM     20  C   ASN B   1     -21.948 -23.828 -27.169  1.00 39.87 LIG 0.25  C 
ATOM     21 O    ASN B   1     -21.267 -24.551 -26.430  1.00 37.46 LIG-0.27  OA
ATOM     22 H    ARG B   2     -22.791 -23.771 -28.924  1.00 29.89 LIG 0.16  HD
BRANCH 20 23
ATOM     23  CA  ASN B   1     -22.616 -22.542 -26.650  1.00 47.73 LIG 0.28  C 
BRANCH 23 24
ATOM     24  N   ASN B   1     -22.221 -22.158 -25.317  1.00 51.86 LIG-0.07  N 
ATOM     25 H3   ASN B   1     -21.402 -22.463 -25.151  1.00 51.86 LIG 0.28  HD
ATOM     26 H1   ASN B   1     -22.227 -21.271 -25.249  1.00 51.86 LIG 0.28  HD
ATOM     27 H2   ASN B   1     -22.791 -22.505 -24.728  1.00 51.86 LIG 0.28  HD
ENDBRANCH 23 24
BRANCH 23 28
ATOM     28  CB  ASN B   1     -22.379 -21.353 -27.560  1.00 49.79 LIG 0.14  C 
BRANCH 28 29
ATOM     29  CG  ASN B   1     -23.257 -20.186 -27.177  1.00 59.47 LIG 0.22  C 
ATOM     30  ND2 ASN B   1     -22.647 -19.121 -26.644  1.00 63.81 LIG-0.37  N 
ATOM     31 21HD ASN B   1     -23.110 -18.443 -26.390  1.00 63.81 LIG 0.16  HD
ATOM     32 22HD ASN B   1     -21.792 -19.116 -26.555  1.00 63.81 LIG 0.16  HD
ATOM     33 OD1  ASN B   1     -24.475 -20.246 -27.326  1.00 60.25 LIG-0.27  OA
ENDBRANCH 28 29
ENDBRANCH 23 28
ENDBRANCH 20 23
ENDBRANCH 6 19
ENDBRANCH 3 6
ENDBRANCH 1 2
BRANCH 1 34
ATOM     34  CB  LEU B   3     -20.604 -21.265 -31.969  1.00 28.79 LIG 0.04  C 
BRANCH 34 35
ATOM     35  CG  LEU B   3     -21.219 -21.870 -33.235  1.00 33.15 LIG-0.02  C 
ATOM     36  CD2 LEU B   3     -20.504 -23.173 -33.567  1.00 30.13 LIG 0.01  C 
ATOM     37  CD1 LEU B   3     -21.199 -20.921 -34.470  1.00 27.67 LIG 0.01  C 
ENDBRANCH 34 35
ENDBRANCH 1 34
BRANCH 1 38
ATOM     38  C   LEU B   3     -18.639 -21.673 -30.412  1.00 20.33 LIG 0.24  C 
ATOM     39  N   LEU B   4     -17.436 -21.744 -30.974  1.00 23.83 LIG-0.35  N 
ATOM     40 H    LEU B   4     -17.276 -22.124 -31.729  1.00 23.83 LIG 0.16  HD
ATOM     41 O    LEU B   3     -18.834 -21.113 -29.337  1.00 22.70 LIG-0.27  OA
BRANCH 39 42
ATOM     42  CA  LEU B   4     -16.269 -21.162 -30.323  1.00 22.91 LIG 0.18  C 
BRANCH 42 43
ATOM     43  C   LEU B   4     -15.432 -20.441 -31.386  1.00 30.74 LIG 0.24  C 
ATOM     44 O    LEU B   4     -15.404 -20.847 -32.582  1.00 30.11 LIG-0.27  OA
ATOM     45  N   LEU B   5     -14.718 -19.398 -30.985  1.00 32.41 LIG-0.35  N 
ATOM     46 H    LEU B   5     -14.748 -19.039 -30.205  1.00 32.41 LIG 0.16  HD
BRANCH 45 47
ATOM     47  CA  LEU B   5     -13.787 -18.784 -31.941  1.00 35.50 LIG 0.18  C 
BRANCH 47 48
ATOM     48  C   LEU B   5     -12.464 -18.453 -31.261  1.00 33.38 LIG 0.24  C 
ATOM     49 O    LEU B   5     -12.378 -18.373 -30.016  1.00 25.58 LIG-0.27  OA
ATOM     50  N   THR B   6     -11.447 -18.259 -32.095  1.00 32.99 LIG-0.34  N 
ATOM     51 H    THR B   6     -11.488 -18.454 -32.932  1.00 32.99 LIG 0.16  HD
BRANCH 50 52
ATOM     52  CA  THR B   6     -10.163 -17.700 -31.696  1.00 39.09 LIG 0.19  C 
BRANCH 52 53
ATOM     53  CB  THR B   6      -9.004 -18.371 -32.482  1.00 66.99 LIG 0.14  C 
ATOM     54  CG2 THR B   6      -8.525 -17.478 -33.611  1.00 64.52 LIG 0.04  C 
BRANCH 53 55
ATOM     55 OG1  THR B   6      -7.896 -18.627 -31.597  1.00 68.32 LIG-0.39  OA
ATOM     56 HG1  THR B   6      -8.087 -18.361 -30.824  1.00 68.32 LIG 0.21  HD
ENDBRANCH 53 55
ENDBRANCH 52 53
BRANCH 52 57
ATOM     57  C   THR B   6     -10.161 -16.196 -32.006  1.00 46.48 LIG 0.22  C 
ATOM     58 O    THR B   6     -11.225 -15.566 -32.100  1.00 50.47 LIG-0.29  OA
ENDBRANCH 52 57
ENDBRANCH 50 52
ENDBRANCH 47 48
BRANCH 47 59
ATOM     59  CB  LEU B   5     -14.363 -17.500 -32.524  1.00 41.25 LIG 0.04  C 
BRANCH 59 60
ATOM     60  CG  LEU B   5     -14.539 -17.416 -34.032  1.00 47.99 LIG-0.02  C 
ATOM     61  CD2 LEU B   5     -13.296 -16.864 -34.672  1.00 50.88 LIG 0.01  C 
ATOM     62  CD1 LEU B   5     -15.719 -16.510 -34.317  1.00 54.72 LIG 0.01  C 
ENDBRANCH 59 60
ENDBRANCH 47 59
ENDBRANCH 45 47
ENDBRANCH 42 43
BRANCH 42 63
ATOM     63  CB  LEU B   4     -15.441 -22.300 -29.762  1.00 23.96 LIG 0.04  C 
BRANCH 63 64
ATOM     64  CG  LEU B   4     -15.039 -22.395 -28.307  1.00 38.52 LIG-0.02  C 
ATOM     65  CD1 LEU B   4     -16.221 -22.559 -27.422  1.00 46.71 LIG 0.01  C 
ATOM     66  CD2 LEU B   4     -14.031 -23.543 -28.149  1.00 36.33 LIG 0.01  C 
ENDBRANCH 63 64
ENDBRANCH 42 63
ENDBRANCH 39 42
ENDBRANCH 1 38
TORSDOF 26
ENDMDL
MODEL 7
USER: ADFR SOLUTION from run 149
USER: SCORE 23.654294 LL:  -4.680 LR: -20.040 RR:   0.000 FEB: -12.284
USER: RMSD 5.694813
USER: SEED 148
USER: STATUS searching
USER: GENES 28
USER: genes 0 Translation |==|  0.44751 0.51236 0.38882
USER: genes 1 Rotation |==|  0.59424 0.50528 0.51711 0.99071
USER: genes 2 Torsion [C]-CA--N-[C] |==|  0.78879
USER: genes 3 Torsion [N]-C--CA-[N] |==|  0.90452
USER: genes 4 Torsion [C]-CA--CB-[CG] |==|  0.11016
USER: genes 5 Torsion [CA]-CB--CG-[CD] |==|  0.33664
USER: genes 6 Torsion [CB]-CG--CD-[NE] |==|  0.60789
USER: genes 7 Torsion [CG]-CD--NE-[HE] |==|  0.21526
USER: genes 8 Torsion [C]-CA--N-[C] |==|  0.77792
USER: genes 9 Torsion [N]-C--CA-[N] |==|  0.49345
USER: genes 10 Torsion [C]-CA--N-[H3] |==|  0.35931
USER: genes 11 Torsion [C]-CA--CB-[CG] |==|  0.48443
USER: genes 12 Torsion [CA]-CB--CG-[ND2] |==|  0.30516
USER: genes 13 Torsion [N]-CA--CB-[CG] |==|  0.80828
USER: genes 14 Torsion [CA]-CB--CG-[CD1] |==|  0.57800
USER: genes 15 Torsion [N]-CA--C-[N] |==|  0.27949
USER: genes 16 Torsion [C]-N--CA-[CB] |==|  0.50849
USER: genes 17 Torsion [N]-CA--C-[N] |==|  0.40674
USER: genes 18 Torsion [C]-N--CA-[C] |==|  0.80877
USER: genes 19 Torsion [N]-CA--C-[N] |==|  0.45355
USER: genes 20 Torsion [C]-N--CA-[C] |==|  0.58949
USER: genes 21 Torsion [N]-CA--CB-[CG2] |==|  0.47757
USER: genes 22 Torsion [CA]-CB--OG1-[HG1] |==|  0.61245
USER: genes 23 Torsion [N]-CA--C-[O] |==|  0.18224
USER: genes 24 Torsion [N]-CA--CB-[CG] |==|  0.27172
USER: genes 25 Torsion [CA]-CB--CG-[CD2] |==|  0.70236
USER: genes 26 Torsion [N]-CA--CB-[CG] |==|  0.57871
USER: genes 27 Torsion [CA]-CB--CG-[CD1] |==|  0.96255
ROOT
ATOM      1  CA  LEU B   3     -19.401 -22.565 -30.652  1.00 17.18 LIG 0.18  C 
ENDROOT
BRANCH 1 2
ATOM      2  N   LEU B   3     -20.360 -23.358 -29.978  1.00 21.09 LIG-0.35  N 
ATOM      3  C   ARG B   2     -20.071 -24.587 -29.559  1.00 20.79 LIG 0.24  C 
ATOM      4 O    ARG B   2     -18.934 -25.095 -29.649  1.00 18.81 LIG-0.27  OA
ATOM      5 H    LEU B   3     -21.125 -22.980 -29.870  1.00 21.09 LIG 0.16  HD
BRANCH 3 6
ATOM      6  CA  ARG B   2     -21.250 -25.387 -29.021  1.00 21.42 LIG 0.18  C 
BRANCH 6 7
ATOM      7  CB  ARG B   2     -21.973 -26.190 -30.108  1.00 36.36 LIG 0.04  C 
BRANCH 7 8
ATOM      8  CG  ARG B   2     -21.004 -26.808 -31.099  1.00 41.67 LIG 0.02  C 
BRANCH 8 9
ATOM      9  CD  ARG B   2     -21.107 -28.332 -31.176  1.00 51.14 LIG 0.14  C 
BRANCH 9 10
ATOM     10  NE  ARG B   2     -19.783 -28.965 -31.318  1.00 53.41 LIG-0.23  N 
ATOM     11 HE   ARG B   2     -19.298 -29.026 -30.610  1.00 53.41 LIG 0.18  HD
ATOM     12  CZ  ARG B   2     -19.274 -29.452 -32.455  1.00 50.83 LIG 0.67  C 
ATOM     13  NH1 ARG B   2     -19.964 -29.390 -33.586  1.00 40.00 LIG-0.23  N 
ATOM     14  NH2 ARG B   2     -18.055 -29.996 -32.459  1.00 54.23 LIG-0.23  N 
ATOM     15 1HH1 ARG B   2     -20.747 -29.034 -33.593  1.00 40.00 LIG 0.17  HD
ATOM     16 2HH1 ARG B   2     -19.629 -29.705 -34.313  1.00 40.00 LIG 0.17  HD
ATOM     17 1HH2 ARG B   2     -17.599 -30.033 -31.731  1.00 54.23 LIG 0.17  HD
ATOM     18 2HH2 ARG B   2     -17.727 -30.309 -33.188  1.00 54.23 LIG 0.17  HD
ENDBRANCH 9 10
ENDBRANCH 8 9
ENDBRANCH 7 8
ENDBRANCH 6 7
BRANCH 6 19
ATOM     19  N   ARG B   2     -22.146 -24.466 -28.357  1.00 29.89 LIG-0.35  N 
ATOM     20  C   ASN B   1     -21.889 -24.048 -27.125  1.00 39.87 LIG 0.25  C 
ATOM     21 O    ASN B   1     -21.102 -24.636 -26.371  1.00 37.46 LIG-0.27  OA
ATOM     22 H    ARG B   2     -22.831 -24.228 -28.820  1.00 29.89 LIG 0.16  HD
BRANCH 20 23
ATOM     23  CA  ASN B   1     -22.645 -22.784 -26.678  1.00 47.73 LIG 0.28  C 
BRANCH 23 24
ATOM     24  N   ASN B   1     -22.388 -22.382 -25.317  1.00 51.86 LIG-0.07  N 
ATOM     25 H3   ASN B   1     -22.170 -21.520 -25.298  1.00 51.86 LIG 0.28  HD
ATOM     26 H1   ASN B   1     -23.118 -22.515 -24.825  1.00 51.86 LIG 0.28  HD
ATOM     27 H2   ASN B   1     -21.717 -22.865 -24.987  1.00 51.86 LIG 0.28  HD
ENDBRANCH 23 24
BRANCH 23 28
ATOM     28  CB  ASN B   1     -22.367 -21.591 -27.570  1.00 49.79 LIG 0.14  C 
BRANCH 28 29
ATOM     29  CG  ASN B   1     -23.225 -20.408 -27.188  1.00 59.47 LIG 0.22  C 
ATOM     30  ND2 ASN B   1     -22.602 -19.369 -26.620  1.00 63.81 LIG-0.37  N 
ATOM     31 21HD ASN B   1     -23.054 -18.684 -26.366  1.00 63.81 LIG 0.16  HD
ATOM     32 22HD ASN B   1     -21.749 -19.388 -26.510  1.00 63.81 LIG 0.16  HD
ATOM     33 OD1  ASN B   1     -24.439 -20.434 -27.370  1.00 60.25 LIG-0.27  OA
ENDBRANCH 28 29
ENDBRANCH 23 28
ENDBRANCH 20 23
ENDBRANCH 6 19
ENDBRANCH 3 6
ENDBRANCH 1 2
BRANCH 1 34
ATOM     34  CB  LEU B   3     -20.115 -21.453 -31.469  1.00 28.79 LIG 0.04  C 
BRANCH 34 35
ATOM     35  CG  LEU B   3     -20.890 -22.039 -32.654  1.00 33.15 LIG-0.02  C 
ATOM     36  CD2 LEU B   3     -20.217 -23.329 -33.104  1.00 30.13 LIG 0.01  C 
ATOM     37  CD1 LEU B   3     -21.041 -21.068 -33.862  1.00 27.67 LIG 0.01  C 
ENDBRANCH 34 35
ENDBRANCH 1 34
BRANCH 1 38
ATOM     38  C   LEU B   3     -18.371 -21.991 -29.704  1.00 20.33 LIG 0.24  C 
ATOM     39  N   LEU B   4     -17.201 -22.622 -29.669  1.00 23.83 LIG-0.35  N 
ATOM     40 H    LEU B   4     -17.010 -23.314 -30.142  1.00 23.83 LIG 0.16  HD
ATOM     41 O    LEU B   3     -18.607 -20.999 -29.021  1.00 22.70 LIG-0.27  OA
BRANCH 39 42
ATOM     42  CA  LEU B   4     -16.129 -22.164 -28.794  1.00 22.91 LIG 0.18  C 
BRANCH 42 43
ATOM     43  C   LEU B   4     -15.764 -20.729 -29.186  1.00 30.74 LIG 0.24  C 
ATOM     44 O    LEU B   4     -15.802 -20.350 -30.391  1.00 30.11 LIG-0.27  OA
ATOM     45  N   LEU B   5     -15.378 -19.917 -28.211  1.00 32.41 LIG-0.35  N 
ATOM     46 H    LEU B   5     -15.395 -20.098 -27.370  1.00 32.41 LIG 0.16  HD
BRANCH 45 47
ATOM     47  CA  LEU B   5     -14.873 -18.586 -28.572  1.00 35.50 LIG 0.18  C 
BRANCH 47 48
ATOM     48  C   LEU B   5     -13.530 -18.698 -29.283  1.00 33.38 LIG 0.24  C 
ATOM     49 O    LEU B   5     -12.850 -19.746 -29.220  1.00 25.58 LIG-0.27  OA
ATOM     50  N   THR B   6     -13.164 -17.608 -29.949  1.00 32.99 LIG-0.34  N 
ATOM     51 H    THR B   6     -13.700 -16.953 -30.099  1.00 32.99 LIG 0.16  HD
BRANCH 50 52
ATOM     52  CA  THR B   6     -11.830 -17.397 -30.494  1.00 39.09 LIG 0.19  C 
BRANCH 52 53
ATOM     53  CB  THR B   6     -11.759 -17.874 -31.970  1.00 66.99 LIG 0.14  C 
ATOM     54  CG2 THR B   6     -10.440 -17.479 -32.605  1.00 64.52 LIG 0.04  C 
BRANCH 53 55
ATOM     55 OG1  THR B   6     -11.886 -19.308 -32.028  1.00 68.32 LIG-0.39  OA
ATOM     56 HG1  THR B   6     -11.352 -19.615 -32.599  1.00 68.32 LIG 0.21  HD
ENDBRANCH 53 55
ENDBRANCH 52 53
BRANCH 52 57
ATOM     57  C   THR B   6     -11.509 -15.896 -30.447  1.00 46.48 LIG 0.22  C 
ATOM     58 O    THR B   6     -11.391 -15.306 -29.362  1.00 50.47 LIG-0.29  OA
ENDBRANCH 52 57
ENDBRANCH 50 52
ENDBRANCH 47 48
BRANCH 47 59
ATOM     59  CB  LEU B   5     -14.693 -17.711 -27.338  1.00 41.25 LIG 0.04  C 
BRANCH 59 60
ATOM     60  CG  LEU B   5     -13.300 -17.604 -26.737  1.00 47.99 LIG-0.02  C 
ATOM     61  CD2 LEU B   5     -13.227 -18.373 -25.447  1.00 50.88 LIG 0.01  C 
ATOM     62  CD1 LEU B   5     -13.010 -16.138 -26.487  1.00 54.72 LIG 0.01  C 
ENDBRANCH 59 60
ENDBRANCH 47 59
ENDBRANCH 45 47
ENDBRANCH 42 43
BRANCH 42 63
ATOM     63  CB  LEU B   4     -14.922 -23.044 -29.049  1.00 23.96 LIG 0.04  C 
BRANCH 63 64
ATOM     64  CG  LEU B   4     -13.869 -23.333 -28.002  1.00 38.52 LIG-0.02  C 
ATOM     65  CD1 LEU B   4     -13.987 -22.417 -26.839  1.00 46.71 LIG 0.01  C 
ATOM     66  CD2 LEU B   4     -13.977 -24.810 -27.590  1.00 36.33 LIG 0.01  C 
ENDBRANCH 63 64
ENDBRANCH 42 63
ENDBRANCH 39 42
ENDBRANCH 1 38
TORSDOF 26
ENDMDL
MODEL 8
USER: ADFR SOLUTION from run 78
USER: SCORE 22.720362 LL:  -4.286 LR: -19.998 RR:   0.000 FEB: -12.243
USER: RMSD 5.440981
USER: SEED 77
USER: STATUS no improvement in best in 6 clusters for 5 generations
USER: GENES 28
USER: genes 0 Translation |==|  0.44167 0.52134 0.36228
USER: genes 1 Rotation |==|  0.58093 0.54340 0.53753 0.99006
USER: genes 2 Torsion [C]-CA--N-[C] |==|  0.81879
USER: genes 3 Torsion [N]-C--CA-[N] |==|  0.89680
USER: genes 4 Torsion [C]-CA--CB-[CG] |==|  0.23858
USER: genes 5 Torsion [CA]-CB--CG-[CD] |==|  0.55242
USER: genes 6 Torsion [CB]-CG--CD-[NE] |==|  0.43246
USER: genes 7 Torsion [CG]-CD--NE-[HE] |==|  0.06836
USER: genes 8 Torsion [C]-CA--N-[C] |==|  0.73366
USER: genes 9 Torsion [N]-C--CA-[N] |==|  0.54215
USER: genes 10 Torsion [C]-CA--N-[H3] |==|  0.36945
USER: genes 11 Torsion [C]-CA--CB-[CG] |==|  0.54082
USER: genes 12 Torsion [CA]-CB--CG-[ND2] |==|  0.26776
USER: genes 13 Torsion [N]-CA--CB-[CG] |==|  0.78864
USER: genes 14 Torsion [CA]-CB--CG-[CD1] |==|  0.58843
USER: genes 15 Torsion [N]-CA--C-[N] |==|  0.36781
USER: genes 16 Torsion [C]-N--CA-[CB] |==|  0.27778
USER: genes 17 Torsion [N]-CA--C-[N] |==|  0.40938
USER: genes 18 Torsion [C]-N--CA-[C] |==|  0.64541
USER: genes 19 Torsion [N]-CA--C-[N] |==|  0.47673
USER: genes 20 Torsion [C]-N--CA-[C] |==|  0.68836
USER: genes 21 Torsion [N]-CA--CB-[CG2] |==|  0.28278
USER: genes 22 Torsion [CA]-CB--OG1-[HG1] |==|  0.03480
USER: genes 23 Torsion [N]-CA--C-[O] |==|  0.97684
USER: genes 24 Torsion [N]-CA--CB-[CG] |==|  0.72389
USER: genes 25 Torsion [CA]-CB--CG-[CD2] |==|  0.73419
USER: genes 26 Torsion [N]-CA--CB-[CG] |==|  0.65623
USER: genes 27 Torsion [CA]-CB--CG-[CD1] |==|  0.25446
ROOT
ATOM      1  CA  LEU B   3     -19.546 -22.343 -31.209  1.00 17.18 LIG 0.18  C 
ENDROOT
BRANCH 1 2
ATOM      2  N   LEU B   3     -20.314 -23.189 -30.375  1.00 21.09 LIG-0.35  N 
ATOM      3  C   ARG B   2     -19.772 -24.241 -29.768  1.00 20.79 LIG 0.24  C 
ATOM      4 O    ARG B   2     -18.554 -24.512 -29.817  1.00 18.81 LIG-0.27  OA
ATOM      5 H    LEU B   3     -21.141 -22.963 -30.301  1.00 21.09 LIG 0.16  HD
BRANCH 3 6
ATOM      6  CA  ARG B   2     -20.755 -25.162 -29.057  1.00 21.42 LIG 0.18  C 
BRANCH 6 7
ATOM      7  CB  ARG B   2     -21.350 -26.229 -29.982  1.00 36.36 LIG 0.04  C 
BRANCH 7 8
ATOM      8  CG  ARG B   2     -20.465 -27.458 -30.076  1.00 41.67 LIG 0.02  C 
BRANCH 8 9
ATOM      9  CD  ARG B   2     -20.764 -28.327 -31.299  1.00 51.14 LIG 0.14  C 
BRANCH 9 10
ATOM     10  NE  ARG B   2     -19.599 -29.140 -31.692  1.00 53.41 LIG-0.23  N 
ATOM     11 HE   ARG B   2     -19.020 -29.320 -31.082  1.00 53.41 LIG 0.18  HD
ATOM     12  CZ  ARG B   2     -19.366 -29.621 -32.919  1.00 50.83 LIG 0.67  C 
ATOM     13  NH1 ARG B   2     -20.214 -29.381 -33.911  1.00 40.00 LIG-0.23  N 
ATOM     14  NH2 ARG B   2     -18.267 -30.340 -33.153  1.00 54.23 LIG-0.23  N 
ATOM     15 1HH1 ARG B   2     -20.920 -28.912 -33.769  1.00 40.00 LIG 0.17  HD
ATOM     16 2HH1 ARG B   2     -20.056 -29.694 -34.697  1.00 40.00 LIG 0.17  HD
ATOM     17 1HH2 ARG B   2     -17.709 -30.494 -32.517  1.00 54.23 LIG 0.17  HD
ATOM     18 2HH2 ARG B   2     -18.116 -30.650 -33.941  1.00 54.23 LIG 0.17  HD
ENDBRANCH 9 10
ENDBRANCH 8 9
ENDBRANCH 7 8
ENDBRANCH 6 7
BRANCH 6 19
ATOM     19  N   ARG B   2     -21.787 -24.339 -28.464  1.00 29.89 LIG-0.35  N 
ATOM     20  C   ASN B   1     -21.705 -23.970 -27.193  1.00 39.87 LIG 0.25  C 
ATOM     21 O    ASN B   1     -20.971 -24.542 -26.377  1.00 37.46 LIG-0.27  OA
ATOM     22 H    ARG B   2     -22.428 -24.123 -28.995  1.00 29.89 LIG 0.16  HD
BRANCH 20 23
ATOM     23  CA  ASN B   1     -22.598 -22.784 -26.784  1.00 47.73 LIG 0.28  C 
BRANCH 23 24
ATOM     24  N   ASN B   1     -22.252 -22.183 -25.519  1.00 51.86 LIG-0.07  N 
ATOM     25 H3   ASN B   1     -22.227 -21.298 -25.608  1.00 51.86 LIG 0.28  HD
ATOM     26 H1   ASN B   1     -22.863 -22.403 -24.910  1.00 51.86 LIG 0.28  HD
ATOM     27 H2   ASN B   1     -21.454 -22.478 -25.259  1.00 51.86 LIG 0.28  HD
ENDBRANCH 23 24
BRANCH 23 28
ATOM     28  CB  ASN B   1     -22.620 -21.683 -27.825  1.00 49.79 LIG 0.14  C 
BRANCH 28 29
ATOM     29  CG  ASN B   1     -23.195 -20.405 -27.261  1.00 59.47 LIG 0.22  C 
ATOM     30  ND2 ASN B   1     -22.321 -19.495 -26.817  1.00 63.81 LIG-0.37  N 
ATOM     31 21HD ASN B   1     -22.604 -18.763 -26.467  1.00 63.81 LIG 0.16  HD
ATOM     32 22HD ASN B   1     -21.477 -19.643 -26.882  1.00 63.81 LIG 0.16  HD
ATOM     33 OD1  ASN B   1     -24.410 -20.246 -27.193  1.00 60.25 LIG-0.27  OA
ENDBRANCH 28 29
ENDBRANCH 23 28
ENDBRANCH 20 23
ENDBRANCH 6 19
ENDBRANCH 3 6
ENDBRANCH 1 2
BRANCH 1 34
ATOM     34  CB  LEU B   3     -20.480 -21.366 -31.976  1.00 28.79 LIG 0.04  C 
BRANCH 34 35
ATOM     35  CG  LEU B   3     -21.201 -22.071 -33.130  1.00 33.15 LIG-0.02  C 
ATOM     36  CD2 LEU B   3     -20.383 -23.279 -33.568  1.00 30.13 LIG 0.01  C 
ATOM     37  CD1 LEU B   3     -21.494 -21.154 -34.354  1.00 27.67 LIG 0.01  C 
ENDBRANCH 34 35
ENDBRANCH 1 34
BRANCH 1 38
ATOM     38  C   LEU B   3     -18.473 -21.605 -30.438  1.00 20.33 LIG 0.24  C 
ATOM     39  N   LEU B   4     -17.258 -21.624 -30.975  1.00 23.83 LIG-0.35  N 
ATOM     40 H    LEU B   4     -17.060 -22.020 -31.712  1.00 23.83 LIG 0.16  HD
ATOM     41 O    LEU B   3     -18.723 -21.020 -29.388  1.00 22.70 LIG-0.27  OA
BRANCH 39 42
ATOM     42  CA  LEU B   4     -16.140 -20.949 -30.325  1.00 22.91 LIG 0.18  C 
BRANCH 42 43
ATOM     43  C   LEU B   4     -15.246 -20.340 -31.409  1.00 30.74 LIG 0.24  C 
ATOM     44 O    LEU B   4     -15.088 -20.913 -32.525  1.00 30.11 LIG-0.27  OA
ATOM     45  N   LEU B   5     -14.622 -19.208 -31.111  1.00 32.41 LIG-0.35  N 
ATOM     46 H    LEU B   5     -14.741 -18.743 -30.398  1.00 32.41 LIG 0.16  HD
BRANCH 45 47
ATOM     47  CA  LEU B   5     -13.638 -18.684 -32.067  1.00 35.50 LIG 0.18  C 
BRANCH 47 48
ATOM     48  C   LEU B   5     -12.313 -18.401 -31.369  1.00 33.38 LIG 0.24  C 
ATOM     49 O    LEU B   5     -12.211 -18.461 -30.124  1.00 25.58 LIG-0.27  OA
ATOM     50  N   THR B   6     -11.313 -18.089 -32.188  1.00 32.99 LIG-0.34  N 
ATOM     51 H    THR B   6     -11.362 -18.188 -33.040  1.00 32.99 LIG 0.16  HD
BRANCH 50 52
ATOM     52  CA  THR B   6     -10.036 -17.549 -31.742  1.00 39.09 LIG 0.19  C 
BRANCH 52 53
ATOM     53  CB  THR B   6      -8.857 -18.371 -32.332  1.00 66.99 LIG 0.14  C 
ATOM     54  CG2 THR B   6      -8.226 -17.648 -33.505  1.00 64.52 LIG 0.04  C 
BRANCH 53 55
ATOM     55 OG1  THR B   6      -7.850 -18.575 -31.322  1.00 68.32 LIG-0.39  OA
ATOM     56 HG1  THR B   6      -8.160 -18.365 -30.570  1.00 68.32 LIG 0.21  HD
ENDBRANCH 53 55
ENDBRANCH 52 53
BRANCH 52 57
ATOM     57  C   THR B   6      -9.916 -16.099 -32.230  1.00 46.48 LIG 0.22  C 
ATOM     58 O    THR B   6     -10.748 -15.622 -33.017  1.00 50.47 LIG-0.29  OA
ENDBRANCH 52 57
ENDBRANCH 50 52
ENDBRANCH 47 48
BRANCH 47 59
ATOM     59  CB  LEU B   5     -14.129 -17.392 -32.709  1.00 41.25 LIG 0.04  C 
BRANCH 59 60
ATOM     60  CG  LEU B   5     -14.743 -17.474 -34.097  1.00 47.99 LIG-0.02  C 
ATOM     61  CD2 LEU B   5     -13.710 -17.167 -35.145  1.00 50.88 LIG 0.01  C 
ATOM     62  CD1 LEU B   5     -15.873 -16.468 -34.170  1.00 54.72 LIG 0.01  C 
ENDBRANCH 59 60
ENDBRANCH 47 59
ENDBRANCH 45 47
ENDBRANCH 42 43
BRANCH 42 63
ATOM     63  CB  LEU B   4     -15.337 -22.000 -29.585  1.00 23.96 LIG 0.04  C 
BRANCH 63 64
ATOM     64  CG  LEU B   4     -15.041 -21.928 -28.104  1.00 38.52 LIG-0.02  C 
ATOM     65  CD1 LEU B   4     -16.074 -22.634 -27.304  1.00 46.71 LIG 0.01  C 
ATOM     66  CD2 LEU B   4     -13.632 -22.488 -27.856  1.00 36.33 LIG 0.01  C 
ENDBRANCH 63 64
ENDBRANCH 42 63
ENDBRANCH 39 42
ENDBRANCH 1 38
TORSDOF 26
ENDMDL
MODEL 9
USER: ADFR SOLUTION from run 27
USER: SCORE 22.779735 LL:  -4.751 LR: -19.988 RR:   0.000 FEB: -12.233
USER: RMSD 3.748625
USER: SEED 26
USER: STATUS no improvement in best in 5 clusters for 5 generations
USER: GENES 28
USER: genes 0 Translation |==|  0.44236 0.52825 0.31576
USER: genes 1 Rotation |==|  0.62059 0.48776 0.53749 0.98363
USER: genes 2 Torsion [C]-CA--N-[C] |==|  0.63042
USER: genes 3 Torsion [N]-C--CA-[N] |==|  0.37787
USER: genes 4 Torsion [C]-CA--CB-[CG] |==|  0.13020
USER: genes 5 Torsion [CA]-CB--CG-[CD] |==|  0.31323
USER: genes 6 Torsion [CB]-CG--CD-[NE] |==|  0.22473
USER: genes 7 Torsion [CG]-CD--NE-[HE] |==|  0.97501
USER: genes 8 Torsion [C]-CA--N-[C] |==|  0.81914
USER: genes 9 Torsion [N]-C--CA-[N] |==|  0.48233
USER: genes 10 Torsion [C]-CA--N-[H3] |==|  0.26868
USER: genes 11 Torsion [C]-CA--CB-[CG] |==|  0.35104
USER: genes 12 Torsion [CA]-CB--CG-[ND2] |==|  0.29135
USER: genes 13 Torsion [N]-CA--CB-[CG] |==|  0.87666
USER: genes 14 Torsion [CA]-CB--CG-[CD1] |==|  0.45472
USER: genes 15 Torsion [N]-CA--C-[N] |==|  0.34964
USER: genes 16 Torsion [C]-N--CA-[CB] |==|  0.37035
USER: genes 17 Torsion [N]-CA--C-[N] |==|  0.36040
USER: genes 18 Torsion [C]-N--CA-[C] |==|  0.79807
USER: genes 19 Torsion [N]-CA--C-[N] |==|  0.45265
USER: genes 20 Torsion [C]-N--CA-[C] |==|  0.65885
USER: genes 21 Torsion [N]-CA--CB-[CG2] |==|  0.57561
USER: genes 22 Torsion [CA]-CB--OG1-[HG1] |==|  0.75806
USER: genes 23 Torsion [N]-CA--C-[O] |==|  0.02614
USER: genes 24 Torsion [N]-CA--CB-[CG] |==|  0.04039
USER: genes 25 Torsion [CA]-CB--CG-[CD2] |==|  0.57163
USER: genes 26 Torsion [N]-CA--CB-[CG] |==|  0.55633
USER: genes 27 Torsion [CA]-CB--CG-[CD1] |==|  0.03700
ROOT
ATOM      1  CA  LEU B   3     -19.528 -22.172 -32.186  1.00 17.18 LIG 0.18  C 
ENDROOT
BRANCH 1 2
ATOM      2  N   LEU B   3     -20.477 -23.095 -31.686  1.00 21.09 LIG-0.35  N 
ATOM      3  C   ARG B   2     -20.705 -24.254 -32.298  1.00 20.79 LIG 0.24  C 
ATOM      4 O    ARG B   2     -20.057 -24.648 -33.290  1.00 18.81 LIG-0.27  OA
ATOM      5 H    LEU B   3     -20.880 -22.841 -30.970  1.00 21.09 LIG 0.16  HD
BRANCH 3 6
ATOM      6  CA  ARG B   2     -21.879 -25.058 -31.755  1.00 21.42 LIG 0.18  C 
BRANCH 6 7
ATOM      7  CB  ARG B   2     -21.446 -26.191 -30.819  1.00 36.36 LIG 0.04  C 
BRANCH 7 8
ATOM      8  CG  ARG B   2     -20.431 -25.725 -29.793  1.00 41.67 LIG 0.02  C 
BRANCH 8 9
ATOM      9  CD  ARG B   2     -20.970 -25.737 -28.361  1.00 51.14 LIG 0.14  C 
BRANCH 9 10
ATOM     10  NE  ARG B   2     -20.922 -27.086 -27.769  1.00 53.41 LIG-0.23  N 
ATOM     11 HE   ARG B   2     -20.723 -27.739 -28.292  1.00 53.41 LIG 0.18  HD
ATOM     12  CZ  ARG B   2     -21.163 -27.380 -26.485  1.00 50.83 LIG 0.67  C 
ATOM     13  NH1 ARG B   2     -21.478 -26.423 -25.621  1.00 40.00 LIG-0.23  N 
ATOM     14  NH2 ARG B   2     -21.096 -28.646 -26.069  1.00 54.23 LIG-0.23  N 
ATOM     15 1HH1 ARG B   2     -21.530 -25.606 -25.884  1.00 40.00 LIG 0.17  HD
ATOM     16 2HH1 ARG B   2     -21.632 -26.621 -24.798  1.00 40.00 LIG 0.17  HD
ATOM     17 1HH2 ARG B   2     -20.900 -29.272 -26.625  1.00 54.23 LIG 0.17  HD
ATOM     18 2HH2 ARG B   2     -21.251 -28.835 -25.245  1.00 54.23 LIG 0.17  HD
ENDBRANCH 9 10
ENDBRANCH 8 9
ENDBRANCH 7 8
ENDBRANCH 6 7
BRANCH 6 19
ATOM     19  N   ARG B   2     -22.632 -25.560 -32.884  1.00 29.89 LIG-0.35  N 
ATOM     20  C   ASN B   1     -23.257 -24.724 -33.702  1.00 39.87 LIG 0.25  C 
ATOM     21 O    ASN B   1     -23.512 -23.553 -33.392  1.00 37.46 LIG-0.27  OA
ATOM     22 H    ARG B   2     -22.634 -26.417 -32.967  1.00 29.89 LIG 0.16  HD
BRANCH 20 23
ATOM     23  CA  ASN B   1     -23.661 -25.305 -35.069  1.00 47.73 LIG 0.28  C 
BRANCH 23 24
ATOM     24  N   ASN B   1     -24.463 -24.423 -35.881  1.00 51.86 LIG-0.07  N 
ATOM     25 H3   ASN B   1     -23.939 -23.993 -36.458  1.00 51.86 LIG 0.28  HD
ATOM     26 H1   ASN B   1     -25.068 -24.899 -36.328  1.00 51.86 LIG 0.28  HD
ATOM     27 H2   ASN B   1     -24.876 -23.833 -35.359  1.00 51.86 LIG 0.28  HD
ENDBRANCH 23 24
BRANCH 23 28
ATOM     28  CB  ASN B   1     -22.467 -25.735 -35.897  1.00 49.79 LIG 0.14  C 
BRANCH 28 29
ATOM     29  CG  ASN B   1     -22.602 -27.168 -36.354  1.00 59.47 LIG 0.22  C 
ATOM     30  ND2 ASN B   1     -22.922 -27.365 -37.638  1.00 63.81 LIG-0.37  N 
ATOM     31 21HD ASN B   1     -23.032 -28.164 -37.935  1.00 63.81 LIG 0.16  HD
ATOM     32 22HD ASN B   1     -23.018 -26.692 -38.165  1.00 63.81 LIG 0.16  HD
ATOM     33 OD1  ASN B   1     -22.453 -28.092 -35.558  1.00 60.25 LIG-0.27  OA
ENDBRANCH 28 29
ENDBRANCH 23 28
ENDBRANCH 20 23
ENDBRANCH 6 19
ENDBRANCH 3 6
ENDBRANCH 1 2
BRANCH 1 34
ATOM     34  CB  LEU B   3     -20.256 -21.020 -32.934  1.00 28.79 LIG 0.04  C 
BRANCH 34 35
ATOM     35  CG  LEU B   3     -21.361 -21.557 -33.849  1.00 33.15 LIG-0.02  C 
ATOM     36  CD2 LEU B   3     -20.727 -22.233 -35.058  1.00 30.13 LIG 0.01  C 
ATOM     37  CD1 LEU B   3     -22.383 -20.479 -34.317  1.00 27.67 LIG 0.01  C 
ENDBRANCH 34 35
ENDBRANCH 1 34
BRANCH 1 38
ATOM     38  C   LEU B   3     -18.617 -21.647 -31.098  1.00 20.33 LIG 0.24  C 
ATOM     39  N   LEU B   4     -17.313 -21.779 -31.322  1.00 23.83 LIG-0.35  N 
ATOM     40 H    LEU B   4     -16.977 -22.134 -32.029  1.00 23.83 LIG 0.16  HD
ATOM     41 O    LEU B   3     -19.063 -21.126 -30.081  1.00 22.70 LIG-0.27  OA
BRANCH 39 42
ATOM     42  CA  LEU B   4     -16.334 -21.313 -30.347  1.00 22.91 LIG 0.18  C 
BRANCH 42 43
ATOM     43  C   LEU B   4     -15.623 -20.085 -30.925  1.00 30.74 LIG 0.24  C 
ATOM     44 O    LEU B   4     -15.100 -20.113 -32.075  1.00 30.11 LIG-0.27  OA
ATOM     45  N   LEU B   5     -15.554 -19.009 -30.153  1.00 32.41 LIG-0.35  N 
ATOM     46 H    LEU B   5     -15.945 -18.910 -29.394  1.00 32.41 LIG 0.16  HD
BRANCH 45 47
ATOM     47  CA  LEU B   5     -14.746 -17.873 -30.614  1.00 35.50 LIG 0.18  C 
BRANCH 47 48
ATOM     48  C   LEU B   5     -13.260 -18.195 -30.505  1.00 33.38 LIG 0.24  C 
ATOM     49 O    LEU B   5     -12.852 -19.139 -29.794  1.00 25.58 LIG-0.27  OA
ATOM     50  N   THR B   6     -12.468 -17.395 -31.213  1.00 32.99 LIG-0.34  N 
ATOM     51 H    THR B   6     -12.769 -16.846 -31.802  1.00 32.99 LIG 0.16  HD
BRANCH 50 52
ATOM     52  CA  THR B   6     -11.018 -17.357 -31.076  1.00 39.09 LIG 0.19  C 
BRANCH 52 53
ATOM     53  CB  THR B   6     -10.330 -17.770 -32.406  1.00 66.99 LIG 0.14  C 
ATOM     54  CG2 THR B   6      -8.963 -18.371 -32.145  1.00 64.52 LIG 0.04  C 
BRANCH 53 55
ATOM     55 OG1  THR B   6     -11.138 -18.746 -33.092  1.00 68.32 LIG-0.39  OA
ATOM     56 HG1  THR B   6     -10.942 -19.515 -32.819  1.00 68.32 LIG 0.21  HD
ENDBRANCH 53 55
ENDBRANCH 52 53
BRANCH 52 57
ATOM     57  C   THR B   6     -10.594 -15.924 -30.727  1.00 46.48 LIG 0.22  C 
ATOM     58 O    THR B   6     -11.439 -15.064 -30.437  1.00 50.47 LIG-0.29  OA
ENDBRANCH 52 57
ENDBRANCH 50 52
ENDBRANCH 47 48
BRANCH 47 59
ATOM     59  CB  LEU B   5     -15.029 -16.624 -29.788  1.00 41.25 LIG 0.04  C 
BRANCH 59 60
ATOM     60  CG  LEU B   5     -15.777 -16.792 -28.475  1.00 47.99 LIG-0.02  C 
ATOM     61  CD2 LEU B   5     -16.502 -15.523 -28.122  1.00 50.88 LIG 0.01  C 
ATOM     62  CD1 LEU B   5     -14.767 -17.131 -27.399  1.00 54.72 LIG 0.01  C 
ENDBRANCH 59 60
ENDBRANCH 47 59
ENDBRANCH 45 47
ENDBRANCH 42 43
BRANCH 42 63
ATOM     63  CB  LEU B   4     -15.307 -22.412 -30.167  1.00 23.96 LIG 0.04  C 
BRANCH 63 64
ATOM     64  CG  LEU B   4     -14.405 -22.514 -28.957  1.00 38.52 LIG-0.02  C 
ATOM     65  CD1 LEU B   4     -14.860 -21.625 -27.858  1.00 46.71 LIG 0.01  C 
ATOM     66  CD2 LEU B   4     -14.333 -23.986 -28.521  1.00 36.33 LIG 0.01  C 
ENDBRANCH 63 64
ENDBRANCH 42 63
ENDBRANCH 39 42
ENDBRANCH 1 38
TORSDOF 26
ENDMDL
MODEL 10
USER: ADFR SOLUTION from run 149
USER: SCORE 23.162087 LL:  -4.700 LR: -19.977 RR:   0.000 FEB: -12.222
USER: RMSD 3.814520
USER: SEED 148
USER: STATUS searching
USER: GENES 28
USER: genes 0 Translation |==|  0.44227 0.51082 0.38609
USER: genes 1 Rotation |==|  0.60361 0.51601 0.53226 0.98782
USER: genes 2 Torsion [C]-CA--N-[C] |==|  0.79075
USER: genes 3 Torsion [N]-C--CA-[N] |==|  0.40963
USER: genes 4 Torsion [C]-CA--CB-[CG] |==|  0.10180
USER: genes 5 Torsion [CA]-CB--CG-[CD] |==|  0.24351
USER: genes 6 Torsion [CB]-CG--CD-[NE] |==|  0.51182
USER: genes 7 Torsion [CG]-CD--NE-[HE] |==|  0.82555
USER: genes 8 Torsion [C]-CA--N-[C] |==|  0.82694
USER: genes 9 Torsion [N]-C--CA-[N] |==|  0.13229
USER: genes 10 Torsion [C]-CA--N-[H3] |==|  0.56476
USER: genes 11 Torsion [C]-CA--CB-[CG] |==|  0.42543
USER: genes 12 Torsion [CA]-CB--CG-[ND2] |==|  0.51644
USER: genes 13 Torsion [N]-CA--CB-[CG] |==|  0.78942
USER: genes 14 Torsion [CA]-CB--CG-[CD1] |==|  0.59012
USER: genes 15 Torsion [N]-CA--C-[N] |==|  0.26567
USER: genes 16 Torsion [C]-N--CA-[CB] |==|  0.52778
USER: genes 17 Torsion [N]-CA--C-[N] |==|  0.40033
USER: genes 18 Torsion [C]-N--CA-[C] |==|  0.68194
USER: genes 19 Torsion [N]-CA--C-[N] |==|  0.68980
USER: genes 20 Torsion [C]-N--CA-[C] |==|  0.77197
USER: genes 21 Torsion [N]-CA--CB-[CG2] |==|  0.57465
USER: genes 22 Torsion [CA]-CB--OG1-[HG1] |==|  0.32289
USER: genes 23 Torsion [N]-CA--C-[O] |==|  0.94805
USER: genes 24 Torsion [N]-CA--CB-[CG] |==|  0.62727
USER: genes 25 Torsion [CA]-CB--CG-[CD2] |==|  0.90675
USER: genes 26 Torsion [N]-CA--CB-[CG] |==|  0.58411
USER: genes 27 Torsion [CA]-CB--CG-[CD1] |==|  0.94938
ROOT
ATOM      1  CA  LEU B   3     -19.531 -22.603 -30.709  1.00 17.18 LIG 0.18  C 
ENDROOT
BRANCH 1 2
ATOM      2  N   LEU B   3     -20.411 -23.484 -30.038  1.00 21.09 LIG-0.35  N 
ATOM      3  C   ARG B   2     -20.022 -24.700 -29.664  1.00 20.79 LIG 0.24  C 
ATOM      4 O    ARG B   2     -18.854 -25.120 -29.797  1.00 18.81 LIG-0.27  OA
ATOM      5 H    LEU B   3     -21.199 -23.167 -29.901  1.00 21.09 LIG 0.16  HD
BRANCH 3 6
ATOM      6  CA  ARG B   2     -21.126 -25.601 -29.124  1.00 21.42 LIG 0.18  C 
BRANCH 6 7
ATOM      7  CB  ARG B   2     -21.331 -25.452 -27.612  1.00 36.36 LIG 0.04  C 
BRANCH 7 8
ATOM      8  CG  ARG B   2     -21.146 -24.019 -27.151  1.00 41.67 LIG 0.02  C 
BRANCH 8 9
ATOM      9  CD  ARG B   2     -22.428 -23.188 -27.230  1.00 51.14 LIG 0.14  C 
BRANCH 9 10
ATOM     10  NE  ARG B   2     -22.191 -21.778 -26.870  1.00 53.41 LIG-0.23  N 
ATOM     11 HE   ARG B   2     -21.923 -21.615 -26.070  1.00 53.41 LIG 0.18  HD
ATOM     12  CZ  ARG B   2     -22.358 -20.730 -27.686  1.00 50.83 LIG 0.67  C 
ATOM     13  NH1 ARG B   2     -22.772 -20.905 -28.935  1.00 40.00 LIG-0.23  N 
ATOM     14  NH2 ARG B   2     -22.117 -19.496 -27.241  1.00 54.23 LIG-0.23  N 
ATOM     15 1HH1 ARG B   2     -22.936 -21.697 -29.226  1.00 40.00 LIG 0.17  HD
ATOM     16 2HH1 ARG B   2     -22.877 -20.226 -29.452  1.00 40.00 LIG 0.17  HD
ATOM     17 1HH2 ARG B   2     -21.855 -19.374 -26.430  1.00 54.23 LIG 0.17  HD
ATOM     18 2HH2 ARG B   2     -22.224 -18.822 -27.763  1.00 54.23 LIG 0.17  HD
ENDBRANCH 9 10
ENDBRANCH 8 9
ENDBRANCH 7 8
ENDBRANCH 6 7
BRANCH 6 19
ATOM     19  N   ARG B   2     -20.803 -26.964 -29.484  1.00 29.89 LIG-0.35  N 
ATOM     20  C   ASN B   1     -20.723 -27.322 -30.758  1.00 39.87 LIG 0.25  C 
ATOM     21 O    ASN B   1     -21.218 -26.650 -31.673  1.00 37.46 LIG-0.27  OA
ATOM     22 H    ARG B   2     -20.675 -27.495 -28.819  1.00 29.89 LIG 0.16  HD
BRANCH 20 23
ATOM     23  CA  ASN B   1     -19.980 -28.642 -31.035  1.00 47.73 LIG 0.28  C 
BRANCH 23 24
ATOM     24  N   ASN B   1     -20.380 -29.742 -30.192  1.00 51.86 LIG-0.07  N 
ATOM     25 H3   ASN B   1     -19.724 -30.341 -30.156  1.00 51.86 LIG 0.28  HD
ATOM     26 H1   ASN B   1     -20.552 -29.440 -29.373  1.00 51.86 LIG 0.28  HD
ATOM     27 H2   ASN B   1     -21.111 -30.122 -30.528  1.00 51.86 LIG 0.28  HD
ENDBRANCH 23 24
BRANCH 23 28
ATOM     28  CB  ASN B   1     -20.111 -29.095 -32.475  1.00 49.79 LIG 0.14  C 
BRANCH 28 29
ATOM     29  CG  ASN B   1     -18.933 -29.942 -32.894  1.00 59.47 LIG 0.22  C 
ATOM     30  ND2 ASN B   1     -18.874 -30.300 -34.181  1.00 63.81 LIG-0.37  N 
ATOM     31 21HD ASN B   1     -18.234 -30.802 -34.459  1.00 63.81 LIG 0.16  HD
ATOM     32 22HD ASN B   1     -19.477 -30.028 -34.731  1.00 63.81 LIG 0.16  HD
ATOM     33 OD1  ASN B   1     -18.099 -30.301 -32.067  1.00 60.25 LIG-0.27  OA
ENDBRANCH 28 29
ENDBRANCH 23 28
ENDBRANCH 20 23
ENDBRANCH 6 19
ENDBRANCH 3 6
ENDBRANCH 1 2
BRANCH 1 34
ATOM     34  CB  LEU B   3     -20.345 -21.512 -31.460  1.00 28.79 LIG 0.04  C 
BRANCH 34 35
ATOM     35  CG  LEU B   3     -20.982 -22.070 -32.737  1.00 33.15 LIG-0.02  C 
ATOM     36  CD2 LEU B   3     -20.189 -23.284 -33.204  1.00 30.13 LIG 0.01  C 
ATOM     37  CD1 LEU B   3     -21.104 -21.036 -33.895  1.00 27.67 LIG 0.01  C 
ENDBRANCH 34 35
ENDBRANCH 1 34
BRANCH 1 38
ATOM     38  C   LEU B   3     -18.510 -21.996 -29.772  1.00 20.33 LIG 0.24  C 
ATOM     39  N   LEU B   4     -17.332 -22.610 -29.722  1.00 23.83 LIG-0.35  N 
ATOM     40 H    LEU B   4     -17.131 -23.309 -30.180  1.00 23.83 LIG 0.16  HD
ATOM     41 O    LEU B   3     -18.761 -20.993 -29.110  1.00 22.70 LIG-0.27  OA
BRANCH 39 42
ATOM     42  CA  LEU B   4     -16.268 -22.120 -28.855  1.00 22.91 LIG 0.18  C 
BRANCH 42 43
ATOM     43  C   LEU B   4     -16.042 -20.635 -29.158  1.00 30.74 LIG 0.24  C 
ATOM     44 O    LEU B   4     -16.118 -20.190 -30.338  1.00 30.11 LIG-0.27  OA
ATOM     45  N   LEU B   5     -15.732 -19.851 -28.134  1.00 32.41 LIG-0.35  N 
ATOM     46 H    LEU B   5     -15.731 -20.083 -27.306  1.00 32.41 LIG 0.16  HD
BRANCH 45 47
ATOM     47  CA  LEU B   5     -15.357 -18.459 -28.413  1.00 35.50 LIG 0.18  C 
BRANCH 47 48
ATOM     48  C   LEU B   5     -13.900 -18.212 -28.038  1.00 33.38 LIG 0.24  C 
ATOM     49 O    LEU B   5     -12.968 -18.747 -28.678  1.00 25.58 LIG-0.27  OA
ATOM     50  N   THR B   6     -13.726 -17.405 -26.997  1.00 32.99 LIG-0.34  N 
ATOM     51 H    THR B   6     -14.364 -16.938 -26.659  1.00 32.99 LIG 0.16  HD
BRANCH 50 52
ATOM     52  CA  THR B   6     -12.453 -17.220 -26.315  1.00 39.09 LIG 0.19  C 
BRANCH 52 53
ATOM     53  CB  THR B   6     -12.437 -15.878 -25.535  1.00 66.99 LIG 0.14  C 
ATOM     54  CG2 THR B   6     -11.022 -15.353 -25.387  1.00 64.52 LIG 0.04  C 
BRANCH 53 55
ATOM     55 OG1  THR B   6     -13.221 -14.894 -26.239  1.00 68.32 LIG-0.39  OA
ATOM     56 HG1  THR B   6     -13.878 -14.670 -25.768  1.00 68.32 LIG 0.21  HD
ENDBRANCH 53 55
ENDBRANCH 52 53
BRANCH 52 57
ATOM     57  C   THR B   6     -12.256 -18.371 -25.317  1.00 46.48 LIG 0.22  C 
ATOM     58 O    THR B   6     -13.219 -19.054 -24.938  1.00 50.47 LIG-0.29  OA
ENDBRANCH 52 57
ENDBRANCH 50 52
ENDBRANCH 47 48
BRANCH 47 59
ATOM     59  CB  LEU B   5     -16.227 -17.486 -27.627  1.00 41.25 LIG 0.04  C 
BRANCH 59 60
ATOM     60  CG  LEU B   5     -16.801 -16.286 -28.364  1.00 47.99 LIG-0.02  C 
ATOM     61  CD2 LEU B   5     -15.841 -15.814 -29.421  1.00 50.88 LIG 0.01  C 
ATOM     62  CD1 LEU B   5     -17.042 -15.186 -27.351  1.00 54.72 LIG 0.01  C 
ENDBRANCH 59 60
ENDBRANCH 47 59
ENDBRANCH 45 47
ENDBRANCH 42 43
BRANCH 42 63
ATOM     63  CB  LEU B   4     -15.002 -22.873 -29.212  1.00 23.96 LIG 0.04  C 
BRANCH 63 64
ATOM     64  CG  LEU B   4     -13.906 -23.175 -28.214  1.00 38.52 LIG-0.02  C 
ATOM     65  CD1 LEU B   4     -14.003 -22.305 -27.014  1.00 46.71 LIG 0.01  C 
ATOM     66  CD2 LEU B   4     -13.966 -24.668 -27.855  1.00 36.33 LIG 0.01  C 
ENDBRANCH 63 64
ENDBRANCH 42 63
ENDBRANCH 39 42
ENDBRANCH 1 38
TORSDOF 26
ENDMDL
MODEL 11
USER: ADFR SOLUTION from run 149
USER: SCORE 23.012326 LL:  -4.577 LR: -19.933 RR:   0.000 FEB: -12.177
USER: RMSD 5.280765
USER: SEED 148
USER: STATUS searching
USER: GENES 28
USER: genes 0 Translation |==|  0.44398 0.51934 0.38064
USER: genes 1 Rotation |==|  0.58210 0.49917 0.51575 0.99296
USER: genes 2 Torsion [C]-CA--N-[C] |==|  0.75507
USER: genes 3 Torsion [N]-C--CA-[N] |==|  0.91477
USER: genes 4 Torsion [C]-CA--CB-[CG] |==|  0.36160
USER: genes 5 Torsion [CA]-CB--CG-[CD] |==|  0.98153
USER: genes 6 Torsion [CB]-CG--CD-[NE] |==|  0.22246
USER: genes 7 Torsion [CG]-CD--NE-[HE] |==|  0.99663
USER: genes 8 Torsion [C]-CA--N-[C] |==|  0.75916
USER: genes 9 Torsion [N]-C--CA-[N] |==|  0.51151
USER: genes 10 Torsion [C]-CA--N-[H3] |==|  0.28129
USER: genes 11 Torsion [C]-CA--CB-[CG] |==|  0.44975
USER: genes 12 Torsion [CA]-CB--CG-[ND2] |==|  0.32270
USER: genes 13 Torsion [N]-CA--CB-[CG] |==|  0.80796
USER: genes 14 Torsion [CA]-CB--CG-[CD1] |==|  0.58420
USER: genes 15 Torsion [N]-CA--C-[N] |==|  0.29030
USER: genes 16 Torsion [C]-N--CA-[CB] |==|  0.52306
USER: genes 17 Torsion [N]-CA--C-[N] |==|  0.39966
USER: genes 18 Torsion [C]-N--CA-[C] |==|  0.67959
USER: genes 19 Torsion [N]-CA--C-[N] |==|  0.69357
USER: genes 20 Torsion [C]-N--CA-[C] |==|  0.77384
USER: genes 21 Torsion [N]-CA--CB-[CG2] |==|  0.57356
USER: genes 22 Torsion [CA]-CB--OG1-[HG1] |==|  0.31278
USER: genes 23 Torsion [N]-CA--C-[O] |==|  0.94680
USER: genes 24 Torsion [N]-CA--CB-[CG] |==|  0.61276
USER: genes 25 Torsion [CA]-CB--CG-[CD2] |==|  0.90851
USER: genes 26 Torsion [N]-CA--CB-[CG] |==|  0.59549
USER: genes 27 Torsion [CA]-CB--CG-[CD1] |==|  0.95154
ROOT
ATOM      1  CA  LEU B   3     -19.489 -22.392 -30.823  1.00 17.18 LIG 0.18  C 
ENDROOT
BRANCH 1 2
ATOM      2  N   LEU B   3     -20.472 -23.143 -30.137  1.00 21.09 LIG-0.35  N 
ATOM      3  C   ARG B   2     -20.291 -24.432 -29.861  1.00 20.79 LIG 0.24  C 
ATOM      4 O    ARG B   2     -19.233 -25.047 -30.106  1.00 18.81 LIG-0.27  OA
ATOM      5 H    LEU B   3     -21.176 -22.698 -29.922  1.00 21.09 LIG 0.16  HD
BRANCH 3 6
ATOM      6  CA  ARG B   2     -21.505 -25.152 -29.288  1.00 21.42 LIG 0.18  C 
BRANCH 6 7
ATOM      7  CB  ARG B   2     -22.357 -25.835 -30.363  1.00 36.36 LIG 0.04  C 
BRANCH 7 8
ATOM      8  CG  ARG B   2     -22.662 -27.280 -30.015  1.00 41.67 LIG 0.02  C 
BRANCH 8 9
ATOM      9  CD  ARG B   2     -21.925 -27.770 -28.768  1.00 51.14 LIG 0.14  C 
BRANCH 9 10
ATOM     10  NE  ARG B   2     -22.592 -27.331 -27.529  1.00 53.41 LIG-0.23  N 
ATOM     11 HE   ARG B   2     -23.297 -26.845 -27.611  1.00 53.41 LIG 0.18  HD
ATOM     12  CZ  ARG B   2     -22.193 -27.626 -26.285  1.00 50.83 LIG 0.67  C 
ATOM     13  NH1 ARG B   2     -21.113 -28.368 -26.081  1.00 40.00 LIG-0.23  N 
ATOM     14  NH2 ARG B   2     -22.879 -27.161 -25.240  1.00 54.23 LIG-0.23  N 
ATOM     15 1HH1 ARG B   2     -20.662 -28.665 -26.750  1.00 40.00 LIG 0.17  HD
ATOM     16 2HH1 ARG B   2     -20.864 -28.553 -25.278  1.00 40.00 LIG 0.17  HD
ATOM     17 1HH2 ARG B   2     -23.576 -26.673 -25.365  1.00 54.23 LIG 0.17  HD
ATOM     18 2HH2 ARG B   2     -22.624 -27.350 -24.441  1.00 54.23 LIG 0.17  HD
ENDBRANCH 9 10
ENDBRANCH 8 9
ENDBRANCH 7 8
ENDBRANCH 6 7
BRANCH 6 19
ATOM     19  N   ARG B   2     -22.276 -24.191 -28.531  1.00 29.89 LIG-0.35  N 
ATOM     20  C   ASN B   1     -21.995 -23.956 -27.257  1.00 39.87 LIG 0.25  C 
ATOM     21 O    ASN B   1     -21.321 -24.733 -26.568  1.00 37.46 LIG-0.27  OA
ATOM     22 H    ARG B   2     -22.907 -23.805 -28.971  1.00 29.89 LIG 0.16  HD
BRANCH 20 23
ATOM     23  CA  ASN B   1     -22.572 -22.652 -26.675  1.00 47.73 LIG 0.28  C 
BRANCH 23 24
ATOM     24  N   ASN B   1     -22.174 -22.375 -25.317  1.00 51.86 LIG-0.07  N 
ATOM     25 H3   ASN B   1     -21.525 -21.766 -25.317  1.00 51.86 LIG 0.28  HD
ATOM     26 H1   ASN B   1     -22.872 -22.065 -24.860  1.00 51.86 LIG 0.28  HD
ATOM     27 H2   ASN B   1     -21.879 -23.123 -24.936  1.00 51.86 LIG 0.28  HD
ENDBRANCH 23 24
BRANCH 23 28
ATOM     28  CB  ASN B   1     -22.230 -21.437 -27.512  1.00 49.79 LIG 0.14  C 
BRANCH 28 29
ATOM     29  CG  ASN B   1     -23.141 -20.276 -27.192  1.00 59.47 LIG 0.22  C 
ATOM     30  ND2 ASN B   1     -22.569 -19.188 -26.664  1.00 63.81 LIG-0.37  N 
ATOM     31 21HD ASN B   1     -23.052 -18.511 -26.445  1.00 63.81 LIG 0.16  HD
ATOM     32 22HD ASN B   1     -21.718 -19.165 -26.545  1.00 63.81 LIG 0.16  HD
ATOM     33 OD1  ASN B   1     -24.351 -20.361 -27.385  1.00 60.25 LIG-0.27  OA
ENDBRANCH 28 29
ENDBRANCH 23 28
ENDBRANCH 20 23
ENDBRANCH 6 19
ENDBRANCH 3 6
ENDBRANCH 1 2
BRANCH 1 34
ATOM     34  CB  LEU B   3     -20.171 -21.314 -31.711  1.00 28.79 LIG 0.04  C 
BRANCH 34 35
ATOM     35  CG  LEU B   3     -20.920 -21.951 -32.887  1.00 33.15 LIG-0.02  C 
ATOM     36  CD2 LEU B   3     -20.282 -23.293 -33.221  1.00 30.13 LIG 0.01  C 
ATOM     37  CD1 LEU B   3     -20.984 -21.059 -34.162  1.00 27.67 LIG 0.01  C 
ENDBRANCH 34 35
ENDBRANCH 1 34
BRANCH 1 38
ATOM     38  C   LEU B   3     -18.476 -21.782 -29.879  1.00 20.33 LIG 0.24  C 
ATOM     39  N   LEU B   4     -17.286 -22.375 -29.845  1.00 23.83 LIG-0.35  N 
ATOM     40 H    LEU B   4     -17.074 -23.061 -30.316  1.00 23.83 LIG 0.16  HD
ATOM     41 O    LEU B   3     -18.743 -20.796 -29.199  1.00 22.70 LIG-0.27  OA
BRANCH 39 42
ATOM     42  CA  LEU B   4     -16.228 -21.880 -28.973  1.00 22.91 LIG 0.18  C 
BRANCH 42 43
ATOM     43  C   LEU B   4     -16.002 -20.396 -29.280  1.00 30.74 LIG 0.24  C 
ATOM     44 O    LEU B   4     -16.067 -19.955 -30.463  1.00 30.11 LIG-0.27  OA
ATOM     45  N   LEU B   5     -15.705 -19.606 -28.257  1.00 32.41 LIG-0.35  N 
ATOM     46 H    LEU B   5     -15.711 -19.835 -27.428  1.00 32.41 LIG 0.16  HD
BRANCH 45 47
ATOM     47  CA  LEU B   5     -15.330 -18.214 -28.537  1.00 35.50 LIG 0.18  C 
BRANCH 47 48
ATOM     48  C   LEU B   5     -13.884 -17.957 -28.130  1.00 33.38 LIG 0.24  C 
ATOM     49 O    LEU B   5     -12.933 -18.472 -28.758  1.00 25.58 LIG-0.27  OA
ATOM     50  N   THR B   6     -13.740 -17.164 -27.073  1.00 32.99 LIG-0.34  N 
ATOM     51 H    THR B   6     -14.390 -16.708 -26.742  1.00 32.99 LIG 0.16  HD
BRANCH 50 52
ATOM     52  CA  THR B   6     -12.483 -16.975 -26.363  1.00 39.09 LIG 0.19  C 
BRANCH 52 53
ATOM     53  CB  THR B   6     -12.505 -15.652 -25.551  1.00 66.99 LIG 0.14  C 
ATOM     54  CG2 THR B   6     -11.102 -15.112 -25.354  1.00 64.52 LIG 0.04  C 
BRANCH 53 55
ATOM     55 OG1  THR B   6     -13.285 -14.662 -26.249  1.00 68.32 LIG-0.39  OA
ATOM     56 HG1  THR B   6     -13.982 -14.494 -25.812  1.00 68.32 LIG 0.21  HD
ENDBRANCH 53 55
ENDBRANCH 52 53
BRANCH 52 57
ATOM     57  C   THR B   6     -12.285 -18.146 -25.390  1.00 46.48 LIG 0.22  C 
ATOM     58 O    THR B   6     -13.245 -18.850 -25.041  1.00 50.47 LIG-0.29  OA
ENDBRANCH 52 57
ENDBRANCH 50 52
ENDBRANCH 47 48
BRANCH 47 59
ATOM     59  CB  LEU B   5     -16.224 -17.240 -27.780  1.00 41.25 LIG 0.04  C 
BRANCH 59 60
ATOM     60  CG  LEU B   5     -16.687 -15.986 -28.505  1.00 47.99 LIG-0.02  C 
ATOM     61  CD2 LEU B   5     -15.632 -15.520 -29.469  1.00 50.88 LIG 0.01  C 
ATOM     62  CD1 LEU B   5     -16.954 -14.916 -27.467  1.00 54.72 LIG 0.01  C 
ENDBRANCH 59 60
ENDBRANCH 47 59
ENDBRANCH 45 47
ENDBRANCH 42 43
BRANCH 42 63
ATOM     63  CB  LEU B   4     -14.959 -22.632 -29.320  1.00 23.96 LIG 0.04  C 
BRANCH 63 64
ATOM     64  CG  LEU B   4     -13.910 -23.007 -28.296  1.00 38.52 LIG-0.02  C 
ATOM     65  CD1 LEU B   4     -14.056 -22.217 -27.048  1.00 46.71 LIG 0.01  C 
ATOM     66  CD2 LEU B   4     -13.993 -24.520 -28.039  1.00 36.33 LIG 0.01  C 
ENDBRANCH 63 64
ENDBRANCH 42 63
ENDBRANCH 39 42
ENDBRANCH 1 38
TORSDOF 26
ENDMDL
MODEL 12
USER: ADFR SOLUTION from run 130
USER: SCORE 22.628941 LL:  -4.806 LR: -19.917 RR:   0.000 FEB: -12.162
USER: RMSD 4.883599
USER: SEED 129
USER: STATUS no improvement in best in 13 clusters for 5 generations
USER: GENES 28
USER: genes 0 Translation |==|  0.43742 0.52287 0.36008
USER: genes 1 Rotation |==|  0.55581 0.56034 0.54141 0.99146
USER: genes 2 Torsion [C]-CA--N-[C] |==|  0.80923
USER: genes 3 Torsion [N]-C--CA-[N] |==|  0.90971
USER: genes 4 Torsion [C]-CA--CB-[CG] |==|  0.50205
USER: genes 5 Torsion [CA]-CB--CG-[CD] |==|  0.63912
USER: genes 6 Torsion [CB]-CG--CD-[NE] |==|  0.43450
USER: genes 7 Torsion [CG]-CD--NE-[HE] |==|  0.30828
USER: genes 8 Torsion [C]-CA--N-[C] |==|  0.69507
USER: genes 9 Torsion [N]-C--CA-[N] |==|  0.55518
USER: genes 10 Torsion [C]-CA--N-[H3] |==|  0.37410
USER: genes 11 Torsion [C]-CA--CB-[CG] |==|  0.51314
USER: genes 12 Torsion [CA]-CB--CG-[ND2] |==|  0.28482
USER: genes 13 Torsion [N]-CA--CB-[CG] |==|  0.69086
USER: genes 14 Torsion [CA]-CB--CG-[CD1] |==|  0.10244
USER: genes 15 Torsion [N]-CA--C-[N] |==|  0.34444
USER: genes 16 Torsion [C]-N--CA-[CB] |==|  0.40238
USER: genes 17 Torsion [N]-CA--C-[N] |==|  0.24076
USER: genes 18 Torsion [C]-N--CA-[C] |==|  0.82591
USER: genes 19 Torsion [N]-CA--C-[N] |==|  0.93764
USER: genes 20 Torsion [C]-N--CA-[C] |==|  0.85218
USER: genes 21 Torsion [N]-CA--CB-[CG2] |==|  0.86122
USER: genes 22 Torsion [CA]-CB--OG1-[HG1] |==|  0.52442
USER: genes 23 Torsion [N]-CA--C-[O] |==|  0.75321
USER: genes 24 Torsion [N]-CA--CB-[CG] |==|  0.25057
USER: genes 25 Torsion [CA]-CB--CG-[CD2] |==|  0.80322
USER: genes 26 Torsion [N]-CA--CB-[CG] |==|  0.72606
USER: genes 27 Torsion [CA]-CB--CG-[CD1] |==|  0.99381
ROOT
ATOM      1  CA  LEU B   3     -19.651 -22.305 -31.255  1.00 17.18 LIG 0.18  C 
ENDROOT
BRANCH 1 2
ATOM      2  N   LEU B   3     -20.341 -23.083 -30.296  1.00 21.09 LIG-0.35  N 
ATOM      3  C   ARG B   2     -19.747 -24.093 -29.666  1.00 20.79 LIG 0.24  C 
ATOM      4 O    ARG B   2     -18.538 -24.375 -29.805  1.00 18.81 LIG-0.27  OA
ATOM      5 H    LEU B   3     -21.158 -22.847 -30.165  1.00 21.09 LIG 0.16  HD
BRANCH 3 6
ATOM      6  CA  ARG B   2     -20.662 -24.954 -28.805  1.00 21.42 LIG 0.18  C 
BRANCH 6 7
ATOM      7  CB  ARG B   2     -21.249 -26.147 -29.566  1.00 36.36 LIG 0.04  C 
BRANCH 7 8
ATOM      8  CG  ARG B   2     -22.170 -26.980 -28.695  1.00 41.67 LIG 0.02  C 
BRANCH 8 9
ATOM      9  CD  ARG B   2     -21.852 -28.476 -28.734  1.00 51.14 LIG 0.14  C 
BRANCH 9 10
ATOM     10  NE  ARG B   2     -22.337 -29.171 -27.528  1.00 53.41 LIG-0.23  N 
ATOM     11 HE   ARG B   2     -22.993 -29.718 -27.626  1.00 53.41 LIG 0.18  HD
ATOM     12  CZ  ARG B   2     -21.840 -29.024 -26.294  1.00 50.83 LIG 0.67  C 
ATOM     13  NH1 ARG B   2     -20.828 -28.195 -26.068  1.00 40.00 LIG-0.23  N 
ATOM     14  NH2 ARG B   2     -22.371 -29.705 -25.278  1.00 54.23 LIG-0.23  N 
ATOM     15 1HH1 ARG B   2     -20.486 -27.747 -26.717  1.00 40.00 LIG 0.17  HD
ATOM     16 2HH1 ARG B   2     -20.516 -28.106 -25.271  1.00 40.00 LIG 0.17  HD
ATOM     17 1HH2 ARG B   2     -23.031 -30.238 -25.416  1.00 54.23 LIG 0.17  HD
ATOM     18 2HH2 ARG B   2     -22.053 -29.611 -24.485  1.00 54.23 LIG 0.17  HD
ENDBRANCH 9 10
ENDBRANCH 8 9
ENDBRANCH 7 8
ENDBRANCH 6 7
BRANCH 6 19
ATOM     19  N   ARG B   2     -21.701 -24.101 -28.271  1.00 29.89 LIG-0.35  N 
ATOM     20  C   ASN B   1     -21.726 -23.799 -26.980  1.00 39.87 LIG 0.25  C 
ATOM     21 O    ASN B   1     -21.108 -24.452 -26.129  1.00 37.46 LIG-0.27  OA
ATOM     22 H    ARG B   2     -22.275 -23.823 -28.849  1.00 29.89 LIG 0.16  HD
BRANCH 20 23
ATOM     23  CA  ASN B   1     -22.590 -22.584 -26.596  1.00 47.73 LIG 0.28  C 
BRANCH 23 24
ATOM     24  N   ASN B   1     -22.267 -22.000 -25.317  1.00 51.86 LIG-0.07  N 
ATOM     25 H3   ASN B   1     -22.231 -21.114 -25.395  1.00 51.86 LIG 0.28  HD
ATOM     26 H1   ASN B   1     -22.892 -22.221 -24.723  1.00 51.86 LIG 0.28  HD
ATOM     27 H2   ASN B   1     -21.477 -22.305 -25.043  1.00 51.86 LIG 0.28  HD
ENDBRANCH 23 24
BRANCH 23 28
ATOM     28  CB  ASN B   1     -22.538 -21.479 -27.632  1.00 49.79 LIG 0.14  C 
BRANCH 28 29
ATOM     29  CG  ASN B   1     -23.301 -20.259 -27.172  1.00 59.47 LIG 0.22  C 
ATOM     30  ND2 ASN B   1     -22.577 -19.232 -26.715  1.00 63.81 LIG-0.37  N 
ATOM     31 21HD ASN B   1     -22.970 -18.526 -26.422  1.00 63.81 LIG 0.16  HD
ATOM     32 22HD ASN B   1     -21.718 -19.278 -26.715  1.00 63.81 LIG 0.16  HD
ATOM     33 OD1  ASN B   1     -24.529 -20.247 -27.196  1.00 60.25 LIG-0.27  OA
ENDBRANCH 28 29
ENDBRANCH 23 28
ENDBRANCH 20 23
ENDBRANCH 6 19
ENDBRANCH 3 6
ENDBRANCH 1 2
BRANCH 1 34
ATOM     34  CB  LEU B   3     -20.661 -21.443 -32.063  1.00 28.79 LIG 0.04  C 
BRANCH 34 35
ATOM     35  CG  LEU B   3     -20.762 -21.914 -33.517  1.00 33.15 LIG-0.02  C 
ATOM     36  CD2 LEU B   3     -22.060 -21.398 -34.123  1.00 30.13 LIG 0.01  C 
ATOM     37  CD1 LEU B   3     -20.668 -23.459 -33.695  1.00 27.67 LIG 0.01  C 
ENDBRANCH 34 35
ENDBRANCH 1 34
BRANCH 1 38
ATOM     38  C   LEU B   3     -18.567 -21.457 -30.627  1.00 20.33 LIG 0.24  C 
ATOM     39  N   LEU B   4     -17.343 -21.625 -31.118  1.00 23.83 LIG-0.35  N 
ATOM     40 H    LEU B   4     -17.146 -22.171 -31.752  1.00 23.83 LIG 0.16  HD
ATOM     41 O    LEU B   3     -18.814 -20.661 -29.726  1.00 22.70 LIG-0.27  OA
BRANCH 39 42
ATOM     42  CA  LEU B   4     -16.214 -20.866 -30.593  1.00 22.91 LIG 0.18  C 
BRANCH 42 43
ATOM     43  C   LEU B   4     -15.957 -19.676 -31.523  1.00 30.74 LIG 0.24  C 
ATOM     44 O    LEU B   4     -15.100 -19.743 -32.450  1.00 30.11 LIG-0.27  OA
ATOM     45  N   LEU B   5     -16.648 -18.568 -31.291  1.00 32.41 LIG-0.35  N 
ATOM     46 H    LEU B   5     -17.287 -18.485 -30.721  1.00 32.41 LIG 0.16  HD
BRANCH 45 47
ATOM     47  CA  LEU B   5     -16.313 -17.364 -32.062  1.00 35.50 LIG 0.18  C 
BRANCH 47 48
ATOM     48  C   LEU B   5     -14.885 -16.922 -31.769  1.00 33.38 LIG 0.24  C 
ATOM     49 O    LEU B   5     -14.247 -16.214 -32.580  1.00 25.58 LIG-0.27  OA
ATOM     50  N   THR B   6     -14.399 -17.353 -30.610  1.00 32.99 LIG-0.34  N 
ATOM     51 H    THR B   6     -14.891 -17.717 -30.006  1.00 32.99 LIG 0.16  HD
BRANCH 50 52
ATOM     52  CA  THR B   6     -12.995 -17.263 -30.232  1.00 39.09 LIG 0.19  C 
BRANCH 52 53
ATOM     53  CB  THR B   6     -12.734 -18.023 -28.903  1.00 66.99 LIG 0.14  C 
ATOM     54  CG2 THR B   6     -13.733 -17.612 -27.838  1.00 64.52 LIG 0.04  C 
BRANCH 53 55
ATOM     55 OG1  THR B   6     -12.852 -19.442 -29.120  1.00 68.32 LIG-0.39  OA
ATOM     56 HG1  THR B   6     -12.830 -19.842 -28.382  1.00 68.32 LIG 0.21  HD
ENDBRANCH 53 55
ENDBRANCH 52 53
BRANCH 52 57
ATOM     57  C   THR B   6     -12.144 -17.902 -31.338  1.00 46.48 LIG 0.22  C 
ATOM     58 O    THR B   6     -11.881 -19.114 -31.317  1.00 50.47 LIG-0.29  OA
ENDBRANCH 52 57
ENDBRANCH 50 52
ENDBRANCH 47 48
BRANCH 47 59
ATOM     59  CB  LEU B   5     -17.253 -16.214 -31.723  1.00 41.25 LIG 0.04  C 
BRANCH 59 60
ATOM     60  CG  LEU B   5     -16.856 -15.279 -30.592  1.00 47.99 LIG-0.02  C 
ATOM     61  CD2 LEU B   5     -16.974 -15.982 -29.268  1.00 50.88 LIG 0.01  C 
ATOM     62  CD1 LEU B   5     -17.780 -14.079 -30.629  1.00 54.72 LIG 0.01  C 
ENDBRANCH 59 60
ENDBRANCH 47 59
ENDBRANCH 45 47
ENDBRANCH 42 43
BRANCH 42 63
ATOM     63  CB  LEU B   4     -14.997 -21.768 -30.632  1.00 23.96 LIG 0.04  C 
BRANCH 63 64
ATOM     64  CG  LEU B   4     -14.488 -22.528 -29.428  1.00 38.52 LIG-0.02  C 
ATOM     65  CD1 LEU B   4     -15.293 -22.234 -28.215  1.00 46.71 LIG 0.01  C 
ATOM     66  CD2 LEU B   4     -14.470 -24.027 -29.764  1.00 36.33 LIG 0.01  C 
ENDBRANCH 63 64
ENDBRANCH 42 63
ENDBRANCH 39 42
ENDBRANCH 1 38
TORSDOF 26
ENDMDL
MODEL 13
USER: ADFR SOLUTION from run 116
USER: SCORE 22.578824 LL:  -4.148 LR: -19.877 RR:   0.000 FEB: -12.122
USER: RMSD 3.263124
USER: SEED 115
USER: STATUS searching
USER: GENES 28
USER: genes 0 Translation |==|  0.44832 0.51077 0.39136
USER: genes 1 Rotation |==|  0.56816 0.48903 0.49919 0.99521
USER: genes 2 Torsion [C]-CA--N-[C] |==|  0.77619
USER: genes 3 Torsion [N]-C--CA-[N] |==|  0.56786
USER: genes 4 Torsion [C]-CA--CB-[CG] |==|  0.73832
USER: genes 5 Torsion [CA]-CB--CG-[CD] |==|  0.49678
USER: genes 6 Torsion [CB]-CG--CD-[NE] |==|  0.76003
USER: genes 7 Torsion [CG]-CD--NE-[HE] |==|  0.73403
USER: genes 8 Torsion [C]-CA--N-[C] |==|  0.53998
USER: genes 9 Torsion [N]-C--CA-[N] |==|  0.13055
USER: genes 10 Torsion [C]-CA--N-[H3] |==|  0.12015
USER: genes 11 Torsion [C]-CA--CB-[CG] |==|  0.44031
USER: genes 12 Torsion [CA]-CB--CG-[ND2] |==|  0.56097
USER: genes 13 Torsion [N]-CA--CB-[CG] |==|  0.82972
USER: genes 14 Torsion [CA]-CB--CG-[CD1] |==|  0.52148
USER: genes 15 Torsion [N]-CA--C-[N] |==|  0.30574
USER: genes 16 Torsion [C]-N--CA-[CB] |==|  0.51667
USER: genes 17 Torsion [N]-CA--C-[N] |==|  0.41817
USER: genes 18 Torsion [C]-N--CA-[C] |==|  0.79927
USER: genes 19 Torsion [N]-CA--C-[N] |==|  0.46193
USER: genes 20 Torsion [C]-N--CA-[C] |==|  0.49864
USER: genes 21 Torsion [N]-CA--CB-[CG2] |==|  0.25791
USER: genes 22 Torsion [CA]-CB--OG1-[HG1] |==|  0.00237
USER: genes 23 Torsion [N]-CA--C-[O] |==|  0.96498
USER: genes 24 Torsion [N]-CA--CB-[CG] |==|  0.26822
USER: genes 25 Torsion [CA]-CB--CG-[CD2] |==|  0.70120
USER: genes 26 Torsion [N]-CA--CB-[CG] |==|  0.59356
USER: genes 27 Torsion [CA]-CB--CG-[CD1] |==|  0.94865
ROOT
ATOM      1  CA  LEU B   3     -19.381 -22.604 -30.598  1.00 17.18 LIG 0.18  C 
ENDROOT
BRANCH 1 2
ATOM      2  N   LEU B   3     -20.436 -23.243 -29.905  1.00 21.09 LIG-0.35  N 
ATOM      3  C   ARG B   2     -20.301 -24.476 -29.424  1.00 20.79 LIG 0.24  C 
ATOM      4 O    ARG B   2     -19.233 -25.121 -29.470  1.00 18.81 LIG-0.27  OA
ATOM      5 H    LEU B   3     -21.151 -22.771 -29.827  1.00 21.09 LIG 0.16  HD
BRANCH 3 6
ATOM      6  CA  ARG B   2     -21.574 -25.102 -28.868  1.00 21.42 LIG 0.18  C 
BRANCH 6 7
ATOM      7  CB  ARG B   2     -22.527 -24.072 -28.251  1.00 36.36 LIG 0.04  C 
BRANCH 7 8
ATOM      8  CG  ARG B   2     -22.322 -23.933 -26.755  1.00 41.67 LIG 0.02  C 
BRANCH 8 9
ATOM      9  CD  ARG B   2     -23.239 -22.890 -26.113  1.00 51.14 LIG 0.14  C 
BRANCH 9 10
ATOM     10  NE  ARG B   2     -22.661 -21.536 -26.179  1.00 53.41 LIG-0.23  N 
ATOM     11 HE   ARG B   2     -22.227 -21.258 -25.491  1.00 53.41 LIG 0.18  HD
ATOM     12  CZ  ARG B   2     -22.754 -20.702 -27.222  1.00 50.83 LIG 0.67  C 
ATOM     13  NH1 ARG B   2     -23.410 -21.061 -28.318  1.00 40.00 LIG-0.23  N 
ATOM     14  NH2 ARG B   2     -22.193 -19.493 -27.159  1.00 54.23 LIG-0.23  N 
ATOM     15 1HH1 ARG B   2     -23.781 -21.835 -28.363  1.00 40.00 LIG 0.17  HD
ATOM     16 2HH1 ARG B   2     -23.466 -20.518 -28.983  1.00 40.00 LIG 0.17  HD
ATOM     17 1HH2 ARG B   2     -21.772 -19.251 -26.449  1.00 54.23 LIG 0.17  HD
ATOM     18 2HH2 ARG B   2     -22.252 -18.957 -27.828  1.00 54.23 LIG 0.17  HD
ENDBRANCH 9 10
ENDBRANCH 8 9
ENDBRANCH 7 8
ENDBRANCH 6 7
BRANCH 6 19
ATOM     19  N   ARG B   2     -21.190 -26.112 -27.907  1.00 29.89 LIG-0.35  N 
ATOM     20  C   ASN B   1     -22.072 -27.005 -27.480  1.00 39.87 LIG 0.25  C 
ATOM     21 O    ASN B   1     -23.294 -26.847 -27.600  1.00 37.46 LIG-0.27  OA
ATOM     22 H    ARG B   2     -20.369 -26.077 -27.652  1.00 29.89 LIG 0.16  HD
BRANCH 20 23
ATOM     23  CA  ASN B   1     -21.482 -28.259 -26.808  1.00 47.73 LIG 0.28  C 
BRANCH 23 24
ATOM     24  N   ASN B   1     -20.461 -27.986 -25.827  1.00 51.86 LIG-0.07  N 
ATOM     25 H3   ASN B   1     -20.713 -27.300 -25.318  1.00 51.86 LIG 0.28  HD
ATOM     26 H1   ASN B   1     -20.340 -28.705 -25.316  1.00 51.86 LIG 0.28  HD
ATOM     27 H2   ASN B   1     -19.698 -27.785 -26.239  1.00 51.86 LIG 0.28  HD
ENDBRANCH 23 24
BRANCH 23 28
ATOM     28  CB  ASN B   1     -22.538 -29.119 -26.146  1.00 49.79 LIG 0.14  C 
BRANCH 28 29
ATOM     29  CG  ASN B   1     -22.056 -30.539 -25.964  1.00 59.47 LIG 0.22  C 
ATOM     30  ND2 ASN B   1     -22.994 -31.482 -25.825  1.00 63.81 LIG-0.37  N 
ATOM     31 21HD ASN B   1     -22.765 -32.300 -25.696  1.00 63.81 LIG 0.16  HD
ATOM     32 22HD ASN B   1     -23.826 -31.269 -25.865  1.00 63.81 LIG 0.16  HD
ATOM     33 OD1  ASN B   1     -20.854 -30.787 -25.916  1.00 60.25 LIG-0.27  OA
ENDBRANCH 28 29
ENDBRANCH 23 28
ENDBRANCH 20 23
ENDBRANCH 6 19
ENDBRANCH 3 6
ENDBRANCH 1 2
BRANCH 1 34
ATOM     34  CB  LEU B   3     -19.957 -21.532 -31.565  1.00 28.79 LIG 0.04  C 
BRANCH 34 35
ATOM     35  CG  LEU B   3     -20.876 -22.163 -32.617  1.00 33.15 LIG-0.02  C 
ATOM     36  CD2 LEU B   3     -20.175 -23.364 -33.238  1.00 30.13 LIG 0.01  C 
ATOM     37  CD1 LEU B   3     -21.338 -21.180 -33.733  1.00 27.67 LIG 0.01  C 
ENDBRANCH 34 35
ENDBRANCH 1 34
BRANCH 1 38
ATOM     38  C   LEU B   3     -18.354 -22.016 -29.656  1.00 20.33 LIG 0.24  C 
ATOM     39  N   LEU B   4     -17.172 -22.623 -29.636  1.00 23.83 LIG-0.35  N 
ATOM     40 H    LEU B   4     -16.971 -23.307 -30.116  1.00 23.83 LIG 0.16  HD
ATOM     41 O    LEU B   3     -18.605 -21.034 -28.963  1.00 22.70 LIG-0.27  OA
BRANCH 39 42
ATOM     42  CA  LEU B   4     -16.101 -22.149 -28.768  1.00 22.91 LIG 0.18  C 
BRANCH 42 43
ATOM     43  C   LEU B   4     -15.821 -20.681 -29.101  1.00 30.74 LIG 0.24  C 
ATOM     44 O    LEU B   4     -15.984 -20.233 -30.272  1.00 30.11 LIG-0.27  OA
ATOM     45  N   LEU B   5     -15.370 -19.914 -28.118  1.00 32.41 LIG-0.35  N 
ATOM     46 H    LEU B   5     -15.302 -20.145 -27.293  1.00 32.41 LIG 0.16  HD
BRANCH 45 47
ATOM     47  CA  LEU B   5     -14.944 -18.546 -28.441  1.00 35.50 LIG 0.18  C 
BRANCH 47 48
ATOM     48  C   LEU B   5     -13.626 -18.563 -29.207  1.00 33.38 LIG 0.24  C 
ATOM     49 O    LEU B   5     -12.921 -19.595 -29.260  1.00 25.58 LIG-0.27  OA
ATOM     50  N   THR B   6     -13.309 -17.410 -29.787  1.00 32.99 LIG-0.34  N 
ATOM     51 H    THR B   6     -13.864 -16.757 -29.859  1.00 32.99 LIG 0.16  HD
BRANCH 50 52
ATOM     52  CA  THR B   6     -12.001 -17.120 -30.358  1.00 39.09 LIG 0.19  C 
BRANCH 52 53
ATOM     53  CB  THR B   6     -11.665 -18.121 -31.497  1.00 66.99 LIG 0.14  C 
ATOM     54  CG2 THR B   6     -12.090 -17.573 -32.845  1.00 64.52 LIG 0.04  C 
BRANCH 53 55
ATOM     55 OG1  THR B   6     -10.246 -18.368 -31.527  1.00 68.32 LIG-0.39  OA
ATOM     56 HG1  THR B   6      -9.872 -17.932 -30.915  1.00 68.32 LIG 0.21  HD
ENDBRANCH 53 55
ENDBRANCH 52 53
BRANCH 52 57
ATOM     57  C   THR B   6     -12.023 -15.700 -30.943  1.00 46.48 LIG 0.22  C 
ATOM     58 O    THR B   6     -13.093 -15.091 -31.093  1.00 50.47 LIG-0.29  OA
ENDBRANCH 52 57
ENDBRANCH 50 52
ENDBRANCH 47 48
BRANCH 47 59
ATOM     59  CB  LEU B   5     -14.756 -17.715 -27.178  1.00 41.25 LIG 0.04  C 
BRANCH 59 60
ATOM     60  CG  LEU B   5     -13.352 -17.587 -26.610  1.00 47.99 LIG-0.02  C 
ATOM     61  CD2 LEU B   5     -13.223 -18.394 -25.348  1.00 50.88 LIG 0.01  C 
ATOM     62  CD1 LEU B   5     -13.095 -16.123 -26.320  1.00 54.72 LIG 0.01  C 
ENDBRANCH 59 60
ENDBRANCH 47 59
ENDBRANCH 45 47
ENDBRANCH 42 43
BRANCH 42 63
ATOM     63  CB  LEU B   4     -14.857 -22.953 -29.093  1.00 23.96 LIG 0.04  C 
BRANCH 63 64
ATOM     64  CG  LEU B   4     -13.821 -23.333 -28.058  1.00 38.52 LIG-0.02  C 
ATOM     65  CD1 LEU B   4     -13.924 -22.485 -26.843  1.00 46.71 LIG 0.01  C 
ATOM     66  CD2 LEU B   4     -13.971 -24.828 -27.738  1.00 36.33 LIG 0.01  C 
ENDBRANCH 63 64
ENDBRANCH 42 63
ENDBRANCH 39 42
ENDBRANCH 1 38
TORSDOF 26
ENDMDL
MODEL 14
USER: ADFR SOLUTION from run 114
USER: SCORE 23.333206 LL:  -4.103 LR: -19.858 RR:   0.000 FEB: -12.102
USER: RMSD 3.898709
USER: SEED 113
USER: STATUS no improvement in best in 3 clusters for 5 generations
USER: GENES 28
USER: genes 0 Translation |==|  0.43866 0.50185 0.37430
USER: genes 1 Rotation |==|  0.57784 0.48645 0.55948 0.99012
USER: genes 2 Torsion [C]-CA--N-[C] |==|  0.80851
USER: genes 3 Torsion [N]-C--CA-[N] |==|  0.38399
USER: genes 4 Torsion [C]-CA--CB-[CG] |==|  0.69796
USER: genes 5 Torsion [CA]-CB--CG-[CD] |==|  0.79370
USER: genes 6 Torsion [CB]-CG--CD-[NE] |==|  0.58154
USER: genes 7 Torsion [CG]-CD--NE-[HE] |==|  0.14788
USER: genes 8 Torsion [C]-CA--N-[C] |==|  0.74474
USER: genes 9 Torsion [N]-C--CA-[N] |==|  0.20628
USER: genes 10 Torsion [C]-CA--N-[H3] |==|  0.20007
USER: genes 11 Torsion [C]-CA--CB-[CG] |==|  0.42475
USER: genes 12 Torsion [CA]-CB--CG-[ND2] |==|  0.50584
USER: genes 13 Torsion [N]-CA--CB-[CG] |==|  0.81840
USER: genes 14 Torsion [CA]-CB--CG-[CD1] |==|  0.58637
USER: genes 15 Torsion [N]-CA--C-[N] |==|  0.32836
USER: genes 16 Torsion [C]-N--CA-[CB] |==|  0.51764
USER: genes 17 Torsion [N]-CA--C-[N] |==|  0.46558
USER: genes 18 Torsion [C]-N--CA-[C] |==|  0.84191
USER: genes 19 Torsion [N]-CA--C-[N] |==|  0.89834
USER: genes 20 Torsion [C]-N--CA-[C] |==|  0.80776
USER: genes 21 Torsion [N]-CA--CB-[CG2] |==|  0.67963
USER: genes 22 Torsion [CA]-CB--OG1-[HG1] |==|  0.27542
USER: genes 23 Torsion [N]-CA--C-[O] |==|  0.79473
USER: genes 24 Torsion [N]-CA--CB-[CG] |==|  0.54589
USER: genes 25 Torsion [CA]-CB--CG-[CD2] |==|  0.06755
USER: genes 26 Torsion [N]-CA--CB-[CG] |==|  0.67185
USER: genes 27 Torsion [CA]-CB--CG-[CD1] |==|  0.91627
ROOT
ATOM      1  CA  LEU B   3     -19.620 -22.825 -30.957  1.00 17.18 LIG 0.18  C 
ENDROOT
BRANCH 1 2
ATOM      2  N   LEU B   3     -20.520 -23.722 -30.334  1.00 21.09 LIG-0.35  N 
ATOM      3  C   ARG B   2     -20.085 -24.798 -29.684  1.00 20.79 LIG 0.24  C 
ATOM      4 O    ARG B   2     -18.876 -25.052 -29.503  1.00 18.81 LIG-0.27  OA
ATOM      5 H    LEU B   3     -21.349 -23.511 -30.414  1.00 21.09 LIG 0.16  HD
BRANCH 3 6
ATOM      6  CA  ARG B   2     -21.169 -25.767 -29.228  1.00 21.42 LIG 0.18  C 
BRANCH 6 7
ATOM      7  CB  ARG B   2     -21.562 -25.575 -27.759  1.00 36.36 LIG 0.04  C 
BRANCH 7 8
ATOM      8  CG  ARG B   2     -21.072 -26.714 -26.885  1.00 41.67 LIG 0.02  C 
BRANCH 8 9
ATOM      9  CD  ARG B   2     -21.877 -28.003 -27.064  1.00 51.14 LIG 0.14  C 
BRANCH 9 10
ATOM     10  NE  ARG B   2     -21.894 -28.813 -25.832  1.00 53.41 LIG-0.23  N 
ATOM     11 HE   ARG B   2     -22.148 -28.425 -25.108  1.00 53.41 LIG 0.18  HD
ATOM     12  CZ  ARG B   2     -21.548 -30.103 -25.747  1.00 50.83 LIG 0.67  C 
ATOM     13  NH1 ARG B   2     -21.144 -30.767 -26.822  1.00 40.00 LIG-0.23  N 
ATOM     14  NH2 ARG B   2     -21.598 -30.728 -24.569  1.00 54.23 LIG-0.23  N 
ATOM     15 1HH1 ARG B   2     -21.102 -30.369 -27.583  1.00 40.00 LIG 0.17  HD
ATOM     16 2HH1 ARG B   2     -20.923 -31.596 -26.758  1.00 40.00 LIG 0.17  HD
ATOM     17 1HH2 ARG B   2     -21.852 -30.303 -23.866  1.00 54.23 LIG 0.17  HD
ATOM     18 2HH2 ARG B   2     -21.377 -31.557 -24.513  1.00 54.23 LIG 0.17  HD
ENDBRANCH 9 10
ENDBRANCH 8 9
ENDBRANCH 7 8
ENDBRANCH 6 7
BRANCH 6 19
ATOM     19  N   ARG B   2     -20.697 -27.111 -29.480  1.00 29.89 LIG-0.35  N 
ATOM     20  C   ASN B   1     -20.977 -27.719 -30.625  1.00 39.87 LIG 0.25  C 
ATOM     21 O    ASN B   1     -21.887 -27.342 -31.375  1.00 37.46 LIG-0.27  OA
ATOM     22 H    ARG B   2     -20.239 -27.461 -28.841  1.00 29.89 LIG 0.16  HD
BRANCH 20 23
ATOM     23  CA  ASN B   1     -20.103 -28.940 -30.963  1.00 47.73 LIG 0.28  C 
BRANCH 23 24
ATOM     24  N   ASN B   1     -20.402 -30.122 -30.192  1.00 51.86 LIG-0.07  N 
ATOM     25 H3   ASN B   1     -21.179 -30.462 -30.460  1.00 51.86 LIG 0.28  HD
ATOM     26 H1   ASN B   1     -19.758 -30.725 -30.311  1.00 51.86 LIG 0.28  HD
ATOM     27 H2   ASN B   1     -20.453 -29.908 -29.330  1.00 51.86 LIG 0.28  HD
ENDBRANCH 23 24
BRANCH 23 28
ATOM     28  CB  ASN B   1     -20.170 -29.318 -32.429  1.00 49.79 LIG 0.14  C 
BRANCH 28 29
ATOM     29  CG  ASN B   1     -18.906 -30.013 -32.875  1.00 59.47 LIG 0.22  C 
ATOM     30  ND2 ASN B   1     -18.830 -30.357 -34.166  1.00 63.81 LIG-0.37  N 
ATOM     31 21HD ASN B   1     -18.138 -30.775 -34.459  1.00 63.81 LIG 0.16  HD
ATOM     32 22HD ASN B   1     -19.472 -30.159 -34.702  1.00 63.81 LIG 0.16  HD
ATOM     33 OD1  ASN B   1     -18.018 -30.270 -32.067  1.00 60.25 LIG-0.27  OA
ENDBRANCH 28 29
ENDBRANCH 23 28
ENDBRANCH 20 23
ENDBRANCH 6 19
ENDBRANCH 3 6
ENDBRANCH 1 2
BRANCH 1 34
ATOM     34  CB  LEU B   3     -20.396 -21.880 -31.917  1.00 28.79 LIG 0.04  C 
BRANCH 34 35
ATOM     35  CG  LEU B   3     -21.013 -22.655 -33.086  1.00 33.15 LIG-0.02  C 
ATOM     36  CD2 LEU B   3     -20.211 -23.928 -33.323  1.00 30.13 LIG 0.01  C 
ATOM     37  CD1 LEU B   3     -21.119 -21.839 -34.408  1.00 27.67 LIG 0.01  C 
ENDBRANCH 34 35
ENDBRANCH 1 34
BRANCH 1 38
ATOM     38  C   LEU B   3     -18.800 -22.050 -29.949  1.00 20.33 LIG 0.24  C 
ATOM     39  N   LEU B   4     -17.485 -22.238 -30.006  1.00 23.83 LIG-0.35  N 
ATOM     40 H    LEU B   4     -17.094 -22.759 -30.567  1.00 23.83 LIG 0.16  HD
ATOM     41 O    LEU B   3     -19.325 -21.291 -29.139  1.00 22.70 LIG-0.27  OA
BRANCH 39 42
ATOM     42  CA  LEU B   4     -16.589 -21.548 -29.086  1.00 22.91 LIG 0.18  C 
BRANCH 42 43
ATOM     43  C   LEU B   4     -16.817 -20.040 -29.228  1.00 30.74 LIG 0.24  C 
ATOM     44 O    LEU B   4     -17.463 -19.565 -30.205  1.00 30.11 LIG-0.27  OA
ATOM     45  N   LEU B   5     -16.280 -19.258 -28.301  1.00 32.41 LIG-0.35  N 
ATOM     46 H    LEU B   5     -15.890 -19.526 -27.583  1.00 32.41 LIG 0.16  HD
BRANCH 45 47
ATOM     47  CA  LEU B   5     -16.347 -17.804 -28.493  1.00 35.50 LIG 0.18  C 
BRANCH 47 48
ATOM     48  C   LEU B   5     -15.703 -17.409 -29.817  1.00 33.38 LIG 0.24  C 
ATOM     49 O    LEU B   5     -16.173 -16.484 -30.515  1.00 25.58 LIG-0.27  OA
ATOM     50  N   THR B   6     -14.633 -18.126 -30.147  1.00 32.99 LIG-0.34  N 
ATOM     51 H    THR B   6     -14.242 -18.658 -29.596  1.00 32.99 LIG 0.16  HD
BRANCH 50 52
ATOM     52  CA  THR B   6     -14.006 -18.093 -31.461  1.00 39.09 LIG 0.19  C 
BRANCH 52 53
ATOM     53  CB  THR B   6     -12.665 -18.875 -31.448  1.00 66.99 LIG 0.14  C 
ATOM     54  CG2 THR B   6     -11.494 -17.948 -31.708  1.00 64.52 LIG 0.04  C 
BRANCH 53 55
ATOM     55 OG1  THR B   6     -12.477 -19.505 -30.166  1.00 68.32 LIG-0.39  OA
ATOM     56 HG1  THR B   6     -12.701 -20.313 -30.214  1.00 68.32 LIG 0.21  HD
ENDBRANCH 53 55
ENDBRANCH 52 53
BRANCH 52 57
ATOM     57  C   THR B   6     -14.951 -18.755 -32.474  1.00 46.48 LIG 0.22  C 
ATOM     58 O    THR B   6     -15.102 -19.986 -32.492  1.00 50.47 LIG-0.29  OA
ENDBRANCH 52 57
ENDBRANCH 50 52
ENDBRANCH 47 48
BRANCH 47 59
ATOM     59  CB  LEU B   5     -15.628 -17.066 -27.370  1.00 41.25 LIG 0.04  C 
BRANCH 59 60
ATOM     60  CG  LEU B   5     -15.914 -15.584 -27.192  1.00 47.99 LIG-0.02  C 
ATOM     61  CD2 LEU B   5     -17.263 -15.240 -27.761  1.00 50.88 LIG 0.01  C 
ATOM     62  CD1 LEU B   5     -14.831 -14.808 -27.913  1.00 54.72 LIG 0.01  C 
ENDBRANCH 59 60
ENDBRANCH 47 59
ENDBRANCH 45 47
ENDBRANCH 42 43
BRANCH 42 63
ATOM     63  CB  LEU B   4     -15.168 -21.853 -29.514  1.00 23.96 LIG 0.04  C 
BRANCH 63 64
ATOM     64  CG  LEU B   4     -14.175 -22.582 -28.636  1.00 38.52 LIG-0.02  C 
ATOM     65  CD1 LEU B   4     -14.430 -22.331 -27.195  1.00 46.71 LIG 0.01  C 
ATOM     66  CD2 LEU B   4     -14.219 -24.079 -28.982  1.00 36.33 LIG 0.01  C 
ENDBRANCH 63 64
ENDBRANCH 42 63
ENDBRANCH 39 42
ENDBRANCH 1 38
TORSDOF 26
ENDMDL
MODEL 15
USER: ADFR SOLUTION from run 149
USER: SCORE 22.905228 LL:  -4.651 LR: -19.794 RR:   0.000 FEB: -12.038
USER: RMSD 6.160892
USER: SEED 148
USER: STATUS searching
USER: GENES 28
USER: genes 0 Translation |==|  0.44463 0.51059 0.38728
USER: genes 1 Rotation |==|  0.58247 0.50687 0.52128 0.99264
USER: genes 2 Torsion [C]-CA--N-[C] |==|  0.78440
USER: genes 3 Torsion [N]-C--CA-[N] |==|  0.90753
USER: genes 4 Torsion [C]-CA--CB-[CG] |==|  0.10649
USER: genes 5 Torsion [CA]-CB--CG-[CD] |==|  0.34113
USER: genes 6 Torsion [CB]-CG--CD-[NE] |==|  0.60197
USER: genes 7 Torsion [CG]-CD--NE-[HE] |==|  0.21568
USER: genes 8 Torsion [C]-CA--N-[C] |==|  0.77668
USER: genes 9 Torsion [N]-C--CA-[N] |==|  0.49218
USER: genes 10 Torsion [C]-CA--N-[H3] |==|  0.35990
USER: genes 11 Torsion [C]-CA--CB-[CG] |==|  0.48593
USER: genes 12 Torsion [CA]-CB--CG-[ND2] |==|  0.32448
USER: genes 13 Torsion [N]-CA--CB-[CG] |==|  0.80486
USER: genes 14 Torsion [CA]-CB--CG-[CD1] |==|  0.58316
USER: genes 15 Torsion [N]-CA--C-[N] |==|  0.27751
USER: genes 16 Torsion [C]-N--CA-[CB] |==|  0.53133
USER: genes 17 Torsion [N]-CA--C-[N] |==|  0.40184
USER: genes 18 Torsion [C]-N--CA-[C] |==|  0.67650
USER: genes 19 Torsion [N]-CA--C-[N] |==|  0.69102
USER: genes 20 Torsion [C]-N--CA-[C] |==|  0.77227
USER: genes 21 Torsion [N]-CA--CB-[CG2] |==|  0.57398
USER: genes 22 Torsion [CA]-CB--OG1-[HG1] |==|  0.31391
USER: genes 23 Torsion [N]-CA--C-[O] |==|  0.94695
USER: genes 24 Torsion [N]-CA--CB-[CG] |==|  0.61171
USER: genes 25 Torsion [CA]-CB--CG-[CD2] |==|  0.91018
USER: genes 26 Torsion [N]-CA--CB-[CG] |==|  0.59938
USER: genes 27 Torsion [CA]-CB--CG-[CD1] |==|  0.94939
ROOT
ATOM      1  CA  LEU B   3     -19.472 -22.609 -30.684  1.00 17.18 LIG 0.18  C 
ENDROOT
BRANCH 1 2
ATOM      2  N   LEU B   3     -20.416 -23.386 -29.972  1.00 21.09 LIG-0.35  N 
ATOM      3  C   ARG B   2     -20.114 -24.601 -29.522  1.00 20.79 LIG 0.24  C 
ATOM      4 O    ARG B   2     -18.977 -25.107 -29.616  1.00 18.81 LIG-0.27  OA
ATOM      5 H    LEU B   3     -21.181 -23.008 -29.862  1.00 21.09 LIG 0.16  HD
BRANCH 3 6
ATOM      6  CA  ARG B   2     -21.281 -25.390 -28.941  1.00 21.42 LIG 0.18  C 
BRANCH 6 7
ATOM      7  CB  ARG B   2     -22.002 -26.247 -29.987  1.00 36.36 LIG 0.04  C 
BRANCH 7 8
ATOM      8  CG  ARG B   2     -21.035 -26.871 -30.976  1.00 41.67 LIG 0.02  C 
BRANCH 8 9
ATOM      9  CD  ARG B   2     -21.126 -28.397 -31.030  1.00 51.14 LIG 0.14  C 
BRANCH 9 10
ATOM     10  NE  ARG B   2     -19.803 -29.018 -31.223  1.00 53.41 LIG-0.23  N 
ATOM     11 HE   ARG B   2     -19.286 -29.067 -30.537  1.00 53.41 LIG 0.18  HD
ATOM     12  CZ  ARG B   2     -19.338 -29.512 -32.377  1.00 50.83 LIG 0.67  C 
ATOM     13  NH1 ARG B   2     -20.078 -29.468 -33.477  1.00 40.00 LIG-0.23  N 
ATOM     14  NH2 ARG B   2     -18.115 -30.044 -32.428  1.00 54.23 LIG-0.23  N 
ATOM     15 1HH1 ARG B   2     -20.864 -29.120 -33.454  1.00 40.00 LIG 0.17  HD
ATOM     16 2HH1 ARG B   2     -19.771 -29.788 -34.215  1.00 40.00 LIG 0.17  HD
ATOM     17 1HH2 ARG B   2     -17.627 -30.069 -31.721  1.00 54.23 LIG 0.17  HD
ATOM     18 2HH2 ARG B   2     -17.816 -30.362 -33.169  1.00 54.23 LIG 0.17  HD
ENDBRANCH 9 10
ENDBRANCH 8 9
ENDBRANCH 7 8
ENDBRANCH 6 7
BRANCH 6 19
ATOM     19  N   ARG B   2     -22.183 -24.451 -28.312  1.00 29.89 LIG-0.35  N 
ATOM     20  C   ASN B   1     -21.928 -23.983 -27.097  1.00 39.87 LIG 0.25  C 
ATOM     21 O    ASN B   1     -21.135 -24.535 -26.323  1.00 37.46 LIG-0.27  OA
ATOM     22 H    ARG B   2     -22.871 -24.236 -28.783  1.00 29.89 LIG 0.16  HD
BRANCH 20 23
ATOM     23  CA  ASN B   1     -22.693 -22.708 -26.699  1.00 47.73 LIG 0.28  C 
BRANCH 23 24
ATOM     24  N   ASN B   1     -22.444 -22.258 -25.351  1.00 51.86 LIG-0.07  N 
ATOM     25 H3   ASN B   1     -22.234 -21.393 -25.361  1.00 51.86 LIG 0.28  HD
ATOM     26 H1   ASN B   1     -23.175 -22.380 -24.858  1.00 51.86 LIG 0.28  HD
ATOM     27 H2   ASN B   1     -21.770 -22.723 -25.003  1.00 51.86 LIG 0.28  HD
ENDBRANCH 23 24
BRANCH 23 28
ATOM     28  CB  ASN B   1     -22.417 -21.546 -27.630  1.00 49.79 LIG 0.14  C 
BRANCH 28 29
ATOM     29  CG  ASN B   1     -23.273 -20.350 -27.286  1.00 59.47 LIG 0.22  C 
ATOM     30  ND2 ASN B   1     -22.634 -19.244 -26.889  1.00 63.81 LIG-0.37  N 
ATOM     31 21HD ASN B   1     -23.083 -18.547 -26.662  1.00 63.81 LIG 0.16  HD
ATOM     32 22HD ASN B   1     -21.775 -19.231 -26.863  1.00 63.81 LIG 0.16  HD
ATOM     33 OD1  ASN B   1     -24.498 -20.424 -27.343  1.00 60.25 LIG-0.27  OA
ENDBRANCH 28 29
ENDBRANCH 23 28
ENDBRANCH 20 23
ENDBRANCH 6 19
ENDBRANCH 3 6
ENDBRANCH 1 2
BRANCH 1 34
ATOM     34  CB  LEU B   3     -20.207 -21.550 -31.552  1.00 28.79 LIG 0.04  C 
BRANCH 34 35
ATOM     35  CG  LEU B   3     -20.948 -22.203 -32.724  1.00 33.15 LIG-0.02  C 
ATOM     36  CD2 LEU B   3     -20.258 -23.512 -33.086  1.00 30.13 LIG 0.01  C 
ATOM     37  CD1 LEU B   3     -21.070 -21.299 -33.986  1.00 27.67 LIG 0.01  C 
ENDBRANCH 34 35
ENDBRANCH 1 34
BRANCH 1 38
ATOM     38  C   LEU B   3     -18.452 -21.972 -29.767  1.00 20.33 LIG 0.24  C 
ATOM     39  N   LEU B   4     -17.276 -22.588 -29.692  1.00 23.83 LIG-0.35  N 
ATOM     40 H    LEU B   4     -17.076 -23.304 -30.125  1.00 23.83 LIG 0.16  HD
ATOM     41 O    LEU B   3     -18.700 -20.945 -29.142  1.00 22.70 LIG-0.27  OA
BRANCH 39 42
ATOM     42  CA  LEU B   4     -16.211 -22.071 -28.841  1.00 22.91 LIG 0.18  C 
BRANCH 42 43
ATOM     43  C   LEU B   4     -16.002 -20.591 -29.174  1.00 30.74 LIG 0.24  C 
ATOM     44 O    LEU B   4     -16.099 -20.167 -30.360  1.00 30.11 LIG-0.27  OA
ATOM     45  N   LEU B   5     -15.684 -19.786 -28.169  1.00 32.41 LIG-0.35  N 
ATOM     46 H    LEU B   5     -15.668 -20.003 -27.337  1.00 32.41 LIG 0.16  HD
BRANCH 45 47
ATOM     47  CA  LEU B   5     -15.324 -18.396 -28.478  1.00 35.50 LIG 0.18  C 
BRANCH 47 48
ATOM     48  C   LEU B   5     -13.877 -18.118 -28.085  1.00 33.38 LIG 0.24  C 
ATOM     49 O    LEU B   5     -12.926 -18.649 -28.699  1.00 25.58 LIG-0.27  OA
ATOM     50  N   THR B   6     -13.734 -17.289 -27.056  1.00 32.99 LIG-0.34  N 
ATOM     51 H    THR B   6     -14.384 -16.826 -26.737  1.00 32.99 LIG 0.16  HD
BRANCH 50 52
ATOM     52  CA  THR B   6     -12.475 -17.070 -26.358  1.00 39.09 LIG 0.19  C 
BRANCH 52 53
ATOM     53  CB  THR B   6     -12.495 -15.714 -25.601  1.00 66.99 LIG 0.14  C 
ATOM     54  CG2 THR B   6     -11.092 -15.164 -25.435  1.00 64.52 LIG 0.04  C 
BRANCH 53 55
ATOM     55 OG1  THR B   6     -13.279 -14.755 -26.337  1.00 68.32 LIG-0.39  OA
ATOM     56 HG1  THR B   6     -13.972 -14.566 -25.902  1.00 68.32 LIG 0.21  HD
ENDBRANCH 53 55
ENDBRANCH 52 53
BRANCH 52 57
ATOM     57  C   THR B   6     -12.274 -18.199 -25.337  1.00 46.48 LIG 0.22  C 
ATOM     58 O    THR B   6     -13.233 -18.888 -24.956  1.00 50.47 LIG-0.29  OA
ENDBRANCH 52 57
ENDBRANCH 50 52
ENDBRANCH 47 48
BRANCH 47 59
ATOM     59  CB  LEU B   5     -16.221 -17.416 -27.733  1.00 41.25 LIG 0.04  C 
BRANCH 59 60
ATOM     60  CG  LEU B   5     -16.694 -16.175 -28.475  1.00 47.99 LIG-0.02  C 
ATOM     61  CD2 LEU B   5     -15.649 -15.725 -29.458  1.00 50.88 LIG 0.01  C 
ATOM     62  CD1 LEU B   5     -16.950 -15.087 -27.453  1.00 54.72 LIG 0.01  C 
ENDBRANCH 59 60
ENDBRANCH 47 59
ENDBRANCH 45 47
ENDBRANCH 42 43
BRANCH 42 63
ATOM     63  CB  LEU B   4     -14.940 -22.818 -29.191  1.00 23.96 LIG 0.04  C 
BRANCH 63 64
ATOM     64  CG  LEU B   4     -13.891 -23.196 -28.169  1.00 38.52 LIG-0.02  C 
ATOM     65  CD1 LEU B   4     -14.029 -22.399 -26.923  1.00 46.71 LIG 0.01  C 
ATOM     66  CD2 LEU B   4     -13.983 -24.707 -27.905  1.00 36.33 LIG 0.01  C 
ENDBRANCH 63 64
ENDBRANCH 42 63
ENDBRANCH 39 42
ENDBRANCH 1 38
TORSDOF 26
ENDMDL
MODEL 16
USER: ADFR SOLUTION from run 130
USER: SCORE 22.672680 LL:  -4.858 LR: -19.691 RR:   0.000 FEB: -11.935
USER: RMSD 5.709457
USER: SEED 129
USER: STATUS no improvement in best in 13 clusters for 5 generations
USER: GENES 28
USER: genes 0 Translation |==|  0.42617 0.51839 0.36366
USER: genes 1 Rotation |==|  0.58025 0.56774 0.54112 0.98712
USER: genes 2 Torsion [C]-CA--N-[C] |==|  0.79366
USER: genes 3 Torsion [N]-C--CA-[N] |==|  0.92293
USER: genes 4 Torsion [C]-CA--CB-[CG] |==|  0.26522
USER: genes 5 Torsion [CA]-CB--CG-[CD] |==|  0.58455
USER: genes 6 Torsion [CB]-CG--CD-[NE] |==|  0.39732
USER: genes 7 Torsion [CG]-CD--NE-[HE] |==|  0.06914
USER: genes 8 Torsion [C]-CA--N-[C] |==|  0.75929
USER: genes 9 Torsion [N]-C--CA-[N] |==|  0.50550
USER: genes 10 Torsion [C]-CA--N-[H3] |==|  0.32969
USER: genes 11 Torsion [C]-CA--CB-[CG] |==|  0.54441
USER: genes 12 Torsion [CA]-CB--CG-[ND2] |==|  0.26345
USER: genes 13 Torsion [N]-CA--CB-[CG] |==|  0.66146
USER: genes 14 Torsion [CA]-CB--CG-[CD1] |==|  0.09510
USER: genes 15 Torsion [N]-CA--C-[N] |==|  0.35703
USER: genes 16 Torsion [C]-N--CA-[CB] |==|  0.35451
USER: genes 17 Torsion [N]-CA--C-[N] |==|  0.24147
USER: genes 18 Torsion [C]-N--CA-[C] |==|  0.81014
USER: genes 19 Torsion [N]-CA--C-[N] |==|  0.94231
USER: genes 20 Torsion [C]-N--CA-[C] |==|  0.87426
USER: genes 21 Torsion [N]-CA--CB-[CG2] |==|  0.88657
USER: genes 22 Torsion [CA]-CB--OG1-[HG1] |==|  0.48756
USER: genes 23 Torsion [N]-CA--C-[O] |==|  0.80159
USER: genes 24 Torsion [N]-CA--CB-[CG] |==|  0.24846
USER: genes 25 Torsion [CA]-CB--CG-[CD2] |==|  0.82704
USER: genes 26 Torsion [N]-CA--CB-[CG] |==|  0.70132
USER: genes 27 Torsion [CA]-CB--CG-[CD1] |==|  0.06034
ROOT
ATOM      1  CA  LEU B   3     -19.929 -22.416 -31.180  1.00 17.18 LIG 0.18  C 
ENDROOT
BRANCH 1 2
ATOM      2  N   LEU B   3     -20.589 -23.278 -30.273  1.00 21.09 LIG-0.35  N 
ATOM      3  C   ARG B   2     -20.022 -24.405 -29.851  1.00 20.79 LIG 0.24  C 
ATOM      4 O    ARG B   2     -18.858 -24.743 -30.149  1.00 18.81 LIG-0.27  OA
ATOM      5 H    LEU B   3     -21.369 -23.010 -30.028  1.00 21.09 LIG 0.16  HD
BRANCH 3 6
ATOM      6  CA  ARG B   2     -20.921 -25.319 -29.029  1.00 21.42 LIG 0.18  C 
BRANCH 6 7
ATOM      7  CB  ARG B   2     -21.577 -26.422 -29.866  1.00 36.36 LIG 0.04  C 
BRANCH 7 8
ATOM      8  CG  ARG B   2     -20.794 -27.720 -29.813  1.00 41.67 LIG 0.02  C 
BRANCH 8 9
ATOM      9  CD  ARG B   2     -20.916 -28.553 -31.091  1.00 51.14 LIG 0.14  C 
BRANCH 9 10
ATOM     10  NE  ARG B   2     -19.650 -29.229 -31.427  1.00 53.41 LIG-0.23  N 
ATOM     11 HE   ARG B   2     -19.103 -29.386 -30.782  1.00 53.41 LIG 0.18  HD
ATOM     12  CZ  ARG B   2     -19.281 -29.621 -32.653  1.00 50.83 LIG 0.67  C 
ATOM     13  NH1 ARG B   2     -20.073 -29.410 -33.696  1.00 40.00 LIG-0.23  N 
ATOM     14  NH2 ARG B   2     -18.102 -30.219 -32.832  1.00 54.23 LIG-0.23  N 
ATOM     15 1HH1 ARG B   2     -20.831 -29.019 -33.589  1.00 40.00 LIG 0.17  HD
ATOM     16 2HH1 ARG B   2     -19.828 -29.665 -34.481  1.00 40.00 LIG 0.17  HD
ATOM     17 1HH2 ARG B   2     -17.580 -30.352 -32.162  1.00 54.23 LIG 0.17  HD
ATOM     18 2HH2 ARG B   2     -17.864 -30.471 -33.619  1.00 54.23 LIG 0.17  HD
ENDBRANCH 9 10
ENDBRANCH 8 9
ENDBRANCH 7 8
ENDBRANCH 6 7
BRANCH 6 19
ATOM     19  N   ARG B   2     -21.909 -24.495 -28.369  1.00 29.89 LIG-0.35  N 
ATOM     20  C   ASN B   1     -21.645 -23.937 -27.195  1.00 39.87 LIG 0.25  C 
ATOM     21 O    ASN B   1     -20.727 -24.328 -26.462  1.00 37.46 LIG-0.27  OA
ATOM     22 H    ARG B   2     -22.652 -24.407 -28.794  1.00 29.89 LIG 0.16  HD
BRANCH 20 23
ATOM     23  CA  ASN B   1     -22.565 -22.772 -26.787  1.00 47.73 LIG 0.28  C 
BRANCH 23 24
ATOM     24  N   ASN B   1     -22.227 -22.156 -25.528  1.00 51.86 LIG-0.07  N 
ATOM     25 H3   ASN B   1     -22.022 -21.300 -25.661  1.00 51.86 LIG 0.28  HD
ATOM     26 H1   ASN B   1     -22.922 -22.210 -24.974  1.00 51.86 LIG 0.28  HD
ATOM     27 H2   ASN B   1     -21.529 -22.576 -25.169  1.00 51.86 LIG 0.28  HD
ENDBRANCH 23 24
BRANCH 23 28
ATOM     28  CB  ASN B   1     -22.621 -21.678 -27.834  1.00 49.79 LIG 0.14  C 
BRANCH 28 29
ATOM     29  CG  ASN B   1     -23.195 -20.403 -27.266  1.00 59.47 LIG 0.22  C 
ATOM     30  ND2 ASN B   1     -22.322 -19.494 -26.817  1.00 63.81 LIG-0.37  N 
ATOM     31 21HD ASN B   1     -22.605 -18.763 -26.464  1.00 63.81 LIG 0.16  HD
ATOM     32 22HD ASN B   1     -21.477 -19.642 -26.882  1.00 63.81 LIG 0.16  HD
ATOM     33 OD1  ASN B   1     -24.411 -20.243 -27.198  1.00 60.25 LIG-0.27  OA
ENDBRANCH 28 29
ENDBRANCH 23 28
ENDBRANCH 20 23
ENDBRANCH 6 19
ENDBRANCH 3 6
ENDBRANCH 1 2
BRANCH 1 34
ATOM     34  CB  LEU B   3     -20.962 -21.474 -31.861  1.00 28.79 LIG 0.04  C 
BRANCH 34 35
ATOM     35  CG  LEU B   3     -20.935 -21.624 -33.386  1.00 33.15 LIG-0.02  C 
ATOM     36  CD2 LEU B   3     -22.262 -21.145 -33.960  1.00 30.13 LIG 0.01  C 
ATOM     37  CD1 LEU B   3     -20.633 -23.070 -33.880  1.00 27.67 LIG 0.01  C 
ENDBRANCH 34 35
ENDBRANCH 1 34
BRANCH 1 38
ATOM     38  C   LEU B   3     -18.813 -21.639 -30.517  1.00 20.33 LIG 0.24  C 
ATOM     39  N   LEU B   4     -17.632 -21.691 -31.124  1.00 23.83 LIG-0.35  N 
ATOM     40 H    LEU B   4     -17.478 -22.129 -31.848  1.00 23.83 LIG 0.16  HD
ATOM     41 O    LEU B   3     -19.000 -20.996 -29.488  1.00 22.70 LIG-0.27  OA
BRANCH 39 42
ATOM     42  CA  LEU B   4     -16.478 -20.985 -30.581  1.00 22.91 LIG 0.18  C 
BRANCH 42 43
ATOM     43  C   LEU B   4     -16.058 -19.904 -31.581  1.00 30.74 LIG 0.24  C 
ATOM     44 O    LEU B   4     -15.154 -20.120 -32.438  1.00 30.11 LIG-0.27  OA
ATOM     45  N   LEU B   5     -16.660 -18.726 -31.485  1.00 32.41 LIG-0.35  N 
ATOM     46 H    LEU B   5     -17.322 -18.542 -30.969  1.00 32.41 LIG 0.16  HD
BRANCH 45 47
ATOM     47  CA  LEU B   5     -16.171 -17.624 -32.323  1.00 35.50 LIG 0.18  C 
BRANCH 47 48
ATOM     48  C   LEU B   5     -14.781 -17.187 -31.875  1.00 33.38 LIG 0.24  C 
ATOM     49 O    LEU B   5     -14.019 -16.562 -32.645  1.00 25.58 LIG-0.27  OA
ATOM     50  N   THR B   6     -14.468 -17.530 -30.629  1.00 32.99 LIG-0.34  N 
ATOM     51 H    THR B   6     -15.048 -17.831 -30.071  1.00 32.99 LIG 0.16  HD
BRANCH 50 52
ATOM     52  CA  THR B   6     -13.126 -17.436 -30.072  1.00 39.09 LIG 0.19  C 
BRANCH 52 53
ATOM     53  CB  THR B   6     -13.018 -18.257 -28.759  1.00 66.99 LIG 0.14  C 
ATOM     54  CG2 THR B   6     -14.262 -18.087 -27.909  1.00 64.52 LIG 0.04  C 
BRANCH 53 55
ATOM     55 OG1  THR B   6     -12.861 -19.656 -29.068  1.00 68.32 LIG-0.39  OA
ATOM     56 HG1  THR B   6     -12.741 -20.089 -28.359  1.00 68.32 LIG 0.21  HD
ENDBRANCH 53 55
ENDBRANCH 52 53
BRANCH 52 57
ATOM     57  C   THR B   6     -12.128 -18.005 -31.091  1.00 46.48 LIG 0.22  C 
ATOM     58 O    THR B   6     -12.077 -19.224 -31.317  1.00 50.47 LIG-0.29  OA
ENDBRANCH 52 57
ENDBRANCH 50 52
ENDBRANCH 47 48
BRANCH 47 59
ATOM     59  CB  LEU B   5     -17.101 -16.419 -32.248  1.00 41.25 LIG 0.04  C 
BRANCH 59 60
ATOM     60  CG  LEU B   5     -16.842 -15.384 -31.166  1.00 47.99 LIG-0.02  C 
ATOM     61  CD2 LEU B   5     -16.987 -16.004 -29.804  1.00 50.88 LIG 0.01  C 
ATOM     62  CD1 LEU B   5     -17.847 -14.264 -31.338  1.00 54.72 LIG 0.01  C 
ENDBRANCH 59 60
ENDBRANCH 47 59
ENDBRANCH 45 47
ENDBRANCH 42 43
BRANCH 42 63
ATOM     63  CB  LEU B   4     -15.344 -21.983 -30.460  1.00 23.96 LIG 0.04  C 
BRANCH 63 64
ATOM     64  CG  LEU B   4     -14.857 -22.529 -29.136  1.00 38.52 LIG-0.02  C 
ATOM     65  CD1 LEU B   4     -15.892 -22.405 -28.078  1.00 46.71 LIG 0.01  C 
ATOM     66  CD2 LEU B   4     -14.406 -23.984 -29.340  1.00 36.33 LIG 0.01  C 
ENDBRANCH 63 64
ENDBRANCH 42 63
ENDBRANCH 39 42
ENDBRANCH 1 38
TORSDOF 26
ENDMDL
MODEL 17
USER: ADFR SOLUTION from run 93
USER: SCORE 23.882050 LL:  -5.322 LR: -19.631 RR:   0.000 FEB: -11.875
USER: RMSD 4.600407
USER: SEED 92
USER: STATUS no improvement in best in 4 clusters for 5 generations
USER: GENES 28
USER: genes 0 Translation |==|  0.45530 0.52656 0.34579
USER: genes 1 Rotation |==|  0.65113 0.48278 0.57881 0.96974
USER: genes 2 Torsion [C]-CA--N-[C] |==|  0.60619
USER: genes 3 Torsion [N]-C--CA-[N] |==|  0.41273
USER: genes 4 Torsion [C]-CA--CB-[CG] |==|  0.24417
USER: genes 5 Torsion [CA]-CB--CG-[CD] |==|  0.28791
USER: genes 6 Torsion [CB]-CG--CD-[NE] |==|  0.27979
USER: genes 7 Torsion [CG]-CD--NE-[HE] |==|  0.82374
USER: genes 8 Torsion [C]-CA--N-[C] |==|  0.68638
USER: genes 9 Torsion [N]-C--CA-[N] |==|  0.56083
USER: genes 10 Torsion [C]-CA--N-[H3] |==|  0.79778
USER: genes 11 Torsion [C]-CA--CB-[CG] |==|  0.83643
USER: genes 12 Torsion [CA]-CB--CG-[ND2] |==|  0.37201
USER: genes 13 Torsion [N]-CA--CB-[CG] |==|  0.88936
USER: genes 14 Torsion [CA]-CB--CG-[CD1] |==|  0.26358
USER: genes 15 Torsion [N]-CA--C-[N] |==|  0.28544
USER: genes 16 Torsion [C]-N--CA-[CB] |==|  0.52622
USER: genes 17 Torsion [N]-CA--C-[N] |==|  0.47962
USER: genes 18 Torsion [C]-N--CA-[C] |==|  0.86406
USER: genes 19 Torsion [N]-CA--C-[N] |==|  0.91094
USER: genes 20 Torsion [C]-N--CA-[C] |==|  0.75008
USER: genes 21 Torsion [N]-CA--CB-[CG2] |==|  0.58321
USER: genes 22 Torsion [CA]-CB--OG1-[HG1] |==|  0.86662
USER: genes 23 Torsion [N]-CA--C-[O] |==|  0.78527
USER: genes 24 Torsion [N]-CA--CB-[CG] |==|  0.14097
USER: genes 25 Torsion [CA]-CB--CG-[CD2] |==|  0.62180
USER: genes 26 Torsion [N]-CA--CB-[CG] |==|  0.62530
USER: genes 27 Torsion [CA]-CB--CG-[CD1] |==|  0.90703
ROOT
ATOM      1  CA  LEU B   3     -19.208 -22.214 -31.555  1.00 17.18 LIG 0.18  C 
ENDROOT
BRANCH 1 2
ATOM      2  N   LEU B   3     -20.012 -23.333 -31.233  1.00 21.09 LIG-0.35  N 
ATOM      3  C   ARG B   2     -20.154 -24.350 -32.079  1.00 20.79 LIG 0.24  C 
ATOM      4 O    ARG B   2     -19.540 -24.435 -33.162  1.00 18.81 LIG-0.27  OA
ATOM      5 H    LEU B   3     -20.387 -23.293 -30.460  1.00 21.09 LIG 0.16  HD
BRANCH 3 6
ATOM      6  CA  ARG B   2     -21.191 -25.391 -31.678  1.00 21.42 LIG 0.18  C 
BRANCH 6 7
ATOM      7  CB  ARG B   2     -20.618 -26.489 -30.777  1.00 36.36 LIG 0.04  C 
BRANCH 7 8
ATOM      8  CG  ARG B   2     -20.685 -26.113 -29.308  1.00 41.67 LIG 0.02  C 
BRANCH 8 9
ATOM      9  CD  ARG B   2     -21.809 -26.825 -28.553  1.00 51.14 LIG 0.14  C 
BRANCH 9 10
ATOM     10  NE  ARG B   2     -21.305 -27.969 -27.771  1.00 53.41 LIG-0.23  N 
ATOM     11 HE   ARG B   2     -20.953 -28.621 -28.208  1.00 53.41 LIG 0.18  HD
ATOM     12  CZ  ARG B   2     -21.347 -28.077 -26.438  1.00 50.83 LIG 0.67  C 
ATOM     13  NH1 ARG B   2     -21.877 -27.111 -25.698  1.00 40.00 LIG-0.23  N 
ATOM     14  NH2 ARG B   2     -20.864 -29.170 -25.844  1.00 54.23 LIG-0.23  N 
ATOM     15 1HH1 ARG B   2     -22.197 -26.408 -26.074  1.00 40.00 LIG 0.17  HD
ATOM     16 2HH1 ARG B   2     -21.901 -27.190 -24.841  1.00 40.00 LIG 0.17  HD
ATOM     17 1HH2 ARG B   2     -20.526 -29.803 -26.317  1.00 54.23 LIG 0.17  HD
ATOM     18 2HH2 ARG B   2     -20.891 -29.241 -24.988  1.00 54.23 LIG 0.17  HD
ENDBRANCH 9 10
ENDBRANCH 8 9
ENDBRANCH 7 8
ENDBRANCH 6 7
BRANCH 6 19
ATOM     19  N   ARG B   2     -21.759 -25.941 -32.890  1.00 29.89 LIG-0.35  N 
ATOM     20  C   ASN B   1     -23.028 -25.717 -33.200  1.00 39.87 LIG 0.25  C 
ATOM     21 O    ASN B   1     -23.862 -25.335 -32.369  1.00 37.46 LIG-0.27  OA
ATOM     22 H    ARG B   2     -21.214 -26.407 -33.366  1.00 29.89 LIG 0.16  HD
BRANCH 20 23
ATOM     23  CA  ASN B   1     -23.412 -25.976 -34.669  1.00 47.73 LIG 0.28  C 
BRANCH 23 24
ATOM     24  N   ASN B   1     -24.600 -25.286 -35.108  1.00 51.86 LIG-0.07  N 
ATOM     25 H3   ASN B   1     -25.316 -25.669 -34.745  1.00 51.86 LIG 0.28  HD
ATOM     26 H1   ASN B   1     -24.559 -24.434 -34.854  1.00 51.86 LIG 0.28  HD
ATOM     27 H2   ASN B   1     -24.657 -25.329 -35.995  1.00 51.86 LIG 0.28  HD
ENDBRANCH 23 24
BRANCH 23 28
ATOM     28  CB  ASN B   1     -22.296 -25.631 -35.634  1.00 49.79 LIG 0.14  C 
BRANCH 28 29
ATOM     29  CG  ASN B   1     -21.895 -24.179 -35.512  1.00 59.47 LIG 0.22  C 
ATOM     30  ND2 ASN B   1     -20.584 -23.918 -35.459  1.00 63.81 LIG-0.37  N 
ATOM     31 21HD ASN B   1     -20.311 -23.108 -35.367  1.00 63.81 LIG 0.16  HD
ATOM     32 22HD ASN B   1     -20.015 -24.560 -35.517  1.00 63.81 LIG 0.16  HD
ATOM     33 OD1  ASN B   1     -22.750 -23.301 -35.435  1.00 60.25 LIG-0.27  OA
ENDBRANCH 28 29
ENDBRANCH 23 28
ENDBRANCH 20 23
ENDBRANCH 6 19
ENDBRANCH 3 6
ENDBRANCH 1 2
BRANCH 1 34
ATOM     34  CB  LEU B   3     -20.084 -21.102 -32.198  1.00 28.79 LIG 0.04  C 
BRANCH 34 35
ATOM     35  CG  LEU B   3     -21.124 -21.693 -33.155  1.00 33.15 LIG-0.02  C 
ATOM     36  CD2 LEU B   3     -21.263 -20.783 -34.369  1.00 30.13 LIG 0.01  C 
ATOM     37  CD1 LEU B   3     -22.521 -21.937 -32.510  1.00 27.67 LIG 0.01  C 
ENDBRANCH 34 35
ENDBRANCH 1 34
BRANCH 1 38
ATOM     38  C   LEU B   3     -18.440 -21.701 -30.357  1.00 20.33 LIG 0.24  C 
ATOM     39  N   LEU B   4     -17.153 -22.027 -30.312  1.00 23.83 LIG-0.35  N 
ATOM     40 H    LEU B   4     -16.751 -22.498 -30.909  1.00 23.83 LIG 0.16  HD
ATOM     41 O    LEU B   3     -18.980 -21.018 -29.491  1.00 22.70 LIG-0.27  OA
BRANCH 39 42
ATOM     42  CA  LEU B   4     -16.308 -21.592 -29.206  1.00 22.91 LIG 0.18  C 
BRANCH 42 43
ATOM     43  C   LEU B   4     -16.430 -20.071 -29.072  1.00 30.74 LIG 0.24  C 
ATOM     44 O    LEU B   4     -17.034 -19.384 -29.945  1.00 30.11 LIG-0.27  OA
ATOM     45  N   LEU B   5     -15.848 -19.508 -28.022  1.00 32.41 LIG-0.35  N 
ATOM     46 H    LEU B   5     -15.482 -19.928 -27.367  1.00 32.41 LIG 0.16  HD
BRANCH 45 47
ATOM     47  CA  LEU B   5     -15.812 -18.042 -27.948  1.00 35.50 LIG 0.18  C 
BRANCH 47 48
ATOM     48  C   LEU B   5     -15.315 -17.452 -29.263  1.00 33.38 LIG 0.24  C 
ATOM     49 O    LEU B   5     -15.729 -16.346 -29.674  1.00 25.58 LIG-0.27  OA
ATOM     50  N   THR B   6     -14.432 -18.208 -29.909  1.00 32.99 LIG-0.34  N 
ATOM     51 H    THR B   6     -14.054 -18.892 -29.550  1.00 32.99 LIG 0.16  HD
BRANCH 50 52
ATOM     52  CA  THR B   6     -14.007 -17.969 -31.281  1.00 39.09 LIG 0.19  C 
BRANCH 52 53
ATOM     53  CB  THR B   6     -12.555 -18.472 -31.502  1.00 66.99 LIG 0.14  C 
ATOM     54  CG2 THR B   6     -11.850 -17.648 -32.561  1.00 64.52 LIG 0.04  C 
BRANCH 53 55
ATOM     55 OG1  THR B   6     -11.811 -18.373 -30.271  1.00 68.32 LIG-0.39  OA
ATOM     56 HG1  THR B   6     -11.927 -17.612 -29.934  1.00 68.32 LIG 0.21  HD
ENDBRANCH 53 55
ENDBRANCH 52 53
BRANCH 52 57
ATOM     57  C   THR B   6     -14.942 -18.736 -32.227  1.00 46.48 LIG 0.22  C 
ATOM     58 O    THR B   6     -14.821 -19.960 -32.384  1.00 50.47 LIG-0.29  OA
ENDBRANCH 52 57
ENDBRANCH 50 52
ENDBRANCH 47 48
BRANCH 47 59
ATOM     59  CB  LEU B   5     -14.892 -17.569 -26.830  1.00 41.25 LIG 0.04  C 
BRANCH 59 60
ATOM     60  CG  LEU B   5     -13.484 -18.140 -26.774  1.00 47.99 LIG-0.02  C 
ATOM     61  CD2 LEU B   5     -13.124 -18.503 -25.360  1.00 50.88 LIG 0.01  C 
ATOM     62  CD1 LEU B   5     -12.530 -17.089 -27.302  1.00 54.72 LIG 0.01  C 
ENDBRANCH 59 60
ENDBRANCH 47 59
ENDBRANCH 45 47
ENDBRANCH 42 43
BRANCH 42 63
ATOM     63  CB  LEU B   4     -14.873 -21.920 -29.568  1.00 23.96 LIG 0.04  C 
BRANCH 63 64
ATOM     64  CG  LEU B   4     -13.901 -22.565 -28.605  1.00 38.52 LIG-0.02  C 
ATOM     65  CD1 LEU B   4     -14.149 -22.133 -27.206  1.00 46.71 LIG 0.01  C 
ATOM     66  CD2 LEU B   4     -13.988 -24.090 -28.765  1.00 36.33 LIG 0.01  C 
ENDBRANCH 63 64
ENDBRANCH 42 63
ENDBRANCH 39 42
ENDBRANCH 1 38
TORSDOF 26
ENDMDL
MODEL 18
USER: ADFR SOLUTION from run 76
USER: SCORE 22.761155 LL:  -4.810 LR: -19.598 RR:   0.000 FEB: -11.842
USER: RMSD 5.214317
USER: SEED 75
USER: STATUS no improvement in best in 6 clusters for 5 generations
USER: GENES 28
USER: genes 0 Translation |==|  0.43158 0.52828 0.35849
USER: genes 1 Rotation |==|  0.59310 0.54179 0.51435 0.98927
USER: genes 2 Torsion [C]-CA--N-[C] |==|  0.77512
USER: genes 3 Torsion [N]-C--CA-[N] |==|  0.90929
USER: genes 4 Torsion [C]-CA--CB-[CG] |==|  0.85143
USER: genes 5 Torsion [CA]-CB--CG-[CD] |==|  0.37823
USER: genes 6 Torsion [CB]-CG--CD-[NE] |==|  0.45753
USER: genes 7 Torsion [CG]-CD--NE-[HE] |==|  0.91595
USER: genes 8 Torsion [C]-CA--N-[C] |==|  0.73964
USER: genes 9 Torsion [N]-C--CA-[N] |==|  0.50857
USER: genes 10 Torsion [C]-CA--N-[H3] |==|  0.88793
USER: genes 11 Torsion [C]-CA--CB-[CG] |==|  0.42876
USER: genes 12 Torsion [CA]-CB--CG-[ND2] |==|  0.32727
USER: genes 13 Torsion [N]-CA--CB-[CG] |==|  0.76104
USER: genes 14 Torsion [CA]-CB--CG-[CD1] |==|  0.62417
USER: genes 15 Torsion [N]-CA--C-[N] |==|  0.36592
USER: genes 16 Torsion [C]-N--CA-[CB] |==|  0.29372
USER: genes 17 Torsion [N]-CA--C-[N] |==|  0.39019
USER: genes 18 Torsion [C]-N--CA-[C] |==|  0.64267
USER: genes 19 Torsion [N]-CA--C-[N] |==|  0.45389
USER: genes 20 Torsion [C]-N--CA-[C] |==|  0.72850
USER: genes 21 Torsion [N]-CA--CB-[CG2] |==|  0.28558
USER: genes 22 Torsion [CA]-CB--OG1-[HG1] |==|  0.98842
USER: genes 23 Torsion [N]-CA--C-[O] |==|  0.02340
USER: genes 24 Torsion [N]-CA--CB-[CG] |==|  0.66057
USER: genes 25 Torsion [CA]-CB--CG-[CD2] |==|  0.74962
USER: genes 26 Torsion [N]-CA--CB-[CG] |==|  0.56204
USER: genes 27 Torsion [CA]-CB--CG-[CD1] |==|  0.05186
ROOT
ATOM      1  CA  LEU B   3     -19.795 -22.171 -31.289  1.00 17.18 LIG 0.18  C 
ENDROOT
BRANCH 1 2
ATOM      2  N   LEU B   3     -20.632 -22.973 -30.478  1.00 21.09 LIG-0.35  N 
ATOM      3  C   ARG B   2     -20.308 -24.227 -30.176  1.00 20.79 LIG 0.24  C 
ATOM      4 O    ARG B   2     -19.227 -24.757 -30.506  1.00 18.81 LIG-0.27  OA
ATOM      5 H    LEU B   3     -21.350 -22.583 -30.208  1.00 21.09 LIG 0.16  HD
BRANCH 3 6
ATOM      6  CA  ARG B   2     -21.388 -25.025 -29.455  1.00 21.42 LIG 0.18  C 
BRANCH 6 7
ATOM      7  CB  ARG B   2     -22.306 -25.790 -30.415  1.00 36.36 LIG 0.04  C 
BRANCH 7 8
ATOM      8  CG  ARG B   2     -22.907 -24.883 -31.472  1.00 41.67 LIG 0.02  C 
BRANCH 8 9
ATOM      9  CD  ARG B   2     -22.882 -25.490 -32.875  1.00 51.14 LIG 0.14  C 
BRANCH 9 10
ATOM     10  NE  ARG B   2     -23.776 -24.770 -33.800  1.00 53.41 LIG-0.23  N 
ATOM     11 HE   ARG B   2     -24.477 -24.402 -33.464  1.00 53.41 LIG 0.18  HD
ATOM     12  CZ  ARG B   2     -23.589 -24.642 -35.119  1.00 50.83 LIG 0.67  C 
ATOM     13  NH1 ARG B   2     -22.531 -25.186 -35.708  1.00 40.00 LIG-0.23  N 
ATOM     14  NH2 ARG B   2     -24.477 -23.970 -35.855  1.00 54.23 LIG-0.23  N 
ATOM     15 1HH1 ARG B   2     -21.959 -25.626 -35.241  1.00 40.00 LIG 0.17  HD
ATOM     16 2HH1 ARG B   2     -22.419 -25.099 -36.556  1.00 40.00 LIG 0.17  HD
ATOM     17 1HH2 ARG B   2     -25.169 -23.621 -35.481  1.00 54.23 LIG 0.17  HD
ATOM     18 2HH2 ARG B   2     -24.358 -23.887 -36.702  1.00 54.23 LIG 0.17  HD
ENDBRANCH 9 10
ENDBRANCH 8 9
ENDBRANCH 7 8
ENDBRANCH 6 7
BRANCH 6 19
ATOM     19  N   ARG B   2     -22.136 -24.109 -28.622  1.00 29.89 LIG-0.35  N 
ATOM     20  C   ASN B   1     -21.806 -23.935 -27.350  1.00 39.87 LIG 0.25  C 
ATOM     21 O    ASN B   1     -21.100 -24.739 -26.727  1.00 37.46 LIG-0.27  OA
ATOM     22 H    ARG B   2     -22.786 -23.707 -29.017  1.00 29.89 LIG 0.16  HD
BRANCH 20 23
ATOM     23  CA  ASN B   1     -22.370 -22.667 -26.682  1.00 47.73 LIG 0.28  C 
BRANCH 23 24
ATOM     24  N   ASN B   1     -21.939 -22.466 -25.320  1.00 51.86 LIG-0.07  N 
ATOM     25 H3   ASN B   1     -21.934 -23.247 -24.892  1.00 51.86 LIG 0.28  HD
ATOM     26 H1   ASN B   1     -21.119 -22.121 -25.316  1.00 51.86 LIG 0.28  HD
ATOM     27 H2   ASN B   1     -22.498 -21.907 -24.911  1.00 51.86 LIG 0.28  HD
ENDBRANCH 23 24
BRANCH 23 28
ATOM     28  CB  ASN B   1     -22.047 -21.406 -27.457  1.00 49.79 LIG 0.14  C 
BRANCH 28 29
ATOM     29  CG  ASN B   1     -23.062 -20.321 -27.187  1.00 59.47 LIG 0.22  C 
ATOM     30  ND2 ASN B   1     -22.609 -19.199 -26.616  1.00 63.81 LIG-0.37  N 
ATOM     31 21HD ASN B   1     -23.155 -18.563 -26.424  1.00 63.81 LIG 0.16  HD
ATOM     32 22HD ASN B   1     -21.771 -19.113 -26.443  1.00 63.81 LIG 0.16  HD
ATOM     33 OD1  ASN B   1     -24.247 -20.495 -27.456  1.00 60.25 LIG-0.27  OA
ENDBRANCH 28 29
ENDBRANCH 23 28
ENDBRANCH 20 23
ENDBRANCH 6 19
ENDBRANCH 3 6
ENDBRANCH 1 2
BRANCH 1 34
ATOM     34  CB  LEU B   3     -20.640 -21.078 -32.002  1.00 28.79 LIG 0.04  C 
BRANCH 34 35
ATOM     35  CG  LEU B   3     -21.241 -21.602 -33.311  1.00 33.15 LIG-0.02  C 
ATOM     36  CD2 LEU B   3     -20.596 -22.937 -33.660  1.00 30.13 LIG 0.01  C 
ATOM     37  CD1 LEU B   3     -21.113 -20.618 -34.511  1.00 27.67 LIG 0.01  C 
ENDBRANCH 34 35
ENDBRANCH 1 34
BRANCH 1 38
ATOM     38  C   LEU B   3     -18.649 -21.571 -30.505  1.00 20.33 LIG 0.24  C 
ATOM     39  N   LEU B   4     -17.445 -21.696 -31.053  1.00 23.83 LIG-0.35  N 
ATOM     40 H    LEU B   4     -17.292 -22.087 -31.803  1.00 23.83 LIG 0.16  HD
ATOM     41 O    LEU B   3     -18.832 -20.998 -29.434  1.00 22.70 LIG-0.27  OA
BRANCH 39 42
ATOM     42  CA  LEU B   4     -16.261 -21.160 -30.391  1.00 22.91 LIG 0.18  C 
BRANCH 42 43
ATOM     43  C   LEU B   4     -15.382 -20.483 -31.448  1.00 30.74 LIG 0.24  C 
ATOM     44 O    LEU B   4     -15.208 -21.004 -32.586  1.00 30.11 LIG-0.27  OA
ATOM     45  N   LEU B   5     -14.790 -19.348 -31.102  1.00 32.41 LIG-0.35  N 
ATOM     46 H    LEU B   5     -14.922 -18.915 -30.371  1.00 32.41 LIG 0.16  HD
BRANCH 45 47
ATOM     47  CA  LEU B   5     -13.820 -18.757 -32.033  1.00 35.50 LIG 0.18  C 
BRANCH 47 48
ATOM     48  C   LEU B   5     -12.512 -18.444 -31.316  1.00 33.38 LIG 0.24  C 
ATOM     49 O    LEU B   5     -12.455 -18.389 -30.068  1.00 25.58 LIG-0.27  OA
ATOM     50  N   THR B   6     -11.475 -18.237 -32.122  1.00 32.99 LIG-0.34  N 
ATOM     51 H    THR B   6     -11.497 -18.416 -32.963  1.00 32.99 LIG 0.16  HD
BRANCH 50 52
ATOM     52  CA  THR B   6     -10.199 -17.692 -31.681  1.00 39.09 LIG 0.19  C 
BRANCH 52 53
ATOM     53  CB  THR B   6      -9.023 -18.371 -32.434  1.00 66.99 LIG 0.14  C 
ATOM     54  CG2 THR B   6      -8.480 -17.465 -33.522  1.00 64.52 LIG 0.04  C 
BRANCH 53 55
ATOM     55 OG1  THR B   6      -7.957 -18.669 -31.510  1.00 68.32 LIG-0.39  OA
ATOM     56 HG1  THR B   6      -8.152 -18.367 -30.751  1.00 68.32 LIG 0.21  HD
ENDBRANCH 53 55
ENDBRANCH 52 53
BRANCH 52 57
ATOM     57  C   THR B   6     -10.174 -16.188 -31.985  1.00 46.48 LIG 0.22  C 
ATOM     58 O    THR B   6     -11.195 -15.602 -32.378  1.00 50.47 LIG-0.29  OA
ENDBRANCH 52 57
ENDBRANCH 50 52
ENDBRANCH 47 48
BRANCH 47 59
ATOM     59  CB  LEU B   5     -14.355 -17.466 -32.641  1.00 41.25 LIG 0.04  C 
BRANCH 59 60
ATOM     60  CG  LEU B   5     -14.461 -17.381 -34.155  1.00 47.99 LIG-0.02  C 
ATOM     61  CD2 LEU B   5     -13.187 -16.833 -34.737  1.00 50.88 LIG 0.01  C 
ATOM     62  CD1 LEU B   5     -15.622 -16.469 -34.494  1.00 54.72 LIG 0.01  C 
ENDBRANCH 59 60
ENDBRANCH 47 59
ENDBRANCH 45 47
ENDBRANCH 42 43
BRANCH 42 63
ATOM     63  CB  LEU B   4     -15.489 -22.330 -29.814  1.00 23.96 LIG 0.04  C 
BRANCH 63 64
ATOM     64  CG  LEU B   4     -14.506 -22.192 -28.673  1.00 38.52 LIG-0.02  C 
ATOM     65  CD1 LEU B   4     -14.715 -20.931 -27.918  1.00 46.71 LIG 0.01  C 
ATOM     66  CD2 LEU B   4     -14.620 -23.433 -27.773  1.00 36.33 LIG 0.01  C 
ENDBRANCH 63 64
ENDBRANCH 42 63
ENDBRANCH 39 42
ENDBRANCH 1 38
TORSDOF 26
ENDMDL
MODEL 19
USER: ADFR SOLUTION from run 195
USER: SCORE 22.037645 LL:  -3.843 LR: -19.573 RR:   0.000 FEB: -11.817
USER: RMSD 2.884808
USER: SEED 194
USER: STATUS searching
USER: GENES 28
USER: genes 0 Translation |==|  0.43580 0.52153 0.36100
USER: genes 1 Rotation |==|  0.57997 0.54097 0.52934 0.99098
USER: genes 2 Torsion [C]-CA--N-[C] |==|  0.79667
USER: genes 3 Torsion [N]-C--CA-[N] |==|  0.39221
USER: genes 4 Torsion [C]-CA--CB-[CG] |==|  0.49815
USER: genes 5 Torsion [CA]-CB--CG-[CD] |==|  0.33387
USER: genes 6 Torsion [CB]-CG--CD-[NE] |==|  0.73943
USER: genes 7 Torsion [CG]-CD--NE-[HE] |==|  0.16311
USER: genes 8 Torsion [C]-CA--N-[C] |==|  0.80851
USER: genes 9 Torsion [N]-C--CA-[N] |==|  0.15025
USER: genes 10 Torsion [C]-CA--N-[H3] |==|  0.89630
USER: genes 11 Torsion [C]-CA--CB-[CG] |==|  0.44287
USER: genes 12 Torsion [CA]-CB--CG-[ND2] |==|  0.52545
USER: genes 13 Torsion [N]-CA--CB-[CG] |==|  0.76653
USER: genes 14 Torsion [CA]-CB--CG-[CD1] |==|  0.61742
USER: genes 15 Torsion [N]-CA--C-[N] |==|  0.36574
USER: genes 16 Torsion [C]-N--CA-[CB] |==|  0.28881
USER: genes 17 Torsion [N]-CA--C-[N] |==|  0.40399
USER: genes 18 Torsion [C]-N--CA-[C] |==|  0.64167
USER: genes 19 Torsion [N]-CA--C-[N] |==|  0.46111
USER: genes 20 Torsion [C]-N--CA-[C] |==|  0.70949
USER: genes 21 Torsion [N]-CA--CB-[CG2] |==|  0.28621
USER: genes 22 Torsion [CA]-CB--OG1-[HG1] |==|  0.01007
USER: genes 23 Torsion [N]-CA--C-[O] |==|  0.00884
USER: genes 24 Torsion [N]-CA--CB-[CG] |==|  0.66346
USER: genes 25 Torsion [CA]-CB--CG-[CD2] |==|  0.75520
USER: genes 26 Torsion [N]-CA--CB-[CG] |==|  0.66126
USER: genes 27 Torsion [CA]-CB--CG-[CD1] |==|  0.24777
ROOT
ATOM      1  CA  LEU B   3     -19.691 -22.338 -31.236  1.00 17.18 LIG 0.18  C 
ENDROOT
BRANCH 1 2
ATOM      2  N   LEU B   3     -20.491 -23.152 -30.400  1.00 21.09 LIG-0.35  N 
ATOM      3  C   ARG B   2     -20.035 -24.301 -29.909  1.00 20.79 LIG 0.24  C 
ATOM      4 O    ARG B   2     -18.864 -24.703 -30.074  1.00 18.81 LIG-0.27  OA
ATOM      5 H    LEU B   3     -21.278 -22.841 -30.245  1.00 21.09 LIG 0.16  HD
BRANCH 3 6
ATOM      6  CA  ARG B   2     -21.065 -25.156 -29.184  1.00 21.42 LIG 0.18  C 
BRANCH 6 7
ATOM      7  CB  ARG B   2     -21.064 -24.935 -27.667  1.00 36.36 LIG 0.04  C 
BRANCH 7 8
ATOM      8  CG  ARG B   2     -22.108 -25.784 -26.968  1.00 41.67 LIG 0.02  C 
BRANCH 8 9
ATOM      9  CD  ARG B   2     -21.514 -26.746 -25.937  1.00 51.14 LIG 0.14  C 
BRANCH 9 10
ATOM     10  NE  ARG B   2     -21.254 -28.077 -26.514  1.00 53.41 LIG-0.23  N 
ATOM     11 HE   ARG B   2     -20.721 -28.117 -27.188  1.00 53.41 LIG 0.18  HD
ATOM     12  CZ  ARG B   2     -21.778 -29.229 -26.078  1.00 50.83 LIG 0.67  C 
ATOM     13  NH1 ARG B   2     -22.610 -29.243 -25.044  1.00 40.00 LIG-0.23  N 
ATOM     14  NH2 ARG B   2     -21.472 -30.373 -26.691  1.00 54.23 LIG-0.23  N 
ATOM     15 1HH1 ARG B   2     -22.818 -28.509 -24.649  1.00 40.00 LIG 0.17  HD
ATOM     16 2HH1 ARG B   2     -22.943 -29.988 -24.770  1.00 40.00 LIG 0.17  HD
ATOM     17 1HH2 ARG B   2     -20.939 -30.370 -27.366  1.00 54.23 LIG 0.17  HD
ATOM     18 2HH2 ARG B   2     -21.808 -31.113 -26.412  1.00 54.23 LIG 0.17  HD
ENDBRANCH 9 10
ENDBRANCH 8 9
ENDBRANCH 7 8
ENDBRANCH 6 7
BRANCH 6 19
ATOM     19  N   ARG B   2     -20.809 -26.540 -29.519  1.00 29.89 LIG-0.35  N 
ATOM     20  C   ASN B   1     -21.030 -26.987 -30.747  1.00 39.87 LIG 0.25  C 
ATOM     21 O    ASN B   1     -21.746 -26.385 -31.558  1.00 37.46 LIG-0.27  OA
ATOM     22 H    ARG B   2     -20.512 -27.022 -28.870  1.00 29.89 LIG 0.16  HD
BRANCH 20 23
ATOM     23  CA  ASN B   1     -20.347 -28.320 -31.106  1.00 47.73 LIG 0.28  C 
BRANCH 23 24
ATOM     24  N   ASN B   1     -20.629 -29.401 -30.193  1.00 51.86 LIG-0.07  N 
ATOM     25 H3   ASN B   1     -20.667 -29.085 -29.362  1.00 51.86 LIG 0.28  HD
ATOM     26 H1   ASN B   1     -21.409 -29.773 -30.405  1.00 51.86 LIG 0.28  HD
ATOM     27 H2   ASN B   1     -19.984 -30.012 -30.249  1.00 51.86 LIG 0.28  HD
ENDBRANCH 23 24
BRANCH 23 28
ATOM     28  CB  ASN B   1     -20.692 -28.796 -32.502  1.00 49.79 LIG 0.14  C 
BRANCH 28 29
ATOM     29  CG  ASN B   1     -19.670 -29.784 -33.013  1.00 59.47 LIG 0.22  C 
ATOM     30  ND2 ASN B   1     -19.759 -30.132 -34.302  1.00 63.81 LIG-0.37  N 
ATOM     31 21HD ASN B   1     -19.213 -30.708 -34.630  1.00 63.81 LIG 0.16  HD
ATOM     32 22HD ASN B   1     -20.363 -29.778 -34.802  1.00 63.81 LIG 0.16  HD
ATOM     33 OD1  ASN B   1     -18.828 -30.257 -32.256  1.00 60.25 LIG-0.27  OA
ENDBRANCH 28 29
ENDBRANCH 23 28
ENDBRANCH 20 23
ENDBRANCH 6 19
ENDBRANCH 3 6
ENDBRANCH 1 2
BRANCH 1 34
ATOM     34  CB  LEU B   3     -20.589 -21.335 -32.013  1.00 28.79 LIG 0.04  C 
BRANCH 34 35
ATOM     35  CG  LEU B   3     -21.172 -21.972 -33.279  1.00 33.15 LIG-0.02  C 
ATOM     36  CD2 LEU B   3     -20.428 -23.267 -33.578  1.00 30.13 LIG 0.01  C 
ATOM     37  CD1 LEU B   3     -21.150 -21.044 -34.530  1.00 27.67 LIG 0.01  C 
ENDBRANCH 34 35
ENDBRANCH 1 34
BRANCH 1 38
ATOM     38  C   LEU B   3     -18.598 -21.632 -30.464  1.00 20.33 LIG 0.24  C 
ATOM     39  N   LEU B   4     -17.378 -21.708 -30.987  1.00 23.83 LIG-0.35  N 
ATOM     40 H    LEU B   4     -17.189 -22.124 -31.715  1.00 23.83 LIG 0.16  HD
ATOM     41 O    LEU B   3     -18.835 -21.021 -29.426  1.00 22.70 LIG-0.27  OA
BRANCH 39 42
ATOM     42  CA  LEU B   4     -16.242 -21.069 -30.335  1.00 22.91 LIG 0.18  C 
BRANCH 42 43
ATOM     43  C   LEU B   4     -15.363 -20.427 -31.413  1.00 30.74 LIG 0.24  C 
ATOM     44 O    LEU B   4     -15.205 -20.977 -32.540  1.00 30.11 LIG-0.27  OA
ATOM     45  N   LEU B   5     -14.754 -19.292 -31.099  1.00 32.41 LIG-0.35  N 
ATOM     46 H    LEU B   5     -14.875 -18.841 -30.377  1.00 32.41 LIG 0.16  HD
BRANCH 45 47
ATOM     47  CA  LEU B   5     -13.785 -18.735 -32.051  1.00 35.50 LIG 0.18  C 
BRANCH 47 48
ATOM     48  C   LEU B   5     -12.470 -18.415 -31.349  1.00 33.38 LIG 0.24  C 
ATOM     49 O    LEU B   5     -12.395 -18.373 -30.102  1.00 25.58 LIG-0.27  OA
ATOM     50  N   THR B   6     -11.448 -18.186 -32.168  1.00 32.99 LIG-0.34  N 
ATOM     51 H    THR B   6     -11.480 -18.354 -33.011  1.00 32.99 LIG 0.16  HD
BRANCH 50 52
ATOM     52  CA  THR B   6     -10.172 -17.630 -31.740  1.00 39.09 LIG 0.19  C 
BRANCH 52 53
ATOM     53  CB  THR B   6      -8.991 -18.401 -32.390  1.00 66.99 LIG 0.14  C 
ATOM     54  CG2 THR B   6      -8.392 -17.610 -33.536  1.00 64.52 LIG 0.04  C 
BRANCH 53 55
ATOM     55 OG1  THR B   6      -7.963 -18.639 -31.409  1.00 68.32 LIG-0.39  OA
ATOM     56 HG1  THR B   6      -8.220 -18.358 -30.659  1.00 68.32 LIG 0.21  HD
ENDBRANCH 53 55
ENDBRANCH 52 53
BRANCH 52 57
ATOM     57  C   THR B   6     -10.101 -16.161 -32.181  1.00 46.48 LIG 0.22  C 
ATOM     58 O    THR B   6     -11.064 -15.620 -32.746  1.00 50.47 LIG-0.29  OA
ENDBRANCH 52 57
ENDBRANCH 50 52
ENDBRANCH 47 48
BRANCH 47 59
ATOM     59  CB  LEU B   5     -14.312 -17.457 -32.691  1.00 41.25 LIG 0.04  C 
BRANCH 59 60
ATOM     60  CG  LEU B   5     -14.448 -17.420 -34.205  1.00 47.99 LIG-0.02  C 
ATOM     61  CD2 LEU B   5     -13.162 -16.961 -34.834  1.00 50.88 LIG 0.01  C 
ATOM     62  CD1 LEU B   5     -15.569 -16.463 -34.552  1.00 54.72 LIG 0.01  C 
ENDBRANCH 59 60
ENDBRANCH 47 59
ENDBRANCH 45 47
ENDBRANCH 42 43
BRANCH 42 63
ATOM     63  CB  LEU B   4     -15.434 -22.154 -29.652  1.00 23.96 LIG 0.04  C 
BRANCH 63 64
ATOM     64  CG  LEU B   4     -15.142 -22.161 -28.168  1.00 38.52 LIG-0.02  C 
ATOM     65  CD1 LEU B   4     -16.202 -22.866 -27.404  1.00 46.71 LIG 0.01  C 
ATOM     66  CD2 LEU B   4     -13.754 -22.781 -27.943  1.00 36.33 LIG 0.01  C 
ENDBRANCH 63 64
ENDBRANCH 42 63
ENDBRANCH 39 42
ENDBRANCH 1 38
TORSDOF 26
ENDMDL
MODEL 20
USER: ADFR SOLUTION from run 177
USER: SCORE 23.102250 LL:  -4.472 LR: -19.410 RR:   0.000 FEB: -11.654
USER: RMSD 4.694987
USER: SEED 176
USER: STATUS searching
USER: GENES 28
USER: genes 0 Translation |==|  0.45739 0.51912 0.37238
USER: genes 1 Rotation |==|  0.55649 0.44135 0.46367 0.99198
USER: genes 2 Torsion [C]-CA--N-[C] |==|  0.69969
USER: genes 3 Torsion [N]-C--CA-[N] |==|  0.25836
USER: genes 4 Torsion [C]-CA--CB-[CG] |==|  0.15112
USER: genes 5 Torsion [CA]-CB--CG-[CD] |==|  0.44393
USER: genes 6 Torsion [CB]-CG--CD-[NE] |==|  0.21015
USER: genes 7 Torsion [CG]-CD--NE-[HE] |==|  0.00881
USER: genes 8 Torsion [C]-CA--N-[C] |==|  0.76498
USER: genes 9 Torsion [N]-C--CA-[N] |==|  0.23420
USER: genes 10 Torsion [C]-CA--N-[H3] |==|  0.16848
USER: genes 11 Torsion [C]-CA--CB-[CG] |==|  0.78867
USER: genes 12 Torsion [CA]-CB--CG-[ND2] |==|  0.50600
USER: genes 13 Torsion [N]-CA--CB-[CG] |==|  0.88330
USER: genes 14 Torsion [CA]-CB--CG-[CD1] |==|  0.50762
USER: genes 15 Torsion [N]-CA--C-[N] |==|  0.33435
USER: genes 16 Torsion [C]-N--CA-[CB] |==|  0.52225
USER: genes 17 Torsion [N]-CA--C-[N] |==|  0.44368
USER: genes 18 Torsion [C]-N--CA-[C] |==|  0.85443
USER: genes 19 Torsion [N]-CA--C-[N] |==|  0.36891
USER: genes 20 Torsion [C]-N--CA-[C] |==|  0.24981
USER: genes 21 Torsion [N]-CA--CB-[CG2] |==|  0.39287
USER: genes 22 Torsion [CA]-CB--OG1-[HG1] |==|  0.51464
USER: genes 23 Torsion [N]-CA--C-[O] |==|  0.00125
USER: genes 24 Torsion [N]-CA--CB-[CG] |==|  0.58904
USER: genes 25 Torsion [CA]-CB--CG-[CD2] |==|  0.04820
USER: genes 26 Torsion [N]-CA--CB-[CG] |==|  0.57373
USER: genes 27 Torsion [CA]-CB--CG-[CD1] |==|  0.94946
ROOT
ATOM      1  CA  LEU B   3     -19.157 -22.398 -30.997  1.00 17.18 LIG 0.18  C 
ENDROOT
BRANCH 1 2
ATOM      2  N   LEU B   3     -20.404 -22.817 -30.478  1.00 21.09 LIG-0.35  N 
ATOM      3  C   ARG B   2     -20.747 -24.102 -30.450  1.00 20.79 LIG 0.24  C 
ATOM      4 O    ARG B   2     -19.980 -25.026 -30.794  1.00 18.81 LIG-0.27  OA
ATOM      5 H    LEU B   3     -20.905 -22.179 -30.191  1.00 21.09 LIG 0.16  HD
BRANCH 3 6
ATOM      6  CA  ARG B   2     -22.186 -24.385 -30.040  1.00 21.42 LIG 0.18  C 
BRANCH 6 7
ATOM      7  CB  ARG B   2     -22.326 -25.652 -29.190  1.00 36.36 LIG 0.04  C 
BRANCH 7 8
ATOM      8  CG  ARG B   2     -21.422 -25.623 -27.972  1.00 41.67 LIG 0.02  C 
BRANCH 8 9
ATOM      9  CD  ARG B   2     -21.862 -26.587 -26.869  1.00 51.14 LIG 0.14  C 
BRANCH 9 10
ATOM     10  NE  ARG B   2     -21.533 -27.985 -27.198  1.00 53.41 LIG-0.23  N 
ATOM     11 HE   ARG B   2     -21.102 -28.127 -27.929  1.00 53.41 LIG 0.18  HD
ATOM     12  CZ  ARG B   2     -21.848 -29.053 -26.456  1.00 50.83 LIG 0.67  C 
ATOM     13  NH1 ARG B   2     -22.514 -28.912 -25.317  1.00 40.00 LIG-0.23  N 
ATOM     14  NH2 ARG B   2     -21.500 -30.274 -26.866  1.00 54.23 LIG-0.23  N 
ATOM     15 1HH1 ARG B   2     -22.748 -28.128 -25.050  1.00 40.00 LIG 0.17  HD
ATOM     16 2HH1 ARG B   2     -22.713 -29.603 -24.846  1.00 40.00 LIG 0.17  HD
ATOM     17 1HH2 ARG B   2     -21.074 -30.374 -27.606  1.00 54.23 LIG 0.17  HD
ATOM     18 2HH2 ARG B   2     -21.701 -30.961 -26.390  1.00 54.23 LIG 0.17  HD
ENDBRANCH 9 10
ENDBRANCH 8 9
ENDBRANCH 7 8
ENDBRANCH 6 7
BRANCH 6 19
ATOM     19  N   ARG B   2     -22.984 -24.463 -31.244  1.00 29.89 LIG-0.35  N 
ATOM     20  C   ASN B   1     -23.470 -23.362 -31.802  1.00 39.87 LIG 0.25  C 
ATOM     21 O    ASN B   1     -23.562 -22.289 -31.191  1.00 37.46 LIG-0.27  OA
ATOM     22 H    ARG B   2     -23.106 -25.259 -31.548  1.00 29.89 LIG 0.16  HD
BRANCH 20 23
ATOM     23  CA  ASN B   1     -23.930 -23.502 -33.264  1.00 47.73 LIG 0.28  C 
BRANCH 23 24
ATOM     24  N   ASN B   1     -25.272 -24.005 -33.424  1.00 51.86 LIG-0.07  N 
ATOM     25 H3   ASN B   1     -25.846 -23.448 -33.033  1.00 51.86 LIG 0.28  HD
ATOM     26 H1   ASN B   1     -25.465 -24.067 -34.291  1.00 51.86 LIG 0.28  HD
ATOM     27 H2   ASN B   1     -25.335 -24.808 -33.047  1.00 51.86 LIG 0.28  HD
ENDBRANCH 23 24
BRANCH 23 28
ATOM     28  CB  ASN B   1     -23.831 -22.202 -34.035  1.00 49.79 LIG 0.14  C 
BRANCH 28 29
ATOM     29  CG  ASN B   1     -24.951 -21.258 -33.667  1.00 59.47 LIG 0.22  C 
ATOM     30  ND2 ASN B   1     -24.995 -20.090 -34.317  1.00 63.81 LIG-0.37  N 
ATOM     31 21HD ASN B   1     -25.602 -19.513 -34.124  1.00 63.81 LIG 0.16  HD
ATOM     32 22HD ASN B   1     -24.416 -19.917 -34.929  1.00 63.81 LIG 0.16  HD
ATOM     33 OD1  ASN B   1     -25.753 -21.557 -32.785  1.00 60.25 LIG-0.27  OA
ENDBRANCH 28 29
ENDBRANCH 23 28
ENDBRANCH 20 23
ENDBRANCH 6 19
ENDBRANCH 3 6
ENDBRANCH 1 2
BRANCH 1 34
ATOM     34  CB  LEU B   3     -19.374 -21.301 -32.077  1.00 28.79 LIG 0.04  C 
BRANCH 34 35
ATOM     35  CG  LEU B   3     -20.555 -21.645 -32.992  1.00 33.15 LIG-0.02  C 
ATOM     36  CD2 LEU B   3     -20.352 -23.039 -33.570  1.00 30.13 LIG 0.01  C 
ATOM     37  CD1 LEU B   3     -20.789 -20.621 -34.143  1.00 27.67 LIG 0.01  C 
ENDBRANCH 34 35
ENDBRANCH 1 34
BRANCH 1 38
ATOM     38  C   LEU B   3     -18.214 -21.933 -29.908  1.00 20.33 LIG 0.24  C 
ATOM     39  N   LEU B   4     -17.068 -22.599 -29.811  1.00 23.83 LIG-0.35  N 
ATOM     40 H    LEU B   4     -16.846 -23.256 -30.319  1.00 23.83 LIG 0.16  HD
ATOM     41 O    LEU B   3     -18.497 -20.993 -29.171  1.00 22.70 LIG-0.27  OA
BRANCH 39 42
ATOM     42  CA  LEU B   4     -16.079 -22.246 -28.800  1.00 22.91 LIG 0.18  C 
BRANCH 42 43
ATOM     43  C   LEU B   4     -15.739 -20.761 -28.954  1.00 30.74 LIG 0.24  C 
ATOM     44 O    LEU B   4     -15.941 -20.153 -30.044  1.00 30.11 LIG-0.27  OA
ATOM     45  N   LEU B   5     -15.195 -20.154 -27.908  1.00 32.41 LIG-0.35  N 
ATOM     46 H    LEU B   5     -15.096 -20.497 -27.125  1.00 32.41 LIG 0.16  HD
BRANCH 45 47
ATOM     47  CA  LEU B   5     -14.715 -18.776 -28.074  1.00 35.50 LIG 0.18  C 
BRANCH 47 48
ATOM     48  C   LEU B   5     -13.774 -18.678 -29.269  1.00 33.38 LIG 0.24  C 
ATOM     49 O    LEU B   5     -12.847 -19.502 -29.432  1.00 25.58 LIG-0.27  OA
ATOM     50  N   THR B   6     -14.026 -17.663 -30.089  1.00 32.99 LIG-0.34  N 
ATOM     51 H    THR B   6     -14.745 -17.194 -30.041  1.00 32.99 LIG 0.16  HD
BRANCH 50 52
ATOM     52  CA  THR B   6     -13.125 -17.230 -31.148  1.00 39.09 LIG 0.19  C 
BRANCH 52 53
ATOM     53  CB  THR B   6     -11.649 -17.535 -30.773  1.00 66.99 LIG 0.14  C 
ATOM     54  CG2 THR B   6     -10.867 -18.001 -31.985  1.00 64.52 LIG 0.04  C 
BRANCH 53 55
ATOM     55 OG1  THR B   6     -11.023 -16.347 -30.251  1.00 68.32 LIG-0.39  OA
ATOM     56 HG1  THR B   6     -10.207 -16.495 -30.116  1.00 68.32 LIG 0.21  HD
ENDBRANCH 53 55
ENDBRANCH 52 53
BRANCH 52 57
ATOM     57  C   THR B   6     -13.473 -17.995 -32.434  1.00 46.48 LIG 0.22  C 
ATOM     58 O    THR B   6     -14.400 -18.819 -32.451  1.00 50.47 LIG-0.29  OA
ENDBRANCH 52 57
ENDBRANCH 50 52
ENDBRANCH 47 48
BRANCH 47 59
ATOM     59  CB  LEU B   5     -13.968 -18.300 -26.834  1.00 41.25 LIG 0.04  C 
BRANCH 59 60
ATOM     60  CG  LEU B   5     -14.045 -16.825 -26.477  1.00 47.99 LIG-0.02  C 
ATOM     61  CD2 LEU B   5     -15.196 -16.174 -27.192  1.00 50.88 LIG 0.01  C 
ATOM     62  CD1 LEU B   5     -12.741 -16.174 -26.888  1.00 54.72 LIG 0.01  C 
ENDBRANCH 59 60
ENDBRANCH 47 59
ENDBRANCH 45 47
ENDBRANCH 42 43
BRANCH 42 63
ATOM     63  CB  LEU B   4     -14.826 -23.050 -29.084  1.00 23.96 LIG 0.04  C 
BRANCH 63 64
ATOM     64  CG  LEU B   4     -13.823 -23.427 -28.016  1.00 38.52 LIG-0.02  C 
ATOM     65  CD1 LEU B   4     -13.969 -22.582 -26.804  1.00 46.71 LIG 0.01  C 
ATOM     66  CD2 LEU B   4     -13.977 -24.923 -27.703  1.00 36.33 LIG 0.01  C 
ENDBRANCH 63 64
ENDBRANCH 42 63
ENDBRANCH 39 42
ENDBRANCH 1 38
TORSDOF 26
ENDMDL
MODEL 21
USER: ADFR SOLUTION from run 13
USER: SCORE 22.548428 LL:  -4.578 LR: -19.380 RR:   0.000 FEB: -11.624
USER: RMSD 2.175872
USER: SEED 158117
USER: STATUS no improvement in best in 6 clusters for 5 generations
USER: GENES 28
USER: genes 0 Translation |==|  0.43417 0.51574 0.36319
USER: genes 1 Rotation |==|  0.58650 0.54163 0.52697 0.98996
USER: genes 2 Torsion [C]-CA--N-[C] |==|  0.81615
USER: genes 3 Torsion [N]-C--CA-[N] |==|  0.37951
USER: genes 4 Torsion [C]-CA--CB-[CG] |==|  0.11002
USER: genes 5 Torsion [CA]-CB--CG-[CD] |==|  0.31404
USER: genes 6 Torsion [CB]-CG--CD-[NE] |==|  0.55332
USER: genes 7 Torsion [CG]-CD--NE-[HE] |==|  0.67232
USER: genes 8 Torsion [C]-CA--N-[C] |==|  0.79210
USER: genes 9 Torsion [N]-C--CA-[N] |==|  0.16907
USER: genes 10 Torsion [C]-CA--N-[H3] |==|  0.22894
USER: genes 11 Torsion [C]-CA--CB-[CG] |==|  0.44345
USER: genes 12 Torsion [CA]-CB--CG-[ND2] |==|  0.51167
USER: genes 13 Torsion [N]-CA--CB-[CG] |==|  0.78304
USER: genes 14 Torsion [CA]-CB--CG-[CD1] |==|  0.59409
USER: genes 15 Torsion [N]-CA--C-[N] |==|  0.36715
USER: genes 16 Torsion [C]-N--CA-[CB] |==|  0.29381
USER: genes 17 Torsion [N]-CA--C-[N] |==|  0.40355
USER: genes 18 Torsion [C]-N--CA-[C] |==|  0.63869
USER: genes 19 Torsion [N]-CA--C-[N] |==|  0.44863
USER: genes 20 Torsion [C]-N--CA-[C] |==|  0.74668
USER: genes 21 Torsion [N]-CA--CB-[CG2] |==|  0.30114
USER: genes 22 Torsion [CA]-CB--OG1-[HG1] |==|  0.95799
USER: genes 23 Torsion [N]-CA--C-[O] |==|  0.99681
USER: genes 24 Torsion [N]-CA--CB-[CG] |==|  0.66000
USER: genes 25 Torsion [CA]-CB--CG-[CD2] |==|  0.76649
USER: genes 26 Torsion [N]-CA--CB-[CG] |==|  0.65173
USER: genes 27 Torsion [CA]-CB--CG-[CD1] |==|  0.14300
ROOT
ATOM      1  CA  LEU B   3     -19.731 -22.482 -31.190  1.00 17.18 LIG 0.18  C 
ENDROOT
BRANCH 1 2
ATOM      2  N   LEU B   3     -20.535 -23.308 -30.370  1.00 21.09 LIG-0.35  N 
ATOM      3  C   ARG B   2     -20.045 -24.404 -29.799  1.00 20.79 LIG 0.24  C 
ATOM      4 O    ARG B   2     -18.844 -24.739 -29.870  1.00 18.81 LIG-0.27  OA
ATOM      5 H    LEU B   3     -21.348 -23.040 -30.280  1.00 21.09 LIG 0.16  HD
BRANCH 3 6
ATOM      6  CA  ARG B   2     -21.069 -25.291 -29.102  1.00 21.42 LIG 0.18  C 
BRANCH 6 7
ATOM      7  CB  ARG B   2     -21.102 -25.085 -27.584  1.00 36.36 LIG 0.04  C 
BRANCH 7 8
ATOM      8  CG  ARG B   2     -20.955 -23.624 -27.204  1.00 41.67 LIG 0.02  C 
BRANCH 8 9
ATOM      9  CD  ARG B   2     -22.215 -23.034 -26.568  1.00 51.14 LIG 0.14  C 
BRANCH 9 10
ATOM     10  NE  ARG B   2     -22.220 -21.561 -26.626  1.00 53.41 LIG-0.23  N 
ATOM     11 HE   ARG B   2     -22.226 -21.137 -25.878  1.00 53.41 LIG 0.18  HD
ATOM     12  CZ  ARG B   2     -22.217 -20.828 -27.746  1.00 50.83 LIG 0.67  C 
ATOM     13  NH1 ARG B   2     -22.211 -21.414 -28.937  1.00 40.00 LIG-0.23  N 
ATOM     14  NH2 ARG B   2     -22.231 -19.496 -27.669  1.00 54.23 LIG-0.23  N 
ATOM     15 1HH1 ARG B   2     -22.210 -22.272 -28.994  1.00 40.00 LIG 0.17  HD
ATOM     16 2HH1 ARG B   2     -22.210 -20.935 -29.652  1.00 40.00 LIG 0.17  HD
ATOM     17 1HH2 ARG B   2     -22.242 -19.110 -26.901  1.00 54.23 LIG 0.17  HD
ATOM     18 2HH2 ARG B   2     -22.229 -19.025 -28.388  1.00 54.23 LIG 0.17  HD
ENDBRANCH 9 10
ENDBRANCH 8 9
ENDBRANCH 7 8
ENDBRANCH 6 7
BRANCH 6 19
ATOM     19  N   ARG B   2     -20.773 -26.665 -29.445  1.00 29.89 LIG-0.35  N 
ATOM     20  C   ASN B   1     -21.069 -27.137 -30.648  1.00 39.87 LIG 0.25  C 
ATOM     21 O    ASN B   1     -21.875 -26.578 -31.405  1.00 37.46 LIG-0.27  OA
ATOM     22 H    ARG B   2     -20.404 -27.124 -28.818  1.00 29.89 LIG 0.16  HD
BRANCH 20 23
ATOM     23  CA  ASN B   1     -20.353 -28.440 -31.049  1.00 47.73 LIG 0.28  C 
BRANCH 23 24
ATOM     24  N   ASN B   1     -20.634 -29.564 -30.191  1.00 51.86 LIG-0.07  N 
ATOM     25 H3   ASN B   1     -21.403 -29.939 -30.434  1.00 51.86 LIG 0.28  HD
ATOM     26 H1   ASN B   1     -19.978 -30.162 -30.261  1.00 51.86 LIG 0.28  HD
ATOM     27 H2   ASN B   1     -20.693 -29.287 -29.348  1.00 51.86 LIG 0.28  HD
ENDBRANCH 23 24
BRANCH 23 28
ATOM     28  CB  ASN B   1     -20.658 -28.859 -32.473  1.00 49.79 LIG 0.14  C 
BRANCH 28 29
ATOM     29  CG  ASN B   1     -19.609 -29.809 -33.001  1.00 59.47 LIG 0.22  C 
ATOM     30  ND2 ASN B   1     -19.724 -30.183 -34.281  1.00 63.81 LIG-0.37  N 
ATOM     31 21HD ASN B   1     -19.163 -30.740 -34.617  1.00 63.81 LIG 0.16  HD
ATOM     32 22HD ASN B   1     -20.358 -29.865 -34.766  1.00 63.81 LIG 0.16  HD
ATOM     33 OD1  ASN B   1     -18.723 -30.232 -32.264  1.00 60.25 LIG-0.27  OA
ENDBRANCH 28 29
ENDBRANCH 23 28
ENDBRANCH 20 23
ENDBRANCH 6 19
ENDBRANCH 3 6
ENDBRANCH 1 2
BRANCH 1 34
ATOM     34  CB  LEU B   3     -20.622 -21.450 -31.936  1.00 28.79 LIG 0.04  C 
BRANCH 34 35
ATOM     35  CG  LEU B   3     -21.337 -22.089 -33.132  1.00 33.15 LIG-0.02  C 
ATOM     36  CD2 LEU B   3     -20.570 -23.330 -33.569  1.00 30.13 LIG 0.01  C 
ATOM     37  CD1 LEU B   3     -21.534 -21.131 -34.344  1.00 27.67 LIG 0.01  C 
ENDBRANCH 34 35
ENDBRANCH 1 34
BRANCH 1 38
ATOM     38  C   LEU B   3     -18.626 -21.807 -30.408  1.00 20.33 LIG 0.24  C 
ATOM     39  N   LEU B   4     -17.412 -21.874 -30.945  1.00 23.83 LIG-0.35  N 
ATOM     40 H    LEU B   4     -17.233 -22.267 -31.688  1.00 23.83 LIG 0.16  HD
ATOM     41 O    LEU B   3     -18.849 -21.228 -29.348  1.00 22.70 LIG-0.27  OA
BRANCH 39 42
ATOM     42  CA  LEU B   4     -16.265 -21.262 -30.284  1.00 22.91 LIG 0.18  C 
BRANCH 42 43
ATOM     43  C   LEU B   4     -15.417 -20.554 -31.345  1.00 30.74 LIG 0.24  C 
ATOM     44 O    LEU B   4     -15.279 -21.039 -32.503  1.00 30.11 LIG-0.27  OA
ATOM     45  N   LEU B   5     -14.812 -19.431 -30.982  1.00 32.41 LIG-0.35  N 
ATOM     46 H    LEU B   5     -14.921 -19.021 -30.234  1.00 32.41 LIG 0.16  HD
BRANCH 45 47
ATOM     47  CA  LEU B   5     -13.869 -18.813 -31.923  1.00 35.50 LIG 0.18  C 
BRANCH 47 48
ATOM     48  C   LEU B   5     -12.551 -18.493 -31.228  1.00 33.38 LIG 0.24  C 
ATOM     49 O    LEU B   5     -12.477 -18.422 -29.981  1.00 25.58 LIG-0.27  OA
ATOM     50  N   THR B   6     -11.525 -18.299 -32.050  1.00 32.99 LIG-0.34  N 
ATOM     51 H    THR B   6     -11.558 -18.489 -32.888  1.00 32.99 LIG 0.16  HD
BRANCH 50 52
ATOM     52  CA  THR B   6     -10.242 -17.751 -31.634  1.00 39.09 LIG 0.19  C 
BRANCH 52 53
ATOM     53  CB  THR B   6      -9.091 -18.321 -32.507  1.00 66.99 LIG 0.14  C 
ATOM     54  CG2 THR B   6      -8.547 -17.263 -33.446  1.00 64.52 LIG 0.04  C 
BRANCH 53 55
ATOM     55 OG1  THR B   6      -8.019 -18.782 -31.662  1.00 68.32 LIG-0.39  OA
ATOM     56 HG1  THR B   6      -8.119 -18.474 -30.887  1.00 68.32 LIG 0.21  HD
ENDBRANCH 53 55
ENDBRANCH 52 53
BRANCH 52 57
ATOM     57  C   THR B   6     -10.278 -16.225 -31.805  1.00 46.48 LIG 0.22  C 
ATOM     58 O    THR B   6     -11.286 -15.661 -32.258  1.00 50.47 LIG-0.29  OA
ENDBRANCH 52 57
ENDBRANCH 50 52
ENDBRANCH 47 48
BRANCH 47 59
ATOM     59  CB  LEU B   5     -14.434 -17.521 -32.500  1.00 41.25 LIG 0.04  C 
BRANCH 59 60
ATOM     60  CG  LEU B   5     -14.566 -17.412 -34.011  1.00 47.99 LIG-0.02  C 
ATOM     61  CD2 LEU B   5     -13.262 -16.977 -34.620  1.00 50.88 LIG 0.01  C 
ATOM     62  CD1 LEU B   5     -15.648 -16.396 -34.315  1.00 54.72 LIG 0.01  C 
ENDBRANCH 59 60
ENDBRANCH 47 59
ENDBRANCH 45 47
ENDBRANCH 42 43
BRANCH 42 63
ATOM     63  CB  LEU B   4     -15.434 -22.377 -29.683  1.00 23.96 LIG 0.04  C 
BRANCH 63 64
ATOM     64  CG  LEU B   4     -15.043 -22.426 -28.222  1.00 38.52 LIG-0.02  C 
ATOM     65  CD1 LEU B   4     -16.221 -22.256 -27.334  1.00 46.71 LIG 0.01  C 
ATOM     66  CD2 LEU B   4     -14.299 -23.744 -27.955  1.00 36.33 LIG 0.01  C 
ENDBRANCH 63 64
ENDBRANCH 42 63
ENDBRANCH 39 42
ENDBRANCH 1 38
TORSDOF 26
ENDMDL
MODEL 22
USER: ADFR SOLUTION from run 79
USER: SCORE 22.337752 LL:  -4.483 LR: -19.323 RR:   0.000 FEB: -11.568
USER: RMSD 2.295376
USER: SEED 78
USER: STATUS no improvement in best in 9 clusters for 5 generations
USER: GENES 28
USER: genes 0 Translation |==|  0.45659 0.52901 0.37373
USER: genes 1 Rotation |==|  0.51451 0.55339 0.48931 0.99681
USER: genes 2 Torsion [C]-CA--N-[C] |==|  0.71598
USER: genes 3 Torsion [N]-C--CA-[N] |==|  0.45626
USER: genes 4 Torsion [C]-CA--CB-[CG] |==|  0.49401
USER: genes 5 Torsion [CA]-CB--CG-[CD] |==|  0.76081
USER: genes 6 Torsion [CB]-CG--CD-[NE] |==|  0.87768
USER: genes 7 Torsion [CG]-CD--NE-[HE] |==|  0.79771
USER: genes 8 Torsion [C]-CA--N-[C] |==|  0.65370
USER: genes 9 Torsion [N]-C--CA-[N] |==|  0.95346
USER: genes 10 Torsion [C]-CA--N-[H3] |==|  0.08775
USER: genes 11 Torsion [C]-CA--CB-[CG] |==|  0.88722
USER: genes 12 Torsion [CA]-CB--CG-[ND2] |==|  0.72531
USER: genes 13 Torsion [N]-CA--CB-[CG] |==|  0.69762
USER: genes 14 Torsion [CA]-CB--CG-[CD1] |==|  0.09248
USER: genes 15 Torsion [N]-CA--C-[N] |==|  0.28067
USER: genes 16 Torsion [C]-N--CA-[CB] |==|  0.47778
USER: genes 17 Torsion [N]-CA--C-[N] |==|  0.37511
USER: genes 18 Torsion [C]-N--CA-[C] |==|  0.70357
USER: genes 19 Torsion [N]-CA--C-[N] |==|  0.40119
USER: genes 20 Torsion [C]-N--CA-[C] |==|  0.85254
USER: genes 21 Torsion [N]-CA--CB-[CG2] |==|  0.57220
USER: genes 22 Torsion [CA]-CB--OG1-[HG1] |==|  0.91143
USER: genes 23 Torsion [N]-CA--C-[O] |==|  0.87095
USER: genes 24 Torsion [N]-CA--CB-[CG] |==|  0.91588
USER: genes 25 Torsion [CA]-CB--CG-[CD2] |==|  0.20442
USER: genes 26 Torsion [N]-CA--CB-[CG] |==|  0.67942
USER: genes 27 Torsion [CA]-CB--CG-[CD1] |==|  0.05576
ROOT
ATOM      1  CA  LEU B   3     -19.176 -22.153 -30.969  1.00 17.18 LIG 0.18  C 
ENDROOT
BRANCH 1 2
ATOM      2  N   LEU B   3     -20.004 -22.595 -29.910  1.00 21.09 LIG-0.35  N 
ATOM      3  C   ARG B   2     -20.003 -23.865 -29.514  1.00 20.79 LIG 0.24  C 
ATOM      4 O    ARG B   2     -19.231 -24.730 -29.977  1.00 18.81 LIG-0.27  OA
ATOM      5 H    LEU B   3     -20.493 -21.981 -29.558  1.00 21.09 LIG 0.16  HD
BRANCH 3 6
ATOM      6  CA  ARG B   2     -21.075 -24.232 -28.496  1.00 21.42 LIG 0.18  C 
BRANCH 6 7
ATOM      7  CB  ARG B   2     -20.799 -23.653 -27.103  1.00 36.36 LIG 0.04  C 
BRANCH 7 8
ATOM      8  CG  ARG B   2     -21.904 -23.987 -26.119  1.00 41.67 LIG 0.02  C 
BRANCH 8 9
ATOM      9  CD  ARG B   2     -23.064 -22.989 -26.151  1.00 51.14 LIG 0.14  C 
BRANCH 9 10
ATOM     10  NE  ARG B   2     -22.586 -21.595 -26.202  1.00 53.41 LIG-0.23  N 
ATOM     11 HE   ARG B   2     -22.243 -21.270 -25.484  1.00 53.41 LIG 0.18  HD
ATOM     12  CZ  ARG B   2     -22.642 -20.794 -27.272  1.00 50.83 LIG 0.67  C 
ATOM     13  NH1 ARG B   2     -23.161 -21.227 -28.414  1.00 40.00 LIG-0.23  N 
ATOM     14  NH2 ARG B   2     -22.183 -19.544 -27.191  1.00 54.23 LIG-0.23  N 
ATOM     15 1HH1 ARG B   2     -23.466 -22.029 -28.471  1.00 40.00 LIG 0.17  HD
ATOM     16 2HH1 ARG B   2     -23.193 -20.705 -29.097  1.00 40.00 LIG 0.17  HD
ATOM     17 1HH2 ARG B   2     -21.852 -19.254 -26.453  1.00 54.23 LIG 0.17  HD
ATOM     18 2HH2 ARG B   2     -22.218 -19.028 -27.878  1.00 54.23 LIG 0.17  HD
ENDBRANCH 9 10
ENDBRANCH 8 9
ENDBRANCH 7 8
ENDBRANCH 6 7
BRANCH 6 19
ATOM     19  N   ARG B   2     -21.179 -25.674 -28.460  1.00 29.89 LIG-0.35  N 
ATOM     20  C   ASN B   1     -22.345 -26.270 -28.668  1.00 39.87 LIG 0.25  C 
ATOM     21 O    ASN B   1     -23.426 -25.672 -28.575  1.00 37.46 LIG-0.27  OA
ATOM     22 H    ARG B   2     -20.442 -26.087 -28.298  1.00 29.89 LIG 0.16  HD
BRANCH 20 23
ATOM     23  CA  ASN B   1     -22.277 -27.767 -29.022  1.00 47.73 LIG 0.28  C 
BRANCH 23 24
ATOM     24  N   ASN B   1     -20.976 -28.221 -29.448  1.00 51.86 LIG-0.07  N 
ATOM     25 H3   ASN B   1     -20.346 -27.748 -29.034  1.00 51.86 LIG 0.28  HD
ATOM     26 H1   ASN B   1     -20.882 -29.083 -29.245  1.00 51.86 LIG 0.28  HD
ATOM     27 H2   ASN B   1     -20.898 -28.114 -30.328  1.00 51.86 LIG 0.28  HD
ENDBRANCH 23 24
BRANCH 23 28
ATOM     28  CB  ASN B   1     -22.726 -28.658 -27.883  1.00 49.79 LIG 0.14  C 
BRANCH 28 29
ATOM     29  CG  ASN B   1     -22.212 -28.152 -26.555  1.00 59.47 LIG 0.22  C 
ATOM     30  ND2 ASN B   1     -21.117 -28.745 -26.067  1.00 63.81 LIG-0.37  N 
ATOM     31 21HD ASN B   1     -20.802 -28.505 -25.304  1.00 63.81 LIG 0.16  HD
ATOM     32 22HD ASN B   1     -20.727 -29.365 -26.517  1.00 63.81 LIG 0.16  HD
ATOM     33 OD1  ASN B   1     -22.808 -27.262 -25.955  1.00 60.25 LIG-0.27  OA
ENDBRANCH 28 29
ENDBRANCH 23 28
ENDBRANCH 20 23
ENDBRANCH 6 19
ENDBRANCH 3 6
ENDBRANCH 1 2
BRANCH 1 34
ATOM     34  CB  LEU B   3     -20.003 -21.285 -31.959  1.00 28.79 LIG 0.04  C 
BRANCH 34 35
ATOM     35  CG  LEU B   3     -20.239 -22.019 -33.283  1.00 33.15 LIG-0.02  C 
ATOM     36  CD2 LEU B   3     -21.469 -21.436 -33.967  1.00 30.13 LIG 0.01  C 
ATOM     37  CD1 LEU B   3     -20.391 -23.562 -33.139  1.00 27.67 LIG 0.01  C 
ENDBRANCH 34 35
ENDBRANCH 1 34
BRANCH 1 38
ATOM     38  C   LEU B   3     -17.952 -21.419 -30.466  1.00 20.33 LIG 0.24  C 
ATOM     39  N   LEU B   4     -16.823 -22.120 -30.450  1.00 23.83 LIG-0.35  N 
ATOM     40 H    LEU B   4     -16.758 -22.939 -30.703  1.00 23.83 LIG 0.16  HD
ATOM     41 O    LEU B   3     -18.008 -20.247 -30.106  1.00 22.70 LIG-0.27  OA
BRANCH 39 42
ATOM     42  CA  LEU B   4     -15.577 -21.523 -29.986  1.00 22.91 LIG 0.18  C 
BRANCH 42 43
ATOM     43  C   LEU B   4     -15.110 -20.505 -31.031  1.00 30.74 LIG 0.24  C 
ATOM     44 O    LEU B   4     -15.098 -20.789 -32.262  1.00 30.11 LIG-0.27  OA
ATOM     45  N   LEU B   5     -14.689 -19.330 -30.582  1.00 32.41 LIG-0.35  N 
ATOM     46 H    LEU B   5     -14.735 -19.058 -29.768  1.00 32.41 LIG 0.16  HD
BRANCH 45 47
ATOM     47  CA  LEU B   5     -14.090 -18.392 -31.541  1.00 35.50 LIG 0.18  C 
BRANCH 47 48
ATOM     48  C   LEU B   5     -12.581 -18.314 -31.340  1.00 33.38 LIG 0.24  C 
ATOM     49 O    LEU B   5     -12.075 -18.388 -30.199  1.00 25.58 LIG-0.27  OA
ATOM     50  N   THR B   6     -11.882 -18.161 -32.460  1.00 32.99 LIG-0.34  N 
ATOM     51 H    THR B   6     -12.229 -18.253 -33.241  1.00 32.99 LIG 0.16  HD
BRANCH 50 52
ATOM     52  CA  THR B   6     -10.466 -17.822 -32.495  1.00 39.09 LIG 0.19  C 
BRANCH 52 53
ATOM     53  CB  THR B   6     -10.006 -17.532 -33.949  1.00 66.99 LIG 0.14  C 
ATOM     54  CG2 THR B   6      -8.524 -17.803 -34.114  1.00 64.52 LIG 0.04  C 
BRANCH 53 55
ATOM     55 OG1  THR B   6     -10.732 -18.371 -34.868  1.00 68.32 LIG-0.39  OA
ATOM     56 HG1  THR B   6     -10.912 -19.103 -34.498  1.00 68.32 LIG 0.21  HD
ENDBRANCH 53 55
ENDBRANCH 52 53
BRANCH 52 57
ATOM     57  C   THR B   6     -10.239 -16.562 -31.647  1.00 46.48 LIG 0.22  C 
ATOM     58 O    THR B   6     -10.982 -15.576 -31.763  1.00 50.47 LIG-0.29  OA
ENDBRANCH 52 57
ENDBRANCH 50 52
ENDBRANCH 47 48
BRANCH 47 59
ATOM     59  CB  LEU B   5     -14.669 -16.993 -31.379  1.00 41.25 LIG 0.04  C 
BRANCH 59 60
ATOM     60  CG  LEU B   5     -16.104 -16.866 -30.892  1.00 47.99 LIG-0.02  C 
ATOM     61  CD2 LEU B   5     -16.188 -17.187 -29.425  1.00 50.88 LIG 0.01  C 
ATOM     62  CD1 LEU B   5     -16.956 -17.834 -31.687  1.00 54.72 LIG 0.01  C 
ENDBRANCH 59 60
ENDBRANCH 47 59
ENDBRANCH 45 47
ENDBRANCH 42 43
BRANCH 42 63
ATOM     63  CB  LEU B   4     -14.541 -22.627 -29.906  1.00 23.96 LIG 0.04  C 
BRANCH 63 64
ATOM     64  CG  LEU B   4     -13.909 -23.079 -28.609  1.00 38.52 LIG-0.02  C 
ATOM     65  CD1 LEU B   4     -14.730 -22.688 -27.434  1.00 46.71 LIG 0.01  C 
ATOM     66  CD2 LEU B   4     -13.679 -24.597 -28.677  1.00 36.33 LIG 0.01  C 
ENDBRANCH 63 64
ENDBRANCH 42 63
ENDBRANCH 39 42
ENDBRANCH 1 38
TORSDOF 26
ENDMDL
MODEL 23
USER: ADFR SOLUTION from run 12
USER: SCORE 22.359942 LL:  -4.897 LR: -19.229 RR:   0.000 FEB: -11.473
USER: RMSD 2.901169
USER: SEED 729300
USER: STATUS no improvement in best in 6 clusters for 5 generations
USER: GENES 28
USER: genes 0 Translation |==|  0.42851 0.51442 0.36121
USER: genes 1 Rotation |==|  0.55229 0.54282 0.54368 0.99348
USER: genes 2 Torsion [C]-CA--N-[C] |==|  0.78917
USER: genes 3 Torsion [N]-C--CA-[N] |==|  0.38890
USER: genes 4 Torsion [C]-CA--CB-[CG] |==|  0.30930
USER: genes 5 Torsion [CA]-CB--CG-[CD] |==|  0.71878
USER: genes 6 Torsion [CB]-CG--CD-[NE] |==|  0.23665
USER: genes 7 Torsion [CG]-CD--NE-[HE] |==|  0.98703
USER: genes 8 Torsion [C]-CA--N-[C] |==|  0.81184
USER: genes 9 Torsion [N]-C--CA-[N] |==|  0.19048
USER: genes 10 Torsion [C]-CA--N-[H3] |==|  0.22918
USER: genes 11 Torsion [C]-CA--CB-[CG] |==|  0.40973
USER: genes 12 Torsion [CA]-CB--CG-[ND2] |==|  0.52067
USER: genes 13 Torsion [N]-CA--CB-[CG] |==|  0.74789
USER: genes 14 Torsion [CA]-CB--CG-[CD1] |==|  0.62985
USER: genes 15 Torsion [N]-CA--C-[N] |==|  0.37304
USER: genes 16 Torsion [C]-N--CA-[CB] |==|  0.33289
USER: genes 17 Torsion [N]-CA--C-[N] |==|  0.26183
USER: genes 18 Torsion [C]-N--CA-[C] |==|  0.77559
USER: genes 19 Torsion [N]-CA--C-[N] |==|  0.98255
USER: genes 20 Torsion [C]-N--CA-[C] |==|  0.87953
USER: genes 21 Torsion [N]-CA--CB-[CG2] |==|  0.86136
USER: genes 22 Torsion [CA]-CB--OG1-[HG1] |==|  0.46585
USER: genes 23 Torsion [N]-CA--C-[O] |==|  0.80630
USER: genes 24 Torsion [N]-CA--CB-[CG] |==|  0.59617
USER: genes 25 Torsion [CA]-CB--CG-[CD2] |==|  0.34253
USER: genes 26 Torsion [N]-CA--CB-[CG] |==|  0.72840
USER: genes 27 Torsion [CA]-CB--CG-[CD1] |==|  0.09467
ROOT
ATOM      1  CA  LEU B   3     -19.871 -22.514 -31.232  1.00 17.18 LIG 0.18  C 
ENDROOT
BRANCH 1 2
ATOM      2  N   LEU B   3     -20.627 -23.287 -30.319  1.00 21.09 LIG-0.35  N 
ATOM      3  C   ARG B   2     -20.120 -24.375 -29.747  1.00 20.79 LIG 0.24  C 
ATOM      4 O    ARG B   2     -18.938 -24.746 -29.900  1.00 18.81 LIG-0.27  OA
ATOM      5 H    LEU B   3     -21.423 -22.993 -30.175  1.00 21.09 LIG 0.16  HD
BRANCH 3 6
ATOM      6  CA  ARG B   2     -21.106 -25.206 -28.936  1.00 21.42 LIG 0.18  C 
BRANCH 6 7
ATOM      7  CB  ARG B   2     -21.069 -24.884 -27.438  1.00 36.36 LIG 0.04  C 
BRANCH 7 8
ATOM      8  CG  ARG B   2     -22.337 -24.195 -26.972  1.00 41.67 LIG 0.02  C 
BRANCH 8 9
ATOM      9  CD  ARG B   2     -22.179 -22.682 -26.809  1.00 51.14 LIG 0.14  C 
BRANCH 9 10
ATOM     10  NE  ARG B   2     -22.392 -21.969 -28.081  1.00 53.41 LIG-0.23  N 
ATOM     11 HE   ARG B   2     -22.517 -22.447 -28.785  1.00 53.41 LIG 0.18  HD
ATOM     12  CZ  ARG B   2     -22.407 -20.639 -28.233  1.00 50.83 LIG 0.67  C 
ATOM     13  NH1 ARG B   2     -22.218 -19.838 -27.192  1.00 40.00 LIG-0.23  N 
ATOM     14  NH2 ARG B   2     -22.602 -20.110 -29.442  1.00 54.23 LIG-0.23  N 
ATOM     15 1HH1 ARG B   2     -22.084 -20.172 -26.411  1.00 40.00 LIG 0.17  HD
ATOM     16 2HH1 ARG B   2     -22.229 -18.985 -27.298  1.00 40.00 LIG 0.17  HD
ATOM     17 1HH2 ARG B   2     -22.718 -20.623 -30.123  1.00 54.23 LIG 0.17  HD
ATOM     18 2HH2 ARG B   2     -22.612 -19.256 -29.541  1.00 54.23 LIG 0.17  HD
ENDBRANCH 9 10
ENDBRANCH 8 9
ENDBRANCH 7 8
ENDBRANCH 6 7
BRANCH 6 19
ATOM     19  N   ARG B   2     -20.822 -26.602 -29.186  1.00 29.89 LIG-0.35  N 
ATOM     20  C   ASN B   1     -21.043 -27.130 -30.382  1.00 39.87 LIG 0.25  C 
ATOM     21 O    ASN B   1     -21.779 -26.595 -31.222  1.00 37.46 LIG-0.27  OA
ATOM     22 H    ARG B   2     -20.509 -27.035 -28.512  1.00 29.89 LIG 0.16  HD
BRANCH 20 23
ATOM     23  CA  ASN B   1     -20.333 -28.467 -30.663  1.00 47.73 LIG 0.28  C 
BRANCH 23 24
ATOM     24  N   ASN B   1     -20.826 -29.580 -29.890  1.00 51.86 LIG-0.07  N 
ATOM     25 H3   ASN B   1     -21.555 -29.912 -30.278  1.00 51.86 LIG 0.28  HD
ATOM     26 H1   ASN B   1     -20.200 -30.211 -29.845  1.00 51.86 LIG 0.28  HD
ATOM     27 H2   ASN B   1     -21.028 -29.304 -29.068  1.00 51.86 LIG 0.28  HD
ENDBRANCH 23 24
BRANCH 23 28
ATOM     28  CB  ASN B   1     -20.389 -28.862 -32.125  1.00 49.79 LIG 0.14  C 
BRANCH 28 29
ATOM     29  CG  ASN B   1     -19.151 -29.623 -32.535  1.00 59.47 LIG 0.22  C 
ATOM     30  ND2 ASN B   1     -19.013 -29.893 -33.838  1.00 63.81 LIG-0.37  N 
ATOM     31 21HD ASN B   1     -18.335 -30.344 -34.115  1.00 63.81 LIG 0.16  HD
ATOM     32 22HD ASN B   1     -19.602 -29.614 -34.400  1.00 63.81 LIG 0.16  HD
ATOM     33 OD1  ASN B   1     -18.340 -29.996 -31.692  1.00 60.25 LIG-0.27  OA
ENDBRANCH 28 29
ENDBRANCH 23 28
ENDBRANCH 20 23
ENDBRANCH 6 19
ENDBRANCH 3 6
ENDBRANCH 1 2
BRANCH 1 34
ATOM     34  CB  LEU B   3     -20.823 -21.660 -32.116  1.00 28.79 LIG 0.04  C 
BRANCH 34 35
ATOM     35  CG  LEU B   3     -21.216 -22.407 -33.396  1.00 33.15 LIG-0.02  C 
ATOM     36  CD2 LEU B   3     -20.365 -23.663 -33.525  1.00 30.13 LIG 0.01  C 
ATOM     37  CD1 LEU B   3     -21.104 -21.552 -34.693  1.00 27.67 LIG 0.01  C 
ENDBRANCH 34 35
ENDBRANCH 1 34
BRANCH 1 38
ATOM     38  C   LEU B   3     -18.837 -21.659 -30.533  1.00 20.33 LIG 0.24  C 
ATOM     39  N   LEU B   4     -17.621 -21.667 -31.070  1.00 23.83 LIG-0.35  N 
ATOM     40 H    LEU B   4     -17.404 -22.117 -31.770  1.00 23.83 LIG 0.16  HD
ATOM     41 O    LEU B   3     -19.116 -20.996 -29.539  1.00 22.70 LIG-0.27  OA
BRANCH 39 42
ATOM     42  CA  LEU B   4     -16.539 -20.883 -30.487  1.00 22.91 LIG 0.18  C 
BRANCH 42 43
ATOM     43  C   LEU B   4     -15.986 -19.944 -31.564  1.00 30.74 LIG 0.24  C 
ATOM     44 O    LEU B   4     -15.074 -20.320 -32.354  1.00 30.11 LIG-0.27  OA
ATOM     45  N   LEU B   5     -16.484 -18.716 -31.606  1.00 32.41 LIG-0.35  N 
ATOM     46 H    LEU B   5     -17.147 -18.427 -31.141  1.00 32.41 LIG 0.16  HD
BRANCH 45 47
ATOM     47  CA  LEU B   5     -15.867 -17.746 -32.520  1.00 35.50 LIG 0.18  C 
BRANCH 47 48
ATOM     48  C   LEU B   5     -14.605 -17.157 -31.903  1.00 33.38 LIG 0.24  C 
ATOM     49 O    LEU B   5     -13.855 -16.400 -32.559  1.00 25.58 LIG-0.27  OA
ATOM     50  N   THR B   6     -14.384 -17.519 -30.643  1.00 32.99 LIG-0.34  N 
ATOM     51 H    THR B   6     -14.975 -17.922 -30.165  1.00 32.99 LIG 0.16  HD
BRANCH 50 52
ATOM     52  CA  THR B   6     -13.134 -17.282 -29.935  1.00 39.09 LIG 0.19  C 
BRANCH 52 53
ATOM     53  CB  THR B   6     -13.037 -18.183 -28.674  1.00 66.99 LIG 0.14  C 
ATOM     54  CG2 THR B   6     -14.298 -18.085 -27.839  1.00 64.52 LIG 0.04  C 
BRANCH 53 55
ATOM     55 OG1  THR B   6     -12.852 -19.557 -29.068  1.00 68.32 LIG-0.39  OA
ATOM     56 HG1  THR B   6     -12.633 -20.014 -28.398  1.00 68.32 LIG 0.21  HD
ENDBRANCH 53 55
ENDBRANCH 52 53
BRANCH 52 57
ATOM     57  C   THR B   6     -11.965 -17.619 -30.871  1.00 46.48 LIG 0.22  C 
ATOM     58 O    THR B   6     -11.728 -18.794 -31.194  1.00 50.47 LIG-0.29  OA
ENDBRANCH 52 57
ENDBRANCH 50 52
ENDBRANCH 47 48
BRANCH 47 59
ATOM     59  CB  LEU B   5     -16.824 -16.604 -32.840  1.00 41.25 LIG 0.04  C 
BRANCH 59 60
ATOM     60  CG  LEU B   5     -16.774 -16.000 -34.234  1.00 47.99 LIG-0.02  C 
ATOM     61  CD2 LEU B   5     -18.127 -16.077 -34.885  1.00 50.88 LIG 0.01  C 
ATOM     62  CD1 LEU B   5     -15.760 -16.778 -35.046  1.00 54.72 LIG 0.01  C 
ENDBRANCH 59 60
ENDBRANCH 47 59
ENDBRANCH 45 47
ENDBRANCH 42 43
BRANCH 42 63
ATOM     63  CB  LEU B   4     -15.438 -21.846 -30.090  1.00 23.96 LIG 0.04  C 
BRANCH 63 64
ATOM     64  CG  LEU B   4     -15.261 -22.369 -28.682  1.00 38.52 LIG-0.02  C 
ATOM     65  CD1 LEU B   4     -16.566 -22.546 -27.995  1.00 46.71 LIG 0.01  C 
ATOM     66  CD2 LEU B   4     -14.453 -23.675 -28.740  1.00 36.33 LIG 0.01  C 
ENDBRANCH 63 64
ENDBRANCH 42 63
ENDBRANCH 39 42
ENDBRANCH 1 38
TORSDOF 26
ENDMDL
MODEL 24
USER: ADFR SOLUTION from run 183
USER: SCORE 21.799043 LL:  -4.401 LR: -19.201 RR:   0.000 FEB: -11.445
USER: RMSD 3.528548
USER: SEED 182
USER: STATUS no improvement in best in 5 clusters for 5 generations
USER: GENES 28
USER: genes 0 Translation |==|  0.43532 0.51411 0.36021
USER: genes 1 Rotation |==|  0.55781 0.53368 0.53693 0.99413
USER: genes 2 Torsion [C]-CA--N-[C] |==|  0.79708
USER: genes 3 Torsion [N]-C--CA-[N] |==|  0.39158
USER: genes 4 Torsion [C]-CA--CB-[CG] |==|  0.50605
USER: genes 5 Torsion [CA]-CB--CG-[CD] |==|  0.30789
USER: genes 6 Torsion [CB]-CG--CD-[NE] |==|  0.74210
USER: genes 7 Torsion [CG]-CD--NE-[HE] |==|  0.17312
USER: genes 8 Torsion [C]-CA--N-[C] |==|  0.80000
USER: genes 9 Torsion [N]-C--CA-[N] |==|  0.21464
USER: genes 10 Torsion [C]-CA--N-[H3] |==|  0.17904
USER: genes 11 Torsion [C]-CA--CB-[CG] |==|  0.48704
USER: genes 12 Torsion [CA]-CB--CG-[ND2] |==|  0.64387
USER: genes 13 Torsion [N]-CA--CB-[CG] |==|  0.76999
USER: genes 14 Torsion [CA]-CB--CG-[CD1] |==|  0.61620
USER: genes 15 Torsion [N]-CA--C-[N] |==|  0.36173
USER: genes 16 Torsion [C]-N--CA-[CB] |==|  0.38728
USER: genes 17 Torsion [N]-CA--C-[N] |==|  0.24747
USER: genes 18 Torsion [C]-N--CA-[C] |==|  0.80570
USER: genes 19 Torsion [N]-CA--C-[N] |==|  0.92170
USER: genes 20 Torsion [C]-N--CA-[C] |==|  0.86396
USER: genes 21 Torsion [N]-CA--CB-[CG2] |==|  0.80838
USER: genes 22 Torsion [CA]-CB--OG1-[HG1] |==|  0.26931
USER: genes 23 Torsion [N]-CA--C-[O] |==|  0.85070
USER: genes 24 Torsion [N]-CA--CB-[CG] |==|  0.28658
USER: genes 25 Torsion [CA]-CB--CG-[CD2] |==|  0.77869
USER: genes 26 Torsion [N]-CA--CB-[CG] |==|  0.73262
USER: genes 27 Torsion [CA]-CB--CG-[CD1] |==|  0.04281
ROOT
ATOM      1  CA  LEU B   3     -19.703 -22.522 -31.253  1.00 17.18 LIG 0.18  C 
ENDROOT
BRANCH 1 2
ATOM      2  N   LEU B   3     -20.512 -23.289 -30.381  1.00 21.09 LIG-0.35  N 
ATOM      3  C   ARG B   2     -20.041 -24.375 -29.775  1.00 20.79 LIG 0.24  C 
ATOM      4 O    ARG B   2     -18.852 -24.748 -29.858  1.00 18.81 LIG-0.27  OA
ATOM      5 H    LEU B   3     -21.314 -22.993 -30.286  1.00 21.09 LIG 0.16  HD
BRANCH 3 6
ATOM      6  CA  ARG B   2     -21.074 -25.200 -29.019  1.00 21.42 LIG 0.18  C 
BRANCH 6 7
ATOM      7  CB  ARG B   2     -21.140 -24.854 -27.528  1.00 36.36 LIG 0.04  C 
BRANCH 7 8
ATOM      8  CG  ARG B   2     -22.137 -25.724 -26.786  1.00 41.67 LIG 0.02  C 
BRANCH 8 9
ATOM      9  CD  ARG B   2     -21.477 -26.709 -25.818  1.00 51.14 LIG 0.14  C 
BRANCH 9 10
ATOM     10  NE  ARG B   2     -21.231 -28.017 -26.451  1.00 53.41 LIG-0.23  N 
ATOM     11 HE   ARG B   2     -20.696 -28.036 -27.124  1.00 53.41 LIG 0.18  HD
ATOM     12  CZ  ARG B   2     -21.771 -29.180 -26.067  1.00 50.83 LIG 0.67  C 
ATOM     13  NH1 ARG B   2     -22.608 -29.228 -25.038  1.00 40.00 LIG-0.23  N 
ATOM     14  NH2 ARG B   2     -21.477 -30.301 -26.727  1.00 54.23 LIG-0.23  N 
ATOM     15 1HH1 ARG B   2     -22.808 -28.509 -24.612  1.00 40.00 LIG 0.17  HD
ATOM     16 2HH1 ARG B   2     -22.951 -29.980 -24.797  1.00 40.00 LIG 0.17  HD
ATOM     17 1HH2 ARG B   2     -20.941 -30.276 -27.399  1.00 54.23 LIG 0.17  HD
ATOM     18 2HH2 ARG B   2     -21.823 -31.048 -26.481  1.00 54.23 LIG 0.17  HD
ENDBRANCH 9 10
ENDBRANCH 8 9
ENDBRANCH 7 8
ENDBRANCH 6 7
BRANCH 6 19
ATOM     19  N   ARG B   2     -20.763 -26.598 -29.227  1.00 29.89 LIG-0.35  N 
ATOM     20  C   ASN B   1     -20.979 -27.168 -30.405  1.00 39.87 LIG 0.25  C 
ATOM     21 O    ASN B   1     -21.728 -26.674 -31.258  1.00 37.46 LIG-0.27  OA
ATOM     22 H    ARG B   2     -20.440 -27.004 -28.540  1.00 29.89 LIG 0.16  HD
BRANCH 20 23
ATOM     23  CA  ASN B   1     -20.245 -28.499 -30.646  1.00 47.73 LIG 0.28  C 
BRANCH 23 24
ATOM     24  N   ASN B   1     -20.836 -29.637 -29.987  1.00 51.86 LIG-0.07  N 
ATOM     25 H3   ASN B   1     -21.648 -29.785 -30.321  1.00 51.86 LIG 0.28  HD
ATOM     26 H1   ASN B   1     -20.326 -30.355 -30.117  1.00 51.86 LIG 0.28  HD
ATOM     27 H2   ASN B   1     -20.901 -29.474 -29.114  1.00 51.86 LIG 0.28  HD
ENDBRANCH 23 24
BRANCH 23 28
ATOM     28  CB  ASN B   1     -20.115 -28.836 -32.118  1.00 49.79 LIG 0.14  C 
BRANCH 28 29
ATOM     29  CG  ASN B   1     -19.294 -30.087 -32.324  1.00 59.47 LIG 0.22  C 
ATOM     30  ND2 ASN B   1     -18.276 -30.004 -33.188  1.00 63.81 LIG-0.37  N 
ATOM     31 21HD ASN B   1     -17.796 -30.697 -33.354  1.00 63.81 LIG 0.16  HD
ATOM     32 22HD ASN B   1     -18.102 -29.257 -33.577  1.00 63.81 LIG 0.16  HD
ATOM     33 OD1  ASN B   1     -19.586 -31.128 -31.742  1.00 60.25 LIG-0.27  OA
ENDBRANCH 28 29
ENDBRANCH 23 28
ENDBRANCH 20 23
ENDBRANCH 6 19
ENDBRANCH 3 6
ENDBRANCH 1 2
BRANCH 1 34
ATOM     34  CB  LEU B   3     -20.597 -21.618 -32.147  1.00 28.79 LIG 0.04  C 
BRANCH 34 35
ATOM     35  CG  LEU B   3     -21.134 -22.387 -33.359  1.00 33.15 LIG-0.02  C 
ATOM     36  CD2 LEU B   3     -20.350 -23.683 -33.517  1.00 30.13 LIG 0.01  C 
ATOM     37  CD1 LEU B   3     -21.105 -21.580 -34.690  1.00 27.67 LIG 0.01  C 
ENDBRANCH 34 35
ENDBRANCH 1 34
BRANCH 1 38
ATOM     38  C   LEU B   3     -18.664 -21.717 -30.503  1.00 20.33 LIG 0.24  C 
ATOM     39  N   LEU B   4     -17.417 -21.820 -30.952  1.00 23.83 LIG-0.35  N 
ATOM     40 H    LEU B   4     -17.182 -22.303 -31.622  1.00 23.83 LIG 0.16  HD
ATOM     41 O    LEU B   3     -18.966 -21.008 -29.547  1.00 22.70 LIG-0.27  OA
BRANCH 39 42
ATOM     42  CA  LEU B   4     -16.327 -21.093 -30.311  1.00 22.91 LIG 0.18  C 
BRANCH 42 43
ATOM     43  C   LEU B   4     -15.963 -19.893 -31.192  1.00 30.74 LIG 0.24  C 
ATOM     44 O    LEU B   4     -15.056 -19.976 -32.068  1.00 30.11 LIG-0.27  OA
ATOM     45  N   LEU B   5     -16.617 -18.761 -30.971  1.00 32.41 LIG-0.35  N 
ATOM     46 H    LEU B   5     -17.285 -18.663 -30.437  1.00 32.41 LIG 0.16  HD
BRANCH 45 47
ATOM     47  CA  LEU B   5     -16.184 -17.555 -31.688  1.00 35.50 LIG 0.18  C 
BRANCH 47 48
ATOM     48  C   LEU B   5     -14.831 -17.082 -31.170  1.00 33.38 LIG 0.24  C 
ATOM     49 O    LEU B   5     -14.038 -16.456 -31.907  1.00 25.58 LIG-0.27  OA
ATOM     50  N   THR B   6     -14.584 -17.395 -29.902  1.00 32.99 LIG-0.34  N 
ATOM     51 H    THR B   6     -15.189 -17.698 -29.371  1.00 32.99 LIG 0.16  HD
BRANCH 50 52
ATOM     52  CA  THR B   6     -13.278 -17.264 -29.271  1.00 39.09 LIG 0.19  C 
BRANCH 52 53
ATOM     53  CB  THR B   6     -13.259 -17.981 -27.894  1.00 66.99 LIG 0.14  C 
ATOM     54  CG2 THR B   6     -14.132 -17.252 -26.891  1.00 64.52 LIG 0.04  C 
BRANCH 53 55
ATOM     55 OG1  THR B   6     -13.749 -19.328 -28.037  1.00 68.32 LIG-0.39  OA
ATOM     56 HG1  THR B   6     -13.101 -19.857 -28.112  1.00 68.32 LIG 0.21  HD
ENDBRANCH 53 55
ENDBRANCH 52 53
BRANCH 52 57
ATOM     57  C   THR B   6     -12.224 -17.915 -30.179  1.00 46.48 LIG 0.22  C 
ATOM     58 O    THR B   6     -12.357 -19.086 -30.567  1.00 50.47 LIG-0.29  OA
ENDBRANCH 52 57
ENDBRANCH 50 52
ENDBRANCH 47 48
BRANCH 47 59
ATOM     59  CB  LEU B   5     -17.188 -16.422 -31.516  1.00 41.25 LIG 0.04  C 
BRANCH 59 60
ATOM     60  CG  LEU B   5     -16.845 -15.305 -30.543  1.00 47.99 LIG-0.02  C 
ATOM     61  CD2 LEU B   5     -17.126 -15.738 -29.131  1.00 50.88 LIG 0.01  C 
ATOM     62  CD1 LEU B   5     -17.690 -14.099 -30.897  1.00 54.72 LIG 0.01  C 
ENDBRANCH 59 60
ENDBRANCH 47 59
ENDBRANCH 45 47
ENDBRANCH 42 43
BRANCH 42 63
ATOM     63  CB  LEU B   4     -15.129 -22.018 -30.255  1.00 23.96 LIG 0.04  C 
BRANCH 63 64
ATOM     64  CG  LEU B   4     -14.778 -22.848 -29.039  1.00 38.52 LIG-0.02  C 
ATOM     65  CD1 LEU B   4     -15.913 -22.929 -28.085  1.00 46.71 LIG 0.01  C 
ATOM     66  CD2 LEU B   4     -14.313 -24.235 -29.508  1.00 36.33 LIG 0.01  C 
ENDBRANCH 63 64
ENDBRANCH 42 63
ENDBRANCH 39 42
ENDBRANCH 1 38
TORSDOF 26
ENDMDL
MODEL 25
USER: ADFR SOLUTION from run 12
USER: SCORE 22.029014 LL:  -4.797 LR: -19.187 RR:   0.000 FEB: -11.432
USER: RMSD 2.961108
USER: SEED 729300
USER: STATUS no improvement in best in 6 clusters for 5 generations
USER: GENES 28
USER: genes 0 Translation |==|  0.44572 0.52335 0.37915
USER: genes 1 Rotation |==|  0.50106 0.54552 0.50354 0.99791
USER: genes 2 Torsion [C]-CA--N-[C] |==|  0.72878
USER: genes 3 Torsion [N]-C--CA-[N] |==|  0.43078
USER: genes 4 Torsion [C]-CA--CB-[CG] |==|  0.47047
USER: genes 5 Torsion [CA]-CB--CG-[CD] |==|  0.77112
USER: genes 6 Torsion [CB]-CG--CD-[NE] |==|  0.87358
USER: genes 7 Torsion [CG]-CD--NE-[HE] |==|  0.83485
USER: genes 8 Torsion [C]-CA--N-[C] |==|  0.68276
USER: genes 9 Torsion [N]-C--CA-[N] |==|  0.92458
USER: genes 10 Torsion [C]-CA--N-[H3] |==|  0.07869
USER: genes 11 Torsion [C]-CA--CB-[CG] |==|  0.88065
USER: genes 12 Torsion [CA]-CB--CG-[ND2] |==|  0.71355
USER: genes 13 Torsion [N]-CA--CB-[CG] |==|  0.75768
USER: genes 14 Torsion [CA]-CB--CG-[CD1] |==|  0.58068
USER: genes 15 Torsion [N]-CA--C-[N] |==|  0.37702
USER: genes 16 Torsion [C]-N--CA-[CB] |==|  0.39499
USER: genes 17 Torsion [N]-CA--C-[N] |==|  0.23030
USER: genes 18 Torsion [C]-N--CA-[C] |==|  0.80679
USER: genes 19 Torsion [N]-CA--C-[N] |==|  0.95506
USER: genes 20 Torsion [C]-N--CA-[C] |==|  0.85601
USER: genes 21 Torsion [N]-CA--CB-[CG2] |==|  0.82145
USER: genes 22 Torsion [CA]-CB--OG1-[HG1] |==|  0.47940
USER: genes 23 Torsion [N]-CA--C-[O] |==|  0.82323
USER: genes 24 Torsion [N]-CA--CB-[CG] |==|  0.58768
USER: genes 25 Torsion [CA]-CB--CG-[CD2] |==|  0.32891
USER: genes 26 Torsion [N]-CA--CB-[CG] |==|  0.77532
USER: genes 27 Torsion [CA]-CB--CG-[CD1] |==|  0.98845
ROOT
ATOM      1  CA  LEU B   3     -19.445 -22.293 -30.855  1.00 17.18 LIG 0.18  C 
ENDROOT
BRANCH 1 2
ATOM      2  N   LEU B   3     -20.280 -22.735 -29.801  1.00 21.09 LIG-0.35  N 
ATOM      3  C   ARG B   2     -20.154 -23.954 -29.283  1.00 20.79 LIG 0.24  C 
ATOM      4 O    ARG B   2     -19.257 -24.755 -29.618  1.00 18.81 LIG-0.27  OA
ATOM      5 H    LEU B   3     -20.859 -22.157 -29.537  1.00 21.09 LIG 0.16  HD
BRANCH 3 6
ATOM      6  CA  ARG B   2     -21.237 -24.355 -28.290  1.00 21.42 LIG 0.18  C 
BRANCH 6 7
ATOM      7  CB  ARG B   2     -20.994 -23.798 -26.883  1.00 36.36 LIG 0.04  C 
BRANCH 7 8
ATOM      8  CG  ARG B   2     -22.198 -23.987 -25.980  1.00 41.67 LIG 0.02  C 
BRANCH 8 9
ATOM      9  CD  ARG B   2     -23.266 -22.908 -26.163  1.00 51.14 LIG 0.14  C 
BRANCH 9 10
ATOM     10  NE  ARG B   2     -22.678 -21.557 -26.213  1.00 53.41 LIG-0.23  N 
ATOM     11 HE   ARG B   2     -22.228 -21.298 -25.527  1.00 53.41 LIG 0.18  HD
ATOM     12  CZ  ARG B   2     -22.786 -20.699 -27.235  1.00 50.83 LIG 0.67  C 
ATOM     13  NH1 ARG B   2     -23.468 -21.029 -28.324  1.00 40.00 LIG-0.23  N 
ATOM     14  NH2 ARG B   2     -22.213 -19.497 -27.157  1.00 54.23 LIG-0.23  N 
ATOM     15 1HH1 ARG B   2     -23.846 -21.800 -28.378  1.00 40.00 LIG 0.17  HD
ATOM     16 2HH1 ARG B   2     -23.533 -20.472 -28.976  1.00 40.00 LIG 0.17  HD
ATOM     17 1HH2 ARG B   2     -21.776 -19.273 -26.451  1.00 54.23 LIG 0.17  HD
ATOM     18 2HH2 ARG B   2     -22.282 -18.946 -27.813  1.00 54.23 LIG 0.17  HD
ENDBRANCH 9 10
ENDBRANCH 8 9
ENDBRANCH 7 8
ENDBRANCH 6 7
BRANCH 6 19
ATOM     19  N   ARG B   2     -21.318 -25.800 -28.282  1.00 29.89 LIG-0.35  N 
ATOM     20  C   ASN B   1     -22.409 -26.415 -28.719  1.00 39.87 LIG 0.25  C 
ATOM     21 O    ASN B   1     -23.498 -25.837 -28.839  1.00 37.46 LIG-0.27  OA
ATOM     22 H    ARG B   2     -20.620 -26.201 -27.978  1.00 29.89 LIG 0.16  HD
BRANCH 20 23
ATOM     23  CA  ASN B   1     -22.243 -27.907 -29.059  1.00 47.73 LIG 0.28  C 
BRANCH 23 24
ATOM     24  N   ASN B   1     -20.908 -28.286 -29.451  1.00 51.86 LIG-0.07  N 
ATOM     25 H3   ASN B   1     -20.319 -27.743 -29.064  1.00 51.86 LIG 0.28  HD
ATOM     26 H1   ASN B   1     -20.750 -29.124 -29.196  1.00 51.86 LIG 0.28  HD
ATOM     27 H2   ASN B   1     -20.830 -28.226 -30.335  1.00 51.86 LIG 0.28  HD
ENDBRANCH 23 24
BRANCH 23 28
ATOM     28  CB  ASN B   1     -22.664 -28.816 -27.922  1.00 49.79 LIG 0.14  C 
BRANCH 28 29
ATOM     29  CG  ASN B   1     -22.164 -28.301 -26.593  1.00 59.47 LIG 0.22  C 
ATOM     30  ND2 ASN B   1     -21.102 -28.922 -26.067  1.00 63.81 LIG-0.37  N 
ATOM     31 21HD ASN B   1     -20.797 -28.677 -25.302  1.00 63.81 LIG 0.16  HD
ATOM     32 22HD ASN B   1     -20.725 -29.565 -26.495  1.00 63.81 LIG 0.16  HD
ATOM     33 OD1  ASN B   1     -22.740 -27.377 -26.026  1.00 60.25 LIG-0.27  OA
ENDBRANCH 28 29
ENDBRANCH 23 28
ENDBRANCH 20 23
ENDBRANCH 6 19
ENDBRANCH 3 6
ENDBRANCH 1 2
BRANCH 1 34
ATOM     34  CB  LEU B   3     -20.289 -21.526 -31.911  1.00 28.79 LIG 0.04  C 
BRANCH 34 35
ATOM     35  CG  LEU B   3     -20.884 -22.480 -32.952  1.00 33.15 LIG-0.02  C 
ATOM     36  CD2 LEU B   3     -19.991 -23.708 -33.076  1.00 30.13 LIG 0.01  C 
ATOM     37  CD1 LEU B   3     -21.105 -21.839 -34.354  1.00 27.67 LIG 0.01  C 
ENDBRANCH 34 35
ENDBRANCH 1 34
BRANCH 1 38
ATOM     38  C   LEU B   3     -18.286 -21.462 -30.351  1.00 20.33 LIG 0.24  C 
ATOM     39  N   LEU B   4     -17.101 -21.737 -30.887  1.00 23.83 LIG-0.35  N 
ATOM     40 H    LEU B   4     -16.968 -22.342 -31.483  1.00 23.83 LIG 0.16  HD
ATOM     41 O    LEU B   3     -18.442 -20.584 -29.508  1.00 22.70 LIG-0.27  OA
BRANCH 39 42
ATOM     42  CA  LEU B   4     -15.907 -21.005 -30.482  1.00 22.91 LIG 0.18  C 
BRANCH 42 43
ATOM     43  C   LEU B   4     -15.599 -19.952 -31.552  1.00 30.74 LIG 0.24  C 
ATOM     44 O    LEU B   4     -14.727 -20.161 -32.442  1.00 30.11 LIG-0.27  OA
ATOM     45  N   LEU B   5     -16.263 -18.807 -31.480  1.00 32.41 LIG-0.35  N 
ATOM     46 H    LEU B   5     -16.909 -18.634 -30.940  1.00 32.41 LIG 0.16  HD
BRANCH 45 47
ATOM     47  CA  LEU B   5     -15.880 -17.722 -32.392  1.00 35.50 LIG 0.18  C 
BRANCH 47 48
ATOM     48  C   LEU B   5     -14.510 -17.167 -32.018  1.00 33.38 LIG 0.24  C 
ATOM     49 O    LEU B   5     -13.856 -16.462 -32.818  1.00 25.58 LIG-0.27  OA
ATOM     50  N   THR B   6     -14.093 -17.499 -30.800  1.00 32.99 LIG-0.34  N 
ATOM     51 H    THR B   6     -14.608 -17.861 -30.215  1.00 32.99 LIG 0.16  HD
BRANCH 50 52
ATOM     52  CA  THR B   6     -12.733 -17.291 -30.322  1.00 39.09 LIG 0.19  C 
BRANCH 52 53
ATOM     53  CB  THR B   6     -12.522 -17.986 -28.949  1.00 66.99 LIG 0.14  C 
ATOM     54  CG2 THR B   6     -13.402 -17.362 -27.884  1.00 64.52 LIG 0.04  C 
BRANCH 53 55
ATOM     55 OG1  THR B   6     -12.850 -19.386 -29.054  1.00 68.32 LIG-0.39  OA
ATOM     56 HG1  THR B   6     -12.639 -19.777 -28.342  1.00 68.32 LIG 0.21  HD
ENDBRANCH 53 55
ENDBRANCH 52 53
BRANCH 52 57
ATOM     57  C   THR B   6     -11.755 -17.901 -31.336  1.00 46.48 LIG 0.22  C 
ATOM     58 O    THR B   6     -11.751 -19.121 -31.561  1.00 50.47 LIG-0.29  OA
ENDBRANCH 52 57
ENDBRANCH 50 52
ENDBRANCH 47 48
BRANCH 47 59
ATOM     59  CB  LEU B   5     -16.889 -16.582 -32.348  1.00 41.25 LIG 0.04  C 
BRANCH 59 60
ATOM     60  CG  LEU B   5     -17.115 -15.778 -33.618  1.00 47.99 LIG-0.02  C 
ATOM     61  CD2 LEU B   5     -18.543 -15.906 -34.070  1.00 50.88 LIG 0.01  C 
ATOM     62  CD1 LEU B   5     -16.181 -16.313 -34.683  1.00 54.72 LIG 0.01  C 
ENDBRANCH 59 60
ENDBRANCH 47 59
ENDBRANCH 45 47
ENDBRANCH 42 43
BRANCH 42 63
ATOM     63  CB  LEU B   4     -14.756 -21.989 -30.443  1.00 23.96 LIG 0.04  C 
BRANCH 63 64
ATOM     64  CG  LEU B   4     -14.503 -22.924 -29.281  1.00 38.52 LIG-0.02  C 
ATOM     65  CD1 LEU B   4     -15.453 -22.682 -28.166  1.00 46.71 LIG 0.01  C 
ATOM     66  CD2 LEU B   4     -14.565 -24.372 -29.792  1.00 36.33 LIG 0.01  C 
ENDBRANCH 63 64
ENDBRANCH 42 63
ENDBRANCH 39 42
ENDBRANCH 1 38
TORSDOF 26
ENDMDL
MODEL 26
USER: ADFR SOLUTION from run 138
USER: SCORE 21.934209 LL:  -4.564 LR: -18.951 RR:   0.000 FEB: -11.195
USER: RMSD 3.962094
USER: SEED 137
USER: STATUS no improvement in best in 12 clusters for 5 generations
USER: GENES 28
USER: genes 0 Translation |==|  0.43758 0.49879 0.40898
USER: genes 1 Rotation |==|  0.57021 0.55225 0.49173 0.99221
USER: genes 2 Torsion [C]-CA--N-[C] |==|  0.73016
USER: genes 3 Torsion [N]-C--CA-[N] |==|  0.47966
USER: genes 4 Torsion [C]-CA--CB-[CG] |==|  0.31739
USER: genes 5 Torsion [CA]-CB--CG-[CD] |==|  0.72016
USER: genes 6 Torsion [CB]-CG--CD-[NE] |==|  0.24547
USER: genes 7 Torsion [CG]-CD--NE-[HE] |==|  0.99035
USER: genes 8 Torsion [C]-CA--N-[C] |==|  0.60907
USER: genes 9 Torsion [N]-C--CA-[N] |==|  0.94725
USER: genes 10 Torsion [C]-CA--N-[H3] |==|  0.34060
USER: genes 11 Torsion [C]-CA--CB-[CG] |==|  0.96183
USER: genes 12 Torsion [CA]-CB--CG-[ND2] |==|  0.72941
USER: genes 13 Torsion [N]-CA--CB-[CG] |==|  0.75227
USER: genes 14 Torsion [CA]-CB--CG-[CD1] |==|  0.51731
USER: genes 15 Torsion [N]-CA--C-[N] |==|  0.28517
USER: genes 16 Torsion [C]-N--CA-[CB] |==|  0.53411
USER: genes 17 Torsion [N]-CA--C-[N] |==|  0.36280
USER: genes 18 Torsion [C]-N--CA-[C] |==|  0.64857
USER: genes 19 Torsion [N]-CA--C-[N] |==|  0.74064
USER: genes 20 Torsion [C]-N--CA-[C] |==|  0.67790
USER: genes 21 Torsion [N]-CA--CB-[CG2] |==|  0.54392
USER: genes 22 Torsion [CA]-CB--OG1-[HG1] |==|  0.81789
USER: genes 23 Torsion [N]-CA--C-[O] |==|  0.14848
USER: genes 24 Torsion [N]-CA--CB-[CG] |==|  0.60871
USER: genes 25 Torsion [CA]-CB--CG-[CD2] |==|  0.98590
USER: genes 26 Torsion [N]-CA--CB-[CG] |==|  0.58237
USER: genes 27 Torsion [CA]-CB--CG-[CD1] |==|  0.87726
ROOT
ATOM      1  CA  LEU B   3     -19.647 -22.901 -30.228  1.00 17.18 LIG 0.18  C 
ENDROOT
BRANCH 1 2
ATOM      2  N   LEU B   3     -20.490 -23.554 -29.299  1.00 21.09 LIG-0.35  N 
ATOM      3  C   ARG B   2     -20.439 -24.871 -29.123  1.00 20.79 LIG 0.24  C 
ATOM      4 O    ARG B   2     -19.606 -25.609 -29.689  1.00 18.81 LIG-0.27  OA
ATOM      5 H    LEU B   3     -21.023 -23.031 -28.871  1.00 21.09 LIG 0.16  HD
BRANCH 3 6
ATOM      6  CA  ARG B   2     -21.528 -25.454 -28.232  1.00 21.42 LIG 0.18  C 
BRANCH 6 7
ATOM      7  CB  ARG B   2     -21.455 -24.944 -26.788  1.00 36.36 LIG 0.04  C 
BRANCH 7 8
ATOM      8  CG  ARG B   2     -22.660 -24.100 -26.421  1.00 41.67 LIG 0.02  C 
BRANCH 8 9
ATOM      9  CD  ARG B   2     -22.382 -22.596 -26.466  1.00 51.14 LIG 0.14  C 
BRANCH 9 10
ATOM     10  NE  ARG B   2     -22.625 -22.035 -27.808  1.00 53.41 LIG-0.23  N 
ATOM     11 HE   ARG B   2     -22.846 -22.584 -28.431  1.00 53.41 LIG 0.18  HD
ATOM     12  CZ  ARG B   2     -22.531 -20.741 -28.136  1.00 50.83 LIG 0.67  C 
ATOM     13  NH1 ARG B   2     -22.192 -19.835 -27.227  1.00 40.00 LIG-0.23  N 
ATOM     14  NH2 ARG B   2     -22.769 -20.354 -29.391  1.00 54.23 LIG-0.23  N 
ATOM     15 1HH1 ARG B   2     -22.030 -20.078 -26.418  1.00 40.00 LIG 0.17  HD
ATOM     16 2HH1 ARG B   2     -22.134 -19.006 -27.447  1.00 40.00 LIG 0.17  HD
ATOM     17 1HH2 ARG B   2     -22.981 -20.936 -29.987  1.00 54.23 LIG 0.17  HD
ATOM     18 2HH2 ARG B   2     -22.709 -19.524 -29.603  1.00 54.23 LIG 0.17  HD
ENDBRANCH 9 10
ENDBRANCH 8 9
ENDBRANCH 7 8
ENDBRANCH 6 7
BRANCH 6 19
ATOM     19  N   ARG B   2     -21.427 -26.895 -28.292  1.00 29.89 LIG-0.35  N 
ATOM     20  C   ASN B   1     -22.520 -27.645 -28.326  1.00 39.87 LIG 0.25  C 
ATOM     21 O    ASN B   1     -23.633 -27.220 -27.987  1.00 37.46 LIG-0.27  OA
ATOM     22 H    ARG B   2     -20.624 -27.203 -28.302  1.00 29.89 LIG 0.16  HD
BRANCH 20 23
ATOM     23  CA  ASN B   1     -22.320 -29.095 -28.804  1.00 47.73 LIG 0.28  C 
BRANCH 23 24
ATOM     24  N   ASN B   1     -21.102 -29.319 -29.542  1.00 51.86 LIG-0.07  N 
ATOM     25 H3   ASN B   1     -20.624 -29.953 -29.141  1.00 51.86 LIG 0.28  HD
ATOM     26 H1   ASN B   1     -21.300 -29.577 -30.371  1.00 51.86 LIG 0.28  HD
ATOM     27 H2   ASN B   1     -20.630 -28.565 -29.571  1.00 51.86 LIG 0.28  HD
ENDBRANCH 23 24
BRANCH 23 28
ATOM     28  CB  ASN B   1     -22.360 -30.096 -27.667  1.00 49.79 LIG 0.14  C 
BRANCH 28 29
ATOM     29  CG  ASN B   1     -22.251 -29.409 -26.327  1.00 59.47 LIG 0.22  C 
ATOM     30  ND2 ASN B   1     -21.038 -29.369 -25.766  1.00 63.81 LIG-0.37  N 
ATOM     31 21HD ASN B   1     -20.933 -29.008 -24.993  1.00 63.81 LIG 0.16  HD
ATOM     32 22HD ASN B   1     -20.362 -29.703 -26.179  1.00 63.81 LIG 0.16  HD
ATOM     33 OD1  ASN B   1     -23.249 -28.946 -25.781  1.00 60.25 LIG-0.27  OA
ENDBRANCH 28 29
ENDBRANCH 23 28
ENDBRANCH 20 23
ENDBRANCH 6 19
ENDBRANCH 3 6
ENDBRANCH 1 2
BRANCH 1 34
ATOM     34  CB  LEU B   3     -20.452 -21.823 -31.006  1.00 28.79 LIG 0.04  C 
BRANCH 34 35
ATOM     35  CG  LEU B   3     -21.100 -22.409 -32.265  1.00 33.15 LIG-0.02  C 
ATOM     36  CD2 LEU B   3     -20.049 -23.171 -33.061  1.00 30.13 LIG 0.01  C 
ATOM     37  CD1 LEU B   3     -21.795 -21.353 -33.176  1.00 27.67 LIG 0.01  C 
ENDBRANCH 34 35
ENDBRANCH 1 34
BRANCH 1 38
ATOM     38  C   LEU B   3     -18.418 -22.316 -29.568  1.00 20.33 LIG 0.24  C 
ATOM     39  N   LEU B   4     -17.291 -23.003 -29.730  1.00 23.83 LIG-0.35  N 
ATOM     40 H    LEU B   4     -17.231 -23.736 -30.175  1.00 23.83 LIG 0.16  HD
ATOM     41 O    LEU B   3     -18.466 -21.266 -28.933  1.00 22.70 LIG-0.27  OA
BRANCH 39 42
ATOM     42  CA  LEU B   4     -16.040 -22.541 -29.141  1.00 22.91 LIG 0.18  C 
BRANCH 42 43
ATOM     43  C   LEU B   4     -15.835 -21.074 -29.531  1.00 30.74 LIG 0.24  C 
ATOM     44 O    LEU B   4     -15.917 -20.699 -30.735  1.00 30.11 LIG-0.27  OA
ATOM     45  N   LEU B   5     -15.535 -20.226 -28.555  1.00 32.41 LIG-0.35  N 
ATOM     46 H    LEU B   5     -15.530 -20.410 -27.715  1.00 32.41 LIG 0.16  HD
BRANCH 45 47
ATOM     47  CA  LEU B   5     -15.179 -18.848 -28.915  1.00 35.50 LIG 0.18  C 
BRANCH 47 48
ATOM     48  C   LEU B   5     -13.839 -18.464 -28.299  1.00 33.38 LIG 0.24  C 
ATOM     49 O    LEU B   5     -12.761 -18.720 -28.881  1.00 25.58 LIG-0.27  OA
ATOM     50  N   THR B   6     -13.926 -17.856 -27.121  1.00 32.99 LIG-0.34  N 
ATOM     51 H    THR B   6     -14.669 -17.562 -26.803  1.00 32.99 LIG 0.16  HD
BRANCH 50 52
ATOM     52  CA  THR B   6     -12.789 -17.618 -26.242  1.00 39.09 LIG 0.19  C 
BRANCH 52 53
ATOM     53  CB  THR B   6     -12.673 -16.109 -25.891  1.00 66.99 LIG 0.14  C 
ATOM     54  CG2 THR B   6     -11.307 -15.790 -25.314  1.00 64.52 LIG 0.04  C 
BRANCH 53 55
ATOM     55 OG1  THR B   6     -12.867 -15.315 -27.078  1.00 68.32 LIG-0.39  OA
ATOM     56 HG1  THR B   6     -12.238 -15.458 -27.617  1.00 68.32 LIG 0.21  HD
ENDBRANCH 53 55
ENDBRANCH 52 53
BRANCH 52 57
ATOM     57  C   THR B   6     -12.996 -18.409 -24.943  1.00 46.48 LIG 0.22  C 
ATOM     58 O    THR B   6     -13.227 -19.628 -24.972  1.00 50.47 LIG-0.29  OA
ENDBRANCH 52 57
ENDBRANCH 50 52
ENDBRANCH 47 48
BRANCH 47 59
ATOM     59  CB  LEU B   5     -16.233 -17.861 -28.429  1.00 41.25 LIG 0.04  C 
BRANCH 59 60
ATOM     60  CG  LEU B   5     -16.593 -16.696 -29.336  1.00 47.99 LIG-0.02  C 
ATOM     61  CD2 LEU B   5     -15.704 -16.685 -30.549  1.00 50.88 LIG 0.01  C 
ATOM     62  CD1 LEU B   5     -16.415 -15.415 -28.548  1.00 54.72 LIG 0.01  C 
ENDBRANCH 59 60
ENDBRANCH 47 59
ENDBRANCH 45 47
ENDBRANCH 42 43
BRANCH 42 63
ATOM     63  CB  LEU B   4     -14.917 -23.354 -29.752  1.00 23.96 LIG 0.04  C 
BRANCH 63 64
ATOM     64  CG  LEU B   4     -13.630 -23.670 -29.024  1.00 38.52 LIG-0.02  C 
ATOM     65  CD1 LEU B   4     -13.094 -22.480 -28.316  1.00 46.71 LIG 0.01  C 
ATOM     66  CD2 LEU B   4     -13.882 -24.848 -28.070  1.00 36.33 LIG 0.01  C 
ENDBRANCH 63 64
ENDBRANCH 42 63
ENDBRANCH 39 42
ENDBRANCH 1 38
TORSDOF 26
ENDMDL
MODEL 27
USER: ADFR SOLUTION from run 101
USER: SCORE 22.338136 LL:  -4.439 LR: -18.723 RR:   0.000 FEB: -10.967
USER: RMSD 3.245408
USER: SEED 100
USER: STATUS no improvement in best in 7 clusters for 5 generations
USER: GENES 28
USER: genes 0 Translation |==|  0.45269 0.51108 0.38703
USER: genes 1 Rotation |==|  0.53977 0.46828 0.48546 0.99719
USER: genes 2 Torsion [C]-CA--N-[C] |==|  0.73261
USER: genes 3 Torsion [N]-C--CA-[N] |==|  0.49317
USER: genes 4 Torsion [C]-CA--CB-[CG] |==|  0.63813
USER: genes 5 Torsion [CA]-CB--CG-[CD] |==|  0.31184
USER: genes 6 Torsion [CB]-CG--CD-[NE] |==|  0.51893
USER: genes 7 Torsion [CG]-CD--NE-[HE] |==|  0.32127
USER: genes 8 Torsion [C]-CA--N-[C] |==|  0.62683
USER: genes 9 Torsion [N]-C--CA-[N] |==|  0.93049
USER: genes 10 Torsion [C]-CA--N-[H3] |==|  0.41741
USER: genes 11 Torsion [C]-CA--CB-[CG] |==|  0.87678
USER: genes 12 Torsion [CA]-CB--CG-[ND2] |==|  0.75330
USER: genes 13 Torsion [N]-CA--CB-[CG] |==|  0.84838
USER: genes 14 Torsion [CA]-CB--CG-[CD1] |==|  0.52041
USER: genes 15 Torsion [N]-CA--C-[N] |==|  0.33174
USER: genes 16 Torsion [C]-N--CA-[CB] |==|  0.52255
USER: genes 17 Torsion [N]-CA--C-[N] |==|  0.41818
USER: genes 18 Torsion [C]-N--CA-[C] |==|  0.83224
USER: genes 19 Torsion [N]-CA--C-[N] |==|  0.35623
USER: genes 20 Torsion [C]-N--CA-[C] |==|  0.14873
USER: genes 21 Torsion [N]-CA--CB-[CG2] |==|  0.85708
USER: genes 22 Torsion [CA]-CB--OG1-[HG1] |==|  0.26476
USER: genes 23 Torsion [N]-CA--C-[O] |==|  0.72904
USER: genes 24 Torsion [N]-CA--CB-[CG] |==|  0.22259
USER: genes 25 Torsion [CA]-CB--CG-[CD2] |==|  0.67392
USER: genes 26 Torsion [N]-CA--CB-[CG] |==|  0.61145
USER: genes 27 Torsion [CA]-CB--CG-[CD1] |==|  0.94632
ROOT
ATOM      1  CA  LEU B   3     -19.273 -22.597 -30.689  1.00 17.18 LIG 0.18  C 
ENDROOT
BRANCH 1 2
ATOM      2  N   LEU B   3     -20.417 -23.083 -30.014  1.00 21.09 LIG-0.35  N 
ATOM      3  C   ARG B   2     -20.521 -24.361 -29.661  1.00 20.79 LIG 0.24  C 
ATOM      4 O    ARG B   2     -19.606 -25.196 -29.817  1.00 18.81 LIG-0.27  OA
ATOM      5 H    LEU B   3     -21.020 -22.490 -29.860  1.00 21.09 LIG 0.16  HD
BRANCH 3 6
ATOM      6  CA  ARG B   2     -21.880 -24.778 -29.112  1.00 21.42 LIG 0.18  C 
BRANCH 6 7
ATOM      7  CB  ARG B   2     -22.294 -23.979 -27.872  1.00 36.36 LIG 0.04  C 
BRANCH 7 8
ATOM      8  CG  ARG B   2     -22.748 -24.880 -26.739  1.00 41.67 LIG 0.02  C 
BRANCH 8 9
ATOM      9  CD  ARG B   2     -21.799 -24.868 -25.540  1.00 51.14 LIG 0.14  C 
BRANCH 9 10
ATOM     10  NE  ARG B   2     -22.181 -25.871 -24.529  1.00 53.41 LIG-0.23  N 
ATOM     11 HE   ARG B   2     -21.628 -26.512 -24.381  1.00 53.41 LIG 0.18  HD
ATOM     12  CZ  ARG B   2     -23.316 -25.866 -23.820  1.00 50.83 LIG 0.67  C 
ATOM     13  NH1 ARG B   2     -24.218 -24.908 -23.996  1.00 40.00 LIG-0.23  N 
ATOM     14  NH2 ARG B   2     -23.553 -26.837 -22.936  1.00 54.23 LIG-0.23  N 
ATOM     15 1HH1 ARG B   2     -24.076 -24.283 -24.569  1.00 40.00 LIG 0.17  HD
ATOM     16 2HH1 ARG B   2     -24.946 -24.913 -23.537  1.00 40.00 LIG 0.17  HD
ATOM     17 1HH2 ARG B   2     -22.977 -27.465 -22.822  1.00 54.23 LIG 0.17  HD
ATOM     18 2HH2 ARG B   2     -24.282 -26.834 -22.481  1.00 54.23 LIG 0.17  HD
ENDBRANCH 9 10
ENDBRANCH 8 9
ENDBRANCH 7 8
ENDBRANCH 6 7
BRANCH 6 19
ATOM     19  N   ARG B   2     -21.832 -26.197 -28.837  1.00 29.89 LIG-0.35  N 
ATOM     20  C   ASN B   1     -22.825 -26.990 -29.215  1.00 39.87 LIG 0.25  C 
ATOM     21 O    ASN B   1     -23.948 -26.560 -29.508  1.00 37.46 LIG-0.27  OA
ATOM     22 H    ARG B   2     -21.126 -26.463 -28.422  1.00 29.89 LIG 0.16  HD
BRANCH 20 23
ATOM     23  CA  ASN B   1     -22.499 -28.495 -29.258  1.00 47.73 LIG 0.28  C 
BRANCH 23 24
ATOM     24  N   ASN B   1     -21.102 -28.799 -29.442  1.00 51.86 LIG-0.07  N 
ATOM     25 H3   ASN B   1     -20.912 -29.574 -29.047  1.00 51.86 LIG 0.28  HD
ATOM     26 H1   ASN B   1     -20.923 -28.859 -30.312  1.00 51.86 LIG 0.28  HD
ATOM     27 H2   ASN B   1     -20.607 -28.153 -29.081  1.00 51.86 LIG 0.28  HD
ENDBRANCH 23 24
BRANCH 23 28
ATOM     28  CB  ASN B   1     -22.971 -29.229 -28.020  1.00 49.79 LIG 0.14  C 
BRANCH 28 29
ATOM     29  CG  ASN B   1     -22.638 -28.459 -26.764  1.00 59.47 LIG 0.22  C 
ATOM     30  ND2 ASN B   1     -21.444 -28.696 -26.209  1.00 63.81 LIG-0.37  N 
ATOM     31 21HD ASN B   1     -21.222 -28.297 -25.481  1.00 63.81 LIG 0.16  HD
ATOM     32 22HD ASN B   1     -20.899 -29.247 -26.582  1.00 63.81 LIG 0.16  HD
ATOM     33 OD1  ASN B   1     -23.454 -27.682 -26.275  1.00 60.25 LIG-0.27  OA
ENDBRANCH 28 29
ENDBRANCH 23 28
ENDBRANCH 20 23
ENDBRANCH 6 19
ENDBRANCH 3 6
ENDBRANCH 1 2
BRANCH 1 34
ATOM     34  CB  LEU B   3     -19.701 -21.608 -31.810  1.00 28.79 LIG 0.04  C 
BRANCH 34 35
ATOM     35  CG  LEU B   3     -20.717 -22.247 -32.762  1.00 33.15 LIG-0.02  C 
ATOM     36  CD2 LEU B   3     -20.204 -23.613 -33.199  1.00 30.13 LIG 0.01  C 
ATOM     37  CD1 LEU B   3     -21.055 -21.380 -34.011  1.00 27.67 LIG 0.01  C 
ENDBRANCH 34 35
ENDBRANCH 1 34
BRANCH 1 38
ATOM     38  C   LEU B   3     -18.275 -21.971 -29.739  1.00 20.33 LIG 0.24  C 
ATOM     39  N   LEU B   4     -17.073 -22.537 -29.707  1.00 23.83 LIG-0.35  N 
ATOM     40 H    LEU B   4     -16.844 -23.216 -30.183  1.00 23.83 LIG 0.16  HD
ATOM     41 O    LEU B   3     -18.565 -20.996 -29.053  1.00 22.70 LIG-0.27  OA
BRANCH 39 42
ATOM     42  CA  LEU B   4     -16.026 -22.025 -28.831  1.00 22.91 LIG 0.18  C 
BRANCH 42 43
ATOM     43  C   LEU B   4     -15.830 -20.536 -29.131  1.00 30.74 LIG 0.24  C 
ATOM     44 O    LEU B   4     -16.024 -20.071 -30.290  1.00 30.11 LIG-0.27  OA
ATOM     45  N   LEU B   5     -15.419 -19.768 -28.131  1.00 32.41 LIG-0.35  N 
ATOM     46 H    LEU B   5     -15.335 -20.014 -27.311  1.00 32.41 LIG 0.16  HD
BRANCH 45 47
ATOM     47  CA  LEU B   5     -15.072 -18.371 -28.423  1.00 35.50 LIG 0.18  C 
BRANCH 47 48
ATOM     48  C   LEU B   5     -13.931 -18.303 -29.431  1.00 33.38 LIG 0.24  C 
ATOM     49 O    LEU B   5     -12.869 -18.939 -29.252  1.00 25.58 LIG-0.27  OA
ATOM     50  N   THR B   6     -14.168 -17.523 -30.481  1.00 32.99 LIG-0.34  N 
ATOM     51 H    THR B   6     -14.947 -17.208 -30.660  1.00 32.99 LIG 0.16  HD
BRANCH 50 52
ATOM     52  CA  THR B   6     -13.148 -17.117 -31.439  1.00 39.09 LIG 0.19  C 
BRANCH 52 53
ATOM     53  CB  THR B   6     -12.091 -16.204 -30.761  1.00 66.99 LIG 0.14  C 
ATOM     54  CG2 THR B   6     -12.757 -15.060 -30.020  1.00 64.52 LIG 0.04  C 
BRANCH 53 55
ATOM     55 OG1  THR B   6     -11.314 -16.970 -29.819  1.00 68.32 LIG-0.39  OA
ATOM     56 HG1  THR B   6     -10.608 -17.235 -30.188  1.00 68.32 LIG 0.21  HD
ENDBRANCH 53 55
ENDBRANCH 52 53
BRANCH 52 57
ATOM     57  C   THR B   6     -12.443 -18.372 -31.972  1.00 46.48 LIG 0.22  C 
ATOM     58 O    THR B   6     -11.362 -18.746 -31.491  1.00 50.47 LIG-0.29  OA
ENDBRANCH 52 57
ENDBRANCH 50 52
ENDBRANCH 47 48
BRANCH 47 59
ATOM     59  CB  LEU B   5     -14.642 -17.635 -27.160  1.00 41.25 LIG 0.04  C 
BRANCH 59 60
ATOM     60  CG  LEU B   5     -13.219 -17.839 -26.664  1.00 47.99 LIG-0.02  C 
ATOM     61  CD2 LEU B   5     -13.227 -18.477 -25.303  1.00 50.88 LIG 0.01  C 
ATOM     62  CD1 LEU B   5     -12.546 -16.483 -26.601  1.00 54.72 LIG 0.01  C 
ENDBRANCH 59 60
ENDBRANCH 47 59
ENDBRANCH 45 47
ENDBRANCH 42 43
BRANCH 42 63
ATOM     63  CB  LEU B   4     -14.742 -22.750 -29.179  1.00 23.96 LIG 0.04  C 
BRANCH 63 64
ATOM     64  CG  LEU B   4     -13.747 -23.220 -28.140  1.00 38.52 LIG-0.02  C 
ATOM     65  CD1 LEU B   4     -13.928 -22.510 -26.848  1.00 46.71 LIG 0.01  C 
ATOM     66  CD2 LEU B   4     -13.877 -24.743 -27.989  1.00 36.33 LIG 0.01  C 
ENDBRANCH 63 64
ENDBRANCH 42 63
ENDBRANCH 39 42
ENDBRANCH 1 38
TORSDOF 26
ENDMDL
MODEL 28
USER: ADFR SOLUTION from run 102
USER: SCORE 21.146566 LL:  -4.346 LR: -18.688 RR:   0.000 FEB: -10.932
USER: RMSD 4.139283
USER: SEED 101
USER: STATUS no improvement in best in 6 clusters for 5 generations
USER: GENES 28
USER: genes 0 Translation |==|  0.44286 0.53018 0.35922
USER: genes 1 Rotation |==|  0.52760 0.50344 0.46073 0.99768
USER: genes 2 Torsion [C]-CA--N-[C] |==|  0.74568
USER: genes 3 Torsion [N]-C--CA-[N] |==|  0.17895
USER: genes 4 Torsion [C]-CA--CB-[CG] |==|  0.31678
USER: genes 5 Torsion [CA]-CB--CG-[CD] |==|  0.38552
USER: genes 6 Torsion [CB]-CG--CD-[NE] |==|  0.27540
USER: genes 7 Torsion [CG]-CD--NE-[HE] |==|  0.28901
USER: genes 8 Torsion [C]-CA--N-[C] |==|  0.77591
USER: genes 9 Torsion [N]-C--CA-[N] |==|  0.15972
USER: genes 10 Torsion [C]-CA--N-[H3] |==|  0.48087
USER: genes 11 Torsion [C]-CA--CB-[CG] |==|  0.36769
USER: genes 12 Torsion [CA]-CB--CG-[ND2] |==|  0.52124
USER: genes 13 Torsion [N]-CA--CB-[CG] |==|  0.73172
USER: genes 14 Torsion [CA]-CB--CG-[CD1] |==|  0.07729
USER: genes 15 Torsion [N]-CA--C-[N] |==|  0.42290
USER: genes 16 Torsion [C]-N--CA-[CB] |==|  0.31031
USER: genes 17 Torsion [N]-CA--C-[N] |==|  0.40428
USER: genes 18 Torsion [C]-N--CA-[C] |==|  0.62256
USER: genes 19 Torsion [N]-CA--C-[N] |==|  0.44088
USER: genes 20 Torsion [C]-N--CA-[C] |==|  0.73356
USER: genes 21 Torsion [N]-CA--CB-[CG2] |==|  0.29419
USER: genes 22 Torsion [CA]-CB--OG1-[HG1] |==|  0.97413
USER: genes 23 Torsion [N]-CA--C-[O] |==|  0.92711
USER: genes 24 Torsion [N]-CA--CB-[CG] |==|  0.68739
USER: genes 25 Torsion [CA]-CB--CG-[CD2] |==|  0.75002
USER: genes 26 Torsion [N]-CA--CB-[CG] |==|  0.68634
USER: genes 27 Torsion [CA]-CB--CG-[CD1] |==|  0.47554
ROOT
ATOM      1  CA  LEU B   3     -19.516 -22.124 -31.273  1.00 17.18 LIG 0.18  C 
ENDROOT
BRANCH 1 2
ATOM      2  N   LEU B   3     -20.584 -22.481 -30.416  1.00 21.09 LIG-0.35  N 
ATOM      3  C   ARG B   2     -20.692 -23.710 -29.920  1.00 20.79 LIG 0.24  C 
ATOM      4 O    ARG B   2     -19.837 -24.603 -30.099  1.00 18.81 LIG-0.27  OA
ATOM      5 H    LEU B   3     -21.139 -21.845 -30.253  1.00 21.09 LIG 0.16  HD
BRANCH 3 6
ATOM      6  CA  ARG B   2     -21.986 -23.999 -29.170  1.00 21.42 LIG 0.18  C 
BRANCH 6 7
ATOM      7  CB  ARG B   2     -21.971 -25.355 -28.455  1.00 36.36 LIG 0.04  C 
BRANCH 7 8
ATOM      8  CG  ARG B   2     -22.012 -25.203 -26.946  1.00 41.67 LIG 0.02  C 
BRANCH 8 9
ATOM      9  CD  ARG B   2     -22.931 -26.216 -26.261  1.00 51.14 LIG 0.14  C 
BRANCH 9 10
ATOM     10  NE  ARG B   2     -22.176 -27.355 -25.708  1.00 53.41 LIG-0.23  N 
ATOM     11 HE   ARG B   2     -22.054 -27.371 -24.856  1.00 53.41 LIG 0.18  HD
ATOM     12  CZ  ARG B   2     -21.664 -28.366 -26.419  1.00 50.83 LIG 0.67  C 
ATOM     13  NH1 ARG B   2     -21.810 -28.407 -27.737  1.00 40.00 LIG-0.23  N 
ATOM     14  NH2 ARG B   2     -20.990 -29.339 -25.802  1.00 54.23 LIG-0.23  N 
ATOM     15 1HH1 ARG B   2     -22.236 -27.780 -28.142  1.00 40.00 LIG 0.17  HD
ATOM     16 2HH1 ARG B   2     -21.477 -29.061 -28.187  1.00 40.00 LIG 0.17  HD
ATOM     17 1HH2 ARG B   2     -20.885 -29.315 -24.949  1.00 54.23 LIG 0.17  HD
ATOM     18 2HH2 ARG B   2     -20.661 -29.989 -26.258  1.00 54.23 LIG 0.17  HD
ENDBRANCH 9 10
ENDBRANCH 8 9
ENDBRANCH 7 8
ENDBRANCH 6 7
BRANCH 6 19
ATOM     19  N   ARG B   2     -23.078 -23.909 -30.114  1.00 29.89 LIG-0.35  N 
ATOM     20  C   ASN B   1     -23.576 -22.729 -30.456  1.00 39.87 LIG 0.25  C 
ATOM     21 O    ASN B   1     -23.389 -21.706 -29.784  1.00 37.46 LIG-0.27  OA
ATOM     22 H    ARG B   2     -23.358 -24.664 -30.418  1.00 29.89 LIG 0.16  HD
BRANCH 20 23
ATOM     23  CA  ASN B   1     -24.418 -22.708 -31.745  1.00 47.73 LIG 0.28  C 
BRANCH 23 24
ATOM     24  N   ASN B   1     -25.548 -23.604 -31.736  1.00 51.86 LIG-0.07  N 
ATOM     25 H3   ASN B   1     -26.041 -23.467 -32.463  1.00 51.86 LIG 0.28  HD
ATOM     26 H1   ASN B   1     -25.259 -24.446 -31.728  1.00 51.86 LIG 0.28  HD
ATOM     27 H2   ASN B   1     -26.041 -23.453 -31.010  1.00 51.86 LIG 0.28  HD
ENDBRANCH 23 24
BRANCH 23 28
ATOM     28  CB  ASN B   1     -24.932 -21.324 -32.084  1.00 49.79 LIG 0.14  C 
BRANCH 28 29
ATOM     29  CG  ASN B   1     -24.688 -20.988 -33.537  1.00 59.47 LIG 0.22  C 
ATOM     30  ND2 ASN B   1     -24.954 -19.734 -33.919  1.00 63.81 LIG-0.37  N 
ATOM     31 21HD ASN B   1     -24.852 -19.505 -34.741  1.00 63.81 LIG 0.16  HD
ATOM     32 22HD ASN B   1     -25.227 -19.158 -33.343  1.00 63.81 LIG 0.16  HD
ATOM     33 OD1  ASN B   1     -24.296 -21.851 -34.318  1.00 60.25 LIG-0.27  OA
ENDBRANCH 28 29
ENDBRANCH 23 28
ENDBRANCH 20 23
ENDBRANCH 6 19
ENDBRANCH 3 6
ENDBRANCH 1 2
BRANCH 1 34
ATOM     34  CB  LEU B   3     -20.020 -21.135 -32.362  1.00 28.79 LIG 0.04  C 
BRANCH 34 35
ATOM     35  CG  LEU B   3     -20.365 -21.866 -33.664  1.00 33.15 LIG-0.02  C 
ATOM     36  CD2 LEU B   3     -21.452 -21.092 -34.400  1.00 30.13 LIG 0.01  C 
ATOM     37  CD1 LEU B   3     -20.805 -23.347 -33.468  1.00 27.67 LIG 0.01  C 
ENDBRANCH 34 35
ENDBRANCH 1 34
BRANCH 1 38
ATOM     38  C   LEU B   3     -18.336 -21.564 -30.509  1.00 20.33 LIG 0.24  C 
ATOM     39  N   LEU B   4     -17.146 -21.734 -31.077  1.00 23.83 LIG-0.35  N 
ATOM     40 H    LEU B   4     -17.020 -22.131 -31.829  1.00 23.83 LIG 0.16  HD
ATOM     41 O    LEU B   3     -18.481 -20.983 -29.438  1.00 22.70 LIG-0.27  OA
BRANCH 39 42
ATOM     42  CA  LEU B   4     -15.933 -21.239 -30.436  1.00 22.91 LIG 0.18  C 
BRANCH 42 43
ATOM     43  C   LEU B   4     -15.118 -20.465 -31.477  1.00 30.74 LIG 0.24  C 
ATOM     44 O    LEU B   4     -15.078 -20.836 -32.684  1.00 30.11 LIG-0.27  OA
ATOM     45  N   LEU B   5     -14.434 -19.413 -31.047  1.00 32.41 LIG-0.35  N 
ATOM     46 H    LEU B   5     -14.475 -19.077 -30.257  1.00 32.41 LIG 0.16  HD
BRANCH 45 47
ATOM     47  CA  LEU B   5     -13.522 -18.746 -31.985  1.00 35.50 LIG 0.18  C 
BRANCH 47 48
ATOM     48  C   LEU B   5     -12.195 -18.429 -31.305  1.00 33.38 LIG 0.24  C 
ATOM     49 O    LEU B   5     -12.107 -18.351 -30.060  1.00 25.58 LIG-0.27  OA
ATOM     50  N   THR B   6     -11.176 -18.246 -32.139  1.00 32.99 LIG-0.34  N 
ATOM     51 H    THR B   6     -11.220 -18.440 -32.976  1.00 32.99 LIG 0.16  HD
BRANCH 50 52
ATOM     52  CA  THR B   6      -9.886 -17.701 -31.740  1.00 39.09 LIG 0.19  C 
BRANCH 52 53
ATOM     53  CB  THR B   6      -8.736 -18.371 -32.541  1.00 66.99 LIG 0.14  C 
ATOM     54  CG2 THR B   6      -8.184 -17.426 -33.590  1.00 64.52 LIG 0.04  C 
BRANCH 53 55
ATOM     55 OG1  THR B   6      -7.668 -18.740 -31.647  1.00 68.32 LIG-0.39  OA
ATOM     56 HG1  THR B   6      -7.811 -18.411 -30.887  1.00 68.32 LIG 0.21  HD
ENDBRANCH 53 55
ENDBRANCH 52 53
BRANCH 52 57
ATOM     57  C   THR B   6      -9.875 -16.194 -32.032  1.00 46.48 LIG 0.22  C 
ATOM     58 O    THR B   6     -10.593 -15.714 -32.923  1.00 50.47 LIG-0.29  OA
ENDBRANCH 52 57
ENDBRANCH 50 52
ENDBRANCH 47 48
BRANCH 47 59
ATOM     59  CB  LEU B   5     -14.120 -17.444 -32.503  1.00 41.25 LIG 0.04  C 
BRANCH 59 60
ATOM     60  CG  LEU B   5     -14.498 -17.368 -33.973  1.00 47.99 LIG-0.02  C 
ATOM     61  CD2 LEU B   5     -13.336 -16.871 -34.787  1.00 50.88 LIG 0.01  C 
ATOM     62  CD1 LEU B   5     -15.671 -16.419 -34.107  1.00 54.72 LIG 0.01  C 
ENDBRANCH 59 60
ENDBRANCH 47 59
ENDBRANCH 45 47
ENDBRANCH 42 43
BRANCH 42 63
ATOM     63  CB  LEU B   4     -15.122 -22.442 -30.000  1.00 23.96 LIG 0.04  C 
BRANCH 63 64
ATOM     64  CG  LEU B   4     -14.877 -22.796 -28.550  1.00 38.52 LIG-0.02  C 
ATOM     65  CD1 LEU B   4     -14.235 -24.128 -28.412  1.00 46.71 LIG 0.01  C 
ATOM     66  CD2 LEU B   4     -14.042 -21.679 -27.905  1.00 36.33 LIG 0.01  C 
ENDBRANCH 63 64
ENDBRANCH 42 63
ENDBRANCH 39 42
ENDBRANCH 1 38
TORSDOF 26
ENDMDL
