MODEL 1
USER: ADFR SOLUTION from run 30
USER: SCORE 19.362216 LL:  -1.115 LR: -20.542 RR:   0.000 FEB: -11.891
USER: RMSD 2.905254
USER: SEED 29
USER: STATUS no improvement in best in 1 clusters for 5 generations
USER: GENES 31
USER: genes 0 Translation |==|  0.44479 0.48471 0.43506
USER: genes 1 Rotation |==|  0.48271 0.48778 0.52009 0.99915
USER: genes 2 Torsion [C]-CA--CB-[CG] |==|  0.41526
USER: genes 3 Torsion [CA]-CB--CG-[CD] |==|  0.53812
USER: genes 4 Torsion [CB]-CG--CD-[NE] |==|  0.84038
USER: genes 5 Torsion [CG]-CD--NE-[HE] |==|  0.88859
USER: genes 6 Torsion [N]-CA--C-[N] |==|  0.26879
USER: genes 7 Torsion [C]-N--CA-[CB] |==|  0.46727
USER: genes 8 Torsion [N]-CA--CB-[CG] |==|  0.74381
USER: genes 9 Torsion [CA]-CB--CG-[CD] |==|  0.24955
USER: genes 10 Torsion [CB]-CG--CD-[CE] |==|  0.42793
USER: genes 11 Torsion [CG]-CD--CE-[NZ] |==|  0.10355
USER: genes 12 Torsion [CD]-CE--NZ-[HZ2] |==|  0.77485
USER: genes 13 Torsion [N]-CA--C-[N] |==|  0.50438
USER: genes 14 Torsion [C]-N--CA-[CB] |==|  0.32262
USER: genes 15 Torsion [N]-CA--C-[O] |==|  0.32485
USER: genes 16 Torsion [N]-CA--CB-[CG1] |==|  0.29626
USER: genes 17 Torsion [CB]-CA--N-[C] |==|  0.49849
USER: genes 18 Torsion [N]-C--CA-[N] |==|  0.48304
USER: genes 19 Torsion [C]-CA--CB-[CG] |==|  0.57888
USER: genes 20 Torsion [CA]-CB--CG-[CD] |==|  0.76761
USER: genes 21 Torsion [CB]-CG--CD-[CE] |==|  0.52601
USER: genes 22 Torsion [CG]-CD--CE-[NZ] |==|  0.17294
USER: genes 23 Torsion [CD]-CE--NZ-[HZ1] |==|  0.54633
USER: genes 24 Torsion [C]-CA--N-[C] |==|  0.61929
USER: genes 25 Torsion [N]-C--CA-[N] |==|  0.99471
USER: genes 26 Torsion [C]-CA--CB-[CG] |==|  0.19388
USER: genes 27 Torsion [CA]-CB--CG-[CD] |==|  0.60802
USER: genes 28 Torsion [CB]-CG--CD-[CE] |==|  0.40129
USER: genes 29 Torsion [CG]-CD--CE-[NZ] |==|  0.53872
USER: genes 30 Torsion [CD]-CE--NZ-[HZ2] |==|  0.42262
ROOT
ATOM      1  CA  ARG A 130     -32.011  86.410 201.349  1.00 33.49 LIG 0.18  C 
ENDROOT
BRANCH 1 2
ATOM      2  CB  ARG A 130     -30.855  85.652 200.693  1.00 35.16 LIG 0.04  C 
BRANCH 2 3
ATOM      3  CG  ARG A 130     -30.640  85.936 199.220  1.00 39.71 LIG 0.02  C 
BRANCH 3 4
ATOM      4  CD  ARG A 130     -29.706  84.892 198.612  1.00 38.05 LIG 0.14  C 
BRANCH 4 5
ATOM      5  NE  ARG A 130     -28.416  84.845 199.304  1.00 39.97 LIG-0.23  N 
ATOM      6 HE   ARG A 130     -28.064  85.592 199.545  1.00 39.97 LIG 0.18  HD
ATOM      7  CZ  ARG A 130     -27.753  83.728 199.584  1.00 35.35 LIG 0.67  C 
ATOM      8  NH1 ARG A 130     -28.241  82.548 199.223  1.00 35.08 LIG-0.23  N 
ATOM      9  NH2 ARG A 130     -26.591  83.789 200.219  1.00 36.08 LIG-0.23  N 
ATOM     10 2HH1 ARG A 130     -27.807  81.829 199.407  1.00 35.08 LIG 0.17  HD
ATOM     11 1HH1 ARG A 130     -28.991  82.503 198.805  1.00 35.08 LIG 0.17  HD
ATOM     12 1HH2 ARG A 130     -26.267  84.551 200.450  1.00 36.08 LIG 0.17  HD
ATOM     13 2HH2 ARG A 130     -26.161  83.066 200.401  1.00 36.08 LIG 0.17  HD
ENDBRANCH 4 5
ENDBRANCH 3 4
ENDBRANCH 2 3
ENDBRANCH 1 2
BRANCH 1 14
ATOM     14  C   ARG A 130     -32.585  85.560 202.467  1.00 35.02 LIG 0.24  C 
ATOM     15  N   LYS A 131     -33.908  85.558 202.603  1.00 32.29 LIG-0.35  N 
ATOM     16 H    LYS A 131     -34.448  86.021 202.120  1.00 32.29 LIG 0.16  HD
ATOM     17 O    ARG A 130     -31.845  84.898 203.189  1.00 31.53 LIG-0.27  OA
BRANCH 15 18
ATOM     18  CA  LYS A 131     -34.545  84.736 203.620  1.00 31.30 LIG 0.18  C 
BRANCH 18 19
ATOM     19  CB  LYS A 131     -36.025  85.127 203.769  1.00 33.79 LIG 0.04  C 
BRANCH 19 20
ATOM     20  CG  LYS A 131     -36.218  86.182 204.850  1.00 34.08 LIG 0.00  C 
BRANCH 20 21
ATOM     21  CD  LYS A 131     -36.126  87.589 204.351  1.00 36.35 LIG 0.03  C 
BRANCH 21 22
ATOM     22  CE  LYS A 131     -36.921  88.525 205.252  1.00 32.79 LIG 0.23  C 
BRANCH 22 23
ATOM     23  NZ  LYS A 131     -36.810  88.125 206.684  1.00 29.22 LIG-0.08  N 
ATOM     24 HZ3  LYS A 131     -35.979  87.856 206.853  1.00 29.22 LIG 0.27  HD
ATOM     25 HZ2  LYS A 131     -37.377  87.460 206.851  1.00 29.22 LIG 0.27  HD
ATOM     26 HZ1  LYS A 131     -37.008  88.820 207.203  1.00 29.22 LIG 0.27  HD
ENDBRANCH 22 23
ENDBRANCH 21 22
ENDBRANCH 20 21
ENDBRANCH 19 20
ENDBRANCH 18 19
BRANCH 18 27
ATOM     27  C   LYS A 131     -34.387  83.259 203.275  1.00 34.74 LIG 0.24  C 
ATOM     28  N   VAL A 132     -34.952  82.389 204.106  1.00 33.85 LIG-0.35  N 
ATOM     29 H    VAL A 132     -35.374  82.610 204.823  1.00 33.85 LIG 0.16  HD
ATOM     30 O    LYS A 131     -33.732  82.913 202.290  1.00 35.56 LIG-0.27  OA
BRANCH 28 31
ATOM     31  CA  VAL A 132     -34.897  80.951 203.855  1.00 36.14 LIG 0.17  C 
BRANCH 31 32
ATOM     32  C   VAL A 132     -36.295  80.336 203.754  1.00 41.88 LIG 0.22  C 
ATOM     33 O    VAL A 132     -36.670  79.815 202.698  1.00 46.22 LIG-0.29  OA
ENDBRANCH 31 32
BRANCH 31 34
ATOM     34  CB  VAL A 132     -34.105  80.212 204.958  1.00 35.83 LIG 0.01  C 
ATOM     35  CG1 VAL A 132     -35.054  79.432 205.862  1.00 39.48 LIG 0.01  C 
ATOM     36  CG2 VAL A 132     -33.084  79.284 204.346  1.00 35.02 LIG 0.01  C 
ENDBRANCH 31 34
ENDBRANCH 28 31
ENDBRANCH 18 27
ENDBRANCH 15 18
ENDBRANCH 1 14
BRANCH 1 37
ATOM     37  N   ARG A 130     -31.579  87.715 201.852  1.00 35.65 LIG-0.35  N 
ATOM     38 H    ARG A 130     -30.746  87.883 201.725  1.00 35.65 LIG 0.16  HD
ATOM     39  C   LYS A 129     -32.420  88.554 202.453  1.00 38.36 LIG 0.24  C 
ATOM     40 O    LYS A 129     -33.613  88.310 202.596  1.00 38.91 LIG-0.27  OA
BRANCH 39 41
ATOM     41  CA  LYS A 129     -31.826  89.857 202.982  1.00 41.62 LIG 0.18  C 
BRANCH 41 42
ATOM     42  CB  LYS A 129     -30.802  89.544 204.070  1.00 37.07 LIG 0.04  C 
BRANCH 42 43
ATOM     43  CG  LYS A 129     -30.635  90.633 205.120  1.00 37.25 LIG 0.00  C 
BRANCH 43 44
ATOM     44  CD  LYS A 129     -29.670  91.727 204.665  1.00 32.25 LIG 0.03  C 
BRANCH 44 45
ATOM     45  CE  LYS A 129     -29.358  92.663 205.825  1.00 33.17 LIG 0.23  C 
BRANCH 45 46
ATOM     46  NZ  LYS A 129     -28.675  91.978 206.969  1.00 31.02 LIG-0.08  N 
ATOM     47 HZ2  LYS A 129     -29.068  91.195 207.124  1.00 31.02 LIG 0.27  HD
ATOM     48 HZ3  LYS A 129     -27.819  91.845 206.767  1.00 31.02 LIG 0.27  HD
ATOM     49 HZ1  LYS A 129     -28.732  92.487 207.697  1.00 31.02 LIG 0.27  HD
ENDBRANCH 45 46
ENDBRANCH 44 45
ENDBRANCH 43 44
ENDBRANCH 42 43
ENDBRANCH 41 42
BRANCH 41 50
ATOM     50  N   LYS A 129     -32.852  90.766 203.493  1.00 48.91 LIG-0.35  N 
ATOM     51  C   LYS A 128     -32.827  92.073 203.230  1.00 46.33 LIG 0.26  C 
ATOM     52 O    LYS A 128     -31.988  92.593 202.498  1.00 48.39 LIG-0.27  OA
ATOM     53 H    LYS A 129     -33.458  90.385 203.969  1.00 48.91 LIG 0.16  HD
BRANCH 51 54
ATOM     54  CA  LYS A 128     -33.923  92.918 203.881  1.00 52.62 LIG 0.40  C 
ATOM     55  N   LYS A 128     -34.832  92.082 204.652  1.00 52.42 LIG 0.61  N 
BRANCH 54 56
ATOM     56  CB  LYS A 128     -33.300  93.999 204.774  1.00 53.69 LIG 0.05  C 
BRANCH 56 57
ATOM     57  CG  LYS A 128     -32.577  95.102 204.012  1.00 48.68 LIG 0.00  C 
BRANCH 57 58
ATOM     58  CD  LYS A 128     -31.307  95.525 204.728  1.00 52.15 LIG 0.03  C 
BRANCH 58 59
ATOM     59  CE  LYS A 128     -30.219  95.879 203.727  1.00 44.05 LIG 0.23  C 
BRANCH 59 60
ATOM     60  NZ  LYS A 128     -28.861  95.983 204.344  1.00 43.39 LIG-0.08  N 
ATOM     61 HZ1  LYS A 128     -28.799  95.410 205.022  1.00 43.39 LIG 0.27  HD
ATOM     62 HZ2  LYS A 128     -28.242  95.788 203.735  1.00 43.39 LIG 0.27  HD
ATOM     63 HZ3  LYS A 128     -28.732  96.811 204.642  1.00 43.39 LIG 0.27  HD
ENDBRANCH 59 60
ENDBRANCH 58 59
ENDBRANCH 57 58
ENDBRANCH 56 57
ENDBRANCH 54 56
ENDBRANCH 51 54
ENDBRANCH 41 50
ENDBRANCH 39 41
ENDBRANCH 1 37
TORSDOF 29
ENDMDL
MODEL 2
USER: ADFR SOLUTION from run 2
USER: SCORE 18.249967 LL:  -1.074 LR: -19.189 RR:   0.000 FEB: -10.538
USER: RMSD 4.635912
USER: SEED 562071
USER: STATUS no improvement in best in 6 clusters for 5 generations
USER: GENES 31
USER: genes 0 Translation |==|  0.44607 0.49698 0.39962
USER: genes 1 Rotation |==|  0.51436 0.52852 0.57443 0.99340
USER: genes 2 Torsion [C]-CA--CB-[CG] |==|  0.70711
USER: genes 3 Torsion [CA]-CB--CG-[CD] |==|  0.35845
USER: genes 4 Torsion [CB]-CG--CD-[NE] |==|  0.05928
USER: genes 5 Torsion [CG]-CD--NE-[HE] |==|  0.00656
USER: genes 6 Torsion [N]-CA--C-[N] |==|  0.28970
USER: genes 7 Torsion [C]-N--CA-[CB] |==|  0.46667
USER: genes 8 Torsion [N]-CA--CB-[CG] |==|  0.69821
USER: genes 9 Torsion [CA]-CB--CG-[CD] |==|  0.80700
USER: genes 10 Torsion [CB]-CG--CD-[CE] |==|  0.60520
USER: genes 11 Torsion [CG]-CD--CE-[NZ] |==|  0.77152
USER: genes 12 Torsion [CD]-CE--NZ-[HZ2] |==|  0.83283
USER: genes 13 Torsion [N]-CA--C-[N] |==|  0.53754
USER: genes 14 Torsion [C]-N--CA-[CB] |==|  0.42706
USER: genes 15 Torsion [N]-CA--C-[O] |==|  0.30360
USER: genes 16 Torsion [N]-CA--CB-[CG1] |==|  0.26997
USER: genes 17 Torsion [CB]-CA--N-[C] |==|  0.52995
USER: genes 18 Torsion [N]-C--CA-[N] |==|  0.42986
USER: genes 19 Torsion [C]-CA--CB-[CG] |==|  0.55903
USER: genes 20 Torsion [CA]-CB--CG-[CD] |==|  0.70900
USER: genes 21 Torsion [CB]-CG--CD-[CE] |==|  0.54263
USER: genes 22 Torsion [CG]-CD--CE-[NZ] |==|  0.16452
USER: genes 23 Torsion [CD]-CE--NZ-[HZ1] |==|  0.42044
USER: genes 24 Torsion [C]-CA--N-[C] |==|  0.66582
USER: genes 25 Torsion [N]-C--CA-[N] |==|  0.46303
USER: genes 26 Torsion [C]-CA--CB-[CG] |==|  0.28255
USER: genes 27 Torsion [CA]-CB--CG-[CD] |==|  0.70844
USER: genes 28 Torsion [CB]-CG--CD-[CE] |==|  0.56556
USER: genes 29 Torsion [CG]-CD--CE-[NZ] |==|  0.80689
USER: genes 30 Torsion [CD]-CE--NZ-[HZ2] |==|  0.13476
ROOT
ATOM      1  CA  ARG A 130     -31.983  86.713 200.737  1.00 33.49 LIG 0.18  C 
ENDROOT
BRANCH 1 2
ATOM      2  CB  ARG A 130     -30.839  86.297 199.811  1.00 35.16 LIG 0.04  C 
BRANCH 2 3
ATOM      3  CG  ARG A 130     -29.544  87.062 199.987  1.00 39.71 LIG 0.02  C 
BRANCH 3 4
ATOM      4  CD  ARG A 130     -28.375  86.092 200.146  1.00 38.05 LIG 0.14  C 
BRANCH 4 5
ATOM      5  NE  ARG A 130     -28.687  84.769 199.604  1.00 39.97 LIG-0.23  N 
ATOM      6 HE   ARG A 130     -29.454  84.660 199.230  1.00 39.97 LIG 0.18  HD
ATOM      7  CZ  ARG A 130     -27.867  83.723 199.651  1.00 35.35 LIG 0.67  C 
ATOM      8  NH1 ARG A 130     -26.678  83.829 200.229  1.00 35.08 LIG-0.23  N 
ATOM      9  NH2 ARG A 130     -28.240  82.565 199.127  1.00 36.08 LIG-0.23  N 
ATOM     10 2HH1 ARG A 130     -26.152  83.149 200.256  1.00 35.08 LIG 0.17  HD
ATOM     11 1HH1 ARG A 130     -26.433  84.576 200.576  1.00 35.08 LIG 0.17  HD
ATOM     12 1HH2 ARG A 130     -29.012  82.489 198.757  1.00 36.08 LIG 0.17  HD
ATOM     13 2HH2 ARG A 130     -27.710  81.888 199.157  1.00 36.08 LIG 0.17  HD
ENDBRANCH 4 5
ENDBRANCH 3 4
ENDBRANCH 2 3
ENDBRANCH 1 2
BRANCH 1 14
ATOM     14  C   ARG A 130     -32.156  85.656 201.812  1.00 35.02 LIG 0.24  C 
ATOM     15  N   LYS A 131     -33.394  85.235 202.049  1.00 32.29 LIG-0.35  N 
ATOM     16 H    LYS A 131     -34.096  85.539 201.654  1.00 32.29 LIG 0.16  HD
ATOM     17 O    ARG A 130     -31.180  85.210 202.410  1.00 31.53 LIG-0.27  OA
BRANCH 15 18
ATOM     18  CA  LYS A 131     -33.646  84.192 203.031  1.00 31.30 LIG 0.18  C 
BRANCH 18 19
ATOM     19  CB  LYS A 131     -35.151  84.097 203.333  1.00 33.79 LIG 0.04  C 
BRANCH 19 20
ATOM     20  CG  LYS A 131     -35.475  84.623 204.724  1.00 34.08 LIG 0.00  C 
BRANCH 20 21
ATOM     21  CD  LYS A 131     -34.970  83.758 205.836  1.00 36.35 LIG 0.03  C 
BRANCH 21 22
ATOM     22  CE  LYS A 131     -35.977  83.721 206.978  1.00 32.79 LIG 0.23  C 
BRANCH 22 23
ATOM     23  NZ  LYS A 131     -35.840  84.913 207.862  1.00 29.22 LIG-0.08  N 
ATOM     24 HZ3  LYS A 131     -35.977  85.653 207.387  1.00 29.22 LIG 0.27  HD
ATOM     25 HZ2  LYS A 131     -35.022  84.931 208.210  1.00 29.22 LIG 0.27  HD
ATOM     26 HZ1  LYS A 131     -36.440  84.868 208.518  1.00 29.22 LIG 0.27  HD
ENDBRANCH 22 23
ENDBRANCH 21 22
ENDBRANCH 20 21
ENDBRANCH 19 20
ENDBRANCH 18 19
BRANCH 18 27
ATOM     27  C   LYS A 131     -33.089  82.861 202.535  1.00 34.74 LIG 0.24  C 
ATOM     28  N   VAL A 132     -33.481  81.770 203.187  1.00 33.85 LIG-0.35  N 
ATOM     29 H    VAL A 132     -34.003  81.779 203.871  1.00 33.85 LIG 0.16  HD
ATOM     30 O    LYS A 131     -32.289  82.827 201.599  1.00 35.56 LIG-0.27  OA
BRANCH 28 31
ATOM     31  CA  VAL A 132     -33.041  80.440 202.776  1.00 36.14 LIG 0.17  C 
BRANCH 31 32
ATOM     32  C   VAL A 132     -33.913  79.872 201.654  1.00 41.88 LIG 0.22  C 
ATOM     33 O    VAL A 132     -33.459  79.762 200.509  1.00 46.22 LIG-0.29  OA
ENDBRANCH 31 32
BRANCH 31 34
ATOM     34  CB  VAL A 132     -33.048  79.449 203.963  1.00 35.83 LIG 0.01  C 
ATOM     35  CG1 VAL A 132     -34.333  78.628 203.963  1.00 39.48 LIG 0.01  C 
ATOM     36  CG2 VAL A 132     -31.845  78.539 203.901  1.00 35.02 LIG 0.01  C 
ENDBRANCH 31 34
ENDBRANCH 28 31
ENDBRANCH 18 27
ENDBRANCH 15 18
ENDBRANCH 1 14
BRANCH 1 37
ATOM     37  N   ARG A 130     -31.739  88.029 201.332  1.00 35.65 LIG-0.35  N 
ATOM     38 H    ARG A 130     -31.080  88.456 200.984  1.00 35.65 LIG 0.16  HD
ATOM     39  C   LYS A 129     -32.487  88.504 202.326  1.00 38.36 LIG 0.24  C 
ATOM     40 O    LYS A 129     -33.445  87.893 202.787  1.00 38.91 LIG-0.27  OA
BRANCH 39 41
ATOM     41  CA  LYS A 129     -32.088  89.864 202.892  1.00 41.62 LIG 0.18  C 
BRANCH 41 42
ATOM     42  CB  LYS A 129     -30.958  89.683 203.903  1.00 37.07 LIG 0.04  C 
BRANCH 42 43
ATOM     43  CG  LYS A 129     -30.804  90.824 204.897  1.00 37.25 LIG 0.00  C 
BRANCH 43 44
ATOM     44  CD  LYS A 129     -29.603  91.711 204.572  1.00 32.25 LIG 0.03  C 
BRANCH 44 45
ATOM     45  CE  LYS A 129     -29.262  92.587 205.771  1.00 33.17 LIG 0.23  C 
BRANCH 45 46
ATOM     46  NZ  LYS A 129     -28.932  91.801 207.002  1.00 31.02 LIG-0.08  N 
ATOM     47 HZ2  LYS A 129     -29.678  91.638 207.459  1.00 31.02 LIG 0.27  HD
ATOM     48 HZ3  LYS A 129     -28.553  91.030 206.770  1.00 31.02 LIG 0.27  HD
ATOM     49 HZ1  LYS A 129     -28.369  92.267 207.511  1.00 31.02 LIG 0.27  HD
ENDBRANCH 45 46
ENDBRANCH 44 45
ENDBRANCH 43 44
ENDBRANCH 42 43
ENDBRANCH 41 42
BRANCH 41 50
ATOM     50  N   LYS A 129     -33.217  90.561 203.509  1.00 48.91 LIG-0.35  N 
ATOM     51  C   LYS A 128     -33.628  91.753 203.078  1.00 46.33 LIG 0.26  C 
ATOM     52 O    LYS A 128     -33.137  92.320 202.105  1.00 48.39 LIG-0.27  OA
ATOM     53 H    LYS A 129     -33.581  90.136 204.162  1.00 48.91 LIG 0.16  HD
BRANCH 51 54
ATOM     54  CA  LYS A 128     -34.778  92.397 203.855  1.00 52.62 LIG 0.40  C 
ATOM     55  N   LYS A 128     -34.922  93.801 203.496  1.00 52.42 LIG 0.61  N 
BRANCH 54 56
ATOM     56  CB  LYS A 128     -36.085  91.639 203.595  1.00 53.69 LIG 0.05  C 
BRANCH 56 57
ATOM     57  CG  LYS A 128     -36.497  90.695 204.716  1.00 48.68 LIG 0.00  C 
BRANCH 57 58
ATOM     58  CD  LYS A 128     -36.240  89.247 204.341  1.00 52.15 LIG 0.03  C 
BRANCH 58 59
ATOM     59  CE  LYS A 128     -37.137  88.316 205.142  1.00 44.05 LIG 0.23  C 
BRANCH 59 60
ATOM     60  NZ  LYS A 128     -36.779  88.257 206.592  1.00 43.39 LIG-0.08  N 
ATOM     61 HZ1  LYS A 128     -36.014  87.814 206.692  1.00 43.39 LIG 0.27  HD
ATOM     62 HZ2  LYS A 128     -36.686  89.084 206.909  1.00 43.39 LIG 0.27  HD
ATOM     63 HZ3  LYS A 128     -37.424  87.839 207.040  1.00 43.39 LIG 0.27  HD
ENDBRANCH 59 60
ENDBRANCH 58 59
ENDBRANCH 57 58
ENDBRANCH 56 57
ENDBRANCH 54 56
ENDBRANCH 51 54
ENDBRANCH 41 50
ENDBRANCH 39 41
ENDBRANCH 1 37
TORSDOF 29
ENDMDL
MODEL 3
USER: ADFR SOLUTION from run 166
USER: SCORE 17.735316 LL:  -1.332 LR: -18.765 RR:   0.000 FEB: -10.114
USER: RMSD 1.247974
USER: SEED 165
USER: STATUS 1 or 2 clusters left
USER: GENES 31
USER: genes 0 Translation |==|  0.45368 0.47893 0.42111
USER: genes 1 Rotation |==|  0.49092 0.51940 0.49371 0.99950
USER: genes 2 Torsion [C]-CA--CB-[CG] |==|  0.46437
USER: genes 3 Torsion [CA]-CB--CG-[CD] |==|  0.48801
USER: genes 4 Torsion [CB]-CG--CD-[NE] |==|  0.83872
USER: genes 5 Torsion [CG]-CD--NE-[HE] |==|  0.85514
USER: genes 6 Torsion [N]-CA--C-[N] |==|  0.28381
USER: genes 7 Torsion [C]-N--CA-[CB] |==|  0.45966
USER: genes 8 Torsion [N]-CA--CB-[CG] |==|  0.84215
USER: genes 9 Torsion [CA]-CB--CG-[CD] |==|  0.49219
USER: genes 10 Torsion [CB]-CG--CD-[CE] |==|  0.43883
USER: genes 11 Torsion [CG]-CD--CE-[NZ] |==|  0.77887
USER: genes 12 Torsion [CD]-CE--NZ-[HZ2] |==|  0.88200
USER: genes 13 Torsion [N]-CA--C-[N] |==|  0.47714
USER: genes 14 Torsion [C]-N--CA-[CB] |==|  0.36533
USER: genes 15 Torsion [N]-CA--C-[O] |==|  0.36861
USER: genes 16 Torsion [N]-CA--CB-[CG1] |==|  0.28112
USER: genes 17 Torsion [CB]-CA--N-[C] |==|  0.49144
USER: genes 18 Torsion [N]-C--CA-[N] |==|  0.22811
USER: genes 19 Torsion [C]-CA--CB-[CG] |==|  0.54711
USER: genes 20 Torsion [CA]-CB--CG-[CD] |==|  0.74520
USER: genes 21 Torsion [CB]-CG--CD-[CE] |==|  0.48069
USER: genes 22 Torsion [CG]-CD--CE-[NZ] |==|  0.23603
USER: genes 23 Torsion [CD]-CE--NZ-[HZ1] |==|  0.48743
USER: genes 24 Torsion [C]-CA--N-[C] |==|  0.75817
USER: genes 25 Torsion [N]-C--CA-[N] |==|  0.11874
USER: genes 26 Torsion [C]-CA--CB-[CG] |==|  0.63412
USER: genes 27 Torsion [CA]-CB--CG-[CD] |==|  0.43903
USER: genes 28 Torsion [CB]-CG--CD-[CE] |==|  0.56206
USER: genes 29 Torsion [CG]-CD--CE-[NZ] |==|  0.44047
USER: genes 30 Torsion [CD]-CE--NZ-[HZ2] |==|  0.71474
ROOT
ATOM      1  CA  ARG A 130     -31.818  86.267 201.108  1.00 33.49 LIG 0.18  C 
ENDROOT
BRANCH 1 2
ATOM      2  CB  ARG A 130     -30.842  85.414 200.295  1.00 35.16 LIG 0.04  C 
BRANCH 2 3
ATOM      3  CG  ARG A 130     -30.459  85.973 198.939  1.00 39.71 LIG 0.02  C 
BRANCH 3 4
ATOM      4  CD  ARG A 130     -29.405  85.085 198.281  1.00 38.05 LIG 0.14  C 
BRANCH 4 5
ATOM      5  NE  ARG A 130     -28.205  84.958 199.110  1.00 39.97 LIG-0.23  N 
ATOM      6 HE   ARG A 130     -27.833  85.681 199.391  1.00 39.97 LIG 0.18  HD
ATOM      7  CZ  ARG A 130     -27.651  83.801 199.460  1.00 35.35 LIG 0.67  C 
ATOM      8  NH1 ARG A 130     -28.173  82.654 199.044  1.00 35.08 LIG-0.23  N 
ATOM      9  NH2 ARG A 130     -26.565  83.788 200.219  1.00 36.08 LIG-0.23  N 
ATOM     10 2HH1 ARG A 130     -27.810  81.909 199.273  1.00 35.08 LIG 0.17  HD
ATOM     11 1HH1 ARG A 130     -28.874  82.656 198.546  1.00 35.08 LIG 0.17  HD
ATOM     12 1HH2 ARG A 130     -26.219  84.529 200.486  1.00 36.08 LIG 0.17  HD
ATOM     13 2HH2 ARG A 130     -26.207  83.040 200.445  1.00 36.08 LIG 0.17  HD
ENDBRANCH 4 5
ENDBRANCH 3 4
ENDBRANCH 2 3
ENDBRANCH 1 2
BRANCH 1 14
ATOM     14  C   ARG A 130     -32.342  85.442 202.269  1.00 35.02 LIG 0.24  C 
ATOM     15  N   LYS A 131     -33.650  85.491 202.500  1.00 32.29 LIG-0.35  N 
ATOM     16 H    LYS A 131     -34.205  85.973 202.055  1.00 32.29 LIG 0.16  HD
ATOM     17 O    ARG A 130     -31.577  84.754 202.939  1.00 31.53 LIG-0.27  OA
BRANCH 15 18
ATOM     18  CA  LYS A 131     -34.243  84.697 203.565  1.00 31.30 LIG 0.18  C 
BRANCH 18 19
ATOM     19  CB  LYS A 131     -35.669  85.189 203.864  1.00 33.79 LIG 0.04  C 
BRANCH 19 20
ATOM     20  CG  LYS A 131     -35.685  86.667 204.228  1.00 34.08 LIG 0.00  C 
BRANCH 20 21
ATOM     21  CD  LYS A 131     -37.054  87.222 204.466  1.00 36.35 LIG 0.03  C 
BRANCH 21 22
ATOM     22  CE  LYS A 131     -36.975  88.480 205.321  1.00 32.79 LIG 0.23  C 
BRANCH 22 23
ATOM     23  NZ  LYS A 131     -36.810  88.146 206.764  1.00 29.22 LIG-0.08  N 
ATOM     24 HZ3  LYS A 131     -35.965  87.913 206.921  1.00 29.22 LIG 0.27  HD
ATOM     25 HZ2  LYS A 131     -37.348  87.469 206.976  1.00 29.22 LIG 0.27  HD
ATOM     26 HZ1  LYS A 131     -37.018  88.855 207.260  1.00 29.22 LIG 0.27  HD
ENDBRANCH 22 23
ENDBRANCH 21 22
ENDBRANCH 20 21
ENDBRANCH 19 20
ENDBRANCH 18 19
BRANCH 18 27
ATOM     27  C   LYS A 131     -34.228  83.219 203.187  1.00 34.74 LIG 0.24  C 
ATOM     28  N   VAL A 132     -34.583  82.357 204.135  1.00 33.85 LIG-0.35  N 
ATOM     29 H    VAL A 132     -34.796  82.584 204.937  1.00 33.85 LIG 0.16  HD
ATOM     30 O    LYS A 131     -33.865  82.864 202.064  1.00 35.56 LIG-0.27  OA
BRANCH 28 31
ATOM     31  CA  VAL A 132     -34.642  80.921 203.874  1.00 36.14 LIG 0.17  C 
BRANCH 31 32
ATOM     32  C   VAL A 132     -36.084  80.419 203.771  1.00 41.88 LIG 0.22  C 
ATOM     33 O    VAL A 132     -36.420  79.683 202.836  1.00 46.22 LIG-0.29  OA
ENDBRANCH 31 32
BRANCH 31 34
ATOM     34  CB  VAL A 132     -33.910  80.116 204.973  1.00 35.83 LIG 0.01  C 
ATOM     35  CG1 VAL A 132     -34.915  79.518 205.952  1.00 39.48 LIG 0.01  C 
ATOM     36  CG2 VAL A 132     -33.067  79.026 204.357  1.00 35.02 LIG 0.01  C 
ENDBRANCH 31 34
ENDBRANCH 28 31
ENDBRANCH 18 27
ENDBRANCH 15 18
ENDBRANCH 1 14
BRANCH 1 37
ATOM     37  N   ARG A 130     -31.186  87.498 201.584  1.00 35.65 LIG-0.35  N 
ATOM     38 H    ARG A 130     -30.352  87.566 201.387  1.00 35.65 LIG 0.16  HD
ATOM     39  C   LYS A 129     -31.862  88.423 202.262  1.00 38.36 LIG 0.24  C 
ATOM     40 O    LYS A 129     -33.061  88.324 202.505  1.00 38.91 LIG-0.27  OA
BRANCH 39 41
ATOM     41  CA  LYS A 129     -31.069  89.632 202.750  1.00 41.62 LIG 0.18  C 
BRANCH 41 42
ATOM     42  CB  LYS A 129     -31.762  90.238 203.968  1.00 37.07 LIG 0.04  C 
BRANCH 42 43
ATOM     43  CG  LYS A 129     -31.327  91.655 204.310  1.00 37.25 LIG 0.00  C 
BRANCH 43 44
ATOM     44  CD  LYS A 129     -30.171  91.677 205.307  1.00 32.25 LIG 0.03  C 
BRANCH 44 45
ATOM     45  CE  LYS A 129     -29.661  93.102 205.484  1.00 33.17 LIG 0.23  C 
BRANCH 45 46
ATOM     46  NZ  LYS A 129     -30.435  93.884 206.500  1.00 31.02 LIG-0.08  N 
ATOM     47 HZ2  LYS A 129     -31.272  93.988 206.219  1.00 31.02 LIG 0.27  HD
ATOM     48 HZ3  LYS A 129     -30.435  93.445 207.275  1.00 31.02 LIG 0.27  HD
ATOM     49 HZ1  LYS A 129     -30.057  94.682 206.611  1.00 31.02 LIG 0.27  HD
ENDBRANCH 45 46
ENDBRANCH 44 45
ENDBRANCH 43 44
ENDBRANCH 42 43
ENDBRANCH 41 42
BRANCH 41 50
ATOM     50  N   LYS A 129     -30.900  90.642 201.705  1.00 48.91 LIG-0.35  N 
ATOM     51  C   LYS A 128     -29.887  90.596 200.840  1.00 46.33 LIG 0.26  C 
ATOM     52 O    LYS A 128     -29.068  89.680 200.815  1.00 48.39 LIG-0.27  OA
ATOM     53 H    LYS A 129     -31.503  91.255 201.704  1.00 48.91 LIG 0.16  HD
BRANCH 51 54
ATOM     54  CA  LYS A 128     -29.793  91.750 199.841  1.00 52.62 LIG 0.40  C 
ATOM     55  N   LYS A 128     -30.049  93.025 200.497  1.00 52.42 LIG 0.61  N 
BRANCH 54 56
ATOM     56  CB  LYS A 128     -28.414  91.760 199.169  1.00 53.69 LIG 0.05  C 
BRANCH 56 57
ATOM     57  CG  LYS A 128     -27.735  93.122 199.149  1.00 48.68 LIG 0.00  C 
BRANCH 57 58
ATOM     58  CD  LYS A 128     -26.232  92.987 198.984  1.00 52.15 LIG 0.03  C 
BRANCH 58 59
ATOM     59  CE  LYS A 128     -25.521  94.228 199.501  1.00 44.05 LIG 0.23  C 
BRANCH 59 60
ATOM     60  NZ  LYS A 128     -24.086  93.986 199.844  1.00 43.39 LIG-0.08  N 
ATOM     61 HZ1  LYS A 128     -23.591  94.663 199.548  1.00 43.39 LIG 0.27  HD
ATOM     62 HZ2  LYS A 128     -23.999  93.919 200.727  1.00 43.39 LIG 0.27  HD
ATOM     63 HZ3  LYS A 128     -23.813  93.230 199.462  1.00 43.39 LIG 0.27  HD
ENDBRANCH 59 60
ENDBRANCH 58 59
ENDBRANCH 57 58
ENDBRANCH 56 57
ENDBRANCH 54 56
ENDBRANCH 51 54
ENDBRANCH 41 50
ENDBRANCH 39 41
ENDBRANCH 1 37
TORSDOF 29
ENDMDL
MODEL 4
USER: ADFR SOLUTION from run 2
USER: SCORE 18.177252 LL:  -1.540 LR: -18.710 RR:   0.000 FEB: -10.059
USER: RMSD 2.470076
USER: SEED 562071
USER: STATUS no improvement in best in 6 clusters for 5 generations
USER: GENES 31
USER: genes 0 Translation |==|  0.45291 0.49433 0.40771
USER: genes 1 Rotation |==|  0.56902 0.58147 0.52536 0.98781
USER: genes 2 Torsion [C]-CA--CB-[CG] |==|  0.66257
USER: genes 3 Torsion [CA]-CB--CG-[CD] |==|  0.30357
USER: genes 4 Torsion [CB]-CG--CD-[NE] |==|  0.10174
USER: genes 5 Torsion [CG]-CD--NE-[HE] |==|  0.03462
USER: genes 6 Torsion [N]-CA--C-[N] |==|  0.32132
USER: genes 7 Torsion [C]-N--CA-[CB] |==|  0.48518
USER: genes 8 Torsion [N]-CA--CB-[CG] |==|  0.74863
USER: genes 9 Torsion [CA]-CB--CG-[CD] |==|  0.79017
USER: genes 10 Torsion [CB]-CG--CD-[CE] |==|  0.62251
USER: genes 11 Torsion [CG]-CD--CE-[NZ] |==|  0.72784
USER: genes 12 Torsion [CD]-CE--NZ-[HZ2] |==|  0.87191
USER: genes 13 Torsion [N]-CA--C-[N] |==|  0.50816
USER: genes 14 Torsion [C]-N--CA-[CB] |==|  0.40776
USER: genes 15 Torsion [N]-CA--C-[O] |==|  0.44615
USER: genes 16 Torsion [N]-CA--CB-[CG1] |==|  0.28866
USER: genes 17 Torsion [CB]-CA--N-[C] |==|  0.27778
USER: genes 18 Torsion [N]-C--CA-[N] |==|  0.39875
USER: genes 19 Torsion [C]-CA--CB-[CG] |==|  0.54014
USER: genes 20 Torsion [CA]-CB--CG-[CD] |==|  0.87005
USER: genes 21 Torsion [CB]-CG--CD-[CE] |==|  0.57679
USER: genes 22 Torsion [CG]-CD--CE-[NZ] |==|  0.19427
USER: genes 23 Torsion [CD]-CE--NZ-[HZ1] |==|  0.47103
USER: genes 24 Torsion [C]-CA--N-[C] |==|  0.81624
USER: genes 25 Torsion [N]-C--CA-[N] |==|  0.65866
USER: genes 26 Torsion [C]-CA--CB-[CG] |==|  0.31819
USER: genes 27 Torsion [CA]-CB--CG-[CD] |==|  0.68249
USER: genes 28 Torsion [CB]-CG--CD-[CE] |==|  0.58658
USER: genes 29 Torsion [CG]-CD--CE-[NZ] |==|  0.68175
USER: genes 30 Torsion [CD]-CE--NZ-[HZ2] |==|  0.83262
ROOT
ATOM      1  CA  ARG A 130     -31.834  86.648 200.877  1.00 33.49 LIG 0.18  C 
ENDROOT
BRANCH 1 2
ATOM      2  CB  ARG A 130     -31.048  86.230 199.633  1.00 35.16 LIG 0.04  C 
BRANCH 2 3
ATOM      3  CG  ARG A 130     -29.769  87.000 199.379  1.00 39.71 LIG 0.02  C 
BRANCH 3 4
ATOM      4  CD  ARG A 130     -28.556  86.109 199.640  1.00 38.05 LIG 0.14  C 
BRANCH 4 5
ATOM      5  NE  ARG A 130     -28.795  84.727 199.222  1.00 39.97 LIG-0.23  N 
ATOM      6 HE   ARG A 130     -29.487  84.569 198.736  1.00 39.97 LIG 0.18  HD
ATOM      7  CZ  ARG A 130     -28.015  83.698 199.541  1.00 35.35 LIG 0.67  C 
ATOM      8  NH1 ARG A 130     -26.942  83.880 200.301  1.00 35.08 LIG-0.23  N 
ATOM      9  NH2 ARG A 130     -28.314  82.482 199.110  1.00 36.08 LIG-0.23  N 
ATOM     10 2HH1 ARG A 130     -26.442  83.210 200.504  1.00 35.08 LIG 0.17  HD
ATOM     11 1HH1 ARG A 130     -26.747  84.666 200.589  1.00 35.08 LIG 0.17  HD
ATOM     12 1HH2 ARG A 130     -29.011  82.358 198.623  1.00 36.08 LIG 0.17  HD
ATOM     13 2HH2 ARG A 130     -27.810  81.816 199.317  1.00 36.08 LIG 0.17  HD
ENDBRANCH 4 5
ENDBRANCH 3 4
ENDBRANCH 2 3
ENDBRANCH 1 2
BRANCH 1 14
ATOM     14  C   ARG A 130     -31.982  85.447 201.793  1.00 35.02 LIG 0.24  C 
ATOM     15  N   LYS A 131     -33.220  85.067 202.093  1.00 32.29 LIG-0.35  N 
ATOM     16 H    LYS A 131     -33.931  85.470 201.826  1.00 32.29 LIG 0.16  HD
ATOM     17 O    ARG A 130     -30.989  84.856 202.210  1.00 31.53 LIG-0.27  OA
BRANCH 15 18
ATOM     18  CA  LYS A 131     -33.453  83.899 202.928  1.00 31.30 LIG 0.18  C 
BRANCH 18 19
ATOM     19  CB  LYS A 131     -34.953  83.754 203.233  1.00 33.79 LIG 0.04  C 
BRANCH 19 20
ATOM     20  CG  LYS A 131     -35.337  84.489 204.511  1.00 34.08 LIG 0.00  C 
BRANCH 20 21
ATOM     21  CD  LYS A 131     -34.918  83.790 205.765  1.00 36.35 LIG 0.03  C 
BRANCH 21 22
ATOM     22  CE  LYS A 131     -36.047  83.812 206.787  1.00 32.79 LIG 0.23  C 
BRANCH 22 23
ATOM     23  NZ  LYS A 131     -35.861  84.910 207.778  1.00 29.22 LIG-0.08  N 
ATOM     24 HZ3  LYS A 131     -36.047  85.692 207.394  1.00 29.22 LIG 0.27  HD
ATOM     25 HZ2  LYS A 131     -35.018  84.913 208.063  1.00 29.22 LIG 0.27  HD
ATOM     26 HZ1  LYS A 131     -36.407  84.783 208.469  1.00 29.22 LIG 0.27  HD
ENDBRANCH 22 23
ENDBRANCH 21 22
ENDBRANCH 20 21
ENDBRANCH 19 20
ENDBRANCH 18 19
BRANCH 18 27
ATOM     27  C   LYS A 131     -32.895  82.652 202.251  1.00 34.74 LIG 0.24  C 
ATOM     28  N   VAL A 132     -33.092  81.495 202.876  1.00 33.85 LIG-0.35  N 
ATOM     29 H    VAL A 132     -33.489  81.419 203.636  1.00 33.85 LIG 0.16  HD
ATOM     30 O    LYS A 131     -32.266  82.741 201.195  1.00 35.56 LIG-0.27  OA
BRANCH 28 31
ATOM     31  CA  VAL A 132     -32.635  80.232 202.301  1.00 36.14 LIG 0.17  C 
BRANCH 31 32
ATOM     32  C   VAL A 132     -33.713  79.579 201.433  1.00 41.88 LIG 0.22  C 
ATOM     33 O    VAL A 132     -33.402  78.721 200.599  1.00 46.22 LIG-0.29  OA
ENDBRANCH 31 32
BRANCH 31 34
ATOM     34  CB  VAL A 132     -32.205  79.232 203.400  1.00 35.83 LIG 0.01  C 
ATOM     35  CG1 VAL A 132     -33.274  78.162 203.593  1.00 39.48 LIG 0.01  C 
ATOM     36  CG2 VAL A 132     -30.884  78.594 203.047  1.00 35.02 LIG 0.01  C 
ENDBRANCH 31 34
ENDBRANCH 28 31
ENDBRANCH 18 27
ENDBRANCH 15 18
ENDBRANCH 1 14
BRANCH 1 37
ATOM     37  N   ARG A 130     -31.185  87.760 201.573  1.00 35.65 LIG-0.35  N 
ATOM     38 H    ARG A 130     -30.525  87.526 202.071  1.00 35.65 LIG 0.16  HD
ATOM     39  C   LYS A 129     -31.597  89.018 201.433  1.00 38.36 LIG 0.24  C 
ATOM     40 O    LYS A 129     -32.519  89.336 200.690  1.00 38.91 LIG-0.27  OA
BRANCH 39 41
ATOM     41  CA  LYS A 129     -30.868  90.073 202.261  1.00 41.62 LIG 0.18  C 
BRANCH 41 42
ATOM     42  CB  LYS A 129     -31.618  90.299 203.571  1.00 37.07 LIG 0.04  C 
BRANCH 42 43
ATOM     43  CG  LYS A 129     -31.209  91.551 204.332  1.00 37.25 LIG 0.00  C 
BRANCH 43 44
ATOM     44  CD  LYS A 129     -29.692  91.694 204.431  1.00 32.25 LIG 0.03  C 
BRANCH 44 45
ATOM     45  CE  LYS A 129     -29.322  92.478 205.684  1.00 33.17 LIG 0.23  C 
BRANCH 45 46
ATOM     46  NZ  LYS A 129     -29.576  91.721 206.951  1.00 31.02 LIG-0.08  N 
ATOM     47 HZ2  LYS A 129     -30.453  91.648 207.082  1.00 31.02 LIG 0.27  HD
ATOM     48 HZ3  LYS A 129     -29.218  90.908 206.888  1.00 31.02 LIG 0.27  HD
ATOM     49 HZ1  LYS A 129     -29.208  92.155 207.635  1.00 31.02 LIG 0.27  HD
ENDBRANCH 45 46
ENDBRANCH 44 45
ENDBRANCH 43 44
ENDBRANCH 42 43
ENDBRANCH 41 42
BRANCH 41 50
ATOM     50  N   LYS A 129     -30.714  91.336 201.538  1.00 48.91 LIG-0.35  N 
ATOM     51  C   LYS A 128     -29.950  91.435 200.450  1.00 46.33 LIG 0.26  C 
ATOM     52 O    LYS A 128     -29.377  90.473 199.944  1.00 48.39 LIG-0.27  OA
ATOM     53 H    LYS A 129     -31.154  91.993 201.875  1.00 48.91 LIG 0.16  HD
BRANCH 51 54
ATOM     54  CA  LYS A 128     -29.826  92.828 199.831  1.00 52.62 LIG 0.40  C 
ATOM     55  N   LYS A 128     -30.251  92.815 198.439  1.00 52.42 LIG 0.61  N 
BRANCH 54 56
ATOM     56  CB  LYS A 128     -30.650  93.842 200.635  1.00 53.69 LIG 0.05  C 
BRANCH 56 57
ATOM     57  CG  LYS A 128     -29.822  94.911 201.334  1.00 48.68 LIG 0.00  C 
BRANCH 57 58
ATOM     58  CD  LYS A 128     -29.917  94.783 202.844  1.00 52.15 LIG 0.03  C 
BRANCH 58 59
ATOM     59  CE  LYS A 128     -29.792  96.145 203.508  1.00 44.05 LIG 0.23  C 
BRANCH 59 60
ATOM     60  NZ  LYS A 128     -28.561  96.283 204.344  1.00 43.39 LIG-0.08  N 
ATOM     61 HZ1  LYS A 128     -28.536  97.096 204.704  1.00 43.39 LIG 0.27  HD
ATOM     62 HZ2  LYS A 128     -28.571  95.672 204.992  1.00 43.39 LIG 0.27  HD
ATOM     63 HZ3  LYS A 128     -27.841  96.162 203.835  1.00 43.39 LIG 0.27  HD
ENDBRANCH 59 60
ENDBRANCH 58 59
ENDBRANCH 57 58
ENDBRANCH 56 57
ENDBRANCH 54 56
ENDBRANCH 51 54
ENDBRANCH 41 50
ENDBRANCH 39 41
ENDBRANCH 1 37
TORSDOF 29
ENDMDL
MODEL 5
USER: ADFR SOLUTION from run 89
USER: SCORE 18.071621 LL:  -1.541 LR: -18.652 RR:   0.000 FEB: -10.001
USER: RMSD 3.583689
USER: SEED 88
USER: STATUS no improvement in best in 3 clusters for 5 generations
USER: GENES 31
USER: genes 0 Translation |==|  0.46801 0.56981 0.44002
USER: genes 1 Rotation |==|  0.53495 0.51878 0.50693 0.99838
USER: genes 2 Torsion [C]-CA--CB-[CG] |==|  0.02819
USER: genes 3 Torsion [CA]-CB--CG-[CD] |==|  0.56705
USER: genes 4 Torsion [CB]-CG--CD-[NE] |==|  0.57936
USER: genes 5 Torsion [CG]-CD--NE-[HE] |==|  0.09166
USER: genes 6 Torsion [N]-CA--C-[N] |==|  0.44579
USER: genes 7 Torsion [C]-N--CA-[CB] |==|  0.36552
USER: genes 8 Torsion [N]-CA--CB-[CG] |==|  0.68783
USER: genes 9 Torsion [CA]-CB--CG-[CD] |==|  0.66379
USER: genes 10 Torsion [CB]-CG--CD-[CE] |==|  0.34417
USER: genes 11 Torsion [CG]-CD--CE-[NZ] |==|  0.64292
USER: genes 12 Torsion [CD]-CE--NZ-[HZ2] |==|  0.67083
USER: genes 13 Torsion [N]-CA--C-[N] |==|  0.58027
USER: genes 14 Torsion [C]-N--CA-[CB] |==|  0.46922
USER: genes 15 Torsion [N]-CA--C-[O] |==|  0.30522
USER: genes 16 Torsion [N]-CA--CB-[CG1] |==|  0.55561
USER: genes 17 Torsion [CB]-CA--N-[C] |==|  0.51672
USER: genes 18 Torsion [N]-C--CA-[N] |==|  0.43887
USER: genes 19 Torsion [C]-CA--CB-[CG] |==|  0.61685
USER: genes 20 Torsion [CA]-CB--CG-[CD] |==|  0.74979
USER: genes 21 Torsion [CB]-CG--CD-[CE] |==|  0.46060
USER: genes 22 Torsion [CG]-CD--CE-[NZ] |==|  0.43924
USER: genes 23 Torsion [CD]-CE--NZ-[HZ1] |==|  0.35353
USER: genes 24 Torsion [C]-CA--N-[C] |==|  0.80730
USER: genes 25 Torsion [N]-C--CA-[N] |==|  0.84962
USER: genes 26 Torsion [C]-CA--CB-[CG] |==|  0.20061
USER: genes 27 Torsion [CA]-CB--CG-[CD] |==|  0.68471
USER: genes 28 Torsion [CB]-CG--CD-[CE] |==|  0.59947
USER: genes 29 Torsion [CG]-CD--CE-[NZ] |==|  0.42696
USER: genes 30 Torsion [CD]-CE--NZ-[HZ2] |==|  0.93186
ROOT
ATOM      1  CA  ARG A 130     -31.506  88.516 201.434  1.00 33.49 LIG 0.18  C 
ENDROOT
BRANCH 1 2
ATOM      2  CB  ARG A 130     -30.492  87.866 200.491  1.00 35.16 LIG 0.04  C 
BRANCH 2 3
ATOM      3  CG  ARG A 130     -30.386  86.358 200.584  1.00 39.71 LIG 0.02  C 
BRANCH 3 4
ATOM      4  CD  ARG A 130     -29.016  85.893 200.093  1.00 38.05 LIG 0.14  C 
BRANCH 4 5
ATOM      5  NE  ARG A 130     -29.067  84.542 199.534  1.00 39.97 LIG-0.23  N 
ATOM      6 HE   ARG A 130     -29.787  84.302 199.129  1.00 39.97 LIG 0.18  HD
ATOM      7  CZ  ARG A 130     -28.076  83.659 199.608  1.00 35.35 LIG 0.67  C 
ATOM      8  NH1 ARG A 130     -26.947  83.968 200.233  1.00 35.08 LIG-0.23  N 
ATOM      9  NH2 ARG A 130     -28.216  82.458 199.065  1.00 36.08 LIG-0.23  N 
ATOM     10 2HH1 ARG A 130     -26.309  83.392 200.278  1.00 35.08 LIG 0.17  HD
ATOM     11 1HH1 ARG A 130     -26.853  84.743 200.593  1.00 35.08 LIG 0.17  HD
ATOM     12 1HH2 ARG A 130     -28.947  82.251 198.665  1.00 36.08 LIG 0.17  HD
ATOM     13 2HH2 ARG A 130     -27.575  81.887 199.114  1.00 36.08 LIG 0.17  HD
ENDBRANCH 4 5
ENDBRANCH 3 4
ENDBRANCH 2 3
ENDBRANCH 1 2
BRANCH 1 14
ATOM     14  C   ARG A 130     -31.991  87.476 202.427  1.00 35.02 LIG 0.24  C 
ATOM     15  N   LYS A 131     -32.872  86.585 201.984  1.00 32.29 LIG-0.35  N 
ATOM     16 H    LYS A 131     -33.199  86.577 201.188  1.00 32.29 LIG 0.16  HD
ATOM     17 O    ARG A 130     -31.560  87.465 203.577  1.00 31.53 LIG-0.27  OA
BRANCH 15 18
ATOM     18  CA  LYS A 131     -33.355  85.526 202.856  1.00 31.30 LIG 0.18  C 
BRANCH 18 19
ATOM     19  CB  LYS A 131     -34.889  85.442 202.791  1.00 33.79 LIG 0.04  C 
BRANCH 19 20
ATOM     20  CG  LYS A 131     -35.528  85.858 204.109  1.00 34.08 LIG 0.00  C 
BRANCH 20 21
ATOM     21  CD  LYS A 131     -36.378  84.799 204.736  1.00 36.35 LIG 0.03  C 
BRANCH 21 22
ATOM     22  CE  LYS A 131     -35.899  84.504 206.152  1.00 32.79 LIG 0.23  C 
BRANCH 22 23
ATOM     23  NZ  LYS A 131     -35.685  83.043 206.359  1.00 29.22 LIG-0.08  N 
ATOM     24 HZ3  LYS A 131     -35.858  82.607 205.603  1.00 29.22 LIG 0.27  HD
ATOM     25 HZ2  LYS A 131     -36.229  82.752 207.000  1.00 29.22 LIG 0.27  HD
ATOM     26 HZ1  LYS A 131     -34.841  82.897 206.599  1.00 29.22 LIG 0.27  HD
ENDBRANCH 22 23
ENDBRANCH 21 22
ENDBRANCH 20 21
ENDBRANCH 19 20
ENDBRANCH 18 19
BRANCH 18 27
ATOM     27  C   LYS A 131     -32.705  84.199 202.479  1.00 34.74 LIG 0.24  C 
ATOM     28  N   VAL A 132     -33.410  83.098 202.723  1.00 33.85 LIG-0.35  N 
ATOM     29 H    VAL A 132     -34.186  83.096 203.093  1.00 33.85 LIG 0.16  HD
ATOM     30 O    LYS A 131     -31.567  84.172 202.006  1.00 35.56 LIG-0.27  OA
BRANCH 28 31
ATOM     31  CA  VAL A 132     -32.902  81.776 202.368  1.00 36.14 LIG 0.17  C 
BRANCH 31 32
ATOM     32  C   VAL A 132     -32.849  81.574 200.852  1.00 41.88 LIG 0.22  C 
ATOM     33 O    VAL A 132     -31.760  81.520 200.270  1.00 46.22 LIG-0.29  OA
ENDBRANCH 31 32
BRANCH 31 34
ATOM     34  CB  VAL A 132     -33.762  80.652 202.992  1.00 35.83 LIG 0.01  C 
ATOM     35  CG1 VAL A 132     -32.977  79.346 203.040  1.00 39.48 LIG 0.01  C 
ATOM     36  CG2 VAL A 132     -34.217  81.041 204.377  1.00 35.02 LIG 0.01  C 
ENDBRANCH 31 34
ENDBRANCH 28 31
ENDBRANCH 18 27
ENDBRANCH 15 18
ENDBRANCH 1 14
BRANCH 1 37
ATOM     37  N   ARG A 130     -30.931  89.671 202.126  1.00 35.65 LIG-0.35  N 
ATOM     38 H    ARG A 130     -30.143  89.885 201.859  1.00 35.65 LIG 0.16  HD
ATOM     39  C   LYS A 129     -31.590  90.321 203.082  1.00 38.36 LIG 0.24  C 
ATOM     40 O    LYS A 129     -32.729  90.023 203.426  1.00 38.91 LIG-0.27  OA
BRANCH 39 41
ATOM     41  CA  LYS A 129     -30.853  91.473 203.761  1.00 41.62 LIG 0.18  C 
BRANCH 41 42
ATOM     42  CB  LYS A 129     -29.876  90.913 204.792  1.00 37.07 LIG 0.04  C 
BRANCH 42 43
ATOM     43  CG  LYS A 129     -29.834  91.674 206.109  1.00 37.25 LIG 0.00  C 
BRANCH 43 44
ATOM     44  CD  LYS A 129     -28.797  92.795 206.093  1.00 32.25 LIG 0.03  C 
BRANCH 44 45
ATOM     45  CE  LYS A 129     -29.027  93.736 207.269  1.00 33.17 LIG 0.23  C 
BRANCH 45 46
ATOM     46  NZ  LYS A 129     -27.810  94.525 207.641  1.00 31.02 LIG-0.08  N 
ATOM     47 HZ2  LYS A 129     -27.521  94.266 208.442  1.00 31.02 LIG 0.27  HD
ATOM     48 HZ3  LYS A 129     -27.171  94.388 207.037  1.00 31.02 LIG 0.27  HD
ATOM     49 HZ1  LYS A 129     -28.013  95.391 207.665  1.00 31.02 LIG 0.27  HD
ENDBRANCH 45 46
ENDBRANCH 44 45
ENDBRANCH 43 44
ENDBRANCH 42 43
ENDBRANCH 41 42
BRANCH 41 50
ATOM     50  N   LYS A 129     -31.769  92.424 204.391  1.00 48.91 LIG-0.35  N 
ATOM     51  C   LYS A 128     -32.560  93.219 203.671  1.00 46.33 LIG 0.26  C 
ATOM     52 O    LYS A 128     -32.624  93.169 202.445  1.00 48.39 LIG-0.27  OA
ATOM     53 H    LYS A 129     -31.748  92.420 205.250  1.00 48.91 LIG 0.16  HD
BRANCH 51 54
ATOM     54  CA  LYS A 128     -33.421  94.212 204.455  1.00 52.62 LIG 0.40  C 
ATOM     55  N   LYS A 128     -34.214  93.524 205.464  1.00 52.42 LIG 0.61  N 
BRANCH 54 56
ATOM     56  CB  LYS A 128     -32.537  95.283 205.105  1.00 53.69 LIG 0.05  C 
BRANCH 56 57
ATOM     57  CG  LYS A 128     -31.948  96.290 204.126  1.00 48.68 LIG 0.00  C 
BRANCH 57 58
ATOM     58  CD  LYS A 128     -30.438  96.157 204.039  1.00 52.15 LIG 0.03  C 
BRANCH 58 59
ATOM     59  CE  LYS A 128     -29.788  97.520 203.855  1.00 44.05 LIG 0.23  C 
BRANCH 59 60
ATOM     60  NZ  LYS A 128     -28.386  97.579 204.370  1.00 43.39 LIG-0.08  N 
ATOM     61 HZ1  LYS A 128     -28.231  98.383 204.717  1.00 43.39 LIG 0.27  HD
ATOM     62 HZ2  LYS A 128     -28.273  96.958 204.997  1.00 43.39 LIG 0.27  HD
ATOM     63 HZ3  LYS A 128     -27.818  97.430 203.701  1.00 43.39 LIG 0.27  HD
ENDBRANCH 59 60
ENDBRANCH 58 59
ENDBRANCH 57 58
ENDBRANCH 56 57
ENDBRANCH 54 56
ENDBRANCH 51 54
ENDBRANCH 41 50
ENDBRANCH 39 41
ENDBRANCH 1 37
TORSDOF 29
ENDMDL
MODEL 6
USER: ADFR SOLUTION from run 98
USER: SCORE 17.609191 LL:  -1.329 LR: -18.614 RR:   0.000 FEB:  -9.963
USER: RMSD 2.222608
USER: SEED 97
USER: STATUS no improvement in best in 1 clusters for 5 generations
USER: GENES 31
USER: genes 0 Translation |==|  0.45189 0.50403 0.41045
USER: genes 1 Rotation |==|  0.52050 0.53174 0.49197 0.99851
USER: genes 2 Torsion [C]-CA--CB-[CG] |==|  0.76375
USER: genes 3 Torsion [CA]-CB--CG-[CD] |==|  0.57163
USER: genes 4 Torsion [CB]-CG--CD-[NE] |==|  0.77763
USER: genes 5 Torsion [CG]-CD--NE-[HE] |==|  0.26926
USER: genes 6 Torsion [N]-CA--C-[N] |==|  0.27880
USER: genes 7 Torsion [C]-N--CA-[CB] |==|  0.47424
USER: genes 8 Torsion [N]-CA--CB-[CG] |==|  0.87330
USER: genes 9 Torsion [CA]-CB--CG-[CD] |==|  0.52926
USER: genes 10 Torsion [CB]-CG--CD-[CE] |==|  0.41167
USER: genes 11 Torsion [CG]-CD--CE-[NZ] |==|  0.71907
USER: genes 12 Torsion [CD]-CE--NZ-[HZ2] |==|  0.84883
USER: genes 13 Torsion [N]-CA--C-[N] |==|  0.43765
USER: genes 14 Torsion [C]-N--CA-[CB] |==|  0.81844
USER: genes 15 Torsion [N]-CA--C-[O] |==|  0.42438
USER: genes 16 Torsion [N]-CA--CB-[CG1] |==|  0.54583
USER: genes 17 Torsion [CB]-CA--N-[C] |==|  0.46150
USER: genes 18 Torsion [N]-C--CA-[N] |==|  0.31905
USER: genes 19 Torsion [C]-CA--CB-[CG] |==|  0.60209
USER: genes 20 Torsion [CA]-CB--CG-[CD] |==|  0.72145
USER: genes 21 Torsion [CB]-CG--CD-[CE] |==|  0.40643
USER: genes 22 Torsion [CG]-CD--CE-[NZ] |==|  0.27057
USER: genes 23 Torsion [CD]-CE--NZ-[HZ1] |==|  0.59351
USER: genes 24 Torsion [C]-CA--N-[C] |==|  0.71437
USER: genes 25 Torsion [N]-C--CA-[N] |==|  0.82884
USER: genes 26 Torsion [C]-CA--CB-[CG] |==|  0.29310
USER: genes 27 Torsion [CA]-CB--CG-[CD] |==|  0.52857
USER: genes 28 Torsion [CB]-CG--CD-[CE] |==|  0.49182
USER: genes 29 Torsion [CG]-CD--CE-[NZ] |==|  0.53354
USER: genes 30 Torsion [CD]-CE--NZ-[HZ2] |==|  0.83344
ROOT
ATOM      1  CA  ARG A 130     -31.856  86.888 200.924  1.00 33.49 LIG 0.18  C 
ENDROOT
BRANCH 1 2
ATOM      2  CB  ARG A 130     -30.933  86.129 199.970  1.00 35.16 LIG 0.04  C 
BRANCH 2 3
ATOM      3  CG  ARG A 130     -29.482  86.040 200.398  1.00 39.71 LIG 0.02  C 
BRANCH 3 4
ATOM      4  CD  ARG A 130     -28.581  85.866 199.176  1.00 38.05 LIG 0.14  C 
BRANCH 4 5
ATOM      5  NE  ARG A 130     -28.561  84.479 198.707  1.00 39.97 LIG-0.23  N 
ATOM      6 HE   ARG A 130     -29.085  84.268 198.058  1.00 39.97 LIG 0.18  HD
ATOM      7  CZ  ARG A 130     -27.789  83.524 199.216  1.00 35.35 LIG 0.67  C 
ATOM      8  NH1 ARG A 130     -26.973  83.788 200.228  1.00 35.08 LIG-0.23  N 
ATOM      9  NH2 ARG A 130     -27.840  82.296 198.719  1.00 36.08 LIG-0.23  N 
ATOM     10 2HH1 ARG A 130     -26.476  83.166 200.553  1.00 35.08 LIG 0.17  HD
ATOM     11 1HH1 ARG A 130     -26.940  84.581 200.558  1.00 35.08 LIG 0.17  HD
ATOM     12 1HH2 ARG A 130     -28.371  82.118 198.068  1.00 36.08 LIG 0.17  HD
ATOM     13 2HH2 ARG A 130     -27.340  81.678 199.048  1.00 36.08 LIG 0.17  HD
ENDBRANCH 4 5
ENDBRANCH 3 4
ENDBRANCH 2 3
ENDBRANCH 1 2
BRANCH 1 14
ATOM     14  C   ARG A 130     -32.338  85.937 202.004  1.00 35.02 LIG 0.24  C 
ATOM     15  N   LYS A 131     -33.626  85.996 202.328  1.00 32.29 LIG-0.35  N 
ATOM     16 H    LYS A 131     -34.189  86.550 201.987  1.00 32.29 LIG 0.16  HD
ATOM     17 O    ARG A 130     -31.560  85.144 202.527  1.00 31.53 LIG-0.27  OA
BRANCH 15 18
ATOM     18  CA  LYS A 131     -34.181  85.090 203.321  1.00 31.30 LIG 0.18  C 
BRANCH 18 19
ATOM     19  CB  LYS A 131     -35.616  85.509 203.681  1.00 33.79 LIG 0.04  C 
BRANCH 19 20
ATOM     20  CG  LYS A 131     -35.717  87.011 203.916  1.00 34.08 LIG 0.00  C 
BRANCH 20 21
ATOM     21  CD  LYS A 131     -37.019  87.449 204.508  1.00 36.35 LIG 0.03  C 
BRANCH 21 22
ATOM     22  CE  LYS A 131     -36.813  88.667 205.399  1.00 32.79 LIG 0.23  C 
BRANCH 22 23
ATOM     23  NZ  LYS A 131     -36.791  88.287 206.841  1.00 29.22 LIG-0.08  N 
ATOM     24 HZ3  LYS A 131     -36.079  87.779 207.004  1.00 29.22 LIG 0.27  HD
ATOM     25 HZ2  LYS A 131     -37.530  87.834 207.039  1.00 29.22 LIG 0.27  HD
ATOM     26 HZ1  LYS A 131     -36.751  89.022 207.341  1.00 29.22 LIG 0.27  HD
ENDBRANCH 22 23
ENDBRANCH 21 22
ENDBRANCH 20 21
ENDBRANCH 19 20
ENDBRANCH 18 19
BRANCH 18 27
ATOM     27  C   LYS A 131     -34.129  83.655 202.807  1.00 34.74 LIG 0.24  C 
ATOM     28  N   VAL A 132     -34.157  82.692 203.724  1.00 33.85 LIG-0.35  N 
ATOM     29 H    VAL A 132     -34.180  82.834 204.572  1.00 33.85 LIG 0.16  HD
ATOM     30 O    LYS A 131     -34.029  83.425 201.601  1.00 35.56 LIG-0.27  OA
BRANCH 28 31
ATOM     31  CA  VAL A 132     -34.150  81.281 203.345  1.00 36.14 LIG 0.17  C 
BRANCH 31 32
ATOM     32  C   VAL A 132     -32.938  80.930 202.480  1.00 41.88 LIG 0.22  C 
ATOM     33 O    VAL A 132     -32.486  79.779 202.481  1.00 46.22 LIG-0.29  OA
ENDBRANCH 31 32
BRANCH 31 34
ATOM     34  CB  VAL A 132     -35.438  80.892 202.583  1.00 35.83 LIG 0.01  C 
ATOM     35  CG1 VAL A 132     -35.603  79.376 202.557  1.00 39.48 LIG 0.01  C 
ATOM     36  CG2 VAL A 132     -36.644  81.539 203.218  1.00 35.02 LIG 0.01  C 
ENDBRANCH 31 34
ENDBRANCH 28 31
ENDBRANCH 18 27
ENDBRANCH 15 18
ENDBRANCH 1 14
BRANCH 1 37
ATOM     37  N   ARG A 130     -31.184  88.048 201.511  1.00 35.65 LIG-0.35  N 
ATOM     38 H    ARG A 130     -30.332  88.053 201.405  1.00 35.65 LIG 0.16  HD
ATOM     39  C   LYS A 129     -31.855  89.004 202.150  1.00 38.36 LIG 0.24  C 
ATOM     40 O    LYS A 129     -33.076  88.998 202.263  1.00 38.91 LIG-0.27  OA
BRANCH 39 41
ATOM     41  CA  LYS A 129     -31.025  90.129 202.765  1.00 41.62 LIG 0.18  C 
BRANCH 41 42
ATOM     42  CB  LYS A 129     -31.302  90.204 204.264  1.00 37.07 LIG 0.04  C 
BRANCH 42 43
ATOM     43  CG  LYS A 129     -31.325  91.613 204.838  1.00 37.25 LIG 0.00  C 
BRANCH 43 44
ATOM     44  CD  LYS A 129     -30.017  91.970 205.540  1.00 32.25 LIG 0.03  C 
BRANCH 44 45
ATOM     45  CE  LYS A 129     -29.715  93.452 205.359  1.00 33.17 LIG 0.23  C 
BRANCH 45 46
ATOM     46  NZ  LYS A 129     -30.139  94.288 206.527  1.00 31.02 LIG-0.08  N 
ATOM     47 HZ2  LYS A 129     -30.810  93.886 206.951  1.00 31.02 LIG 0.27  HD
ATOM     48 HZ3  LYS A 129     -29.453  94.388 207.085  1.00 31.02 LIG 0.27  HD
ATOM     49 HZ1  LYS A 129     -30.406  95.087 206.240  1.00 31.02 LIG 0.27  HD
ENDBRANCH 45 46
ENDBRANCH 44 45
ENDBRANCH 43 44
ENDBRANCH 42 43
ENDBRANCH 41 42
BRANCH 41 50
ATOM     50  N   LYS A 129     -31.289  91.422 202.133  1.00 48.91 LIG-0.35  N 
ATOM     51  C   LYS A 128     -30.445  91.959 201.251  1.00 46.33 LIG 0.26  C 
ATOM     52 O    LYS A 128     -29.429  91.387 200.863  1.00 48.39 LIG-0.27  OA
ATOM     53 H    LYS A 129     -32.024  91.793 202.379  1.00 48.91 LIG 0.16  HD
BRANCH 51 54
ATOM     54  CA  LYS A 128     -30.811  93.344 200.717  1.00 52.62 LIG 0.40  C 
ATOM     55  N   LYS A 128     -32.081  93.306 200.006  1.00 52.42 LIG 0.61  N 
BRANCH 54 56
ATOM     56  CB  LYS A 128     -30.869  94.358 201.866  1.00 53.69 LIG 0.05  C 
BRANCH 56 57
ATOM     57  CG  LYS A 128     -29.686  95.315 201.919  1.00 48.68 LIG 0.00  C 
BRANCH 57 58
ATOM     58  CD  LYS A 128     -29.681  96.114 203.210  1.00 52.15 LIG 0.03  C 
BRANCH 58 59
ATOM     59  CE  LYS A 128     -28.456  97.012 203.281  1.00 44.05 LIG 0.23  C 
BRANCH 59 60
ATOM     60  NZ  LYS A 128     -28.238  97.606 204.636  1.00 43.39 LIG-0.08  N 
ATOM     61 HZ1  LYS A 128     -27.512  98.120 204.621  1.00 43.39 LIG 0.27  HD
ATOM     62 HZ2  LYS A 128     -28.945  98.098 204.862  1.00 43.39 LIG 0.27  HD
ATOM     63 HZ3  LYS A 128     -28.127  96.955 205.231  1.00 43.39 LIG 0.27  HD
ENDBRANCH 59 60
ENDBRANCH 58 59
ENDBRANCH 57 58
ENDBRANCH 56 57
ENDBRANCH 54 56
ENDBRANCH 51 54
ENDBRANCH 41 50
ENDBRANCH 39 41
ENDBRANCH 1 37
TORSDOF 29
ENDMDL
