MODEL 1
USER: ADFR SOLUTION from run 114
USER: SCORE 14.240263 LL:  -2.742 LR: -11.707 RR:   0.000 FEB:  -9.321
USER: RMSD 0.746517
USER: SEED 113
USER: STATUS no improvement in best in 2 clusters for 5 generations
USER: GENES 10
USER: genes 0 Translation |==|  0.56888 0.52366 0.52290
USER: genes 1 Rotation |==|  0.48069 0.50511 0.47882 0.99915
USER: genes 2 Torsion [N]-C--CA-[N] |==|  0.41923
USER: genes 3 Torsion [C]-CA--N-[C] |==|  0.61101
USER: genes 4 Torsion [N]-C--CA-[N] |==|  0.35692
USER: genes 5 Torsion [N]-CA--C-[N] |==|  0.44910
USER: genes 6 Torsion [C]-N--CA-[CB] |==|  0.33581
USER: genes 7 Torsion [N]-CA--CB-[CG] |==|  0.84492
USER: genes 8 Torsion [CA]-CB--CG-[CD1] |==|  0.84920
USER: genes 9 Torsion [N]-CA--C-[O] |==|  0.65907
ROOT
ATOM      1  C   ALA P   3     -17.034  24.745  22.988  1.00 17.83 LIG 0.24  C 
ATOM      2 O    ALA P   3     -17.448  23.643  22.595  1.00 14.64 LIG-0.27  OA
ATOM      3  N   PRO P   2     -15.877  24.966  23.563  1.00 16.26 LIG-0.34  N 
ATOM      4  CA  PRO P   2     -14.895  23.888  23.761  1.00 13.96 LIG 0.18  C 
ATOM      5  CB  PRO P   2     -13.619  24.588  24.219  1.00 15.54 LIG 0.04  C 
ATOM      6  CG  PRO P   2     -13.881  26.078  24.078  1.00 16.88 LIG 0.02  C 
ATOM      7  CD  PRO P   2     -15.373  26.265  24.065  1.00 18.82 LIG 0.13  C 
ENDROOT
BRANCH 1 8
ATOM      8  CA  ALA P   3     -17.929  25.985  22.889  1.00 20.57 LIG 0.17  C 
ATOM      9  CB  ALA P   3     -18.782  26.045  24.156  1.00 21.35 LIG 0.04  C 
BRANCH 8 10
ATOM     10  N   ALA P   3     -18.801  25.863  21.708  1.00 21.09 LIG-0.35  N 
ATOM     11  C   PRO P   4     -19.081  26.882  20.916  1.00 23.18 LIG 0.24  C 
ATOM     12 O    PRO P   4     -18.652  28.062  21.103  1.00 18.89 LIG-0.27  OA
ATOM     13 H    ALA P   3     -19.108  25.069  21.584  1.00 21.09 LIG 0.16  HD
BRANCH 11 14
ATOM     14  CA  PRO P   4     -19.987  26.522  19.769  1.00 25.16 LIG 0.18  C 
ATOM     15  CB  PRO P   4     -19.398  26.634  18.383  1.00 26.75 LIG 0.04  C 
ATOM     16  CG  PRO P   4     -19.514  28.113  18.088  1.00 27.39 LIG 0.02  C 
ATOM     17  CD  PRO P   4     -20.876  28.491  18.646  1.00 26.08 LIG 0.13  C 
ATOM     18  N   PRO P   4     -21.116  27.494  19.769  1.00 30.07 LIG-0.34  N 
ATOM     19  C   ACE P   5     -21.971  27.314  20.850  1.00 36.72 LIG 0.22  C 
ATOM     20  CH3 ACE P   5     -23.167  28.219  20.779  1.00 39.74 LIG 0.12  C 
ATOM     21 O    ACE P   5     -21.791  26.516  21.774  1.00 37.57 LIG-0.27  OA
ENDBRANCH 11 14
ENDBRANCH 8 10
ENDBRANCH 1 8
BRANCH 4 22
ATOM     22  C   PRO P   2     -15.418  22.949  24.827  1.00 16.32 LIG 0.24  C 
ATOM     23  N   PHE P   1     -14.896  21.743  24.905  1.00 10.52 LIG-0.34  N 
ATOM     24 H    PHE P   1     -14.294  21.439  24.372  1.00 10.52 LIG 0.16  HD
ATOM     25 O    PRO P   2     -16.365  23.367  25.558  1.00 16.09 LIG-0.27  OA
BRANCH 23 26
ATOM     26  CA  PHE P   1     -15.327  20.804  25.946  1.00 14.43 LIG 0.19  C 
BRANCH 26 27
ATOM     27  CB  PHE P   1     -15.896  19.524  25.347  1.00 14.76 LIG 0.07  C 
BRANCH 27 28
ATOM     28  CG  PHE P   1     -17.047  19.788  24.377  1.00 18.21 LIG-0.06  A 
ATOM     29  CD1 PHE P   1     -18.141  20.536  24.797  1.00 21.80 LIG 0.01  A 
ATOM     30  CE1 PHE P   1     -19.216  20.765  23.918  1.00 23.78 LIG 0.00  A 
ATOM     31  CZ  PHE P   1     -19.185  20.220  22.635  1.00 21.60 LIG 0.00  A 
ATOM     32  CE2 PHE P   1     -18.081  19.442  22.215  1.00 26.45 LIG 0.00  A 
ATOM     33  CD2 PHE P   1     -17.009  19.220  23.110  1.00 19.03 LIG 0.01  A 
ENDBRANCH 27 28
ENDBRANCH 26 27
BRANCH 26 34
ATOM     34  C   PHE P   1     -14.149  20.580  26.950  1.00 13.94 LIG 0.20  C 
ATOM     35 O    PHE P   1     -13.774  19.354  27.093  1.00 16.43 LIG-0.65  OA
ATOM     36 OXT  PHE P   1     -13.582  21.470  27.709  1.00 13.15 LIG-0.65  OA
ENDBRANCH 26 34
ENDBRANCH 23 26
ENDBRANCH 4 22
TORSDOF 8
ENDMDL
MODEL 2
USER: ADFR SOLUTION from run 36
USER: SCORE 13.989863 LL:  -2.652 LR: -11.545 RR:   0.000 FEB:  -9.159
USER: RMSD 2.052536
USER: SEED 35
USER: STATUS 1 or 2 clusters left
USER: GENES 10
USER: genes 0 Translation |==|  0.55864 0.56035 0.52258
USER: genes 1 Rotation |==|  0.55249 0.52448 0.42692 0.99123
USER: genes 2 Torsion [N]-C--CA-[N] |==|  0.44601
USER: genes 3 Torsion [C]-CA--N-[C] |==|  0.60457
USER: genes 4 Torsion [N]-C--CA-[N] |==|  0.90819
USER: genes 5 Torsion [N]-CA--C-[N] |==|  0.55189
USER: genes 6 Torsion [C]-N--CA-[CB] |==|  0.28690
USER: genes 7 Torsion [N]-CA--CB-[CG] |==|  0.76716
USER: genes 8 Torsion [CA]-CB--CG-[CD1] |==|  0.37449
USER: genes 9 Torsion [N]-CA--C-[O] |==|  0.66671
ROOT
ATOM      1  C   ALA P   3     -17.218  25.405  22.982  1.00 17.83 LIG 0.24  C 
ATOM      2 O    ALA P   3     -17.874  24.571  22.338  1.00 14.64 LIG-0.27  OA
ATOM      3  N   PRO P   2     -16.026  25.212  23.492  1.00 16.26 LIG-0.34  N 
ATOM      4  CA  PRO P   2     -15.300  23.947  23.300  1.00 13.96 LIG 0.18  C 
ATOM      5  CB  PRO P   2     -13.891  24.211  23.820  1.00 15.54 LIG 0.04  C 
ATOM      6  CG  PRO P   2     -13.822  25.700  24.119  1.00 16.88 LIG 0.02  C 
ATOM      7  CD  PRO P   2     -15.237  26.181  24.288  1.00 18.82 LIG 0.13  C 
ENDROOT
BRANCH 1 8
ATOM      8  CA  ALA P   3     -17.822  26.776  23.308  1.00 20.57 LIG 0.17  C 
ATOM      9  CB  ALA P   3     -18.399  26.706  24.721  1.00 21.35 LIG 0.04  C 
BRANCH 8 10
ATOM     10  N   ALA P   3     -18.897  27.075  22.346  1.00 21.09 LIG-0.35  N 
ATOM     11  C   PRO P   4     -19.112  28.286  21.865  1.00 23.18 LIG 0.24  C 
ATOM     12 O    PRO P   4     -18.437  29.309  22.198  1.00 18.89 LIG-0.27  OA
ATOM     13 H    ALA P   3     -19.368  26.389  22.128  1.00 21.09 LIG 0.16  HD
BRANCH 11 14
ATOM     14  CA  PRO P   4     -20.259  28.353  20.893  1.00 25.16 LIG 0.18  C 
ATOM     15  CB  PRO P   4     -21.641  28.485  21.487  1.00 26.75 LIG 0.04  C 
ATOM     16  CG  PRO P   4     -21.976  27.062  21.875  1.00 27.39 LIG 0.02  C 
ATOM     17  CD  PRO P   4     -21.443  26.233  20.719  1.00 26.08 LIG 0.13  C 
ATOM     18  N   PRO P   4     -20.297  27.058  20.156  1.00 30.07 LIG-0.34  N 
ATOM     19  C   ACE P   5     -19.221  26.909  19.289  1.00 36.72 LIG 0.22  C 
ATOM     20  CH3 ACE P   5     -19.329  25.657  18.467  1.00 39.74 LIG 0.12  C 
ATOM     21 O    ACE P   5     -18.274  27.696  19.189  1.00 37.57 LIG-0.27  OA
ENDBRANCH 11 14
ENDBRANCH 8 10
ENDBRANCH 1 8
BRANCH 4 22
ATOM     22  C   PRO P   2     -15.988  22.867  24.106  1.00 16.32 LIG 0.24  C 
ATOM     23  N   PHE P   1     -15.315  21.770  24.381  1.00 10.52 LIG-0.34  N 
ATOM     24 H    PHE P   1     -14.515  21.610  24.109  1.00 10.52 LIG 0.16  HD
ATOM     25 O    PRO P   2     -17.196  23.066  24.434  1.00 16.09 LIG-0.27  OA
BRANCH 23 26
ATOM     26  CA  PHE P   1     -15.911  20.708  25.199  1.00 14.43 LIG 0.19  C 
BRANCH 26 27
ATOM     27  CB  PHE P   1     -16.370  19.533  24.345  1.00 14.76 LIG 0.07  C 
BRANCH 27 28
ATOM     28  CG  PHE P   1     -17.759  19.746  23.746  1.00 18.21 LIG-0.06  A 
ATOM     29  CD1 PHE P   1     -17.985  19.444  22.408  1.00 21.80 LIG 0.01  A 
ATOM     30  CE1 PHE P   1     -19.256  19.659  21.843  1.00 23.78 LIG 0.00  A 
ATOM     31  CZ  PHE P   1     -20.277  20.194  22.626  1.00 21.60 LIG 0.00  A 
ATOM     32  CE2 PHE P   1     -20.043  20.519  23.982  1.00 26.45 LIG 0.00  A 
ATOM     33  CD2 PHE P   1     -18.760  20.299  24.536  1.00 19.03 LIG 0.01  A 
ENDBRANCH 27 28
ENDBRANCH 26 27
BRANCH 26 34
ATOM     34  C   PHE P   1     -14.915  20.326  26.343  1.00 13.94 LIG 0.20  C 
ATOM     35 O    PHE P   1     -14.524  19.096  26.343  1.00 16.43 LIG-0.65  OA
ATOM     36 OXT  PHE P   1     -14.522  21.078  27.327  1.00 13.15 LIG-0.65  OA
ENDBRANCH 26 34
ENDBRANCH 23 26
ENDBRANCH 4 22
TORSDOF 8
ENDMDL
MODEL 3
USER: ADFR SOLUTION from run 179
USER: SCORE 12.783014 LL:  -2.870 LR: -10.166 RR:   0.000 FEB:  -7.780
USER: RMSD 1.733784
USER: SEED 178
USER: STATUS no improvement in best in 3 clusters for 5 generations
USER: GENES 10
USER: genes 0 Translation |==|  0.55304 0.52719 0.53251
USER: genes 1 Rotation |==|  0.52618 0.55253 0.48741 0.99638
USER: genes 2 Torsion [N]-C--CA-[N] |==|  0.39454
USER: genes 3 Torsion [C]-CA--N-[C] |==|  0.67672
USER: genes 4 Torsion [N]-C--CA-[N] |==|  0.49824
USER: genes 5 Torsion [N]-CA--C-[N] |==|  0.36066
USER: genes 6 Torsion [C]-N--CA-[CB] |==|  0.14963
USER: genes 7 Torsion [N]-CA--CB-[CG] |==|  0.17065
USER: genes 8 Torsion [CA]-CB--CG-[CD1] |==|  0.16013
USER: genes 9 Torsion [N]-CA--C-[O] |==|  0.01219
ROOT
ATOM      1  C   ALA P   3     -17.319  24.808  23.154  1.00 17.83 LIG 0.24  C 
ATOM      2 O    ALA P   3     -17.791  23.782  22.639  1.00 14.64 LIG-0.27  OA
ATOM      3  N   PRO P   2     -16.078  24.967  23.543  1.00 16.26 LIG-0.34  N 
ATOM      4  CA  PRO P   2     -15.068  23.913  23.354  1.00 13.96 LIG 0.18  C 
ATOM      5  CB  PRO P   2     -13.735  24.568  23.700  1.00 15.54 LIG 0.04  C 
ATOM      6  CG  PRO P   2     -14.029  26.047  23.895  1.00 16.88 LIG 0.02  C 
ATOM      7  CD  PRO P   2     -15.499  26.170  24.185  1.00 18.82 LIG 0.13  C 
ENDROOT
BRANCH 1 8
ATOM      8  CA  ALA P   3     -18.226  26.007  23.455  1.00 20.57 LIG 0.17  C 
ATOM      9  CB  ALA P   3     -19.002  25.693  24.733  1.00 21.35 LIG 0.04  C 
BRANCH 8 10
ATOM     10  N   ALA P   3     -19.166  26.198  22.337  1.00 21.09 LIG-0.35  N 
ATOM     11  C   PRO P   4     -19.171  27.282  21.582  1.00 23.18 LIG 0.24  C 
ATOM     12 O    PRO P   4     -18.390  28.268  21.756  1.00 18.89 LIG-0.27  OA
ATOM     13 H    ALA P   3     -19.708  25.541  22.223  1.00 21.09 LIG 0.16  HD
BRANCH 11 14
ATOM     14  CA  PRO P   4     -20.214  27.256  20.496  1.00 25.16 LIG 0.18  C 
ATOM     15  CB  PRO P   4     -20.059  26.190  19.438  1.00 26.75 LIG 0.04  C 
ATOM     16  CG  PRO P   4     -19.024  26.785  18.510  1.00 27.39 LIG 0.02  C 
ATOM     17  CD  PRO P   4     -19.410  28.252  18.425  1.00 26.08 LIG 0.13  C 
ATOM     18  N   PRO P   4     -20.108  28.539  19.745  1.00 30.07 LIG-0.34  N 
ATOM     19  C   ACE P   5     -20.532  29.629  20.495  1.00 36.72 LIG 0.22  C 
ATOM     20  CH3 ACE P   5     -20.533  30.899  19.693  1.00 39.74 LIG 0.12  C 
ATOM     21 O    ACE P   5     -20.868  29.588  21.683  1.00 37.57 LIG-0.27  OA
ENDBRANCH 11 14
ENDBRANCH 8 10
ENDBRANCH 1 8
BRANCH 4 22
ATOM     22  C   PRO P   2     -15.380  22.772  24.297  1.00 16.32 LIG 0.24  C 
ATOM     23  N   PHE P   1     -15.430  21.552  23.805  1.00 10.52 LIG-0.34  N 
ATOM     24 H    PHE P   1     -15.323  21.360  22.973  1.00 10.52 LIG 0.16  HD
ATOM     25 O    PRO P   2     -15.620  23.064  25.507  1.00 16.09 LIG-0.27  OA
BRANCH 23 26
ATOM     26  CA  PHE P   1     -15.679  20.399  24.677  1.00 14.43 LIG 0.19  C 
BRANCH 26 27
ATOM     27  CB  PHE P   1     -16.948  20.583  25.500  1.00 14.76 LIG 0.07  C 
BRANCH 27 28
ATOM     28  CG  PHE P   1     -18.199  20.719  24.633  1.00 18.21 LIG-0.06  A 
ATOM     29  CD1 PHE P   1     -18.528  19.707  23.738  1.00 21.80 LIG 0.01  A 
ATOM     30  CE1 PHE P   1     -19.666  19.835  22.920  1.00 23.78 LIG 0.00  A 
ATOM     31  CZ  PHE P   1     -20.445  20.988  22.998  1.00 21.60 LIG 0.00  A 
ATOM     32  CE2 PHE P   1     -20.100  22.026  23.894  1.00 26.45 LIG 0.00  A 
ATOM     33  CD2 PHE P   1     -18.952  21.884  24.710  1.00 19.03 LIG 0.01  A 
ENDBRANCH 27 28
ENDBRANCH 26 27
BRANCH 26 34
ATOM     34  C   PHE P   1     -15.649  19.093  23.817  1.00 13.94 LIG 0.20  C 
ATOM     35 O    PHE P   1     -15.334  19.258  22.577  1.00 16.43 LIG-0.65  OA
ATOM     36 OXT  PHE P   1     -15.992  17.897  24.192  1.00 13.15 LIG-0.65  OA
ENDBRANCH 26 34
ENDBRANCH 23 26
ENDBRANCH 4 22
TORSDOF 8
ENDMDL
