MODEL 1
USER: ADFR SOLUTION from run 18
USER: SCORE 13.684413 LL:  -1.452 LR: -12.918 RR:   0.000 FEB:  -9.636
USER: RMSD 3.212147
USER: SEED 17
USER: STATUS no improvement in best in 5 clusters for 5 generations
USER: GENES 13
USER: genes 0 Translation |==|  0.56130 0.49596 0.49147
USER: genes 1 Rotation |==|  0.61016 0.37943 0.50496 0.97255
USER: genes 2 Torsion [C]-CA--CB-[CG] |==|  0.27622
USER: genes 3 Torsion [CA]-CB--CG-[CD2] |==|  0.47115
USER: genes 4 Torsion [N]-CA--C-[N] |==|  0.08249
USER: genes 5 Torsion [C]-N--CA-[CB] |==|  0.53983
USER: genes 6 Torsion [N]-CA--C-[O] |==|  0.27539
USER: genes 7 Torsion [N]-CA--CB-[CG] |==|  0.07834
USER: genes 8 Torsion [CA]-CB--CG-[ND2] |==|  0.76348
USER: genes 9 Torsion [CB]-CA--N-[C] |==|  0.78333
USER: genes 10 Torsion [N]-C--CA-[N] |==|  0.47872
USER: genes 11 Torsion [C]-CA--CB-[CG] |==|  0.18889
USER: genes 12 Torsion [CA]-CB--CG-[OD1] |==|  0.09744
ROOT
ATOM      1  CA  TRP J 605      -2.153  21.060  70.341  1.00 71.61 LIG 0.18  C 
ENDROOT
BRANCH 1 2
ATOM      2  CB  TRP J 605      -3.338  21.628  71.130  1.00 65.14 LIG 0.07  C 
BRANCH 2 3
ATOM      3  CG  TRP J 605      -2.945  22.563  72.236  1.00 62.37 LIG-0.03  A 
ATOM      4  CD2 TRP J 605      -3.819  23.400  73.001  1.00 57.80 LIG-0.00  A 
ATOM      5  CE3 TRP J 605      -5.198  23.633  72.989  1.00 58.94 LIG 0.01  A 
ATOM      6  CE2 TRP J 605      -3.022  24.095  73.933  1.00 56.30 LIG 0.04  A 
ATOM      7  CZ3 TRP J 605      -5.728  24.536  73.891  1.00 59.47 LIG 0.00  A 
ATOM      8  CH2 TRP J 605      -4.910  25.212  74.805  1.00 55.92 LIG 0.00  A 
ATOM      9  CZ2 TRP J 605      -3.559  25.005  74.841  1.00 56.02 LIG 0.03  A 
ATOM     10  NE1 TRP J 605      -1.726  23.696  73.743  1.00 57.88 LIG-0.36  N 
ATOM     11  CD1 TRP J 605      -1.688  22.775  72.726  1.00 63.10 LIG 0.10  A 
ATOM     12 HE1  TRP J 605      -1.045  23.976  74.189  1.00 57.88 LIG 0.17  HD
ENDBRANCH 2 3
ENDBRANCH 1 2
BRANCH 1 13
ATOM     13  C   TRP J 605      -1.826  19.650  70.836  1.00 60.32 LIG 0.24  C 
ATOM     14  N   ASN J 606      -1.240  18.846  69.951  1.00 74.38 LIG-0.34  N 
ATOM     15 H    ASN J 606      -1.112  19.067  69.129  1.00 74.38 LIG 0.16  HD
ATOM     16 O    TRP J 605      -2.094  19.308  71.988  1.00 56.87 LIG-0.27  OA
BRANCH 14 17
ATOM     17  CA  ASN J 606      -0.753  17.506  70.283  1.00 65.98 LIG 0.19  C 
BRANCH 17 18
ATOM     18  C   ASN J 606      -0.036  17.420  71.627  1.00 66.37 LIG 0.20  C 
ATOM     19 O    ASN J 606      -0.615  17.009  72.631  1.00 70.67 LIG-0.65  OA
ATOM     20 OXT  ASN J 606       1.146  17.748  71.732  1.00 61.82 LIG-0.65  OA
ENDBRANCH 17 18
BRANCH 17 21
ATOM     21  CB  ASN J 606       0.167  16.996  69.173  1.00 63.43 LIG 0.14  C 
BRANCH 21 22
ATOM     22  CG  ASN J 606       0.871  18.124  68.438  1.00 67.06 LIG 0.22  C 
ATOM     23  ND2 ASN J 606       0.203  18.689  67.440  1.00 58.48 LIG-0.37  N 
ATOM     24 22HD ASN J 606      -0.587  18.412  67.241  1.00 58.48 LIG 0.16  HD
ATOM     25 21HD ASN J 606       0.560  19.330  66.993  1.00 58.48 LIG 0.16  HD
ATOM     26 OD1  ASN J 606       2.004  18.479  68.765  1.00 73.16 LIG-0.27  OA
ENDBRANCH 21 22
ENDBRANCH 17 21
ENDBRANCH 14 17
ENDBRANCH 1 13
BRANCH 1 27
ATOM     27  N   TRP J 605      -2.423  21.116  68.902  1.00 80.26 LIG-0.34  N 
ATOM     28  C   ASP J 604      -3.210  20.248  68.268  1.00 69.06 LIG 0.26  C 
ATOM     29 O    ASP J 604      -3.741  19.283  68.820  1.00 67.02 LIG-0.27  OA
ATOM     30 H    TRP J 605      -2.025  21.765  68.502  1.00 80.26 LIG 0.16  HD
BRANCH 28 31
ATOM     31  CA  ASP J 604      -3.430  20.506  66.779  1.00 80.57 LIG 0.41  C 
ATOM     32  N   ASP J 604      -4.153  19.398  66.165  1.00 92.85 LIG 0.61  N 
BRANCH 31 33
ATOM     33  CB  ASP J 604      -4.186  21.819  66.569  1.00 75.75 LIG 0.16  C 
BRANCH 33 34
ATOM     34  CG  ASP J 604      -3.366  23.036  66.953  1.00 69.63 LIG 0.17  C 
ATOM     35 OD1  ASP J 604      -2.134  23.016  66.743  1.00 75.49 LIG-0.65  OA
ATOM     36 OD2  ASP J 604      -3.953  24.014  67.460  1.00 69.41 LIG-0.65  OA
ENDBRANCH 33 34
ENDBRANCH 31 33
ENDBRANCH 28 31
ENDBRANCH 1 27
TORSDOF 11
ENDMDL
MODEL 2
USER: ADFR SOLUTION from run 21
USER: SCORE 12.720207 LL:  -1.413 LR: -12.483 RR:   0.000 FEB:  -9.202
USER: RMSD 2.354113
USER: SEED 20
USER: STATUS no improvement in best in 4 clusters for 5 generations
USER: GENES 13
USER: genes 0 Translation |==|  0.47165 0.53054 0.48005
USER: genes 1 Rotation |==|  0.55214 0.52294 0.53189 0.99572
USER: genes 2 Torsion [C]-CA--CB-[CG] |==|  0.20630
USER: genes 3 Torsion [CA]-CB--CG-[CD2] |==|  0.51578
USER: genes 4 Torsion [N]-CA--C-[N] |==|  0.25219
USER: genes 5 Torsion [C]-N--CA-[CB] |==|  0.77507
USER: genes 6 Torsion [N]-CA--C-[O] |==|  0.13324
USER: genes 7 Torsion [N]-CA--CB-[CG] |==|  0.92594
USER: genes 8 Torsion [CA]-CB--CG-[ND2] |==|  0.43724
USER: genes 9 Torsion [CB]-CA--N-[C] |==|  0.24158
USER: genes 10 Torsion [N]-C--CA-[N] |==|  0.94881
USER: genes 11 Torsion [C]-CA--CB-[CG] |==|  0.12355
USER: genes 12 Torsion [CA]-CB--CG-[OD1] |==|  0.15777
ROOT
ATOM      1  CA  TRP J 605      -3.699  21.605  70.144  1.00 71.61 LIG 0.18  C 
ENDROOT
BRANCH 1 2
ATOM      2  CB  TRP J 605      -4.444  22.277  71.304  1.00 65.14 LIG 0.07  C 
BRANCH 2 3
ATOM      3  CG  TRP J 605      -3.571  23.129  72.178  1.00 62.37 LIG-0.03  A 
ATOM      4  CD2 TRP J 605      -3.955  23.784  73.392  1.00 57.80 LIG-0.00  A 
ATOM      5  CE3 TRP J 605      -5.150  23.868  74.114  1.00 58.94 LIG 0.01  A 
ATOM      6  CE2 TRP J 605      -2.819  24.462  73.879  1.00 56.30 LIG 0.04  A 
ATOM      7  CZ3 TRP J 605      -5.172  24.612  75.280  1.00 59.47 LIG 0.00  A 
ATOM      8  CH2 TRP J 605      -4.025  25.274  75.738  1.00 55.92 LIG 0.00  A 
ATOM      9  CZ2 TRP J 605      -2.843  25.210  75.054  1.00 56.02 LIG 0.03  A 
ATOM     10  NE1 TRP J 605      -1.793  24.225  73.003  1.00 57.88 LIG-0.36  N 
ATOM     11  CD1 TRP J 605      -2.252  23.423  71.987  1.00 63.10 LIG 0.10  A 
ATOM     12 HE1  TRP J 605      -0.992  24.528  73.076  1.00 57.88 LIG 0.17  HD
ENDBRANCH 2 3
ENDBRANCH 1 2
BRANCH 1 13
ATOM     13  C   TRP J 605      -2.850  20.447  70.672  1.00 60.32 LIG 0.24  C 
ATOM     14  N   ASN J 606      -1.693  20.245  70.046  1.00 74.38 LIG-0.34  N 
ATOM     15 H    ASN J 606      -1.456  20.681  69.344  1.00 74.38 LIG 0.16  HD
ATOM     16 O    TRP J 605      -3.235  19.765  71.622  1.00 56.87 LIG-0.27  OA
BRANCH 14 17
ATOM     17  CA  ASN J 606      -0.704  19.259  70.488  1.00 65.98 LIG 0.19  C 
BRANCH 17 18
ATOM     18  C   ASN J 606      -1.303  17.920  70.907  1.00 66.37 LIG 0.20  C 
ATOM     19 O    ASN J 606      -2.130  17.345  70.202  1.00 70.67 LIG-0.65  OA
ATOM     20 OXT  ASN J 606      -0.960  17.378  71.959  1.00 61.82 LIG-0.65  OA
ENDBRANCH 17 18
BRANCH 17 21
ATOM     21  CB  ASN J 606       0.128  19.834  71.634  1.00 63.43 LIG 0.14  C 
BRANCH 21 22
ATOM     22  CG  ASN J 606       0.205  21.351  71.594  1.00 67.06 LIG 0.22  C 
ATOM     23  ND2 ASN J 606       0.483  21.961  72.739  1.00 58.48 LIG-0.37  N 
ATOM     24 22HD ASN J 606       0.610  21.498  73.453  1.00 58.48 LIG 0.16  HD
ATOM     25 21HD ASN J 606       0.536  22.819  72.767  1.00 58.48 LIG 0.16  HD
ATOM     26 OD1  ASN J 606       0.014  21.964  70.543  1.00 73.16 LIG-0.27  OA
ENDBRANCH 21 22
ENDBRANCH 17 21
ENDBRANCH 14 17
ENDBRANCH 1 13
BRANCH 1 27
ATOM     27  N   TRP J 605      -4.642  21.196  69.100  1.00 80.26 LIG-0.34  N 
ATOM     28  C   ASP J 604      -5.039  21.999  68.114  1.00 69.06 LIG 0.26  C 
ATOM     29 O    ASP J 604      -4.696  23.178  68.016  1.00 67.02 LIG-0.27  OA
ATOM     30 H    TRP J 605      -4.917  20.386  69.183  1.00 80.26 LIG 0.16  HD
BRANCH 28 31
ATOM     31  CA  ASP J 604      -5.973  21.376  67.078  1.00 80.57 LIG 0.41  C 
ATOM     32  N   ASP J 604      -5.903  19.920  67.132  1.00 92.85 LIG 0.61  N 
BRANCH 31 33
ATOM     33  CB  ASP J 604      -7.411  21.850  67.299  1.00 75.75 LIG 0.16  C 
BRANCH 33 34
ATOM     34  CG  ASP J 604      -7.502  23.342  67.560  1.00 69.63 LIG 0.17  C 
ATOM     35 OD1  ASP J 604      -7.029  24.127  66.712  1.00 75.49 LIG-0.65  OA
ATOM     36 OD2  ASP J 604      -8.050  23.729  68.613  1.00 69.41 LIG-0.65  OA
ENDBRANCH 33 34
ENDBRANCH 31 33
ENDBRANCH 28 31
ENDBRANCH 1 27
TORSDOF 11
ENDMDL
MODEL 3
USER: ADFR SOLUTION from run 46
USER: SCORE 14.139647 LL:  -1.946 LR: -12.356 RR:   0.000 FEB:  -9.074
USER: RMSD 3.493096
USER: SEED 45
USER: STATUS no improvement in best in 4 clusters for 5 generations
USER: GENES 13
USER: genes 0 Translation |==|  0.52573 0.52832 0.48945
USER: genes 1 Rotation |==|  0.62020 0.38327 0.46792 0.97000
USER: genes 2 Torsion [C]-CA--CB-[CG] |==|  0.27320
USER: genes 3 Torsion [CA]-CB--CG-[CD2] |==|  0.49797
USER: genes 4 Torsion [N]-CA--C-[N] |==|  0.14679
USER: genes 5 Torsion [C]-N--CA-[CB] |==|  0.45840
USER: genes 6 Torsion [N]-CA--C-[O] |==|  0.79549
USER: genes 7 Torsion [N]-CA--CB-[CG] |==|  0.92445
USER: genes 8 Torsion [CA]-CB--CG-[ND2] |==|  0.40600
USER: genes 9 Torsion [CB]-CA--N-[C] |==|  0.13334
USER: genes 10 Torsion [N]-C--CA-[N] |==|  0.17074
USER: genes 11 Torsion [C]-CA--CB-[CG] |==|  0.65389
USER: genes 12 Torsion [CA]-CB--CG-[OD1] |==|  0.35772
ROOT
ATOM      1  CA  TRP J 605      -2.766  21.570  70.306  1.00 71.61 LIG 0.18  C 
ENDROOT
BRANCH 1 2
ATOM      2  CB  TRP J 605      -3.837  22.218  71.193  1.00 65.14 LIG 0.07  C 
BRANCH 2 3
ATOM      3  CG  TRP J 605      -3.284  22.985  72.358  1.00 62.37 LIG-0.03  A 
ATOM      4  CD2 TRP J 605      -4.033  23.704  73.343  1.00 57.80 LIG-0.00  A 
ATOM      5  CE3 TRP J 605      -5.397  23.936  73.547  1.00 58.94 LIG 0.01  A 
ATOM      6  CE2 TRP J 605      -3.108  24.260  74.249  1.00 56.30 LIG 0.04  A 
ATOM      7  CZ3 TRP J 605      -5.787  24.701  74.631  1.00 59.47 LIG 0.00  A 
ATOM      8  CH2 TRP J 605      -4.842  25.239  75.514  1.00 55.92 LIG 0.00  A 
ATOM      9  CZ2 TRP J 605      -3.503  25.030  75.341  1.00 56.02 LIG 0.03  A 
ATOM     10  NE1 TRP J 605      -1.855  23.891  73.834  1.00 57.88 LIG-0.36  N 
ATOM     11  CD1 TRP J 605      -1.970  23.126  72.700  1.00 63.10 LIG 0.10  A 
ATOM     12 HE1  TRP J 605      -1.117  24.105  74.220  1.00 57.88 LIG 0.17  HD
ENDBRANCH 2 3
ENDBRANCH 1 2
BRANCH 1 13
ATOM     13  C   TRP J 605      -2.603  20.096  70.681  1.00 60.32 LIG 0.24  C 
ATOM     14  N   ASN J 606      -1.748  19.400  69.935  1.00 74.38 LIG-0.34  N 
ATOM     15 H    ASN J 606      -1.358  19.724  69.240  1.00 74.38 LIG 0.16  HD
ATOM     16 O    TRP J 605      -3.232  19.610  71.621  1.00 56.87 LIG-0.27  OA
BRANCH 14 17
ATOM     17  CA  ASN J 606      -1.381  18.011  70.219  1.00 65.98 LIG 0.19  C 
BRANCH 17 18
ATOM     18  C   ASN J 606      -0.498  17.840  71.452  1.00 66.37 LIG 0.20  C 
ATOM     19 O    ASN J 606       0.689  18.161  71.433  1.00 70.67 LIG-0.65  OA
ATOM     20 OXT  ASN J 606      -0.960  17.388  72.500  1.00 61.82 LIG-0.65  OA
ENDBRANCH 17 18
BRANCH 17 21
ATOM     21  CB  ASN J 606      -0.693  17.394  69.001  1.00 63.43 LIG 0.14  C 
BRANCH 21 22
ATOM     22  CG  ASN J 606      -1.129  18.041  67.698  1.00 67.06 LIG 0.22  C 
ATOM     23  ND2 ASN J 606      -0.210  18.129  66.743  1.00 58.48 LIG-0.37  N 
ATOM     24 22HD ASN J 606       0.584  17.826  66.881  1.00 58.48 LIG 0.16  HD
ATOM     25 21HD ASN J 606      -0.408  18.488  65.988  1.00 58.48 LIG 0.16  HD
ATOM     26 OD1  ASN J 606      -2.278  18.457  67.553  1.00 73.16 LIG-0.27  OA
ENDBRANCH 21 22
ENDBRANCH 17 21
ENDBRANCH 14 17
ENDBRANCH 1 13
BRANCH 1 27
ATOM     27  N   TRP J 605      -3.085  21.772  68.891  1.00 80.26 LIG-0.34  N 
ATOM     28  C   ASP J 604      -3.429  22.951  68.376  1.00 69.06 LIG 0.26  C 
ATOM     29 O    ASP J 604      -3.566  23.974  69.049  1.00 67.02 LIG-0.27  OA
ATOM     30 H    TRP J 605      -3.029  21.054  68.420  1.00 80.26 LIG 0.16  HD
BRANCH 28 31
ATOM     31  CA  ASP J 604      -3.657  22.982  66.866  1.00 80.57 LIG 0.41  C 
ATOM     32  N   ASP J 604      -4.752  22.093  66.492  1.00 92.85 LIG 0.61  N 
BRANCH 31 33
ATOM     33  CB  ASP J 604      -3.945  24.410  66.397  1.00 75.75 LIG 0.16  C 
BRANCH 33 34
ATOM     34  CG  ASP J 604      -5.253  24.525  65.637  1.00 69.63 LIG 0.17  C 
ATOM     35 OD1  ASP J 604      -6.071  25.401  65.986  1.00 75.49 LIG-0.65  OA
ATOM     36 OD2  ASP J 604      -5.460  23.741  64.688  1.00 69.41 LIG-0.65  OA
ENDBRANCH 33 34
ENDBRANCH 31 33
ENDBRANCH 28 31
ENDBRANCH 1 27
TORSDOF 11
ENDMDL
MODEL 4
USER: ADFR SOLUTION from run 28
USER: SCORE 13.808965 LL:  -1.762 LR: -12.342 RR:   0.000 FEB:  -9.060
USER: RMSD 2.280429
USER: SEED 27
USER: STATUS no improvement in best in 5 clusters for 5 generations
USER: GENES 13
USER: genes 0 Translation |==|  0.50686 0.52740 0.48363
USER: genes 1 Rotation |==|  0.56294 0.45964 0.54731 0.99211
USER: genes 2 Torsion [C]-CA--CB-[CG] |==|  0.21324
USER: genes 3 Torsion [CA]-CB--CG-[CD2] |==|  0.49980
USER: genes 4 Torsion [N]-CA--C-[N] |==|  0.16556
USER: genes 5 Torsion [C]-N--CA-[CB] |==|  0.81188
USER: genes 6 Torsion [N]-CA--C-[O] |==|  0.13926
USER: genes 7 Torsion [N]-CA--CB-[CG] |==|  0.74916
USER: genes 8 Torsion [CA]-CB--CG-[ND2] |==|  0.35841
USER: genes 9 Torsion [CB]-CA--N-[C] |==|  0.14783
USER: genes 10 Torsion [N]-C--CA-[N] |==|  0.50837
USER: genes 11 Torsion [C]-CA--CB-[CG] |==|  0.87288
USER: genes 12 Torsion [CA]-CB--CG-[OD1] |==|  0.45351
ROOT
ATOM      1  CA  TRP J 605      -3.092  21.556  70.206  1.00 71.61 LIG 0.18  C 
ENDROOT
BRANCH 1 2
ATOM      2  CB  TRP J 605      -4.131  22.130  71.177  1.00 65.14 LIG 0.07  C 
BRANCH 2 3
ATOM      3  CG  TRP J 605      -3.547  22.991  72.257  1.00 62.37 LIG-0.03  A 
ATOM      4  CD2 TRP J 605      -4.264  23.661  73.300  1.00 57.80 LIG-0.00  A 
ATOM      5  CE3 TRP J 605      -5.617  23.753  73.644  1.00 58.94 LIG 0.01  A 
ATOM      6  CE2 TRP J 605      -3.316  24.343  74.089  1.00 56.30 LIG 0.04  A 
ATOM      7  CZ3 TRP J 605      -5.973  24.510  74.744  1.00 59.47 LIG 0.00  A 
ATOM      8  CH2 TRP J 605      -5.007  25.177  75.508  1.00 55.92 LIG 0.00  A 
ATOM      9  CZ2 TRP J 605      -3.678  25.105  75.197  1.00 56.02 LIG 0.03  A 
ATOM     10  NE1 TRP J 605      -2.081  24.096  73.550  1.00 57.88 LIG-0.36  N 
ATOM     11  CD1 TRP J 605      -2.228  23.283  72.454  1.00 63.10 LIG 0.10  A 
ATOM     12 HE1  TRP J 605      -1.334  24.400  73.850  1.00 57.88 LIG 0.17  HD
ENDBRANCH 2 3
ENDBRANCH 1 2
BRANCH 1 13
ATOM     13  C   TRP J 605      -2.355  20.387  70.863  1.00 60.32 LIG 0.24  C 
ATOM     14  N   ASN J 606      -1.373  19.844  70.147  1.00 74.38 LIG-0.34  N 
ATOM     15 H    ASN J 606      -1.198  20.077  69.337  1.00 74.38 LIG 0.16  HD
ATOM     16 O    TRP J 605      -2.668  19.996  71.988  1.00 56.87 LIG-0.27  OA
BRANCH 14 17
ATOM     17  CA  ASN J 606      -0.489  18.797  70.661  1.00 65.98 LIG 0.19  C 
BRANCH 17 18
ATOM     18  C   ASN J 606      -1.221  17.559  71.171  1.00 66.37 LIG 0.20  C 
ATOM     19 O    ASN J 606      -2.076  17.000  70.488  1.00 70.67 LIG-0.65  OA
ATOM     20 OXT  ASN J 606      -0.960  17.085  72.278  1.00 61.82 LIG-0.65  OA
ENDBRANCH 17 18
BRANCH 17 21
ATOM     21  CB  ASN J 606       0.401  19.364  71.768  1.00 63.43 LIG 0.14  C 
BRANCH 21 22
ATOM     22  CG  ASN J 606       1.710  19.920  71.235  1.00 67.06 LIG 0.22  C 
ATOM     23  ND2 ASN J 606       2.030  21.151  71.615  1.00 58.48 LIG-0.37  N 
ATOM     24 22HD ASN J 606       1.505  21.589  72.139  1.00 58.48 LIG 0.16  HD
ATOM     25 21HD ASN J 606       2.760  21.510  71.339  1.00 58.48 LIG 0.16  HD
ATOM     26 OD1  ASN J 606       2.423  19.249  70.488  1.00 73.16 LIG-0.27  OA
ENDBRANCH 21 22
ENDBRANCH 17 21
ENDBRANCH 14 17
ENDBRANCH 1 13
BRANCH 1 27
ATOM     27  N   TRP J 605      -3.725  21.194  68.935  1.00 80.26 LIG-0.34  N 
ATOM     28  C   ASP J 604      -4.471  22.036  68.221  1.00 69.06 LIG 0.26  C 
ATOM     29 O    ASP J 604      -4.745  23.180  68.585  1.00 67.02 LIG-0.27  OA
ATOM     30 H    TRP J 605      -3.570  20.384  68.692  1.00 80.26 LIG 0.16  HD
BRANCH 28 31
ATOM     31  CA  ASP J 604      -4.992  21.502  66.887  1.00 80.57 LIG 0.41  C 
ATOM     32  N   ASP J 604      -5.731  22.537  66.172  1.00 92.85 LIG 0.61  N 
BRANCH 31 33
ATOM     33  CB  ASP J 604      -3.836  20.982  66.030  1.00 75.75 LIG 0.16  C 
BRANCH 33 34
ATOM     34  CG  ASP J 604      -2.654  21.932  66.001  1.00 69.63 LIG 0.17  C 
ATOM     35 OD1  ASP J 604      -1.549  21.499  65.613  1.00 75.49 LIG-0.65  OA
ATOM     36 OD2  ASP J 604      -2.832  23.114  66.363  1.00 69.41 LIG-0.65  OA
ENDBRANCH 33 34
ENDBRANCH 31 33
ENDBRANCH 28 31
ENDBRANCH 1 27
TORSDOF 11
ENDMDL
MODEL 5
USER: ADFR SOLUTION from run 46
USER: SCORE 12.789392 LL:  -1.784 LR: -12.155 RR:   0.000 FEB:  -8.874
USER: RMSD 3.180616
USER: SEED 45
USER: STATUS no improvement in best in 4 clusters for 5 generations
USER: GENES 13
USER: genes 0 Translation |==|  0.46474 0.56078 0.44232
USER: genes 1 Rotation |==|  0.58602 0.48078 0.46669 0.99104
USER: genes 2 Torsion [C]-CA--CB-[CG] |==|  0.20495
USER: genes 3 Torsion [CA]-CB--CG-[CD2] |==|  0.52007
USER: genes 4 Torsion [N]-CA--C-[N] |==|  0.28402
USER: genes 5 Torsion [C]-N--CA-[CB] |==|  0.81653
USER: genes 6 Torsion [N]-CA--C-[O] |==|  0.03868
USER: genes 7 Torsion [N]-CA--CB-[CG] |==|  0.53359
USER: genes 8 Torsion [CA]-CB--CG-[ND2] |==|  0.19058
USER: genes 9 Torsion [CB]-CA--N-[C] |==|  0.24853
USER: genes 10 Torsion [N]-C--CA-[N] |==|  0.17118
USER: genes 11 Torsion [C]-CA--CB-[CG] |==|  0.79567
USER: genes 12 Torsion [CA]-CB--CG-[OD1] |==|  0.41583
ROOT
ATOM      1  CA  TRP J 605      -3.818  22.081  69.493  1.00 71.61 LIG 0.18  C 
ENDROOT
BRANCH 1 2
ATOM      2  CB  TRP J 605      -4.518  22.801  70.653  1.00 65.14 LIG 0.07  C 
BRANCH 2 3
ATOM      3  CG  TRP J 605      -3.590  23.251  71.742  1.00 62.37 LIG-0.03  A 
ATOM      4  CD2 TRP J 605      -3.961  23.814  73.005  1.00 57.80 LIG-0.00  A 
ATOM      5  CE3 TRP J 605      -5.184  24.125  73.608  1.00 58.94 LIG 0.01  A 
ATOM      6  CE2 TRP J 605      -2.770  24.079  73.711  1.00 56.30 LIG 0.04  A 
ATOM      7  CZ3 TRP J 605      -5.179  24.679  74.875  1.00 59.47 LIG 0.00  A 
ATOM      8  CH2 TRP J 605      -3.978  24.929  75.551  1.00 55.92 LIG 0.00  A 
ATOM      9  CZ2 TRP J 605      -2.767  24.637  74.987  1.00 56.02 LIG 0.03  A 
ATOM     10  NE1 TRP J 605      -1.725  23.690  72.914  1.00 57.88 LIG-0.36  N 
ATOM     11  CD1 TRP J 605      -2.226  23.194  71.736  1.00 63.10 LIG 0.10  A 
ATOM     12 HE1  TRP J 605      -0.892  23.749  73.118  1.00 57.88 LIG 0.17  HD
ENDBRANCH 2 3
ENDBRANCH 1 2
BRANCH 1 13
ATOM     13  C   TRP J 605      -3.399  20.676  69.930  1.00 60.32 LIG 0.24  C 
ATOM     14  N   ASN J 606      -2.158  20.316  69.608  1.00 74.38 LIG-0.34  N 
ATOM     15 H    ASN J 606      -1.638  20.801  69.124  1.00 74.38 LIG 0.16  HD
ATOM     16 O    TRP J 605      -4.178  19.948  70.544  1.00 56.87 LIG-0.27  OA
BRANCH 14 17
ATOM     17  CA  ASN J 606      -1.550  19.057  70.043  1.00 65.98 LIG 0.19  C 
BRANCH 17 18
ATOM     18  C   ASN J 606      -2.325  17.812  69.620  1.00 66.37 LIG 0.20  C 
ATOM     19 O    ASN J 606      -3.210  17.873  68.770  1.00 70.67 LIG-0.65  OA
ATOM     20 OXT  ASN J 606      -2.068  16.713  70.114  1.00 61.82 LIG-0.65  OA
ENDBRANCH 17 18
BRANCH 17 21
ATOM     21  CB  ASN J 606      -1.372  19.063  71.562  1.00 63.43 LIG 0.14  C 
BRANCH 21 22
ATOM     22  CG  ASN J 606      -0.489  17.926  72.048  1.00 67.06 LIG 0.22  C 
ATOM     23  ND2 ASN J 606       0.796  17.994  71.723  1.00 58.48 LIG-0.37  N 
ATOM     24 22HD ASN J 606       1.088  18.658  71.260  1.00 58.48 LIG 0.16  HD
ATOM     25 21HD ASN J 606       1.336  17.374  71.974  1.00 58.48 LIG 0.16  HD
ATOM     26 OD1  ASN J 606      -0.960  16.999  72.707  1.00 73.16 LIG-0.27  OA
ENDBRANCH 21 22
ENDBRANCH 17 21
ENDBRANCH 14 17
ENDBRANCH 1 13
BRANCH 1 27
ATOM     27  N   TRP J 605      -4.672  22.082  68.302  1.00 80.26 LIG-0.34  N 
ATOM     28  C   ASP J 604      -4.654  23.050  67.387  1.00 69.06 LIG 0.26  C 
ATOM     29 O    ASP J 604      -3.960  24.063  67.480  1.00 67.02 LIG-0.27  OA
ATOM     30 H    TRP J 605      -5.188  21.397  68.249  1.00 80.26 LIG 0.16  HD
BRANCH 28 31
ATOM     31  CA  ASP J 604      -5.565  22.844  66.178  1.00 80.57 LIG 0.41  C 
ATOM     32  N   ASP J 604      -6.962  22.769  66.592  1.00 92.85 LIG 0.61  N 
BRANCH 31 33
ATOM     33  CB  ASP J 604      -5.368  23.971  65.162  1.00 75.75 LIG 0.16  C 
BRANCH 33 34
ATOM     34  CG  ASP J 604      -5.985  25.281  65.613  1.00 69.63 LIG 0.17  C 
ATOM     35 OD1  ASP J 604      -5.459  26.349  65.237  1.00 75.49 LIG-0.65  OA
ATOM     36 OD2  ASP J 604      -6.999  25.242  66.341  1.00 69.41 LIG-0.65  OA
ENDBRANCH 33 34
ENDBRANCH 31 33
ENDBRANCH 28 31
ENDBRANCH 1 27
TORSDOF 11
ENDMDL
MODEL 6
USER: ADFR SOLUTION from run 132
USER: SCORE 13.124723 LL:  -1.560 LR: -12.097 RR:   0.000 FEB:  -8.815
USER: RMSD 3.099968
USER: SEED 131
USER: STATUS no improvement in best in 5 clusters for 5 generations
USER: GENES 13
USER: genes 0 Translation |==|  0.48452 0.57284 0.45801
USER: genes 1 Rotation |==|  0.60940 0.52191 0.56922 0.98245
USER: genes 2 Torsion [C]-CA--CB-[CG] |==|  0.19929
USER: genes 3 Torsion [CA]-CB--CG-[CD2] |==|  0.45708
USER: genes 4 Torsion [N]-CA--C-[N] |==|  0.85556
USER: genes 5 Torsion [C]-N--CA-[CB] |==|  0.85255
USER: genes 6 Torsion [N]-CA--C-[O] |==|  0.95748
USER: genes 7 Torsion [N]-CA--CB-[CG] |==|  0.65497
USER: genes 8 Torsion [CA]-CB--CG-[ND2] |==|  0.53752
USER: genes 9 Torsion [CB]-CA--N-[C] |==|  0.89396
USER: genes 10 Torsion [N]-C--CA-[N] |==|  0.33996
USER: genes 11 Torsion [C]-CA--CB-[CG] |==|  0.19768
USER: genes 12 Torsion [CA]-CB--CG-[OD1] |==|  0.14263
ROOT
ATOM      1  CA  TRP J 605      -3.477  22.271  69.764  1.00 71.61 LIG 0.18  C 
ENDROOT
BRANCH 1 2
ATOM      2  CB  TRP J 605      -4.292  22.539  71.035  1.00 65.14 LIG 0.07  C 
BRANCH 2 3
ATOM      3  CG  TRP J 605      -3.517  23.218  72.126  1.00 62.37 LIG-0.03  A 
ATOM      4  CD2 TRP J 605      -4.056  23.866  73.283  1.00 57.80 LIG-0.00  A 
ATOM      5  CE3 TRP J 605      -5.354  24.086  73.757  1.00 58.94 LIG 0.01  A 
ATOM      6  CE2 TRP J 605      -2.968  24.352  74.035  1.00 56.30 LIG 0.04  A 
ATOM      7  CZ3 TRP J 605      -5.520  24.772  74.946  1.00 59.47 LIG 0.00  A 
ATOM      8  CH2 TRP J 605      -4.418  25.243  75.670  1.00 55.92 LIG 0.00  A 
ATOM      9  CZ2 TRP J 605      -3.138  25.043  75.233  1.00 56.02 LIG 0.03  A 
ATOM     10  NE1 TRP J 605      -1.822  24.011  73.366  1.00 57.88 LIG-0.36  N 
ATOM     11  CD1 TRP J 605      -2.160  23.330  72.224  1.00 63.10 LIG 0.10  A 
ATOM     12 HE1  TRP J 605      -1.021  24.194  73.621  1.00 57.88 LIG 0.17  HD
ENDBRANCH 2 3
ENDBRANCH 1 2
BRANCH 1 13
ATOM     13  C   TRP J 605      -2.467  21.150  70.019  1.00 60.32 LIG 0.24  C 
ATOM     14  N   ASN J 606      -2.978  19.926  70.135  1.00 74.38 LIG-0.34  N 
ATOM     15 H    ASN J 606      -3.823  19.768  70.141  1.00 74.38 LIG 0.16  HD
ATOM     16 O    TRP J 605      -1.263  21.393  70.102  1.00 56.87 LIG-0.27  OA
BRANCH 14 17
ATOM     17  CA  ASN J 606      -2.154  18.723  70.266  1.00 65.98 LIG 0.19  C 
BRANCH 17 18
ATOM     18  C   ASN J 606      -1.438  18.601  71.608  1.00 66.37 LIG 0.20  C 
ATOM     19 O    ASN J 606      -1.335  19.566  72.363  1.00 70.67 LIG-0.65  OA
ATOM     20 OXT  ASN J 606      -0.959  17.526  71.971  1.00 61.82 LIG-0.65  OA
ENDBRANCH 17 18
BRANCH 17 21
ATOM     21  CB  ASN J 606      -1.133  18.665  69.129  1.00 63.43 LIG 0.14  C 
BRANCH 21 22
ATOM     22  CG  ASN J 606      -1.222  17.374  68.334  1.00 67.06 LIG 0.22  C 
ATOM     23  ND2 ASN J 606      -0.210  17.111  67.516  1.00 58.48 LIG-0.37  N 
ATOM     24 22HD ASN J 606       0.450  17.660  67.458  1.00 58.48 LIG 0.16  HD
ATOM     25 21HD ASN J 606      -0.215  16.393  67.043  1.00 58.48 LIG 0.16  HD
ATOM     26 OD1  ASN J 606      -2.191  16.624  68.454  1.00 73.16 LIG-0.27  OA
ENDBRANCH 21 22
ENDBRANCH 17 21
ENDBRANCH 14 17
ENDBRANCH 1 13
BRANCH 1 27
ATOM     27  N   TRP J 605      -4.369  21.996  68.635  1.00 80.26 LIG-0.34  N 
ATOM     28  C   ASP J 604      -5.493  21.289  68.742  1.00 69.06 LIG 0.26  C 
ATOM     29 O    ASP J 604      -5.863  20.753  69.787  1.00 67.02 LIG-0.27  OA
ATOM     30 H    TRP J 605      -4.098  22.334  67.892  1.00 80.26 LIG 0.16  HD
BRANCH 28 31
ATOM     31  CA  ASP J 604      -6.330  21.164  67.470  1.00 80.57 LIG 0.41  C 
ATOM     32  N   ASP J 604      -6.528  19.762  67.119  1.00 92.85 LIG 0.61  N 
BRANCH 31 33
ATOM     33  CB  ASP J 604      -7.677  21.867  67.644  1.00 75.75 LIG 0.16  C 
BRANCH 33 34
ATOM     34  CG  ASP J 604      -7.550  23.378  67.675  1.00 69.63 LIG 0.17  C 
ATOM     35 OD1  ASP J 604      -6.919  23.943  66.757  1.00 75.49 LIG-0.65  OA
ATOM     36 OD2  ASP J 604      -8.085  24.002  68.615  1.00 69.41 LIG-0.65  OA
ENDBRANCH 33 34
ENDBRANCH 31 33
ENDBRANCH 28 31
ENDBRANCH 1 27
TORSDOF 11
ENDMDL
MODEL 7
USER: ADFR SOLUTION from run 17
USER: SCORE 13.788104 LL:  -2.602 LR: -11.438 RR:   0.000 FEB:  -8.157
USER: RMSD 3.002176
USER: SEED 16
USER: STATUS no improvement in best in 4 clusters for 5 generations
USER: GENES 13
USER: genes 0 Translation |==|  0.51430 0.40256 0.32982
USER: genes 1 Rotation |==|  0.36037 0.44725 0.49988 0.97720
USER: genes 2 Torsion [C]-CA--CB-[CG] |==|  0.17076
USER: genes 3 Torsion [CA]-CB--CG-[CD2] |==|  0.70246
USER: genes 4 Torsion [N]-CA--C-[N] |==|  0.35125
USER: genes 5 Torsion [C]-N--CA-[CB] |==|  0.79578
USER: genes 6 Torsion [N]-CA--C-[O] |==|  0.03142
USER: genes 7 Torsion [N]-CA--CB-[CG] |==|  0.77228
USER: genes 8 Torsion [CA]-CB--CG-[ND2] |==|  0.69564
USER: genes 9 Torsion [CB]-CA--N-[C] |==|  0.87778
USER: genes 10 Torsion [N]-C--CA-[N] |==|  0.20314
USER: genes 11 Torsion [C]-CA--CB-[CG] |==|  0.50806
USER: genes 12 Torsion [CA]-CB--CG-[OD1] |==|  0.12055
ROOT
ATOM      1  CA  TRP J 605      -2.963  19.589  67.552  1.00 71.61 LIG 0.18  C 
ENDROOT
BRANCH 1 2
ATOM      2  CB  TRP J 605      -3.807  20.867  67.632  1.00 65.14 LIG 0.07  C 
BRANCH 2 3
ATOM      3  CG  TRP J 605      -3.094  22.033  68.253  1.00 62.37 LIG-0.03  A 
ATOM      4  CD2 TRP J 605      -3.327  22.586  69.552  1.00 57.80 LIG-0.00  A 
ATOM      5  CE3 TRP J 605      -4.212  22.283  70.593  1.00 58.94 LIG 0.01  A 
ATOM      6  CE2 TRP J 605      -2.427  23.658  69.719  1.00 56.30 LIG 0.04  A 
ATOM      7  CZ3 TRP J 605      -4.169  23.046  71.745  1.00 59.47 LIG 0.00  A 
ATOM      8  CH2 TRP J 605      -3.263  24.105  71.880  1.00 55.92 LIG 0.00  A 
ATOM      9  CZ2 TRP J 605      -2.386  24.425  70.881  1.00 56.02 LIG 0.03  A 
ATOM     10  NE1 TRP J 605      -1.680  23.747  68.573  1.00 57.88 LIG-0.36  N 
ATOM     11  CD1 TRP J 605      -2.085  22.768  67.700  1.00 63.10 LIG 0.10  A 
ATOM     12 HE1  TRP J 605      -1.059  24.323  68.425  1.00 57.88 LIG 0.17  HD
ENDBRANCH 2 3
ENDBRANCH 1 2
BRANCH 1 13
ATOM     13  C   TRP J 605      -2.572  19.135  68.960  1.00 60.32 LIG 0.24  C 
ATOM     14  N   ASN J 606      -1.286  19.273  69.276  1.00 74.38 LIG-0.34  N 
ATOM     15 H    ASN J 606      -0.688  19.530  68.713  1.00 74.38 LIG 0.16  HD
ATOM     16 O    TRP J 605      -3.415  18.680  69.734  1.00 56.87 LIG-0.27  OA
BRANCH 14 17
ATOM     17  CA  ASN J 606      -0.755  18.999  70.613  1.00 65.98 LIG 0.19  C 
BRANCH 17 18
ATOM     18  C   ASN J 606      -1.170  17.645  71.182  1.00 66.37 LIG 0.20  C 
ATOM     19 O    ASN J 606      -1.711  16.797  70.476  1.00 70.67 LIG-0.65  OA
ATOM     20 OXT  ASN J 606      -0.958  17.368  72.364  1.00 61.82 LIG-0.65  OA
ENDBRANCH 17 18
BRANCH 17 21
ATOM     21  CB  ASN J 606      -1.168  20.112  71.575  1.00 63.43 LIG 0.14  C 
BRANCH 21 22
ATOM     22  CG  ASN J 606      -0.263  21.329  71.480  1.00 67.06 LIG 0.22  C 
ATOM     23  ND2 ASN J 606       0.542  21.551  72.512  1.00 58.48 LIG-0.37  N 
ATOM     24 22HD ASN J 606       0.532  21.018  73.188  1.00 58.48 LIG 0.16  HD
ATOM     25 21HD ASN J 606       1.072  22.228  72.506  1.00 58.48 LIG 0.16  HD
ATOM     26 OD1  ASN J 606      -0.290  22.059  70.489  1.00 73.16 LIG-0.27  OA
ENDBRANCH 21 22
ENDBRANCH 17 21
ENDBRANCH 14 17
ENDBRANCH 1 13
BRANCH 1 27
ATOM     27  N   TRP J 605      -3.671  18.557  66.792  1.00 80.26 LIG-0.34  N 
ATOM     28  C   ASP J 604      -4.966  18.284  66.952  1.00 69.06 LIG 0.26  C 
ATOM     29 O    ASP J 604      -5.678  18.835  67.792  1.00 67.02 LIG-0.27  OA
ATOM     30 H    TRP J 605      -3.172  18.140  66.229  1.00 80.26 LIG 0.16  HD
BRANCH 28 31
ATOM     31  CA  ASP J 604      -5.546  17.222  66.020  1.00 80.57 LIG 0.41  C 
ATOM     32  N   ASP J 604      -5.085  15.892  66.404  1.00 92.85 LIG 0.61  N 
BRANCH 31 33
ATOM     33  CB  ASP J 604      -7.075  17.280  66.029  1.00 75.75 LIG 0.16  C 
BRANCH 33 34
ATOM     34  CG  ASP J 604      -7.707  16.199  65.173  1.00 69.63 LIG 0.17  C 
ATOM     35 OD1  ASP J 604      -7.245  15.040  65.238  1.00 75.49 LIG-0.65  OA
ATOM     36 OD2  ASP J 604      -8.668  16.507  64.438  1.00 69.41 LIG-0.65  OA
ENDBRANCH 33 34
ENDBRANCH 31 33
ENDBRANCH 28 31
ENDBRANCH 1 27
TORSDOF 11
ENDMDL
MODEL 8
USER: ADFR SOLUTION from run 97
USER: SCORE 12.798434 LL:  -1.784 LR: -11.420 RR:   0.000 FEB:  -8.138
USER: RMSD 3.369252
USER: SEED 96
USER: STATUS no improvement in best in 6 clusters for 5 generations
USER: GENES 13
USER: genes 0 Translation |==|  0.50258 0.63875 0.45838
USER: genes 1 Rotation |==|  0.69007 0.46576 0.54316 0.95917
USER: genes 2 Torsion [C]-CA--CB-[CG] |==|  0.25410
USER: genes 3 Torsion [CA]-CB--CG-[CD2] |==|  0.45017
USER: genes 4 Torsion [N]-CA--C-[N] |==|  0.47092
USER: genes 5 Torsion [C]-N--CA-[CB] |==|  0.41854
USER: genes 6 Torsion [N]-CA--C-[O] |==|  0.00843
USER: genes 7 Torsion [N]-CA--CB-[CG] |==|  0.89367
USER: genes 8 Torsion [CA]-CB--CG-[ND2] |==|  0.52793
USER: genes 9 Torsion [CB]-CA--N-[C] |==|  0.51165
USER: genes 10 Torsion [N]-C--CA-[N] |==|  0.89249
USER: genes 11 Torsion [C]-CA--CB-[CG] |==|  0.60585
USER: genes 12 Torsion [CA]-CB--CG-[OD1] |==|  0.14763
ROOT
ATOM      1  CA  TRP J 605      -3.166  23.309  69.770  1.00 71.61 LIG 0.18  C 
ENDROOT
BRANCH 1 2
ATOM      2  CB  TRP J 605      -4.145  23.267  70.950  1.00 65.14 LIG 0.07  C 
BRANCH 2 3
ATOM      3  CG  TRP J 605      -3.595  23.841  72.222  1.00 62.37 LIG-0.03  A 
ATOM      4  CD2 TRP J 605      -4.346  24.268  73.364  1.00 57.80 LIG-0.00  A 
ATOM      5  CE3 TRP J 605      -5.710  24.310  73.668  1.00 58.94 LIG 0.01  A 
ATOM      6  CE2 TRP J 605      -3.422  24.727  74.324  1.00 56.30 LIG 0.04  A 
ATOM      7  CZ3 TRP J 605      -6.102  24.800  74.900  1.00 59.47 LIG 0.00  A 
ATOM      8  CH2 TRP J 605      -5.159  25.249  75.834  1.00 55.92 LIG 0.00  A 
ATOM      9  CZ2 TRP J 605      -3.819  25.220  75.565  1.00 56.02 LIG 0.03  A 
ATOM     10  NE1 TRP J 605      -2.169  24.582  73.790  1.00 57.88 LIG-0.36  N 
ATOM     11  CD1 TRP J 605      -2.281  24.049  72.530  1.00 63.10 LIG 0.10  A 
ATOM     12 HE1  TRP J 605      -1.431  24.791  74.180  1.00 57.88 LIG 0.17  HD
ENDBRANCH 2 3
ENDBRANCH 1 2
BRANCH 1 13
ATOM     13  C   TRP J 605      -2.358  22.011  69.717  1.00 60.32 LIG 0.24  C 
ATOM     14  N   ASN J 606      -1.519  21.809  70.732  1.00 74.38 LIG-0.34  N 
ATOM     15 H    ASN J 606      -1.377  22.393  71.347  1.00 74.38 LIG 0.16  HD
ATOM     16 O    TRP J 605      -2.498  21.218  68.786  1.00 56.87 LIG-0.27  OA
BRANCH 14 17
ATOM     17  CA  ASN J 606      -0.753  20.573  70.905  1.00 65.98 LIG 0.19  C 
BRANCH 17 18
ATOM     18  C   ASN J 606      -1.509  19.470  71.640  1.00 66.37 LIG 0.20  C 
ATOM     19 O    ASN J 606      -2.678  19.624  71.988  1.00 70.67 LIG-0.65  OA
ATOM     20 OXT  ASN J 606      -0.966  18.393  71.890  1.00 61.82 LIG-0.65  OA
ENDBRANCH 17 18
BRANCH 17 21
ATOM     21  CB  ASN J 606       0.559  20.871  71.631  1.00 63.43 LIG 0.14  C 
BRANCH 21 22
ATOM     22  CG  ASN J 606       1.179  22.187  71.193  1.00 67.06 LIG 0.22  C 
ATOM     23  ND2 ASN J 606       2.415  22.429  71.613  1.00 58.48 LIG-0.37  N 
ATOM     24 22HD ASN J 606       2.822  21.853  72.107  1.00 58.48 LIG 0.16  HD
ATOM     25 21HD ASN J 606       2.808  23.160  71.393  1.00 58.48 LIG 0.16  HD
ATOM     26 OD1  ASN J 606       0.552  22.976  70.486  1.00 73.16 LIG-0.27  OA
ENDBRANCH 21 22
ENDBRANCH 17 21
ENDBRANCH 14 17
ENDBRANCH 1 13
BRANCH 1 27
ATOM     27  N   TRP J 605      -3.880  23.593  68.523  1.00 80.26 LIG-0.34  N 
ATOM     28  C   ASP J 604      -3.294  23.609  67.327  1.00 69.06 LIG 0.26  C 
ATOM     29 O    ASP J 604      -2.085  23.441  67.160  1.00 67.02 LIG-0.27  OA
ATOM     30 H    TRP J 605      -4.719  23.749  68.635  1.00 80.26 LIG 0.16  HD
BRANCH 28 31
ATOM     31  CA  ASP J 604      -4.214  23.855  66.133  1.00 80.57 LIG 0.41  C 
ATOM     32  N   ASP J 604      -5.488  23.167  66.314  1.00 92.85 LIG 0.61  N 
BRANCH 31 33
ATOM     33  CB  ASP J 604      -4.440  25.354  65.932  1.00 75.75 LIG 0.16  C 
BRANCH 33 34
ATOM     34  CG  ASP J 604      -5.861  25.681  65.512  1.00 69.63 LIG 0.17  C 
ATOM     35 OD1  ASP J 604      -6.803  25.248  66.208  1.00 75.49 LIG-0.65  OA
ATOM     36 OD2  ASP J 604      -6.034  26.374  64.488  1.00 69.41 LIG-0.65  OA
ENDBRANCH 33 34
ENDBRANCH 31 33
ENDBRANCH 28 31
ENDBRANCH 1 27
TORSDOF 11
ENDMDL
MODEL 9
USER: ADFR SOLUTION from run 138
USER: SCORE 12.846234 LL:  -2.002 LR: -11.249 RR:   0.000 FEB:  -7.967
USER: RMSD 4.309122
USER: SEED 137
USER: STATUS no improvement in best in 7 clusters for 5 generations
USER: GENES 13
USER: genes 0 Translation |==|  0.49897 0.41507 0.32675
USER: genes 1 Rotation |==|  0.37893 0.43483 0.52926 0.97983
USER: genes 2 Torsion [C]-CA--CB-[CG] |==|  0.28315
USER: genes 3 Torsion [CA]-CB--CG-[CD2] |==|  0.39524
USER: genes 4 Torsion [N]-CA--C-[N] |==|  0.33655
USER: genes 5 Torsion [C]-N--CA-[CB] |==|  0.80139
USER: genes 6 Torsion [N]-CA--C-[O] |==|  0.02532
USER: genes 7 Torsion [N]-CA--CB-[CG] |==|  0.80410
USER: genes 8 Torsion [CA]-CB--CG-[ND2] |==|  0.65495
USER: genes 9 Torsion [CB]-CA--N-[C] |==|  0.88333
USER: genes 10 Torsion [N]-C--CA-[N] |==|  0.27038
USER: genes 11 Torsion [C]-CA--CB-[CG] |==|  0.56806
USER: genes 12 Torsion [CA]-CB--CG-[OD1] |==|  0.95002
ROOT
ATOM      1  CA  TRP J 605      -3.228  19.786  67.499  1.00 71.61 LIG 0.18  C 
ENDROOT
BRANCH 1 2
ATOM      2  CB  TRP J 605      -4.236  20.933  67.642  1.00 65.14 LIG 0.07  C 
BRANCH 2 3
ATOM      3  CG  TRP J 605      -3.650  22.295  67.409  1.00 62.37 LIG-0.03  A 
ATOM      4  CD2 TRP J 605      -4.280  23.397  66.748  1.00 57.80 LIG-0.00  A 
ATOM      5  CE3 TRP J 605      -5.526  23.580  66.139  1.00 58.94 LIG 0.01  A 
ATOM      6  CE2 TRP J 605      -3.370  24.473  66.767  1.00 56.30 LIG 0.04  A 
ATOM      7  CZ3 TRP J 605      -5.817  24.810  65.578  1.00 59.47 LIG 0.00  A 
ATOM      8  CH2 TRP J 605      -4.891  25.860  65.613  1.00 55.92 LIG 0.00  A 
ATOM      9  CZ2 TRP J 605      -3.666  25.711  66.202  1.00 56.02 LIG 0.03  A 
ATOM     10  NE1 TRP J 605      -2.241  24.043  67.413  1.00 57.88 LIG-0.36  N 
ATOM     11  CD1 TRP J 605      -2.417  22.737  67.796  1.00 63.10 LIG 0.10  A 
ATOM     12 HE1  TRP J 605      -1.535  24.514  67.555  1.00 57.88 LIG 0.17  HD
ENDBRANCH 2 3
ENDBRANCH 1 2
BRANCH 1 13
ATOM     13  C   TRP J 605      -2.792  19.302  68.884  1.00 60.32 LIG 0.24  C 
ATOM     14  N   ASN J 606      -1.510  19.492  69.187  1.00 74.38 LIG-0.34  N 
ATOM     15 H    ASN J 606      -0.935  19.799  68.626  1.00 74.38 LIG 0.16  HD
ATOM     16 O    TRP J 605      -3.599  18.778  69.652  1.00 56.87 LIG-0.27  OA
BRANCH 14 17
ATOM     17  CA  ASN J 606      -0.945  19.197  70.505  1.00 65.98 LIG 0.19  C 
BRANCH 17 18
ATOM     18  C   ASN J 606      -1.242  17.788  71.009  1.00 66.37 LIG 0.20  C 
ATOM     19 O    ASN J 606      -1.756  16.946  70.275  1.00 70.67 LIG-0.65  OA
ATOM     20 OXT  ASN J 606      -0.960  17.458  72.162  1.00 61.82 LIG-0.65  OA
ENDBRANCH 17 18
BRANCH 17 21
ATOM     21  CB  ASN J 606      -1.438  20.224  71.524  1.00 63.43 LIG 0.14  C 
BRANCH 21 22
ATOM     22  CG  ASN J 606      -0.831  21.600  71.304  1.00 67.06 LIG 0.22  C 
ATOM     23  ND2 ASN J 606      -0.193  22.138  72.335  1.00 58.48 LIG-0.37  N 
ATOM     24 22HD ASN J 606      -0.139  21.709  73.079  1.00 58.48 LIG 0.16  HD
ATOM     25 21HD ASN J 606       0.166  22.916  72.260  1.00 58.48 LIG 0.16  HD
ATOM     26 OD1  ASN J 606      -0.939  22.169  70.217  1.00 73.16 LIG-0.27  OA
ENDBRANCH 21 22
ENDBRANCH 17 21
ENDBRANCH 14 17
ENDBRANCH 1 13
BRANCH 1 27
ATOM     27  N   TRP J 605      -3.784  18.718  66.666  1.00 80.26 LIG-0.34  N 
ATOM     28  C   ASP J 604      -5.043  18.293  66.760  1.00 69.06 LIG 0.26  C 
ATOM     29 O    ASP J 604      -5.844  18.717  67.593  1.00 67.02 LIG-0.27  OA
ATOM     30 H    TRP J 605      -3.220  18.389  66.106  1.00 80.26 LIG 0.16  HD
BRANCH 28 31
ATOM     31  CA  ASP J 604      -5.463  17.218  65.759  1.00 80.57 LIG 0.41  C 
ATOM     32  N   ASP J 604      -5.375  15.891  66.361  1.00 92.85 LIG 0.61  N 
BRANCH 31 33
ATOM     33  CB  ASP J 604      -6.883  17.481  65.255  1.00 75.75 LIG 0.16  C 
BRANCH 33 34
ATOM     34  CG  ASP J 604      -7.573  16.223  64.762  1.00 69.63 LIG 0.17  C 
ATOM     35 OD1  ASP J 604      -6.872  15.226  64.488  1.00 75.49 LIG-0.65  OA
ATOM     36 OD2  ASP J 604      -8.816  16.231  64.653  1.00 69.41 LIG-0.65  OA
ENDBRANCH 33 34
ENDBRANCH 31 33
ENDBRANCH 28 31
ENDBRANCH 1 27
TORSDOF 11
ENDMDL
MODEL 10
USER: ADFR SOLUTION from run 23
USER: SCORE 12.351249 LL:  -1.959 LR: -10.980 RR:   0.000 FEB:  -7.699
USER: RMSD 2.672247
USER: SEED 22
USER: STATUS no improvement in best in 5 clusters for 5 generations
USER: GENES 13
USER: genes 0 Translation |==|  0.50598 0.50862 0.47169
USER: genes 1 Rotation |==|  0.58934 0.38797 0.61314 0.96548
USER: genes 2 Torsion [C]-CA--CB-[CG] |==|  0.27888
USER: genes 3 Torsion [CA]-CB--CG-[CD2] |==|  0.89092
USER: genes 4 Torsion [N]-CA--C-[N] |==|  0.11667
USER: genes 5 Torsion [C]-N--CA-[CB] |==|  0.81730
USER: genes 6 Torsion [N]-CA--C-[O] |==|  0.12584
USER: genes 7 Torsion [N]-CA--CB-[CG] |==|  0.85894
USER: genes 8 Torsion [CA]-CB--CG-[ND2] |==|  0.74283
USER: genes 9 Torsion [CB]-CA--N-[C] |==|  0.77988
USER: genes 10 Torsion [N]-C--CA-[N] |==|  0.61181
USER: genes 11 Torsion [C]-CA--CB-[CG] |==|  0.20220
USER: genes 12 Torsion [CA]-CB--CG-[OD1] |==|  0.18015
ROOT
ATOM      1  CA  TRP J 605      -3.107  21.260  70.000  1.00 71.61 LIG 0.18  C 
ENDROOT
BRANCH 1 2
ATOM      2  CB  TRP J 605      -4.495  21.433  70.628  1.00 65.14 LIG 0.07  C 
BRANCH 2 3
ATOM      3  CG  TRP J 605      -4.611  22.623  71.535  1.00 62.37 LIG-0.03  A 
ATOM      4  CD2 TRP J 605      -3.623  23.096  72.458  1.00 57.80 LIG-0.00  A 
ATOM      5  CE3 TRP J 605      -2.342  22.663  72.816  1.00 58.94 LIG 0.01  A 
ATOM      6  CE2 TRP J 605      -4.153  24.239  73.088  1.00 56.30 LIG 0.04  A 
ATOM      7  CZ3 TRP J 605      -1.644  23.374  73.774  1.00 59.47 LIG 0.00  A 
ATOM      8  CH2 TRP J 605      -2.198  24.507  74.383  1.00 55.92 LIG 0.00  A 
ATOM      9  CZ2 TRP J 605      -3.447  24.954  74.054  1.00 56.02 LIG 0.03  A 
ATOM     10  NE1 TRP J 605      -5.403  24.451  72.569  1.00 57.88 LIG-0.36  N 
ATOM     11  CD1 TRP J 605      -5.669  23.479  71.638  1.00 63.10 LIG 0.10  A 
ATOM     12 HE1  TRP J 605      -5.936  25.090  72.791  1.00 57.88 LIG 0.17  HD
ENDBRANCH 2 3
ENDBRANCH 1 2
BRANCH 1 13
ATOM     13  C   TRP J 605      -2.321  20.190  70.760  1.00 60.32 LIG 0.24  C 
ATOM     14  N   ASN J 606      -1.228  19.733  70.154  1.00 74.38 LIG-0.34  N 
ATOM     15 H    ASN J 606      -1.003  19.961  69.355  1.00 74.38 LIG 0.16  HD
ATOM     16 O    TRP J 605      -2.697  19.798  71.865  1.00 56.87 LIG-0.27  OA
BRANCH 14 17
ATOM     17  CA  ASN J 606      -0.295  18.795  70.781  1.00 65.98 LIG 0.19  C 
BRANCH 17 18
ATOM     18  C   ASN J 606      -0.935  17.483  71.224  1.00 66.37 LIG 0.20  C 
ATOM     19 O    ASN J 606      -1.707  16.872  70.488  1.00 70.67 LIG-0.65  OA
ATOM     20 OXT  ASN J 606      -0.680  16.998  72.328  1.00 61.82 LIG-0.65  OA
ENDBRANCH 17 18
BRANCH 17 21
ATOM     21  CB  ASN J 606       0.392  19.463  71.973  1.00 63.43 LIG 0.14  C 
BRANCH 21 22
ATOM     22  CG  ASN J 606       0.990  20.813  71.618  1.00 67.06 LIG 0.22  C 
ATOM     23  ND2 ASN J 606       2.261  20.817  71.238  1.00 58.48 LIG-0.37  N 
ATOM     24 22HD ASN J 606       2.702  20.078  71.202  1.00 58.48 LIG 0.16  HD
ATOM     25 21HD ASN J 606       2.645  21.557  71.028  1.00 58.48 LIG 0.16  HD
ATOM     26 OD1  ASN J 606       0.314  21.840  71.688  1.00 73.16 LIG-0.27  OA
ENDBRANCH 21 22
ENDBRANCH 17 21
ENDBRANCH 14 17
ENDBRANCH 1 13
BRANCH 1 27
ATOM     27  N   TRP J 605      -3.227  20.975  68.568  1.00 80.26 LIG-0.34  N 
ATOM     28  C   ASP J 604      -3.530  19.773  68.080  1.00 69.06 LIG 0.26  C 
ATOM     29 O    ASP J 604      -3.684  18.773  68.782  1.00 67.02 LIG-0.27  OA
ATOM     30 H    TRP J 605      -3.083  21.660  68.068  1.00 80.26 LIG 0.16  HD
BRANCH 28 31
ATOM     31  CA  ASP J 604      -3.680  19.684  66.563  1.00 80.57 LIG 0.41  C 
ATOM     32  N   ASP J 604      -4.803  18.824  66.205  1.00 92.85 LIG 0.61  N 
BRANCH 31 33
ATOM     33  CB  ASP J 604      -3.861  21.078  65.959  1.00 75.75 LIG 0.16  C 
BRANCH 33 34
ATOM     34  CG  ASP J 604      -2.581  21.892  65.969  1.00 69.63 LIG 0.17  C 
ATOM     35 OD1  ASP J 604      -1.619  21.499  65.277  1.00 75.49 LIG-0.65  OA
ATOM     36 OD2  ASP J 604      -2.540  22.927  66.666  1.00 69.41 LIG-0.65  OA
ENDBRANCH 33 34
ENDBRANCH 31 33
ENDBRANCH 28 31
ENDBRANCH 1 27
TORSDOF 11
ENDMDL
