MODEL 1
USER: ADFR SOLUTION from run 29
USER: SCORE 14.789817 LL:  -5.294 LR: -10.139 RR:   0.000 FEB:  -4.770
USER: RMSD 5.364664
USER: SEED 28
USER: STATUS no improvement in best in 2 clusters for 5 generations
USER: GENES 20
USER: genes 0 Translation |==|  0.45464 0.41126 0.55163
USER: genes 1 Rotation |==|  0.34975 0.26963 0.28358 0.85710
USER: genes 2 Torsion [N]-C--CA-[N] |==|  0.03410
USER: genes 3 Torsion [C]-CA--N-[C] |==|  0.66462
USER: genes 4 Torsion [N]-C--CA-[N] |==|  0.94613
USER: genes 5 Torsion [C]-CA--N-[C] |==|  0.82345
USER: genes 6 Torsion [N]-C--CA-[N] |==|  0.36215
USER: genes 7 Torsion [C]-CA--CB-[CG] |==|  0.11874
USER: genes 8 Torsion [CA]-CB--CG-[OD2] |==|  0.57373
USER: genes 9 Torsion [C]-CA--CB-[CG] |==|  0.76779
USER: genes 10 Torsion [CA]-CB--CG-[CD1] |==|  0.22956
USER: genes 11 Torsion [C]-CA--CB-[CG2] |==|  0.41353
USER: genes 12 Torsion [CA]-CB--OG1-[HG1] |==|  0.04405
USER: genes 13 Torsion [C]-N--CA-[C] |==|  0.79330
USER: genes 14 Torsion [N]-CA--CB-[CG] |==|  0.71449
USER: genes 15 Torsion [CA]-CB--CG-[CD] |==|  0.86120
USER: genes 16 Torsion [CB]-CG--CD-[NE] |==|  0.73698
USER: genes 17 Torsion [CG]-CD--NE-[CZ] |==|  0.82577
USER: genes 18 Torsion [N]-CA--C-[N] |==|  0.82778
USER: genes 19 Torsion [N]-CA--C-[O] |==|  0.77397
ROOT
ATOM      1  C   THR B 201       8.134  35.955 -10.666  1.00 36.45 LIG 0.24  C 
ATOM      2 O    THR B 201       7.964  36.423  -9.538  1.00 40.30 LIG-0.27  OA
ATOM      3  N   ARG B 202       9.318  35.547 -11.111  1.00 33.32 LIG-0.35  N 
ATOM      4 H    ARG B 202       9.429  35.171 -11.877  1.00 33.32 LIG 0.16  HD
ENDROOT
BRANCH 1 5
ATOM      5  CA  THR B 201       6.963  35.812 -11.643  1.00 30.51 LIG 0.20  C 
BRANCH 5 6
ATOM      6  N   THR B 201       7.287  34.986 -12.810  1.00 29.33 LIG-0.34  N 
ATOM      7  C   LEU B 200       7.205  35.472 -14.046  1.00 28.22 LIG 0.24  C 
ATOM      8 O    LEU B 200       6.971  36.655 -14.280  1.00 25.98 LIG-0.27  OA
ATOM      9 H    THR B 201       7.526  34.181 -12.623  1.00 29.33 LIG 0.16  HD
BRANCH 7 10
ATOM     10  CA  LEU B 200       7.430  34.490 -15.191  1.00 30.55 LIG 0.18  C 
BRANCH 10 11
ATOM     11  N   LEU B 200       8.128  33.297 -14.754  1.00 35.39 LIG-0.35  N 
ATOM     12 H    LEU B 200       7.677  32.569 -14.827  1.00 35.39 LIG 0.16  HD
ATOM     13  C   ASP B 199       9.367  33.363 -14.284  1.00 42.58 LIG 0.26  C 
ATOM     14 O    ASP B 199       9.975  34.426 -14.157  1.00 44.96 LIG-0.27  OA
BRANCH 13 15
ATOM     15  CA  ASP B 199      10.003  32.036 -13.885  1.00 43.98 LIG 0.41  C 
ATOM     16  N   ASP B 199      11.330  31.897 -14.478  1.00 41.74 LIG 0.61  N 
BRANCH 15 17
ATOM     17  CB  ASP B 199      10.077  31.929 -12.363  1.00 46.67 LIG 0.16  C 
BRANCH 17 18
ATOM     18  CG  ASP B 199       8.806  32.408 -11.678  1.00 50.58 LIG 0.17  C 
ATOM     19 OD2  ASP B 199       8.890  32.846 -10.510  1.00 55.98 LIG-0.65  OA
ATOM     20 OD1  ASP B 199       7.722  32.338 -12.294  1.00 45.33 LIG-0.65  OA
ENDBRANCH 17 18
ENDBRANCH 15 17
ENDBRANCH 13 15
ENDBRANCH 10 11
BRANCH 10 21
ATOM     21  CB  LEU B 200       6.094  34.110 -15.824  1.00 29.00 LIG 0.04  C 
BRANCH 21 22
ATOM     22  CG  LEU B 200       5.337  32.990 -15.115  1.00 29.82 LIG-0.02  C 
ATOM     23  CD1 LEU B 200       4.557  33.553 -13.939  1.00 24.53 LIG 0.01  C 
ATOM     24  CD2 LEU B 200       4.406  32.297 -16.100  1.00 31.40 LIG 0.01  C 
ENDBRANCH 21 22
ENDBRANCH 10 21
ENDBRANCH 7 10
ENDBRANCH 5 6
BRANCH 5 25
ATOM     25  CB  THR B 201       5.744  35.249 -10.878  1.00 29.82 LIG 0.15  C 
ATOM     26  CG2 THR B 201       4.449  35.765 -11.473  1.00 24.76 LIG 0.04  C 
BRANCH 25 27
ATOM     27 OG1  THR B 201       5.752  33.818 -10.940  1.00 30.74 LIG-0.39  OA
ATOM     28 HG1  THR B 201       6.511  33.552 -11.183  1.00 30.74 LIG 0.21  HD
ENDBRANCH 25 27
ENDBRANCH 5 25
ENDBRANCH 1 5
BRANCH 3 29
ATOM     29  CA  ARG B 202      10.553  35.697 -10.342  1.00 35.80 LIG 0.18  C 
BRANCH 29 30
ATOM     30  CB  ARG B 202      11.609  34.763 -10.930  1.00 39.99 LIG 0.04  C 
BRANCH 30 31
ATOM     31  CG  ARG B 202      11.801  33.525 -10.095  1.00 43.12 LIG 0.02  C 
BRANCH 31 32
ATOM     32  CD  ARG B 202      12.006  33.844  -8.634  1.00 49.76 LIG 0.14  C 
BRANCH 32 33
ATOM     33  NE  ARG B 202      13.427  33.914  -8.318  1.00 51.61 LIG-0.23  N 
ATOM     34  CZ  ARG B 202      14.262  32.888  -8.430  1.00 53.48 LIG 0.67  C 
ATOM     35  NH2 ARG B 202      15.543  33.039  -8.126  1.00 55.46 LIG-0.23  N 
ATOM     36  NH1 ARG B 202      13.813  31.710  -8.847  1.00 53.58 LIG-0.23  N 
ATOM     37 2HH2 ARG B 202      16.083  32.375  -8.198  1.00 55.46 LIG 0.17  HD
ATOM     38 1HH2 ARG B 202      15.833  33.802  -7.856  1.00 55.46 LIG 0.17  HD
ATOM     39 2HH1 ARG B 202      14.354  31.046  -8.920  1.00 53.58 LIG 0.17  HD
ATOM     40 1HH1 ARG B 202      12.982  31.613  -9.045  1.00 53.58 LIG 0.17  HD
ATOM     41 HE   ARG B 202      13.744  34.665  -8.043  1.00 51.61 LIG 0.18  HD
ENDBRANCH 32 33
ENDBRANCH 31 32
ENDBRANCH 30 31
ENDBRANCH 29 30
BRANCH 29 42
ATOM     42  C   ARG B 202      11.001  37.182 -10.368  1.00 54.52 LIG 0.24  C 
ATOM     43 O    ARG B 202      11.049  37.794  -9.306  1.00 52.27 LIG-0.27  OA
ATOM     44  N   PRO B 203      11.314  37.766 -11.565  1.00 63.22 LIG-0.34  N 
ATOM     45  CD  PRO B 203      10.626  37.503 -12.836  1.00 67.52 LIG 0.13  C 
ATOM     46  CA  PRO B 203      11.939  39.090 -11.701  1.00 66.04 LIG 0.17  C 
ATOM     47  CG  PRO B 203       9.926  38.835 -13.061  1.00 67.94 LIG 0.02  C 
ATOM     48  CB  PRO B 203      10.803  39.905 -12.340  1.00 64.70 LIG 0.04  C 
BRANCH 46 49
ATOM     49  C   PRO B 203      12.447  39.795 -10.443  1.00 68.17 LIG 0.22  C 
ATOM     50 O    PRO B 203      11.634  40.404  -9.745  1.00 70.96 LIG-0.29  OA
ENDBRANCH 46 49
ENDBRANCH 29 42
ENDBRANCH 3 29
TORSDOF 18
ENDMDL
MODEL 2
USER: ADFR SOLUTION from run 123
USER: SCORE 14.677254 LL:  -5.728 LR:  -9.800 RR:   0.000 FEB:  -4.431
USER: RMSD 5.067335
USER: SEED 122
USER: STATUS no improvement in best in 5 clusters for 5 generations
USER: GENES 20
USER: genes 0 Translation |==|  0.59108 0.44115 0.62249
USER: genes 1 Rotation |==|  0.27504 0.29821 0.53862 0.89646
USER: genes 2 Torsion [N]-C--CA-[N] |==|  0.88025
USER: genes 3 Torsion [C]-CA--N-[C] |==|  0.74626
USER: genes 4 Torsion [N]-C--CA-[N] |==|  0.02257
USER: genes 5 Torsion [C]-CA--N-[C] |==|  0.72693
USER: genes 6 Torsion [N]-C--CA-[N] |==|  0.35026
USER: genes 7 Torsion [C]-CA--CB-[CG] |==|  0.17468
USER: genes 8 Torsion [CA]-CB--CG-[OD2] |==|  0.22365
USER: genes 9 Torsion [C]-CA--CB-[CG] |==|  0.24695
USER: genes 10 Torsion [CA]-CB--CG-[CD1] |==|  0.33502
USER: genes 11 Torsion [C]-CA--CB-[CG2] |==|  0.58199
USER: genes 12 Torsion [CA]-CB--OG1-[HG1] |==|  0.78633
USER: genes 13 Torsion [C]-N--CA-[C] |==|  0.79302
USER: genes 14 Torsion [N]-CA--CB-[CG] |==|  0.78979
USER: genes 15 Torsion [CA]-CB--CG-[CD] |==|  0.21667
USER: genes 16 Torsion [CB]-CG--CD-[NE] |==|  0.56060
USER: genes 17 Torsion [CG]-CD--NE-[CZ] |==|  0.54748
USER: genes 18 Torsion [N]-CA--C-[N] |==|  0.81900
USER: genes 19 Torsion [N]-CA--C-[O] |==|  0.73594
ROOT
ATOM      1  C   THR B 201      10.487  36.493  -9.337  1.00 36.45 LIG 0.24  C 
ATOM      2 O    THR B 201      10.411  37.501  -8.631  1.00 40.30 LIG-0.27  OA
ATOM      3  N   ARG B 202      11.379  36.356 -10.313  1.00 33.32 LIG-0.35  N 
ATOM      4 H    ARG B 202      11.470  35.634 -10.771  1.00 33.32 LIG 0.16  HD
ENDROOT
BRANCH 1 5
ATOM      5  CA  THR B 201       9.536  35.310  -9.127  1.00 30.51 LIG 0.20  C 
BRANCH 5 6
ATOM      6  N   THR B 201       9.022  34.757 -10.383  1.00 29.33 LIG-0.34  N 
ATOM      7  C   LEU B 200       7.884  35.196 -10.916  1.00 28.22 LIG 0.24  C 
ATOM      8 O    LEU B 200       7.262  36.153 -10.462  1.00 25.98 LIG-0.27  OA
ATOM      9 H    THR B 201       9.511  34.142 -10.729  1.00 29.33 LIG 0.16  HD
BRANCH 7 10
ATOM     10  CA  LEU B 200       7.370  34.458 -12.148  1.00 30.55 LIG 0.18  C 
BRANCH 10 11
ATOM     11  N   LEU B 200       8.137  33.259 -12.423  1.00 35.39 LIG-0.35  N 
ATOM     12 H    LEU B 200       7.911  32.573 -11.956  1.00 35.39 LIG 0.16  HD
ATOM     13  C   ASP B 199       9.103  33.259 -13.331  1.00 42.58 LIG 0.26  C 
ATOM     14 O    ASP B 199       9.427  34.267 -13.959  1.00 44.96 LIG-0.27  OA
BRANCH 13 15
ATOM     15  CA  ASP B 199       9.816  31.928 -13.549  1.00 43.98 LIG 0.41  C 
ATOM     16  N   ASP B 199       9.794  31.552 -14.960  1.00 41.74 LIG 0.61  N 
BRANCH 15 17
ATOM     17  CB  ASP B 199      11.252  32.015 -13.035  1.00 46.67 LIG 0.16  C 
BRANCH 17 18
ATOM     18  CG  ASP B 199      11.325  32.268 -11.537  1.00 50.58 LIG 0.17  C 
ATOM     19 OD2  ASP B 199      11.172  31.297 -10.764  1.00 55.98 LIG-0.65  OA
ATOM     20 OD1  ASP B 199      11.521  33.431 -11.127  1.00 45.33 LIG-0.65  OA
ENDBRANCH 17 18
ENDBRANCH 15 17
ENDBRANCH 13 15
ENDBRANCH 10 11
BRANCH 10 21
ATOM     21  CB  LEU B 200       5.895  34.105 -11.970  1.00 29.00 LIG 0.04  C 
BRANCH 21 22
ATOM     22  CG  LEU B 200       4.913  35.174 -12.443  1.00 29.82 LIG-0.02  C 
ATOM     23  CD1 LEU B 200       4.008  34.607 -13.524  1.00 24.53 LIG 0.01  C 
ATOM     24  CD2 LEU B 200       4.094  35.677 -11.261  1.00 31.40 LIG 0.01  C 
ENDBRANCH 21 22
ENDBRANCH 10 21
ENDBRANCH 7 10
ENDBRANCH 5 6
BRANCH 5 25
ATOM     25  CB  THR B 201      10.264  34.231  -8.295  1.00 29.82 LIG 0.15  C 
ATOM     26  CG2 THR B 201       9.748  32.848  -8.638  1.00 24.76 LIG 0.04  C 
BRANCH 25 27
ATOM     27 OG1  THR B 201      11.671  34.286  -8.556  1.00 30.74 LIG-0.39  OA
ATOM     28 HG1  THR B 201      11.833  33.928  -9.299  1.00 30.74 LIG 0.21  HD
ENDBRANCH 25 27
ENDBRANCH 5 25
ENDBRANCH 1 5
BRANCH 3 29
ATOM     29  CA  ARG B 202      12.299  37.424 -10.706  1.00 35.80 LIG 0.18  C 
BRANCH 29 30
ATOM     30  CB  ARG B 202      13.438  36.810 -11.519  1.00 39.99 LIG 0.04  C 
BRANCH 30 31
ATOM     31  CG  ARG B 202      14.426  36.080 -10.649  1.00 43.12 LIG 0.02  C 
BRANCH 31 32
ATOM     32  CD  ARG B 202      13.925  34.720 -10.228  1.00 49.76 LIG 0.14  C 
BRANCH 32 33
ATOM     33  NE  ARG B 202      14.615  34.267  -9.027  1.00 51.61 LIG-0.23  N 
ATOM     34  CZ  ARG B 202      14.630  33.005  -8.614  1.00 53.48 LIG 0.67  C 
ATOM     35  NH2 ARG B 202      15.288  32.677  -7.511  1.00 55.46 LIG-0.23  N 
ATOM     36  NH1 ARG B 202      13.988  32.072  -9.306  1.00 53.58 LIG-0.23  N 
ATOM     37 2HH2 ARG B 202      15.298  31.860  -7.244  1.00 55.46 LIG 0.17  HD
ATOM     38 1HH2 ARG B 202      15.704  33.281  -7.064  1.00 55.46 LIG 0.17  HD
ATOM     39 2HH1 ARG B 202      13.998  31.255  -9.038  1.00 53.58 LIG 0.17  HD
ATOM     40 1HH1 ARG B 202      13.562  32.285 -10.022  1.00 53.58 LIG 0.17  HD
ATOM     41 HE   ARG B 202      15.037  34.851  -8.559  1.00 51.61 LIG 0.18  HD
ENDBRANCH 32 33
ENDBRANCH 31 32
ENDBRANCH 30 31
ENDBRANCH 29 30
BRANCH 29 42
ATOM     42  C   ARG B 202      11.524  38.506 -11.504  1.00 54.52 LIG 0.24  C 
ATOM     43 O    ARG B 202      11.412  39.623 -11.010  1.00 52.27 LIG-0.27  OA
ATOM     44  N   PRO B 203      10.983  38.183 -12.718  1.00 63.22 LIG-0.34  N 
ATOM     45  CD  PRO B 203      10.376  36.887 -13.052  1.00 67.52 LIG 0.13  C 
ATOM     46  CA  PRO B 203      10.407  39.161 -13.653  1.00 66.04 LIG 0.17  C 
ATOM     47  CG  PRO B 203       8.914  37.285 -13.187  1.00 67.94 LIG 0.02  C 
ATOM     48  CB  PRO B 203       8.917  38.784 -13.617  1.00 64.70 LIG 0.04  C 
BRANCH 46 49
ATOM     49  C   PRO B 203      10.579  40.651 -13.356  1.00 68.17 LIG 0.22  C 
ATOM     50 O    PRO B 203       9.673  41.237 -12.759  1.00 70.96 LIG-0.29  OA
ENDBRANCH 46 49
ENDBRANCH 29 42
ENDBRANCH 3 29
TORSDOF 18
ENDMDL
MODEL 3
USER: ADFR SOLUTION from run 159
USER: SCORE 14.615127 LL:  -5.528 LR:  -9.454 RR:   0.000 FEB:  -4.084
USER: RMSD 4.689688
USER: SEED 158
USER: STATUS no improvement in best in 3 clusters for 5 generations
USER: GENES 20
USER: genes 0 Translation |==|  0.53418 0.39170 0.60568
USER: genes 1 Rotation |==|  0.43537 0.33750 0.47235 0.96760
USER: genes 2 Torsion [N]-C--CA-[N] |==|  0.86156
USER: genes 3 Torsion [C]-CA--N-[C] |==|  0.81174
USER: genes 4 Torsion [N]-C--CA-[N] |==|  0.89141
USER: genes 5 Torsion [C]-CA--N-[C] |==|  0.84374
USER: genes 6 Torsion [N]-C--CA-[N] |==|  0.37899
USER: genes 7 Torsion [C]-CA--CB-[CG] |==|  0.07607
USER: genes 8 Torsion [CA]-CB--CG-[OD2] |==|  0.66713
USER: genes 9 Torsion [C]-CA--CB-[CG] |==|  0.56216
USER: genes 10 Torsion [CA]-CB--CG-[CD1] |==|  0.36645
USER: genes 11 Torsion [C]-CA--CB-[CG2] |==|  0.25892
USER: genes 12 Torsion [CA]-CB--OG1-[HG1] |==|  0.23469
USER: genes 13 Torsion [C]-N--CA-[C] |==|  0.60218
USER: genes 14 Torsion [N]-CA--CB-[CG] |==|  0.02867
USER: genes 15 Torsion [CA]-CB--CG-[CD] |==|  0.73862
USER: genes 16 Torsion [CB]-CG--CD-[NE] |==|  0.76579
USER: genes 17 Torsion [CG]-CD--NE-[CZ] |==|  0.68073
USER: genes 18 Torsion [N]-CA--C-[N] |==|  0.41168
USER: genes 19 Torsion [N]-CA--C-[O] |==|  0.19881
ROOT
ATOM      1  C   THR B 201       9.506  35.603  -9.653  1.00 36.45 LIG 0.24  C 
ATOM      2 O    THR B 201       9.634  35.858  -8.453  1.00 40.30 LIG-0.27  OA
ATOM      3  N   ARG B 202      10.233  36.186 -10.600  1.00 33.32 LIG-0.35  N 
ATOM      4 H    ARG B 202      10.183  35.972 -11.431  1.00 33.32 LIG 0.16  HD
ENDROOT
BRANCH 1 5
ATOM      5  CA  THR B 201       8.477  34.574 -10.133  1.00 30.51 LIG 0.20  C 
BRANCH 5 6
ATOM      6  N   THR B 201       7.630  35.075 -11.219  1.00 29.33 LIG-0.34  N 
ATOM      7  C   LEU B 200       6.746  36.049 -11.013  1.00 28.22 LIG 0.24  C 
ATOM      8 O    LEU B 200       6.666  36.660  -9.951  1.00 25.98 LIG-0.27  OA
ATOM      9 H    THR B 201       7.755  34.689 -11.977  1.00 29.33 LIG 0.16  HD
BRANCH 7 10
ATOM     10  CA  LEU B 200       5.821  36.399 -12.174  1.00 30.55 LIG 0.18  C 
BRANCH 10 11
ATOM     11  N   LEU B 200       6.510  36.357 -13.449  1.00 35.39 LIG-0.35  N 
ATOM     12 H    LEU B 200       6.157  35.833 -14.031  1.00 35.39 LIG 0.16  HD
ATOM     13  C   ASP B 199       7.596  37.087 -13.663  1.00 42.58 LIG 0.26  C 
ATOM     14 O    ASP B 199       8.099  37.802 -12.796  1.00 44.96 LIG-0.27  OA
BRANCH 13 15
ATOM     15  CA  ASP B 199       8.211  36.979 -15.054  1.00 43.98 LIG 0.41  C 
ATOM     16  N   ASP B 199       8.591  38.296 -15.558  1.00 41.74 LIG 0.61  N 
BRANCH 15 17
ATOM     17  CB  ASP B 199       9.420  36.045 -15.019  1.00 46.67 LIG 0.16  C 
BRANCH 17 18
ATOM     18  CG  ASP B 199       9.323  35.001 -13.917  1.00 50.58 LIG 0.17  C 
ATOM     19 OD2  ASP B 199      10.213  34.983 -13.038  1.00 55.98 LIG-0.65  OA
ATOM     20 OD1  ASP B 199       8.373  34.191 -13.930  1.00 45.33 LIG-0.65  OA
ENDBRANCH 17 18
ENDBRANCH 15 17
ENDBRANCH 13 15
ENDBRANCH 10 11
BRANCH 10 21
ATOM     21  CB  LEU B 200       4.626  35.449 -12.195  1.00 29.00 LIG 0.04  C 
BRANCH 21 22
ATOM     22  CG  LEU B 200       3.926  35.320 -13.546  1.00 29.82 LIG-0.02  C 
ATOM     23  CD1 LEU B 200       3.712  33.854 -13.884  1.00 24.53 LIG 0.01  C 
ATOM     24  CD2 LEU B 200       2.599  36.067 -13.509  1.00 31.40 LIG 0.01  C 
ENDBRANCH 21 22
ENDBRANCH 10 21
ENDBRANCH 7 10
ENDBRANCH 5 6
BRANCH 5 25
ATOM     25  CB  THR B 201       9.222  33.286 -10.551  1.00 29.82 LIG 0.15  C 
ATOM     26  CG2 THR B 201       9.294  32.307  -9.397  1.00 24.76 LIG 0.04  C 
BRANCH 25 27
ATOM     27 OG1  THR B 201       8.542  32.669 -11.651  1.00 30.74 LIG-0.39  OA
ATOM     28 HG1  THR B 201       8.795  33.021 -12.370  1.00 30.74 LIG 0.21  HD
ENDBRANCH 25 27
ENDBRANCH 5 25
ENDBRANCH 1 5
BRANCH 3 29
ATOM     29  CA  ARG B 202      11.192  37.255 -10.322  1.00 35.80 LIG 0.18  C 
BRANCH 29 30
ATOM     30  CB  ARG B 202      12.574  36.632 -10.134  1.00 39.99 LIG 0.04  C 
BRANCH 30 31
ATOM     31  CG  ARG B 202      12.600  35.178 -10.526  1.00 43.12 LIG 0.02  C 
BRANCH 31 32
ATOM     32  CD  ARG B 202      12.367  34.262  -9.350  1.00 49.76 LIG 0.14  C 
BRANCH 32 33
ATOM     33  NE  ARG B 202      13.614  34.018  -8.634  1.00 51.61 LIG-0.23  N 
ATOM     34  CZ  ARG B 202      14.199  32.829  -8.551  1.00 53.48 LIG 0.67  C 
ATOM     35  NH2 ARG B 202      15.336  32.696  -7.884  1.00 55.46 LIG-0.23  N 
ATOM     36  NH1 ARG B 202      13.647  31.775  -9.139  1.00 53.58 LIG-0.23  N 
ATOM     37 2HH2 ARG B 202      15.716  31.927  -7.830  1.00 55.46 LIG 0.17  HD
ATOM     38 1HH2 ARG B 202      15.694  33.380  -7.505  1.00 55.46 LIG 0.17  HD
ATOM     39 2HH1 ARG B 202      14.026  31.006  -9.085  1.00 53.58 LIG 0.17  HD
ATOM     40 1HH1 ARG B 202      12.910  31.862  -9.572  1.00 53.58 LIG 0.17  HD
ATOM     41 HE   ARG B 202      13.992  34.684  -8.242  1.00 51.61 LIG 0.18  HD
ENDBRANCH 32 33
ENDBRANCH 31 32
ENDBRANCH 30 31
ENDBRANCH 29 30
BRANCH 29 42
ATOM     42  C   ARG B 202      11.166  38.288 -11.480  1.00 54.52 LIG 0.24  C 
ATOM     43 O    ARG B 202      10.928  37.885 -12.614  1.00 52.27 LIG-0.27  OA
ATOM     44  N   PRO B 203      11.419  39.605 -11.207  1.00 63.22 LIG-0.34  N 
ATOM     45  CD  PRO B 203      12.396  40.088 -10.222  1.00 67.52 LIG 0.13  C 
ATOM     46  CA  PRO B 203      11.228  40.700 -12.170  1.00 66.04 LIG 0.17  C 
ATOM     47  CG  PRO B 203      13.442  40.706 -11.138  1.00 67.94 LIG 0.02  C 
ATOM     48  CB  PRO B 203      12.677  41.146 -12.424  1.00 64.70 LIG 0.04  C 
BRANCH 46 49
ATOM     49  C   PRO B 203      10.531  40.398 -13.497  1.00 68.17 LIG 0.22  C 
ATOM     50 O    PRO B 203       9.319  40.172 -13.484  1.00 70.96 LIG-0.29  OA
ENDBRANCH 46 49
ENDBRANCH 29 42
ENDBRANCH 3 29
TORSDOF 18
ENDMDL
MODEL 4
USER: ADFR SOLUTION from run 57
USER: SCORE 13.347186 LL:  -4.310 LR:  -9.419 RR:   0.000 FEB:  -4.050
USER: RMSD 4.648216
USER: SEED 56
USER: STATUS no improvement in best in 4 clusters for 5 generations
USER: GENES 20
USER: genes 0 Translation |==|  0.57816 0.35191 0.60880
USER: genes 1 Rotation |==|  0.55043 0.44672 0.37136 0.97757
USER: genes 2 Torsion [N]-C--CA-[N] |==|  0.00414
USER: genes 3 Torsion [C]-CA--N-[C] |==|  0.67542
USER: genes 4 Torsion [N]-C--CA-[N] |==|  0.93187
USER: genes 5 Torsion [C]-CA--N-[C] |==|  0.81114
USER: genes 6 Torsion [N]-C--CA-[N] |==|  0.34820
USER: genes 7 Torsion [C]-CA--CB-[CG] |==|  0.20047
USER: genes 8 Torsion [CA]-CB--CG-[OD2] |==|  0.93386
USER: genes 9 Torsion [C]-CA--CB-[CG] |==|  0.18318
USER: genes 10 Torsion [CA]-CB--CG-[CD1] |==|  0.39819
USER: genes 11 Torsion [C]-CA--CB-[CG2] |==|  0.83657
USER: genes 12 Torsion [CA]-CB--OG1-[HG1] |==|  0.94099
USER: genes 13 Torsion [C]-N--CA-[C] |==|  0.65400
USER: genes 14 Torsion [N]-CA--CB-[CG] |==|  0.68568
USER: genes 15 Torsion [CA]-CB--CG-[CD] |==|  0.09416
USER: genes 16 Torsion [CB]-CG--CD-[NE] |==|  0.39158
USER: genes 17 Torsion [CG]-CD--NE-[CZ] |==|  0.23725
USER: genes 18 Torsion [N]-CA--C-[N] |==|  0.47886
USER: genes 19 Torsion [N]-CA--C-[O] |==|  0.17555
ROOT
ATOM      1  C   THR B 201      10.264  34.886  -9.594  1.00 36.45 LIG 0.24  C 
ATOM      2 O    THR B 201      10.756  34.349  -8.599  1.00 40.30 LIG-0.27  OA
ATOM      3  N   ARG B 202      10.908  35.794 -10.321  1.00 33.32 LIG-0.35  N 
ATOM      4 H    ARG B 202      10.589  36.131 -11.045  1.00 33.32 LIG 0.16  HD
ENDROOT
BRANCH 1 5
ATOM      5  CA  THR B 201       8.850  34.531 -10.063  1.00 30.51 LIG 0.20  C 
BRANCH 5 6
ATOM      6  N   THR B 201       8.452  35.245 -11.279  1.00 29.33 LIG-0.34  N 
ATOM      7  C   LEU B 200       7.432  36.099 -11.278  1.00 28.22 LIG 0.24  C 
ATOM      8 O    LEU B 200       6.842  36.428 -10.252  1.00 25.98 LIG-0.27  OA
ATOM      9 H    THR B 201       8.928  35.062 -11.972  1.00 29.33 LIG 0.16  HD
BRANCH 7 10
ATOM     10  CA  LEU B 200       7.017  36.682 -12.625  1.00 30.55 LIG 0.18  C 
BRANCH 10 11
ATOM     11  N   LEU B 200       8.106  36.669 -13.581  1.00 35.39 LIG-0.35  N 
ATOM     12 H    LEU B 200       7.999  36.129 -14.241  1.00 35.39 LIG 0.16  HD
ATOM     13  C   ASP B 199       9.170  37.445 -13.417  1.00 42.58 LIG 0.26  C 
ATOM     14 O    ASP B 199       9.311  38.182 -12.441  1.00 44.96 LIG-0.27  OA
BRANCH 13 15
ATOM     15  CA  ASP B 199      10.233  37.362 -14.507  1.00 43.98 LIG 0.41  C 
ATOM     16  N   ASP B 199      10.521  38.685 -15.052  1.00 41.74 LIG 0.61  N 
BRANCH 15 17
ATOM     17  CB  ASP B 199      11.502  36.718 -13.950  1.00 46.67 LIG 0.16  C 
BRANCH 17 18
ATOM     18  CG  ASP B 199      11.344  35.226 -13.706  1.00 50.58 LIG 0.17  C 
ATOM     19 OD2  ASP B 199      10.192  34.772 -13.527  1.00 55.98 LIG-0.65  OA
ATOM     20 OD1  ASP B 199      12.363  34.504 -13.679  1.00 45.33 LIG-0.65  OA
ENDBRANCH 17 18
ENDBRANCH 15 17
ENDBRANCH 13 15
ENDBRANCH 10 11
BRANCH 10 21
ATOM     21  CB  LEU B 200       5.823  35.910 -13.183  1.00 29.00 LIG 0.04  C 
BRANCH 21 22
ATOM     22  CG  LEU B 200       4.533  36.045 -12.378  1.00 29.82 LIG-0.02  C 
ATOM     23  CD1 LEU B 200       3.337  36.083 -13.314  1.00 24.53 LIG 0.01  C 
ATOM     24  CD2 LEU B 200       4.417  34.884 -11.398  1.00 31.40 LIG 0.01  C 
ENDBRANCH 21 22
ENDBRANCH 10 21
ENDBRANCH 7 10
ENDBRANCH 5 6
BRANCH 5 25
ATOM     25  CB  THR B 201       8.762  33.000 -10.256  1.00 29.82 LIG 0.15  C 
ATOM     26  CG2 THR B 201       9.782  32.527 -11.271  1.00 24.76 LIG 0.04  C 
BRANCH 25 27
ATOM     27 OG1  THR B 201       8.999  32.340  -9.007  1.00 30.74 LIG-0.39  OA
ATOM     28 HG1  THR B 201       9.415  32.856  -8.491  1.00 30.74 LIG 0.21  HD
ENDBRANCH 25 27
ENDBRANCH 5 25
ENDBRANCH 1 5
BRANCH 3 29
ATOM     29  CA  ARG B 202      12.227  36.313  -9.960  1.00 35.80 LIG 0.18  C 
BRANCH 29 30
ATOM     30  CB  ARG B 202      13.240  35.834 -10.998  1.00 39.99 LIG 0.04  C 
BRANCH 30 31
ATOM     31  CG  ARG B 202      14.237  34.868 -10.415  1.00 43.12 LIG 0.02  C 
BRANCH 31 32
ATOM     32  CD  ARG B 202      13.632  33.996  -9.343  1.00 49.76 LIG 0.14  C 
BRANCH 32 33
ATOM     33  NE  ARG B 202      14.144  32.634  -9.438  1.00 51.61 LIG-0.23  N 
ATOM     34  CZ  ARG B 202      15.277  32.229  -8.877  1.00 53.48 LIG 0.67  C 
ATOM     35  NH2 ARG B 202      15.668  30.970  -9.009  1.00 55.46 LIG-0.23  N 
ATOM     36  NH1 ARG B 202      16.018  33.085  -8.184  1.00 53.58 LIG-0.23  N 
ATOM     37 2HH2 ARG B 202      16.401  30.707  -8.646  1.00 55.46 LIG 0.17  HD
ATOM     38 1HH2 ARG B 202      15.188  30.416  -9.458  1.00 55.46 LIG 0.17  HD
ATOM     39 2HH1 ARG B 202      16.752  32.822  -7.821  1.00 53.58 LIG 0.17  HD
ATOM     40 1HH1 ARG B 202      15.764  33.902  -8.098  1.00 53.58 LIG 0.17  HD
ATOM     41 HE   ARG B 202      13.685  32.060  -9.884  1.00 51.61 LIG 0.18  HD
ENDBRANCH 32 33
ENDBRANCH 31 32
ENDBRANCH 30 31
ENDBRANCH 29 30
BRANCH 29 42
ATOM     42  C   ARG B 202      12.167  37.861  -9.868  1.00 54.52 LIG 0.24  C 
ATOM     43 O    ARG B 202      11.144  38.426 -10.240  1.00 52.27 LIG-0.27  OA
ATOM     44  N   PRO B 203      13.251  38.545  -9.390  1.00 63.22 LIG-0.34  N 
ATOM     45  CD  PRO B 203      14.653  38.184  -9.642  1.00 67.52 LIG 0.13  C 
ATOM     46  CA  PRO B 203      13.247  39.980  -9.067  1.00 66.04 LIG 0.17  C 
ATOM     47  CG  PRO B 203      15.086  39.334 -10.539  1.00 67.94 LIG 0.02  C 
ATOM     48  CB  PRO B 203      14.183  40.544 -10.148  1.00 64.70 LIG 0.04  C 
BRANCH 46 49
ATOM     49  C   PRO B 203      11.916  40.732  -9.081  1.00 68.17 LIG 0.22  C 
ATOM     50 O    PRO B 203      11.046  40.397  -8.275  1.00 70.96 LIG-0.29  OA
ENDBRANCH 46 49
ENDBRANCH 29 42
ENDBRANCH 3 29
TORSDOF 18
ENDMDL
MODEL 5
USER: ADFR SOLUTION from run 83
USER: SCORE 13.353490 LL:  -5.115 LR:  -8.871 RR:   0.000 FEB:  -3.501
USER: RMSD 5.755476
USER: SEED 82
USER: STATUS no improvement in best in 6 clusters for 5 generations
USER: GENES 20
USER: genes 0 Translation |==|  0.48568 0.40552 0.55962
USER: genes 1 Rotation |==|  0.37881 0.18680 0.29150 0.80618
USER: genes 2 Torsion [N]-C--CA-[N] |==|  0.98477
USER: genes 3 Torsion [C]-CA--N-[C] |==|  0.73775
USER: genes 4 Torsion [N]-C--CA-[N] |==|  0.95668
USER: genes 5 Torsion [C]-CA--N-[C] |==|  0.80430
USER: genes 6 Torsion [N]-C--CA-[N] |==|  0.33574
USER: genes 7 Torsion [C]-CA--CB-[CG] |==|  0.12978
USER: genes 8 Torsion [CA]-CB--CG-[OD2] |==|  0.58138
USER: genes 9 Torsion [C]-CA--CB-[CG] |==|  0.56978
USER: genes 10 Torsion [CA]-CB--CG-[CD1] |==|  0.47790
USER: genes 11 Torsion [C]-CA--CB-[CG2] |==|  0.53687
USER: genes 12 Torsion [CA]-CB--OG1-[HG1] |==|  0.85826
USER: genes 13 Torsion [C]-N--CA-[C] |==|  0.78314
USER: genes 14 Torsion [N]-CA--CB-[CG] |==|  0.77981
USER: genes 15 Torsion [CA]-CB--CG-[CD] |==|  0.48951
USER: genes 16 Torsion [CB]-CG--CD-[NE] |==|  0.12668
USER: genes 17 Torsion [CG]-CD--NE-[CZ] |==|  0.50363
USER: genes 18 Torsion [N]-CA--C-[N] |==|  0.81249
USER: genes 19 Torsion [N]-CA--C-[O] |==|  0.75912
ROOT
ATOM      1  C   THR B 201       8.669  35.851 -10.516  1.00 36.45 LIG 0.24  C 
ATOM      2 O    THR B 201       8.066  36.427  -9.607  1.00 40.30 LIG-0.27  OA
ATOM      3  N   ARG B 202       9.956  35.528 -10.442  1.00 33.32 LIG-0.35  N 
ATOM      4 H    ARG B 202      10.365  35.080 -11.052  1.00 33.32 LIG 0.16  HD
ENDROOT
BRANCH 1 5
ATOM      5  CA  THR B 201       7.953  35.466 -11.815  1.00 30.51 LIG 0.20  C 
BRANCH 5 6
ATOM      6  N   THR B 201       8.857  34.908 -12.824  1.00 29.33 LIG-0.34  N 
ATOM      7  C   LEU B 200       9.401  35.676 -13.766  1.00 28.22 LIG 0.24  C 
ATOM      8 O    LEU B 200       9.276  36.897 -13.781  1.00 25.98 LIG-0.27  OA
ATOM      9 H    THR B 201       8.997  34.063 -12.751  1.00 29.33 LIG 0.16  HD
BRANCH 7 10
ATOM     10  CA  LEU B 200      10.215  34.972 -14.846  1.00 30.55 LIG 0.18  C 
BRANCH 10 11
ATOM     11  N   LEU B 200      10.560  33.615 -14.469  1.00 35.39 LIG-0.35  N 
ATOM     12 H    LEU B 200      10.150  33.003 -14.911  1.00 35.39 LIG 0.16  HD
ATOM     13  C   ASP B 199      11.446  33.377 -13.510  1.00 42.58 LIG 0.26  C 
ATOM     14 O    ASP B 199      11.991  34.275 -12.869  1.00 44.96 LIG-0.27  OA
BRANCH 13 15
ATOM     15  CA  ASP B 199      11.745  31.909 -13.227  1.00 43.98 LIG 0.41  C 
ATOM     16  N   ASP B 199      13.164  31.621 -13.423  1.00 41.74 LIG 0.61  N 
BRANCH 15 17
ATOM     17  CB  ASP B 199      11.313  31.553 -11.805  1.00 46.67 LIG 0.16  C 
BRANCH 17 18
ATOM     18  CG  ASP B 199       9.920  32.064 -11.471  1.00 50.58 LIG 0.17  C 
ATOM     19 OD2  ASP B 199       9.663  32.347 -10.280  1.00 55.98 LIG-0.65  OA
ATOM     20 OD1  ASP B 199       9.077  32.173 -12.385  1.00 45.33 LIG-0.65  OA
ENDBRANCH 17 18
ENDBRANCH 15 17
ENDBRANCH 13 15
ENDBRANCH 10 11
BRANCH 10 21
ATOM     21  CB  LEU B 200       9.442  34.966 -16.163  1.00 29.00 LIG 0.04  C 
BRANCH 21 22
ATOM     22  CG  LEU B 200       9.811  33.838 -17.124  1.00 29.82 LIG-0.02  C 
ATOM     23  CD1 LEU B 200       8.849  33.821 -18.300  1.00 24.53 LIG 0.01  C 
ATOM     24  CD2 LEU B 200      11.246  34.020 -17.601  1.00 31.40 LIG 0.01  C 
ENDBRANCH 21 22
ENDBRANCH 10 21
ENDBRANCH 7 10
ENDBRANCH 5 6
BRANCH 5 25
ATOM     25  CB  THR B 201       6.811  34.480 -11.477  1.00 29.82 LIG 0.15  C 
ATOM     26  CG2 THR B 201       6.283  33.819 -12.734  1.00 24.76 LIG 0.04  C 
BRANCH 25 27
ATOM     27 OG1  THR B 201       7.292  33.471 -10.581  1.00 30.74 LIG-0.39  OA
ATOM     28 HG1  THR B 201       7.998  33.135 -10.890  1.00 30.74 LIG 0.21  HD
ENDBRANCH 25 27
ENDBRANCH 5 25
ENDBRANCH 1 5
BRANCH 3 29
ATOM     29  CA  ARG B 202      10.808  35.904  -9.314  1.00 35.80 LIG 0.18  C 
BRANCH 29 30
ATOM     30  CB  ARG B 202      12.017  34.970  -9.284  1.00 39.99 LIG 0.04  C 
BRANCH 30 31
ATOM     31  CG  ARG B 202      11.687  33.633  -8.675  1.00 43.12 LIG 0.02  C 
BRANCH 31 32
ATOM     32  CD  ARG B 202      12.853  32.677  -8.726  1.00 49.76 LIG 0.14  C 
BRANCH 32 33
ATOM     33  NE  ARG B 202      14.081  33.340  -8.305  1.00 51.61 LIG-0.23  N 
ATOM     34  CZ  ARG B 202      15.269  32.748  -8.276  1.00 53.48 LIG 0.67  C 
ATOM     35  NH2 ARG B 202      16.338  33.427  -7.884  1.00 55.46 LIG-0.23  N 
ATOM     36  NH1 ARG B 202      15.387  31.477  -8.639  1.00 53.58 LIG-0.23  N 
ATOM     37 2HH2 ARG B 202      17.107  33.044  -7.865  1.00 55.46 LIG 0.17  HD
ATOM     38 1HH2 ARG B 202      16.261  34.250  -7.650  1.00 55.46 LIG 0.17  HD
ATOM     39 2HH1 ARG B 202      16.156  31.094  -8.620  1.00 53.58 LIG 0.17  HD
ATOM     40 1HH1 ARG B 202      14.694  31.037  -8.894  1.00 53.58 LIG 0.17  HD
ATOM     41 HE   ARG B 202      14.033  34.163  -8.062  1.00 51.61 LIG 0.18  HD
ENDBRANCH 32 33
ENDBRANCH 31 32
ENDBRANCH 30 31
ENDBRANCH 29 30
BRANCH 29 42
ATOM     42  C   ARG B 202      11.219  37.394  -9.449  1.00 54.52 LIG 0.24  C 
ATOM     43 O    ARG B 202      10.773  38.196  -8.636  1.00 52.27 LIG-0.27  OA
ATOM     44  N   PRO B 203      12.050  37.769 -10.470  1.00 63.22 LIG-0.34  N 
ATOM     45  CD  PRO B 203      12.024  37.205 -11.827  1.00 67.52 LIG 0.13  C 
ATOM     46  CA  PRO B 203      12.668  39.097 -10.587  1.00 66.04 LIG 0.17  C 
ATOM     47  CG  PRO B 203      11.509  38.397 -12.620  1.00 67.94 LIG 0.02  C 
ATOM     48  CB  PRO B 203      11.955  39.663 -11.826  1.00 64.70 LIG 0.04  C 
BRANCH 46 49
ATOM     49  C   PRO B 203      12.540  40.073  -9.417  1.00 68.17 LIG 0.22  C 
ATOM     50 O    PRO B 203      11.541  40.793  -9.362  1.00 70.96 LIG-0.29  OA
ENDBRANCH 46 49
ENDBRANCH 29 42
ENDBRANCH 3 29
TORSDOF 18
ENDMDL
MODEL 6
USER: ADFR SOLUTION from run 2
USER: SCORE 14.093118 LL:  -5.578 LR:  -8.696 RR:   0.000 FEB:  -3.327
USER: RMSD 4.296424
USER: SEED 617015
USER: STATUS no improvement in best in 3 clusters for 5 generations
USER: GENES 20
USER: genes 0 Translation |==|  0.64578 0.34338 0.63366
USER: genes 1 Rotation |==|  0.48462 0.49488 0.43878 0.99597
USER: genes 2 Torsion [N]-C--CA-[N] |==|  0.02064
USER: genes 3 Torsion [C]-CA--N-[C] |==|  0.75807
USER: genes 4 Torsion [N]-C--CA-[N] |==|  0.96957
USER: genes 5 Torsion [C]-CA--N-[C] |==|  0.79765
USER: genes 6 Torsion [N]-C--CA-[N] |==|  0.43818
USER: genes 7 Torsion [C]-CA--CB-[CG] |==|  0.83708
USER: genes 8 Torsion [CA]-CB--CG-[OD2] |==|  0.42833
USER: genes 9 Torsion [C]-CA--CB-[CG] |==|  0.48922
USER: genes 10 Torsion [CA]-CB--CG-[CD1] |==|  0.28824
USER: genes 11 Torsion [C]-CA--CB-[CG2] |==|  0.62364
USER: genes 12 Torsion [CA]-CB--OG1-[HG1] |==|  0.76174
USER: genes 13 Torsion [C]-N--CA-[C] |==|  0.73328
USER: genes 14 Torsion [N]-CA--CB-[CG] |==|  0.73708
USER: genes 15 Torsion [CA]-CB--CG-[CD] |==|  0.11747
USER: genes 16 Torsion [CB]-CG--CD-[NE] |==|  0.72694
USER: genes 17 Torsion [CG]-CD--NE-[CZ] |==|  0.50765
USER: genes 18 Torsion [N]-CA--C-[N] |==|  0.44295
USER: genes 19 Torsion [N]-CA--C-[O] |==|  0.66608
ROOT
ATOM      1  C   THR B 201      11.431  34.733  -9.128  1.00 36.45 LIG 0.24  C 
ATOM      2 O    THR B 201      12.241  34.607  -8.207  1.00 40.30 LIG-0.27  OA
ATOM      3  N   ARG B 202      11.630  35.542 -10.164  1.00 33.32 LIG-0.35  N 
ATOM      4 H    ARG B 202      11.092  35.591 -10.833  1.00 33.32 LIG 0.16  HD
ENDROOT
BRANCH 1 5
ATOM      5  CA  THR B 201      10.116  33.946  -9.133  1.00 30.51 LIG 0.20  C 
BRANCH 5 6
ATOM      6  N   THR B 201       9.366  34.091 -10.383  1.00 29.33 LIG-0.34  N 
ATOM      7  C   LEU B 200       8.511  35.096 -10.563  1.00 28.22 LIG 0.24  C 
ATOM      8 O    LEU B 200       8.384  36.013  -9.756  1.00 25.98 LIG-0.27  OA
ATOM      9 H    THR B 201       9.526  33.483 -10.969  1.00 29.33 LIG 0.16  HD
BRANCH 7 10
ATOM     10  CA  LEU B 200       7.681  35.076 -11.842  1.00 30.55 LIG 0.18  C 
BRANCH 10 11
ATOM     11  N   LEU B 200       8.153  34.076 -12.780  1.00 35.39 LIG-0.35  N 
ATOM     12 H    LEU B 200       7.646  33.386 -12.856  1.00 35.39 LIG 0.16  HD
ATOM     13  C   ASP B 199       9.284  34.248 -13.451  1.00 42.58 LIG 0.26  C 
ATOM     14 O    ASP B 199      10.009  35.231 -13.294  1.00 44.96 LIG-0.27  OA
BRANCH 13 15
ATOM     15  CA  ASP B 199       9.657  33.138 -14.429  1.00 43.98 LIG 0.41  C 
ATOM     16  N   ASP B 199      10.573  33.635 -15.453  1.00 41.74 LIG 0.61  N 
BRANCH 15 17
ATOM     17  CB  ASP B 199      10.276  31.963 -13.674  1.00 46.67 LIG 0.16  C 
BRANCH 17 18
ATOM     18  CG  ASP B 199      11.518  32.358 -12.891  1.00 50.58 LIG 0.17  C 
ATOM     19 OD2  ASP B 199      11.827  31.679 -11.887  1.00 55.98 LIG-0.65  OA
ATOM     20 OD1  ASP B 199      12.182  33.348 -13.263  1.00 45.33 LIG-0.65  OA
ENDBRANCH 17 18
ENDBRANCH 15 17
ENDBRANCH 13 15
ENDBRANCH 10 11
BRANCH 10 21
ATOM     21  CB  LEU B 200       6.212  34.827 -11.510  1.00 29.00 LIG 0.04  C 
BRANCH 21 22
ATOM     22  CG  LEU B 200       5.262  34.877 -12.704  1.00 29.82 LIG-0.02  C 
ATOM     23  CD1 LEU B 200       4.860  33.469 -13.108  1.00 24.53 LIG 0.01  C 
ATOM     24  CD2 LEU B 200       4.036  35.709 -12.348  1.00 31.40 LIG 0.01  C 
ENDBRANCH 21 22
ENDBRANCH 10 21
ENDBRANCH 7 10
ENDBRANCH 5 6
BRANCH 5 25
ATOM     25  CB  THR B 201      10.427  32.461  -8.834  1.00 29.82 LIG 0.15  C 
ATOM     26  CG2 THR B 201       9.658  31.552  -9.772  1.00 24.76 LIG 0.04  C 
BRANCH 25 27
ATOM     27 OG1  THR B 201      11.830  32.219  -8.990  1.00 30.74 LIG-0.39  OA
ATOM     28 HG1  THR B 201      11.999  32.051  -9.796  1.00 30.74 LIG 0.21  HD
ENDBRANCH 25 27
ENDBRANCH 5 25
ENDBRANCH 1 5
BRANCH 3 29
ATOM     29  CA  ARG B 202      12.786  36.431 -10.269  1.00 35.80 LIG 0.18  C 
BRANCH 29 30
ATOM     30  CB  ARG B 202      13.260  36.444 -11.721  1.00 39.99 LIG 0.04  C 
BRANCH 30 31
ATOM     31  CG  ARG B 202      14.366  35.451 -11.966  1.00 43.12 LIG 0.02  C 
BRANCH 31 32
ATOM     32  CD  ARG B 202      14.113  34.130 -11.281  1.00 49.76 LIG 0.14  C 
BRANCH 32 33
ATOM     33  NE  ARG B 202      14.841  34.057 -10.020  1.00 51.61 LIG-0.23  N 
ATOM     34  CZ  ARG B 202      14.848  32.990  -9.230  1.00 53.48 LIG 0.67  C 
ATOM     35  NH2 ARG B 202      15.542  33.006  -8.102  1.00 55.46 LIG-0.23  N 
ATOM     36  NH1 ARG B 202      14.161  31.907  -9.572  1.00 53.58 LIG-0.23  N 
ATOM     37 2HH2 ARG B 202      15.547  32.315  -7.591  1.00 55.46 LIG 0.17  HD
ATOM     38 1HH2 ARG B 202      15.987  33.707  -7.881  1.00 55.46 LIG 0.17  HD
ATOM     39 2HH1 ARG B 202      14.166  31.216  -9.061  1.00 53.58 LIG 0.17  HD
ATOM     40 1HH1 ARG B 202      13.712  31.896 -10.305  1.00 53.58 LIG 0.17  HD
ATOM     41 HE   ARG B 202      15.293  34.746  -9.774  1.00 51.61 LIG 0.18  HD
ENDBRANCH 32 33
ENDBRANCH 31 32
ENDBRANCH 30 31
ENDBRANCH 29 30
BRANCH 29 42
ATOM     42  C   ARG B 202      12.398  37.847  -9.765  1.00 54.52 LIG 0.24  C 
ATOM     43 O    ARG B 202      11.210  38.151  -9.744  1.00 52.27 LIG-0.27  OA
ATOM     44  N   PRO B 203      13.383  38.711  -9.374  1.00 63.22 LIG-0.34  N 
ATOM     45  CD  PRO B 203      14.703  38.828 -10.010  1.00 67.52 LIG 0.13  C 
ATOM     46  CA  PRO B 203      13.138  39.992  -8.694  1.00 66.04 LIG 0.17  C 
ATOM     47  CG  PRO B 203      14.589  40.205 -10.648  1.00 67.94 LIG 0.02  C 
ATOM     48  CB  PRO B 203      13.577  41.001  -9.768  1.00 64.70 LIG 0.04  C 
BRANCH 46 49
ATOM     49  C   PRO B 203      11.720  40.312  -8.221  1.00 68.17 LIG 0.22  C 
ATOM     50 O    PRO B 203      11.166  41.317  -8.671  1.00 70.96 LIG-0.29  OA
ENDBRANCH 46 49
ENDBRANCH 29 42
ENDBRANCH 3 29
TORSDOF 18
ENDMDL
MODEL 7
USER: ADFR SOLUTION from run 138
USER: SCORE 14.789620 LL:  -6.889 LR:  -8.321 RR:   0.000 FEB:  -2.952
USER: RMSD 4.716703
USER: SEED 137
USER: STATUS no improvement in best in 4 clusters for 5 generations
USER: GENES 20
USER: genes 0 Translation |==|  0.58352 0.44468 0.63840
USER: genes 1 Rotation |==|  0.30608 0.25962 0.54209 0.89095
USER: genes 2 Torsion [N]-C--CA-[N] |==|  0.86710
USER: genes 3 Torsion [C]-CA--N-[C] |==|  0.76101
USER: genes 4 Torsion [N]-C--CA-[N] |==|  0.96661
USER: genes 5 Torsion [C]-CA--N-[C] |==|  0.81393
USER: genes 6 Torsion [N]-C--CA-[N] |==|  0.52062
USER: genes 7 Torsion [C]-CA--CB-[CG] |==|  0.80328
USER: genes 8 Torsion [CA]-CB--CG-[OD2] |==|  0.04543
USER: genes 9 Torsion [C]-CA--CB-[CG] |==|  0.40482
USER: genes 10 Torsion [CA]-CB--CG-[CD1] |==|  0.14647
USER: genes 11 Torsion [C]-CA--CB-[CG2] |==|  0.57347
USER: genes 12 Torsion [CA]-CB--OG1-[HG1] |==|  0.79926
USER: genes 13 Torsion [C]-N--CA-[C] |==|  0.71465
USER: genes 14 Torsion [N]-CA--CB-[CG] |==|  0.06941
USER: genes 15 Torsion [CA]-CB--CG-[CD] |==|  0.67128
USER: genes 16 Torsion [CB]-CG--CD-[NE] |==|  0.42239
USER: genes 17 Torsion [CG]-CD--NE-[CZ] |==|  0.48160
USER: genes 18 Torsion [N]-CA--C-[N] |==|  0.37254
USER: genes 19 Torsion [N]-CA--C-[O] |==|  0.18596
ROOT
ATOM      1  C   THR B 201      10.357  36.556  -9.039  1.00 36.45 LIG 0.24  C 
ATOM      2 O    THR B 201      10.067  37.470  -8.263  1.00 40.30 LIG-0.27  OA
ATOM      3  N   ARG B 202      11.360  36.633  -9.907  1.00 33.32 LIG-0.35  N 
ATOM      4 H    ARG B 202      11.598  35.979 -10.412  1.00 33.32 LIG 0.16  HD
ENDROOT
BRANCH 1 5
ATOM      5  CA  THR B 201       9.559  35.248  -9.048  1.00 30.51 LIG 0.20  C 
BRANCH 5 6
ATOM      6  N   THR B 201       9.170  34.824 -10.396  1.00 29.33 LIG-0.34  N 
ATOM      7  C   LEU B 200       8.056  35.275 -10.968  1.00 28.22 LIG 0.24  C 
ATOM      8 O    LEU B 200       7.356  36.148 -10.462  1.00 25.98 LIG-0.27  OA
ATOM      9 H    THR B 201       9.714  34.272 -10.768  1.00 29.33 LIG 0.16  HD
BRANCH 7 10
ATOM     10  CA  LEU B 200       7.674  34.665 -12.313  1.00 30.55 LIG 0.18  C 
BRANCH 10 11
ATOM     11  N   LEU B 200       8.753  33.878 -12.878  1.00 35.39 LIG-0.35  N 
ATOM     12 H    LEU B 200       8.596  33.034 -12.925  1.00 35.39 LIG 0.16  HD
ATOM     13  C   ASP B 199       9.879  34.452 -13.281  1.00 42.58 LIG 0.26  C 
ATOM     14 O    ASP B 199      10.088  35.660 -13.168  1.00 44.96 LIG-0.27  OA
BRANCH 13 15
ATOM     15  CA  ASP B 199      10.925  33.521 -13.885  1.00 43.98 LIG 0.41  C 
ATOM     16  N   ASP B 199      12.177  34.234 -14.127  1.00 41.74 LIG 0.61  N 
BRANCH 15 17
ATOM     17  CB  ASP B 199      11.154  32.324 -12.963  1.00 46.67 LIG 0.16  C 
BRANCH 17 18
ATOM     18  CG  ASP B 199      11.887  32.700 -11.685  1.00 50.58 LIG 0.17  C 
ATOM     19 OD2  ASP B 199      11.943  33.909 -11.367  1.00 55.98 LIG-0.65  OA
ATOM     20 OD1  ASP B 199      12.418  31.799 -11.002  1.00 45.33 LIG-0.65  OA
ENDBRANCH 17 18
ENDBRANCH 15 17
ENDBRANCH 13 15
ENDBRANCH 10 11
BRANCH 10 21
ATOM     21  CB  LEU B 200       6.424  33.802 -12.160  1.00 29.00 LIG 0.04  C 
BRANCH 21 22
ATOM     22  CG  LEU B 200       5.486  33.805 -13.364  1.00 29.82 LIG-0.02  C 
ATOM     23  CD1 LEU B 200       6.258  33.459 -14.627  1.00 24.53 LIG 0.01  C 
ATOM     24  CD2 LEU B 200       4.353  32.814 -13.134  1.00 31.40 LIG 0.01  C 
ENDBRANCH 21 22
ENDBRANCH 10 21
ENDBRANCH 7 10
ENDBRANCH 5 6
BRANCH 5 25
ATOM     25  CB  THR B 201      10.389  34.157  -8.334  1.00 29.82 LIG 0.15  C 
ATOM     26  CG2 THR B 201      10.016  32.779  -8.842  1.00 24.76 LIG 0.04  C 
BRANCH 25 27
ATOM     27 OG1  THR B 201      11.784  34.381  -8.565  1.00 30.74 LIG-0.39  OA
ATOM     28 HG1  THR B 201      11.972  34.190  -9.361  1.00 30.74 LIG 0.21  HD
ENDBRANCH 25 27
ENDBRANCH 5 25
ENDBRANCH 1 5
BRANCH 3 29
ATOM     29  CA  ARG B 202      12.161  37.843 -10.092  1.00 35.80 LIG 0.18  C 
BRANCH 29 30
ATOM     30  CB  ARG B 202      13.637  37.449 -10.129  1.00 39.99 LIG 0.04  C 
BRANCH 30 31
ATOM     31  CG  ARG B 202      13.833  36.022 -10.569  1.00 43.12 LIG 0.02  C 
BRANCH 31 32
ATOM     32  CD  ARG B 202      14.493  35.180  -9.505  1.00 49.76 LIG 0.14  C 
BRANCH 32 33
ATOM     33  NE  ARG B 202      14.097  33.783  -9.635  1.00 51.61 LIG-0.23  N 
ATOM     34  CZ  ARG B 202      14.619  32.795  -8.917  1.00 53.48 LIG 0.67  C 
ATOM     35  NH2 ARG B 202      14.197  31.552  -9.096  1.00 55.46 LIG-0.23  N 
ATOM     36  NH1 ARG B 202      15.562  33.053  -8.020  1.00 53.58 LIG-0.23  N 
ATOM     37 2HH2 ARG B 202      14.534  30.913  -8.631  1.00 55.46 LIG 0.17  HD
ATOM     38 1HH2 ARG B 202      13.586  31.385  -9.677  1.00 55.46 LIG 0.17  HD
ATOM     39 2HH1 ARG B 202      15.900  32.414  -7.555  1.00 53.58 LIG 0.17  HD
ATOM     40 1HH1 ARG B 202      15.835  33.861  -7.904  1.00 53.58 LIG 0.17  HD
ATOM     41 HE   ARG B 202      13.490  33.587 -10.211  1.00 51.61 LIG 0.18  HD
ENDBRANCH 32 33
ENDBRANCH 31 32
ENDBRANCH 30 31
ENDBRANCH 29 30
BRANCH 29 42
ATOM     42  C   ARG B 202      11.714  38.567 -11.390  1.00 54.52 LIG 0.24  C 
ATOM     43 O    ARG B 202      11.564  37.898 -12.407  1.00 52.27 LIG-0.27  OA
ATOM     44  N   PRO B 203      11.514  39.920 -11.365  1.00 63.22 LIG-0.34  N 
ATOM     45  CD  PRO B 203      12.321  40.878 -10.596  1.00 67.52 LIG 0.13  C 
ATOM     46  CA  PRO B 203      10.902  40.686 -12.462  1.00 66.04 LIG 0.17  C 
ATOM     47  CG  PRO B 203      13.035  41.615 -11.718  1.00 67.94 LIG 0.02  C 
ATOM     48  CB  PRO B 203      12.092  41.524 -12.957  1.00 64.70 LIG 0.04  C 
BRANCH 46 49
ATOM     49  C   PRO B 203      10.275  39.923 -13.629  1.00 68.17 LIG 0.22  C 
ATOM     50 O    PRO B 203       9.266  39.249 -13.414  1.00 70.96 LIG-0.29  OA
ENDBRANCH 46 49
ENDBRANCH 29 42
ENDBRANCH 3 29
TORSDOF 18
ENDMDL
