MODEL 1
USER: ADFR SOLUTION from run 55
USER: SCORE 20.205022 LL:  -4.489 LR: -16.865 RR:   0.000 FEB:  -9.109
USER: RMSD 2.899375
USER: SEED 54
USER: STATUS 1 or 2 clusters left
USER: GENES 28
USER: genes 0 Translation |==|  0.51810 0.53959 0.58325
USER: genes 1 Rotation |==|  0.59492 0.43407 0.44064 0.98282
USER: genes 2 Torsion [N]-CA--C-[N] |==|  0.45714
USER: genes 3 Torsion [C]-N--CA-[CB] |==|  0.21815
USER: genes 4 Torsion [N]-CA--CB-[CG] |==|  0.39438
USER: genes 5 Torsion [CA]-CB--CG-[CD] |==|  0.31836
USER: genes 6 Torsion [CB]-CG--CD-[OE1] |==|  0.13432
USER: genes 7 Torsion [N]-CA--C-[N] |==|  0.38333
USER: genes 8 Torsion [C]-N--CA-[CB] |==|  0.15883
USER: genes 9 Torsion [N]-CA--C-[O] |==|  0.42754
USER: genes 10 Torsion [N]-CA--CB-[CG] |==|  0.32521
USER: genes 11 Torsion [CA]-CB--CG-[CD1] |==|  0.75172
USER: genes 12 Torsion [CE1]-CZ--OH-[HH] |==|  0.45546
USER: genes 13 Torsion [C]-CA--CB-[OG] |==|  0.92694
USER: genes 14 Torsion [CA]-CB--OG-[HG] |==|  0.55457
USER: genes 15 Torsion [C]-CA--N-[C] |==|  0.75702
USER: genes 16 Torsion [N]-C--CA-[N] |==|  0.91674
USER: genes 17 Torsion [C]-CA--CB-[CG1] |==|  0.17198
USER: genes 18 Torsion [C]-CA--N-[C] |==|  0.83393
USER: genes 19 Torsion [N]-C--CA-[N] |==|  0.37245
USER: genes 20 Torsion [C]-CA--CB-[CG] |==|  0.22240
USER: genes 21 Torsion [CA]-CB--CG-[CD] |==|  0.44091
USER: genes 22 Torsion [CB]-CG--CD-[OE1] |==|  0.39062
USER: genes 23 Torsion [C]-CA--N-[C] |==|  0.78386
USER: genes 24 Torsion [N]-C--CA-[N] |==|  0.51364
USER: genes 25 Torsion [C]-CA--CB-[CG] |==|  0.73806
USER: genes 26 Torsion [CA]-CB--CG-[CD] |==|  0.75170
USER: genes 27 Torsion [CB]-CG--CD-[OE1] |==|  0.07732
ROOT
ATOM      1  CA  SER T 970      32.752  38.782  -7.748  1.00 53.81 LIG 0.20  C 
ENDROOT
BRANCH 1 2
ATOM      2  C   SER T 970      32.869  38.221  -9.160  1.00 54.98 LIG 0.24  C 
ATOM      3  N   GLU T 971      34.090  38.211  -9.675  1.00 36.24 LIG-0.35  N 
ATOM      4 H    GLU T 971      34.798  38.522  -9.299  1.00 36.24 LIG 0.16  HD
ATOM      5 O    SER T 970      31.888  37.759  -9.767  1.00 50.73 LIG-0.27  OA
BRANCH 3 6
ATOM      6  CA  GLU T 971      34.269  37.631 -10.985  1.00 34.69 LIG 0.18  C 
BRANCH 6 7
ATOM      7  CB  GLU T 971      33.827  38.589 -12.088  1.00 35.28 LIG 0.04  C 
BRANCH 7 8
ATOM      8  CG  GLU T 971      34.727  38.540 -13.320  1.00 38.63 LIG 0.12  C 
BRANCH 8 9
ATOM      9  CD  GLU T 971      34.002  38.010 -14.557  1.00 44.02 LIG 0.17  C 
ATOM     10 OE1  GLU T 971      32.880  38.481 -14.853  1.00 46.94 LIG-0.65  OA
ATOM     11 OE2  GLU T 971      34.556  37.120 -15.234  1.00 38.45 LIG-0.65  OA
ENDBRANCH 8 9
ENDBRANCH 7 8
ENDBRANCH 6 7
BRANCH 6 12
ATOM     12  C   GLU T 971      35.719  37.260 -11.182  1.00 38.38 LIG 0.24  C 
ATOM     13  N   TYR T 972      35.908  36.095 -11.767  1.00 34.07 LIG-0.34  N 
ATOM     14 H    TYR T 972      35.275  35.544 -11.955  1.00 34.07 LIG 0.16  HD
ATOM     15 O    GLU T 971      36.636  38.016 -10.825  1.00 36.91 LIG-0.27  OA
BRANCH 13 16
ATOM     16  CA  TYR T 972      37.224  35.641 -12.149  1.00 35.97 LIG 0.19  C 
BRANCH 16 17
ATOM     17  C   TYR T 972      37.126  34.246 -12.779  1.00 45.43 LIG 0.20  C 
ATOM     18 OXT  TYR T 972      36.193  33.513 -12.449  1.00 40.76 LIG-0.65  OA
ATOM     19 O    TYR T 972      37.957  33.811 -13.597  1.00 41.72 LIG-0.65  OA
ENDBRANCH 16 17
BRANCH 16 20
ATOM     20  CB  TYR T 972      38.153  35.609 -10.939  1.00 33.99 LIG 0.07  C 
BRANCH 20 21
ATOM     21  CG  TYR T 972      38.616  34.219 -10.652  1.00 33.93 LIG-0.06  A 
ATOM     22  CD1 TYR T 972      37.892  33.387  -9.810  1.00 33.64 LIG 0.01  A 
ATOM     23  CE1 TYR T 972      38.313  32.097  -9.558  1.00 37.50 LIG 0.04  A 
ATOM     24  CZ  TYR T 972      39.453  31.637 -10.165  1.00 37.64 LIG 0.07  A 
ATOM     25  CE2 TYR T 972      40.173  32.433 -11.022  1.00 36.30 LIG 0.04  A 
ATOM     26  CD2 TYR T 972      39.759  33.715 -11.260  1.00 38.70 LIG 0.01  A 
BRANCH 24 27
ATOM     27 OH   TYR T 972      39.873  30.364  -9.915  1.00 40.25 LIG-0.36  OA
ATOM     28 HH   TYR T 972      40.434  30.135 -10.496  1.00 40.25 LIG 0.22  HD
ENDBRANCH 24 27
ENDBRANCH 20 21
ENDBRANCH 16 20
ENDBRANCH 13 16
ENDBRANCH 6 12
ENDBRANCH 3 6
ENDBRANCH 1 2
BRANCH 1 29
ATOM     29  CB  SER T 970      33.384  37.772  -6.783  1.00 55.16 LIG 0.20  C 
BRANCH 29 30
ATOM     30 OG   SER T 970      33.327  36.463  -7.317  1.00 59.72 LIG-0.40  OA
ATOM     31 HG   SER T 970      33.420  35.903  -6.697  1.00 59.72 LIG 0.21  HD
ENDBRANCH 29 30
ENDBRANCH 1 29
BRANCH 1 32
ATOM     32  N   SER T 970      31.396  39.125  -7.301  1.00 52.51 LIG-0.34  N 
ATOM     33  C   VAL T 969      30.861  40.321  -7.537  1.00 50.69 LIG 0.24  C 
ATOM     34 O    VAL T 969      31.330  41.108  -8.361  1.00 50.98 LIG-0.27  OA
ATOM     35 H    SER T 970      30.990  38.493  -6.882  1.00 52.51 LIG 0.16  HD
BRANCH 33 36
ATOM     36  CA  VAL T 969      29.567  40.657  -6.773  1.00 48.28 LIG 0.18  C 
BRANCH 36 37
ATOM     37  CB  VAL T 969      29.870  41.394  -5.459  1.00 45.61 LIG 0.01  C 
ATOM     38  CG1 VAL T 969      30.567  42.729  -5.712  1.00 51.33 LIG 0.01  C 
ATOM     39  CG2 VAL T 969      28.578  41.608  -4.669  1.00 51.13 LIG 0.01  C 
ENDBRANCH 36 37
BRANCH 36 40
ATOM     40  N   VAL T 969      28.833  39.431  -6.520  1.00 42.62 LIG-0.35  N 
ATOM     41  C   GLU T 968      28.428  38.674  -7.526  1.00 39.23 LIG 0.24  C 
ATOM     42 O    GLU T 968      28.556  39.001  -8.700  1.00 41.64 LIG-0.27  OA
ATOM     43 H    VAL T 969      28.695  39.256  -5.689  1.00 42.62 LIG 0.16  HD
BRANCH 41 44
ATOM     44  CA  GLU T 968      27.841  37.323  -7.177  1.00 43.46 LIG 0.18  C 
BRANCH 44 45
ATOM     45  CB  GLU T 968      28.906  36.290  -7.497  1.00 39.65 LIG 0.04  C 
BRANCH 45 46
ATOM     46  CG  GLU T 968      29.994  36.088  -6.520  1.00 48.42 LIG 0.12  C 
BRANCH 46 47
ATOM     47  CD  GLU T 968      30.610  34.725  -6.746  1.00 46.07 LIG 0.17  C 
ATOM     48 OE1  GLU T 968      31.859  34.625  -6.640  1.00 37.62 LIG-0.65  OA
ATOM     49 OE2  GLU T 968      29.844  33.753  -6.956  1.00 42.01 LIG-0.65  OA
ENDBRANCH 46 47
ENDBRANCH 45 46
ENDBRANCH 44 45
BRANCH 44 50
ATOM     50  N   GLU T 968      26.607  37.065  -7.914  1.00 42.28 LIG-0.35  N 
ATOM     51  C   GLU T 967      25.448  37.620  -7.558  1.00 44.22 LIG 0.26  C 
ATOM     52 O    GLU T 967      25.302  38.269  -6.533  1.00 45.73 LIG-0.27  OA
ATOM     53 H    GLU T 968      26.698  36.534  -8.584  1.00 42.28 LIG 0.16  HD
BRANCH 51 54
ATOM     54  CA  GLU T 967      24.262  37.406  -8.491  1.00 63.10 LIG 0.40  C 
ATOM     55  N   GLU T 967      23.108  38.167  -8.024  1.00 61.06 LIG 0.61  N 
BRANCH 54 56
ATOM     56  CB  GLU T 967      24.640  37.819  -9.913  1.00 76.10 LIG 0.06  C 
BRANCH 56 57
ATOM     57  CG  GLU T 967      24.260  39.244 -10.252  1.00 93.75 LIG 0.12  C 
BRANCH 57 58
ATOM     58  CD  GLU T 967      22.861  39.342 -10.827  1.00103.86 LIG 0.17  C 
ATOM     59 OE1  GLU T 967      22.019  38.481 -10.496  1.00104.00 LIG-0.65  OA
ATOM     60 OE2  GLU T 967      22.603  40.287 -11.603  1.00109.28 LIG-0.65  OA
ENDBRANCH 57 58
ENDBRANCH 56 57
ENDBRANCH 54 56
ENDBRANCH 51 54
ENDBRANCH 44 50
ENDBRANCH 41 44
ENDBRANCH 36 40
ENDBRANCH 33 36
ENDBRANCH 1 32
TORSDOF 26
ENDMDL
MODEL 2
USER: ADFR SOLUTION from run 16
USER: SCORE 20.430182 LL:  -4.878 LR: -16.835 RR:   0.000 FEB:  -9.079
USER: RMSD 2.073342
USER: SEED 850596
USER: STATUS no improvement in best in 3 clusters for 5 generations
USER: GENES 28
USER: genes 0 Translation |==|  0.49957 0.53512 0.58719
USER: genes 1 Rotation |==|  0.60179 0.42779 0.45649 0.98221
USER: genes 2 Torsion [N]-CA--C-[N] |==|  0.46474
USER: genes 3 Torsion [C]-N--CA-[CB] |==|  0.22386
USER: genes 4 Torsion [N]-CA--CB-[CG] |==|  0.40638
USER: genes 5 Torsion [CA]-CB--CG-[CD] |==|  0.36321
USER: genes 6 Torsion [CB]-CG--CD-[OE1] |==|  0.62108
USER: genes 7 Torsion [N]-CA--C-[N] |==|  0.37891
USER: genes 8 Torsion [C]-N--CA-[CB] |==|  0.48623
USER: genes 9 Torsion [N]-CA--C-[O] |==|  0.38080
USER: genes 10 Torsion [N]-CA--CB-[CG] |==|  0.46070
USER: genes 11 Torsion [CA]-CB--CG-[CD1] |==|  0.73169
USER: genes 12 Torsion [CE1]-CZ--OH-[HH] |==|  0.22497
USER: genes 13 Torsion [C]-CA--CB-[OG] |==|  0.96879
USER: genes 14 Torsion [CA]-CB--OG-[HG] |==|  0.65878
USER: genes 15 Torsion [C]-CA--N-[C] |==|  0.75187
USER: genes 16 Torsion [N]-C--CA-[N] |==|  0.94019
USER: genes 17 Torsion [C]-CA--CB-[CG1] |==|  0.94481
USER: genes 18 Torsion [C]-CA--N-[C] |==|  0.81606
USER: genes 19 Torsion [N]-C--CA-[N] |==|  0.36488
USER: genes 20 Torsion [C]-CA--CB-[CG] |==|  0.20822
USER: genes 21 Torsion [CA]-CB--CG-[CD] |==|  0.42558
USER: genes 22 Torsion [CB]-CG--CD-[OE1] |==|  0.91839
USER: genes 23 Torsion [C]-CA--N-[C] |==|  0.67169
USER: genes 24 Torsion [N]-C--CA-[N] |==|  0.49114
USER: genes 25 Torsion [C]-CA--CB-[CG] |==|  0.60721
USER: genes 26 Torsion [CA]-CB--CG-[CD] |==|  0.80949
USER: genes 27 Torsion [CB]-CG--CD-[OE1] |==|  0.69911
ROOT
ATOM      1  CA  SER T 970      32.224  38.695  -7.671  1.00 53.81 LIG 0.20  C 
ENDROOT
BRANCH 1 2
ATOM      2  C   SER T 970      32.429  38.165  -9.085  1.00 54.98 LIG 0.24  C 
ATOM      3  N   GLU T 971      33.678  38.185  -9.530  1.00 36.24 LIG-0.35  N 
ATOM      4 H    GLU T 971      34.358  38.498  -9.107  1.00 36.24 LIG 0.16  HD
ATOM      5 O    SER T 970      31.493  37.702  -9.756  1.00 50.73 LIG-0.27  OA
BRANCH 3 6
ATOM      6  CA  GLU T 971      33.941  37.635 -10.839  1.00 34.69 LIG 0.18  C 
BRANCH 6 7
ATOM      7  CB  GLU T 971      33.593  38.628 -11.944  1.00 35.28 LIG 0.04  C 
BRANCH 7 8
ATOM      8  CG  GLU T 971      34.516  38.523 -13.157  1.00 38.63 LIG 0.12  C 
BRANCH 8 9
ATOM      9  CD  GLU T 971      33.747  38.443 -14.475  1.00 44.02 LIG 0.17  C 
ATOM     10 OE1  GLU T 971      34.111  37.616 -15.342  1.00 46.94 LIG-0.65  OA
ATOM     11 OE2  GLU T 971      32.777  39.209 -14.644  1.00 38.45 LIG-0.65  OA
ENDBRANCH 8 9
ENDBRANCH 7 8
ENDBRANCH 6 7
BRANCH 6 12
ATOM     12  C   GLU T 971      35.395  37.244 -10.943  1.00 38.38 LIG 0.24  C 
ATOM     13  N   TYR T 972      35.604  36.075 -11.514  1.00 34.07 LIG-0.34  N 
ATOM     14 H    TYR T 972      34.977  35.533 -11.742  1.00 34.07 LIG 0.16  HD
ATOM     15 O    GLU T 971      36.298  37.986 -10.528  1.00 36.91 LIG-0.27  OA
BRANCH 13 16
ATOM     16  CA  TYR T 972      36.935  35.602 -11.811  1.00 35.97 LIG 0.19  C 
BRANCH 16 17
ATOM     17  C   TYR T 972      37.600  36.537 -12.829  1.00 45.43 LIG 0.20  C 
ATOM     18 OXT  TYR T 972      36.941  36.921 -13.796  1.00 40.76 LIG-0.65  OA
ATOM     19 O    TYR T 972      38.782  36.913 -12.734  1.00 41.72 LIG-0.65  OA
ENDBRANCH 16 17
BRANCH 16 20
ATOM     20  CB  TYR T 972      36.890  34.178 -12.355  1.00 33.99 LIG 0.07  C 
BRANCH 20 21
ATOM     21  CG  TYR T 972      38.192  33.798 -12.980  1.00 33.93 LIG-0.06  A 
ATOM     22  CD1 TYR T 972      38.382  33.903 -14.350  1.00 33.64 LIG 0.01  A 
ATOM     23  CE1 TYR T 972      39.591  33.566 -14.923  1.00 37.50 LIG 0.04  A 
ATOM     24  CZ  TYR T 972      40.615  33.138 -14.119  1.00 37.64 LIG 0.07  A 
ATOM     25  CE2 TYR T 972      40.459  33.048 -12.757  1.00 36.30 LIG 0.04  A 
ATOM     26  CD2 TYR T 972      39.255  33.372 -12.194  1.00 38.70 LIG 0.01  A 
BRANCH 24 27
ATOM     27 OH   TYR T 972      41.810  32.801 -14.683  1.00 40.25 LIG-0.36  OA
ATOM     28 HH   TYR T 972      42.256  33.496 -14.832  1.00 40.25 LIG 0.22  HD
ENDBRANCH 24 27
ENDBRANCH 20 21
ENDBRANCH 16 20
ENDBRANCH 13 16
ENDBRANCH 6 12
ENDBRANCH 3 6
ENDBRANCH 1 2
BRANCH 1 29
ATOM     29  CB  SER T 970      32.877  37.708  -6.696  1.00 55.16 LIG 0.20  C 
BRANCH 29 30
ATOM     30 OG   SER T 970      33.234  36.509  -7.358  1.00 59.72 LIG-0.40  OA
ATOM     31 HG   SER T 970      32.861  35.858  -6.979  1.00 59.72 LIG 0.21  HD
ENDBRANCH 29 30
ENDBRANCH 1 29
BRANCH 1 32
ATOM     32  N   SER T 970      30.833  38.949  -7.275  1.00 52.51 LIG-0.34  N 
ATOM     33  C   VAL T 969      30.249  40.127  -7.482  1.00 50.69 LIG 0.24  C 
ATOM     34 O    VAL T 969      30.713  40.974  -8.246  1.00 50.98 LIG-0.27  OA
ATOM     35 H    SER T 970      30.442  38.278  -6.904  1.00 52.51 LIG 0.16  HD
BRANCH 33 36
ATOM     36  CA  VAL T 969      28.906  40.363  -6.766  1.00 48.28 LIG 0.18  C 
BRANCH 36 37
ATOM     37  CB  VAL T 969      29.087  41.232  -5.512  1.00 45.61 LIG 0.01  C 
ATOM     38  CG1 VAL T 969      30.537  41.227  -5.030  1.00 51.33 LIG 0.01  C 
ATOM     39  CG2 VAL T 969      28.624  42.661  -5.794  1.00 51.13 LIG 0.01  C 
ENDBRANCH 36 37
BRANCH 36 40
ATOM     40  N   VAL T 969      28.319  39.080  -6.424  1.00 42.62 LIG-0.35  N 
ATOM     41  C   GLU T 968      27.915  38.255  -7.375  1.00 39.23 LIG 0.24  C 
ATOM     42 O    GLU T 968      27.919  38.554  -8.564  1.00 41.64 LIG-0.27  OA
ATOM     43 H    VAL T 969      28.262  38.920  -5.581  1.00 42.62 LIG 0.16  HD
BRANCH 41 44
ATOM     44  CA  GLU T 968      27.493  36.866  -6.947  1.00 43.46 LIG 0.18  C 
BRANCH 44 45
ATOM     45  CB  GLU T 968      28.597  35.920  -7.386  1.00 39.65 LIG 0.04  C 
BRANCH 45 46
ATOM     46  CG  GLU T 968      29.854  35.914  -6.612  1.00 48.42 LIG 0.12  C 
BRANCH 46 47
ATOM     47  CD  GLU T 968      30.505  34.555  -6.746  1.00 46.07 LIG 0.17  C 
ATOM     48 OE1  GLU T 968      29.752  33.564  -6.924  1.00 37.62 LIG-0.65  OA
ATOM     49 OE2  GLU T 968      31.759  34.493  -6.743  1.00 42.01 LIG-0.65  OA
ENDBRANCH 46 47
ENDBRANCH 45 46
ENDBRANCH 44 45
BRANCH 44 50
ATOM     50  N   GLU T 968      26.206  36.491  -7.526  1.00 42.28 LIG-0.35  N 
ATOM     51  C   GLU T 967      25.144  36.223  -6.765  1.00 44.22 LIG 0.26  C 
ATOM     52 O    GLU T 967      25.196  36.144  -5.546  1.00 45.73 LIG-0.27  OA
ATOM     53 H    GLU T 968      26.199  36.460  -8.386  1.00 42.28 LIG 0.16  HD
BRANCH 51 54
ATOM     54  CA  GLU T 967      23.818  35.999  -7.480  1.00 63.10 LIG 0.40  C 
ATOM     55  N   GLU T 967      22.778  35.645  -6.518  1.00 61.06 LIG 0.61  N 
BRANCH 54 56
ATOM     56  CB  GLU T 967      23.427  37.256  -8.256  1.00 76.10 LIG 0.06  C 
BRANCH 56 57
ATOM     57  CG  GLU T 967      21.945  37.560  -8.213  1.00 93.75 LIG 0.12  C 
BRANCH 57 58
ATOM     58  CD  GLU T 967      21.129  36.541  -8.981  1.00103.86 LIG 0.17  C 
ATOM     59 OE1  GLU T 967      20.612  36.885 -10.064  1.00104.00 LIG-0.65  OA
ATOM     60 OE2  GLU T 967      21.014  35.391  -8.504  1.00109.28 LIG-0.65  OA
ENDBRANCH 57 58
ENDBRANCH 56 57
ENDBRANCH 54 56
ENDBRANCH 51 54
ENDBRANCH 44 50
ENDBRANCH 41 44
ENDBRANCH 36 40
ENDBRANCH 33 36
ENDBRANCH 1 32
TORSDOF 26
ENDMDL
MODEL 3
USER: ADFR SOLUTION from run 106
USER: SCORE 19.388525 LL:  -5.022 LR: -16.068 RR:   0.000 FEB:  -8.312
USER: RMSD 4.472790
USER: SEED 105
USER: STATUS no improvement in best in 4 clusters for 5 generations
USER: GENES 28
USER: genes 0 Translation |==|  0.51209 0.56012 0.59171
USER: genes 1 Rotation |==|  0.56114 0.36837 0.43170 0.97357
USER: genes 2 Torsion [N]-CA--C-[N] |==|  0.24058
USER: genes 3 Torsion [C]-N--CA-[CB] |==|  0.45578
USER: genes 4 Torsion [N]-CA--CB-[CG] |==|  0.44965
USER: genes 5 Torsion [CA]-CB--CG-[CD] |==|  0.25522
USER: genes 6 Torsion [CB]-CG--CD-[OE1] |==|  0.04177
USER: genes 7 Torsion [N]-CA--C-[N] |==|  0.39349
USER: genes 8 Torsion [C]-N--CA-[CB] |==|  0.47981
USER: genes 9 Torsion [N]-CA--C-[O] |==|  0.40168
USER: genes 10 Torsion [N]-CA--CB-[CG] |==|  0.39099
USER: genes 11 Torsion [CA]-CB--CG-[CD1] |==|  0.74720
USER: genes 12 Torsion [CE1]-CZ--OH-[HH] |==|  0.78893
USER: genes 13 Torsion [C]-CA--CB-[OG] |==|  0.55613
USER: genes 14 Torsion [CA]-CB--OG-[HG] |==|  0.84278
USER: genes 15 Torsion [C]-CA--N-[C] |==|  0.73957
USER: genes 16 Torsion [N]-C--CA-[N] |==|  0.85076
USER: genes 17 Torsion [C]-CA--CB-[CG1] |==|  0.76513
USER: genes 18 Torsion [C]-CA--N-[C] |==|  0.74659
USER: genes 19 Torsion [N]-C--CA-[N] |==|  0.96616
USER: genes 20 Torsion [C]-CA--CB-[CG] |==|  0.33630
USER: genes 21 Torsion [CA]-CB--CG-[CD] |==|  0.48517
USER: genes 22 Torsion [CB]-CG--CD-[OE1] |==|  0.12981
USER: genes 23 Torsion [C]-CA--N-[C] |==|  0.80898
USER: genes 24 Torsion [N]-C--CA-[N] |==|  0.32652
USER: genes 25 Torsion [C]-CA--CB-[CG] |==|  0.53704
USER: genes 26 Torsion [CA]-CB--CG-[CD] |==|  0.21205
USER: genes 27 Torsion [CB]-CG--CD-[OE1] |==|  0.72262
ROOT
ATOM      1  CA  SER T 970      32.580  39.182  -7.583  1.00 53.81 LIG 0.20  C 
ENDROOT
BRANCH 1 2
ATOM      2  C   SER T 970      32.942  38.393  -8.835  1.00 54.98 LIG 0.24  C 
ATOM      3  N   GLU T 971      33.380  39.111  -9.861  1.00 36.24 LIG-0.35  N 
ATOM      4 H    GLU T 971      33.440  39.969  -9.885  1.00 36.24 LIG 0.16  HD
ATOM      5 O    SER T 970      32.876  37.153  -8.874  1.00 50.73 LIG-0.27  OA
BRANCH 3 6
ATOM      6  CA  GLU T 971      33.798  38.410 -11.051  1.00 34.69 LIG 0.18  C 
BRANCH 6 7
ATOM      7  CB  GLU T 971      33.897  39.349 -12.250  1.00 35.28 LIG 0.04  C 
BRANCH 7 8
ATOM      8  CG  GLU T 971      34.736  38.778 -13.391  1.00 38.63 LIG 0.12  C 
BRANCH 8 9
ATOM      9  CD  GLU T 971      33.895  38.010 -14.410  1.00 44.02 LIG 0.17  C 
ATOM     10 OE1  GLU T 971      32.651  38.151 -14.402  1.00 46.94 LIG-0.65  OA
ATOM     11 OE2  GLU T 971      34.480  37.263 -15.221  1.00 38.45 LIG-0.65  OA
ENDBRANCH 8 9
ENDBRANCH 7 8
ENDBRANCH 6 7
BRANCH 6 12
ATOM     12  C   GLU T 971      35.133  37.749 -10.808  1.00 38.38 LIG 0.24  C 
ATOM     13  N   TYR T 972      35.260  36.559 -11.358  1.00 34.07 LIG-0.34  N 
ATOM     14 H    TYR T 972      34.621  36.144 -11.757  1.00 34.07 LIG 0.16  HD
ATOM     15 O    GLU T 971      36.025  38.310 -10.151  1.00 36.91 LIG-0.27  OA
BRANCH 13 16
ATOM     16  CA  TYR T 972      36.512  35.841 -11.336  1.00 35.97 LIG 0.19  C 
BRANCH 16 17
ATOM     17  C   TYR T 972      37.556  36.599 -12.165  1.00 45.43 LIG 0.20  C 
ATOM     18 OXT  TYR T 972      37.190  37.177 -13.190  1.00 40.76 LIG-0.65  OA
ATOM     19 O    TYR T 972      38.762  36.642 -11.862  1.00 41.72 LIG-0.65  OA
ENDBRANCH 16 17
BRANCH 16 20
ATOM     20  CB  TYR T 972      36.330  34.428 -11.881  1.00 33.99 LIG 0.07  C 
BRANCH 20 21
ATOM     21  CG  TYR T 972      37.494  34.021 -12.723  1.00 33.93 LIG-0.06  A 
ATOM     22  CD1 TYR T 972      37.498  34.250 -14.092  1.00 33.64 LIG 0.01  A 
ATOM     23  CE1 TYR T 972      38.581  33.887 -14.865  1.00 37.50 LIG 0.04  A 
ATOM     24  CZ  TYR T 972      39.669  33.309 -14.263  1.00 37.64 LIG 0.07  A 
ATOM     25  CE2 TYR T 972      39.698  33.094 -12.907  1.00 36.30 LIG 0.04  A 
ATOM     26  CD2 TYR T 972      38.618  33.444 -12.144  1.00 38.70 LIG 0.01  A 
BRANCH 24 27
ATOM     27 OH   TYR T 972      40.739  32.946 -15.025  1.00 40.25 LIG-0.36  OA
ATOM     28 HH   TYR T 972      40.558  32.241 -15.445  1.00 40.25 LIG 0.22  HD
ENDBRANCH 24 27
ENDBRANCH 20 21
ENDBRANCH 16 20
ENDBRANCH 13 16
ENDBRANCH 6 12
ENDBRANCH 3 6
ENDBRANCH 1 2
BRANCH 1 29
ATOM     29  CB  SER T 970      32.850  38.289  -6.366  1.00 55.16 LIG 0.20  C 
BRANCH 29 30
ATOM     30 OG   SER T 970      32.130  38.748  -5.237  1.00 59.72 LIG-0.40  OA
ATOM     31 HG   SER T 970      32.332  39.549  -5.082  1.00 59.72 LIG 0.21  HD
ENDBRANCH 29 30
ENDBRANCH 1 29
BRANCH 1 32
ATOM     32  N   SER T 970      31.211  39.710  -7.527  1.00 52.51 LIG-0.34  N 
ATOM     33  C   VAL T 969      30.918  40.943  -7.934  1.00 50.69 LIG 0.24  C 
ATOM     34 O    VAL T 969      31.685  41.616  -8.624  1.00 50.98 LIG-0.27  OA
ATOM     35 H    SER T 970      30.631  39.158  -7.214  1.00 52.51 LIG 0.16  HD
BRANCH 33 36
ATOM     36  CA  VAL T 969      29.524  41.478  -7.556  1.00 48.28 LIG 0.18  C 
BRANCH 36 37
ATOM     37  CB  VAL T 969      29.410  41.719  -6.042  1.00 45.61 LIG 0.01  C 
ATOM     38  CG1 VAL T 969      29.035  40.438  -5.297  1.00 51.33 LIG 0.01  C 
ATOM     39  CG2 VAL T 969      30.724  42.284  -5.502  1.00 51.13 LIG 0.01  C 
ENDBRANCH 36 37
BRANCH 36 40
ATOM     40  N   VAL T 969      28.517  40.535  -8.004  1.00 42.62 LIG-0.35  N 
ATOM     41  C   GLU T 968      27.972  40.659  -9.203  1.00 39.23 LIG 0.24  C 
ATOM     42 O    GLU T 968      28.204  41.606  -9.947  1.00 41.64 LIG-0.27  OA
ATOM     43 H    VAL T 969      28.319  39.917  -7.439  1.00 42.62 LIG 0.16  HD
BRANCH 41 44
ATOM     44  CA  GLU T 968      27.075  39.532  -9.671  1.00 43.46 LIG 0.18  C 
BRANCH 44 45
ATOM     45  CB  GLU T 968      25.658  40.077  -9.674  1.00 39.65 LIG 0.04  C 
BRANCH 45 46
ATOM     46  CG  GLU T 968      24.913  40.066 -10.948  1.00 48.42 LIG 0.12  C 
BRANCH 46 47
ATOM     47  CD  GLU T 968      23.494  40.526 -10.691  1.00 46.07 LIG 0.17  C 
ATOM     48 OE1  GLU T 968      23.335  41.556  -9.988  1.00 37.62 LIG-0.65  OA
ATOM     49 OE2  GLU T 968      22.557  39.903 -11.246  1.00 42.01 LIG-0.65  OA
ENDBRANCH 46 47
ENDBRANCH 45 46
ENDBRANCH 44 45
BRANCH 44 50
ATOM     50  N   GLU T 968      27.194  38.356  -8.813  1.00 42.28 LIG-0.35  N 
ATOM     51  C   GLU T 967      28.306  37.621  -8.779  1.00 44.22 LIG 0.26  C 
ATOM     52 O    GLU T 967      29.245  37.792  -9.543  1.00 45.73 LIG-0.27  OA
ATOM     53 H    GLU T 968      26.494  38.188  -8.342  1.00 42.28 LIG 0.16  HD
BRANCH 51 54
ATOM     54  CA  GLU T 967      28.375  36.516  -7.733  1.00 63.10 LIG 0.40  C 
ATOM     55  N   GLU T 967      28.485  35.213  -8.381  1.00 61.06 LIG 0.61  N 
BRANCH 54 56
ATOM     56  CB  GLU T 967      29.561  36.756  -6.801  1.00 76.10 LIG 0.06  C 
BRANCH 56 57
ATOM     57  CG  GLU T 967      29.905  35.562  -5.937  1.00 93.75 LIG 0.12  C 
BRANCH 57 58
ATOM     58  CD  GLU T 967      30.637  34.486  -6.714  1.00103.86 LIG 0.17  C 
ATOM     59 OE1  GLU T 967      29.989  33.499  -7.121  1.00104.00 LIG-0.65  OA
ATOM     60 OE2  GLU T 967      31.861  34.634  -6.924  1.00109.28 LIG-0.65  OA
ENDBRANCH 57 58
ENDBRANCH 56 57
ENDBRANCH 54 56
ENDBRANCH 51 54
ENDBRANCH 44 50
ENDBRANCH 41 44
ENDBRANCH 36 40
ENDBRANCH 33 36
ENDBRANCH 1 32
TORSDOF 26
ENDMDL
MODEL 4
USER: ADFR SOLUTION from run 70
USER: SCORE 20.247222 LL:  -5.339 LR: -16.039 RR:   0.000 FEB:  -8.283
USER: RMSD 2.731588
USER: SEED 69
USER: STATUS no improvement in best in 3 clusters for 5 generations
USER: GENES 28
USER: genes 0 Translation |==|  0.52172 0.52336 0.57503
USER: genes 1 Rotation |==|  0.61420 0.41483 0.41734 0.97209
USER: genes 2 Torsion [N]-CA--C-[N] |==|  0.45172
USER: genes 3 Torsion [C]-N--CA-[CB] |==|  0.23068
USER: genes 4 Torsion [N]-CA--CB-[CG] |==|  0.42435
USER: genes 5 Torsion [CA]-CB--CG-[CD] |==|  0.26954
USER: genes 6 Torsion [CB]-CG--CD-[OE1] |==|  0.10143
USER: genes 7 Torsion [N]-CA--C-[N] |==|  0.35796
USER: genes 8 Torsion [C]-N--CA-[CB] |==|  0.84282
USER: genes 9 Torsion [N]-CA--C-[O] |==|  0.24313
USER: genes 10 Torsion [N]-CA--CB-[CG] |==|  0.58999
USER: genes 11 Torsion [CA]-CB--CG-[CD1] |==|  0.48840
USER: genes 12 Torsion [CE1]-CZ--OH-[HH] |==|  0.58740
USER: genes 13 Torsion [C]-CA--CB-[OG] |==|  0.60823
USER: genes 14 Torsion [CA]-CB--OG-[HG] |==|  0.36031
USER: genes 15 Torsion [C]-CA--N-[C] |==|  0.77229
USER: genes 16 Torsion [N]-C--CA-[N] |==|  0.92912
USER: genes 17 Torsion [C]-CA--CB-[CG1] |==|  0.80020
USER: genes 18 Torsion [C]-CA--N-[C] |==|  0.83288
USER: genes 19 Torsion [N]-C--CA-[N] |==|  0.37397
USER: genes 20 Torsion [C]-CA--CB-[CG] |==|  0.24783
USER: genes 21 Torsion [CA]-CB--CG-[CD] |==|  0.46996
USER: genes 22 Torsion [CB]-CG--CD-[OE1] |==|  0.86218
USER: genes 23 Torsion [C]-CA--N-[C] |==|  0.81142
USER: genes 24 Torsion [N]-C--CA-[N] |==|  0.45122
USER: genes 25 Torsion [C]-CA--CB-[CG] |==|  0.74878
USER: genes 26 Torsion [CA]-CB--CG-[CD] |==|  0.76044
USER: genes 27 Torsion [CB]-CG--CD-[OE1] |==|  0.06798
ROOT
ATOM      1  CA  SER T 970      32.855  38.466  -7.908  1.00 53.81 LIG 0.20  C 
ENDROOT
BRANCH 1 2
ATOM      2  C   SER T 970      33.023  38.013  -9.353  1.00 54.98 LIG 0.24  C 
ATOM      3  N   GLU T 971      34.272  37.959  -9.797  1.00 36.24 LIG-0.35  N 
ATOM      4 H    GLU T 971      34.973  38.189  -9.356  1.00 36.24 LIG 0.16  HD
ATOM      5 O    SER T 970      32.055  37.671 -10.053  1.00 50.73 LIG-0.27  OA
BRANCH 3 6
ATOM      6  CA  GLU T 971      34.495  37.475 -11.139  1.00 34.69 LIG 0.18  C 
BRANCH 6 7
ATOM      7  CB  GLU T 971      34.293  38.578 -12.174  1.00 35.28 LIG 0.04  C 
BRANCH 7 8
ATOM      8  CG  GLU T 971      35.107  38.362 -13.447  1.00 38.63 LIG 0.12  C 
BRANCH 8 9
ATOM      9  CD  GLU T 971      34.293  37.706 -14.561  1.00 44.02 LIG 0.17  C 
ATOM     10 OE1  GLU T 971      33.085  38.011 -14.692  1.00 46.94 LIG-0.65  OA
ATOM     11 OE2  GLU T 971      34.861  36.883 -15.308  1.00 38.45 LIG-0.65  OA
ENDBRANCH 8 9
ENDBRANCH 7 8
ENDBRANCH 6 7
BRANCH 6 12
ATOM     12  C   GLU T 971      35.893  36.919 -11.252  1.00 38.38 LIG 0.24  C 
ATOM     13  N   TYR T 972      35.957  35.706 -11.764  1.00 34.07 LIG-0.34  N 
ATOM     14 H    TYR T 972      35.267  35.227 -11.948  1.00 34.07 LIG 0.16  HD
ATOM     15 O    GLU T 971      36.884  37.577 -10.897  1.00 36.91 LIG-0.27  OA
BRANCH 13 16
ATOM     16  CA  TYR T 972      37.219  35.073 -12.062  1.00 35.97 LIG 0.19  C 
BRANCH 16 17
ATOM     17  C   TYR T 972      37.995  34.831 -10.762  1.00 45.43 LIG 0.20  C 
ATOM     18 OXT  TYR T 972      38.807  35.680 -10.391  1.00 40.76 LIG-0.65  OA
ATOM     19 O    TYR T 972      37.857  33.805 -10.070  1.00 41.72 LIG-0.65  OA
ENDBRANCH 16 17
BRANCH 16 20
ATOM     20  CB  TYR T 972      38.041  35.937 -13.013  1.00 33.99 LIG 0.07  C 
BRANCH 20 21
ATOM     21  CG  TYR T 972      38.880  35.095 -13.917  1.00 33.93 LIG-0.06  A 
ATOM     22  CD1 TYR T 972      39.644  35.672 -14.922  1.00 33.64 LIG 0.01  A 
ATOM     23  CE1 TYR T 972      40.430  34.893 -15.746  1.00 37.50 LIG 0.04  A 
ATOM     24  CZ  TYR T 972      40.464  33.537 -15.551  1.00 37.64 LIG 0.07  A 
ATOM     25  CE2 TYR T 972      39.736  32.945 -14.548  1.00 36.30 LIG 0.04  A 
ATOM     26  CD2 TYR T 972      38.948  33.719 -13.740  1.00 38.70 LIG 0.01  A 
BRANCH 24 27
ATOM     27 OH   TYR T 972      41.237  32.765 -16.366  1.00 40.25 LIG-0.36  OA
ATOM     28 HH   TYR T 972      40.882  32.010 -16.457  1.00 40.25 LIG 0.22  HD
ENDBRANCH 24 27
ENDBRANCH 20 21
ENDBRANCH 16 20
ENDBRANCH 13 16
ENDBRANCH 6 12
ENDBRANCH 3 6
ENDBRANCH 1 2
BRANCH 1 29
ATOM     29  CB  SER T 970      33.313  37.321  -6.996  1.00 55.16 LIG 0.20  C 
BRANCH 29 30
ATOM     30 OG   SER T 970      32.469  37.212  -5.865  1.00 59.72 LIG-0.40  OA
ATOM     31 HG   SER T 970      32.219  36.414  -5.777  1.00 59.72 LIG 0.21  HD
ENDBRANCH 29 30
ENDBRANCH 1 29
BRANCH 1 32
ATOM     32  N   SER T 970      31.508  38.908  -7.525  1.00 52.51 LIG-0.34  N 
ATOM     33  C   VAL T 969      31.073  40.138  -7.786  1.00 50.69 LIG 0.24  C 
ATOM     34 O    VAL T 969      31.635  40.886  -8.588  1.00 50.98 LIG-0.27  OA
ATOM     35 H    SER T 970      31.039  38.308  -7.124  1.00 52.51 LIG 0.16  HD
BRANCH 33 36
ATOM     36  CA  VAL T 969      29.773  40.571  -7.083  1.00 48.28 LIG 0.18  C 
BRANCH 36 37
ATOM     37  CB  VAL T 969      30.070  41.385  -5.813  1.00 45.61 LIG 0.01  C 
ATOM     38  CG1 VAL T 969      30.625  40.501  -4.697  1.00 51.33 LIG 0.01  C 
ATOM     39  CG2 VAL T 969      31.047  42.516  -6.133  1.00 51.13 LIG 0.01  C 
ENDBRANCH 36 37
BRANCH 36 40
ATOM     40  N   VAL T 969      28.989  39.391  -6.767  1.00 42.62 LIG-0.35  N 
ATOM     41  C   GLU T 968      28.576  38.585  -7.731  1.00 39.23 LIG 0.24  C 
ATOM     42 O    GLU T 968      28.739  38.831  -8.921  1.00 41.64 LIG-0.27  OA
ATOM     43 H    VAL T 969      28.828  39.275  -5.930  1.00 42.62 LIG 0.16  HD
BRANCH 41 44
ATOM     44  CA  GLU T 968      27.932  37.282  -7.309  1.00 43.46 LIG 0.18  C 
BRANCH 44 45
ATOM     45  CB  GLU T 968      28.969  36.194  -7.526  1.00 39.65 LIG 0.04  C 
BRANCH 45 46
ATOM     46  CG  GLU T 968      29.893  35.885  -6.417  1.00 48.42 LIG 0.12  C 
BRANCH 46 47
ATOM     47  CD  GLU T 968      30.646  34.614  -6.746  1.00 46.07 LIG 0.17  C 
ATOM     48 OE1  GLU T 968      29.974  33.620  -7.121  1.00 37.62 LIG-0.65  OA
ATOM     49 OE2  GLU T 968      31.900  34.636  -6.696  1.00 42.01 LIG-0.65  OA
ENDBRANCH 46 47
ENDBRANCH 45 46
ENDBRANCH 44 45
BRANCH 44 50
ATOM     50  N   GLU T 968      26.711  37.015  -8.064  1.00 42.28 LIG-0.35  N 
ATOM     51  C   GLU T 967      25.617  37.763  -7.917  1.00 44.22 LIG 0.26  C 
ATOM     52 O    GLU T 967      25.508  38.630  -7.062  1.00 45.73 LIG-0.27  OA
ATOM     53 H    GLU T 968      26.764  36.344  -8.600  1.00 42.28 LIG 0.16  HD
BRANCH 51 54
ATOM     54  CA  GLU T 967      24.459  37.491  -8.868  1.00 63.10 LIG 0.40  C 
ATOM     55  N   GLU T 967      23.225  38.065  -8.340  1.00 61.06 LIG 0.61  N 
BRANCH 54 56
ATOM     56  CB  GLU T 967      24.774  38.068 -10.248  1.00 76.10 LIG 0.06  C 
BRANCH 56 57
ATOM     57  CG  GLU T 967      24.304  39.495 -10.430  1.00 93.75 LIG 0.12  C 
BRANCH 57 58
ATOM     58  CD  GLU T 967      22.862  39.569 -10.889  1.00103.86 LIG 0.17  C 
ATOM     59 OE1  GLU T 967      22.105  38.611 -10.630  1.00104.00 LIG-0.65  OA
ATOM     60 OE2  GLU T 967      22.486  40.592 -11.502  1.00109.28 LIG-0.65  OA
ENDBRANCH 57 58
ENDBRANCH 56 57
ENDBRANCH 54 56
ENDBRANCH 51 54
ENDBRANCH 44 50
ENDBRANCH 41 44
ENDBRANCH 36 40
ENDBRANCH 33 36
ENDBRANCH 1 32
TORSDOF 26
ENDMDL
MODEL 5
USER: ADFR SOLUTION from run 16
USER: SCORE 20.109165 LL:  -5.421 LR: -15.980 RR:   0.000 FEB:  -8.225
USER: RMSD 3.291324
USER: SEED 850596
USER: STATUS no improvement in best in 3 clusters for 5 generations
USER: GENES 28
USER: genes 0 Translation |==|  0.49920 0.53439 0.58787
USER: genes 1 Rotation |==|  0.59655 0.42705 0.45830 0.98334
USER: genes 2 Torsion [N]-CA--C-[N] |==|  0.46425
USER: genes 3 Torsion [C]-N--CA-[CB] |==|  0.18497
USER: genes 4 Torsion [N]-CA--CB-[CG] |==|  0.25561
USER: genes 5 Torsion [CA]-CB--CG-[CD] |==|  0.49741
USER: genes 6 Torsion [CB]-CG--CD-[OE1] |==|  0.91281
USER: genes 7 Torsion [N]-CA--C-[N] |==|  0.40950
USER: genes 8 Torsion [C]-N--CA-[CB] |==|  0.84595
USER: genes 9 Torsion [N]-CA--C-[O] |==|  0.21570
USER: genes 10 Torsion [N]-CA--CB-[CG] |==|  0.82252
USER: genes 11 Torsion [CA]-CB--CG-[CD1] |==|  0.49759
USER: genes 12 Torsion [CE1]-CZ--OH-[HH] |==|  0.20137
USER: genes 13 Torsion [C]-CA--CB-[OG] |==|  0.96893
USER: genes 14 Torsion [CA]-CB--OG-[HG] |==|  0.65877
USER: genes 15 Torsion [C]-CA--N-[C] |==|  0.75000
USER: genes 16 Torsion [N]-C--CA-[N] |==|  0.93927
USER: genes 17 Torsion [C]-CA--CB-[CG1] |==|  0.94480
USER: genes 18 Torsion [C]-CA--N-[C] |==|  0.81574
USER: genes 19 Torsion [N]-C--CA-[N] |==|  0.36468
USER: genes 20 Torsion [C]-CA--CB-[CG] |==|  0.20822
USER: genes 21 Torsion [CA]-CB--CG-[CD] |==|  0.42558
USER: genes 22 Torsion [CB]-CG--CD-[OE1] |==|  0.91839
USER: genes 23 Torsion [C]-CA--N-[C] |==|  0.67169
USER: genes 24 Torsion [N]-C--CA-[N] |==|  0.49114
USER: genes 25 Torsion [C]-CA--CB-[CG] |==|  0.60721
USER: genes 26 Torsion [CA]-CB--CG-[CD] |==|  0.80949
USER: genes 27 Torsion [CB]-CG--CD-[OE1] |==|  0.69918
ROOT
ATOM      1  CA  SER T 970      32.213  38.681  -7.657  1.00 53.81 LIG 0.20  C 
ENDROOT
BRANCH 1 2
ATOM      2  C   SER T 970      32.424  38.120  -9.059  1.00 54.98 LIG 0.24  C 
ATOM      3  N   GLU T 971      33.673  38.138  -9.504  1.00 36.24 LIG-0.35  N 
ATOM      4 H    GLU T 971      34.350  38.465  -9.088  1.00 36.24 LIG 0.16  HD
ATOM      5 O    SER T 970      31.491  37.635  -9.720  1.00 50.73 LIG-0.27  OA
BRANCH 3 6
ATOM      6  CA  GLU T 971      33.940  37.560 -10.800  1.00 34.69 LIG 0.18  C 
BRANCH 6 7
ATOM      7  CB  GLU T 971      33.282  38.363 -11.918  1.00 35.28 LIG 0.04  C 
BRANCH 7 8
ATOM      8  CG  GLU T 971      34.197  39.436 -12.504  1.00 38.63 LIG 0.12  C 
BRANCH 8 9
ATOM      9  CD  GLU T 971      33.535  40.218 -13.638  1.00 44.02 LIG 0.17  C 
ATOM     10 OE1  GLU T 971      32.696  39.640 -14.367  1.00 46.94 LIG-0.65  OA
ATOM     11 OE2  GLU T 971      33.854  41.413 -13.800  1.00 38.45 LIG-0.65  OA
ENDBRANCH 8 9
ENDBRANCH 7 8
ENDBRANCH 6 7
BRANCH 6 12
ATOM     12  C   GLU T 971      35.431  37.493 -11.028  1.00 38.38 LIG 0.24  C 
ATOM     13  N   TYR T 972      35.824  36.466 -11.754  1.00 34.07 LIG-0.34  N 
ATOM     14 H    TYR T 972      35.302  35.835 -12.015  1.00 34.07 LIG 0.16  HD
ATOM     15 O    GLU T 971      36.196  38.355 -10.570  1.00 36.91 LIG-0.27  OA
BRANCH 13 16
ATOM     16  CA  TYR T 972      37.196  36.317 -12.177  1.00 35.97 LIG 0.19  C 
BRANCH 16 17
ATOM     17  C   TYR T 972      38.091  36.081 -10.954  1.00 45.43 LIG 0.20  C 
ATOM     18 OXT  TYR T 972      38.778  37.014 -10.536  1.00 40.76 LIG-0.65  OA
ATOM     19 O    TYR T 972      38.170  34.984 -10.373  1.00 41.72 LIG-0.65  OA
ENDBRANCH 16 17
BRANCH 16 20
ATOM     20  CB  TYR T 972      37.660  37.555 -12.939  1.00 33.99 LIG 0.07  C 
BRANCH 20 21
ATOM     21  CG  TYR T 972      36.885  37.731 -14.203  1.00 33.93 LIG-0.06  A 
ATOM     22  CD1 TYR T 972      37.130  38.806 -15.044  1.00 33.64 LIG 0.01  A 
ATOM     23  CE1 TYR T 972      36.422  38.959 -16.219  1.00 37.50 LIG 0.04  A 
ATOM     24  CZ  TYR T 972      35.479  38.023 -16.558  1.00 37.64 LIG 0.07  A 
ATOM     25  CE2 TYR T 972      35.236  36.937 -15.754  1.00 36.30 LIG 0.04  A 
ATOM     26  CD2 TYR T 972      35.931  36.795 -14.584  1.00 38.70 LIG 0.01  A 
BRANCH 24 27
ATOM     27 OH   TYR T 972      34.777  38.173 -17.717  1.00 40.25 LIG-0.36  OA
ATOM     28 HH   TYR T 972      35.277  38.010 -18.371  1.00 40.25 LIG 0.22  HD
ENDBRANCH 24 27
ENDBRANCH 20 21
ENDBRANCH 16 20
ENDBRANCH 13 16
ENDBRANCH 6 12
ENDBRANCH 3 6
ENDBRANCH 1 2
BRANCH 1 29
ATOM     29  CB  SER T 970      32.869  37.719  -6.659  1.00 55.16 LIG 0.20  C 
BRANCH 29 30
ATOM     30 OG   SER T 970      33.232  36.507  -7.294  1.00 59.72 LIG-0.40  OA
ATOM     31 HG   SER T 970      32.861  35.863  -6.902  1.00 59.72 LIG 0.21  HD
ENDBRANCH 29 30
ENDBRANCH 1 29
BRANCH 1 32
ATOM     32  N   SER T 970      30.821  38.938  -7.270  1.00 52.51 LIG-0.34  N 
ATOM     33  C   VAL T 969      30.236  40.113  -7.493  1.00 50.69 LIG 0.24  C 
ATOM     34 O    VAL T 969      30.703  40.952  -8.264  1.00 50.98 LIG-0.27  OA
ATOM     35 H    SER T 970      30.429  38.272  -6.893  1.00 52.51 LIG 0.16  HD
BRANCH 33 36
ATOM     36  CA  VAL T 969      28.891  40.356  -6.785  1.00 48.28 LIG 0.18  C 
BRANCH 36 37
ATOM     37  CB  VAL T 969      29.067  41.233  -5.535  1.00 45.61 LIG 0.01  C 
ATOM     38  CG1 VAL T 969      30.515  41.228  -5.047  1.00 51.33 LIG 0.01  C 
ATOM     39  CG2 VAL T 969      28.609  42.662  -5.829  1.00 51.13 LIG 0.01  C 
ENDBRANCH 36 37
BRANCH 36 40
ATOM     40  N   VAL T 969      28.299  39.077  -6.437  1.00 42.62 LIG-0.35  N 
ATOM     41  C   GLU T 968      27.896  38.248  -7.385  1.00 39.23 LIG 0.24  C 
ATOM     42 O    GLU T 968      27.904  38.541  -8.576  1.00 41.64 LIG-0.27  OA
ATOM     43 H    VAL T 969      28.240  38.921  -5.594  1.00 42.62 LIG 0.16  HD
BRANCH 41 44
ATOM     44  CA  GLU T 968      27.469  36.862  -6.951  1.00 43.46 LIG 0.18  C 
BRANCH 44 45
ATOM     45  CB  GLU T 968      28.572  35.911  -7.383  1.00 39.65 LIG 0.04  C 
BRANCH 45 46
ATOM     46  CG  GLU T 968      29.827  35.905  -6.607  1.00 48.42 LIG 0.12  C 
BRANCH 46 47
ATOM     47  CD  GLU T 968      30.475  34.543  -6.733  1.00 46.07 LIG 0.17  C 
ATOM     48 OE1  GLU T 968      29.719  33.553  -6.907  1.00 37.62 LIG-0.65  OA
ATOM     49 OE2  GLU T 968      31.728  34.478  -6.727  1.00 42.01 LIG-0.65  OA
ENDBRANCH 46 47
ENDBRANCH 45 46
ENDBRANCH 44 45
BRANCH 44 50
ATOM     50  N   GLU T 968      26.182  36.488  -7.530  1.00 42.28 LIG-0.35  N 
ATOM     51  C   GLU T 967      25.119  36.227  -6.770  1.00 44.22 LIG 0.26  C 
ATOM     52 O    GLU T 967      25.168  36.154  -5.551  1.00 45.73 LIG-0.27  OA
ATOM     53 H    GLU T 968      26.177  36.452  -8.390  1.00 42.28 LIG 0.16  HD
BRANCH 51 54
ATOM     54  CA  GLU T 967      23.793  36.003  -7.486  1.00 63.10 LIG 0.40  C 
ATOM     55  N   GLU T 967      22.751  35.657  -6.525  1.00 61.06 LIG 0.61  N 
BRANCH 54 56
ATOM     56  CB  GLU T 967      23.408  37.258  -8.270  1.00 76.10 LIG 0.06  C 
BRANCH 56 57
ATOM     57  CG  GLU T 967      21.926  37.566  -8.231  1.00 93.75 LIG 0.12  C 
BRANCH 57 58
ATOM     58  CD  GLU T 967      21.109  36.545  -8.996  1.00103.86 LIG 0.17  C 
ATOM     59 OE1  GLU T 967      20.595  36.885 -10.082  1.00104.00 LIG-0.65  OA
ATOM     60 OE2  GLU T 967      20.989  35.398  -8.512  1.00109.28 LIG-0.65  OA
ENDBRANCH 57 58
ENDBRANCH 56 57
ENDBRANCH 54 56
ENDBRANCH 51 54
ENDBRANCH 44 50
ENDBRANCH 41 44
ENDBRANCH 36 40
ENDBRANCH 33 36
ENDBRANCH 1 32
TORSDOF 26
ENDMDL
MODEL 6
USER: ADFR SOLUTION from run 183
USER: SCORE 19.153446 LL:  -4.633 LR: -15.806 RR:   0.000 FEB:  -8.050
USER: RMSD 2.453022
USER: SEED 182
USER: STATUS no improvement in best in 4 clusters for 5 generations
USER: GENES 28
USER: genes 0 Translation |==|  0.51212 0.54314 0.57965
USER: genes 1 Rotation |==|  0.62085 0.43609 0.46347 0.97956
USER: genes 2 Torsion [N]-CA--C-[N] |==|  0.45811
USER: genes 3 Torsion [C]-N--CA-[CB] |==|  0.26598
USER: genes 4 Torsion [N]-CA--CB-[CG] |==|  0.45753
USER: genes 5 Torsion [CA]-CB--CG-[CD] |==|  0.21302
USER: genes 6 Torsion [CB]-CG--CD-[OE1] |==|  0.59217
USER: genes 7 Torsion [N]-CA--C-[N] |==|  0.39590
USER: genes 8 Torsion [C]-N--CA-[CB] |==|  0.47733
USER: genes 9 Torsion [N]-CA--C-[O] |==|  0.76506
USER: genes 10 Torsion [N]-CA--CB-[CG] |==|  0.49874
USER: genes 11 Torsion [CA]-CB--CG-[CD1] |==|  0.70313
USER: genes 12 Torsion [CE1]-CZ--OH-[HH] |==|  0.39328
USER: genes 13 Torsion [C]-CA--CB-[OG] |==|  0.89795
USER: genes 14 Torsion [CA]-CB--OG-[HG] |==|  0.16183
USER: genes 15 Torsion [C]-CA--N-[C] |==|  0.75599
USER: genes 16 Torsion [N]-C--CA-[N] |==|  0.02650
USER: genes 17 Torsion [C]-CA--CB-[CG1] |==|  0.89848
USER: genes 18 Torsion [C]-CA--N-[C] |==|  0.75552
USER: genes 19 Torsion [N]-C--CA-[N] |==|  0.47109
USER: genes 20 Torsion [C]-CA--CB-[CG] |==|  0.59635
USER: genes 21 Torsion [CA]-CB--CG-[CD] |==|  0.25572
USER: genes 22 Torsion [CB]-CG--CD-[OE1] |==|  0.72232
USER: genes 23 Torsion [C]-CA--N-[C] |==|  0.76400
USER: genes 24 Torsion [N]-C--CA-[N] |==|  0.92208
USER: genes 25 Torsion [C]-CA--CB-[CG] |==|  0.54470
USER: genes 26 Torsion [CA]-CB--CG-[CD] |==|  0.90087
USER: genes 27 Torsion [CB]-CG--CD-[OE1] |==|  0.85100
ROOT
ATOM      1  CA  SER T 970      32.581  38.851  -7.818  1.00 53.81 LIG 0.20  C 
ENDROOT
BRANCH 1 2
ATOM      2  C   SER T 970      32.782  38.438  -9.271  1.00 54.98 LIG 0.24  C 
ATOM      3  N   GLU T 971      34.009  38.592  -9.748  1.00 36.24 LIG-0.35  N 
ATOM      4 H    GLU T 971      34.675  38.932  -9.324  1.00 36.24 LIG 0.16  HD
ATOM      5 O    SER T 970      31.864  37.943  -9.947  1.00 50.73 LIG-0.27  OA
BRANCH 3 6
ATOM      6  CA  GLU T 971      34.271  38.156 -11.100  1.00 34.69 LIG 0.18  C 
BRANCH 6 7
ATOM      7  CB  GLU T 971      34.160  39.309 -12.093  1.00 35.28 LIG 0.04  C 
BRANCH 7 8
ATOM      8  CG  GLU T 971      34.779  38.992 -13.452  1.00 38.63 LIG 0.12  C 
BRANCH 8 9
ATOM      9  CD  GLU T 971      33.894  38.083 -14.303  1.00 44.02 LIG 0.17  C 
ATOM     10 OE1  GLU T 971      34.433  37.260 -15.078  1.00 46.94 LIG-0.65  OA
ATOM     11 OE2  GLU T 971      32.655  38.192 -14.197  1.00 38.45 LIG-0.65  OA
ENDBRANCH 8 9
ENDBRANCH 7 8
ENDBRANCH 6 7
BRANCH 6 12
ATOM     12  C   GLU T 971      35.650  37.546 -11.177  1.00 38.38 LIG 0.24  C 
ATOM     13  N   TYR T 972      35.739  36.502 -11.977  1.00 34.07 LIG-0.34  N 
ATOM     14 H    TYR T 972      35.064  36.137 -12.366  1.00 34.07 LIG 0.16  HD
ATOM     15 O    GLU T 971      36.605  38.017 -10.541  1.00 36.91 LIG-0.27  OA
BRANCH 13 16
ATOM     16  CA  TYR T 972      37.006  35.876 -12.270  1.00 35.97 LIG 0.19  C 
BRANCH 16 17
ATOM     17  C   TYR T 972      37.886  36.842 -13.071  1.00 45.43 LIG 0.20  C 
ATOM     18 OXT  TYR T 972      38.691  37.549 -12.464  1.00 40.76 LIG-0.65  OA
ATOM     19 O    TYR T 972      37.812  36.961 -14.308  1.00 41.72 LIG-0.65  OA
ENDBRANCH 16 17
BRANCH 16 20
ATOM     20  CB  TYR T 972      36.796  34.582 -13.052  1.00 33.99 LIG 0.07  C 
BRANCH 20 21
ATOM     21  CG  TYR T 972      38.100  33.929 -13.371  1.00 33.93 LIG-0.06  A 
ATOM     22  CD1 TYR T 972      38.607  33.944 -14.663  1.00 33.64 LIG 0.01  A 
ATOM     23  CE1 TYR T 972      39.819  33.353 -14.953  1.00 37.50 LIG 0.04  A 
ATOM     24  CZ  TYR T 972      40.532  32.760 -13.942  1.00 37.64 LIG 0.07  A 
ATOM     25  CE2 TYR T 972      40.063  32.754 -12.652  1.00 36.30 LIG 0.04  A 
ATOM     26  CD2 TYR T 972      38.855  33.331 -12.370  1.00 38.70 LIG 0.01  A 
BRANCH 24 27
ATOM     27 OH   TYR T 972      41.729  32.172 -14.227  1.00 40.25 LIG-0.36  OA
ATOM     28 HH   TYR T 972      42.269  32.320 -13.601  1.00 40.25 LIG 0.22  HD
ENDBRANCH 24 27
ENDBRANCH 20 21
ENDBRANCH 16 20
ENDBRANCH 13 16
ENDBRANCH 6 12
ENDBRANCH 3 6
ENDBRANCH 1 2
BRANCH 1 29
ATOM     29  CB  SER T 970      33.296  37.825  -6.930  1.00 55.16 LIG 0.20  C 
BRANCH 29 30
ATOM     30 OG   SER T 970      33.175  36.523  -7.471  1.00 59.72 LIG-0.40  OA
ATOM     31 HG   SER T 970      33.498  36.510  -8.246  1.00 59.72 LIG 0.21  HD
ENDBRANCH 29 30
ENDBRANCH 1 29
BRANCH 1 32
ATOM     32  N   SER T 970      31.189  39.013  -7.381  1.00 52.51 LIG-0.34  N 
ATOM     33  C   VAL T 969      30.541  40.168  -7.516  1.00 50.69 LIG 0.24  C 
ATOM     34 O    VAL T 969      30.944  41.075  -8.246  1.00 50.98 LIG-0.27  OA
ATOM     35 H    SER T 970      30.841  38.306  -7.037  1.00 52.51 LIG 0.16  HD
BRANCH 33 36
ATOM     36  CA  VAL T 969      29.205  40.299  -6.762  1.00 48.28 LIG 0.18  C 
BRANCH 36 37
ATOM     37  CB  VAL T 969      29.128  41.624  -5.988  1.00 45.61 LIG 0.01  C 
ATOM     38  CG1 VAL T 969      30.486  42.012  -5.405  1.00 51.33 LIG 0.01  C 
ATOM     39  CG2 VAL T 969      28.602  42.733  -6.899  1.00 51.13 LIG 0.01  C 
ENDBRANCH 36 37
BRANCH 36 40
ATOM     40  N   VAL T 969      29.054  39.168  -5.865  1.00 42.62 LIG-0.35  N 
ATOM     41  C   GLU T 968      28.496  38.047  -6.290  1.00 39.23 LIG 0.24  C 
ATOM     42 O    GLU T 968      27.996  37.931  -7.404  1.00 41.64 LIG-0.27  OA
ATOM     43 H    VAL T 969      29.350  39.295  -5.067  1.00 42.62 LIG 0.16  HD
BRANCH 41 44
ATOM     44  CA  GLU T 968      28.548  36.856  -5.357  1.00 43.46 LIG 0.18  C 
BRANCH 44 45
ATOM     45  CB  GLU T 968      30.003  36.430  -5.276  1.00 39.65 LIG 0.04  C 
BRANCH 45 46
ATOM     46  CG  GLU T 968      30.298  34.990  -5.144  1.00 48.42 LIG 0.12  C 
BRANCH 46 47
ATOM     47  CD  GLU T 968      30.490  34.399  -6.523  1.00 46.07 LIG 0.17  C 
ATOM     48 OE1  GLU T 968      29.523  33.774  -7.028  1.00 37.62 LIG-0.65  OA
ATOM     49 OE2  GLU T 968      31.572  34.621  -7.120  1.00 42.01 LIG-0.65  OA
ENDBRANCH 46 47
ENDBRANCH 45 46
ENDBRANCH 44 45
BRANCH 44 50
ATOM     50  N   GLU T 968      27.697  35.766  -5.827  1.00 42.28 LIG-0.35  N 
ATOM     51  C   GLU T 967      26.395  35.719  -5.544  1.00 44.22 LIG 0.26  C 
ATOM     52 O    GLU T 967      25.848  36.497  -4.776  1.00 45.73 LIG-0.27  OA
ATOM     53 H    GLU T 968      28.107  35.171  -6.293  1.00 42.28 LIG 0.16  HD
BRANCH 51 54
ATOM     54  CA  GLU T 967      25.578  34.624  -6.217  1.00 63.10 LIG 0.40  C 
ATOM     55  N   GLU T 967      26.179  34.259  -7.496  1.00 61.06 LIG 0.61  N 
BRANCH 54 56
ATOM     56  CB  GLU T 967      25.485  33.406  -5.299  1.00 76.10 LIG 0.06  C 
BRANCH 56 57
ATOM     57  CG  GLU T 967      25.038  32.145  -6.007  1.00 93.75 LIG 0.12  C 
BRANCH 57 58
ATOM     58  CD  GLU T 967      24.018  32.429  -7.090  1.00103.86 LIG 0.17  C 
ATOM     59 OE1  GLU T 967      22.993  33.076  -6.789  1.00104.00 LIG-0.65  OA
ATOM     60 OE2  GLU T 967      24.247  32.011  -8.246  1.00109.28 LIG-0.65  OA
ENDBRANCH 57 58
ENDBRANCH 56 57
ENDBRANCH 54 56
ENDBRANCH 51 54
ENDBRANCH 44 50
ENDBRANCH 41 44
ENDBRANCH 36 40
ENDBRANCH 33 36
ENDBRANCH 1 32
TORSDOF 26
ENDMDL
MODEL 7
USER: ADFR SOLUTION from run 82
USER: SCORE 18.806952 LL:  -4.610 LR: -15.762 RR:   0.000 FEB:  -8.006
USER: RMSD 4.054261
USER: SEED 81
USER: STATUS no improvement in best in 3 clusters for 5 generations
USER: GENES 28
USER: genes 0 Translation |==|  0.52141 0.54914 0.57583
USER: genes 1 Rotation |==|  0.54537 0.49984 0.63033 0.98058
USER: genes 2 Torsion [N]-CA--C-[N] |==|  0.37222
USER: genes 3 Torsion [C]-N--CA-[CB] |==|  0.48467
USER: genes 4 Torsion [N]-CA--CB-[CG] |==|  0.47235
USER: genes 5 Torsion [CA]-CB--CG-[CD] |==|  0.21396
USER: genes 6 Torsion [CB]-CG--CD-[OE1] |==|  0.04927
USER: genes 7 Torsion [N]-CA--C-[N] |==|  0.37242
USER: genes 8 Torsion [C]-N--CA-[CB] |==|  0.49568
USER: genes 9 Torsion [N]-CA--C-[O] |==|  0.35583
USER: genes 10 Torsion [N]-CA--CB-[CG] |==|  0.41968
USER: genes 11 Torsion [CA]-CB--CG-[CD1] |==|  0.71678
USER: genes 12 Torsion [CE1]-CZ--OH-[HH] |==|  0.69392
USER: genes 13 Torsion [C]-CA--CB-[OG] |==|  0.48594
USER: genes 14 Torsion [CA]-CB--OG-[HG] |==|  0.41536
USER: genes 15 Torsion [C]-CA--N-[C] |==|  0.87118
USER: genes 16 Torsion [N]-C--CA-[N] |==|  0.92573
USER: genes 17 Torsion [C]-CA--CB-[CG1] |==|  0.18070
USER: genes 18 Torsion [C]-CA--N-[C] |==|  0.70426
USER: genes 19 Torsion [N]-C--CA-[N] |==|  0.50081
USER: genes 20 Torsion [C]-CA--CB-[CG] |==|  0.76281
USER: genes 21 Torsion [CA]-CB--CG-[CD] |==|  0.24245
USER: genes 22 Torsion [CB]-CG--CD-[OE1] |==|  0.74091
USER: genes 23 Torsion [C]-CA--N-[C] |==|  0.77154
USER: genes 24 Torsion [N]-C--CA-[N] |==|  0.36114
USER: genes 25 Torsion [C]-CA--CB-[CG] |==|  0.53728
USER: genes 26 Torsion [CA]-CB--CG-[CD] |==|  0.86326
USER: genes 27 Torsion [CB]-CG--CD-[OE1] |==|  0.70897
ROOT
ATOM      1  CA  SER T 970      32.846  38.968  -7.892  1.00 53.81 LIG 0.20  C 
ENDROOT
BRANCH 1 2
ATOM      2  C   SER T 970      33.293  38.260  -9.166  1.00 54.98 LIG 0.24  C 
ATOM      3  N   GLU T 971      33.590  39.050 -10.188  1.00 36.24 LIG-0.35  N 
ATOM      4 H    GLU T 971      33.518  39.907 -10.200  1.00 36.24 LIG 0.16  HD
ATOM      5 O    SER T 970      33.415  37.025  -9.223  1.00 50.73 LIG-0.27  OA
BRANCH 3 6
ATOM      6  CA  GLU T 971      34.081  38.436 -11.399  1.00 34.69 LIG 0.18  C 
BRANCH 6 7
ATOM      7  CB  GLU T 971      34.247  39.459 -12.519  1.00 35.28 LIG 0.04  C 
BRANCH 7 8
ATOM      8  CG  GLU T 971      34.987  38.903 -13.734  1.00 38.63 LIG 0.12  C 
BRANCH 8 9
ATOM      9  CD  GLU T 971      34.103  38.008 -14.601  1.00 44.02 LIG 0.17  C 
ATOM     10 OE1  GLU T 971      32.859  38.073 -14.473  1.00 46.94 LIG-0.65  OA
ATOM     11 OE2  GLU T 971      34.654  37.236 -15.412  1.00 38.45 LIG-0.65  OA
ENDBRANCH 8 9
ENDBRANCH 7 8
ENDBRANCH 6 7
BRANCH 6 12
ATOM     12  C   GLU T 971      35.403  37.759 -11.125  1.00 38.38 LIG 0.24  C 
ATOM     13  N   TYR T 972      35.505  36.543 -11.623  1.00 34.07 LIG-0.34  N 
ATOM     14 H    TYR T 972      34.857  36.125 -12.003  1.00 34.07 LIG 0.16  HD
ATOM     15 O    GLU T 971      36.305  38.330 -10.494  1.00 36.91 LIG-0.27  OA
BRANCH 13 16
ATOM     16  CA  TYR T 972      36.742  35.801 -11.567  1.00 35.97 LIG 0.19  C 
BRANCH 16 17
ATOM     17  C   TYR T 972      37.839  36.572 -12.310  1.00 45.43 LIG 0.20  C 
ATOM     18 OXT  TYR T 972      37.625  36.937 -13.467  1.00 40.76 LIG-0.65  OA
ATOM     19 O    TYR T 972      38.946  36.832 -11.805  1.00 41.72 LIG-0.65  OA
ENDBRANCH 16 17
BRANCH 16 20
ATOM     20  CB  TYR T 972      36.564  34.415 -12.180  1.00 33.99 LIG 0.07  C 
BRANCH 20 21
ATOM     21  CG  TYR T 972      37.844  33.917 -12.765  1.00 33.93 LIG-0.06  A 
ATOM     22  CD1 TYR T 972      38.064  33.958 -14.134  1.00 33.64 LIG 0.01  A 
ATOM     23  CE1 TYR T 972      39.254  33.511 -14.672  1.00 37.50 LIG 0.04  A 
ATOM     24  CZ  TYR T 972      40.230  33.037 -13.833  1.00 37.64 LIG 0.07  A 
ATOM     25  CE2 TYR T 972      40.044  33.009 -12.472  1.00 36.30 LIG 0.04  A 
ATOM     26  CD2 TYR T 972      38.859  33.443 -11.944  1.00 38.70 LIG 0.01  A 
BRANCH 24 27
ATOM     27 OH   TYR T 972      41.405  32.592 -14.361  1.00 40.25 LIG-0.36  OA
ATOM     28 HH   TYR T 972      41.453  31.758 -14.275  1.00 40.25 LIG 0.22  HD
ENDBRANCH 24 27
ENDBRANCH 20 21
ENDBRANCH 16 20
ENDBRANCH 13 16
ENDBRANCH 6 12
ENDBRANCH 3 6
ENDBRANCH 1 2
BRANCH 1 29
ATOM     29  CB  SER T 970      34.030  38.983  -6.918  1.00 55.16 LIG 0.20  C 
BRANCH 29 30
ATOM     30 OG   SER T 970      33.716  39.730  -5.757  1.00 59.72 LIG-0.40  OA
ATOM     31 HG   SER T 970      34.134  39.416  -5.100  1.00 59.72 LIG 0.21  HD
ENDBRANCH 29 30
ENDBRANCH 1 29
BRANCH 1 32
ATOM     32  N   SER T 970      31.657  38.416  -7.232  1.00 52.51 LIG-0.34  N 
ATOM     33  C   VAL T 969      30.558  38.102  -7.915  1.00 50.69 LIG 0.24  C 
ATOM     34 O    VAL T 969      30.547  37.988  -9.141  1.00 50.98 LIG-0.27  OA
ATOM     35 H    SER T 970      31.737  38.317  -6.381  1.00 52.51 LIG 0.16  HD
BRANCH 33 36
ATOM     36  CA  VAL T 969      29.292  37.815  -7.085  1.00 48.28 LIG 0.18  C 
BRANCH 36 37
ATOM     37  CB  VAL T 969      28.405  39.065  -6.970  1.00 45.61 LIG 0.01  C 
ATOM     38  CG1 VAL T 969      27.850  39.486  -8.330  1.00 51.33 LIG 0.01  C 
ATOM     39  CG2 VAL T 969      27.264  38.808  -5.985  1.00 51.13 LIG 0.01  C 
ENDBRANCH 36 37
BRANCH 36 40
ATOM     40  N   VAL T 969      29.684  37.339  -5.772  1.00 42.62 LIG-0.35  N 
ATOM     41  C   GLU T 968      29.543  36.063  -5.454  1.00 39.23 LIG 0.24  C 
ATOM     42 O    GLU T 968      28.998  35.248  -6.191  1.00 41.64 LIG-0.27  OA
ATOM     43 H    VAL T 969      30.001  37.941  -5.246  1.00 42.62 LIG 0.16  HD
BRANCH 41 44
ATOM     44  CA  GLU T 968      30.149  35.609  -4.143  1.00 43.46 LIG 0.18  C 
BRANCH 44 45
ATOM     45  CB  GLU T 968      31.629  35.943  -4.208  1.00 39.65 LIG 0.04  C 
BRANCH 45 46
ATOM     46  CG  GLU T 968      32.532  34.967  -4.849  1.00 48.42 LIG 0.12  C 
BRANCH 46 47
ATOM     47  CD  GLU T 968      32.579  35.244  -6.335  1.00 46.07 LIG 0.17  C 
ATOM     48 OE1  GLU T 968      31.780  34.611  -7.071  1.00 37.62 LIG-0.65  OA
ATOM     49 OE2  GLU T 968      33.358  36.137  -6.749  1.00 42.01 LIG-0.65  OA
ENDBRANCH 46 47
ENDBRANCH 45 46
ENDBRANCH 44 45
BRANCH 44 50
ATOM     50  N   GLU T 968      29.931  34.183  -3.913  1.00 42.28 LIG-0.35  N 
ATOM     51  C   GLU T 967      28.787  33.719  -3.410  1.00 44.22 LIG 0.26  C 
ATOM     52 O    GLU T 967      27.898  34.444  -2.988  1.00 45.73 LIG-0.27  OA
ATOM     53 H    GLU T 968      30.598  33.684  -4.129  1.00 42.28 LIG 0.16  HD
BRANCH 51 54
ATOM     54  CA  GLU T 967      28.614  32.207  -3.363  1.00 63.10 LIG 0.40  C 
ATOM     55  N   GLU T 967      28.188  31.788  -2.032  1.00 61.06 LIG 0.61  N 
BRANCH 54 56
ATOM     56  CB  GLU T 967      27.598  31.767  -4.417  1.00 76.10 LIG 0.06  C 
BRANCH 56 57
ATOM     57  CG  GLU T 967      27.119  30.342  -4.240  1.00 93.75 LIG 0.12  C 
BRANCH 57 58
ATOM     58  CD  GLU T 967      28.267  29.371  -4.056  1.00103.86 LIG 0.17  C 
ATOM     59 OE1  GLU T 967      28.581  28.632  -5.013  1.00104.00 LIG-0.65  OA
ATOM     60 OE2  GLU T 967      28.861  29.355  -2.956  1.00109.28 LIG-0.65  OA
ENDBRANCH 57 58
ENDBRANCH 56 57
ENDBRANCH 54 56
ENDBRANCH 51 54
ENDBRANCH 44 50
ENDBRANCH 41 44
ENDBRANCH 36 40
ENDBRANCH 33 36
ENDBRANCH 1 32
TORSDOF 26
ENDMDL
MODEL 8
USER: ADFR SOLUTION from run 79
USER: SCORE 19.500421 LL:  -5.401 LR: -15.540 RR:   0.000 FEB:  -7.784
USER: RMSD 5.049224
USER: SEED 78
USER: STATUS no improvement in best in 9 clusters for 5 generations
USER: GENES 28
USER: genes 0 Translation |==|  0.49991 0.56336 0.58622
USER: genes 1 Rotation |==|  0.57290 0.34597 0.43505 0.96555
USER: genes 2 Torsion [N]-CA--C-[N] |==|  0.21320
USER: genes 3 Torsion [C]-N--CA-[CB] |==|  0.47250
USER: genes 4 Torsion [N]-CA--CB-[CG] |==|  0.57157
USER: genes 5 Torsion [CA]-CB--CG-[CD] |==|  0.35767
USER: genes 6 Torsion [CB]-CG--CD-[OE1] |==|  0.09960
USER: genes 7 Torsion [N]-CA--C-[N] |==|  0.45851
USER: genes 8 Torsion [C]-N--CA-[CB] |==|  0.53726
USER: genes 9 Torsion [N]-CA--C-[O] |==|  0.41070
USER: genes 10 Torsion [N]-CA--CB-[CG] |==|  0.12494
USER: genes 11 Torsion [CA]-CB--CG-[CD1] |==|  0.71296
USER: genes 12 Torsion [CE1]-CZ--OH-[HH] |==|  0.73429
USER: genes 13 Torsion [C]-CA--CB-[OG] |==|  0.58642
USER: genes 14 Torsion [CA]-CB--OG-[HG] |==|  0.64788
USER: genes 15 Torsion [C]-CA--N-[C] |==|  0.73054
USER: genes 16 Torsion [N]-C--CA-[N] |==|  0.87277
USER: genes 17 Torsion [C]-CA--CB-[CG1] |==|  0.77016
USER: genes 18 Torsion [C]-CA--N-[C] |==|  0.74953
USER: genes 19 Torsion [N]-C--CA-[N] |==|  0.96010
USER: genes 20 Torsion [C]-CA--CB-[CG] |==|  0.33472
USER: genes 21 Torsion [CA]-CB--CG-[CD] |==|  0.39582
USER: genes 22 Torsion [CB]-CG--CD-[OE1] |==|  0.81505
USER: genes 23 Torsion [C]-CA--N-[C] |==|  0.80488
USER: genes 24 Torsion [N]-C--CA-[N] |==|  0.32058
USER: genes 25 Torsion [C]-CA--CB-[CG] |==|  0.53121
USER: genes 26 Torsion [CA]-CB--CG-[CD] |==|  0.22389
USER: genes 27 Torsion [CB]-CG--CD-[OE1] |==|  0.71640
ROOT
ATOM      1  CA  SER T 970      32.233  39.246  -7.690  1.00 53.81 LIG 0.20  C 
ENDROOT
BRANCH 1 2
ATOM      2  C   SER T 970      32.729  38.501  -8.924  1.00 54.98 LIG 0.24  C 
ATOM      3  N   GLU T 971      33.070  39.262  -9.955  1.00 36.24 LIG-0.35  N 
ATOM      4 H    GLU T 971      33.002  40.118  -9.993  1.00 36.24 LIG 0.16  HD
ATOM      5 O    SER T 970      32.849  37.265  -8.943  1.00 50.73 LIG-0.27  OA
BRANCH 3 6
ATOM      6  CA  GLU T 971      33.608  38.614 -11.128  1.00 34.69 LIG 0.18  C 
BRANCH 6 7
ATOM      7  CB  GLU T 971      33.722  39.583 -12.301  1.00 35.28 LIG 0.04  C 
BRANCH 7 8
ATOM      8  CG  GLU T 971      33.670  38.887 -13.660  1.00 38.63 LIG 0.12  C 
BRANCH 8 9
ATOM      9  CD  GLU T 971      32.640  39.511 -14.601  1.00 44.02 LIG 0.17  C 
ATOM     10 OE1  GLU T 971      32.461  40.750 -14.571  1.00 46.94 LIG-0.65  OA
ATOM     11 OE2  GLU T 971      32.008  38.761 -15.372  1.00 38.45 LIG-0.65  OA
ENDBRANCH 8 9
ENDBRANCH 7 8
ENDBRANCH 6 7
BRANCH 6 12
ATOM     12  C   GLU T 971      34.965  38.034 -10.810  1.00 38.38 LIG 0.24  C 
ATOM     13  N   TYR T 972      35.407  37.166 -11.697  1.00 34.07 LIG-0.34  N 
ATOM     14 H    TYR T 972      34.942  36.881 -12.362  1.00 34.07 LIG 0.16  HD
ATOM     15 O    GLU T 971      35.596  38.376  -9.798  1.00 36.91 LIG-0.27  OA
BRANCH 13 16
ATOM     16  CA  TYR T 972      36.738  36.611 -11.620  1.00 35.97 LIG 0.19  C 
BRANCH 16 17
ATOM     17  C   TYR T 972      37.745  37.728 -11.321  1.00 45.43 LIG 0.20  C 
ATOM     18 OXT  TYR T 972      37.531  38.853 -11.774  1.00 40.76 LIG-0.65  OA
ATOM     19 O    TYR T 972      38.781  37.547 -10.656  1.00 41.72 LIG-0.65  OA
ENDBRANCH 16 17
BRANCH 16 20
ATOM     20  CB  TYR T 972      37.102  35.908 -12.923  1.00 33.99 LIG 0.07  C 
BRANCH 20 21
ATOM     21  CG  TYR T 972      36.720  36.734 -14.107  1.00 33.93 LIG-0.06  A 
ATOM     22  CD1 TYR T 972      35.593  36.427 -14.856  1.00 33.64 LIG 0.01  A 
ATOM     23  CE1 TYR T 972      35.234  37.201 -15.940  1.00 37.50 LIG 0.04  A 
ATOM     24  CZ  TYR T 972      35.996  38.295 -16.263  1.00 37.64 LIG 0.07  A 
ATOM     25  CE2 TYR T 972      37.102  38.633 -15.521  1.00 36.30 LIG 0.04  A 
ATOM     26  CD2 TYR T 972      37.462  37.856 -14.454  1.00 38.70 LIG 0.01  A 
BRANCH 24 27
ATOM     27 OH   TYR T 972      35.645  39.059 -17.335  1.00 40.25 LIG-0.36  OA
ATOM     28 HH   TYR T 972      36.081  38.813 -18.009  1.00 40.25 LIG 0.22  HD
ENDBRANCH 24 27
ENDBRANCH 20 21
ENDBRANCH 16 20
ENDBRANCH 13 16
ENDBRANCH 6 12
ENDBRANCH 3 6
ENDBRANCH 1 2
BRANCH 1 29
ATOM     29  CB  SER T 970      32.389  38.315  -6.481  1.00 55.16 LIG 0.20  C 
BRANCH 29 30
ATOM     30 OG   SER T 970      31.385  38.572  -5.517  1.00 59.72 LIG-0.40  OA
ATOM     31 HG   SER T 970      31.743  38.709  -4.769  1.00 59.72 LIG 0.21  HD
ENDBRANCH 29 30
ENDBRANCH 1 29
BRANCH 1 32
ATOM     32  N   SER T 970      30.860  39.760  -7.757  1.00 52.51 LIG-0.34  N 
ATOM     33  C   VAL T 969      30.599  41.022  -8.089  1.00 50.69 LIG 0.24  C 
ATOM     34 O    VAL T 969      31.434  41.755  -8.622  1.00 50.98 LIG-0.27  OA
ATOM     35 H    SER T 970      30.254  39.180  -7.564  1.00 52.51 LIG 0.16  HD
BRANCH 33 36
ATOM     36  CA  VAL T 969      29.162  41.516  -7.839  1.00 48.28 LIG 0.18  C 
BRANCH 36 37
ATOM     37  CB  VAL T 969      28.924  41.812  -6.351  1.00 45.61 LIG 0.01  C 
ATOM     38  CG1 VAL T 969      28.584  40.542  -5.573  1.00 51.33 LIG 0.01  C 
ATOM     39  CG2 VAL T 969      30.155  42.492  -5.749  1.00 51.13 LIG 0.01  C 
ENDBRANCH 36 37
BRANCH 36 40
ATOM     40  N   VAL T 969      28.227  40.516  -8.321  1.00 42.62 LIG-0.35  N 
ATOM     41  C   GLU T 968      27.787  40.558  -9.568  1.00 39.23 LIG 0.24  C 
ATOM     42 O    GLU T 968      28.055  41.472 -10.340  1.00 41.64 LIG-0.27  OA
ATOM     43 H    VAL T 969      27.998  39.923  -7.742  1.00 42.62 LIG 0.16  HD
BRANCH 41 44
ATOM     44  CA  GLU T 968      26.969  39.379 -10.049  1.00 43.46 LIG 0.18  C 
BRANCH 44 45
ATOM     45  CB  GLU T 968      25.532  39.859 -10.152  1.00 39.65 LIG 0.04  C 
BRANCH 45 46
ATOM     46  CG  GLU T 968      24.869  39.787 -11.469  1.00 48.42 LIG 0.12  C 
BRANCH 46 47
ATOM     47  CD  GLU T 968      23.421  39.396 -11.269  1.00 46.07 LIG 0.17  C 
ATOM     48 OE1  GLU T 968      23.186  38.242 -10.829  1.00 37.62 LIG-0.65  OA
ATOM     49 OE2  GLU T 968      22.537  40.260 -11.483  1.00 42.01 LIG-0.65  OA
ENDBRANCH 46 47
ENDBRANCH 45 46
ENDBRANCH 44 45
BRANCH 44 50
ATOM     50  N   GLU T 968      27.088  38.237  -9.146  1.00 42.28 LIG-0.35  N 
ATOM     51  C   GLU T 967      28.217  37.536  -9.045  1.00 44.22 LIG 0.26  C 
ATOM     52 O    GLU T 967      29.180  37.708  -9.778  1.00 45.73 LIG-0.27  OA
ATOM     53 H    GLU T 968      26.375  38.064  -8.697  1.00 42.28 LIG 0.16  HD
BRANCH 51 54
ATOM     54  CA  GLU T 967      28.276  36.469  -7.959  1.00 63.10 LIG 0.40  C 
ATOM     55  N   GLU T 967      28.397  35.144  -8.558  1.00 61.06 LIG 0.61  N 
BRANCH 54 56
ATOM     56  CB  GLU T 967      29.451  36.746  -7.022  1.00 76.10 LIG 0.06  C 
BRANCH 56 57
ATOM     57  CG  GLU T 967      29.756  35.603  -6.077  1.00 93.75 LIG 0.12  C 
BRANCH 57 58
ATOM     58  CD  GLU T 967      30.569  34.511  -6.744  1.00103.86 LIG 0.17  C 
ATOM     59 OE1  GLU T 967      29.983  33.472  -7.111  1.00104.00 LIG-0.65  OA
ATOM     60 OE2  GLU T 967      31.794  34.700  -6.908  1.00109.28 LIG-0.65  OA
ENDBRANCH 57 58
ENDBRANCH 56 57
ENDBRANCH 54 56
ENDBRANCH 51 54
ENDBRANCH 44 50
ENDBRANCH 41 44
ENDBRANCH 36 40
ENDBRANCH 33 36
ENDBRANCH 1 32
TORSDOF 26
ENDMDL
MODEL 9
USER: ADFR SOLUTION from run 79
USER: SCORE 19.116368 LL:  -4.975 LR: -15.435 RR:   0.000 FEB:  -7.680
USER: RMSD 4.755076
USER: SEED 78
USER: STATUS no improvement in best in 9 clusters for 5 generations
USER: GENES 28
USER: genes 0 Translation |==|  0.50033 0.54324 0.55522
USER: genes 1 Rotation |==|  0.58854 0.37634 0.41274 0.96825
USER: genes 2 Torsion [N]-CA--C-[N] |==|  0.41500
USER: genes 3 Torsion [C]-N--CA-[CB] |==|  0.23661
USER: genes 4 Torsion [N]-CA--CB-[CG] |==|  0.15684
USER: genes 5 Torsion [CA]-CB--CG-[CD] |==|  0.71136
USER: genes 6 Torsion [CB]-CG--CD-[OE1] |==|  0.19802
USER: genes 7 Torsion [N]-CA--C-[N] |==|  0.42988
USER: genes 8 Torsion [C]-N--CA-[CB] |==|  0.35659
USER: genes 9 Torsion [N]-CA--C-[O] |==|  0.50088
USER: genes 10 Torsion [N]-CA--CB-[CG] |==|  0.69760
USER: genes 11 Torsion [CA]-CB--CG-[CD1] |==|  0.41909
USER: genes 12 Torsion [CE1]-CZ--OH-[HH] |==|  0.35380
USER: genes 13 Torsion [C]-CA--CB-[OG] |==|  0.97053
USER: genes 14 Torsion [CA]-CB--OG-[HG] |==|  0.19119
USER: genes 15 Torsion [C]-CA--N-[C] |==|  0.69387
USER: genes 16 Torsion [N]-C--CA-[N] |==|  0.90390
USER: genes 17 Torsion [C]-CA--CB-[CG1] |==|  0.82798
USER: genes 18 Torsion [C]-CA--N-[C] |==|  0.76194
USER: genes 19 Torsion [N]-C--CA-[N] |==|  0.97114
USER: genes 20 Torsion [C]-CA--CB-[CG] |==|  0.34127
USER: genes 21 Torsion [CA]-CB--CG-[CD] |==|  0.36666
USER: genes 22 Torsion [CB]-CG--CD-[OE1] |==|  0.81677
USER: genes 23 Torsion [C]-CA--N-[C] |==|  0.81501
USER: genes 24 Torsion [N]-C--CA-[N] |==|  0.32353
USER: genes 25 Torsion [C]-CA--CB-[CG] |==|  0.53676
USER: genes 26 Torsion [CA]-CB--CG-[CD] |==|  0.21861
USER: genes 27 Torsion [CB]-CG--CD-[OE1] |==|  0.71833
ROOT
ATOM      1  CA  SER T 970      32.246  38.853  -8.294  1.00 53.81 LIG 0.20  C 
ENDROOT
BRANCH 1 2
ATOM      2  C   SER T 970      32.552  38.221  -9.646  1.00 54.98 LIG 0.24  C 
ATOM      3  N   GLU T 971      33.819  38.280 -10.035  1.00 36.24 LIG-0.35  N 
ATOM      4 H    GLU T 971      34.458  38.670  -9.610  1.00 36.24 LIG 0.16  HD
ATOM      5 O    SER T 970      31.680  37.645 -10.317  1.00 50.73 LIG-0.27  OA
BRANCH 3 6
ATOM      6  CA  GLU T 971      34.178  37.640 -11.278  1.00 34.69 LIG 0.18  C 
BRANCH 6 7
ATOM      7  CB  GLU T 971      33.935  38.558 -12.472  1.00 35.28 LIG 0.04  C 
BRANCH 7 8
ATOM      8  CG  GLU T 971      34.671  39.891 -12.363  1.00 38.63 LIG 0.12  C 
BRANCH 8 9
ATOM      9  CD  GLU T 971      33.744  41.045 -11.980  1.00 44.02 LIG 0.17  C 
ATOM     10 OE1  GLU T 971      33.288  41.098 -10.815  1.00 46.94 LIG-0.65  OA
ATOM     11 OE2  GLU T 971      33.471  41.900 -12.847  1.00 38.45 LIG-0.65  OA
ENDBRANCH 8 9
ENDBRANCH 7 8
ENDBRANCH 6 7
BRANCH 6 12
ATOM     12  C   GLU T 971      35.631  37.231 -11.236  1.00 38.38 LIG 0.24  C 
ATOM     13  N   TYR T 972      35.935  36.223 -12.029  1.00 34.07 LIG-0.34  N 
ATOM     14 H    TYR T 972      35.355  35.774 -12.477  1.00 34.07 LIG 0.16  HD
ATOM     15 O    GLU T 971      36.451  37.821 -10.516  1.00 36.91 LIG-0.27  OA
BRANCH 13 16
ATOM     16  CA  TYR T 972      37.299  35.785 -12.212  1.00 35.97 LIG 0.19  C 
BRANCH 16 17
ATOM     17  C   TYR T 972      37.769  36.140 -13.628  1.00 45.43 LIG 0.20  C 
ATOM     18 OXT  TYR T 972      36.980  36.703 -14.388  1.00 40.76 LIG-0.65  OA
ATOM     19 O    TYR T 972      38.907  35.870 -14.052  1.00 41.72 LIG-0.65  OA
ENDBRANCH 16 17
BRANCH 16 20
ATOM     20  CB  TYR T 972      37.415  34.282 -11.979  1.00 33.99 LIG 0.07  C 
BRANCH 20 21
ATOM     21  CG  TYR T 972      38.138  33.989 -10.706  1.00 33.93 LIG-0.06  A 
ATOM     22  CD1 TYR T 972      37.870  32.835  -9.984  1.00 33.64 LIG 0.01  A 
ATOM     23  CE1 TYR T 972      38.551  32.559  -8.816  1.00 37.50 LIG 0.04  A 
ATOM     24  CZ  TYR T 972      39.513  33.433  -8.380  1.00 37.64 LIG 0.07  A 
ATOM     25  CE2 TYR T 972      39.814  34.569  -9.090  1.00 36.30 LIG 0.04  A 
ATOM     26  CD2 TYR T 972      39.129  34.846 -10.242  1.00 38.70 LIG 0.01  A 
BRANCH 24 27
ATOM     27 OH   TYR T 972      40.185  33.164  -7.225  1.00 40.25 LIG-0.36  OA
ATOM     28 HH   TYR T 972      41.011  33.197  -7.367  1.00 40.25 LIG 0.22  HD
ENDBRANCH 24 27
ENDBRANCH 20 21
ENDBRANCH 16 20
ENDBRANCH 13 16
ENDBRANCH 6 12
ENDBRANCH 3 6
ENDBRANCH 1 2
BRANCH 1 29
ATOM     29  CB  SER T 970      32.496  37.798  -7.210  1.00 55.16 LIG 0.20  C 
BRANCH 29 30
ATOM     30 OG   SER T 970      32.691  36.521  -7.787  1.00 59.72 LIG-0.40  OA
ATOM     31 HG   SER T 970      33.421  36.510  -8.204  1.00 59.72 LIG 0.21  HD
ENDBRANCH 29 30
ENDBRANCH 1 29
BRANCH 1 32
ATOM     32  N   SER T 970      30.902  39.424  -8.141  1.00 52.51 LIG-0.34  N 
ATOM     33  C   VAL T 969      30.703  40.738  -8.058  1.00 50.69 LIG 0.24  C 
ATOM     34 O    VAL T 969      31.563  41.561  -8.374  1.00 50.98 LIG-0.27  OA
ATOM     35 H    SER T 970      30.270  38.841  -8.111  1.00 52.51 LIG 0.16  HD
BRANCH 33 36
ATOM     36  CA  VAL T 969      29.303  41.194  -7.608  1.00 48.28 LIG 0.18  C 
BRANCH 36 37
ATOM     37  CB  VAL T 969      29.212  41.289  -6.077  1.00 45.61 LIG 0.01  C 
ATOM     38  CG1 VAL T 969      29.444  39.932  -5.416  1.00 51.33 LIG 0.01  C 
ATOM     39  CG2 VAL T 969      30.219  42.315  -5.556  1.00 51.13 LIG 0.01  C 
ENDBRANCH 36 37
BRANCH 36 40
ATOM     40  N   VAL T 969      28.313  40.267  -8.126  1.00 42.62 LIG-0.35  N 
ATOM     41  C   GLU T 968      27.822  40.426  -9.343  1.00 39.23 LIG 0.24  C 
ATOM     42 O    GLU T 968      28.088  41.391 -10.050  1.00 41.64 LIG-0.27  OA
ATOM     43 H    VAL T 969      28.089  39.636  -7.587  1.00 42.62 LIG 0.16  HD
BRANCH 41 44
ATOM     44  CA  GLU T 968      26.942  39.316  -9.880  1.00 43.46 LIG 0.18  C 
BRANCH 44 45
ATOM     45  CB  GLU T 968      25.536  39.881  -9.972  1.00 39.65 LIG 0.04  C 
BRANCH 45 46
ATOM     46  CG  GLU T 968      24.862  39.855 -11.285  1.00 48.42 LIG 0.12  C 
BRANCH 46 47
ATOM     47  CD  GLU T 968      23.466  39.299 -11.109  1.00 46.07 LIG 0.17  C 
ATOM     48 OE1  GLU T 968      23.358  38.097 -10.759  1.00 37.62 LIG-0.65  OA
ATOM     49 OE2  GLU T 968      22.493  40.079 -11.252  1.00 42.01 LIG-0.65  OA
ENDBRANCH 46 47
ENDBRANCH 45 46
ENDBRANCH 44 45
BRANCH 44 50
ATOM     50  N   GLU T 968      26.988  38.132  -9.026  1.00 42.28 LIG-0.35  N 
ATOM     51  C   GLU T 967      28.098  37.405  -8.892  1.00 44.22 LIG 0.26  C 
ATOM     52 O    GLU T 967      29.105  37.591  -9.559  1.00 45.73 LIG-0.27  OA
ATOM     53 H    GLU T 968      26.247  37.953  -8.628  1.00 42.28 LIG 0.16  HD
BRANCH 51 54
ATOM     54  CA  GLU T 967      28.074  36.289  -7.856  1.00 63.10 LIG 0.40  C 
ATOM     55  N   GLU T 967      28.232  34.992  -8.506  1.00 61.06 LIG 0.61  N 
BRANCH 54 56
ATOM     56  CB  GLU T 967      29.179  36.513  -6.825  1.00 76.10 LIG 0.06  C 
BRANCH 56 57
ATOM     57  CG  GLU T 967      29.443  35.309  -5.947  1.00 93.75 LIG 0.12  C 
BRANCH 57 58
ATOM     58  CD  GLU T 967      30.281  34.260  -6.651  1.00103.86 LIG 0.17  C 
ATOM     59 OE1  GLU T 967      29.707  33.256  -7.121  1.00104.00 LIG-0.65  OA
ATOM     60 OE2  GLU T 967      31.514  34.448  -6.741  1.00109.28 LIG-0.65  OA
ENDBRANCH 57 58
ENDBRANCH 56 57
ENDBRANCH 54 56
ENDBRANCH 51 54
ENDBRANCH 44 50
ENDBRANCH 41 44
ENDBRANCH 36 40
ENDBRANCH 33 36
ENDBRANCH 1 32
TORSDOF 26
ENDMDL
MODEL 10
USER: ADFR SOLUTION from run 182
USER: SCORE 18.881631 LL:  -4.662 LR: -15.361 RR:   0.000 FEB:  -7.606
USER: RMSD 2.687141
USER: SEED 181
USER: STATUS no improvement in best in 2 clusters for 5 generations
USER: GENES 28
USER: genes 0 Translation |==|  0.54871 0.56834 0.56931
USER: genes 1 Rotation |==|  0.50406 0.49522 0.49082 0.99988
USER: genes 2 Torsion [N]-CA--C-[N] |==|  0.37722
USER: genes 3 Torsion [C]-N--CA-[CB] |==|  0.21209
USER: genes 4 Torsion [N]-CA--CB-[CG] |==|  0.31077
USER: genes 5 Torsion [CA]-CB--CG-[CD] |==|  0.76647
USER: genes 6 Torsion [CB]-CG--CD-[OE1] |==|  0.08265
USER: genes 7 Torsion [N]-CA--C-[N] |==|  0.47426
USER: genes 8 Torsion [C]-N--CA-[CB] |==|  0.37782
USER: genes 9 Torsion [N]-CA--C-[O] |==|  0.39365
USER: genes 10 Torsion [N]-CA--CB-[CG] |==|  0.93941
USER: genes 11 Torsion [CA]-CB--CG-[CD1] |==|  0.74478
USER: genes 12 Torsion [CE1]-CZ--OH-[HH] |==|  0.47821
USER: genes 13 Torsion [C]-CA--CB-[OG] |==|  0.52985
USER: genes 14 Torsion [CA]-CB--OG-[HG] |==|  0.80404
USER: genes 15 Torsion [C]-CA--N-[C] |==|  0.71852
USER: genes 16 Torsion [N]-C--CA-[N] |==|  0.87223
USER: genes 17 Torsion [C]-CA--CB-[CG1] |==|  0.10186
USER: genes 18 Torsion [C]-CA--N-[C] |==|  0.82838
USER: genes 19 Torsion [N]-C--CA-[N] |==|  0.41147
USER: genes 20 Torsion [C]-CA--CB-[CG] |==|  0.33122
USER: genes 21 Torsion [CA]-CB--CG-[CD] |==|  0.43212
USER: genes 22 Torsion [CB]-CG--CD-[OE1] |==|  0.75984
USER: genes 23 Torsion [C]-CA--N-[C] |==|  0.81277
USER: genes 24 Torsion [N]-C--CA-[N] |==|  0.43818
USER: genes 25 Torsion [C]-CA--CB-[CG] |==|  0.46099
USER: genes 26 Torsion [CA]-CB--CG-[CD] |==|  0.18174
USER: genes 27 Torsion [CB]-CG--CD-[OE1] |==|  0.74976
ROOT
ATOM      1  CA  SER T 970      33.624  39.343  -8.020  1.00 53.81 LIG 0.20  C 
ENDROOT
BRANCH 1 2
ATOM      2  C   SER T 970      33.577  38.316  -9.145  1.00 54.98 LIG 0.24  C 
ATOM      3  N   GLU T 971      34.246  38.637 -10.244  1.00 36.24 LIG-0.35  N 
ATOM      4 H    GLU T 971      34.664  39.377 -10.381  1.00 36.24 LIG 0.16  HD
ATOM      5 O    SER T 970      32.990  37.229  -9.020  1.00 50.73 LIG-0.27  OA
BRANCH 3 6
ATOM      6  CA  GLU T 971      34.290  37.673 -11.318  1.00 34.69 LIG 0.18  C 
BRANCH 6 7
ATOM      7  CB  GLU T 971      32.975  37.635 -12.091  1.00 35.28 LIG 0.04  C 
BRANCH 7 8
ATOM      8  CG  GLU T 971      33.101  38.169 -13.516  1.00 38.63 LIG 0.12  C 
BRANCH 8 9
ATOM      9  CD  GLU T 971      32.986  39.691 -13.585  1.00 44.02 LIG 0.17  C 
ATOM     10 OE1  GLU T 971      33.362  40.375 -12.605  1.00 46.94 LIG-0.65  OA
ATOM     11 OE2  GLU T 971      32.517  40.205 -14.621  1.00 38.45 LIG-0.65  OA
ENDBRANCH 8 9
ENDBRANCH 7 8
ENDBRANCH 6 7
BRANCH 6 12
ATOM     12  C   GLU T 971      35.424  38.010 -12.256  1.00 38.38 LIG 0.24  C 
ATOM     13  N   TYR T 972      35.672  37.086 -13.162  1.00 34.07 LIG-0.34  N 
ATOM     14 H    TYR T 972      35.287  36.318 -13.183  1.00 34.07 LIG 0.16  HD
ATOM     15 O    GLU T 971      36.044  39.081 -12.166  1.00 36.91 LIG-0.27  OA
BRANCH 13 16
ATOM     16  CA  TYR T 972      36.635  37.297 -14.218  1.00 35.97 LIG 0.19  C 
BRANCH 16 17
ATOM     17  C   TYR T 972      35.902  37.624 -15.525  1.00 45.43 LIG 0.20  C 
ATOM     18 OXT  TYR T 972      34.863  37.018 -15.787  1.00 40.76 LIG-0.65  OA
ATOM     19 O    TYR T 972      36.319  38.463 -16.344  1.00 41.72 LIG-0.65  OA
ENDBRANCH 16 17
BRANCH 16 20
ATOM     20  CB  TYR T 972      37.511  36.062 -14.399  1.00 33.99 LIG 0.07  C 
BRANCH 20 21
ATOM     21  CG  TYR T 972      37.516  35.219 -13.167  1.00 33.93 LIG-0.06  A 
ATOM     22  CD1 TYR T 972      38.481  35.397 -12.186  1.00 33.64 LIG 0.01  A 
ATOM     23  CE1 TYR T 972      38.474  34.627 -11.041  1.00 37.50 LIG 0.04  A 
ATOM     24  CZ  TYR T 972      37.489  33.689 -10.872  1.00 37.64 LIG 0.07  A 
ATOM     25  CE2 TYR T 972      36.508  33.511 -11.817  1.00 36.30 LIG 0.04  A 
ATOM     26  CD2 TYR T 972      36.525  34.268 -12.957  1.00 38.70 LIG 0.01  A 
BRANCH 24 27
ATOM     27 OH   TYR T 972      37.482  32.925  -9.743  1.00 40.25 LIG-0.36  OA
ATOM     28 HH   TYR T 972      36.775  32.473  -9.715  1.00 40.25 LIG 0.22  HD
ENDBRANCH 24 27
ENDBRANCH 20 21
ENDBRANCH 16 20
ENDBRANCH 13 16
ENDBRANCH 6 12
ENDBRANCH 3 6
ENDBRANCH 1 2
BRANCH 1 29
ATOM     29  CB  SER T 970      34.666  38.876  -6.995  1.00 55.16 LIG 0.20  C 
BRANCH 29 30
ATOM     30 OG   SER T 970      34.586  39.648  -5.811  1.00 59.72 LIG-0.40  OA
ATOM     31 HG   SER T 970      34.868  40.425  -5.964  1.00 59.72 LIG 0.21  HD
ENDBRANCH 29 30
ENDBRANCH 1 29
BRANCH 1 32
ATOM     32  N   SER T 970      32.348  39.621  -7.350  1.00 52.51 LIG-0.34  N 
ATOM     33  C   VAL T 969      31.633  40.710  -7.626  1.00 50.69 LIG 0.24  C 
ATOM     34 O    VAL T 969      31.833  41.400  -8.626  1.00 50.98 LIG-0.27  OA
ATOM     35 H    SER T 970      32.112  39.027  -6.774  1.00 52.51 LIG 0.16  HD
BRANCH 33 36
ATOM     36  CA  VAL T 969      30.480  41.038  -6.660  1.00 48.28 LIG 0.18  C 
BRANCH 36 37
ATOM     37  CB  VAL T 969      31.003  41.654  -5.353  1.00 45.61 LIG 0.01  C 
ATOM     38  CG1 VAL T 969      32.199  42.571  -5.605  1.00 51.33 LIG 0.01  C 
ATOM     39  CG2 VAL T 969      29.882  42.419  -4.650  1.00 51.13 LIG 0.01  C 
ENDBRANCH 36 37
BRANCH 36 40
ATOM     40  N   VAL T 969      29.725  39.827  -6.394  1.00 42.62 LIG-0.35  N 
ATOM     41  C   GLU T 968      29.111  39.192  -7.378  1.00 39.23 LIG 0.24  C 
ATOM     42 O    GLU T 968      29.057  39.628  -8.522  1.00 41.64 LIG-0.27  OA
ATOM     43 H    VAL T 969      29.719  39.577  -5.571  1.00 42.62 LIG 0.16  HD
BRANCH 41 44
ATOM     44  CA  GLU T 968      28.509  37.841  -7.054  1.00 43.46 LIG 0.18  C 
BRANCH 44 45
ATOM     45  CB  GLU T 968      29.589  36.808  -7.324  1.00 39.65 LIG 0.04  C 
BRANCH 45 46
ATOM     46  CG  GLU T 968      30.043  35.969  -6.198  1.00 48.42 LIG 0.12  C 
BRANCH 46 47
ATOM     47  CD  GLU T 968      30.615  34.680  -6.746  1.00 46.07 LIG 0.17  C 
ATOM     48 OE1  GLU T 968      29.814  33.735  -6.965  1.00 37.62 LIG-0.65  OA
ATOM     49 OE2  GLU T 968      31.839  34.641  -7.020  1.00 42.01 LIG-0.65  OA
ENDBRANCH 46 47
ENDBRANCH 45 46
ENDBRANCH 44 45
BRANCH 44 50
ATOM     50  N   GLU T 968      27.310  37.581  -7.847  1.00 42.28 LIG-0.35  N 
ATOM     51  C   GLU T 967      26.190  38.284  -7.677  1.00 44.22 LIG 0.26  C 
ATOM     52 O    GLU T 967      26.038  39.095  -6.775  1.00 45.73 LIG-0.27  OA
ATOM     53 H    GLU T 968      27.395  36.946  -8.421  1.00 42.28 LIG 0.16  HD
BRANCH 51 54
ATOM     54  CA  GLU T 967      25.058  38.033  -8.665  1.00 63.10 LIG 0.40  C 
ATOM     55  N   GLU T 967      23.781  38.433  -8.084  1.00 61.06 LIG 0.61  N 
BRANCH 54 56
ATOM     56  CB  GLU T 967      25.322  38.796  -9.962  1.00 76.10 LIG 0.06  C 
BRANCH 56 57
ATOM     57  CG  GLU T 967      24.446  38.355 -11.115  1.00 93.75 LIG 0.12  C 
BRANCH 57 58
ATOM     58  CD  GLU T 967      22.982  38.664 -10.872  1.00103.86 LIG 0.17  C 
ATOM     59 OE1  GLU T 967      22.278  37.802 -10.305  1.00104.00 LIG-0.65  OA
ATOM     60 OE2  GLU T 967      22.540  39.773 -11.241  1.00109.28 LIG-0.65  OA
ENDBRANCH 57 58
ENDBRANCH 56 57
ENDBRANCH 54 56
ENDBRANCH 51 54
ENDBRANCH 44 50
ENDBRANCH 41 44
ENDBRANCH 36 40
ENDBRANCH 33 36
ENDBRANCH 1 32
TORSDOF 26
ENDMDL
MODEL 11
USER: ADFR SOLUTION from run 63
USER: SCORE 19.396732 LL:  -5.612 LR: -15.040 RR:   0.000 FEB:  -7.284
USER: RMSD 2.827509
USER: SEED 62
USER: STATUS searching
USER: GENES 28
USER: genes 0 Translation |==|  0.53599 0.53155 0.59746
USER: genes 1 Rotation |==|  0.55241 0.47577 0.47699 0.99612
USER: genes 2 Torsion [N]-CA--C-[N] |==|  0.41342
USER: genes 3 Torsion [C]-N--CA-[CB] |==|  0.27120
USER: genes 4 Torsion [N]-CA--CB-[CG] |==|  0.32327
USER: genes 5 Torsion [CA]-CB--CG-[CD] |==|  0.38013
USER: genes 6 Torsion [CB]-CG--CD-[OE1] |==|  0.20549
USER: genes 7 Torsion [N]-CA--C-[N] |==|  0.41792
USER: genes 8 Torsion [C]-N--CA-[CB] |==|  0.15846
USER: genes 9 Torsion [N]-CA--C-[O] |==|  0.43563
USER: genes 10 Torsion [N]-CA--CB-[CG] |==|  0.29519
USER: genes 11 Torsion [CA]-CB--CG-[CD1] |==|  0.77001
USER: genes 12 Torsion [CE1]-CZ--OH-[HH] |==|  0.47763
USER: genes 13 Torsion [C]-CA--CB-[OG] |==|  0.73217
USER: genes 14 Torsion [CA]-CB--OG-[HG] |==|  0.16325
USER: genes 15 Torsion [C]-CA--N-[C] |==|  0.76277
USER: genes 16 Torsion [N]-C--CA-[N] |==|  0.96103
USER: genes 17 Torsion [C]-CA--CB-[CG1] |==|  0.85536
USER: genes 18 Torsion [C]-CA--N-[C] |==|  0.80067
USER: genes 19 Torsion [N]-C--CA-[N] |==|  0.46413
USER: genes 20 Torsion [C]-CA--CB-[CG] |==|  0.63581
USER: genes 21 Torsion [CA]-CB--CG-[CD] |==|  0.22303
USER: genes 22 Torsion [CB]-CG--CD-[OE1] |==|  0.70319
USER: genes 23 Torsion [C]-CA--N-[C] |==|  0.61522
USER: genes 24 Torsion [N]-C--CA-[N] |==|  0.55522
USER: genes 25 Torsion [C]-CA--CB-[CG] |==|  0.61499
USER: genes 26 Torsion [CA]-CB--CG-[CD] |==|  0.81267
USER: genes 27 Torsion [CB]-CG--CD-[OE1] |==|  0.67009
ROOT
ATOM      1  CA  SER T 970      33.262  38.625  -7.471  1.00 53.81 LIG 0.20  C 
ENDROOT
BRANCH 1 2
ATOM      2  C   SER T 970      33.264  37.835  -8.774  1.00 54.98 LIG 0.24  C 
ATOM      3  N   GLU T 971      34.225  38.148  -9.633  1.00 36.24 LIG-0.35  N 
ATOM      4 H    GLU T 971      34.809  38.770  -9.530  1.00 36.24 LIG 0.16  HD
ATOM      5 O    SER T 970      32.448  36.925  -8.993  1.00 50.73 LIG-0.27  OA
BRANCH 3 6
ATOM      6  CA  GLU T 971      34.314  37.386 -10.857  1.00 34.69 LIG 0.18  C 
BRANCH 6 7
ATOM      7  CB  GLU T 971      33.634  38.108 -12.017  1.00 35.28 LIG 0.04  C 
BRANCH 7 8
ATOM      8  CG  GLU T 971      34.603  38.495 -13.132  1.00 38.63 LIG 0.12  C 
BRANCH 8 9
ATOM      9  CD  GLU T 971      34.039  38.215 -14.524  1.00 44.02 LIG 0.17  C 
ATOM     10 OE1  GLU T 971      33.145  38.963 -14.980  1.00 46.94 LIG-0.65  OA
ATOM     11 OE2  GLU T 971      34.492  37.243 -15.164  1.00 38.45 LIG-0.65  OA
ENDBRANCH 8 9
ENDBRANCH 7 8
ENDBRANCH 6 7
BRANCH 6 12
ATOM     12  C   GLU T 971      35.764  37.133 -11.192  1.00 38.38 LIG 0.24  C 
ATOM     13  N   TYR T 972      35.982  36.017 -11.857  1.00 34.07 LIG-0.34  N 
ATOM     14 H    TYR T 972      35.374  35.432 -12.025  1.00 34.07 LIG 0.16  HD
ATOM     15 O    GLU T 971      36.655  37.934 -10.867  1.00 36.91 LIG-0.27  OA
BRANCH 13 16
ATOM     16  CA  TYR T 972      37.289  35.681 -12.371  1.00 35.97 LIG 0.19  C 
BRANCH 16 17
ATOM     17  C   TYR T 972      37.233  34.316 -13.068  1.00 45.43 LIG 0.20  C 
ATOM     18 OXT  TYR T 972      36.351  33.522 -12.742  1.00 40.76 LIG-0.65  OA
ATOM     19 O    TYR T 972      38.051  33.965 -13.938  1.00 41.72 LIG-0.65  OA
ENDBRANCH 16 17
BRANCH 16 20
ATOM     20  CB  TYR T 972      38.317  35.657 -11.245  1.00 33.99 LIG 0.07  C 
BRANCH 20 21
ATOM     21  CG  TYR T 972      38.705  34.256 -10.900  1.00 33.93 LIG-0.06  A 
ATOM     22  CD1 TYR T 972      37.926  33.491 -10.045  1.00 33.64 LIG 0.01  A 
ATOM     23  CE1 TYR T 972      38.278  32.192  -9.740  1.00 37.50 LIG 0.04  A 
ATOM     24  CZ  TYR T 972      39.405  31.656 -10.306  1.00 37.64 LIG 0.07  A 
ATOM     25  CE2 TYR T 972      40.180  32.385 -11.175  1.00 36.30 LIG 0.04  A 
ATOM     26  CD2 TYR T 972      39.834  33.676 -11.466  1.00 38.70 LIG 0.01  A 
BRANCH 24 27
ATOM     27 OH   TYR T 972      39.758  30.374 -10.004  1.00 40.25 LIG-0.36  OA
ATOM     28 HH   TYR T 972      40.395  30.135 -10.496  1.00 40.25 LIG 0.22  HD
ENDBRANCH 24 27
ENDBRANCH 20 21
ENDBRANCH 16 20
ENDBRANCH 13 16
ENDBRANCH 6 12
ENDBRANCH 3 6
ENDBRANCH 1 2
BRANCH 1 29
ATOM     29  CB  SER T 970      34.189  37.910  -6.481  1.00 55.16 LIG 0.20  C 
BRANCH 29 30
ATOM     30 OG   SER T 970      33.449  37.062  -5.622  1.00 59.72 LIG-0.40  OA
ATOM     31 HG   SER T 970      33.030  36.496  -6.080  1.00 59.72 LIG 0.21  HD
ENDBRANCH 29 30
ENDBRANCH 1 29
BRANCH 1 32
ATOM     32  N   SER T 970      31.947  38.851  -6.857  1.00 52.51 LIG-0.34  N 
ATOM     33  C   VAL T 969      31.172  39.872  -7.214  1.00 50.69 LIG 0.24  C 
ATOM     34 O    VAL T 969      31.361  40.522  -8.243  1.00 50.98 LIG-0.27  OA
ATOM     35 H    SER T 970      31.731  38.271  -6.259  1.00 52.51 LIG 0.16  HD
BRANCH 33 36
ATOM     36  CA  VAL T 969      29.966  40.170  -6.305  1.00 48.28 LIG 0.18  C 
BRANCH 36 37
ATOM     37  CB  VAL T 969      30.177  41.465  -5.503  1.00 45.61 LIG 0.01  C 
ATOM     38  CG1 VAL T 969      31.512  41.453  -4.761  1.00 51.33 LIG 0.01  C 
ATOM     39  CG2 VAL T 969      30.094  42.675  -6.433  1.00 51.13 LIG 0.01  C 
ENDBRANCH 36 37
BRANCH 36 40
ATOM     40  N   VAL T 969      29.752  39.043  -5.416  1.00 42.62 LIG-0.35  N 
ATOM     41  C   GLU T 968      29.269  37.905  -5.885  1.00 39.23 LIG 0.24  C 
ATOM     42 O    GLU T 968      28.891  37.767  -7.043  1.00 41.64 LIG-0.27  OA
ATOM     43 H    VAL T 969      29.960  39.184  -4.593  1.00 42.62 LIG 0.16  HD
BRANCH 41 44
ATOM     44  CA  GLU T 968      29.255  36.722  -4.939  1.00 43.46 LIG 0.18  C 
BRANCH 44 45
ATOM     45  CB  GLU T 968      30.701  36.296  -4.753  1.00 39.65 LIG 0.04  C 
BRANCH 45 46
ATOM     46  CG  GLU T 968      31.027  34.865  -4.906  1.00 48.42 LIG 0.12  C 
BRANCH 46 47
ATOM     47  CD  GLU T 968      31.140  34.541  -6.379  1.00 46.07 LIG 0.17  C 
ATOM     48 OE1  GLU T 968      30.210  33.875  -6.901  1.00 37.62 LIG-0.65  OA
ATOM     49 OE2  GLU T 968      32.112  35.010  -7.019  1.00 42.01 LIG-0.65  OA
ENDBRANCH 46 47
ENDBRANCH 45 46
ENDBRANCH 44 45
BRANCH 44 50
ATOM     50  N   GLU T 968      28.437  35.628  -5.456  1.00 42.28 LIG-0.35  N 
ATOM     51  C   GLU T 967      27.623  34.927  -4.667  1.00 44.22 LIG 0.26  C 
ATOM     52 O    GLU T 967      27.595  35.054  -3.451  1.00 45.73 LIG-0.27  OA
ATOM     53 H    GLU T 968      28.530  35.484  -6.299  1.00 42.28 LIG 0.16  HD
BRANCH 51 54
ATOM     54  CA  GLU T 967      26.703  33.918  -5.342  1.00 63.10 LIG 0.40  C 
ATOM     55  N   GLU T 967      25.586  33.586  -4.465  1.00 61.06 LIG 0.61  N 
BRANCH 54 56
ATOM     56  CB  GLU T 967      26.197  34.483  -6.669  1.00 76.10 LIG 0.06  C 
BRANCH 56 57
ATOM     57  CG  GLU T 967      24.733  34.204  -6.928  1.00 93.75 LIG 0.12  C 
BRANCH 57 58
ATOM     58  CD  GLU T 967      24.462  32.729  -7.149  1.00103.86 LIG 0.17  C 
ATOM     59 OE1  GLU T 967      23.987  32.368  -8.246  1.00104.00 LIG-0.65  OA
ATOM     60 OE2  GLU T 967      24.734  31.931  -6.226  1.00109.28 LIG-0.65  OA
ENDBRANCH 57 58
ENDBRANCH 56 57
ENDBRANCH 54 56
ENDBRANCH 51 54
ENDBRANCH 44 50
ENDBRANCH 41 44
ENDBRANCH 36 40
ENDBRANCH 33 36
ENDBRANCH 1 32
TORSDOF 26
ENDMDL
MODEL 12
USER: ADFR SOLUTION from run 109
USER: SCORE 17.554223 LL:  -4.317 LR: -14.982 RR:   0.000 FEB:  -7.226
USER: RMSD 3.753446
USER: SEED 108
USER: STATUS no improvement in best in 2 clusters for 5 generations
USER: GENES 28
USER: genes 0 Translation |==|  0.50461 0.55575 0.57519
USER: genes 1 Rotation |==|  0.57329 0.38609 0.50452 0.98128
USER: genes 2 Torsion [N]-CA--C-[N] |==|  0.28019
USER: genes 3 Torsion [C]-N--CA-[CB] |==|  0.48333
USER: genes 4 Torsion [N]-CA--CB-[CG] |==|  0.50687
USER: genes 5 Torsion [CA]-CB--CG-[CD] |==|  0.17356
USER: genes 6 Torsion [CB]-CG--CD-[OE1] |==|  0.07023
USER: genes 7 Torsion [N]-CA--C-[N] |==|  0.37926
USER: genes 8 Torsion [C]-N--CA-[CB] |==|  0.48442
USER: genes 9 Torsion [N]-CA--C-[O] |==|  0.35540
USER: genes 10 Torsion [N]-CA--CB-[CG] |==|  0.41023
USER: genes 11 Torsion [CA]-CB--CG-[CD1] |==|  0.71601
USER: genes 12 Torsion [CE1]-CZ--OH-[HH] |==|  0.46932
USER: genes 13 Torsion [C]-CA--CB-[OG] |==|  0.58495
USER: genes 14 Torsion [CA]-CB--OG-[HG] |==|  0.63602
USER: genes 15 Torsion [C]-CA--N-[C] |==|  0.68523
USER: genes 16 Torsion [N]-C--CA-[N] |==|  0.86056
USER: genes 17 Torsion [C]-CA--CB-[CG1] |==|  0.22184
USER: genes 18 Torsion [C]-CA--N-[C] |==|  0.68779
USER: genes 19 Torsion [N]-C--CA-[N] |==|  0.29024
USER: genes 20 Torsion [C]-CA--CB-[CG] |==|  0.73244
USER: genes 21 Torsion [CA]-CB--CG-[CD] |==|  0.64043
USER: genes 22 Torsion [CB]-CG--CD-[OE1] |==|  0.19295
USER: genes 23 Torsion [C]-CA--N-[C] |==|  0.75134
USER: genes 24 Torsion [N]-C--CA-[N] |==|  0.57995
USER: genes 25 Torsion [C]-CA--CB-[CG] |==|  0.43399
USER: genes 26 Torsion [CA]-CB--CG-[CD] |==|  0.89800
USER: genes 27 Torsion [CB]-CG--CD-[OE1] |==|  0.77672
ROOT
ATOM      1  CA  SER T 970      32.367  39.097  -7.905  1.00 53.81 LIG 0.20  C 
ENDROOT
BRANCH 1 2
ATOM      2  C   SER T 970      32.912  38.415  -9.154  1.00 54.98 LIG 0.24  C 
ATOM      3  N   GLU T 971      33.361  39.226 -10.102  1.00 36.24 LIG-0.35  N 
ATOM      4 H    GLU T 971      33.337  40.085 -10.083  1.00 36.24 LIG 0.16  HD
ATOM      5 O    SER T 970      32.973  37.178  -9.255  1.00 50.73 LIG-0.27  OA
BRANCH 3 6
ATOM      6  CA  GLU T 971      33.947  38.632 -11.281  1.00 34.69 LIG 0.18  C 
BRANCH 6 7
ATOM      7  CB  GLU T 971      34.278  39.687 -12.334  1.00 35.28 LIG 0.04  C 
BRANCH 7 8
ATOM      8  CG  GLU T 971      34.846  39.091 -13.620  1.00 38.63 LIG 0.12  C 
BRANCH 8 9
ATOM      9  CD  GLU T 971      33.856  38.164 -14.324  1.00 44.02 LIG 0.17  C 
ATOM     10 OE1  GLU T 971      32.629  38.326 -14.134  1.00 46.94 LIG-0.65  OA
ATOM     11 OE2  GLU T 971      34.307  37.270 -15.070  1.00 38.45 LIG-0.65  OA
ENDBRANCH 8 9
ENDBRANCH 7 8
ENDBRANCH 6 7
BRANCH 6 12
ATOM     12  C   GLU T 971      35.199  37.880 -10.900  1.00 38.38 LIG 0.24  C 
ATOM     13  N   TYR T 972      35.321  36.700 -11.475  1.00 34.07 LIG-0.34  N 
ATOM     14 H    TYR T 972      34.712  36.340 -11.964  1.00 34.07 LIG 0.16  HD
ATOM     15 O    GLU T 971      36.034  38.362 -10.119  1.00 36.91 LIG-0.27  OA
BRANCH 13 16
ATOM     16  CA  TYR T 972      36.515  35.902 -11.326  1.00 35.97 LIG 0.19  C 
BRANCH 16 17
ATOM     17  C   TYR T 972      37.706  36.633 -11.957  1.00 45.43 LIG 0.20  C 
ATOM     18 OXT  TYR T 972      37.611  37.022 -13.121  1.00 40.76 LIG-0.65  OA
ATOM     19 O    TYR T 972      38.774  36.838 -11.351  1.00 41.72 LIG-0.65  OA
ENDBRANCH 16 17
BRANCH 16 20
ATOM     20  CB  TYR T 972      36.330  34.535 -11.977  1.00 33.99 LIG 0.07  C 
BRANCH 20 21
ATOM     21  CG  TYR T 972      37.619  34.024 -12.531  1.00 33.93 LIG-0.06  A 
ATOM     22  CD1 TYR T 972      37.885  34.087 -13.892  1.00 33.64 LIG 0.01  A 
ATOM     23  CE1 TYR T 972      39.083  33.629 -14.399  1.00 37.50 LIG 0.04  A 
ATOM     24  CZ  TYR T 972      40.023  33.121 -13.539  1.00 37.64 LIG 0.07  A 
ATOM     25  CE2 TYR T 972      39.793  33.071 -12.186  1.00 36.30 LIG 0.04  A 
ATOM     26  CD2 TYR T 972      38.599  33.516 -11.688  1.00 38.70 LIG 0.01  A 
BRANCH 24 27
ATOM     27 OH   TYR T 972      41.206  32.664 -14.039  1.00 40.25 LIG-0.36  OA
ATOM     28 HH   TYR T 972      41.741  32.525 -13.407  1.00 40.25 LIG 0.22  HD
ENDBRANCH 24 27
ENDBRANCH 20 21
ENDBRANCH 16 20
ENDBRANCH 13 16
ENDBRANCH 6 12
ENDBRANCH 3 6
ENDBRANCH 1 2
BRANCH 1 29
ATOM     29  CB  SER T 970      32.926  38.361  -6.681  1.00 55.16 LIG 0.20  C 
BRANCH 29 30
ATOM     30 OG   SER T 970      32.015  38.421  -5.600  1.00 59.72 LIG-0.40  OA
ATOM     31 HG   SER T 970      32.420  38.663  -4.905  1.00 59.72 LIG 0.21  HD
ENDBRANCH 29 30
ENDBRANCH 1 29
BRANCH 1 32
ATOM     32  N   SER T 970      30.905  39.195  -7.810  1.00 52.51 LIG-0.34  N 
ATOM     33  C   VAL T 969      30.276  40.367  -7.858  1.00 50.69 LIG 0.24  C 
ATOM     34 O    VAL T 969      30.821  41.398  -8.254  1.00 50.98 LIG-0.27  OA
ATOM     35 H    SER T 970      30.505  38.439  -7.723  1.00 52.51 LIG 0.16  HD
BRANCH 33 36
ATOM     36  CA  VAL T 969      28.790  40.365  -7.456  1.00 48.28 LIG 0.18  C 
BRANCH 36 37
ATOM     37  CB  VAL T 969      28.621  40.179  -5.940  1.00 45.61 LIG 0.01  C 
ATOM     38  CG1 VAL T 969      28.854  41.486  -5.185  1.00 51.33 LIG 0.01  C 
ATOM     39  CG2 VAL T 969      27.229  39.626  -5.632  1.00 51.13 LIG 0.01  C 
ENDBRANCH 36 37
BRANCH 36 40
ATOM     40  N   VAL T 969      28.102  39.314  -8.184  1.00 42.62 LIG-0.35  N 
ATOM     41  C   GLU T 968      27.202  39.618  -9.103  1.00 39.23 LIG 0.24  C 
ATOM     42 O    GLU T 968      26.830  40.766  -9.321  1.00 41.64 LIG-0.27  OA
ATOM     43 H    VAL T 969      28.329  38.514  -7.967  1.00 42.62 LIG 0.16  HD
BRANCH 41 44
ATOM     44  CA  GLU T 968      26.671  38.479  -9.949  1.00 43.46 LIG 0.18  C 
BRANCH 44 45
ATOM     45  CB  GLU T 968      26.703  38.955 -11.390  1.00 39.65 LIG 0.04  C 
BRANCH 45 46
ATOM     46  CG  GLU T 968      25.462  39.511 -11.964  1.00 48.42 LIG 0.12  C 
BRANCH 46 47
ATOM     47  CD  GLU T 968      25.183  38.827 -13.285  1.00 46.07 LIG 0.17  C 
ATOM     48 OE1  GLU T 968      24.841  37.618 -13.253  1.00 37.62 LIG-0.65  OA
ATOM     49 OE2  GLU T 968      25.237  39.515 -14.334  1.00 42.01 LIG-0.65  OA
ENDBRANCH 46 47
ENDBRANCH 45 46
ENDBRANCH 44 45
BRANCH 44 50
ATOM     50  N   GLU T 968      25.323  38.089  -9.543  1.00 42.28 LIG-0.35  N 
ATOM     51  C   GLU T 967      25.111  37.162  -8.609  1.00 44.22 LIG 0.26  C 
ATOM     52 O    GLU T 967      26.005  36.485  -8.121  1.00 45.73 LIG-0.27  OA
ATOM     53 H    GLU T 968      24.694  38.506  -9.956  1.00 42.28 LIG 0.16  HD
BRANCH 51 54
ATOM     54  CA  GLU T 967      23.672  36.952  -8.156  1.00 63.10 LIG 0.40  C 
ATOM     55  N   GLU T 967      23.640  36.484  -6.773  1.00 61.06 LIG 0.61  N 
BRANCH 54 56
ATOM     56  CB  GLU T 967      22.886  38.254  -8.302  1.00 76.10 LIG 0.06  C 
BRANCH 56 57
ATOM     57  CG  GLU T 967      21.392  38.049  -8.435  1.00 93.75 LIG 0.12  C 
BRANCH 57 58
ATOM     58  CD  GLU T 967      21.054  36.813  -9.245  1.00103.86 LIG 0.17  C 
ATOM     59 OE1  GLU T 967      21.099  36.887 -10.490  1.00104.00 LIG-0.65  OA
ATOM     60 OE2  GLU T 967      20.753  35.766  -8.632  1.00109.28 LIG-0.65  OA
ENDBRANCH 57 58
ENDBRANCH 56 57
ENDBRANCH 54 56
ENDBRANCH 51 54
ENDBRANCH 44 50
ENDBRANCH 41 44
ENDBRANCH 36 40
ENDBRANCH 33 36
ENDBRANCH 1 32
TORSDOF 26
ENDMDL
MODEL 13
USER: ADFR SOLUTION from run 2
USER: SCORE 17.520919 LL:  -4.629 LR: -14.953 RR:   0.000 FEB:  -7.197
USER: RMSD 2.590742
USER: SEED 253836
USER: STATUS no improvement in best in 3 clusters for 5 generations
USER: GENES 28
USER: genes 0 Translation |==|  0.54426 0.57548 0.60129
USER: genes 1 Rotation |==|  0.48345 0.42521 0.43265 0.98949
USER: genes 2 Torsion [N]-CA--C-[N] |==|  0.27811
USER: genes 3 Torsion [C]-N--CA-[CB] |==|  0.34304
USER: genes 4 Torsion [N]-CA--CB-[CG] |==|  0.24581
USER: genes 5 Torsion [CA]-CB--CG-[CD] |==|  0.41441
USER: genes 6 Torsion [CB]-CG--CD-[OE1] |==|  0.75532
USER: genes 7 Torsion [N]-CA--C-[N] |==|  0.51135
USER: genes 8 Torsion [C]-N--CA-[CB] |==|  0.52181
USER: genes 9 Torsion [N]-CA--C-[O] |==|  0.38590
USER: genes 10 Torsion [N]-CA--CB-[CG] |==|  0.58706
USER: genes 11 Torsion [CA]-CB--CG-[CD1] |==|  0.71260
USER: genes 12 Torsion [CE1]-CZ--OH-[HH] |==|  0.48503
USER: genes 13 Torsion [C]-CA--CB-[OG] |==|  0.53236
USER: genes 14 Torsion [CA]-CB--OG-[HG] |==|  0.50244
USER: genes 15 Torsion [C]-CA--N-[C] |==|  0.75987
USER: genes 16 Torsion [N]-C--CA-[N] |==|  0.88509
USER: genes 17 Torsion [C]-CA--CB-[CG1] |==|  0.81016
USER: genes 18 Torsion [C]-CA--N-[C] |==|  0.77778
USER: genes 19 Torsion [N]-C--CA-[N] |==|  0.41950
USER: genes 20 Torsion [C]-CA--CB-[CG] |==|  0.72770
USER: genes 21 Torsion [CA]-CB--CG-[CD] |==|  0.19271
USER: genes 22 Torsion [CB]-CG--CD-[OE1] |==|  0.72117
USER: genes 23 Torsion [C]-CA--N-[C] |==|  0.81716
USER: genes 24 Torsion [N]-C--CA-[N] |==|  0.63002
USER: genes 25 Torsion [C]-CA--CB-[CG] |==|  0.62560
USER: genes 26 Torsion [CA]-CB--CG-[CD] |==|  0.82876
USER: genes 27 Torsion [CB]-CG--CD-[OE1] |==|  0.79370
ROOT
ATOM      1  CA  SER T 970      33.498  39.482  -7.396  1.00 53.81 LIG 0.20  C 
ENDROOT
BRANCH 1 2
ATOM      2  C   SER T 970      33.498  38.367  -8.435  1.00 54.98 LIG 0.24  C 
ATOM      3  N   GLU T 971      33.913  38.711  -9.647  1.00 36.24 LIG-0.35  N 
ATOM      4 H    GLU T 971      34.142  39.503  -9.894  1.00 36.24 LIG 0.16  HD
ATOM      5 O    SER T 970      33.176  37.202  -8.150  1.00 50.73 LIG-0.27  OA
BRANCH 3 6
ATOM      6  CA  GLU T 971      33.996  37.680 -10.654  1.00 34.69 LIG 0.18  C 
BRANCH 6 7
ATOM      7  CB  GLU T 971      33.165  38.030 -11.884  1.00 35.28 LIG 0.04  C 
BRANCH 7 8
ATOM      8  CG  GLU T 971      33.939  38.844 -12.919  1.00 38.63 LIG 0.12  C 
BRANCH 8 9
ATOM      9  CD  GLU T 971      33.472  38.572 -14.349  1.00 44.02 LIG 0.17  C 
ATOM     10 OE1  GLU T 971      33.995  37.633 -14.991  1.00 46.94 LIG-0.65  OA
ATOM     11 OE2  GLU T 971      32.581  39.300 -14.831  1.00 38.45 LIG-0.65  OA
ENDBRANCH 8 9
ENDBRANCH 7 8
ENDBRANCH 6 7
BRANCH 6 12
ATOM     12  C   GLU T 971      35.438  37.476 -11.053  1.00 38.38 LIG 0.24  C 
ATOM     13  N   TYR T 972      35.614  36.611 -12.031  1.00 34.07 LIG-0.34  N 
ATOM     14 H    TYR T 972      34.983  36.135 -12.371  1.00 34.07 LIG 0.16  HD
ATOM     15 O    GLU T 971      36.359  38.094 -10.497  1.00 36.91 LIG-0.27  OA
BRANCH 13 16
ATOM     16  CA  TYR T 972      36.911  36.390 -12.626  1.00 35.97 LIG 0.19  C 
BRANCH 16 17
ATOM     17  C   TYR T 972      37.537  37.735 -13.013  1.00 45.43 LIG 0.20  C 
ATOM     18 OXT  TYR T 972      36.823  38.590 -13.538  1.00 40.76 LIG-0.65  OA
ATOM     19 O    TYR T 972      38.741  37.998 -12.837  1.00 41.72 LIG-0.65  OA
ENDBRANCH 16 17
BRANCH 16 20
ATOM     20  CB  TYR T 972      36.793  35.491 -13.852  1.00 33.99 LIG 0.07  C 
BRANCH 20 21
ATOM     21  CG  TYR T 972      38.019  34.658 -14.030  1.00 33.93 LIG-0.06  A 
ATOM     22  CD1 TYR T 972      38.963  34.977 -14.996  1.00 33.64 LIG 0.01  A 
ATOM     23  CE1 TYR T 972      40.103  34.215 -15.148  1.00 37.50 LIG 0.04  A 
ATOM     24  CZ  TYR T 972      40.305  33.141 -14.320  1.00 37.64 LIG 0.07  A 
ATOM     25  CE2 TYR T 972      39.397  32.820 -13.340  1.00 36.30 LIG 0.04  A 
ATOM     26  CD2 TYR T 972      38.262  33.571 -13.199  1.00 38.70 LIG 0.01  A 
BRANCH 24 27
ATOM     27 OH   TYR T 972      41.429  32.385 -14.470  1.00 40.25 LIG-0.36  OA
ATOM     28 HH   TYR T 972      41.464  31.811 -13.858  1.00 40.25 LIG 0.22  HD
ENDBRANCH 24 27
ENDBRANCH 20 21
ENDBRANCH 16 20
ENDBRANCH 13 16
ENDBRANCH 6 12
ENDBRANCH 3 6
ENDBRANCH 1 2
BRANCH 1 29
ATOM     29  CB  SER T 970      34.088  38.920  -6.097  1.00 55.16 LIG 0.20  C 
BRANCH 29 30
ATOM     30 OG   SER T 970      33.874  39.813  -5.020  1.00 59.72 LIG-0.40  OA
ATOM     31 HG   SER T 970      34.213  39.495  -4.320  1.00 59.72 LIG 0.21  HD
ENDBRANCH 29 30
ENDBRANCH 1 29
BRANCH 1 32
ATOM     32  N   SER T 970      32.198  40.111  -7.128  1.00 52.51 LIG-0.34  N 
ATOM     33  C   VAL T 969      31.747  41.127  -7.860  1.00 50.69 LIG 0.24  C 
ATOM     34 O    VAL T 969      32.231  41.427  -8.952  1.00 50.98 LIG-0.27  OA
ATOM     35 H    SER T 970      31.767  39.767  -6.468  1.00 52.51 LIG 0.16  HD
BRANCH 33 36
ATOM     36  CA  VAL T 969      30.526  41.884  -7.305  1.00 48.28 LIG 0.18  C 
BRANCH 36 37
ATOM     37  CB  VAL T 969      30.942  42.907  -6.237  1.00 45.61 LIG 0.01  C 
ATOM     38  CG1 VAL T 969      31.450  42.221  -4.970  1.00 51.33 LIG 0.01  C 
ATOM     39  CG2 VAL T 969      32.009  43.847  -6.799  1.00 51.13 LIG 0.01  C 
ENDBRANCH 36 37
BRANCH 36 40
ATOM     40  N   VAL T 969      29.581  40.927  -6.762  1.00 42.62 LIG-0.35  N 
ATOM     41  C   GLU T 968      28.766  40.263  -7.564  1.00 39.23 LIG 0.24  C 
ATOM     42 O    GLU T 968      28.690  40.482  -8.768  1.00 41.64 LIG-0.27  OA
ATOM     43 H    VAL T 969      29.603  40.839  -5.906  1.00 42.62 LIG 0.16  HD
BRANCH 41 44
ATOM     44  CA  GLU T 968      27.948  39.149  -6.945  1.00 43.46 LIG 0.18  C 
BRANCH 44 45
ATOM     45  CB  GLU T 968      28.807  37.898  -6.997  1.00 39.65 LIG 0.04  C 
BRANCH 45 46
ATOM     46  CG  GLU T 968      28.579  36.945  -8.100  1.00 48.42 LIG 0.12  C 
BRANCH 46 47
ATOM     47  CD  GLU T 968      29.041  37.575  -9.396  1.00 46.07 LIG 0.17  C 
ATOM     48 OE1  GLU T 968      28.163  38.070 -10.148  1.00 37.62 LIG-0.65  OA
ATOM     49 OE2  GLU T 968      30.274  37.636  -9.621  1.00 42.01 LIG-0.65  OA
ENDBRANCH 46 47
ENDBRANCH 45 46
ENDBRANCH 44 45
BRANCH 44 50
ATOM     50  N   GLU T 968      26.681  38.958  -7.646  1.00 42.28 LIG-0.35  N 
ATOM     51  C   GLU T 967      25.729  39.891  -7.646  1.00 44.22 LIG 0.26  C 
ATOM     52 O    GLU T 967      25.786  40.905  -6.965  1.00 45.73 LIG-0.27  OA
ATOM     53 H    GLU T 968      26.610  38.201  -8.051  1.00 42.28 LIG 0.16  HD
BRANCH 51 54
ATOM     54  CA  GLU T 967      24.519  39.648  -8.539  1.00 63.10 LIG 0.40  C 
ATOM     55  N   GLU T 967      24.207  40.851  -9.305  1.00 61.06 LIG 0.61  N 
BRANCH 54 56
ATOM     56  CB  GLU T 967      24.792  38.470  -9.473  1.00 76.10 LIG 0.06  C 
BRANCH 56 57
ATOM     57  CG  GLU T 967      24.383  38.727 -10.908  1.00 93.75 LIG 0.12  C 
BRANCH 57 58
ATOM     58  CD  GLU T 967      22.896  38.984 -11.042  1.00103.86 LIG 0.17  C 
ATOM     59 OE1  GLU T 967      22.112  38.017 -10.938  1.00104.00 LIG-0.65  OA
ATOM     60 OE2  GLU T 967      22.512  40.156 -11.242  1.00109.28 LIG-0.65  OA
ENDBRANCH 57 58
ENDBRANCH 56 57
ENDBRANCH 54 56
ENDBRANCH 51 54
ENDBRANCH 44 50
ENDBRANCH 41 44
ENDBRANCH 36 40
ENDBRANCH 33 36
ENDBRANCH 1 32
TORSDOF 26
ENDMDL
