MODEL 1
USER: ADFR SOLUTION from run 155
USER: SCORE 17.275074 LL:  -3.615 LR: -17.671 RR:   0.000 FEB: -12.004
USER: RMSD 2.618684
USER: SEED 154
USER: STATUS no improvement in best in 4 clusters for 5 generations
USER: GENES 21
USER: genes 0 Translation |==|  0.47880 0.55753 0.54204
USER: genes 1 Rotation |==|  0.51506 0.47371 0.50861 0.99901
USER: genes 2 Torsion [N]-CA--C-[N] |==|  0.41332
USER: genes 3 Torsion [C]-N--CA-[CB] |==|  0.26421
USER: genes 4 Torsion [N]-CA--C-[N] |==|  0.37555
USER: genes 5 Torsion [C]-N--CA-[CB] |==|  0.42639
USER: genes 6 Torsion [N]-CA--C-[N] |==|  0.33014
USER: genes 7 Torsion [C]-N--CA-[CB] |==|  0.48892
USER: genes 8 Torsion [N]-CA--C-[OXT] |==|  0.93367
USER: genes 9 Torsion [N]-CA--CB-[CG] |==|  0.41049
USER: genes 10 Torsion [CA]-CB--CG-[CD2] |==|  0.22332
USER: genes 11 Torsion [C]-CA--CB-[CG] |==|  0.41943
USER: genes 12 Torsion [CA]-CB--CG-[OD2] |==|  0.39795
USER: genes 13 Torsion [C]-CA--N-[C] |==|  0.60708
USER: genes 14 Torsion [N]-C--CA-[N] |==|  0.56667
USER: genes 15 Torsion [C]-CA--CB-[CG] |==|  0.52883
USER: genes 16 Torsion [CA]-CB--CG-[CD2] |==|  0.62348
USER: genes 17 Torsion [C]-CA--N-[C] |==|  0.76558
USER: genes 18 Torsion [N]-C--CA-[N] |==|  0.40055
USER: genes 19 Torsion [C]-CA--CB-[CG] |==|  0.54076
USER: genes 20 Torsion [CA]-CB--CG-[OD2] |==|  0.16748
ROOT
ATOM      1  CA  ASP C 155     -10.863  12.472 -23.630  1.00 34.31 LIG 0.19  C 
ENDROOT
BRANCH 1 2
ATOM      2  C   ASP C 155     -10.247  11.088 -23.521  1.00 33.42 LIG 0.24  C 
ATOM      3 O    ASP C 155      -9.021  10.934 -23.550  1.00 32.60 LIG-0.27  OA
ATOM      4  N   ALA C 156     -11.111  10.088 -23.366  1.00 30.74 LIG-0.35  N 
ATOM      5 H    ALA C 156     -11.957  10.202 -23.271  1.00 30.74 LIG 0.16  HD
BRANCH 4 6
ATOM      6  CA  ALA C 156     -10.695   8.697 -23.341  1.00 30.13 LIG 0.17  C 
ATOM      7  CB  ALA C 156     -10.497   8.229 -21.908  1.00 30.23 LIG 0.04  C 
BRANCH 6 8
ATOM      8  C   ALA C 156     -11.758   7.865 -24.037  1.00 29.70 LIG 0.24  C 
ATOM      9  N   HIS C 157     -11.302   6.954 -24.891  1.00 30.21 LIG-0.35  N 
ATOM     10 H    HIS C 157     -10.466   6.797 -25.017  1.00 30.21 LIG 0.16  HD
ATOM     11 O    ALA C 156     -12.962   8.053 -23.806  1.00 27.33 LIG-0.27  OA
BRANCH 9 12
ATOM     12  CA  HIS C 157     -12.191   6.128 -25.703  1.00 31.06 LIG 0.18  C 
BRANCH 12 13
ATOM     13  C   HIS C 157     -12.655   4.939 -24.883  1.00 30.33 LIG 0.24  C 
ATOM     14  N   ALA C 158     -13.965   4.841 -24.676  1.00 29.79 LIG-0.34  N 
ATOM     15 H    ALA C 158     -14.545   5.383 -25.009  1.00 29.79 LIG 0.16  HD
ATOM     16 O    HIS C 157     -11.836   4.135 -24.424  1.00 30.67 LIG-0.27  OA
BRANCH 14 17
ATOM     17  CA  ALA C 158     -14.538   3.781 -23.845  1.00 31.13 LIG 0.18  C 
ATOM     18  CB  ALA C 158     -16.044   3.962 -23.697  1.00 30.84 LIG 0.04  C 
BRANCH 17 19
ATOM     19  C   ALA C 158     -14.228   2.403 -24.409  1.00 31.87 LIG 0.20  C 
ATOM     20 OXT  ALA C 158     -13.976   2.254 -25.607  1.00 33.04 LIG-0.65  OA
ATOM     21 O    ALA C 158     -14.231   1.416 -23.668  1.00 31.17 LIG-0.65  OA
ENDBRANCH 17 19
ENDBRANCH 14 17
ENDBRANCH 12 13
BRANCH 12 22
ATOM     22  CB  HIS C 157     -11.481   5.688 -26.988  1.00 32.09 LIG 0.10  C 
BRANCH 22 23
ATOM     23  CG  HIS C 157     -11.917   4.339 -27.470  1.00 35.38 LIG 0.06  A 
ATOM     24 ND1  HIS C 157     -11.215   3.185 -27.186  1.00 36.48 LIG-0.24  NA
ATOM     25  CE1 HIS C 157     -11.848   2.149 -27.709  1.00 37.27 LIG 0.23  A 
ATOM     26 NE2  HIS C 157     -12.941   2.587 -28.313  1.00 37.33 LIG-0.25  NA
ATOM     27  CD2 HIS C 157     -13.010   3.953 -28.174  1.00 35.91 LIG 0.14  A 
ENDBRANCH 22 23
ENDBRANCH 12 22
ENDBRANCH 9 12
ENDBRANCH 6 8
ENDBRANCH 4 6
ENDBRANCH 1 2
BRANCH 1 28
ATOM     28  CB  ASP C 155     -11.158  12.782 -25.086  1.00 35.23 LIG 0.15  C 
BRANCH 28 29
ATOM     29  CG  ASP C 155     -12.333  13.726 -25.263  1.00 35.97 LIG 0.17  C 
ATOM     30 OD2  ASP C 155     -12.251  14.557 -26.183  1.00 39.40 LIG-0.65  OA
ATOM     31 OD1  ASP C 155     -13.330  13.661 -24.511  1.00 38.01 LIG-0.65  OA
ENDBRANCH 28 29
ENDBRANCH 1 28
BRANCH 1 32
ATOM     32  N   ASP C 155      -9.961  13.460 -23.076  1.00 36.13 LIG-0.34  N 
ATOM     33 H    ASP C 155      -9.131  13.316 -23.247  1.00 36.13 LIG 0.16  HD
ATOM     34  C   HIS C 154     -10.399  14.490 -22.368  1.00 38.66 LIG 0.24  C 
ATOM     35 O    HIS C 154     -11.592  14.703 -22.168  1.00 35.33 LIG-0.27  OA
BRANCH 34 36
ATOM     36  CA  HIS C 154      -9.342  15.438 -21.829  1.00 42.51 LIG 0.18  C 
BRANCH 36 37
ATOM     37  CB  HIS C 154      -8.083  14.668 -21.430  1.00 45.16 LIG 0.10  C 
BRANCH 37 38
ATOM     38  CG  HIS C 154      -7.094  15.493 -20.666  1.00 48.44 LIG 0.06  A 
ATOM     39 ND1  HIS C 154      -7.466  16.356 -19.656  1.00 50.51 LIG-0.24  NA
ATOM     40  CE1 HIS C 154      -6.393  16.958 -19.175  1.00 51.05 LIG 0.23  A 
ATOM     41 NE2  HIS C 154      -5.339  16.519 -19.838  1.00 50.26 LIG-0.25  NA
ATOM     42  CD2 HIS C 154      -5.749  15.604 -20.778  1.00 50.26 LIG 0.14  A 
ENDBRANCH 37 38
ENDBRANCH 36 37
BRANCH 36 43
ATOM     43  N   HIS C 154      -9.921  16.099 -20.676  1.00 45.99 LIG-0.34  N 
ATOM     44  C   ASP C 153     -10.688  17.177 -20.786  1.00 51.00 LIG 0.26  C 
ATOM     45 O    ASP C 153     -10.818  17.818 -21.831  1.00 50.83 LIG-0.27  OA
ATOM     46 H    HIS C 154      -9.722  15.730 -19.924  1.00 45.99 LIG 0.16  HD
BRANCH 44 47
ATOM     47  CA  ASP C 153     -11.419  17.597 -19.515  1.00 53.77 LIG 0.41  C 
ATOM     48  N   ASP C 153     -11.527  19.088 -19.383  1.00 52.50 LIG 0.61  N 
BRANCH 47 49
ATOM     49  CB  ASP C 153     -12.798  16.925 -19.497  1.00 54.86 LIG 0.16  C 
BRANCH 49 50
ATOM     50  CG  ASP C 153     -13.733  17.540 -18.479  1.00 56.45 LIG 0.17  C 
ATOM     51 OD2  ASP C 153     -14.021  18.756 -18.591  1.00 58.24 LIG-0.65  OA
ATOM     52 OD1  ASP C 153     -14.174  16.806 -17.572  1.00 54.42 LIG-0.65  OA
ENDBRANCH 49 50
ENDBRANCH 47 49
ENDBRANCH 44 47
ENDBRANCH 36 43
ENDBRANCH 34 36
ENDBRANCH 1 32
TORSDOF 19
ENDMDL
MODEL 2
USER: ADFR SOLUTION from run 21
USER: SCORE 17.921364 LL:  -4.014 LR: -17.449 RR:   0.000 FEB: -11.781
USER: RMSD 4.129104
USER: SEED 20
USER: STATUS no improvement in best in 3 clusters for 5 generations
USER: GENES 21
USER: genes 0 Translation |==|  0.46854 0.55854 0.54751
USER: genes 1 Rotation |==|  0.46909 0.55863 0.49970 0.99559
USER: genes 2 Torsion [N]-CA--C-[N] |==|  0.45340
USER: genes 3 Torsion [C]-N--CA-[CB] |==|  0.30204
USER: genes 4 Torsion [N]-CA--C-[N] |==|  0.34870
USER: genes 5 Torsion [C]-N--CA-[CB] |==|  0.43540
USER: genes 6 Torsion [N]-CA--C-[N] |==|  0.32099
USER: genes 7 Torsion [C]-N--CA-[CB] |==|  0.47722
USER: genes 8 Torsion [N]-CA--C-[OXT] |==|  0.95446
USER: genes 9 Torsion [N]-CA--CB-[CG] |==|  0.86772
USER: genes 10 Torsion [CA]-CB--CG-[CD2] |==|  0.46012
USER: genes 11 Torsion [C]-CA--CB-[CG] |==|  0.46994
USER: genes 12 Torsion [CA]-CB--CG-[OD2] |==|  0.27388
USER: genes 13 Torsion [C]-CA--N-[C] |==|  0.70690
USER: genes 14 Torsion [N]-C--CA-[N] |==|  0.92512
USER: genes 15 Torsion [C]-CA--CB-[CG] |==|  0.08497
USER: genes 16 Torsion [CA]-CB--CG-[CD2] |==|  0.68821
USER: genes 17 Torsion [C]-CA--N-[C] |==|  0.73939
USER: genes 18 Torsion [N]-C--CA-[N] |==|  0.43933
USER: genes 19 Torsion [C]-CA--CB-[CG] |==|  0.34028
USER: genes 20 Torsion [CA]-CB--CG-[OD2] |==|  0.45859
ROOT
ATOM      1  CA  ASP C 155     -11.056  12.500 -23.527  1.00 34.31 LIG 0.19  C 
ENDROOT
BRANCH 1 2
ATOM      2  C   ASP C 155     -10.442  11.119 -23.365  1.00 33.42 LIG 0.24  C 
ATOM      3 O    ASP C 155      -9.228  10.943 -23.513  1.00 32.60 LIG-0.27  OA
ATOM      4  N   ALA C 156     -11.291  10.152 -23.031  1.00 30.74 LIG-0.35  N 
ATOM      5 H    ALA C 156     -12.122  10.288 -22.856  1.00 30.74 LIG 0.16  HD
BRANCH 4 6
ATOM      6  CA  ALA C 156     -10.886   8.761 -22.931  1.00 30.13 LIG 0.17  C 
ATOM      7  CB  ALA C 156     -10.861   8.320 -21.476  1.00 30.23 LIG 0.04  C 
BRANCH 6 8
ATOM      8  C   ALA C 156     -11.862   7.916 -23.732  1.00 29.70 LIG 0.24  C 
ATOM      9  N   HIS C 157     -11.315   7.130 -24.654  1.00 30.21 LIG-0.35  N 
ATOM     10 H    HIS C 157     -10.466   7.052 -24.768  1.00 30.21 LIG 0.16  HD
ATOM     11 O    ALA C 156     -13.082   7.985 -23.520  1.00 27.33 LIG-0.27  OA
BRANCH 9 12
ATOM     12  CA  HIS C 157     -12.115   6.317 -25.564  1.00 31.06 LIG 0.18  C 
BRANCH 12 13
ATOM     13  C   HIS C 157     -12.566   5.058 -24.846  1.00 30.33 LIG 0.24  C 
ATOM     14  N   ALA C 158     -13.876   4.922 -24.662  1.00 29.79 LIG-0.34  N 
ATOM     15 H    ALA C 158     -14.463   5.477 -24.958  1.00 29.79 LIG 0.16  HD
ATOM     16 O    HIS C 157     -11.736   4.236 -24.441  1.00 30.67 LIG-0.27  OA
BRANCH 14 17
ATOM     17  CA  ALA C 158     -14.438   3.789 -23.923  1.00 31.13 LIG 0.18  C 
ATOM     18  CB  ALA C 158     -15.931   3.982 -23.689  1.00 30.84 LIG 0.04  C 
BRANCH 17 19
ATOM     19  C   ALA C 158     -14.185   2.474 -24.644  1.00 31.87 LIG 0.20  C 
ATOM     20 OXT  ALA C 158     -13.852   2.460 -25.832  1.00 33.04 LIG-0.65  OA
ATOM     21 O    ALA C 158     -14.315   1.404 -24.043  1.00 31.17 LIG-0.65  OA
ENDBRANCH 17 19
ENDBRANCH 14 17
ENDBRANCH 12 13
BRANCH 12 22
ATOM     22  CB  HIS C 157     -11.314   5.991 -26.829  1.00 32.09 LIG 0.10  C 
BRANCH 22 23
ATOM     23  CG  HIS C 157     -10.638   7.187 -27.424  1.00 35.38 LIG 0.06  A 
ATOM     24 ND1  HIS C 157     -10.918   8.477 -27.019  1.00 36.48 LIG-0.24  NA
ATOM     25  CE1 HIS C 157     -10.152   9.321 -27.690  1.00 37.27 LIG 0.23  A 
ATOM     26 NE2  HIS C 157      -9.378   8.625 -28.507  1.00 37.33 LIG-0.25  NA
ATOM     27  CD2 HIS C 157      -9.659   7.288 -28.357  1.00 35.91 LIG 0.14  A 
ENDBRANCH 22 23
ENDBRANCH 12 22
ENDBRANCH 9 12
ENDBRANCH 6 8
ENDBRANCH 4 6
ENDBRANCH 1 2
BRANCH 1 28
ATOM     28  CB  ASP C 155     -11.817  12.564 -24.838  1.00 35.23 LIG 0.15  C 
BRANCH 28 29
ATOM     29  CG  ASP C 155     -12.676  13.810 -24.962  1.00 35.97 LIG 0.17  C 
ATOM     30 OD2  ASP C 155     -12.205  14.753 -25.618  1.00 39.40 LIG-0.65  OA
ATOM     31 OD1  ASP C 155     -13.803  13.871 -24.422  1.00 38.01 LIG-0.65  OA
ENDBRANCH 28 29
ENDBRANCH 1 28
BRANCH 1 32
ATOM     32  N   ASP C 155     -10.018  13.509 -23.496  1.00 36.13 LIG-0.34  N 
ATOM     33 H    ASP C 155      -9.544  13.551 -24.213  1.00 36.13 LIG 0.16  HD
ATOM     34  C   HIS C 154      -9.832  14.290 -22.443  1.00 38.66 LIG 0.24  C 
ATOM     35 O    HIS C 154     -10.544  14.244 -21.444  1.00 35.33 LIG-0.27  OA
BRANCH 34 36
ATOM     36  CA  HIS C 154      -8.694  15.291 -22.537  1.00 42.51 LIG 0.18  C 
BRANCH 36 37
ATOM     37  CB  HIS C 154      -9.204  16.638 -23.050  1.00 45.16 LIG 0.10  C 
BRANCH 37 38
ATOM     38  CG  HIS C 154     -10.623  16.925 -22.664  1.00 48.44 LIG 0.06  A 
ATOM     39 ND1  HIS C 154     -11.011  17.134 -21.357  1.00 50.51 LIG-0.24  NA
ATOM     40  CE1 HIS C 154     -12.315  17.348 -21.315  1.00 51.05 LIG 0.23  A 
ATOM     41 NE2  HIS C 154     -12.785  17.285 -22.547  1.00 50.26 LIG-0.25  NA
ATOM     42  CD2 HIS C 154     -11.749  17.020 -23.410  1.00 50.26 LIG 0.14  A 
ENDBRANCH 37 38
ENDBRANCH 36 37
BRANCH 36 43
ATOM     43  N   HIS C 154      -7.720  14.733 -23.455  1.00 45.99 LIG-0.34  N 
ATOM     44  C   ASP C 153      -6.683  14.014 -23.040  1.00 51.00 LIG 0.26  C 
ATOM     45 O    ASP C 153      -6.349  13.919 -21.857  1.00 50.83 LIG-0.27  OA
ATOM     46 H    HIS C 154      -7.876  14.910 -24.282  1.00 45.99 LIG 0.16  HD
BRANCH 44 47
ATOM     47  CA  ASP C 153      -5.903  13.293 -24.133  1.00 53.77 LIG 0.41  C 
ATOM     48  N   ASP C 153      -4.504  12.952 -23.709  1.00 52.50 LIG 0.61  N 
BRANCH 47 49
ATOM     49  CB  ASP C 153      -6.688  12.044 -24.555  1.00 54.86 LIG 0.16  C 
BRANCH 49 50
ATOM     50  CG  ASP C 153      -7.015  12.033 -26.032  1.00 56.45 LIG 0.17  C 
ATOM     51 OD2  ASP C 153      -7.396  10.956 -26.552  1.00 58.24 LIG-0.65  OA
ATOM     52 OD1  ASP C 153      -6.891  13.100 -26.667  1.00 54.42 LIG-0.65  OA
ENDBRANCH 49 50
ENDBRANCH 47 49
ENDBRANCH 44 47
ENDBRANCH 36 43
ENDBRANCH 34 36
ENDBRANCH 1 32
TORSDOF 19
ENDMDL
MODEL 3
USER: ADFR SOLUTION from run 55
USER: SCORE 16.957231 LL:  -3.613 LR: -17.381 RR:   0.000 FEB: -11.714
USER: RMSD 1.908728
USER: SEED 54
USER: STATUS 1 or 2 clusters left
USER: GENES 21
USER: genes 0 Translation |==|  0.47753 0.56082 0.53552
USER: genes 1 Rotation |==|  0.51208 0.46188 0.50260 0.99839
USER: genes 2 Torsion [N]-CA--C-[N] |==|  0.36917
USER: genes 3 Torsion [C]-N--CA-[CB] |==|  0.32203
USER: genes 4 Torsion [N]-CA--C-[N] |==|  0.34619
USER: genes 5 Torsion [C]-N--CA-[CB] |==|  0.42794
USER: genes 6 Torsion [N]-CA--C-[N] |==|  0.30159
USER: genes 7 Torsion [C]-N--CA-[CB] |==|  0.46417
USER: genes 8 Torsion [N]-CA--C-[OXT] |==|  0.42270
USER: genes 9 Torsion [N]-CA--CB-[CG] |==|  0.86453
USER: genes 10 Torsion [CA]-CB--CG-[CD2] |==|  0.39230
USER: genes 11 Torsion [C]-CA--CB-[CG] |==|  0.42648
USER: genes 12 Torsion [CA]-CB--CG-[OD2] |==|  0.39304
USER: genes 13 Torsion [C]-CA--N-[C] |==|  0.62230
USER: genes 14 Torsion [N]-C--CA-[N] |==|  0.56052
USER: genes 15 Torsion [C]-CA--CB-[CG] |==|  0.52621
USER: genes 16 Torsion [CA]-CB--CG-[CD2] |==|  0.99633
USER: genes 17 Torsion [C]-CA--N-[C] |==|  0.73198
USER: genes 18 Torsion [N]-C--CA-[N] |==|  0.45006
USER: genes 19 Torsion [C]-CA--CB-[CG] |==|  0.53162
USER: genes 20 Torsion [CA]-CB--CG-[OD2] |==|  0.66010
ROOT
ATOM      1  CA  ASP C 155     -10.887  12.561 -23.752  1.00 34.31 LIG 0.19  C 
ENDROOT
BRANCH 1 2
ATOM      2  C   ASP C 155     -10.313  11.162 -23.602  1.00 33.42 LIG 0.24  C 
ATOM      3 O    ASP C 155      -9.127  10.932 -23.859  1.00 32.60 LIG-0.27  OA
ATOM      4  N   ALA C 156     -11.162  10.241 -23.154  1.00 30.74 LIG-0.35  N 
ATOM      5 H    ALA C 156     -11.966  10.417 -22.905  1.00 30.74 LIG 0.16  HD
BRANCH 4 6
ATOM      6  CA  ALA C 156     -10.801   8.839 -23.044  1.00 30.13 LIG 0.17  C 
ATOM      7  CB  ALA C 156     -10.825   8.399 -21.589  1.00 30.23 LIG 0.04  C 
BRANCH 6 8
ATOM      8  C   ALA C 156     -11.784   8.024 -23.868  1.00 29.70 LIG 0.24  C 
ATOM      9  N   HIS C 157     -11.240   7.235 -24.789  1.00 30.21 LIG-0.35  N 
ATOM     10 H    HIS C 157     -10.391   7.140 -24.892  1.00 30.21 LIG 0.16  HD
ATOM     11 O    ALA C 156     -13.005   8.118 -23.674  1.00 27.33 LIG-0.27  OA
BRANCH 9 12
ATOM     12  CA  HIS C 157     -12.043   6.449 -25.720  1.00 31.06 LIG 0.18  C 
BRANCH 12 13
ATOM     13  C   HIS C 157     -12.477   5.162 -25.043  1.00 30.33 LIG 0.24  C 
ATOM     14  N   ALA C 158     -13.764   5.070 -24.720  1.00 29.79 LIG-0.34  N 
ATOM     15 H    ALA C 158     -14.350   5.672 -24.909  1.00 29.79 LIG 0.16  HD
ATOM     16 O    HIS C 157     -11.652   4.276 -24.793  1.00 30.67 LIG-0.27  OA
BRANCH 14 17
ATOM     17  CA  ALA C 158     -14.299   3.912 -24.002  1.00 31.13 LIG 0.18  C 
ATOM     18  CB  ALA C 158     -15.705   4.197 -23.486  1.00 30.84 LIG 0.04  C 
BRANCH 17 19
ATOM     19  C   ALA C 158     -14.303   2.668 -24.875  1.00 31.87 LIG 0.20  C 
ATOM     20 OXT  ALA C 158     -14.216   1.544 -24.372  1.00 33.04 LIG-0.65  OA
ATOM     21 O    ALA C 158     -14.389   2.772 -26.101  1.00 31.17 LIG-0.65  OA
ENDBRANCH 17 19
ENDBRANCH 14 17
ENDBRANCH 12 13
BRANCH 12 22
ATOM     22  CB  HIS C 157     -11.253   6.174 -27.004  1.00 32.09 LIG 0.10  C 
BRANCH 22 23
ATOM     23  CG  HIS C 157     -10.615   7.402 -27.577  1.00 35.38 LIG 0.06  A 
ATOM     24 ND1  HIS C 157     -11.215   8.644 -27.529  1.00 36.48 LIG-0.24  NA
ATOM     25  CE1 HIS C 157     -10.412   9.539 -28.079  1.00 37.27 LIG 0.23  A 
ATOM     26 NE2  HIS C 157      -9.308   8.924 -28.473  1.00 37.33 LIG-0.25  NA
ATOM     27  CD2 HIS C 157      -9.408   7.588 -28.167  1.00 35.91 LIG 0.14  A 
ENDBRANCH 22 23
ENDBRANCH 12 22
ENDBRANCH 9 12
ENDBRANCH 6 8
ENDBRANCH 4 6
ENDBRANCH 1 2
BRANCH 1 28
ATOM     28  CB  ASP C 155     -11.105  12.863 -25.223  1.00 35.23 LIG 0.15  C 
BRANCH 28 29
ATOM     29  CG  ASP C 155     -12.205  13.882 -25.460  1.00 35.97 LIG 0.17  C 
ATOM     30 OD2  ASP C 155     -12.017  14.709 -26.367  1.00 39.40 LIG-0.65  OA
ATOM     31 OD1  ASP C 155     -13.246  13.878 -24.767  1.00 38.01 LIG-0.65  OA
ENDBRANCH 28 29
ENDBRANCH 1 28
BRANCH 1 32
ATOM     32  N   ASP C 155      -9.987  13.531 -23.165  1.00 36.13 LIG-0.34  N 
ATOM     33 H    ASP C 155      -9.158  13.406 -23.358  1.00 36.13 LIG 0.16  HD
ATOM     34  C   HIS C 154     -10.423  14.519 -22.400  1.00 38.66 LIG 0.24  C 
ATOM     35 O    HIS C 154     -11.614  14.708 -22.168  1.00 35.33 LIG-0.27  OA
BRANCH 34 36
ATOM     36  CA  HIS C 154      -9.367  15.452 -21.833  1.00 42.51 LIG 0.18  C 
BRANCH 36 37
ATOM     37  CB  HIS C 154      -8.112  14.670 -21.444  1.00 45.16 LIG 0.10  C 
BRANCH 37 38
ATOM     38  CG  HIS C 154      -7.116  15.482 -20.674  1.00 48.44 LIG 0.06  A 
ATOM     39 ND1  HIS C 154      -5.940  14.951 -20.187  1.00 50.51 LIG-0.24  NA
ATOM     40  CE1 HIS C 154      -5.270  15.888 -19.540  1.00 51.05 LIG 0.23  A 
ATOM     41 NE2  HIS C 154      -5.969  17.007 -19.589  1.00 50.26 LIG-0.25  NA
ATOM     42  CD2 HIS C 154      -7.129  16.780 -20.291  1.00 50.26 LIG 0.14  A 
ENDBRANCH 37 38
ENDBRANCH 36 37
BRANCH 36 43
ATOM     43  N   HIS C 154      -9.951  16.088 -20.668  1.00 45.99 LIG-0.34  N 
ATOM     44  C   ASP C 153     -10.514  17.289 -20.722  1.00 51.00 LIG 0.26  C 
ATOM     45 O    ASP C 153     -10.423  18.043 -21.694  1.00 50.83 LIG-0.27  OA
ATOM     46 H    HIS C 154      -9.899  15.618 -19.949  1.00 45.99 LIG 0.16  HD
BRANCH 44 47
ATOM     47  CA  ASP C 153     -11.300  17.704 -19.483  1.00 53.77 LIG 0.41  C 
ATOM     48  N   ASP C 153     -11.536  19.185 -19.424  1.00 52.50 LIG 0.61  N 
BRANCH 47 49
ATOM     49  CB  ASP C 153     -12.618  16.918 -19.452  1.00 54.86 LIG 0.16  C 
BRANCH 49 50
ATOM     50  CG  ASP C 153     -13.588  17.450 -18.420  1.00 56.45 LIG 0.17  C 
ATOM     51 OD2  ASP C 153     -14.003  16.668 -17.530  1.00 58.24 LIG-0.65  OA
ATOM     52 OD1  ASP C 153     -13.932  18.647 -18.502  1.00 54.42 LIG-0.65  OA
ENDBRANCH 49 50
ENDBRANCH 47 49
ENDBRANCH 44 47
ENDBRANCH 36 43
ENDBRANCH 34 36
ENDBRANCH 1 32
TORSDOF 19
ENDMDL
MODEL 4
USER: ADFR SOLUTION from run 31
USER: SCORE 18.095369 LL:  -4.182 LR: -17.353 RR:   0.000 FEB: -11.686
USER: RMSD 4.406432
USER: SEED 30
USER: STATUS no improvement in best in 4 clusters for 5 generations
USER: GENES 21
USER: genes 0 Translation |==|  0.47332 0.55485 0.54079
USER: genes 1 Rotation |==|  0.46831 0.52787 0.49667 0.99821
USER: genes 2 Torsion [N]-CA--C-[N] |==|  0.46485
USER: genes 3 Torsion [C]-N--CA-[CB] |==|  0.27015
USER: genes 4 Torsion [N]-CA--C-[N] |==|  0.35761
USER: genes 5 Torsion [C]-N--CA-[CB] |==|  0.43278
USER: genes 6 Torsion [N]-CA--C-[N] |==|  0.31410
USER: genes 7 Torsion [C]-N--CA-[CB] |==|  0.49580
USER: genes 8 Torsion [N]-CA--C-[OXT] |==|  0.44454
USER: genes 9 Torsion [N]-CA--CB-[CG] |==|  0.42829
USER: genes 10 Torsion [CA]-CB--CG-[CD2] |==|  0.22323
USER: genes 11 Torsion [C]-CA--CB-[CG] |==|  0.47712
USER: genes 12 Torsion [CA]-CB--CG-[OD2] |==|  0.29462
USER: genes 13 Torsion [C]-CA--N-[C] |==|  0.71549
USER: genes 14 Torsion [N]-C--CA-[N] |==|  0.96706
USER: genes 15 Torsion [C]-CA--CB-[CG] |==|  0.17135
USER: genes 16 Torsion [CA]-CB--CG-[CD2] |==|  0.24607
USER: genes 17 Torsion [C]-CA--N-[C] |==|  0.75009
USER: genes 18 Torsion [N]-C--CA-[N] |==|  0.51574
USER: genes 19 Torsion [C]-CA--CB-[CG] |==|  0.66217
USER: genes 20 Torsion [CA]-CB--CG-[OD2] |==|  0.33545
ROOT
ATOM      1  CA  ASP C 155     -10.966  12.400 -23.653  1.00 34.31 LIG 0.19  C 
ENDROOT
BRANCH 1 2
ATOM      2  C   ASP C 155     -10.383  11.018 -23.411  1.00 33.42 LIG 0.24  C 
ATOM      3 O    ASP C 155      -9.162  10.849 -23.332  1.00 32.60 LIG-0.27  OA
ATOM      4  N   ALA C 156     -11.273  10.039 -23.266  1.00 30.74 LIG-0.35  N 
ATOM      5 H    ALA C 156     -12.122  10.169 -23.248  1.00 30.74 LIG 0.16  HD
BRANCH 4 6
ATOM      6  CA  ALA C 156     -10.882   8.648 -23.125  1.00 30.13 LIG 0.17  C 
ATOM      7  CB  ALA C 156     -10.859   8.252 -21.657  1.00 30.23 LIG 0.04  C 
BRANCH 6 8
ATOM      8  C   ALA C 156     -11.870   7.790 -23.897  1.00 29.70 LIG 0.24  C 
ATOM      9  N   HIS C 157     -11.331   6.923 -24.748  1.00 30.21 LIG-0.35  N 
ATOM     10 H    HIS C 157     -10.483   6.805 -24.832  1.00 30.21 LIG 0.16  HD
ATOM     11 O    ALA C 156     -13.092   7.921 -23.727  1.00 27.33 LIG-0.27  OA
BRANCH 9 12
ATOM     12  CA  HIS C 157     -12.138   6.083 -25.626  1.00 31.06 LIG 0.18  C 
BRANCH 12 13
ATOM     13  C   HIS C 157     -12.640   4.881 -24.846  1.00 30.33 LIG 0.24  C 
ATOM     14  N   ALA C 158     -13.953   4.821 -24.638  1.00 29.79 LIG-0.34  N 
ATOM     15 H    ALA C 158     -14.515   5.393 -24.950  1.00 29.79 LIG 0.16  HD
ATOM     16 O    HIS C 157     -11.847   4.036 -24.418  1.00 30.67 LIG-0.27  OA
BRANCH 14 17
ATOM     17  CA  ALA C 158     -14.559   3.752 -23.841  1.00 31.13 LIG 0.18  C 
ATOM     18  CB  ALA C 158     -16.067   3.946 -23.733  1.00 30.84 LIG 0.04  C 
BRANCH 17 19
ATOM     19  C   ALA C 158     -14.246   2.381 -24.419  1.00 31.87 LIG 0.20  C 
ATOM     20 OXT  ALA C 158     -14.341   1.366 -23.724  1.00 33.04 LIG-0.65  OA
ATOM     21 O    ALA C 158     -13.888   2.272 -25.595  1.00 31.17 LIG-0.65  OA
ENDBRANCH 17 19
ENDBRANCH 14 17
ENDBRANCH 12 13
BRANCH 12 22
ATOM     22  CB  HIS C 157     -11.324   5.660 -26.854  1.00 32.09 LIG 0.10  C 
BRANCH 22 23
ATOM     23  CG  HIS C 157     -11.796   4.376 -27.461  1.00 35.38 LIG 0.06  A 
ATOM     24 ND1  HIS C 157     -11.211   3.159 -27.177  1.00 36.48 LIG-0.24  NA
ATOM     25  CE1 HIS C 157     -11.853   2.202 -27.826  1.00 37.27 LIG 0.23  A 
ATOM     26 NE2  HIS C 157     -12.840   2.753 -28.513  1.00 37.33 LIG-0.25  NA
ATOM     27  CD2 HIS C 157     -12.830   4.111 -28.299  1.00 35.91 LIG 0.14  A 
ENDBRANCH 22 23
ENDBRANCH 12 22
ENDBRANCH 9 12
ENDBRANCH 6 8
ENDBRANCH 4 6
ENDBRANCH 1 2
BRANCH 1 28
ATOM     28  CB  ASP C 155     -11.560  12.462 -25.048  1.00 35.23 LIG 0.15  C 
BRANCH 28 29
ATOM     29  CG  ASP C 155     -12.339  13.739 -25.302  1.00 35.97 LIG 0.17  C 
ATOM     30 OD2  ASP C 155     -11.804  14.586 -26.037  1.00 39.40 LIG-0.65  OA
ATOM     31 OD1  ASP C 155     -13.465  13.919 -24.790  1.00 38.01 LIG-0.65  OA
ENDBRANCH 28 29
ENDBRANCH 1 28
BRANCH 1 32
ATOM     32  N   ASP C 155      -9.936  13.405 -23.497  1.00 36.13 LIG-0.34  N 
ATOM     33 H    ASP C 155      -9.402  13.471 -24.169  1.00 36.13 LIG 0.16  HD
ATOM     34  C   HIS C 154      -9.842  14.149 -22.406  1.00 38.66 LIG 0.24  C 
ATOM     35 O    HIS C 154     -10.638  14.070 -21.474  1.00 35.33 LIG-0.27  OA
BRANCH 34 36
ATOM     36  CA  HIS C 154      -8.701  15.151 -22.367  1.00 42.51 LIG 0.18  C 
BRANCH 36 37
ATOM     37  CB  HIS C 154      -9.233  16.577 -22.510  1.00 45.16 LIG 0.10  C 
BRANCH 37 38
ATOM     38  CG  HIS C 154     -10.160  16.983 -21.405  1.00 48.44 LIG 0.06  A 
ATOM     39 ND1  HIS C 154     -11.529  16.833 -21.488  1.00 50.51 LIG-0.24  NA
ATOM     40  CE1 HIS C 154     -12.088  17.288 -20.381  1.00 51.05 LIG 0.23  A 
ATOM     41 NE2  HIS C 154     -11.132  17.728 -19.584  1.00 50.26 LIG-0.25  NA
ATOM     42  CD2 HIS C 154      -9.917  17.551 -20.201  1.00 50.26 LIG 0.14  A 
ENDBRANCH 37 38
ENDBRANCH 36 37
BRANCH 36 43
ATOM     43  N   HIS C 154      -7.819  14.824 -23.470  1.00 45.99 LIG-0.34  N 
ATOM     44  C   ASP C 153      -6.806  13.975 -23.342  1.00 51.00 LIG 0.26  C 
ATOM     45 O    ASP C 153      -6.408  13.546 -22.256  1.00 50.83 LIG-0.27  OA
ATOM     46 H    HIS C 154      -8.012  15.227 -24.205  1.00 45.99 LIG 0.16  HD
BRANCH 44 47
ATOM     47  CA  ASP C 153      -6.136  13.547 -24.643  1.00 53.77 LIG 0.41  C 
ATOM     48  N   ASP C 153      -5.094  12.488 -24.430  1.00 52.50 LIG 0.61  N 
BRANCH 47 49
ATOM     49  CB  ASP C 153      -7.222  13.086 -25.625  1.00 54.86 LIG 0.16  C 
BRANCH 49 50
ATOM     50  CG  ASP C 153      -7.023  11.658 -26.084  1.00 56.45 LIG 0.17  C 
ATOM     51 OD2  ASP C 153      -7.935  10.826 -25.859  1.00 58.24 LIG-0.65  OA
ATOM     52 OD1  ASP C 153      -5.957  11.375 -26.668  1.00 54.42 LIG-0.65  OA
ENDBRANCH 49 50
ENDBRANCH 47 49
ENDBRANCH 44 47
ENDBRANCH 36 43
ENDBRANCH 34 36
ENDBRANCH 1 32
TORSDOF 19
ENDMDL
MODEL 5
USER: ADFR SOLUTION from run 103
USER: SCORE 17.107872 LL:  -3.211 LR: -17.014 RR:   0.000 FEB: -11.347
USER: RMSD 2.296055
USER: SEED 102
USER: STATUS no improvement in best in 5 clusters for 5 generations
USER: GENES 21
USER: genes 0 Translation |==|  0.46564 0.54860 0.50782
USER: genes 1 Rotation |==|  0.47331 0.45653 0.51186 0.99725
USER: genes 2 Torsion [N]-CA--C-[N] |==|  0.38697
USER: genes 3 Torsion [C]-N--CA-[CB] |==|  0.30887
USER: genes 4 Torsion [N]-CA--C-[N] |==|  0.30494
USER: genes 5 Torsion [C]-N--CA-[CB] |==|  0.47778
USER: genes 6 Torsion [N]-CA--C-[N] |==|  0.31652
USER: genes 7 Torsion [C]-N--CA-[CB] |==|  0.48925
USER: genes 8 Torsion [N]-CA--C-[OXT] |==|  0.93802
USER: genes 9 Torsion [N]-CA--CB-[CG] |==|  0.43413
USER: genes 10 Torsion [CA]-CB--CG-[CD2] |==|  0.23250
USER: genes 11 Torsion [C]-CA--CB-[CG] |==|  0.49643
USER: genes 12 Torsion [CA]-CB--CG-[OD2] |==|  0.40684
USER: genes 13 Torsion [C]-CA--N-[C] |==|  0.65852
USER: genes 14 Torsion [N]-C--CA-[N] |==|  0.35250
USER: genes 15 Torsion [C]-CA--CB-[CG] |==|  0.36819
USER: genes 16 Torsion [CA]-CB--CG-[CD2] |==|  0.96759
USER: genes 17 Torsion [C]-CA--N-[C] |==|  0.83428
USER: genes 18 Torsion [N]-C--CA-[N] |==|  0.30320
USER: genes 19 Torsion [C]-CA--CB-[CG] |==|  0.23634
USER: genes 20 Torsion [CA]-CB--CG-[OD2] |==|  0.56729
ROOT
ATOM      1  CA  ASP C 155     -11.110  12.231 -24.271  1.00 34.31 LIG 0.19  C 
ENDROOT
BRANCH 1 2
ATOM      2  C   ASP C 155     -10.509  10.889 -23.891  1.00 33.42 LIG 0.24  C 
ATOM      3 O    ASP C 155      -9.292  10.692 -23.974  1.00 32.60 LIG-0.27  OA
ATOM      4  N   ALA C 156     -11.373   9.981 -23.446  1.00 30.74 LIG-0.35  N 
ATOM      5 H    ALA C 156     -12.207  10.142 -23.318  1.00 30.74 LIG 0.16  HD
BRANCH 4 6
ATOM      6  CA  ALA C 156     -10.977   8.619 -23.132  1.00 30.13 LIG 0.17  C 
ATOM      7  CB  ALA C 156     -11.058   8.378 -21.632  1.00 30.23 LIG 0.04  C 
BRANCH 6 8
ATOM      8  C   ALA C 156     -11.895   7.667 -23.879  1.00 29.70 LIG 0.24  C 
ATOM      9  N   HIS C 157     -11.331   6.996 -24.879  1.00 30.21 LIG-0.35  N 
ATOM     10 H    HIS C 157     -10.494   7.046 -25.071  1.00 30.21 LIG 0.16  HD
ATOM     11 O    ALA C 156     -13.087   7.553 -23.557  1.00 27.33 LIG-0.27  OA
BRANCH 9 12
ATOM     12  CA  HIS C 157     -12.090   6.105 -25.749  1.00 31.06 LIG 0.18  C 
BRANCH 12 13
ATOM     13  C   HIS C 157     -12.613   4.936 -24.934  1.00 30.33 LIG 0.24  C 
ATOM     14  N   ALA C 158     -13.933   4.859 -24.796  1.00 29.79 LIG-0.34  N 
ATOM     15 H    ALA C 158     -14.487   5.401 -25.169  1.00 29.79 LIG 0.16  HD
ATOM     16 O    HIS C 157     -11.830   4.131 -24.418  1.00 30.67 LIG-0.27  OA
BRANCH 14 17
ATOM     17  CA  ALA C 158     -14.564   3.821 -23.977  1.00 31.13 LIG 0.18  C 
ATOM     18  CB  ALA C 158     -16.073   4.022 -23.916  1.00 30.84 LIG 0.04  C 
BRANCH 17 19
ATOM     19  C   ALA C 158     -14.240   2.429 -24.497  1.00 31.87 LIG 0.20  C 
ATOM     20 OXT  ALA C 158     -13.896   2.258 -25.670  1.00 33.04 LIG-0.65  OA
ATOM     21 O    ALA C 158     -14.323   1.453 -23.747  1.00 31.17 LIG-0.65  OA
ENDBRANCH 17 19
ENDBRANCH 14 17
ENDBRANCH 12 13
BRANCH 12 22
ATOM     22  CB  HIS C 157     -11.217   5.634 -26.918  1.00 32.09 LIG 0.10  C 
BRANCH 22 23
ATOM     23  CG  HIS C 157     -11.679   4.340 -27.515  1.00 35.38 LIG 0.06  A 
ATOM     24 ND1  HIS C 157     -11.178   3.117 -27.117  1.00 36.48 LIG-0.24  NA
ATOM     25  CE1 HIS C 157     -11.789   2.156 -27.787  1.00 37.27 LIG 0.23  A 
ATOM     26 NE2  HIS C 157     -12.676   2.710 -28.598  1.00 37.33 LIG-0.25  NA
ATOM     27  CD2 HIS C 157     -12.631   4.074 -28.444  1.00 35.91 LIG 0.14  A 
ENDBRANCH 22 23
ENDBRANCH 12 22
ENDBRANCH 9 12
ENDBRANCH 6 8
ENDBRANCH 4 6
ENDBRANCH 1 2
BRANCH 1 28
ATOM     28  CB  ASP C 155     -11.298  12.294 -25.776  1.00 35.23 LIG 0.15  C 
BRANCH 28 29
ATOM     29  CG  ASP C 155     -11.925  13.596 -26.239  1.00 35.97 LIG 0.17  C 
ATOM     30 OD2  ASP C 155     -11.563  14.031 -27.344  1.00 39.40 LIG-0.65  OA
ATOM     31 OD1  ASP C 155     -12.766  14.193 -25.531  1.00 38.01 LIG-0.65  OA
ENDBRANCH 28 29
ENDBRANCH 1 28
BRANCH 1 32
ATOM     32  N   ASP C 155     -10.247  13.305 -23.825  1.00 36.13 LIG-0.34  N 
ATOM     33 H    ASP C 155      -9.443  13.261 -24.129  1.00 36.13 LIG 0.16  HD
ATOM     34  C   HIS C 154     -10.678  14.261 -23.017  1.00 38.66 LIG 0.24  C 
ATOM     35 O    HIS C 154     -11.840  14.330 -22.626  1.00 35.33 LIG-0.27  OA
BRANCH 34 36
ATOM     36  CA  HIS C 154      -9.660  15.313 -22.612  1.00 42.51 LIG 0.18  C 
BRANCH 36 37
ATOM     37  CB  HIS C 154      -9.348  15.211 -21.118  1.00 45.16 LIG 0.10  C 
BRANCH 37 38
ATOM     38  CG  HIS C 154      -7.883  15.233 -20.811  1.00 48.44 LIG 0.06  A 
ATOM     39 ND1  HIS C 154      -7.392  15.411 -19.534  1.00 50.51 LIG-0.24  NA
ATOM     40  CE1 HIS C 154      -6.071  15.402 -19.566  1.00 51.05 LIG 0.23  A 
ATOM     41 NE2  HIS C 154      -5.688  15.226 -20.818  1.00 50.26 LIG-0.25  NA
ATOM     42  CD2 HIS C 154      -6.800  15.120 -21.617  1.00 50.26 LIG 0.14  A 
ENDBRANCH 37 38
ENDBRANCH 36 37
BRANCH 36 43
ATOM     43  N   HIS C 154     -10.245  16.603 -22.922  1.00 45.99 LIG-0.34  N 
ATOM     44  C   ASP C 153     -10.607  16.941 -24.154  1.00 51.00 LIG 0.26  C 
ATOM     45 O    ASP C 153     -10.309  16.286 -25.156  1.00 50.83 LIG-0.27  OA
ATOM     46 H    HIS C 154     -10.334  17.121 -22.241  1.00 45.99 LIG 0.16  HD
BRANCH 44 47
ATOM     47  CA  ASP C 153     -11.431  18.218 -24.272  1.00 53.77 LIG 0.41  C 
ATOM     48  N   ASP C 153     -10.660  19.342 -24.899  1.00 52.50 LIG 0.61  N 
BRANCH 47 49
ATOM     49  CB  ASP C 153     -12.714  17.905 -25.053  1.00 54.86 LIG 0.16  C 
BRANCH 49 50
ATOM     50  CG  ASP C 153     -13.816  17.362 -24.170  1.00 56.45 LIG 0.17  C 
ATOM     51 OD2  ASP C 153     -14.709  16.653 -24.695  1.00 58.24 LIG-0.65  OA
ATOM     52 OD1  ASP C 153     -13.784  17.644 -22.955  1.00 54.42 LIG-0.65  OA
ENDBRANCH 49 50
ENDBRANCH 47 49
ENDBRANCH 44 47
ENDBRANCH 36 43
ENDBRANCH 34 36
ENDBRANCH 1 32
TORSDOF 19
ENDMDL
MODEL 6
USER: ADFR SOLUTION from run 180
USER: SCORE 16.681395 LL:  -2.726 LR: -16.850 RR:   0.000 FEB: -11.183
USER: RMSD 1.274267
USER: SEED 179
USER: STATUS no improvement in best in 3 clusters for 5 generations
USER: GENES 21
USER: genes 0 Translation |==|  0.47076 0.55858 0.53411
USER: genes 1 Rotation |==|  0.47803 0.47680 0.50575 0.99895
USER: genes 2 Torsion [N]-CA--C-[N] |==|  0.43251
USER: genes 3 Torsion [C]-N--CA-[CB] |==|  0.26961
USER: genes 4 Torsion [N]-CA--C-[N] |==|  0.32949
USER: genes 5 Torsion [C]-N--CA-[CB] |==|  0.46667
USER: genes 6 Torsion [N]-CA--C-[N] |==|  0.36354
USER: genes 7 Torsion [C]-N--CA-[CB] |==|  0.46357
USER: genes 8 Torsion [N]-CA--C-[OXT] |==|  0.96879
USER: genes 9 Torsion [N]-CA--CB-[CG] |==|  0.83516
USER: genes 10 Torsion [CA]-CB--CG-[CD2] |==|  0.07067
USER: genes 11 Torsion [C]-CA--CB-[CG] |==|  0.44122
USER: genes 12 Torsion [CA]-CB--CG-[OD2] |==|  0.40246
USER: genes 13 Torsion [C]-CA--N-[C] |==|  0.64694
USER: genes 14 Torsion [N]-C--CA-[N] |==|  0.36953
USER: genes 15 Torsion [C]-CA--CB-[CG] |==|  0.55206
USER: genes 16 Torsion [CA]-CB--CG-[CD2] |==|  0.72458
USER: genes 17 Torsion [C]-CA--N-[C] |==|  0.84253
USER: genes 18 Torsion [N]-C--CA-[N] |==|  0.24067
USER: genes 19 Torsion [C]-CA--CB-[CG] |==|  0.21929
USER: genes 20 Torsion [CA]-CB--CG-[OD2] |==|  0.08944
ROOT
ATOM      1  CA  ASP C 155     -11.014  12.501 -23.778  1.00 34.31 LIG 0.19  C 
ENDROOT
BRANCH 1 2
ATOM      2  C   ASP C 155     -10.422  11.135 -23.472  1.00 33.42 LIG 0.24  C 
ATOM      3 O    ASP C 155      -9.200  10.983 -23.364  1.00 32.60 LIG-0.27  OA
ATOM      4  N   ALA C 156     -11.304  10.154 -23.305  1.00 30.74 LIG-0.35  N 
ATOM      5 H    ALA C 156     -12.155  10.275 -23.307  1.00 30.74 LIG 0.16  HD
BRANCH 4 6
ATOM      6  CA  ALA C 156     -10.902   8.773 -23.102  1.00 30.13 LIG 0.17  C 
ATOM      7  CB  ALA C 156     -10.897   8.436 -21.620  1.00 30.23 LIG 0.04  C 
BRANCH 6 8
ATOM      8  C   ALA C 156     -11.870   7.875 -23.854  1.00 29.70 LIG 0.24  C 
ATOM      9  N   HIS C 157     -11.329   7.128 -24.811  1.00 30.21 LIG-0.35  N 
ATOM     10 H    HIS C 157     -10.485   7.102 -24.974  1.00 30.21 LIG 0.16  HD
ATOM     11 O    ALA C 156     -13.078   7.869 -23.573  1.00 27.33 LIG-0.27  OA
BRANCH 9 12
ATOM     12  CA  HIS C 157     -12.129   6.273 -25.682  1.00 31.06 LIG 0.18  C 
BRANCH 12 13
ATOM     13  C   HIS C 157     -12.695   5.122 -24.871  1.00 30.33 LIG 0.24  C 
ATOM     14  N   ALA C 158     -13.998   4.890 -25.005  1.00 29.79 LIG-0.34  N 
ATOM     15 H    ALA C 158     -14.509   5.323 -25.545  1.00 29.79 LIG 0.16  HD
ATOM     16 O    HIS C 157     -11.966   4.471 -24.114  1.00 30.67 LIG-0.27  OA
BRANCH 14 17
ATOM     17  CA  ALA C 158     -14.681   3.855 -24.228  1.00 31.13 LIG 0.18  C 
ATOM     18  CB  ALA C 158     -16.194   4.011 -24.330  1.00 30.84 LIG 0.04  C 
BRANCH 17 19
ATOM     19  C   ALA C 158     -14.266   2.460 -24.670  1.00 31.87 LIG 0.20  C 
ATOM     20 OXT  ALA C 158     -13.614   2.295 -25.704  1.00 33.04 LIG-0.65  OA
ATOM     21 O    ALA C 158     -14.583   1.477 -23.996  1.00 31.17 LIG-0.65  OA
ENDBRANCH 17 19
ENDBRANCH 14 17
ENDBRANCH 12 13
BRANCH 12 22
ATOM     22  CB  HIS C 157     -11.285   5.774 -26.859  1.00 32.09 LIG 0.10  C 
BRANCH 22 23
ATOM     23  CG  HIS C 157     -10.729   6.883 -27.698  1.00 35.38 LIG 0.06  A 
ATOM     24 ND1  HIS C 157     -10.452   6.733 -29.042  1.00 36.48 LIG-0.24  NA
ATOM     25  CE1 HIS C 157     -10.007   7.879 -29.528  1.00 37.27 LIG 0.23  A 
ATOM     26 NE2  HIS C 157      -9.995   8.771 -28.550  1.00 37.33 LIG-0.25  NA
ATOM     27  CD2 HIS C 157     -10.445   8.176 -27.397  1.00 35.91 LIG 0.14  A 
ENDBRANCH 22 23
ENDBRANCH 12 22
ENDBRANCH 9 12
ENDBRANCH 6 8
ENDBRANCH 4 6
ENDBRANCH 1 2
BRANCH 1 28
ATOM     28  CB  ASP C 155     -11.320  12.599 -25.262  1.00 35.23 LIG 0.15  C 
BRANCH 28 29
ATOM     29  CG  ASP C 155     -12.348  13.667 -25.583  1.00 35.97 LIG 0.17  C 
ATOM     30 OD2  ASP C 155     -12.200  14.285 -26.650  1.00 39.40 LIG-0.65  OA
ATOM     31 OD1  ASP C 155     -13.295  13.906 -24.802  1.00 38.01 LIG-0.65  OA
ENDBRANCH 28 29
ENDBRANCH 1 28
BRANCH 1 32
ATOM     32  N   ASP C 155     -10.088  13.541 -23.384  1.00 36.13 LIG-0.34  N 
ATOM     33 H    ASP C 155      -9.296  13.451 -23.708  1.00 36.13 LIG 0.16  HD
ATOM     34  C   HIS C 154     -10.451  14.537 -22.590  1.00 38.66 LIG 0.24  C 
ATOM     35 O    HIS C 154     -11.597  14.673 -22.170  1.00 35.33 LIG-0.27  OA
BRANCH 34 36
ATOM     36  CA  HIS C 154      -9.373  15.549 -22.239  1.00 42.51 LIG 0.18  C 
BRANCH 36 37
ATOM     37  CB  HIS C 154      -8.916  15.367 -20.792  1.00 45.16 LIG 0.10  C 
BRANCH 37 38
ATOM     38  CG  HIS C 154      -8.208  16.563 -20.234  1.00 48.44 LIG 0.06  A 
ATOM     39 ND1  HIS C 154      -8.878  17.676 -19.770  1.00 50.51 LIG-0.24  NA
ATOM     40  CE1 HIS C 154      -8.002  18.574 -19.354  1.00 51.05 LIG 0.23  A 
ATOM     41 NE2  HIS C 154      -6.789  18.084 -19.533  1.00 50.26 LIG-0.25  NA
ATOM     42  CD2 HIS C 154      -6.889  16.829 -20.083  1.00 50.26 LIG 0.14  A 
ENDBRANCH 37 38
ENDBRANCH 36 37
BRANCH 36 43
ATOM     43  N   HIS C 154      -9.954  16.863 -22.429  1.00 45.99 LIG-0.34  N 
ATOM     44  C   ASP C 153     -10.480  17.247 -23.586  1.00 51.00 LIG 0.26  C 
ATOM     45 O    ASP C 153     -10.353  16.614 -24.637  1.00 50.83 LIG-0.27  OA
ATOM     46 H    HIS C 154      -9.926  17.363 -21.729  1.00 45.99 LIG 0.16  HD
BRANCH 44 47
ATOM     47  CA  ASP C 153     -11.271  18.550 -23.550  1.00 53.77 LIG 0.41  C 
ATOM     48  N   ASP C 153     -10.398  19.755 -23.746  1.00 52.50 LIG 0.61  N 
BRANCH 47 49
ATOM     49  CB  ASP C 153     -12.385  18.478 -24.602  1.00 54.86 LIG 0.16  C 
BRANCH 49 50
ATOM     50  CG  ASP C 153     -13.573  17.665 -24.138  1.00 56.45 LIG 0.17  C 
ATOM     51 OD2  ASP C 153     -13.858  17.668 -22.915  1.00 58.24 LIG-0.65  OA
ATOM     52 OD1  ASP C 153     -14.218  17.028 -24.995  1.00 54.42 LIG-0.65  OA
ENDBRANCH 49 50
ENDBRANCH 47 49
ENDBRANCH 44 47
ENDBRANCH 36 43
ENDBRANCH 34 36
ENDBRANCH 1 32
TORSDOF 19
ENDMDL
MODEL 7
USER: ADFR SOLUTION from run 160
USER: SCORE 18.056090 LL:  -4.485 LR: -16.521 RR:   0.000 FEB: -10.853
USER: RMSD 3.120707
USER: SEED 159
USER: STATUS no improvement in best in 7 clusters for 5 generations
USER: GENES 21
USER: genes 0 Translation |==|  0.46009 0.55437 0.46632
USER: genes 1 Rotation |==|  0.45192 0.38947 0.52683 0.98451
USER: genes 2 Torsion [N]-CA--C-[N] |==|  0.35178
USER: genes 3 Torsion [C]-N--CA-[CB] |==|  0.30642
USER: genes 4 Torsion [N]-CA--C-[N] |==|  0.26948
USER: genes 5 Torsion [C]-N--CA-[CB] |==|  0.48952
USER: genes 6 Torsion [N]-CA--C-[N] |==|  0.35000
USER: genes 7 Torsion [C]-N--CA-[CB] |==|  0.43651
USER: genes 8 Torsion [N]-CA--C-[OXT] |==|  0.44170
USER: genes 9 Torsion [N]-CA--CB-[CG] |==|  0.41266
USER: genes 10 Torsion [CA]-CB--CG-[CD2] |==|  0.26374
USER: genes 11 Torsion [C]-CA--CB-[CG] |==|  0.48145
USER: genes 12 Torsion [CA]-CB--CG-[OD2] |==|  0.11681
USER: genes 13 Torsion [C]-CA--N-[C] |==|  0.83823
USER: genes 14 Torsion [N]-C--CA-[N] |==|  0.18259
USER: genes 15 Torsion [C]-CA--CB-[CG] |==|  0.67675
USER: genes 16 Torsion [CA]-CB--CG-[CD2] |==|  0.73610
USER: genes 17 Torsion [C]-CA--N-[C] |==|  0.78285
USER: genes 18 Torsion [N]-C--CA-[N] |==|  0.57404
USER: genes 19 Torsion [C]-CA--CB-[CG] |==|  0.74468
USER: genes 20 Torsion [CA]-CB--CG-[OD2] |==|  0.30348
ROOT
ATOM      1  CA  ASP C 155     -11.214  12.387 -25.049  1.00 34.31 LIG 0.19  C 
ENDROOT
BRANCH 1 2
ATOM      2  C   ASP C 155     -10.665  11.129 -24.398  1.00 33.42 LIG 0.24  C 
ATOM      3 O    ASP C 155      -9.448  10.920 -24.347  1.00 32.60 LIG-0.27  OA
ATOM      4  N   ALA C 156     -11.575  10.311 -23.876  1.00 30.74 LIG-0.35  N 
ATOM      5 H    ALA C 156     -12.414  10.492 -23.846  1.00 30.74 LIG 0.16  HD
BRANCH 4 6
ATOM      6  CA  ALA C 156     -11.226   9.024 -23.303  1.00 30.13 LIG 0.17  C 
ATOM      7  CB  ALA C 156     -11.408   9.049 -21.794  1.00 30.23 LIG 0.04  C 
BRANCH 6 8
ATOM      8  C   ALA C 156     -12.110   7.961 -23.933  1.00 29.70 LIG 0.24  C 
ATOM      9  N   HIS C 157     -11.568   7.295 -24.948  1.00 30.21 LIG-0.35  N 
ATOM     10 H    HIS C 157     -10.757   7.408 -25.211  1.00 30.21 LIG 0.16  HD
ATOM     11 O    ALA C 156     -13.257   7.758 -23.509  1.00 27.33 LIG-0.27  OA
BRANCH 9 12
ATOM     12  CA  HIS C 157     -12.309   6.301 -25.717  1.00 31.06 LIG 0.18  C 
BRANCH 12 13
ATOM     13  C   HIS C 157     -12.749   5.181 -24.792  1.00 30.33 LIG 0.24  C 
ATOM     14  N   ALA C 158     -14.048   4.893 -24.792  1.00 29.79 LIG-0.34  N 
ATOM     15 H    ALA C 158     -14.624   5.273 -25.305  1.00 29.79 LIG 0.16  HD
ATOM     16 O    HIS C 157     -11.927   4.604 -24.071  1.00 30.67 LIG-0.27  OA
BRANCH 14 17
ATOM     17  CA  ALA C 158     -14.613   3.881 -23.896  1.00 31.13 LIG 0.18  C 
ATOM     18  CB  ALA C 158     -16.102   4.124 -23.677  1.00 30.84 LIG 0.04  C 
BRANCH 17 19
ATOM     19  C   ALA C 158     -14.382   2.475 -24.427  1.00 31.87 LIG 0.20  C 
ATOM     20 OXT  ALA C 158     -14.427   1.501 -23.672  1.00 33.04 LIG-0.65  OA
ATOM     21 O    ALA C 158     -14.143   2.297 -25.624  1.00 31.17 LIG-0.65  OA
ENDBRANCH 17 19
ENDBRANCH 14 17
ENDBRANCH 12 13
BRANCH 12 22
ATOM     22  CB  HIS C 157     -11.453   5.776 -26.874  1.00 32.09 LIG 0.10  C 
BRANCH 22 23
ATOM     23  CG  HIS C 157     -11.746   4.351 -27.226  1.00 35.38 LIG 0.06  A 
ATOM     24 ND1  HIS C 157     -11.201   3.287 -26.536  1.00 36.48 LIG-0.24  NA
ATOM     25  CE1 HIS C 157     -11.660   2.155 -27.043  1.00 37.27 LIG 0.23  A 
ATOM     26 NE2  HIS C 157     -12.492   2.447 -28.030  1.00 37.33 LIG-0.25  NA
ATOM     27  CD2 HIS C 157     -12.567   3.812 -28.163  1.00 35.91 LIG 0.14  A 
ENDBRANCH 22 23
ENDBRANCH 12 22
ENDBRANCH 9 12
ENDBRANCH 6 8
ENDBRANCH 4 6
ENDBRANCH 1 2
BRANCH 1 28
ATOM     28  CB  ASP C 155     -10.991  12.319 -26.549  1.00 35.23 LIG 0.15  C 
BRANCH 28 29
ATOM     29  CG  ASP C 155     -11.654  13.461 -27.297  1.00 35.97 LIG 0.17  C 
ATOM     30 OD2  ASP C 155     -11.565  14.591 -26.789  1.00 39.40 LIG-0.65  OA
ATOM     31 OD1  ASP C 155     -12.259  13.261 -28.373  1.00 38.01 LIG-0.65  OA
ENDBRANCH 28 29
ENDBRANCH 1 28
BRANCH 1 32
ATOM     32  N   ASP C 155     -10.564  13.556 -24.495  1.00 36.13 LIG-0.34  N 
ATOM     33 H    ASP C 155     -10.161  14.045 -25.076  1.00 36.13 LIG 0.16  HD
ATOM     34  C   HIS C 154     -10.600  13.829 -23.200  1.00 38.66 LIG 0.24  C 
ATOM     35 O    HIS C 154     -11.215  13.142 -22.389  1.00 35.33 LIG-0.27  OA
BRANCH 34 36
ATOM     36  CA  HIS C 154      -9.857  15.076 -22.751  1.00 42.51 LIG 0.18  C 
BRANCH 36 37
ATOM     37  CB  HIS C 154      -9.858  15.182 -21.226  1.00 45.16 LIG 0.10  C 
BRANCH 37 38
ATOM     38  CG  HIS C 154     -10.589  16.384 -20.711  1.00 48.44 LIG 0.06  A 
ATOM     39 ND1  HIS C 154     -11.956  16.402 -20.529  1.00 50.51 LIG-0.24  NA
ATOM     40  CE1 HIS C 154     -12.324  17.590 -20.082  1.00 51.05 LIG 0.23  A 
ATOM     41 NE2  HIS C 154     -11.245  18.343 -19.969  1.00 50.26 LIG-0.25  NA
ATOM     42  CD2 HIS C 154     -10.147  17.614 -20.358  1.00 50.26 LIG 0.14  A 
ENDBRANCH 37 38
ENDBRANCH 36 37
BRANCH 36 43
ATOM     43  N   HIS C 154     -10.546  16.207 -23.341  1.00 45.99 LIG-0.34  N 
ATOM     44  C   ASP C 153     -10.387  16.552 -24.613  1.00 51.00 LIG 0.26  C 
ATOM     45 O    ASP C 153      -9.515  16.077 -25.344  1.00 50.83 LIG-0.27  OA
ATOM     46 H    HIS C 154     -11.061  16.628 -22.794  1.00 45.99 LIG 0.16  HD
BRANCH 44 47
ATOM     47  CA  ASP C 153     -11.365  17.597 -25.140  1.00 53.77 LIG 0.41  C 
ATOM     48  N   ASP C 153     -11.578  17.487 -26.621  1.00 52.50 LIG 0.61  N 
BRANCH 47 49
ATOM     49  CB  ASP C 153     -12.683  17.470 -24.365  1.00 54.86 LIG 0.16  C 
BRANCH 49 50
ATOM     50  CG  ASP C 153     -13.669  16.543 -25.042  1.00 56.45 LIG 0.17  C 
ATOM     51 OD2  ASP C 153     -13.907  15.431 -24.509  1.00 58.24 LIG-0.65  OA
ATOM     52 OD1  ASP C 153     -14.201  16.928 -26.103  1.00 54.42 LIG-0.65  OA
ENDBRANCH 49 50
ENDBRANCH 47 49
ENDBRANCH 44 47
ENDBRANCH 36 43
ENDBRANCH 34 36
ENDBRANCH 1 32
TORSDOF 19
ENDMDL
MODEL 8
USER: ADFR SOLUTION from run 68
USER: SCORE 17.117273 LL:  -4.211 LR: -16.494 RR:   0.000 FEB: -10.826
USER: RMSD 4.563006
USER: SEED 67
USER: STATUS no improvement in best in 6 clusters for 5 generations
USER: GENES 21
USER: genes 0 Translation |==|  0.46902 0.55681 0.54142
USER: genes 1 Rotation |==|  0.46175 0.54811 0.49958 0.99621
USER: genes 2 Torsion [N]-CA--C-[N] |==|  0.48212
USER: genes 3 Torsion [C]-N--CA-[CB] |==|  0.26270
USER: genes 4 Torsion [N]-CA--C-[N] |==|  0.35829
USER: genes 5 Torsion [C]-N--CA-[CB] |==|  0.43500
USER: genes 6 Torsion [N]-CA--C-[N] |==|  0.31665
USER: genes 7 Torsion [C]-N--CA-[CB] |==|  0.49017
USER: genes 8 Torsion [N]-CA--C-[OXT] |==|  0.94322
USER: genes 9 Torsion [N]-CA--CB-[CG] |==|  0.42597
USER: genes 10 Torsion [CA]-CB--CG-[CD2] |==|  0.22579
USER: genes 11 Torsion [C]-CA--CB-[CG] |==|  0.46636
USER: genes 12 Torsion [CA]-CB--CG-[OD2] |==|  0.32082
USER: genes 13 Torsion [C]-CA--N-[C] |==|  0.68172
USER: genes 14 Torsion [N]-C--CA-[N] |==|  0.94460
USER: genes 15 Torsion [C]-CA--CB-[CG] |==|  0.77209
USER: genes 16 Torsion [CA]-CB--CG-[CD2] |==|  0.59795
USER: genes 17 Torsion [C]-CA--N-[C] |==|  0.73672
USER: genes 18 Torsion [N]-C--CA-[N] |==|  0.44149
USER: genes 19 Torsion [C]-CA--CB-[CG] |==|  0.28840
USER: genes 20 Torsion [CA]-CB--CG-[OD2] |==|  0.85917
ROOT
ATOM      1  CA  ASP C 155     -11.047  12.453 -23.641  1.00 34.31 LIG 0.19  C 
ENDROOT
BRANCH 1 2
ATOM      2  C   ASP C 155     -10.434  11.081 -23.414  1.00 33.42 LIG 0.24  C 
ATOM      3 O    ASP C 155      -9.210  10.941 -23.317  1.00 32.60 LIG-0.27  OA
ATOM      4  N   ALA C 156     -11.301  10.079 -23.300  1.00 30.74 LIG-0.35  N 
ATOM      5 H    ALA C 156     -12.153  10.187 -23.293  1.00 30.74 LIG 0.16  HD
BRANCH 4 6
ATOM      6  CA  ALA C 156     -10.879   8.696 -23.176  1.00 30.13 LIG 0.17  C 
ATOM      7  CB  ALA C 156     -10.805   8.294 -21.711  1.00 30.23 LIG 0.04  C 
BRANCH 6 8
ATOM      8  C   ALA C 156     -11.870   7.821 -23.924  1.00 29.70 LIG 0.24  C 
ATOM      9  N   HIS C 157     -11.337   6.964 -24.790  1.00 30.21 LIG-0.35  N 
ATOM     10 H    HIS C 157     -10.490   6.862 -24.896  1.00 30.21 LIG 0.16  HD
ATOM     11 O    ALA C 156     -13.089   7.929 -23.721  1.00 27.33 LIG-0.27  OA
BRANCH 9 12
ATOM     12  CA  HIS C 157     -12.152   6.110 -25.648  1.00 31.06 LIG 0.18  C 
BRANCH 12 13
ATOM     13  C   HIS C 157     -12.628   4.909 -24.852  1.00 30.33 LIG 0.24  C 
ATOM     14  N   ALA C 158     -13.938   4.827 -24.635  1.00 29.79 LIG-0.34  N 
ATOM     15 H    ALA C 158     -14.512   5.385 -24.951  1.00 29.79 LIG 0.16  HD
ATOM     16 O    HIS C 157     -11.817   4.083 -24.418  1.00 30.67 LIG-0.27  OA
BRANCH 14 17
ATOM     17  CA  ALA C 158     -14.520   3.757 -23.824  1.00 31.13 LIG 0.18  C 
ATOM     18  CB  ALA C 158     -16.024   3.952 -23.668  1.00 30.84 LIG 0.04  C 
BRANCH 17 19
ATOM     19  C   ALA C 158     -14.227   2.387 -24.415  1.00 31.87 LIG 0.20  C 
ATOM     20 OXT  ALA C 158     -13.917   2.267 -25.604  1.00 33.04 LIG-0.65  OA
ATOM     21 O    ALA C 158     -14.300   1.379 -23.708  1.00 31.17 LIG-0.65  OA
ENDBRANCH 17 19
ENDBRANCH 14 17
ENDBRANCH 12 13
BRANCH 12 22
ATOM     22  CB  HIS C 157     -11.356   5.688 -26.887  1.00 32.09 LIG 0.10  C 
BRANCH 22 23
ATOM     23  CG  HIS C 157     -11.813   4.385 -27.467  1.00 35.38 LIG 0.06  A 
ATOM     24 ND1  HIS C 157     -11.206   3.183 -27.164  1.00 36.48 LIG-0.24  NA
ATOM     25  CE1 HIS C 157     -11.838   2.205 -27.790  1.00 37.27 LIG 0.23  A 
ATOM     26 NE2  HIS C 157     -12.840   2.728 -28.479  1.00 37.33 LIG-0.25  NA
ATOM     27  CD2 HIS C 157     -12.849   4.089 -28.291  1.00 35.91 LIG 0.14  A 
ENDBRANCH 22 23
ENDBRANCH 12 22
ENDBRANCH 9 12
ENDBRANCH 6 8
ENDBRANCH 4 6
ENDBRANCH 1 2
BRANCH 1 28
ATOM     28  CB  ASP C 155     -11.753  12.475 -24.984  1.00 35.23 LIG 0.15  C 
BRANCH 28 29
ATOM     29  CG  ASP C 155     -12.636  13.696 -25.167  1.00 35.97 LIG 0.17  C 
ATOM     30 OD2  ASP C 155     -12.315  14.490 -26.066  1.00 39.40 LIG-0.65  OA
ATOM     31 OD1  ASP C 155     -13.636  13.881 -24.440  1.00 38.01 LIG-0.65  OA
ENDBRANCH 28 29
ENDBRANCH 1 28
BRANCH 1 32
ATOM     32  N   ASP C 155     -10.017  13.469 -23.596  1.00 36.13 LIG-0.34  N 
ATOM     33 H    ASP C 155      -9.439  13.415 -24.231  1.00 36.13 LIG 0.16  HD
ATOM     34  C   HIS C 154      -9.985  14.392 -22.648  1.00 38.66 LIG 0.24  C 
ATOM     35 O    HIS C 154     -10.841  14.480 -21.772  1.00 35.33 LIG-0.27  OA
BRANCH 34 36
ATOM     36  CA  HIS C 154      -8.836  15.385 -22.709  1.00 42.51 LIG 0.18  C 
BRANCH 36 37
ATOM     37  CB  HIS C 154      -9.299  16.706 -23.324  1.00 45.16 LIG 0.10  C 
BRANCH 37 38
ATOM     38  CG  HIS C 154      -9.325  16.691 -24.821  1.00 48.44 LIG 0.06  A 
ATOM     39 ND1  HIS C 154      -9.642  15.564 -25.550  1.00 50.51 LIG-0.24  NA
ATOM     40  CE1 HIS C 154      -9.569  15.840 -26.840  1.00 51.05 LIG 0.23  A 
ATOM     41 NE2  HIS C 154      -9.214  17.105 -26.974  1.00 50.26 LIG-0.25  NA
ATOM     42  CD2 HIS C 154      -9.052  17.660 -25.727  1.00 50.26 LIG 0.14  A 
ENDBRANCH 37 38
ENDBRANCH 36 37
BRANCH 36 43
ATOM     43  N   HIS C 154      -7.802  14.779 -23.525  1.00 45.99 LIG-0.34  N 
ATOM     44  C   ASP C 153      -6.793  14.093 -23.000  1.00 51.00 LIG 0.26  C 
ATOM     45 O    ASP C 153      -6.536  14.074 -21.794  1.00 50.83 LIG-0.27  OA
ATOM     46 H    HIS C 154      -7.904  14.903 -24.370  1.00 45.99 LIG 0.16  HD
BRANCH 44 47
ATOM     47  CA  ASP C 153      -5.940  13.312 -23.993  1.00 53.77 LIG 0.41  C 
ATOM     48  N   ASP C 153      -4.578  12.992 -23.451  1.00 52.50 LIG 0.61  N 
BRANCH 47 49
ATOM     49  CB  ASP C 153      -6.701  12.044 -24.402  1.00 54.86 LIG 0.16  C 
BRANCH 49 50
ATOM     50  CG  ASP C 153      -7.312  12.151 -25.782  1.00 56.45 LIG 0.17  C 
ATOM     51 OD2  ASP C 153      -8.010  13.160 -26.050  1.00 58.24 LIG-0.65  OA
ATOM     52 OD1  ASP C 153      -7.091  11.229 -26.593  1.00 54.42 LIG-0.65  OA
ENDBRANCH 49 50
ENDBRANCH 47 49
ENDBRANCH 44 47
ENDBRANCH 36 43
ENDBRANCH 34 36
ENDBRANCH 1 32
TORSDOF 19
ENDMDL
MODEL 9
USER: ADFR SOLUTION from run 80
USER: SCORE 16.968765 LL:  -4.046 LR: -16.181 RR:   0.000 FEB: -10.513
USER: RMSD 3.292244
USER: SEED 79
USER: STATUS no improvement in best in 7 clusters for 5 generations
USER: GENES 21
USER: genes 0 Translation |==|  0.46963 0.54711 0.49393
USER: genes 1 Rotation |==|  0.46988 0.47306 0.50382 0.99835
USER: genes 2 Torsion [N]-CA--C-[N] |==|  0.36987
USER: genes 3 Torsion [C]-N--CA-[CB] |==|  0.33352
USER: genes 4 Torsion [N]-CA--C-[N] |==|  0.32232
USER: genes 5 Torsion [C]-N--CA-[CB] |==|  0.46712
USER: genes 6 Torsion [N]-CA--C-[N] |==|  0.33684
USER: genes 7 Torsion [C]-N--CA-[CB] |==|  0.46794
USER: genes 8 Torsion [N]-CA--C-[OXT] |==|  0.93347
USER: genes 9 Torsion [N]-CA--CB-[CG] |==|  0.40879
USER: genes 10 Torsion [CA]-CB--CG-[CD2] |==|  0.75907
USER: genes 11 Torsion [C]-CA--CB-[CG] |==|  0.49082
USER: genes 12 Torsion [CA]-CB--CG-[OD2] |==|  0.45772
USER: genes 13 Torsion [C]-CA--N-[C] |==|  0.75856
USER: genes 14 Torsion [N]-C--CA-[N] |==|  0.46650
USER: genes 15 Torsion [C]-CA--CB-[CG] |==|  0.17857
USER: genes 16 Torsion [CA]-CB--CG-[CD2] |==|  0.59338
USER: genes 17 Torsion [C]-CA--N-[C] |==|  0.70979
USER: genes 18 Torsion [N]-C--CA-[N] |==|  0.32313
USER: genes 19 Torsion [C]-CA--CB-[CG] |==|  0.53376
USER: genes 20 Torsion [CA]-CB--CG-[OD2] |==|  0.65959
ROOT
ATOM      1  CA  ASP C 155     -11.036  12.191 -24.532  1.00 34.31 LIG 0.19  C 
ENDROOT
BRANCH 1 2
ATOM      2  C   ASP C 155     -10.460  10.831 -24.173  1.00 33.42 LIG 0.24  C 
ATOM      3 O    ASP C 155      -9.285  10.550 -24.434  1.00 32.60 LIG-0.27  OA
ATOM      4  N   ALA C 156     -11.293  10.006 -23.545  1.00 30.74 LIG-0.35  N 
ATOM      5 H    ALA C 156     -12.085  10.228 -23.298  1.00 30.74 LIG 0.16  HD
BRANCH 4 6
ATOM      6  CA  ALA C 156     -10.932   8.638 -23.218  1.00 30.13 LIG 0.17  C 
ATOM      7  CB  ALA C 156     -10.998   8.419 -21.714  1.00 30.23 LIG 0.04  C 
BRANCH 6 8
ATOM      8  C   ALA C 156     -11.887   7.703 -23.939  1.00 29.70 LIG 0.24  C 
ATOM      9  N   HIS C 157     -11.331   6.909 -24.849  1.00 30.21 LIG-0.35  N 
ATOM     10 H    HIS C 157     -10.485   6.876 -24.997  1.00 30.21 LIG 0.16  HD
ATOM     11 O    ALA C 156     -13.100   7.710 -23.678  1.00 27.33 LIG-0.27  OA
BRANCH 9 12
ATOM     12  CA  HIS C 157     -12.117   6.011 -25.689  1.00 31.06 LIG 0.18  C 
BRANCH 12 13
ATOM     13  C   HIS C 157     -12.699   4.904 -24.829  1.00 30.33 LIG 0.24  C 
ATOM     14  N   ALA C 158     -14.025   4.795 -24.826  1.00 29.79 LIG-0.34  N 
ATOM     15 H    ALA C 158     -14.547   5.283 -25.305  1.00 29.79 LIG 0.16  HD
ATOM     16 O    HIS C 157     -11.959   4.175 -24.159  1.00 30.67 LIG-0.27  OA
BRANCH 14 17
ATOM     17  CA  ALA C 158     -14.717   3.815 -23.986  1.00 31.13 LIG 0.18  C 
ATOM     18  CB  ALA C 158     -16.216   4.090 -23.956  1.00 30.84 LIG 0.04  C 
BRANCH 17 19
ATOM     19  C   ALA C 158     -14.452   2.394 -24.457  1.00 31.87 LIG 0.20  C 
ATOM     20 OXT  ALA C 158     -14.128   2.166 -25.626  1.00 33.04 LIG-0.65  OA
ATOM     21 O    ALA C 158     -14.564   1.450 -23.670  1.00 31.17 LIG-0.65  OA
ENDBRANCH 17 19
ENDBRANCH 14 17
ENDBRANCH 12 13
BRANCH 12 22
ATOM     22  CB  HIS C 157     -11.252   5.451 -26.823  1.00 32.09 LIG 0.10  C 
BRANCH 22 23
ATOM     23  CG  HIS C 157     -11.630   4.057 -27.220  1.00 35.38 LIG 0.06  A 
ATOM     24 ND1  HIS C 157     -12.472   3.788 -28.280  1.00 36.48 LIG-0.24  NA
ATOM     25  CE1 HIS C 157     -12.598   2.479 -28.416  1.00 37.27 LIG 0.23  A 
ATOM     26 NE2  HIS C 157     -11.859   1.889 -27.490  1.00 37.33 LIG-0.25  NA
ATOM     27  CD2 HIS C 157     -11.240   2.853 -26.732  1.00 35.91 LIG 0.14  A 
ENDBRANCH 22 23
ENDBRANCH 12 22
ENDBRANCH 9 12
ENDBRANCH 6 8
ENDBRANCH 4 6
ENDBRANCH 1 2
BRANCH 1 28
ATOM     28  CB  ASP C 155     -11.317  12.244 -26.022  1.00 35.23 LIG 0.15  C 
BRANCH 28 29
ATOM     29  CG  ASP C 155     -11.970  13.544 -26.454  1.00 35.97 LIG 0.17  C 
ATOM     30 OD2  ASP C 155     -11.970  13.795 -27.670  1.00 39.40 LIG-0.65  OA
ATOM     31 OD1  ASP C 155     -12.480  14.318 -25.614  1.00 38.01 LIG-0.65  OA
ENDBRANCH 28 29
ENDBRANCH 1 28
BRANCH 1 32
ATOM     32  N   ASP C 155     -10.107  13.236 -24.156  1.00 36.13 LIG-0.34  N 
ATOM     33 H    ASP C 155      -9.571  13.476 -24.785  1.00 36.13 LIG 0.16  HD
ATOM     34  C   HIS C 154     -10.100  13.764 -22.942  1.00 38.66 LIG 0.24  C 
ATOM     35 O    HIS C 154     -10.900  13.439 -22.068  1.00 35.33 LIG-0.27  OA
BRANCH 34 36
ATOM     36  CA  HIS C 154      -9.058  14.838 -22.677  1.00 42.51 LIG 0.18  C 
BRANCH 36 37
ATOM     37  CB  HIS C 154      -7.661  14.223 -22.595  1.00 45.16 LIG 0.10  C 
BRANCH 37 38
ATOM     38  CG  HIS C 154      -7.204  13.604 -23.880  1.00 48.44 LIG 0.06  A 
ATOM     39 ND1  HIS C 154      -7.573  14.093 -25.116  1.00 50.51 LIG-0.24  NA
ATOM     40  CE1 HIS C 154      -7.038  13.344 -26.063  1.00 51.05 LIG 0.23  A 
ATOM     41 NE2  HIS C 154      -6.337  12.385 -25.487  1.00 50.26 LIG-0.25  NA
ATOM     42  CD2 HIS C 154      -6.426  12.523 -24.122  1.00 50.26 LIG 0.14  A 
ENDBRANCH 37 38
ENDBRANCH 36 37
BRANCH 36 43
ATOM     43  N   HIS C 154      -9.413  15.464 -21.419  1.00 45.99 LIG-0.34  N 
ATOM     44  C   ASP C 153      -9.977  16.666 -21.358  1.00 51.00 LIG 0.26  C 
ATOM     45 O    ASP C 153     -10.070  17.426 -22.324  1.00 50.83 LIG-0.27  OA
ATOM     46 H    HIS C 154      -9.227  14.990 -20.726  1.00 45.99 LIG 0.16  HD
BRANCH 44 47
ATOM     47  CA  ASP C 153     -10.515  17.071 -19.990  1.00 53.77 LIG 0.41  C 
ATOM     48  N   ASP C 153      -9.802  18.263 -19.424  1.00 52.50 LIG 0.61  N 
BRANCH 47 49
ATOM     49  CB  ASP C 153     -12.025  17.317 -20.110  1.00 54.86 LIG 0.16  C 
BRANCH 49 50
ATOM     50  CG  ASP C 153     -12.602  18.002 -18.891  1.00 56.45 LIG 0.17  C 
ATOM     51 OD2  ASP C 153     -13.535  17.434 -18.272  1.00 58.24 LIG-0.65  OA
ATOM     52 OD1  ASP C 153     -12.121  19.103 -18.556  1.00 54.42 LIG-0.65  OA
ENDBRANCH 49 50
ENDBRANCH 47 49
ENDBRANCH 44 47
ENDBRANCH 36 43
ENDBRANCH 34 36
ENDBRANCH 1 32
TORSDOF 19
ENDMDL
MODEL 10
USER: ADFR SOLUTION from run 112
USER: SCORE 16.860913 LL:  -4.043 LR: -16.177 RR:   0.000 FEB: -10.509
USER: RMSD 2.564780
USER: SEED 111
USER: STATUS no improvement in best in 8 clusters for 5 generations
USER: GENES 21
USER: genes 0 Translation |==|  0.46950 0.56156 0.53793
USER: genes 1 Rotation |==|  0.48716 0.52629 0.50347 0.99913
USER: genes 2 Torsion [N]-CA--C-[N] |==|  0.41675
USER: genes 3 Torsion [C]-N--CA-[CB] |==|  0.31209
USER: genes 4 Torsion [N]-CA--C-[N] |==|  0.36075
USER: genes 5 Torsion [C]-N--CA-[CB] |==|  0.42394
USER: genes 6 Torsion [N]-CA--C-[N] |==|  0.32606
USER: genes 7 Torsion [C]-N--CA-[CB] |==|  0.46981
USER: genes 8 Torsion [N]-CA--C-[OXT] |==|  0.95825
USER: genes 9 Torsion [N]-CA--CB-[CG] |==|  0.85815
USER: genes 10 Torsion [CA]-CB--CG-[CD2] |==|  0.91331
USER: genes 11 Torsion [C]-CA--CB-[CG] |==|  0.48994
USER: genes 12 Torsion [CA]-CB--CG-[OD2] |==|  0.29029
USER: genes 13 Torsion [C]-CA--N-[C] |==|  0.70622
USER: genes 14 Torsion [N]-C--CA-[N] |==|  0.41868
USER: genes 15 Torsion [C]-CA--CB-[CG] |==|  0.24266
USER: genes 16 Torsion [CA]-CB--CG-[CD2] |==|  0.37643
USER: genes 17 Torsion [C]-CA--N-[C] |==|  0.82146
USER: genes 18 Torsion [N]-C--CA-[N] |==|  0.84664
USER: genes 19 Torsion [C]-CA--CB-[CG] |==|  0.67716
USER: genes 20 Torsion [CA]-CB--CG-[OD2] |==|  0.68827
ROOT
ATOM      1  CA  ASP C 155     -11.038  12.581 -23.707  1.00 34.31 LIG 0.19  C 
ENDROOT
BRANCH 1 2
ATOM      2  C   ASP C 155     -10.423  11.198 -23.568  1.00 33.42 LIG 0.24  C 
ATOM      3 O    ASP C 155      -9.227  11.009 -23.810  1.00 32.60 LIG-0.27  OA
ATOM      4  N   ALA C 156     -11.250  10.245 -23.149  1.00 30.74 LIG-0.35  N 
ATOM      5 H    ALA C 156     -12.063  10.392 -22.911  1.00 30.74 LIG 0.16  HD
BRANCH 4 6
ATOM      6  CA  ALA C 156     -10.849   8.853 -23.055  1.00 30.13 LIG 0.17  C 
ATOM      7  CB  ALA C 156     -10.797   8.414 -21.600  1.00 30.23 LIG 0.04  C 
BRANCH 6 8
ATOM      8  C   ALA C 156     -11.844   8.011 -23.835  1.00 29.70 LIG 0.24  C 
ATOM      9  N   HIS C 157     -11.313   7.156 -24.703  1.00 30.21 LIG-0.35  N 
ATOM     10 H    HIS C 157     -10.466   7.036 -24.795  1.00 30.21 LIG 0.16  HD
ATOM     11 O    ALA C 156     -13.064   8.143 -23.655  1.00 27.33 LIG-0.27  OA
BRANCH 9 12
ATOM     12  CA  HIS C 157     -12.128   6.333 -25.591  1.00 31.06 LIG 0.18  C 
BRANCH 12 13
ATOM     13  C   HIS C 157     -12.565   5.082 -24.851  1.00 30.33 LIG 0.24  C 
ATOM     14  N   ALA C 158     -13.874   4.927 -24.675  1.00 29.79 LIG-0.34  N 
ATOM     15 H    ALA C 158     -14.467   5.467 -24.987  1.00 29.79 LIG 0.16  HD
ATOM     16 O    HIS C 157     -11.725   4.281 -24.424  1.00 30.67 LIG-0.27  OA
BRANCH 14 17
ATOM     17  CA  ALA C 158     -14.423   3.800 -23.919  1.00 31.13 LIG 0.18  C 
ATOM     18  CB  ALA C 158     -15.908   4.005 -23.643  1.00 30.84 LIG 0.04  C 
BRANCH 17 19
ATOM     19  C   ALA C 158     -14.201   2.482 -24.643  1.00 31.87 LIG 0.20  C 
ATOM     20 OXT  ALA C 158     -13.877   2.463 -25.834  1.00 33.04 LIG-0.65  OA
ATOM     21 O    ALA C 158     -14.346   1.414 -24.043  1.00 31.17 LIG-0.65  OA
ENDBRANCH 17 19
ENDBRANCH 14 17
ENDBRANCH 12 13
BRANCH 12 22
ATOM     22  CB  HIS C 157     -11.350   5.994 -26.866  1.00 32.09 LIG 0.10  C 
BRANCH 22 23
ATOM     23  CG  HIS C 157     -10.755   7.197 -27.531  1.00 35.38 LIG 0.06  A 
ATOM     24 ND1  HIS C 157      -9.607   7.133 -28.295  1.00 36.48 LIG-0.24  NA
ATOM     25  CE1 HIS C 157      -9.338   8.333 -28.780  1.00 37.27 LIG 0.23  A 
ATOM     26 NE2  HIS C 157     -10.274   9.171 -28.367  1.00 37.33 LIG-0.25  NA
ATOM     27  CD2 HIS C 157     -11.175   8.486 -27.588  1.00 35.91 LIG 0.14  A 
ENDBRANCH 22 23
ENDBRANCH 12 22
ENDBRANCH 9 12
ENDBRANCH 6 8
ENDBRANCH 4 6
ENDBRANCH 1 2
BRANCH 1 28
ATOM     28  CB  ASP C 155     -11.626  12.736 -25.097  1.00 35.23 LIG 0.15  C 
BRANCH 28 29
ATOM     29  CG  ASP C 155     -12.340  14.062 -25.291  1.00 35.97 LIG 0.17  C 
ATOM     30 OD2  ASP C 155     -11.749  14.923 -25.962  1.00 39.40 LIG-0.65  OA
ATOM     31 OD1  ASP C 155     -13.469  14.264 -24.793  1.00 38.01 LIG-0.65  OA
ENDBRANCH 28 29
ENDBRANCH 1 28
BRANCH 1 32
ATOM     32  N   ASP C 155     -10.032  13.595 -23.468  1.00 36.13 LIG-0.34  N 
ATOM     33 H    ASP C 155      -9.469  13.693 -24.111  1.00 36.13 LIG 0.16  HD
ATOM     34  C   HIS C 154     -10.000  14.300 -22.348  1.00 38.66 LIG 0.24  C 
ATOM     35 O    HIS C 154     -10.837  14.176 -21.457  1.00 35.33 LIG-0.27  OA
BRANCH 34 36
ATOM     36  CA  HIS C 154      -8.878  15.317 -22.220  1.00 42.51 LIG 0.18  C 
BRANCH 36 37
ATOM     37  CB  HIS C 154      -7.639  14.674 -21.597  1.00 45.16 LIG 0.10  C 
BRANCH 37 38
ATOM     38  CG  HIS C 154      -6.734  14.025 -22.599  1.00 48.44 LIG 0.06  A 
ATOM     39 ND1  HIS C 154      -7.202  13.208 -23.607  1.00 50.51 LIG-0.24  NA
ATOM     40  CE1 HIS C 154      -6.184  12.768 -24.324  1.00 51.05 LIG 0.23  A 
ATOM     41 NE2  HIS C 154      -5.072  13.268 -23.817  1.00 50.26 LIG-0.25  NA
ATOM     42  CD2 HIS C 154      -5.388  14.056 -22.736  1.00 50.26 LIG 0.14  A 
ENDBRANCH 37 38
ENDBRANCH 36 37
BRANCH 36 43
ATOM     43  N   HIS C 154      -9.376  16.385 -21.377  1.00 45.99 LIG-0.34  N 
ATOM     44  C   ASP C 153     -10.392  17.161 -21.739  1.00 51.00 LIG 0.26  C 
ATOM     45 O    ASP C 153     -10.869  17.175 -22.876  1.00 50.83 LIG-0.27  OA
ATOM     46 H    HIS C 154      -8.956  16.468 -20.631  1.00 45.99 LIG 0.16  HD
BRANCH 44 47
ATOM     47  CA  ASP C 153     -10.953  18.063 -20.645  1.00 53.77 LIG 0.41  C 
ATOM     48  N   ASP C 153     -11.365  17.294 -19.424  1.00 52.50 LIG 0.61  N 
BRANCH 47 49
ATOM     49  CB  ASP C 153      -9.911  19.139 -20.313  1.00 54.86 LIG 0.16  C 
BRANCH 49 50
ATOM     50  CG  ASP C 153      -9.401  19.038 -18.893  1.00 56.45 LIG 0.17  C 
ATOM     51 OD2  ASP C 153      -9.696  19.952 -18.085  1.00 58.24 LIG-0.65  OA
ATOM     52 OD1  ASP C 153      -8.708  18.045 -18.590  1.00 54.42 LIG-0.65  OA
ENDBRANCH 49 50
ENDBRANCH 47 49
ENDBRANCH 44 47
ENDBRANCH 36 43
ENDBRANCH 34 36
ENDBRANCH 1 32
TORSDOF 19
ENDMDL
MODEL 11
USER: ADFR SOLUTION from run 97
USER: SCORE 16.610515 LL:  -4.256 LR: -15.879 RR:   0.000 FEB: -10.211
USER: RMSD 3.594958
USER: SEED 96
USER: STATUS no improvement in best in 4 clusters for 5 generations
USER: GENES 21
USER: genes 0 Translation |==|  0.47956 0.55789 0.55176
USER: genes 1 Rotation |==|  0.49568 0.52346 0.49914 0.99943
USER: genes 2 Torsion [N]-CA--C-[N] |==|  0.43241
USER: genes 3 Torsion [C]-N--CA-[CB] |==|  0.28930
USER: genes 4 Torsion [N]-CA--C-[N] |==|  0.36837
USER: genes 5 Torsion [C]-N--CA-[CB] |==|  0.41956
USER: genes 6 Torsion [N]-CA--C-[N] |==|  0.33264
USER: genes 7 Torsion [C]-N--CA-[CB] |==|  0.47613
USER: genes 8 Torsion [N]-CA--C-[OXT] |==|  0.96178
USER: genes 9 Torsion [N]-CA--CB-[CG] |==|  0.87120
USER: genes 10 Torsion [CA]-CB--CG-[CD2] |==|  0.44526
USER: genes 11 Torsion [C]-CA--CB-[CG] |==|  0.46933
USER: genes 12 Torsion [CA]-CB--CG-[OD2] |==|  0.23880
USER: genes 13 Torsion [C]-CA--N-[C] |==|  0.63023
USER: genes 14 Torsion [N]-C--CA-[N] |==|  0.96982
USER: genes 15 Torsion [C]-CA--CB-[CG] |==|  0.56232
USER: genes 16 Torsion [CA]-CB--CG-[CD2] |==|  0.84979
USER: genes 17 Torsion [C]-CA--N-[C] |==|  0.68388
USER: genes 18 Torsion [N]-C--CA-[N] |==|  0.88108
USER: genes 19 Torsion [C]-CA--CB-[CG] |==|  0.80268
USER: genes 20 Torsion [CA]-CB--CG-[OD2] |==|  0.45080
ROOT
ATOM      1  CA  ASP C 155     -10.849  12.482 -23.447  1.00 34.31 LIG 0.19  C 
ENDROOT
BRANCH 1 2
ATOM      2  C   ASP C 155     -10.262  11.084 -23.348  1.00 33.42 LIG 0.24  C 
ATOM      3 O    ASP C 155      -9.049  10.894 -23.480  1.00 32.60 LIG-0.27  OA
ATOM      4  N   ALA C 156     -11.135  10.115 -23.085  1.00 30.74 LIG-0.35  N 
ATOM      5 H    ALA C 156     -11.966  10.257 -22.919  1.00 30.74 LIG 0.16  HD
BRANCH 4 6
ATOM      6  CA  ALA C 156     -10.755   8.714 -23.052  1.00 30.13 LIG 0.17  C 
ATOM      7  CB  ALA C 156     -10.659   8.225 -21.615  1.00 30.23 LIG 0.04  C 
BRANCH 6 8
ATOM      8  C   ALA C 156     -11.793   7.916 -23.823  1.00 29.70 LIG 0.24  C 
ATOM      9  N   HIS C 157     -11.306   7.041 -24.697  1.00 30.21 LIG-0.35  N 
ATOM     10 H    HIS C 157     -10.466   6.886 -24.797  1.00 30.21 LIG 0.16  HD
ATOM     11 O    ALA C 156     -13.004   8.098 -23.630  1.00 27.33 LIG-0.27  OA
BRANCH 9 12
ATOM     12  CA  HIS C 157     -12.165   6.255 -25.577  1.00 31.06 LIG 0.18  C 
BRANCH 12 13
ATOM     13  C   HIS C 157     -12.614   5.002 -24.848  1.00 30.33 LIG 0.24  C 
ATOM     14  N   ALA C 158     -13.925   4.853 -24.684  1.00 29.79 LIG-0.34  N 
ATOM     15 H    ALA C 158     -14.513   5.398 -24.998  1.00 29.79 LIG 0.16  HD
ATOM     16 O    HIS C 157     -11.782   4.195 -24.418  1.00 30.67 LIG-0.27  OA
BRANCH 14 17
ATOM     17  CA  ALA C 158     -14.487   3.725 -23.938  1.00 31.13 LIG 0.18  C 
ATOM     18  CB  ALA C 158     -15.985   3.910 -23.724  1.00 30.84 LIG 0.04  C 
BRANCH 17 19
ATOM     19  C   ALA C 158     -14.216   2.403 -24.640  1.00 31.87 LIG 0.20  C 
ATOM     20 OXT  ALA C 158     -13.823   2.379 -25.810  1.00 33.04 LIG-0.65  OA
ATOM     21 O    ALA C 158     -14.391   1.338 -24.043  1.00 31.17 LIG-0.65  OA
ENDBRANCH 17 19
ENDBRANCH 14 17
ENDBRANCH 12 13
BRANCH 12 22
ATOM     22  CB  HIS C 157     -11.428   5.919 -26.878  1.00 32.09 LIG 0.10  C 
BRANCH 22 23
ATOM     23  CG  HIS C 157     -10.725   7.097 -27.478  1.00 35.38 LIG 0.06  A 
ATOM     24 ND1  HIS C 157     -11.011   8.398 -27.116  1.00 36.48 LIG-0.24  NA
ATOM     25  CE1 HIS C 157     -10.218   9.222 -27.780  1.00 37.27 LIG 0.23  A 
ATOM     26 NE2  HIS C 157      -9.420   8.502 -28.552  1.00 37.33 LIG-0.25  NA
ATOM     27  CD2 HIS C 157      -9.713   7.171 -28.379  1.00 35.91 LIG 0.14  A 
ENDBRANCH 22 23
ENDBRANCH 12 22
ENDBRANCH 9 12
ENDBRANCH 6 8
ENDBRANCH 4 6
ENDBRANCH 1 2
BRANCH 1 28
ATOM     28  CB  ASP C 155     -11.418  12.694 -24.838  1.00 35.23 LIG 0.15  C 
BRANCH 28 29
ATOM     29  CG  ASP C 155     -12.257  13.955 -24.947  1.00 35.97 LIG 0.17  C 
ATOM     30 OD2  ASP C 155     -11.652  15.011 -25.193  1.00 39.40 LIG-0.65  OA
ATOM     31 OD1  ASP C 155     -13.498  13.918 -24.793  1.00 38.01 LIG-0.65  OA
ENDBRANCH 28 29
ENDBRANCH 1 28
BRANCH 1 32
ATOM     32  N   ASP C 155      -9.828  13.468 -23.164  1.00 36.13 LIG-0.34  N 
ATOM     33 H    ASP C 155      -9.084  13.335 -23.574  1.00 36.13 LIG 0.16  HD
ATOM     34  C   HIS C 154     -10.042  14.481 -22.339  1.00 38.66 LIG 0.24  C 
ATOM     35 O    HIS C 154     -11.124  14.680 -21.793  1.00 35.33 LIG-0.27  OA
BRANCH 34 36
ATOM     36  CA  HIS C 154      -8.877  15.430 -22.116  1.00 42.51 LIG 0.18  C 
BRANCH 36 37
ATOM     37  CB  HIS C 154      -9.150  16.781 -22.777  1.00 45.16 LIG 0.10  C 
BRANCH 37 38
ATOM     38  CG  HIS C 154      -7.907  17.564 -23.073  1.00 48.44 LIG 0.06  A 
ATOM     39 ND1  HIS C 154      -7.604  18.031 -24.335  1.00 50.51 LIG-0.24  NA
ATOM     40  CE1 HIS C 154      -6.447  18.669 -24.301  1.00 51.05 LIG 0.23  A 
ATOM     41 NE2  HIS C 154      -5.989  18.631 -23.063  1.00 50.26 LIG-0.25  NA
ATOM     42  CD2 HIS C 154      -6.882  17.945 -22.275  1.00 50.26 LIG 0.14  A 
ENDBRANCH 37 38
ENDBRANCH 36 37
BRANCH 36 43
ATOM     43  N   HIS C 154      -7.709  14.803 -22.702  1.00 45.99 LIG-0.34  N 
ATOM     44  C   ASP C 153      -6.681  14.390 -21.970  1.00 51.00 LIG 0.26  C 
ATOM     45 O    ASP C 153      -6.537  14.669 -20.777  1.00 50.83 LIG-0.27  OA
ATOM     46 H    HIS C 154      -7.745  14.725 -23.558  1.00 45.99 LIG 0.16  HD
BRANCH 44 47
ATOM     47  CA  ASP C 153      -5.655  13.531 -22.700  1.00 53.77 LIG 0.41  C 
ATOM     48  N   ASP C 153      -6.295  12.509 -23.593  1.00 52.50 LIG 0.61  N 
BRANCH 47 49
ATOM     49  CB  ASP C 153      -4.709  14.453 -23.481  1.00 54.86 LIG 0.16  C 
BRANCH 49 50
ATOM     50  CG  ASP C 153      -5.379  15.099 -24.674  1.00 56.45 LIG 0.17  C 
ATOM     51 OD2  ASP C 153      -4.840  16.111 -25.186  1.00 58.24 LIG-0.65  OA
ATOM     52 OD1  ASP C 153      -6.439  14.594 -25.094  1.00 54.42 LIG-0.65  OA
ENDBRANCH 49 50
ENDBRANCH 47 49
ENDBRANCH 44 47
ENDBRANCH 36 43
ENDBRANCH 34 36
ENDBRANCH 1 32
TORSDOF 19
ENDMDL
MODEL 12
USER: ADFR SOLUTION from run 66
USER: SCORE 17.163042 LL:  -4.713 LR: -15.816 RR:   0.000 FEB: -10.148
USER: RMSD 3.903193
USER: SEED 65
USER: STATUS no improvement in best in 7 clusters for 5 generations
USER: GENES 21
USER: genes 0 Translation |==|  0.51634 0.54961 0.50721
USER: genes 1 Rotation |==|  0.44917 0.34263 0.47877 0.97138
USER: genes 2 Torsion [N]-CA--C-[N] |==|  0.35120
USER: genes 3 Torsion [C]-N--CA-[CB] |==|  0.31112
USER: genes 4 Torsion [N]-CA--C-[N] |==|  0.24819
USER: genes 5 Torsion [C]-N--CA-[CB] |==|  0.46217
USER: genes 6 Torsion [N]-CA--C-[N] |==|  0.27334
USER: genes 7 Torsion [C]-N--CA-[CB] |==|  0.41406
USER: genes 8 Torsion [N]-CA--C-[OXT] |==|  0.83679
USER: genes 9 Torsion [N]-CA--CB-[CG] |==|  0.85414
USER: genes 10 Torsion [CA]-CB--CG-[CD2] |==|  0.93554
USER: genes 11 Torsion [C]-CA--CB-[CG] |==|  0.82720
USER: genes 12 Torsion [CA]-CB--CG-[OD2] |==|  0.31030
USER: genes 13 Torsion [C]-CA--N-[C] |==|  0.75471
USER: genes 14 Torsion [N]-C--CA-[N] |==|  0.98571
USER: genes 15 Torsion [C]-CA--CB-[CG] |==|  0.26890
USER: genes 16 Torsion [CA]-CB--CG-[CD2] |==|  0.27404
USER: genes 17 Torsion [C]-CA--N-[C] |==|  0.65959
USER: genes 18 Torsion [N]-C--CA-[N] |==|  0.86373
USER: genes 19 Torsion [C]-CA--CB-[CG] |==|  0.73974
USER: genes 20 Torsion [CA]-CB--CG-[OD2] |==|  0.67240
ROOT
ATOM      1  CA  ASP C 155     -10.160  12.258 -24.283  1.00 34.31 LIG 0.19  C 
ENDROOT
BRANCH 1 2
ATOM      2  C   ASP C 155      -9.973  10.913 -23.601  1.00 33.42 LIG 0.24  C 
ATOM      3 O    ASP C 155      -8.846  10.498 -23.314  1.00 32.60 LIG-0.27  OA
ATOM      4  N   ALA C 156     -11.094  10.255 -23.320  1.00 30.74 LIG-0.35  N 
ATOM      5 H    ALA C 156     -11.880  10.577 -23.453  1.00 30.74 LIG 0.16  HD
BRANCH 4 6
ATOM      6  CA  ALA C 156     -11.090   8.916 -22.758  1.00 30.13 LIG 0.17  C 
ATOM      7  CB  ALA C 156     -11.618   8.940 -21.332  1.00 30.23 LIG 0.04  C 
BRANCH 6 8
ATOM      8  C   ALA C 156     -11.950   8.023 -23.634  1.00 29.70 LIG 0.24  C 
ATOM      9  N   HIS C 157     -11.314   7.422 -24.636  1.00 30.21 LIG-0.35  N 
ATOM     10 H    HIS C 157     -10.466   7.482 -24.763  1.00 30.21 LIG 0.16  HD
ATOM     11 O    ALA C 156     -13.162   7.890 -23.409  1.00 27.33 LIG-0.27  OA
BRANCH 9 12
ATOM     12  CA  HIS C 157     -12.007   6.597 -25.620  1.00 31.06 LIG 0.18  C 
BRANCH 12 13
ATOM     13  C   HIS C 157     -12.466   5.310 -24.959  1.00 30.33 LIG 0.24  C 
ATOM     14  N   ALA C 158     -13.736   5.270 -24.564  1.00 29.79 LIG-0.34  N 
ATOM     15 H    ALA C 158     -14.300   5.906 -24.698  1.00 29.79 LIG 0.16  HD
ATOM     16 O    HIS C 157     -11.674   4.377 -24.787  1.00 30.67 LIG-0.27  OA
BRANCH 14 17
ATOM     17  CA  ALA C 158     -14.286   4.116 -23.851  1.00 31.13 LIG 0.18  C 
ATOM     18  CB  ALA C 158     -15.388   4.547 -22.890  1.00 30.84 LIG 0.04  C 
BRANCH 17 19
ATOM     19  C   ALA C 158     -14.814   3.066 -24.817  1.00 31.87 LIG 0.20  C 
ATOM     20 OXT  ALA C 158     -15.700   3.344 -25.629  1.00 33.04 LIG-0.65  OA
ATOM     21 O    ALA C 158     -14.359   1.919 -24.793  1.00 31.17 LIG-0.65  OA
ENDBRANCH 17 19
ENDBRANCH 14 17
ENDBRANCH 12 13
BRANCH 12 22
ATOM     22  CB  HIS C 157     -11.095   6.323 -26.820  1.00 32.09 LIG 0.10  C 
BRANCH 22 23
ATOM     23  CG  HIS C 157     -10.511   7.568 -27.413  1.00 35.38 LIG 0.06  A 
ATOM     24 ND1  HIS C 157      -9.380   7.555 -28.204  1.00 36.48 LIG-0.24  NA
ATOM     25  CE1 HIS C 157      -9.117   8.785 -28.611  1.00 37.27 LIG 0.23  A 
ATOM     26 NE2  HIS C 157     -10.044   9.594 -28.123  1.00 37.33 LIG-0.25  NA
ATOM     27  CD2 HIS C 157     -10.929   8.858 -27.374  1.00 35.91 LIG 0.14  A 
ENDBRANCH 22 23
ENDBRANCH 12 22
ENDBRANCH 9 12
ENDBRANCH 6 8
ENDBRANCH 4 6
ENDBRANCH 1 2
BRANCH 1 28
ATOM     28  CB  ASP C 155      -9.636  12.182 -25.705  1.00 35.23 LIG 0.15  C 
BRANCH 28 29
ATOM     29  CG  ASP C 155      -8.149  11.882 -25.771  1.00 35.97 LIG 0.17  C 
ATOM     30 OD2  ASP C 155      -7.820  10.774 -26.226  1.00 39.40 LIG-0.65  OA
ATOM     31 OD1  ASP C 155      -7.306  12.720 -25.382  1.00 38.01 LIG-0.65  OA
ENDBRANCH 28 29
ENDBRANCH 1 28
BRANCH 1 32
ATOM     32  N   ASP C 155      -9.462  13.289 -23.543  1.00 36.13 LIG-0.34  N 
ATOM     33 H    ASP C 155      -8.655  13.428 -23.806  1.00 36.13 LIG 0.16  HD
ATOM     34  C   HIS C 154     -10.036  13.948 -22.549  1.00 38.66 LIG 0.24  C 
ATOM     35 O    HIS C 154     -11.203  13.766 -22.213  1.00 35.33 LIG-0.27  OA
BRANCH 34 36
ATOM     36  CA  HIS C 154      -9.182  14.989 -21.845  1.00 42.51 LIG 0.18  C 
BRANCH 36 37
ATOM     37  CB  HIS C 154      -9.755  16.390 -22.061  1.00 45.16 LIG 0.10  C 
BRANCH 37 38
ATOM     38  CG  HIS C 154     -10.617  16.863 -20.932  1.00 48.44 LIG 0.06  A 
ATOM     39 ND1  HIS C 154     -11.946  16.511 -20.811  1.00 50.51 LIG-0.24  NA
ATOM     40  CE1 HIS C 154     -12.455  17.084 -19.735  1.00 51.05 LIG 0.23  A 
ATOM     41 NE2  HIS C 154     -11.507  17.796 -19.155  1.00 50.26 LIG-0.25  NA
ATOM     42  CD2 HIS C 154     -10.348  17.677 -19.884  1.00 50.26 LIG 0.14  A 
ENDBRANCH 37 38
ENDBRANCH 36 37
BRANCH 36 43
ATOM     43  N   HIS C 154      -7.851  14.891 -22.412  1.00 45.99 LIG-0.34  N 
ATOM     44  C   ASP C 153      -6.778  14.649 -21.668  1.00 51.00 LIG 0.26  C 
ATOM     45 O    ASP C 153      -6.782  14.680 -20.435  1.00 50.83 LIG-0.27  OA
ATOM     46 H    HIS C 154      -7.824  15.002 -23.265  1.00 45.99 LIG 0.16  HD
BRANCH 44 47
ATOM     47  CA  ASP C 153      -5.502  14.326 -22.437  1.00 53.77 LIG 0.41  C 
ATOM     48  N   ASP C 153      -5.717  13.277 -23.488  1.00 52.50 LIG 0.61  N 
BRANCH 47 49
ATOM     49  CB  ASP C 153      -4.948  15.625 -23.037  1.00 54.86 LIG 0.16  C 
BRANCH 49 50
ATOM     50  CG  ASP C 153      -5.420  15.859 -24.456  1.00 56.45 LIG 0.17  C 
ATOM     51 OD2  ASP C 153      -4.562  15.906 -25.371  1.00 58.24 LIG-0.65  OA
ATOM     52 OD1  ASP C 153      -6.645  15.994 -24.650  1.00 54.42 LIG-0.65  OA
ENDBRANCH 49 50
ENDBRANCH 47 49
ENDBRANCH 44 47
ENDBRANCH 36 43
ENDBRANCH 34 36
ENDBRANCH 1 32
TORSDOF 19
ENDMDL
MODEL 13
USER: ADFR SOLUTION from run 93
USER: SCORE 16.127432 LL:  -3.939 LR: -15.810 RR:   0.000 FEB: -10.142
USER: RMSD 3.912734
USER: SEED 92
USER: STATUS no improvement in best in 10 clusters for 5 generations
USER: GENES 21
USER: genes 0 Translation |==|  0.47398 0.57463 0.56031
USER: genes 1 Rotation |==|  0.57719 0.40507 0.52081 0.98435
USER: genes 2 Torsion [N]-CA--C-[N] |==|  0.38346
USER: genes 3 Torsion [C]-N--CA-[CB] |==|  0.22454
USER: genes 4 Torsion [N]-CA--C-[N] |==|  0.42366
USER: genes 5 Torsion [C]-N--CA-[CB] |==|  0.39129
USER: genes 6 Torsion [N]-CA--C-[N] |==|  0.34913
USER: genes 7 Torsion [C]-N--CA-[CB] |==|  0.43574
USER: genes 8 Torsion [N]-CA--C-[OXT] |==|  0.95036
USER: genes 9 Torsion [N]-CA--CB-[CG] |==|  0.40730
USER: genes 10 Torsion [CA]-CB--CG-[CD2] |==|  0.24135
USER: genes 11 Torsion [C]-CA--CB-[CG] |==|  0.35339
USER: genes 12 Torsion [CA]-CB--CG-[OD2] |==|  0.52177
USER: genes 13 Torsion [C]-CA--N-[C] |==|  0.53008
USER: genes 14 Torsion [N]-C--CA-[N] |==|  0.03095
USER: genes 15 Torsion [C]-CA--CB-[CG] |==|  0.47230
USER: genes 16 Torsion [CA]-CB--CG-[CD2] |==|  0.65660
USER: genes 17 Torsion [C]-CA--N-[C] |==|  0.20283
USER: genes 18 Torsion [N]-C--CA-[N] |==|  0.42270
USER: genes 19 Torsion [C]-CA--CB-[CG] |==|  0.56080
USER: genes 20 Torsion [CA]-CB--CG-[OD2] |==|  0.68958
ROOT
ATOM      1  CA  ASP C 155     -10.954  12.934 -23.287  1.00 34.31 LIG 0.19  C 
ENDROOT
BRANCH 1 2
ATOM      2  C   ASP C 155     -10.268  11.579 -23.348  1.00 33.42 LIG 0.24  C 
ATOM      3 O    ASP C 155      -9.039  11.486 -23.267  1.00 32.60 LIG-0.27  OA
ATOM      4  N   ALA C 156     -11.081  10.532 -23.460  1.00 30.74 LIG-0.35  N 
ATOM      5 H    ALA C 156     -11.938  10.592 -23.441  1.00 30.74 LIG 0.16  HD
BRANCH 4 6
ATOM      6  CA  ALA C 156     -10.585   9.178 -23.627  1.00 30.13 LIG 0.17  C 
ATOM      7  CB  ALA C 156     -10.172   8.596 -22.284  1.00 30.23 LIG 0.04  C 
BRANCH 6 8
ATOM      8  C   ALA C 156     -11.681   8.339 -24.261  1.00 29.70 LIG 0.24  C 
ATOM      9  N   HIS C 157     -11.263   7.304 -24.983  1.00 30.21 LIG-0.35  N 
ATOM     10 H    HIS C 157     -10.436   7.078 -25.056  1.00 30.21 LIG 0.16  HD
ATOM     11 O    ALA C 156     -12.876   8.631 -24.102  1.00 27.33 LIG-0.27  OA
BRANCH 9 12
ATOM     12  CA  HIS C 157     -12.181   6.446 -25.727  1.00 31.06 LIG 0.18  C 
BRANCH 12 13
ATOM     13  C   HIS C 157     -12.509   5.223 -24.891  1.00 30.33 LIG 0.24  C 
ATOM     14  N   ALA C 158     -13.801   4.979 -24.686  1.00 29.79 LIG-0.34  N 
ATOM     15 H    ALA C 158     -14.437   5.445 -25.028  1.00 29.79 LIG 0.16  HD
ATOM     16 O    HIS C 157     -11.605   4.525 -24.418  1.00 30.67 LIG-0.27  OA
BRANCH 14 17
ATOM     17  CA  ALA C 158     -14.252   3.871 -23.841  1.00 31.13 LIG 0.18  C 
ATOM     18  CB  ALA C 158     -15.658   4.131 -23.313  1.00 30.84 LIG 0.04  C 
BRANCH 17 19
ATOM     19  C   ALA C 158     -14.207   2.547 -24.588  1.00 31.87 LIG 0.20  C 
ATOM     20 OXT  ALA C 158     -14.148   2.520 -25.820  1.00 33.04 LIG-0.65  OA
ATOM     21 O    ALA C 158     -14.233   1.483 -23.963  1.00 31.17 LIG-0.65  OA
ENDBRANCH 17 19
ENDBRANCH 14 17
ENDBRANCH 12 13
BRANCH 12 22
ATOM     22  CB  HIS C 157     -11.571   6.061 -27.078  1.00 32.09 LIG 0.10  C 
BRANCH 22 23
ATOM     23  CG  HIS C 157     -11.961   4.688 -27.532  1.00 35.38 LIG 0.06  A 
ATOM     24 ND1  HIS C 157     -11.225   3.564 -27.217  1.00 36.48 LIG-0.24  NA
ATOM     25  CE1 HIS C 157     -11.821   2.496 -27.719  1.00 37.27 LIG 0.23  A 
ATOM     26 NE2  HIS C 157     -12.923   2.886 -28.340  1.00 37.33 LIG-0.25  NA
ATOM     27  CD2 HIS C 157     -13.037   4.251 -28.234  1.00 35.91 LIG 0.14  A 
ENDBRANCH 22 23
ENDBRANCH 12 22
ENDBRANCH 9 12
ENDBRANCH 6 8
ENDBRANCH 4 6
ENDBRANCH 1 2
BRANCH 1 28
ATOM     28  CB  ASP C 155     -10.882  13.599 -24.649  1.00 35.23 LIG 0.15  C 
BRANCH 28 29
ATOM     29  CG  ASP C 155     -12.238  14.050 -25.159  1.00 35.97 LIG 0.17  C 
ATOM     30 OD2  ASP C 155     -12.288  14.467 -26.327  1.00 39.40 LIG-0.65  OA
ATOM     31 OD1  ASP C 155     -13.250  14.000 -24.425  1.00 38.01 LIG-0.65  OA
ENDBRANCH 28 29
ENDBRANCH 1 28
BRANCH 1 32
ATOM     32  N   ASP C 155     -10.320  13.765 -22.285  1.00 36.13 LIG-0.34  N 
ATOM     33 H    ASP C 155      -9.579  13.449 -21.981  1.00 36.13 LIG 0.16  HD
ATOM     34  C   HIS C 154     -10.852  14.910 -21.886  1.00 38.66 LIG 0.24  C 
ATOM     35 O    HIS C 154     -11.888  15.366 -22.360  1.00 35.33 LIG-0.27  OA
BRANCH 34 36
ATOM     36  CA  HIS C 154     -10.091  15.671 -20.813  1.00 42.51 LIG 0.18  C 
BRANCH 36 37
ATOM     37  CB  HIS C 154      -9.933  17.139 -21.206  1.00 45.16 LIG 0.10  C 
BRANCH 37 38
ATOM     38  CG  HIS C 154      -9.405  18.001 -20.101  1.00 48.44 LIG 0.06  A 
ATOM     39 ND1  HIS C 154      -8.224  17.727 -19.443  1.00 50.51 LIG-0.24  NA
ATOM     40  CE1 HIS C 154      -8.018  18.642 -18.511  1.00 51.05 LIG 0.23  A 
ATOM     41 NE2  HIS C 154      -9.024  19.497 -18.540  1.00 50.26 LIG-0.25  NA
ATOM     42  CD2 HIS C 154      -9.906  19.118 -19.523  1.00 50.26 LIG 0.14  A 
ENDBRANCH 37 38
ENDBRANCH 36 37
BRANCH 36 43
ATOM     43  N   HIS C 154      -8.794  15.035 -20.689  1.00 45.99 LIG-0.34  N 
ATOM     44  C   ASP C 153      -7.846  15.168 -21.610  1.00 51.00 LIG 0.26  C 
ATOM     45 O    ASP C 153      -8.040  15.669 -22.720  1.00 50.83 LIG-0.27  OA
ATOM     46 H    HIS C 154      -8.698  14.569 -19.972  1.00 45.99 LIG 0.16  HD
BRANCH 44 47
ATOM     47  CA  ASP C 153      -6.467  14.652 -21.215  1.00 53.77 LIG 0.41  C 
ATOM     48  N   ASP C 153      -5.660  14.210 -22.401  1.00 52.50 LIG 0.61  N 
BRANCH 47 49
ATOM     49  CB  ASP C 153      -5.746  15.743 -20.412  1.00 54.86 LIG 0.16  C 
BRANCH 49 50
ATOM     50  CG  ASP C 153      -4.243  15.576 -20.423  1.00 56.45 LIG 0.17  C 
ATOM     51 OD2  ASP C 153      -3.668  15.262 -19.351  1.00 58.24 LIG-0.65  OA
ATOM     52 OD1  ASP C 153      -3.641  15.758 -21.501  1.00 54.42 LIG-0.65  OA
ENDBRANCH 49 50
ENDBRANCH 47 49
ENDBRANCH 44 47
ENDBRANCH 36 43
ENDBRANCH 34 36
ENDBRANCH 1 32
TORSDOF 19
ENDMDL
MODEL 14
USER: ADFR SOLUTION from run 137
USER: SCORE 16.112564 LL:  -3.999 LR: -15.684 RR:   0.000 FEB: -10.016
USER: RMSD 2.370999
USER: SEED 136
USER: STATUS no improvement in best in 4 clusters for 5 generations
USER: GENES 21
USER: genes 0 Translation |==|  0.47328 0.55626 0.53941
USER: genes 1 Rotation |==|  0.47772 0.54485 0.49520 0.99746
USER: genes 2 Torsion [N]-CA--C-[N] |==|  0.42470
USER: genes 3 Torsion [C]-N--CA-[CB] |==|  0.32085
USER: genes 4 Torsion [N]-CA--C-[N] |==|  0.34715
USER: genes 5 Torsion [C]-N--CA-[CB] |==|  0.43479
USER: genes 6 Torsion [N]-CA--C-[N] |==|  0.32950
USER: genes 7 Torsion [C]-N--CA-[CB] |==|  0.48080
USER: genes 8 Torsion [N]-CA--C-[OXT] |==|  0.94472
USER: genes 9 Torsion [N]-CA--CB-[CG] |==|  0.86842
USER: genes 10 Torsion [CA]-CB--CG-[CD2] |==|  0.45736
USER: genes 11 Torsion [C]-CA--CB-[CG] |==|  0.48903
USER: genes 12 Torsion [CA]-CB--CG-[OD2] |==|  0.76054
USER: genes 13 Torsion [C]-CA--N-[C] |==|  0.66857
USER: genes 14 Torsion [N]-C--CA-[N] |==|  0.24219
USER: genes 15 Torsion [C]-CA--CB-[CG] |==|  0.34172
USER: genes 16 Torsion [CA]-CB--CG-[CD2] |==|  0.47537
USER: genes 17 Torsion [C]-CA--N-[C] |==|  0.76581
USER: genes 18 Torsion [N]-C--CA-[N] |==|  0.23908
USER: genes 19 Torsion [C]-CA--CB-[CG] |==|  0.60129
USER: genes 20 Torsion [CA]-CB--CG-[OD2] |==|  0.68599
ROOT
ATOM      1  CA  ASP C 155     -10.967  12.438 -23.679  1.00 34.31 LIG 0.19  C 
ENDROOT
BRANCH 1 2
ATOM      2  C   ASP C 155     -10.388  11.041 -23.529  1.00 33.42 LIG 0.24  C 
ATOM      3 O    ASP C 155      -9.204  10.813 -23.799  1.00 32.60 LIG-0.27  OA
ATOM      4  N   ALA C 156     -11.229  10.120 -23.067  1.00 30.74 LIG-0.35  N 
ATOM      5 H    ALA C 156     -12.030  10.295 -22.810  1.00 30.74 LIG 0.16  HD
BRANCH 4 6
ATOM      6  CA  ALA C 156     -10.864   8.720 -22.955  1.00 30.13 LIG 0.17  C 
ATOM      7  CB  ALA C 156     -10.860   8.289 -21.497  1.00 30.23 LIG 0.04  C 
BRANCH 6 8
ATOM      8  C   ALA C 156     -11.860   7.897 -23.755  1.00 29.70 LIG 0.24  C 
ATOM      9  N   HIS C 157     -11.331   7.098 -24.676  1.00 30.21 LIG-0.35  N 
ATOM     10 H    HIS C 157     -10.484   7.000 -24.791  1.00 30.21 LIG 0.16  HD
ATOM     11 O    ALA C 156     -13.078   7.995 -23.543  1.00 27.33 LIG-0.27  OA
BRANCH 9 12
ATOM     12  CA  HIS C 157     -12.149   6.303 -25.586  1.00 31.06 LIG 0.18  C 
BRANCH 12 13
ATOM     13  C   HIS C 157     -12.625   5.053 -24.869  1.00 30.33 LIG 0.24  C 
ATOM     14  N   ALA C 158     -13.941   4.913 -24.739  1.00 29.79 LIG-0.34  N 
ATOM     15 H    ALA C 158     -14.517   5.461 -25.068  1.00 29.79 LIG 0.16  HD
ATOM     16 O    HIS C 157     -11.810   4.241 -24.418  1.00 30.67 LIG-0.27  OA
BRANCH 14 17
ATOM     17  CA  ALA C 158     -14.529   3.789 -24.007  1.00 31.13 LIG 0.18  C 
ATOM     18  CB  ALA C 158     -16.036   3.963 -23.867  1.00 30.84 LIG 0.04  C 
BRANCH 17 19
ATOM     19  C   ALA C 158     -14.214   2.462 -24.680  1.00 31.87 LIG 0.20  C 
ATOM     20 OXT  ALA C 158     -13.872   2.420 -25.865  1.00 33.04 LIG-0.65  OA
ATOM     21 O    ALA C 158     -14.301   1.409 -24.043  1.00 31.17 LIG-0.65  OA
ENDBRANCH 17 19
ENDBRANCH 14 17
ENDBRANCH 12 13
BRANCH 12 22
ATOM     22  CB  HIS C 157     -11.358   5.962 -26.853  1.00 32.09 LIG 0.10  C 
BRANCH 22 23
ATOM     23  CG  HIS C 157     -10.653   7.144 -27.444  1.00 35.38 LIG 0.06  A 
ATOM     24 ND1  HIS C 157     -10.915   8.441 -27.049  1.00 36.48 LIG-0.24  NA
ATOM     25  CE1 HIS C 157     -10.126   9.268 -27.713  1.00 37.27 LIG 0.23  A 
ATOM     26 NE2  HIS C 157      -9.354   8.555 -28.517  1.00 37.33 LIG-0.25  NA
ATOM     27  CD2 HIS C 157      -9.660   7.224 -28.365  1.00 35.91 LIG 0.14  A 
ENDBRANCH 22 23
ENDBRANCH 12 22
ENDBRANCH 9 12
ENDBRANCH 6 8
ENDBRANCH 4 6
ENDBRANCH 1 2
BRANCH 1 28
ATOM     28  CB  ASP C 155     -11.652  12.559 -25.028  1.00 35.23 LIG 0.15  C 
BRANCH 28 29
ATOM     29  CG  ASP C 155     -12.342  13.897 -25.222  1.00 35.97 LIG 0.17  C 
ATOM     30 OD2  ASP C 155     -13.503  13.996 -24.793  1.00 39.40 LIG-0.65  OA
ATOM     31 OD1  ASP C 155     -11.758  14.847 -25.789  1.00 38.01 LIG-0.65  OA
ENDBRANCH 28 29
ENDBRANCH 1 28
BRANCH 1 32
ATOM     32  N   ASP C 155      -9.915  13.426 -23.556  1.00 36.13 LIG-0.34  N 
ATOM     33 H    ASP C 155      -9.295  13.357 -24.149  1.00 36.13 LIG 0.16  HD
ATOM     34  C   HIS C 154      -9.927  14.346 -22.605  1.00 38.66 LIG 0.24  C 
ATOM     35 O    HIS C 154     -10.841  14.455 -21.792  1.00 35.33 LIG-0.27  OA
BRANCH 34 36
ATOM     36  CA  HIS C 154      -8.750  15.307 -22.580  1.00 42.51 LIG 0.18  C 
BRANCH 36 37
ATOM     37  CB  HIS C 154      -8.508  15.822 -21.161  1.00 45.16 LIG 0.10  C 
BRANCH 37 38
ATOM     38  CG  HIS C 154      -7.124  15.554 -20.655  1.00 48.44 LIG 0.06  A 
ATOM     39 ND1  HIS C 154      -6.235  14.733 -21.318  1.00 50.51 LIG-0.24  NA
ATOM     40  CE1 HIS C 154      -5.104  14.670 -20.637  1.00 51.05 LIG 0.23  A 
ATOM     41 NE2  HIS C 154      -5.229  15.417 -19.556  1.00 50.26 LIG-0.25  NA
ATOM     42  CD2 HIS C 154      -6.482  15.980 -19.542  1.00 50.26 LIG 0.14  A 
ENDBRANCH 37 38
ENDBRANCH 36 37
BRANCH 36 43
ATOM     43  N   HIS C 154      -9.084  16.402 -23.469  1.00 45.99 LIG-0.34  N 
ATOM     44  C   ASP C 153      -8.879  16.340 -24.780  1.00 51.00 LIG 0.26  C 
ATOM     45 O    ASP C 153      -8.223  15.451 -25.326  1.00 50.83 LIG-0.27  OA
ATOM     46 H    HIS C 154      -9.424  17.085 -23.072  1.00 45.99 LIG 0.16  HD
BRANCH 44 47
ATOM     47  CA  ASP C 153      -9.512  17.460 -25.598  1.00 53.77 LIG 0.41  C 
ATOM     48  N   ASP C 153      -8.635  18.675 -25.681  1.00 52.50 LIG 0.61  N 
BRANCH 47 49
ATOM     49  CB  ASP C 153      -9.860  16.915 -26.989  1.00 54.86 LIG 0.16  C 
BRANCH 49 50
ATOM     50  CG  ASP C 153      -9.648  17.937 -28.085  1.00 56.45 LIG 0.17  C 
ATOM     51 OD2  ASP C 153     -10.652  18.373 -28.698  1.00 58.24 LIG-0.65  OA
ATOM     52 OD1  ASP C 153      -8.479  18.300 -28.328  1.00 54.42 LIG-0.65  OA
ENDBRANCH 49 50
ENDBRANCH 47 49
ENDBRANCH 44 47
ENDBRANCH 36 43
ENDBRANCH 34 36
ENDBRANCH 1 32
TORSDOF 19
ENDMDL
