MODEL 1
USER: ADFR SOLUTION from run 59
USER: SCORE 19.160450 LL:  -5.367 LR: -15.280 RR:   0.000 FEB:  -9.314
USER: RMSD 1.275711
USER: SEED 58
USER: STATUS 1 or 2 clusters left
USER: GENES 22
USER: genes 0 Translation |==|  0.59272 0.39657 0.50267
USER: genes 1 Rotation |==|  0.50228 0.48274 0.45712 0.99785
USER: genes 2 Torsion [C]-N--CA-[CB] |==|  0.27212
USER: genes 3 Torsion [N]-CA--CB-[CG] |==|  0.46896
USER: genes 4 Torsion [CA]-CB--CG-[OD1] |==|  0.22840
USER: genes 5 Torsion [N]-CA--C-[N] |==|  0.32329
USER: genes 6 Torsion [N]-CA--C-[O] |==|  0.46851
USER: genes 7 Torsion [C]-N--CA-[CB] |==|  0.39849
USER: genes 8 Torsion [N]-CA--CB-[CG] |==|  0.91263
USER: genes 9 Torsion [CA]-CB--CG-[CD1] |==|  0.79737
USER: genes 10 Torsion [N]-CA--C-[O] |==|  0.45218
USER: genes 11 Torsion [N]-C--CA-[N] |==|  0.31562
USER: genes 12 Torsion [C]-CA--N-[C] |==|  0.77777
USER: genes 13 Torsion [N]-C--CA-[N] |==|  0.36703
USER: genes 14 Torsion [C]-CA--CB-[CG2] |==|  0.35732
USER: genes 15 Torsion [C]-CA--N-[C] |==|  0.65937
USER: genes 16 Torsion [N]-C--CA-[N] |==|  0.24276
USER: genes 17 Torsion [C]-CA--CB-[CG] |==|  0.25637
USER: genes 18 Torsion [CA]-CB--CG-[CD] |==|  0.49737
USER: genes 19 Torsion [CB]-CG--CD-[OE1] |==|  0.86090
USER: genes 20 Torsion [C]-CA--CB-[CG] |==|  0.21871
USER: genes 21 Torsion [CA]-CB--CG-[OD1] |==|  0.94410
ROOT
ATOM      1  C   ASN C  17     -76.141-211.073  82.884  1.00 20.61 LIG 0.24  C 
ATOM      2 O    ASN C  17     -75.839-212.146  82.364  1.00 16.51 LIG-0.27  OA
ATOM      3  N   ASN C  18     -76.141-209.915  82.227  1.00 22.51 LIG-0.35  N 
ATOM      4 H    ASN C  18     -76.315-209.157  82.596  1.00 22.51 LIG 0.16  HD
ENDROOT
BRANCH 3 5
ATOM      5  CA  ASN C  18     -75.843-209.830  80.802  1.00 19.22 LIG 0.18  C 
BRANCH 5 6
ATOM      6  CB  ASN C  18     -77.143-209.772  79.993  1.00 16.89 LIG 0.14  C 
BRANCH 6 7
ATOM      7  CG  ASN C  18     -76.910-209.413  78.539  1.00 20.14 LIG 0.22  C 
ATOM      8  ND2 ASN C  18     -77.107-208.143  78.204  1.00 20.12 LIG-0.37  N 
ATOM      9 22HD ASN C  18     -77.344-207.572  78.802  1.00 20.12 LIG 0.16  HD
ATOM     10 21HD ASN C  18     -76.999-207.892  77.388  1.00 20.12 LIG 0.16  HD
ATOM     11 OD1  ASN C  18     -76.571-210.271  77.723  1.00 18.28 LIG-0.27  OA
ENDBRANCH 6 7
ENDBRANCH 5 6
BRANCH 5 12
ATOM     12  C   ASN C  18     -74.973-208.614  80.470  1.00 21.33 LIG 0.24  C 
ATOM     13  N   PRO C  19     -73.748-208.850  79.974  1.00 20.66 LIG-0.34  N 
ATOM     14  CD  PRO C  19     -73.060-210.147  79.853  1.00 23.11 LIG 0.13  C 
ATOM     15  CA  PRO C  19     -72.863-207.737  79.616  1.00 23.26 LIG 0.18  C 
ATOM     16  CG  PRO C  19     -71.686-209.777  79.344  1.00 22.87 LIG 0.02  C 
ATOM     17  CB  PRO C  19     -71.474-208.357  79.746  1.00 23.39 LIG 0.04  C 
ATOM     18 O    ASN C  18     -75.402-207.475  80.656  1.00 23.13 LIG-0.27  OA
BRANCH 15 19
ATOM     19  C   PRO C  19     -73.082-207.216  78.196  1.00 24.54 LIG 0.24  C 
ATOM     20  N   PHE C  20     -73.849-207.949  77.393  1.00 23.51 LIG-0.34  N 
ATOM     21 H    PHE C  20     -74.311-208.625  77.655  1.00 23.51 LIG 0.16  HD
ATOM     22 O    PRO C  19     -72.556-206.156  77.846  1.00 27.52 LIG-0.27  OA
BRANCH 20 23
ATOM     23  CA  PHE C  20     -73.966-207.652  75.966  1.00 27.49 LIG 0.19  C 
BRANCH 23 24
ATOM     24  CB  PHE C  20     -74.067-208.962  75.185  1.00 22.62 LIG 0.07  C 
BRANCH 24 25
ATOM     25  CG  PHE C  20     -73.317-210.088  75.829  1.00 18.80 LIG-0.06  A 
ATOM     26  CD1 PHE C  20     -71.936-210.113  75.792  1.00 16.53 LIG 0.01  A 
ATOM     27  CE1 PHE C  20     -71.231-211.130  76.395  1.00 18.06 LIG 0.00  A 
ATOM     28  CZ  PHE C  20     -71.906-212.142  77.057  1.00 17.30 LIG 0.00  A 
ATOM     29  CE2 PHE C  20     -73.282-212.127  77.110  1.00 18.45 LIG 0.00  A 
ATOM     30  CD2 PHE C  20     -73.983-211.099  76.502  1.00 20.64 LIG 0.01  A 
ENDBRANCH 24 25
ENDBRANCH 23 24
BRANCH 23 31
ATOM     31  C   PHE C  20     -75.151-206.744  75.649  1.00 41.21 LIG 0.20  C 
ATOM     32 OXT  PHE C  20     -76.063-206.574  76.458  1.00 46.78 LIG-0.65  OA
ATOM     33 O    PHE C  20     -75.219-206.145  74.572  1.00 43.65 LIG-0.65  OA
ENDBRANCH 23 31
ENDBRANCH 20 23
ENDBRANCH 15 19
ENDBRANCH 5 12
ENDBRANCH 3 5
BRANCH 1 34
ATOM     34  CA  ASN C  17     -76.561-211.017  84.346  1.00 16.90 LIG 0.18  C 
BRANCH 34 35
ATOM     35  N   ASN C  17     -77.816-211.739  84.493  1.00 20.58 LIG-0.35  N 
ATOM     36  C   VAL C  16     -78.975-211.174  84.171  1.00 27.16 LIG 0.24  C 
ATOM     37 O    VAL C  16     -79.086-209.973  83.925  1.00 29.43 LIG-0.27  OA
ATOM     38 H    ASN C  17     -77.736-212.539  84.799  1.00 20.58 LIG 0.16  HD
BRANCH 36 39
ATOM     39  CA  VAL C  16     -80.193-212.095  84.130  1.00 33.54 LIG 0.18  C 
BRANCH 39 40
ATOM     40  CB  VAL C  16     -80.577-212.374  82.657  1.00 32.44 LIG 0.01  C 
ATOM     41  CG2 VAL C  16     -80.711-213.879  82.418  1.00 34.10 LIG 0.01  C 
ATOM     42  CG1 VAL C  16     -79.568-211.741  81.688  1.00 32.37 LIG 0.01  C 
ENDBRANCH 39 40
BRANCH 39 43
ATOM     43  N   VAL C  16     -81.318-211.515  84.854  1.00 45.58 LIG-0.34  N 
ATOM     44  C   GLN C  15     -81.910-212.138  85.866  1.00 57.61 LIG 0.26  C 
ATOM     45 O    GLN C  15     -81.540-213.235  86.288  1.00 61.53 LIG-0.27  OA
ATOM     46 H    VAL C  16     -81.558-210.740  84.567  1.00 45.58 LIG 0.16  HD
BRANCH 44 47
ATOM     47  CA  GLN C  15     -83.093-211.408  86.497  1.00 63.44 LIG 0.40  C 
ATOM     48  N   GLN C  15     -84.331-211.730  85.796  1.00 62.08 LIG 0.61  N 
BRANCH 47 49
ATOM     49  CB  GLN C  15     -83.208-211.771  87.976  1.00 68.54 LIG 0.06  C 
BRANCH 49 50
ATOM     50  CG  GLN C  15     -82.464-210.814  88.902  1.00 72.89 LIG 0.10  C 
BRANCH 50 51
ATOM     51  CD  GLN C  15     -82.595-211.159  90.376  1.00 75.77 LIG 0.21  C 
ATOM     52 OE1  GLN C  15     -83.693-211.372  90.888  1.00 77.61 LIG-0.27  OA
ATOM     53  NE2 GLN C  15     -81.463-211.208  91.067  1.00 76.03 LIG-0.37  N 
ATOM     54 22HE GLN C  15     -81.479-211.395  91.906  1.00 76.03 LIG 0.16  HD
ATOM     55 21HE GLN C  15     -80.713-211.054  90.676  1.00 76.03 LIG 0.16  HD
ENDBRANCH 50 51
ENDBRANCH 49 50
ENDBRANCH 47 49
ENDBRANCH 44 47
ENDBRANCH 39 43
ENDBRANCH 36 39
ENDBRANCH 34 35
BRANCH 34 56
ATOM     56  CB  ASN C  17     -75.475-211.610  85.248  1.00 15.63 LIG 0.14  C 
BRANCH 56 57
ATOM     57  CG  ASN C  17     -74.327-210.649  85.492  1.00 17.63 LIG 0.22  C 
ATOM     58 OD1  ASN C  17     -74.124-209.697  84.735  1.00 24.00 LIG-0.27  OA
ATOM     59  ND2 ASN C  17     -73.558-210.900  86.545  1.00 16.48 LIG-0.37  N 
ATOM     60 21HD ASN C  17     -72.889-210.390  86.720  1.00 16.48 LIG 0.16  HD
ATOM     61 22HD ASN C  17     -73.730-211.574  87.052  1.00 16.48 LIG 0.16  HD
ENDBRANCH 56 57
ENDBRANCH 34 56
ENDBRANCH 1 34
TORSDOF 20
ENDMDL
MODEL 2
USER: ADFR SOLUTION from run 13
USER: SCORE 18.994114 LL:  -5.652 LR: -14.835 RR:   0.000 FEB:  -8.869
USER: RMSD 2.480760
USER: SEED 727621
USER: STATUS 1 or 2 clusters left
USER: GENES 22
USER: genes 0 Translation |==|  0.59228 0.39775 0.50357
USER: genes 1 Rotation |==|  0.49892 0.47886 0.45942 0.99790
USER: genes 2 Torsion [C]-N--CA-[CB] |==|  0.27099
USER: genes 3 Torsion [N]-CA--CB-[CG] |==|  0.46146
USER: genes 4 Torsion [CA]-CB--CG-[OD1] |==|  0.24502
USER: genes 5 Torsion [N]-CA--C-[N] |==|  0.32623
USER: genes 6 Torsion [N]-CA--C-[O] |==|  0.46812
USER: genes 7 Torsion [C]-N--CA-[CB] |==|  0.40186
USER: genes 8 Torsion [N]-CA--CB-[CG] |==|  0.90955
USER: genes 9 Torsion [CA]-CB--CG-[CD1] |==|  0.79632
USER: genes 10 Torsion [N]-CA--C-[O] |==|  0.94684
USER: genes 11 Torsion [N]-C--CA-[N] |==|  0.31867
USER: genes 12 Torsion [C]-CA--N-[C] |==|  0.77334
USER: genes 13 Torsion [N]-C--CA-[N] |==|  0.35019
USER: genes 14 Torsion [C]-CA--CB-[CG2] |==|  0.38069
USER: genes 15 Torsion [C]-CA--N-[C] |==|  0.64973
USER: genes 16 Torsion [N]-C--CA-[N] |==|  0.93541
USER: genes 17 Torsion [C]-CA--CB-[CG] |==|  0.15710
USER: genes 18 Torsion [CA]-CB--CG-[CD] |==|  0.70415
USER: genes 19 Torsion [CB]-CG--CD-[OE1] |==|  0.22048
USER: genes 20 Torsion [C]-CA--CB-[CG] |==|  0.20873
USER: genes 21 Torsion [CA]-CB--CG-[OD1] |==|  0.95530
ROOT
ATOM      1  C   ASN C  17     -76.150-211.055  82.906  1.00 20.61 LIG 0.24  C 
ATOM      2 O    ASN C  17     -75.832-212.133  82.407  1.00 16.51 LIG-0.27  OA
ATOM      3  N   ASN C  18     -76.151-209.907  82.232  1.00 22.51 LIG-0.35  N 
ATOM      4 H    ASN C  18     -76.336-209.146  82.587  1.00 22.51 LIG 0.16  HD
ENDROOT
BRANCH 3 5
ATOM      5  CA  ASN C  18     -75.832-209.841  80.810  1.00 19.22 LIG 0.18  C 
BRANCH 5 6
ATOM      6  CB  ASN C  18     -77.121-209.817  79.982  1.00 16.89 LIG 0.14  C 
BRANCH 6 7
ATOM      7  CG  ASN C  18     -76.880-209.414  78.540  1.00 20.14 LIG 0.22  C 
ATOM      8  ND2 ASN C  18     -77.005-208.122  78.258  1.00 20.12 LIG-0.37  N 
ATOM      9 22HD ASN C  18     -77.202-207.563  78.881  1.00 20.12 LIG 0.16  HD
ATOM     10 21HD ASN C  18     -76.890-207.845  77.451  1.00 20.12 LIG 0.16  HD
ATOM     11 OD1  ASN C  18     -76.601-210.258  77.687  1.00 18.28 LIG-0.27  OA
ENDBRANCH 6 7
ENDBRANCH 5 6
BRANCH 5 12
ATOM     12  C   ASN C  18     -74.977-208.617  80.471  1.00 21.33 LIG 0.24  C 
ATOM     13  N   PRO C  19     -73.749-208.841  79.976  1.00 20.66 LIG-0.34  N 
ATOM     14  CD  PRO C  19     -73.046-210.132  79.863  1.00 23.11 LIG 0.13  C 
ATOM     15  CA  PRO C  19     -72.878-207.720  79.612  1.00 23.26 LIG 0.18  C 
ATOM     16  CG  PRO C  19     -71.676-209.748  79.352  1.00 22.87 LIG 0.02  C 
ATOM     17  CB  PRO C  19     -71.481-208.324  79.745  1.00 23.39 LIG 0.04  C 
ATOM     18 O    ASN C  18     -75.419-207.482  80.650  1.00 23.13 LIG-0.27  OA
BRANCH 15 19
ATOM     19  C   PRO C  19     -73.103-207.211  78.188  1.00 24.54 LIG 0.24  C 
ATOM     20  N   PHE C  20     -73.858-207.959  77.389  1.00 23.51 LIG-0.34  N 
ATOM     21 H    PHE C  20     -74.311-208.640  77.655  1.00 23.51 LIG 0.16  HD
ATOM     22 O    PRO C  19     -72.591-206.146  77.833  1.00 27.52 LIG-0.27  OA
BRANCH 20 23
ATOM     23  CA  PHE C  20     -73.978-207.672  75.960  1.00 27.49 LIG 0.19  C 
BRANCH 23 24
ATOM     24  CB  PHE C  20     -74.090-208.988  75.189  1.00 22.62 LIG 0.07  C 
BRANCH 24 25
ATOM     25  CG  PHE C  20     -73.324-210.107  75.825  1.00 18.80 LIG-0.06  A 
ATOM     26  CD1 PHE C  20     -71.944-210.133  75.754  1.00 16.53 LIG 0.01  A 
ATOM     27  CE1 PHE C  20     -71.225-211.143  76.348  1.00 18.06 LIG 0.00  A 
ATOM     28  CZ  PHE C  20     -71.882-212.149  77.037  1.00 17.30 LIG 0.00  A 
ATOM     29  CE2 PHE C  20     -73.257-212.134  77.124  1.00 18.45 LIG 0.00  A 
ATOM     30  CD2 PHE C  20     -73.973-211.112  76.524  1.00 20.64 LIG 0.01  A 
ENDBRANCH 24 25
ENDBRANCH 23 24
BRANCH 23 31
ATOM     31  C   PHE C  20     -75.158-206.758  75.640  1.00 41.21 LIG 0.20  C 
ATOM     32 OXT  PHE C  20     -75.224-206.146  74.575  1.00 46.78 LIG-0.65  OA
ATOM     33 O    PHE C  20     -76.086-206.620  76.442  1.00 43.65 LIG-0.65  OA
ENDBRANCH 23 31
ENDBRANCH 20 23
ENDBRANCH 15 19
ENDBRANCH 5 12
ENDBRANCH 3 5
BRANCH 1 34
ATOM     34  CA  ASN C  17     -76.592-210.981  84.362  1.00 16.90 LIG 0.18  C 
BRANCH 34 35
ATOM     35  N   ASN C  17     -77.829-211.733  84.507  1.00 20.58 LIG-0.35  N 
ATOM     36  C   VAL C  16     -79.001-211.196  84.187  1.00 27.16 LIG 0.24  C 
ATOM     37 O    VAL C  16     -79.142-209.998  83.946  1.00 29.43 LIG-0.27  OA
ATOM     38 H    ASN C  17     -77.729-212.532  84.810  1.00 20.58 LIG 0.16  HD
BRANCH 36 39
ATOM     39  CA  VAL C  16     -80.196-212.146  84.143  1.00 33.54 LIG 0.18  C 
BRANCH 39 40
ATOM     40  CB  VAL C  16     -80.670-212.309  82.679  1.00 32.44 LIG 0.01  C 
ATOM     41  CG2 VAL C  16     -80.984-213.776  82.382  1.00 34.10 LIG 0.01  C 
ATOM     42  CG1 VAL C  16     -79.638-211.745  81.693  1.00 32.37 LIG 0.01  C 
ENDBRANCH 39 40
BRANCH 39 43
ATOM     43  N   VAL C  16     -81.284-211.664  84.986  1.00 45.58 LIG-0.34  N 
ATOM     44  C   GLN C  15     -81.838-212.415  85.931  1.00 57.61 LIG 0.26  C 
ATOM     45 O    GLN C  15     -81.459-213.559  86.188  1.00 61.53 LIG-0.27  OA
ATOM     46 H    VAL C  16     -81.530-210.858  84.815  1.00 45.58 LIG 0.16  HD
BRANCH 44 47
ATOM     47  CA  GLN C  15     -82.986-211.772  86.704  1.00 63.44 LIG 0.40  C 
ATOM     48  N   GLN C  15     -82.901-210.317  86.641  1.00 62.08 LIG 0.61  N 
BRANCH 47 49
ATOM     49  CB  GLN C  15     -84.327-212.251  86.151  1.00 68.54 LIG 0.06  C 
BRANCH 49 50
ATOM     50  CG  GLN C  15     -84.489-213.767  86.163  1.00 72.89 LIG 0.10  C 
BRANCH 50 51
ATOM     51  CD  GLN C  15     -84.387-214.407  84.790  1.00 75.77 LIG 0.21  C 
ATOM     52 OE1  GLN C  15     -83.296-214.611  84.257  1.00 77.61 LIG-0.27  OA
ATOM     53  NE2 GLN C  15     -85.536-214.723  84.205  1.00 76.03 LIG-0.37  N 
ATOM     54 22HE GLN C  15     -85.537-215.085  83.425  1.00 76.03 LIG 0.16  HD
ATOM     55 21HE GLN C  15     -86.280-214.567  84.607  1.00 76.03 LIG 0.16  HD
ENDBRANCH 50 51
ENDBRANCH 49 50
ENDBRANCH 47 49
ENDBRANCH 44 47
ENDBRANCH 39 43
ENDBRANCH 36 39
ENDBRANCH 34 35
BRANCH 34 56
ATOM     56  CB  ASN C  17     -75.502-211.526  85.290  1.00 15.63 LIG 0.14  C 
BRANCH 56 57
ATOM     57  CG  ASN C  17     -74.343-210.564  85.460  1.00 17.63 LIG 0.22  C 
ATOM     58 OD1  ASN C  17     -74.180-209.621  84.682  1.00 24.00 LIG-0.27  OA
ATOM     59  ND2 ASN C  17     -73.518-210.804  86.472  1.00 16.48 LIG-0.37  N 
ATOM     60 21HD ASN C  17     -72.839-210.292  86.605  1.00 16.48 LIG 0.16  HD
ATOM     61 22HD ASN C  17     -73.662-211.471  86.995  1.00 16.48 LIG 0.16  HD
ENDBRANCH 56 57
ENDBRANCH 34 56
ENDBRANCH 1 34
TORSDOF 20
ENDMDL
MODEL 3
USER: ADFR SOLUTION from run 63
USER: SCORE 17.684212 LL:  -5.490 LR: -13.836 RR:   0.000 FEB:  -7.870
USER: RMSD 3.674248
USER: SEED 62
USER: STATUS no improvement in best in 3 clusters for 5 generations
USER: GENES 22
USER: genes 0 Translation |==|  0.58383 0.40336 0.50647
USER: genes 1 Rotation |==|  0.49795 0.48479 0.40341 0.99034
USER: genes 2 Torsion [C]-N--CA-[CB] |==|  0.22997
USER: genes 3 Torsion [N]-CA--CB-[CG] |==|  0.45026
USER: genes 4 Torsion [CA]-CB--CG-[OD1] |==|  0.25441
USER: genes 5 Torsion [N]-CA--C-[N] |==|  0.32609
USER: genes 6 Torsion [N]-CA--C-[O] |==|  0.48166
USER: genes 7 Torsion [C]-N--CA-[CB] |==|  0.38180
USER: genes 8 Torsion [N]-CA--CB-[CG] |==|  0.90862
USER: genes 9 Torsion [CA]-CB--CG-[CD1] |==|  0.30204
USER: genes 10 Torsion [N]-CA--C-[O] |==|  0.38822
USER: genes 11 Torsion [N]-C--CA-[N] |==|  0.32800
USER: genes 12 Torsion [C]-CA--N-[C] |==|  0.73644
USER: genes 13 Torsion [N]-C--CA-[N] |==|  0.87107
USER: genes 14 Torsion [C]-CA--CB-[CG2] |==|  0.58727
USER: genes 15 Torsion [C]-CA--N-[C] |==|  0.66023
USER: genes 16 Torsion [N]-C--CA-[N] |==|  0.82748
USER: genes 17 Torsion [C]-CA--CB-[CG] |==|  0.36019
USER: genes 18 Torsion [CA]-CB--CG-[CD] |==|  0.71161
USER: genes 19 Torsion [CB]-CG--CD-[OE1] |==|  0.99681
USER: genes 20 Torsion [C]-CA--CB-[CG] |==|  0.21335
USER: genes 21 Torsion [CA]-CB--CG-[OD1] |==|  0.93843
ROOT
ATOM      1  C   ASN C  17     -76.327-210.971  82.978  1.00 20.61 LIG 0.24  C 
ATOM      2 O    ASN C  17     -76.270-212.088  82.467  1.00 16.51 LIG-0.27  OA
ATOM      3  N   ASN C  18     -76.085-209.845  82.310  1.00 22.51 LIG-0.35  N 
ATOM      4 H    ASN C  18     -76.087-209.065  82.673  1.00 22.51 LIG 0.16  HD
ENDROOT
BRANCH 3 5
ATOM      5  CA  ASN C  18     -75.790-209.838  80.881  1.00 19.22 LIG 0.18  C 
BRANCH 5 6
ATOM      6  CB  ASN C  18     -77.092-209.885  80.074  1.00 16.89 LIG 0.14  C 
BRANCH 6 7
ATOM      7  CG  ASN C  18     -76.901-209.451  78.634  1.00 20.14 LIG 0.22  C 
ATOM      8  ND2 ASN C  18     -77.044-208.154  78.383  1.00 20.12 LIG-0.37  N 
ATOM      9 22HD ASN C  18     -77.224-207.610  79.024  1.00 20.12 LIG 0.16  HD
ATOM     10 21HD ASN C  18     -76.956-207.860  77.580  1.00 20.12 LIG 0.16  HD
ATOM     11 OD1  ASN C  18     -76.643-210.274  77.754  1.00 18.28 LIG-0.27  OA
ENDBRANCH 6 7
ENDBRANCH 5 6
BRANCH 5 12
ATOM     12  C   ASN C  18     -74.972-208.610  80.472  1.00 21.33 LIG 0.24  C 
ATOM     13  N   PRO C  19     -73.746-208.827  79.968  1.00 20.66 LIG-0.34  N 
ATOM     14  CD  PRO C  19     -73.011-210.103  79.905  1.00 23.11 LIG 0.13  C 
ATOM     15  CA  PRO C  19     -72.909-207.702  79.538  1.00 23.26 LIG 0.18  C 
ATOM     16  CG  PRO C  19     -71.659-209.709  79.355  1.00 22.87 LIG 0.02  C 
ATOM     17  CB  PRO C  19     -71.496-208.264  79.678  1.00 23.39 LIG 0.04  C 
ATOM     18 O    ASN C  18     -75.441-207.480  80.603  1.00 23.13 LIG-0.27  OA
BRANCH 15 19
ATOM     19  C   PRO C  19     -73.168-207.267  78.096  1.00 24.54 LIG 0.24  C 
ATOM     20  N   PHE C  20     -73.996-208.019  77.374  1.00 23.51 LIG-0.34  N 
ATOM     21 H    PHE C  20     -74.472-208.657  77.700  1.00 23.51 LIG 0.16  HD
ATOM     22 O    PRO C  19     -72.617-206.255  77.655  1.00 27.52 LIG-0.27  OA
BRANCH 20 23
ATOM     23  CA  PHE C  20     -74.162-207.811  75.937  1.00 27.49 LIG 0.19  C 
BRANCH 23 24
ATOM     24  CB  PHE C  20     -74.196-209.168  75.232  1.00 22.62 LIG 0.07  C 
BRANCH 24 25
ATOM     25  CG  PHE C  20     -73.335-210.197  75.899  1.00 18.80 LIG-0.06  A 
ATOM     26  CD1 PHE C  20     -73.914-211.244  76.589  1.00 16.53 LIG 0.01  A 
ATOM     27  CE1 PHE C  20     -73.138-212.208  77.191  1.00 18.06 LIG 0.00  A 
ATOM     28  CZ  PHE C  20     -71.757-212.140  77.103  1.00 17.30 LIG 0.00  A 
ATOM     29  CE2 PHE C  20     -71.165-211.106  76.412  1.00 18.45 LIG 0.00  A 
ATOM     30  CD2 PHE C  20     -71.954-210.141  75.808  1.00 20.64 LIG 0.01  A 
ENDBRANCH 24 25
ENDBRANCH 23 24
BRANCH 23 31
ATOM     31  C   PHE C  20     -75.409-206.998  75.600  1.00 41.21 LIG 0.20  C 
ATOM     32 OXT  PHE C  20     -76.466-207.165  76.206  1.00 46.78 LIG-0.65  OA
ATOM     33 O    PHE C  20     -75.383-206.139  74.713  1.00 43.65 LIG-0.65  OA
ENDBRANCH 23 31
ENDBRANCH 20 23
ENDBRANCH 15 19
ENDBRANCH 5 12
ENDBRANCH 3 5
BRANCH 1 34
ATOM     34  CA  ASN C  17     -76.710-210.814  84.444  1.00 16.90 LIG 0.18  C 
BRANCH 34 35
ATOM     35  N   ASN C  17     -78.052-211.345  84.629  1.00 20.58 LIG-0.35  N 
ATOM     36  C   VAL C  16     -79.117-210.551  84.587  1.00 27.16 LIG 0.24  C 
ATOM     37 O    VAL C  16     -79.034-209.324  84.592  1.00 29.43 LIG-0.27  OA
ATOM     38 H    ASN C  17     -78.087-212.194  84.763  1.00 20.58 LIG 0.16  HD
BRANCH 36 39
ATOM     39  CA  VAL C  16     -80.480-211.241  84.547  1.00 33.54 LIG 0.18  C 
BRANCH 39 40
ATOM     40  CB  VAL C  16     -80.827-211.774  85.957  1.00 32.44 LIG 0.01  C 
ATOM     41  CG2 VAL C  16     -81.674-213.043  85.853  1.00 34.10 LIG 0.01  C 
ATOM     42  CG1 VAL C  16     -81.528-210.700  86.802  1.00 32.37 LIG 0.01  C 
ENDBRANCH 39 40
BRANCH 39 43
ATOM     43  N   VAL C  16     -80.495-212.323  83.569  1.00 45.58 LIG-0.34  N 
ATOM     44  C   GLN C  15     -81.361-212.360  82.564  1.00 57.61 LIG 0.26  C 
ATOM     45 O    GLN C  15     -82.195-211.476  82.363  1.00 61.53 LIG-0.27  OA
ATOM     46 H    VAL C  16     -79.897-212.926  83.705  1.00 45.58 LIG 0.16  HD
BRANCH 44 47
ATOM     47  CA  GLN C  15     -81.264-213.577  81.647  1.00 63.44 LIG 0.40  C 
ATOM     48  N   GLN C  15     -79.963-213.625  80.989  1.00 62.08 LIG 0.61  N 
BRANCH 47 49
ATOM     49  CB  GLN C  15     -81.506-214.857  82.443  1.00 68.54 LIG 0.06  C 
BRANCH 49 50
ATOM     50  CG  GLN C  15     -82.544-215.783  81.816  1.00 72.89 LIG 0.10  C 
BRANCH 50 51
ATOM     51  CD  GLN C  15     -83.894-215.752  82.510  1.00 75.77 LIG 0.21  C 
ATOM     52 OE1  GLN C  15     -84.089-215.049  83.501  1.00 77.61 LIG-0.27  OA
ATOM     53  NE2 GLN C  15     -84.837-216.529  81.990  1.00 76.03 LIG-0.37  N 
ATOM     54 22HE GLN C  15     -85.619-216.553  82.346  1.00 76.03 LIG 0.16  HD
ATOM     55 21HE GLN C  15     -84.665-217.007  81.297  1.00 76.03 LIG 0.16  HD
ENDBRANCH 50 51
ENDBRANCH 49 50
ENDBRANCH 47 49
ENDBRANCH 44 47
ENDBRANCH 39 43
ENDBRANCH 36 39
ENDBRANCH 34 35
BRANCH 34 56
ATOM     56  CB  ASN C  17     -75.704-211.530  85.349  1.00 15.63 LIG 0.14  C 
BRANCH 56 57
ATOM     57  CG  ASN C  17     -74.409-210.757  85.511  1.00 17.63 LIG 0.22  C 
ATOM     58 OD1  ASN C  17     -74.063-209.916  84.678  1.00 24.00 LIG-0.27  OA
ATOM     59  ND2 ASN C  17     -73.676-211.047  86.579  1.00 16.48 LIG-0.37  N 
ATOM     60 21HD ASN C  17     -72.928-210.644  86.710  1.00 16.48 LIG 0.16  HD
ATOM     61 22HD ASN C  17     -73.949-211.640  87.139  1.00 16.48 LIG 0.16  HD
ENDBRANCH 56 57
ENDBRANCH 34 56
ENDBRANCH 1 34
TORSDOF 20
ENDMDL
