MODEL 1
USER: ADFR SOLUTION from run 191
USER: SCORE 15.295714 LL:  -2.181 LR: -15.396 RR:   0.000 FEB:  -9.430
USER: RMSD 3.635261
USER: SEED 190
USER: STATUS no improvement in best in 2 clusters for 5 generations
USER: GENES 22
USER: genes 0 Translation |==|  0.50390 0.58113 0.61036
USER: genes 1 Rotation |==|  0.40390 0.41044 0.47718 0.98189
USER: genes 2 Torsion [CB]-CA--N-[C] |==|  0.18875
USER: genes 3 Torsion [N]-C--CA-[N] |==|  0.33889
USER: genes 4 Torsion [C]-CA--N-[C] |==|  0.48578
USER: genes 5 Torsion [N]-C--CA-[N] |==|  0.46467
USER: genes 6 Torsion [C]-CA--N-[C] |==|  0.56222
USER: genes 7 Torsion [N]-C--CA-[N] |==|  0.54036
USER: genes 8 Torsion [C]-CA--CB-[OG] |==|  0.47537
USER: genes 9 Torsion [CA]-CB--OG-[HG] |==|  0.26473
USER: genes 10 Torsion [C]-CA--CB-[OG] |==|  0.94800
USER: genes 11 Torsion [CA]-CB--OG-[HG] |==|  0.74610
USER: genes 12 Torsion [N]-CA--C-[N] |==|  0.65724
USER: genes 13 Torsion [C]-N--CA-[C] |==|  0.22707
USER: genes 14 Torsion [N]-CA--C-[N] |==|  0.80815
USER: genes 15 Torsion [C]-N--CA-[CB] |==|  0.78555
USER: genes 16 Torsion [N]-CA--CB-[CG] |==|  0.02939
USER: genes 17 Torsion [CA]-CB--CG-[CD1] |==|  0.40332
USER: genes 18 Torsion [N]-CA--C-[O] |==|  0.34882
USER: genes 19 Torsion [N]-CA--CB-[CG] |==|  0.55552
USER: genes 20 Torsion [CA]-CB--CG-[OD2] |==|  0.68009
USER: genes 21 Torsion [N]-CA--CB-[CG2] |==|  0.06793
ROOT
ATOM      1  CA  VAL B  11      33.378  21.513  52.403  1.00 37.38 LIG 0.18  C 
ENDROOT
BRANCH 1 2
ATOM      2  N   VAL B  11      32.482  20.796  51.500  1.00 31.05 LIG-0.35  N 
ATOM      3  C   GLY B  10      31.308  20.334  51.923  1.00 33.93 LIG 0.24  C 
ATOM      4 O    GLY B  10      30.891  20.507  53.068  1.00 34.12 LIG-0.27  OA
ATOM      5 H    VAL B  11      32.778  20.706  50.698  1.00 31.05 LIG 0.16  HD
BRANCH 3 6
ATOM      6  CA  GLY B  10      30.476  19.560  50.921  1.00 30.55 LIG 0.23  C 
BRANCH 6 7
ATOM      7  N   GLY B  10      30.198  18.230  51.430  1.00 34.58 LIG-0.35  N 
ATOM      8  C   SER B   9      29.399  17.386  50.782  1.00 38.05 LIG 0.24  C 
ATOM      9 O    SER B   9      28.771  17.697  49.776  1.00 29.17 LIG-0.27  OA
ATOM     10 H    GLY B  10      30.591  18.044  52.172  1.00 34.58 LIG 0.16  HD
BRANCH 8 11
ATOM     11  CA  SER B   9      29.296  15.979  51.355  1.00 34.70 LIG 0.20  C 
BRANCH 11 12
ATOM     12  N   SER B   9      28.189  15.230  50.767  1.00 35.55 LIG-0.34  N 
ATOM     13  C   SER B   8      27.646  14.193  51.396  1.00 40.46 LIG 0.26  C 
ATOM     14 O    SER B   8      27.991  13.848  52.527  1.00 45.68 LIG-0.27  OA
ATOM     15 H    SER B   9      27.931  15.516  49.998  1.00 35.55 LIG 0.16  HD
BRANCH 13 16
ATOM     16  CA  SER B   8      26.530  13.450  50.657  1.00 36.95 LIG 0.42  C 
ATOM     17  N   SER B   8      25.773  12.560  51.542  1.00 41.16 LIG 0.62  N 
BRANCH 16 18
ATOM     18  CB  SER B   8      25.605  14.470  49.994  1.00 41.03 LIG 0.21  C 
BRANCH 18 19
ATOM     19 OG   SER B   8      24.663  13.866  49.125  1.00 28.13 LIG-0.40  OA
ATOM     20 HG   SER B   8      23.942  13.741  49.536  1.00 28.13 LIG 0.21  HD
ENDBRANCH 18 19
ENDBRANCH 16 18
ENDBRANCH 13 16
ENDBRANCH 11 12
BRANCH 11 21
ATOM     21  CB  SER B   9      30.613  15.238  51.130  1.00 39.19 LIG 0.20  C 
BRANCH 21 22
ATOM     22 OG   SER B   9      31.373  15.872  50.111  1.00 46.55 LIG-0.40  OA
ATOM     23 HG   SER B   9      31.188  15.528  49.367  1.00 46.55 LIG 0.21  HD
ENDBRANCH 21 22
ENDBRANCH 11 21
ENDBRANCH 8 11
ENDBRANCH 6 7
ENDBRANCH 3 6
ENDBRANCH 1 2
BRANCH 1 24
ATOM     24  C   VAL B  11      34.534  22.183  51.646  1.00 38.72 LIG 0.24  C 
ATOM     25 O    VAL B  11      34.318  23.002  50.749  1.00 29.21 LIG-0.27  OA
ATOM     26  N   ASP B  12      35.766  21.855  52.024  1.00 41.61 LIG-0.34  N 
ATOM     27 H    ASP B  12      35.955  21.399  52.728  1.00 41.61 LIG 0.16  HD
BRANCH 26 28
ATOM     28  CA  ASP B  12      36.917  22.267  51.231  1.00 41.44 LIG 0.19  C 
BRANCH 28 29
ATOM     29  C   ASP B  12      37.298  23.709  51.561  1.00 45.77 LIG 0.24  C 
ATOM     30 O    ASP B  12      38.358  23.961  52.141  1.00 50.52 LIG-0.27  OA
ATOM     31  N   LEU B  13      36.434  24.642  51.163  1.00 51.98 LIG-0.35  N 
ATOM     32 H    LEU B  13      35.740  24.465  50.686  1.00 51.98 LIG 0.16  HD
BRANCH 31 33
ATOM     33  CA  LEU B  13      36.573  26.059  51.492  1.00 53.13 LIG 0.16  C 
BRANCH 33 34
ATOM     34  CB  LEU B  13      36.135  26.300  52.947  1.00 52.95 LIG 0.04  C 
BRANCH 34 35
ATOM     35  CG  LEU B  13      35.869  25.139  53.914  1.00 63.18 LIG-0.02  C 
ATOM     36  CD1 LEU B  13      36.288  25.510  55.327  1.00 59.33 LIG 0.01  C 
ATOM     37  CD2 LEU B  13      34.398  24.743  53.907  1.00 64.76 LIG 0.01  C 
ENDBRANCH 34 35
ENDBRANCH 33 34
BRANCH 33 38
ATOM     38  C   LEU B  13      38.004  26.553  51.272  1.00 54.04 LIG 0.22  C 
ATOM     39 O    LEU B  13      38.231  27.527  50.554  1.00 55.16 LIG-0.29  OA
ENDBRANCH 33 38
ENDBRANCH 31 33
ENDBRANCH 28 29
BRANCH 28 40
ATOM     40  CB  ASP B  12      36.644  22.122  49.733  1.00 42.16 LIG 0.15  C 
BRANCH 40 41
ATOM     41  CG  ASP B  12      37.925  22.069  48.913  1.00 44.94 LIG 0.17  C 
ATOM     42 OD2  ASP B  12      38.149  23.002  48.109  1.00 53.96 LIG-0.65  OA
ATOM     43 OD1  ASP B  12      38.709  21.101  49.074  1.00 32.79 LIG-0.65  OA
ENDBRANCH 40 41
ENDBRANCH 28 40
ENDBRANCH 26 28
ENDBRANCH 1 24
BRANCH 1 44
ATOM     44  CB  VAL B  11      33.938  20.559  53.495  1.00 40.95 LIG 0.01  C 
ATOM     45  CG2 VAL B  11      33.921  19.104  53.023  1.00 48.12 LIG 0.01  C 
ATOM     46  CG1 VAL B  11      33.176  20.725  54.805  1.00 38.34 LIG 0.01  C 
ENDBRANCH 1 44
TORSDOF 20
ENDMDL
MODEL 2
USER: ADFR SOLUTION from run 43
USER: SCORE 15.270095 LL:  -2.704 LR: -14.331 RR:   0.000 FEB:  -8.365
USER: RMSD 2.424525
USER: SEED 42
USER: STATUS no improvement in best in 2 clusters for 5 generations
USER: GENES 22
USER: genes 0 Translation |==|  0.53097 0.55497 0.60236
USER: genes 1 Rotation |==|  0.59367 0.54806 0.55157 0.98606
USER: genes 2 Torsion [CB]-CA--N-[C] |==|  0.25523
USER: genes 3 Torsion [N]-C--CA-[N] |==|  0.42033
USER: genes 4 Torsion [C]-CA--N-[C] |==|  0.54361
USER: genes 5 Torsion [N]-C--CA-[N] |==|  0.48327
USER: genes 6 Torsion [C]-CA--N-[C] |==|  0.56565
USER: genes 7 Torsion [N]-C--CA-[N] |==|  0.48659
USER: genes 8 Torsion [C]-CA--CB-[OG] |==|  0.48866
USER: genes 9 Torsion [CA]-CB--OG-[HG] |==|  0.26844
USER: genes 10 Torsion [C]-CA--CB-[OG] |==|  0.90626
USER: genes 11 Torsion [CA]-CB--OG-[HG] |==|  0.82810
USER: genes 12 Torsion [N]-CA--C-[N] |==|  0.34052
USER: genes 13 Torsion [C]-N--CA-[C] |==|  0.78945
USER: genes 14 Torsion [N]-CA--C-[N] |==|  0.35155
USER: genes 15 Torsion [C]-N--CA-[CB] |==|  0.28554
USER: genes 16 Torsion [N]-CA--CB-[CG] |==|  0.88741
USER: genes 17 Torsion [CA]-CB--CG-[CD1] |==|  0.28366
USER: genes 18 Torsion [N]-CA--C-[O] |==|  0.99167
USER: genes 19 Torsion [N]-CA--CB-[CG] |==|  0.09576
USER: genes 20 Torsion [CA]-CB--CG-[OD2] |==|  0.79830
USER: genes 21 Torsion [N]-CA--CB-[CG2] |==|  0.49339
ROOT
ATOM      1  CA  VAL B  11      34.109  20.905  52.283  1.00 37.38 LIG 0.18  C 
ENDROOT
BRANCH 1 2
ATOM      2  N   VAL B  11      32.913  20.458  51.574  1.00 31.05 LIG-0.35  N 
ATOM      3  C   GLY B  10      32.015  19.676  52.168  1.00 33.93 LIG 0.24  C 
ATOM      4 O    GLY B  10      32.111  19.313  53.341  1.00 34.12 LIG-0.27  OA
ATOM      5 H    VAL B  11      32.850  20.741  50.764  1.00 31.05 LIG 0.16  HD
BRANCH 3 6
ATOM      6  CA  GLY B  10      30.836  19.227  51.329  1.00 30.55 LIG 0.23  C 
BRANCH 6 7
ATOM      7  N   GLY B  10      30.354  17.942  51.800  1.00 34.58 LIG-0.35  N 
ATOM      8  C   SER B   9      29.542  17.188  51.065  1.00 38.05 LIG 0.24  C 
ATOM      9 O    SER B   9      29.069  17.557  49.995  1.00 29.17 LIG-0.27  OA
ATOM     10 H    GLY B  10      30.637  17.721  52.582  1.00 34.58 LIG 0.16  HD
BRANCH 8 11
ATOM     11  CA  SER B   9      29.215  15.808  51.620  1.00 34.70 LIG 0.20  C 
BRANCH 11 12
ATOM     12  N   SER B   9      28.211  15.118  50.813  1.00 35.55 LIG-0.34  N 
ATOM     13  C   SER B   8      27.455  14.156  51.328  1.00 40.46 LIG 0.26  C 
ATOM     14 O    SER B   8      27.503  13.837  52.517  1.00 45.68 LIG-0.27  OA
ATOM     15 H    SER B   9      28.159  15.389  49.998  1.00 35.55 LIG 0.16  HD
BRANCH 13 16
ATOM     16  CA  SER B   8      26.477  13.467  50.372  1.00 36.95 LIG 0.42  C 
ATOM     17  N   SER B   8      25.773  12.348  51.007  1.00 41.16 LIG 0.62  N 
BRANCH 16 18
ATOM     18  CB  SER B   8      25.485  14.501  49.843  1.00 41.03 LIG 0.21  C 
BRANCH 18 19
ATOM     19 OG   SER B   8      24.600  13.960  48.877  1.00 28.13 LIG-0.40  OA
ATOM     20 HG   SER B   8      23.879  13.742  49.248  1.00 28.13 LIG 0.21  HD
ENDBRANCH 18 19
ENDBRANCH 16 18
ENDBRANCH 13 16
ENDBRANCH 11 12
BRANCH 11 21
ATOM     21  CB  SER B   9      30.493  14.973  51.697  1.00 39.19 LIG 0.20  C 
BRANCH 21 22
ATOM     22 OG   SER B   9      31.369  15.303  50.628  1.00 46.55 LIG-0.40  OA
ATOM     23 HG   SER B   9      30.997  15.126  49.896  1.00 46.55 LIG 0.21  HD
ENDBRANCH 21 22
ENDBRANCH 11 21
ENDBRANCH 8 11
ENDBRANCH 6 7
ENDBRANCH 3 6
ENDBRANCH 1 2
BRANCH 1 24
ATOM     24  C   VAL B  11      34.517  22.327  51.872  1.00 38.72 LIG 0.24  C 
ATOM     25 O    VAL B  11      34.731  22.611  50.691  1.00 29.21 LIG-0.27  OA
ATOM     26  N   ASP B  12      34.599  23.231  52.845  1.00 41.61 LIG-0.34  N 
ATOM     27 H    ASP B  12      34.325  23.106  53.650  1.00 41.61 LIG 0.16  HD
BRANCH 26 28
ATOM     28  CA  ASP B  12      35.181  24.541  52.588  1.00 41.44 LIG 0.19  C 
BRANCH 28 29
ATOM     29  C   ASP B  12      36.703  24.438  52.509  1.00 45.77 LIG 0.24  C 
ATOM     30 O    ASP B  12      37.343  23.895  53.413  1.00 50.52 LIG-0.27  OA
ATOM     31  N   LEU B  13      37.261  24.944  51.410  1.00 51.98 LIG-0.35  N 
ATOM     32 H    LEU B  13      36.802  25.245  50.747  1.00 51.98 LIG 0.16  HD
BRANCH 31 33
ATOM     33  CA  LEU B  13      38.706  25.040  51.213  1.00 53.13 LIG 0.16  C 
BRANCH 33 34
ATOM     34  CB  LEU B  13      39.177  23.922  50.267  1.00 52.95 LIG 0.04  C 
BRANCH 34 35
ATOM     35  CG  LEU B  13      38.617  22.497  50.358  1.00 63.18 LIG-0.02  C 
ATOM     36  CD1 LEU B  13      37.590  22.252  49.264  1.00 59.33 LIG 0.01  C 
ATOM     37  CD2 LEU B  13      39.729  21.461  50.253  1.00 64.76 LIG 0.01  C 
ENDBRANCH 34 35
ENDBRANCH 33 34
BRANCH 33 38
ATOM     38  C   LEU B  13      39.112  26.411  50.671  1.00 54.04 LIG 0.22  C 
ATOM     39 O    LEU B  13      38.261  27.259  50.400  1.00 55.16 LIG-0.29  OA
ENDBRANCH 33 38
ENDBRANCH 31 33
ENDBRANCH 28 29
BRANCH 28 40
ATOM     40  CB  ASP B  12      34.774  25.552  53.661  1.00 42.16 LIG 0.15  C 
BRANCH 40 41
ATOM     41  CG  ASP B  12      34.640  24.915  55.037  1.00 44.94 LIG 0.17  C 
ATOM     42 OD2  ASP B  12      33.655  24.172  55.248  1.00 53.96 LIG-0.65  OA
ATOM     43 OD1  ASP B  12      35.518  25.151  55.904  1.00 32.79 LIG-0.65  OA
ENDBRANCH 40 41
ENDBRANCH 28 40
ENDBRANCH 26 28
ENDBRANCH 1 24
BRANCH 1 44
ATOM     44  CB  VAL B  11      35.289  19.923  52.046  1.00 40.95 LIG 0.01  C 
ATOM     45  CG2 VAL B  11      36.565  20.410  52.735  1.00 48.12 LIG 0.01  C 
ATOM     46  CG1 VAL B  11      35.518  19.697  50.555  1.00 38.34 LIG 0.01  C 
ENDBRANCH 1 44
TORSDOF 20
ENDMDL
MODEL 3
USER: ADFR SOLUTION from run 92
USER: SCORE 14.639635 LL:  -2.769 LR: -13.994 RR:   0.000 FEB:  -8.028
USER: RMSD 2.354096
USER: SEED 91
USER: STATUS no improvement in best in 2 clusters for 5 generations
USER: GENES 22
USER: genes 0 Translation |==|  0.49619 0.58065 0.61445
USER: genes 1 Rotation |==|  0.44017 0.44423 0.50572 0.99323
USER: genes 2 Torsion [CB]-CA--N-[C] |==|  0.22959
USER: genes 3 Torsion [N]-C--CA-[N] |==|  0.31761
USER: genes 4 Torsion [C]-CA--N-[C] |==|  0.51709
USER: genes 5 Torsion [N]-C--CA-[N] |==|  0.45910
USER: genes 6 Torsion [C]-CA--N-[C] |==|  0.64908
USER: genes 7 Torsion [N]-C--CA-[N] |==|  0.46056
USER: genes 8 Torsion [C]-CA--CB-[OG] |==|  0.48710
USER: genes 9 Torsion [CA]-CB--OG-[HG] |==|  0.27909
USER: genes 10 Torsion [C]-CA--CB-[OG] |==|  0.90210
USER: genes 11 Torsion [CA]-CB--OG-[HG] |==|  0.82247
USER: genes 12 Torsion [N]-CA--C-[N] |==|  0.38985
USER: genes 13 Torsion [C]-N--CA-[C] |==|  0.81667
USER: genes 14 Torsion [N]-CA--C-[N] |==|  0.32262
USER: genes 15 Torsion [C]-N--CA-[CB] |==|  0.18212
USER: genes 16 Torsion [N]-CA--CB-[CG] |==|  0.21765
USER: genes 17 Torsion [CA]-CB--CG-[CD1] |==|  0.52020
USER: genes 18 Torsion [N]-CA--C-[O] |==|  0.93395
USER: genes 19 Torsion [N]-CA--CB-[CG] |==|  0.46243
USER: genes 20 Torsion [CA]-CB--CG-[OD2] |==|  0.72767
USER: genes 21 Torsion [N]-CA--CB-[CG2] |==|  0.50706
ROOT
ATOM      1  CA  VAL B  11      33.170  21.502  52.465  1.00 37.38 LIG 0.18  C 
ENDROOT
BRANCH 1 2
ATOM      2  N   VAL B  11      32.218  20.800  51.609  1.00 31.05 LIG-0.35  N 
ATOM      3  C   GLY B  10      31.039  20.399  52.078  1.00 33.93 LIG 0.24  C 
ATOM      4 O    GLY B  10      30.664  20.621  53.230  1.00 34.12 LIG-0.27  OA
ATOM      5 H    VAL B  11      32.486  20.675  50.801  1.00 31.05 LIG 0.16  HD
BRANCH 3 6
ATOM      6  CA  GLY B  10      30.145  19.635  51.123  1.00 30.55 LIG 0.23  C 
BRANCH 6 7
ATOM      7  N   GLY B  10      29.974  18.271  51.589  1.00 34.58 LIG-0.35  N 
ATOM      8  C   SER B   9      29.331  17.360  50.863  1.00 38.05 LIG 0.24  C 
ATOM      9 O    SER B   9      28.759  17.623  49.811  1.00 29.17 LIG-0.27  OA
ATOM     10 H    GLY B  10      30.321  18.113  52.360  1.00 34.58 LIG 0.16  HD
BRANCH 8 11
ATOM     11  CA  SER B   9      29.336  15.938  51.407  1.00 34.70 LIG 0.20  C 
BRANCH 11 12
ATOM     12  N   SER B   9      28.339  15.098  50.748  1.00 35.55 LIG-0.34  N 
ATOM     13  C   SER B   8      27.438  14.419  51.449  1.00 40.46 LIG 0.26  C 
ATOM     14 O    SER B   8      27.344  14.508  52.673  1.00 45.68 LIG-0.27  OA
ATOM     15 H    SER B   9      28.392  15.087  49.890  1.00 35.55 LIG 0.16  HD
BRANCH 13 16
ATOM     16  CA  SER B   8      26.480  13.528  50.652  1.00 36.95 LIG 0.42  C 
ATOM     17  N   SER B   8      25.759  12.581  51.509  1.00 41.16 LIG 0.62  N 
BRANCH 16 18
ATOM     18  CB  SER B   8      25.504  14.411  49.879  1.00 41.03 LIG 0.21  C 
BRANCH 18 19
ATOM     19 OG   SER B   8      24.648  13.664  49.032  1.00 28.13 LIG-0.40  OA
ATOM     20 HG   SER B   8      23.899  13.573  49.399  1.00 28.13 LIG 0.21  HD
ENDBRANCH 18 19
ENDBRANCH 16 18
ENDBRANCH 13 16
ENDBRANCH 11 12
BRANCH 11 21
ATOM     21  CB  SER B   9      30.729  15.333  51.241  1.00 39.19 LIG 0.20  C 
BRANCH 21 22
ATOM     22 OG   SER B   9      31.333  15.793  50.040  1.00 46.55 LIG-0.40  OA
ATOM     23 HG   SER B   9      30.887  15.524  49.381  1.00 46.55 LIG 0.21  HD
ENDBRANCH 21 22
ENDBRANCH 11 21
ENDBRANCH 8 11
ENDBRANCH 6 7
ENDBRANCH 3 6
ENDBRANCH 1 2
BRANCH 1 24
ATOM     24  C   VAL B  11      34.116  22.397  51.650  1.00 38.72 LIG 0.24  C 
ATOM     25 O    VAL B  11      34.551  22.032  50.555  1.00 29.21 LIG-0.27  OA
ATOM     26  N   ASP B  12      34.414  23.583  52.172  1.00 41.61 LIG-0.34  N 
ATOM     27 H    ASP B  12      34.026  23.925  52.859  1.00 41.61 LIG 0.16  HD
BRANCH 26 28
ATOM     28  CA  ASP B  12      35.463  24.406  51.585  1.00 41.44 LIG 0.19  C 
BRANCH 28 29
ATOM     29  C   ASP B  12      36.822  23.730  51.749  1.00 45.77 LIG 0.24  C 
ATOM     30 O    ASP B  12      37.286  23.518  52.873  1.00 50.52 LIG-0.27  OA
ATOM     31  N   LEU B  13      37.434  23.377  50.620  1.00 51.98 LIG-0.35  N 
ATOM     32 H    LEU B  13      37.068  23.452  49.845  1.00 51.98 LIG 0.16  HD
BRANCH 31 33
ATOM     33  CA  LEU B  13      38.788  22.827  50.576  1.00 53.13 LIG 0.16  C 
BRANCH 33 34
ATOM     34  CB  LEU B  13      38.813  21.455  51.272  1.00 52.95 LIG 0.04  C 
BRANCH 34 35
ATOM     35  CG  LEU B  13      38.302  20.187  50.577  1.00 63.18 LIG-0.02  C 
ATOM     36  CD1 LEU B  13      38.277  19.016  51.546  1.00 59.33 LIG 0.01  C 
ATOM     37  CD2 LEU B  13      36.908  20.398  49.999  1.00 64.76 LIG 0.01  C 
ENDBRANCH 34 35
ENDBRANCH 33 34
BRANCH 33 38
ATOM     38  C   LEU B  13      39.305  22.713  49.141  1.00 54.04 LIG 0.22  C 
ATOM     39 O    LEU B  13      38.523  22.635  48.194  1.00 55.16 LIG-0.29  OA
ENDBRANCH 33 38
ENDBRANCH 31 33
ENDBRANCH 28 29
BRANCH 28 40
ATOM     40  CB  ASP B  12      35.488  25.804  52.204  1.00 42.16 LIG 0.15  C 
BRANCH 40 41
ATOM     41  CG  ASP B  12      36.759  26.568  51.858  1.00 44.94 LIG 0.17  C 
ATOM     42 OD2  ASP B  12      37.687  26.580  52.698  1.00 53.96 LIG-0.65  OA
ATOM     43 OD1  ASP B  12      36.833  27.151  50.748  1.00 32.79 LIG-0.65  OA
ENDBRANCH 40 41
ENDBRANCH 28 40
ENDBRANCH 26 28
ENDBRANCH 1 24
BRANCH 1 44
ATOM     44  CB  VAL B  11      33.991  20.495  53.316  1.00 40.95 LIG 0.01  C 
ATOM     45  CG2 VAL B  11      34.950  21.220  54.264  1.00 48.12 LIG 0.01  C 
ATOM     46  CG1 VAL B  11      34.737  19.508  52.424  1.00 38.34 LIG 0.01  C 
ENDBRANCH 1 44
TORSDOF 20
ENDMDL
MODEL 4
USER: ADFR SOLUTION from run 69
USER: SCORE 13.186164 LL:  -1.777 LR: -13.964 RR:   0.000 FEB:  -7.998
USER: RMSD 3.073840
USER: SEED 68
USER: STATUS no improvement in best in 4 clusters for 5 generations
USER: GENES 22
USER: genes 0 Translation |==|  0.51480 0.55578 0.61485
USER: genes 1 Rotation |==|  0.48930 0.48921 0.48967 0.99966
USER: genes 2 Torsion [CB]-CA--N-[C] |==|  0.19577
USER: genes 3 Torsion [N]-C--CA-[N] |==|  0.40972
USER: genes 4 Torsion [C]-CA--N-[C] |==|  0.56922
USER: genes 5 Torsion [N]-C--CA-[N] |==|  0.45770
USER: genes 6 Torsion [C]-CA--N-[C] |==|  0.54763
USER: genes 7 Torsion [N]-C--CA-[N] |==|  0.50098
USER: genes 8 Torsion [C]-CA--CB-[OG] |==|  0.51165
USER: genes 9 Torsion [CA]-CB--OG-[HG] |==|  0.24199
USER: genes 10 Torsion [C]-CA--CB-[OG] |==|  0.83231
USER: genes 11 Torsion [CA]-CB--OG-[HG] |==|  0.00547
USER: genes 12 Torsion [N]-CA--C-[N] |==|  0.55509
USER: genes 13 Torsion [C]-N--CA-[C] |==|  0.22861
USER: genes 14 Torsion [N]-CA--C-[N] |==|  0.30706
USER: genes 15 Torsion [C]-N--CA-[CB] |==|  0.50413
USER: genes 16 Torsion [N]-CA--CB-[CG] |==|  0.31425
USER: genes 17 Torsion [CA]-CB--CG-[CD1] |==|  0.43792
USER: genes 18 Torsion [N]-CA--C-[O] |==|  0.25346
USER: genes 19 Torsion [N]-CA--CB-[CG] |==|  0.69657
USER: genes 20 Torsion [CA]-CB--CG-[OD2] |==|  0.68759
USER: genes 21 Torsion [N]-CA--CB-[CG2] |==|  0.56538
ROOT
ATOM      1  CA  VAL B  11      33.673  20.924  52.471  1.00 37.38 LIG 0.18  C 
ENDROOT
BRANCH 1 2
ATOM      2  N   VAL B  11      32.537  20.456  51.680  1.00 31.05 LIG-0.35  N 
ATOM      3  C   GLY B  10      31.527  19.803  52.249  1.00 33.93 LIG 0.24  C 
ATOM      4 O    GLY B  10      31.464  19.586  53.459  1.00 34.12 LIG-0.27  OA
ATOM      5 H    VAL B  11      32.586  20.638  50.840  1.00 31.05 LIG 0.16  HD
BRANCH 3 6
ATOM      6  CA  GLY B  10      30.423  19.316  51.332  1.00 30.55 LIG 0.23  C 
BRANCH 6 7
ATOM      7  N   GLY B  10      29.865  18.078  51.843  1.00 34.58 LIG-0.35  N 
ATOM      8  C   SER B   9      29.263  17.201  51.045  1.00 38.05 LIG 0.24  C 
ATOM      9 O    SER B   9      29.051  17.412  49.856  1.00 29.17 LIG-0.27  OA
ATOM     10 H    GLY B  10      29.959  17.969  52.692  1.00 34.58 LIG 0.16  HD
BRANCH 8 11
ATOM     11  CA  SER B   9      28.838  15.886  51.686  1.00 34.70 LIG 0.20  C 
BRANCH 11 12
ATOM     12  N   SER B   9      27.890  15.153  50.850  1.00 35.55 LIG-0.34  N 
ATOM     13  C   SER B   8      27.145  14.173  51.350  1.00 40.46 LIG 0.26  C 
ATOM     14 O    SER B   8      27.157  13.873  52.544  1.00 45.68 LIG-0.27  OA
ATOM     15 H    SER B   9      27.862  15.410  50.030  1.00 35.55 LIG 0.16  HD
BRANCH 13 16
ATOM     16  CA  SER B   8      26.229  13.439  50.366  1.00 36.95 LIG 0.42  C 
ATOM     17  N   SER B   8      25.447  12.384  51.017  1.00 41.16 LIG 0.62  N 
BRANCH 16 18
ATOM     18  CB  SER B   8      25.312  14.454  49.686  1.00 41.03 LIG 0.21  C 
BRANCH 18 19
ATOM     19 OG   SER B   8      24.366  13.841  48.827  1.00 28.13 LIG-0.40  OA
ATOM     20 HG   SER B   8      23.684  13.627  49.268  1.00 28.13 LIG 0.21  HD
ENDBRANCH 18 19
ENDBRANCH 16 18
ENDBRANCH 13 16
ENDBRANCH 11 12
BRANCH 11 21
ATOM     21  CB  SER B   9      30.073  15.029  51.959  1.00 39.19 LIG 0.20  C 
BRANCH 21 22
ATOM     22 OG   SER B   9      30.758  14.742  50.748  1.00 46.55 LIG-0.40  OA
ATOM     23 HG   SER B   9      30.368  15.122  50.109  1.00 46.55 LIG 0.21  HD
ENDBRANCH 21 22
ENDBRANCH 11 21
ENDBRANCH 8 11
ENDBRANCH 6 7
ENDBRANCH 3 6
ENDBRANCH 1 2
BRANCH 1 24
ATOM     24  C   VAL B  11      34.538  21.923  51.689  1.00 38.72 LIG 0.24  C 
ATOM     25 O    VAL B  11      34.082  22.541  50.724  1.00 29.21 LIG-0.27  OA
ATOM     26  N   ASP B  12      35.782  22.103  52.123  1.00 41.61 LIG-0.34  N 
ATOM     27 H    ASP B  12      36.089  21.799  52.866  1.00 41.61 LIG 0.16  HD
BRANCH 26 28
ATOM     28  CA  ASP B  12      36.739  22.861  51.327  1.00 41.44 LIG 0.19  C 
BRANCH 28 29
ATOM     29  C   ASP B  12      36.552  24.359  51.558  1.00 45.77 LIG 0.24  C 
ATOM     30 O    ASP B  12      35.536  24.933  51.159  1.00 50.52 LIG-0.27  OA
ATOM     31  N   LEU B  13      37.531  24.968  52.225  1.00 51.98 LIG-0.35  N 
ATOM     32 H    LEU B  13      38.196  24.546  52.573  1.00 51.98 LIG 0.16  HD
BRANCH 31 33
ATOM     33  CA  LEU B  13      37.582  26.414  52.437  1.00 53.13 LIG 0.16  C 
BRANCH 33 34
ATOM     34  CB  LEU B  13      38.860  26.781  53.210  1.00 52.95 LIG 0.04  C 
BRANCH 34 35
ATOM     35  CG  LEU B  13      39.987  27.599  52.567  1.00 63.18 LIG-0.02  C 
ATOM     36  CD1 LEU B  13      40.835  28.276  53.632  1.00 59.33 LIG 0.01  C 
ATOM     37  CD2 LEU B  13      40.875  26.722  51.693  1.00 64.76 LIG 0.01  C 
ENDBRANCH 34 35
ENDBRANCH 33 34
BRANCH 33 38
ATOM     38  C   LEU B  13      37.512  27.181  51.116  1.00 54.04 LIG 0.22  C 
ATOM     39 O    LEU B  13      36.430  27.543  50.654  1.00 55.16 LIG-0.29  OA
ENDBRANCH 33 38
ENDBRANCH 31 33
ENDBRANCH 28 29
BRANCH 28 40
ATOM     40  CB  ASP B  12      36.610  22.534  49.839  1.00 42.16 LIG 0.15  C 
BRANCH 40 41
ATOM     41  CG  ASP B  12      37.792  21.730  49.317  1.00 44.94 LIG 0.17  C 
ATOM     42 OD2  ASP B  12      38.563  22.280  48.498  1.00 53.96 LIG-0.65  OA
ATOM     43 OD1  ASP B  12      37.955  20.554  49.727  1.00 32.79 LIG-0.65  OA
ENDBRANCH 40 41
ENDBRANCH 28 40
ENDBRANCH 26 28
ENDBRANCH 1 24
BRANCH 1 44
ATOM     44  CB  VAL B  11      34.541  19.727  52.949  1.00 40.95 LIG 0.01  C 
ATOM     45  CG2 VAL B  11      35.347  20.089  54.198  1.00 48.12 LIG 0.01  C 
ATOM     46  CG1 VAL B  11      35.449  19.232  51.828  1.00 38.34 LIG 0.01  C 
ENDBRANCH 1 44
TORSDOF 20
ENDMDL
MODEL 5
USER: ADFR SOLUTION from run 118
USER: SCORE 14.342780 LL:  -2.421 LR: -13.695 RR:   0.000 FEB:  -7.729
USER: RMSD 2.374145
USER: SEED 117
USER: STATUS no improvement in best in 2 clusters for 5 generations
USER: GENES 22
USER: genes 0 Translation |==|  0.52191 0.55756 0.60544
USER: genes 1 Rotation |==|  0.56653 0.53304 0.54262 0.99261
USER: genes 2 Torsion [CB]-CA--N-[C] |==|  0.26339
USER: genes 3 Torsion [N]-C--CA-[N] |==|  0.38980
USER: genes 4 Torsion [C]-CA--N-[C] |==|  0.55526
USER: genes 5 Torsion [N]-C--CA-[N] |==|  0.46520
USER: genes 6 Torsion [C]-CA--N-[C] |==|  0.56485
USER: genes 7 Torsion [N]-C--CA-[N] |==|  0.49003
USER: genes 8 Torsion [C]-CA--CB-[OG] |==|  0.48352
USER: genes 9 Torsion [CA]-CB--OG-[HG] |==|  0.26828
USER: genes 10 Torsion [C]-CA--CB-[OG] |==|  0.89483
USER: genes 11 Torsion [CA]-CB--OG-[HG] |==|  0.84307
USER: genes 12 Torsion [N]-CA--C-[N] |==|  0.34174
USER: genes 13 Torsion [C]-N--CA-[C] |==|  0.80595
USER: genes 14 Torsion [N]-CA--C-[N] |==|  0.40913
USER: genes 15 Torsion [C]-N--CA-[CB] |==|  0.79987
USER: genes 16 Torsion [N]-CA--CB-[CG] |==|  0.82620
USER: genes 17 Torsion [CA]-CB--CG-[CD1] |==|  0.64590
USER: genes 18 Torsion [N]-CA--C-[O] |==|  0.27778
USER: genes 19 Torsion [N]-CA--CB-[CG] |==|  0.20061
USER: genes 20 Torsion [CA]-CB--CG-[OD2] |==|  0.80420
USER: genes 21 Torsion [N]-CA--CB-[CG2] |==|  0.46192
ROOT
ATOM      1  CA  VAL B  11      33.865  20.965  52.330  1.00 37.38 LIG 0.18  C 
ENDROOT
BRANCH 1 2
ATOM      2  N   VAL B  11      32.698  20.485  51.593  1.00 31.05 LIG-0.35  N 
ATOM      3  C   GLY B  10      31.706  19.855  52.215  1.00 33.93 LIG 0.24  C 
ATOM      4 O    GLY B  10      31.686  19.669  53.432  1.00 34.12 LIG-0.27  OA
ATOM      5 H    VAL B  11      32.717  20.646  50.748  1.00 31.05 LIG 0.16  HD
BRANCH 3 6
ATOM      6  CA  GLY B  10      30.566  19.353  51.353  1.00 30.55 LIG 0.23  C 
BRANCH 6 7
ATOM      7  N   GLY B  10      30.130  18.049  51.817  1.00 34.58 LIG-0.35  N 
ATOM      8  C   SER B   9      29.438  17.224  51.036  1.00 38.05 LIG 0.24  C 
ATOM      9 O    SER B   9      29.037  17.536  49.920  1.00 29.17 LIG-0.27  OA
ATOM     10 H    GLY B  10      30.358  17.865  52.626  1.00 34.58 LIG 0.16  HD
BRANCH 8 11
ATOM     11  CA  SER B   9      29.156  15.838  51.600  1.00 34.70 LIG 0.20  C 
BRANCH 11 12
ATOM     12  N   SER B   9      28.157  15.120  50.812  1.00 35.55 LIG-0.34  N 
ATOM     13  C   SER B   8      27.439  14.136  51.340  1.00 40.46 LIG 0.26  C 
ATOM     14 O    SER B   8      27.519  13.819  52.528  1.00 45.68 LIG-0.27  OA
ATOM     15 H    SER B   9      28.083  15.389  49.998  1.00 35.55 LIG 0.16  HD
BRANCH 13 16
ATOM     16  CA  SER B   8      26.463  13.419  50.402  1.00 36.95 LIG 0.42  C 
ATOM     17  N   SER B   8      25.782  12.299  51.058  1.00 41.16 LIG 0.62  N 
BRANCH 16 18
ATOM     18  CB  SER B   8      25.451  14.431  49.868  1.00 41.03 LIG 0.21  C 
BRANCH 18 19
ATOM     19 OG   SER B   8      24.593  13.875  48.887  1.00 28.13 LIG-0.40  OA
ATOM     20 HG   SER B   8      23.874  13.634  49.247  1.00 28.13 LIG 0.21  HD
ENDBRANCH 18 19
ENDBRANCH 16 18
ENDBRANCH 13 16
ENDBRANCH 11 12
BRANCH 11 21
ATOM     21  CB  SER B   9      30.456  15.037  51.659  1.00 39.19 LIG 0.20  C 
BRANCH 21 22
ATOM     22 OG   SER B   9      31.265  15.316  50.524  1.00 46.55 LIG-0.40  OA
ATOM     23 HG   SER B   9      30.831  15.153  49.824  1.00 46.55 LIG 0.21  HD
ENDBRANCH 21 22
ENDBRANCH 11 21
ENDBRANCH 8 11
ENDBRANCH 6 7
ENDBRANCH 3 6
ENDBRANCH 1 2
BRANCH 1 24
ATOM     24  C   VAL B  11      34.357  22.319  51.798  1.00 38.72 LIG 0.24  C 
ATOM     25 O    VAL B  11      34.649  22.468  50.609  1.00 29.21 LIG-0.27  OA
ATOM     26  N   ASP B  12      34.423  23.317  52.674  1.00 41.61 LIG-0.34  N 
ATOM     27 H    ASP B  12      34.100  23.289  53.471  1.00 41.61 LIG 0.16  HD
BRANCH 26 28
ATOM     28  CA  ASP B  12      35.076  24.570  52.319  1.00 41.44 LIG 0.19  C 
BRANCH 28 29
ATOM     29  C   ASP B  12      36.585  24.366  52.199  1.00 45.77 LIG 0.24  C 
ATOM     30 O    ASP B  12      37.162  23.530  52.899  1.00 50.52 LIG-0.27  OA
ATOM     31  N   LEU B  13      37.201  25.122  51.292  1.00 51.98 LIG-0.35  N 
ATOM     32 H    LEU B  13      36.780  25.643  50.751  1.00 51.98 LIG 0.16  HD
BRANCH 31 33
ATOM     33  CA  LEU B  13      38.652  25.149  51.119  1.00 53.13 LIG 0.16  C 
BRANCH 33 34
ATOM     34  CB  LEU B  13      39.302  25.886  52.302  1.00 52.95 LIG 0.04  C 
BRANCH 34 35
ATOM     35  CG  LEU B  13      39.014  27.365  52.590  1.00 63.18 LIG-0.02  C 
ATOM     36  CD1 LEU B  13      40.310  28.151  52.713  1.00 59.33 LIG 0.01  C 
ATOM     37  CD2 LEU B  13      38.149  27.981  51.498  1.00 64.76 LIG 0.01  C 
ENDBRANCH 34 35
ENDBRANCH 33 34
BRANCH 33 38
ATOM     38  C   LEU B  13      39.230  23.740  50.978  1.00 54.04 LIG 0.22  C 
ATOM     39 O    LEU B  13      39.513  23.283  49.871  1.00 55.16 LIG-0.29  OA
ENDBRANCH 33 38
ENDBRANCH 31 33
ENDBRANCH 28 29
BRANCH 28 40
ATOM     40  CB  ASP B  12      34.769  25.668  53.339  1.00 42.16 LIG 0.15  C 
BRANCH 40 41
ATOM     41  CG  ASP B  12      35.490  25.449  54.661  1.00 44.94 LIG 0.17  C 
ATOM     42 OD2  ASP B  12      35.110  24.503  55.389  1.00 53.96 LIG-0.65  OA
ATOM     43 OD1  ASP B  12      36.437  26.213  54.971  1.00 32.79 LIG-0.65  OA
ENDBRANCH 40 41
ENDBRANCH 28 40
ENDBRANCH 26 28
ENDBRANCH 1 24
BRANCH 1 44
ATOM     44  CB  VAL B  11      35.015  19.922  52.278  1.00 40.95 LIG 0.01  C 
ATOM     45  CG2 VAL B  11      36.340  20.533  52.742  1.00 48.12 LIG 0.01  C 
ATOM     46  CG1 VAL B  11      35.143  19.321  50.882  1.00 38.34 LIG 0.01  C 
ENDBRANCH 1 44
TORSDOF 20
ENDMDL
MODEL 6
USER: ADFR SOLUTION from run 157
USER: SCORE 13.989305 LL:  -2.419 LR: -13.493 RR:   0.000 FEB:  -7.527
USER: RMSD 1.097249
USER: SEED 156
USER: STATUS no improvement in best in 3 clusters for 5 generations
USER: GENES 22
USER: genes 0 Translation |==|  0.49618 0.57981 0.61317
USER: genes 1 Rotation |==|  0.43432 0.44341 0.50013 0.99243
USER: genes 2 Torsion [CB]-CA--N-[C] |==|  0.22936
USER: genes 3 Torsion [N]-C--CA-[N] |==|  0.31254
USER: genes 4 Torsion [C]-CA--N-[C] |==|  0.51698
USER: genes 5 Torsion [N]-C--CA-[N] |==|  0.44521
USER: genes 6 Torsion [C]-CA--N-[C] |==|  0.64773
USER: genes 7 Torsion [N]-C--CA-[N] |==|  0.50290
USER: genes 8 Torsion [C]-CA--CB-[OG] |==|  0.47070
USER: genes 9 Torsion [CA]-CB--OG-[HG] |==|  0.23844
USER: genes 10 Torsion [C]-CA--CB-[OG] |==|  0.93009
USER: genes 11 Torsion [CA]-CB--OG-[HG] |==|  0.74560
USER: genes 12 Torsion [N]-CA--C-[N] |==|  0.38974
USER: genes 13 Torsion [C]-N--CA-[C] |==|  0.81286
USER: genes 14 Torsion [N]-CA--C-[N] |==|  0.40279
USER: genes 15 Torsion [C]-N--CA-[CB] |==|  0.52182
USER: genes 16 Torsion [N]-CA--CB-[CG] |==|  0.25967
USER: genes 17 Torsion [CA]-CB--CG-[CD1] |==|  0.49125
USER: genes 18 Torsion [N]-CA--C-[O] |==|  0.38340
USER: genes 19 Torsion [N]-CA--CB-[CG] |==|  0.45467
USER: genes 20 Torsion [CA]-CB--CG-[OD2] |==|  0.75421
USER: genes 21 Torsion [N]-CA--CB-[CG2] |==|  0.54177
ROOT
ATOM      1  CA  VAL B  11      33.170  21.483  52.445  1.00 37.38 LIG 0.18  C 
ENDROOT
BRANCH 1 2
ATOM      2  N   VAL B  11      32.206  20.785  51.598  1.00 31.05 LIG-0.35  N 
ATOM      3  C   GLY B  10      31.015  20.422  52.068  1.00 33.93 LIG 0.24  C 
ATOM      4 O    GLY B  10      30.639  20.676  53.212  1.00 34.12 LIG-0.27  OA
ATOM      5 H    VAL B  11      32.475  20.639  50.794  1.00 31.05 LIG 0.16  HD
BRANCH 3 6
ATOM      6  CA  GLY B  10      30.109  19.660  51.123  1.00 30.55 LIG 0.23  C 
BRANCH 6 7
ATOM      7  N   GLY B  10      29.939  18.297  51.592  1.00 34.58 LIG-0.35  N 
ATOM      8  C   SER B   9      29.284  17.388  50.874  1.00 38.05 LIG 0.24  C 
ATOM      9 O    SER B   9      28.702  17.652  49.828  1.00 29.17 LIG-0.27  OA
ATOM     10 H    GLY B  10      30.293  18.139  52.359  1.00 34.58 LIG 0.16  HD
BRANCH 8 11
ATOM     11  CA  SER B   9      29.290  15.966  51.420  1.00 34.70 LIG 0.20  C 
BRANCH 11 12
ATOM     12  N   SER B   9      28.208  15.162  50.857  1.00 35.55 LIG-0.34  N 
ATOM     13  C   SER B   8      27.358  14.507  51.640  1.00 40.46 LIG 0.26  C 
ATOM     14 O    SER B   8      27.385  14.591  52.868  1.00 45.68 LIG-0.27  OA
ATOM     15 H    SER B   9      28.177  15.154  49.998  1.00 35.55 LIG 0.16  HD
BRANCH 13 16
ATOM     16  CA  SER B   8      26.300  13.651  50.938  1.00 36.95 LIG 0.42  C 
ATOM     17  N   SER B   8      25.399  12.991  51.887  1.00 41.16 LIG 0.62  N 
BRANCH 16 18
ATOM     18  CB  SER B   8      25.514  14.528  49.964  1.00 41.03 LIG 0.21  C 
BRANCH 18 19
ATOM     19 OG   SER B   8      24.680  13.772  49.103  1.00 28.13 LIG-0.40  OA
ATOM     20 HG   SER B   8      23.945  13.628  49.481  1.00 28.13 LIG 0.21  HD
ENDBRANCH 18 19
ENDBRANCH 16 18
ENDBRANCH 13 16
ENDBRANCH 11 12
BRANCH 11 21
ATOM     21  CB  SER B   9      30.640  15.313  51.127  1.00 39.19 LIG 0.20  C 
BRANCH 21 22
ATOM     22 OG   SER B   9      31.253  15.919  49.998  1.00 46.55 LIG-0.40  OA
ATOM     23 HG   SER B   9      31.035  15.502  49.303  1.00 46.55 LIG 0.21  HD
ENDBRANCH 21 22
ENDBRANCH 11 21
ENDBRANCH 8 11
ENDBRANCH 6 7
ENDBRANCH 3 6
ENDBRANCH 1 2
BRANCH 1 24
ATOM     24  C   VAL B  11      34.142  22.337  51.619  1.00 38.72 LIG 0.24  C 
ATOM     25 O    VAL B  11      34.576  21.938  50.535  1.00 29.21 LIG-0.27  OA
ATOM     26  N   ASP B  12      34.465  23.526  52.118  1.00 41.61 LIG-0.34  N 
ATOM     27 H    ASP B  12      34.080  23.893  52.794  1.00 41.61 LIG 0.16  HD
BRANCH 26 28
ATOM     28  CA  ASP B  12      35.537  24.311  51.520  1.00 41.44 LIG 0.19  C 
BRANCH 28 29
ATOM     29  C   ASP B  12      36.883  23.624  51.739  1.00 45.77 LIG 0.24  C 
ATOM     30 O    ASP B  12      37.099  22.981  52.770  1.00 50.52 LIG-0.27  OA
ATOM     31  N   LEU B  13      37.765  23.749  50.748  1.00 51.98 LIG-0.35  N 
ATOM     32 H    LEU B  13      37.577  24.127  49.998  1.00 51.98 LIG 0.16  HD
BRANCH 31 33
ATOM     33  CA  LEU B  13      39.140  23.260  50.829  1.00 53.13 LIG 0.16  C 
BRANCH 33 34
ATOM     34  CB  LEU B  13      39.934  23.738  49.601  1.00 52.95 LIG 0.04  C 
BRANCH 34 35
ATOM     35  CG  LEU B  13      40.761  25.030  49.626  1.00 63.18 LIG-0.02  C 
ATOM     36  CD1 LEU B  13      41.501  25.221  48.311  1.00 59.33 LIG 0.01  C 
ATOM     37  CD2 LEU B  13      39.880  26.243  49.894  1.00 64.76 LIG 0.01  C 
ENDBRANCH 34 35
ENDBRANCH 33 34
BRANCH 33 38
ATOM     38  C   LEU B  13      39.824  23.708  52.121  1.00 54.04 LIG 0.22  C 
ATOM     39 O    LEU B  13      40.535  22.932  52.760  1.00 55.16 LIG-0.29  OA
ENDBRANCH 33 38
ENDBRANCH 31 33
ENDBRANCH 28 29
BRANCH 28 40
ATOM     40  CB  ASP B  12      35.571  25.732  52.086  1.00 42.16 LIG 0.15  C 
BRANCH 40 41
ATOM     41  CG  ASP B  12      36.886  26.441  51.794  1.00 44.94 LIG 0.17  C 
ATOM     42 OD2  ASP B  12      37.823  26.304  52.614  1.00 53.96 LIG-0.65  OA
ATOM     43 OD1  ASP B  12      36.987  27.127  50.748  1.00 32.79 LIG-0.65  OA
ENDBRANCH 40 41
ENDBRANCH 28 40
ENDBRANCH 26 28
ENDBRANCH 1 24
BRANCH 1 44
ATOM     44  CB  VAL B  11      33.961  20.474  53.324  1.00 40.95 LIG 0.01  C 
ATOM     45  CG2 VAL B  11      34.694  21.185  54.463  1.00 48.12 LIG 0.01  C 
ATOM     46  CG1 VAL B  11      34.924  19.651  52.474  1.00 38.34 LIG 0.01  C 
ENDBRANCH 1 44
TORSDOF 20
ENDMDL
