MODEL 1
USER: ADFR SOLUTION from run 66
USER: SCORE 17.520898 LL:  -4.063 LR: -15.350 RR:   0.000 FEB:  -8.191
USER: RMSD 2.441420
USER: SEED 65
USER: STATUS no improvement in best in 3 clusters for 5 generations
USER: GENES 26
USER: genes 0 Translation |==|  0.46952 0.48031 0.45063
USER: genes 1 Rotation |==|  0.49101 0.50302 0.48622 0.99972
USER: genes 2 Torsion [CB]-CA--N-[C] |==|  0.38703
USER: genes 3 Torsion [N]-C--CA-[N] |==|  0.34084
USER: genes 4 Torsion [C]-CA--N-[C] |==|  0.81658
USER: genes 5 Torsion [N]-C--CA-[N] |==|  0.80094
USER: genes 6 Torsion [C]-CA--CB-[CG] |==|  0.52799
USER: genes 7 Torsion [CA]-CB--CG-[CD] |==|  0.40183
USER: genes 8 Torsion [CB]-CG--CD-[OE1] |==|  0.03447
USER: genes 9 Torsion [C]-CA--CB-[CG2] |==|  0.15152
USER: genes 10 Torsion [CA]-CB--CG1-[CD1] |==|  0.43691
USER: genes 11 Torsion [N]-CA--CB-[CG] |==|  0.62463
USER: genes 12 Torsion [CA]-CB--CG-[CD] |==|  0.88947
USER: genes 13 Torsion [CB]-CG--CD-[CE] |==|  0.53552
USER: genes 14 Torsion [CG]-CD--CE-[NZ] |==|  0.51839
USER: genes 15 Torsion [CD]-CE--NZ-[HZ1] |==|  0.59517
USER: genes 16 Torsion [N]-CA--C-[N] |==|  0.18846
USER: genes 17 Torsion [C]-N--CA-[C] |==|  0.86666
USER: genes 18 Torsion [N]-CA--CB-[CG] |==|  0.81293
USER: genes 19 Torsion [CA]-CB--CG-[OD1] |==|  0.88163
USER: genes 20 Torsion [N]-CA--C-[N] |==|  0.35718
USER: genes 21 Torsion [N]-CA--C-[O] |==|  0.43048
USER: genes 22 Torsion [C]-N--CA-[C] |==|  0.20838
USER: genes 23 Torsion [N]-CA--CB-[CG2] |==|  0.41295
USER: genes 24 Torsion [CA]-CB--CG1-[CD1] |==|  0.01764
USER: genes 25 Torsion [N]-CA--C-[O] |==|  0.13103
ROOT
ATOM      1  CA  LYS C   4     -38.281  26.205 -23.122  1.00 55.66 LIG 0.18  C 
ENDROOT
BRANCH 1 2
ATOM      2  N   LYS C   4     -38.962  25.664 -21.951  1.00 52.22 LIG-0.35  N 
ATOM      3  C   ILE C   3     -39.100  24.358 -21.744  1.00 49.48 LIG 0.24  C 
ATOM      4 O    ILE C   3     -38.697  23.503 -22.533  1.00 46.52 LIG-0.27  OA
ATOM      5 H    LYS C   4     -39.262  26.264 -21.413  1.00 52.22 LIG 0.16  HD
BRANCH 3 6
ATOM      6  CA  ILE C   3     -39.815  23.959 -20.455  1.00 52.28 LIG 0.18  C 
BRANCH 6 7
ATOM      7  N   ILE C   3     -40.978  23.133 -20.754  1.00 58.50 LIG-0.34  N 
ATOM      8 H    ILE C   3     -40.922  22.322 -20.473  1.00 58.50 LIG 0.16  HD
ATOM      9  C   GLN C   2     -42.027  23.623 -21.409  1.00 66.26 LIG 0.26  C 
ATOM     10 O    GLN C   2     -42.083  24.787 -21.803  1.00 73.27 LIG-0.27  OA
BRANCH 9 11
ATOM     11  CA  GLN C   2     -43.181  22.658 -21.662  1.00 65.71 LIG 0.40  C 
ATOM     12  N   GLN C   2     -42.817  21.672 -22.671  1.00 61.11 LIG 0.61  N 
BRANCH 11 13
ATOM     13  CB  GLN C   2     -43.585  21.969 -20.356  1.00 69.09 LIG 0.06  C 
BRANCH 13 14
ATOM     14  CG  GLN C   2     -44.564  20.810 -20.536  1.00 69.91 LIG 0.10  C 
BRANCH 14 15
ATOM     15  CD  GLN C   2     -44.322  19.677 -19.558  1.00 70.47 LIG 0.21  C 
ATOM     16 OE1  GLN C   2     -43.578  19.825 -18.589  1.00 73.69 LIG-0.27  OA
ATOM     17  NE2 GLN C   2     -44.955  18.535 -19.806  1.00 67.69 LIG-0.37  N 
ATOM     18 21HE GLN C   2     -45.468  18.468 -20.493  1.00 67.69 LIG 0.16  HD
ATOM     19 22HE GLN C   2     -44.851  17.862 -19.280  1.00 67.69 LIG 0.16  HD
ENDBRANCH 14 15
ENDBRANCH 13 14
ENDBRANCH 11 13
ENDBRANCH 9 11
ENDBRANCH 6 7
BRANCH 6 20
ATOM     20  CB  ILE C   3     -38.827  23.231 -19.522  1.00 50.18 LIG 0.01  C 
ATOM     21  CG2 ILE C   3     -37.582  24.093 -19.283  1.00 50.82 LIG 0.01  C 
BRANCH 20 22
ATOM     22  CG1 ILE C   3     -39.518  22.879 -18.200  1.00 50.01 LIG 0.00  C 
ATOM     23  CD1 ILE C   3     -38.879  21.735 -17.441  1.00 50.06 LIG 0.01  C 
ENDBRANCH 20 22
ENDBRANCH 6 20
ENDBRANCH 3 6
ENDBRANCH 1 2
BRANCH 1 24
ATOM     24  CB  LYS C   4     -39.031  27.425 -23.659  1.00 61.43 LIG 0.04  C 
BRANCH 24 25
ATOM     25  CG  LYS C   4     -39.206  27.446 -25.169  1.00 66.58 LIG 0.00  C 
BRANCH 25 26
ATOM     26  CD  LYS C   4     -37.948  26.949 -25.868  1.00 73.00 LIG 0.03  C 
BRANCH 26 27
ATOM     27  CE  LYS C   4     -37.975  27.248 -27.358  1.00 75.18 LIG 0.23  C 
BRANCH 27 28
ATOM     28  NZ  LYS C   4     -36.822  26.625 -28.068  1.00 76.64 LIG-0.08  N 
ATOM     29 HZ3  LYS C   4     -37.067  25.834 -28.394  1.00 76.64 LIG 0.27  HD
ATOM     30 HZ2  LYS C   4     -36.147  26.515 -27.498  1.00 76.64 LIG 0.27  HD
ATOM     31 HZ1  LYS C   4     -36.563  27.154 -28.735  1.00 76.64 LIG 0.27  HD
ENDBRANCH 27 28
ENDBRANCH 26 27
ENDBRANCH 25 26
ENDBRANCH 24 25
ENDBRANCH 1 24
BRANCH 1 32
ATOM     32  C   LYS C   4     -36.843  26.573 -22.766  1.00 57.21 LIG 0.24  C 
ATOM     33  N   ASN C   5     -36.029  25.560 -22.485  1.00 57.25 LIG-0.35  N 
ATOM     34 H    ASN C   5     -36.269  24.734 -22.496  1.00 57.25 LIG 0.16  HD
ATOM     35 O    LYS C   4     -36.481  27.751 -22.747  1.00 57.68 LIG-0.27  OA
BRANCH 33 36
ATOM     36  CA  ASN C   5     -34.633  25.776 -22.127  1.00 58.26 LIG 0.18  C 
BRANCH 36 37
ATOM     37  CB  ASN C   5     -33.883  24.444 -22.093  1.00 53.49 LIG 0.14  C 
BRANCH 37 38
ATOM     38  CG  ASN C   5     -34.350  23.541 -20.967  1.00 47.90 LIG 0.22  C 
ATOM     39 OD1  ASN C   5     -34.567  23.994 -19.843  1.00 45.37 LIG-0.27  OA
ATOM     40  ND2 ASN C   5     -34.506  22.257 -21.264  1.00 45.09 LIG-0.37  N 
ATOM     41 22HD ASN C   5     -34.345  21.977 -22.061  1.00 45.09 LIG 0.16  HD
ATOM     42 21HD ASN C   5     -34.769  21.705 -20.659  1.00 45.09 LIG 0.16  HD
ENDBRANCH 37 38
ENDBRANCH 36 37
BRANCH 36 43
ATOM     43  C   ASN C   5     -33.946  26.730 -23.097  1.00 62.82 LIG 0.24  C 
ATOM     44 O    ASN C   5     -34.008  26.534 -24.316  1.00 59.04 LIG-0.27  OA
ATOM     45  N   PRO C   6     -33.295  27.755 -22.557  1.00 69.97 LIG-0.34  N 
ATOM     46  CA  PRO C   6     -32.593  28.743 -23.383  1.00 73.90 LIG 0.18  C 
ATOM     47  CD  PRO C   6     -33.273  28.110 -21.127  1.00 74.49 LIG 0.13  C 
ATOM     48  CB  PRO C   6     -31.831  29.579 -22.354  1.00 75.59 LIG 0.04  C 
ATOM     49  CG  PRO C   6     -32.644  29.475 -21.110  1.00 76.33 LIG 0.02  C 
BRANCH 46 50
ATOM     50  C   PRO C   6     -31.620  28.093 -24.364  1.00 72.73 LIG 0.24  C 
ATOM     51 O    PRO C   6     -31.309  28.677 -25.402  1.00 74.17 LIG-0.27  OA
ATOM     52  N   ILE C   7     -31.152  26.894 -24.032  1.00 69.55 LIG-0.35  N 
ATOM     53 H    ILE C   7     -31.366  26.478 -23.310  1.00 69.55 LIG 0.16  HD
BRANCH 52 54
ATOM     54  CA  ILE C   7     -30.218  26.174 -24.888  1.00 67.58 LIG 0.17  C 
BRANCH 54 55
ATOM     55  CB  ILE C   7     -30.671  26.202 -26.359  1.00 70.68 LIG 0.01  C 
ATOM     56  CG2 ILE C   7     -29.464  26.182 -27.285  1.00 70.33 LIG 0.01  C 
BRANCH 55 57
ATOM     57  CG1 ILE C   7     -31.587  25.013 -26.654  1.00 72.59 LIG 0.00  C 
ATOM     58  CD1 ILE C   7     -31.946  24.203 -25.427  1.00 73.15 LIG 0.01  C 
ENDBRANCH 55 57
ENDBRANCH 54 55
BRANCH 54 59
ATOM     59  C   ILE C   7     -28.821  26.779 -24.792  1.00 63.70 LIG 0.22  C 
ATOM     60 O    ILE C   7     -28.320  27.037 -23.698  1.00 60.54 LIG-0.29  OA
ENDBRANCH 54 59
ENDBRANCH 52 54
ENDBRANCH 46 50
ENDBRANCH 36 43
ENDBRANCH 33 36
ENDBRANCH 1 32
TORSDOF 24
ENDMDL
MODEL 2
USER: ADFR SOLUTION from run 105
USER: SCORE 17.357342 LL:  -4.014 LR: -15.122 RR:   0.000 FEB:  -7.963
USER: RMSD 2.267216
USER: SEED 104
USER: STATUS no improvement in best in 3 clusters for 5 generations
USER: GENES 26
USER: genes 0 Translation |==|  0.46895 0.48666 0.41473
USER: genes 1 Rotation |==|  0.46331 0.43571 0.49033 0.99440
USER: genes 2 Torsion [CB]-CA--N-[C] |==|  0.36392
USER: genes 3 Torsion [N]-C--CA-[N] |==|  0.42962
USER: genes 4 Torsion [C]-CA--N-[C] |==|  0.80162
USER: genes 5 Torsion [N]-C--CA-[N] |==|  0.25094
USER: genes 6 Torsion [C]-CA--CB-[CG] |==|  0.38425
USER: genes 7 Torsion [CA]-CB--CG-[CD] |==|  0.34686
USER: genes 8 Torsion [CB]-CG--CD-[OE1] |==|  0.53288
USER: genes 9 Torsion [C]-CA--CB-[CG2] |==|  0.53903
USER: genes 10 Torsion [CA]-CB--CG1-[CD1] |==|  0.59067
USER: genes 11 Torsion [N]-CA--CB-[CG] |==|  0.55214
USER: genes 12 Torsion [CA]-CB--CG-[CD] |==|  0.20099
USER: genes 13 Torsion [CB]-CG--CD-[CE] |==|  0.44332
USER: genes 14 Torsion [CG]-CD--CE-[NZ] |==|  0.38339
USER: genes 15 Torsion [CD]-CE--NZ-[HZ1] |==|  0.95111
USER: genes 16 Torsion [N]-CA--C-[N] |==|  0.22414
USER: genes 17 Torsion [C]-N--CA-[C] |==|  0.84444
USER: genes 18 Torsion [N]-CA--CB-[CG] |==|  0.81499
USER: genes 19 Torsion [CA]-CB--CG-[OD1] |==|  0.88200
USER: genes 20 Torsion [N]-CA--C-[N] |==|  0.40549
USER: genes 21 Torsion [N]-CA--C-[O] |==|  0.43625
USER: genes 22 Torsion [C]-N--CA-[C] |==|  0.16947
USER: genes 23 Torsion [N]-CA--CB-[CG2] |==|  0.41243
USER: genes 24 Torsion [CA]-CB--CG1-[CD1] |==|  0.98720
USER: genes 25 Torsion [N]-CA--C-[O] |==|  0.12883
ROOT
ATOM      1  CA  LYS C   4     -38.294  26.324 -23.822  1.00 55.66 LIG 0.18  C 
ENDROOT
BRANCH 1 2
ATOM      2  N   LYS C   4     -39.257  25.896 -22.814  1.00 52.22 LIG-0.35  N 
ATOM      3  C   ILE C   3     -39.556  24.616 -22.608  1.00 49.48 LIG 0.24  C 
ATOM      4 O    ILE C   3     -39.072  23.696 -23.266  1.00 46.52 LIG-0.27  OA
ATOM      5 H    LYS C   4     -39.609  26.543 -22.370  1.00 52.22 LIG 0.16  HD
BRANCH 3 6
ATOM      6  CA  ILE C   3     -40.564  24.338 -21.496  1.00 52.28 LIG 0.18  C 
BRANCH 6 7
ATOM      7  N   ILE C   3     -41.249  23.074 -21.736  1.00 58.50 LIG-0.34  N 
ATOM      8 H    ILE C   3     -41.025  22.439 -21.200  1.00 58.50 LIG 0.16  HD
ATOM      9  C   GLN C   2     -42.143  22.944 -22.712  1.00 66.26 LIG 0.26  C 
ATOM     10 O    GLN C   2     -42.444  23.867 -23.467  1.00 73.27 LIG-0.27  OA
BRANCH 9 11
ATOM     11  CA  GLN C   2     -42.789  21.570 -22.863  1.00 65.71 LIG 0.40  C 
ATOM     12  N   GLN C   2     -44.003  21.480 -22.061  1.00 61.11 LIG 0.61  N 
BRANCH 11 13
ATOM     13  CB  GLN C   2     -43.096  21.293 -24.337  1.00 69.09 LIG 0.06  C 
BRANCH 13 14
ATOM     14  CG  GLN C   2     -42.777  19.868 -24.786  1.00 69.91 LIG 0.10  C 
BRANCH 14 15
ATOM     15  CD  GLN C   2     -43.967  19.168 -25.414  1.00 70.47 LIG 0.21  C 
ATOM     16 OE1  GLN C   2     -43.947  17.958 -25.631  1.00 73.69 LIG-0.27  OA
ATOM     17  NE2 GLN C   2     -45.015  19.931 -25.709  1.00 67.69 LIG-0.37  N 
ATOM     18 21HE GLN C   2     -44.992  20.775 -25.542  1.00 67.69 LIG 0.16  HD
ATOM     19 22HE GLN C   2     -45.714  19.582 -26.066  1.00 67.69 LIG 0.16  HD
ENDBRANCH 14 15
ENDBRANCH 13 14
ENDBRANCH 11 13
ENDBRANCH 9 11
ENDBRANCH 6 7
BRANCH 6 20
ATOM     20  CB  ILE C   3     -39.843  24.343 -20.133  1.00 50.18 LIG 0.01  C 
ATOM     21  CG2 ILE C   3     -40.739  23.731 -19.051  1.00 50.82 LIG 0.01  C 
BRANCH 20 22
ATOM     22  CG1 ILE C   3     -38.513  23.588 -20.241  1.00 50.01 LIG 0.00  C 
ATOM     23  CD1 ILE C   3     -38.099  22.858 -18.981  1.00 50.06 LIG 0.01  C 
ENDBRANCH 20 22
ENDBRANCH 6 20
ENDBRANCH 3 6
ENDBRANCH 1 2
BRANCH 1 24
ATOM     24  CB  LYS C   4     -38.883  27.446 -24.679  1.00 61.43 LIG 0.04  C 
BRANCH 24 25
ATOM     25  CG  LYS C   4     -38.179  27.661 -26.009  1.00 66.58 LIG 0.00  C 
BRANCH 25 26
ATOM     26  CD  LYS C   4     -38.493  26.530 -26.979  1.00 73.00 LIG 0.03  C 
BRANCH 26 27
ATOM     27  CE  LYS C   4     -38.240  26.936 -28.421  1.00 75.18 LIG 0.23  C 
BRANCH 27 28
ATOM     28  NZ  LYS C   4     -37.572  25.849 -29.192  1.00 76.64 LIG-0.08  N 
ATOM     29 HZ3  LYS C   4     -36.932  26.198 -29.703  1.00 76.64 LIG 0.27  HD
ATOM     30 HZ2  LYS C   4     -38.171  25.438 -29.706  1.00 76.64 LIG 0.27  HD
ATOM     31 HZ1  LYS C   4     -37.213  25.263 -28.628  1.00 76.64 LIG 0.27  HD
ENDBRANCH 27 28
ENDBRANCH 26 27
ENDBRANCH 25 26
ENDBRANCH 24 25
ENDBRANCH 1 24
BRANCH 1 32
ATOM     32  C   LYS C   4     -37.003  26.783 -23.150  1.00 57.21 LIG 0.24  C 
ATOM     33  N   ASN C   5     -36.160  25.824 -22.780  1.00 57.25 LIG-0.35  N 
ATOM     34 H    ASN C   5     -36.304  24.985 -22.900  1.00 57.25 LIG 0.16  HD
ATOM     35 O    LYS C   4     -36.779  27.981 -22.970  1.00 57.68 LIG-0.27  OA
BRANCH 33 36
ATOM     36  CA  ASN C   5     -34.894  26.128 -22.125  1.00 58.26 LIG 0.18  C 
BRANCH 36 37
ATOM     37  CB  ASN C   5     -34.115  24.841 -21.854  1.00 53.49 LIG 0.14  C 
BRANCH 37 38
ATOM     38  CG  ASN C   5     -34.798  23.951 -20.833  1.00 47.90 LIG 0.22  C 
ATOM     39 OD1  ASN C   5     -35.301  24.427 -19.815  1.00 45.37 LIG-0.27  OA
ATOM     40  ND2 ASN C   5     -34.818  22.651 -21.100  1.00 45.09 LIG-0.37  N 
ATOM     41 22HD ASN C   5     -34.456  22.354 -21.822  1.00 45.09 LIG 0.16  HD
ATOM     42 21HD ASN C   5     -35.193  22.105 -20.551  1.00 45.09 LIG 0.16  HD
ENDBRANCH 37 38
ENDBRANCH 36 37
BRANCH 36 43
ATOM     43  C   ASN C   5     -34.044  27.079 -22.959  1.00 62.82 LIG 0.24  C 
ATOM     44 O    ASN C   5     -34.073  27.023 -24.194  1.00 59.04 LIG-0.27  OA
ATOM     45  N   PRO C   6     -33.293  27.946 -22.288  1.00 69.97 LIG-0.34  N 
ATOM     46  CA  PRO C   6     -32.431  28.914 -22.976  1.00 73.90 LIG 0.18  C 
ATOM     47  CD  PRO C   6     -33.294  28.142 -20.827  1.00 74.49 LIG 0.13  C 
ATOM     48  CB  PRO C   6     -31.618  29.527 -21.835  1.00 75.59 LIG 0.04  C 
ATOM     49  CG  PRO C   6     -32.496  29.402 -20.638  1.00 76.33 LIG 0.02  C 
BRANCH 46 50
ATOM     50  C   PRO C   6     -31.505  28.247 -23.989  1.00 72.73 LIG 0.24  C 
ATOM     51 O    PRO C   6     -31.041  28.901 -24.923  1.00 74.17 LIG-0.27  OA
ATOM     52  N   ILE C   7     -31.245  26.957 -23.801  1.00 69.55 LIG-0.35  N 
ATOM     53 H    ILE C   7     -31.567  26.493 -23.152  1.00 69.55 LIG 0.16  HD
BRANCH 52 54
ATOM     54  CA  ILE C   7     -30.375  26.212 -24.702  1.00 67.58 LIG 0.17  C 
BRANCH 54 55
ATOM     55  CB  ILE C   7     -30.925  26.214 -26.140  1.00 70.68 LIG 0.01  C 
ATOM     56  CG2 ILE C   7     -29.783  26.171 -27.143  1.00 70.33 LIG 0.01  C 
BRANCH 55 57
ATOM     57  CG1 ILE C   7     -31.864  25.025 -26.350  1.00 72.59 LIG 0.00  C 
ATOM     58  CD1 ILE C   7     -31.938  24.091 -25.161  1.00 73.15 LIG 0.01  C 
ENDBRANCH 55 57
ENDBRANCH 54 55
BRANCH 54 59
ATOM     59  C   ILE C   7     -28.971  26.807 -24.711  1.00 63.70 LIG 0.22  C 
ATOM     60 O    ILE C   7     -28.402  27.096 -23.659  1.00 60.54 LIG-0.29  OA
ENDBRANCH 54 59
ENDBRANCH 52 54
ENDBRANCH 46 50
ENDBRANCH 36 43
ENDBRANCH 33 36
ENDBRANCH 1 32
TORSDOF 24
ENDMDL
MODEL 3
USER: ADFR SOLUTION from run 196
USER: SCORE 16.475531 LL:  -4.297 LR: -14.543 RR:   0.000 FEB:  -7.384
USER: RMSD 3.539515
USER: SEED 195
USER: STATUS no improvement in best in 5 clusters for 5 generations
USER: GENES 26
USER: genes 0 Translation |==|  0.48053 0.48000 0.42699
USER: genes 1 Rotation |==|  0.45095 0.45695 0.51048 0.99561
USER: genes 2 Torsion [CB]-CA--N-[C] |==|  0.35224
USER: genes 3 Torsion [N]-C--CA-[N] |==|  0.36637
USER: genes 4 Torsion [C]-CA--N-[C] |==|  0.71583
USER: genes 5 Torsion [N]-C--CA-[N] |==|  0.91211
USER: genes 6 Torsion [C]-CA--CB-[CG] |==|  0.55143
USER: genes 7 Torsion [CA]-CB--CG-[CD] |==|  0.36847
USER: genes 8 Torsion [CB]-CG--CD-[OE1] |==|  0.00316
USER: genes 9 Torsion [C]-CA--CB-[CG2] |==|  0.24159
USER: genes 10 Torsion [CA]-CB--CG1-[CD1] |==|  0.42665
USER: genes 11 Torsion [N]-CA--CB-[CG] |==|  0.53073
USER: genes 12 Torsion [CA]-CB--CG-[CD] |==|  0.21447
USER: genes 13 Torsion [CB]-CG--CD-[CE] |==|  0.44715
USER: genes 14 Torsion [CG]-CD--CE-[NZ] |==|  0.40844
USER: genes 15 Torsion [CD]-CE--NZ-[HZ1] |==|  0.60632
USER: genes 16 Torsion [N]-CA--C-[N] |==|  0.23344
USER: genes 17 Torsion [C]-N--CA-[C] |==|  0.76426
USER: genes 18 Torsion [N]-CA--CB-[CG] |==|  0.94534
USER: genes 19 Torsion [CA]-CB--CG-[OD1] |==|  0.74477
USER: genes 20 Torsion [N]-CA--C-[N] |==|  0.81677
USER: genes 21 Torsion [N]-CA--C-[O] |==|  0.31924
USER: genes 22 Torsion [C]-N--CA-[C] |==|  0.17434
USER: genes 23 Torsion [N]-CA--CB-[CG2] |==|  0.54732
USER: genes 24 Torsion [CA]-CB--CG1-[CD1] |==|  0.44024
USER: genes 25 Torsion [N]-CA--C-[O] |==|  0.07213
ROOT
ATOM      1  CA  LYS C   4     -38.025  26.199 -23.583  1.00 55.66 LIG 0.18  C 
ENDROOT
BRANCH 1 2
ATOM      2  N   LYS C   4     -38.862  25.772 -22.468  1.00 52.22 LIG-0.35  N 
ATOM      3  C   ILE C   3     -39.117  24.491 -22.215  1.00 49.48 LIG 0.24  C 
ATOM      4 O    ILE C   3     -38.697  23.568 -22.914  1.00 46.52 LIG-0.27  OA
ATOM      5 H    LYS C   4     -39.171  26.419 -21.994  1.00 52.22 LIG 0.16  HD
BRANCH 3 6
ATOM      6  CA  ILE C   3     -39.988  24.213 -20.993  1.00 52.28 LIG 0.18  C 
BRANCH 6 7
ATOM      7  N   ILE C   3     -41.053  23.276 -21.331  1.00 58.50 LIG-0.34  N 
ATOM      8 H    ILE C   3     -40.802  22.454 -21.379  1.00 58.50 LIG 0.16  HD
ATOM      9  C   GLN C   2     -42.300  23.688 -21.541  1.00 66.26 LIG 0.26  C 
ATOM     10 O    GLN C   2     -42.632  24.870 -21.470  1.00 73.27 LIG-0.27  OA
BRANCH 9 11
ATOM     11  CA  GLN C   2     -43.321  22.611 -21.890  1.00 65.71 LIG 0.40  C 
ATOM     12  N   GLN C   2     -42.693  21.523 -22.629  1.00 61.11 LIG 0.61  N 
BRANCH 11 13
ATOM     13  CB  GLN C   2     -43.983  22.082 -20.614  1.00 69.09 LIG 0.06  C 
BRANCH 13 14
ATOM     14  CG  GLN C   2     -44.673  20.729 -20.781  1.00 69.91 LIG 0.10  C 
BRANCH 14 15
ATOM     15  CD  GLN C   2     -44.322  19.749 -19.678  1.00 70.47 LIG 0.21  C 
ATOM     16 OE1  GLN C   2     -43.572  20.073 -18.759  1.00 73.69 LIG-0.27  OA
ATOM     17  NE2 GLN C   2     -44.868  18.540 -19.765  1.00 67.69 LIG-0.37  N 
ATOM     18 21HE GLN C   2     -45.388  18.350 -20.422  1.00 67.69 LIG 0.16  HD
ATOM     19 22HE GLN C   2     -44.700  17.949 -19.163  1.00 67.69 LIG 0.16  HD
ENDBRANCH 14 15
ENDBRANCH 13 14
ENDBRANCH 11 13
ENDBRANCH 9 11
ENDBRANCH 6 7
BRANCH 6 20
ATOM     20  CB  ILE C   3     -39.110  23.684 -19.842  1.00 50.18 LIG 0.01  C 
ATOM     21  CG2 ILE C   3     -38.532  24.849 -19.030  1.00 50.82 LIG 0.01  C 
BRANCH 20 22
ATOM     22  CG1 ILE C   3     -39.926  22.741 -18.952  1.00 50.01 LIG 0.00  C 
ATOM     23  CD1 ILE C   3     -39.105  21.704 -18.214  1.00 50.06 LIG 0.01  C 
ENDBRANCH 20 22
ENDBRANCH 6 20
ENDBRANCH 3 6
ENDBRANCH 1 2
BRANCH 1 24
ATOM     24  CB  LYS C   4     -38.764  27.228 -24.441  1.00 61.43 LIG 0.04  C 
BRANCH 24 25
ATOM     25  CG  LYS C   4     -38.094  27.542 -25.768  1.00 66.58 LIG 0.00  C 
BRANCH 25 26
ATOM     26  CD  LYS C   4     -38.343  26.431 -26.779  1.00 73.00 LIG 0.03  C 
BRANCH 26 27
ATOM     27  CE  LYS C   4     -38.104  26.901 -28.205  1.00 75.18 LIG 0.23  C 
BRANCH 27 28
ATOM     28  NZ  LYS C   4     -37.572  25.806 -29.065  1.00 76.64 LIG-0.08  N 
ATOM     29 HZ3  LYS C   4     -38.238  25.447 -29.534  1.00 76.64 LIG 0.27  HD
ATOM     30 HZ2  LYS C   4     -37.198  25.181 -28.554  1.00 76.64 LIG 0.27  HD
ATOM     31 HZ1  LYS C   4     -36.963  26.137 -29.624  1.00 76.64 LIG 0.27  HD
ENDBRANCH 27 28
ENDBRANCH 26 27
ENDBRANCH 25 26
ENDBRANCH 24 25
ENDBRANCH 1 24
BRANCH 1 32
ATOM     32  C   LYS C   4     -36.714  26.780 -23.060  1.00 57.21 LIG 0.24  C 
ATOM     33  N   ASN C   5     -35.752  25.905 -22.784  1.00 57.25 LIG-0.35  N 
ATOM     34 H    ASN C   5     -35.832  25.054 -22.886  1.00 57.25 LIG 0.16  HD
ATOM     35 O    LYS C   4     -36.580  27.996 -22.909  1.00 57.68 LIG-0.27  OA
BRANCH 33 36
ATOM     36  CA  ASN C   5     -34.454  26.329 -22.275  1.00 58.26 LIG 0.18  C 
BRANCH 36 37
ATOM     37  CB  ASN C   5     -33.822  25.214 -21.441  1.00 53.49 LIG 0.14  C 
BRANCH 37 38
ATOM     38  CG  ASN C   5     -34.840  24.197 -20.962  1.00 47.90 LIG 0.22  C 
ATOM     39 OD1  ASN C   5     -35.394  24.323 -19.869  1.00 45.37 LIG-0.27  OA
ATOM     40  ND2 ASN C   5     -35.090  23.181 -21.778  1.00 45.09 LIG-0.37  N 
ATOM     41 22HD ASN C   5     -34.684  23.126 -22.534  1.00 45.09 LIG 0.16  HD
ATOM     42 21HD ASN C   5     -35.660  22.578 -21.551  1.00 45.09 LIG 0.16  HD
ENDBRANCH 37 38
ENDBRANCH 36 37
BRANCH 36 43
ATOM     43  C   ASN C   5     -33.510  26.727 -23.404  1.00 62.82 LIG 0.24  C 
ATOM     44 O    ASN C   5     -33.134  27.899 -23.520  1.00 59.04 LIG-0.27  OA
ATOM     45  N   PRO C   6     -33.130  25.756 -24.227  1.00 69.97 LIG-0.34  N 
ATOM     46  CA  PRO C   6     -32.223  26.010 -25.352  1.00 73.90 LIG 0.18  C 
ATOM     47  CD  PRO C   6     -33.447  24.324 -24.082  1.00 74.49 LIG 0.13  C 
ATOM     48  CB  PRO C   6     -32.248  24.690 -26.124  1.00 75.59 LIG 0.04  C 
ATOM     49  CG  PRO C   6     -32.558  23.659 -25.095  1.00 76.33 LIG 0.02  C 
BRANCH 46 50
ATOM     50  C   PRO C   6     -32.708  27.153 -26.240  1.00 72.73 LIG 0.24  C 
ATOM     51 O    PRO C   6     -32.051  28.191 -26.322  1.00 74.17 LIG-0.27  OA
ATOM     52  N   ILE C   7     -33.850  26.959 -26.892  1.00 69.55 LIG-0.35  N 
ATOM     53 H    ILE C   7     -34.316  26.238 -26.839  1.00 69.55 LIG 0.16  HD
BRANCH 52 54
ATOM     54  CA  ILE C   7     -34.413  27.977 -27.770  1.00 67.58 LIG 0.17  C 
BRANCH 54 55
ATOM     55  CB  ILE C   7     -34.670  29.291 -27.009  1.00 70.68 LIG 0.01  C 
ATOM     56  CG2 ILE C   7     -35.620  30.181 -27.796  1.00 70.33 LIG 0.01  C 
BRANCH 55 57
ATOM     57  CG1 ILE C   7     -35.242  28.997 -25.621  1.00 72.59 LIG 0.00  C 
ATOM     58  CD1 ILE C   7     -35.050  30.126 -24.633  1.00 73.15 LIG 0.01  C 
ENDBRANCH 55 57
ENDBRANCH 54 55
BRANCH 54 59
ATOM     59  C   ILE C   7     -33.477  28.261 -28.939  1.00 63.70 LIG 0.22  C 
ATOM     60 O    ILE C   7     -32.685  27.406 -29.335  1.00 60.54 LIG-0.29  OA
ENDBRANCH 54 59
ENDBRANCH 52 54
ENDBRANCH 46 50
ENDBRANCH 36 43
ENDBRANCH 33 36
ENDBRANCH 1 32
TORSDOF 24
ENDMDL
MODEL 4
USER: ADFR SOLUTION from run 143
USER: SCORE 16.369182 LL:  -3.989 LR: -14.466 RR:   0.000 FEB:  -7.307
USER: RMSD 2.544975
USER: SEED 142
USER: STATUS no improvement in best in 3 clusters for 5 generations
USER: GENES 26
USER: genes 0 Translation |==|  0.45180 0.47172 0.41166
USER: genes 1 Rotation |==|  0.44174 0.46680 0.55204 0.99274
USER: genes 2 Torsion [CB]-CA--N-[C] |==|  0.37026
USER: genes 3 Torsion [N]-C--CA-[N] |==|  0.33436
USER: genes 4 Torsion [C]-CA--N-[C] |==|  0.78254
USER: genes 5 Torsion [N]-C--CA-[N] |==|  0.38865
USER: genes 6 Torsion [C]-CA--CB-[CG] |==|  0.13640
USER: genes 7 Torsion [CA]-CB--CG-[CD] |==|  0.66667
USER: genes 8 Torsion [CB]-CG--CD-[OE1] |==|  0.31144
USER: genes 9 Torsion [C]-CA--CB-[CG2] |==|  0.20078
USER: genes 10 Torsion [CA]-CB--CG1-[CD1] |==|  0.44355
USER: genes 11 Torsion [N]-CA--CB-[CG] |==|  0.51027
USER: genes 12 Torsion [CA]-CB--CG-[CD] |==|  0.16955
USER: genes 13 Torsion [CB]-CG--CD-[CE] |==|  0.44232
USER: genes 14 Torsion [CG]-CD--CE-[NZ] |==|  0.43264
USER: genes 15 Torsion [CD]-CE--NZ-[HZ1] |==|  0.63547
USER: genes 16 Torsion [N]-CA--C-[N] |==|  0.16854
USER: genes 17 Torsion [C]-N--CA-[C] |==|  0.78206
USER: genes 18 Torsion [N]-CA--CB-[CG] |==|  0.09528
USER: genes 19 Torsion [CA]-CB--CG-[OD1] |==|  0.62863
USER: genes 20 Torsion [N]-CA--C-[N] |==|  0.50334
USER: genes 21 Torsion [N]-CA--C-[O] |==|  0.72316
USER: genes 22 Torsion [C]-N--CA-[C] |==|  0.13140
USER: genes 23 Torsion [N]-CA--CB-[CG2] |==|  0.56414
USER: genes 24 Torsion [CA]-CB--CG1-[CD1] |==|  0.32922
USER: genes 25 Torsion [N]-CA--C-[O] |==|  0.10264
ROOT
ATOM      1  CA  LYS C   4     -38.693  26.044 -23.882  1.00 55.66 LIG 0.18  C 
ENDROOT
BRANCH 1 2
ATOM      2  N   LYS C   4     -39.395  25.555 -22.701  1.00 52.22 LIG-0.35  N 
ATOM      3  C   ILE C   3     -39.328  24.288 -22.302  1.00 49.48 LIG 0.24  C 
ATOM      4 O    ILE C   3     -38.697  23.422 -22.909  1.00 46.52 LIG-0.27  OA
ATOM      5 H    LYS C   4     -39.852  26.158 -22.292  1.00 52.22 LIG 0.16  HD
BRANCH 3 6
ATOM      6  CA  ILE C   3     -40.100  23.947 -21.030  1.00 52.28 LIG 0.18  C 
BRANCH 6 7
ATOM      7  N   ILE C   3     -41.101  22.923 -21.303  1.00 58.50 LIG-0.34  N 
ATOM      8 H    ILE C   3     -40.878  22.130 -21.052  1.00 58.50 LIG 0.16  HD
ATOM      9  C   GLN C   2     -42.255  23.220 -21.893  1.00 66.26 LIG 0.26  C 
ATOM     10 O    GLN C   2     -42.549  24.361 -22.246  1.00 73.27 LIG-0.27  OA
BRANCH 9 11
ATOM     11  CA  GLN C   2     -43.217  22.060 -22.125  1.00 65.71 LIG 0.40  C 
ATOM     12  N   GLN C   2     -44.591  22.467 -21.856  1.00 61.11 LIG 0.61  N 
BRANCH 11 13
ATOM     13  CB  GLN C   2     -43.081  21.542 -23.560  1.00 69.09 LIG 0.06  C 
BRANCH 13 14
ATOM     14  CG  GLN C   2     -41.641  21.278 -23.996  1.00 69.91 LIG 0.10  C 
BRANCH 14 15
ATOM     15  CD  GLN C   2     -41.227  22.110 -25.195  1.00 70.47 LIG 0.21  C 
ATOM     16 OE1  GLN C   2     -40.383  22.998 -25.088  1.00 73.69 LIG-0.27  OA
ATOM     17  NE2 GLN C   2     -41.822  21.823 -26.348  1.00 67.69 LIG-0.37  N 
ATOM     18 21HE GLN C   2     -42.408  21.195 -26.385  1.00 67.69 LIG 0.16  HD
ATOM     19 22HE GLN C   2     -41.621  22.266 -27.058  1.00 67.69 LIG 0.16  HD
ENDBRANCH 14 15
ENDBRANCH 13 14
ENDBRANCH 11 13
ENDBRANCH 9 11
ENDBRANCH 6 7
BRANCH 6 20
ATOM     20  CB  ILE C   3     -39.115  23.500 -19.932  1.00 50.18 LIG 0.01  C 
ATOM     21  CG2 ILE C   3     -38.319  24.700 -19.406  1.00 50.82 LIG 0.01  C 
BRANCH 20 22
ATOM     22  CG1 ILE C   3     -39.875  22.801 -18.799  1.00 50.01 LIG 0.00  C 
ATOM     23  CD1 ILE C   3     -39.020  21.910 -17.924  1.00 50.06 LIG 0.01  C 
ENDBRANCH 20 22
ENDBRANCH 6 20
ENDBRANCH 3 6
ENDBRANCH 1 2
BRANCH 1 24
ATOM     24  CB  LYS C   4     -39.628  26.894 -24.744  1.00 61.43 LIG 0.04  C 
BRANCH 24 25
ATOM     25  CG  LYS C   4     -39.017  27.380 -26.048  1.00 66.58 LIG 0.00  C 
BRANCH 25 26
ATOM     26  CD  LYS C   4     -38.614  26.207 -26.931  1.00 73.00 LIG 0.03  C 
BRANCH 26 27
ATOM     27  CE  LYS C   4     -38.484  26.616 -28.389  1.00 75.18 LIG 0.23  C 
BRANCH 27 28
ATOM     28  NZ  LYS C   4     -37.572  25.707 -29.139  1.00 76.64 LIG-0.08  N 
ATOM     29 HZ3  LYS C   4     -38.048  25.205 -29.699  1.00 76.64 LIG 0.27  HD
ATOM     30 HZ2  LYS C   4     -37.139  25.181 -28.565  1.00 76.64 LIG 0.27  HD
ATOM     31 HZ1  LYS C   4     -36.985  26.190 -29.601  1.00 76.64 LIG 0.27  HD
ENDBRANCH 27 28
ENDBRANCH 26 27
ENDBRANCH 25 26
ENDBRANCH 24 25
ENDBRANCH 1 24
BRANCH 1 32
ATOM     32  C   LYS C   4     -37.467  26.850 -23.464  1.00 57.21 LIG 0.24  C 
ATOM     33  N   ASN C   5     -36.548  26.200 -22.757  1.00 57.25 LIG-0.35  N 
ATOM     34 H    ASN C   5     -36.611  25.371 -22.534  1.00 57.25 LIG 0.16  HD
ATOM     35 O    LYS C   4     -37.359  28.038 -23.775  1.00 57.68 LIG-0.27  OA
BRANCH 33 36
ATOM     36  CA  ASN C   5     -35.332  26.856 -22.293  1.00 58.26 LIG 0.18  C 
BRANCH 36 37
ATOM     37  CB  ASN C   5     -34.727  26.083 -21.120  1.00 53.49 LIG 0.14  C 
BRANCH 37 38
ATOM     38  CG  ASN C   5     -34.931  24.586 -21.243  1.00 47.90 LIG 0.22  C 
ATOM     39 OD1  ASN C   5     -35.323  23.920 -20.284  1.00 45.37 LIG-0.27  OA
ATOM     40  ND2 ASN C   5     -34.664  24.047 -22.427  1.00 45.09 LIG-0.37  N 
ATOM     41 22HD ASN C   5     -34.392  24.544 -23.074  1.00 45.09 LIG 0.16  HD
ATOM     42 21HD ASN C   5     -34.764  23.201 -22.546  1.00 45.09 LIG 0.16  HD
ENDBRANCH 37 38
ENDBRANCH 36 37
BRANCH 36 43
ATOM     43  C   ASN C   5     -34.303  26.987 -23.410  1.00 62.82 LIG 0.24  C 
ATOM     44 O    ASN C   5     -34.561  26.580 -24.549  1.00 59.04 LIG-0.27  OA
ATOM     45  N   PRO C   6     -33.144  27.551 -23.085  1.00 69.97 LIG-0.34  N 
ATOM     46  CA  PRO C   6     -32.073  27.734 -24.070  1.00 73.90 LIG 0.18  C 
ATOM     47  CD  PRO C   6     -32.812  28.157 -21.783  1.00 74.49 LIG 0.13  C 
ATOM     48  CB  PRO C   6     -30.893  28.202 -23.217  1.00 75.59 LIG 0.04  C 
ATOM     49  CG  PRO C   6     -31.520  28.877 -22.046  1.00 76.33 LIG 0.02  C 
BRANCH 46 50
ATOM     50  C   PRO C   6     -31.724  26.436 -24.794  1.00 72.73 LIG 0.24  C 
ATOM     51 O    PRO C   6     -30.742  25.780 -24.443  1.00 74.17 LIG-0.27  OA
ATOM     52  N   ILE C   7     -32.522  26.078 -25.794  1.00 69.55 LIG-0.35  N 
ATOM     53 H    ILE C   7     -33.208  26.531 -26.046  1.00 69.55 LIG 0.16  HD
BRANCH 52 54
ATOM     54  CA  ILE C   7     -32.290  24.859 -26.559  1.00 67.58 LIG 0.17  C 
BRANCH 54 55
ATOM     55  CB  ILE C   7     -31.091  25.017 -27.513  1.00 70.68 LIG 0.01  C 
ATOM     56  CG2 ILE C   7     -31.197  24.028 -28.663  1.00 70.33 LIG 0.01  C 
BRANCH 55 57
ATOM     57  CG1 ILE C   7     -31.023  26.449 -28.046  1.00 72.59 LIG 0.00  C 
ATOM     58  CD1 ILE C   7     -29.752  27.178 -27.670  1.00 73.15 LIG 0.01  C 
ENDBRANCH 55 57
ENDBRANCH 54 55
BRANCH 54 59
ATOM     59  C   ILE C   7     -32.027  23.679 -25.630  1.00 63.70 LIG 0.22  C 
ATOM     60 O    ILE C   7     -32.630  23.572 -24.562  1.00 60.54 LIG-0.29  OA
ENDBRANCH 54 59
ENDBRANCH 52 54
ENDBRANCH 46 50
ENDBRANCH 36 43
ENDBRANCH 33 36
ENDBRANCH 1 32
TORSDOF 24
ENDMDL
MODEL 5
USER: ADFR SOLUTION from run 30
USER: SCORE 16.580802 LL:  -4.659 LR: -14.209 RR:   0.000 FEB:  -7.050
USER: RMSD 3.153994
USER: SEED 29
USER: STATUS searching
USER: GENES 26
USER: genes 0 Translation |==|  0.48119 0.48000 0.43281
USER: genes 1 Rotation |==|  0.45657 0.44259 0.50582 0.99476
USER: genes 2 Torsion [CB]-CA--N-[C] |==|  0.39250
USER: genes 3 Torsion [N]-C--CA-[N] |==|  0.34581
USER: genes 4 Torsion [C]-CA--N-[C] |==|  0.80309
USER: genes 5 Torsion [N]-C--CA-[N] |==|  0.40663
USER: genes 6 Torsion [C]-CA--CB-[CG] |==|  0.86656
USER: genes 7 Torsion [CA]-CB--CG-[CD] |==|  0.32075
USER: genes 8 Torsion [CB]-CG--CD-[OE1] |==|  0.23445
USER: genes 9 Torsion [C]-CA--CB-[CG2] |==|  0.27050
USER: genes 10 Torsion [CA]-CB--CG1-[CD1] |==|  0.41642
USER: genes 11 Torsion [N]-CA--CB-[CG] |==|  0.72568
USER: genes 12 Torsion [CA]-CB--CG-[CD] |==|  0.74188
USER: genes 13 Torsion [CB]-CG--CD-[CE] |==|  0.40270
USER: genes 14 Torsion [CG]-CD--CE-[NZ] |==|  0.46128
USER: genes 15 Torsion [CD]-CE--NZ-[HZ1] |==|  0.22492
USER: genes 16 Torsion [N]-CA--C-[N] |==|  0.27163
USER: genes 17 Torsion [C]-N--CA-[C] |==|  0.72463
USER: genes 18 Torsion [N]-CA--CB-[CG] |==|  0.94534
USER: genes 19 Torsion [CA]-CB--CG-[OD1] |==|  0.74926
USER: genes 20 Torsion [N]-CA--C-[N] |==|  0.81919
USER: genes 21 Torsion [N]-CA--C-[O] |==|  0.29293
USER: genes 22 Torsion [C]-N--CA-[C] |==|  0.15886
USER: genes 23 Torsion [N]-CA--CB-[CG2] |==|  0.54243
USER: genes 24 Torsion [CA]-CB--CG1-[CD1] |==|  0.40488
USER: genes 25 Torsion [N]-CA--C-[O] |==|  0.09811
ROOT
ATOM      1  CA  LYS C   4     -38.009  26.199 -23.469  1.00 55.66 LIG 0.18  C 
ENDROOT
BRANCH 1 2
ATOM      2  N   LYS C   4     -38.914  25.754 -22.416  1.00 52.22 LIG-0.35  N 
ATOM      3  C   ILE C   3     -38.986  24.485 -22.023  1.00 49.48 LIG 0.24  C 
ATOM      4 O    ILE C   3     -38.322  23.583 -22.533  1.00 46.52 LIG-0.27  OA
ATOM      5 H    LYS C   4     -39.392  26.383 -22.077  1.00 52.22 LIG 0.16  HD
BRANCH 3 6
ATOM      6  CA  ILE C   3     -39.965  24.192 -20.890  1.00 52.28 LIG 0.18  C 
BRANCH 6 7
ATOM      7  N   ILE C   3     -40.912  23.159 -21.291  1.00 58.50 LIG-0.34  N 
ATOM      8 H    ILE C   3     -40.801  22.401 -20.899  1.00 58.50 LIG 0.16  HD
ATOM      9  C   GLN C   2     -41.861  23.399 -22.191  1.00 66.26 LIG 0.26  C 
ATOM     10 O    GLN C   2     -41.998  24.492 -22.740  1.00 73.27 LIG-0.27  OA
BRANCH 9 11
ATOM     11  CA  GLN C   2     -42.788  22.236 -22.528  1.00 65.71 LIG 0.40  C 
ATOM     12  N   GLN C   2     -44.132  22.716 -22.825  1.00 61.11 LIG 0.61  N 
BRANCH 11 13
ATOM     13  CB  GLN C   2     -42.227  21.442 -23.710  1.00 69.09 LIG 0.06  C 
BRANCH 13 14
ATOM     14  CG  GLN C   2     -41.794  22.303 -24.895  1.00 69.91 LIG 0.10  C 
BRANCH 14 15
ATOM     15  CD  GLN C   2     -40.303  22.231 -25.162  1.00 70.47 LIG 0.21  C 
ATOM     16 OE1  GLN C   2     -39.825  21.324 -25.841  1.00 73.69 LIG-0.27  OA
ATOM     17  NE2 GLN C   2     -39.558  23.193 -24.626  1.00 67.69 LIG-0.37  N 
ATOM     18 21HE GLN C   2     -39.928  23.811 -24.157  1.00 67.69 LIG 0.16  HD
ATOM     19 22HE GLN C   2     -38.707  23.197 -24.749  1.00 67.69 LIG 0.16  HD
ENDBRANCH 14 15
ENDBRANCH 13 14
ENDBRANCH 11 13
ENDBRANCH 9 11
ENDBRANCH 6 7
BRANCH 6 20
ATOM     20  CB  ILE C   3     -39.184  23.786 -19.624  1.00 50.18 LIG 0.01  C 
ATOM     21  CG2 ILE C   3     -39.013  24.990 -18.691  1.00 50.82 LIG 0.01  C 
BRANCH 20 22
ATOM     22  CG1 ILE C   3     -39.900  22.632 -18.915  1.00 50.01 LIG 0.00  C 
ATOM     23  CD1 ILE C   3     -38.985  21.696 -18.154  1.00 50.06 LIG 0.01  C 
ENDBRANCH 20 22
ENDBRANCH 6 20
ENDBRANCH 3 6
ENDBRANCH 1 2
BRANCH 1 24
ATOM     24  CB  LYS C   4     -38.687  27.257 -24.343  1.00 61.43 LIG 0.04  C 
BRANCH 24 25
ATOM     25  CG  LYS C   4     -39.267  26.725 -25.643  1.00 66.58 LIG 0.00  C 
BRANCH 25 26
ATOM     26  CD  LYS C   4     -38.262  26.853 -26.779  1.00 73.00 LIG 0.03  C 
BRANCH 26 27
ATOM     27  CE  LYS C   4     -38.364  25.694 -27.757  1.00 75.18 LIG 0.23  C 
BRANCH 27 28
ATOM     28  NZ  LYS C   4     -37.633  25.974 -29.025  1.00 76.64 LIG-0.08  N 
ATOM     29 HZ3  LYS C   4     -37.750  26.827 -29.253  1.00 76.64 LIG 0.27  HD
ATOM     30 HZ2  LYS C   4     -37.947  25.449 -29.672  1.00 76.64 LIG 0.27  HD
ATOM     31 HZ1  LYS C   4     -36.765  25.816 -28.909  1.00 76.64 LIG 0.27  HD
ENDBRANCH 27 28
ENDBRANCH 26 27
ENDBRANCH 25 26
ENDBRANCH 24 25
ENDBRANCH 1 24
BRANCH 1 32
ATOM     32  C   LYS C   4     -36.726  26.751 -22.856  1.00 57.21 LIG 0.24  C 
ATOM     33  N   ASN C   5     -35.691  25.918 -22.808  1.00 57.25 LIG-0.35  N 
ATOM     34 H    ASN C   5     -35.712  25.109 -23.099  1.00 57.25 LIG 0.16  HD
ATOM     35 O    LYS C   4     -36.677  27.909 -22.436  1.00 57.68 LIG-0.27  OA
BRANCH 33 36
ATOM     36  CA  ASN C   5     -34.409  26.321 -22.243  1.00 58.26 LIG 0.18  C 
BRANCH 36 37
ATOM     37  CB  ASN C   5     -33.826  25.191 -21.394  1.00 53.49 LIG 0.14  C 
BRANCH 37 38
ATOM     38  CG  ASN C   5     -34.875  24.184 -20.965  1.00 47.90 LIG 0.22  C 
ATOM     39 OD1  ASN C   5     -35.492  24.324 -19.909  1.00 45.37 LIG-0.27  OA
ATOM     40  ND2 ASN C   5     -35.082  23.160 -21.784  1.00 45.09 LIG-0.37  N 
ATOM     41 22HD ASN C   5     -34.632  23.094 -22.514  1.00 45.09 LIG 0.16  HD
ATOM     42 21HD ASN C   5     -35.667  22.561 -21.584  1.00 45.09 LIG 0.16  HD
ENDBRANCH 37 38
ENDBRANCH 36 37
BRANCH 36 43
ATOM     43  C   ASN C   5     -33.416  26.715 -23.330  1.00 62.82 LIG 0.24  C 
ATOM     44 O    ASN C   5     -33.008  27.880 -23.412  1.00 59.04 LIG-0.27  OA
ATOM     45  N   PRO C   6     -33.029  25.750 -24.158  1.00 69.97 LIG-0.34  N 
ATOM     46  CA  PRO C   6     -32.077  26.002 -25.244  1.00 73.90 LIG 0.18  C 
ATOM     47  CD  PRO C   6     -33.386  24.324 -24.050  1.00 74.49 LIG 0.13  C 
ATOM     48  CB  PRO C   6     -32.105  24.697 -26.041  1.00 75.59 LIG 0.04  C 
ATOM     49  CG  PRO C   6     -32.477  23.655 -25.042  1.00 76.33 LIG 0.02  C 
BRANCH 46 50
ATOM     50  C   PRO C   6     -32.502  27.172 -26.127  1.00 72.73 LIG 0.24  C 
ATOM     51 O    PRO C   6     -31.921  28.254 -26.038  1.00 74.17 LIG-0.27  OA
ATOM     52  N   ILE C   7     -33.508  26.950 -26.967  1.00 69.55 LIG-0.35  N 
ATOM     53 H    ILE C   7     -33.919  26.198 -27.035  1.00 69.55 LIG 0.16  HD
BRANCH 52 54
ATOM     54  CA  ILE C   7     -34.002  27.991 -27.861  1.00 67.58 LIG 0.17  C 
BRANCH 54 55
ATOM     55  CB  ILE C   7     -34.602  29.168 -27.071  1.00 70.68 LIG 0.01  C 
ATOM     56  CG2 ILE C   7     -35.437  30.049 -27.987  1.00 70.33 LIG 0.01  C 
BRANCH 55 57
ATOM     57  CG1 ILE C   7     -35.455  28.648 -25.912  1.00 72.59 LIG 0.00  C 
ATOM     58  CD1 ILE C   7     -35.408  29.527 -24.681  1.00 73.15 LIG 0.01  C 
ENDBRANCH 55 57
ENDBRANCH 54 55
BRANCH 54 59
ATOM     59  C   ILE C   7     -32.881  28.517 -28.751  1.00 63.70 LIG 0.22  C 
ATOM     60 O    ILE C   7     -31.998  27.765 -29.163  1.00 60.54 LIG-0.29  OA
ENDBRANCH 54 59
ENDBRANCH 52 54
ENDBRANCH 46 50
ENDBRANCH 36 43
ENDBRANCH 33 36
ENDBRANCH 1 32
TORSDOF 24
ENDMDL
MODEL 6
USER: ADFR SOLUTION from run 169
USER: SCORE 16.891558 LL:  -4.261 LR: -13.585 RR:   0.000 FEB:  -6.426
USER: RMSD 3.157569
USER: SEED 168
USER: STATUS no improvement in best in 4 clusters for 5 generations
USER: GENES 26
USER: genes 0 Translation |==|  0.46726 0.48045 0.43735
USER: genes 1 Rotation |==|  0.38593 0.44575 0.46596 0.98258
USER: genes 2 Torsion [CB]-CA--N-[C] |==|  0.51669
USER: genes 3 Torsion [N]-C--CA-[N] |==|  0.41974
USER: genes 4 Torsion [C]-CA--N-[C] |==|  0.81774
USER: genes 5 Torsion [N]-C--CA-[N] |==|  0.83996
USER: genes 6 Torsion [C]-CA--CB-[CG] |==|  0.19248
USER: genes 7 Torsion [CA]-CB--CG-[CD] |==|  0.12355
USER: genes 8 Torsion [CB]-CG--CD-[OE1] |==|  0.21410
USER: genes 9 Torsion [C]-CA--CB-[CG2] |==|  0.55186
USER: genes 10 Torsion [CA]-CB--CG1-[CD1] |==|  0.80098
USER: genes 11 Torsion [N]-CA--CB-[CG] |==|  0.70495
USER: genes 12 Torsion [CA]-CB--CG-[CD] |==|  0.69624
USER: genes 13 Torsion [CB]-CG--CD-[CE] |==|  0.41668
USER: genes 14 Torsion [CG]-CD--CE-[NZ] |==|  0.43832
USER: genes 15 Torsion [CD]-CE--NZ-[HZ1] |==|  0.48839
USER: genes 16 Torsion [N]-CA--C-[N] |==|  0.26358
USER: genes 17 Torsion [C]-N--CA-[C] |==|  0.85808
USER: genes 18 Torsion [N]-CA--CB-[CG] |==|  0.81358
USER: genes 19 Torsion [CA]-CB--CG-[OD1] |==|  0.87670
USER: genes 20 Torsion [N]-CA--C-[N] |==|  0.37799
USER: genes 21 Torsion [N]-CA--C-[O] |==|  0.43893
USER: genes 22 Torsion [C]-N--CA-[C] |==|  0.17921
USER: genes 23 Torsion [N]-CA--CB-[CG2] |==|  0.39709
USER: genes 24 Torsion [CA]-CB--CG1-[CD1] |==|  0.03724
USER: genes 25 Torsion [N]-CA--C-[O] |==|  0.14026
ROOT
ATOM      1  CA  LYS C   4     -38.333  26.208 -23.381  1.00 55.66 LIG 0.18  C 
ENDROOT
BRANCH 1 2
ATOM      2  N   LYS C   4     -39.290  26.233 -22.280  1.00 52.22 LIG-0.35  N 
ATOM      3  C   ILE C   3     -39.058  25.630 -21.117  1.00 49.48 LIG 0.24  C 
ATOM      4 O    ILE C   3     -38.039  24.981 -20.885  1.00 46.52 LIG-0.27  OA
ATOM      5 H    LYS C   4     -40.010  26.669 -22.454  1.00 52.22 LIG 0.16  HD
BRANCH 3 6
ATOM      6  CA  ILE C   3     -40.151  25.776 -20.061  1.00 52.28 LIG 0.18  C 
BRANCH 6 7
ATOM      7  N   ILE C   3     -40.158  24.619 -19.175  1.00 58.50 LIG-0.34  N 
ATOM      8 H    ILE C   3     -39.944  24.794 -18.359  1.00 58.50 LIG 0.16  HD
ATOM      9  C   GLN C   2     -40.474  23.406 -19.618  1.00 66.26 LIG 0.26  C 
ATOM     10 O    GLN C   2     -40.773  23.183 -20.791  1.00 73.27 LIG-0.27  OA
BRANCH 9 11
ATOM     11  CA  GLN C   2     -40.443  22.278 -18.593  1.00 65.71 LIG 0.40  C 
ATOM     12  N   GLN C   2     -39.124  22.175 -17.979  1.00 61.11 LIG 0.61  N 
BRANCH 11 13
ATOM     13  CB  GLN C   2     -41.516  22.508 -17.526  1.00 69.09 LIG 0.06  C 
BRANCH 13 14
ATOM     14  CG  GLN C   2     -42.948  22.343 -18.031  1.00 69.91 LIG 0.10  C 
BRANCH 14 15
ATOM     15  CD  GLN C   2     -43.127  21.116 -18.905  1.00 70.47 LIG 0.21  C 
ATOM     16 OE1  GLN C   2     -43.202  19.993 -18.409  1.00 73.69 LIG-0.27  OA
ATOM     17  NE2 GLN C   2     -43.197  21.328 -20.215  1.00 67.69 LIG-0.37  N 
ATOM     18 21HE GLN C   2     -43.141  22.128 -20.525  1.00 67.69 LIG 0.16  HD
ATOM     19 22HE GLN C   2     -43.299  20.664 -20.752  1.00 67.69 LIG 0.16  HD
ENDBRANCH 14 15
ENDBRANCH 13 14
ENDBRANCH 11 13
ENDBRANCH 9 11
ENDBRANCH 6 7
BRANCH 6 20
ATOM     20  CB  ILE C   3     -39.942  27.090 -19.281  1.00 50.18 LIG 0.01  C 
ATOM     21  CG2 ILE C   3     -40.705  27.049 -17.952  1.00 50.82 LIG 0.01  C 
BRANCH 20 22
ATOM     22  CG1 ILE C   3     -38.446  27.331 -19.053  1.00 50.01 LIG 0.00  C 
ATOM     23  CD1 ILE C   3     -37.806  26.402 -18.043  1.00 50.06 LIG 0.01  C 
ENDBRANCH 20 22
ENDBRANCH 6 20
ENDBRANCH 3 6
ENDBRANCH 1 2
BRANCH 1 24
ATOM     24  CB  LYS C   4     -38.812  27.105 -24.524  1.00 61.43 LIG 0.04  C 
BRANCH 24 25
ATOM     25  CG  LYS C   4     -39.339  26.357 -25.737  1.00 66.58 LIG 0.00  C 
BRANCH 25 26
ATOM     26  CD  LYS C   4     -38.382  26.485 -26.913  1.00 73.00 LIG 0.03  C 
BRANCH 26 27
ATOM     27  CE  LYS C   4     -38.436  25.267 -27.821  1.00 75.18 LIG 0.23  C 
BRANCH 27 28
ATOM     28  NZ  LYS C   4     -37.947  25.578 -29.193  1.00 76.64 LIG-0.08  N 
ATOM     29 HZ3  LYS C   4     -37.124  25.913 -29.146  1.00 76.64 LIG 0.27  HD
ATOM     30 HZ2  LYS C   4     -38.488  26.173 -29.574  1.00 76.64 LIG 0.27  HD
ATOM     31 HZ1  LYS C   4     -37.935  24.833 -29.680  1.00 76.64 LIG 0.27  HD
ENDBRANCH 27 28
ENDBRANCH 26 27
ENDBRANCH 25 26
ENDBRANCH 24 25
ENDBRANCH 1 24
BRANCH 1 32
ATOM     32  C   LYS C   4     -36.959  26.652 -22.888  1.00 57.21 LIG 0.24  C 
ATOM     33  N   ASN C   5     -36.121  25.684 -22.530  1.00 57.25 LIG-0.35  N 
ATOM     34 H    ASN C   5     -36.313  24.846 -22.565  1.00 57.25 LIG 0.16  HD
ATOM     35 O    LYS C   4     -36.667  27.848 -22.833  1.00 57.68 LIG-0.27  OA
BRANCH 33 36
ATOM     36  CA  ASN C   5     -34.780  25.974 -22.039  1.00 58.26 LIG 0.18  C 
BRANCH 36 37
ATOM     37  CB  ASN C   5     -33.989  24.678 -21.861  1.00 53.49 LIG 0.14  C 
BRANCH 37 38
ATOM     38  CG  ASN C   5     -34.543  23.806 -20.751  1.00 47.90 LIG 0.22  C 
ATOM     39 OD1  ASN C   5     -34.869  24.292 -19.668  1.00 45.37 LIG-0.27  OA
ATOM     40  ND2 ASN C   5     -34.651  22.510 -21.015  1.00 45.09 LIG-0.37  N 
ATOM     41 22HD ASN C   5     -34.414  22.206 -21.784  1.00 45.09 LIG 0.16  HD
ATOM     42 21HD ASN C   5     -34.960  21.974 -20.417  1.00 45.09 LIG 0.16  HD
ENDBRANCH 37 38
ENDBRANCH 36 37
BRANCH 36 43
ATOM     43  C   ASN C   5     -34.029  26.912 -22.977  1.00 62.82 LIG 0.24  C 
ATOM     44 O    ASN C   5     -34.069  26.737 -24.200  1.00 59.04 LIG-0.27  OA
ATOM     45  N   PRO C   6     -33.350  27.902 -22.406  1.00 69.97 LIG-0.34  N 
ATOM     46  CA  PRO C   6     -32.586  28.871 -23.200  1.00 73.90 LIG 0.18  C 
ATOM     47  CD  PRO C   6     -33.349  28.235 -20.971  1.00 74.49 LIG 0.13  C 
ATOM     48  CB  PRO C   6     -31.816  29.659 -22.140  1.00 75.59 LIG 0.04  C 
ATOM     49  CG  PRO C   6     -32.664  29.572 -20.918  1.00 76.33 LIG 0.02  C 
BRANCH 46 50
ATOM     50  C   PRO C   6     -31.618  28.193 -24.166  1.00 72.73 LIG 0.24  C 
ATOM     51 O    PRO C   6     -31.212  28.800 -25.158  1.00 74.17 LIG-0.27  OA
ATOM     52  N   ILE C   7     -31.258  26.948 -23.874  1.00 69.55 LIG-0.35  N 
ATOM     53 H    ILE C   7     -31.538  26.517 -23.184  1.00 69.55 LIG 0.16  HD
BRANCH 52 54
ATOM     54  CA  ILE C   7     -30.338  26.199 -24.721  1.00 67.58 LIG 0.17  C 
BRANCH 54 55
ATOM     55  CB  ILE C   7     -30.855  26.111 -26.168  1.00 70.68 LIG 0.01  C 
ATOM     56  CG2 ILE C   7     -29.698  26.205 -27.151  1.00 70.33 LIG 0.01  C 
BRANCH 55 57
ATOM     57  CG1 ILE C   7     -31.626  24.807 -26.378  1.00 72.59 LIG 0.00  C 
ATOM     58  CD1 ILE C   7     -31.973  24.092 -25.090  1.00 73.15 LIG 0.01  C 
ENDBRANCH 55 57
ENDBRANCH 54 55
BRANCH 54 59
ATOM     59  C   ILE C   7     -28.959  26.850 -24.730  1.00 63.70 LIG 0.22  C 
ATOM     60 O    ILE C   7     -28.393  27.142 -23.676  1.00 60.54 LIG-0.29  OA
ENDBRANCH 54 59
ENDBRANCH 52 54
ENDBRANCH 46 50
ENDBRANCH 36 43
ENDBRANCH 33 36
ENDBRANCH 1 32
TORSDOF 24
ENDMDL
MODEL 7
USER: ADFR SOLUTION from run 183
USER: SCORE 16.868474 LL:  -4.657 LR: -13.516 RR:   0.000 FEB:  -6.357
USER: RMSD 3.737373
USER: SEED 182
USER: STATUS no improvement in best in 6 clusters for 5 generations
USER: GENES 26
USER: genes 0 Translation |==|  0.48234 0.49641 0.40694
USER: genes 1 Rotation |==|  0.50452 0.45188 0.49931 0.99766
USER: genes 2 Torsion [CB]-CA--N-[C] |==|  0.23879
USER: genes 3 Torsion [N]-C--CA-[N] |==|  0.91942
USER: genes 4 Torsion [C]-CA--N-[C] |==|  0.84240
USER: genes 5 Torsion [N]-C--CA-[N] |==|  0.81024
USER: genes 6 Torsion [C]-CA--CB-[CG] |==|  0.10058
USER: genes 7 Torsion [CA]-CB--CG-[CD] |==|  0.60322
USER: genes 8 Torsion [CB]-CG--CD-[OE1] |==|  0.97016
USER: genes 9 Torsion [C]-CA--CB-[CG2] |==|  0.11075
USER: genes 10 Torsion [CA]-CB--CG1-[CD1] |==|  0.91177
USER: genes 11 Torsion [N]-CA--CB-[CG] |==|  0.70072
USER: genes 12 Torsion [CA]-CB--CG-[CD] |==|  0.86529
USER: genes 13 Torsion [CB]-CG--CD-[CE] |==|  0.51589
USER: genes 14 Torsion [CG]-CD--CE-[NZ] |==|  0.56479
USER: genes 15 Torsion [CD]-CE--NZ-[HZ1] |==|  0.39296
USER: genes 16 Torsion [N]-CA--C-[N] |==|  0.18586
USER: genes 17 Torsion [C]-N--CA-[C] |==|  0.85333
USER: genes 18 Torsion [N]-CA--CB-[CG] |==|  0.81816
USER: genes 19 Torsion [CA]-CB--CG-[OD1] |==|  0.86110
USER: genes 20 Torsion [N]-CA--C-[N] |==|  0.40154
USER: genes 21 Torsion [N]-CA--C-[O] |==|  0.43645
USER: genes 22 Torsion [C]-N--CA-[C] |==|  0.17363
USER: genes 23 Torsion [N]-CA--CB-[CG2] |==|  0.40065
USER: genes 24 Torsion [CA]-CB--CG1-[CD1] |==|  0.05803
USER: genes 25 Torsion [N]-CA--C-[O] |==|  0.14068
ROOT
ATOM      1  CA  LYS C   4     -37.982  26.507 -23.974  1.00 55.66 LIG 0.18  C 
ENDROOT
BRANCH 1 2
ATOM      2  N   LYS C   4     -38.853  25.870 -22.991  1.00 52.22 LIG-0.35  N 
ATOM      3  C   ILE C   3     -39.757  24.953 -23.325  1.00 49.48 LIG 0.24  C 
ATOM      4 O    ILE C   3     -39.954  24.590 -24.484  1.00 46.52 LIG-0.27  OA
ATOM      5 H    LYS C   4     -38.727  26.142 -22.185  1.00 52.22 LIG 0.16  HD
BRANCH 3 6
ATOM      6  CA  ILE C   3     -40.567  24.367 -22.172  1.00 52.28 LIG 0.18  C 
BRANCH 6 7
ATOM      7  N   ILE C   3     -39.788  24.388 -20.940  1.00 58.50 LIG-0.34  N 
ATOM      8 H    ILE C   3     -40.161  24.810 -20.290  1.00 58.50 LIG 0.16  HD
ATOM      9  C   GLN C   2     -38.601  23.794 -20.860  1.00 66.26 LIG 0.26  C 
ATOM     10 O    GLN C   2     -38.088  23.199 -21.806  1.00 73.27 LIG-0.27  OA
BRANCH 9 11
ATOM     11  CA  GLN C   2     -37.884  23.890 -19.517  1.00 65.71 LIG 0.40  C 
ATOM     12  N   GLN C   2     -37.464  25.260 -19.252  1.00 61.11 LIG 0.61  N 
BRANCH 11 13
ATOM     13  CB  GLN C   2     -38.795  23.380 -18.397  1.00 69.09 LIG 0.06  C 
BRANCH 13 14
ATOM     14  CG  GLN C   2     -39.679  22.200 -18.796  1.00 69.91 LIG 0.10  C 
BRANCH 14 15
ATOM     15  CD  GLN C   2     -41.060  22.261 -18.173  1.00 70.47 LIG 0.21  C 
ATOM     16 OE1  GLN C   2     -41.318  23.072 -17.285  1.00 73.69 LIG-0.27  OA
ATOM     17  NE2 GLN C   2     -41.959  21.401 -18.641  1.00 67.69 LIG-0.37  N 
ATOM     18 21HE GLN C   2     -41.742  20.848 -19.263  1.00 67.69 LIG 0.16  HD
ATOM     19 22HE GLN C   2     -42.757  21.396 -18.321  1.00 67.69 LIG 0.16  HD
ENDBRANCH 14 15
ENDBRANCH 13 14
ENDBRANCH 11 13
ENDBRANCH 9 11
ENDBRANCH 6 7
BRANCH 6 20
ATOM     20  CB  ILE C   3     -41.890  25.146 -22.022  1.00 50.18 LIG 0.01  C 
ATOM     21  CG2 ILE C   3     -42.472  25.482 -23.399  1.00 50.82 LIG 0.01  C 
BRANCH 20 22
ATOM     22  CG1 ILE C   3     -42.883  24.333 -21.183  1.00 50.01 LIG 0.00  C 
ATOM     23  CD1 ILE C   3     -42.751  22.832 -21.331  1.00 50.06 LIG 0.01  C 
ENDBRANCH 20 22
ENDBRANCH 6 20
ENDBRANCH 3 6
ENDBRANCH 1 2
BRANCH 1 24
ATOM     24  CB  LYS C   4     -38.681  27.715 -24.601  1.00 61.43 LIG 0.04  C 
BRANCH 24 25
ATOM     25  CG  LYS C   4     -39.126  27.511 -26.040  1.00 66.58 LIG 0.00  C 
BRANCH 25 26
ATOM     26  CD  LYS C   4     -37.998  26.928 -26.880  1.00 73.00 LIG 0.03  C 
BRANCH 26 27
ATOM     27  CE  LYS C   4     -38.374  26.845 -28.351  1.00 75.18 LIG 0.23  C 
BRANCH 27 28
ATOM     28  NZ  LYS C   4     -37.572  25.815 -29.069  1.00 76.64 LIG-0.08  N 
ATOM     29 HZ3  LYS C   4     -37.250  25.227 -28.483  1.00 76.64 LIG 0.27  HD
ATOM     30 HZ2  LYS C   4     -36.898  26.208 -29.496  1.00 76.64 LIG 0.27  HD
ATOM     31 HZ1  LYS C   4     -38.090  25.392 -29.657  1.00 76.64 LIG 0.27  HD
ENDBRANCH 27 28
ENDBRANCH 26 27
ENDBRANCH 25 26
ENDBRANCH 24 25
ENDBRANCH 1 24
BRANCH 1 32
ATOM     32  C   LYS C   4     -36.671  26.926 -23.316  1.00 57.21 LIG 0.24  C 
ATOM     33  N   ASN C   5     -35.881  25.942 -22.899  1.00 57.25 LIG-0.35  N 
ATOM     34 H    ASN C   5     -36.069  25.107 -22.984  1.00 57.25 LIG 0.16  HD
ATOM     35 O    LYS C   4     -36.384  28.118 -23.188  1.00 57.68 LIG-0.27  OA
BRANCH 33 36
ATOM     36  CA  ASN C   5     -34.603  26.208 -22.252  1.00 58.26 LIG 0.18  C 
BRANCH 36 37
ATOM     37  CB  ASN C   5     -33.858  24.898 -21.992  1.00 53.49 LIG 0.14  C 
BRANCH 37 38
ATOM     38  CG  ASN C   5     -34.572  24.011 -20.991  1.00 47.90 LIG 0.22  C 
ATOM     39 OD1  ASN C   5     -34.953  24.458 -19.909  1.00 45.37 LIG-0.27  OA
ATOM     40  ND2 ASN C   5     -34.757  22.746 -21.348  1.00 45.09 LIG-0.37  N 
ATOM     41 22HD ASN C   5     -34.477  22.469 -22.112  1.00 45.09 LIG 0.16  HD
ATOM     42 21HD ASN C   5     -35.157  22.203 -20.814  1.00 45.09 LIG 0.16  HD
ENDBRANCH 37 38
ENDBRANCH 36 37
BRANCH 36 43
ATOM     43  C   ASN C   5     -33.732  27.139 -23.088  1.00 62.82 LIG 0.24  C 
ATOM     44 O    ASN C   5     -33.752  27.072 -24.322  1.00 59.04 LIG-0.27  OA
ATOM     45  N   PRO C   6     -32.975  28.002 -22.418  1.00 69.97 LIG-0.34  N 
ATOM     46  CA  PRO C   6     -32.093  28.951 -23.108  1.00 73.90 LIG 0.18  C 
ATOM     47  CD  PRO C   6     -32.985  28.212 -20.960  1.00 74.49 LIG 0.13  C 
ATOM     48  CB  PRO C   6     -31.282  29.563 -21.966  1.00 75.59 LIG 0.04  C 
ATOM     49  CG  PRO C   6     -32.171  29.462 -20.775  1.00 76.33 LIG 0.02  C 
BRANCH 46 50
ATOM     50  C   PRO C   6     -31.168  28.261 -24.107  1.00 72.73 LIG 0.24  C 
ATOM     51 O    PRO C   6     -30.686  28.900 -25.043  1.00 74.17 LIG-0.27  OA
ATOM     52  N   ILE C   7     -30.930  26.969 -23.905  1.00 69.55 LIG-0.35  N 
ATOM     53 H    ILE C   7     -31.264  26.515 -23.255  1.00 69.55 LIG 0.16  HD
BRANCH 52 54
ATOM     54  CA  ILE C   7     -30.062  26.203 -24.792  1.00 67.58 LIG 0.17  C 
BRANCH 54 55
ATOM     55  CB  ILE C   7     -30.579  26.232 -26.242  1.00 70.68 LIG 0.01  C 
ATOM     56  CG2 ILE C   7     -29.414  26.265 -27.219  1.00 70.33 LIG 0.01  C 
BRANCH 55 57
ATOM     57  CG1 ILE C   7     -31.466  25.015 -26.512  1.00 72.59 LIG 0.00  C 
ATOM     58  CD1 ILE C   7     -32.029  24.382 -25.258  1.00 73.15 LIG 0.01  C 
ENDBRANCH 55 57
ENDBRANCH 54 55
BRANCH 54 59
ATOM     59  C   ILE C   7     -28.641  26.754 -24.766  1.00 63.70 LIG 0.22  C 
ATOM     60 O    ILE C   7     -28.059  26.946 -23.698  1.00 60.54 LIG-0.29  OA
ENDBRANCH 54 59
ENDBRANCH 52 54
ENDBRANCH 46 50
ENDBRANCH 36 43
ENDBRANCH 33 36
ENDBRANCH 1 32
TORSDOF 24
ENDMDL
MODEL 8
USER: ADFR SOLUTION from run 183
USER: SCORE 16.736920 LL:  -4.740 LR: -13.387 RR:   0.000 FEB:  -6.228
USER: RMSD 3.780501
USER: SEED 182
USER: STATUS no improvement in best in 6 clusters for 5 generations
USER: GENES 26
USER: genes 0 Translation |==|  0.46369 0.50713 0.42892
USER: genes 1 Rotation |==|  0.34491 0.44464 0.42125 0.96549
USER: genes 2 Torsion [CB]-CA--N-[C] |==|  0.15556
USER: genes 3 Torsion [N]-C--CA-[N] |==|  0.89282
USER: genes 4 Torsion [C]-CA--N-[C] |==|  0.79174
USER: genes 5 Torsion [N]-C--CA-[N] |==|  0.38326
USER: genes 6 Torsion [C]-CA--CB-[CG] |==|  0.02721
USER: genes 7 Torsion [CA]-CB--CG-[CD] |==|  0.73746
USER: genes 8 Torsion [CB]-CG--CD-[OE1] |==|  0.55069
USER: genes 9 Torsion [C]-CA--CB-[CG2] |==|  0.44263
USER: genes 10 Torsion [CA]-CB--CG1-[CD1] |==|  0.69013
USER: genes 11 Torsion [N]-CA--CB-[CG] |==|  0.64648
USER: genes 12 Torsion [CA]-CB--CG-[CD] |==|  0.66491
USER: genes 13 Torsion [CB]-CG--CD-[CE] |==|  0.59546
USER: genes 14 Torsion [CG]-CD--CE-[NZ] |==|  0.67487
USER: genes 15 Torsion [CD]-CE--NZ-[HZ1] |==|  0.40523
USER: genes 16 Torsion [N]-CA--C-[N] |==|  0.29768
USER: genes 17 Torsion [C]-N--CA-[C] |==|  0.86655
USER: genes 18 Torsion [N]-CA--CB-[CG] |==|  0.77957
USER: genes 19 Torsion [CA]-CB--CG-[OD1] |==|  0.91060
USER: genes 20 Torsion [N]-CA--C-[N] |==|  0.36518
USER: genes 21 Torsion [N]-CA--C-[O] |==|  0.43574
USER: genes 22 Torsion [C]-N--CA-[C] |==|  0.17177
USER: genes 23 Torsion [N]-CA--CB-[CG2] |==|  0.38631
USER: genes 24 Torsion [CA]-CB--CG1-[CD1] |==|  0.06714
USER: genes 25 Torsion [N]-CA--C-[O] |==|  0.14119
ROOT
ATOM      1  CA  LYS C   4     -38.416  26.708 -23.545  1.00 55.66 LIG 0.18  C 
ENDROOT
BRANCH 1 2
ATOM      2  N   LYS C   4     -39.378  27.087 -22.516  1.00 52.22 LIG-0.35  N 
ATOM      3  C   ILE C   3     -40.693  27.003 -22.701  1.00 49.48 LIG 0.24  C 
ATOM      4 O    ILE C   3     -41.204  26.630 -23.757  1.00 46.52 LIG-0.27  OA
ATOM      5 H    LYS C   4     -39.018  27.367 -21.788  1.00 52.22 LIG 0.16  HD
BRANCH 3 6
ATOM      6  CA  ILE C   3     -41.560  27.413 -21.514  1.00 52.28 LIG 0.18  C 
BRANCH 6 7
ATOM      7  N   ILE C   3     -40.959  26.960 -20.265  1.00 58.50 LIG-0.34  N 
ATOM      8 H    ILE C   3     -40.586  27.583 -19.803  1.00 58.50 LIG 0.16  HD
ATOM      9  C   GLN C   2     -41.000  25.683 -19.897  1.00 66.26 LIG 0.26  C 
ATOM     10 O    GLN C   2     -41.537  24.810 -20.578  1.00 73.27 LIG-0.27  OA
BRANCH 9 11
ATOM     11  CA  GLN C   2     -40.333  25.337 -18.571  1.00 65.71 LIG 0.40  C 
ATOM     12  N   GLN C   2     -41.150  24.398 -17.812  1.00 61.11 LIG 0.61  N 
BRANCH 11 13
ATOM     13  CB  GLN C   2     -38.938  24.756 -18.819  1.00 69.09 LIG 0.06  C 
BRANCH 13 14
ATOM     14  CG  GLN C   2     -38.457  24.878 -20.264  1.00 69.91 LIG 0.10  C 
BRANCH 14 15
ATOM     15  CD  GLN C   2     -38.745  23.638 -21.088  1.00 70.47 LIG 0.21  C 
ATOM     16 OE1  GLN C   2     -38.149  23.427 -22.143  1.00 73.69 LIG-0.27  OA
ATOM     17  NE2 GLN C   2     -39.663  22.807 -20.605  1.00 67.69 LIG-0.37  N 
ATOM     18 21HE GLN C   2     -40.058  22.987 -19.863  1.00 67.69 LIG 0.16  HD
ATOM     19 22HE GLN C   2     -39.861  22.089 -21.035  1.00 67.69 LIG 0.16  HD
ENDBRANCH 14 15
ENDBRANCH 13 14
ENDBRANCH 11 13
ENDBRANCH 9 11
ENDBRANCH 6 7
BRANCH 6 20
ATOM     20  CB  ILE C   3     -41.763  28.941 -21.526  1.00 50.18 LIG 0.01  C 
ATOM     21  CG2 ILE C   3     -42.997  29.324 -20.701  1.00 50.82 LIG 0.01  C 
BRANCH 20 22
ATOM     22  CG1 ILE C   3     -40.505  29.640 -20.998  1.00 50.01 LIG 0.00  C 
ATOM     23  CD1 ILE C   3     -40.681  30.324 -19.658  1.00 50.06 LIG 0.01  C 
ENDBRANCH 20 22
ENDBRANCH 6 20
ENDBRANCH 3 6
ENDBRANCH 1 2
BRANCH 1 24
ATOM     24  CB  LYS C   4     -38.680  27.488 -24.834  1.00 61.43 LIG 0.04  C 
BRANCH 24 25
ATOM     25  CG  LYS C   4     -38.825  26.625 -26.077  1.00 66.58 LIG 0.00  C 
BRANCH 25 26
ATOM     26  CD  LYS C   4     -37.778  26.991 -27.119  1.00 73.00 LIG 0.03  C 
BRANCH 26 27
ATOM     27  CE  LYS C   4     -38.315  26.848 -28.534  1.00 75.18 LIG 0.23  C 
BRANCH 27 28
ATOM     28  NZ  LYS C   4     -37.572  25.811 -29.305  1.00 76.64 LIG-0.08  N 
ATOM     29 HZ3  LYS C   4     -37.223  25.216 -28.742  1.00 76.64 LIG 0.27  HD
ATOM     30 HZ2  LYS C   4     -36.919  26.198 -29.770  1.00 76.64 LIG 0.27  HD
ATOM     31 HZ1  LYS C   4     -38.129  25.399 -29.862  1.00 76.64 LIG 0.27  HD
ENDBRANCH 27 28
ENDBRANCH 26 27
ENDBRANCH 25 26
ENDBRANCH 24 25
ENDBRANCH 1 24
BRANCH 1 32
ATOM     32  C   LYS C   4     -36.995  26.956 -23.048  1.00 57.21 LIG 0.24  C 
ATOM     33  N   ASN C   5     -36.283  25.877 -22.739  1.00 57.25 LIG-0.35  N 
ATOM     34 H    ASN C   5     -36.578  25.071 -22.806  1.00 57.25 LIG 0.16  HD
ATOM     35 O    LYS C   4     -36.555  28.103 -22.947  1.00 57.68 LIG-0.27  OA
BRANCH 33 36
ATOM     36  CA  ASN C   5     -34.914  25.977 -22.250  1.00 58.26 LIG 0.18  C 
BRANCH 36 37
ATOM     37  CB  ASN C   5     -34.265  24.593 -22.205  1.00 53.49 LIG 0.14  C 
BRANCH 37 38
ATOM     38  CG  ASN C   5     -34.686  23.792 -20.988  1.00 47.90 LIG 0.22  C 
ATOM     39 OD1  ASN C   5     -34.942  24.351 -19.921  1.00 45.37 LIG-0.27  OA
ATOM     40  ND2 ASN C   5     -34.758  22.476 -21.141  1.00 45.09 LIG-0.37  N 
ATOM     41 22HD ASN C   5     -34.572  22.120 -21.901  1.00 45.09 LIG 0.16  HD
ATOM     42 21HD ASN C   5     -34.992  21.978 -20.479  1.00 45.09 LIG 0.16  HD
ENDBRANCH 37 38
ENDBRANCH 36 37
BRANCH 36 43
ATOM     43  C   ASN C   5     -34.075  26.912 -23.113  1.00 62.82 LIG 0.24  C 
ATOM     44 O    ASN C   5     -34.081  26.798 -24.345  1.00 59.04 LIG-0.27  OA
ATOM     45  N   PRO C   6     -33.360  27.829 -22.471  1.00 69.97 LIG-0.34  N 
ATOM     46  CA  PRO C   6     -32.512  28.787 -23.189  1.00 73.90 LIG 0.18  C 
ATOM     47  CD  PRO C   6     -33.392  28.093 -21.022  1.00 74.49 LIG 0.13  C 
ATOM     48  CB  PRO C   6     -31.737  29.475 -22.065  1.00 75.59 LIG 0.04  C 
ATOM     49  CG  PRO C   6     -32.631  29.381 -20.878  1.00 76.33 LIG 0.02  C 
BRANCH 46 50
ATOM     50  C   PRO C   6     -31.551  28.100 -24.155  1.00 72.73 LIG 0.24  C 
ATOM     51 O    PRO C   6     -31.091  28.722 -25.113  1.00 74.17 LIG-0.27  OA
ATOM     52  N   ILE C   7     -31.257  26.829 -23.901  1.00 69.55 LIG-0.35  N 
ATOM     53 H    ILE C   7     -31.575  26.387 -23.235  1.00 69.55 LIG 0.16  HD
BRANCH 52 54
ATOM     54  CA  ILE C   7     -30.351  26.068 -24.752  1.00 67.58 LIG 0.17  C 
BRANCH 54 55
ATOM     55  CB  ILE C   7     -30.867  26.002 -26.200  1.00 70.68 LIG 0.01  C 
ATOM     56  CG2 ILE C   7     -29.717  26.176 -27.181  1.00 70.33 LIG 0.01  C 
BRANCH 55 57
ATOM     57  CG1 ILE C   7     -31.581  24.671 -26.449  1.00 72.59 LIG 0.00  C 
ATOM     58  CD1 ILE C   7     -32.121  24.028 -25.190  1.00 73.15 LIG 0.01  C 
ENDBRANCH 55 57
ENDBRANCH 54 55
BRANCH 54 59
ATOM     59  C   ILE C   7     -28.959  26.691 -24.753  1.00 63.70 LIG 0.22  C 
ATOM     60 O    ILE C   7     -28.387  26.959 -23.697  1.00 60.54 LIG-0.29  OA
ENDBRANCH 54 59
ENDBRANCH 52 54
ENDBRANCH 46 50
ENDBRANCH 36 43
ENDBRANCH 33 36
ENDBRANCH 1 32
TORSDOF 24
ENDMDL
