MODEL 1
USER: ADFR SOLUTION from run 176
USER: SCORE 17.316322 LL:  -4.483 LR: -12.911 RR:   0.000 FEB:  -9.332
USER: RMSD 1.181625
USER: SEED 175
USER: STATUS 1 or 2 clusters left
USER: GENES 14
USER: genes 0 Translation |==|  0.51995 0.49863 0.47420
USER: genes 1 Rotation |==|  0.47841 0.49056 0.54031 0.99781
USER: genes 2 Torsion [N]-CA--C-[O] |==|  0.61112
USER: genes 3 Torsion [C]-N--CA-[CB] |==|  0.23139
USER: genes 4 Torsion [N]-CA--CB-[CG] |==|  0.09046
USER: genes 5 Torsion [CA]-CB--CG-[CD2] |==|  0.76903
USER: genes 6 Torsion [N]-CA--C-[O] |==|  0.86801
USER: genes 7 Torsion [N]-C--CA-[N] |==|  0.34447
USER: genes 8 Torsion [C]-CA--CB-[CG2] |==|  0.05414
USER: genes 9 Torsion [CA]-CB--CG1-[CD1] |==|  0.61181
USER: genes 10 Torsion [C]-CA--N-[C] |==|  0.84437
USER: genes 11 Torsion [N]-C--CA-[N] |==|  0.03655
USER: genes 12 Torsion [C]-CA--CB-[CG] |==|  0.80215
USER: genes 13 Torsion [CA]-CB--CG-[OD2] |==|  0.89475
ROOT
ATOM      1  C   ILE D 175      86.042  44.318  30.518  1.00 46.12 LIG 0.24  C 
ATOM      2 O    ILE D 175      87.197  44.534  30.137  1.00 42.41 LIG-0.27  OA
ATOM      3  N   PRO D 176      85.610  43.082  30.835  1.00 41.83 LIG-0.34  N 
ATOM      4  CA  PRO D 176      86.544  41.957  30.911  1.00 39.90 LIG 0.18  C 
ATOM      5  CB  PRO D 176      85.825  41.013  31.869  1.00 38.91 LIG 0.04  C 
ATOM      6  CG  PRO D 176      84.387  41.194  31.505  1.00 40.22 LIG 0.02  C 
ATOM      7  CD  PRO D 176      84.227  42.641  31.099  1.00 41.02 LIG 0.13  C 
ENDROOT
BRANCH 4 8
ATOM      8  C   PRO D 176      86.810  41.272  29.556  1.00 41.09 LIG 0.24  C 
ATOM      9  N   PHE D 177      86.928  42.064  28.496  1.00 41.46 LIG-0.34  N 
ATOM     10 H    PHE D 177      86.780  42.912  28.513  1.00 41.46 LIG 0.16  HD
ATOM     11 O    PRO D 176      86.903  40.036  29.479  1.00 40.08 LIG-0.27  OA
BRANCH 9 12
ATOM     12  CA  PHE D 177      87.326  41.551  27.189  1.00 42.13 LIG 0.19  C 
BRANCH 12 13
ATOM     13  CB  PHE D 177      86.120  40.973  26.438  1.00 40.75 LIG 0.07  C 
BRANCH 13 14
ATOM     14  CG  PHE D 177      84.821  41.673  26.730  1.00 38.35 LIG-0.06  A 
ATOM     15  CD1 PHE D 177      84.327  42.647  25.865  1.00 38.94 LIG 0.01  A 
ATOM     16  CE1 PHE D 177      83.129  43.289  26.132  1.00 37.83 LIG 0.00  A 
ATOM     17  CZ  PHE D 177      82.402  42.954  27.259  1.00 37.53 LIG 0.00  A 
ATOM     18  CE2 PHE D 177      82.874  41.980  28.121  1.00 36.58 LIG 0.00  A 
ATOM     19  CD2 PHE D 177      84.076  41.344  27.855  1.00 37.89 LIG 0.01  A 
ENDBRANCH 13 14
ENDBRANCH 12 13
BRANCH 12 20
ATOM     20  C   PHE D 177      87.981  42.659  26.380  1.00 42.35 LIG 0.20  C 
ATOM     21 OXT  PHE D 177      89.037  42.466  25.789  1.00 44.55 LIG-0.65  OA
ATOM     22 O    PHE D 177      87.461  43.772  26.296  1.00 42.35 LIG-0.65  OA
ENDBRANCH 12 20
ENDBRANCH 9 12
ENDBRANCH 4 8
BRANCH 1 23
ATOM     23  CA  ILE D 175      85.041  45.485  30.669  1.00 50.15 LIG 0.18  C 
BRANCH 23 24
ATOM     24  CB  ILE D 175      84.624  46.092  29.304  1.00 52.56 LIG 0.01  C 
ATOM     25  CG2 ILE D 175      84.900  45.136  28.144  1.00 53.60 LIG 0.01  C 
BRANCH 24 26
ATOM     26  CG1 ILE D 175      83.147  46.514  29.326  1.00 53.43 LIG 0.00  C 
ATOM     27  CD1 ILE D 175      82.401  46.202  28.044  1.00 54.83 LIG 0.01  C 
ENDBRANCH 24 26
ENDBRANCH 23 24
BRANCH 23 28
ATOM     28  N   ILE D 175      85.643  46.481  31.555  1.00 52.48 LIG-0.34  N 
ATOM     29 H    ILE D 175      85.701  47.271  31.220  1.00 52.48 LIG 0.16  HD
ATOM     30  C   ASP D 174      86.056  46.153  32.778  1.00 53.52 LIG 0.26  C 
ATOM     31 O    ASP D 174      85.751  45.091  33.319  1.00 50.42 LIG-0.27  OA
BRANCH 30 32
ATOM     32  CA  ASP D 174      86.893  47.182  33.543  1.00 56.25 LIG 0.41  C 
ATOM     33  N   ASP D 174      86.888  48.556  32.944  1.00 55.41 LIG 0.61  N 
BRANCH 32 34
ATOM     34  CB  ASP D 174      86.415  47.209  34.991  1.00 59.33 LIG 0.16  C 
BRANCH 34 35
ATOM     35  CG  ASP D 174      85.045  47.849  35.130  1.00 62.66 LIG 0.17  C 
ATOM     36 OD2  ASP D 174      84.763  48.838  34.415  1.00 62.95 LIG-0.65  OA
ATOM     37 OD1  ASP D 174      84.243  47.341  35.947  1.00 63.24 LIG-0.65  OA
ENDBRANCH 34 35
ENDBRANCH 32 34
ENDBRANCH 30 32
ENDBRANCH 23 28
ENDBRANCH 1 23
TORSDOF 12
ENDMDL
