MODEL 1
USER: ADFR SOLUTION from run 135
USER: SCORE 27.803255 LL:  -3.652 LR: -24.545 RR:   0.000 FEB: -15.000
USER: RMSD 4.046868
USER: SEED 134
USER: STATUS no improvement in best in 4 clusters for 5 generations
USER: GENES 34
USER: genes 0 Translation |==|  0.56969 0.58354 0.50399
USER: genes 1 Rotation |==|  0.45528 0.44873 0.44850 0.99267
USER: genes 2 Torsion [C]-CA--N-[C] |==|  0.77338
USER: genes 3 Torsion [N]-C--CA-[N] |==|  0.31581
USER: genes 4 Torsion [C]-CA--N-[C] |==|  0.75830
USER: genes 5 Torsion [N]-C--CA-[N] |==|  0.84884
USER: genes 6 Torsion [C]-CA--CB-[CG] |==|  0.78416
USER: genes 7 Torsion [CA]-CB--CG-[CD] |==|  0.28334
USER: genes 8 Torsion [CB]-CG--CD-[NE] |==|  0.43964
USER: genes 9 Torsion [CG]-CD--NE-[HE] |==|  0.73457
USER: genes 10 Torsion [C]-CA--CB-[CG] |==|  0.46847
USER: genes 11 Torsion [CA]-CB--CG-[CD] |==|  0.63077
USER: genes 12 Torsion [CB]-CG--CD-[NE] |==|  0.25426
USER: genes 13 Torsion [CG]-CD--NE-[CZ] |==|  0.17327
USER: genes 14 Torsion [N]-CA--C-[N] |==|  0.35206
USER: genes 15 Torsion [C]-N--CA-[C] |==|  0.83721
USER: genes 16 Torsion [N]-CA--CB-[CG] |==|  0.76723
USER: genes 17 Torsion [CA]-CB--CG-[CD2] |==|  0.74173
USER: genes 18 Torsion [N]-CA--C-[N] |==|  0.38333
USER: genes 19 Torsion [N]-CA--C-[O] |==|  0.03727
USER: genes 20 Torsion [C]-N--CA-[CB] |==|  0.53892
USER: genes 21 Torsion [N]-CA--C-[N] |==|  0.45918
USER: genes 22 Torsion [C]-N--CA-[CB] |==|  0.46970
USER: genes 23 Torsion [N]-CA--C-[O] |==|  0.91883
USER: genes 24 Torsion [N]-CA--CB-[CG2] |==|  0.37782
USER: genes 25 Torsion [CA]-CB--CG1-[CD1] |==|  0.75083
USER: genes 26 Torsion [N]-CA--CB-[CG] |==|  0.13482
USER: genes 27 Torsion [CA]-CB--CG-[CD] |==|  0.74995
USER: genes 28 Torsion [CB]-CG--CD-[OE2] |==|  0.29570
USER: genes 29 Torsion [N]-CA--CB-[CG] |==|  0.87817
USER: genes 30 Torsion [CA]-CB--CG-[CD] |==|  0.42883
USER: genes 31 Torsion [CB]-CG--CD-[CE] |==|  0.63310
USER: genes 32 Torsion [CG]-CD--CE-[NZ] |==|  0.26613
USER: genes 33 Torsion [CD]-CE--NZ-[HZ2] |==|  0.97069
ROOT
ATOM      1  CA  LYS V 154      23.735  16.013 -64.908  1.00 29.23 LIG 0.18  C 
ENDROOT
BRANCH 1 2
ATOM      2  N   LYS V 154      23.177  17.312 -64.509  1.00 29.36 LIG-0.35  N 
ATOM      3 H    LYS V 154      22.732  17.292 -63.774  1.00 29.36 LIG 0.16  HD
ATOM      4  C   ARG V 153      23.353  18.420 -65.234  1.00 28.75 LIG 0.24  C 
ATOM      5 O    ARG V 153      24.113  18.489 -66.193  1.00 27.33 LIG-0.27  OA
BRANCH 4 6
ATOM      6  CA  ARG V 153      22.513  19.623 -64.843  1.00 29.80 LIG 0.18  C 
BRANCH 6 7
ATOM      7  N   ARG V 153      23.317  20.729 -64.318  1.00 31.02 LIG-0.35  N 
ATOM      8 H    ARG V 153      23.550  21.301 -64.916  1.00 31.02 LIG 0.16  HD
ATOM      9  C   ARG V 152      23.658  20.837 -63.028  1.00 33.76 LIG 0.26  C 
ATOM     10 O    ARG V 152      23.328  20.016 -62.160  1.00 32.85 LIG-0.27  OA
BRANCH 9 11
ATOM     11  CA  ARG V 152      24.528  22.058 -62.675  1.00 35.90 LIG 0.40  C 
ATOM     12  N   ARG V 152      25.764  22.130 -63.513  1.00 37.25 LIG 0.61  N 
BRANCH 11 13
ATOM     13  CB  ARG V 152      23.740  23.361 -62.805  1.00 38.16 LIG 0.05  C 
BRANCH 13 14
ATOM     14  CG  ARG V 152      23.584  23.809 -64.250  1.00 40.06 LIG 0.02  C 
BRANCH 14 15
ATOM     15  CD  ARG V 152      22.209  23.501 -64.813  1.00 42.07 LIG 0.14  C 
BRANCH 15 16
ATOM     16  NE  ARG V 152      21.871  24.342 -65.965  1.00 44.48 LIG-0.23  N 
ATOM     17  CZ  ARG V 152      22.218  24.106 -67.231  1.00 45.58 LIG 0.67  C 
ATOM     18  NH1 ARG V 152      22.929  23.033 -67.573  1.00 44.25 LIG-0.23  N 
ATOM     19  NH2 ARG V 152      21.847  24.962 -68.176  1.00 47.95 LIG-0.23  N 
ATOM     20 1HH1 ARG V 152      23.176  22.471 -66.971  1.00 44.25 LIG 0.17  HD
ATOM     21 2HH1 ARG V 152      23.141  22.902 -68.396  1.00 44.25 LIG 0.17  HD
ATOM     22 2HH2 ARG V 152      22.066  24.819 -68.995  1.00 47.95 LIG 0.17  HD
ATOM     23 1HH2 ARG V 152      21.389  25.660 -67.968  1.00 47.95 LIG 0.17  HD
ATOM     24 HE   ARG V 152      21.408  25.050 -65.810  1.00 44.48 LIG 0.18  HD
ENDBRANCH 15 16
ENDBRANCH 14 15
ENDBRANCH 13 14
ENDBRANCH 11 13
ENDBRANCH 9 11
ENDBRANCH 6 7
BRANCH 6 25
ATOM     25  CB  ARG V 153      21.718  20.060 -66.093  1.00 29.44 LIG 0.04  C 
BRANCH 25 26
ATOM     26  CG  ARG V 153      20.633  21.074 -65.799  1.00 30.46 LIG 0.02  C 
BRANCH 26 27
ATOM     27  CD  ARG V 153      19.299  20.730 -66.447  1.00 30.98 LIG 0.14  C 
BRANCH 27 28
ATOM     28  NE  ARG V 153      18.521  19.944 -65.503  1.00 31.91 LIG-0.23  N 
ATOM     29  CZ  ARG V 153      18.113  20.384 -64.316  1.00 32.21 LIG 0.67  C 
ATOM     30  NH2 ARG V 153      18.356  21.631 -63.910  1.00 31.04 LIG-0.23  N 
ATOM     31  NH1 ARG V 153      17.430  19.569 -63.534  1.00 34.14 LIG-0.23  N 
ATOM     32 2HH2 ARG V 153      18.082  21.893 -63.138  1.00 31.04 LIG 0.17  HD
ATOM     33 1HH2 ARG V 153      18.786  22.173 -64.420  1.00 31.04 LIG 0.17  HD
ATOM     34 2HH1 ARG V 153      17.159  19.839 -62.763  1.00 34.14 LIG 0.17  HD
ATOM     35 1HH1 ARG V 153      17.256  18.768 -63.795  1.00 34.14 LIG 0.17  HD
ATOM     36 HE   ARG V 153      18.311  19.141 -65.727  1.00 31.91 LIG 0.18  HD
ENDBRANCH 27 28
ENDBRANCH 26 27
ENDBRANCH 25 26
ENDBRANCH 6 25
ENDBRANCH 4 6
ENDBRANCH 1 2
BRANCH 1 37
ATOM     37  C   LYS V 154      22.876  15.286 -65.955  1.00 29.43 LIG 0.24  C 
ATOM     38 O    LYS V 154      21.682  15.044 -65.764  1.00 29.02 LIG-0.27  OA
ATOM     39  N   LEU V 155      23.526  14.904 -67.046  1.00 29.02 LIG-0.35  N 
ATOM     40 H    LEU V 155      24.352  15.094 -67.196  1.00 29.02 LIG 0.16  HD
BRANCH 39 41
ATOM     41  CA  LEU V 155      22.900  14.120 -68.101  1.00 29.55 LIG 0.18  C 
BRANCH 41 42
ATOM     42  CB  LEU V 155      23.941  13.847 -69.186  1.00 29.70 LIG 0.04  C 
BRANCH 42 43
ATOM     43  CG  LEU V 155      24.094  14.985 -70.196  1.00 30.04 LIG-0.02  C 
ATOM     44  CD1 LEU V 155      25.543  15.157 -70.647  1.00 30.27 LIG 0.01  C 
ATOM     45  CD2 LEU V 155      23.178  14.713 -71.381  1.00 30.44 LIG 0.01  C 
ENDBRANCH 42 43
ENDBRANCH 41 42
BRANCH 41 46
ATOM     46  C   LEU V 155      22.352  12.782 -67.582  1.00 29.88 LIG 0.24  C 
ATOM     47  N   PRO V 156      21.142  12.382 -68.029  1.00 30.63 LIG-0.34  N 
ATOM     48  CD  PRO V 156      20.097  13.137 -68.747  1.00 31.41 LIG 0.13  C 
ATOM     49  CA  PRO V 156      20.698  11.044 -67.668  1.00 30.89 LIG 0.18  C 
ATOM     50  CG  PRO V 156      19.084  12.081 -69.110  1.00 32.36 LIG 0.02  C 
ATOM     51  CB  PRO V 156      19.207  11.056 -68.033  1.00 32.27 LIG 0.04  C 
ATOM     52 O    LEU V 155      23.011  12.117 -66.779  1.00 29.02 LIG-0.27  OA
BRANCH 49 53
ATOM     53  C   PRO V 156      21.445   9.980 -68.462  1.00 31.44 LIG 0.24  C 
ATOM     54 O    PRO V 156      22.460  10.275 -69.095  1.00 31.00 LIG-0.27  OA
ATOM     55  N   GLU V 157      20.953   8.746 -68.395  1.00 32.40 LIG-0.35  N 
ATOM     56 H    GLU V 157      20.336   8.511 -67.843  1.00 32.40 LIG 0.16  HD
BRANCH 55 57
ATOM     57  CA  GLU V 157      21.419   7.663 -69.263  1.00 33.20 LIG 0.18  C 
BRANCH 57 58
ATOM     58  C   GLU V 157      21.494   8.147 -70.704  1.00 33.95 LIG 0.24  C 
ATOM     59 O    GLU V 157      20.926   9.181 -71.041  1.00 33.71 LIG-0.27  OA
ATOM     60  N   ILE V 158      22.177   7.384 -71.547  1.00 34.74 LIG-0.35  N 
ATOM     61 H    ILE V 158      22.584   6.663 -71.314  1.00 34.74 LIG 0.16  HD
BRANCH 60 62
ATOM     62  CA  ILE V 158      22.301   7.706 -72.966  1.00 36.41 LIG 0.17  C 
BRANCH 62 63
ATOM     63  C   ILE V 158      20.928   7.569 -73.638  1.00 36.37 LIG 0.22  C 
ATOM     64 O    ILE V 158      20.078   6.779 -73.226  1.00 37.57 LIG-0.29  OA
ENDBRANCH 62 63
BRANCH 62 65
ATOM     65  CB  ILE V 158      23.363   6.807 -73.638  1.00 38.09 LIG 0.01  C 
ATOM     66  CG2 ILE V 158      22.859   6.296 -74.979  1.00 39.83 LIG 0.01  C 
BRANCH 65 67
ATOM     67  CG1 ILE V 158      24.671   7.582 -73.841  1.00 37.40 LIG 0.00  C 
ATOM     68  CD1 ILE V 158      24.754   8.312 -75.163  1.00 39.06 LIG 0.01  C 
ENDBRANCH 65 67
ENDBRANCH 62 65
ENDBRANCH 60 62
ENDBRANCH 57 58
BRANCH 57 69
ATOM     69  CB  GLU V 157      20.452   6.471 -69.206  1.00 33.67 LIG 0.04  C 
BRANCH 69 70
ATOM     70  CG  GLU V 157      18.985   6.829 -69.379  1.00 33.36 LIG 0.12  C 
BRANCH 70 71
ATOM     71  CD  GLU V 157      18.292   7.133 -68.065  1.00 33.78 LIG 0.17  C 
ATOM     72 OE2  GLU V 157      18.011   8.321 -67.793  1.00 33.85 LIG-0.65  OA
ATOM     73 OE1  GLU V 157      18.019   6.179 -67.305  1.00 33.73 LIG-0.65  OA
ENDBRANCH 70 71
ENDBRANCH 69 70
ENDBRANCH 57 69
ENDBRANCH 55 57
ENDBRANCH 49 53
ENDBRANCH 41 46
ENDBRANCH 39 41
ENDBRANCH 1 37
BRANCH 1 74
ATOM     74  CB  LYS V 154      23.888  15.084 -63.706  1.00 30.73 LIG 0.04  C 
BRANCH 74 75
ATOM     75  CG  LYS V 154      24.470  15.725 -62.448  1.00 31.37 LIG 0.00  C 
BRANCH 75 76
ATOM     76  CD  LYS V 154      24.025  14.986 -61.191  1.00 32.31 LIG 0.03  C 
BRANCH 76 77
ATOM     77  CE  LYS V 154      23.517  15.939 -60.118  1.00 33.00 LIG 0.23  C 
BRANCH 77 78
ATOM     78  NZ  LYS V 154      22.041  16.087 -60.138  1.00 34.35 LIG-0.08  N 
ATOM     79 HZ3  LYS V 154      21.692  15.690 -59.421  1.00 34.35 LIG 0.27  HD
ATOM     80 HZ2  LYS V 154      21.714  15.708 -60.874  1.00 34.35 LIG 0.27  HD
ATOM     81 HZ1  LYS V 154      21.829  16.951 -60.130  1.00 34.35 LIG 0.27  HD
ENDBRANCH 77 78
ENDBRANCH 76 77
ENDBRANCH 75 76
ENDBRANCH 74 75
ENDBRANCH 1 74
TORSDOF 32
ENDMDL
MODEL 2
USER: ADFR SOLUTION from run 39
USER: SCORE 27.042982 LL:  -3.967 LR: -24.426 RR:   0.000 FEB: -14.880
USER: RMSD 4.114874
USER: SEED 38
USER: STATUS searching
USER: GENES 34
USER: genes 0 Translation |==|  0.56849 0.58701 0.50080
USER: genes 1 Rotation |==|  0.46183 0.44247 0.45858 0.99348
USER: genes 2 Torsion [C]-CA--N-[C] |==|  0.76387
USER: genes 3 Torsion [N]-C--CA-[N] |==|  0.32897
USER: genes 4 Torsion [C]-CA--N-[C] |==|  0.72925
USER: genes 5 Torsion [N]-C--CA-[N] |==|  0.87983
USER: genes 6 Torsion [C]-CA--CB-[CG] |==|  0.69739
USER: genes 7 Torsion [CA]-CB--CG-[CD] |==|  0.30276
USER: genes 8 Torsion [CB]-CG--CD-[NE] |==|  0.76260
USER: genes 9 Torsion [CG]-CD--NE-[HE] |==|  0.09145
USER: genes 10 Torsion [C]-CA--CB-[CG] |==|  0.47990
USER: genes 11 Torsion [CA]-CB--CG-[CD] |==|  0.63191
USER: genes 12 Torsion [CB]-CG--CD-[NE] |==|  0.24488
USER: genes 13 Torsion [CG]-CD--NE-[CZ] |==|  0.17714
USER: genes 14 Torsion [N]-CA--C-[N] |==|  0.35119
USER: genes 15 Torsion [C]-N--CA-[C] |==|  0.83321
USER: genes 16 Torsion [N]-CA--CB-[CG] |==|  0.76925
USER: genes 17 Torsion [CA]-CB--CG-[CD2] |==|  0.75925
USER: genes 18 Torsion [N]-CA--C-[N] |==|  0.34807
USER: genes 19 Torsion [N]-CA--C-[O] |==|  0.78179
USER: genes 20 Torsion [C]-N--CA-[CB] |==|  0.50066
USER: genes 21 Torsion [N]-CA--C-[N] |==|  0.23510
USER: genes 22 Torsion [C]-N--CA-[CB] |==|  0.29421
USER: genes 23 Torsion [N]-CA--C-[O] |==|  0.90679
USER: genes 24 Torsion [N]-CA--CB-[CG2] |==|  0.58878
USER: genes 25 Torsion [CA]-CB--CG1-[CD1] |==|  0.64947
USER: genes 26 Torsion [N]-CA--CB-[CG] |==|  0.67444
USER: genes 27 Torsion [CA]-CB--CG-[CD] |==|  0.99663
USER: genes 28 Torsion [CB]-CG--CD-[OE2] |==|  0.31020
USER: genes 29 Torsion [N]-CA--CB-[CG] |==|  0.82960
USER: genes 30 Torsion [CA]-CB--CG-[CD] |==|  0.43454
USER: genes 31 Torsion [CB]-CG--CD-[CE] |==|  0.88477
USER: genes 32 Torsion [CG]-CD--CE-[NZ] |==|  0.70775
USER: genes 33 Torsion [CD]-CE--NZ-[HZ2] |==|  0.92312
ROOT
ATOM      1  CA  LYS V 154      23.712  16.114 -64.992  1.00 29.23 LIG 0.18  C 
ENDROOT
BRANCH 1 2
ATOM      2  N   LYS V 154      23.087  17.379 -64.582  1.00 29.36 LIG-0.35  N 
ATOM      3 H    LYS V 154      22.590  17.314 -63.884  1.00 29.36 LIG 0.16  HD
ATOM      4  C   ARG V 153      23.284  18.522 -65.244  1.00 28.75 LIG 0.24  C 
ATOM      5 O    ARG V 153      24.111  18.654 -66.138  1.00 27.33 LIG-0.27  OA
BRANCH 4 6
ATOM      6  CA  ARG V 153      22.381  19.684 -64.868  1.00 29.80 LIG 0.18  C 
BRANCH 6 7
ATOM      7  N   ARG V 153      23.123  20.830 -64.338  1.00 31.02 LIG-0.35  N 
ATOM      8 H    ARG V 153      23.457  21.337 -64.947  1.00 31.02 LIG 0.16  HD
ATOM      9  C   ARG V 152      23.270  21.065 -63.029  1.00 33.76 LIG 0.26  C 
ATOM     10 O    ARG V 152      22.793  20.339 -62.144  1.00 32.85 LIG-0.27  OA
BRANCH 9 11
ATOM     11  CA  ARG V 152      24.106  22.308 -62.670  1.00 35.90 LIG 0.40  C 
ATOM     12  N   ARG V 152      25.336  22.422 -63.513  1.00 37.25 LIG 0.61  N 
BRANCH 11 13
ATOM     13  CB  ARG V 152      23.281  23.589 -62.787  1.00 38.16 LIG 0.05  C 
BRANCH 13 14
ATOM     14  CG  ARG V 152      23.694  24.445 -63.975  1.00 40.06 LIG 0.02  C 
BRANCH 14 15
ATOM     15  CD  ARG V 152      22.657  24.446 -65.083  1.00 42.07 LIG 0.14  C 
BRANCH 15 16
ATOM     16  NE  ARG V 152      22.810  23.312 -65.998  1.00 44.48 LIG-0.23  N 
ATOM     17  CZ  ARG V 152      22.541  23.322 -67.305  1.00 45.58 LIG 0.67  C 
ATOM     18  NH1 ARG V 152      22.095  24.416 -67.919  1.00 44.25 LIG-0.23  N 
ATOM     19  NH2 ARG V 152      22.721  22.213 -68.013  1.00 47.95 LIG-0.23  N 
ATOM     20 1HH1 ARG V 152      21.973  25.140 -67.472  1.00 44.25 LIG 0.17  HD
ATOM     21 2HH1 ARG V 152      21.928  24.398 -68.762  1.00 44.25 LIG 0.17  HD
ATOM     22 2HH2 ARG V 152      22.551  22.209 -68.856  1.00 47.95 LIG 0.17  HD
ATOM     23 1HH2 ARG V 152      23.008  21.499 -67.629  1.00 47.95 LIG 0.17  HD
ATOM     24 HE   ARG V 152      23.100  22.575 -65.663  1.00 44.48 LIG 0.18  HD
ENDBRANCH 15 16
ENDBRANCH 14 15
ENDBRANCH 13 14
ENDBRANCH 11 13
ENDBRANCH 9 11
ENDBRANCH 6 7
BRANCH 6 25
ATOM     25  CB  ARG V 153      21.579  20.077 -66.128  1.00 29.44 LIG 0.04  C 
BRANCH 25 26
ATOM     26  CG  ARG V 153      20.505  21.112 -65.867  1.00 30.46 LIG 0.02  C 
BRANCH 26 27
ATOM     27  CD  ARG V 153      19.161  20.748 -66.481  1.00 30.98 LIG 0.14  C 
BRANCH 27 28
ATOM     28  NE  ARG V 153      18.422  19.944 -65.522  1.00 31.91 LIG-0.23  N 
ATOM     29  CZ  ARG V 153      18.015  20.380 -64.333  1.00 32.21 LIG 0.67  C 
ATOM     30  NH2 ARG V 153      18.222  21.637 -63.939  1.00 31.04 LIG-0.23  N 
ATOM     31  NH1 ARG V 153      17.370  19.548 -63.536  1.00 34.14 LIG-0.23  N 
ATOM     32 2HH2 ARG V 153      17.950  21.895 -63.164  1.00 31.04 LIG 0.17  HD
ATOM     33 1HH2 ARG V 153      18.628  22.189 -64.458  1.00 31.04 LIG 0.17  HD
ATOM     34 2HH1 ARG V 153      17.100  19.815 -62.763  1.00 34.14 LIG 0.17  HD
ATOM     35 1HH1 ARG V 153      17.218  18.740 -63.788  1.00 34.14 LIG 0.17  HD
ATOM     36 HE   ARG V 153      18.235  19.133 -65.737  1.00 31.91 LIG 0.18  HD
ENDBRANCH 27 28
ENDBRANCH 26 27
ENDBRANCH 25 26
ENDBRANCH 6 25
ENDBRANCH 4 6
ENDBRANCH 1 2
BRANCH 1 37
ATOM     37  C   LYS V 154      22.912  15.371 -66.073  1.00 29.43 LIG 0.24  C 
ATOM     38 O    LYS V 154      21.727  15.067 -65.912  1.00 29.02 LIG-0.27  OA
ATOM     39  N   LEU V 155      23.602  15.046 -67.157  1.00 29.02 LIG-0.35  N 
ATOM     40 H    LEU V 155      24.420  15.279 -67.285  1.00 29.02 LIG 0.16  HD
BRANCH 39 41
ATOM     41  CA  LEU V 155      23.036  14.256 -68.242  1.00 29.55 LIG 0.18  C 
BRANCH 41 42
ATOM     42  CB  LEU V 155      24.100  14.090 -69.327  1.00 29.70 LIG 0.04  C 
BRANCH 42 43
ATOM     43  CG  LEU V 155      24.194  15.276 -70.288  1.00 30.04 LIG-0.02  C 
ATOM     44  CD1 LEU V 155      25.608  15.454 -70.836  1.00 30.27 LIG 0.01  C 
ATOM     45  CD2 LEU V 155      23.189  15.074 -71.412  1.00 30.44 LIG 0.01  C 
ENDBRANCH 42 43
ENDBRANCH 41 42
BRANCH 41 46
ATOM     46  C   LEU V 155      22.576  12.868 -67.771  1.00 29.88 LIG 0.24  C 
ATOM     47  N   PRO V 156      21.299  12.511 -68.022  1.00 30.63 LIG-0.34  N 
ATOM     48  CD  PRO V 156      20.148  13.331 -68.448  1.00 31.41 LIG 0.13  C 
ATOM     49  CA  PRO V 156      20.910  11.141 -67.725  1.00 30.89 LIG 0.18  C 
ATOM     50  CG  PRO V 156      19.070  12.313 -68.721  1.00 32.36 LIG 0.02  C 
ATOM     51  CB  PRO V 156      19.377  11.183 -67.799  1.00 32.27 LIG 0.04  C 
ATOM     52 O    LEU V 155      23.364  12.126 -67.180  1.00 29.02 LIG-0.27  OA
BRANCH 49 53
ATOM     53  C   PRO V 156      21.480  10.170 -68.752  1.00 31.44 LIG 0.24  C 
ATOM     54 O    PRO V 156      20.949  10.050 -69.856  1.00 31.00 LIG-0.27  OA
ATOM     55  N   GLU V 157      22.576   9.509 -68.387  1.00 32.40 LIG-0.35  N 
ATOM     56 H    GLU V 157      23.029   9.695 -67.680  1.00 32.40 LIG 0.16  HD
BRANCH 55 57
ATOM     57  CA  GLU V 157      23.117   8.392 -69.164  1.00 33.20 LIG 0.18  C 
BRANCH 57 58
ATOM     58  C   GLU V 157      22.088   7.274 -69.254  1.00 33.95 LIG 0.24  C 
ATOM     59 O    GLU V 157      22.129   6.329 -68.473  1.00 33.71 LIG-0.27  OA
ATOM     60  N   ILE V 158      21.185   7.382 -70.220  1.00 34.74 LIG-0.35  N 
ATOM     61 H    ILE V 158      21.147   8.046 -70.765  1.00 34.74 LIG 0.16  HD
BRANCH 60 62
ATOM     62  CA  ILE V 158      20.161   6.366 -70.447  1.00 36.41 LIG 0.17  C 
BRANCH 62 63
ATOM     63  C   ILE V 158      20.142   5.990 -71.936  1.00 36.37 LIG 0.22  C 
ATOM     64 O    ILE V 158      20.388   6.813 -72.818  1.00 37.57 LIG-0.29  OA
ENDBRANCH 62 63
BRANCH 62 65
ATOM     65  CB  ILE V 158      18.781   6.865 -69.963  1.00 38.09 LIG 0.01  C 
ATOM     66  CG2 ILE V 158      17.940   5.704 -69.456  1.00 39.83 LIG 0.01  C 
BRANCH 65 67
ATOM     67  CG1 ILE V 158      18.949   7.905 -68.847  1.00 37.40 LIG 0.00  C 
ATOM     68  CD1 ILE V 158      18.178   7.583 -67.587  1.00 39.06 LIG 0.01  C 
ENDBRANCH 65 67
ENDBRANCH 62 65
ENDBRANCH 60 62
ENDBRANCH 57 58
BRANCH 57 69
ATOM     69  CB  GLU V 157      24.379   7.828 -68.492  1.00 33.67 LIG 0.04  C 
BRANCH 69 70
ATOM     70  CG  GLU V 157      25.650   7.950 -69.318  1.00 33.36 LIG 0.12  C 
BRANCH 70 71
ATOM     71  CD  GLU V 157      25.416   8.586 -70.674  1.00 33.78 LIG 0.17  C 
ATOM     72 OE2  GLU V 157      25.890   9.722 -70.897  1.00 33.85 LIG-0.65  OA
ATOM     73 OE1  GLU V 157      24.762   7.944 -71.524  1.00 33.73 LIG-0.65  OA
ENDBRANCH 70 71
ENDBRANCH 69 70
ENDBRANCH 57 69
ENDBRANCH 55 57
ENDBRANCH 49 53
ENDBRANCH 41 46
ENDBRANCH 39 41
ENDBRANCH 1 37
BRANCH 1 74
ATOM     74  CB  LYS V 154      23.879  15.169 -63.805  1.00 30.73 LIG 0.04  C 
BRANCH 74 75
ATOM     75  CG  LYS V 154      24.771  15.682 -62.675  1.00 31.37 LIG 0.00  C 
BRANCH 75 76
ATOM     76  CD  LYS V 154      24.439  15.002 -61.352  1.00 32.31 LIG 0.03  C 
BRANCH 76 77
ATOM     77  CE  LYS V 154      22.938  14.852 -61.147  1.00 33.00 LIG 0.23  C 
BRANCH 77 78
ATOM     78  NZ  LYS V 154      22.397  15.816 -60.157  1.00 34.35 LIG-0.08  N 
ATOM     79 HZ3  LYS V 154      22.118  16.549 -60.578  1.00 34.35 LIG 0.27  HD
ATOM     80 HZ2  LYS V 154      23.034  16.032 -59.575  1.00 34.35 LIG 0.27  HD
ATOM     81 HZ1  LYS V 154      21.713  15.444 -59.725  1.00 34.35 LIG 0.27  HD
ENDBRANCH 77 78
ENDBRANCH 76 77
ENDBRANCH 75 76
ENDBRANCH 74 75
ENDBRANCH 1 74
TORSDOF 32
ENDMDL
MODEL 3
USER: ADFR SOLUTION from run 13
USER: SCORE 26.802402 LL:  -3.832 LR: -23.611 RR:   0.000 FEB: -14.065
USER: RMSD 4.527303
USER: SEED 977652
USER: STATUS no improvement in best in 9 clusters for 5 generations
USER: GENES 34
USER: genes 0 Translation |==|  0.58010 0.59049 0.50560
USER: genes 1 Rotation |==|  0.46342 0.45294 0.47418 0.99576
USER: genes 2 Torsion [C]-CA--N-[C] |==|  0.77876
USER: genes 3 Torsion [N]-C--CA-[N] |==|  0.42947
USER: genes 4 Torsion [C]-CA--N-[C] |==|  0.52299
USER: genes 5 Torsion [N]-C--CA-[N] |==|  0.16547
USER: genes 6 Torsion [C]-CA--CB-[CG] |==|  0.75116
USER: genes 7 Torsion [CA]-CB--CG-[CD] |==|  0.26041
USER: genes 8 Torsion [CB]-CG--CD-[NE] |==|  0.34915
USER: genes 9 Torsion [CG]-CD--NE-[HE] |==|  0.09115
USER: genes 10 Torsion [C]-CA--CB-[CG] |==|  0.72250
USER: genes 11 Torsion [CA]-CB--CG-[CD] |==|  0.62413
USER: genes 12 Torsion [CB]-CG--CD-[NE] |==|  0.94319
USER: genes 13 Torsion [CG]-CD--NE-[CZ] |==|  0.28104
USER: genes 14 Torsion [N]-CA--C-[N] |==|  0.37419
USER: genes 15 Torsion [C]-N--CA-[C] |==|  0.84778
USER: genes 16 Torsion [N]-CA--CB-[CG] |==|  0.68231
USER: genes 17 Torsion [CA]-CB--CG-[CD2] |==|  0.30983
USER: genes 18 Torsion [N]-CA--C-[N] |==|  0.35935
USER: genes 19 Torsion [N]-CA--C-[O] |==|  0.05935
USER: genes 20 Torsion [C]-N--CA-[CB] |==|  0.53889
USER: genes 21 Torsion [N]-CA--C-[N] |==|  0.46033
USER: genes 22 Torsion [C]-N--CA-[CB] |==|  0.40838
USER: genes 23 Torsion [N]-CA--C-[O] |==|  0.91135
USER: genes 24 Torsion [N]-CA--CB-[CG2] |==|  0.54339
USER: genes 25 Torsion [CA]-CB--CG1-[CD1] |==|  0.66950
USER: genes 26 Torsion [N]-CA--CB-[CG] |==|  0.88434
USER: genes 27 Torsion [CA]-CB--CG-[CD] |==|  0.25015
USER: genes 28 Torsion [CB]-CG--CD-[OE2] |==|  0.97550
USER: genes 29 Torsion [N]-CA--CB-[CG] |==|  0.81103
USER: genes 30 Torsion [CA]-CB--CG-[CD] |==|  0.26427
USER: genes 31 Torsion [CB]-CG--CD-[CE] |==|  0.19685
USER: genes 32 Torsion [CG]-CD--CE-[NZ] |==|  0.66871
USER: genes 33 Torsion [CD]-CE--NZ-[HZ2] |==|  0.89631
ROOT
ATOM      1  CA  LYS V 154      23.930  16.216 -64.866  1.00 29.23 LIG 0.18  C 
ENDROOT
BRANCH 1 2
ATOM      2  N   LYS V 154      23.250  17.440 -64.422  1.00 29.36 LIG-0.35  N 
ATOM      3 H    LYS V 154      22.851  17.364 -63.664  1.00 29.36 LIG 0.16  HD
ATOM      4  C   ARG V 153      23.261  18.566 -65.140  1.00 28.75 LIG 0.24  C 
ATOM      5 O    ARG V 153      23.956  18.728 -66.136  1.00 27.33 LIG-0.27  OA
BRANCH 4 6
ATOM      6  CA  ARG V 153      22.312  19.662 -64.690  1.00 29.80 LIG 0.18  C 
BRANCH 6 7
ATOM      7  N   ARG V 153      22.760  20.999 -65.090  1.00 31.02 LIG-0.35  N 
ATOM      8 H    ARG V 153      23.436  20.992 -65.621  1.00 31.02 LIG 0.16  HD
ATOM      9  C   ARG V 152      22.171  22.125 -64.669  1.00 33.76 LIG 0.26  C 
ATOM     10 O    ARG V 152      21.196  22.144 -63.904  1.00 32.85 LIG-0.27  OA
BRANCH 9 11
ATOM     11  CA  ARG V 152      22.804  23.432 -65.181  1.00 35.90 LIG 0.40  C 
ATOM     12  N   ARG V 152      22.789  23.517 -66.674  1.00 37.25 LIG 0.61  N 
BRANCH 11 13
ATOM     13  CB  ARG V 152      22.110  24.657 -64.588  1.00 38.16 LIG 0.05  C 
BRANCH 13 14
ATOM     14  CG  ARG V 152      20.938  25.134 -65.434  1.00 40.06 LIG 0.02  C 
BRANCH 14 15
ATOM     15  CD  ARG V 152      19.613  24.550 -64.979  1.00 42.07 LIG 0.14  C 
BRANCH 15 16
ATOM     16  NE  ARG V 152      18.609  25.581 -64.706  1.00 44.48 LIG-0.23  N 
ATOM     17  CZ  ARG V 152      17.652  25.512 -63.778  1.00 45.58 LIG 0.67  C 
ATOM     18  NH1 ARG V 152      17.528  24.454 -62.979  1.00 44.25 LIG-0.23  N 
ATOM     19  NH2 ARG V 152      16.802  26.524 -63.647  1.00 47.95 LIG-0.23  N 
ATOM     20 1HH1 ARG V 152      18.072  23.793 -63.054  1.00 44.25 LIG 0.17  HD
ATOM     21 2HH1 ARG V 152      16.904  24.433 -62.388  1.00 44.25 LIG 0.17  HD
ATOM     22 2HH2 ARG V 152      16.182  26.489 -63.051  1.00 47.95 LIG 0.17  HD
ATOM     23 1HH2 ARG V 152      16.871  27.213 -64.157  1.00 47.95 LIG 0.17  HD
ATOM     24 HE   ARG V 152      18.638  26.293 -65.187  1.00 44.48 LIG 0.18  HD
ENDBRANCH 15 16
ENDBRANCH 14 15
ENDBRANCH 13 14
ENDBRANCH 11 13
ENDBRANCH 9 11
ENDBRANCH 6 7
BRANCH 6 25
ATOM     25  CB  ARG V 153      20.920  19.344 -65.280  1.00 29.44 LIG 0.04  C 
BRANCH 25 26
ATOM     26  CG  ARG V 153      20.592  20.139 -66.526  1.00 30.46 LIG 0.02  C 
BRANCH 26 27
ATOM     27  CD  ARG V 153      19.180  20.708 -66.519  1.00 30.98 LIG 0.14  C 
BRANCH 27 28
ATOM     28  NE  ARG V 153      18.385  19.947 -65.570  1.00 31.91 LIG-0.23  N 
ATOM     29  CZ  ARG V 153      18.084  20.359 -64.342  1.00 32.21 LIG 0.67  C 
ATOM     30  NH2 ARG V 153      18.464  21.556 -63.892  1.00 31.04 LIG-0.23  N 
ATOM     31  NH1 ARG V 153      17.371  19.569 -63.560  1.00 34.14 LIG-0.23  N 
ATOM     32 2HH2 ARG V 153      18.258  21.800 -63.093  1.00 31.04 LIG 0.17  HD
ATOM     33 1HH2 ARG V 153      18.915  22.083 -64.399  1.00 31.04 LIG 0.17  HD
ATOM     34 2HH1 ARG V 153      17.169  19.821 -62.763  1.00 34.14 LIG 0.17  HD
ATOM     35 1HH1 ARG V 153      17.109  18.802 -63.848  1.00 34.14 LIG 0.17  HD
ATOM     36 HE   ARG V 153      18.089  19.179 -65.819  1.00 31.91 LIG 0.18  HD
ENDBRANCH 27 28
ENDBRANCH 26 27
ENDBRANCH 25 26
ENDBRANCH 6 25
ENDBRANCH 4 6
ENDBRANCH 1 2
BRANCH 1 37
ATOM     37  C   LYS V 154      23.126  15.428 -65.912  1.00 29.43 LIG 0.24  C 
ATOM     38 O    LYS V 154      21.926  15.183 -65.762  1.00 29.02 LIG-0.27  OA
ATOM     39  N   LEU V 155      23.827  14.998 -66.951  1.00 29.02 LIG-0.35  N 
ATOM     40 H    LEU V 155      24.657  15.190 -67.074  1.00 29.02 LIG 0.16  HD
BRANCH 39 41
ATOM     41  CA  LEU V 155      23.256  14.155 -67.992  1.00 29.55 LIG 0.18  C 
BRANCH 41 42
ATOM     42  CB  LEU V 155      24.369  13.760 -68.962  1.00 29.70 LIG 0.04  C 
BRANCH 42 43
ATOM     43  CG  LEU V 155      24.193  14.332 -70.370  1.00 30.04 LIG-0.02  C 
ATOM     44  CD1 LEU V 155      22.803  14.933 -70.571  1.00 30.27 LIG 0.01  C 
ATOM     45  CD2 LEU V 155      25.281  15.367 -70.616  1.00 30.44 LIG 0.01  C 
ENDBRANCH 42 43
ENDBRANCH 41 42
BRANCH 41 46
ATOM     46  C   LEU V 155      22.614  12.882 -67.419  1.00 29.88 LIG 0.24  C 
ATOM     47  N   PRO V 156      21.353  12.587 -67.803  1.00 30.63 LIG-0.34  N 
ATOM     48  CD  PRO V 156      20.348  13.423 -68.489  1.00 31.41 LIG 0.13  C 
ATOM     49  CA  PRO V 156      20.805  11.303 -67.393  1.00 30.89 LIG 0.18  C 
ATOM     50  CG  PRO V 156      19.227  12.458 -68.783  1.00 32.36 LIG 0.02  C 
ATOM     51  CB  PRO V 156      19.306  11.446 -67.690  1.00 32.27 LIG 0.04  C 
ATOM     52 O    LEU V 155      23.246  12.173 -66.633  1.00 29.02 LIG-0.27  OA
BRANCH 49 53
ATOM     53  C   PRO V 156      21.415  10.161 -68.197  1.00 31.44 LIG 0.24  C 
ATOM     54 O    PRO V 156      22.498  10.308 -68.763  1.00 31.00 LIG-0.27  OA
ATOM     55  N   GLU V 157      20.725   9.023 -68.212  1.00 32.40 LIG-0.35  N 
ATOM     56 H    GLU V 157      20.048   8.873 -67.703  1.00 32.40 LIG 0.16  HD
BRANCH 55 57
ATOM     57  CA  GLU V 157      21.059   7.912 -69.104  1.00 33.20 LIG 0.18  C 
BRANCH 57 58
ATOM     58  C   GLU V 157      21.293   8.430 -70.516  1.00 33.95 LIG 0.24  C 
ATOM     59 O    GLU V 157      20.928   9.558 -70.831  1.00 33.71 LIG-0.27  OA
ATOM     60  N   ILE V 158      21.884   7.594 -71.360  1.00 34.74 LIG-0.35  N 
ATOM     61 H    ILE V 158      22.149   6.806 -71.142  1.00 34.74 LIG 0.16  HD
BRANCH 60 62
ATOM     62  CA  ILE V 158      22.139   7.944 -72.754  1.00 36.41 LIG 0.17  C 
BRANCH 62 63
ATOM     63  C   ILE V 158      20.928   7.541 -73.607  1.00 36.37 LIG 0.22  C 
ATOM     64 O    ILE V 158      20.230   6.565 -73.327  1.00 37.57 LIG-0.29  OA
ENDBRANCH 62 63
BRANCH 62 65
ATOM     65  CB  ILE V 158      23.441   7.279 -73.254  1.00 38.09 LIG 0.01  C 
ATOM     66  CG2 ILE V 158      23.912   7.929 -74.546  1.00 39.83 LIG 0.01  C 
BRANCH 65 67
ATOM     67  CG1 ILE V 158      24.541   7.389 -72.191  1.00 37.40 LIG 0.00  C 
ATOM     68  CD1 ILE V 158      25.759   8.160 -72.646  1.00 39.06 LIG 0.01  C 
ENDBRANCH 65 67
ENDBRANCH 62 65
ENDBRANCH 60 62
ENDBRANCH 57 58
BRANCH 57 69
ATOM     69  CB  GLU V 157      19.909   6.893 -69.152  1.00 33.67 LIG 0.04  C 
BRANCH 69 70
ATOM     70  CG  GLU V 157      19.263   6.596 -67.808  1.00 33.36 LIG 0.12  C 
BRANCH 70 71
ATOM     71  CD  GLU V 157      18.100   7.517 -67.495  1.00 33.78 LIG 0.17  C 
ATOM     72 OE2  GLU V 157      17.892   8.500 -68.240  1.00 33.85 LIG-0.65  OA
ATOM     73 OE1  GLU V 157      17.386   7.253 -66.503  1.00 33.73 LIG-0.65  OA
ENDBRANCH 70 71
ENDBRANCH 69 70
ENDBRANCH 57 69
ENDBRANCH 55 57
ENDBRANCH 49 53
ENDBRANCH 41 46
ENDBRANCH 39 41
ENDBRANCH 1 37
BRANCH 1 74
ATOM     74  CB  LYS V 154      24.208  15.280 -63.692  1.00 30.73 LIG 0.04  C 
BRANCH 74 75
ATOM     75  CG  LYS V 154      25.242  15.778 -62.684  1.00 31.37 LIG 0.00  C 
BRANCH 75 76
ATOM     76  CD  LYS V 154      24.577  16.480 -61.505  1.00 32.31 LIG 0.03  C 
BRANCH 76 77
ATOM     77  CE  LYS V 154      23.838  15.504 -60.601  1.00 33.00 LIG 0.23  C 
BRANCH 77 78
ATOM     78  NZ  LYS V 154      22.386  15.794 -60.513  1.00 34.35 LIG-0.08  N 
ATOM     79 HZ3  LYS V 154      21.968  15.436 -61.214  1.00 34.35 LIG 0.27  HD
ATOM     80 HZ2  LYS V 154      22.258  16.675 -60.510  1.00 34.35 LIG 0.27  HD
ATOM     81 HZ1  LYS V 154      22.058  15.444 -59.763  1.00 34.35 LIG 0.27  HD
ENDBRANCH 77 78
ENDBRANCH 76 77
ENDBRANCH 75 76
ENDBRANCH 74 75
ENDBRANCH 1 74
TORSDOF 32
ENDMDL
MODEL 4
USER: ADFR SOLUTION from run 81
USER: SCORE 26.485486 LL:  -4.037 LR: -23.584 RR:   0.000 FEB: -14.039
USER: RMSD 3.560814
USER: SEED 80
USER: STATUS no improvement in best in 12 clusters for 5 generations
USER: GENES 34
USER: genes 0 Translation |==|  0.56290 0.58834 0.50003
USER: genes 1 Rotation |==|  0.46186 0.43098 0.45818 0.99197
USER: genes 2 Torsion [C]-CA--N-[C] |==|  0.76294
USER: genes 3 Torsion [N]-C--CA-[N] |==|  0.48245
USER: genes 4 Torsion [C]-CA--N-[C] |==|  0.51140
USER: genes 5 Torsion [N]-C--CA-[N] |==|  0.18962
USER: genes 6 Torsion [C]-CA--CB-[CG] |==|  0.31172
USER: genes 7 Torsion [CA]-CB--CG-[CD] |==|  0.87137
USER: genes 8 Torsion [CB]-CG--CD-[NE] |==|  0.25079
USER: genes 9 Torsion [CG]-CD--NE-[HE] |==|  0.74552
USER: genes 10 Torsion [C]-CA--CB-[CG] |==|  0.71032
USER: genes 11 Torsion [CA]-CB--CG-[CD] |==|  0.64298
USER: genes 12 Torsion [CB]-CG--CD-[NE] |==|  0.91279
USER: genes 13 Torsion [CG]-CD--NE-[CZ] |==|  0.30088
USER: genes 14 Torsion [N]-CA--C-[N] |==|  0.34548
USER: genes 15 Torsion [C]-N--CA-[C] |==|  0.83527
USER: genes 16 Torsion [N]-CA--CB-[CG] |==|  0.75088
USER: genes 17 Torsion [CA]-CB--CG-[CD2] |==|  0.76773
USER: genes 18 Torsion [N]-CA--C-[N] |==|  0.33523
USER: genes 19 Torsion [N]-CA--C-[O] |==|  0.78913
USER: genes 20 Torsion [C]-N--CA-[CB] |==|  0.51475
USER: genes 21 Torsion [N]-CA--C-[N] |==|  0.43547
USER: genes 22 Torsion [C]-N--CA-[CB] |==|  0.34647
USER: genes 23 Torsion [N]-CA--C-[O] |==|  0.92141
USER: genes 24 Torsion [N]-CA--CB-[CG2] |==|  0.63069
USER: genes 25 Torsion [CA]-CB--CG1-[CD1] |==|  0.30106
USER: genes 26 Torsion [N]-CA--CB-[CG] |==|  0.61787
USER: genes 27 Torsion [CA]-CB--CG-[CD] |==|  0.01923
USER: genes 28 Torsion [CB]-CG--CD-[OE2] |==|  0.76332
USER: genes 29 Torsion [N]-CA--CB-[CG] |==|  0.85399
USER: genes 30 Torsion [CA]-CB--CG-[CD] |==|  0.45820
USER: genes 31 Torsion [CB]-CG--CD-[CE] |==|  0.64707
USER: genes 32 Torsion [CG]-CD--CE-[NZ] |==|  0.24464
USER: genes 33 Torsion [CD]-CE--NZ-[HZ2] |==|  0.70446
ROOT
ATOM      1  CA  LYS V 154      23.607  16.153 -65.012  1.00 29.23 LIG 0.18  C 
ENDROOT
BRANCH 1 2
ATOM      2  N   LYS V 154      22.963  17.419 -64.637  1.00 29.36 LIG-0.35  N 
ATOM      3 H    LYS V 154      22.430  17.355 -63.965  1.00 29.36 LIG 0.16  HD
ATOM      4  C   ARG V 153      23.193  18.561 -65.289  1.00 28.75 LIG 0.24  C 
ATOM      5 O    ARG V 153      24.065  18.691 -66.140  1.00 27.33 LIG-0.27  OA
BRANCH 4 6
ATOM      6  CA  ARG V 153      22.272  19.723 -64.961  1.00 29.80 LIG 0.18  C 
BRANCH 6 7
ATOM      7  N   ARG V 153      22.684  20.972 -65.607  1.00 31.02 LIG-0.35  N 
ATOM      8 H    ARG V 153      23.359  20.882 -66.133  1.00 31.02 LIG 0.16  HD
ATOM      9  C   ARG V 152      22.068  22.142 -65.399  1.00 33.76 LIG 0.26  C 
ATOM     10 O    ARG V 152      21.096  22.279 -64.642  1.00 32.85 LIG-0.27  OA
BRANCH 9 11
ATOM     11  CA  ARG V 152      22.665  23.346 -66.151  1.00 35.90 LIG 0.40  C 
ATOM     12  N   ARG V 152      22.456  23.246 -67.629  1.00 37.25 LIG 0.61  N 
BRANCH 11 13
ATOM     13  CB  ARG V 152      22.091  24.665 -65.637  1.00 38.16 LIG 0.05  C 
BRANCH 13 14
ATOM     14  CG  ARG V 152      23.127  25.511 -64.912  1.00 40.06 LIG 0.02  C 
BRANCH 14 15
ATOM     15  CD  ARG V 152      23.947  24.708 -63.919  1.00 42.07 LIG 0.14  C 
BRANCH 15 16
ATOM     16  NE  ARG V 152      25.158  24.141 -64.519  1.00 44.48 LIG-0.23  N 
ATOM     17  CZ  ARG V 152      26.345  24.743 -64.598  1.00 45.58 LIG 0.67  C 
ATOM     18  NH1 ARG V 152      26.543  25.967 -64.110  1.00 44.25 LIG-0.23  N 
ATOM     19  NH2 ARG V 152      27.358  24.109 -65.178  1.00 47.95 LIG-0.23  N 
ATOM     20 1HH1 ARG V 152      25.896  26.388 -63.732  1.00 44.25 LIG 0.17  HD
ATOM     21 2HH1 ARG V 152      27.317  26.335 -64.172  1.00 44.25 LIG 0.17  HD
ATOM     22 2HH2 ARG V 152      28.127  24.489 -65.234  1.00 47.95 LIG 0.17  HD
ATOM     23 1HH2 ARG V 152      27.244  23.319 -65.498  1.00 47.95 LIG 0.17  HD
ATOM     24 HE   ARG V 152      25.097  23.349 -64.849  1.00 44.48 LIG 0.18  HD
ENDBRANCH 15 16
ENDBRANCH 14 15
ENDBRANCH 13 14
ENDBRANCH 11 13
ENDBRANCH 9 11
ENDBRANCH 6 7
BRANCH 6 25
ATOM     25  CB  ARG V 153      20.844  19.320 -65.391  1.00 29.44 LIG 0.04  C 
BRANCH 25 26
ATOM     26  CG  ARG V 153      20.386  19.984 -66.673  1.00 30.46 LIG 0.02  C 
BRANCH 26 27
ATOM     27  CD  ARG V 153      19.030  20.665 -66.543  1.00 30.98 LIG 0.14  C 
BRANCH 27 28
ATOM     28  NE  ARG V 153      18.237  19.925 -65.576  1.00 31.91 LIG-0.23  N 
ATOM     29  CZ  ARG V 153      17.941  20.364 -64.355  1.00 32.21 LIG 0.67  C 
ATOM     30  NH2 ARG V 153      18.323  21.569 -63.932  1.00 31.04 LIG-0.23  N 
ATOM     31  NH1 ARG V 153      17.229  19.591 -63.555  1.00 34.14 LIG-0.23  N 
ATOM     32 2HH2 ARG V 153      18.120  21.831 -63.138  1.00 31.04 LIG 0.17  HD
ATOM     33 1HH2 ARG V 153      18.773  22.085 -64.452  1.00 31.04 LIG 0.17  HD
ATOM     34 2HH1 ARG V 153      17.029  19.860 -62.763  1.00 34.14 LIG 0.17  HD
ATOM     35 1HH1 ARG V 153      16.965  18.819 -63.826  1.00 34.14 LIG 0.17  HD
ATOM     36 HE   ARG V 153      17.939  19.153 -65.808  1.00 31.91 LIG 0.18  HD
ENDBRANCH 27 28
ENDBRANCH 26 27
ENDBRANCH 25 26
ENDBRANCH 6 25
ENDBRANCH 4 6
ENDBRANCH 1 2
BRANCH 1 37
ATOM     37  C   LYS V 154      22.859  15.404 -66.126  1.00 29.43 LIG 0.24  C 
ATOM     38 O    LYS V 154      21.678  15.066 -66.004  1.00 29.02 LIG-0.27  OA
ATOM     39  N   LEU V 155      23.588  15.114 -67.194  1.00 29.02 LIG-0.35  N 
ATOM     40 H    LEU V 155      24.402  15.371 -67.295  1.00 29.02 LIG 0.16  HD
BRANCH 39 41
ATOM     41  CA  LEU V 155      23.075  14.325 -68.306  1.00 29.55 LIG 0.18  C 
BRANCH 41 42
ATOM     42  CB  LEU V 155      24.180  14.187 -69.353  1.00 29.70 LIG 0.04  C 
BRANCH 42 43
ATOM     43  CG  LEU V 155      24.185  15.305 -70.396  1.00 30.04 LIG-0.02  C 
ATOM     44  CD1 LEU V 155      25.578  15.532 -70.982  1.00 30.27 LIG 0.01  C 
ATOM     45  CD2 LEU V 155      23.180  14.962 -71.486  1.00 30.44 LIG 0.01  C 
ENDBRANCH 42 43
ENDBRANCH 41 42
BRANCH 41 46
ATOM     46  C   LEU V 155      22.623  12.925 -67.864  1.00 29.88 LIG 0.24  C 
ATOM     47  N   PRO V 156      21.334  12.584 -68.078  1.00 30.63 LIG-0.34  N 
ATOM     48  CD  PRO V 156      20.175  13.425 -68.434  1.00 31.41 LIG 0.13  C 
ATOM     49  CA  PRO V 156      20.948  11.207 -67.812  1.00 30.89 LIG 0.18  C 
ATOM     50  CG  PRO V 156      19.080  12.423 -68.700  1.00 32.36 LIG 0.02  C 
ATOM     51  CB  PRO V 156      19.413  11.260 -67.828  1.00 32.27 LIG 0.04  C 
ATOM     52 O    LEU V 155      23.427  12.159 -67.328  1.00 29.02 LIG-0.27  OA
BRANCH 49 53
ATOM     53  C   PRO V 156      21.472  10.267 -68.892  1.00 31.44 LIG 0.24  C 
ATOM     54 O    PRO V 156      20.928  10.223 -69.995  1.00 31.00 LIG-0.27  OA
ATOM     55  N   GLU V 157      22.544   9.547 -68.570  1.00 32.40 LIG-0.35  N 
ATOM     56 H    GLU V 157      23.009   9.681 -67.859  1.00 32.40 LIG 0.16  HD
BRANCH 55 57
ATOM     57  CA  GLU V 157      23.035   8.451 -69.407  1.00 33.20 LIG 0.18  C 
BRANCH 57 58
ATOM     58  C   GLU V 157      21.923   7.440 -69.646  1.00 33.95 LIG 0.24  C 
ATOM     59 O    GLU V 157      20.989   7.347 -68.856  1.00 33.71 LIG-0.27  OA
ATOM     60  N   ILE V 158      22.043   6.677 -70.725  1.00 34.74 LIG-0.35  N 
ATOM     61 H    ILE V 158      22.691   6.743 -71.285  1.00 34.74 LIG 0.16  HD
BRANCH 60 62
ATOM     62  CA  ILE V 158      21.070   5.641 -71.059  1.00 36.41 LIG 0.17  C 
BRANCH 62 63
ATOM     63  C   ILE V 158      21.724   4.261 -70.900  1.00 36.37 LIG 0.22  C 
ATOM     64 O    ILE V 158      22.935   4.094 -71.049  1.00 37.57 LIG-0.29  OA
ENDBRANCH 62 63
BRANCH 62 65
ATOM     65  CB  ILE V 158      20.516   5.853 -72.486  1.00 38.09 LIG 0.01  C 
ATOM     66  CG2 ILE V 158      19.000   5.734 -72.495  1.00 39.83 LIG 0.01  C 
BRANCH 65 67
ATOM     67  CG1 ILE V 158      20.928   7.231 -73.022  1.00 37.40 LIG 0.00  C 
ATOM     68  CD1 ILE V 158      21.976   7.177 -74.110  1.00 39.06 LIG 0.01  C 
ENDBRANCH 65 67
ENDBRANCH 62 65
ENDBRANCH 60 62
ENDBRANCH 57 58
BRANCH 57 69
ATOM     69  CB  GLU V 157      24.201   7.726 -68.717  1.00 33.67 LIG 0.04  C 
BRANCH 69 70
ATOM     70  CG  GLU V 157      25.364   7.371 -69.631  1.00 33.36 LIG 0.12  C 
BRANCH 70 71
ATOM     71  CD  GLU V 157      25.219   7.952 -71.023  1.00 33.78 LIG 0.17  C 
ATOM     72 OE2  GLU V 157      24.554   7.320 -71.874  1.00 33.85 LIG-0.65  OA
ATOM     73 OE1  GLU V 157      25.765   9.050 -71.267  1.00 33.73 LIG-0.65  OA
ENDBRANCH 70 71
ENDBRANCH 69 70
ENDBRANCH 57 69
ENDBRANCH 55 57
ENDBRANCH 49 53
ENDBRANCH 41 46
ENDBRANCH 39 41
ENDBRANCH 1 37
BRANCH 1 74
ATOM     74  CB  LYS V 154      23.721  15.213 -63.814  1.00 30.73 LIG 0.04  C 
BRANCH 74 75
ATOM     75  CG  LYS V 154      24.377  15.808 -62.570  1.00 31.37 LIG 0.00  C 
BRANCH 75 76
ATOM     76  CD  LYS V 154      24.118  14.947 -61.339  1.00 32.31 LIG 0.03  C 
BRANCH 76 77
ATOM     77  CE  LYS V 154      23.534  15.755 -60.189  1.00 33.00 LIG 0.23  C 
BRANCH 77 78
ATOM     78  NZ  LYS V 154      22.053  15.829 -60.236  1.00 34.35 LIG-0.08  N 
ATOM     79 HZ3  LYS V 154      21.744  15.227 -60.815  1.00 34.35 LIG 0.27  HD
ATOM     80 HZ2  LYS V 154      21.804  16.644 -60.495  1.00 34.35 LIG 0.27  HD
ATOM     81 HZ1  LYS V 154      21.722  15.661 -59.428  1.00 34.35 LIG 0.27  HD
ENDBRANCH 77 78
ENDBRANCH 76 77
ENDBRANCH 75 76
ENDBRANCH 74 75
ENDBRANCH 1 74
TORSDOF 32
ENDMDL
MODEL 5
USER: ADFR SOLUTION from run 165
USER: SCORE 27.380731 LL:  -4.384 LR: -23.497 RR:   0.000 FEB: -13.951
USER: RMSD 4.191297
USER: SEED 164
USER: STATUS no improvement in best in 4 clusters for 5 generations
USER: GENES 34
USER: genes 0 Translation |==|  0.57373 0.58703 0.48552
USER: genes 1 Rotation |==|  0.46217 0.47767 0.49300 0.99802
USER: genes 2 Torsion [C]-CA--N-[C] |==|  0.70739
USER: genes 3 Torsion [N]-C--CA-[N] |==|  0.36557
USER: genes 4 Torsion [C]-CA--N-[C] |==|  0.70909
USER: genes 5 Torsion [N]-C--CA-[N] |==|  0.88947
USER: genes 6 Torsion [C]-CA--CB-[CG] |==|  0.68014
USER: genes 7 Torsion [CA]-CB--CG-[CD] |==|  0.30241
USER: genes 8 Torsion [CB]-CG--CD-[NE] |==|  0.77910
USER: genes 9 Torsion [CG]-CD--NE-[HE] |==|  0.07031
USER: genes 10 Torsion [C]-CA--CB-[CG] |==|  0.50953
USER: genes 11 Torsion [CA]-CB--CG-[CD] |==|  0.62130
USER: genes 12 Torsion [CB]-CG--CD-[NE] |==|  0.22825
USER: genes 13 Torsion [CG]-CD--NE-[CZ] |==|  0.19133
USER: genes 14 Torsion [N]-CA--C-[N] |==|  0.38293
USER: genes 15 Torsion [C]-N--CA-[C] |==|  0.84566
USER: genes 16 Torsion [N]-CA--CB-[CG] |==|  0.74567
USER: genes 17 Torsion [CA]-CB--CG-[CD2] |==|  0.31393
USER: genes 18 Torsion [N]-CA--C-[N] |==|  0.37032
USER: genes 19 Torsion [N]-CA--C-[O] |==|  0.07497
USER: genes 20 Torsion [C]-N--CA-[CB] |==|  0.53982
USER: genes 21 Torsion [N]-CA--C-[N] |==|  0.43411
USER: genes 22 Torsion [C]-N--CA-[CB] |==|  0.43156
USER: genes 23 Torsion [N]-CA--C-[O] |==|  0.62840
USER: genes 24 Torsion [N]-CA--CB-[CG2] |==|  0.59807
USER: genes 25 Torsion [CA]-CB--CG1-[CD1] |==|  0.80940
USER: genes 26 Torsion [N]-CA--CB-[CG] |==|  0.27842
USER: genes 27 Torsion [CA]-CB--CG-[CD] |==|  0.30222
USER: genes 28 Torsion [CB]-CG--CD-[OE2] |==|  0.96629
USER: genes 29 Torsion [N]-CA--CB-[CG] |==|  0.67565
USER: genes 30 Torsion [CA]-CB--CG-[CD] |==|  0.05451
USER: genes 31 Torsion [CB]-CG--CD-[CE] |==|  0.77363
USER: genes 32 Torsion [CG]-CD--CE-[NZ] |==|  0.36253
USER: genes 33 Torsion [CD]-CE--NZ-[HZ2] |==|  0.66928
ROOT
ATOM      1  CA  LYS V 154      23.810  16.115 -65.393  1.00 29.23 LIG 0.18  C 
ENDROOT
BRANCH 1 2
ATOM      2  N   LYS V 154      23.100  17.295 -64.883  1.00 29.36 LIG-0.35  N 
ATOM      3 H    LYS V 154      22.510  17.117 -64.284  1.00 29.36 LIG 0.16  HD
ATOM      4  C   ARG V 153      23.357  18.530 -65.321  1.00 28.75 LIG 0.24  C 
ATOM      5 O    ARG V 153      24.299  18.807 -66.054  1.00 27.33 LIG-0.27  OA
BRANCH 4 6
ATOM      6  CA  ARG V 153      22.379  19.613 -64.901  1.00 29.80 LIG 0.18  C 
BRANCH 6 7
ATOM      7  N   ARG V 153      23.046  20.804 -64.369  1.00 31.02 LIG-0.35  N 
ATOM      8 H    ARG V 153      23.410  21.295 -64.974  1.00 31.02 LIG 0.16  HD
ATOM      9  C   ARG V 152      23.086  21.099 -63.064  1.00 33.76 LIG 0.26  C 
ATOM     10 O    ARG V 152      22.565  20.396 -62.186  1.00 32.85 LIG-0.27  OA
BRANCH 9 11
ATOM     11  CA  ARG V 152      23.856  22.382 -62.700  1.00 35.90 LIG 0.40  C 
ATOM     12  N   ARG V 152      25.102  22.540 -63.512  1.00 37.25 LIG 0.61  N 
BRANCH 11 13
ATOM     13  CB  ARG V 152      22.978  23.622 -62.853  1.00 38.16 LIG 0.05  C 
BRANCH 13 14
ATOM     14  CG  ARG V 152      23.474  24.559 -63.945  1.00 40.06 LIG 0.02  C 
BRANCH 14 15
ATOM     15  CD  ARG V 152      22.573  24.562 -65.166  1.00 42.07 LIG 0.14  C 
BRANCH 15 16
ATOM     16  NE  ARG V 152      22.803  23.407 -66.038  1.00 44.48 LIG-0.23  N 
ATOM     17  CZ  ARG V 152      22.551  23.355 -67.347  1.00 45.58 LIG 0.67  C 
ATOM     18  NH1 ARG V 152      22.051  24.399 -68.005  1.00 44.25 LIG-0.23  N 
ATOM     19  NH2 ARG V 152      22.803  22.233 -68.013  1.00 47.95 LIG-0.23  N 
ATOM     20 1HH1 ARG V 152      21.883  25.131 -67.587  1.00 44.25 LIG 0.17  HD
ATOM     21 2HH1 ARG V 152      21.898  24.342 -68.849  1.00 44.25 LIG 0.17  HD
ATOM     22 2HH2 ARG V 152      22.645  22.190 -68.857  1.00 47.95 LIG 0.17  HD
ATOM     23 1HH2 ARG V 152      23.126  21.551 -67.600  1.00 47.95 LIG 0.17  HD
ATOM     24 HE   ARG V 152      23.129  22.700 -65.673  1.00 44.48 LIG 0.18  HD
ENDBRANCH 15 16
ENDBRANCH 14 15
ENDBRANCH 13 14
ENDBRANCH 11 13
ENDBRANCH 9 11
ENDBRANCH 6 7
BRANCH 6 25
ATOM     25  CB  ARG V 153      21.517  19.964 -66.133  1.00 29.44 LIG 0.04  C 
BRANCH 25 26
ATOM     26  CG  ARG V 153      20.541  21.096 -65.890  1.00 30.46 LIG 0.02  C 
BRANCH 26 27
ATOM     27  CD  ARG V 153      19.156  20.827 -66.461  1.00 30.98 LIG 0.14  C 
BRANCH 27 28
ATOM     28  NE  ARG V 153      18.423  20.002 -65.514  1.00 31.91 LIG-0.23  N 
ATOM     29  CZ  ARG V 153      18.004  20.418 -64.323  1.00 32.21 LIG 0.67  C 
ATOM     30  NH2 ARG V 153      18.191  21.674 -63.913  1.00 31.04 LIG-0.23  N 
ATOM     31  NH1 ARG V 153      17.366  19.569 -63.538  1.00 34.14 LIG-0.23  N 
ATOM     32 2HH2 ARG V 153      17.912  21.920 -63.138  1.00 31.04 LIG 0.17  HD
ATOM     33 1HH2 ARG V 153      18.592  22.237 -64.424  1.00 31.04 LIG 0.17  HD
ATOM     34 2HH1 ARG V 153      17.089  19.823 -62.764  1.00 34.14 LIG 0.17  HD
ATOM     35 1HH1 ARG V 153      17.227  18.762 -63.801  1.00 34.14 LIG 0.17  HD
ATOM     36 HE   ARG V 153      18.249  19.191 -65.740  1.00 31.91 LIG 0.18  HD
ENDBRANCH 27 28
ENDBRANCH 26 27
ENDBRANCH 25 26
ENDBRANCH 6 25
ENDBRANCH 4 6
ENDBRANCH 1 2
BRANCH 1 37
ATOM     37  C   LYS V 154      22.957  15.265 -66.347  1.00 29.43 LIG 0.24  C 
ATOM     38 O    LYS V 154      21.780  14.989 -66.097  1.00 29.02 LIG-0.27  OA
ATOM     39  N   LEU V 155      23.592  14.818 -67.421  1.00 29.02 LIG-0.35  N 
ATOM     40 H    LEU V 155      24.404  15.030 -67.613  1.00 29.02 LIG 0.16  HD
BRANCH 39 41
ATOM     41  CA  LEU V 155      22.973  13.919 -68.385  1.00 29.55 LIG 0.18  C 
BRANCH 41 42
ATOM     42  CB  LEU V 155      24.017  13.538 -69.434  1.00 29.70 LIG 0.04  C 
BRANCH 42 43
ATOM     43  CG  LEU V 155      24.033  14.460 -70.654  1.00 30.04 LIG-0.02  C 
ATOM     44  CD1 LEU V 155      22.835  15.408 -70.668  1.00 30.27 LIG 0.01  C 
ATOM     45  CD2 LEU V 155      25.345  15.231 -70.667  1.00 30.44 LIG 0.01  C 
ENDBRANCH 42 43
ENDBRANCH 41 42
BRANCH 41 46
ATOM     46  C   LEU V 155      22.434  12.642 -67.724  1.00 29.88 LIG 0.24  C 
ATOM     47  N   PRO V 156      21.188  12.241 -68.055  1.00 30.63 LIG-0.34  N 
ATOM     48  CD  PRO V 156      20.112  12.965 -68.759  1.00 31.41 LIG 0.13  C 
ATOM     49  CA  PRO V 156      20.741  10.948 -67.559  1.00 30.89 LIG 0.18  C 
ATOM     50  CG  PRO V 156      19.053  11.911 -68.966  1.00 32.36 LIG 0.02  C 
ATOM     51  CB  PRO V 156      19.228  10.972 -67.821  1.00 32.27 LIG 0.04  C 
ATOM     52 O    LEU V 155      23.133  12.024 -66.917  1.00 29.02 LIG-0.27  OA
BRANCH 49 53
ATOM     53  C   PRO V 156      21.408   9.805 -68.314  1.00 31.44 LIG 0.24  C 
ATOM     54 O    PRO V 156      22.514   9.964 -68.830  1.00 31.00 LIG-0.27  OA
ATOM     55  N   GLU V 157      20.740   8.655 -68.342  1.00 32.40 LIG-0.35  N 
ATOM     56 H    GLU V 157      20.042   8.499 -67.864  1.00 32.40 LIG 0.16  HD
BRANCH 55 57
ATOM     57  CA  GLU V 157      21.136   7.536 -69.200  1.00 33.20 LIG 0.18  C 
BRANCH 57 58
ATOM     58  C   GLU V 157      21.436   8.038 -70.605  1.00 33.95 LIG 0.24  C 
ATOM     59 O    GLU V 157      20.928   9.076 -71.014  1.00 33.71 LIG-0.27  OA
ATOM     60  N   ILE V 158      22.245   7.284 -71.339  1.00 34.74 LIG-0.35  N 
ATOM     61 H    ILE V 158      22.610   6.560 -71.054  1.00 34.74 LIG 0.16  HD
BRANCH 60 62
ATOM     62  CA  ILE V 158      22.591   7.625 -72.717  1.00 36.41 LIG 0.17  C 
BRANCH 62 63
ATOM     63  C   ILE V 158      21.457   7.175 -73.649  1.00 36.37 LIG 0.22  C 
ATOM     64 O    ILE V 158      21.678   6.565 -74.696  1.00 37.57 LIG-0.29  OA
ENDBRANCH 62 63
BRANCH 62 65
ATOM     65  CB  ILE V 158      23.944   6.992 -73.111  1.00 38.09 LIG 0.01  C 
ATOM     66  CG2 ILE V 158      24.715   7.915 -74.042  1.00 39.83 LIG 0.01  C 
BRANCH 65 67
ATOM     67  CG1 ILE V 158      24.785   6.702 -71.861  1.00 37.40 LIG 0.00  C 
ATOM     68  CD1 ILE V 158      25.278   7.943 -71.151  1.00 39.06 LIG 0.01  C 
ENDBRANCH 65 67
ENDBRANCH 62 65
ENDBRANCH 60 62
ENDBRANCH 57 58
BRANCH 57 69
ATOM     69  CB  GLU V 157      20.006   6.499 -69.292  1.00 33.67 LIG 0.04  C 
BRANCH 69 70
ATOM     70  CG  GLU V 157      19.168   6.579 -70.558  1.00 33.36 LIG 0.12  C 
BRANCH 70 71
ATOM     71  CD  GLU V 157      19.415   5.420 -71.505  1.00 33.78 LIG 0.17  C 
ATOM     72 OE2  GLU V 157      20.396   4.672 -71.298  1.00 33.85 LIG-0.65  OA
ATOM     73 OE1  GLU V 157      18.620   5.252 -72.454  1.00 33.73 LIG-0.65  OA
ENDBRANCH 70 71
ENDBRANCH 69 70
ENDBRANCH 57 69
ENDBRANCH 55 57
ENDBRANCH 49 53
ENDBRANCH 41 46
ENDBRANCH 39 41
ENDBRANCH 1 37
BRANCH 1 74
ATOM     74  CB  LYS V 154      24.272  15.211 -64.252  1.00 30.73 LIG 0.04  C 
BRANCH 74 75
ATOM     75  CG  LYS V 154      25.784  15.045 -64.114  1.00 31.37 LIG 0.00  C 
BRANCH 75 76
ATOM     76  CD  LYS V 154      26.535  16.168 -64.822  1.00 32.31 LIG 0.03  C 
BRANCH 76 77
ATOM     77  CE  LYS V 154      26.658  15.919 -66.319  1.00 33.00 LIG 0.23  C 
BRANCH 77 78
ATOM     78  NZ  LYS V 154      26.249  17.092 -67.129  1.00 34.35 LIG-0.08  N 
ATOM     79 HZ3  LYS V 154      26.009  17.758 -66.589  1.00 34.35 LIG 0.27  HD
ATOM     80 HZ2  LYS V 154      25.560  16.869 -67.648  1.00 34.35 LIG 0.27  HD
ATOM     81 HZ1  LYS V 154      26.930  17.353 -67.638  1.00 34.35 LIG 0.27  HD
ENDBRANCH 77 78
ENDBRANCH 76 77
ENDBRANCH 75 76
ENDBRANCH 74 75
ENDBRANCH 1 74
TORSDOF 32
ENDMDL
MODEL 6
USER: ADFR SOLUTION from run 81
USER: SCORE 26.558918 LL:  -3.985 LR: -23.270 RR:   0.000 FEB: -13.725
USER: RMSD 4.089542
USER: SEED 80
USER: STATUS no improvement in best in 12 clusters for 5 generations
USER: GENES 34
USER: genes 0 Translation |==|  0.58389 0.59422 0.50442
USER: genes 1 Rotation |==|  0.49077 0.46177 0.47765 0.99795
USER: genes 2 Torsion [C]-CA--N-[C] |==|  0.78026
USER: genes 3 Torsion [N]-C--CA-[N] |==|  0.40844
USER: genes 4 Torsion [C]-CA--N-[C] |==|  0.59444
USER: genes 5 Torsion [N]-C--CA-[N] |==|  0.83118
USER: genes 6 Torsion [C]-CA--CB-[CG] |==|  0.26866
USER: genes 7 Torsion [CA]-CB--CG-[CD] |==|  0.72369
USER: genes 8 Torsion [CB]-CG--CD-[NE] |==|  0.33094
USER: genes 9 Torsion [CG]-CD--NE-[HE] |==|  0.84639
USER: genes 10 Torsion [C]-CA--CB-[CG] |==|  0.72648
USER: genes 11 Torsion [CA]-CB--CG-[CD] |==|  0.56244
USER: genes 12 Torsion [CB]-CG--CD-[NE] |==|  0.00997
USER: genes 13 Torsion [CG]-CD--NE-[CZ] |==|  0.24548
USER: genes 14 Torsion [N]-CA--C-[N] |==|  0.38176
USER: genes 15 Torsion [C]-N--CA-[C] |==|  0.83046
USER: genes 16 Torsion [N]-CA--CB-[CG] |==|  0.73697
USER: genes 17 Torsion [CA]-CB--CG-[CD2] |==|  0.76795
USER: genes 18 Torsion [N]-CA--C-[N] |==|  0.34115
USER: genes 19 Torsion [N]-CA--C-[O] |==|  0.78978
USER: genes 20 Torsion [C]-N--CA-[CB] |==|  0.51686
USER: genes 21 Torsion [N]-CA--C-[N] |==|  0.44955
USER: genes 22 Torsion [C]-N--CA-[CB] |==|  0.34923
USER: genes 23 Torsion [N]-CA--C-[O] |==|  0.91990
USER: genes 24 Torsion [N]-CA--CB-[CG2] |==|  0.62677
USER: genes 25 Torsion [CA]-CB--CG1-[CD1] |==|  0.33334
USER: genes 26 Torsion [N]-CA--CB-[CG] |==|  0.61450
USER: genes 27 Torsion [CA]-CB--CG-[CD] |==|  0.02197
USER: genes 28 Torsion [CB]-CG--CD-[OE2] |==|  0.76743
USER: genes 29 Torsion [N]-CA--CB-[CG] |==|  0.87884
USER: genes 30 Torsion [CA]-CB--CG-[CD] |==|  0.42068
USER: genes 31 Torsion [CB]-CG--CD-[CE] |==|  0.65340
USER: genes 32 Torsion [CG]-CD--CE-[NZ] |==|  0.22477
USER: genes 33 Torsion [CD]-CE--NZ-[HZ2] |==|  0.66411
ROOT
ATOM      1  CA  LYS V 154      24.001  16.325 -64.897  1.00 29.23 LIG 0.18  C 
ENDROOT
BRANCH 1 2
ATOM      2  N   LYS V 154      23.312  17.477 -64.301  1.00 29.36 LIG-0.35  N 
ATOM      3 H    LYS V 154      22.944  17.311 -63.541  1.00 29.36 LIG 0.16  HD
ATOM      4  C   ARG V 153      23.267  18.672 -64.896  1.00 28.75 LIG 0.24  C 
ATOM      5 O    ARG V 153      23.918  18.956 -65.895  1.00 27.33 LIG-0.27  OA
BRANCH 4 6
ATOM      6  CA  ARG V 153      22.311  19.689 -64.298  1.00 29.80 LIG 0.18  C 
BRANCH 6 7
ATOM      7  N   ARG V 153      22.801  21.064 -64.417  1.00 31.02 LIG-0.35  N 
ATOM      8 H    ARG V 153      23.251  21.210 -65.135  1.00 31.02 LIG 0.16  HD
ATOM      9  C   ARG V 152      22.570  22.006 -63.495  1.00 33.76 LIG 0.26  C 
ATOM     10 O    ARG V 152      21.923  21.805 -62.457  1.00 32.85 LIG-0.27  OA
BRANCH 9 11
ATOM     11  CA  ARG V 152      23.189  23.385 -63.789  1.00 35.90 LIG 0.40  C 
ATOM     12  N   ARG V 152      24.680  23.324 -63.888  1.00 37.25 LIG 0.61  N 
BRANCH 11 13
ATOM     13  CB  ARG V 152      22.612  23.996 -65.064  1.00 38.16 LIG 0.05  C 
BRANCH 13 14
ATOM     14  CG  ARG V 152      21.479  24.973 -64.786  1.00 40.06 LIG 0.02  C 
BRANCH 14 15
ATOM     15  CD  ARG V 152      20.109  24.353 -64.987  1.00 42.07 LIG 0.14  C 
BRANCH 15 16
ATOM     16  NE  ARG V 152      19.305  24.356 -63.762  1.00 44.48 LIG-0.23  N 
ATOM     17  CZ  ARG V 152      18.086  24.882 -63.630  1.00 45.58 LIG 0.67  C 
ATOM     18  NH1 ARG V 152      17.464  25.471 -64.650  1.00 44.25 LIG-0.23  N 
ATOM     19  NH2 ARG V 152      17.475  24.819 -62.452  1.00 47.95 LIG-0.23  N 
ATOM     20 1HH1 ARG V 152      17.848  25.519 -65.418  1.00 44.25 LIG 0.17  HD
ATOM     21 2HH1 ARG V 152      16.679  25.803 -64.541  1.00 44.25 LIG 0.17  HD
ATOM     22 2HH2 ARG V 152      16.690  25.155 -62.357  1.00 47.95 LIG 0.17  HD
ATOM     23 1HH2 ARG V 152      17.866  24.442 -61.785  1.00 47.95 LIG 0.17  HD
ATOM     24 HE   ARG V 152      19.650  23.986 -63.066  1.00 44.48 LIG 0.18  HD
ENDBRANCH 15 16
ENDBRANCH 14 15
ENDBRANCH 13 14
ENDBRANCH 11 13
ENDBRANCH 9 11
ENDBRANCH 6 7
BRANCH 6 25
ATOM     25  CB  ARG V 153      20.950  19.521 -65.008  1.00 29.44 LIG 0.04  C 
BRANCH 25 26
ATOM     26  CG  ARG V 153      20.717  20.521 -66.120  1.00 30.46 LIG 0.02  C 
BRANCH 26 27
ATOM     27  CD  ARG V 153      19.244  20.727 -66.443  1.00 30.98 LIG 0.14  C 
BRANCH 27 28
ATOM     28  NE  ARG V 153      18.457  19.943 -65.506  1.00 31.91 LIG-0.23  N 
ATOM     29  CZ  ARG V 153      18.044  20.382 -64.320  1.00 32.21 LIG 0.67  C 
ATOM     30  NH2 ARG V 153      18.292  21.627 -63.910  1.00 31.04 LIG-0.23  N 
ATOM     31  NH1 ARG V 153      17.352  19.569 -63.544  1.00 34.14 LIG-0.23  N 
ATOM     32 2HH2 ARG V 153      18.016  21.888 -63.138  1.00 31.04 LIG 0.17  HD
ATOM     33 1HH2 ARG V 153      18.729  22.168 -64.415  1.00 31.04 LIG 0.17  HD
ATOM     34 2HH1 ARG V 153      17.079  19.838 -62.774  1.00 34.14 LIG 0.17  HD
ATOM     35 1HH1 ARG V 153      17.174  18.770 -63.808  1.00 34.14 LIG 0.17  HD
ATOM     36 HE   ARG V 153      18.243  19.142 -65.734  1.00 31.91 LIG 0.18  HD
ENDBRANCH 27 28
ENDBRANCH 26 27
ENDBRANCH 25 26
ENDBRANCH 6 25
ENDBRANCH 4 6
ENDBRANCH 1 2
BRANCH 1 37
ATOM     37  C   LYS V 154      23.179  15.637 -65.998  1.00 29.43 LIG 0.24  C 
ATOM     38 O    LYS V 154      21.978  15.393 -65.859  1.00 29.02 LIG-0.27  OA
ATOM     39  N   LEU V 155      23.868  15.289 -67.077  1.00 29.02 LIG-0.35  N 
ATOM     40 H    LEU V 155      24.699  15.481 -67.190  1.00 29.02 LIG 0.16  HD
BRANCH 39 41
ATOM     41  CA  LEU V 155      23.279  14.543 -68.179  1.00 29.55 LIG 0.18  C 
BRANCH 41 42
ATOM     42  CB  LEU V 155      24.341  14.355 -69.261  1.00 29.70 LIG 0.04  C 
BRANCH 42 43
ATOM     43  CG  LEU V 155      24.299  15.417 -70.360  1.00 30.04 LIG-0.02  C 
ATOM     44  CD1 LEU V 155      25.666  15.617 -71.013  1.00 30.27 LIG 0.01  C 
ATOM     45  CD2 LEU V 155      23.252  15.015 -71.389  1.00 30.44 LIG 0.01  C 
ENDBRANCH 42 43
ENDBRANCH 41 42
BRANCH 41 46
ATOM     46  C   LEU V 155      22.762  13.165 -67.737  1.00 29.88 LIG 0.24  C 
ATOM     47  N   PRO V 156      21.459  12.883 -67.955  1.00 30.63 LIG-0.34  N 
ATOM     48  CD  PRO V 156      20.340  13.775 -68.316  1.00 31.41 LIG 0.13  C 
ATOM     49  CA  PRO V 156      21.010  11.525 -67.689  1.00 30.89 LIG 0.18  C 
ATOM     50  CG  PRO V 156      19.202  12.824 -68.584  1.00 32.36 LIG 0.02  C 
ATOM     51  CB  PRO V 156      19.479  11.649 -67.709  1.00 32.27 LIG 0.04  C 
ATOM     52 O    LEU V 155      23.528  12.364 -67.198  1.00 29.02 LIG-0.27  OA
BRANCH 49 53
ATOM     53  C   PRO V 156      21.494  10.561 -68.765  1.00 31.44 LIG 0.24  C 
ATOM     54 O    PRO V 156      20.955  10.543 -69.872  1.00 31.00 LIG-0.27  OA
ATOM     55  N   GLU V 157      22.528   9.790 -68.438  1.00 32.40 LIG-0.35  N 
ATOM     56 H    GLU V 157      22.995   9.901 -67.724  1.00 32.40 LIG 0.16  HD
BRANCH 55 57
ATOM     57  CA  GLU V 157      22.971   8.671 -69.271  1.00 33.20 LIG 0.18  C 
BRANCH 57 58
ATOM     58  C   GLU V 157      21.807   7.725 -69.533  1.00 33.95 LIG 0.24  C 
ATOM     59 O    GLU V 157      20.816   7.747 -68.811  1.00 33.71 LIG-0.27  OA
ATOM     60  N   ILE V 158      21.947   6.887 -70.552  1.00 34.74 LIG-0.35  N 
ATOM     61 H    ILE V 158      22.637   6.873 -71.066  1.00 34.74 LIG 0.16  HD
BRANCH 60 62
ATOM     62  CA  ILE V 158      20.927   5.900 -70.897  1.00 36.41 LIG 0.17  C 
BRANCH 62 63
ATOM     63  C   ILE V 158      21.458   4.494 -70.584  1.00 36.37 LIG 0.22  C 
ATOM     64 O    ILE V 158      22.660   4.228 -70.624  1.00 37.57 LIG-0.29  OA
ENDBRANCH 62 63
BRANCH 62 65
ATOM     65  CB  ILE V 158      20.510   6.041 -72.377  1.00 38.09 LIG 0.01  C 
ATOM     66  CG2 ILE V 158      18.996   5.996 -72.513  1.00 39.83 LIG 0.01  C 
BRANCH 65 67
ATOM     67  CG1 ILE V 158      21.041   7.358 -72.961  1.00 37.40 LIG 0.00  C 
ATOM     68  CD1 ILE V 158      21.970   7.176 -74.139  1.00 39.06 LIG 0.01  C 
ENDBRANCH 65 67
ENDBRANCH 62 65
ENDBRANCH 60 62
ENDBRANCH 57 58
BRANCH 57 69
ATOM     69  CB  GLU V 157      24.083   7.880 -68.566  1.00 33.67 LIG 0.04  C 
BRANCH 69 70
ATOM     70  CG  GLU V 157      25.224   7.439 -69.470  1.00 33.36 LIG 0.12  C 
BRANCH 70 71
ATOM     71  CD  GLU V 157      25.138   8.031 -70.863  1.00 33.78 LIG 0.17  C 
ATOM     72 OE2  GLU V 157      24.413   7.467 -71.713  1.00 33.85 LIG-0.65  OA
ATOM     73 OE1  GLU V 157      25.790   9.068 -71.107  1.00 33.73 LIG-0.65  OA
ENDBRANCH 70 71
ENDBRANCH 69 70
ENDBRANCH 57 69
ENDBRANCH 55 57
ENDBRANCH 49 53
ENDBRANCH 41 46
ENDBRANCH 39 41
ENDBRANCH 1 37
BRANCH 1 74
ATOM     74  CB  LYS V 154      24.336  15.274 -63.842  1.00 30.73 LIG 0.04  C 
BRANCH 74 75
ATOM     75  CG  LYS V 154      24.902  15.814 -62.530  1.00 31.37 LIG 0.00  C 
BRANCH 75 76
ATOM     76  CD  LYS V 154      24.562  14.900 -61.358  1.00 32.31 LIG 0.03  C 
BRANCH 76 77
ATOM     77  CE  LYS V 154      23.845  15.644 -60.241  1.00 33.00 LIG 0.23  C 
BRANCH 77 78
ATOM     78  NZ  LYS V 154      22.396  15.818 -60.507  1.00 34.35 LIG-0.08  N 
ATOM     79 HZ3  LYS V 154      22.194  15.460 -61.297  1.00 34.35 LIG 0.27  HD
ATOM     80 HZ2  LYS V 154      22.197  16.685 -60.515  1.00 34.35 LIG 0.27  HD
ATOM     81 HZ1  LYS V 154      21.927  15.412 -59.870  1.00 34.35 LIG 0.27  HD
ENDBRANCH 77 78
ENDBRANCH 76 77
ENDBRANCH 75 76
ENDBRANCH 74 75
ENDBRANCH 1 74
TORSDOF 32
ENDMDL
MODEL 7
USER: ADFR SOLUTION from run 103
USER: SCORE 27.174785 LL:  -4.398 LR: -23.238 RR:   0.000 FEB: -13.693
USER: RMSD 4.053058
USER: SEED 102
USER: STATUS no improvement in best in 3 clusters for 5 generations
USER: GENES 34
USER: genes 0 Translation |==|  0.57182 0.59299 0.49166
USER: genes 1 Rotation |==|  0.45739 0.47371 0.49309 0.99744
USER: genes 2 Torsion [C]-CA--N-[C] |==|  0.69276
USER: genes 3 Torsion [N]-C--CA-[N] |==|  0.38107
USER: genes 4 Torsion [C]-CA--N-[C] |==|  0.76951
USER: genes 5 Torsion [N]-C--CA-[N] |==|  0.83768
USER: genes 6 Torsion [C]-CA--CB-[CG] |==|  0.68149
USER: genes 7 Torsion [CA]-CB--CG-[CD] |==|  0.31240
USER: genes 8 Torsion [CB]-CG--CD-[NE] |==|  0.77772
USER: genes 9 Torsion [CG]-CD--NE-[HE] |==|  0.07636
USER: genes 10 Torsion [C]-CA--CB-[CG] |==|  0.49237
USER: genes 11 Torsion [CA]-CB--CG-[CD] |==|  0.62376
USER: genes 12 Torsion [CB]-CG--CD-[NE] |==|  0.23522
USER: genes 13 Torsion [CG]-CD--NE-[CZ] |==|  0.18456
USER: genes 14 Torsion [N]-CA--C-[N] |==|  0.39038
USER: genes 15 Torsion [C]-N--CA-[C] |==|  0.85524
USER: genes 16 Torsion [N]-CA--CB-[CG] |==|  0.72142
USER: genes 17 Torsion [CA]-CB--CG-[CD2] |==|  0.31782
USER: genes 18 Torsion [N]-CA--C-[N] |==|  0.37598
USER: genes 19 Torsion [N]-CA--C-[O] |==|  0.99662
USER: genes 20 Torsion [C]-N--CA-[CB] |==|  0.53333
USER: genes 21 Torsion [N]-CA--C-[N] |==|  0.45873
USER: genes 22 Torsion [C]-N--CA-[CB] |==|  0.81040
USER: genes 23 Torsion [N]-CA--C-[O] |==|  0.61967
USER: genes 24 Torsion [N]-CA--CB-[CG2] |==|  0.60622
USER: genes 25 Torsion [CA]-CB--CG1-[CD1] |==|  0.53676
USER: genes 26 Torsion [N]-CA--CB-[CG] |==|  0.18447
USER: genes 27 Torsion [CA]-CB--CG-[CD] |==|  0.78705
USER: genes 28 Torsion [CB]-CG--CD-[OE2] |==|  0.82034
USER: genes 29 Torsion [N]-CA--CB-[CG] |==|  0.69435
USER: genes 30 Torsion [CA]-CB--CG-[CD] |==|  0.04636
USER: genes 31 Torsion [CB]-CG--CD-[CE] |==|  0.78192
USER: genes 32 Torsion [CG]-CD--CE-[NZ] |==|  0.41621
USER: genes 33 Torsion [CD]-CE--NZ-[HZ2] |==|  0.84170
ROOT
ATOM      1  CA  LYS V 154      23.775  16.289 -65.232  1.00 29.23 LIG 0.18  C 
ENDROOT
BRANCH 1 2
ATOM      2  N   LYS V 154      23.056  17.479 -64.756  1.00 29.36 LIG-0.35  N 
ATOM      3 H    LYS V 154      22.409  17.305 -64.217  1.00 29.36 LIG 0.16  HD
ATOM      4  C   ARG V 153      23.387  18.715 -65.137  1.00 28.75 LIG 0.24  C 
ATOM      5 O    ARG V 153      24.399  18.979 -65.775  1.00 27.33 LIG-0.27  OA
BRANCH 4 6
ATOM      6  CA  ARG V 153      22.407  19.817 -64.777  1.00 29.80 LIG 0.18  C 
BRANCH 6 7
ATOM      7  N   ARG V 153      23.070  21.024 -64.276  1.00 31.02 LIG-0.35  N 
ATOM      8 H    ARG V 153      23.185  21.629 -64.877  1.00 31.02 LIG 0.16  HD
ATOM      9  C   ARG V 152      23.459  21.171 -63.005  1.00 33.76 LIG 0.26  C 
ATOM     10 O    ARG V 152      23.297  20.305 -62.133  1.00 32.85 LIG-0.27  OA
BRANCH 9 11
ATOM     11  CA  ARG V 152      24.161  22.503 -62.678  1.00 35.90 LIG 0.40  C 
ATOM     12  N   ARG V 152      25.384  22.714 -63.513  1.00 37.25 LIG 0.61  N 
BRANCH 11 13
ATOM     13  CB  ARG V 152      23.213  23.689 -62.844  1.00 38.16 LIG 0.05  C 
BRANCH 13 14
ATOM     14  CG  ARG V 152      23.633  24.622 -63.970  1.00 40.06 LIG 0.02  C 
BRANCH 14 15
ATOM     15  CD  ARG V 152      22.661  24.608 -65.135  1.00 42.07 LIG 0.14  C 
BRANCH 15 16
ATOM     16  NE  ARG V 152      22.857  23.454 -66.018  1.00 44.48 LIG-0.23  N 
ATOM     17  CZ  ARG V 152      22.566  23.409 -67.319  1.00 45.58 LIG 0.67  C 
ATOM     18  NH1 ARG V 152      22.054  24.459 -67.958  1.00 44.25 LIG-0.23  N 
ATOM     19  NH2 ARG V 152      22.791  22.289 -67.996  1.00 47.95 LIG-0.23  N 
ATOM     20 1HH1 ARG V 152      21.903  25.190 -67.532  1.00 44.25 LIG 0.17  HD
ATOM     21 2HH1 ARG V 152      21.874  24.406 -68.797  1.00 44.25 LIG 0.17  HD
ATOM     22 2HH2 ARG V 152      22.607  22.250 -68.835  1.00 47.95 LIG 0.17  HD
ATOM     23 1HH2 ARG V 152      23.121  21.603 -67.595  1.00 47.95 LIG 0.17  HD
ATOM     24 HE   ARG V 152      23.190  22.744 -65.666  1.00 44.48 LIG 0.18  HD
ENDBRANCH 15 16
ENDBRANCH 14 15
ENDBRANCH 13 14
ENDBRANCH 11 13
ENDBRANCH 9 11
ENDBRANCH 6 7
BRANCH 6 25
ATOM     25  CB  ARG V 153      21.570  20.126 -66.038  1.00 29.44 LIG 0.04  C 
BRANCH 25 26
ATOM     26  CG  ARG V 153      20.496  21.169 -65.815  1.00 30.46 LIG 0.02  C 
BRANCH 26 27
ATOM     27  CD  ARG V 153      19.156  20.791 -66.432  1.00 30.98 LIG 0.14  C 
BRANCH 27 28
ATOM     28  NE  ARG V 153      18.442  19.944 -65.492  1.00 31.91 LIG-0.23  N 
ATOM     29  CZ  ARG V 153      17.987  20.351 -64.310  1.00 32.21 LIG 0.67  C 
ATOM     30  NH2 ARG V 153      18.118  21.616 -63.907  1.00 31.04 LIG-0.23  N 
ATOM     31  NH1 ARG V 153      17.370  19.483 -63.531  1.00 34.14 LIG-0.23  N 
ATOM     32 2HH2 ARG V 153      17.815  21.856 -63.138  1.00 31.04 LIG 0.17  HD
ATOM     33 1HH2 ARG V 153      18.504  22.192 -64.416  1.00 31.04 LIG 0.17  HD
ATOM     34 2HH1 ARG V 153      17.070  19.731 -62.763  1.00 34.14 LIG 0.17  HD
ATOM     35 1HH1 ARG V 153      17.268  18.669 -63.789  1.00 34.14 LIG 0.17  HD
ATOM     36 HE   ARG V 153      18.304  19.125 -65.715  1.00 31.91 LIG 0.18  HD
ENDBRANCH 27 28
ENDBRANCH 26 27
ENDBRANCH 25 26
ENDBRANCH 6 25
ENDBRANCH 4 6
ENDBRANCH 1 2
BRANCH 1 37
ATOM     37  C   LYS V 154      22.936  15.420 -66.182  1.00 29.43 LIG 0.24  C 
ATOM     38 O    LYS V 154      21.743  15.188 -65.971  1.00 29.02 LIG-0.27  OA
ATOM     39  N   LEU V 155      23.602  14.907 -67.207  1.00 29.02 LIG-0.35  N 
ATOM     40 H    LEU V 155      24.427  15.087 -67.374  1.00 29.02 LIG 0.16  HD
BRANCH 39 41
ATOM     41  CA  LEU V 155      22.997  13.983 -68.156  1.00 29.55 LIG 0.18  C 
BRANCH 41 42
ATOM     42  CB  LEU V 155      24.089  13.459 -69.088  1.00 29.70 LIG 0.04  C 
BRANCH 42 43
ATOM     43  CG  LEU V 155      24.124  14.152 -70.450  1.00 30.04 LIG-0.02  C 
ATOM     44  CD1 LEU V 155      22.919  15.068 -70.655  1.00 30.27 LIG 0.01  C 
ATOM     45  CD2 LEU V 155      25.429  14.925 -70.572  1.00 30.44 LIG 0.01  C 
ENDBRANCH 42 43
ENDBRANCH 41 42
BRANCH 41 46
ATOM     46  C   LEU V 155      22.320  12.794 -67.456  1.00 29.88 LIG 0.24  C 
ATOM     47  N   PRO V 156      21.095  12.425 -67.888  1.00 30.63 LIG-0.34  N 
ATOM     48  CD  PRO V 156      20.142  13.136 -68.763  1.00 31.41 LIG 0.13  C 
ATOM     49  CA  PRO V 156      20.526  11.204 -67.340  1.00 30.89 LIG 0.18  C 
ATOM     50  CG  PRO V 156      19.053  12.119 -68.998  1.00 32.36 LIG 0.02  C 
ATOM     51  CB  PRO V 156      19.053  11.276 -67.768  1.00 32.27 LIG 0.04  C 
ATOM     52 O    LEU V 155      22.894  12.217 -66.530  1.00 29.02 LIG-0.27  OA
BRANCH 49 53
ATOM     53  C   PRO V 156      21.203   9.969 -67.922  1.00 31.44 LIG 0.24  C 
ATOM     54 O    PRO V 156      22.095  10.087 -68.763  1.00 31.00 LIG-0.27  OA
ATOM     55  N   GLU V 157      20.794   8.797 -67.443  1.00 32.40 LIG-0.35  N 
ATOM     56 H    GLU V 157      20.280   8.718 -66.758  1.00 32.40 LIG 0.16  HD
BRANCH 55 57
ATOM     57  CA  GLU V 157      21.184   7.521 -68.046  1.00 33.20 LIG 0.18  C 
BRANCH 57 58
ATOM     58  C   GLU V 157      20.970   7.569 -69.552  1.00 33.95 LIG 0.24  C 
ATOM     59 O    GLU V 157      20.272   8.446 -70.051  1.00 33.71 LIG-0.27  OA
ATOM     60  N   ILE V 158      21.556   6.613 -70.261  1.00 34.74 LIG-0.35  N 
ATOM     61 H    ILE V 158      22.052   6.001 -69.917  1.00 34.74 LIG 0.16  HD
BRANCH 60 62
ATOM     62  CA  ILE V 158      21.407   6.514 -71.710  1.00 36.41 LIG 0.17  C 
BRANCH 62 63
ATOM     63  C   ILE V 158      21.829   7.843 -72.354  1.00 36.37 LIG 0.22  C 
ATOM     64 O    ILE V 158      21.182   8.360 -73.265  1.00 37.57 LIG-0.29  OA
ENDBRANCH 62 63
BRANCH 62 65
ATOM     65  CB  ILE V 158      19.959   6.129 -72.085  1.00 38.09 LIG 0.01  C 
ATOM     66  CG2 ILE V 158      19.949   5.167 -73.263  1.00 39.83 LIG 0.01  C 
BRANCH 65 67
ATOM     67  CG1 ILE V 158      19.249   5.484 -70.887  1.00 37.40 LIG 0.00  C 
ATOM     68  CD1 ILE V 158      17.951   4.794 -71.242  1.00 39.06 LIG 0.01  C 
ENDBRANCH 65 67
ENDBRANCH 62 65
ENDBRANCH 60 62
ENDBRANCH 57 58
BRANCH 57 69
ATOM     69  CB  GLU V 157      20.335   6.373 -67.477  1.00 33.67 LIG 0.04  C 
BRANCH 69 70
ATOM     70  CG  GLU V 157      18.860   6.429 -67.840  1.00 33.36 LIG 0.12  C 
BRANCH 70 71
ATOM     71  CD  GLU V 157      18.091   7.456 -67.034  1.00 33.78 LIG 0.17  C 
ATOM     72 OE2  GLU V 157      17.983   7.294 -65.798  1.00 33.85 LIG-0.65  OA
ATOM     73 OE1  GLU V 157      17.599   8.434 -67.636  1.00 33.73 LIG-0.65  OA
ENDBRANCH 70 71
ENDBRANCH 69 70
ENDBRANCH 57 69
ENDBRANCH 55 57
ENDBRANCH 49 53
ENDBRANCH 41 46
ENDBRANCH 39 41
ENDBRANCH 1 37
BRANCH 1 74
ATOM     74  CB  LYS V 154      24.219  15.408 -64.067  1.00 30.73 LIG 0.04  C 
BRANCH 74 75
ATOM     75  CG  LYS V 154      25.723  15.374 -63.803  1.00 31.37 LIG 0.00  C 
BRANCH 75 76
ATOM     76  CD  LYS V 154      26.436  16.533 -64.492  1.00 32.31 LIG 0.03  C 
BRANCH 76 77
ATOM     77  CE  LYS V 154      26.636  16.278 -65.979  1.00 33.00 LIG 0.23  C 
BRANCH 77 78
ATOM     78  NZ  LYS V 154      26.638  17.528 -66.779  1.00 34.35 LIG-0.08  N 
ATOM     79 HZ3  LYS V 154      27.324  18.038 -66.532  1.00 34.35 LIG 0.27  HD
ATOM     80 HZ2  LYS V 154      25.876  17.968 -66.642  1.00 34.35 LIG 0.27  HD
ATOM     81 HZ1  LYS V 154      26.713  17.327 -67.642  1.00 34.35 LIG 0.27  HD
ENDBRANCH 77 78
ENDBRANCH 76 77
ENDBRANCH 75 76
ENDBRANCH 74 75
ENDBRANCH 1 74
TORSDOF 32
ENDMDL
MODEL 8
USER: ADFR SOLUTION from run 179
USER: SCORE 26.698541 LL:  -5.006 LR: -23.170 RR:   0.000 FEB: -13.624
USER: RMSD 4.614176
USER: SEED 178
USER: STATUS no improvement in best in 10 clusters for 5 generations
USER: GENES 34
USER: genes 0 Translation |==|  0.57248 0.58960 0.48936
USER: genes 1 Rotation |==|  0.48325 0.47247 0.50037 0.99896
USER: genes 2 Torsion [C]-CA--N-[C] |==|  0.73274
USER: genes 3 Torsion [N]-C--CA-[N] |==|  0.45268
USER: genes 4 Torsion [C]-CA--N-[C] |==|  0.54005
USER: genes 5 Torsion [N]-C--CA-[N] |==|  0.10484
USER: genes 6 Torsion [C]-CA--CB-[CG] |==|  0.88382
USER: genes 7 Torsion [CA]-CB--CG-[CD] |==|  0.49805
USER: genes 8 Torsion [CB]-CG--CD-[NE] |==|  0.69232
USER: genes 9 Torsion [CG]-CD--NE-[HE] |==|  0.01009
USER: genes 10 Torsion [C]-CA--CB-[CG] |==|  0.72976
USER: genes 11 Torsion [CA]-CB--CG-[CD] |==|  0.63336
USER: genes 12 Torsion [CB]-CG--CD-[NE] |==|  0.95399
USER: genes 13 Torsion [CG]-CD--NE-[CZ] |==|  0.28405
USER: genes 14 Torsion [N]-CA--C-[N] |==|  0.38309
USER: genes 15 Torsion [C]-N--CA-[C] |==|  0.83806
USER: genes 16 Torsion [N]-CA--CB-[CG] |==|  0.76796
USER: genes 17 Torsion [CA]-CB--CG-[CD2] |==|  0.73938
USER: genes 18 Torsion [N]-CA--C-[N] |==|  0.33963
USER: genes 19 Torsion [N]-CA--C-[O] |==|  0.78856
USER: genes 20 Torsion [C]-N--CA-[CB] |==|  0.49746
USER: genes 21 Torsion [N]-CA--C-[N] |==|  0.23679
USER: genes 22 Torsion [C]-N--CA-[CB] |==|  0.27925
USER: genes 23 Torsion [N]-CA--C-[O] |==|  0.64325
USER: genes 24 Torsion [N]-CA--CB-[CG2] |==|  0.61775
USER: genes 25 Torsion [CA]-CB--CG1-[CD1] |==|  0.58014
USER: genes 26 Torsion [N]-CA--CB-[CG] |==|  0.81886
USER: genes 27 Torsion [CA]-CB--CG-[CD] |==|  0.90028
USER: genes 28 Torsion [CB]-CG--CD-[OE2] |==|  0.85234
USER: genes 29 Torsion [N]-CA--CB-[CG] |==|  0.65472
USER: genes 30 Torsion [CA]-CB--CG-[CD] |==|  0.04737
USER: genes 31 Torsion [CB]-CG--CD-[CE] |==|  0.76632
USER: genes 32 Torsion [CG]-CD--CE-[NZ] |==|  0.35359
USER: genes 33 Torsion [CD]-CE--NZ-[HZ2] |==|  0.94152
ROOT
ATOM      1  CA  LYS V 154      23.787  16.190 -65.292  1.00 29.23 LIG 0.18  C 
ENDROOT
BRANCH 1 2
ATOM      2  N   LYS V 154      23.026  17.299 -64.702  1.00 29.36 LIG-0.35  N 
ATOM      3 H    LYS V 154      22.521  17.068 -64.046  1.00 29.36 LIG 0.16  HD
ATOM      4  C   ARG V 153      23.119  18.552 -65.155  1.00 28.75 LIG 0.24  C 
ATOM      5 O    ARG V 153      23.949  18.915 -65.980  1.00 27.33 LIG-0.27  OA
BRANCH 4 6
ATOM      6  CA  ARG V 153      22.092  19.539 -64.627  1.00 29.80 LIG 0.18  C 
BRANCH 6 7
ATOM      7  N   ARG V 153      22.485  20.934 -64.841  1.00 31.02 LIG-0.35  N 
ATOM      8 H    ARG V 153      23.132  21.028 -65.400  1.00 31.02 LIG 0.16  HD
ATOM      9  C   ARG V 152      21.893  21.964 -64.225  1.00 33.76 LIG 0.26  C 
ATOM     10 O    ARG V 152      20.961  21.836 -63.418  1.00 32.85 LIG-0.27  OA
BRANCH 9 11
ATOM     11  CA  ARG V 152      22.464  23.353 -64.564  1.00 35.90 LIG 0.40  C 
ATOM     12  N   ARG V 152      22.853  23.466 -66.004  1.00 37.25 LIG 0.61  N 
BRANCH 11 13
ATOM     13  CB  ARG V 152      21.478  24.464 -64.208  1.00 38.16 LIG 0.05  C 
BRANCH 13 14
ATOM     14  CG  ARG V 152      20.045  24.119 -64.585  1.00 40.06 LIG 0.02  C 
BRANCH 14 15
ATOM     15  CD  ARG V 152      19.062  25.215 -64.216  1.00 42.07 LIG 0.14  C 
BRANCH 15 16
ATOM     16  NE  ARG V 152      18.168  24.824 -63.123  1.00 44.48 LIG-0.23  N 
ATOM     17  CZ  ARG V 152      17.164  25.556 -62.637  1.00 45.58 LIG 0.67  C 
ATOM     18  NH1 ARG V 152      16.871  26.757 -63.131  1.00 44.25 LIG-0.23  N 
ATOM     19  NH2 ARG V 152      16.437  25.076 -61.634  1.00 47.95 LIG-0.23  N 
ATOM     20 1HH1 ARG V 152      17.333  27.080 -63.780  1.00 44.25 LIG 0.17  HD
ATOM     21 2HH1 ARG V 152      16.219  27.210 -62.802  1.00 44.25 LIG 0.17  HD
ATOM     22 2HH2 ARG V 152      15.788  25.540 -61.314  1.00 47.95 LIG 0.17  HD
ATOM     23 1HH2 ARG V 152      16.617  24.302 -61.305  1.00 47.95 LIG 0.17  HD
ATOM     24 HE   ARG V 152      18.303  24.055 -62.763  1.00 44.48 LIG 0.18  HD
ENDBRANCH 15 16
ENDBRANCH 14 15
ENDBRANCH 13 14
ENDBRANCH 11 13
ENDBRANCH 9 11
ENDBRANCH 6 7
BRANCH 6 25
ATOM     25  CB  ARG V 153      20.748  19.227 -65.320  1.00 29.44 LIG 0.04  C 
BRANCH 25 26
ATOM     26  CG  ARG V 153      20.462  20.111 -66.516  1.00 30.46 LIG 0.02  C 
BRANCH 26 27
ATOM     27  CD  ARG V 153      19.059  20.700 -66.505  1.00 30.98 LIG 0.14  C 
BRANCH 27 28
ATOM     28  NE  ARG V 153      18.253  19.944 -65.560  1.00 31.91 LIG-0.23  N 
ATOM     29  CZ  ARG V 153      17.942  20.362 -64.336  1.00 32.21 LIG 0.67  C 
ATOM     30  NH2 ARG V 153      18.320  21.560 -63.888  1.00 31.04 LIG-0.23  N 
ATOM     31  NH1 ARG V 153      17.221  19.577 -63.558  1.00 34.14 LIG-0.23  N 
ATOM     32 2HH2 ARG V 153      18.107  21.809 -63.092  1.00 31.04 LIG 0.17  HD
ATOM     33 1HH2 ARG V 153      18.777  22.084 -64.394  1.00 31.04 LIG 0.17  HD
ATOM     34 2HH1 ARG V 153      17.012  19.833 -62.763  1.00 34.14 LIG 0.17  HD
ATOM     35 1HH1 ARG V 153      16.960  18.809 -63.844  1.00 34.14 LIG 0.17  HD
ATOM     36 HE   ARG V 153      17.958  19.176 -65.808  1.00 31.91 LIG 0.18  HD
ENDBRANCH 27 28
ENDBRANCH 26 27
ENDBRANCH 25 26
ENDBRANCH 6 25
ENDBRANCH 4 6
ENDBRANCH 1 2
BRANCH 1 37
ATOM     37  C   LYS V 154      22.981  15.393 -66.330  1.00 29.43 LIG 0.24  C 
ATOM     38 O    LYS V 154      21.811  15.059 -66.130  1.00 29.02 LIG-0.27  OA
ATOM     39  N   LEU V 155      23.652  15.058 -67.423  1.00 29.02 LIG-0.35  N 
ATOM     40 H    LEU V 155      24.459  15.312 -67.580  1.00 29.02 LIG 0.16  HD
BRANCH 39 41
ATOM     41  CA  LEU V 155      23.082  14.222 -68.471  1.00 29.55 LIG 0.18  C 
BRANCH 41 42
ATOM     42  CB  LEU V 155      24.137  14.020 -69.558  1.00 29.70 LIG 0.04  C 
BRANCH 42 43
ATOM     43  CG  LEU V 155      24.205  15.162 -70.573  1.00 30.04 LIG-0.02  C 
ATOM     44  CD1 LEU V 155      25.640  15.449 -71.013  1.00 30.27 LIG 0.01  C 
ATOM     45  CD2 LEU V 155      23.324  14.812 -71.763  1.00 30.44 LIG 0.01  C 
ENDBRANCH 42 43
ENDBRANCH 41 42
BRANCH 41 46
ATOM     46  C   LEU V 155      22.638  12.850 -67.941  1.00 29.88 LIG 0.24  C 
ATOM     47  N   PRO V 156      21.344  12.501 -68.110  1.00 30.63 LIG-0.34  N 
ATOM     48  CD  PRO V 156      20.179  13.323 -68.489  1.00 31.41 LIG 0.13  C 
ATOM     49  CA  PRO V 156      20.961  11.142 -67.758  1.00 30.89 LIG 0.18  C 
ATOM     50  CG  PRO V 156      19.077  12.310 -68.676  1.00 32.36 LIG 0.02  C 
ATOM     51  CB  PRO V 156      19.427  11.198 -67.745  1.00 32.27 LIG 0.04  C 
ATOM     52 O    LEU V 155      23.451  12.114 -67.378  1.00 29.02 LIG-0.27  OA
BRANCH 49 53
ATOM     53  C   PRO V 156      21.462  10.141 -68.791  1.00 31.44 LIG 0.24  C 
ATOM     54 O    PRO V 156      20.894  10.033 -69.878  1.00 31.00 LIG-0.27  OA
ATOM     55  N   GLU V 157      22.542   9.441 -68.453  1.00 32.40 LIG-0.35  N 
ATOM     56 H    GLU V 157      23.023   9.616 -67.761  1.00 32.40 LIG 0.16  HD
BRANCH 55 57
ATOM     57  CA  GLU V 157      23.016   8.298 -69.234  1.00 33.20 LIG 0.18  C 
BRANCH 57 58
ATOM     58  C   GLU V 157      21.954   7.208 -69.259  1.00 33.95 LIG 0.24  C 
ATOM     59 O    GLU V 157      21.998   6.280 -68.458  1.00 33.71 LIG-0.27  OA
ATOM     60  N   ILE V 158      21.019   7.320 -70.194  1.00 34.74 LIG-0.35  N 
ATOM     61 H    ILE V 158      20.979   7.972 -70.752  1.00 34.74 LIG 0.16  HD
BRANCH 60 62
ATOM     62  CA  ILE V 158      19.958   6.329 -70.358  1.00 36.41 LIG 0.17  C 
BRANCH 62 63
ATOM     63  C   ILE V 158      19.782   6.020 -71.852  1.00 36.37 LIG 0.22  C 
ATOM     64 O    ILE V 158      18.681   6.069 -72.401  1.00 37.57 LIG-0.29  OA
ENDBRANCH 62 63
BRANCH 62 65
ATOM     65  CB  ILE V 158      18.644   6.824 -69.715  1.00 38.09 LIG 0.01  C 
ATOM     66  CG2 ILE V 158      17.963   5.698 -68.953  1.00 39.83 LIG 0.01  C 
BRANCH 65 67
ATOM     67  CG1 ILE V 158      18.922   7.995 -68.763  1.00 37.40 LIG 0.00  C 
ATOM     68  CD1 ILE V 158      17.937   8.104 -67.621  1.00 39.06 LIG 0.01  C 
ENDBRANCH 65 67
ENDBRANCH 62 65
ENDBRANCH 60 62
ENDBRANCH 57 58
BRANCH 57 69
ATOM     69  CB  GLU V 157      24.292   7.709 -68.611  1.00 33.67 LIG 0.04  C 
BRANCH 69 70
ATOM     70  CG  GLU V 157      25.500   8.633 -68.636  1.00 33.36 LIG 0.12  C 
BRANCH 70 71
ATOM     71  CD  GLU V 157      25.567   9.484 -69.888  1.00 33.78 LIG 0.17  C 
ATOM     72 OE2  GLU V 157      25.509   8.921 -71.004  1.00 33.85 LIG-0.65  OA
ATOM     73 OE1  GLU V 157      25.670  10.723 -69.757  1.00 33.73 LIG-0.65  OA
ENDBRANCH 70 71
ENDBRANCH 69 70
ENDBRANCH 57 69
ENDBRANCH 55 57
ENDBRANCH 49 53
ENDBRANCH 41 46
ENDBRANCH 39 41
ENDBRANCH 1 37
BRANCH 1 74
ATOM     74  CB  LYS V 154      24.260  15.211 -64.220  1.00 30.73 LIG 0.04  C 
BRANCH 74 75
ATOM     75  CG  LYS V 154      25.764  14.950 -64.184  1.00 31.37 LIG 0.00  C 
BRANCH 75 76
ATOM     76  CD  LYS V 154      26.534  16.023 -64.946  1.00 32.31 LIG 0.03  C 
BRANCH 76 77
ATOM     77  CE  LYS V 154      26.594  15.733 -66.439  1.00 33.00 LIG 0.23  C 
BRANCH 77 78
ATOM     78  NZ  LYS V 154      26.132  16.877 -67.263  1.00 34.35 LIG-0.08  N 
ATOM     79 HZ3  LYS V 154      26.836  17.331 -67.563  1.00 34.35 LIG 0.27  HD
ATOM     80 HZ2  LYS V 154      25.622  17.412 -66.768  1.00 34.35 LIG 0.27  HD
ATOM     81 HZ1  LYS V 154      25.660  16.573 -67.953  1.00 34.35 LIG 0.27  HD
ENDBRANCH 77 78
ENDBRANCH 76 77
ENDBRANCH 75 76
ENDBRANCH 74 75
ENDBRANCH 1 74
TORSDOF 32
ENDMDL
MODEL 9
USER: ADFR SOLUTION from run 47
USER: SCORE 26.013395 LL:  -3.426 LR: -23.045 RR:   0.000 FEB: -13.500
USER: RMSD 3.551639
USER: SEED 46
USER: STATUS searching
USER: GENES 34
USER: genes 0 Translation |==|  0.56588 0.58634 0.49908
USER: genes 1 Rotation |==|  0.46733 0.45952 0.47619 0.99672
USER: genes 2 Torsion [C]-CA--N-[C] |==|  0.73789
USER: genes 3 Torsion [N]-C--CA-[N] |==|  0.45021
USER: genes 4 Torsion [C]-CA--N-[C] |==|  0.55245
USER: genes 5 Torsion [N]-C--CA-[N] |==|  0.20847
USER: genes 6 Torsion [C]-CA--CB-[CG] |==|  0.30072
USER: genes 7 Torsion [CA]-CB--CG-[CD] |==|  0.92129
USER: genes 8 Torsion [CB]-CG--CD-[NE] |==|  0.23771
USER: genes 9 Torsion [CG]-CD--NE-[HE] |==|  0.69506
USER: genes 10 Torsion [C]-CA--CB-[CG] |==|  0.69280
USER: genes 11 Torsion [CA]-CB--CG-[CD] |==|  0.60074
USER: genes 12 Torsion [CB]-CG--CD-[NE] |==|  0.99780
USER: genes 13 Torsion [CG]-CD--NE-[CZ] |==|  0.26534
USER: genes 14 Torsion [N]-CA--C-[N] |==|  0.37558
USER: genes 15 Torsion [C]-N--CA-[C] |==|  0.83613
USER: genes 16 Torsion [N]-CA--CB-[CG] |==|  0.77742
USER: genes 17 Torsion [CA]-CB--CG-[CD2] |==|  0.74487
USER: genes 18 Torsion [N]-CA--C-[N] |==|  0.37577
USER: genes 19 Torsion [N]-CA--C-[O] |==|  0.04854
USER: genes 20 Torsion [C]-N--CA-[CB] |==|  0.53477
USER: genes 21 Torsion [N]-CA--C-[N] |==|  0.45845
USER: genes 22 Torsion [C]-N--CA-[CB] |==|  0.47050
USER: genes 23 Torsion [N]-CA--C-[O] |==|  0.89184
USER: genes 24 Torsion [N]-CA--CB-[CG2] |==|  0.38191
USER: genes 25 Torsion [CA]-CB--CG1-[CD1] |==|  0.16209
USER: genes 26 Torsion [N]-CA--CB-[CG] |==|  0.21913
USER: genes 27 Torsion [CA]-CB--CG-[CD] |==|  0.37908
USER: genes 28 Torsion [CB]-CG--CD-[OE2] |==|  0.44286
USER: genes 29 Torsion [N]-CA--CB-[CG] |==|  0.94455
USER: genes 30 Torsion [CA]-CB--CG-[CD] |==|  0.47467
USER: genes 31 Torsion [CB]-CG--CD-[CE] |==|  0.55731
USER: genes 32 Torsion [CG]-CD--CE-[NZ] |==|  0.13493
USER: genes 33 Torsion [CD]-CE--NZ-[HZ2] |==|  0.96018
ROOT
ATOM      1  CA  LYS V 154      23.663  16.094 -65.037  1.00 29.23 LIG 0.18  C 
ENDROOT
BRANCH 1 2
ATOM      2  N   LYS V 154      22.987  17.306 -64.555  1.00 29.36 LIG-0.35  N 
ATOM      3 H    LYS V 154      22.446  17.169 -63.900  1.00 29.36 LIG 0.16  HD
ATOM      4  C   ARG V 153      23.201  18.509 -65.095  1.00 28.75 LIG 0.24  C 
ATOM      5 O    ARG V 153      24.081  18.736 -65.916  1.00 27.33 LIG-0.27  OA
BRANCH 4 6
ATOM      6  CA  ARG V 153      22.251  19.616 -64.674  1.00 29.80 LIG 0.18  C 
BRANCH 6 7
ATOM      7  N   ARG V 153      22.778  20.953 -64.958  1.00 31.02 LIG-0.35  N 
ATOM      8 H    ARG V 153      23.412  20.958 -65.539  1.00 31.02 LIG 0.16  HD
ATOM      9  C   ARG V 152      22.318  22.062 -64.367  1.00 33.76 LIG 0.26  C 
ATOM     10 O    ARG V 152      21.406  22.064 -63.528  1.00 32.85 LIG-0.27  OA
BRANCH 9 11
ATOM     11  CA  ARG V 152      23.018  23.370 -64.780  1.00 35.90 LIG 0.40  C 
ATOM     12  N   ARG V 152      22.603  23.825 -66.143  1.00 37.25 LIG 0.61  N 
BRANCH 11 13
ATOM     13  CB  ARG V 152      22.765  24.484 -63.766  1.00 38.16 LIG 0.05  C 
BRANCH 13 14
ATOM     14  CG  ARG V 152      24.000  24.817 -62.942  1.00 40.06 LIG 0.02  C 
BRANCH 14 15
ATOM     15  CD  ARG V 152      24.934  23.632 -62.781  1.00 42.07 LIG 0.14  C 
BRANCH 15 16
ATOM     16  NE  ARG V 152      25.867  23.496 -63.903  1.00 44.48 LIG-0.23  N 
ATOM     17  CZ  ARG V 152      26.887  24.313 -64.172  1.00 45.58 LIG 0.67  C 
ATOM     18  NH1 ARG V 152      27.160  25.367 -63.406  1.00 44.25 LIG-0.23  N 
ATOM     19  NH2 ARG V 152      27.650  24.071 -65.232  1.00 47.95 LIG-0.23  N 
ATOM     20 1HH1 ARG V 152      26.674  25.535 -62.717  1.00 44.25 LIG 0.17  HD
ATOM     21 2HH1 ARG V 152      27.823  25.879 -63.600  1.00 44.25 LIG 0.17  HD
ATOM     22 2HH2 ARG V 152      28.310  24.591 -65.414  1.00 47.95 LIG 0.17  HD
ATOM     23 1HH2 ARG V 152      27.484  23.393 -65.736  1.00 47.95 LIG 0.17  HD
ATOM     24 HE   ARG V 152      25.747  22.831 -64.434  1.00 44.48 LIG 0.18  HD
ENDBRANCH 15 16
ENDBRANCH 14 15
ENDBRANCH 13 14
ENDBRANCH 11 13
ENDBRANCH 9 11
ENDBRANCH 6 7
BRANCH 6 25
ATOM     25  CB  ARG V 153      20.911  19.382 -65.405  1.00 29.44 LIG 0.04  C 
BRANCH 25 26
ATOM     26  CG  ARG V 153      20.609  20.416 -66.468  1.00 30.46 LIG 0.02  C 
BRANCH 26 27
ATOM     27  CD  ARG V 153      19.131  20.767 -66.562  1.00 30.98 LIG 0.14  C 
BRANCH 27 28
ATOM     28  NE  ARG V 153      18.409  19.969 -65.585  1.00 31.91 LIG-0.23  N 
ATOM     29  CZ  ARG V 153      18.085  20.389 -64.365  1.00 32.21 LIG 0.67  C 
ATOM     30  NH2 ARG V 153      18.367  21.625 -63.951  1.00 31.04 LIG-0.23  N 
ATOM     31  NH1 ARG V 153      17.446  19.565 -63.555  1.00 34.14 LIG-0.23  N 
ATOM     32 2HH2 ARG V 153      18.148  21.874 -63.157  1.00 31.04 LIG 0.17  HD
ATOM     33 1HH2 ARG V 153      18.769  22.174 -64.477  1.00 31.04 LIG 0.17  HD
ATOM     34 2HH1 ARG V 153      17.229  19.821 -62.763  1.00 34.14 LIG 0.17  HD
ATOM     35 1HH1 ARG V 153      17.246  18.771 -63.819  1.00 34.14 LIG 0.17  HD
ATOM     36 HE   ARG V 153      18.176  19.173 -65.810  1.00 31.91 LIG 0.18  HD
ENDBRANCH 27 28
ENDBRANCH 26 27
ENDBRANCH 25 26
ENDBRANCH 6 25
ENDBRANCH 4 6
ENDBRANCH 1 2
BRANCH 1 37
ATOM     37  C   LYS V 154      22.838  15.318 -66.074  1.00 29.43 LIG 0.24  C 
ATOM     38 O    LYS V 154      21.642  15.068 -65.901  1.00 29.02 LIG-0.27  OA
ATOM     39  N   LEU V 155      23.517  14.901 -67.134  1.00 29.02 LIG-0.35  N 
ATOM     40 H    LEU V 155      24.344  15.096 -67.272  1.00 29.02 LIG 0.16  HD
BRANCH 39 41
ATOM     41  CA  LEU V 155      22.925  14.069 -68.171  1.00 29.55 LIG 0.18  C 
BRANCH 41 42
ATOM     42  CB  LEU V 155      23.991  13.775 -69.226  1.00 29.70 LIG 0.04  C 
BRANCH 42 43
ATOM     43  CG  LEU V 155      24.208  14.916 -70.221  1.00 30.04 LIG-0.02  C 
ATOM     44  CD1 LEU V 155      25.670  15.032 -70.646  1.00 30.27 LIG 0.01  C 
ATOM     45  CD2 LEU V 155      23.301  14.694 -71.423  1.00 30.44 LIG 0.01  C 
ENDBRANCH 42 43
ENDBRANCH 41 42
BRANCH 41 46
ATOM     46  C   LEU V 155      22.389  12.741 -67.615  1.00 29.88 LIG 0.24  C 
ATOM     47  N   PRO V 156      21.170  12.333 -68.028  1.00 30.63 LIG-0.34  N 
ATOM     48  CD  PRO V 156      20.109  13.075 -68.738  1.00 31.41 LIG 0.13  C 
ATOM     49  CA  PRO V 156      20.733  11.003 -67.632  1.00 30.89 LIG 0.18  C 
ATOM     50  CG  PRO V 156      19.088  12.012 -69.058  1.00 32.36 LIG 0.02  C 
ATOM     51  CB  PRO V 156      19.234  11.009 -67.964  1.00 32.27 LIG 0.04  C 
ATOM     52 O    LEU V 155      23.065  12.092 -66.814  1.00 29.02 LIG-0.27  OA
BRANCH 49 53
ATOM     53  C   PRO V 156      21.463   9.924 -68.421  1.00 31.44 LIG 0.24  C 
ATOM     54 O    PRO V 156      22.505  10.190 -69.021  1.00 31.00 LIG-0.27  OA
ATOM     55  N   GLU V 157      20.924   8.708 -68.386  1.00 32.40 LIG-0.35  N 
ATOM     56 H    GLU V 157      20.284   8.488 -67.855  1.00 32.40 LIG 0.16  HD
BRANCH 55 57
ATOM     57  CA  GLU V 157      21.375   7.621 -69.258  1.00 33.20 LIG 0.18  C 
BRANCH 57 58
ATOM     58  C   GLU V 157      21.472   8.113 -70.695  1.00 33.95 LIG 0.24  C 
ATOM     59 O    GLU V 157      20.925   9.158 -71.031  1.00 33.71 LIG-0.27  OA
ATOM     60  N   ILE V 158      22.151   7.343 -71.536  1.00 34.74 LIG-0.35  N 
ATOM     61 H    ILE V 158      22.543   6.614 -71.303  1.00 34.74 LIG 0.16  HD
BRANCH 60 62
ATOM     62  CA  ILE V 158      22.295   7.673 -72.951  1.00 36.41 LIG 0.17  C 
BRANCH 62 63
ATOM     63  C   ILE V 158      20.926   7.570 -73.637  1.00 36.37 LIG 0.22  C 
ATOM     64 O    ILE V 158      20.121   6.681 -73.355  1.00 37.57 LIG-0.29  OA
ENDBRANCH 62 63
BRANCH 62 65
ATOM     65  CB  ILE V 158      23.343   6.755 -73.621  1.00 38.09 LIG 0.01  C 
ATOM     66  CG2 ILE V 158      22.856   6.294 -74.985  1.00 39.83 LIG 0.01  C 
BRANCH 65 67
ATOM     67  CG1 ILE V 158      24.681   7.491 -73.773  1.00 37.40 LIG 0.00  C 
ATOM     68  CD1 ILE V 158      25.262   7.985 -72.468  1.00 39.06 LIG 0.01  C 
ENDBRANCH 65 67
ENDBRANCH 62 65
ENDBRANCH 60 62
ENDBRANCH 57 58
BRANCH 57 69
ATOM     69  CB  GLU V 157      20.383   6.449 -69.218  1.00 33.67 LIG 0.04  C 
BRANCH 69 70
ATOM     70  CG  GLU V 157      19.133   6.641 -70.063  1.00 33.36 LIG 0.12  C 
BRANCH 70 71
ATOM     71  CD  GLU V 157      18.758   5.403 -70.852  1.00 33.78 LIG 0.17  C 
ATOM     72 OE2  GLU V 157      17.582   5.285 -71.266  1.00 33.85 LIG-0.65  OA
ATOM     73 OE1  GLU V 157      19.643   4.547 -71.069  1.00 33.73 LIG-0.65  OA
ENDBRANCH 70 71
ENDBRANCH 69 70
ENDBRANCH 57 69
ENDBRANCH 55 57
ENDBRANCH 49 53
ENDBRANCH 41 46
ENDBRANCH 39 41
ENDBRANCH 1 37
BRANCH 1 74
ATOM     74  CB  LYS V 154      23.980  15.142 -63.886  1.00 30.73 LIG 0.04  C 
BRANCH 74 75
ATOM     75  CG  LYS V 154      23.998  15.773 -62.496  1.00 31.37 LIG 0.00  C 
BRANCH 75 76
ATOM     76  CD  LYS V 154      24.099  14.712 -61.405  1.00 32.31 LIG 0.03  C 
BRANCH 76 77
ATOM     77  CE  LYS V 154      23.623  15.233 -60.056  1.00 33.00 LIG 0.23  C 
BRANCH 77 78
ATOM     78  NZ  LYS V 154      22.311  15.920 -60.139  1.00 34.35 LIG-0.08  N 
ATOM     79 HZ3  LYS V 154      21.679  15.397 -59.794  1.00 34.35 LIG 0.27  HD
ATOM     80 HZ2  LYS V 154      22.121  16.095 -60.990  1.00 34.35 LIG 0.27  HD
ATOM     81 HZ1  LYS V 154      22.346  16.682 -59.681  1.00 34.35 LIG 0.27  HD
ENDBRANCH 77 78
ENDBRANCH 76 77
ENDBRANCH 75 76
ENDBRANCH 74 75
ENDBRANCH 1 74
TORSDOF 32
ENDMDL
MODEL 10
USER: ADFR SOLUTION from run 78
USER: SCORE 26.931112 LL:  -4.721 LR: -22.975 RR:   0.000 FEB: -13.429
USER: RMSD 3.850306
USER: SEED 77
USER: STATUS no improvement in best in 12 clusters for 5 generations
USER: GENES 34
USER: genes 0 Translation |==|  0.58157 0.58356 0.47866
USER: genes 1 Rotation |==|  0.47567 0.47312 0.49728 0.99868
USER: genes 2 Torsion [C]-CA--N-[C] |==|  0.70724
USER: genes 3 Torsion [N]-C--CA-[N] |==|  0.37355
USER: genes 4 Torsion [C]-CA--N-[C] |==|  0.72008
USER: genes 5 Torsion [N]-C--CA-[N] |==|  0.87799
USER: genes 6 Torsion [C]-CA--CB-[CG] |==|  0.67526
USER: genes 7 Torsion [CA]-CB--CG-[CD] |==|  0.30614
USER: genes 8 Torsion [CB]-CG--CD-[NE] |==|  0.78071
USER: genes 9 Torsion [CG]-CD--NE-[HE] |==|  0.07312
USER: genes 10 Torsion [C]-CA--CB-[CG] |==|  0.52722
USER: genes 11 Torsion [CA]-CB--CG-[CD] |==|  0.61498
USER: genes 12 Torsion [CB]-CG--CD-[NE] |==|  0.22133
USER: genes 13 Torsion [CG]-CD--NE-[CZ] |==|  0.19837
USER: genes 14 Torsion [N]-CA--C-[N] |==|  0.37033
USER: genes 15 Torsion [C]-N--CA-[C] |==|  0.85539
USER: genes 16 Torsion [N]-CA--CB-[CG] |==|  0.73631
USER: genes 17 Torsion [CA]-CB--CG-[CD2] |==|  0.31084
USER: genes 18 Torsion [N]-CA--C-[N] |==|  0.33215
USER: genes 19 Torsion [N]-CA--C-[O] |==|  0.75590
USER: genes 20 Torsion [C]-N--CA-[CB] |==|  0.54263
USER: genes 21 Torsion [N]-CA--C-[N] |==|  0.43551
USER: genes 22 Torsion [C]-N--CA-[CB] |==|  0.36796
USER: genes 23 Torsion [N]-CA--C-[O] |==|  0.18826
USER: genes 24 Torsion [N]-CA--CB-[CG2] |==|  0.54869
USER: genes 25 Torsion [CA]-CB--CG1-[CD1] |==|  0.28888
USER: genes 26 Torsion [N]-CA--CB-[CG] |==|  0.65498
USER: genes 27 Torsion [CA]-CB--CG-[CD] |==|  0.95066
USER: genes 28 Torsion [CB]-CG--CD-[OE2] |==|  0.79760
USER: genes 29 Torsion [N]-CA--CB-[CG] |==|  0.65898
USER: genes 30 Torsion [CA]-CB--CG-[CD] |==|  0.07067
USER: genes 31 Torsion [CB]-CG--CD-[CE] |==|  0.75695
USER: genes 32 Torsion [CG]-CD--CE-[NZ] |==|  0.34658
USER: genes 33 Torsion [CD]-CE--NZ-[HZ2] |==|  0.94393
ROOT
ATOM      1  CA  LYS V 154      23.957  16.013 -65.573  1.00 29.23 LIG 0.18  C 
ENDROOT
BRANCH 1 2
ATOM      2  N   LYS V 154      23.213  17.150 -65.015  1.00 29.36 LIG-0.35  N 
ATOM      3 H    LYS V 154      22.617  16.928 -64.437  1.00 29.36 LIG 0.16  HD
ATOM      4  C   ARG V 153      23.452  18.412 -65.381  1.00 28.75 LIG 0.24  C 
ATOM      5 O    ARG V 153      24.401  18.746 -66.081  1.00 27.33 LIG-0.27  OA
BRANCH 4 6
ATOM      6  CA  ARG V 153      22.444  19.451 -64.923  1.00 29.80 LIG 0.18  C 
BRANCH 6 7
ATOM      7  N   ARG V 153      23.078  20.653 -64.377  1.00 31.02 LIG-0.35  N 
ATOM      8 H    ARG V 153      23.367  21.195 -64.979  1.00 31.02 LIG 0.16  HD
ATOM      9  C   ARG V 152      23.198  20.886 -63.064  1.00 33.76 LIG 0.26  C 
ATOM     10 O    ARG V 152      22.786  20.109 -62.190  1.00 32.85 LIG-0.27  OA
BRANCH 9 11
ATOM     11  CA  ARG V 152      23.917  22.195 -62.688  1.00 35.90 LIG 0.40  C 
ATOM     12  N   ARG V 152      25.144  22.420 -63.513  1.00 37.25 LIG 0.61  N 
BRANCH 11 13
ATOM     13  CB  ARG V 152      22.985  23.399 -62.810  1.00 38.16 LIG 0.05  C 
BRANCH 13 14
ATOM     14  CG  ARG V 152      23.449  24.394 -63.863  1.00 40.06 LIG 0.02  C 
BRANCH 14 15
ATOM     15  CD  ARG V 152      22.544  24.422 -65.081  1.00 42.07 LIG 0.14  C 
BRANCH 15 16
ATOM     16  NE  ARG V 152      22.796  23.304 -65.994  1.00 44.48 LIG-0.23  N 
ATOM     17  CZ  ARG V 152      22.558  23.300 -67.307  1.00 45.58 LIG 0.67  C 
ATOM     18  NH1 ARG V 152      22.054  24.364 -67.929  1.00 44.25 LIG-0.23  N 
ATOM     19  NH2 ARG V 152      22.830  22.209 -68.013  1.00 47.95 LIG-0.23  N 
ATOM     20 1HH1 ARG V 152      21.874  25.077 -67.484  1.00 44.25 LIG 0.17  HD
ATOM     21 2HH1 ARG V 152      21.910  24.339 -68.777  1.00 44.25 LIG 0.17  HD
ATOM     22 2HH2 ARG V 152      22.680  22.196 -68.860  1.00 47.95 LIG 0.17  HD
ATOM     23 1HH2 ARG V 152      23.155  21.514 -67.623  1.00 47.95 LIG 0.17  HD
ATOM     24 HE   ARG V 152      23.126  22.587 -65.654  1.00 44.48 LIG 0.18  HD
ENDBRANCH 15 16
ENDBRANCH 14 15
ENDBRANCH 13 14
ENDBRANCH 11 13
ENDBRANCH 9 11
ENDBRANCH 6 7
BRANCH 6 25
ATOM     25  CB  ARG V 153      21.549  19.796 -66.133  1.00 29.44 LIG 0.04  C 
BRANCH 25 26
ATOM     26  CG  ARG V 153      20.645  20.988 -65.899  1.00 30.46 LIG 0.02  C 
BRANCH 26 27
ATOM     27  CD  ARG V 153      19.239  20.791 -66.450  1.00 30.98 LIG 0.14  C 
BRANCH 27 28
ATOM     28  NE  ARG V 153      18.489  19.977 -65.509  1.00 31.91 LIG-0.23  N 
ATOM     29  CZ  ARG V 153      18.068  20.400 -64.320  1.00 32.21 LIG 0.67  C 
ATOM     30  NH2 ARG V 153      18.270  21.653 -63.910  1.00 31.04 LIG-0.23  N 
ATOM     31  NH1 ARG V 153      17.412  19.561 -63.539  1.00 34.14 LIG-0.23  N 
ATOM     32 2HH2 ARG V 153      17.988  21.904 -63.137  1.00 31.04 LIG 0.17  HD
ATOM     33 1HH2 ARG V 153      18.682  22.211 -64.419  1.00 31.04 LIG 0.17  HD
ATOM     34 2HH1 ARG V 153      17.133  19.820 -62.768  1.00 34.14 LIG 0.17  HD
ATOM     35 1HH1 ARG V 153      17.263  18.756 -63.802  1.00 34.14 LIG 0.17  HD
ATOM     36 HE   ARG V 153      18.305  19.169 -65.735  1.00 31.91 LIG 0.18  HD
ENDBRANCH 27 28
ENDBRANCH 26 27
ENDBRANCH 25 26
ENDBRANCH 6 25
ENDBRANCH 4 6
ENDBRANCH 1 2
BRANCH 1 37
ATOM     37  C   LYS V 154      23.138  15.198 -66.586  1.00 29.43 LIG 0.24  C 
ATOM     38 O    LYS V 154      21.992  14.815 -66.338  1.00 29.02 LIG-0.27  OA
ATOM     39  N   LEU V 155      23.773  14.902 -67.712  1.00 29.02 LIG-0.35  N 
ATOM     40 H    LEU V 155      24.561  15.190 -67.900  1.00 29.02 LIG 0.16  HD
BRANCH 39 41
ATOM     41  CA  LEU V 155      23.190  14.057 -68.744  1.00 29.55 LIG 0.18  C 
BRANCH 41 42
ATOM     42  CB  LEU V 155      24.256  13.781 -69.804  1.00 29.70 LIG 0.04  C 
BRANCH 42 43
ATOM     43  CG  LEU V 155      24.204  14.738 -70.996  1.00 30.04 LIG-0.02  C 
ATOM     44  CD1 LEU V 155      22.930  15.581 -70.996  1.00 30.27 LIG 0.01  C 
ATOM     45  CD2 LEU V 155      25.445  15.618 -70.970  1.00 30.44 LIG 0.01  C 
ENDBRANCH 42 43
ENDBRANCH 41 42
BRANCH 41 46
ATOM     46  C   LEU V 155      22.683  12.720 -68.182  1.00 29.88 LIG 0.24  C 
ATOM     47  N   PRO V 156      21.369  12.440 -68.316  1.00 30.63 LIG-0.34  N 
ATOM     48  CD  PRO V 156      20.242  13.319 -68.683  1.00 31.41 LIG 0.13  C 
ATOM     49  CA  PRO V 156      20.920  11.110 -67.934  1.00 30.89 LIG 0.18  C 
ATOM     50  CG  PRO V 156      19.082  12.366 -68.829  1.00 32.36 LIG 0.02  C 
ATOM     51  CB  PRO V 156      19.392  11.251 -67.888  1.00 32.27 LIG 0.04  C 
ATOM     52 O    LEU V 155      23.468  11.949 -67.626  1.00 29.02 LIG-0.27  OA
BRANCH 49 53
ATOM     53  C   PRO V 156      21.341  10.067 -68.962  1.00 31.44 LIG 0.24  C 
ATOM     54 O    PRO V 156      20.623   9.824 -69.931  1.00 31.00 LIG-0.27  OA
ATOM     55  N   GLU V 157      22.519   9.484 -68.754  1.00 32.40 LIG-0.35  N 
ATOM     56 H    GLU V 157      23.084   9.752 -68.164  1.00 32.40 LIG 0.16  HD
BRANCH 55 57
ATOM     57  CA  GLU V 157      22.966   8.318 -69.520  1.00 33.20 LIG 0.18  C 
BRANCH 57 58
ATOM     58  C   GLU V 157      21.838   7.302 -69.627  1.00 33.95 LIG 0.24  C 
ATOM     59 O    GLU V 157      20.940   7.283 -68.792  1.00 33.71 LIG-0.27  OA
ATOM     60  N   ILE V 158      21.906   6.453 -70.644  1.00 34.74 LIG-0.35  N 
ATOM     61 H    ILE V 158      22.529   6.468 -71.236  1.00 34.74 LIG 0.16  HD
BRANCH 60 62
ATOM     62  CA  ILE V 158      20.912   5.402 -70.850  1.00 36.41 LIG 0.17  C 
BRANCH 62 63
ATOM     63  C   ILE V 158      21.507   4.053 -70.423  1.00 36.37 LIG 0.22  C 
ATOM     64 O    ILE V 158      21.765   3.799 -69.246  1.00 37.57 LIG-0.29  OA
ENDBRANCH 62 63
BRANCH 62 65
ATOM     65  CB  ILE V 158      20.437   5.381 -72.320  1.00 38.09 LIG 0.01  C 
ATOM     66  CG2 ILE V 158      19.131   4.614 -72.449  1.00 39.83 LIG 0.01  C 
BRANCH 65 67
ATOM     67  CG1 ILE V 158      20.249   6.812 -72.843  1.00 37.40 LIG 0.00  C 
ATOM     68  CD1 ILE V 158      21.355   7.280 -73.761  1.00 39.06 LIG 0.01  C 
ENDBRANCH 65 67
ENDBRANCH 62 65
ENDBRANCH 60 62
ENDBRANCH 57 58
BRANCH 57 69
ATOM     69  CB  GLU V 157      24.158   7.641 -68.825  1.00 33.67 LIG 0.04  C 
BRANCH 69 70
ATOM     70  CG  GLU V 157      25.400   7.491 -69.690  1.00 33.36 LIG 0.12  C 
BRANCH 70 71
ATOM     71  CD  GLU V 157      25.111   7.637 -71.171  1.00 33.78 LIG 0.17  C 
ATOM     72 OE2  GLU V 157      24.511   6.712 -71.762  1.00 33.85 LIG-0.65  OA
ATOM     73 OE1  GLU V 157      25.477   8.685 -71.744  1.00 33.73 LIG-0.65  OA
ENDBRANCH 70 71
ENDBRANCH 69 70
ENDBRANCH 57 69
ENDBRANCH 55 57
ENDBRANCH 49 53
ENDBRANCH 41 46
ENDBRANCH 39 41
ENDBRANCH 1 37
BRANCH 1 74
ATOM     74  CB  LYS V 154      24.419  15.060 -64.473  1.00 30.73 LIG 0.04  C 
BRANCH 74 75
ATOM     75  CG  LYS V 154      25.924  14.807 -64.410  1.00 31.37 LIG 0.00  C 
BRANCH 75 76
ATOM     76  CD  LYS V 154      26.710  15.972 -65.003  1.00 32.31 LIG 0.03  C 
BRANCH 76 77
ATOM     77  CE  LYS V 154      26.902  15.825 -66.506  1.00 33.00 LIG 0.23  C 
BRANCH 77 78
ATOM     78  NZ  LYS V 154      26.408  17.001 -67.263  1.00 34.35 LIG-0.08  N 
ATOM     79 HZ3  LYS V 154      27.094  17.527 -67.477  1.00 34.35 LIG 0.27  HD
ATOM     80 HZ2  LYS V 154      25.831  17.456 -66.761  1.00 34.35 LIG 0.27  HD
ATOM     81 HZ1  LYS V 154      26.003  16.727 -68.006  1.00 34.35 LIG 0.27  HD
ENDBRANCH 77 78
ENDBRANCH 76 77
ENDBRANCH 75 76
ENDBRANCH 74 75
ENDBRANCH 1 74
TORSDOF 32
ENDMDL
MODEL 11
USER: ADFR SOLUTION from run 51
USER: SCORE 26.180394 LL:  -3.945 LR: -22.831 RR:   0.000 FEB: -13.285
USER: RMSD 3.730264
USER: SEED 50
USER: STATUS no improvement in best in 2 clusters for 5 generations
USER: GENES 34
USER: genes 0 Translation |==|  0.57512 0.57642 0.49884
USER: genes 1 Rotation |==|  0.45719 0.46804 0.45154 0.99477
USER: genes 2 Torsion [C]-CA--N-[C] |==|  0.74878
USER: genes 3 Torsion [N]-C--CA-[N] |==|  0.33275
USER: genes 4 Torsion [C]-CA--N-[C] |==|  0.74712
USER: genes 5 Torsion [N]-C--CA-[N] |==|  0.86273
USER: genes 6 Torsion [C]-CA--CB-[CG] |==|  0.77893
USER: genes 7 Torsion [CA]-CB--CG-[CD] |==|  0.26868
USER: genes 8 Torsion [CB]-CG--CD-[NE] |==|  0.43869
USER: genes 9 Torsion [CG]-CD--NE-[HE] |==|  0.76522
USER: genes 10 Torsion [C]-CA--CB-[CG] |==|  0.26524
USER: genes 11 Torsion [CA]-CB--CG-[CD] |==|  0.34227
USER: genes 12 Torsion [CB]-CG--CD-[NE] |==|  0.58119
USER: genes 13 Torsion [CG]-CD--NE-[CZ] |==|  0.33737
USER: genes 14 Torsion [N]-CA--C-[N] |==|  0.35886
USER: genes 15 Torsion [C]-N--CA-[C] |==|  0.83209
USER: genes 16 Torsion [N]-CA--CB-[CG] |==|  0.80031
USER: genes 17 Torsion [CA]-CB--CG-[CD2] |==|  0.72235
USER: genes 18 Torsion [N]-CA--C-[N] |==|  0.39915
USER: genes 19 Torsion [N]-CA--C-[O] |==|  0.93183
USER: genes 20 Torsion [C]-N--CA-[CB] |==|  0.53333
USER: genes 21 Torsion [N]-CA--C-[N] |==|  0.41027
USER: genes 22 Torsion [C]-N--CA-[CB] |==|  0.84716
USER: genes 23 Torsion [N]-CA--C-[O] |==|  0.25087
USER: genes 24 Torsion [N]-CA--CB-[CG2] |==|  0.36004
USER: genes 25 Torsion [CA]-CB--CG1-[CD1] |==|  0.54384
USER: genes 26 Torsion [N]-CA--CB-[CG] |==|  0.55207
USER: genes 27 Torsion [CA]-CB--CG-[CD] |==|  0.70733
USER: genes 28 Torsion [CB]-CG--CD-[OE2] |==|  0.92395
USER: genes 29 Torsion [N]-CA--CB-[CG] |==|  0.07446
USER: genes 30 Torsion [CA]-CB--CG-[CD] |==|  0.70903
USER: genes 31 Torsion [CB]-CG--CD-[CE] |==|  0.56232
USER: genes 32 Torsion [CG]-CD--CE-[NZ] |==|  0.81525
USER: genes 33 Torsion [CD]-CE--NZ-[HZ2] |==|  0.61551
ROOT
ATOM      1  CA  LYS V 154      23.836  15.804 -65.043  1.00 29.23 LIG 0.18  C 
ENDROOT
BRANCH 1 2
ATOM      2  N   LYS V 154      23.303  17.094 -64.583  1.00 29.36 LIG-0.35  N 
ATOM      3 H    LYS V 154      22.815  17.039 -63.878  1.00 29.36 LIG 0.16  HD
ATOM      4  C   ARG V 153      23.563  18.242 -65.213  1.00 28.75 LIG 0.24  C 
ATOM      5 O    ARG V 153      24.381  18.348 -66.119  1.00 27.33 LIG-0.27  OA
BRANCH 4 6
ATOM      6  CA  ARG V 153      22.745  19.447 -64.784  1.00 29.80 LIG 0.18  C 
BRANCH 6 7
ATOM      7  N   ARG V 153      23.573  20.538 -64.263  1.00 31.02 LIG-0.35  N 
ATOM      8 H    ARG V 153      23.842  21.087 -64.869  1.00 31.02 LIG 0.16  HD
ATOM      9  C   ARG V 152      23.883  20.667 -62.968  1.00 33.76 LIG 0.26  C 
ATOM     10 O    ARG V 152      23.501  19.880 -62.090  1.00 32.85 LIG-0.27  OA
BRANCH 9 11
ATOM     11  CA  ARG V 152      24.785  21.866 -62.621  1.00 35.90 LIG 0.40  C 
ATOM     12  N   ARG V 152      25.987  21.941 -63.508  1.00 37.25 LIG 0.61  N 
BRANCH 11 13
ATOM     13  CB  ARG V 152      24.013  23.183 -62.685  1.00 38.16 LIG 0.05  C 
BRANCH 13 14
ATOM     14  CG  ARG V 152      23.844  23.694 -64.109  1.00 40.06 LIG 0.02  C 
BRANCH 14 15
ATOM     15  CD  ARG V 152      22.504  23.315 -64.710  1.00 42.07 LIG 0.14  C 
BRANCH 15 16
ATOM     16  NE  ARG V 152      22.117  24.193 -65.818  1.00 44.48 LIG-0.23  N 
ATOM     17  CZ  ARG V 152      22.321  23.949 -67.114  1.00 45.58 LIG 0.67  C 
ATOM     18  NH1 ARG V 152      22.915  22.833 -67.531  1.00 44.25 LIG-0.23  N 
ATOM     19  NH2 ARG V 152      21.922  24.842 -68.013  1.00 47.95 LIG-0.23  N 
ATOM     20 1HH1 ARG V 152      23.178  22.247 -66.960  1.00 44.25 LIG 0.17  HD
ATOM     21 2HH1 ARG V 152      23.035  22.698 -68.372  1.00 44.25 LIG 0.17  HD
ATOM     22 2HH2 ARG V 152      22.048  24.695 -68.851  1.00 47.95 LIG 0.17  HD
ATOM     23 1HH2 ARG V 152      21.537  25.568 -67.757  1.00 47.95 LIG 0.17  HD
ATOM     24 HE   ARG V 152      21.724  24.930 -65.615  1.00 44.48 LIG 0.18  HD
ENDBRANCH 15 16
ENDBRANCH 14 15
ENDBRANCH 13 14
ENDBRANCH 11 13
ENDBRANCH 9 11
ENDBRANCH 6 7
BRANCH 6 25
ATOM     25  CB  ARG V 153      21.923  19.910 -66.007  1.00 29.44 LIG 0.04  C 
BRANCH 25 26
ATOM     26  CG  ARG V 153      20.514  19.355 -66.038  1.00 30.46 LIG 0.02  C 
BRANCH 26 27
ATOM     27  CD  ARG V 153      19.445  20.437 -66.100  1.00 30.98 LIG 0.14  C 
BRANCH 27 28
ATOM     28  NE  ARG V 153      18.246  19.932 -65.451  1.00 31.91 LIG-0.23  N 
ATOM     29  CZ  ARG V 153      17.658  20.509 -64.407  1.00 32.21 LIG 0.67  C 
ATOM     30  NH2 ARG V 153      18.113  21.651 -63.889  1.00 31.04 LIG-0.23  N 
ATOM     31  NH1 ARG V 153      16.583  19.944 -63.887  1.00 34.14 LIG-0.23  N 
ATOM     32 2HH2 ARG V 153      17.716  22.005 -63.213  1.00 31.04 LIG 0.17  HD
ATOM     33 1HH2 ARG V 153      18.802  22.033 -64.231  1.00 31.04 LIG 0.17  HD
ATOM     34 2HH1 ARG V 153      16.192  20.305 -63.211  1.00 34.14 LIG 0.17  HD
ATOM     35 1HH1 ARG V 153      16.274  19.216 -64.225  1.00 34.14 LIG 0.17  HD
ATOM     36 HE   ARG V 153      17.893  19.213 -65.764  1.00 31.91 LIG 0.18  HD
ENDBRANCH 27 28
ENDBRANCH 26 27
ENDBRANCH 25 26
ENDBRANCH 6 25
ENDBRANCH 4 6
ENDBRANCH 1 2
BRANCH 1 37
ATOM     37  C   LYS V 154      22.904  15.087 -66.032  1.00 29.43 LIG 0.24  C 
ATOM     38 O    LYS V 154      21.718  14.873 -65.770  1.00 29.02 LIG-0.27  OA
ATOM     39  N   LEU V 155      23.482  14.681 -67.154  1.00 29.02 LIG-0.35  N 
ATOM     40 H    LEU V 155      24.302  14.852 -67.353  1.00 29.02 LIG 0.16  HD
BRANCH 39 41
ATOM     41  CA  LEU V 155      22.780  13.900 -68.163  1.00 29.55 LIG 0.18  C 
BRANCH 41 42
ATOM     42  CB  LEU V 155      23.738  13.634 -69.324  1.00 29.70 LIG 0.04  C 
BRANCH 42 43
ATOM     43  CG  LEU V 155      24.036  14.869 -70.175  1.00 30.04 LIG-0.02  C 
ATOM     44  CD1 LEU V 155      25.519  14.977 -70.524  1.00 30.27 LIG 0.01  C 
ATOM     45  CD2 LEU V 155      23.178  14.816 -71.430  1.00 30.44 LIG 0.01  C 
ENDBRANCH 42 43
ENDBRANCH 41 42
BRANCH 41 46
ATOM     46  C   LEU V 155      22.274  12.559 -67.611  1.00 29.88 LIG 0.24  C 
ATOM     47  N   PRO V 156      21.085  12.103 -68.060  1.00 30.63 LIG-0.34  N 
ATOM     48  CD  PRO V 156      20.023  12.799 -68.813  1.00 31.41 LIG 0.13  C 
ATOM     49  CA  PRO V 156      20.684  10.762 -67.665  1.00 30.89 LIG 0.18  C 
ATOM     50  CG  PRO V 156      19.053  11.696 -69.156  1.00 32.36 LIG 0.02  C 
ATOM     51  CB  PRO V 156      19.198  10.709 -68.048  1.00 32.27 LIG 0.04  C 
ATOM     52 O    LEU V 155      22.946  11.942 -66.781  1.00 29.02 LIG-0.27  OA
BRANCH 49 53
ATOM     53  C   PRO V 156      21.479   9.702 -68.419  1.00 31.44 LIG 0.24  C 
ATOM     54 O    PRO V 156      21.981   9.963 -69.513  1.00 31.00 LIG-0.27  OA
ATOM     55  N   GLU V 157      21.611   8.527 -67.810  1.00 32.40 LIG-0.35  N 
ATOM     56 H    GLU V 157      21.389   8.389 -66.990  1.00 32.40 LIG 0.16  HD
BRANCH 55 57
ATOM     57  CA  GLU V 157      22.154   7.347 -68.485  1.00 33.20 LIG 0.18  C 
BRANCH 57 58
ATOM     58  C   GLU V 157      21.470   7.158 -69.832  1.00 33.95 LIG 0.24  C 
ATOM     59 O    GLU V 157      20.293   7.470 -69.979  1.00 33.71 LIG-0.27  OA
ATOM     60  N   ILE V 158      22.210   6.630 -70.799  1.00 34.74 LIG-0.35  N 
ATOM     61 H    ILE V 158      23.037   6.418 -70.703  1.00 34.74 LIG 0.16  HD
BRANCH 60 62
ATOM     62  CA  ILE V 158      21.675   6.360 -72.131  1.00 36.41 LIG 0.17  C 
BRANCH 62 63
ATOM     63  C   ILE V 158      21.381   7.690 -72.838  1.00 36.37 LIG 0.22  C 
ATOM     64 O    ILE V 158      22.224   8.258 -73.533  1.00 37.57 LIG-0.29  OA
ENDBRANCH 62 63
BRANCH 62 65
ATOM     65  CB  ILE V 158      20.418   5.466 -72.043  1.00 38.09 LIG 0.01  C 
ATOM     66  CG2 ILE V 158      19.275   6.069 -72.845  1.00 39.83 LIG 0.01  C 
BRANCH 65 67
ATOM     67  CG1 ILE V 158      20.725   4.056 -72.564  1.00 37.40 LIG 0.00  C 
ATOM     68  CD1 ILE V 158      19.494   3.233 -72.869  1.00 39.06 LIG 0.01  C 
ENDBRANCH 65 67
ENDBRANCH 62 65
ENDBRANCH 60 62
ENDBRANCH 57 58
BRANCH 57 69
ATOM     69  CB  GLU V 157      21.912   6.084 -67.644  1.00 33.67 LIG 0.04  C 
BRANCH 69 70
ATOM     70  CG  GLU V 157      22.794   4.898 -68.003  1.00 33.36 LIG 0.12  C 
BRANCH 70 71
ATOM     71  CD  GLU V 157      22.053   3.820 -68.768  1.00 33.78 LIG 0.17  C 
ATOM     72 OE2  GLU V 157      20.820   3.698 -68.597  1.00 33.85 LIG-0.65  OA
ATOM     73 OE1  GLU V 157      22.705   3.096 -69.552  1.00 33.73 LIG-0.65  OA
ENDBRANCH 70 71
ENDBRANCH 69 70
ENDBRANCH 57 69
ENDBRANCH 55 57
ENDBRANCH 49 53
ENDBRANCH 41 46
ENDBRANCH 39 41
ENDBRANCH 1 37
BRANCH 1 74
ATOM     74  CB  LYS V 154      24.087  14.859 -63.871  1.00 30.73 LIG 0.04  C 
BRANCH 74 75
ATOM     75  CG  LYS V 154      23.217  15.093 -62.638  1.00 31.37 LIG 0.00  C 
BRANCH 75 76
ATOM     76  CD  LYS V 154      24.004  15.771 -61.522  1.00 32.31 LIG 0.03  C 
BRANCH 76 77
ATOM     77  CE  LYS V 154      23.380  15.531 -60.155  1.00 33.00 LIG 0.23  C 
BRANCH 77 78
ATOM     78  NZ  LYS V 154      22.052  16.178 -60.010  1.00 34.35 LIG-0.08  N 
ATOM     79 HZ3  LYS V 154      21.960  16.808 -60.632  1.00 34.35 LIG 0.27  HD
ATOM     80 HZ2  LYS V 154      21.988  16.546 -59.203  1.00 34.35 LIG 0.27  HD
ATOM     81 HZ1  LYS V 154      21.413  15.568 -60.109  1.00 34.35 LIG 0.27  HD
ENDBRANCH 77 78
ENDBRANCH 76 77
ENDBRANCH 75 76
ENDBRANCH 74 75
ENDBRANCH 1 74
TORSDOF 32
ENDMDL
MODEL 12
USER: ADFR SOLUTION from run 167
USER: SCORE 26.966704 LL:  -5.007 LR: -22.674 RR:   0.000 FEB: -13.128
USER: RMSD 4.145061
USER: SEED 166
USER: STATUS no improvement in best in 13 clusters for 5 generations
USER: GENES 34
USER: genes 0 Translation |==|  0.57277 0.59096 0.49013
USER: genes 1 Rotation |==|  0.47878 0.50116 0.50678 0.99950
USER: genes 2 Torsion [C]-CA--N-[C] |==|  0.70413
USER: genes 3 Torsion [N]-C--CA-[N] |==|  0.45616
USER: genes 4 Torsion [C]-CA--N-[C] |==|  0.55085
USER: genes 5 Torsion [N]-C--CA-[N] |==|  0.85164
USER: genes 6 Torsion [C]-CA--CB-[CG] |==|  0.27963
USER: genes 7 Torsion [CA]-CB--CG-[CD] |==|  0.86049
USER: genes 8 Torsion [CB]-CG--CD-[NE] |==|  0.52565
USER: genes 9 Torsion [CG]-CD--NE-[HE] |==|  0.03219
USER: genes 10 Torsion [C]-CA--CB-[CG] |==|  0.73303
USER: genes 11 Torsion [CA]-CB--CG-[CD] |==|  0.58919
USER: genes 12 Torsion [CB]-CG--CD-[NE] |==|  0.98680
USER: genes 13 Torsion [CG]-CD--NE-[CZ] |==|  0.25473
USER: genes 14 Torsion [N]-CA--C-[N] |==|  0.39565
USER: genes 15 Torsion [C]-N--CA-[C] |==|  0.83285
USER: genes 16 Torsion [N]-CA--CB-[CG] |==|  0.81838
USER: genes 17 Torsion [CA]-CB--CG-[CD2] |==|  0.72387
USER: genes 18 Torsion [N]-CA--C-[N] |==|  0.38629
USER: genes 19 Torsion [N]-CA--C-[O] |==|  0.08109
USER: genes 20 Torsion [C]-N--CA-[CB] |==|  0.50620
USER: genes 21 Torsion [N]-CA--C-[N] |==|  0.46280
USER: genes 22 Torsion [C]-N--CA-[CB] |==|  0.44440
USER: genes 23 Torsion [N]-CA--C-[O] |==|  0.91930
USER: genes 24 Torsion [N]-CA--CB-[CG2] |==|  0.46526
USER: genes 25 Torsion [CA]-CB--CG1-[CD1] |==|  0.23244
USER: genes 26 Torsion [N]-CA--CB-[CG] |==|  0.60207
USER: genes 27 Torsion [CA]-CB--CG-[CD] |==|  0.04632
USER: genes 28 Torsion [CB]-CG--CD-[OE2] |==|  0.23515
USER: genes 29 Torsion [N]-CA--CB-[CG] |==|  0.65319
USER: genes 30 Torsion [CA]-CB--CG-[CD] |==|  0.07354
USER: genes 31 Torsion [CB]-CG--CD-[CE] |==|  0.75345
USER: genes 32 Torsion [CG]-CD--CE-[NZ] |==|  0.35052
USER: genes 33 Torsion [CD]-CE--NZ-[HZ2] |==|  0.94555
ROOT
ATOM      1  CA  LYS V 154      23.792  16.230 -65.272  1.00 29.23 LIG 0.18  C 
ENDROOT
BRANCH 1 2
ATOM      2  N   LYS V 154      23.080  17.336 -64.618  1.00 29.36 LIG-0.35  N 
ATOM      3 H    LYS V 154      22.549  17.087 -63.989  1.00 29.36 LIG 0.16  HD
ATOM      4  C   ARG V 153      23.252  18.610 -64.979  1.00 28.75 LIG 0.24  C 
ATOM      5 O    ARG V 153      24.118  18.983 -65.761  1.00 27.33 LIG-0.27  OA
BRANCH 4 6
ATOM      6  CA  ARG V 153      22.269  19.613 -64.400  1.00 29.80 LIG 0.18  C 
BRANCH 6 7
ATOM      7  N   ARG V 153      22.728  20.998 -64.533  1.00 31.02 LIG-0.35  N 
ATOM      8 H    ARG V 153      23.347  21.101 -65.122  1.00 31.02 LIG 0.16  HD
ATOM      9  C   ARG V 152      22.232  22.007 -63.808  1.00 33.76 LIG 0.26  C 
ATOM     10 O    ARG V 152      21.341  21.866 -62.957  1.00 32.85 LIG-0.27  OA
BRANCH 9 11
ATOM     11  CA  ARG V 152      22.862  23.386 -64.076  1.00 35.90 LIG 0.40  C 
ATOM     12  N   ARG V 152      24.352  23.359 -63.950  1.00 37.25 LIG 0.61  N 
BRANCH 11 13
ATOM     13  CB  ARG V 152      22.471  23.920 -65.453  1.00 38.16 LIG 0.05  C 
BRANCH 13 14
ATOM     14  CG  ARG V 152      21.355  24.952 -65.386  1.00 40.06 LIG 0.02  C 
BRANCH 14 15
ATOM     15  CD  ARG V 152      20.170  24.479 -64.565  1.00 42.07 LIG 0.14  C 
BRANCH 15 16
ATOM     16  NE  ARG V 152      19.015  25.374 -64.677  1.00 44.48 LIG-0.23  N 
ATOM     17  CZ  ARG V 152      17.923  25.338 -63.912  1.00 45.58 LIG 0.67  C 
ATOM     18  NH1 ARG V 152      17.785  24.448 -62.931  1.00 44.25 LIG-0.23  N 
ATOM     19  NH2 ARG V 152      16.946  26.210 -64.133  1.00 47.95 LIG-0.23  N 
ATOM     20 1HH1 ARG V 152      18.409  23.877 -62.778  1.00 44.25 LIG 0.17  HD
ATOM     21 2HH1 ARG V 152      17.072  24.444 -62.451  1.00 44.25 LIG 0.17  HD
ATOM     22 2HH2 ARG V 152      16.238  26.195 -63.645  1.00 47.95 LIG 0.17  HD
ATOM     23 1HH2 ARG V 152      17.022  26.790 -64.764  1.00 47.95 LIG 0.17  HD
ATOM     24 HE   ARG V 152      19.044  25.976 -65.290  1.00 44.48 LIG 0.18  HD
ENDBRANCH 15 16
ENDBRANCH 14 15
ENDBRANCH 13 14
ENDBRANCH 11 13
ENDBRANCH 9 11
ENDBRANCH 6 7
BRANCH 6 25
ATOM     25  CB  ARG V 153      20.917  19.406 -65.116  1.00 29.44 LIG 0.04  C 
BRANCH 25 26
ATOM     26  CG  ARG V 153      20.694  20.349 -66.279  1.00 30.46 LIG 0.02  C 
BRANCH 26 27
ATOM     27  CD  ARG V 153      19.230  20.716 -66.482  1.00 30.98 LIG 0.14  C 
BRANCH 27 28
ATOM     28  NE  ARG V 153      18.432  19.947 -65.542  1.00 31.91 LIG-0.23  N 
ATOM     29  CZ  ARG V 153      18.091  20.367 -64.327  1.00 32.21 LIG 0.67  C 
ATOM     30  NH2 ARG V 153      18.429  21.579 -63.884  1.00 31.04 LIG-0.23  N 
ATOM     31  NH1 ARG V 153      17.379  19.569 -63.552  1.00 34.14 LIG-0.23  N 
ATOM     32 2HH2 ARG V 153      18.197  21.828 -63.094  1.00 31.04 LIG 0.17  HD
ATOM     33 1HH2 ARG V 153      18.878  22.111 -64.388  1.00 31.04 LIG 0.17  HD
ATOM     34 2HH1 ARG V 153      17.151  19.826 -62.763  1.00 34.14 LIG 0.17  HD
ATOM     35 1HH1 ARG V 153      17.144  18.792 -63.835  1.00 34.14 LIG 0.17  HD
ATOM     36 HE   ARG V 153      18.161  19.169 -65.787  1.00 31.91 LIG 0.18  HD
ENDBRANCH 27 28
ENDBRANCH 26 27
ENDBRANCH 25 26
ENDBRANCH 6 25
ENDBRANCH 4 6
ENDBRANCH 1 2
BRANCH 1 37
ATOM     37  C   LYS V 154      22.890  15.396 -66.196  1.00 29.43 LIG 0.24  C 
ATOM     38 O    LYS V 154      21.729  15.113 -65.889  1.00 29.02 LIG-0.27  OA
ATOM     39  N   LEU V 155      23.468  14.973 -67.311  1.00 29.02 LIG-0.35  N 
ATOM     40 H    LEU V 155      24.268  15.190 -67.542  1.00 29.02 LIG 0.16  HD
BRANCH 39 41
ATOM     41  CA  LEU V 155      22.800  14.092 -68.258  1.00 29.55 LIG 0.18  C 
BRANCH 41 42
ATOM     42  CB  LEU V 155      23.748  13.827 -69.427  1.00 29.70 LIG 0.04  C 
BRANCH 42 43
ATOM     43  CG  LEU V 155      24.065  15.070 -70.260  1.00 30.04 LIG-0.02  C 
ATOM     44  CD1 LEU V 155      25.546  15.149 -70.625  1.00 30.27 LIG 0.01  C 
ATOM     45  CD2 LEU V 155      23.191  15.060 -71.506  1.00 30.44 LIG 0.01  C 
ENDBRANCH 42 43
ENDBRANCH 41 42
BRANCH 41 46
ATOM     46  C   LEU V 155      22.399  12.752 -67.622  1.00 29.88 LIG 0.24  C 
ATOM     47  N   PRO V 156      21.192  12.240 -67.943  1.00 30.63 LIG-0.34  N 
ATOM     48  CD  PRO V 156      20.038  12.873 -68.611  1.00 31.41 LIG 0.13  C 
ATOM     49  CA  PRO V 156      20.881  10.898 -67.473  1.00 30.89 LIG 0.18  C 
ATOM     50  CG  PRO V 156      19.083  11.726 -68.829  1.00 32.36 LIG 0.02  C 
ATOM     51  CB  PRO V 156      19.369  10.781 -67.711  1.00 32.27 LIG 0.04  C 
ATOM     52 O    LEU V 155      23.169  12.187 -66.842  1.00 29.02 LIG-0.27  OA
BRANCH 49 53
ATOM     53  C   PRO V 156      21.643   9.844 -68.268  1.00 31.44 LIG 0.24  C 
ATOM     54 O    PRO V 156      22.738  10.110 -68.763  1.00 31.00 LIG-0.27  OA
ATOM     55  N   GLU V 157      21.067   8.648 -68.353  1.00 32.40 LIG-0.35  N 
ATOM     56 H    GLU V 157      20.379   8.418 -67.891  1.00 32.40 LIG 0.16  HD
BRANCH 55 57
ATOM     57  CA  GLU V 157      21.557   7.601 -69.252  1.00 33.20 LIG 0.18  C 
BRANCH 57 58
ATOM     58  C   GLU V 157      21.546   8.102 -70.690  1.00 33.95 LIG 0.24  C 
ATOM     59 O    GLU V 157      20.928   9.120 -70.986  1.00 33.71 LIG-0.27  OA
ATOM     60  N   ILE V 158      22.213   7.372 -71.573  1.00 34.74 LIG-0.35  N 
ATOM     61 H    ILE V 158      22.654   6.662 -71.369  1.00 34.74 LIG 0.16  HD
BRANCH 60 62
ATOM     62  CA  ILE V 158      22.258   7.713 -72.992  1.00 36.41 LIG 0.17  C 
BRANCH 62 63
ATOM     63  C   ILE V 158      20.927   7.322 -73.650  1.00 36.37 LIG 0.22  C 
ATOM     64 O    ILE V 158      20.242   6.388 -73.229  1.00 37.57 LIG-0.29  OA
ENDBRANCH 62 63
BRANCH 62 65
ATOM     65  CB  ILE V 158      23.461   7.029 -73.680  1.00 38.09 LIG 0.01  C 
ATOM     66  CG2 ILE V 158      23.339   7.127 -75.193  1.00 39.83 LIG 0.01  C 
BRANCH 65 67
ATOM     67  CG1 ILE V 158      24.777   7.676 -73.226  1.00 37.40 LIG 0.00  C 
ATOM     68  CD1 ILE V 158      25.308   7.133 -71.919  1.00 39.06 LIG 0.01  C 
ENDBRANCH 65 67
ENDBRANCH 62 65
ENDBRANCH 60 62
ENDBRANCH 57 58
BRANCH 57 69
ATOM     69  CB  GLU V 157      20.660   6.356 -69.172  1.00 33.67 LIG 0.04  C 
BRANCH 69 70
ATOM     70  CG  GLU V 157      21.396   5.030 -69.278  1.00 33.36 LIG 0.12  C 
BRANCH 70 71
ATOM     71  CD  GLU V 157      22.888   5.162 -69.042  1.00 33.78 LIG 0.17  C 
ATOM     72 OE2  GLU V 157      23.316   5.143 -67.867  1.00 33.85 LIG-0.65  OA
ATOM     73 OE1  GLU V 157      23.636   5.275 -70.037  1.00 33.73 LIG-0.65  OA
ENDBRANCH 70 71
ENDBRANCH 69 70
ENDBRANCH 57 69
ENDBRANCH 55 57
ENDBRANCH 49 53
ENDBRANCH 41 46
ENDBRANCH 39 41
ENDBRANCH 1 37
BRANCH 1 74
ATOM     74  CB  LYS V 154      24.407  15.283 -64.244  1.00 30.73 LIG 0.04  C 
BRANCH 74 75
ATOM     75  CG  LYS V 154      25.908  15.041 -64.386  1.00 31.37 LIG 0.00  C 
BRANCH 75 76
ATOM     76  CD  LYS V 154      26.601  16.221 -65.059  1.00 32.31 LIG 0.03  C 
BRANCH 76 77
ATOM     77  CE  LYS V 154      26.619  16.084 -66.575  1.00 33.00 LIG 0.23  C 
BRANCH 77 78
ATOM     78  NZ  LYS V 154      26.052  17.270 -67.263  1.00 34.35 LIG-0.08  N 
ATOM     79 HZ3  LYS V 154      26.714  17.788 -67.558  1.00 34.35 LIG 0.27  HD
ATOM     80 HZ2  LYS V 154      25.547  17.730 -66.693  1.00 34.35 LIG 0.27  HD
ATOM     81 HZ1  LYS V 154      25.555  17.004 -67.952  1.00 34.35 LIG 0.27  HD
ENDBRANCH 77 78
ENDBRANCH 76 77
ENDBRANCH 75 76
ENDBRANCH 74 75
ENDBRANCH 1 74
TORSDOF 32
ENDMDL
MODEL 13
USER: ADFR SOLUTION from run 171
USER: SCORE 26.064719 LL:  -3.994 LR: -22.660 RR:   0.000 FEB: -13.114
USER: RMSD 3.217139
USER: SEED 170
USER: STATUS searching
USER: GENES 34
USER: genes 0 Translation |==|  0.56666 0.57791 0.49975
USER: genes 1 Rotation |==|  0.46711 0.43387 0.43764 0.99057
USER: genes 2 Torsion [C]-CA--N-[C] |==|  0.77278
USER: genes 3 Torsion [N]-C--CA-[N] |==|  0.32619
USER: genes 4 Torsion [C]-CA--N-[C] |==|  0.75474
USER: genes 5 Torsion [N]-C--CA-[N] |==|  0.45961
USER: genes 6 Torsion [C]-CA--CB-[CG] |==|  0.50791
USER: genes 7 Torsion [CA]-CB--CG-[CD] |==|  0.49671
USER: genes 8 Torsion [CB]-CG--CD-[NE] |==|  0.17206
USER: genes 9 Torsion [CG]-CD--NE-[HE] |==|  0.99984
USER: genes 10 Torsion [C]-CA--CB-[CG] |==|  0.47422
USER: genes 11 Torsion [CA]-CB--CG-[CD] |==|  0.63654
USER: genes 12 Torsion [CB]-CG--CD-[NE] |==|  0.24482
USER: genes 13 Torsion [CG]-CD--NE-[CZ] |==|  0.17754
USER: genes 14 Torsion [N]-CA--C-[N] |==|  0.36285
USER: genes 15 Torsion [C]-N--CA-[C] |==|  0.80508
USER: genes 16 Torsion [N]-CA--CB-[CG] |==|  0.77397
USER: genes 17 Torsion [CA]-CB--CG-[CD2] |==|  0.75316
USER: genes 18 Torsion [N]-CA--C-[N] |==|  0.35081
USER: genes 19 Torsion [N]-CA--C-[O] |==|  0.77294
USER: genes 20 Torsion [C]-N--CA-[CB] |==|  0.52809
USER: genes 21 Torsion [N]-CA--C-[N] |==|  0.42528
USER: genes 22 Torsion [C]-N--CA-[CB] |==|  0.29788
USER: genes 23 Torsion [N]-CA--C-[O] |==|  0.61603
USER: genes 24 Torsion [N]-CA--CB-[CG2] |==|  0.68532
USER: genes 25 Torsion [CA]-CB--CG1-[CD1] |==|  0.23707
USER: genes 26 Torsion [N]-CA--CB-[CG] |==|  0.60574
USER: genes 27 Torsion [CA]-CB--CG-[CD] |==|  0.99237
USER: genes 28 Torsion [CB]-CG--CD-[OE2] |==|  0.21941
USER: genes 29 Torsion [N]-CA--CB-[CG] |==|  0.90651
USER: genes 30 Torsion [CA]-CB--CG-[CD] |==|  0.41226
USER: genes 31 Torsion [CB]-CG--CD-[CE] |==|  0.53445
USER: genes 32 Torsion [CG]-CD--CE-[NZ] |==|  0.27095
USER: genes 33 Torsion [CD]-CE--NZ-[HZ2] |==|  0.85753
ROOT
ATOM      1  CA  LYS V 154      23.678  15.848 -65.020  1.00 29.23 LIG 0.18  C 
ENDROOT
BRANCH 1 2
ATOM      2  N   LYS V 154      23.136  17.148 -64.601  1.00 29.36 LIG-0.35  N 
ATOM      3 H    LYS V 154      22.639  17.111 -63.900  1.00 29.36 LIG 0.16  HD
ATOM      4  C   ARG V 153      23.401  18.279 -65.259  1.00 28.75 LIG 0.24  C 
ATOM      5 O    ARG V 153      24.230  18.363 -66.157  1.00 27.33 LIG-0.27  OA
BRANCH 4 6
ATOM      6  CA  ARG V 153      22.574  19.493 -64.872  1.00 29.80 LIG 0.18  C 
BRANCH 6 7
ATOM      7  N   ARG V 153      23.387  20.579 -64.320  1.00 31.02 LIG-0.35  N 
ATOM      8 H    ARG V 153      23.656  21.144 -64.910  1.00 31.02 LIG 0.16  HD
ATOM      9  C   ARG V 152      23.684  20.683 -63.019  1.00 33.76 LIG 0.26  C 
ATOM     10 O    ARG V 152      23.301  19.873 -62.162  1.00 32.85 LIG-0.27  OA
BRANCH 9 11
ATOM     11  CA  ARG V 152      24.572  21.882 -62.637  1.00 35.90 LIG 0.40  C 
ATOM     12  N   ARG V 152      24.574  22.134 -61.163  1.00 37.25 LIG 0.61  N 
BRANCH 11 13
ATOM     13  CB  ARG V 152      26.005  21.695 -63.130  1.00 38.16 LIG 0.05  C 
BRANCH 13 14
ATOM     14  CG  ARG V 152      26.923  22.833 -62.708  1.00 40.06 LIG 0.02  C 
BRANCH 14 15
ATOM     15  CD  ARG V 152      28.354  22.633 -63.173  1.00 42.07 LIG 0.14  C 
BRANCH 15 16
ATOM     16  NE  ARG V 152      28.469  22.587 -64.633  1.00 44.48 LIG-0.23  N 
ATOM     17  CZ  ARG V 152      29.600  22.424 -65.322  1.00 45.58 LIG 0.67  C 
ATOM     18  NH1 ARG V 152      30.774  22.275 -64.713  1.00 44.25 LIG-0.23  N 
ATOM     19  NH2 ARG V 152      29.555  22.409 -66.650  1.00 47.95 LIG-0.23  N 
ATOM     20 1HH1 ARG V 152      30.818  22.284 -63.854  1.00 44.25 LIG 0.17  HD
ATOM     21 2HH1 ARG V 152      31.490  22.171 -65.178  1.00 44.25 LIG 0.17  HD
ATOM     22 2HH2 ARG V 152      30.278  22.304 -67.103  1.00 47.95 LIG 0.17  HD
ATOM     23 1HH2 ARG V 152      28.803  22.505 -67.056  1.00 47.95 LIG 0.17  HD
ATOM     24 HE   ARG V 152      27.743  22.673 -65.086  1.00 44.48 LIG 0.18  HD
ENDBRANCH 15 16
ENDBRANCH 14 15
ENDBRANCH 13 14
ENDBRANCH 11 13
ENDBRANCH 9 11
ENDBRANCH 6 7
BRANCH 6 25
ATOM     25  CB  ARG V 153      21.812  19.957 -66.133  1.00 29.44 LIG 0.04  C 
BRANCH 25 26
ATOM     26  CG  ARG V 153      20.773  21.024 -65.857  1.00 30.46 LIG 0.02  C 
BRANCH 26 27
ATOM     27  CD  ARG V 153      19.416  20.712 -66.472  1.00 30.98 LIG 0.14  C 
BRANCH 27 28
ATOM     28  NE  ARG V 153      18.653  19.921 -65.522  1.00 31.91 LIG-0.23  N 
ATOM     29  CZ  ARG V 153      18.261  20.355 -64.327  1.00 32.21 LIG 0.67  C 
ATOM     30  NH2 ARG V 153      18.507  21.601 -63.919  1.00 31.04 LIG-0.23  N 
ATOM     31  NH1 ARG V 153      17.590  19.535 -63.539  1.00 34.14 LIG-0.23  N 
ATOM     32 2HH2 ARG V 153      18.244  21.859 -63.142  1.00 31.04 LIG 0.17  HD
ATOM     33 1HH2 ARG V 153      18.929  22.146 -64.432  1.00 31.04 LIG 0.17  HD
ATOM     34 2HH1 ARG V 153      17.330  19.801 -62.763  1.00 34.14 LIG 0.17  HD
ATOM     35 1HH1 ARG V 153      17.413  18.735 -63.800  1.00 34.14 LIG 0.17  HD
ATOM     36 HE   ARG V 153      18.441  19.118 -65.746  1.00 31.91 LIG 0.18  HD
ENDBRANCH 27 28
ENDBRANCH 26 27
ENDBRANCH 25 26
ENDBRANCH 6 25
ENDBRANCH 4 6
ENDBRANCH 1 2
BRANCH 1 37
ATOM     37  C   LYS V 154      22.871  15.198 -66.154  1.00 29.43 LIG 0.24  C 
ATOM     38 O    LYS V 154      21.647  15.053 -66.083  1.00 29.02 LIG-0.27  OA
ATOM     39  N   LEU V 155      23.592  14.767 -67.180  1.00 29.02 LIG-0.35  N 
ATOM     40 H    LEU V 155      24.441  14.890 -67.246  1.00 29.02 LIG 0.16  HD
BRANCH 39 41
ATOM     41  CA  LEU V 155      23.011  14.040 -68.300  1.00 29.55 LIG 0.18  C 
BRANCH 41 42
ATOM     42  CB  LEU V 155      24.059  13.940 -69.408  1.00 29.70 LIG 0.04  C 
BRANCH 42 43
ATOM     43  CG  LEU V 155      24.164  15.196 -70.275  1.00 30.04 LIG-0.02  C 
ATOM     44  CD1 LEU V 155      25.587  15.420 -70.783  1.00 30.27 LIG 0.01  C 
ATOM     45  CD2 LEU V 155      23.180  15.076 -71.429  1.00 30.44 LIG 0.01  C 
ENDBRANCH 42 43
ENDBRANCH 41 42
BRANCH 41 46
ATOM     46  C   LEU V 155      22.562  12.626 -67.903  1.00 29.88 LIG 0.24  C 
ATOM     47  N   PRO V 156      21.287  12.273 -68.173  1.00 30.63 LIG-0.34  N 
ATOM     48  CD  PRO V 156      20.130  13.106 -68.556  1.00 31.41 LIG 0.13  C 
ATOM     49  CA  PRO V 156      20.908  10.886 -67.949  1.00 30.89 LIG 0.18  C 
ATOM     50  CG  PRO V 156      19.059  12.096 -68.883  1.00 32.36 LIG 0.02  C 
ATOM     51  CB  PRO V 156      19.375  10.921 -68.022  1.00 32.27 LIG 0.04  C 
ATOM     52 O    LEU V 155      23.355  11.860 -67.352  1.00 29.02 LIG-0.27  OA
BRANCH 49 53
ATOM     53  C   PRO V 156      21.485   9.975 -69.026  1.00 31.44 LIG 0.24  C 
ATOM     54 O    PRO V 156      20.922   9.865 -70.115  1.00 31.00 LIG-0.27  OA
ATOM     55  N   GLU V 157      22.622   9.354 -68.719  1.00 32.40 LIG-0.35  N 
ATOM     56 H    GLU V 157      23.090   9.539 -68.022  1.00 32.40 LIG 0.16  HD
BRANCH 55 57
ATOM     57  CA  GLU V 157      23.186   8.288 -69.550  1.00 33.20 LIG 0.18  C 
BRANCH 57 58
ATOM     58  C   GLU V 157      22.122   7.241 -69.844  1.00 33.95 LIG 0.24  C 
ATOM     59 O    GLU V 157      21.198   7.056 -69.058  1.00 33.71 LIG-0.27  OA
ATOM     60  N   ILE V 158      22.271   6.549 -70.966  1.00 34.74 LIG-0.35  N 
ATOM     61 H    ILE V 158      22.912   6.680 -71.525  1.00 34.74 LIG 0.16  HD
BRANCH 60 62
ATOM     62  CA  ILE V 158      21.347   5.488 -71.358  1.00 36.41 LIG 0.17  C 
BRANCH 62 63
ATOM     63  C   ILE V 158      22.146   4.225 -71.708  1.00 36.37 LIG 0.22  C 
ATOM     64 O    ILE V 158      21.861   3.522 -72.679  1.00 37.57 LIG-0.29  OA
ENDBRANCH 62 63
BRANCH 62 65
ATOM     65  CB  ILE V 158      20.455   5.948 -72.533  1.00 38.09 LIG 0.01  C 
ATOM     66  CG2 ILE V 158      19.005   6.064 -72.091  1.00 39.83 LIG 0.01  C 
BRANCH 65 67
ATOM     67  CG1 ILE V 158      20.938   7.300 -73.075  1.00 37.40 LIG 0.00  C 
ATOM     68  CD1 ILE V 158      22.043   7.191 -74.100  1.00 39.06 LIG 0.01  C 
ENDBRANCH 65 67
ENDBRANCH 62 65
ENDBRANCH 60 62
ENDBRANCH 57 58
BRANCH 57 69
ATOM     69  CB  GLU V 157      24.351   7.598 -68.825  1.00 33.67 LIG 0.04  C 
BRANCH 69 70
ATOM     70  CG  GLU V 157      25.517   7.205 -69.718  1.00 33.36 LIG 0.12  C 
BRANCH 70 71
ATOM     71  CD  GLU V 157      25.271   7.517 -71.182  1.00 33.78 LIG 0.17  C 
ATOM     72 OE2  GLU V 157      25.417   8.694 -71.580  1.00 33.85 LIG-0.65  OA
ATOM     73 OE1  GLU V 157      24.939   6.580 -71.939  1.00 33.73 LIG-0.65  OA
ENDBRANCH 70 71
ENDBRANCH 69 70
ENDBRANCH 57 69
ENDBRANCH 55 57
ENDBRANCH 49 53
ENDBRANCH 41 46
ENDBRANCH 39 41
ENDBRANCH 1 37
BRANCH 1 74
ATOM     74  CB  LYS V 154      23.718  14.863 -63.853  1.00 30.73 LIG 0.04  C 
BRANCH 74 75
ATOM     75  CG  LYS V 154      23.997  15.477 -62.483  1.00 31.37 LIG 0.00  C 
BRANCH 75 76
ATOM     76  CD  LYS V 154      23.299  14.699 -61.372  1.00 32.31 LIG 0.03  C 
BRANCH 76 77
ATOM     77  CE  LYS V 154      23.311  15.455 -60.051  1.00 33.00 LIG 0.23  C 
BRANCH 77 78
ATOM     78  NZ  LYS V 154      22.049  16.195 -59.804  1.00 34.35 LIG-0.08  N 
ATOM     79 HZ3  LYS V 154      21.389  15.616 -59.658  1.00 34.35 LIG 0.27  HD
ATOM     80 HZ2  LYS V 154      21.854  16.695 -60.513  1.00 34.35 LIG 0.27  HD
ATOM     81 HZ1  LYS V 154      22.147  16.718 -59.091  1.00 34.35 LIG 0.27  HD
ENDBRANCH 77 78
ENDBRANCH 76 77
ENDBRANCH 75 76
ENDBRANCH 74 75
ENDBRANCH 1 74
TORSDOF 32
ENDMDL
