MODEL 1
USER: ADFR SOLUTION from run 140
USER: SCORE 26.365196 LL:  -5.636 LR: -23.086 RR:   0.000 FEB: -14.137
USER: RMSD 3.184345
USER: SEED 139
USER: STATUS no improvement in best in 2 clusters for 5 generations
USER: GENES 32
USER: genes 0 Translation |==|  0.44059 0.46383 0.48645
USER: genes 1 Rotation |==|  0.52163 0.50613 0.50060 0.99949
USER: genes 2 Torsion [C]-N--CA-[C] |==|  0.64466
USER: genes 3 Torsion [N]-CA--C-[N] |==|  0.42786
USER: genes 4 Torsion [C]-N--CA-[CB] |==|  0.22220
USER: genes 5 Torsion [N]-CA--C-[N] |==|  0.34242
USER: genes 6 Torsion [C]-N--CA-[CB] |==|  0.46125
USER: genes 7 Torsion [N]-CA--CB-[CG2] |==|  0.86144
USER: genes 8 Torsion [N]-CA--C-[N] |==|  0.36200
USER: genes 9 Torsion [C]-N--CA-[C] |==|  0.65987
USER: genes 10 Torsion [N]-CA--C-[OXT] |==|  0.37651
USER: genes 11 Torsion [N]-CA--CB-[CG] |==|  0.89281
USER: genes 12 Torsion [CA]-CB--CG-[SD] |==|  0.84061
USER: genes 13 Torsion [CB]-CG--SD-[CE] |==|  0.85604
USER: genes 14 Torsion [N]-CA--CB-[CG2] |==|  0.50201
USER: genes 15 Torsion [CA]-CB--OG1-[HG1] |==|  0.19294
USER: genes 16 Torsion [N]-CA--CB-[CG] |==|  0.52197
USER: genes 17 Torsion [CA]-CB--CG-[CD] |==|  0.43029
USER: genes 18 Torsion [CB]-CG--CD-[OE2] |==|  0.93047
USER: genes 19 Torsion [N]-C--CA-[N] |==|  0.35557
USER: genes 20 Torsion [C]-CA--CB-[CG] |==|  0.26135
USER: genes 21 Torsion [CA]-CB--CG-[CD1] |==|  0.96913
USER: genes 22 Torsion [C]-CA--N-[C] |==|  0.84444
USER: genes 23 Torsion [N]-C--CA-[N] |==|  0.39229
USER: genes 24 Torsion [C]-CA--N-[C] |==|  0.81904
USER: genes 25 Torsion [N]-C--CA-[N] |==|  0.25319
USER: genes 26 Torsion [C]-CA--CB-[CG] |==|  0.15445
USER: genes 27 Torsion [CA]-CB--CG-[CD] |==|  0.12324
USER: genes 28 Torsion [CB]-CG--CD-[OE2] |==|  0.58230
USER: genes 29 Torsion [C]-CA--CB-[CG] |==|  0.54939
USER: genes 30 Torsion [CA]-CB--CG-[CD] |==|  0.24433
USER: genes 31 Torsion [CB]-CG--CD-[OE2] |==|  0.71463
ROOT
ATOM      1  C   TRP B 589     -11.419   0.221 -12.522  1.00  8.59 LIG 0.24  C 
ATOM      2 O    TRP B 589     -10.854   0.544 -11.482  1.00  9.54 LIG-0.27  OA
ATOM      3  N   GLU B 590     -10.771  -0.189 -13.599  1.00  8.93 LIG-0.35  N 
ATOM      4 H    GLU B 590     -11.169  -0.423 -14.325  1.00  8.93 LIG 0.16  HD
ENDROOT
BRANCH 3 5
ATOM      5  CA  GLU B 590      -9.320  -0.287 -13.675  1.00  8.22 LIG 0.18  C 
BRANCH 5 6
ATOM      6  C   GLU B 590      -8.836   0.461 -14.909  1.00  8.58 LIG 0.24  C 
ATOM      7 O    GLU B 590      -9.577   0.603 -15.876  1.00 10.27 LIG-0.27  OA
ATOM      8  N   THR B 591      -7.593   0.931 -14.867  1.00  8.10 LIG-0.34  N 
ATOM      9 H    THR B 591      -7.068   0.813 -14.197  1.00  8.10 LIG 0.16  HD
BRANCH 8 10
ATOM     10  CA  THR B 591      -6.994   1.695 -15.956  1.00  8.42 LIG 0.20  C 
BRANCH 10 11
ATOM     11  C   THR B 591      -5.478   1.604 -15.849  1.00  8.31 LIG 0.24  C 
ATOM     12  N   VAL B 592      -4.852   1.131 -16.915  1.00  8.54 LIG-0.35  N 
ATOM     13 H    VAL B 592      -5.267   0.877 -17.624  1.00  8.54 LIG 0.16  HD
ATOM     14 O    THR B 591      -4.895   1.978 -14.824  1.00  8.65 LIG-0.27  OA
BRANCH 12 15
ATOM     15  CA  VAL B 592      -3.414   0.989 -17.012  1.00  9.13 LIG 0.18  C 
BRANCH 15 16
ATOM     16  CB  VAL B 592      -3.040   0.099 -18.222  1.00  9.93 LIG 0.01  C 
ATOM     17  CG2 VAL B 592      -3.848  -1.202 -18.210  1.00 10.24 LIG 0.01  C 
ATOM     18  CG1 VAL B 592      -1.555  -0.185 -18.226  1.00 10.82 LIG 0.01  C 
ENDBRANCH 15 16
BRANCH 15 19
ATOM     19  C   VAL B 592      -2.794   2.368 -17.145  1.00  9.48 LIG 0.24  C 
ATOM     20 O    VAL B 592      -3.232   3.160 -17.975  1.00 10.72 LIG-0.27  OA
ATOM     21  N   MET B 593      -1.781   2.650 -16.324  1.00 10.11 LIG-0.34  N 
ATOM     22 H    MET B 593      -1.437   2.081 -15.779  1.00 10.11 LIG 0.16  HD
BRANCH 21 23
ATOM     23  CA  MET B 593      -1.157   3.975 -16.278  1.00 11.88 LIG 0.19  C 
BRANCH 23 24
ATOM     24  C   MET B 593       0.343   3.955 -16.559  1.00 15.28 LIG 0.20  C 
ATOM     25 OXT  MET B 593       0.824   4.798 -17.317  1.00 15.41 LIG-0.65  OA
ATOM     26 O    MET B 593       1.105   3.176 -15.975  1.00 17.52 LIG-0.65  OA
ENDBRANCH 23 24
BRANCH 23 27
ATOM     27  CB  MET B 593      -1.346   4.604 -14.902  1.00 10.86 LIG 0.05  C 
BRANCH 27 28
ATOM     28  CG  MET B 593      -2.695   4.345 -14.276  1.00 11.31 LIG 0.08  C 
BRANCH 28 29
ATOM     29 SD   MET B 593      -4.109   4.884 -15.246  1.00 11.06 LIG-0.17  SA
ATOM     30  CE  MET B 593      -3.680   6.585 -15.602  1.00 12.56 LIG 0.09  C 
ENDBRANCH 28 29
ENDBRANCH 27 28
ENDBRANCH 23 27
ENDBRANCH 21 23
ENDBRANCH 15 19
ENDBRANCH 12 15
ENDBRANCH 10 11
BRANCH 10 31
ATOM     31  CB  THR B 591      -7.468   3.174 -15.901  1.00  8.77 LIG 0.15  C 
ATOM     32  CG2 THR B 591      -6.883   4.004 -17.027  1.00  9.88 LIG 0.04  C 
BRANCH 31 33
ATOM     33 OG1  THR B 591      -8.894   3.196 -15.977  1.00  9.65 LIG-0.39  OA
ATOM     34 HG1  THR B 591      -9.218   2.883 -15.268  1.00  9.65 LIG 0.21  HD
ENDBRANCH 31 33
ENDBRANCH 10 31
ENDBRANCH 8 10
ENDBRANCH 5 6
BRANCH 5 35
ATOM     35  CB  GLU B 590      -8.886  -1.759 -13.698  1.00  9.50 LIG 0.04  C 
BRANCH 35 36
ATOM     36  CG  GLU B 590      -7.388  -1.984 -13.586  1.00  9.44 LIG 0.12  C 
BRANCH 36 37
ATOM     37  CD  GLU B 590      -6.986  -3.335 -13.020  1.00 10.34 LIG 0.17  C 
ATOM     38 OE2  GLU B 590      -7.805  -3.918 -12.282  1.00  9.56 LIG-0.65  OA
ATOM     39 OE1  GLU B 590      -5.894  -3.836 -13.352  1.00 12.93 LIG-0.65  OA
ENDBRANCH 36 37
ENDBRANCH 35 36
ENDBRANCH 5 35
ENDBRANCH 3 5
BRANCH 1 40
ATOM     40  CA  TRP B 589     -12.924   0.313 -12.647  1.00 10.41 LIG 0.18  C 
BRANCH 40 41
ATOM     41  CB  TRP B 589     -13.313   1.784 -12.598  1.00 16.42 LIG 0.07  C 
BRANCH 41 42
ATOM     42  CG  TRP B 589     -13.450   2.440 -13.915  1.00 28.27 LIG-0.03  A 
ATOM     43  CD1 TRP B 589     -13.071   1.948 -15.126  1.00 31.36 LIG 0.10  A 
ATOM     44  NE1 TRP B 589     -13.367   2.853 -16.117  1.00 35.25 LIG-0.36  N 
ATOM     45 HE1  TRP B 589     -13.217   2.743 -16.957  1.00 35.25 LIG 0.17  HD
ATOM     46  CE2 TRP B 589     -13.941   3.960 -15.549  1.00 40.47 LIG 0.04  A 
ATOM     47  CD2 TRP B 589     -14.007   3.734 -14.161  1.00 37.76 LIG-0.00  A 
ATOM     48  CZ2 TRP B 589     -14.401   5.136 -16.137  1.00 47.06 LIG 0.03  A 
ATOM     49  CE3 TRP B 589     -14.557   4.725 -13.342  1.00 44.39 LIG 0.01  A 
ATOM     50  CZ3 TRP B 589     -15.016   5.891 -13.928  1.00 48.60 LIG 0.00  A 
ATOM     51  CH2 TRP B 589     -14.935   6.086 -15.310  1.00 49.92 LIG 0.00  A 
ENDBRANCH 41 42
ENDBRANCH 40 41
BRANCH 40 52
ATOM     52  N   TRP B 589     -13.536  -0.413 -11.557  1.00 10.46 LIG-0.35  N 
ATOM     53 H    TRP B 589     -14.078   0.065 -11.090  1.00 10.46 LIG 0.16  HD
ATOM     54  C   GLU B 588     -13.294  -1.683 -11.297  1.00 14.97 LIG 0.24  C 
ATOM     55 O    GLU B 588     -12.546  -2.392 -11.970  1.00 17.61 LIG-0.27  OA
BRANCH 54 56
ATOM     56  CA  GLU B 588     -14.032  -2.218 -10.080  1.00 18.53 LIG 0.18  C 
BRANCH 56 57
ATOM     57  N   GLU B 588     -14.504  -3.585 -10.297  1.00 19.74 LIG-0.35  N 
ATOM     58 H    GLU B 588     -14.130  -4.164  -9.782  1.00 19.74 LIG 0.16  HD
ATOM     59  C   GLU B 587     -15.427  -3.904 -11.209  1.00 22.74 LIG 0.26  C 
ATOM     60 O    GLU B 587     -15.977  -3.085 -11.939  1.00 21.09 LIG-0.27  OA
BRANCH 59 61
ATOM     61  CA  GLU B 587     -15.785  -5.381 -11.328  1.00 29.94 LIG 0.40  C 
ATOM     62  N   GLU B 587     -16.908  -5.696 -10.444  1.00 28.95 LIG 0.61  N 
BRANCH 61 63
ATOM     63  CB  GLU B 587     -16.139  -5.703 -12.784  1.00 39.60 LIG 0.06  C 
BRANCH 63 64
ATOM     64  CG  GLU B 587     -15.058  -5.339 -13.796  1.00 49.02 LIG 0.12  C 
BRANCH 64 65
ATOM     65  CD  GLU B 587     -13.669  -5.749 -13.342  1.00 58.19 LIG 0.17  C 
ATOM     66 OE2  GLU B 587     -12.691  -5.075 -13.727  1.00 61.83 LIG-0.65  OA
ATOM     67 OE1  GLU B 587     -13.554  -6.749 -12.602  1.00 60.20 LIG-0.65  OA
ENDBRANCH 64 65
ENDBRANCH 63 64
ENDBRANCH 61 63
ENDBRANCH 59 61
ENDBRANCH 56 57
BRANCH 56 68
ATOM     68  CB  GLU B 588     -13.142  -2.112  -8.833  1.00 23.70 LIG 0.04  C 
BRANCH 68 69
ATOM     69  CG  GLU B 588     -13.617  -3.004  -7.674  1.00 29.39 LIG 0.12  C 
BRANCH 69 70
ATOM     70  CD  GLU B 588     -13.057  -4.414  -7.711  1.00 34.84 LIG 0.17  C 
ATOM     71 OE2  GLU B 588     -13.806  -5.331  -8.112  1.00 36.82 LIG-0.65  OA
ATOM     72 OE1  GLU B 588     -11.879  -4.615  -7.347  1.00 37.43 LIG-0.65  OA
ENDBRANCH 69 70
ENDBRANCH 68 69
ENDBRANCH 56 68
ENDBRANCH 54 56
ENDBRANCH 40 52
ENDBRANCH 1 40
TORSDOF 30
ENDMDL
MODEL 2
USER: ADFR SOLUTION from run 2
USER: SCORE 25.916232 LL:  -5.388 LR: -22.940 RR:   0.000 FEB: -13.991
USER: RMSD 2.017338
USER: SEED 964170
USER: STATUS no improvement in best in 4 clusters for 5 generations
USER: GENES 32
USER: genes 0 Translation |==|  0.43785 0.46552 0.48612
USER: genes 1 Rotation |==|  0.52627 0.50370 0.49792 0.99929
USER: genes 2 Torsion [C]-N--CA-[C] |==|  0.63828
USER: genes 3 Torsion [N]-CA--C-[N] |==|  0.41820
USER: genes 4 Torsion [C]-N--CA-[CB] |==|  0.22688
USER: genes 5 Torsion [N]-CA--C-[N] |==|  0.35004
USER: genes 6 Torsion [C]-N--CA-[CB] |==|  0.46269
USER: genes 7 Torsion [N]-CA--CB-[CG2] |==|  0.86337
USER: genes 8 Torsion [N]-CA--C-[N] |==|  0.40014
USER: genes 9 Torsion [C]-N--CA-[C] |==|  0.61993
USER: genes 10 Torsion [N]-CA--C-[OXT] |==|  0.38392
USER: genes 11 Torsion [N]-CA--CB-[CG] |==|  0.89755
USER: genes 12 Torsion [CA]-CB--CG-[SD] |==|  0.80611
USER: genes 13 Torsion [CB]-CG--SD-[CE] |==|  0.94413
USER: genes 14 Torsion [N]-CA--CB-[CG2] |==|  0.50681
USER: genes 15 Torsion [CA]-CB--OG1-[HG1] |==|  0.20660
USER: genes 16 Torsion [N]-CA--CB-[CG] |==|  0.51191
USER: genes 17 Torsion [CA]-CB--CG-[CD] |==|  0.43195
USER: genes 18 Torsion [CB]-CG--CD-[OE2] |==|  0.43825
USER: genes 19 Torsion [N]-C--CA-[N] |==|  0.38422
USER: genes 20 Torsion [C]-CA--CB-[CG] |==|  0.24618
USER: genes 21 Torsion [CA]-CB--CG-[CD1] |==|  0.97588
USER: genes 22 Torsion [C]-CA--N-[C] |==|  0.79525
USER: genes 23 Torsion [N]-C--CA-[N] |==|  0.20556
USER: genes 24 Torsion [C]-CA--N-[C] |==|  0.75589
USER: genes 25 Torsion [N]-C--CA-[N] |==|  0.91705
USER: genes 26 Torsion [C]-CA--CB-[CG] |==|  0.18941
USER: genes 27 Torsion [CA]-CB--CG-[CD] |==|  0.10286
USER: genes 28 Torsion [CB]-CG--CD-[OE2] |==|  0.55543
USER: genes 29 Torsion [C]-CA--CB-[CG] |==|  0.33117
USER: genes 30 Torsion [CA]-CB--CG-[CD] |==|  0.51546
USER: genes 31 Torsion [CB]-CG--CD-[OE2] |==|  0.40783
ROOT
ATOM      1  C   TRP B 589     -11.499   0.254 -12.529  1.00  8.59 LIG 0.24  C 
ATOM      2 O    TRP B 589     -10.941   0.551 -11.478  1.00  9.54 LIG-0.27  OA
ATOM      3  N   GLU B 590     -10.845  -0.143 -13.608  1.00  8.93 LIG-0.35  N 
ATOM      4 H    GLU B 590     -11.239  -0.360 -14.341  1.00  8.93 LIG 0.16  HD
ENDROOT
BRANCH 3 5
ATOM      5  CA  GLU B 590      -9.395  -0.257 -13.672  1.00  8.22 LIG 0.18  C 
BRANCH 5 6
ATOM      6  C   GLU B 590      -8.896   0.460 -14.918  1.00  8.58 LIG 0.24  C 
ATOM      7 O    GLU B 590      -9.607   0.532 -15.916  1.00 10.27 LIG-0.27  OA
ATOM      8  N   THR B 591      -7.676   0.981 -14.853  1.00  8.10 LIG-0.34  N 
ATOM      9 H    THR B 591      -7.171   0.912 -14.161  1.00  8.10 LIG 0.16  HD
BRANCH 8 10
ATOM     10  CA  THR B 591      -7.068   1.724 -15.952  1.00  8.42 LIG 0.20  C 
BRANCH 10 11
ATOM     11  C   THR B 591      -5.553   1.664 -15.812  1.00  8.31 LIG 0.24  C 
ATOM     12  N   VAL B 592      -4.893   1.226 -16.872  1.00  8.54 LIG-0.35  N 
ATOM     13 H    VAL B 592      -5.286   0.976 -17.595  1.00  8.54 LIG 0.16  HD
ATOM     14 O    THR B 591      -5.002   2.032 -14.767  1.00  8.65 LIG-0.27  OA
BRANCH 12 15
ATOM     15  CA  VAL B 592      -3.450   1.117 -16.938  1.00  9.13 LIG 0.18  C 
BRANCH 15 16
ATOM     16  CB  VAL B 592      -3.029   0.269 -18.164  1.00  9.93 LIG 0.01  C 
ATOM     17  CG2 VAL B 592      -3.821  -1.040 -18.216  1.00 10.24 LIG 0.01  C 
ATOM     18  CG1 VAL B 592      -1.541   0.002 -18.131  1.00 10.82 LIG 0.01  C 
ENDBRANCH 15 16
BRANCH 15 19
ATOM     19  C   VAL B 592      -2.857   2.512 -17.018  1.00  9.48 LIG 0.24  C 
ATOM     20 O    VAL B 592      -3.443   3.392 -17.645  1.00 10.72 LIG-0.27  OA
ATOM     21  N   MET B 593      -1.702   2.708 -16.380  1.00 10.11 LIG-0.34  N 
ATOM     22 H    MET B 593      -1.263   2.083 -15.987  1.00 10.11 LIG 0.16  HD
BRANCH 21 23
ATOM     23  CA  MET B 593      -1.071   4.028 -16.295  1.00 11.88 LIG 0.19  C 
BRANCH 23 24
ATOM     24  C   MET B 593       0.437   4.002 -16.530  1.00 15.28 LIG 0.20  C 
ATOM     25 OXT  MET B 593       0.954   4.882 -17.218  1.00 15.41 LIG-0.65  OA
ATOM     26 O    MET B 593       1.169   3.176 -15.971  1.00 17.52 LIG-0.65  OA
ENDBRANCH 23 24
BRANCH 23 27
ATOM     27  CB  MET B 593      -1.298   4.636 -14.915  1.00 10.86 LIG 0.05  C 
BRANCH 27 28
ATOM     28  CG  MET B 593      -2.654   4.343 -14.318  1.00 11.31 LIG 0.08  C 
BRANCH 28 29
ATOM     29 SD   MET B 593      -4.040   5.160 -15.118  1.00 11.06 LIG-0.17  SA
ATOM     30  CE  MET B 593      -3.226   6.504 -15.975  1.00 12.56 LIG 0.09  C 
ENDBRANCH 28 29
ENDBRANCH 27 28
ENDBRANCH 23 27
ENDBRANCH 21 23
ENDBRANCH 15 19
ENDBRANCH 12 15
ENDBRANCH 10 11
BRANCH 10 31
ATOM     31  CB  THR B 591      -7.569   3.196 -15.949  1.00  8.77 LIG 0.15  C 
ATOM     32  CG2 THR B 591      -7.009   3.993 -17.111  1.00  9.88 LIG 0.04  C 
BRANCH 31 33
ATOM     33 OG1  THR B 591      -8.996   3.189 -16.014  1.00  9.65 LIG-0.39  OA
ATOM     34 HG1  THR B 591      -9.309   2.961 -15.268  1.00  9.65 LIG 0.21  HD
ENDBRANCH 31 33
ENDBRANCH 10 31
ENDBRANCH 8 10
ENDBRANCH 5 6
BRANCH 5 35
ATOM     35  CB  GLU B 590      -8.975  -1.733 -13.661  1.00  9.50 LIG 0.04  C 
BRANCH 35 36
ATOM     36  CG  GLU B 590      -7.476  -1.969 -13.622  1.00  9.44 LIG 0.12  C 
BRANCH 36 37
ATOM     37  CD  GLU B 590      -7.055  -3.307 -13.039  1.00 10.34 LIG 0.17  C 
ATOM     38 OE2  GLU B 590      -5.929  -3.743 -13.352  1.00  9.56 LIG-0.65  OA
ATOM     39 OE1  GLU B 590      -7.810  -3.889 -12.236  1.00 12.93 LIG-0.65  OA
ENDBRANCH 36 37
ENDBRANCH 35 36
ENDBRANCH 5 35
ENDBRANCH 3 5
BRANCH 1 40
ATOM     40  CA  TRP B 589     -13.001   0.365 -12.666  1.00 10.41 LIG 0.18  C 
BRANCH 40 41
ATOM     41  CB  TRP B 589     -13.352   1.836 -12.853  1.00 16.42 LIG 0.07  C 
BRANCH 41 42
ATOM     42  CG  TRP B 589     -13.354   2.306 -14.253  1.00 28.27 LIG-0.03  A 
ATOM     43  CD1 TRP B 589     -12.926   1.628 -15.353  1.00 31.36 LIG 0.10  A 
ATOM     44  NE1 TRP B 589     -13.093   2.400 -16.478  1.00 35.25 LIG-0.36  N 
ATOM     45 HE1  TRP B 589     -12.893   2.164 -17.281  1.00 35.25 LIG 0.17  HD
ATOM     46  CE2 TRP B 589     -13.629   3.606 -16.112  1.00 40.47 LIG 0.04  A 
ATOM     47  CD2 TRP B 589     -13.805   3.581 -14.715  1.00 37.76 LIG-0.00  A 
ATOM     48  CZ2 TRP B 589     -13.968   4.711 -16.889  1.00 47.06 LIG 0.03  A 
ATOM     49  CE3 TRP B 589     -14.342   4.707 -14.084  1.00 44.39 LIG 0.01  A 
ATOM     50  CZ3 TRP B 589     -14.681   5.804 -14.857  1.00 48.60 LIG 0.00  A 
ATOM     51  CH2 TRP B 589     -14.493   5.797 -16.243  1.00 49.92 LIG 0.00  A 
ENDBRANCH 41 42
ENDBRANCH 40 41
BRANCH 40 52
ATOM     52  N   TRP B 589     -13.628  -0.160 -11.473  1.00 10.46 LIG-0.35  N 
ATOM     53 H    TRP B 589     -13.953   0.450 -10.961  1.00 10.46 LIG 0.16  HD
ATOM     54  C   GLU B 588     -13.698  -1.446 -11.191  1.00 14.97 LIG 0.24  C 
ATOM     55 O    GLU B 588     -13.265  -2.336 -11.924  1.00 17.61 LIG-0.27  OA
BRANCH 54 56
ATOM     56  CA  GLU B 588     -14.376  -1.754  -9.865  1.00 18.53 LIG 0.18  C 
BRANCH 56 57
ATOM     57  N   GLU B 588     -15.823  -1.566  -9.946  1.00 19.74 LIG-0.35  N 
ATOM     58 H    GLU B 588     -16.252  -2.282 -10.155  1.00 19.74 LIG 0.16  HD
ATOM     59  C   GLU B 587     -16.423  -0.394  -9.717  1.00 22.74 LIG 0.26  C 
ATOM     60 O    GLU B 587     -15.822   0.630  -9.404  1.00 21.09 LIG-0.27  OA
BRANCH 59 61
ATOM     61  CA  GLU B 587     -17.938  -0.362  -9.872  1.00 29.94 LIG 0.40  C 
ATOM     62  N   GLU B 587     -18.360  -1.342 -10.874  1.00 28.95 LIG 0.61  N 
BRANCH 61 63
ATOM     63  CB  GLU B 587     -18.595  -0.657  -8.520  1.00 39.60 LIG 0.06  C 
BRANCH 63 64
ATOM     64  CG  GLU B 587     -18.404   0.431  -7.469  1.00 49.02 LIG 0.12  C 
BRANCH 64 65
ATOM     65  CD  GLU B 587     -18.447   1.829  -8.059  1.00 58.19 LIG 0.17  C 
ATOM     66 OE2  GLU B 587     -17.942   2.768  -7.409  1.00 61.83 LIG-0.65  OA
ATOM     67 OE1  GLU B 587     -18.990   1.990  -9.173  1.00 60.20 LIG-0.65  OA
ENDBRANCH 64 65
ENDBRANCH 63 64
ENDBRANCH 61 63
ENDBRANCH 59 61
ENDBRANCH 56 57
BRANCH 56 68
ATOM     68  CB  GLU B 588     -14.009  -3.171  -9.400  1.00 23.70 LIG 0.04  C 
BRANCH 68 69
ATOM     69  CG  GLU B 588     -13.276  -3.193  -8.049  1.00 29.39 LIG 0.12  C 
BRANCH 69 70
ATOM     70  CD  GLU B 588     -12.786  -4.568  -7.634  1.00 34.84 LIG 0.17  C 
ATOM     71 OE2  GLU B 588     -11.723  -4.638  -6.979  1.00 36.82 LIG-0.65  OA
ATOM     72 OE1  GLU B 588     -13.452  -5.576  -7.950  1.00 37.43 LIG-0.65  OA
ENDBRANCH 69 70
ENDBRANCH 68 69
ENDBRANCH 56 68
ENDBRANCH 54 56
ENDBRANCH 40 52
ENDBRANCH 1 40
TORSDOF 30
ENDMDL
MODEL 3
USER: ADFR SOLUTION from run 123
USER: SCORE 23.296667 LL:  -5.190 LR: -22.196 RR:   0.000 FEB: -13.247
USER: RMSD 3.700126
USER: SEED 122
USER: STATUS 1 or 2 clusters left
USER: GENES 32
USER: genes 0 Translation |==|  0.43754 0.46366 0.48324
USER: genes 1 Rotation |==|  0.58721 0.49039 0.48036 0.99185
USER: genes 2 Torsion [C]-N--CA-[C] |==|  0.59534
USER: genes 3 Torsion [N]-CA--C-[N] |==|  0.39013
USER: genes 4 Torsion [C]-N--CA-[CB] |==|  0.25787
USER: genes 5 Torsion [N]-CA--C-[N] |==|  0.36914
USER: genes 6 Torsion [C]-N--CA-[CB] |==|  0.43501
USER: genes 7 Torsion [N]-CA--CB-[CG2] |==|  0.85804
USER: genes 8 Torsion [N]-CA--C-[N] |==|  0.35886
USER: genes 9 Torsion [C]-N--CA-[C] |==|  0.66558
USER: genes 10 Torsion [N]-CA--C-[OXT] |==|  0.38531
USER: genes 11 Torsion [N]-CA--CB-[CG] |==|  0.90043
USER: genes 12 Torsion [CA]-CB--CG-[SD] |==|  0.84091
USER: genes 13 Torsion [CB]-CG--SD-[CE] |==|  0.87859
USER: genes 14 Torsion [N]-CA--CB-[CG2] |==|  0.51023
USER: genes 15 Torsion [CA]-CB--OG1-[HG1] |==|  0.11413
USER: genes 16 Torsion [N]-CA--CB-[CG] |==|  0.47236
USER: genes 17 Torsion [CA]-CB--CG-[CD] |==|  0.39555
USER: genes 18 Torsion [CB]-CG--CD-[OE2] |==|  0.98754
USER: genes 19 Torsion [N]-C--CA-[N] |==|  0.43204
USER: genes 20 Torsion [C]-CA--CB-[CG] |==|  0.38422
USER: genes 21 Torsion [CA]-CB--CG-[CD1] |==|  0.99259
USER: genes 22 Torsion [C]-CA--N-[C] |==|  0.76121
USER: genes 23 Torsion [N]-C--CA-[N] |==|  0.79373
USER: genes 24 Torsion [C]-CA--N-[C] |==|  0.50101
USER: genes 25 Torsion [N]-C--CA-[N] |==|  0.37742
USER: genes 26 Torsion [C]-CA--CB-[CG] |==|  0.01215
USER: genes 27 Torsion [CA]-CB--CG-[CD] |==|  0.36844
USER: genes 28 Torsion [CB]-CG--CD-[OE2] |==|  0.51086
USER: genes 29 Torsion [C]-CA--CB-[CG] |==|  0.36222
USER: genes 30 Torsion [CA]-CB--CG-[CD] |==|  0.46729
USER: genes 31 Torsion [CB]-CG--CD-[OE2] |==|  0.49220
ROOT
ATOM      1  C   TRP B 589     -11.508   0.217 -12.592  1.00  8.59 LIG 0.24  C 
ATOM      2 O    TRP B 589     -10.994   0.208 -11.478  1.00  9.54 LIG-0.27  OA
ATOM      3  N   GLU B 590     -10.820   0.040 -13.707  1.00  8.93 LIG-0.35  N 
ATOM      4 H    GLU B 590     -11.184   0.038 -14.487  1.00  8.93 LIG 0.16  HD
ENDROOT
BRANCH 3 5
ATOM      5  CA  GLU B 590      -9.380  -0.171 -13.738  1.00  8.22 LIG 0.18  C 
BRANCH 5 6
ATOM      6  C   GLU B 590      -8.810   0.481 -14.989  1.00  8.58 LIG 0.24  C 
ATOM      7 O    GLU B 590      -9.418   0.414 -16.053  1.00 10.27 LIG-0.27  OA
ATOM      8  N   THR B 591      -7.644   1.105 -14.853  1.00  8.10 LIG-0.34  N 
ATOM      9 H    THR B 591      -7.209   1.133 -14.113  1.00  8.10 LIG 0.16  HD
BRANCH 8 10
ATOM     10  CA  THR B 591      -6.983   1.804 -15.950  1.00  8.42 LIG 0.20  C 
BRANCH 10 11
ATOM     11  C   THR B 591      -5.477   1.641 -15.805  1.00  8.31 LIG 0.24  C 
ATOM     12  N   VAL B 592      -4.825   1.293 -16.904  1.00  8.54 LIG-0.35  N 
ATOM     13 H    VAL B 592      -5.221   1.154 -17.655  1.00  8.54 LIG 0.16  HD
ATOM     14 O    THR B 591      -4.922   1.850 -14.719  1.00  8.65 LIG-0.27  OA
BRANCH 12 15
ATOM     15  CA  VAL B 592      -3.390   1.110 -16.969  1.00  9.13 LIG 0.18  C 
BRANCH 15 16
ATOM     16  CB  VAL B 592      -3.019   0.177 -18.149  1.00  9.93 LIG 0.01  C 
ATOM     17  CG2 VAL B 592      -3.841  -1.113 -18.100  1.00 10.24 LIG 0.01  C 
ATOM     18  CG1 VAL B 592      -1.538  -0.122 -18.134  1.00 10.82 LIG 0.01  C 
ENDBRANCH 15 16
BRANCH 15 19
ATOM     19  C   VAL B 592      -2.730   2.467 -17.127  1.00  9.48 LIG 0.24  C 
ATOM     20 O    VAL B 592      -3.118   3.240 -18.000  1.00 10.72 LIG-0.27  OA
ATOM     21  N   MET B 593      -1.740   2.754 -16.280  1.00 10.11 LIG-0.34  N 
ATOM     22 H    MET B 593      -1.431   2.196 -15.703  1.00 10.11 LIG 0.16  HD
BRANCH 21 23
ATOM     23  CA  MET B 593      -1.083   4.063 -16.257  1.00 11.88 LIG 0.19  C 
BRANCH 23 24
ATOM     24  C   MET B 593       0.416   4.001 -16.532  1.00 15.28 LIG 0.20  C 
ATOM     25 OXT  MET B 593       0.931   4.853 -17.257  1.00 15.41 LIG-0.65  OA
ATOM     26 O    MET B 593       1.148   3.176 -15.972  1.00 17.52 LIG-0.65  OA
ENDBRANCH 23 24
BRANCH 23 27
ATOM     27  CB  MET B 593      -1.262   4.723 -14.894  1.00 10.86 LIG 0.05  C 
BRANCH 27 28
ATOM     28  CG  MET B 593      -2.597   4.456 -14.240  1.00 11.31 LIG 0.08  C 
BRANCH 28 29
ATOM     29 SD   MET B 593      -4.036   4.942 -15.200  1.00 11.06 LIG-0.17  SA
ATOM     30  CE  MET B 593      -3.539   6.548 -15.814  1.00 12.56 LIG 0.09  C 
ENDBRANCH 28 29
ENDBRANCH 27 28
ENDBRANCH 23 27
ENDBRANCH 21 23
ENDBRANCH 15 19
ENDBRANCH 12 15
ENDBRANCH 10 11
BRANCH 10 31
ATOM     31  CB  THR B 591      -7.382   3.307 -15.950  1.00  8.77 LIG 0.15  C 
ATOM     32  CG2 THR B 591      -6.789   4.056 -17.126  1.00  9.88 LIG 0.04  C 
BRANCH 31 33
ATOM     33 OG1  THR B 591      -8.808   3.396 -15.990  1.00  9.65 LIG-0.39  OA
ATOM     34 HG1  THR B 591      -9.140   2.814 -15.484  1.00  9.65 LIG 0.21  HD
ENDBRANCH 31 33
ENDBRANCH 10 31
ENDBRANCH 8 10
ENDBRANCH 5 6
BRANCH 5 35
ATOM     35  CB  GLU B 590      -9.060  -1.671 -13.685  1.00  9.50 LIG 0.04  C 
BRANCH 35 36
ATOM     36  CG  GLU B 590      -7.606  -2.022 -13.949  1.00  9.44 LIG 0.12  C 
BRANCH 36 37
ATOM     37  CD  GLU B 590      -7.063  -3.165 -13.108  1.00 10.34 LIG 0.17  C 
ATOM     38 OE2  GLU B 590      -7.813  -3.645 -12.235  1.00  9.56 LIG-0.65  OA
ATOM     39 OE1  GLU B 590      -5.927  -3.616 -13.352  1.00 12.93 LIG-0.65  OA
ENDBRANCH 36 37
ENDBRANCH 35 36
ENDBRANCH 5 35
ENDBRANCH 3 5
BRANCH 1 40
ATOM     40  CA  TRP B 589     -12.989   0.479 -12.759  1.00 10.41 LIG 0.18  C 
BRANCH 40 41
ATOM     41  CB  TRP B 589     -13.179   1.966 -13.026  1.00 16.42 LIG 0.07  C 
BRANCH 41 42
ATOM     42  CG  TRP B 589     -14.173   2.293 -14.068  1.00 28.27 LIG-0.03  A 
ATOM     43  CD1 TRP B 589     -14.883   1.421 -14.835  1.00 31.36 LIG 0.10  A 
ATOM     44  NE1 TRP B 589     -15.710   2.110 -15.690  1.00 35.25 LIG-0.36  N 
ATOM     45 HE1  TRP B 589     -16.250   1.755 -16.259  1.00 35.25 LIG 0.17  HD
ATOM     46  CE2 TRP B 589     -15.535   3.453 -15.490  1.00 40.47 LIG 0.04  A 
ATOM     47  CD2 TRP B 589     -14.571   3.605 -14.475  1.00 37.76 LIG-0.00  A 
ATOM     48  CZ2 TRP B 589     -16.138   4.541 -16.117  1.00 47.06 LIG 0.03  A 
ATOM     49  CE3 TRP B 589     -14.206   4.896 -14.080  1.00 44.39 LIG 0.01  A 
ATOM     50  CZ3 TRP B 589     -14.807   5.976 -14.701  1.00 48.60 LIG 0.00  A 
ATOM     51  CH2 TRP B 589     -15.761   5.791 -15.707  1.00 49.92 LIG 0.00  A 
ENDBRANCH 41 42
ENDBRANCH 40 41
BRANCH 40 52
ATOM     52  N   TRP B 589     -13.680   0.086 -11.551  1.00 10.46 LIG-0.35  N 
ATOM     53 H    TRP B 589     -13.796   0.734 -10.997  1.00 10.46 LIG 0.16  HD
ATOM     54  C   GLU B 588     -14.095  -1.143 -11.313  1.00 14.97 LIG 0.24  C 
ATOM     55 O    GLU B 588     -13.964  -2.077 -12.105  1.00 17.61 LIG-0.27  OA
BRANCH 54 56
ATOM     56  CA  GLU B 588     -14.767  -1.321  -9.962  1.00 18.53 LIG 0.18  C 
BRANCH 56 57
ATOM     57  N   GLU B 588     -13.794  -1.312  -8.872  1.00 19.74 LIG-0.35  N 
ATOM     58 H    GLU B 588     -12.982  -1.205  -9.136  1.00 19.74 LIG 0.16  HD
ATOM     59  C   GLU B 587     -14.132  -1.458  -7.587  1.00 22.74 LIG 0.26  C 
ATOM     60 O    GLU B 587     -15.288  -1.597  -7.198  1.00 21.09 LIG-0.27  OA
BRANCH 59 61
ATOM     61  CA  GLU B 587     -12.991  -1.456  -6.577  1.00 29.94 LIG 0.40  C 
ATOM     62  N   GLU B 587     -13.343  -0.626  -5.425  1.00 28.95 LIG 0.61  N 
BRANCH 61 63
ATOM     63  CB  GLU B 587     -12.700  -2.894  -6.136  1.00 39.60 LIG 0.06  C 
BRANCH 63 64
ATOM     64  CG  GLU B 587     -13.514  -3.960  -6.863  1.00 49.02 LIG 0.12  C 
BRANCH 64 65
ATOM     65  CD  GLU B 587     -12.661  -5.116  -7.352  1.00 58.19 LIG 0.17  C 
ATOM     66 OE2  GLU B 587     -13.203  -6.015  -8.027  1.00 61.83 LIG-0.65  OA
ATOM     67 OE1  GLU B 587     -11.446  -5.128  -7.058  1.00 60.20 LIG-0.65  OA
ENDBRANCH 64 65
ENDBRANCH 63 64
ENDBRANCH 61 63
ENDBRANCH 59 61
ENDBRANCH 56 57
BRANCH 56 68
ATOM     68  CB  GLU B 588     -15.852  -0.250  -9.767  1.00 23.70 LIG 0.04  C 
BRANCH 68 69
ATOM     69  CG  GLU B 588     -17.200  -0.832  -9.313  1.00 29.39 LIG 0.12  C 
BRANCH 69 70
ATOM     70  CD  GLU B 588     -18.197   0.213  -8.844  1.00 34.84 LIG 0.17  C 
ATOM     71 OE2  GLU B 588     -19.338  -0.176  -8.509  1.00 36.82 LIG-0.65  OA
ATOM     72 OE1  GLU B 588     -17.853   1.412  -8.804  1.00 37.43 LIG-0.65  OA
ENDBRANCH 69 70
ENDBRANCH 68 69
ENDBRANCH 56 68
ENDBRANCH 54 56
ENDBRANCH 40 52
ENDBRANCH 1 40
TORSDOF 30
ENDMDL
MODEL 4
USER: ADFR SOLUTION from run 89
USER: SCORE 25.879479 LL:  -4.857 LR: -22.203 RR:   0.000 FEB: -13.254
USER: RMSD 3.980771
USER: SEED 88
USER: STATUS no improvement in best in 4 clusters for 5 generations
USER: GENES 32
USER: genes 0 Translation |==|  0.44177 0.46319 0.48538
USER: genes 1 Rotation |==|  0.52926 0.50944 0.49965 0.99905
USER: genes 2 Torsion [C]-N--CA-[C] |==|  0.63344
USER: genes 3 Torsion [N]-CA--C-[N] |==|  0.38243
USER: genes 4 Torsion [C]-N--CA-[CB] |==|  0.19200
USER: genes 5 Torsion [N]-CA--C-[N] |==|  0.53412
USER: genes 6 Torsion [C]-N--CA-[CB] |==|  0.84401
USER: genes 7 Torsion [N]-CA--CB-[CG2] |==|  0.74834
USER: genes 8 Torsion [N]-CA--C-[N] |==|  0.41494
USER: genes 9 Torsion [C]-N--CA-[C] |==|  0.53232
USER: genes 10 Torsion [N]-CA--C-[OXT] |==|  0.53891
USER: genes 11 Torsion [N]-CA--CB-[CG] |==|  0.65513
USER: genes 12 Torsion [CA]-CB--CG-[SD] |==|  0.88417
USER: genes 13 Torsion [CB]-CG--SD-[CE] |==|  0.77451
USER: genes 14 Torsion [N]-CA--CB-[CG2] |==|  0.58428
USER: genes 15 Torsion [CA]-CB--OG1-[HG1] |==|  0.20433
USER: genes 16 Torsion [N]-CA--CB-[CG] |==|  0.53103
USER: genes 17 Torsion [CA]-CB--CG-[CD] |==|  0.43834
USER: genes 18 Torsion [CB]-CG--CD-[OE2] |==|  0.91919
USER: genes 19 Torsion [N]-C--CA-[N] |==|  0.36164
USER: genes 20 Torsion [C]-CA--CB-[CG] |==|  0.26229
USER: genes 21 Torsion [CA]-CB--CG-[CD1] |==|  0.96593
USER: genes 22 Torsion [C]-CA--N-[C] |==|  0.84122
USER: genes 23 Torsion [N]-C--CA-[N] |==|  0.38927
USER: genes 24 Torsion [C]-CA--N-[C] |==|  0.81970
USER: genes 25 Torsion [N]-C--CA-[N] |==|  0.26986
USER: genes 26 Torsion [C]-CA--CB-[CG] |==|  0.13413
USER: genes 27 Torsion [CA]-CB--CG-[CD] |==|  0.15152
USER: genes 28 Torsion [CB]-CG--CD-[OE2] |==|  0.56113
USER: genes 29 Torsion [C]-CA--CB-[CG] |==|  0.54429
USER: genes 30 Torsion [CA]-CB--CG-[CD] |==|  0.24743
USER: genes 31 Torsion [CB]-CG--CD-[OE2] |==|  0.73452
ROOT
ATOM      1  C   TRP B 589     -11.384   0.208 -12.545  1.00  8.59 LIG 0.24  C 
ATOM      2 O    TRP B 589     -10.805   0.497 -11.503  1.00  9.54 LIG-0.27  OA
ATOM      3  N   GLU B 590     -10.752  -0.170 -13.643  1.00  8.93 LIG-0.35  N 
ATOM      4 H    GLU B 590     -11.160  -0.381 -14.370  1.00  8.93 LIG 0.16  HD
ENDROOT
BRANCH 3 5
ATOM      5  CA  GLU B 590      -9.302  -0.271 -13.741  1.00  8.22 LIG 0.18  C 
BRANCH 5 6
ATOM      6  C   GLU B 590      -8.842   0.427 -15.012  1.00  8.58 LIG 0.24  C 
ATOM      7 O    GLU B 590      -9.463   0.277 -16.060  1.00 10.27 LIG-0.27  OA
ATOM      8  N   THR B 591      -7.753   1.183 -14.911  1.00  8.10 LIG-0.34  N 
ATOM      9 H    THR B 591      -7.307   1.271 -14.182  1.00  8.10 LIG 0.16  HD
BRANCH 8 10
ATOM     10  CA  THR B 591      -7.204   1.941 -16.031  1.00  8.42 LIG 0.20  C 
BRANCH 10 11
ATOM     11  C   THR B 591      -5.825   2.460 -15.648  1.00  8.31 LIG 0.24  C 
ATOM     12  N   VAL B 592      -5.306   3.371 -16.456  1.00  8.54 LIG-0.35  N 
ATOM     13 H    VAL B 592      -5.710   3.650 -17.163  1.00  8.54 LIG 0.16  HD
ATOM     14 O    THR B 591      -5.260   2.052 -14.625  1.00  8.65 LIG-0.27  OA
BRANCH 12 15
ATOM     15  CA  VAL B 592      -4.017   3.996 -16.248  1.00  9.13 LIG 0.18  C 
BRANCH 15 16
ATOM     16  CB  VAL B 592      -3.961   4.665 -14.852  1.00  9.93 LIG 0.01  C 
ATOM     17  CG2 VAL B 592      -4.428   6.122 -14.930  1.00 10.24 LIG 0.01  C 
ATOM     18  CG1 VAL B 592      -2.565   4.572 -14.281  1.00 10.82 LIG 0.01  C 
ENDBRANCH 15 16
BRANCH 15 19
ATOM     19  C   VAL B 592      -2.934   2.942 -16.383  1.00  9.48 LIG 0.24  C 
ATOM     20 O    VAL B 592      -3.172   1.776 -16.079  1.00 10.72 LIG-0.27  OA
ATOM     21  N   MET B 593      -1.752   3.354 -16.844  1.00 10.11 LIG-0.34  N 
ATOM     22 H    MET B 593      -1.565   4.177 -17.007  1.00 10.11 LIG 0.16  HD
BRANCH 21 23
ATOM     23  CA  MET B 593      -0.651   2.426 -17.115  1.00 11.88 LIG 0.19  C 
BRANCH 23 24
ATOM     24  C   MET B 593       0.686   3.118 -17.363  1.00 15.28 LIG 0.20  C 
ATOM     25 OXT  MET B 593       1.615   2.474 -17.852  1.00 15.41 LIG-0.65  OA
ATOM     26 O    MET B 593       0.837   4.331 -17.176  1.00 17.52 LIG-0.65  OA
ENDBRANCH 23 24
BRANCH 23 27
ATOM     27  CB  MET B 593      -0.957   1.587 -18.352  1.00 10.86 LIG 0.05  C 
BRANCH 27 28
ATOM     28  CG  MET B 593      -0.906   0.095 -18.124  1.00 11.31 LIG 0.08  C 
BRANCH 28 29
ATOM     29 SD   MET B 593       0.455  -0.481 -17.102  1.00 11.06 LIG-0.17  SA
ATOM     30  CE  MET B 593       1.802  -0.527 -18.280  1.00 12.56 LIG 0.09  C 
ENDBRANCH 28 29
ENDBRANCH 27 28
ENDBRANCH 23 27
ENDBRANCH 21 23
ENDBRANCH 15 19
ENDBRANCH 12 15
ENDBRANCH 10 11
BRANCH 10 31
ATOM     31  CB  THR B 591      -8.154   3.112 -16.407  1.00  8.77 LIG 0.15  C 
ATOM     32  CG2 THR B 591      -8.086   3.453 -17.883  1.00  9.88 LIG 0.04  C 
BRANCH 31 33
ATOM     33 OG1  THR B 591      -9.490   2.741 -16.060  1.00  9.65 LIG-0.39  OA
ATOM     34 HG1  THR B 591      -9.581   2.771 -15.226  1.00  9.65 LIG 0.21  HD
ENDBRANCH 31 33
ENDBRANCH 10 31
ENDBRANCH 8 10
ENDBRANCH 5 6
BRANCH 5 35
ATOM     35  CB  GLU B 590      -8.868  -1.743 -13.714  1.00  9.50 LIG 0.04  C 
BRANCH 35 36
ATOM     36  CG  GLU B 590      -7.375  -1.963 -13.543  1.00  9.44 LIG 0.12  C 
BRANCH 36 37
ATOM     37  CD  GLU B 590      -6.990  -3.327 -12.995  1.00 10.34 LIG 0.17  C 
ATOM     38 OE2  GLU B 590      -7.807  -3.899 -12.246  1.00  9.56 LIG-0.65  OA
ATOM     39 OE1  GLU B 590      -5.915  -3.848 -13.352  1.00 12.93 LIG-0.65  OA
ENDBRANCH 36 37
ENDBRANCH 35 36
ENDBRANCH 5 35
ENDBRANCH 3 5
BRANCH 1 40
ATOM     40  CA  TRP B 589     -12.890   0.309 -12.647  1.00 10.41 LIG 0.18  C 
BRANCH 40 41
ATOM     41  CB  TRP B 589     -13.270   1.783 -12.603  1.00 16.42 LIG 0.07  C 
BRANCH 41 42
ATOM     42  CG  TRP B 589     -13.431   2.428 -13.922  1.00 28.27 LIG-0.03  A 
ATOM     43  CD1 TRP B 589     -13.061   1.932 -15.135  1.00 31.36 LIG 0.10  A 
ATOM     44  NE1 TRP B 589     -13.381   2.827 -16.128  1.00 35.25 LIG-0.36  N 
ATOM     45 HE1  TRP B 589     -13.240   2.713 -16.969  1.00 35.25 LIG 0.17  HD
ATOM     46  CE2 TRP B 589     -13.960   3.931 -15.561  1.00 40.47 LIG 0.04  A 
ATOM     47  CD2 TRP B 589     -14.006   3.714 -14.170  1.00 37.76 LIG-0.00  A 
ATOM     48  CZ2 TRP B 589     -14.441   5.097 -16.151  1.00 47.06 LIG 0.03  A 
ATOM     49  CE3 TRP B 589     -14.557   4.704 -13.351  1.00 44.39 LIG 0.01  A 
ATOM     50  CZ3 TRP B 589     -15.037   5.861 -13.939  1.00 48.60 LIG 0.00  A 
ATOM     51  CH2 TRP B 589     -14.976   6.047 -15.324  1.00 49.92 LIG 0.00  A 
ENDBRANCH 41 42
ENDBRANCH 40 41
BRANCH 40 52
ATOM     52  N   TRP B 589     -13.490  -0.405 -11.542  1.00 10.46 LIG-0.35  N 
ATOM     53 H    TRP B 589     -14.009   0.085 -11.060  1.00 10.46 LIG 0.16  HD
ATOM     54  C   GLU B 588     -13.269  -1.680 -11.289  1.00 14.97 LIG 0.24  C 
ATOM     55 O    GLU B 588     -12.554  -2.404 -11.982  1.00 17.61 LIG-0.27  OA
BRANCH 54 56
ATOM     56  CA  GLU B 588     -13.987  -2.201 -10.054  1.00 18.53 LIG 0.18  C 
BRANCH 56 57
ATOM     57  N   GLU B 588     -14.516  -3.546 -10.268  1.00 19.74 LIG-0.35  N 
ATOM     58 H    GLU B 588     -14.150  -4.144  -9.770  1.00 19.74 LIG 0.16  HD
ATOM     59  C   GLU B 587     -15.476  -3.822 -11.156  1.00 22.74 LIG 0.26  C 
ATOM     60 O    GLU B 587     -16.015  -2.976 -11.863  1.00 21.09 LIG-0.27  OA
BRANCH 59 61
ATOM     61  CA  GLU B 587     -15.893  -5.283 -11.277  1.00 29.94 LIG 0.40  C 
ATOM     62  N   GLU B 587     -17.090  -5.530 -10.472  1.00 28.95 LIG 0.61  N 
BRANCH 61 63
ATOM     63  CB  GLU B 587     -16.156  -5.617 -12.749  1.00 39.60 LIG 0.06  C 
BRANCH 63 64
ATOM     64  CG  GLU B 587     -15.062  -5.163 -13.709  1.00 49.02 LIG 0.12  C 
BRANCH 64 65
ATOM     65  CD  GLU B 587     -13.690  -5.683 -13.321  1.00 58.19 LIG 0.17  C 
ATOM     66 OE2  GLU B 587     -12.681  -5.080 -13.742  1.00 61.83 LIG-0.65  OA
ATOM     67 OE1  GLU B 587     -13.620  -6.701 -12.599  1.00 60.20 LIG-0.65  OA
ENDBRANCH 64 65
ENDBRANCH 63 64
ENDBRANCH 61 63
ENDBRANCH 59 61
ENDBRANCH 56 57
BRANCH 56 68
ATOM     68  CB  GLU B 588     -13.054  -2.141  -8.835  1.00 23.70 LIG 0.04  C 
BRANCH 68 69
ATOM     69  CG  GLU B 588     -13.547  -2.992  -7.654  1.00 29.39 LIG 0.12  C 
BRANCH 69 70
ATOM     70  CD  GLU B 588     -13.055  -4.428  -7.680  1.00 34.84 LIG 0.17  C 
ATOM     71 OE2  GLU B 588     -13.806  -5.294  -8.180  1.00 36.82 LIG-0.65  OA
ATOM     72 OE1  GLU B 588     -11.931  -4.699  -7.210  1.00 37.43 LIG-0.65  OA
ENDBRANCH 69 70
ENDBRANCH 68 69
ENDBRANCH 56 68
ENDBRANCH 54 56
ENDBRANCH 40 52
ENDBRANCH 1 40
TORSDOF 30
ENDMDL
MODEL 5
USER: ADFR SOLUTION from run 10
USER: SCORE 25.233847 LL:  -4.974 LR: -21.746 RR:   0.000 FEB: -12.797
USER: RMSD 3.117449
USER: SEED 864048
USER: STATUS no improvement in best in 2 clusters for 5 generations
USER: GENES 32
USER: genes 0 Translation |==|  0.44216 0.45703 0.48465
USER: genes 1 Rotation |==|  0.56473 0.50177 0.49151 0.99572
USER: genes 2 Torsion [C]-N--CA-[C] |==|  0.60635
USER: genes 3 Torsion [N]-CA--C-[N] |==|  0.36291
USER: genes 4 Torsion [C]-N--CA-[CB] |==|  0.20847
USER: genes 5 Torsion [N]-CA--C-[N] |==|  0.53884
USER: genes 6 Torsion [C]-N--CA-[CB] |==|  0.84378
USER: genes 7 Torsion [N]-CA--CB-[CG2] |==|  0.72218
USER: genes 8 Torsion [N]-CA--C-[N] |==|  0.40551
USER: genes 9 Torsion [C]-N--CA-[C] |==|  0.54091
USER: genes 10 Torsion [N]-CA--C-[OXT] |==|  0.53027
USER: genes 11 Torsion [N]-CA--CB-[CG] |==|  0.64682
USER: genes 12 Torsion [CA]-CB--CG-[SD] |==|  0.89648
USER: genes 13 Torsion [CB]-CG--SD-[CE] |==|  0.75638
USER: genes 14 Torsion [N]-CA--CB-[CG2] |==|  0.59393
USER: genes 15 Torsion [CA]-CB--OG1-[HG1] |==|  0.17362
USER: genes 16 Torsion [N]-CA--CB-[CG] |==|  0.52238
USER: genes 17 Torsion [CA]-CB--CG-[CD] |==|  0.44599
USER: genes 18 Torsion [CB]-CG--CD-[OE2] |==|  0.42801
USER: genes 19 Torsion [N]-C--CA-[N] |==|  0.41324
USER: genes 20 Torsion [C]-CA--CB-[CG] |==|  0.26292
USER: genes 21 Torsion [CA]-CB--CG-[CD1] |==|  0.97111
USER: genes 22 Torsion [C]-CA--N-[C] |==|  0.64974
USER: genes 23 Torsion [N]-C--CA-[N] |==|  0.36577
USER: genes 24 Torsion [C]-CA--N-[C] |==|  0.75357
USER: genes 25 Torsion [N]-C--CA-[N] |==|  0.22399
USER: genes 26 Torsion [C]-CA--CB-[CG] |==|  0.70661
USER: genes 27 Torsion [CA]-CB--CG-[CD] |==|  0.17524
USER: genes 28 Torsion [CB]-CG--CD-[OE2] |==|  0.71713
USER: genes 29 Torsion [C]-CA--CB-[CG] |==|  0.34697
USER: genes 30 Torsion [CA]-CB--CG-[CD] |==|  0.50077
USER: genes 31 Torsion [CB]-CG--CD-[OE2] |==|  0.40424
ROOT
ATOM      1  C   TRP B 589     -11.373   0.088 -12.561  1.00  8.59 LIG 0.24  C 
ATOM      2 O    TRP B 589     -10.816   0.205 -11.474  1.00  9.54 LIG-0.27  OA
ATOM      3  N   GLU B 590     -10.720  -0.156 -13.685  1.00  8.93 LIG-0.35  N 
ATOM      4 H    GLU B 590     -11.113  -0.247 -14.445  1.00  8.93 LIG 0.16  HD
ENDROOT
BRANCH 3 5
ATOM      5  CA  GLU B 590      -9.273  -0.298 -13.759  1.00  8.22 LIG 0.18  C 
BRANCH 5 6
ATOM      6  C   GLU B 590      -8.775   0.352 -15.041  1.00  8.58 LIG 0.24  C 
ATOM      7 O    GLU B 590      -9.308   0.088 -16.115  1.00 10.27 LIG-0.27  OA
ATOM      8  N   THR B 591      -7.755   1.195 -14.921  1.00  8.10 LIG-0.34  N 
ATOM      9 H    THR B 591      -7.370   1.363 -14.171  1.00  8.10 LIG 0.16  HD
BRANCH 8 10
ATOM     10  CA  THR B 591      -7.185   1.921 -16.051  1.00  8.42 LIG 0.20  C 
BRANCH 10 11
ATOM     11  C   THR B 591      -5.810   2.445 -15.659  1.00  8.31 LIG 0.24  C 
ATOM     12  N   VAL B 592      -5.290   3.358 -16.464  1.00  8.54 LIG-0.35  N 
ATOM     13 H    VAL B 592      -5.690   3.636 -17.173  1.00  8.54 LIG 0.16  HD
ATOM     14 O    THR B 591      -5.250   2.039 -14.633  1.00  8.65 LIG-0.27  OA
BRANCH 12 15
ATOM     15  CA  VAL B 592      -4.005   3.988 -16.247  1.00  9.13 LIG 0.18  C 
BRANCH 15 16
ATOM     16  CB  VAL B 592      -3.961   4.659 -14.852  1.00  9.93 LIG 0.01  C 
ATOM     17  CG2 VAL B 592      -4.204   6.166 -14.966  1.00 10.24 LIG 0.01  C 
ATOM     18  CG1 VAL B 592      -2.641   4.373 -14.174  1.00 10.82 LIG 0.01  C 
ENDBRANCH 15 16
BRANCH 15 19
ATOM     19  C   VAL B 592      -2.917   2.937 -16.375  1.00  9.48 LIG 0.24  C 
ATOM     20 O    VAL B 592      -3.134   1.784 -16.013  1.00 10.72 LIG-0.27  OA
ATOM     21  N   MET B 593      -1.755   3.339 -16.893  1.00 10.11 LIG-0.34  N 
ATOM     22 H    MET B 593      -1.582   4.155 -17.098  1.00 10.11 LIG 0.16  HD
BRANCH 21 23
ATOM     23  CA  MET B 593      -0.655   2.408 -17.163  1.00 11.88 LIG 0.19  C 
BRANCH 23 24
ATOM     24  C   MET B 593       0.683   3.098 -17.413  1.00 15.28 LIG 0.20  C 
ATOM     25 OXT  MET B 593       1.628   2.438 -17.846  1.00 15.41 LIG-0.65  OA
ATOM     26 O    MET B 593       0.820   4.320 -17.283  1.00 17.52 LIG-0.65  OA
ENDBRANCH 23 24
BRANCH 23 27
ATOM     27  CB  MET B 593      -0.963   1.567 -18.396  1.00 10.86 LIG 0.05  C 
BRANCH 27 28
ATOM     28  CG  MET B 593      -0.845   0.076 -18.183  1.00 11.31 LIG 0.08  C 
BRANCH 28 29
ATOM     29 SD   MET B 593       0.495  -0.442 -17.104  1.00 11.06 LIG-0.17  SA
ATOM     30  CE  MET B 593       1.855  -0.594 -18.257  1.00 12.56 LIG 0.09  C 
ENDBRANCH 28 29
ENDBRANCH 27 28
ENDBRANCH 23 27
ENDBRANCH 21 23
ENDBRANCH 15 19
ENDBRANCH 12 15
ENDBRANCH 10 11
BRANCH 10 31
ATOM     31  CB  THR B 591      -8.125   3.085 -16.473  1.00  8.77 LIG 0.15  C 
ATOM     32  CG2 THR B 591      -8.094   3.331 -17.969  1.00  9.88 LIG 0.04  C 
BRANCH 31 33
ATOM     33 OG1  THR B 591      -9.456   2.764 -16.065  1.00  9.65 LIG-0.39  OA
ATOM     34 HG1  THR B 591      -9.484   2.700 -15.228  1.00  9.65 LIG 0.21  HD
ENDBRANCH 31 33
ENDBRANCH 10 31
ENDBRANCH 8 10
ENDBRANCH 5 6
BRANCH 5 35
ATOM     35  CB  GLU B 590      -8.879  -1.780 -13.685  1.00  9.50 LIG 0.04  C 
BRANCH 35 36
ATOM     36  CG  GLU B 590      -7.388  -2.037 -13.560  1.00  9.44 LIG 0.12  C 
BRANCH 36 37
ATOM     37  CD  GLU B 590      -7.019  -3.413 -13.031  1.00 10.34 LIG 0.17  C 
ATOM     38 OE2  GLU B 590      -5.906  -3.875 -13.352  1.00  9.56 LIG-0.65  OA
ATOM     39 OE1  GLU B 590      -7.802  -4.001 -12.260  1.00 12.93 LIG-0.65  OA
ENDBRANCH 36 37
ENDBRANCH 35 36
ENDBRANCH 5 35
ENDBRANCH 3 5
BRANCH 1 40
ATOM     40  CA  TRP B 589     -12.871   0.261 -12.687  1.00 10.41 LIG 0.18  C 
BRANCH 40 41
ATOM     41  CB  TRP B 589     -13.159   1.740 -12.909  1.00 16.42 LIG 0.07  C 
BRANCH 41 42
ATOM     42  CG  TRP B 589     -13.294   2.146 -14.323  1.00 28.27 LIG-0.03  A 
ATOM     43  CD1 TRP B 589     -13.001   1.405 -15.427  1.00 31.36 LIG 0.10  A 
ATOM     44  NE1 TRP B 589     -13.263   2.130 -16.565  1.00 35.25 LIG-0.36  N 
ATOM     45 HE1  TRP B 589     -13.154   1.851 -17.372  1.00 35.25 LIG 0.17  HD
ATOM     46  CE2 TRP B 589     -13.726   3.367 -16.205  1.00 40.47 LIG 0.04  A 
ATOM     47  CD2 TRP B 589     -13.758   3.412 -14.798  1.00 37.76 LIG-0.00  A 
ATOM     48  CZ2 TRP B 589     -14.116   4.446 -16.996  1.00 47.06 LIG 0.03  A 
ATOM     49  CE3 TRP B 589     -14.197   4.582 -14.171  1.00 44.39 LIG 0.01  A 
ATOM     50  CZ3 TRP B 589     -14.585   5.652 -14.957  1.00 48.60 LIG 0.00  A 
ATOM     51  CH2 TRP B 589     -14.542   5.576 -16.353  1.00 49.92 LIG 0.00  A 
ENDBRANCH 41 42
ENDBRANCH 40 41
BRANCH 40 52
ATOM     52  N   TRP B 589     -13.506  -0.205 -11.474  1.00 10.46 LIG-0.35  N 
ATOM     53 H    TRP B 589     -13.193   0.162 -10.761  1.00 10.46 LIG 0.16  HD
ATOM     54  C   GLU B 588     -14.471  -1.104 -11.453  1.00 14.97 LIG 0.24  C 
ATOM     55 O    GLU B 588     -14.952  -1.618 -12.463  1.00 17.61 LIG-0.27  OA
BRANCH 54 56
ATOM     56  CA  GLU B 588     -14.959  -1.458 -10.058  1.00 18.53 LIG 0.18  C 
BRANCH 56 57
ATOM     57  N   GLU B 588     -16.418  -1.422  -9.975  1.00 19.74 LIG-0.35  N 
ATOM     58 H    GLU B 588     -16.791  -2.178 -10.141  1.00 19.74 LIG 0.16  HD
ATOM     59  C   GLU B 587     -17.106  -0.318  -9.668  1.00 22.74 LIG 0.26  C 
ATOM     60 O    GLU B 587     -16.584   0.763  -9.415  1.00 21.09 LIG-0.27  OA
BRANCH 59 61
ATOM     61  CA  GLU B 587     -18.625  -0.444  -9.653  1.00 29.94 LIG 0.40  C 
ATOM     62  N   GLU B 587     -19.065  -1.040  -8.391  1.00 28.95 LIG 0.61  N 
BRANCH 61 63
ATOM     63  CB  GLU B 587     -19.252   0.941  -9.842  1.00 39.60 LIG 0.06  C 
BRANCH 63 64
ATOM     64  CG  GLU B 587     -19.855   1.544  -8.578  1.00 49.02 LIG 0.12  C 
BRANCH 64 65
ATOM     65  CD  GLU B 587     -18.819   1.794  -7.498  1.00 58.19 LIG 0.17  C 
ATOM     66 OE2  GLU B 587     -18.740   0.989  -6.547  1.00 61.83 LIG-0.65  OA
ATOM     67 OE1  GLU B 587     -18.085   2.801  -7.596  1.00 60.20 LIG-0.65  OA
ENDBRANCH 64 65
ENDBRANCH 63 64
ENDBRANCH 61 63
ENDBRANCH 59 61
ENDBRANCH 56 57
BRANCH 56 68
ATOM     68  CB  GLU B 588     -14.396  -2.821  -9.630  1.00 23.70 LIG 0.04  C 
BRANCH 68 69
ATOM     69  CG  GLU B 588     -13.634  -2.769  -8.297  1.00 29.39 LIG 0.12  C 
BRANCH 69 70
ATOM     70  CD  GLU B 588     -13.063  -4.106  -7.859  1.00 34.84 LIG 0.17  C 
ATOM     71 OE2  GLU B 588     -11.971  -4.105  -7.250  1.00 36.82 LIG-0.65  OA
ATOM     72 OE1  GLU B 588     -13.693  -5.154  -8.114  1.00 37.43 LIG-0.65  OA
ENDBRANCH 69 70
ENDBRANCH 68 69
ENDBRANCH 56 68
ENDBRANCH 54 56
ENDBRANCH 40 52
ENDBRANCH 1 40
TORSDOF 30
ENDMDL
