MODEL 1
USER: ADFR SOLUTION from run 179
USER: SCORE 11.439857 LL:  -2.903 LR: -10.382 RR:   0.000 FEB:  -5.609
USER: RMSD 4.915791
USER: SEED 178
USER: STATUS no improvement in best in 14 clusters for 5 generations
USER: GENES 18
USER: genes 0 Translation |==|  0.54242 0.36733 0.45484
USER: genes 1 Rotation |==|  0.16103 0.32778 0.21956 0.66370
USER: genes 2 Torsion [CB]-CA--N-[C] |==|  0.49294
USER: genes 3 Torsion [N]-C--CA-[N] |==|  0.01303
USER: genes 4 Torsion [C]-CA--N-[C] |==|  0.70518
USER: genes 5 Torsion [N]-C--CA-[N] |==|  0.48932
USER: genes 6 Torsion [C]-CA--CB-[CG2] |==|  0.23451
USER: genes 7 Torsion [C]-CA--N-[H2] |==|  0.27523
USER: genes 8 Torsion [C]-CA--CB-[CG] |==|  0.84513
USER: genes 9 Torsion [CA]-CB--CG-[OD2] |==|  0.32697
USER: genes 10 Torsion [N]-CA--C-[N] |==|  0.57552
USER: genes 11 Torsion [C]-N--CA-[CB] |==|  0.24642
USER: genes 12 Torsion [N]-CA--CB-[CG2] |==|  0.08494
USER: genes 13 Torsion [N]-CA--C-[N] |==|  0.98980
USER: genes 14 Torsion [C]-N--CA-[CB] |==|  0.80372
USER: genes 15 Torsion [N]-CA--CB-[CG] |==|  0.97229
USER: genes 16 Torsion [CA]-CB--CG-[OD1] |==|  0.31417
USER: genes 17 Torsion [N]-CA--C-[O] |==|  0.07256
ROOT
ATOM      1  CA  ALA B   3      11.647  -2.660  25.108  1.00 18.86 LIG 0.17  C 
ATOM      2  CB  ALA B   3      12.197  -3.566  26.207  1.00 19.35 LIG 0.04  C 
ENDROOT
BRANCH 1 3
ATOM      3  N   ALA B   3      11.332  -3.463  23.935  1.00 16.29 LIG-0.35  N 
ATOM      4  C   ASP B   2      10.790  -2.951  22.839  1.00 15.20 LIG 0.24  C 
ATOM      5 O    ASP B   2      10.576  -1.736  22.700  1.00 18.35 LIG-0.27  OA
ATOM      6 H    ALA B   3      11.529  -4.296  24.020  1.00 16.29 LIG 0.16  HD
BRANCH 4 7
ATOM      7  CA  ASP B   2      10.423  -3.955  21.735  1.00 15.30 LIG 0.19  C 
BRANCH 7 8
ATOM      8  N   ASP B   2      10.650  -5.319  22.160  1.00 15.19 LIG-0.34  N 
ATOM      9  C   VAL B   1      11.669  -6.027  21.707  1.00 14.82 LIG 0.25  C 
ATOM     10 O    VAL B   1      12.450  -5.598  20.855  1.00 14.79 LIG-0.27  OA
ATOM     11 H    ASP B   2      10.072  -5.616  22.723  1.00 15.19 LIG 0.16  HD
BRANCH 9 12
ATOM     12  CA  VAL B   1      11.790  -7.451  22.240  1.00 14.89 LIG 0.28  C 
BRANCH 12 13
ATOM     13  CB  VAL B   1      12.006  -7.506  23.760  1.00 17.39 LIG 0.02  C 
ATOM     14  CG2 VAL B   1      10.738  -7.437  24.531  1.00 22.29 LIG 0.01  C 
ATOM     15  CG1 VAL B   1      12.895  -6.392  24.233  1.00 17.29 LIG 0.01  C 
ENDBRANCH 12 13
BRANCH 12 16
ATOM     16  N   VAL B   1      12.917  -8.097  21.555  1.00 15.02 LIG-0.07  N 
ATOM     17 H2   VAL B   1      13.636  -8.073  22.078  1.00 15.02 LIG 0.28  HD
ATOM     18 H3   VAL B   1      12.709  -8.944  21.375  1.00 15.02 LIG 0.28  HD
ATOM     19 H1   VAL B   1      13.089  -7.666  20.795  1.00 15.02 LIG 0.28  HD
ENDBRANCH 12 16
ENDBRANCH 9 12
ENDBRANCH 7 8
BRANCH 7 20
ATOM     20  CB  ASP B   2       8.984  -3.774  21.246  1.00 16.98 LIG 0.15  C 
BRANCH 20 21
ATOM     21  CG  ASP B   2       7.966  -3.860  22.362  1.00 17.41 LIG 0.17  C 
ATOM     22 OD1  ASP B   2       7.861  -4.956  22.986  1.00 15.73 LIG-0.65  OA
ATOM     23 OD2  ASP B   2       7.254  -2.839  22.603  1.00 22.30 LIG-0.65  OA
ENDBRANCH 20 21
ENDBRANCH 7 20
ENDBRANCH 4 7
ENDBRANCH 1 3
BRANCH 1 24
ATOM     24  C   ALA B   3      12.650  -1.558  24.767  1.00 21.51 LIG 0.24  C 
ATOM     25  N   VAL B   4      13.423  -1.140  25.764  1.00 22.67 LIG-0.35  N 
ATOM     26 H    VAL B   4      13.304  -1.358  26.587  1.00 22.67 LIG 0.16  HD
ATOM     27 O    ALA B   3      12.720  -1.101  23.624  1.00 22.81 LIG-0.27  OA
BRANCH 25 28
ATOM     28  CA  VAL B   4      14.566  -0.252  25.532  1.00 26.45 LIG 0.18  C 
BRANCH 28 29
ATOM     29  CB  VAL B   4      14.153   1.236  25.591  1.00 30.01 LIG 0.01  C 
ATOM     30  CG2 VAL B   4      12.984   1.433  26.554  1.00 31.20 LIG 0.01  C 
ATOM     31  CG1 VAL B   4      13.799   1.757  24.200  1.00 33.02 LIG 0.01  C 
ENDBRANCH 28 29
BRANCH 28 32
ATOM     32  C   VAL B   4      15.591  -0.564  26.627  1.00 25.61 LIG 0.24  C 
ATOM     33  N   ASN B   5      15.235  -1.454  27.549  1.00 29.33 LIG-0.35  N 
ATOM     34 H    ASN B   5      14.481  -1.867  27.545  1.00 29.33 LIG 0.16  HD
ATOM     35 O    VAL B   4      16.672   0.026  26.643  1.00 29.65 LIG-0.27  OA
BRANCH 33 36
ATOM     36  CA  ASN B   5      16.115  -1.817  28.675  1.00 34.74 LIG 0.17  C 
BRANCH 36 37
ATOM     37  CB  ASN B   5      17.295  -2.632  28.154  1.00 42.44 LIG 0.14  C 
BRANCH 37 38
ATOM     38  CG  ASN B   5      17.112  -3.042  26.704  1.00 45.23 LIG 0.22  C 
ATOM     39 OD1  ASN B   5      17.839  -2.586  25.837  1.00 53.97 LIG-0.27  OA
ATOM     40  ND2 ASN B   5      16.107  -3.869  26.433  1.00 50.63 LIG-0.37  N 
ATOM     41 21HD ASN B   5      15.950  -4.102  25.621  1.00 50.63 LIG 0.16  HD
ATOM     42 22HD ASN B   5      15.614  -4.171  27.070  1.00 50.63 LIG 0.16  HD
ENDBRANCH 37 38
ENDBRANCH 36 37
BRANCH 36 43
ATOM     43  C   ASN B   5      16.606  -0.604  29.446  1.00 38.04 LIG 0.22  C 
ATOM     44 O    ASN B   5      15.944   0.429  29.451  1.00 41.05 LIG-0.29  OA
ENDBRANCH 36 43
ENDBRANCH 33 36
ENDBRANCH 28 32
ENDBRANCH 25 28
ENDBRANCH 1 24
TORSDOF 16
ENDMDL
MODEL 2
USER: ADFR SOLUTION from run 1
USER: SCORE 10.713430 LL:  -2.955 LR: -10.092 RR:   0.000 FEB:  -5.319
USER: RMSD 4.129204
USER: SEED 503066
USER: STATUS no improvement in best in 17 clusters for 5 generations
USER: GENES 18
USER: genes 0 Translation |==|  0.55241 0.51886 0.46429
USER: genes 1 Rotation |==|  0.28399 0.48037 0.47458 0.94979
USER: genes 2 Torsion [CB]-CA--N-[C] |==|  0.46266
USER: genes 3 Torsion [N]-C--CA-[N] |==|  0.18819
USER: genes 4 Torsion [C]-CA--N-[C] |==|  0.77454
USER: genes 5 Torsion [N]-C--CA-[N] |==|  0.35305
USER: genes 6 Torsion [C]-CA--CB-[CG2] |==|  0.52718
USER: genes 7 Torsion [C]-CA--N-[H2] |==|  0.10113
USER: genes 8 Torsion [C]-CA--CB-[CG] |==|  0.21303
USER: genes 9 Torsion [CA]-CB--CG-[OD2] |==|  0.09953
USER: genes 10 Torsion [N]-CA--C-[N] |==|  0.89395
USER: genes 11 Torsion [C]-N--CA-[CB] |==|  0.86667
USER: genes 12 Torsion [N]-CA--CB-[CG2] |==|  0.83984
USER: genes 13 Torsion [N]-CA--C-[N] |==|  0.41535
USER: genes 14 Torsion [C]-N--CA-[CB] |==|  0.46379
USER: genes 15 Torsion [N]-CA--CB-[CG] |==|  0.77161
USER: genes 16 Torsion [CA]-CB--CG-[OD1] |==|  0.80061
USER: genes 17 Torsion [N]-CA--C-[O] |==|  0.82300
ROOT
ATOM      1  CA  ALA B   3      11.819   0.067  25.306  1.00 18.86 LIG 0.17  C 
ATOM      2  CB  ALA B   3      13.006   0.069  24.345  1.00 19.35 LIG 0.04  C 
ENDROOT
BRANCH 1 3
ATOM      3  N   ALA B   3      10.599  -0.216  24.564  1.00 16.29 LIG-0.35  N 
ATOM      4  C   ASP B   2       9.457  -0.537  25.155  1.00 15.20 LIG 0.24  C 
ATOM      5 O    ASP B   2       9.320  -0.549  26.390  1.00 18.35 LIG-0.27  OA
ATOM      6 H    ALA B   3      10.689  -0.156  23.710  1.00 16.29 LIG 0.16  HD
BRANCH 4 7
ATOM      7  CA  ASP B   2       8.295  -0.908  24.222  1.00 15.30 LIG 0.19  C 
BRANCH 7 8
ATOM      8  N   ASP B   2       8.546  -2.154  23.531  1.00 15.19 LIG-0.34  N 
ATOM      9  C   VAL B   1       9.306  -2.208  22.451  1.00 14.82 LIG 0.25  C 
ATOM     10 O    VAL B   1       9.794  -1.203  21.932  1.00 14.79 LIG-0.27  OA
ATOM     11 H    ASP B   2       8.163  -2.839  23.882  1.00 15.19 LIG 0.16  HD
BRANCH 9 12
ATOM     12  CA  VAL B   1       9.488  -3.586  21.824  1.00 14.89 LIG 0.28  C 
BRANCH 12 13
ATOM     13  CB  VAL B   1      10.919  -4.126  21.967  1.00 17.39 LIG 0.02  C 
ATOM     14  CG2 VAL B   1      11.160  -5.353  21.165  1.00 22.29 LIG 0.01  C 
ATOM     15  CG1 VAL B   1      11.251  -4.439  23.398  1.00 17.29 LIG 0.01  C 
ENDBRANCH 12 13
BRANCH 12 16
ATOM     16  N   VAL B   1       9.135  -3.486  20.402  1.00 15.02 LIG-0.07  N 
ATOM     17 H2   VAL B   1       9.400  -2.698  20.085  1.00 15.02 LIG 0.28  HD
ATOM     18 H3   VAL B   1       9.539  -4.137  19.949  1.00 15.02 LIG 0.28  HD
ATOM     19 H1   VAL B   1       8.253  -3.563  20.308  1.00 15.02 LIG 0.28  HD
ENDBRANCH 12 16
ENDBRANCH 9 12
ENDBRANCH 7 8
BRANCH 7 20
ATOM     20  CB  ASP B   2       6.956  -0.964  24.963  1.00 16.98 LIG 0.15  C 
BRANCH 20 21
ATOM     21  CG  ASP B   2       6.383   0.406  25.252  1.00 17.41 LIG 0.17  C 
ATOM     22 OD1  ASP B   2       5.742   0.564  26.332  1.00 15.73 LIG-0.65  OA
ATOM     23 OD2  ASP B   2       6.555   1.322  24.392  1.00 22.30 LIG-0.65  OA
ENDBRANCH 20 21
ENDBRANCH 7 20
ENDBRANCH 4 7
ENDBRANCH 1 3
BRANCH 1 24
ATOM     24  C   ALA B   3      11.719   1.405  26.039  1.00 21.51 LIG 0.24  C 
ATOM     25  N   VAL B   4      11.094   2.383  25.393  1.00 22.67 LIG-0.35  N 
ATOM     26 H    VAL B   4      10.866   2.341  24.565  1.00 22.67 LIG 0.16  HD
ATOM     27 O    ALA B   3      12.197   1.543  27.168  1.00 22.81 LIG-0.27  OA
BRANCH 25 28
ATOM     28  CA  VAL B   4      10.737   3.641  26.056  1.00 26.45 LIG 0.18  C 
BRANCH 28 29
ATOM     29  CB  VAL B   4      10.043   3.392  27.414  1.00 30.01 LIG 0.01  C 
ATOM     30  CG2 VAL B   4       8.791   2.537  27.231  1.00 31.20 LIG 0.01  C 
ATOM     31  CG1 VAL B   4       9.697   4.714  28.097  1.00 33.02 LIG 0.01  C 
ENDBRANCH 28 29
BRANCH 28 32
ATOM     32  C   VAL B   4      12.044   4.414  26.260  1.00 25.61 LIG 0.24  C 
ATOM     33  N   ASN B   5      11.966   5.742  26.245  1.00 29.33 LIG-0.35  N 
ATOM     34 H    ASN B   5      11.228   6.174  26.150  1.00 29.33 LIG 0.16  HD
ATOM     35 O    VAL B   4      13.105   3.805  26.393  1.00 29.65 LIG-0.27  OA
BRANCH 33 36
ATOM     36  CA  ASN B   5      13.153   6.603  26.395  1.00 34.74 LIG 0.17  C 
BRANCH 36 37
ATOM     37  CB  ASN B   5      12.790   8.036  26.017  1.00 42.44 LIG 0.14  C 
BRANCH 37 38
ATOM     38  CG  ASN B   5      12.831   8.259  24.516  1.00 45.23 LIG 0.22  C 
ATOM     39 OD1  ASN B   5      13.898   8.297  23.926  1.00 53.97 LIG-0.27  OA
ATOM     40  ND2 ASN B   5      11.667   8.454  23.904  1.00 50.63 LIG-0.37  N 
ATOM     41 21HD ASN B   5      11.648   8.614  23.059  1.00 50.63 LIG 0.16  HD
ATOM     42 22HD ASN B   5      10.934   8.420  24.352  1.00 50.63 LIG 0.16  HD
ENDBRANCH 37 38
ENDBRANCH 36 37
BRANCH 36 43
ATOM     43  C   ASN B   5      13.735   6.555  27.797  1.00 38.04 LIG 0.22  C 
ATOM     44 O    ASN B   5      13.074   6.958  28.750  1.00 41.05 LIG-0.29  OA
ENDBRANCH 36 43
ENDBRANCH 33 36
ENDBRANCH 28 32
ENDBRANCH 25 28
ENDBRANCH 1 24
TORSDOF 16
ENDMDL
MODEL 3
USER: ADFR SOLUTION from run 179
USER: SCORE 11.967907 LL:  -3.080 LR:  -9.755 RR:   0.000 FEB:  -4.982
USER: RMSD 4.226377
USER: SEED 178
USER: STATUS no improvement in best in 14 clusters for 5 generations
USER: GENES 18
USER: genes 0 Translation |==|  0.53463 0.38984 0.46482
USER: genes 1 Rotation |==|  0.10878 0.53463 0.30274 0.73840
USER: genes 2 Torsion [CB]-CA--N-[C] |==|  0.50725
USER: genes 3 Torsion [N]-C--CA-[N] |==|  0.92765
USER: genes 4 Torsion [C]-CA--N-[C] |==|  0.84384
USER: genes 5 Torsion [N]-C--CA-[N] |==|  0.36577
USER: genes 6 Torsion [C]-CA--CB-[CG2] |==|  0.92129
USER: genes 7 Torsion [C]-CA--N-[H2] |==|  0.31237
USER: genes 8 Torsion [C]-CA--CB-[CG] |==|  0.82305
USER: genes 9 Torsion [CA]-CB--CG-[OD2] |==|  0.30012
USER: genes 10 Torsion [N]-CA--C-[N] |==|  0.43742
USER: genes 11 Torsion [C]-N--CA-[CB] |==|  0.22778
USER: genes 12 Torsion [N]-CA--CB-[CG2] |==|  0.08490
USER: genes 13 Torsion [N]-CA--C-[N] |==|  0.98995
USER: genes 14 Torsion [C]-N--CA-[CB] |==|  0.80360
USER: genes 15 Torsion [N]-CA--CB-[CG] |==|  0.97230
USER: genes 16 Torsion [CA]-CB--CG-[OD1] |==|  0.31418
USER: genes 17 Torsion [N]-CA--C-[O] |==|  0.07277
ROOT
ATOM      1  CA  ALA B   3      11.512  -2.255  25.317  1.00 18.86 LIG 0.17  C 
ATOM      2  CB  ALA B   3      12.046  -3.686  25.338  1.00 19.35 LIG 0.04  C 
ENDROOT
BRANCH 1 3
ATOM      3  N   ALA B   3      10.264  -2.217  24.568  1.00 16.29 LIG-0.35  N 
ATOM      4  C   ASP B   2       9.597  -1.094  24.341  1.00 15.20 LIG 0.24  C 
ATOM      5 O    ASP B   2      10.022   0.021  24.686  1.00 18.35 LIG-0.27  OA
ATOM      6 H    ALA B   3      10.002  -2.988  24.290  1.00 16.29 LIG 0.16  HD
BRANCH 4 7
ATOM      7  CA  ASP B   2       8.245  -1.245  23.628  1.00 15.30 LIG 0.19  C 
BRANCH 7 8
ATOM      8  N   ASP B   2       8.204  -2.441  22.814  1.00 15.19 LIG-0.34  N 
ATOM      9  C   VAL B   1       9.099  -2.669  21.870  1.00 14.82 LIG 0.25  C 
ATOM     10 O    VAL B   1       9.982  -1.859  21.581  1.00 14.79 LIG-0.27  OA
ATOM     11 H    ASP B   2       7.557  -2.976  23.001  1.00 15.19 LIG 0.16  HD
BRANCH 9 12
ATOM     12  CA  VAL B   1       8.938  -3.969  21.089  1.00 14.89 LIG 0.28  C 
BRANCH 12 13
ATOM     13  CB  VAL B   1       9.991  -5.026  21.459  1.00 17.39 LIG 0.02  C 
ATOM     14  CG2 VAL B   1      11.270  -4.433  21.927  1.00 22.29 LIG 0.01  C 
ATOM     15  CG1 VAL B   1      10.298  -5.929  20.299  1.00 17.29 LIG 0.01  C 
ENDBRANCH 12 13
BRANCH 12 16
ATOM     16  N   VAL B   1       9.034  -3.653  19.658  1.00 15.02 LIG-0.07  N 
ATOM     17 H2   VAL B   1       9.777  -4.009  19.324  1.00 15.02 LIG 0.28  HD
ATOM     18 H3   VAL B   1       8.327  -3.988  19.232  1.00 15.02 LIG 0.28  HD
ATOM     19 H1   VAL B   1       9.054  -2.769  19.549  1.00 15.02 LIG 0.28  HD
ENDBRANCH 12 16
ENDBRANCH 9 12
ENDBRANCH 7 8
BRANCH 7 20
ATOM     20  CB  ASP B   2       7.070  -1.219  24.608  1.00 16.98 LIG 0.15  C 
BRANCH 20 21
ATOM     21  CG  ASP B   2       7.083  -2.380  25.578  1.00 17.41 LIG 0.17  C 
ATOM     22 OD1  ASP B   2       6.778  -3.525  25.135  1.00 15.73 LIG-0.65  OA
ATOM     23 OD2  ASP B   2       7.377  -2.146  26.789  1.00 22.30 LIG-0.65  OA
ENDBRANCH 20 21
ENDBRANCH 7 20
ENDBRANCH 4 7
ENDBRANCH 1 3
BRANCH 1 24
ATOM     24  C   ALA B   3      12.546  -1.305  24.713  1.00 21.51 LIG 0.24  C 
ATOM     25  N   VAL B   4      13.516  -0.898  25.525  1.00 22.67 LIG-0.35  N 
ATOM     26 H    VAL B   4      13.519  -1.035  26.374  1.00 22.67 LIG 0.16  HD
ATOM     27 O    ALA B   3      12.464  -0.951  23.534  1.00 22.81 LIG-0.27  OA
BRANCH 25 28
ATOM     28  CA  VAL B   4      14.684  -0.168  25.026  1.00 26.45 LIG 0.18  C 
BRANCH 28 29
ATOM     29  CB  VAL B   4      14.382   1.338  24.847  1.00 30.01 LIG 0.01  C 
ATOM     30  CG2 VAL B   4      13.339   1.802  25.862  1.00 31.20 LIG 0.01  C 
ATOM     31  CG1 VAL B   4      13.915   1.632  23.423  1.00 33.02 LIG 0.01  C 
ENDBRANCH 28 29
BRANCH 28 32
ATOM     32  C   VAL B   4      15.799  -0.368  26.058  1.00 25.61 LIG 0.24  C 
ATOM     33  N   ASN B   5      15.486  -1.046  27.158  1.00 29.33 LIG-0.35  N 
ATOM     34 H    ASN B   5      14.710  -1.388  27.301  1.00 29.33 LIG 0.16  HD
ATOM     35 O    VAL B   4      16.912   0.121  25.863  1.00 29.65 LIG-0.27  OA
BRANCH 33 36
ATOM     36  CA  ASN B   5      16.457  -1.279  28.243  1.00 34.74 LIG 0.17  C 
BRANCH 36 37
ATOM     37  CB  ASN B   5      17.515  -2.272  27.773  1.00 42.44 LIG 0.14  C 
BRANCH 37 38
ATOM     38  CG  ASN B   5      17.149  -2.914  26.448  1.00 45.23 LIG 0.22  C 
ATOM     39 OD1  ASN B   5      17.807  -2.684  25.446  1.00 53.97 LIG-0.27  OA
ATOM     40  ND2 ASN B   5      16.067  -3.687  26.430  1.00 50.63 LIG-0.37  N 
ATOM     41 21HD ASN B   5      15.807  -4.046  25.694  1.00 50.63 LIG 0.16  HD
ATOM     42 22HD ASN B   5      15.627  -3.827  27.156  1.00 50.63 LIG 0.16  HD
ENDBRANCH 37 38
ENDBRANCH 36 37
BRANCH 36 43
ATOM     43  C   ASN B   5      17.110   0.005  28.726  1.00 38.04 LIG 0.22  C 
ATOM     44 O    ASN B   5      16.522   1.075  28.604  1.00 41.05 LIG-0.29  OA
ENDBRANCH 36 43
ENDBRANCH 33 36
ENDBRANCH 28 32
ENDBRANCH 25 28
ENDBRANCH 1 24
TORSDOF 16
ENDMDL
MODEL 4
USER: ADFR SOLUTION from run 171
USER: SCORE 9.035587 LL:  -3.067 LR:  -9.752 RR:   0.000 FEB:  -4.979
USER: RMSD 3.710910
USER: SEED 170
USER: STATUS no improvement in best in 10 clusters for 5 generations
USER: GENES 18
USER: genes 0 Translation |==|  0.55383 0.48176 0.45279
USER: genes 1 Rotation |==|  0.16952 0.50068 0.33783 0.83836
USER: genes 2 Torsion [CB]-CA--N-[C] |==|  0.30632
USER: genes 3 Torsion [N]-C--CA-[N] |==|  0.22373
USER: genes 4 Torsion [C]-CA--N-[C] |==|  0.79436
USER: genes 5 Torsion [N]-C--CA-[N] |==|  0.31832
USER: genes 6 Torsion [C]-CA--CB-[CG2] |==|  0.48313
USER: genes 7 Torsion [C]-CA--N-[H2] |==|  0.03070
USER: genes 8 Torsion [C]-CA--CB-[CG] |==|  0.72146
USER: genes 9 Torsion [CA]-CB--CG-[OD2] |==|  0.30848
USER: genes 10 Torsion [N]-CA--C-[N] |==|  0.27495
USER: genes 11 Torsion [C]-N--CA-[CB] |==|  0.41844
USER: genes 12 Torsion [N]-CA--CB-[CG2] |==|  0.91253
USER: genes 13 Torsion [N]-CA--C-[N] |==|  0.06626
USER: genes 14 Torsion [C]-N--CA-[CB] |==|  0.24755
USER: genes 15 Torsion [N]-CA--CB-[CG] |==|  0.73717
USER: genes 16 Torsion [CA]-CB--CG-[OD1] |==|  0.40433
USER: genes 17 Torsion [N]-CA--C-[O] |==|  0.13811
ROOT
ATOM      1  CA  ALA B   3      11.844  -0.600  25.065  1.00 18.86 LIG 0.17  C 
ATOM      2  CB  ALA B   3      12.805  -1.709  24.641  1.00 19.35 LIG 0.04  C 
ENDROOT
BRANCH 1 3
ATOM      3  N   ALA B   3      10.660  -0.640  24.217  1.00 16.29 LIG-0.35  N 
ATOM      4  C   ASP B   2       9.470  -1.014  24.663  1.00 15.20 LIG 0.24  C 
ATOM      5 O    ASP B   2       9.256  -1.290  25.856  1.00 18.35 LIG-0.27  OA
ATOM      6 H    ALA B   3      10.806  -0.399  23.404  1.00 16.29 LIG 0.16  HD
BRANCH 4 7
ATOM      7  CA  ASP B   2       8.352  -1.101  23.614  1.00 15.30 LIG 0.19  C 
BRANCH 7 8
ATOM      8  N   ASP B   2       8.421  -2.338  22.865  1.00 15.19 LIG-0.34  N 
ATOM      9  C   VAL B   1       9.347  -2.541  21.945  1.00 14.82 LIG 0.25  C 
ATOM     10 O    VAL B   1      10.165  -1.678  21.623  1.00 14.79 LIG-0.27  OA
ATOM     11 H    ASP B   2       7.816  -2.913  23.073  1.00 15.19 LIG 0.16  HD
BRANCH 9 12
ATOM     12  CA  VAL B   1       9.304  -3.890  21.234  1.00 14.89 LIG 0.28  C 
BRANCH 12 13
ATOM     13  CB  VAL B   1      10.626  -4.666  21.339  1.00 17.39 LIG 0.02  C 
ATOM     14  CG2 VAL B   1      10.542  -6.037  20.772  1.00 22.29 LIG 0.01  C 
ATOM     15  CG1 VAL B   1      11.087  -4.783  22.763  1.00 17.29 LIG 0.01  C 
ENDBRANCH 12 13
BRANCH 12 16
ATOM     16  N   VAL B   1       8.983  -3.647  19.821  1.00 15.02 LIG-0.07  N 
ATOM     17 H2   VAL B   1       9.040  -2.776  19.649  1.00 15.02 LIG 0.28  HD
ATOM     18 H3   VAL B   1       9.557  -4.089  19.305  1.00 15.02 LIG 0.28  HD
ATOM     19 H1   VAL B   1       8.155  -3.928  19.652  1.00 15.02 LIG 0.28  HD
ENDBRANCH 12 16
ENDBRANCH 9 12
ENDBRANCH 7 8
BRANCH 7 20
ATOM     20  CB  ASP B   2       6.963  -0.923  24.234  1.00 16.98 LIG 0.15  C 
BRANCH 20 21
ATOM     21  CG  ASP B   2       6.240  -2.234  24.450  1.00 17.41 LIG 0.17  C 
ATOM     22 OD1  ASP B   2       5.836  -2.863  23.430  1.00 15.73 LIG-0.65  OA
ATOM     23 OD2  ASP B   2       6.055  -2.627  25.641  1.00 22.30 LIG-0.65  OA
ENDBRANCH 20 21
ENDBRANCH 7 20
ENDBRANCH 4 7
ENDBRANCH 1 3
BRANCH 1 24
ATOM     24  C   ALA B   3      12.529   0.764  24.990  1.00 21.51 LIG 0.24  C 
ATOM     25  N   VAL B   4      12.265   1.609  25.981  1.00 22.67 LIG-0.35  N 
ATOM     26 H    VAL B   4      11.652   1.479  26.570  1.00 22.67 LIG 0.16  HD
ATOM     27 O    ALA B   3      13.283   1.040  24.054  1.00 22.81 LIG-0.27  OA
BRANCH 25 28
ATOM     28  CA  VAL B   4      13.014   2.857  26.151  1.00 26.45 LIG 0.18  C 
BRANCH 28 29
ATOM     29  CB  VAL B   4      12.152   3.954  26.816  1.00 30.01 LIG 0.01  C 
ATOM     30  CG2 VAL B   4      10.683   3.792  26.431  1.00 31.20 LIG 0.01  C 
ATOM     31  CG1 VAL B   4      12.658   5.344  26.438  1.00 33.02 LIG 0.01  C 
ENDBRANCH 28 29
BRANCH 28 32
ATOM     32  C   VAL B   4      14.224   2.524  27.030  1.00 25.61 LIG 0.24  C 
ATOM     33  N   ASN B   5      14.633   1.259  27.038  1.00 29.33 LIG-0.35  N 
ATOM     34 H    ASN B   5      14.269   0.639  26.567  1.00 29.33 LIG 0.16  HD
ATOM     35 O    VAL B   4      14.748   3.405  27.713  1.00 29.65 LIG-0.27  OA
BRANCH 33 36
ATOM     36  CA  ASN B   5      15.762   0.801  27.868  1.00 34.74 LIG 0.17  C 
BRANCH 36 37
ATOM     37  CB  ASN B   5      15.245   0.377  29.239  1.00 42.44 LIG 0.14  C 
BRANCH 37 38
ATOM     38  CG  ASN B   5      15.339   1.498  30.258  1.00 45.23 LIG 0.22  C 
ATOM     39 OD1  ASN B   5      14.492   1.615  31.128  1.00 53.97 LIG-0.27  OA
ATOM     40  ND2 ASN B   5      16.348   2.353  30.122  1.00 50.63 LIG-0.37  N 
ATOM     41 21HD ASN B   5      16.422   3.020  30.660  1.00 50.63 LIG 0.16  HD
ATOM     42 22HD ASN B   5      16.928   2.239  29.497  1.00 50.63 LIG 0.16  HD
ENDBRANCH 37 38
ENDBRANCH 36 37
BRANCH 36 43
ATOM     43  C   ASN B   5      16.539  -0.332  27.220  1.00 38.04 LIG 0.22  C 
ATOM     44 O    ASN B   5      16.914  -0.231  26.055  1.00 41.05 LIG-0.29  OA
ENDBRANCH 36 43
ENDBRANCH 33 36
ENDBRANCH 28 32
ENDBRANCH 25 28
ENDBRANCH 1 24
TORSDOF 16
ENDMDL
MODEL 5
USER: ADFR SOLUTION from run 153
USER: SCORE 11.208258 LL:  -3.088 LR:  -9.689 RR:   0.000 FEB:  -4.916
USER: RMSD 4.359615
USER: SEED 152
USER: STATUS no improvement in best in 8 clusters for 5 generations
USER: GENES 18
USER: genes 0 Translation |==|  0.58433 0.45759 0.43729
USER: genes 1 Rotation |==|  0.69677 0.51883 0.88341 0.75283
USER: genes 2 Torsion [CB]-CA--N-[C] |==|  0.80303
USER: genes 3 Torsion [N]-C--CA-[N] |==|  0.40055
USER: genes 4 Torsion [C]-CA--N-[C] |==|  0.60847
USER: genes 5 Torsion [N]-C--CA-[N] |==|  0.53451
USER: genes 6 Torsion [C]-CA--CB-[CG2] |==|  0.73919
USER: genes 7 Torsion [C]-CA--N-[H2] |==|  0.42319
USER: genes 8 Torsion [C]-CA--CB-[CG] |==|  0.07578
USER: genes 9 Torsion [CA]-CB--CG-[OD2] |==|  0.64999
USER: genes 10 Torsion [N]-CA--C-[N] |==|  0.25861
USER: genes 11 Torsion [C]-N--CA-[CB] |==|  0.53069
USER: genes 12 Torsion [N]-CA--CB-[CG2] |==|  0.05413
USER: genes 13 Torsion [N]-CA--C-[N] |==|  0.79046
USER: genes 14 Torsion [C]-N--CA-[CB] |==|  0.24209
USER: genes 15 Torsion [N]-CA--CB-[CG] |==|  0.10963
USER: genes 16 Torsion [CA]-CB--CG-[OD1] |==|  0.68936
USER: genes 17 Torsion [N]-CA--C-[O] |==|  0.80970
ROOT
ATOM      1  CA  ALA B   3      12.370  -1.035  24.739  1.00 18.86 LIG 0.17  C 
ATOM      2  CB  ALA B   3      11.109  -0.396  25.316  1.00 19.35 LIG 0.04  C 
ENDROOT
BRANCH 1 3
ATOM      3  N   ALA B   3      11.997  -1.962  23.679  1.00 16.29 LIG-0.35  N 
ATOM      4  C   ASP B   2      11.391  -3.117  23.916  1.00 15.20 LIG 0.24  C 
ATOM      5 O    ASP B   2      11.027  -3.464  25.052  1.00 18.35 LIG-0.27  OA
ATOM      6 H    ALA B   3      12.207  -1.691  22.890  1.00 16.29 LIG 0.16  HD
BRANCH 4 7
ATOM      7  CA  ASP B   2      11.165  -4.023  22.697  1.00 15.30 LIG 0.19  C 
BRANCH 7 8
ATOM      8  N   ASP B   2      11.308  -5.421  23.040  1.00 15.19 LIG-0.34  N 
ATOM      9  C   VAL B   1      11.895  -6.280  22.226  1.00 14.82 LIG 0.25  C 
ATOM     10 O    VAL B   1      12.301  -5.963  21.107  1.00 14.79 LIG-0.27  OA
ATOM     11 H    ASP B   2      10.981  -5.634  23.807  1.00 15.19 LIG 0.16  HD
BRANCH 9 12
ATOM     12  CA  VAL B   1      11.978  -7.722  22.715  1.00 14.89 LIG 0.28  C 
BRANCH 12 13
ATOM     13  CB  VAL B   1      12.449  -7.835  24.174  1.00 17.39 LIG 0.02  C 
ATOM     14  CG2 VAL B   1      13.915  -8.039  24.297  1.00 22.29 LIG 0.01  C 
ATOM     15  CG1 VAL B   1      11.764  -8.964  24.889  1.00 17.29 LIG 0.01  C 
ENDBRANCH 12 13
BRANCH 12 16
ATOM     16  N   VAL B   1      12.907  -8.445  21.837  1.00 15.02 LIG-0.07  N 
ATOM     17 H2   VAL B   1      13.282  -9.114  22.287  1.00 15.02 LIG 0.28  HD
ATOM     18 H3   VAL B   1      12.463  -8.770  21.137  1.00 15.02 LIG 0.28  HD
ATOM     19 H1   VAL B   1      13.541  -7.888  21.552  1.00 15.02 LIG 0.28  HD
ENDBRANCH 12 16
ENDBRANCH 9 12
ENDBRANCH 7 8
BRANCH 7 20
ATOM     20  CB  ASP B   2       9.811  -3.767  22.031  1.00 16.98 LIG 0.15  C 
BRANCH 20 21
ATOM     21  CG  ASP B   2       9.307  -2.356  22.238  1.00 17.41 LIG 0.17  C 
ATOM     22 OD1  ASP B   2      10.077  -1.401  21.931  1.00 15.73 LIG-0.65  OA
ATOM     23 OD2  ASP B   2       8.147  -2.199  22.727  1.00 22.30 LIG-0.65  OA
ENDBRANCH 20 21
ENDBRANCH 7 20
ENDBRANCH 4 7
ENDBRANCH 1 3
BRANCH 1 24
ATOM     24  C   ALA B   3      13.164  -1.744  25.836  1.00 21.51 LIG 0.24  C 
ATOM     25  N   VAL B   4      14.487  -1.712  25.717  1.00 22.67 LIG-0.35  N 
ATOM     26 H    VAL B   4      14.898  -1.435  25.014  1.00 22.67 LIG 0.16  HD
ATOM     27 O    ALA B   3      12.586  -2.304  26.771  1.00 22.81 LIG-0.27  OA
BRANCH 25 28
ATOM     28  CA  VAL B   4      15.370  -2.157  26.799  1.00 26.45 LIG 0.18  C 
BRANCH 28 29
ATOM     29  CB  VAL B   4      16.842  -1.771  26.529  1.00 30.01 LIG 0.01  C 
ATOM     30  CG2 VAL B   4      16.924  -0.647  25.498  1.00 31.20 LIG 0.01  C 
ATOM     31  CG1 VAL B   4      17.646  -2.985  26.069  1.00 33.02 LIG 0.01  C 
ENDBRANCH 28 29
BRANCH 28 32
ATOM     32  C   VAL B   4      14.868  -1.482  28.079  1.00 25.61 LIG 0.24  C 
ATOM     33  N   ASN B   5      15.147  -0.191  28.228  1.00 29.33 LIG-0.35  N 
ATOM     34 H    ASN B   5      15.570   0.275  27.641  1.00 29.33 LIG 0.16  HD
ATOM     35 O    VAL B   4      14.266  -2.141  28.927  1.00 29.65 LIG-0.27  OA
BRANCH 33 36
ATOM     36  CA  ASN B   5      14.753   0.569  29.428  1.00 34.74 LIG 0.17  C 
BRANCH 36 37
ATOM     37  CB  ASN B   5      15.834   0.428  30.495  1.00 42.44 LIG 0.14  C 
BRANCH 37 38
ATOM     38  CG  ASN B   5      17.231   0.472  29.904  1.00 45.23 LIG 0.22  C 
ATOM     39 OD1  ASN B   5      17.936  -0.524  29.910  1.00 53.97 LIG-0.27  OA
ATOM     40  ND2 ASN B   5      17.650   1.642  29.433  1.00 50.63 LIG-0.37  N 
ATOM     41 21HD ASN B   5      18.446   1.718  29.116  1.00 50.63 LIG 0.16  HD
ATOM     42 22HD ASN B   5      17.125   2.324  29.444  1.00 50.63 LIG 0.16  HD
ENDBRANCH 37 38
ENDBRANCH 36 37
BRANCH 36 43
ATOM     43  C   ASN B   5      14.487   2.035  29.130  1.00 38.04 LIG 0.22  C 
ATOM     44 O    ASN B   5      15.415   2.774  28.815  1.00 41.05 LIG-0.29  OA
ENDBRANCH 36 43
ENDBRANCH 33 36
ENDBRANCH 28 32
ENDBRANCH 25 28
ENDBRANCH 1 24
TORSDOF 16
ENDMDL
MODEL 6
USER: ADFR SOLUTION from run 62
USER: SCORE 9.939051 LL:  -2.881 LR:  -9.462 RR:   0.000 FEB:  -4.689
USER: RMSD 3.649485
USER: SEED 61
USER: STATUS no improvement in best in 17 clusters for 5 generations
USER: GENES 18
USER: genes 0 Translation |==|  0.61760 0.50800 0.43176
USER: genes 1 Rotation |==|  0.41191 0.58123 0.53995 0.98378
USER: genes 2 Torsion [CB]-CA--N-[C] |==|  0.29672
USER: genes 3 Torsion [N]-C--CA-[N] |==|  0.43685
USER: genes 4 Torsion [C]-CA--N-[C] |==|  0.81845
USER: genes 5 Torsion [N]-C--CA-[N] |==|  0.41660
USER: genes 6 Torsion [C]-CA--CB-[CG2] |==|  0.89346
USER: genes 7 Torsion [C]-CA--N-[H2] |==|  0.98167
USER: genes 8 Torsion [C]-CA--CB-[CG] |==|  0.24887
USER: genes 9 Torsion [CA]-CB--CG-[OD2] |==|  0.30424
USER: genes 10 Torsion [N]-CA--C-[N] |==|  0.67571
USER: genes 11 Torsion [C]-N--CA-[CB] |==|  0.80321
USER: genes 12 Torsion [N]-CA--CB-[CG2] |==|  0.94523
USER: genes 13 Torsion [N]-CA--C-[N] |==|  0.14878
USER: genes 14 Torsion [C]-N--CA-[CB] |==|  0.41575
USER: genes 15 Torsion [N]-CA--CB-[CG] |==|  0.96329
USER: genes 16 Torsion [CA]-CB--CG-[OD1] |==|  0.18532
USER: genes 17 Torsion [N]-CA--C-[O] |==|  0.71044
ROOT
ATOM      1  CA  ALA B   3      12.944  -0.128  24.623  1.00 18.86 LIG 0.17  C 
ATOM      2  CB  ALA B   3      13.571   0.571  23.419  1.00 19.35 LIG 0.04  C 
ENDROOT
BRANCH 1 3
ATOM      3  N   ALA B   3      11.510  -0.265  24.407  1.00 16.29 LIG-0.35  N 
ATOM      4  C   ASP B   2      10.935  -1.425  24.121  1.00 15.20 LIG 0.24  C 
ATOM      5 O    ASP B   2      11.563  -2.496  24.088  1.00 18.35 LIG-0.27  OA
ATOM      6 H    ALA B   3      11.074   0.473  24.482  1.00 16.29 LIG 0.16  HD
BRANCH 4 7
ATOM      7  CA  ASP B   2       9.430  -1.375  23.818  1.00 15.30 LIG 0.19  C 
BRANCH 7 8
ATOM      8  N   ASP B   2       9.009  -2.514  23.031  1.00 15.19 LIG-0.34  N 
ATOM      9  C   VAL B   1       9.436  -2.699  21.795  1.00 14.82 LIG 0.25  C 
ATOM     10 O    VAL B   1      10.165  -1.892  21.216  1.00 14.79 LIG-0.27  OA
ATOM     11 H    ASP B   2       8.467  -3.045  23.436  1.00 15.19 LIG 0.16  HD
BRANCH 9 12
ATOM     12  CA  VAL B   1       8.913  -3.942  21.082  1.00 14.89 LIG 0.28  C 
BRANCH 12 13
ATOM     13  CB  VAL B   1       9.785  -5.184  21.322  1.00 17.39 LIG 0.02  C 
ATOM     14  CG2 VAL B   1      11.239  -4.878  21.348  1.00 22.29 LIG 0.01  C 
ATOM     15  CG1 VAL B   1       9.554  -6.233  20.274  1.00 17.29 LIG 0.01  C 
ENDBRANCH 12 13
BRANCH 12 16
ATOM     16  N   VAL B   1       8.856  -3.647  19.644  1.00 15.02 LIG-0.07  N 
ATOM     17 H2   VAL B   1       9.043  -2.788  19.509  1.00 15.02 LIG 0.28  HD
ATOM     18 H3   VAL B   1       9.450  -4.151  19.213  1.00 15.02 LIG 0.28  HD
ATOM     19 H1   VAL B   1       8.039  -3.824  19.336  1.00 15.02 LIG 0.28  HD
ENDBRANCH 12 16
ENDBRANCH 9 12
ENDBRANCH 7 8
BRANCH 7 20
ATOM     20  CB  ASP B   2       8.589  -1.260  25.092  1.00 16.98 LIG 0.15  C 
BRANCH 20 21
ATOM     21  CG  ASP B   2       8.335   0.173  25.506  1.00 17.41 LIG 0.17  C 
ATOM     22 OD1  ASP B   2       9.306   0.835  25.973  1.00 15.73 LIG-0.65  OA
ATOM     23 OD2  ASP B   2       7.159   0.633  25.383  1.00 22.30 LIG-0.65  OA
ENDBRANCH 20 21
ENDBRANCH 7 20
ENDBRANCH 4 7
ENDBRANCH 1 3
BRANCH 1 24
ATOM     24  C   ALA B   3      13.235   0.648  25.907  1.00 21.51 LIG 0.24  C 
ATOM     25  N   VAL B   4      13.869   1.807  25.761  1.00 22.67 LIG-0.35  N 
ATOM     26 H    VAL B   4      14.224   2.070  25.023  1.00 22.67 LIG 0.16  HD
ATOM     27 O    ALA B   3      12.889   0.205  27.005  1.00 22.81 LIG-0.27  OA
BRANCH 25 28
ATOM     28  CA  VAL B   4      14.018   2.749  26.874  1.00 26.45 LIG 0.18  C 
BRANCH 28 29
ATOM     29  CB  VAL B   4      12.673   3.416  27.240  1.00 30.01 LIG 0.01  C 
ATOM     30  CG2 VAL B   4      11.683   3.304  26.083  1.00 31.20 LIG 0.01  C 
ATOM     31  CG1 VAL B   4      12.881   4.878  27.631  1.00 33.02 LIG 0.01  C 
ENDBRANCH 28 29
BRANCH 28 32
ATOM     32  C   VAL B   4      14.554   1.944  28.062  1.00 25.61 LIG 0.24  C 
ATOM     33  N   ASN B   5      15.657   1.230  27.856  1.00 29.33 LIG-0.35  N 
ATOM     34 H    ASN B   5      16.083   1.218  27.109  1.00 29.33 LIG 0.16  HD
ATOM     35 O    VAL B   4      13.947   1.951  29.133  1.00 29.65 LIG-0.27  OA
BRANCH 33 36
ATOM     36  CA  ASN B   5      16.255   0.384  28.905  1.00 34.74 LIG 0.17  C 
BRANCH 36 37
ATOM     37  CB  ASN B   5      16.956  -0.806  28.258  1.00 42.44 LIG 0.14  C 
BRANCH 37 38
ATOM     38  CG  ASN B   5      16.580  -0.967  26.797  1.00 45.23 LIG 0.22  C 
ATOM     39 OD1  ASN B   5      16.915  -0.128  25.976  1.00 53.97 LIG-0.27  OA
ATOM     40  ND2 ASN B   5      15.840  -2.024  26.477  1.00 50.63 LIG-0.37  N 
ATOM     41 21HD ASN B   5      15.579  -2.137  25.665  1.00 50.63 LIG 0.16  HD
ATOM     42 22HD ASN B   5      15.622  -2.596  27.081  1.00 50.63 LIG 0.16  HD
ENDBRANCH 37 38
ENDBRANCH 36 37
BRANCH 36 43
ATOM     43  C   ASN B   5      17.221   1.151  29.792  1.00 38.04 LIG 0.22  C 
ATOM     44 O    ASN B   5      18.431   1.003  29.652  1.00 41.05 LIG-0.29  OA
ENDBRANCH 36 43
ENDBRANCH 33 36
ENDBRANCH 28 32
ENDBRANCH 25 28
ENDBRANCH 1 24
TORSDOF 16
ENDMDL
MODEL 7
USER: ADFR SOLUTION from run 144
USER: SCORE 10.673176 LL:  -2.692 LR:  -9.458 RR:   0.000 FEB:  -4.685
USER: RMSD 3.758597
USER: SEED 143
USER: STATUS no improvement in best in 12 clusters for 5 generations
USER: GENES 18
USER: genes 0 Translation |==|  0.65138 0.51428 0.42694
USER: genes 1 Rotation |==|  0.63507 0.54897 0.75625 0.90459
USER: genes 2 Torsion [CB]-CA--N-[C] |==|  0.56591
USER: genes 3 Torsion [N]-C--CA-[N] |==|  0.44997
USER: genes 4 Torsion [C]-CA--N-[C] |==|  0.64351
USER: genes 5 Torsion [N]-C--CA-[N] |==|  0.63454
USER: genes 6 Torsion [C]-CA--CB-[CG2] |==|  0.62830
USER: genes 7 Torsion [C]-CA--N-[H2] |==|  0.10859
USER: genes 8 Torsion [C]-CA--CB-[CG] |==|  0.26488
USER: genes 9 Torsion [CA]-CB--CG-[OD2] |==|  0.50075
USER: genes 10 Torsion [N]-CA--C-[N] |==|  0.27374
USER: genes 11 Torsion [C]-N--CA-[CB] |==|  0.48124
USER: genes 12 Torsion [N]-CA--CB-[CG2] |==|  0.80547
USER: genes 13 Torsion [N]-CA--C-[N] |==|  0.41699
USER: genes 14 Torsion [C]-N--CA-[CB] |==|  0.41477
USER: genes 15 Torsion [N]-CA--CB-[CG] |==|  0.59799
USER: genes 16 Torsion [CA]-CB--CG-[OD1] |==|  0.38825
USER: genes 17 Torsion [N]-CA--C-[O] |==|  0.43539
ROOT
ATOM      1  CA  ALA B   3      13.526  -0.015  24.522  1.00 18.86 LIG 0.17  C 
ATOM      2  CB  ALA B   3      13.045   1.432  24.602  1.00 19.35 LIG 0.04  C 
ENDROOT
BRANCH 1 3
ATOM      3  N   ALA B   3      12.470  -0.843  23.958  1.00 16.29 LIG-0.35  N 
ATOM      4  C   ASP B   2      12.389  -2.149  24.173  1.00 15.20 LIG 0.24  C 
ATOM      5 O    ASP B   2      13.165  -2.754  24.931  1.00 18.35 LIG-0.27  OA
ATOM      6 H    ALA B   3      11.906  -0.408  23.474  1.00 16.29 LIG 0.16  HD
BRANCH 4 7
ATOM      7  CA  ASP B   2      11.275  -2.890  23.418  1.00 15.30 LIG 0.19  C 
BRANCH 7 8
ATOM      8  N   ASP B   2      11.518  -4.316  23.379  1.00 15.19 LIG-0.34  N 
ATOM      9  C   VAL B   1      11.492  -4.993  22.245  1.00 14.82 LIG 0.25  C 
ATOM     10 O    VAL B   1      11.202  -4.474  21.166  1.00 14.79 LIG-0.27  OA
ATOM     11 H    ASP B   2      11.677  -4.670  24.146  1.00 15.19 LIG 0.16  HD
BRANCH 9 12
ATOM     12  CA  VAL B   1      11.767  -6.490  22.350  1.00 14.89 LIG 0.28  C 
BRANCH 12 13
ATOM     13  CB  VAL B   1      12.270  -6.913  23.739  1.00 17.39 LIG 0.02  C 
ATOM     14  CG2 VAL B   1      13.444  -7.821  23.681  1.00 22.29 LIG 0.01  C 
ATOM     15  CG1 VAL B   1      11.195  -7.600  24.530  1.00 17.29 LIG 0.01  C 
ENDBRANCH 12 13
BRANCH 12 16
ATOM     16  N   VAL B   1      12.768  -6.838  21.333  1.00 15.02 LIG-0.07  N 
ATOM     17 H2   VAL B   1      13.377  -6.192  21.282  1.00 15.02 LIG 0.28  HD
ATOM     18 H3   VAL B   1      13.165  -7.603  21.556  1.00 15.02 LIG 0.28  HD
ATOM     19 H1   VAL B   1      12.369  -6.932  20.542  1.00 15.02 LIG 0.28  HD
ENDBRANCH 12 16
ENDBRANCH 9 12
ENDBRANCH 7 8
BRANCH 7 20
ATOM     20  CB  ASP B   2       9.890  -2.594  23.998  1.00 16.98 LIG 0.15  C 
BRANCH 20 21
ATOM     21  CG  ASP B   2       9.169  -1.481  23.270  1.00 17.41 LIG 0.17  C 
ATOM     22 OD1  ASP B   2       9.766  -0.920  22.306  1.00 15.73 LIG-0.65  OA
ATOM     23 OD2  ASP B   2       8.013  -1.151  23.673  1.00 22.30 LIG-0.65  OA
ENDBRANCH 20 21
ENDBRANCH 7 20
ENDBRANCH 4 7
ENDBRANCH 1 3
BRANCH 1 24
ATOM     24  C   ALA B   3      13.944  -0.520  25.903  1.00 21.51 LIG 0.24  C 
ATOM     25  N   VAL B   4      15.035  -1.278  25.945  1.00 22.67 LIG-0.35  N 
ATOM     26 H    VAL B   4      15.428  -1.592  25.247  1.00 22.67 LIG 0.16  HD
ATOM     27 O    ALA B   3      13.291  -0.225  26.906  1.00 22.81 LIG-0.27  OA
BRANCH 25 28
ATOM     28  CA  VAL B   4      15.668  -1.648  27.214  1.00 26.45 LIG 0.18  C 
BRANCH 28 29
ATOM     29  CB  VAL B   4      16.813  -2.664  27.005  1.00 30.01 LIG 0.01  C 
ATOM     30  CG2 VAL B   4      16.257  -4.025  26.592  1.00 31.20 LIG 0.01  C 
ATOM     31  CG1 VAL B   4      17.664  -2.790  28.268  1.00 33.02 LIG 0.01  C 
ENDBRANCH 28 29
BRANCH 28 32
ATOM     32  C   VAL B   4      16.211  -0.352  27.825  1.00 25.61 LIG 0.24  C 
ATOM     33  N   ASN B   5      16.266  -0.290  29.152  1.00 29.33 LIG-0.35  N 
ATOM     34 H    ASN B   5      16.035  -0.937  29.669  1.00 29.33 LIG 0.16  HD
ATOM     35 O    VAL B   4      16.540   0.582  27.094  1.00 29.65 LIG-0.27  OA
BRANCH 33 36
ATOM     36  CA  ASN B   5      16.735   0.912  29.867  1.00 34.74 LIG 0.17  C 
BRANCH 36 37
ATOM     37  CB  ASN B   5      16.021   1.014  31.211  1.00 42.44 LIG 0.14  C 
BRANCH 37 38
ATOM     38  CG  ASN B   5      15.739   2.453  31.601  1.00 45.23 LIG 0.22  C 
ATOM     39 OD1  ASN B   5      14.679   2.755  32.123  1.00 53.97 LIG-0.27  OA
ATOM     40  ND2 ASN B   5      16.673   3.352  31.306  1.00 50.63 LIG-0.37  N 
ATOM     41 21HD ASN B   5      16.541   4.183  31.483  1.00 50.63 LIG 0.16  HD
ATOM     42 22HD ASN B   5      17.409   3.102  30.938  1.00 50.63 LIG 0.16  HD
ENDBRANCH 37 38
ENDBRANCH 36 37
BRANCH 36 43
ATOM     43  C   ASN B   5      18.242   0.922  30.064  1.00 38.04 LIG 0.22  C 
ATOM     44 O    ASN B   5      18.830   1.984  30.237  1.00 41.05 LIG-0.29  OA
ENDBRANCH 36 43
ENDBRANCH 33 36
ENDBRANCH 28 32
ENDBRANCH 25 28
ENDBRANCH 1 24
TORSDOF 16
ENDMDL
MODEL 8
USER: ADFR SOLUTION from run 139
USER: SCORE 10.939252 LL:  -2.868 LR:  -9.398 RR:   0.000 FEB:  -4.625
USER: RMSD 3.304800
USER: SEED 138
USER: STATUS no improvement in best in 6 clusters for 5 generations
USER: GENES 18
USER: genes 0 Translation |==|  0.64636 0.51077 0.42027
USER: genes 1 Rotation |==|  0.63323 0.57328 0.62157 0.96054
USER: genes 2 Torsion [CB]-CA--N-[C] |==|  0.50556
USER: genes 3 Torsion [N]-C--CA-[N] |==|  0.38125
USER: genes 4 Torsion [C]-CA--N-[C] |==|  0.76471
USER: genes 5 Torsion [N]-C--CA-[N] |==|  0.41080
USER: genes 6 Torsion [C]-CA--CB-[CG2] |==|  0.49106
USER: genes 7 Torsion [C]-CA--N-[H2] |==|  0.01698
USER: genes 8 Torsion [C]-CA--CB-[CG] |==|  0.32958
USER: genes 9 Torsion [CA]-CB--CG-[OD2] |==|  0.55808
USER: genes 10 Torsion [N]-CA--C-[N] |==|  0.35762
USER: genes 11 Torsion [C]-N--CA-[CB] |==|  0.50187
USER: genes 12 Torsion [N]-CA--CB-[CG2] |==|  0.79723
USER: genes 13 Torsion [N]-CA--C-[N] |==|  0.38072
USER: genes 14 Torsion [C]-N--CA-[CB] |==|  0.85422
USER: genes 15 Torsion [N]-CA--CB-[CG] |==|  0.63347
USER: genes 16 Torsion [CA]-CB--CG-[OD1] |==|  0.27882
USER: genes 17 Torsion [N]-CA--C-[O] |==|  0.85663
ROOT
ATOM      1  CA  ALA B   3      13.440  -0.078  24.382  1.00 18.86 LIG 0.17  C 
ATOM      2  CB  ALA B   3      13.753   1.408  24.220  1.00 19.35 LIG 0.04  C 
ENDROOT
BRANCH 1 3
ATOM      3  N   ALA B   3      12.016  -0.296  24.168  1.00 16.29 LIG-0.35  N 
ATOM      4  C   ASP B   2      11.447  -1.488  24.282  1.00 15.20 LIG 0.24  C 
ATOM      5 O    ASP B   2      12.070  -2.497  24.652  1.00 18.35 LIG-0.27  OA
ATOM      6 H    ALA B   3      11.582   0.417  23.961  1.00 16.29 LIG 0.16  HD
BRANCH 4 7
ATOM      7  CA  ASP B   2       9.956  -1.562  23.919  1.00 15.30 LIG 0.19  C 
BRANCH 7 8
ATOM      8  N   ASP B   2       9.659  -2.742  23.136  1.00 15.19 LIG-0.34  N 
ATOM      9  C   VAL B   1       9.816  -2.763  21.825  1.00 14.82 LIG 0.25  C 
ATOM     10 O    VAL B   1      10.165  -1.772  21.181  1.00 14.79 LIG-0.27  OA
ATOM     11 H    ASP B   2       9.376  -3.412  23.596  1.00 15.19 LIG 0.16  HD
BRANCH 9 12
ATOM     12  CA  VAL B   1       9.466  -4.073  21.126  1.00 14.89 LIG 0.28  C 
BRANCH 12 13
ATOM     13  CB  VAL B   1      10.663  -5.028  21.006  1.00 17.39 LIG 0.02  C 
ATOM     14  CG2 VAL B   1      10.306  -6.334  20.394  1.00 22.29 LIG 0.01  C 
ATOM     15  CG1 VAL B   1      11.289  -5.301  22.343  1.00 17.29 LIG 0.01  C 
ENDBRANCH 12 13
BRANCH 12 16
ATOM     16  N   VAL B   1       8.954  -3.749  19.788  1.00 15.02 LIG-0.07  N 
ATOM     17 H2   VAL B   1       9.040  -2.876  19.640  1.00 15.02 LIG 0.28  HD
ATOM     18 H3   VAL B   1       9.416  -4.200  19.175  1.00 15.02 LIG 0.28  HD
ATOM     19 H1   VAL B   1       8.094  -3.975  19.736  1.00 15.02 LIG 0.28  HD
ENDBRANCH 12 16
ENDBRANCH 9 12
ENDBRANCH 7 8
BRANCH 7 20
ATOM     20  CB  ASP B   2       9.057  -1.494  25.156  1.00 16.98 LIG 0.15  C 
BRANCH 20 21
ATOM     21  CG  ASP B   2       8.133  -0.297  25.150  1.00 17.41 LIG 0.17  C 
ATOM     22 OD1  ASP B   2       7.904   0.269  24.042  1.00 15.73 LIG-0.65  OA
ATOM     23 OD2  ASP B   2       7.648   0.091  26.256  1.00 22.30 LIG-0.65  OA
ENDBRANCH 20 21
ENDBRANCH 7 20
ENDBRANCH 4 7
ENDBRANCH 1 3
BRANCH 1 24
ATOM     24  C   ALA B   3      13.871  -0.572  25.763  1.00 21.51 LIG 0.24  C 
ATOM     25  N   VAL B   4      14.919  -1.388  25.794  1.00 22.67 LIG-0.35  N 
ATOM     26 H    VAL B   4      15.273  -1.740  25.093  1.00 22.67 LIG 0.16  HD
ATOM     27 O    ALA B   3      13.265  -0.216  26.777  1.00 22.81 LIG-0.27  OA
BRANCH 25 28
ATOM     28  CA  VAL B   4      15.569  -1.760  27.053  1.00 26.45 LIG 0.18  C 
BRANCH 28 29
ATOM     29  CB  VAL B   4      16.771  -2.703  26.817  1.00 30.01 LIG 0.01  C 
ATOM     30  CG2 VAL B   4      16.292  -4.101  26.431  1.00 31.20 LIG 0.01  C 
ATOM     31  CG1 VAL B   4      17.665  -2.763  28.055  1.00 33.02 LIG 0.01  C 
ENDBRANCH 28 29
BRANCH 28 32
ATOM     32  C   VAL B   4      16.037  -0.456  27.707  1.00 25.61 LIG 0.24  C 
ATOM     33  N   ASN B   5      15.835  -0.333  29.015  1.00 29.33 LIG-0.35  N 
ATOM     34 H    ASN B   5      15.481  -0.947  29.502  1.00 29.33 LIG 0.16  HD
ATOM     35 O    VAL B   4      16.540   0.431  27.018  1.00 29.65 LIG-0.27  OA
BRANCH 33 36
ATOM     36  CA  ASN B   5      16.206   0.885  29.759  1.00 34.74 LIG 0.17  C 
BRANCH 36 37
ATOM     37  CB  ASN B   5      17.665   1.228  29.475  1.00 42.44 LIG 0.14  C 
BRANCH 37 38
ATOM     38  CG  ASN B   5      18.443   1.518  30.745  1.00 45.23 LIG 0.22  C 
ATOM     39 OD1  ASN B   5      19.166   0.666  31.235  1.00 53.97 LIG-0.27  OA
ATOM     40  ND2 ASN B   5      18.260   2.709  31.306  1.00 50.63 LIG-0.37  N 
ATOM     41 21HD ASN B   5      18.658   2.903  32.043  1.00 50.63 LIG 0.16  HD
ATOM     42 22HD ASN B   5      17.743   3.286  30.932  1.00 50.63 LIG 0.16  HD
ENDBRANCH 37 38
ENDBRANCH 36 37
BRANCH 36 43
ATOM     43  C   ASN B   5      15.309   2.066  29.429  1.00 38.04 LIG 0.22  C 
ATOM     44 O    ASN B   5      15.121   2.385  28.260  1.00 41.05 LIG-0.29  OA
ENDBRANCH 36 43
ENDBRANCH 33 36
ENDBRANCH 28 32
ENDBRANCH 25 28
ENDBRANCH 1 24
TORSDOF 16
ENDMDL
MODEL 9
USER: ADFR SOLUTION from run 179
USER: SCORE 10.827258 LL:  -3.136 LR:  -9.386 RR:   0.000 FEB:  -4.613
USER: RMSD 4.382447
USER: SEED 178
USER: STATUS no improvement in best in 14 clusters for 5 generations
USER: GENES 18
USER: genes 0 Translation |==|  0.54222 0.36730 0.45441
USER: genes 1 Rotation |==|  0.16023 0.32897 0.22060 0.66505
USER: genes 2 Torsion [CB]-CA--N-[C] |==|  0.49302
USER: genes 3 Torsion [N]-C--CA-[N] |==|  0.01298
USER: genes 4 Torsion [C]-CA--N-[C] |==|  0.70484
USER: genes 5 Torsion [N]-C--CA-[N] |==|  0.48922
USER: genes 6 Torsion [C]-CA--CB-[CG2] |==|  0.23452
USER: genes 7 Torsion [C]-CA--N-[H2] |==|  0.27523
USER: genes 8 Torsion [C]-CA--CB-[CG] |==|  0.84510
USER: genes 9 Torsion [CA]-CB--CG-[OD2] |==|  0.17796
USER: genes 10 Torsion [N]-CA--C-[N] |==|  0.54417
USER: genes 11 Torsion [C]-N--CA-[CB] |==|  0.24444
USER: genes 12 Torsion [N]-CA--CB-[CG2] |==|  0.06282
USER: genes 13 Torsion [N]-CA--C-[N] |==|  0.94527
USER: genes 14 Torsion [C]-N--CA-[CB] |==|  0.29471
USER: genes 15 Torsion [N]-CA--CB-[CG] |==|  0.76947
USER: genes 16 Torsion [CA]-CB--CG-[OD1] |==|  0.32189
USER: genes 17 Torsion [N]-CA--C-[O] |==|  0.95829
ROOT
ATOM      1  CA  ALA B   3      11.643  -2.661  25.099  1.00 18.86 LIG 0.17  C 
ATOM      2  CB  ALA B   3      12.203  -3.571  26.190  1.00 19.35 LIG 0.04  C 
ENDROOT
BRANCH 1 3
ATOM      3  N   ALA B   3      11.319  -3.459  23.925  1.00 16.29 LIG-0.35  N 
ATOM      4  C   ASP B   2      10.769  -2.943  22.835  1.00 15.20 LIG 0.24  C 
ATOM      5 O    ASP B   2      10.554  -1.727  22.702  1.00 18.35 LIG-0.27  OA
ATOM      6 H    ALA B   3      11.517  -4.293  24.005  1.00 16.29 LIG 0.16  HD
BRANCH 4 7
ATOM      7  CA  ASP B   2      10.393  -3.942  21.730  1.00 15.30 LIG 0.19  C 
BRANCH 7 8
ATOM      8  N   ASP B   2      10.624  -5.308  22.149  1.00 15.19 LIG-0.34  N 
ATOM      9  C   VAL B   1      11.637  -6.015  21.683  1.00 14.82 LIG 0.25  C 
ATOM     10 O    VAL B   1      12.410  -5.584  20.825  1.00 14.79 LIG-0.27  OA
ATOM     11 H    ASP B   2      10.050  -5.607  22.716  1.00 15.19 LIG 0.16  HD
BRANCH 9 12
ATOM     12  CA  VAL B   1      11.762  -7.441  22.210  1.00 14.89 LIG 0.28  C 
BRANCH 12 13
ATOM     13  CB  VAL B   1      11.995  -7.502  23.727  1.00 17.39 LIG 0.02  C 
ATOM     14  CG2 VAL B   1      10.735  -7.434  24.512  1.00 22.29 LIG 0.01  C 
ATOM     15  CG1 VAL B   1      12.889  -6.390  24.195  1.00 17.29 LIG 0.01  C 
ENDBRANCH 12 13
BRANCH 12 16
ATOM     16  N   VAL B   1      12.881  -8.086  21.510  1.00 15.02 LIG-0.07  N 
ATOM     17 H2   VAL B   1      13.606  -8.064  22.026  1.00 15.02 LIG 0.28  HD
ATOM     18 H3   VAL B   1      12.671  -8.932  21.330  1.00 15.02 LIG 0.28  HD
ATOM     19 H1   VAL B   1      13.046  -7.653  20.750  1.00 15.02 LIG 0.28  HD
ENDBRANCH 12 16
ENDBRANCH 9 12
ENDBRANCH 7 8
BRANCH 7 20
ATOM     20  CB  ASP B   2       8.950  -3.760  21.254  1.00 16.98 LIG 0.15  C 
BRANCH 20 21
ATOM     21  CG  ASP B   2       7.941  -3.850  22.377  1.00 17.41 LIG 0.17  C 
ATOM     22 OD1  ASP B   2       7.094  -4.789  22.339  1.00 15.73 LIG-0.65  OA
ATOM     23 OD2  ASP B   2       7.979  -2.970  23.290  1.00 22.30 LIG-0.65  OA
ENDBRANCH 20 21
ENDBRANCH 7 20
ENDBRANCH 4 7
ENDBRANCH 1 3
BRANCH 1 24
ATOM     24  C   ALA B   3      12.644  -1.557  24.754  1.00 21.51 LIG 0.24  C 
ATOM     25  N   VAL B   4      13.259  -0.981  25.782  1.00 22.67 LIG-0.35  N 
ATOM     26 H    VAL B   4      13.037  -1.104  26.603  1.00 22.67 LIG 0.16  HD
ATOM     27 O    ALA B   3      12.852  -1.239  23.581  1.00 22.81 LIG-0.27  OA
BRANCH 25 28
ATOM     28  CA  VAL B   4      14.390  -0.070  25.590  1.00 26.45 LIG 0.18  C 
BRANCH 28 29
ATOM     29  CB  VAL B   4      13.920   1.389  25.387  1.00 30.01 LIG 0.01  C 
ATOM     30  CG2 VAL B   4      12.525   1.592  25.976  1.00 31.20 LIG 0.01  C 
ATOM     31  CG1 VAL B   4      13.940   1.764  23.907  1.00 33.02 LIG 0.01  C 
ENDBRANCH 28 29
BRANCH 28 32
ATOM     32  C   VAL B   4      15.258  -0.179  26.848  1.00 25.61 LIG 0.24  C 
ATOM     33  N   ASN B   5      14.679  -0.674  27.937  1.00 29.33 LIG-0.35  N 
ATOM     34 H    ASN B   5      13.864  -0.949  27.960  1.00 29.33 LIG 0.16  HD
ATOM     35 O    VAL B   4      16.424   0.216  26.826  1.00 29.65 LIG-0.27  OA
BRANCH 33 36
ATOM     36  CA  ASN B   5      15.392  -0.800  29.221  1.00 34.74 LIG 0.17  C 
BRANCH 36 37
ATOM     37  CB  ASN B   5      14.892   0.271  30.186  1.00 42.44 LIG 0.14  C 
BRANCH 37 38
ATOM     38  CG  ASN B   5      15.582   1.605  29.966  1.00 45.23 LIG 0.22  C 
ATOM     39 OD1  ASN B   5      14.943   2.577  29.597  1.00 53.97 LIG-0.27  OA
ATOM     40  ND2 ASN B   5      16.898   1.642  30.149  1.00 50.63 LIG-0.37  N 
ATOM     41 21HD ASN B   5      17.332   2.370  30.006  1.00 50.63 LIG 0.16  HD
ATOM     42 22HD ASN B   5      17.316   0.937  30.410  1.00 50.63 LIG 0.16  HD
ENDBRANCH 37 38
ENDBRANCH 36 37
BRANCH 36 43
ATOM     43  C   ASN B   5      15.244  -2.181  29.838  1.00 38.04 LIG 0.22  C 
ATOM     44 O    ASN B   5      14.379  -2.947  29.425  1.00 41.05 LIG-0.29  OA
ENDBRANCH 36 43
ENDBRANCH 33 36
ENDBRANCH 28 32
ENDBRANCH 25 28
ENDBRANCH 1 24
TORSDOF 16
ENDMDL
MODEL 10
USER: ADFR SOLUTION from run 139
USER: SCORE 10.743658 LL:  -2.762 LR:  -9.200 RR:   0.000 FEB:  -4.427
USER: RMSD 2.364363
USER: SEED 138
USER: STATUS no improvement in best in 6 clusters for 5 generations
USER: GENES 18
USER: genes 0 Translation |==|  0.60879 0.48417 0.41963
USER: genes 1 Rotation |==|  0.45665 0.54230 0.55154 0.99364
USER: genes 2 Torsion [CB]-CA--N-[C] |==|  0.51126
USER: genes 3 Torsion [N]-C--CA-[N] |==|  0.25299
USER: genes 4 Torsion [C]-CA--N-[C] |==|  0.78816
USER: genes 5 Torsion [N]-C--CA-[N] |==|  0.36470
USER: genes 6 Torsion [C]-CA--CB-[CG2] |==|  0.48701
USER: genes 7 Torsion [C]-CA--N-[H2] |==|  0.03005
USER: genes 8 Torsion [C]-CA--CB-[CG] |==|  0.32355
USER: genes 9 Torsion [CA]-CB--CG-[OD2] |==|  0.40503
USER: genes 10 Torsion [N]-CA--C-[N] |==|  0.43612
USER: genes 11 Torsion [C]-N--CA-[CB] |==|  0.51786
USER: genes 12 Torsion [N]-CA--CB-[CG2] |==|  0.39627
USER: genes 13 Torsion [N]-CA--C-[N] |==|  0.36489
USER: genes 14 Torsion [C]-N--CA-[CB] |==|  0.32212
USER: genes 15 Torsion [N]-CA--CB-[CG] |==|  0.76888
USER: genes 16 Torsion [CA]-CB--CG-[OD1] |==|  0.11134
USER: genes 17 Torsion [N]-CA--C-[O] |==|  0.35095
ROOT
ATOM      1  CA  ALA B   3      12.792  -0.557  24.368  1.00 18.86 LIG 0.17  C 
ATOM      2  CB  ALA B   3      13.532   0.386  23.422  1.00 19.35 LIG 0.04  C 
ENDROOT
BRANCH 1 3
ATOM      3  N   ALA B   3      11.407  -0.685  23.934  1.00 16.29 LIG-0.35  N 
ATOM      4  C   ASP B   2      10.504  -1.380  24.611  1.00 15.20 LIG 0.24  C 
ATOM      5 O    ASP B   2      10.750  -1.915  25.705  1.00 18.35 LIG-0.27  OA
ATOM      6 H    ALA B   3      11.232  -0.270  23.201  1.00 16.29 LIG 0.16  HD
BRANCH 4 7
ATOM      7  CA  ASP B   2       9.119  -1.502  23.959  1.00 15.30 LIG 0.19  C 
BRANCH 7 8
ATOM      8  N   ASP B   2       9.026  -2.682  23.126  1.00 15.19 LIG-0.34  N 
ATOM      9  C   VAL B   1       9.586  -2.733  21.931  1.00 14.82 LIG 0.25  C 
ATOM     10 O    VAL B   1      10.165  -1.769  21.426  1.00 14.79 LIG-0.27  OA
ATOM     11 H    ASP B   2       8.582  -3.330  23.476  1.00 15.19 LIG 0.16  HD
BRANCH 9 12
ATOM     12  CA  VAL B   1       9.411  -4.038  21.161  1.00 14.89 LIG 0.28  C 
BRANCH 12 13
ATOM     13  CB  VAL B   1      10.699  -4.872  21.093  1.00 17.39 LIG 0.02  C 
ATOM     14  CG2 VAL B   1      10.503  -6.192  20.440  1.00 22.29 LIG 0.01  C 
ATOM     15  CG1 VAL B   1      11.274  -5.114  22.459  1.00 17.29 LIG 0.01  C 
ENDBRANCH 12 13
BRANCH 12 16
ATOM     16  N   VAL B   1       8.963  -3.705  19.802  1.00 15.02 LIG-0.07  N 
ATOM     17 H2   VAL B   1       9.040  -2.829  19.670  1.00 15.02 LIG 0.28  HD
ATOM     18 H3   VAL B   1       9.465  -4.139  19.209  1.00 15.02 LIG 0.28  HD
ATOM     19 H1   VAL B   1       8.111  -3.946  19.702  1.00 15.02 LIG 0.28  HD
ENDBRANCH 12 16
ENDBRANCH 9 12
ENDBRANCH 7 8
BRANCH 7 20
ATOM     20  CB  ASP B   2       7.991  -1.483  24.995  1.00 16.98 LIG 0.15  C 
BRANCH 20 21
ATOM     21  CG  ASP B   2       7.072  -0.292  24.846  1.00 17.41 LIG 0.17  C 
ATOM     22 OD1  ASP B   2       7.581   0.807  24.480  1.00 15.73 LIG-0.65  OA
ATOM     23 OD2  ASP B   2       5.842  -0.446  25.114  1.00 22.30 LIG-0.65  OA
ENDBRANCH 20 21
ENDBRANCH 7 20
ENDBRANCH 4 7
ENDBRANCH 1 3
BRANCH 1 24
ATOM     24  C   ALA B   3      12.872  -0.048  25.807  1.00 21.51 LIG 0.24  C 
ATOM     25  N   VAL B   4      13.991  -0.328  26.467  1.00 22.67 LIG-0.35  N 
ATOM     26 H    VAL B   4      14.594  -0.871  26.180  1.00 22.67 LIG 0.16  HD
ATOM     27 O    ALA B   3      11.940   0.588  26.304  1.00 22.81 LIG-0.27  OA
BRANCH 25 28
ATOM     28  CA  VAL B   4      14.292   0.278  27.767  1.00 26.45 LIG 0.18  C 
BRANCH 28 29
ATOM     29  CB  VAL B   4      15.716  -0.084  28.249  1.00 30.01 LIG 0.01  C 
ATOM     30  CG2 VAL B   4      16.362   1.103  28.960  1.00 31.20 LIG 0.01  C 
ATOM     31  CG1 VAL B   4      16.582  -0.549  27.081  1.00 33.02 LIG 0.01  C 
ENDBRANCH 28 29
BRANCH 28 32
ATOM     32  C   VAL B   4      14.162   1.794  27.583  1.00 25.61 LIG 0.24  C 
ATOM     33  N   ASN B   5      13.438   2.449  28.485  1.00 29.33 LIG-0.35  N 
ATOM     34 H    ASN B   5      13.066   2.071  29.163  1.00 29.33 LIG 0.16  HD
ATOM     35 O    VAL B   4      14.687   2.343  26.615  1.00 29.65 LIG-0.27  OA
BRANCH 33 36
ATOM     36  CA  ASN B   5      13.206   3.903  28.405  1.00 34.74 LIG 0.17  C 
BRANCH 36 37
ATOM     37  CB  ASN B   5      11.717   4.168  28.202  1.00 42.44 LIG 0.14  C 
BRANCH 37 38
ATOM     38  CG  ASN B   5      11.310   4.056  26.745  1.00 45.23 LIG 0.22  C 
ATOM     39 OD1  ASN B   5      11.774   3.175  26.039  1.00 53.97 LIG-0.27  OA
ATOM     40  ND2 ASN B   5      10.473   4.978  26.280  1.00 50.63 LIG-0.37  N 
ATOM     41 21HD ASN B   5      10.240   4.969  25.452  1.00 50.63 LIG 0.16  HD
ATOM     42 22HD ASN B   5      10.165   5.584  26.806  1.00 50.63 LIG 0.16  HD
ENDBRANCH 37 38
ENDBRANCH 36 37
BRANCH 36 43
ATOM     43  C   ASN B   5      13.715   4.643  29.630  1.00 38.04 LIG 0.22  C 
ATOM     44 O    ASN B   5      14.487   5.588  29.498  1.00 41.05 LIG-0.29  OA
ENDBRANCH 36 43
ENDBRANCH 33 36
ENDBRANCH 28 32
ENDBRANCH 25 28
ENDBRANCH 1 24
TORSDOF 16
ENDMDL
MODEL 11
USER: ADFR SOLUTION from run 10
USER: SCORE 10.204524 LL:  -2.629 LR:  -9.173 RR:   0.000 FEB:  -4.400
USER: RMSD 3.434200
USER: SEED 231966
USER: STATUS no improvement in best in 26 clusters for 5 generations
USER: GENES 18
USER: genes 0 Translation |==|  0.57494 0.52611 0.46064
USER: genes 1 Rotation |==|  0.29576 0.53130 0.47370 0.95455
USER: genes 2 Torsion [CB]-CA--N-[C] |==|  0.24046
USER: genes 3 Torsion [N]-C--CA-[N] |==|  0.42551
USER: genes 4 Torsion [C]-CA--N-[C] |==|  0.81643
USER: genes 5 Torsion [N]-C--CA-[N] |==|  0.39335
USER: genes 6 Torsion [C]-CA--CB-[CG2] |==|  0.17851
USER: genes 7 Torsion [C]-CA--N-[H2] |==|  0.29441
USER: genes 8 Torsion [C]-CA--CB-[CG] |==|  0.19458
USER: genes 9 Torsion [CA]-CB--CG-[OD2] |==|  0.26931
USER: genes 10 Torsion [N]-CA--C-[N] |==|  0.43074
USER: genes 11 Torsion [C]-N--CA-[CB] |==|  0.52222
USER: genes 12 Torsion [N]-CA--CB-[CG2] |==|  0.96655
USER: genes 13 Torsion [N]-CA--C-[N] |==|  0.41409
USER: genes 14 Torsion [C]-N--CA-[CB] |==|  0.51147
USER: genes 15 Torsion [N]-CA--CB-[CG] |==|  0.87463
USER: genes 16 Torsion [CA]-CB--CG-[OD1] |==|  0.28009
USER: genes 17 Torsion [N]-CA--C-[O] |==|  0.72435
ROOT
ATOM      1  CA  ALA B   3      12.208   0.198  25.229  1.00 18.86 LIG 0.17  C 
ATOM      2  CB  ALA B   3      13.201   0.168  24.070  1.00 19.35 LIG 0.04  C 
ENDROOT
BRANCH 1 3
ATOM      3  N   ALA B   3      10.854   0.068  24.707  1.00 16.29 LIG-0.35  N 
ATOM      4  C   ASP B   2      10.284  -1.106  24.478  1.00 15.20 LIG 0.24  C 
ATOM      5 O    ASP B   2      10.831  -2.186  24.759  1.00 18.35 LIG-0.27  OA
ATOM      6 H    ALA B   3      10.463   0.820  24.562  1.00 16.29 LIG 0.16  HD
BRANCH 4 7
ATOM      7  CA  ASP B   2       8.893  -1.065  23.827  1.00 15.30 LIG 0.19  C 
BRANCH 7 8
ATOM      8  N   ASP B   2       8.625  -2.269  23.070  1.00 15.19 LIG-0.34  N 
ATOM      9  C   VAL B   1       9.312  -2.572  21.983  1.00 14.82 LIG 0.25  C 
ATOM     10 O    VAL B   1      10.175  -1.829  21.513  1.00 14.79 LIG-0.27  OA
ATOM     11 H    ASP B   2       7.991  -2.755  23.389  1.00 15.19 LIG 0.16  HD
BRANCH 9 12
ATOM     12  CA  VAL B   1       8.925  -3.872  21.284  1.00 14.89 LIG 0.28  C 
BRANCH 12 13
ATOM     13  CB  VAL B   1       9.824  -5.055  21.676  1.00 17.39 LIG 0.02  C 
ATOM     14  CG2 VAL B   1       9.712  -5.419  23.112  1.00 22.29 LIG 0.01  C 
ATOM     15  CG1 VAL B   1      11.269  -4.772  21.384  1.00 17.29 LIG 0.01  C 
ENDBRANCH 12 13
BRANCH 12 16
ATOM     16  N   VAL B   1       9.005  -3.647  19.835  1.00 15.02 LIG-0.07  N 
ATOM     17 H2   VAL B   1       9.728  -4.053  19.511  1.00 15.02 LIG 0.28  HD
ATOM     18 H3   VAL B   1       8.279  -3.978  19.442  1.00 15.02 LIG 0.28  HD
ATOM     19 H1   VAL B   1       9.058  -2.773  19.672  1.00 15.02 LIG 0.28  HD
ENDBRANCH 12 16
ENDBRANCH 9 12
ENDBRANCH 7 8
BRANCH 7 20
ATOM     20  CB  ASP B   2       7.784  -0.814  24.852  1.00 16.98 LIG 0.15  C 
BRANCH 20 21
ATOM     21  CG  ASP B   2       7.803   0.590  25.412  1.00 17.41 LIG 0.17  C 
ATOM     22 OD1  ASP B   2       8.579   0.830  26.382  1.00 15.73 LIG-0.65  OA
ATOM     23 OD2  ASP B   2       7.027   1.451  24.898  1.00 22.30 LIG-0.65  OA
ENDBRANCH 20 21
ENDBRANCH 7 20
ENDBRANCH 4 7
ENDBRANCH 1 3
BRANCH 1 24
ATOM     24  C   ALA B   3      12.364   1.486  26.038  1.00 21.51 LIG 0.24  C 
ATOM     25  N   VAL B   4      13.321   1.487  26.960  1.00 22.67 LIG-0.35  N 
ATOM     26 H    VAL B   4      13.754   0.785  27.203  1.00 22.67 LIG 0.16  HD
ATOM     27 O    ALA B   3      11.633   2.456  25.826  1.00 22.81 LIG-0.27  OA
BRANCH 25 28
ATOM     28  CA  VAL B   4      13.723   2.715  27.652  1.00 26.45 LIG 0.18  C 
BRANCH 28 29
ATOM     29  CB  VAL B   4      14.979   2.493  28.525  1.00 30.01 LIG 0.01  C 
ATOM     30  CG2 VAL B   4      15.282   1.002  28.664  1.00 31.20 LIG 0.01  C 
ATOM     31  CG1 VAL B   4      14.806   3.137  29.899  1.00 33.02 LIG 0.01  C 
ENDBRANCH 28 29
BRANCH 28 32
ATOM     32  C   VAL B   4      14.007   3.757  26.565  1.00 25.61 LIG 0.24  C 
ATOM     33  N   ASN B   5      13.772   5.028  26.875  1.00 29.33 LIG-0.35  N 
ATOM     34 H    ASN B   5      13.493   5.286  27.646  1.00 29.33 LIG 0.16  HD
ATOM     35 O    VAL B   4      14.402   3.396  25.457  1.00 29.65 LIG-0.27  OA
BRANCH 33 36
ATOM     36  CA  ASN B   5      13.971   6.124  25.909  1.00 34.74 LIG 0.17  C 
BRANCH 36 37
ATOM     37  CB  ASN B   5      13.714   7.461  26.599  1.00 42.44 LIG 0.14  C 
BRANCH 37 38
ATOM     38  CG  ASN B   5      12.456   7.434  27.447  1.00 45.23 LIG 0.22  C 
ATOM     39 OD1  ASN B   5      12.529   7.298  28.657  1.00 53.97 LIG-0.27  OA
ATOM     40  ND2 ASN B   5      11.294   7.517  26.806  1.00 50.63 LIG-0.37  N 
ATOM     41 21HD ASN B   5      10.557   7.476  27.246  1.00 50.63 LIG 0.16  HD
ATOM     42 22HD ASN B   5      11.280   7.613  25.951  1.00 50.63 LIG 0.16  HD
ENDBRANCH 37 38
ENDBRANCH 36 37
BRANCH 36 43
ATOM     43  C   ASN B   5      15.356   6.107  25.284  1.00 38.04 LIG 0.22  C 
ATOM     44 O    ASN B   5      16.231   6.853  25.712  1.00 41.05 LIG-0.29  OA
ENDBRANCH 36 43
ENDBRANCH 33 36
ENDBRANCH 28 32
ENDBRANCH 25 28
ENDBRANCH 1 24
TORSDOF 16
ENDMDL
MODEL 12
USER: ADFR SOLUTION from run 157
USER: SCORE 10.462609 LL:  -3.114 LR:  -9.129 RR:   0.000 FEB:  -4.356
USER: RMSD 4.530965
USER: SEED 156
USER: STATUS no improvement in best in 10 clusters for 5 generations
USER: GENES 18
USER: genes 0 Translation |==|  0.59701 0.47169 0.43516
USER: genes 1 Rotation |==|  0.69937 0.50439 0.59710 0.94811
USER: genes 2 Torsion [CB]-CA--N-[C] |==|  0.53343
USER: genes 3 Torsion [N]-C--CA-[N] |==|  0.40118
USER: genes 4 Torsion [C]-CA--N-[C] |==|  0.83207
USER: genes 5 Torsion [N]-C--CA-[N] |==|  0.39129
USER: genes 6 Torsion [C]-CA--CB-[CG2] |==|  0.92138
USER: genes 7 Torsion [C]-CA--N-[H2] |==|  0.95374
USER: genes 8 Torsion [C]-CA--CB-[CG] |==|  0.28819
USER: genes 9 Torsion [CA]-CB--CG-[OD2] |==|  0.29199
USER: genes 10 Torsion [N]-CA--C-[N] |==|  0.27294
USER: genes 11 Torsion [C]-N--CA-[CB] |==|  0.51678
USER: genes 12 Torsion [N]-CA--CB-[CG2] |==|  0.82399
USER: genes 13 Torsion [N]-CA--C-[N] |==|  0.86407
USER: genes 14 Torsion [C]-N--CA-[CB] |==|  0.31099
USER: genes 15 Torsion [N]-CA--CB-[CG] |==|  0.10127
USER: genes 16 Torsion [CA]-CB--CG-[OD1] |==|  0.18378
USER: genes 17 Torsion [N]-CA--C-[O] |==|  0.86892
ROOT
ATOM      1  CA  ALA B   3      12.588  -0.782  24.694  1.00 18.86 LIG 0.17  C 
ATOM      2  CB  ALA B   3      13.163   0.587  25.054  1.00 19.35 LIG 0.04  C 
ENDROOT
BRANCH 1 3
ATOM      3  N   ALA B   3      11.211  -0.623  24.248  1.00 16.29 LIG-0.35  N 
ATOM      4  C   ASP B   2      10.385  -1.648  24.091  1.00 15.20 LIG 0.24  C 
ATOM      5 O    ASP B   2      10.699  -2.814  24.383  1.00 18.35 LIG-0.27  OA
ATOM      6 H    ALA B   3      10.986   0.193  24.096  1.00 16.29 LIG 0.16  HD
BRANCH 4 7
ATOM      7  CA  ASP B   2       9.002  -1.317  23.512  1.00 15.30 LIG 0.19  C 
BRANCH 7 8
ATOM      8  N   ASP B   2       8.523  -2.373  22.645  1.00 15.19 LIG-0.34  N 
ATOM      9  C   VAL B   1       9.182  -2.731  21.558  1.00 14.82 LIG 0.25  C 
ATOM     10 O    VAL B   1      10.204  -2.156  21.181  1.00 14.79 LIG-0.27  OA
ATOM     11 H    ASP B   2       7.785  -2.735  22.901  1.00 15.19 LIG 0.16  HD
BRANCH 9 12
ATOM     12  CA  VAL B   1       8.564  -3.858  20.738  1.00 14.89 LIG 0.28  C 
BRANCH 12 13
ATOM     13  CB  VAL B   1       9.185  -5.231  21.040  1.00 17.39 LIG 0.02  C 
ATOM     14  CG2 VAL B   1      10.597  -5.144  21.494  1.00 22.29 LIG 0.01  C 
ATOM     15  CG1 VAL B   1       9.140  -6.134  19.842  1.00 17.29 LIG 0.01  C 
ENDBRANCH 12 13
BRANCH 12 16
ATOM     16  N   VAL B   1       8.745  -3.535  19.316  1.00 15.02 LIG-0.07  N 
ATOM     17 H2   VAL B   1       8.945  -2.672  19.231  1.00 15.02 LIG 0.28  HD
ATOM     18 H3   VAL B   1       9.407  -4.027  18.981  1.00 15.02 LIG 0.28  HD
ATOM     19 H1   VAL B   1       7.992  -3.710  18.873  1.00 15.02 LIG 0.28  HD
ENDBRANCH 12 16
ENDBRANCH 9 12
ENDBRANCH 7 8
BRANCH 7 20
ATOM     20  CB  ASP B   2       7.976  -1.011  24.606  1.00 16.98 LIG 0.15  C 
BRANCH 20 21
ATOM     21  CG  ASP B   2       7.683   0.466  24.746  1.00 17.41 LIG 0.17  C 
ATOM     22 OD1  ASP B   2       8.545   1.188  25.325  1.00 15.73 LIG-0.65  OA
ATOM     23 OD2  ASP B   2       6.582   0.904  24.295  1.00 22.30 LIG-0.65  OA
ENDBRANCH 20 21
ENDBRANCH 7 20
ENDBRANCH 4 7
ENDBRANCH 1 3
BRANCH 1 24
ATOM     24  C   ALA B   3      12.674  -1.732  25.889  1.00 21.51 LIG 0.24  C 
ATOM     25  N   VAL B   4      13.011  -2.988  25.616  1.00 22.67 LIG-0.35  N 
ATOM     26 H    VAL B   4      13.055  -3.310  24.820  1.00 22.67 LIG 0.16  HD
ATOM     27 O    ALA B   3      12.442  -1.331  27.032  1.00 22.81 LIG-0.27  OA
BRANCH 25 28
ATOM     28  CA  VAL B   4      13.340  -3.945  26.676  1.00 26.45 LIG 0.18  C 
BRANCH 28 29
ATOM     29  CB  VAL B   4      13.840  -5.288  26.096  1.00 30.01 LIG 0.01  C 
ATOM     30  CG2 VAL B   4      12.742  -5.965  25.278  1.00 31.20 LIG 0.01  C 
ATOM     31  CG1 VAL B   4      14.328  -6.212  27.210  1.00 33.02 LIG 0.01  C 
ENDBRANCH 28 29
BRANCH 28 32
ATOM     32  C   VAL B   4      14.433  -3.294  27.530  1.00 25.61 LIG 0.24  C 
ATOM     33  N   ASN B   5      15.471  -2.773  26.883  1.00 29.33 LIG-0.35  N 
ATOM     34 H    ASN B   5      15.544  -2.768  26.026  1.00 29.33 LIG 0.16  HD
ATOM     35 O    VAL B   4      14.339  -3.301  28.757  1.00 29.65 LIG-0.27  OA
BRANCH 33 36
ATOM     36  CA  ASN B   5      16.606  -2.148  27.587  1.00 34.74 LIG 0.17  C 
BRANCH 36 37
ATOM     37  CB  ASN B   5      17.852  -3.009  27.403  1.00 42.44 LIG 0.14  C 
BRANCH 37 38
ATOM     38  CG  ASN B   5      17.916  -3.636  26.023  1.00 45.23 LIG 0.22  C 
ATOM     39 OD1  ASN B   5      18.055  -2.937  25.033  1.00 53.97 LIG-0.27  OA
ATOM     40  ND2 ASN B   5      17.767  -4.955  25.952  1.00 50.63 LIG-0.37  N 
ATOM     41 21HD ASN B   5      17.767  -5.347  25.187  1.00 50.63 LIG 0.16  HD
ATOM     42 22HD ASN B   5      17.671  -5.417  26.672  1.00 50.63 LIG 0.16  HD
ENDBRANCH 37 38
ENDBRANCH 36 37
BRANCH 36 43
ATOM     43  C   ASN B   5      16.869  -0.726  27.123  1.00 38.04 LIG 0.22  C 
ATOM     44 O    ASN B   5      16.912  -0.471  25.924  1.00 41.05 LIG-0.29  OA
ENDBRANCH 36 43
ENDBRANCH 33 36
ENDBRANCH 28 32
ENDBRANCH 25 28
ENDBRANCH 1 24
TORSDOF 16
ENDMDL
MODEL 13
USER: ADFR SOLUTION from run 57
USER: SCORE 9.731138 LL:  -3.240 LR:  -9.123 RR:   0.000 FEB:  -4.350
USER: RMSD 4.161301
USER: SEED 56
USER: STATUS no improvement in best in 13 clusters for 5 generations
USER: GENES 18
USER: genes 0 Translation |==|  0.66095 0.51578 0.40497
USER: genes 1 Rotation |==|  0.43779 0.53049 0.66890 0.96548
USER: genes 2 Torsion [CB]-CA--N-[C] |==|  0.44301
USER: genes 3 Torsion [N]-C--CA-[N] |==|  0.43668
USER: genes 4 Torsion [C]-CA--N-[C] |==|  0.70367
USER: genes 5 Torsion [N]-C--CA-[N] |==|  0.61158
USER: genes 6 Torsion [C]-CA--CB-[CG2] |==|  0.82781
USER: genes 7 Torsion [C]-CA--N-[H2] |==|  0.97863
USER: genes 8 Torsion [C]-CA--CB-[CG] |==|  0.23443
USER: genes 9 Torsion [CA]-CB--CG-[OD2] |==|  0.05438
USER: genes 10 Torsion [N]-CA--C-[N] |==|  0.63544
USER: genes 11 Torsion [C]-N--CA-[CB] |==|  0.81111
USER: genes 12 Torsion [N]-CA--CB-[CG2] |==|  0.94198
USER: genes 13 Torsion [N]-CA--C-[N] |==|  0.11215
USER: genes 14 Torsion [C]-N--CA-[CB] |==|  0.42072
USER: genes 15 Torsion [N]-CA--CB-[CG] |==|  0.93929
USER: genes 16 Torsion [CA]-CB--CG-[OD1] |==|  0.24274
USER: genes 17 Torsion [N]-CA--C-[O] |==|  0.76161
ROOT
ATOM      1  CA  ALA B   3      13.691   0.012  24.060  1.00 18.86 LIG 0.17  C 
ATOM      2  CB  ALA B   3      13.913   1.157  23.074  1.00 19.35 LIG 0.04  C 
ENDROOT
BRANCH 1 3
ATOM      3  N   ALA B   3      12.537  -0.769  23.640  1.00 16.29 LIG-0.35  N 
ATOM      4  C   ASP B   2      12.330  -2.016  24.039  1.00 15.20 LIG 0.24  C 
ATOM      5 O    ASP B   2      13.065  -2.590  24.859  1.00 18.35 LIG-0.27  OA
ATOM      6 H    ALA B   3      12.005  -0.348  23.111  1.00 16.29 LIG 0.16  HD
BRANCH 4 7
ATOM      7  CA  ASP B   2      11.121  -2.732  23.417  1.00 15.30 LIG 0.19  C 
BRANCH 7 8
ATOM      8  N   ASP B   2      11.268  -4.170  23.476  1.00 15.19 LIG-0.34  N 
ATOM      9  C   VAL B   1      11.540  -4.885  22.399  1.00 14.82 LIG 0.25  C 
ATOM     10 O    VAL B   1      11.625  -4.388  21.275  1.00 14.79 LIG-0.27  OA
ATOM     11 H    ASP B   2      11.163  -4.506  24.261  1.00 15.19 LIG 0.16  HD
BRANCH 9 12
ATOM     12  CA  VAL B   1      11.669  -6.391  22.606  1.00 14.89 LIG 0.28  C 
BRANCH 12 13
ATOM     13  CB  VAL B   1      11.902  -6.778  24.074  1.00 17.39 LIG 0.02  C 
ATOM     14  CG2 VAL B   1      13.165  -6.225  24.628  1.00 22.29 LIG 0.01  C 
ATOM     15  CG1 VAL B   1      11.932  -8.268  24.256  1.00 17.29 LIG 0.01  C 
ENDBRANCH 12 13
BRANCH 12 16
ATOM     16  N   VAL B   1      12.790  -6.866  21.784  1.00 15.02 LIG-0.07  N 
ATOM     17 H2   VAL B   1      13.078  -6.204  21.263  1.00 15.02 LIG 0.28  HD
ATOM     18 H3   VAL B   1      13.453  -7.136  22.313  1.00 15.02 LIG 0.28  HD
ATOM     19 H1   VAL B   1      12.520  -7.546  21.277  1.00 15.02 LIG 0.28  HD
ENDBRANCH 12 16
ENDBRANCH 9 12
ENDBRANCH 7 8
BRANCH 7 20
ATOM     20  CB  ASP B   2       9.801  -2.298  24.059  1.00 16.98 LIG 0.15  C 
BRANCH 20 21
ATOM     21  CG  ASP B   2       9.238  -1.031  23.455  1.00 17.41 LIG 0.17  C 
ATOM     22 OD1  ASP B   2       8.372  -0.392  24.119  1.00 15.73 LIG-0.65  OA
ATOM     23 OD2  ASP B   2       9.646  -0.682  22.306  1.00 22.30 LIG-0.65  OA
ENDBRANCH 20 21
ENDBRANCH 7 20
ENDBRANCH 4 7
ENDBRANCH 1 3
BRANCH 1 24
ATOM     24  C   ALA B   3      13.503   0.553  25.478  1.00 21.51 LIG 0.24  C 
ATOM     25  N   VAL B   4      13.756   1.846  25.651  1.00 22.67 LIG-0.35  N 
ATOM     26 H    VAL B   4      14.129   2.345  25.058  1.00 22.67 LIG 0.16  HD
ATOM     27 O    ALA B   3      13.134  -0.188  26.392  1.00 22.81 LIG-0.27  OA
BRANCH 25 28
ATOM     28  CA  VAL B   4      13.412   2.539  26.895  1.00 26.45 LIG 0.18  C 
BRANCH 28 29
ATOM     29  CB  VAL B   4      11.881   2.652  27.080  1.00 30.01 LIG 0.01  C 
ATOM     30  CG2 VAL B   4      11.164   2.496  25.741  1.00 31.20 LIG 0.01  C 
ATOM     31  CG1 VAL B   4      11.511   3.979  27.739  1.00 33.02 LIG 0.01  C 
ENDBRANCH 28 29
BRANCH 28 32
ATOM     32  C   VAL B   4      14.027   1.722  28.036  1.00 25.61 LIG 0.24  C 
ATOM     33  N   ASN B   5      15.243   1.226  27.833  1.00 29.33 LIG-0.35  N 
ATOM     34 H    ASN B   5      15.697   1.357  27.114  1.00 29.33 LIG 0.16  HD
ATOM     35 O    VAL B   4      13.384   1.524  29.067  1.00 29.65 LIG-0.27  OA
BRANCH 33 36
ATOM     36  CA  ASN B   5      15.933   0.394  28.835  1.00 34.74 LIG 0.17  C 
BRANCH 36 37
ATOM     37  CB  ASN B   5      16.888  -0.564  28.129  1.00 42.44 LIG 0.14  C 
BRANCH 37 38
ATOM     38  CG  ASN B   5      16.504  -0.788  26.678  1.00 45.23 LIG 0.22  C 
ATOM     39 OD1  ASN B   5      16.915  -0.038  25.808  1.00 53.97 LIG-0.27  OA
ATOM     40  ND2 ASN B   5      15.677  -1.796  26.421  1.00 50.63 LIG-0.37  N 
ATOM     41 21HD ASN B   5      15.411  -1.939  25.616  1.00 50.63 LIG 0.16  HD
ATOM     42 22HD ASN B   5      15.408  -2.305  27.060  1.00 50.63 LIG 0.16  HD
ENDBRANCH 37 38
ENDBRANCH 36 37
BRANCH 36 43
ATOM     43  C   ASN B   5      16.679   1.222  29.867  1.00 38.04 LIG 0.22  C 
ATOM     44 O    ASN B   5      17.823   1.603  29.637  1.00 41.05 LIG-0.29  OA
ENDBRANCH 36 43
ENDBRANCH 33 36
ENDBRANCH 28 32
ENDBRANCH 25 28
ENDBRANCH 1 24
TORSDOF 16
ENDMDL
MODEL 14
USER: ADFR SOLUTION from run 173
USER: SCORE 11.043608 LL:  -2.982 LR:  -9.062 RR:   0.000 FEB:  -4.289
USER: RMSD 4.059956
USER: SEED 172
USER: STATUS no improvement in best in 22 clusters for 5 generations
USER: GENES 18
USER: genes 0 Translation |==|  0.61629 0.45561 0.42014
USER: genes 1 Rotation |==|  0.45282 0.43300 0.70362 0.94925
USER: genes 2 Torsion [CB]-CA--N-[C] |==|  0.51767
USER: genes 3 Torsion [N]-C--CA-[N] |==|  0.41143
USER: genes 4 Torsion [C]-CA--N-[C] |==|  0.68661
USER: genes 5 Torsion [N]-C--CA-[N] |==|  0.55062
USER: genes 6 Torsion [C]-CA--CB-[CG2] |==|  0.86370
USER: genes 7 Torsion [C]-CA--N-[H2] |==|  0.89757
USER: genes 8 Torsion [C]-CA--CB-[CG] |==|  0.10163
USER: genes 9 Torsion [CA]-CB--CG-[OD2] |==|  0.15124
USER: genes 10 Torsion [N]-CA--C-[N] |==|  0.37016
USER: genes 11 Torsion [C]-N--CA-[CB] |==|  0.22093
USER: genes 12 Torsion [N]-CA--CB-[CG2] |==|  0.53124
USER: genes 13 Torsion [N]-CA--C-[N] |==|  0.02635
USER: genes 14 Torsion [C]-N--CA-[CB] |==|  0.42824
USER: genes 15 Torsion [N]-CA--CB-[CG] |==|  0.05621
USER: genes 16 Torsion [CA]-CB--CG-[OD1] |==|  0.19267
USER: genes 17 Torsion [N]-CA--C-[O] |==|  0.95961
ROOT
ATOM      1  CA  ALA B   3      12.921  -1.071  24.379  1.00 18.86 LIG 0.17  C 
ATOM      2  CB  ALA B   3      13.165   0.280  23.709  1.00 19.35 LIG 0.04  C 
ENDROOT
BRANCH 1 3
ATOM      3  N   ALA B   3      12.146  -1.919  23.484  1.00 16.29 LIG-0.35  N 
ATOM      4  C   ASP B   2      11.679  -3.106  23.846  1.00 15.20 LIG 0.24  C 
ATOM      5 O    ASP B   2      11.803  -3.554  24.997  1.00 18.35 LIG-0.27  OA
ATOM      6 H    ALA B   3      12.022  -1.580  22.703  1.00 16.29 LIG 0.16  HD
BRANCH 4 7
ATOM      7  CA  ASP B   2      10.974  -3.917  22.748  1.00 15.30 LIG 0.19  C 
BRANCH 7 8
ATOM      8  N   ASP B   2      11.158  -5.339  22.937  1.00 15.19 LIG-0.34  N 
ATOM      9  C   VAL B   1      11.869  -6.065  22.093  1.00 14.82 LIG 0.25  C 
ATOM     10 O    VAL B   1      12.365  -5.596  21.067  1.00 14.79 LIG-0.27  OA
ATOM     11 H    ASP B   2      10.769  -5.658  23.635  1.00 15.19 LIG 0.16  HD
BRANCH 9 12
ATOM     12  CA  VAL B   1      11.982  -7.552  22.414  1.00 14.89 LIG 0.28  C 
BRANCH 12 13
ATOM     13  CB  VAL B   1      12.171  -7.830  23.913  1.00 17.39 LIG 0.02  C 
ATOM     14  CG2 VAL B   1      13.242  -7.002  24.528  1.00 22.29 LIG 0.01  C 
ATOM     15  CG1 VAL B   1      12.498  -9.272  24.172  1.00 17.29 LIG 0.01  C 
ENDBRANCH 12 13
BRANCH 12 16
ATOM     16  N   VAL B   1      13.123  -8.091  21.662  1.00 15.02 LIG-0.07  N 
ATOM     17 H2   VAL B   1      13.165  -7.700  20.865  1.00 15.02 LIG 0.28  HD
ATOM     18 H3   VAL B   1      13.876  -7.933  22.110  1.00 15.02 LIG 0.28  HD
ATOM     19 H1   VAL B   1      13.021  -8.970  21.556  1.00 15.02 LIG 0.28  HD
ENDBRANCH 12 16
ENDBRANCH 9 12
ENDBRANCH 7 8
BRANCH 7 20
ATOM     20  CB  ASP B   2       9.485  -3.575  22.645  1.00 16.98 LIG 0.15  C 
BRANCH 20 21
ATOM     21  CG  ASP B   2       9.197  -2.110  22.885  1.00 17.41 LIG 0.17  C 
ATOM     22 OD1  ASP B   2       8.335  -1.812  23.762  1.00 15.73 LIG-0.65  OA
ATOM     23 OD2  ASP B   2       9.815  -1.254  22.183  1.00 22.30 LIG-0.65  OA
ENDBRANCH 20 21
ENDBRANCH 7 20
ENDBRANCH 4 7
ENDBRANCH 1 3
BRANCH 1 24
ATOM     24  C   ALA B   3      12.207  -0.886  25.718  1.00 21.51 LIG 0.24  C 
ATOM     25  N   VAL B   4      12.952  -1.044  26.807  1.00 22.67 LIG-0.35  N 
ATOM     26 H    VAL B   4      13.752  -1.359  26.799  1.00 22.67 LIG 0.16  HD
ATOM     27 O    ALA B   3      11.007  -0.604  25.759  1.00 22.81 LIG-0.27  OA
BRANCH 25 28
ATOM     28  CA  VAL B   4      12.455  -0.686  28.139  1.00 26.45 LIG 0.18  C 
BRANCH 28 29
ATOM     29  CB  VAL B   4      11.524  -1.777  28.713  1.00 30.01 LIG 0.01  C 
ATOM     30  CG2 VAL B   4      10.804  -1.270  29.961  1.00 31.20 LIG 0.01  C 
ATOM     31  CG1 VAL B   4      12.307  -3.051  29.023  1.00 33.02 LIG 0.01  C 
ENDBRANCH 28 29
BRANCH 28 32
ATOM     32  C   VAL B   4      13.687  -0.513  29.033  1.00 25.61 LIG 0.24  C 
ATOM     33  N   ASN B   5      14.873  -0.515  28.431  1.00 29.33 LIG-0.35  N 
ATOM     34 H    ASN B   5      14.974  -0.586  27.580  1.00 29.33 LIG 0.16  HD
ATOM     35 O    VAL B   4      13.552  -0.415  30.253  1.00 29.65 LIG-0.27  OA
BRANCH 33 36
ATOM     36  CA  ASN B   5      16.137  -0.392  29.180  1.00 34.74 LIG 0.17  C 
BRANCH 36 37
ATOM     37  CB  ASN B   5      17.263  -1.045  28.383  1.00 42.44 LIG 0.14  C 
BRANCH 37 38
ATOM     38  CG  ASN B   5      16.919  -1.180  26.911  1.00 45.23 LIG 0.22  C 
ATOM     39 OD1  ASN B   5      16.840  -0.191  26.201  1.00 53.97 LIG-0.27  OA
ATOM     40  ND2 ASN B   5      16.667  -2.405  26.461  1.00 50.63 LIG-0.37  N 
ATOM     41 21HD ASN B   5      16.439  -2.523  25.641  1.00 50.63 LIG 0.16  HD
ATOM     42 22HD ASN B   5      16.733  -3.080  26.990  1.00 50.63 LIG 0.16  HD
ENDBRANCH 37 38
ENDBRANCH 36 37
BRANCH 36 43
ATOM     43  C   ASN B   5      16.484   1.050  29.506  1.00 38.04 LIG 0.22  C 
ATOM     44 O    ASN B   5      15.900   1.965  28.935  1.00 41.05 LIG-0.29  OA
ENDBRANCH 36 43
ENDBRANCH 33 36
ENDBRANCH 28 32
ENDBRANCH 25 28
ENDBRANCH 1 24
TORSDOF 16
ENDMDL
MODEL 15
USER: ADFR SOLUTION from run 139
USER: SCORE 10.399879 LL:  -2.812 LR:  -9.057 RR:   0.000 FEB:  -4.284
USER: RMSD 3.361518
USER: SEED 138
USER: STATUS no improvement in best in 6 clusters for 5 generations
USER: GENES 18
USER: genes 0 Translation |==|  0.66965 0.52294 0.41678
USER: genes 1 Rotation |==|  0.46902 0.52514 0.69920 0.95687
USER: genes 2 Torsion [CB]-CA--N-[C] |==|  0.48406
USER: genes 3 Torsion [N]-C--CA-[N] |==|  0.42222
USER: genes 4 Torsion [C]-CA--N-[C] |==|  0.63425
USER: genes 5 Torsion [N]-C--CA-[N] |==|  0.62396
USER: genes 6 Torsion [C]-CA--CB-[CG2] |==|  0.56622
USER: genes 7 Torsion [C]-CA--N-[H2] |==|  0.04632
USER: genes 8 Torsion [C]-CA--CB-[CG] |==|  0.25863
USER: genes 9 Torsion [CA]-CB--CG-[OD2] |==|  0.55694
USER: genes 10 Torsion [N]-CA--C-[N] |==|  0.39715
USER: genes 11 Torsion [C]-N--CA-[CB] |==|  0.49060
USER: genes 12 Torsion [N]-CA--CB-[CG2] |==|  0.82912
USER: genes 13 Torsion [N]-CA--C-[N] |==|  0.39481
USER: genes 14 Torsion [C]-N--CA-[CB] |==|  0.30184
USER: genes 15 Torsion [N]-CA--CB-[CG] |==|  0.77770
USER: genes 16 Torsion [CA]-CB--CG-[OD1] |==|  0.11306
USER: genes 17 Torsion [N]-CA--C-[O] |==|  0.20195
ROOT
ATOM      1  CA  ALA B   3      13.842   0.141  24.308  1.00 18.86 LIG 0.17  C 
ATOM      2  CB  ALA B   3      13.882   1.417  23.470  1.00 19.35 LIG 0.04  C 
ENDROOT
BRANCH 1 3
ATOM      3  N   ALA B   3      12.767  -0.717  23.827  1.00 16.29 LIG-0.35  N 
ATOM      4  C   ASP B   2      12.564  -1.941  24.292  1.00 15.20 LIG 0.24  C 
ATOM      5 O    ASP B   2      13.228  -2.425  25.225  1.00 18.35 LIG-0.27  OA
ATOM      6 H    ALA B   3      12.281  -0.356  23.217  1.00 16.29 LIG 0.16  HD
BRANCH 4 7
ATOM      7  CA  ASP B   2      11.455  -2.750  23.602  1.00 15.30 LIG 0.19  C 
BRANCH 7 8
ATOM      8  N   ASP B   2      11.711  -4.172  23.676  1.00 15.19 LIG-0.34  N 
ATOM      9  C   VAL B   1      11.624  -4.950  22.612  1.00 14.82 LIG 0.25  C 
ATOM     10 O    VAL B   1      11.265  -4.530  21.510  1.00 14.79 LIG-0.27  OA
ATOM     11 H    ASP B   2      11.919  -4.455  24.462  1.00 15.19 LIG 0.16  HD
BRANCH 9 12
ATOM     12  CA  VAL B   1      11.921  -6.429  22.833  1.00 14.89 LIG 0.28  C 
BRANCH 12 13
ATOM     13  CB  VAL B   1      12.596  -6.711  24.185  1.00 17.39 LIG 0.02  C 
ATOM     14  CG2 VAL B   1      13.378  -7.974  24.192  1.00 22.29 LIG 0.01  C 
ATOM     15  CG1 VAL B   1      11.592  -6.784  25.299  1.00 17.29 LIG 0.01  C 
ENDBRANCH 12 13
BRANCH 12 16
ATOM     16  N   VAL B   1      12.790  -6.885  21.740  1.00 15.02 LIG-0.07  N 
ATOM     17 H2   VAL B   1      13.149  -6.180  21.333  1.00 15.02 LIG 0.28  HD
ATOM     18 H3   VAL B   1      13.438  -7.398  22.070  1.00 15.02 LIG 0.28  HD
ATOM     19 H1   VAL B   1      12.310  -7.353  21.154  1.00 15.02 LIG 0.28  HD
ENDBRANCH 12 16
ENDBRANCH 9 12
ENDBRANCH 7 8
BRANCH 7 20
ATOM     20  CB  ASP B   2      10.069  -2.421  24.161  1.00 16.98 LIG 0.15  C 
BRANCH 20 21
ATOM     21  CG  ASP B   2       9.358  -1.337  23.381  1.00 17.41 LIG 0.17  C 
ATOM     22 OD1  ASP B   2       9.757  -1.096  22.204  1.00 15.73 LIG-0.65  OA
ATOM     23 OD2  ASP B   2       8.414  -0.710  23.949  1.00 22.30 LIG-0.65  OA
ENDBRANCH 20 21
ENDBRANCH 7 20
ENDBRANCH 4 7
ENDBRANCH 1 3
BRANCH 1 24
ATOM     24  C   ALA B   3      13.658   0.475  25.789  1.00 21.51 LIG 0.24  C 
ATOM     25  N   VAL B   4      14.768   0.544  26.517  1.00 22.67 LIG-0.35  N 
ATOM     26 H    VAL B   4      15.541   0.293  26.236  1.00 22.67 LIG 0.16  HD
ATOM     27 O    ALA B   3      12.534   0.669  26.257  1.00 22.81 LIG-0.27  OA
BRANCH 25 28
ATOM     28  CA  VAL B   4      14.760   1.064  27.887  1.00 26.45 LIG 0.18  C 
BRANCH 28 29
ATOM     29  CB  VAL B   4      16.155   0.961  28.544  1.00 30.01 LIG 0.01  C 
ATOM     30  CG2 VAL B   4      16.601  -0.497  28.635  1.00 31.20 LIG 0.01  C 
ATOM     31  CG1 VAL B   4      16.153   1.611  29.926  1.00 33.02 LIG 0.01  C 
ENDBRANCH 28 29
BRANCH 28 32
ATOM     32  C   VAL B   4      14.321   2.529  27.796  1.00 25.61 LIG 0.24  C 
ATOM     33  N   ASN B   5      13.529   2.981  28.763  1.00 29.33 LIG-0.35  N 
ATOM     34 H    ASN B   5      13.275   2.504  29.432  1.00 29.33 LIG 0.16  HD
ATOM     35 O    VAL B   4      14.676   3.219  26.840  1.00 29.65 LIG-0.27  OA
BRANCH 33 36
ATOM     36  CA  ASN B   5      13.008   4.360  28.776  1.00 34.74 LIG 0.17  C 
BRANCH 36 37
ATOM     37  CB  ASN B   5      11.514   4.341  28.468  1.00 42.44 LIG 0.14  C 
BRANCH 37 38
ATOM     38  CG  ASN B   5      11.237   4.208  26.982  1.00 45.23 LIG 0.22  C 
ATOM     39 OD1  ASN B   5      11.905   3.453  26.295  1.00 53.97 LIG-0.27  OA
ATOM     40  ND2 ASN B   5      10.280   4.978  26.476  1.00 50.63 LIG-0.37  N 
ATOM     41 21HD ASN B   5      10.111   4.956  25.633  1.00 50.63 LIG 0.16  HD
ATOM     42 22HD ASN B   5       9.828   5.498  26.991  1.00 50.63 LIG 0.16  HD
ENDBRANCH 37 38
ENDBRANCH 36 37
BRANCH 36 43
ATOM     43  C   ASN B   5      13.270   5.070  30.093  1.00 38.04 LIG 0.22  C 
ATOM     44 O    ASN B   5      14.406   5.436  30.377  1.00 41.05 LIG-0.29  OA
ENDBRANCH 36 43
ENDBRANCH 33 36
ENDBRANCH 28 32
ENDBRANCH 25 28
ENDBRANCH 1 24
TORSDOF 16
ENDMDL
MODEL 16
USER: ADFR SOLUTION from run 64
USER: SCORE 10.525958 LL:  -3.095 LR:  -9.058 RR:   0.000 FEB:  -4.286
USER: RMSD 4.302191
USER: SEED 63
USER: STATUS no improvement in best in 10 clusters for 5 generations
USER: GENES 18
USER: genes 0 Translation |==|  0.64917 0.51089 0.41126
USER: genes 1 Rotation |==|  0.62831 0.55827 0.66999 0.94860
USER: genes 2 Torsion [CB]-CA--N-[C] |==|  0.51710
USER: genes 3 Torsion [N]-C--CA-[N] |==|  0.92316
USER: genes 4 Torsion [C]-CA--N-[C] |==|  0.65742
USER: genes 5 Torsion [N]-C--CA-[N] |==|  0.36994
USER: genes 6 Torsion [C]-CA--CB-[CG2] |==|  0.14363
USER: genes 7 Torsion [C]-CA--N-[H2] |==|  0.31232
USER: genes 8 Torsion [C]-CA--CB-[CG] |==|  0.43839
USER: genes 9 Torsion [CA]-CB--CG-[OD2] |==|  0.13692
USER: genes 10 Torsion [N]-CA--C-[N] |==|  0.32322
USER: genes 11 Torsion [C]-N--CA-[CB] |==|  0.50004
USER: genes 12 Torsion [N]-CA--CB-[CG2] |==|  0.77628
USER: genes 13 Torsion [N]-CA--C-[N] |==|  0.37778
USER: genes 14 Torsion [C]-N--CA-[CB] |==|  0.85101
USER: genes 15 Torsion [N]-CA--CB-[CG] |==|  0.65440
USER: genes 16 Torsion [CA]-CB--CG-[OD1] |==|  0.25107
USER: genes 17 Torsion [N]-CA--C-[O] |==|  0.86035
ROOT
ATOM      1  CA  ALA B   3      13.488  -0.076  24.192  1.00 18.86 LIG 0.17  C 
ATOM      2  CB  ALA B   3      13.546   1.448  24.108  1.00 19.35 LIG 0.04  C 
ENDROOT
BRANCH 1 3
ATOM      3  N   ALA B   3      12.155  -0.528  23.820  1.00 16.29 LIG-0.35  N 
ATOM      4  C   ASP B   2      11.774  -1.794  23.916  1.00 15.20 LIG 0.24  C 
ATOM      5 O    ASP B   2      12.499  -2.680  24.398  1.00 18.35 LIG-0.27  OA
ATOM      6 H    ALA B   3      11.641   0.100  23.535  1.00 16.29 LIG 0.16  HD
BRANCH 4 7
ATOM      7  CA  ASP B   2      10.370  -2.118  23.382  1.00 15.30 LIG 0.19  C 
BRANCH 7 8
ATOM      8  N   ASP B   2       9.492  -0.971  23.464  1.00 15.19 LIG-0.34  N 
ATOM      9  C   VAL B   1       8.347  -1.019  24.120  1.00 14.82 LIG 0.25  C 
ATOM     10 O    VAL B   1       7.925  -2.050  24.647  1.00 14.79 LIG-0.27  OA
ATOM     11 H    ASP B   2       9.782  -0.272  23.055  1.00 15.19 LIG 0.16  HD
BRANCH 9 12
ATOM     12  CA  VAL B   1       7.521   0.263  24.127  1.00 14.89 LIG 0.28  C 
BRANCH 12 13
ATOM     13  CB  VAL B   1       7.570   1.001  25.474  1.00 17.39 LIG 0.02  C 
ATOM     14  CG2 VAL B   1       8.954   1.233  25.961  1.00 22.29 LIG 0.01  C 
ATOM     15  CG1 VAL B   1       6.825   0.253  26.541  1.00 17.29 LIG 0.01  C 
ENDBRANCH 12 13
BRANCH 12 16
ATOM     16  N   VAL B   1       6.132  -0.091  23.805  1.00 15.02 LIG-0.07  N 
ATOM     17 H2   VAL B   1       5.618   0.045  24.518  1.00 15.02 LIG 0.28  HD
ATOM     18 H3   VAL B   1       5.845   0.416  23.132  1.00 15.02 LIG 0.28  HD
ATOM     19 H1   VAL B   1       6.091  -0.948  23.569  1.00 15.02 LIG 0.28  HD
ENDBRANCH 12 16
ENDBRANCH 9 12
ENDBRANCH 7 8
BRANCH 7 20
ATOM     20  CB  ASP B   2      10.409  -2.666  21.953  1.00 16.98 LIG 0.15  C 
BRANCH 20 21
ATOM     21  CG  ASP B   2       9.181  -3.473  21.595  1.00 17.41 LIG 0.17  C 
ATOM     22 OD1  ASP B   2       9.352  -4.602  21.051  1.00 15.73 LIG-0.65  OA
ATOM     23 OD2  ASP B   2       8.042  -2.972  21.839  1.00 22.30 LIG-0.65  OA
ENDBRANCH 20 21
ENDBRANCH 7 20
ENDBRANCH 4 7
ENDBRANCH 1 3
BRANCH 1 24
ATOM     24  C   ALA B   3      13.859  -0.551  25.597  1.00 21.51 LIG 0.24  C 
ATOM     25  N   VAL B   4      14.889  -1.386  25.682  1.00 22.67 LIG-0.35  N 
ATOM     26 H    VAL B   4      15.260  -1.759  25.002  1.00 22.67 LIG 0.16  HD
ATOM     27 O    ALA B   3      13.224  -0.164  26.582  1.00 22.81 LIG-0.27  OA
BRANCH 25 28
ATOM     28  CA  VAL B   4      15.485  -1.747  26.971  1.00 26.45 LIG 0.18  C 
BRANCH 28 29
ATOM     29  CB  VAL B   4      16.665  -2.730  26.799  1.00 30.01 LIG 0.01  C 
ATOM     30  CG2 VAL B   4      16.154  -4.158  26.614  1.00 31.20 LIG 0.01  C 
ATOM     31  CG1 VAL B   4      17.617  -2.649  27.990  1.00 33.02 LIG 0.01  C 
ENDBRANCH 28 29
BRANCH 28 32
ATOM     32  C   VAL B   4      15.969  -0.441  27.610  1.00 25.61 LIG 0.24  C 
ATOM     33  N   ASN B   5      15.709  -0.271  28.902  1.00 29.33 LIG-0.35  N 
ATOM     34 H    ASN B   5      15.308  -0.856  29.388  1.00 29.33 LIG 0.16  HD
ATOM     35 O    VAL B   4      16.539   0.405  26.921  1.00 29.65 LIG-0.27  OA
BRANCH 33 36
ATOM     36  CA  ASN B   5      16.090   0.955  29.628  1.00 34.74 LIG 0.17  C 
BRANCH 36 37
ATOM     37  CB  ASN B   5      17.579   1.218  29.431  1.00 42.44 LIG 0.14  C 
BRANCH 37 38
ATOM     38  CG  ASN B   5      18.319   1.337  30.750  1.00 45.23 LIG 0.22  C 
ATOM     39 OD1  ASN B   5      18.809   0.350  31.275  1.00 53.97 LIG-0.27  OA
ATOM     40  ND2 ASN B   5      18.362   2.541  31.313  1.00 50.63 LIG-0.37  N 
ATOM     41 21HD ASN B   5      18.745   2.646  32.075  1.00 50.63 LIG 0.16  HD
ATOM     42 22HD ASN B   5      18.006   3.214  30.914  1.00 50.63 LIG 0.16  HD
ENDBRANCH 37 38
ENDBRANCH 36 37
BRANCH 36 43
ATOM     43  C   ASN B   5      15.275   2.163  29.200  1.00 38.04 LIG 0.22  C 
ATOM     44 O    ASN B   5      15.159   2.434  28.009  1.00 41.05 LIG-0.29  OA
ENDBRANCH 36 43
ENDBRANCH 33 36
ENDBRANCH 28 32
ENDBRANCH 25 28
ENDBRANCH 1 24
TORSDOF 16
ENDMDL
MODEL 17
USER: ADFR SOLUTION from run 141
USER: SCORE 10.448975 LL:  -2.973 LR:  -9.049 RR:   0.000 FEB:  -4.276
USER: RMSD 2.824355
USER: SEED 140
USER: STATUS no improvement in best in 17 clusters for 5 generations
USER: GENES 18
USER: genes 0 Translation |==|  0.63652 0.50150 0.41734
USER: genes 1 Rotation |==|  0.62411 0.58408 0.62289 0.96090
USER: genes 2 Torsion [CB]-CA--N-[C] |==|  0.50417
USER: genes 3 Torsion [N]-C--CA-[N] |==|  0.35828
USER: genes 4 Torsion [C]-CA--N-[C] |==|  0.78359
USER: genes 5 Torsion [N]-C--CA-[N] |==|  0.40317
USER: genes 6 Torsion [C]-CA--CB-[CG2] |==|  0.49037
USER: genes 7 Torsion [C]-CA--N-[H2] |==|  0.02104
USER: genes 8 Torsion [C]-CA--CB-[CG] |==|  0.62462
USER: genes 9 Torsion [CA]-CB--CG-[OD2] |==|  0.31858
USER: genes 10 Torsion [N]-CA--C-[N] |==|  0.36667
USER: genes 11 Torsion [C]-N--CA-[CB] |==|  0.46912
USER: genes 12 Torsion [N]-CA--CB-[CG2] |==|  0.78285
USER: genes 13 Torsion [N]-CA--C-[N] |==|  0.41176
USER: genes 14 Torsion [C]-N--CA-[CB] |==|  0.32362
USER: genes 15 Torsion [N]-CA--CB-[CG] |==|  0.81438
USER: genes 16 Torsion [CA]-CB--CG-[OD1] |==|  0.32175
USER: genes 17 Torsion [N]-CA--C-[O] |==|  0.29359
ROOT
ATOM      1  CA  ALA B   3      13.270  -0.245  24.320  1.00 18.86 LIG 0.17  C 
ATOM      2  CB  ALA B   3      13.545   1.239  24.085  1.00 19.35 LIG 0.04  C 
ENDROOT
BRANCH 1 3
ATOM      3  N   ALA B   3      11.846  -0.502  24.158  1.00 16.29 LIG-0.35  N 
ATOM      4  C   ASP B   2      11.308  -1.701  24.332  1.00 15.20 LIG 0.24  C 
ATOM      5 O    ASP B   2      11.965  -2.682  24.717  1.00 18.35 LIG-0.27  OA
ATOM      6 H    ALA B   3      11.389   0.194  23.941  1.00 16.29 LIG 0.16  HD
BRANCH 4 7
ATOM      7  CA  ASP B   2       9.809  -1.820  24.018  1.00 15.30 LIG 0.19  C 
BRANCH 7 8
ATOM      8  N   ASP B   2       9.540  -2.928  23.126  1.00 15.19 LIG-0.34  N 
ATOM      9  C   VAL B   1       9.769  -2.844  21.828  1.00 14.82 LIG 0.25  C 
ATOM     10 O    VAL B   1      10.164  -1.810  21.287  1.00 14.79 LIG-0.27  OA
ATOM     11 H    ASP B   2       9.225  -3.628  23.514  1.00 15.19 LIG 0.16  HD
BRANCH 9 12
ATOM     12  CA  VAL B   1       9.442  -4.087  21.006  1.00 14.89 LIG 0.28  C 
BRANCH 12 13
ATOM     13  CB  VAL B   1      10.650  -5.016  20.815  1.00 17.39 LIG 0.02  C 
ATOM     14  CG2 VAL B   1      10.313  -6.266  20.085  1.00 22.29 LIG 0.01  C 
ATOM     15  CG1 VAL B   1      11.264  -5.402  22.129  1.00 17.29 LIG 0.01  C 
ENDBRANCH 12 13
BRANCH 12 16
ATOM     16  N   VAL B   1       8.944  -3.645  19.696  1.00 15.02 LIG-0.07  N 
ATOM     17 H2   VAL B   1       9.043  -2.764  19.623  1.00 15.02 LIG 0.28  HD
ATOM     18 H3   VAL B   1       9.405  -4.049  19.051  1.00 15.02 LIG 0.28  HD
ATOM     19 H1   VAL B   1       8.082  -3.854  19.620  1.00 15.02 LIG 0.28  HD
ENDBRANCH 12 16
ENDBRANCH 9 12
ENDBRANCH 7 8
BRANCH 7 20
ATOM     20  CB  ASP B   2       8.961  -1.932  25.287  1.00 16.98 LIG 0.15  C 
BRANCH 20 21
ATOM     21  CG  ASP B   2       7.901  -3.007  25.198  1.00 17.41 LIG 0.17  C 
ATOM     22 OD1  ASP B   2       6.961  -2.844  24.367  1.00 15.73 LIG-0.65  OA
ATOM     23 OD2  ASP B   2       7.994  -4.007  25.972  1.00 22.30 LIG-0.65  OA
ENDBRANCH 20 21
ENDBRANCH 7 20
ENDBRANCH 4 7
ENDBRANCH 1 3
BRANCH 1 24
ATOM     24  C   ALA B   3      13.751  -0.668  25.708  1.00 21.51 LIG 0.24  C 
ATOM     25  N   VAL B   4      14.857  -1.405  25.746  1.00 22.67 LIG-0.35  N 
ATOM     26 H    VAL B   4      15.228  -1.749  25.051  1.00 22.67 LIG 0.16  HD
ATOM     27 O    ALA B   3      13.133  -0.330  26.720  1.00 22.81 LIG-0.27  OA
BRANCH 25 28
ATOM     28  CA  VAL B   4      15.547  -1.695  27.006  1.00 26.45 LIG 0.18  C 
BRANCH 28 29
ATOM     29  CB  VAL B   4      16.630  -2.782  26.827  1.00 30.01 LIG 0.01  C 
ATOM     30  CG2 VAL B   4      15.996  -4.170  26.769  1.00 31.20 LIG 0.01  C 
ATOM     31  CG1 VAL B   4      17.664  -2.708  27.948  1.00 33.02 LIG 0.01  C 
ENDBRANCH 28 29
BRANCH 28 32
ATOM     32  C   VAL B   4      16.183  -0.380  27.469  1.00 25.61 LIG 0.24  C 
ATOM     33  N   ASN B   5      16.284  -0.190  28.781  1.00 29.33 LIG-0.35  N 
ATOM     34 H    ASN B   5      16.033  -0.767  29.367  1.00 29.33 LIG 0.16  HD
ATOM     35 O    VAL B   4      16.543   0.455  26.639  1.00 29.65 LIG-0.27  OA
BRANCH 33 36
ATOM     36  CA  ASN B   5      16.846   1.046  29.358  1.00 34.74 LIG 0.17  C 
BRANCH 36 37
ATOM     37  CB  ASN B   5      15.767   1.766  30.161  1.00 42.44 LIG 0.14  C 
BRANCH 37 38
ATOM     38  CG  ASN B   5      14.650   2.290  29.277  1.00 45.23 LIG 0.22  C 
ATOM     39 OD1  ASN B   5      13.515   1.855  29.393  1.00 53.97 LIG-0.27  OA
ATOM     40  ND2 ASN B   5      14.979   3.194  28.360  1.00 50.63 LIG-0.37  N 
ATOM     41 21HD ASN B   5      14.383   3.494  27.819  1.00 50.63 LIG 0.16  HD
ATOM     42 22HD ASN B   5      15.789   3.478  28.308  1.00 50.63 LIG 0.16  HD
ENDBRANCH 37 38
ENDBRANCH 36 37
BRANCH 36 43
ATOM     43  C   ASN B   5      18.066   0.783  30.223  1.00 38.04 LIG 0.22  C 
ATOM     44 O    ASN B   5      19.185   1.067  29.807  1.00 41.05 LIG-0.29  OA
ENDBRANCH 36 43
ENDBRANCH 33 36
ENDBRANCH 28 32
ENDBRANCH 25 28
ENDBRANCH 1 24
TORSDOF 16
ENDMDL
MODEL 18
USER: ADFR SOLUTION from run 179
USER: SCORE 11.150013 LL:  -3.373 LR:  -8.970 RR:   0.000 FEB:  -4.197
USER: RMSD 4.042638
USER: SEED 178
USER: STATUS no improvement in best in 14 clusters for 5 generations
USER: GENES 18
USER: genes 0 Translation |==|  0.47811 0.39157 0.45190
USER: genes 1 Rotation |==|  0.19483 0.34800 0.13429 0.50452
USER: genes 2 Torsion [CB]-CA--N-[C] |==|  0.46111
USER: genes 3 Torsion [N]-C--CA-[N] |==|  0.91811
USER: genes 4 Torsion [C]-CA--N-[C] |==|  0.68176
USER: genes 5 Torsion [N]-C--CA-[N] |==|  0.52222
USER: genes 6 Torsion [C]-CA--CB-[CG2] |==|  0.24193
USER: genes 7 Torsion [C]-CA--N-[H2] |==|  0.29406
USER: genes 8 Torsion [C]-CA--CB-[CG] |==|  0.87144
USER: genes 9 Torsion [CA]-CB--CG-[OD2] |==|  0.24759
USER: genes 10 Torsion [N]-CA--C-[N] |==|  0.43820
USER: genes 11 Torsion [C]-N--CA-[CB] |==|  0.18238
USER: genes 12 Torsion [N]-CA--CB-[CG2] |==|  0.54298
USER: genes 13 Torsion [N]-CA--C-[N] |==|  0.07232
USER: genes 14 Torsion [C]-N--CA-[CB] |==|  0.35258
USER: genes 15 Torsion [N]-CA--CB-[CG] |==|  0.80574
USER: genes 16 Torsion [CA]-CB--CG-[OD1] |==|  0.16541
USER: genes 17 Torsion [N]-CA--C-[O] |==|  0.05041
ROOT
ATOM      1  CA  ALA B   3      10.537  -2.224  25.046  1.00 18.86 LIG 0.17  C 
ATOM      2  CB  ALA B   3      10.050  -2.857  26.347  1.00 19.35 LIG 0.04  C 
ENDROOT
BRANCH 1 3
ATOM      3  N   ALA B   3      10.379  -3.178  23.957  1.00 16.29 LIG-0.35  N 
ATOM      4  C   ASP B   2      10.460  -2.831  22.681  1.00 15.20 LIG 0.24  C 
ATOM      5 O    ASP B   2      10.749  -1.680  22.315  1.00 18.35 LIG-0.27  OA
ATOM      6 H    ALA B   3      10.228  -3.984  24.220  1.00 16.29 LIG 0.16  HD
BRANCH 4 7
ATOM      7  CA  ASP B   2      10.163  -3.939  21.660  1.00 15.30 LIG 0.19  C 
BRANCH 7 8
ATOM      8  N   ASP B   2      10.510  -5.245  22.177  1.00 15.19 LIG-0.34  N 
ATOM      9  C   VAL B   1      11.478  -5.968  21.643  1.00 14.82 LIG 0.25  C 
ATOM     10 O    VAL B   1      12.102  -5.609  20.643  1.00 14.79 LIG-0.27  OA
ATOM     11 H    ASP B   2      10.037  -5.499  22.849  1.00 15.19 LIG 0.16  HD
BRANCH 9 12
ATOM     12  CA  VAL B   1      11.740  -7.325  22.289  1.00 14.89 LIG 0.28  C 
BRANCH 12 13
ATOM     13  CB  VAL B   1      11.902  -7.243  23.815  1.00 17.39 LIG 0.02  C 
ATOM     14  CG2 VAL B   1      10.609  -7.329  24.542  1.00 22.29 LIG 0.01  C 
ATOM     15  CG1 VAL B   1      12.581  -5.970  24.231  1.00 17.29 LIG 0.01  C 
ENDBRANCH 12 13
BRANCH 12 16
ATOM     16  N   VAL B   1      12.959  -7.884  21.690  1.00 15.02 LIG-0.07  N 
ATOM     17 H2   VAL B   1      13.629  -7.826  22.272  1.00 15.02 LIG 0.28  HD
ATOM     18 H3   VAL B   1      12.822  -8.738  21.480  1.00 15.02 LIG 0.28  HD
ATOM     19 H1   VAL B   1      13.165  -7.427  20.954  1.00 15.02 LIG 0.28  HD
ENDBRANCH 12 16
ENDBRANCH 9 12
ENDBRANCH 7 8
BRANCH 7 20
ATOM     20  CB  ASP B   2       8.706  -3.916  21.190  1.00 16.98 LIG 0.15  C 
BRANCH 20 21
ATOM     21  CG  ASP B   2       7.720  -3.774  22.328  1.00 17.41 LIG 0.17  C 
ATOM     22 OD1  ASP B   2       7.256  -4.831  22.846  1.00 15.73 LIG-0.65  OA
ATOM     23 OD2  ASP B   2       7.391  -2.605  22.694  1.00 22.30 LIG-0.65  OA
ENDBRANCH 20 21
ENDBRANCH 7 20
ENDBRANCH 4 7
ENDBRANCH 1 3
BRANCH 1 24
ATOM     24  C   ALA B   3      11.993  -1.776  25.178  1.00 21.51 LIG 0.24  C 
ATOM     25  N   VAL B   4      12.196  -0.614  25.789  1.00 22.67 LIG-0.35  N 
ATOM     26 H    VAL B   4      11.568  -0.062  25.992  1.00 22.67 LIG 0.16  HD
ATOM     27 O    ALA B   3      12.910  -2.473  24.736  1.00 22.81 LIG-0.27  OA
BRANCH 25 28
ATOM     28  CA  VAL B   4      13.539  -0.171  26.176  1.00 26.45 LIG 0.18  C 
BRANCH 28 29
ATOM     29  CB  VAL B   4      14.431   0.090  24.941  1.00 30.01 LIG 0.01  C 
ATOM     30  CG2 VAL B   4      15.901   0.174  25.346  1.00 31.20 LIG 0.01  C 
ATOM     31  CG1 VAL B   4      13.998   1.364  24.218  1.00 33.02 LIG 0.01  C 
ENDBRANCH 28 29
BRANCH 28 32
ATOM     32  C   VAL B   4      13.358   1.118  26.984  1.00 25.61 LIG 0.24  C 
ATOM     33  N   ASN B   5      12.198   1.277  27.613  1.00 29.33 LIG-0.35  N 
ATOM     34 H    ASN B   5      11.568   0.691  27.604  1.00 29.33 LIG 0.16  HD
ATOM     35 O    VAL B   4      14.253   1.964  27.000  1.00 29.65 LIG-0.27  OA
BRANCH 33 36
ATOM     36  CA  ASN B   5      11.884   2.486  28.396  1.00 34.74 LIG 0.17  C 
BRANCH 36 37
ATOM     37  CB  ASN B   5      10.557   3.068  27.919  1.00 42.44 LIG 0.14  C 
BRANCH 37 38
ATOM     38  CG  ASN B   5      10.662   3.671  26.531  1.00 45.23 LIG 0.22  C 
ATOM     39 OD1  ASN B   5      11.001   2.982  25.582  1.00 53.97 LIG-0.27  OA
ATOM     40  ND2 ASN B   5      10.416   4.972  26.418  1.00 50.63 LIG-0.37  N 
ATOM     41 21HD ASN B   5      10.494   5.360  25.654  1.00 50.63 LIG 0.16  HD
ATOM     42 22HD ASN B   5      10.179   5.427  27.108  1.00 50.63 LIG 0.16  HD
ENDBRANCH 37 38
ENDBRANCH 36 37
BRANCH 36 43
ATOM     43  C   ASN B   5      11.840   2.218  29.891  1.00 38.04 LIG 0.22  C 
ATOM     44 O    ASN B   5      12.366   1.209  30.348  1.00 41.05 LIG-0.29  OA
ENDBRANCH 36 43
ENDBRANCH 33 36
ENDBRANCH 28 32
ENDBRANCH 25 28
ENDBRANCH 1 24
TORSDOF 16
ENDMDL
MODEL 19
USER: ADFR SOLUTION from run 162
USER: SCORE 10.272736 LL:  -3.389 LR:  -8.905 RR:   0.000 FEB:  -4.132
USER: RMSD 3.406982
USER: SEED 161
USER: STATUS no improvement in best in 23 clusters for 5 generations
USER: GENES 18
USER: genes 0 Translation |==|  0.40237 0.61761 0.51657
USER: genes 1 Rotation |==|  0.82892 0.52651 0.84288 0.65345
USER: genes 2 Torsion [CB]-CA--N-[C] |==|  0.77777
USER: genes 3 Torsion [N]-C--CA-[N] |==|  0.40910
USER: genes 4 Torsion [C]-CA--N-[C] |==|  0.77230
USER: genes 5 Torsion [N]-C--CA-[N] |==|  0.35462
USER: genes 6 Torsion [C]-CA--CB-[CG2] |==|  0.48818
USER: genes 7 Torsion [C]-CA--N-[H2] |==|  0.96826
USER: genes 8 Torsion [C]-CA--CB-[CG] |==|  0.14286
USER: genes 9 Torsion [CA]-CB--CG-[OD2] |==|  0.20295
USER: genes 10 Torsion [N]-CA--C-[N] |==|  0.19550
USER: genes 11 Torsion [C]-N--CA-[CB] |==|  0.40941
USER: genes 12 Torsion [N]-CA--CB-[CG2] |==|  0.21352
USER: genes 13 Torsion [N]-CA--C-[N] |==|  0.04452
USER: genes 14 Torsion [C]-N--CA-[CB] |==|  0.47484
USER: genes 15 Torsion [N]-CA--CB-[CG] |==|  0.84890
USER: genes 16 Torsion [CA]-CB--CG-[OD1] |==|  0.75882
USER: genes 17 Torsion [N]-CA--C-[O] |==|  0.55977
ROOT
ATOM      1  CA  ALA B   3       9.231   1.845  26.404  1.00 18.86 LIG 0.17  C 
ATOM      2  CB  ALA B   3       8.386   1.857  27.676  1.00 19.35 LIG 0.04  C 
ENDROOT
BRANCH 1 3
ATOM      3  N   ALA B   3       8.466   1.236  25.324  1.00 16.29 LIG-0.35  N 
ATOM      4  C   ASP B   2       8.339  -0.076  25.187  1.00 15.20 LIG 0.24  C 
ATOM      5 O    ASP B   2       8.800  -0.886  26.009  1.00 18.35 LIG-0.27  OA
ATOM      6 H    ALA B   3       8.108   1.805  24.788  1.00 16.29 LIG 0.16  HD
BRANCH 4 7
ATOM      7  CA  ASP B   2       7.589  -0.554  23.934  1.00 15.30 LIG 0.19  C 
BRANCH 7 8
ATOM      8  N   ASP B   2       8.107  -1.817  23.455  1.00 15.19 LIG-0.34  N 
ATOM      9  C   VAL B   1       9.188  -1.882  22.699  1.00 14.82 LIG 0.25  C 
ATOM     10 O    VAL B   1       9.786  -0.879  22.306  1.00 14.79 LIG-0.27  OA
ATOM     11 H    ASP B   2       7.653  -2.504  23.704  1.00 15.19 LIG 0.16  HD
BRANCH 9 12
ATOM     12  CA  VAL B   1       9.624  -3.278  22.266  1.00 14.89 LIG 0.28  C 
BRANCH 12 13
ATOM     13  CB  VAL B   1      10.934  -3.732  22.929  1.00 17.39 LIG 0.02  C 
ATOM     14  CG2 VAL B   1      11.306  -5.128  22.586  1.00 22.29 LIG 0.01  C 
ATOM     15  CG1 VAL B   1      10.861  -3.627  24.425  1.00 17.29 LIG 0.01  C 
ENDBRANCH 12 13
BRANCH 12 16
ATOM     16  N   VAL B   1       9.783  -3.270  20.806  1.00 15.02 LIG-0.07  N 
ATOM     17 H2   VAL B   1       9.439  -2.520  20.474  1.00 15.02 LIG 0.28  HD
ATOM     18 H3   VAL B   1      10.648  -3.314  20.601  1.00 15.02 LIG 0.28  HD
ATOM     19 H1   VAL B   1       9.360  -3.971  20.456  1.00 15.02 LIG 0.28  HD
ENDBRANCH 12 16
ENDBRANCH 9 12
ENDBRANCH 7 8
BRANCH 7 20
ATOM     20  CB  ASP B   2       6.078  -0.643  24.165  1.00 16.98 LIG 0.15  C 
BRANCH 20 21
ATOM     21  CG  ASP B   2       5.493   0.625  24.745  1.00 17.41 LIG 0.17  C 
ATOM     22 OD1  ASP B   2       5.122   0.608  25.954  1.00 15.73 LIG-0.65  OA
ATOM     23 OD2  ASP B   2       5.383   1.636  23.987  1.00 22.30 LIG-0.65  OA
ENDBRANCH 20 21
ENDBRANCH 7 20
ENDBRANCH 4 7
ENDBRANCH 1 3
BRANCH 1 24
ATOM     24  C   ALA B   3      10.544   1.099  26.638  1.00 21.51 LIG 0.24  C 
ATOM     25  N   VAL B   4      11.469   1.227  25.692  1.00 22.67 LIG-0.35  N 
ATOM     26 H    VAL B   4      11.323   1.589  24.926  1.00 22.67 LIG 0.16  HD
ATOM     27 O    ALA B   3      10.713   0.424  27.656  1.00 22.81 LIG-0.27  OA
BRANCH 25 28
ATOM     28  CA  VAL B   4      12.841   0.750  25.885  1.00 26.45 LIG 0.18  C 
BRANCH 28 29
ATOM     29  CB  VAL B   4      13.465   0.255  24.560  1.00 30.01 LIG 0.01  C 
ATOM     30  CG2 VAL B   4      13.888   1.437  23.690  1.00 31.20 LIG 0.01  C 
ATOM     31  CG1 VAL B   4      12.491  -0.648  23.806  1.00 33.02 LIG 0.01  C 
ENDBRANCH 28 29
BRANCH 28 32
ATOM     32  C   VAL B   4      13.641   1.932  26.442  1.00 25.61 LIG 0.24  C 
ATOM     33  N   ASN B   5      12.945   2.953  26.932  1.00 29.33 LIG-0.35  N 
ATOM     34 H    ASN B   5      12.085   2.969  26.968  1.00 29.33 LIG 0.16  HD
ATOM     35 O    VAL B   4      14.871   1.920  26.391  1.00 29.65 LIG-0.27  OA
BRANCH 33 36
ATOM     36  CA  ASN B   5      13.592   4.165  27.465  1.00 34.74 LIG 0.17  C 
BRANCH 36 37
ATOM     37  CB  ASN B   5      12.532   5.228  27.737  1.00 42.44 LIG 0.14  C 
BRANCH 37 38
ATOM     38  CG  ASN B   5      11.681   5.513  26.514  1.00 45.23 LIG 0.22  C 
ATOM     39 OD1  ASN B   5      12.040   6.339  25.690  1.00 53.97 LIG-0.27  OA
ATOM     40  ND2 ASN B   5      10.526   4.862  26.416  1.00 50.63 LIG-0.37  N 
ATOM     41 21HD ASN B   5      10.000   5.017  25.754  1.00 50.63 LIG 0.16  HD
ATOM     42 22HD ASN B   5      10.305   4.286  27.016  1.00 50.63 LIG 0.16  HD
ENDBRANCH 37 38
ENDBRANCH 36 37
BRANCH 36 43
ATOM     43  C   ASN B   5      14.402   3.889  28.721  1.00 38.04 LIG 0.22  C 
ATOM     44 O    ASN B   5      14.665   4.805  29.494  1.00 41.05 LIG-0.29  OA
ENDBRANCH 36 43
ENDBRANCH 33 36
ENDBRANCH 28 32
ENDBRANCH 25 28
ENDBRANCH 1 24
TORSDOF 16
ENDMDL
MODEL 20
USER: ADFR SOLUTION from run 10
USER: SCORE 10.325772 LL:  -2.844 LR:  -8.843 RR:   0.000 FEB:  -4.070
USER: RMSD 3.930294
USER: SEED 231966
USER: STATUS no improvement in best in 26 clusters for 5 generations
USER: GENES 18
USER: genes 0 Translation |==|  0.59252 0.51579 0.45082
USER: genes 1 Rotation |==|  0.30232 0.54709 0.48211 0.95649
USER: genes 2 Torsion [CB]-CA--N-[C] |==|  0.23809
USER: genes 3 Torsion [N]-C--CA-[N] |==|  0.42885
USER: genes 4 Torsion [C]-CA--N-[C] |==|  0.81084
USER: genes 5 Torsion [N]-C--CA-[N] |==|  0.40480
USER: genes 6 Torsion [C]-CA--CB-[CG2] |==|  0.21562
USER: genes 7 Torsion [C]-CA--N-[H2] |==|  0.29743
USER: genes 8 Torsion [C]-CA--CB-[CG] |==|  0.51610
USER: genes 9 Torsion [CA]-CB--CG-[OD2] |==|  0.16874
USER: genes 10 Torsion [N]-CA--C-[N] |==|  0.87498
USER: genes 11 Torsion [C]-N--CA-[CB] |==|  0.87562
USER: genes 12 Torsion [N]-CA--CB-[CG2] |==|  0.83766
USER: genes 13 Torsion [N]-CA--C-[N] |==|  0.38641
USER: genes 14 Torsion [C]-N--CA-[CB] |==|  0.27771
USER: genes 15 Torsion [N]-CA--CB-[CG] |==|  0.60293
USER: genes 16 Torsion [CA]-CB--CG-[OD1] |==|  0.88128
USER: genes 17 Torsion [N]-CA--C-[O] |==|  0.21305
ROOT
ATOM      1  CA  ALA B   3      12.511   0.012  25.023  1.00 18.86 LIG 0.17  C 
ATOM      2  CB  ALA B   3      13.422   0.024  23.797  1.00 19.35 LIG 0.04  C 
ENDROOT
BRANCH 1 3
ATOM      3  N   ALA B   3      11.125  -0.107  24.592  1.00 16.29 LIG-0.35  N 
ATOM      4  C   ASP B   2      10.547  -1.275  24.349  1.00 15.20 LIG 0.24  C 
ATOM      5 O    ASP B   2      11.120  -2.361  24.540  1.00 18.35 LIG-0.27  OA
ATOM      6 H    ALA B   3      10.720   0.647  24.510  1.00 16.29 LIG 0.16  HD
BRANCH 4 7
ATOM      7  CA  ASP B   2       9.114  -1.218  23.800  1.00 15.30 LIG 0.19  C 
BRANCH 7 8
ATOM      8  N   ASP B   2       8.792  -2.401  23.031  1.00 15.19 LIG-0.34  N 
ATOM      9  C   VAL B   1       9.371  -2.654  21.871  1.00 14.82 LIG 0.25  C 
ATOM     10 O    VAL B   1      10.170  -1.878  21.344  1.00 14.79 LIG-0.27  OA
ATOM     11 H    ASP B   2       8.202  -2.911  23.394  1.00 15.19 LIG 0.16  HD
BRANCH 9 12
ATOM     12  CA  VAL B   1       8.939  -3.937  21.169  1.00 14.89 LIG 0.28  C 
BRANCH 12 13
ATOM     13  CB  VAL B   1       9.835  -5.138  21.508  1.00 17.39 LIG 0.02  C 
ATOM     14  CG2 VAL B   1       9.545  -5.721  22.843  1.00 22.29 LIG 0.01  C 
ATOM     15  CG1 VAL B   1      11.290  -4.771  21.471  1.00 17.29 LIG 0.01  C 
ENDBRANCH 12 13
BRANCH 12 16
ATOM     16  N   VAL B   1       8.965  -3.691  19.721  1.00 15.02 LIG-0.07  N 
ATOM     17 H2   VAL B   1       9.659  -4.115  19.361  1.00 15.02 LIG 0.28  HD
ATOM     18 H3   VAL B   1       8.212  -3.992  19.355  1.00 15.02 LIG 0.28  HD
ATOM     19 H1   VAL B   1       9.040  -2.817  19.569  1.00 15.02 LIG 0.28  HD
ENDBRANCH 12 16
ENDBRANCH 9 12
ENDBRANCH 7 8
BRANCH 7 20
ATOM     20  CB  ASP B   2       8.081  -0.997  24.907  1.00 16.98 LIG 0.15  C 
BRANCH 20 21
ATOM     21  CG  ASP B   2       6.655  -1.076  24.410  1.00 17.41 LIG 0.17  C 
ATOM     22 OD1  ASP B   2       5.919  -0.058  24.558  1.00 15.73 LIG-0.65  OA
ATOM     23 OD2  ASP B   2       6.261  -2.163  23.890  1.00 22.30 LIG-0.65  OA
ENDBRANCH 20 21
ENDBRANCH 7 20
ENDBRANCH 4 7
ENDBRANCH 1 3
BRANCH 1 24
ATOM     24  C   ALA B   3      12.720   1.274  25.861  1.00 21.51 LIG 0.24  C 
ATOM     25  N   VAL B   4      12.165   2.387  25.393  1.00 22.67 LIG-0.35  N 
ATOM     26 H    VAL B   4      11.818   2.457  24.609  1.00 22.67 LIG 0.16  HD
ATOM     27 O    ALA B   3      13.368   1.235  26.909  1.00 22.81 LIG-0.27  OA
BRANCH 25 28
ATOM     28  CA  VAL B   4      12.100   3.612  26.195  1.00 26.45 LIG 0.18  C 
BRANCH 28 29
ATOM     29  CB  VAL B   4      11.652   3.321  27.646  1.00 30.01 LIG 0.01  C 
ATOM     30  CG2 VAL B   4      10.283   2.645  27.661  1.00 31.20 LIG 0.01  C 
ATOM     31  CG1 VAL B   4      11.629   4.604  28.474  1.00 33.02 LIG 0.01  C 
ENDBRANCH 28 29
BRANCH 28 32
ATOM     32  C   VAL B   4      13.507   4.218  26.184  1.00 25.61 LIG 0.24  C 
ATOM     33  N   ASN B   5      13.593   5.538  26.057  1.00 29.33 LIG-0.35  N 
ATOM     34 H    ASN B   5      12.909   6.057  26.004  1.00 29.33 LIG 0.16  HD
ATOM     35 O    VAL B   4      14.493   3.483  26.255  1.00 29.65 LIG-0.27  OA
BRANCH 33 36
ATOM     36  CA  ASN B   5      14.887   6.242  25.998  1.00 34.74 LIG 0.17  C 
BRANCH 36 37
ATOM     37  CB  ASN B   5      15.222   6.566  24.545  1.00 42.44 LIG 0.14  C 
BRANCH 37 38
ATOM     38  CG  ASN B   5      16.705   6.429  24.254  1.00 45.23 LIG 0.22  C 
ATOM     39 OD1  ASN B   5      17.531   6.853  25.046  1.00 53.97 LIG-0.27  OA
ATOM     40  ND2 ASN B   5      17.044   5.877  23.094  1.00 50.63 LIG-0.37  N 
ATOM     41 21HD ASN B   5      17.873   5.807  22.877  1.00 50.63 LIG 0.16  HD
ATOM     42 22HD ASN B   5      16.434   5.588  22.560  1.00 50.63 LIG 0.16  HD
ENDBRANCH 37 38
ENDBRANCH 36 37
BRANCH 36 43
ATOM     43  C   ASN B   5      14.903   7.506  26.841  1.00 38.04 LIG 0.22  C 
ATOM     44 O    ASN B   5      15.013   7.427  28.061  1.00 41.05 LIG-0.29  OA
ENDBRANCH 36 43
ENDBRANCH 33 36
ENDBRANCH 28 32
ENDBRANCH 25 28
ENDBRANCH 1 24
TORSDOF 16
ENDMDL
MODEL 21
USER: ADFR SOLUTION from run 173
USER: SCORE 9.648778 LL:  -2.776 LR:  -8.812 RR:   0.000 FEB:  -4.039
USER: RMSD 4.151227
USER: SEED 172
USER: STATUS no improvement in best in 22 clusters for 5 generations
USER: GENES 18
USER: genes 0 Translation |==|  0.61796 0.47979 0.42522
USER: genes 1 Rotation |==|  0.35997 0.44960 0.65592 0.95115
USER: genes 2 Torsion [CB]-CA--N-[C] |==|  0.40561
USER: genes 3 Torsion [N]-C--CA-[N] |==|  0.44005
USER: genes 4 Torsion [C]-CA--N-[C] |==|  0.68439
USER: genes 5 Torsion [N]-C--CA-[N] |==|  0.58144
USER: genes 6 Torsion [C]-CA--CB-[CG2] |==|  0.82223
USER: genes 7 Torsion [C]-CA--N-[H2] |==|  0.94545
USER: genes 8 Torsion [C]-CA--CB-[CG] |==|  0.19474
USER: genes 9 Torsion [CA]-CB--CG-[OD2] |==|  0.02260
USER: genes 10 Torsion [N]-CA--C-[N] |==|  0.71623
USER: genes 11 Torsion [C]-N--CA-[CB] |==|  0.86480
USER: genes 12 Torsion [N]-CA--CB-[CG2] |==|  0.86957
USER: genes 13 Torsion [N]-CA--C-[N] |==|  0.36300
USER: genes 14 Torsion [C]-N--CA-[CB] |==|  0.46952
USER: genes 15 Torsion [N]-CA--CB-[CG] |==|  0.92065
USER: genes 16 Torsion [CA]-CB--CG-[OD1] |==|  0.75375
USER: genes 17 Torsion [N]-CA--C-[O] |==|  0.97045
ROOT
ATOM      1  CA  ALA B   3      12.950  -0.636  24.486  1.00 18.86 LIG 0.17  C 
ATOM      2  CB  ALA B   3      13.560   0.325  23.467  1.00 19.35 LIG 0.04  C 
ENDROOT
BRANCH 1 3
ATOM      3  N   ALA B   3      12.054  -1.557  23.801  1.00 16.29 LIG-0.35  N 
ATOM      4  C   ASP B   2      11.894  -2.817  24.179  1.00 15.20 LIG 0.24  C 
ATOM      5 O    ASP B   2      12.439  -3.289  25.191  1.00 18.35 LIG-0.27  OA
ATOM      6 H    ALA B   3      11.641  -1.209  23.131  1.00 16.29 LIG 0.16  HD
BRANCH 4 7
ATOM      7  CA  ASP B   2      10.994  -3.682  23.284  1.00 15.30 LIG 0.19  C 
BRANCH 7 8
ATOM      8  N   ASP B   2      11.267  -5.092  23.460  1.00 15.19 LIG-0.34  N 
ATOM      9  C   VAL B   1      11.785  -5.825  22.491  1.00 14.82 LIG 0.25  C 
ATOM     10 O    VAL B   1      12.011  -5.375  21.366  1.00 14.79 LIG-0.27  OA
ATOM     11 H    ASP B   2      11.064  -5.399  24.238  1.00 15.19 LIG 0.16  HD
BRANCH 9 12
ATOM     12  CA  VAL B   1      12.023  -7.296  22.813  1.00 14.89 LIG 0.28  C 
BRANCH 12 13
ATOM     13  CB  VAL B   1      12.305  -7.547  24.303  1.00 17.39 LIG 0.02  C 
ATOM     14  CG2 VAL B   1      13.559  -6.905  24.774  1.00 22.29 LIG 0.01  C 
ATOM     15  CG1 VAL B   1      12.394  -9.014  24.610  1.00 17.29 LIG 0.01  C 
ENDBRANCH 12 13
BRANCH 12 16
ATOM     16  N   VAL B   1      13.162  -7.758  22.009  1.00 15.02 LIG-0.07  N 
ATOM     17 H2   VAL B   1      13.285  -7.204  21.323  1.00 15.02 LIG 0.28  HD
ATOM     18 H3   VAL B   1      13.895  -7.772  22.513  1.00 15.02 LIG 0.28  HD
ATOM     19 H1   VAL B   1      12.997  -8.577  21.702  1.00 15.02 LIG 0.28  HD
ENDBRANCH 12 16
ENDBRANCH 9 12
ENDBRANCH 7 8
BRANCH 7 20
ATOM     20  CB  ASP B   2       9.508  -3.389  23.506  1.00 16.98 LIG 0.15  C 
BRANCH 20 21
ATOM     21  CG  ASP B   2       9.088  -2.032  22.987  1.00 17.41 LIG 0.17  C 
ATOM     22 OD1  ASP B   2       7.914  -1.637  23.243  1.00 15.73 LIG-0.65  OA
ATOM     23 OD2  ASP B   2       9.925  -1.366  22.305  1.00 22.30 LIG-0.65  OA
ENDBRANCH 20 21
ENDBRANCH 7 20
ENDBRANCH 4 7
ENDBRANCH 1 3
BRANCH 1 24
ATOM     24  C   ALA B   3      12.213   0.137  25.580  1.00 21.51 LIG 0.24  C 
ATOM     25  N   VAL B   4      11.874   1.388  25.288  1.00 22.67 LIG-0.35  N 
ATOM     26 H    VAL B   4      12.150   1.809  24.591  1.00 22.67 LIG 0.16  HD
ATOM     27 O    ALA B   3      11.958  -0.394  26.664  1.00 22.81 LIG-0.27  OA
BRANCH 25 28
ATOM     28  CA  VAL B   4      10.982   2.166  26.152  1.00 26.45 LIG 0.18  C 
BRANCH 28 29
ATOM     29  CB  VAL B   4       9.710   1.369  26.524  1.00 30.01 LIG 0.01  C 
ATOM     30  CG2 VAL B   4       9.102   0.715  25.285  1.00 31.20 LIG 0.01  C 
ATOM     31  CG1 VAL B   4       8.688   2.271  27.213  1.00 33.02 LIG 0.01  C 
ENDBRANCH 28 29
BRANCH 28 32
ATOM     32  C   VAL B   4      11.782   2.509  27.412  1.00 25.61 LIG 0.24  C 
ATOM     33  N   ASN B   5      11.771   3.780  27.804  1.00 29.33 LIG-0.35  N 
ATOM     34 H    ASN B   5      11.328   4.398  27.403  1.00 29.33 LIG 0.16  HD
ATOM     35 O    VAL B   4      12.424   1.633  27.991  1.00 29.65 LIG-0.27  OA
BRANCH 33 36
ATOM     36  CA  ASN B   5      12.527   4.249  28.980  1.00 34.74 LIG 0.17  C 
BRANCH 36 37
ATOM     37  CB  ASN B   5      12.531   5.774  29.004  1.00 42.44 LIG 0.14  C 
BRANCH 37 38
ATOM     38  CG  ASN B   5      12.426   6.369  27.613  1.00 45.23 LIG 0.22  C 
ATOM     39 OD1  ASN B   5      13.432   6.588  26.957  1.00 53.97 LIG-0.27  OA
ATOM     40  ND2 ASN B   5      11.209   6.676  27.178  1.00 50.63 LIG-0.37  N 
ATOM     41 21HD ASN B   5      11.107   7.043  26.407  1.00 50.63 LIG 0.16  HD
ATOM     42 22HD ASN B   5      10.522   6.508  27.667  1.00 50.63 LIG 0.16  HD
ENDBRANCH 37 38
ENDBRANCH 36 37
BRANCH 36 43
ATOM     43  C   ASN B   5      11.978   3.697  30.284  1.00 38.04 LIG 0.22  C 
ATOM     44 O    ASN B   5      10.900   3.113  30.297  1.00 41.05 LIG-0.29  OA
ENDBRANCH 36 43
ENDBRANCH 33 36
ENDBRANCH 28 32
ENDBRANCH 25 28
ENDBRANCH 1 24
TORSDOF 16
ENDMDL
MODEL 22
USER: ADFR SOLUTION from run 102
USER: SCORE 10.657358 LL:  -3.279 LR:  -8.805 RR:   0.000 FEB:  -4.032
USER: RMSD 3.608659
USER: SEED 101
USER: STATUS no improvement in best in 11 clusters for 5 generations
USER: GENES 18
USER: genes 0 Translation |==|  0.60544 0.53071 0.44722
USER: genes 1 Rotation |==|  0.21478 0.55281 0.45747 0.90503
USER: genes 2 Torsion [CB]-CA--N-[C] |==|  0.16179
USER: genes 3 Torsion [N]-C--CA-[N] |==|  0.44342
USER: genes 4 Torsion [C]-CA--N-[C] |==|  0.80360
USER: genes 5 Torsion [N]-C--CA-[N] |==|  0.42063
USER: genes 6 Torsion [C]-CA--CB-[CG2] |==|  0.11557
USER: genes 7 Torsion [C]-CA--N-[H2] |==|  0.31240
USER: genes 8 Torsion [C]-CA--CB-[CG] |==|  0.24977
USER: genes 9 Torsion [CA]-CB--CG-[OD2] |==|  0.19494
USER: genes 10 Torsion [N]-CA--C-[N] |==|  0.12340
USER: genes 11 Torsion [C]-N--CA-[CB] |==|  0.51667
USER: genes 12 Torsion [N]-CA--CB-[CG2] |==|  0.86676
USER: genes 13 Torsion [N]-CA--C-[N] |==|  0.87048
USER: genes 14 Torsion [C]-N--CA-[CB] |==|  0.33735
USER: genes 15 Torsion [N]-CA--CB-[CG] |==|  0.76383
USER: genes 16 Torsion [CA]-CB--CG-[OD1] |==|  0.25810
USER: genes 17 Torsion [N]-CA--C-[O] |==|  0.09574
ROOT
ATOM      1  CA  ALA B   3      12.734   0.281  24.948  1.00 18.86 LIG 0.17  C 
ATOM      2  CB  ALA B   3      13.608  -0.267  23.821  1.00 19.35 LIG 0.04  C 
ENDROOT
BRANCH 1 3
ATOM      3  N   ALA B   3      11.331   0.102  24.599  1.00 16.29 LIG-0.35  N 
ATOM      4  C   ASP B   2      10.802  -1.084  24.336  1.00 15.20 LIG 0.24  C 
ATOM      5 O    ASP B   2      11.444  -2.143  24.439  1.00 18.35 LIG-0.27  OA
ATOM      6 H    ALA B   3      10.881   0.835  24.579  1.00 16.29 LIG 0.16  HD
BRANCH 4 7
ATOM      7  CA  ASP B   2       9.335  -1.084  23.881  1.00 15.30 LIG 0.19  C 
BRANCH 7 8
ATOM      8  N   ASP B   2       8.996  -2.305  23.182  1.00 15.19 LIG-0.34  N 
ATOM      9  C   VAL B   1       9.465  -2.567  21.976  1.00 14.82 LIG 0.25  C 
ATOM     10 O    VAL B   1      10.165  -1.772  21.347  1.00 14.79 LIG-0.27  OA
ATOM     11 H    ASP B   2       8.471  -2.829  23.618  1.00 15.19 LIG 0.16  HD
BRANCH 9 12
ATOM     12  CA  VAL B   1       9.027  -3.891  21.357  1.00 14.89 LIG 0.28  C 
BRANCH 12 13
ATOM     13  CB  VAL B   1       9.936  -5.066  21.748  1.00 17.39 LIG 0.02  C 
ATOM     14  CG2 VAL B   1      10.331  -5.044  23.180  1.00 22.29 LIG 0.01  C 
ATOM     15  CG1 VAL B   1      11.190  -5.094  20.924  1.00 17.29 LIG 0.01  C 
ENDBRANCH 12 13
BRANCH 12 16
ATOM     16  N   VAL B   1       9.026  -3.729  19.897  1.00 15.02 LIG-0.07  N 
ATOM     17 H2   VAL B   1       9.668  -4.232  19.542  1.00 15.02 LIG 0.28  HD
ATOM     18 H3   VAL B   1       8.237  -3.982  19.571  1.00 15.02 LIG 0.28  HD
ATOM     19 H1   VAL B   1       9.171  -2.875  19.692  1.00 15.02 LIG 0.28  HD
ENDBRANCH 12 16
ENDBRANCH 9 12
ENDBRANCH 7 8
BRANCH 7 20
ATOM     20  CB  ASP B   2       8.371  -0.842  25.045  1.00 16.98 LIG 0.15  C 
BRANCH 20 21
ATOM     21  CG  ASP B   2       8.070   0.623  25.270  1.00 17.41 LIG 0.17  C 
ATOM     22 OD1  ASP B   2       8.523   1.166  26.319  1.00 15.73 LIG-0.65  OA
ATOM     23 OD2  ASP B   2       7.364   1.229  24.409  1.00 22.30 LIG-0.65  OA
ENDBRANCH 20 21
ENDBRANCH 7 20
ENDBRANCH 4 7
ENDBRANCH 1 3
BRANCH 1 24
ATOM     24  C   ALA B   3      13.053   1.753  25.209  1.00 21.51 LIG 0.24  C 
ATOM     25  N   VAL B   4      12.177   2.420  25.953  1.00 22.67 LIG-0.35  N 
ATOM     26 H    VAL B   4      11.407   2.112  26.179  1.00 22.67 LIG 0.16  HD
ATOM     27 O    ALA B   3      14.073   2.268  24.746  1.00 22.81 LIG-0.27  OA
BRANCH 25 28
ATOM     28  CA  VAL B   4      12.463   3.765  26.460  1.00 26.45 LIG 0.18  C 
BRANCH 28 29
ATOM     29  CB  VAL B   4      11.355   4.261  27.417  1.00 30.01 LIG 0.01  C 
ATOM     30  CG2 VAL B   4       9.974   4.033  26.807  1.00 31.20 LIG 0.01  C 
ATOM     31  CG1 VAL B   4      11.556   5.736  27.760  1.00 33.02 LIG 0.01  C 
ENDBRANCH 28 29
BRANCH 28 32
ATOM     32  C   VAL B   4      13.804   3.679  27.197  1.00 25.61 LIG 0.24  C 
ATOM     33  N   ASN B   5      13.962   2.664  28.042  1.00 29.33 LIG-0.35  N 
ATOM     34 H    ASN B   5      13.368   2.057  28.173  1.00 29.33 LIG 0.16  HD
ATOM     35 O    VAL B   4      14.660   4.546  27.019  1.00 29.65 LIG-0.27  OA
BRANCH 33 36
ATOM     36  CA  ASN B   5      15.190   2.486  28.838  1.00 34.74 LIG 0.17  C 
BRANCH 36 37
ATOM     37  CB  ASN B   5      14.835   2.479  30.322  1.00 42.44 LIG 0.14  C 
BRANCH 37 38
ATOM     38  CG  ASN B   5      14.754   3.880  30.898  1.00 45.23 LIG 0.22  C 
ATOM     39 OD1  ASN B   5      13.688   4.472  30.936  1.00 53.97 LIG-0.27  OA
ATOM     40  ND2 ASN B   5      15.893   4.431  31.306  1.00 50.63 LIG-0.37  N 
ATOM     41 21HD ASN B   5      15.896   5.235  31.611  1.00 50.63 LIG 0.16  HD
ATOM     42 22HD ASN B   5      16.626   3.984  31.265  1.00 50.63 LIG 0.16  HD
ENDBRANCH 37 38
ENDBRANCH 36 37
BRANCH 36 43
ATOM     43  C   ASN B   5      15.948   1.223  28.467  1.00 38.04 LIG 0.22  C 
ATOM     44 O    ASN B   5      15.957   0.833  27.304  1.00 41.05 LIG-0.29  OA
ENDBRANCH 36 43
ENDBRANCH 33 36
ENDBRANCH 28 32
ENDBRANCH 25 28
ENDBRANCH 1 24
TORSDOF 16
ENDMDL
MODEL 23
USER: ADFR SOLUTION from run 184
USER: SCORE 9.461745 LL:  -3.300 LR:  -8.747 RR:   0.000 FEB:  -3.974
USER: RMSD 4.152894
USER: SEED 183
USER: STATUS no improvement in best in 24 clusters for 5 generations
USER: GENES 18
USER: genes 0 Translation |==|  0.61676 0.47468 0.42469
USER: genes 1 Rotation |==|  0.36433 0.45385 0.64725 0.95583
USER: genes 2 Torsion [CB]-CA--N-[C] |==|  0.37979
USER: genes 3 Torsion [N]-C--CA-[N] |==|  0.47171
USER: genes 4 Torsion [C]-CA--N-[C] |==|  0.70250
USER: genes 5 Torsion [N]-C--CA-[N] |==|  0.55022
USER: genes 6 Torsion [C]-CA--CB-[CG2] |==|  0.21954
USER: genes 7 Torsion [C]-CA--N-[H2] |==|  0.84414
USER: genes 8 Torsion [C]-CA--CB-[CG] |==|  0.20460
USER: genes 9 Torsion [CA]-CB--CG-[OD2] |==|  0.53075
USER: genes 10 Torsion [N]-CA--C-[N] |==|  0.74176
USER: genes 11 Torsion [C]-N--CA-[CB] |==|  0.81111
USER: genes 12 Torsion [N]-CA--CB-[CG2] |==|  0.88542
USER: genes 13 Torsion [N]-CA--C-[N] |==|  0.16290
USER: genes 14 Torsion [C]-N--CA-[CB] |==|  0.35782
USER: genes 15 Torsion [N]-CA--CB-[CG] |==|  0.88773
USER: genes 16 Torsion [CA]-CB--CG-[OD1] |==|  0.34774
USER: genes 17 Torsion [N]-CA--C-[O] |==|  0.81996
ROOT
ATOM      1  CA  ALA B   3      12.929  -0.728  24.474  1.00 18.86 LIG 0.17  C 
ATOM      2  CB  ALA B   3      13.565   0.228  23.467  1.00 19.35 LIG 0.04  C 
ENDROOT
BRANCH 1 3
ATOM      3  N   ALA B   3      11.988  -1.599  23.784  1.00 16.29 LIG-0.35  N 
ATOM      4  C   ASP B   2      11.910  -2.901  24.020  1.00 15.20 LIG 0.24  C 
ATOM      5 O    ASP B   2      12.582  -3.466  24.900  1.00 18.35 LIG-0.27  OA
ATOM      6 H    ALA B   3      11.492  -1.192  23.212  1.00 16.29 LIG 0.16  HD
BRANCH 4 7
ATOM      7  CA  ASP B   2      10.939  -3.691  23.130  1.00 15.30 LIG 0.19  C 
BRANCH 7 8
ATOM      8  N   ASP B   2      11.101  -5.119  23.305  1.00 15.19 LIG-0.34  N 
ATOM      9  C   VAL B   1      11.671  -5.870  22.380  1.00 14.82 LIG 0.25  C 
ATOM     10 O    VAL B   1      12.043  -5.421  21.295  1.00 14.79 LIG-0.27  OA
ATOM     11 H    ASP B   2      10.798  -5.422  24.050  1.00 15.19 LIG 0.16  HD
BRANCH 9 12
ATOM     12  CA  VAL B   1      11.779  -7.359  22.695  1.00 14.89 LIG 0.28  C 
BRANCH 12 13
ATOM     13  CB  VAL B   1      12.157  -7.638  24.158  1.00 17.39 LIG 0.02  C 
ATOM     14  CG2 VAL B   1      11.008  -7.511  25.090  1.00 22.29 LIG 0.01  C 
ATOM     15  CG1 VAL B   1      13.241  -6.714  24.634  1.00 17.29 LIG 0.01  C 
ENDBRANCH 12 13
BRANCH 12 16
ATOM     16  N   VAL B   1      12.790  -7.939  21.802  1.00 15.02 LIG-0.07  N 
ATOM     17 H2   VAL B   1      12.570  -7.771  20.956  1.00 15.02 LIG 0.28  HD
ATOM     18 H3   VAL B   1      13.584  -7.578  21.978  1.00 15.02 LIG 0.28  HD
ATOM     19 H1   VAL B   1      12.830  -8.819  21.929  1.00 15.02 LIG 0.28  HD
ENDBRANCH 12 16
ENDBRANCH 9 12
ENDBRANCH 7 8
BRANCH 7 20
ATOM     20  CB  ASP B   2       9.482  -3.282  23.361  1.00 16.98 LIG 0.15  C 
BRANCH 20 21
ATOM     21  CG  ASP B   2       9.147  -1.931  22.769  1.00 17.41 LIG 0.17  C 
ATOM     22 OD1  ASP B   2       9.999  -1.390  22.007  1.00 15.73 LIG-0.65  OA
ATOM     23 OD2  ASP B   2       8.039  -1.399  23.080  1.00 22.30 LIG-0.65  OA
ENDBRANCH 20 21
ENDBRANCH 7 20
ENDBRANCH 4 7
ENDBRANCH 1 3
BRANCH 1 24
ATOM     24  C   ALA B   3      12.238   0.052  25.593  1.00 21.51 LIG 0.24  C 
ATOM     25  N   VAL B   4      11.776   1.256  25.270  1.00 22.67 LIG-0.35  N 
ATOM     26 H    VAL B   4      11.953   1.654  24.529  1.00 22.67 LIG 0.16  HD
ATOM     27 O    ALA B   3      12.126  -0.431  26.722  1.00 22.81 LIG-0.27  OA
BRANCH 25 28
ATOM     28  CA  VAL B   4      10.909   2.016  26.174  1.00 26.45 LIG 0.18  C 
BRANCH 28 29
ATOM     29  CB  VAL B   4       9.522   1.351  26.328  1.00 30.01 LIG 0.01  C 
ATOM     30  CG2 VAL B   4       9.019   0.837  24.981  1.00 31.20 LIG 0.01  C 
ATOM     31  CG1 VAL B   4       8.518   2.325  26.943  1.00 33.02 LIG 0.01  C 
ENDBRANCH 28 29
BRANCH 28 32
ATOM     32  C   VAL B   4      11.626   2.070  27.527  1.00 25.61 LIG 0.24  C 
ATOM     33  N   ASN B   5      12.836   2.621  27.545  1.00 29.33 LIG-0.35  N 
ATOM     34 H    ASN B   5      13.215   2.959  26.850  1.00 29.33 LIG 0.16  HD
ATOM     35 O    VAL B   4      11.094   1.585  28.525  1.00 29.65 LIG-0.27  OA
BRANCH 33 36
ATOM     36  CA  ASN B   5      13.647   2.704  28.773  1.00 34.74 LIG 0.17  C 
BRANCH 36 37
ATOM     37  CB  ASN B   5      15.040   2.146  28.500  1.00 42.44 LIG 0.14  C 
BRANCH 37 38
ATOM     38  CG  ASN B   5      14.999   0.904  27.628  1.00 45.23 LIG 0.22  C 
ATOM     39 OD1  ASN B   5      15.645   0.853  26.595  1.00 53.97 LIG-0.27  OA
ATOM     40  ND2 ASN B   5      14.199  -0.082  28.021  1.00 50.63 LIG-0.37  N 
ATOM     41 21HD ASN B   5      14.123  -0.791  27.541  1.00 50.63 LIG 0.16  HD
ATOM     42 22HD ASN B   5      13.758  -0.012  28.756  1.00 50.63 LIG 0.16  HD
ENDBRANCH 37 38
ENDBRANCH 36 37
BRANCH 36 43
ATOM     43  C   ASN B   5      13.739   4.119  29.317  1.00 38.04 LIG 0.22  C 
ATOM     44 O    ASN B   5      14.306   4.991  28.665  1.00 41.05 LIG-0.29  OA
ENDBRANCH 36 43
ENDBRANCH 33 36
ENDBRANCH 28 32
ENDBRANCH 25 28
ENDBRANCH 1 24
TORSDOF 16
ENDMDL
MODEL 24
USER: ADFR SOLUTION from run 39
USER: SCORE 9.951133 LL:  -2.693 LR:  -8.737 RR:   0.000 FEB:  -3.965
USER: RMSD 3.357742
USER: SEED 38
USER: STATUS no improvement in best in 15 clusters for 5 generations
USER: GENES 18
USER: genes 0 Translation |==|  0.59977 0.52199 0.45239
USER: genes 1 Rotation |==|  0.32693 0.54818 0.48672 0.96642
USER: genes 2 Torsion [CB]-CA--N-[C] |==|  0.25949
USER: genes 3 Torsion [N]-C--CA-[N] |==|  0.43272
USER: genes 4 Torsion [C]-CA--N-[C] |==|  0.80330
USER: genes 5 Torsion [N]-C--CA-[N] |==|  0.41231
USER: genes 6 Torsion [C]-CA--CB-[CG2] |==|  0.15374
USER: genes 7 Torsion [C]-CA--N-[H2] |==|  0.98237
USER: genes 8 Torsion [C]-CA--CB-[CG] |==|  0.26943
USER: genes 9 Torsion [CA]-CB--CG-[OD2] |==|  0.22399
USER: genes 10 Torsion [N]-CA--C-[N] |==|  0.52916
USER: genes 11 Torsion [C]-N--CA-[CB] |==|  0.88333
USER: genes 12 Torsion [N]-CA--CB-[CG2] |==|  0.66395
USER: genes 13 Torsion [N]-CA--C-[N] |==|  0.36494
USER: genes 14 Torsion [C]-N--CA-[CB] |==|  0.29826
USER: genes 15 Torsion [N]-CA--CB-[CG] |==|  0.00459
USER: genes 16 Torsion [CA]-CB--CG-[OD1] |==|  0.70639
USER: genes 17 Torsion [N]-CA--C-[O] |==|  0.02980
ROOT
ATOM      1  CA  ALA B   3      12.636   0.124  25.056  1.00 18.86 LIG 0.17  C 
ATOM      2  CB  ALA B   3      13.542   0.274  23.835  1.00 19.35 LIG 0.04  C 
ENDROOT
BRANCH 1 3
ATOM      3  N   ALA B   3      11.249   0.041  24.619  1.00 16.29 LIG-0.35  N 
ATOM      4  C   ASP B   2      10.635  -1.112  24.397  1.00 15.20 LIG 0.24  C 
ATOM      5 O    ASP B   2      11.171  -2.212  24.614  1.00 18.35 LIG-0.27  OA
ATOM      6 H    ALA B   3      10.869   0.806  24.520  1.00 16.29 LIG 0.16  HD
BRANCH 4 7
ATOM      7  CA  ASP B   2       9.207  -1.020  23.839  1.00 15.30 LIG 0.19  C 
BRANCH 7 8
ATOM      8  N   ASP B   2       8.838  -2.220  23.120  1.00 15.19 LIG-0.34  N 
ATOM      9  C   VAL B   1       9.372  -2.520  21.950  1.00 14.82 LIG 0.25  C 
ATOM     10 O    VAL B   1      10.164  -1.775  21.370  1.00 14.79 LIG-0.27  OA
ATOM     11 H    ASP B   2       8.253  -2.708  23.520  1.00 15.19 LIG 0.16  HD
BRANCH 9 12
ATOM     12  CA  VAL B   1       8.894  -3.817  21.304  1.00 14.89 LIG 0.28  C 
BRANCH 12 13
ATOM     13  CB  VAL B   1       9.742  -5.034  21.703  1.00 17.39 LIG 0.02  C 
ATOM     14  CG2 VAL B   1       9.831  -5.225  23.174  1.00 22.29 LIG 0.01  C 
ATOM     15  CG1 VAL B   1      11.140  -4.934  21.166  1.00 17.29 LIG 0.01  C 
ENDBRANCH 12 13
BRANCH 12 16
ATOM     16  N   VAL B   1       8.936  -3.639  19.847  1.00 15.02 LIG-0.07  N 
ATOM     17 H2   VAL B   1       9.139  -2.794  19.657  1.00 15.02 LIG 0.28  HD
ATOM     18 H3   VAL B   1       9.553  -4.178  19.499  1.00 15.02 LIG 0.28  HD
ATOM     19 H1   VAL B   1       8.140  -3.838  19.500  1.00 15.02 LIG 0.28  HD
ENDBRANCH 12 16
ENDBRANCH 9 12
ENDBRANCH 7 8
BRANCH 7 20
ATOM     20  CB  ASP B   2       8.180  -0.708  24.931  1.00 16.98 LIG 0.15  C 
BRANCH 20 21
ATOM     21  CG  ASP B   2       7.834   0.762  25.015  1.00 17.41 LIG 0.17  C 
ATOM     22 OD1  ASP B   2       8.385   1.449  25.923  1.00 15.73 LIG-0.65  OA
ATOM     23 OD2  ASP B   2       6.995   1.229  24.187  1.00 22.30 LIG-0.65  OA
ENDBRANCH 20 21
ENDBRANCH 7 20
ENDBRANCH 4 7
ENDBRANCH 1 3
BRANCH 1 24
ATOM     24  C   ALA B   3      12.840   1.290  26.023  1.00 21.51 LIG 0.24  C 
ATOM     25  N   VAL B   4      14.099   1.595  26.318  1.00 22.67 LIG-0.35  N 
ATOM     26 H    VAL B   4      14.774   1.107  26.101  1.00 22.67 LIG 0.16  HD
ATOM     27 O    ALA B   3      11.874   1.899  26.489  1.00 22.81 LIG-0.27  OA
BRANCH 25 28
ATOM     28  CA  VAL B   4      14.445   2.815  27.052  1.00 26.45 LIG 0.18  C 
BRANCH 28 29
ATOM     29  CB  VAL B   4      13.625   4.029  26.560  1.00 30.01 LIG 0.01  C 
ATOM     30  CG2 VAL B   4      14.549   5.133  26.051  1.00 31.20 LIG 0.01  C 
ATOM     31  CG1 VAL B   4      12.717   4.556  27.669  1.00 33.02 LIG 0.01  C 
ENDBRANCH 28 29
BRANCH 28 32
ATOM     32  C   VAL B   4      14.149   2.536  28.529  1.00 25.61 LIG 0.24  C 
ATOM     33  N   ASN B   5      15.101   2.849  29.403  1.00 29.33 LIG-0.35  N 
ATOM     34 H    ASN B   5      15.849   3.211  29.182  1.00 29.33 LIG 0.16  HD
ATOM     35 O    VAL B   4      13.083   2.013  28.854  1.00 29.65 LIG-0.27  OA
BRANCH 33 36
ATOM     36  CA  ASN B   5      14.957   2.599  30.849  1.00 34.74 LIG 0.17  C 
BRANCH 36 37
ATOM     37  CB  ASN B   5      15.853   1.433  31.254  1.00 42.44 LIG 0.14  C 
BRANCH 37 38
ATOM     38  CG  ASN B   5      16.656   0.895  30.085  1.00 45.23 LIG 0.22  C 
ATOM     39 OD1  ASN B   5      16.355  -0.167  29.565  1.00 53.97 LIG-0.27  OA
ATOM     40  ND2 ASN B   5      17.711   1.607  29.698  1.00 50.63 LIG-0.37  N 
ATOM     41 21HD ASN B   5      18.210   1.323  29.059  1.00 50.63 LIG 0.16  HD
ATOM     42 22HD ASN B   5      17.893   2.352  30.088  1.00 50.63 LIG 0.16  HD
ENDBRANCH 37 38
ENDBRANCH 36 37
BRANCH 36 43
ATOM     43  C   ASN B   5      15.271   3.827  31.687  1.00 38.04 LIG 0.22  C 
ATOM     44 O    ASN B   5      15.408   4.920  31.145  1.00 41.05 LIG-0.29  OA
ENDBRANCH 36 43
ENDBRANCH 33 36
ENDBRANCH 28 32
ENDBRANCH 25 28
ENDBRANCH 1 24
TORSDOF 16
ENDMDL
MODEL 25
USER: ADFR SOLUTION from run 43
USER: SCORE 10.488156 LL:  -2.618 LR:  -8.744 RR:   0.000 FEB:  -3.971
USER: RMSD 4.348804
USER: SEED 42
USER: STATUS no improvement in best in 13 clusters for 5 generations
USER: GENES 18
USER: genes 0 Translation |==|  0.64993 0.50238 0.40503
USER: genes 1 Rotation |==|  0.56258 0.61008 0.61270 0.97039
USER: genes 2 Torsion [CB]-CA--N-[C] |==|  0.48333
USER: genes 3 Torsion [N]-C--CA-[N] |==|  0.32987
USER: genes 4 Torsion [C]-CA--N-[C] |==|  0.78029
USER: genes 5 Torsion [N]-C--CA-[N] |==|  0.41625
USER: genes 6 Torsion [C]-CA--CB-[CG2] |==|  0.48814
USER: genes 7 Torsion [C]-CA--N-[H2] |==|  0.69048
USER: genes 8 Torsion [C]-CA--CB-[CG] |==|  0.41460
USER: genes 9 Torsion [CA]-CB--CG-[OD2] |==|  0.19400
USER: genes 10 Torsion [N]-CA--C-[N] |==|  0.51022
USER: genes 11 Torsion [C]-N--CA-[CB] |==|  0.87222
USER: genes 12 Torsion [N]-CA--CB-[CG2] |==|  0.86699
USER: genes 13 Torsion [N]-CA--C-[N] |==|  0.36479
USER: genes 14 Torsion [C]-N--CA-[CB] |==|  0.25857
USER: genes 15 Torsion [N]-CA--CB-[CG] |==|  0.87266
USER: genes 16 Torsion [CA]-CB--CG-[OD1] |==|  0.30672
USER: genes 17 Torsion [N]-CA--C-[O] |==|  0.05089
ROOT
ATOM      1  CA  ALA B   3      13.501  -0.229  24.062  1.00 18.86 LIG 0.17  C 
ATOM      2  CB  ALA B   3      13.730   1.142  23.430  1.00 19.35 LIG 0.04  C 
ENDROOT
BRANCH 1 3
ATOM      3  N   ALA B   3      12.079  -0.541  24.033  1.00 16.29 LIG-0.35  N 
ATOM      4  C   ASP B   2      11.594  -1.716  24.408  1.00 15.20 LIG 0.24  C 
ATOM      5 O    ASP B   2      12.307  -2.617  24.882  1.00 18.35 LIG-0.27  OA
ATOM      6 H    ALA B   3      11.587   0.106  23.751  1.00 16.29 LIG 0.16  HD
BRANCH 4 7
ATOM      7  CA  ASP B   2      10.083  -1.916  24.215  1.00 15.30 LIG 0.19  C 
BRANCH 7 8
ATOM      8  N   ASP B   2       9.804  -3.008  23.309  1.00 15.19 LIG-0.34  N 
ATOM      9  C   VAL B   1       9.894  -2.865  21.999  1.00 14.82 LIG 0.25  C 
ATOM     10 O    VAL B   1      10.160  -1.786  21.466  1.00 14.79 LIG-0.27  OA
ATOM     11 H    ASP B   2       9.578  -3.742  23.697  1.00 15.19 LIG 0.16  HD
BRANCH 9 12
ATOM     12  CA  VAL B   1       9.573  -4.099  21.163  1.00 14.89 LIG 0.28  C 
BRANCH 12 13
ATOM     13  CB  VAL B   1      10.798  -4.991  20.914  1.00 17.39 LIG 0.02  C 
ATOM     14  CG2 VAL B   1      10.467  -6.244  20.186  1.00 22.29 LIG 0.01  C 
ATOM     15  CG1 VAL B   1      11.477  -5.370  22.198  1.00 17.29 LIG 0.01  C 
ENDBRANCH 12 13
BRANCH 12 16
ATOM     16  N   VAL B   1       9.020  -3.645  19.880  1.00 15.02 LIG-0.07  N 
ATOM     17 H2   VAL B   1       8.159  -3.863  19.834  1.00 15.02 LIG 0.28  HD
ATOM     18 H3   VAL B   1       9.106  -2.761  19.815  1.00 15.02 LIG 0.28  HD
ATOM     19 H1   VAL B   1       9.461  -4.035  19.212  1.00 15.02 LIG 0.28  HD
ENDBRANCH 12 16
ENDBRANCH 9 12
ENDBRANCH 7 8
BRANCH 7 20
ATOM     20  CB  ASP B   2       9.354  -2.117  25.546  1.00 16.98 LIG 0.15  C 
BRANCH 20 21
ATOM     21  CG  ASP B   2       7.934  -1.597  25.527  1.00 17.41 LIG 0.17  C 
ATOM     22 OD1  ASP B   2       7.667  -0.579  26.230  1.00 15.73 LIG-0.65  OA
ATOM     23 OD2  ASP B   2       7.078  -2.215  24.825  1.00 22.30 LIG-0.65  OA
ENDBRANCH 20 21
ENDBRANCH 7 20
ENDBRANCH 4 7
ENDBRANCH 1 3
BRANCH 1 24
ATOM     24  C   ALA B   3      14.043  -0.260  25.491  1.00 21.51 LIG 0.24  C 
ATOM     25  N   VAL B   4      15.317   0.085  25.643  1.00 22.67 LIG-0.35  N 
ATOM     26 H    VAL B   4      15.865   0.195  24.989  1.00 22.67 LIG 0.16  HD
ATOM     27 O    ALA B   3      13.318  -0.587  26.433  1.00 22.81 LIG-0.27  OA
BRANCH 25 28
ATOM     28  CA  VAL B   4      15.903   0.309  26.968  1.00 26.45 LIG 0.18  C 
BRANCH 28 29
ATOM     29  CB  VAL B   4      14.988   1.183  27.855  1.00 30.01 LIG 0.01  C 
ATOM     30  CG2 VAL B   4      14.516   2.418  27.090  1.00 31.20 LIG 0.01  C 
ATOM     31  CG1 VAL B   4      15.706   1.589  29.141  1.00 33.02 LIG 0.01  C 
ENDBRANCH 28 29
BRANCH 28 32
ATOM     32  C   VAL B   4      16.094  -1.073  27.601  1.00 25.61 LIG 0.24  C 
ATOM     33  N   ASN B   5      17.283  -1.329  28.139  1.00 29.33 LIG-0.35  N 
ATOM     34 H    ASN B   5      17.926  -0.759  28.165  1.00 29.33 LIG 0.16  HD
ATOM     35 O    VAL B   4      15.181  -1.898  27.564  1.00 29.65 LIG-0.27  OA
BRANCH 33 36
ATOM     36  CA  ASN B   5      17.608  -2.631  28.749  1.00 34.74 LIG 0.17  C 
BRANCH 36 37
ATOM     37  CB  ASN B   5      18.264  -3.530  27.705  1.00 42.44 LIG 0.14  C 
BRANCH 37 38
ATOM     38  CG  ASN B   5      17.523  -3.505  26.381  1.00 45.23 LIG 0.22  C 
ATOM     39 OD1  ASN B   5      18.023  -2.976  25.403  1.00 53.97 LIG-0.27  OA
ATOM     40  ND2 ASN B   5      16.305  -4.039  26.361  1.00 50.63 LIG-0.37  N 
ATOM     41 21HD ASN B   5      15.839  -4.019  25.640  1.00 50.63 LIG 0.16  HD
ATOM     42 22HD ASN B   5      15.984  -4.404  27.071  1.00 50.63 LIG 0.16  HD
ENDBRANCH 37 38
ENDBRANCH 36 37
BRANCH 36 43
ATOM     43  C   ASN B   5      18.501  -2.496  29.970  1.00 38.04 LIG 0.22  C 
ATOM     44 O    ASN B   5      18.597  -1.415  30.543  1.00 41.05 LIG-0.29  OA
ENDBRANCH 36 43
ENDBRANCH 33 36
ENDBRANCH 28 32
ENDBRANCH 25 28
ENDBRANCH 1 24
TORSDOF 16
ENDMDL
MODEL 26
USER: ADFR SOLUTION from run 25
USER: SCORE 9.156675 LL:  -3.052 LR:  -8.731 RR:   0.000 FEB:  -3.958
USER: RMSD 3.422859
USER: SEED 24
USER: STATUS no improvement in best in 14 clusters for 5 generations
USER: GENES 18
USER: genes 0 Translation |==|  0.65439 0.50387 0.41019
USER: genes 1 Rotation |==|  0.62886 0.53332 0.69264 0.94179
USER: genes 2 Torsion [CB]-CA--N-[C] |==|  0.53981
USER: genes 3 Torsion [N]-C--CA-[N] |==|  0.30883
USER: genes 4 Torsion [C]-CA--N-[C] |==|  0.19576
USER: genes 5 Torsion [N]-C--CA-[N] |==|  0.37761
USER: genes 6 Torsion [C]-CA--CB-[CG2] |==|  0.53183
USER: genes 7 Torsion [C]-CA--N-[H2] |==|  0.72548
USER: genes 8 Torsion [C]-CA--CB-[CG] |==|  0.47404
USER: genes 9 Torsion [CA]-CB--CG-[OD2] |==|  0.30538
USER: genes 10 Torsion [N]-CA--C-[N] |==|  0.37276
USER: genes 11 Torsion [C]-N--CA-[CB] |==|  0.48552
USER: genes 12 Torsion [N]-CA--CB-[CG2] |==|  0.82357
USER: genes 13 Torsion [N]-CA--C-[N] |==|  0.24612
USER: genes 14 Torsion [C]-N--CA-[CB] |==|  0.79551
USER: genes 15 Torsion [N]-CA--CB-[CG] |==|  0.31757
USER: genes 16 Torsion [CA]-CB--CG-[OD1] |==|  0.26486
USER: genes 17 Torsion [N]-CA--C-[O] |==|  0.09397
ROOT
ATOM      1  CA  ALA B   3      13.578  -0.202  24.170  1.00 18.86 LIG 0.17  C 
ATOM      2  CB  ALA B   3      13.542   1.325  24.168  1.00 19.35 LIG 0.04  C 
ENDROOT
BRANCH 1 3
ATOM      3  N   ALA B   3      12.326  -0.714  23.631  1.00 16.29 LIG-0.35  N 
ATOM      4  C   ASP B   2      11.952  -1.979  23.761  1.00 15.20 LIG 0.24  C 
ATOM      5 O    ASP B   2      12.606  -2.809  24.414  1.00 18.35 LIG-0.27  OA
ATOM      6 H    ALA B   3      11.854  -0.121  23.223  1.00 16.29 LIG 0.16  HD
BRANCH 4 7
ATOM      7  CA  ASP B   2      10.654  -2.376  23.042  1.00 15.30 LIG 0.19  C 
BRANCH 7 8
ATOM      8  N   ASP B   2      10.913  -3.269  21.933  1.00 15.19 LIG-0.34  N 
ATOM      9  C   VAL B   1      11.303  -4.516  22.122  1.00 14.82 LIG 0.25  C 
ATOM     10 O    VAL B   1      11.528  -4.980  23.241  1.00 14.79 LIG-0.27  OA
ATOM     11 H    ASP B   2      10.792  -2.916  21.158  1.00 15.19 LIG 0.16  HD
BRANCH 9 12
ATOM     12  CA  VAL B   1      11.538  -5.346  20.864  1.00 14.89 LIG 0.28  C 
BRANCH 12 13
ATOM     13  CB  VAL B   1      10.390  -6.321  20.564  1.00 17.39 LIG 0.02  C 
ATOM     14  CG2 VAL B   1      10.729  -7.312  19.510  1.00 22.29 LIG 0.01  C 
ATOM     15  CG1 VAL B   1       9.147  -5.597  20.134  1.00 17.29 LIG 0.01  C 
ENDBRANCH 12 13
BRANCH 12 16
ATOM     16  N   VAL B   1      12.790  -6.093  21.043  1.00 15.02 LIG-0.07  N 
ATOM     17 H2   VAL B   1      13.452  -5.668  20.627  1.00 15.02 LIG 0.28  HD
ATOM     18 H3   VAL B   1      12.978  -6.156  21.910  1.00 15.02 LIG 0.28  HD
ATOM     19 H1   VAL B   1      12.700  -6.910  20.699  1.00 15.02 LIG 0.28  HD
ENDBRANCH 12 16
ENDBRANCH 9 12
ENDBRANCH 7 8
BRANCH 7 20
ATOM     20  CB  ASP B   2       9.629  -2.990  24.000  1.00 16.98 LIG 0.15  C 
BRANCH 20 21
ATOM     21  CG  ASP B   2       8.269  -3.182  23.367  1.00 17.41 LIG 0.17  C 
ATOM     22 OD1  ASP B   2       7.578  -2.150  23.126  1.00 15.73 LIG-0.65  OA
ATOM     23 OD2  ASP B   2       7.880  -4.365  23.129  1.00 22.30 LIG-0.65  OA
ENDBRANCH 20 21
ENDBRANCH 7 20
ENDBRANCH 4 7
ENDBRANCH 1 3
BRANCH 1 24
ATOM     24  C   ALA B   3      13.827  -0.732  25.582  1.00 21.51 LIG 0.24  C 
ATOM     25  N   VAL B   4      15.052  -1.184  25.831  1.00 22.67 LIG-0.35  N 
ATOM     26 H    VAL B   4      15.650  -1.308  25.226  1.00 22.67 LIG 0.16  HD
ATOM     27 O    ALA B   3      12.928  -0.728  26.425  1.00 22.81 LIG-0.27  OA
BRANCH 25 28
ATOM     28  CA  VAL B   4      15.489  -1.516  27.190  1.00 26.45 LIG 0.18  C 
BRANCH 28 29
ATOM     29  CB  VAL B   4      16.904  -2.140  27.198  1.00 30.01 LIG 0.01  C 
ATOM     30  CG2 VAL B   4      16.911  -3.469  26.447  1.00 31.20 LIG 0.01  C 
ATOM     31  CG1 VAL B   4      17.406  -2.326  28.628  1.00 33.02 LIG 0.01  C 
ENDBRANCH 28 29
BRANCH 28 32
ATOM     32  C   VAL B   4      15.481  -0.207  27.985  1.00 25.61 LIG 0.24  C 
ATOM     33  N   ASN B   5      14.343   0.124  28.587  1.00 29.33 LIG-0.35  N 
ATOM     34 H    ASN B   5      13.635  -0.364  28.568  1.00 29.33 LIG 0.16  HD
ATOM     35 O    VAL B   4      16.488   0.501  28.015  1.00 29.65 LIG-0.27  OA
BRANCH 33 36
ATOM     36  CA  ASN B   5      14.191   1.374  29.354  1.00 34.74 LIG 0.17  C 
BRANCH 36 37
ATOM     37  CB  ASN B   5      14.940   1.251  30.678  1.00 42.44 LIG 0.14  C 
BRANCH 37 38
ATOM     38  CG  ASN B   5      16.113   2.209  30.763  1.00 45.23 LIG 0.22  C 
ATOM     39 OD1  ASN B   5      15.986   3.294  31.309  1.00 53.97 LIG-0.27  OA
ATOM     40  ND2 ASN B   5      17.246   1.830  30.181  1.00 50.63 LIG-0.37  N 
ATOM     41 21HD ASN B   5      17.926   2.356  30.180  1.00 50.63 LIG 0.16  HD
ATOM     42 22HD ASN B   5      17.299   1.057  29.806  1.00 50.63 LIG 0.16  HD
ENDBRANCH 37 38
ENDBRANCH 36 37
BRANCH 36 43
ATOM     43  C   ASN B   5      14.670   2.593  28.584  1.00 38.04 LIG 0.22  C 
ATOM     44 O    ASN B   5      14.535   2.640  27.366  1.00 41.05 LIG-0.29  OA
ENDBRANCH 36 43
ENDBRANCH 33 36
ENDBRANCH 28 32
ENDBRANCH 25 28
ENDBRANCH 1 24
TORSDOF 16
ENDMDL
MODEL 27
USER: ADFR SOLUTION from run 74
USER: SCORE 9.294987 LL:  -2.747 LR:  -8.693 RR:   0.000 FEB:  -3.920
USER: RMSD 3.680769
USER: SEED 73
USER: STATUS no improvement in best in 16 clusters for 5 generations
USER: GENES 18
USER: genes 0 Translation |==|  0.62709 0.51831 0.42939
USER: genes 1 Rotation |==|  0.34959 0.60437 0.53729 0.96378
USER: genes 2 Torsion [CB]-CA--N-[C] |==|  0.30036
USER: genes 3 Torsion [N]-C--CA-[N] |==|  0.37572
USER: genes 4 Torsion [C]-CA--N-[C] |==|  0.80829
USER: genes 5 Torsion [N]-C--CA-[N] |==|  0.45702
USER: genes 6 Torsion [C]-CA--CB-[CG2] |==|  0.86483
USER: genes 7 Torsion [C]-CA--N-[H2] |==|  0.32910
USER: genes 8 Torsion [C]-CA--CB-[CG] |==|  0.95435
USER: genes 9 Torsion [CA]-CB--CG-[OD2] |==|  0.29051
USER: genes 10 Torsion [N]-CA--C-[N] |==|  0.95755
USER: genes 11 Torsion [C]-N--CA-[CB] |==|  0.88713
USER: genes 12 Torsion [N]-CA--CB-[CG2] |==|  0.74316
USER: genes 13 Torsion [N]-CA--C-[N] |==|  0.34230
USER: genes 14 Torsion [C]-N--CA-[CB] |==|  0.40659
USER: genes 15 Torsion [N]-CA--CB-[CG] |==|  0.60892
USER: genes 16 Torsion [CA]-CB--CG-[OD1] |==|  0.45402
USER: genes 17 Torsion [N]-CA--C-[O] |==|  0.03042
ROOT
ATOM      1  CA  ALA B   3      13.107   0.058  24.573  1.00 18.86 LIG 0.17  C 
ATOM      2  CB  ALA B   3      13.618   0.421  23.181  1.00 19.35 LIG 0.04  C 
ENDROOT
BRANCH 1 3
ATOM      3  N   ALA B   3      11.666  -0.145  24.520  1.00 16.29 LIG-0.35  N 
ATOM      4  C   ASP B   2      11.105  -1.342  24.620  1.00 15.20 LIG 0.24  C 
ATOM      5 O    ASP B   2      11.760  -2.374  24.841  1.00 18.35 LIG-0.27  OA
ATOM      6 H    ALA B   3      11.216   0.581  24.417  1.00 16.29 LIG 0.16  HD
BRANCH 4 7
ATOM      7  CA  ASP B   2       9.581  -1.391  24.437  1.00 15.30 LIG 0.19  C 
BRANCH 7 8
ATOM      8  N   ASP B   2       9.184  -2.486  23.579  1.00 15.19 LIG-0.34  N 
ATOM      9  C   VAL B   1       9.460  -2.492  22.288  1.00 14.82 LIG 0.25  C 
ATOM     10 O    VAL B   1      10.014  -1.548  21.722  1.00 14.79 LIG-0.27  OA
ATOM     11 H    ASP B   2       8.761  -3.118  23.983  1.00 15.19 LIG 0.16  HD
BRANCH 9 12
ATOM     12  CA  VAL B   1       8.984  -3.710  21.503  1.00 14.89 LIG 0.28  C 
BRANCH 12 13
ATOM     13  CB  VAL B   1       9.825  -4.967  21.777  1.00 17.39 LIG 0.02  C 
ATOM     14  CG2 VAL B   1      11.287  -4.720  21.681  1.00 22.29 LIG 0.01  C 
ATOM     15  CG1 VAL B   1       9.482  -6.079  20.828  1.00 17.29 LIG 0.01  C 
ENDBRANCH 12 13
BRANCH 12 16
ATOM     16  N   VAL B   1       9.040  -3.378  20.073  1.00 15.02 LIG-0.07  N 
ATOM     17 H2   VAL B   1       9.608  -3.926  19.663  1.00 15.02 LIG 0.28  HD
ATOM     18 H3   VAL B   1       8.230  -3.468  19.716  1.00 15.02 LIG 0.28  HD
ATOM     19 H1   VAL B   1       9.316  -2.537  19.974  1.00 15.02 LIG 0.28  HD
ENDBRANCH 12 16
ENDBRANCH 9 12
ENDBRANCH 7 8
BRANCH 7 20
ATOM     20  CB  ASP B   2       8.841  -1.458  25.775  1.00 16.98 LIG 0.15  C 
BRANCH 20 21
ATOM     21  CG  ASP B   2       9.737  -1.855  26.927  1.00 17.41 LIG 0.17  C 
ATOM     22 OD1  ASP B   2      10.059  -3.074  27.034  1.00 15.73 LIG-0.65  OA
ATOM     23 OD2  ASP B   2      10.104  -0.953  27.740  1.00 22.30 LIG-0.65  OA
ENDBRANCH 20 21
ENDBRANCH 7 20
ENDBRANCH 4 7
ENDBRANCH 1 3
BRANCH 1 24
ATOM     24  C   ALA B   3      13.473   1.147  25.582  1.00 21.51 LIG 0.24  C 
ATOM     25  N   VAL B   4      12.477   1.927  25.990  1.00 22.67 LIG-0.35  N 
ATOM     26 H    VAL B   4      11.695   1.932  25.633  1.00 22.67 LIG 0.16  HD
ATOM     27 O    ALA B   3      14.633   1.273  25.981  1.00 22.81 LIG-0.27  OA
BRANCH 25 28
ATOM     28  CA  VAL B   4      12.639   2.861  27.107  1.00 26.45 LIG 0.18  C 
BRANCH 28 29
ATOM     29  CB  VAL B   4      13.460   2.237  28.259  1.00 30.01 LIG 0.01  C 
ATOM     30  CG2 VAL B   4      12.538   1.576  29.281  1.00 31.20 LIG 0.01  C 
ATOM     31  CG1 VAL B   4      14.341   3.289  28.929  1.00 33.02 LIG 0.01  C 
ENDBRANCH 28 29
BRANCH 28 32
ATOM     32  C   VAL B   4      13.358   4.092  26.547  1.00 25.61 LIG 0.24  C 
ATOM     33  N   ASN B   5      12.749   5.265  26.697  1.00 29.33 LIG-0.35  N 
ATOM     34 H    ASN B   5      11.997   5.362  27.103  1.00 29.33 LIG 0.16  HD
ATOM     35 O    VAL B   4      14.433   3.963  25.961  1.00 29.65 LIG-0.27  OA
BRANCH 33 36
ATOM     36  CA  ASN B   5      13.317   6.521  26.174  1.00 34.74 LIG 0.17  C 
BRANCH 36 37
ATOM     37  CB  ASN B   5      12.185   7.445  25.734  1.00 42.44 LIG 0.14  C 
BRANCH 37 38
ATOM     38  CG  ASN B   5      12.519   8.190  24.455  1.00 45.23 LIG 0.22  C 
ATOM     39 OD1  ASN B   5      11.637   8.728  23.806  1.00 53.97 LIG-0.27  OA
ATOM     40  ND2 ASN B   5      13.790   8.183  24.067  1.00 50.63 LIG-0.37  N 
ATOM     41 21HD ASN B   5      14.017   8.567  23.332  1.00 50.63 LIG 0.16  HD
ATOM     42 22HD ASN B   5      14.386   7.793  24.550  1.00 50.63 LIG 0.16  HD
ENDBRANCH 37 38
ENDBRANCH 36 37
BRANCH 36 43
ATOM     43  C   ASN B   5      14.213   7.220  27.182  1.00 38.04 LIG 0.22  C 
ATOM     44 O    ASN B   5      14.554   6.638  28.207  1.00 41.05 LIG-0.29  OA
ENDBRANCH 36 43
ENDBRANCH 33 36
ENDBRANCH 28 32
ENDBRANCH 25 28
ENDBRANCH 1 24
TORSDOF 16
ENDMDL
MODEL 28
USER: ADFR SOLUTION from run 173
USER: SCORE 9.288060 LL:  -3.342 LR:  -8.650 RR:   0.000 FEB:  -3.877
USER: RMSD 3.633858
USER: SEED 172
USER: STATUS no improvement in best in 22 clusters for 5 generations
USER: GENES 18
USER: genes 0 Translation |==|  0.52778 0.51147 0.46793
USER: genes 1 Rotation |==|  0.30996 0.45549 0.45680 0.95830
USER: genes 2 Torsion [CB]-CA--N-[C] |==|  0.49663
USER: genes 3 Torsion [N]-C--CA-[N] |==|  0.19059
USER: genes 4 Torsion [C]-CA--N-[C] |==|  0.78828
USER: genes 5 Torsion [N]-C--CA-[N] |==|  0.34815
USER: genes 6 Torsion [C]-CA--CB-[CG2] |==|  0.01453
USER: genes 7 Torsion [C]-CA--N-[H2] |==|  0.79515
USER: genes 8 Torsion [C]-CA--CB-[CG] |==|  0.75978
USER: genes 9 Torsion [CA]-CB--CG-[OD2] |==|  0.32634
USER: genes 10 Torsion [N]-CA--C-[N] |==|  0.89060
USER: genes 11 Torsion [C]-N--CA-[CB] |==|  0.88889
USER: genes 12 Torsion [N]-CA--CB-[CG2] |==|  0.79142
USER: genes 13 Torsion [N]-CA--C-[N] |==|  0.82885
USER: genes 14 Torsion [C]-N--CA-[CB] |==|  0.46484
USER: genes 15 Torsion [N]-CA--CB-[CG] |==|  0.19080
USER: genes 16 Torsion [CA]-CB--CG-[OD1] |==|  0.87990
USER: genes 17 Torsion [N]-CA--C-[O] |==|  0.31246
ROOT
ATOM      1  CA  ALA B   3      11.394  -0.066  25.383  1.00 18.86 LIG 0.17  C 
ATOM      2  CB  ALA B   3      12.692   0.011  24.580  1.00 19.35 LIG 0.04  C 
ENDROOT
BRANCH 1 3
ATOM      3  N   ALA B   3      10.273  -0.243  24.470  1.00 16.29 LIG-0.35  N 
ATOM      4  C   ASP B   2       9.021  -0.366  24.886  1.00 15.20 LIG 0.24  C 
ATOM      5 O    ASP B   2       8.698  -0.265  26.081  1.00 18.35 LIG-0.27  OA
ATOM      6 H    ALA B   3      10.500  -0.262  23.640  1.00 16.29 LIG 0.16  HD
BRANCH 4 7
ATOM      7  CA  ASP B   2       7.974  -0.653  23.800  1.00 15.30 LIG 0.19  C 
BRANCH 7 8
ATOM      8  N   ASP B   2       8.137  -1.978  23.242  1.00 15.19 LIG-0.34  N 
ATOM      9  C   VAL B   1       9.099  -2.254  22.379  1.00 14.82 LIG 0.25  C 
ATOM     10 O    VAL B   1       9.874  -1.397  21.951  1.00 14.79 LIG-0.27  OA
ATOM     11 H    ASP B   2       7.561  -2.554  23.519  1.00 15.19 LIG 0.16  HD
BRANCH 9 12
ATOM     12  CA  VAL B   1       9.156  -3.691  21.872  1.00 14.89 LIG 0.28  C 
BRANCH 12 13
ATOM     13  CB  VAL B   1      10.410  -4.444  22.343  1.00 17.39 LIG 0.02  C 
ATOM     14  CG2 VAL B   1      11.240  -3.657  23.291  1.00 22.29 LIG 0.01  C 
ATOM     15  CG1 VAL B   1      11.282  -4.842  21.187  1.00 17.29 LIG 0.01  C 
ENDBRANCH 12 13
BRANCH 12 16
ATOM     16  N   VAL B   1       9.120  -3.655  20.404  1.00 15.02 LIG-0.07  N 
ATOM     17 H2   VAL B   1       8.298  -3.452  20.132  1.00 15.02 LIG 0.28  HD
ATOM     18 H3   VAL B   1       9.691  -3.039  20.108  1.00 15.02 LIG 0.28  HD
ATOM     19 H1   VAL B   1       9.351  -4.452  20.082  1.00 15.02 LIG 0.28  HD
ENDBRANCH 12 16
ENDBRANCH 9 12
ENDBRANCH 7 8
BRANCH 7 20
ATOM     20  CB  ASP B   2       6.544  -0.455  24.311  1.00 16.98 LIG 0.15  C 
BRANCH 20 21
ATOM     21  CG  ASP B   2       5.979  -1.689  24.979  1.00 17.41 LIG 0.17  C 
ATOM     22 OD1  ASP B   2       5.826  -2.727  24.272  1.00 15.73 LIG-0.65  OA
ATOM     23 OD2  ASP B   2       5.668  -1.617  26.206  1.00 22.30 LIG-0.65  OA
ENDBRANCH 20 21
ENDBRANCH 7 20
ENDBRANCH 4 7
ENDBRANCH 1 3
BRANCH 1 24
ATOM     24  C   ALA B   3      11.215   1.190  26.236  1.00 21.51 LIG 0.24  C 
ATOM     25  N   VAL B   4      10.707   2.252  25.619  1.00 22.67 LIG-0.35  N 
ATOM     26 H    VAL B   4      10.598   2.305  24.767  1.00 22.67 LIG 0.16  HD
ATOM     27 O    ALA B   3      11.530   1.192  27.428  1.00 22.81 LIG-0.27  OA
BRANCH 25 28
ATOM     28  CA  VAL B   4      10.282   3.443  26.359  1.00 26.45 LIG 0.18  C 
BRANCH 28 29
ATOM     29  CB  VAL B   4       9.566   3.071  27.677  1.00 30.01 LIG 0.01  C 
ATOM     30  CG2 VAL B   4       8.153   2.564  27.399  1.00 31.20 LIG 0.01  C 
ATOM     31  CG1 VAL B   4       9.533   4.263  28.632  1.00 33.02 LIG 0.01  C 
ENDBRANCH 28 29
BRANCH 28 32
ATOM     32  C   VAL B   4      11.550   4.252  26.651  1.00 25.61 LIG 0.24  C 
ATOM     33  N   ASN B   5      12.479   3.665  27.400  1.00 29.33 LIG-0.35  N 
ATOM     34 H    ASN B   5      12.409   2.863  27.703  1.00 29.33 LIG 0.16  HD
ATOM     35 O    VAL B   4      11.657   5.402  26.226  1.00 29.65 LIG-0.27  OA
BRANCH 33 36
ATOM     36  CA  ASN B   5      13.729   4.346  27.784  1.00 34.74 LIG 0.17  C 
BRANCH 36 37
ATOM     37  CB  ASN B   5      14.425   3.547  28.881  1.00 42.44 LIG 0.14  C 
BRANCH 37 38
ATOM     38  CG  ASN B   5      14.960   2.221  28.371  1.00 45.23 LIG 0.22  C 
ATOM     39 OD1  ASN B   5      14.284   1.526  27.631  1.00 53.97 LIG-0.27  OA
ATOM     40  ND2 ASN B   5      16.159   1.847  28.805  1.00 50.63 LIG-0.37  N 
ATOM     41 21HD ASN B   5      16.486   1.089  28.565  1.00 50.63 LIG 0.16  HD
ATOM     42 22HD ASN B   5      16.608   2.363  29.327  1.00 50.63 LIG 0.16  HD
ENDBRANCH 37 38
ENDBRANCH 36 37
BRANCH 36 43
ATOM     43  C   ASN B   5      14.663   4.557  26.605  1.00 38.04 LIG 0.22  C 
ATOM     44 O    ASN B   5      14.890   5.692  26.197  1.00 41.05 LIG-0.29  OA
ENDBRANCH 36 43
ENDBRANCH 33 36
ENDBRANCH 28 32
ENDBRANCH 25 28
ENDBRANCH 1 24
TORSDOF 16
ENDMDL
MODEL 29
USER: ADFR SOLUTION from run 159
USER: SCORE 9.223788 LL:  -2.852 LR:  -8.586 RR:   0.000 FEB:  -3.813
USER: RMSD 3.409675
USER: SEED 158
USER: STATUS no improvement in best in 16 clusters for 5 generations
USER: GENES 18
USER: genes 0 Translation |==|  0.54347 0.47457 0.45719
USER: genes 1 Rotation |==|  0.30997 0.50725 0.42106 0.95564
USER: genes 2 Torsion [CB]-CA--N-[C] |==|  0.28374
USER: genes 3 Torsion [N]-C--CA-[N] |==|  0.37548
USER: genes 4 Torsion [C]-CA--N-[C] |==|  0.82082
USER: genes 5 Torsion [N]-C--CA-[N] |==|  0.33987
USER: genes 6 Torsion [C]-CA--CB-[CG2] |==|  0.91173
USER: genes 7 Torsion [C]-CA--N-[H2] |==|  0.14057
USER: genes 8 Torsion [C]-CA--CB-[CG] |==|  0.25440
USER: genes 9 Torsion [CA]-CB--CG-[OD2] |==|  0.95026
USER: genes 10 Torsion [N]-CA--C-[N] |==|  0.84874
USER: genes 11 Torsion [C]-N--CA-[CB] |==|  0.84030
USER: genes 12 Torsion [N]-CA--CB-[CG2] |==|  0.88023
USER: genes 13 Torsion [N]-CA--C-[N] |==|  0.75556
USER: genes 14 Torsion [C]-N--CA-[CB] |==|  0.83901
USER: genes 15 Torsion [N]-CA--CB-[CG] |==|  0.61284
USER: genes 16 Torsion [CA]-CB--CG-[OD1] |==|  0.28714
USER: genes 17 Torsion [N]-CA--C-[O] |==|  0.05041
ROOT
ATOM      1  CA  ALA B   3      11.665  -0.730  25.157  1.00 18.86 LIG 0.17  C 
ATOM      2  CB  ALA B   3      12.833  -0.892  24.186  1.00 19.35 LIG 0.04  C 
ENDROOT
BRANCH 1 3
ATOM      3  N   ALA B   3      10.422  -0.634  24.403  1.00 16.29 LIG-0.35  N 
ATOM      4  C   ASP B   2       9.579  -1.649  24.278  1.00 15.20 LIG 0.24  C 
ATOM      5 O    ASP B   2       9.746  -2.737  24.855  1.00 18.35 LIG-0.27  OA
ATOM      6 H    ALA B   3      10.289   0.138  24.049  1.00 16.29 LIG 0.16  HD
BRANCH 4 7
ATOM      7  CA  ASP B   2       8.369  -1.412  23.362  1.00 15.30 LIG 0.19  C 
BRANCH 7 8
ATOM      8  N   ASP B   2       8.140  -2.539  22.483  1.00 15.19 LIG-0.34  N 
ATOM      9  C   VAL B   1       9.018  -2.889  21.561  1.00 14.82 LIG 0.25  C 
ATOM     10 O    VAL B   1      10.050  -2.251  21.349  1.00 14.79 LIG-0.27  OA
ATOM     11 H    ASP B   2       7.395  -2.947  22.617  1.00 15.19 LIG 0.16  HD
BRANCH 9 12
ATOM     12  CA  VAL B   1       8.649  -4.097  20.705  1.00 14.89 LIG 0.28  C 
BRANCH 12 13
ATOM     13  CB  VAL B   1       9.611  -5.280  20.891  1.00 17.39 LIG 0.02  C 
ATOM     14  CG2 VAL B   1      11.002  -4.857  21.196  1.00 22.29 LIG 0.01  C 
ATOM     15  CG1 VAL B   1       9.652  -6.156  19.672  1.00 17.29 LIG 0.01  C 
ENDBRANCH 12 13
BRANCH 12 16
ATOM     16  N   VAL B   1       8.651  -3.672  19.299  1.00 15.02 LIG-0.07  N 
ATOM     17 H2   VAL B   1       9.414  -3.252  19.117  1.00 15.02 LIG 0.28  HD
ATOM     18 H3   VAL B   1       8.574  -4.386  18.773  1.00 15.02 LIG 0.28  HD
ATOM     19 H1   VAL B   1       7.967  -3.121  19.154  1.00 15.02 LIG 0.28  HD
ENDBRANCH 12 16
ENDBRANCH 9 12
ENDBRANCH 7 8
BRANCH 7 20
ATOM     20  CB  ASP B   2       7.102  -1.080  24.154  1.00 16.98 LIG 0.15  C 
BRANCH 20 21
ATOM     21  CG  ASP B   2       6.907   0.406  24.362  1.00 17.41 LIG 0.17  C 
ATOM     22 OD1  ASP B   2       5.749   0.814  24.667  1.00 15.73 LIG-0.65  OA
ATOM     23 OD2  ASP B   2       7.906   1.170  24.202  1.00 22.30 LIG-0.65  OA
ENDBRANCH 20 21
ENDBRANCH 7 20
ENDBRANCH 4 7
ENDBRANCH 1 3
BRANCH 1 24
ATOM     24  C   ALA B   3      11.868   0.500  26.042  1.00 21.51 LIG 0.24  C 
ATOM     25  N   VAL B   4      11.820   1.678  25.430  1.00 22.67 LIG-0.35  N 
ATOM     26 H    VAL B   4      11.809   1.774  24.575  1.00 22.67 LIG 0.16  HD
ATOM     27 O    ALA B   3      12.061   0.379  27.254  1.00 22.81 LIG-0.27  OA
BRANCH 25 28
ATOM     28  CA  VAL B   4      11.780   2.936  26.180  1.00 26.45 LIG 0.18  C 
BRANCH 28 29
ATOM     29  CB  VAL B   4      10.574   2.987  27.146  1.00 30.01 LIG 0.01  C 
ATOM     30  CG2 VAL B   4       9.315   2.457  26.463  1.00 31.20 LIG 0.01  C 
ATOM     31  CG1 VAL B   4      10.351   4.407  27.661  1.00 33.02 LIG 0.01  C 
ENDBRANCH 28 29
BRANCH 28 32
ATOM     32  C   VAL B   4      13.094   3.019  26.965  1.00 25.61 LIG 0.24  C 
ATOM     33  N   ASN B   5      13.112   2.455  28.169  1.00 29.33 LIG-0.35  N 
ATOM     34 H    ASN B   5      12.441   2.038  28.509  1.00 29.33 LIG 0.16  HD
ATOM     35 O    VAL B   4      14.057   3.618  26.488  1.00 29.65 LIG-0.27  OA
BRANCH 33 36
ATOM     36  CA  ASN B   5      14.301   2.494  29.039  1.00 34.74 LIG 0.17  C 
BRANCH 36 37
ATOM     37  CB  ASN B   5      15.483   1.862  28.312  1.00 42.44 LIG 0.14  C 
BRANCH 37 38
ATOM     38  CG  ASN B   5      16.322   0.993  29.230  1.00 45.23 LIG 0.22  C 
ATOM     39 OD1  ASN B   5      16.234  -0.223  29.182  1.00 53.97 LIG-0.27  OA
ATOM     40  ND2 ASN B   5      17.106   1.618  30.103  1.00 50.63 LIG-0.37  N 
ATOM     41 21HD ASN B   5      17.576   1.164  30.662  1.00 50.63 LIG 0.16  HD
ATOM     42 22HD ASN B   5      17.144   2.478  30.108  1.00 50.63 LIG 0.16  HD
ENDBRANCH 37 38
ENDBRANCH 36 37
BRANCH 36 43
ATOM     43  C   ASN B   5      14.647   3.903  29.491  1.00 38.04 LIG 0.22  C 
ATOM     44 O    ASN B   5      13.807   4.794  29.418  1.00 41.05 LIG-0.29  OA
ENDBRANCH 36 43
ENDBRANCH 33 36
ENDBRANCH 28 32
ENDBRANCH 25 28
ENDBRANCH 1 24
TORSDOF 16
ENDMDL
MODEL 30
USER: ADFR SOLUTION from run 83
USER: SCORE 9.567750 LL:  -3.072 LR:  -8.579 RR:   0.000 FEB:  -3.806
USER: RMSD 3.828277
USER: SEED 82
USER: STATUS no improvement in best in 14 clusters for 5 generations
USER: GENES 18
USER: genes 0 Translation |==|  0.54766 0.50630 0.45792
USER: genes 1 Rotation |==|  0.31916 0.45735 0.47085 0.96328
USER: genes 2 Torsion [CB]-CA--N-[C] |==|  0.42386
USER: genes 3 Torsion [N]-C--CA-[N] |==|  0.27945
USER: genes 4 Torsion [C]-CA--N-[C] |==|  0.77080
USER: genes 5 Torsion [N]-C--CA-[N] |==|  0.37034
USER: genes 6 Torsion [C]-CA--CB-[CG2] |==|  0.02392
USER: genes 7 Torsion [C]-CA--N-[H2] |==|  0.90053
USER: genes 8 Torsion [C]-CA--CB-[CG] |==|  0.16466
USER: genes 9 Torsion [CA]-CB--CG-[OD2] |==|  0.51556
USER: genes 10 Torsion [N]-CA--C-[N] |==|  0.90177
USER: genes 11 Torsion [C]-N--CA-[CB] |==|  0.87222
USER: genes 12 Torsion [N]-CA--CB-[CG2] |==|  0.82862
USER: genes 13 Torsion [N]-CA--C-[N] |==|  0.36263
USER: genes 14 Torsion [C]-N--CA-[CB] |==|  0.80086
USER: genes 15 Torsion [N]-CA--CB-[CG] |==|  0.87931
USER: genes 16 Torsion [CA]-CB--CG-[OD1] |==|  0.87129
USER: genes 17 Torsion [N]-CA--C-[O] |==|  0.59818
ROOT
ATOM      1  CA  ALA B   3      11.737  -0.159  25.172  1.00 18.86 LIG 0.17  C 
ATOM      2  CB  ALA B   3      13.006   0.017  24.340  1.00 19.35 LIG 0.04  C 
ENDROOT
BRANCH 1 3
ATOM      3  N   ALA B   3      10.603  -0.364  24.283  1.00 16.29 LIG-0.35  N 
ATOM      4  C   ASP B   2       9.522  -1.043  24.642  1.00 15.20 LIG 0.24  C 
ATOM      5 O    ASP B   2       9.363  -1.494  25.788  1.00 18.35 LIG-0.27  OA
ATOM      6 H    ALA B   3      10.699  -0.005  23.507  1.00 16.29 LIG 0.16  HD
BRANCH 4 7
ATOM      7  CA  ASP B   2       8.465  -1.256  23.548  1.00 15.30 LIG 0.19  C 
BRANCH 7 8
ATOM      8  N   ASP B   2       8.550  -2.583  22.978  1.00 15.19 LIG-0.34  N 
ATOM      9  C   VAL B   1       9.420  -2.876  22.028  1.00 14.82 LIG 0.25  C 
ATOM     10 O    VAL B   1      10.165  -2.032  21.527  1.00 14.79 LIG-0.27  OA
ATOM     11 H    ASP B   2       7.994  -3.149  23.310  1.00 15.19 LIG 0.16  HD
BRANCH 9 12
ATOM     12  CA  VAL B   1       9.403  -4.313  21.519  1.00 14.89 LIG 0.28  C 
BRANCH 12 13
ATOM     13  CB  VAL B   1      10.588  -5.146  22.031  1.00 17.39 LIG 0.02  C 
ATOM     14  CG2 VAL B   1      11.387  -4.444  23.069  1.00 22.29 LIG 0.01  C 
ATOM     15  CG1 VAL B   1      11.517  -5.529  20.916  1.00 17.29 LIG 0.01  C 
ENDBRANCH 12 13
BRANCH 12 16
ATOM     16  N   VAL B   1       9.421  -4.274  20.051  1.00 15.02 LIG-0.07  N 
ATOM     17 H2   VAL B   1       8.945  -3.579  19.767  1.00 15.02 LIG 0.28  HD
ATOM     18 H3   VAL B   1      10.261  -4.195  19.766  1.00 15.02 LIG 0.28  HD
ATOM     19 H1   VAL B   1       9.069  -5.026  19.729  1.00 15.02 LIG 0.28  HD
ENDBRANCH 12 16
ENDBRANCH 9 12
ENDBRANCH 7 8
BRANCH 7 20
ATOM     20  CB  ASP B   2       7.047  -0.977  24.055  1.00 16.98 LIG 0.15  C 
BRANCH 20 21
ATOM     21  CG  ASP B   2       6.869   0.436  24.564  1.00 17.41 LIG 0.17  C 
ATOM     22 OD1  ASP B   2       7.840   1.237  24.442  1.00 15.73 LIG-0.65  OA
ATOM     23 OD2  ASP B   2       5.765   0.743  25.107  1.00 22.30 LIG-0.65  OA
ENDBRANCH 20 21
ENDBRANCH 7 20
ENDBRANCH 4 7
ENDBRANCH 1 3
BRANCH 1 24
ATOM     24  C   ALA B   3      11.515   1.054  26.077  1.00 21.51 LIG 0.24  C 
ATOM     25  N   VAL B   4      10.861   2.077  25.537  1.00 22.67 LIG-0.35  N 
ATOM     26 H    VAL B   4      10.676   2.139  24.700  1.00 22.67 LIG 0.16  HD
ATOM     27 O    ALA B   3      11.928   1.057  27.239  1.00 22.81 LIG-0.27  OA
BRANCH 25 28
ATOM     28  CA  VAL B   4      10.391   3.204  26.347  1.00 26.45 LIG 0.18  C 
BRANCH 28 29
ATOM     29  CB  VAL B   4       9.693   2.727  27.640  1.00 30.01 LIG 0.01  C 
ATOM     30  CG2 VAL B   4       8.458   1.891  27.309  1.00 31.20 LIG 0.01  C 
ATOM     31  CG1 VAL B   4       9.318   3.914  28.525  1.00 33.02 LIG 0.01  C 
ENDBRANCH 28 29
BRANCH 28 32
ATOM     32  C   VAL B   4      11.628   4.043  26.688  1.00 25.61 LIG 0.24  C 
ATOM     33  N   ASN B   5      11.547   5.351  26.466  1.00 29.33 LIG-0.35  N 
ATOM     34 H    ASN B   5      10.841   5.740  26.167  1.00 29.33 LIG 0.16  HD
ATOM     35 O    VAL B   4      12.644   3.494  27.113  1.00 29.65 LIG-0.27  OA
BRANCH 33 36
ATOM     36  CA  ASN B   5      12.676   6.265  26.719  1.00 34.74 LIG 0.17  C 
BRANCH 36 37
ATOM     37  CB  ASN B   5      12.877   6.419  28.223  1.00 42.44 LIG 0.14  C 
BRANCH 37 38
ATOM     38  CG  ASN B   5      11.562   6.594  28.961  1.00 45.23 LIG 0.22  C 
ATOM     39 OD1  ASN B   5      10.721   7.375  28.547  1.00 53.97 LIG-0.27  OA
ATOM     40  ND2 ASN B   5      11.403   5.900  30.083  1.00 50.63 LIG-0.37  N 
ATOM     41 21HD ASN B   5      10.685   5.993  30.548  1.00 50.63 LIG 0.16  HD
ATOM     42 22HD ASN B   5      12.017   5.358  30.345  1.00 50.63 LIG 0.16  HD
ENDBRANCH 37 38
ENDBRANCH 36 37
BRANCH 36 43
ATOM     43  C   ASN B   5      13.962   5.799  26.057  1.00 38.04 LIG 0.22  C 
ATOM     44 O    ASN B   5      15.040   5.985  26.613  1.00 41.05 LIG-0.29  OA
ENDBRANCH 36 43
ENDBRANCH 33 36
ENDBRANCH 28 32
ENDBRANCH 25 28
ENDBRANCH 1 24
TORSDOF 16
ENDMDL
MODEL 31
USER: ADFR SOLUTION from run 34
USER: SCORE 10.312700 LL:  -3.493 LR:  -8.546 RR:   0.000 FEB:  -3.774
USER: RMSD 4.067028
USER: SEED 33
USER: STATUS no improvement in best in 23 clusters for 5 generations
USER: GENES 18
USER: genes 0 Translation |==|  0.60086 0.45079 0.43975
USER: genes 1 Rotation |==|  0.63142 0.61877 0.83941 0.82159
USER: genes 2 Torsion [CB]-CA--N-[C] |==|  0.14159
USER: genes 3 Torsion [N]-C--CA-[N] |==|  0.77812
USER: genes 4 Torsion [C]-CA--N-[C] |==|  0.67586
USER: genes 5 Torsion [N]-C--CA-[N] |==|  0.13187
USER: genes 6 Torsion [C]-CA--CB-[CG2] |==|  0.81273
USER: genes 7 Torsion [C]-CA--N-[H2] |==|  0.79891
USER: genes 8 Torsion [C]-CA--CB-[CG] |==|  0.70432
USER: genes 9 Torsion [CA]-CB--CG-[OD2] |==|  0.29009
USER: genes 10 Torsion [N]-CA--C-[N] |==|  0.16623
USER: genes 11 Torsion [C]-N--CA-[CB] |==|  0.50556
USER: genes 12 Torsion [N]-CA--CB-[CG2] |==|  0.82419
USER: genes 13 Torsion [N]-CA--C-[N] |==|  0.33032
USER: genes 14 Torsion [C]-N--CA-[CB] |==|  0.36239
USER: genes 15 Torsion [N]-CA--CB-[CG] |==|  0.75172
USER: genes 16 Torsion [CA]-CB--CG-[OD1] |==|  0.71476
USER: genes 17 Torsion [N]-CA--C-[O] |==|  0.00636
ROOT
ATOM      1  CA  ALA B   3      12.655  -1.158  24.791  1.00 18.86 LIG 0.17  C 
ATOM      2  CB  ALA B   3      11.532  -0.136  24.963  1.00 19.35 LIG 0.04  C 
ENDROOT
BRANCH 1 3
ATOM      3  N   ALA B   3      12.084  -2.439  24.399  1.00 16.29 LIG-0.35  N 
ATOM      4  C   ASP B   2      11.233  -2.567  23.390  1.00 15.20 LIG 0.24  C 
ATOM      5 O    ASP B   2      10.914  -1.617  22.655  1.00 18.35 LIG-0.27  OA
ATOM      6 H    ALA B   3      12.349  -3.100  24.881  1.00 16.29 LIG 0.16  HD
BRANCH 4 7
ATOM      7  CA  ASP B   2      10.644  -3.969  23.178  1.00 15.30 LIG 0.19  C 
BRANCH 7 8
ATOM      8  N   ASP B   2      11.571  -4.834  22.479  1.00 15.19 LIG-0.34  N 
ATOM      9  C   VAL B   1      11.293  -5.330  21.287  1.00 14.82 LIG 0.25  C 
ATOM     10 O    VAL B   1      10.214  -5.141  20.723  1.00 14.79 LIG-0.27  OA
ATOM     11 H    ASP B   2      12.302  -4.990  22.905  1.00 15.19 LIG 0.16  HD
BRANCH 9 12
ATOM     12  CA  VAL B   1      12.360  -6.225  20.665  1.00 14.89 LIG 0.28  C 
BRANCH 12 13
ATOM     13  CB  VAL B   1      11.864  -6.974  19.418  1.00 17.39 LIG 0.02  C 
ATOM     14  CG2 VAL B   1      10.824  -7.989  19.725  1.00 22.29 LIG 0.01  C 
ATOM     15  CG1 VAL B   1      12.989  -7.666  18.705  1.00 17.29 LIG 0.01  C 
ENDBRANCH 12 13
BRANCH 12 16
ATOM     16  N   VAL B   1      12.790  -7.191  21.685  1.00 15.02 LIG-0.07  N 
ATOM     17 H2   VAL B   1      13.282  -6.776  22.298  1.00 15.02 LIG 0.28  HD
ATOM     18 H3   VAL B   1      12.075  -7.552  22.073  1.00 15.02 LIG 0.28  HD
ATOM     19 H1   VAL B   1      13.274  -7.833  21.301  1.00 15.02 LIG 0.28  HD
ENDBRANCH 12 16
ENDBRANCH 9 12
ENDBRANCH 7 8
BRANCH 7 20
ATOM     20  CB  ASP B   2      10.194  -4.611  24.493  1.00 16.98 LIG 0.15  C 
BRANCH 20 21
ATOM     21  CG  ASP B   2      11.118  -5.714  24.960  1.00 17.41 LIG 0.17  C 
ATOM     22 OD1  ASP B   2      11.043  -6.835  24.379  1.00 15.73 LIG-0.65  OA
ATOM     23 OD2  ASP B   2      11.907  -5.467  25.921  1.00 22.30 LIG-0.65  OA
ENDBRANCH 20 21
ENDBRANCH 7 20
ENDBRANCH 4 7
ENDBRANCH 1 3
BRANCH 1 24
ATOM     24  C   ALA B   3      13.466  -1.288  26.080  1.00 21.51 LIG 0.24  C 
ATOM     25  N   VAL B   4      14.494  -2.130  26.044  1.00 22.67 LIG-0.35  N 
ATOM     26 H    VAL B   4      14.641  -2.679  25.398  1.00 22.67 LIG 0.16  HD
ATOM     27 O    ALA B   3      13.166  -0.636  27.082  1.00 22.81 LIG-0.27  OA
BRANCH 25 28
ATOM     28  CA  VAL B   4      15.479  -2.191  27.127  1.00 26.45 LIG 0.18  C 
BRANCH 28 29
ATOM     29  CB  VAL B   4      16.598  -3.213  26.823  1.00 30.01 LIG 0.01  C 
ATOM     30  CG2 VAL B   4      16.027  -4.625  26.726  1.00 31.20 LIG 0.01  C 
ATOM     31  CG1 VAL B   4      17.695  -3.147  27.884  1.00 33.02 LIG 0.01  C 
ENDBRANCH 28 29
BRANCH 28 32
ATOM     32  C   VAL B   4      16.067  -0.782  27.263  1.00 25.61 LIG 0.24  C 
ATOM     33  N   ASN B   5      15.894  -0.169  28.430  1.00 29.33 LIG-0.35  N 
ATOM     34 H    ASN B   5      15.495  -0.528  29.102  1.00 29.33 LIG 0.16  HD
ATOM     35 O    VAL B   4      16.636  -0.258  26.305  1.00 29.65 LIG-0.27  OA
BRANCH 33 36
ATOM     36  CA  ASN B   5      16.380   1.200  28.680  1.00 34.74 LIG 0.17  C 
BRANCH 36 37
ATOM     37  CB  ASN B   5      15.254   2.035  29.283  1.00 42.44 LIG 0.14  C 
BRANCH 37 38
ATOM     38  CG  ASN B   5      14.414   2.717  28.219  1.00 45.23 LIG 0.22  C 
ATOM     39 OD1  ASN B   5      14.562   3.904  27.982  1.00 53.97 LIG-0.27  OA
ATOM     40  ND2 ASN B   5      13.497   1.974  27.607  1.00 50.63 LIG-0.37  N 
ATOM     41 21HD ASN B   5      12.979   2.329  27.020  1.00 50.63 LIG 0.16  HD
ATOM     42 22HD ASN B   5      13.421   1.139  27.800  1.00 50.63 LIG 0.16  HD
ENDBRANCH 37 38
ENDBRANCH 36 37
BRANCH 36 43
ATOM     43  C   ASN B   5      17.604   1.230  29.580  1.00 38.04 LIG 0.22  C 
ATOM     44 O    ASN B   5      18.100   0.179  29.975  1.00 41.05 LIG-0.29  OA
ENDBRANCH 36 43
ENDBRANCH 33 36
ENDBRANCH 28 32
ENDBRANCH 25 28
ENDBRANCH 1 24
TORSDOF 16
ENDMDL
MODEL 32
USER: ADFR SOLUTION from run 183
USER: SCORE 10.291170 LL:  -3.265 LR:  -8.554 RR:   0.000 FEB:  -3.782
USER: RMSD 3.731584
USER: SEED 182
USER: STATUS no improvement in best in 13 clusters for 5 generations
USER: GENES 18
USER: genes 0 Translation |==|  0.64503 0.50603 0.41007
USER: genes 1 Rotation |==|  0.47226 0.53541 0.60908 0.98588
USER: genes 2 Torsion [CB]-CA--N-[C] |==|  0.49446
USER: genes 3 Torsion [N]-C--CA-[N] |==|  0.83592
USER: genes 4 Torsion [C]-CA--N-[C] |==|  0.66821
USER: genes 5 Torsion [N]-C--CA-[N] |==|  0.36347
USER: genes 6 Torsion [C]-CA--CB-[CG2] |==|  0.13671
USER: genes 7 Torsion [C]-CA--N-[H2] |==|  0.30387
USER: genes 8 Torsion [C]-CA--CB-[CG] |==|  0.43243
USER: genes 9 Torsion [CA]-CB--CG-[OD2] |==|  0.13017
USER: genes 10 Torsion [N]-CA--C-[N] |==|  0.44414
USER: genes 11 Torsion [C]-N--CA-[CB] |==|  0.50660
USER: genes 12 Torsion [N]-CA--CB-[CG2] |==|  0.84823
USER: genes 13 Torsion [N]-CA--C-[N] |==|  0.36737
USER: genes 14 Torsion [C]-N--CA-[CB] |==|  0.33165
USER: genes 15 Torsion [N]-CA--CB-[CG] |==|  0.76656
USER: genes 16 Torsion [CA]-CB--CG-[OD1] |==|  0.19616
USER: genes 17 Torsion [N]-CA--C-[O] |==|  0.20289
ROOT
ATOM      1  CA  ALA B   3      13.417  -0.163  24.168  1.00 18.86 LIG 0.17  C 
ATOM      2  CB  ALA B   3      13.914   0.996  23.306  1.00 19.35 LIG 0.04  C 
ENDROOT
BRANCH 1 3
ATOM      3  N   ALA B   3      12.093  -0.566  23.714  1.00 16.29 LIG-0.35  N 
ATOM      4  C   ASP B   2      11.426  -1.577  24.253  1.00 15.20 LIG 0.24  C 
ATOM      5 O    ASP B   2      11.848  -2.213  25.233  1.00 18.35 LIG-0.27  OA
ATOM      6 H    ALA B   3      11.786  -0.088  23.068  1.00 16.29 LIG 0.16  HD
BRANCH 4 7
ATOM      7  CA  ASP B   2      10.090  -1.936  23.587  1.00 15.30 LIG 0.19  C 
BRANCH 7 8
ATOM      8  N   ASP B   2       9.173  -0.817  23.599  1.00 15.19 LIG-0.34  N 
ATOM      9  C   VAL B   1       8.003  -0.884  24.210  1.00 14.82 LIG 0.25  C 
ATOM     10 O    VAL B   1       7.594  -1.913  24.751  1.00 14.79 LIG-0.27  OA
ATOM     11 H    ASP B   2       9.456  -0.121  23.181  1.00 15.19 LIG 0.16  HD
BRANCH 9 12
ATOM     12  CA  VAL B   1       7.137   0.370  24.145  1.00 14.89 LIG 0.28  C 
BRANCH 12 13
ATOM     13  CB  VAL B   1       7.061   1.117  25.485  1.00 17.39 LIG 0.02  C 
ATOM     14  CG2 VAL B   1       8.394   1.346  26.100  1.00 22.29 LIG 0.01  C 
ATOM     15  CG1 VAL B   1       6.214   0.379  26.482  1.00 17.29 LIG 0.01  C 
ENDBRANCH 12 13
BRANCH 12 16
ATOM     16  N   VAL B   1       5.789  -0.033  23.724  1.00 15.02 LIG-0.07  N 
ATOM     17 H2   VAL B   1       5.228   0.048  24.409  1.00 15.02 LIG 0.28  HD
ATOM     18 H3   VAL B   1       5.518   0.489  23.056  1.00 15.02 LIG 0.28  HD
ATOM     19 H1   VAL B   1       5.803  -0.880  23.451  1.00 15.02 LIG 0.28  HD
ENDBRANCH 12 16
ENDBRANCH 9 12
ENDBRANCH 7 8
BRANCH 7 20
ATOM     20  CB  ASP B   2      10.279  -2.463  22.162  1.00 16.98 LIG 0.15  C 
BRANCH 20 21
ATOM     21  CG  ASP B   2       9.139  -3.343  21.701  1.00 17.41 LIG 0.17  C 
ATOM     22 OD1  ASP B   2       9.427  -4.430  21.121  1.00 15.73 LIG-0.65  OA
ATOM     23 OD2  ASP B   2       7.953  -2.941  21.898  1.00 22.30 LIG-0.65  OA
ENDBRANCH 20 21
ENDBRANCH 7 20
ENDBRANCH 4 7
ENDBRANCH 1 3
BRANCH 1 24
ATOM     24  C   ALA B   3      13.396   0.234  25.644  1.00 21.51 LIG 0.24  C 
ATOM     25  N   VAL B   4      14.567   0.218  26.272  1.00 22.67 LIG-0.35  N 
ATOM     26 H    VAL B   4      15.286  -0.115  25.937  1.00 22.67 LIG 0.16  HD
ATOM     27 O    ALA B   3      12.340   0.549  26.197  1.00 22.81 LIG-0.27  OA
BRANCH 25 28
ATOM     28  CA  VAL B   4      14.729   0.779  27.616  1.00 26.45 LIG 0.18  C 
BRANCH 28 29
ATOM     29  CB  VAL B   4      16.194   0.691  28.099  1.00 30.01 LIG 0.01  C 
ATOM     30  CG2 VAL B   4      16.703  -0.747  28.017  1.00 31.20 LIG 0.01  C 
ATOM     31  CG1 VAL B   4      16.330   1.230  29.521  1.00 33.02 LIG 0.01  C 
ENDBRANCH 28 29
BRANCH 28 32
ATOM     32  C   VAL B   4      14.282   2.243  27.535  1.00 25.61 LIG 0.24  C 
ATOM     33  N   ASN B   5      13.447   2.670  28.478  1.00 29.33 LIG-0.35  N 
ATOM     34 H    ASN B   5      13.170   2.177  29.126  1.00 29.33 LIG 0.16  HD
ATOM     35 O    VAL B   4      14.670   2.953  26.608  1.00 29.65 LIG-0.27  OA
BRANCH 33 36
ATOM     36  CA  ASN B   5      12.915   4.044  28.496  1.00 34.74 LIG 0.17  C 
BRANCH 36 37
ATOM     37  CB  ASN B   5      11.394   4.000  28.392  1.00 42.44 LIG 0.14  C 
BRANCH 37 38
ATOM     38  CG  ASN B   5      10.921   3.893  26.954  1.00 45.23 LIG 0.22  C 
ATOM     39 OD1  ASN B   5      11.085   2.859  26.326  1.00 53.97 LIG-0.27  OA
ATOM     40  ND2 ASN B   5      10.375   4.978  26.415  1.00 50.63 LIG-0.37  N 
ATOM     41 21HD ASN B   5      10.121   4.969  25.594  1.00 50.63 LIG 0.16  HD
ATOM     42 22HD ASN B   5      10.275   5.689  26.888  1.00 50.63 LIG 0.16  HD
ENDBRANCH 37 38
ENDBRANCH 36 37
BRANCH 36 43
ATOM     43  C   ASN B   5      13.341   4.819  29.731  1.00 38.04 LIG 0.22  C 
ATOM     44 O    ASN B   5      14.499   5.210  29.840  1.00 41.05 LIG-0.29  OA
ENDBRANCH 36 43
ENDBRANCH 33 36
ENDBRANCH 28 32
ENDBRANCH 25 28
ENDBRANCH 1 24
TORSDOF 16
ENDMDL
MODEL 33
USER: ADFR SOLUTION from run 58
USER: SCORE 9.741370 LL:  -2.750 LR:  -8.533 RR:   0.000 FEB:  -3.760
USER: RMSD 3.139442
USER: SEED 57
USER: STATUS no improvement in best in 16 clusters for 5 generations
USER: GENES 18
USER: genes 0 Translation |==|  0.59510 0.48880 0.43273
USER: genes 1 Rotation |==|  0.38301 0.52832 0.52428 0.98469
USER: genes 2 Torsion [CB]-CA--N-[C] |==|  0.45979
USER: genes 3 Torsion [N]-C--CA-[N] |==|  0.25391
USER: genes 4 Torsion [C]-CA--N-[C] |==|  0.78889
USER: genes 5 Torsion [N]-C--CA-[N] |==|  0.35599
USER: genes 6 Torsion [C]-CA--CB-[CG2] |==|  0.50460
USER: genes 7 Torsion [C]-CA--N-[H2] |==|  0.67964
USER: genes 8 Torsion [C]-CA--CB-[CG] |==|  0.60161
USER: genes 9 Torsion [CA]-CB--CG-[OD2] |==|  0.84299
USER: genes 10 Torsion [N]-CA--C-[N] |==|  0.46888
USER: genes 11 Torsion [C]-N--CA-[CB] |==|  0.53964
USER: genes 12 Torsion [N]-CA--CB-[CG2] |==|  0.91887
USER: genes 13 Torsion [N]-CA--C-[N] |==|  0.37288
USER: genes 14 Torsion [C]-N--CA-[CB] |==|  0.85179
USER: genes 15 Torsion [N]-CA--CB-[CG] |==|  0.57827
USER: genes 16 Torsion [CA]-CB--CG-[OD1] |==|  0.36390
USER: genes 17 Torsion [N]-CA--C-[O] |==|  0.01957
ROOT
ATOM      1  CA  ALA B   3      12.556  -0.474  24.643  1.00 18.86 LIG 0.17  C 
ATOM      2  CB  ALA B   3      13.448   0.100  23.545  1.00 19.35 LIG 0.04  C 
ENDROOT
BRANCH 1 3
ATOM      3  N   ALA B   3      11.204  -0.642  24.127  1.00 16.29 LIG-0.35  N 
ATOM      4  C   ASP B   2      10.285  -1.369  24.745  1.00 15.20 LIG 0.24  C 
ATOM      5 O    ASP B   2      10.482  -1.903  25.850  1.00 18.35 LIG-0.27  OA
ATOM      6 H    ALA B   3      11.061  -0.228  23.386  1.00 16.29 LIG 0.16  HD
BRANCH 4 7
ATOM      7  CA  ASP B   2       8.945  -1.531  24.011  1.00 15.30 LIG 0.19  C 
BRANCH 7 8
ATOM      8  N   ASP B   2       8.937  -2.711  23.175  1.00 15.19 LIG-0.34  N 
ATOM      9  C   VAL B   1       9.573  -2.747  22.018  1.00 14.82 LIG 0.25  C 
ATOM     10 O    VAL B   1      10.158  -1.768  21.551  1.00 14.79 LIG-0.27  OA
ATOM     11 H    ASP B   2       8.488  -3.371  23.496  1.00 15.19 LIG 0.16  HD
BRANCH 9 12
ATOM     12  CA  VAL B   1       9.482  -4.055  21.240  1.00 14.89 LIG 0.28  C 
BRANCH 12 13
ATOM     13  CB  VAL B   1      10.814  -4.819  21.190  1.00 17.39 LIG 0.02  C 
ATOM     14  CG2 VAL B   1      10.736  -6.074  20.399  1.00 22.29 LIG 0.01  C 
ATOM     15  CG1 VAL B   1      11.301  -5.170  22.566  1.00 17.29 LIG 0.01  C 
ENDBRANCH 12 13
BRANCH 12 16
ATOM     16  N   VAL B   1       9.040  -3.740  19.875  1.00 15.02 LIG-0.07  N 
ATOM     17 H2   VAL B   1       8.241  -4.103  19.730  1.00 15.02 LIG 0.28  HD
ATOM     18 H3   VAL B   1       8.987  -2.857  19.776  1.00 15.02 LIG 0.28  HD
ATOM     19 H1   VAL B   1       9.625  -4.069  19.289  1.00 15.02 LIG 0.28  HD
ENDBRANCH 12 16
ENDBRANCH 9 12
ENDBRANCH 7 8
BRANCH 7 20
ATOM     20  CB  ASP B   2       7.757  -1.545  24.976  1.00 16.98 LIG 0.15  C 
BRANCH 20 21
ATOM     21  CG  ASP B   2       6.662  -2.497  24.552  1.00 17.41 LIG 0.17  C 
ATOM     22 OD1  ASP B   2       6.321  -3.407  25.362  1.00 15.73 LIG-0.65  OA
ATOM     23 OD2  ASP B   2       6.153  -2.350  23.400  1.00 22.30 LIG-0.65  OA
ENDBRANCH 20 21
ENDBRANCH 7 20
ENDBRANCH 4 7
ENDBRANCH 1 3
BRANCH 1 24
ATOM     24  C   ALA B   3      12.565   0.434  25.873  1.00 21.51 LIG 0.24  C 
ATOM     25  N   VAL B   4      13.700   0.475  26.563  1.00 22.67 LIG-0.35  N 
ATOM     26 H    VAL B   4      14.360  -0.060  26.432  1.00 22.67 LIG 0.16  HD
ATOM     27 O    ALA B   3      11.565   1.084  26.185  1.00 22.81 LIG-0.27  OA
BRANCH 25 28
ATOM     28  CA  VAL B   4      13.920   1.459  27.627  1.00 26.45 LIG 0.18  C 
BRANCH 28 29
ATOM     29  CB  VAL B   4      15.410   1.540  28.030  1.00 30.01 LIG 0.01  C 
ATOM     30  CG2 VAL B   4      16.103   0.198  27.805  1.00 31.20 LIG 0.01  C 
ATOM     31  CG1 VAL B   4      15.556   1.984  29.484  1.00 33.02 LIG 0.01  C 
ENDBRANCH 28 29
BRANCH 28 32
ATOM     32  C   VAL B   4      13.442   2.808  27.081  1.00 25.61 LIG 0.24  C 
ATOM     33  N   ASN B   5      12.682   3.547  27.884  1.00 29.33 LIG-0.35  N 
ATOM     34 H    ASN B   5      12.470   3.315  28.685  1.00 29.33 LIG 0.16  HD
ATOM     35 O    VAL B   4      13.737   3.147  25.935  1.00 29.65 LIG-0.27  OA
BRANCH 33 36
ATOM     36  CA  ASN B   5      12.129   4.849  27.468  1.00 34.74 LIG 0.17  C 
BRANCH 36 37
ATOM     37  CB  ASN B   5      13.258   5.741  26.963  1.00 42.44 LIG 0.14  C 
BRANCH 37 38
ATOM     38  CG  ASN B   5      12.956   7.215  27.162  1.00 45.23 LIG 0.22  C 
ATOM     39 OD1  ASN B   5      13.782   7.952  27.675  1.00 53.97 LIG-0.27  OA
ATOM     40  ND2 ASN B   5      11.749   7.638  26.797  1.00 50.63 LIG-0.37  N 
ATOM     41 21HD ASN B   5      11.526   8.459  26.920  1.00 50.63 LIG 0.16  HD
ATOM     42 22HD ASN B   5      11.192   7.090  26.437  1.00 50.63 LIG 0.16  HD
ENDBRANCH 37 38
ENDBRANCH 36 37
BRANCH 36 43
ATOM     43  C   ASN B   5      11.047   4.711  26.411  1.00 38.04 LIG 0.22  C 
ATOM     44 O    ASN B   5      10.636   3.599  26.096  1.00 41.05 LIG-0.29  OA
ENDBRANCH 36 43
ENDBRANCH 33 36
ENDBRANCH 28 32
ENDBRANCH 25 28
ENDBRANCH 1 24
TORSDOF 16
ENDMDL
MODEL 34
USER: ADFR SOLUTION from run 141
USER: SCORE 9.845410 LL:  -2.719 LR:  -8.515 RR:   0.000 FEB:  -3.742
USER: RMSD 3.753957
USER: SEED 140
USER: STATUS no improvement in best in 17 clusters for 5 generations
USER: GENES 18
USER: genes 0 Translation |==|  0.65066 0.46507 0.42245
USER: genes 1 Rotation |==|  0.61733 0.54194 0.75678 0.91054
USER: genes 2 Torsion [CB]-CA--N-[C] |==|  0.57274
USER: genes 3 Torsion [N]-C--CA-[N] |==|  0.45382
USER: genes 4 Torsion [C]-CA--N-[C] |==|  0.69645
USER: genes 5 Torsion [N]-C--CA-[N] |==|  0.59543
USER: genes 6 Torsion [C]-CA--CB-[CG2] |==|  0.80430
USER: genes 7 Torsion [C]-CA--N-[H2] |==|  0.87541
USER: genes 8 Torsion [C]-CA--CB-[CG] |==|  0.22529
USER: genes 9 Torsion [CA]-CB--CG-[OD2] |==|  0.50244
USER: genes 10 Torsion [N]-CA--C-[N] |==|  0.32509
USER: genes 11 Torsion [C]-N--CA-[CB] |==|  0.51667
USER: genes 12 Torsion [N]-CA--CB-[CG2] |==|  0.87040
USER: genes 13 Torsion [N]-CA--C-[N] |==|  0.28210
USER: genes 14 Torsion [C]-N--CA-[CB] |==|  0.21121
USER: genes 15 Torsion [N]-CA--CB-[CG] |==|  0.75563
USER: genes 16 Torsion [CA]-CB--CG-[OD1] |==|  0.42377
USER: genes 17 Torsion [N]-CA--C-[O] |==|  0.02780
ROOT
ATOM      1  CA  ALA B   3      13.514  -0.901  24.427  1.00 18.86 LIG 0.17  C 
ATOM      2  CB  ALA B   3      13.046   0.553  24.407  1.00 19.35 LIG 0.04  C 
ENDROOT
BRANCH 1 3
ATOM      3  N   ALA B   3      12.484  -1.746  23.840  1.00 16.29 LIG-0.35  N 
ATOM      4  C   ASP B   2      12.344  -3.027  24.149  1.00 15.20 LIG 0.24  C 
ATOM      5 O    ASP B   2      13.033  -3.588  25.017  1.00 18.35 LIG-0.27  OA
ATOM      6 H    ALA B   3      11.978  -1.337  23.276  1.00 16.29 LIG 0.16  HD
BRANCH 4 7
ATOM      7  CA  ASP B   2      11.276  -3.799  23.360  1.00 15.30 LIG 0.19  C 
BRANCH 7 8
ATOM      8  N   ASP B   2      11.457  -5.230  23.481  1.00 15.19 LIG-0.34  N 
ATOM      9  C   VAL B   1      11.876  -5.965  22.467  1.00 14.82 LIG 0.25  C 
ATOM     10 O    VAL B   1      12.079  -5.496  21.345  1.00 14.79 LIG-0.27  OA
ATOM     11 H    ASP B   2      11.270  -5.547  24.259  1.00 15.19 LIG 0.16  HD
BRANCH 9 12
ATOM     12  CA  VAL B   1      12.024  -7.459  22.734  1.00 14.89 LIG 0.28  C 
BRANCH 12 13
ATOM     13  CB  VAL B   1      12.235  -7.785  24.221  1.00 17.39 LIG 0.02  C 
ATOM     14  CG2 VAL B   1      13.568  -7.365  24.725  1.00 22.29 LIG 0.01  C 
ATOM     15  CG1 VAL B   1      12.081  -9.254  24.492  1.00 17.29 LIG 0.01  C 
ENDBRANCH 12 13
BRANCH 12 16
ATOM     16  N   VAL B   1      13.167  -7.948  21.952  1.00 15.02 LIG-0.07  N 
ATOM     17 H2   VAL B   1      13.127  -7.615  21.128  1.00 15.02 LIG 0.28  HD
ATOM     18 H3   VAL B   1      13.925  -7.688  22.339  1.00 15.02 LIG 0.28  HD
ATOM     19 H1   VAL B   1      13.143  -8.837  21.914  1.00 15.02 LIG 0.28  HD
ENDBRANCH 12 16
ENDBRANCH 9 12
ENDBRANCH 7 8
BRANCH 7 20
ATOM     20  CB  ASP B   2       9.856  -3.399  23.767  1.00 16.98 LIG 0.15  C 
BRANCH 20 21
ATOM     21  CG  ASP B   2       9.388  -2.122  23.105  1.00 17.41 LIG 0.17  C 
ATOM     22 OD1  ASP B   2      10.186  -1.537  22.317  1.00 15.73 LIG-0.65  OA
ATOM     23 OD2  ASP B   2       8.230  -1.690  23.387  1.00 22.30 LIG-0.65  OA
ENDBRANCH 20 21
ENDBRANCH 7 20
ENDBRANCH 4 7
ENDBRANCH 1 3
BRANCH 1 24
ATOM     24  C   ALA B   3      13.839  -1.341  25.855  1.00 21.51 LIG 0.24  C 
ATOM     25  N   VAL B   4      15.080  -1.767  26.069  1.00 22.67 LIG-0.35  N 
ATOM     26 H    VAL B   4      15.648  -1.922  25.443  1.00 22.67 LIG 0.16  HD
ATOM     27 O    ALA B   3      12.982  -1.292  26.741  1.00 22.81 LIG-0.27  OA
BRANCH 25 28
ATOM     28  CA  VAL B   4      15.588  -2.011  27.422  1.00 26.45 LIG 0.18  C 
BRANCH 28 29
ATOM     29  CB  VAL B   4      17.095  -2.355  27.412  1.00 30.01 LIG 0.01  C 
ATOM     30  CG2 VAL B   4      17.403  -3.395  26.336  1.00 31.20 LIG 0.01  C 
ATOM     31  CG1 VAL B   4      17.548  -2.849  28.784  1.00 33.02 LIG 0.01  C 
ENDBRANCH 28 29
BRANCH 28 32
ATOM     32  C   VAL B   4      15.340  -0.727  28.221  1.00 25.61 LIG 0.24  C 
ATOM     33  N   ASN B   5      14.298  -0.723  29.046  1.00 29.33 LIG-0.35  N 
ATOM     34 H    ASN B   5      13.781  -1.401  29.163  1.00 29.33 LIG 0.16  HD
ATOM     35 O    VAL B   4      16.071   0.250  28.056  1.00 29.65 LIG-0.27  OA
BRANCH 33 36
ATOM     36  CA  ASN B   5      13.929   0.460  29.845  1.00 34.74 LIG 0.17  C 
BRANCH 36 37
ATOM     37  CB  ASN B   5      13.250   1.488  28.946  1.00 42.44 LIG 0.14  C 
BRANCH 37 38
ATOM     38  CG  ASN B   5      14.249   2.422  28.288  1.00 45.23 LIG 0.22  C 
ATOM     39 OD1  ASN B   5      13.993   2.944  27.215  1.00 53.97 LIG-0.27  OA
ATOM     40  ND2 ASN B   5      15.410   2.598  28.910  1.00 50.63 LIG-0.37  N 
ATOM     41 21HD ASN B   5      16.016   3.096  28.557  1.00 50.63 LIG 0.16  HD
ATOM     42 22HD ASN B   5      15.556   2.215  29.667  1.00 50.63 LIG 0.16  HD
ENDBRANCH 37 38
ENDBRANCH 36 37
BRANCH 36 43
ATOM     43  C   ASN B   5      13.036   0.112  31.024  1.00 38.04 LIG 0.22  C 
ATOM     44 O    ASN B   5      12.852  -1.063  31.328  1.00 41.05 LIG-0.29  OA
ENDBRANCH 36 43
ENDBRANCH 33 36
ENDBRANCH 28 32
ENDBRANCH 25 28
ENDBRANCH 1 24
TORSDOF 16
ENDMDL
MODEL 35
USER: ADFR SOLUTION from run 162
USER: SCORE 10.151027 LL:  -2.878 LR:  -8.480 RR:   0.000 FEB:  -3.707
USER: RMSD 3.154821
USER: SEED 161
USER: STATUS no improvement in best in 23 clusters for 5 generations
USER: GENES 18
USER: genes 0 Translation |==|  0.45879 0.60926 0.49000
USER: genes 1 Rotation |==|  0.85635 0.51534 0.81201 0.65947
USER: genes 2 Torsion [CB]-CA--N-[C] |==|  0.85363
USER: genes 3 Torsion [N]-C--CA-[N] |==|  0.34475
USER: genes 4 Torsion [C]-CA--N-[C] |==|  0.79489
USER: genes 5 Torsion [N]-C--CA-[N] |==|  0.37793
USER: genes 6 Torsion [C]-CA--CB-[CG2] |==|  0.94534
USER: genes 7 Torsion [C]-CA--N-[H2] |==|  0.24718
USER: genes 8 Torsion [C]-CA--CB-[CG] |==|  0.03831
USER: genes 9 Torsion [CA]-CB--CG-[OD2] |==|  0.21483
USER: genes 10 Torsion [N]-CA--C-[N] |==|  0.40375
USER: genes 11 Torsion [C]-N--CA-[CB] |==|  0.26614
USER: genes 12 Torsion [N]-CA--CB-[CG2] |==|  0.84854
USER: genes 13 Torsion [N]-CA--C-[N] |==|  0.39449
USER: genes 14 Torsion [C]-N--CA-[CB] |==|  0.23074
USER: genes 15 Torsion [N]-CA--CB-[CG] |==|  0.70818
USER: genes 16 Torsion [CA]-CB--CG-[OD1] |==|  0.30412
USER: genes 17 Torsion [N]-CA--C-[O] |==|  0.25325
ROOT
ATOM      1  CA  ALA B   3      10.204   1.695  25.846  1.00 18.86 LIG 0.17  C 
ATOM      2  CB  ALA B   3       9.549   1.719  27.225  1.00 19.35 LIG 0.04  C 
ENDROOT
BRANCH 1 3
ATOM      3  N   ALA B   3       9.244   1.206  24.866  1.00 16.29 LIG-0.35  N 
ATOM      4  C   ASP B   2       8.583   0.067  25.015  1.00 15.20 LIG 0.24  C 
ATOM      5 O    ASP B   2       8.676  -0.635  26.035  1.00 18.35 LIG-0.27  OA
ATOM      6 H    ALA B   3       9.148   1.724  24.185  1.00 16.29 LIG 0.16  HD
BRANCH 4 7
ATOM      7  CA  ASP B   2       7.689  -0.353  23.838  1.00 15.30 LIG 0.19  C 
BRANCH 7 8
ATOM      8  N   ASP B   2       8.029  -1.674  23.358  1.00 15.19 LIG-0.34  N 
ATOM      9  C   VAL B   1       9.124  -1.895  22.652  1.00 14.82 LIG 0.25  C 
ATOM     10 O    VAL B   1       9.887  -0.990  22.308  1.00 14.79 LIG-0.27  OA
ATOM     11 H    ASP B   2       7.464  -2.286  23.571  1.00 15.19 LIG 0.16  HD
BRANCH 9 12
ATOM     12  CA  VAL B   1       9.361  -3.335  22.211  1.00 14.89 LIG 0.28  C 
BRANCH 12 13
ATOM     13  CB  VAL B   1      10.414  -4.059  23.064  1.00 17.39 LIG 0.02  C 
ATOM     14  CG2 VAL B   1      11.300  -3.128  23.808  1.00 22.29 LIG 0.01  C 
ATOM     15  CG1 VAL B   1      11.283  -4.954  22.228  1.00 17.29 LIG 0.01  C 
ENDBRANCH 12 13
BRANCH 12 16
ATOM     16  N   VAL B   1       9.790  -3.314  20.806  1.00 15.02 LIG-0.07  N 
ATOM     17 H2   VAL B   1      10.675  -3.238  20.767  1.00 15.02 LIG 0.28  HD
ATOM     18 H3   VAL B   1       9.540  -4.069  20.407  1.00 15.02 LIG 0.28  HD
ATOM     19 H1   VAL B   1       9.415  -2.621  20.391  1.00 15.02 LIG 0.28  HD
ENDBRANCH 12 16
ENDBRANCH 9 12
ENDBRANCH 7 8
BRANCH 7 20
ATOM     20  CB  ASP B   2       6.200  -0.273  24.188  1.00 16.98 LIG 0.15  C 
BRANCH 20 21
ATOM     21  CG  ASP B   2       5.932   0.499  25.461  1.00 17.41 LIG 0.17  C 
ATOM     22 OD1  ASP B   2       5.654  -0.158  26.505  1.00 15.73 LIG-0.65  OA
ATOM     23 OD2  ASP B   2       5.979   1.766  25.414  1.00 22.30 LIG-0.65  OA
ENDBRANCH 20 21
ENDBRANCH 7 20
ENDBRANCH 4 7
ENDBRANCH 1 3
BRANCH 1 24
ATOM     24  C   ALA B   3      11.463   0.827  25.863  1.00 21.51 LIG 0.24  C 
ATOM     25  N   VAL B   4      12.608   1.459  26.101  1.00 22.67 LIG-0.35  N 
ATOM     26 H    VAL B   4      12.688   2.315  26.117  1.00 22.67 LIG 0.16  HD
ATOM     27 O    ALA B   3      11.394  -0.388  25.668  1.00 22.81 LIG-0.27  OA
BRANCH 25 28
ATOM     28  CA  VAL B   4      13.851   0.729  26.360  1.00 26.45 LIG 0.18  C 
BRANCH 28 29
ATOM     29  CB  VAL B   4      14.698   0.570  25.077  1.00 30.01 LIG 0.01  C 
ATOM     30  CG2 VAL B   4      13.874  -0.079  23.966  1.00 31.20 LIG 0.01  C 
ATOM     31  CG1 VAL B   4      15.960  -0.243  25.356  1.00 33.02 LIG 0.01  C 
ENDBRANCH 28 29
BRANCH 28 32
ATOM     32  C   VAL B   4      14.623   1.536  27.409  1.00 25.61 LIG 0.24  C 
ATOM     33  N   ASN B   5      15.282   0.846  28.335  1.00 29.33 LIG-0.35  N 
ATOM     34 H    ASN B   5      15.311  -0.013  28.357  1.00 29.33 LIG 0.16  HD
ATOM     35 O    VAL B   4      14.584   2.766  27.389  1.00 29.65 LIG-0.27  OA
BRANCH 33 36
ATOM     36  CA  ASN B   5      16.034   1.501  29.420  1.00 34.74 LIG 0.17  C 
BRANCH 36 37
ATOM     37  CB  ASN B   5      15.078   1.865  30.552  1.00 42.44 LIG 0.14  C 
BRANCH 37 38
ATOM     38  CG  ASN B   5      14.776   3.351  30.590  1.00 45.23 LIG 0.22  C 
ATOM     39 OD1  ASN B   5      13.672   3.766  30.276  1.00 53.97 LIG-0.27  OA
ATOM     40  ND2 ASN B   5      15.773   4.162  30.931  1.00 50.63 LIG-0.37  N 
ATOM     41 21HD ASN B   5      15.653   5.013  30.936  1.00 50.63 LIG 0.16  HD
ATOM     42 22HD ASN B   5      16.539   3.834  31.147  1.00 50.63 LIG 0.16  HD
ENDBRANCH 37 38
ENDBRANCH 36 37
BRANCH 36 43
ATOM     43  C   ASN B   5      17.173   0.641  29.942  1.00 38.04 LIG 0.22  C 
ATOM     44 O    ASN B   5      18.293   0.743  29.451  1.00 41.05 LIG-0.29  OA
ENDBRANCH 36 43
ENDBRANCH 33 36
ENDBRANCH 28 32
ENDBRANCH 25 28
ENDBRANCH 1 24
TORSDOF 16
ENDMDL
MODEL 36
USER: ADFR SOLUTION from run 4
USER: SCORE 10.109503 LL:  -3.334 LR:  -8.472 RR:   0.000 FEB:  -3.699
USER: RMSD 2.464645
USER: SEED 318208
USER: STATUS no improvement in best in 6 clusters for 5 generations
USER: GENES 18
USER: genes 0 Translation |==|  0.61691 0.47034 0.40116
USER: genes 1 Rotation |==|  0.57365 0.57693 0.55998 0.98483
USER: genes 2 Torsion [CB]-CA--N-[C] |==|  0.47827
USER: genes 3 Torsion [N]-C--CA-[N] |==|  0.34668
USER: genes 4 Torsion [C]-CA--N-[C] |==|  0.83394
USER: genes 5 Torsion [N]-C--CA-[N] |==|  0.41264
USER: genes 6 Torsion [C]-CA--CB-[CG2] |==|  0.21548
USER: genes 7 Torsion [C]-CA--N-[H2] |==|  0.97106
USER: genes 8 Torsion [C]-CA--CB-[CG] |==|  0.76548
USER: genes 9 Torsion [CA]-CB--CG-[OD2] |==|  0.32629
USER: genes 10 Torsion [N]-CA--C-[N] |==|  0.47872
USER: genes 11 Torsion [C]-N--CA-[CB] |==|  0.53677
USER: genes 12 Torsion [N]-CA--CB-[CG2] |==|  0.00480
USER: genes 13 Torsion [N]-CA--C-[N] |==|  0.82778
USER: genes 14 Torsion [C]-N--CA-[CB] |==|  0.80122
USER: genes 15 Torsion [N]-CA--CB-[CG] |==|  0.85690
USER: genes 16 Torsion [CA]-CB--CG-[OD1] |==|  0.92330
USER: genes 17 Torsion [N]-CA--C-[O] |==|  0.11746
ROOT
ATOM      1  CA  ALA B   3      12.932  -0.806  23.980  1.00 18.86 LIG 0.17  C 
ATOM      2  CB  ALA B   3      13.540   0.476  23.415  1.00 19.35 LIG 0.04  C 
ENDROOT
BRANCH 1 3
ATOM      3  N   ALA B   3      11.487  -0.772  23.803  1.00 16.29 LIG-0.35  N 
ATOM      4  C   ASP B   2      10.707  -1.813  24.060  1.00 15.20 LIG 0.24  C 
ATOM      5 O    ASP B   2      11.140  -2.873  24.542  1.00 18.35 LIG-0.27  OA
ATOM      6 H    ALA B   3      11.189  -0.017  23.517  1.00 16.29 LIG 0.16  HD
BRANCH 4 7
ATOM      7  CA  ASP B   2       9.220  -1.643  23.718  1.00 15.30 LIG 0.19  C 
BRANCH 7 8
ATOM      8  N   ASP B   2       8.755  -2.690  22.834  1.00 15.19 LIG-0.34  N 
ATOM      9  C   VAL B   1       9.288  -2.877  21.640  1.00 14.82 LIG 0.25  C 
ATOM     10 O    VAL B   1      10.165  -2.143  21.181  1.00 14.79 LIG-0.27  OA
ATOM     11 H    ASP B   2       8.114  -3.166  23.153  1.00 15.19 LIG 0.16  HD
BRANCH 9 12
ATOM     12  CA  VAL B   1       8.703  -4.018  20.813  1.00 14.89 LIG 0.28  C 
BRANCH 12 13
ATOM     13  CB  VAL B   1       9.415  -5.358  21.051  1.00 17.39 LIG 0.02  C 
ATOM     14  CG2 VAL B   1       9.011  -6.014  22.322  1.00 22.29 LIG 0.01  C 
ATOM     15  CG1 VAL B   1      10.908  -5.196  21.070  1.00 17.29 LIG 0.01  C 
ENDBRANCH 12 13
BRANCH 12 16
ATOM     16  N   VAL B   1       8.804  -3.647  19.396  1.00 15.02 LIG-0.07  N 
ATOM     17 H2   VAL B   1       9.039  -2.792  19.329  1.00 15.02 LIG 0.28  HD
ATOM     18 H3   VAL B   1       9.419  -4.154  18.999  1.00 15.02 LIG 0.28  HD
ATOM     19 H1   VAL B   1       8.017  -3.771  18.999  1.00 15.02 LIG 0.28  HD
ENDBRANCH 12 16
ENDBRANCH 9 12
ENDBRANCH 7 8
BRANCH 7 20
ATOM     20  CB  ASP B   2       8.344  -1.568  24.972  1.00 16.98 LIG 0.15  C 
BRANCH 20 21
ATOM     21  CG  ASP B   2       7.964  -2.929  25.510  1.00 17.41 LIG 0.17  C 
ATOM     22 OD1  ASP B   2       7.251  -3.676  24.781  1.00 15.73 LIG-0.65  OA
ATOM     23 OD2  ASP B   2       8.362  -3.247  26.672  1.00 22.30 LIG-0.65  OA
ENDBRANCH 20 21
ENDBRANCH 7 20
ENDBRANCH 4 7
ENDBRANCH 1 3
BRANCH 1 24
ATOM     24  C   ALA B   3      13.302  -0.972  25.454  1.00 21.51 LIG 0.24  C 
ATOM     25  N   VAL B   4      14.589  -1.174  25.717  1.00 22.67 LIG-0.35  N 
ATOM     26 H    VAL B   4      15.181  -1.337  25.115  1.00 22.67 LIG 0.16  HD
ATOM     27 O    ALA B   3      12.437  -0.915  26.332  1.00 22.81 LIG-0.27  OA
BRANCH 25 28
ATOM     28  CA  VAL B   4      15.112  -1.133  27.085  1.00 26.45 LIG 0.18  C 
BRANCH 28 29
ATOM     29  CB  VAL B   4      16.656  -1.068  27.104  1.00 30.01 LIG 0.01  C 
ATOM     30  CG2 VAL B   4      17.211  -1.022  25.682  1.00 31.20 LIG 0.01  C 
ATOM     31  CG1 VAL B   4      17.239  -2.253  27.872  1.00 33.02 LIG 0.01  C 
ENDBRANCH 28 29
BRANCH 28 32
ATOM     32  C   VAL B   4      14.519   0.118  27.743  1.00 25.61 LIG 0.24  C 
ATOM     33  N   ASN B   5      14.834   1.290  27.200  1.00 29.33 LIG-0.35  N 
ATOM     34 H    ASN B   5      15.327   1.373  26.501  1.00 29.33 LIG 0.16  HD
ATOM     35 O    VAL B   4      13.816   0.009  28.747  1.00 29.65 LIG-0.27  OA
BRANCH 33 36
ATOM     36  CA  ASN B   5      14.358   2.570  27.757  1.00 34.74 LIG 0.17  C 
BRANCH 36 37
ATOM     37  CB  ASN B   5      12.864   2.716  27.485  1.00 42.44 LIG 0.14  C 
BRANCH 37 38
ATOM     38  CG  ASN B   5      12.523   2.494  26.023  1.00 45.23 LIG 0.22  C 
ATOM     39 OD1  ASN B   5      13.348   2.727  25.154  1.00 53.97 LIG-0.27  OA
ATOM     40  ND2 ASN B   5      11.289   2.086  25.746  1.00 50.63 LIG-0.37  N 
ATOM     41 21HD ASN B   5      11.046   1.977  24.929  1.00 50.63 LIG 0.16  HD
ATOM     42 22HD ASN B   5      10.734   1.931  26.384  1.00 50.63 LIG 0.16  HD
ENDBRANCH 37 38
ENDBRANCH 36 37
BRANCH 36 43
ATOM     43  C   ASN B   5      14.643   2.701  29.243  1.00 38.04 LIG 0.22  C 
ATOM     44 O    ASN B   5      15.727   2.343  29.693  1.00 41.05 LIG-0.29  OA
ENDBRANCH 36 43
ENDBRANCH 33 36
ENDBRANCH 28 32
ENDBRANCH 25 28
ENDBRANCH 1 24
TORSDOF 16
ENDMDL
MODEL 37
USER: ADFR SOLUTION from run 173
USER: SCORE 10.027382 LL:  -3.146 LR:  -8.452 RR:   0.000 FEB:  -3.679
USER: RMSD 2.852265
USER: SEED 172
USER: STATUS no improvement in best in 22 clusters for 5 generations
USER: GENES 18
USER: genes 0 Translation |==|  0.61379 0.47339 0.40203
USER: genes 1 Rotation |==|  0.60702 0.57023 0.56744 0.97861
USER: genes 2 Torsion [CB]-CA--N-[C] |==|  0.49472
USER: genes 3 Torsion [N]-C--CA-[N] |==|  0.35416
USER: genes 4 Torsion [C]-CA--N-[C] |==|  0.84037
USER: genes 5 Torsion [N]-C--CA-[N] |==|  0.40906
USER: genes 6 Torsion [C]-CA--CB-[CG2] |==|  0.19008
USER: genes 7 Torsion [C]-CA--N-[H2] |==|  0.97259
USER: genes 8 Torsion [C]-CA--CB-[CG] |==|  0.44277
USER: genes 9 Torsion [CA]-CB--CG-[OD2] |==|  0.16599
USER: genes 10 Torsion [N]-CA--C-[N] |==|  0.47902
USER: genes 11 Torsion [C]-N--CA-[CB] |==|  0.53723
USER: genes 12 Torsion [N]-CA--CB-[CG2] |==|  0.38261
USER: genes 13 Torsion [N]-CA--C-[N] |==|  0.87336
USER: genes 14 Torsion [C]-N--CA-[CB] |==|  0.26033
USER: genes 15 Torsion [N]-CA--CB-[CG] |==|  0.79029
USER: genes 16 Torsion [CA]-CB--CG-[OD1] |==|  0.88999
USER: genes 17 Torsion [N]-CA--C-[O] |==|  0.00583
ROOT
ATOM      1  CA  ALA B   3      12.878  -0.751  23.999  1.00 18.86 LIG 0.17  C 
ATOM      2  CB  ALA B   3      13.481   0.602  23.626  1.00 19.35 LIG 0.04  C 
ENDROOT
BRANCH 1 3
ATOM      3  N   ALA B   3      11.434  -0.702  23.812  1.00 16.29 LIG-0.35  N 
ATOM      4  C   ASP B   2      10.648  -1.747  24.023  1.00 15.20 LIG 0.24  C 
ATOM      5 O    ASP B   2      11.071  -2.828  24.467  1.00 18.35 LIG-0.27  OA
ATOM      6 H    ALA B   3      11.143   0.065  23.553  1.00 16.29 LIG 0.16  HD
BRANCH 4 7
ATOM      7  CA  ASP B   2       9.163  -1.556  23.677  1.00 15.30 LIG 0.19  C 
BRANCH 7 8
ATOM      8  N   ASP B   2       8.684  -2.602  22.799  1.00 15.19 LIG-0.34  N 
ATOM      9  C   VAL B   1       9.246  -2.835  21.626  1.00 14.82 LIG 0.25  C 
ATOM     10 O    VAL B   1      10.166  -2.147  21.181  1.00 14.79 LIG-0.27  OA
ATOM     11 H    ASP B   2       8.014  -3.045  23.107  1.00 15.19 LIG 0.16  HD
BRANCH 9 12
ATOM     12  CA  VAL B   1       8.640  -3.968  20.804  1.00 14.89 LIG 0.28  C 
BRANCH 12 13
ATOM     13  CB  VAL B   1       9.310  -5.326  21.067  1.00 17.39 LIG 0.02  C 
ATOM     14  CG2 VAL B   1       9.040  -5.853  22.430  1.00 22.29 LIG 0.01  C 
ATOM     15  CG1 VAL B   1      10.799  -5.252  20.889  1.00 17.29 LIG 0.01  C 
ENDBRANCH 12 13
BRANCH 12 16
ATOM     16  N   VAL B   1       8.772  -3.617  19.384  1.00 15.02 LIG-0.07  N 
ATOM     17 H2   VAL B   1       9.040  -2.772  19.311  1.00 15.02 LIG 0.28  HD
ATOM     18 H3   VAL B   1       9.372  -4.152  19.000  1.00 15.02 LIG 0.28  HD
ATOM     19 H1   VAL B   1       7.985  -3.715  18.979  1.00 15.02 LIG 0.28  HD
ENDBRANCH 12 16
ENDBRANCH 9 12
ENDBRANCH 7 8
BRANCH 7 20
ATOM     20  CB  ASP B   2       8.287  -1.459  24.928  1.00 16.98 LIG 0.15  C 
BRANCH 20 21
ATOM     21  CG  ASP B   2       6.954  -0.794  24.667  1.00 17.41 LIG 0.17  C 
ATOM     22 OD1  ASP B   2       6.673   0.249  25.326  1.00 15.73 LIG-0.65  OA
ATOM     23 OD2  ASP B   2       6.176  -1.323  23.817  1.00 22.30 LIG-0.65  OA
ENDBRANCH 20 21
ENDBRANCH 7 20
ENDBRANCH 4 7
ENDBRANCH 1 3
BRANCH 1 24
ATOM     24  C   ALA B   3      13.235  -1.120  25.439  1.00 21.51 LIG 0.24  C 
ATOM     25  N   VAL B   4      14.521  -1.346  25.685  1.00 22.67 LIG-0.35  N 
ATOM     26 H    VAL B   4      15.121  -1.418  25.073  1.00 22.67 LIG 0.16  HD
ATOM     27 O    ALA B   3      12.360  -1.195  26.305  1.00 22.81 LIG-0.27  OA
BRANCH 25 28
ATOM     28  CA  VAL B   4      15.029  -1.494  27.051  1.00 26.45 LIG 0.18  C 
BRANCH 28 29
ATOM     29  CB  VAL B   4      16.572  -1.415  27.097  1.00 30.01 LIG 0.01  C 
ATOM     30  CG2 VAL B   4      17.034  -0.572  28.284  1.00 31.20 LIG 0.01  C 
ATOM     31  CG1 VAL B   4      17.126  -0.853  25.790  1.00 33.02 LIG 0.01  C 
ENDBRANCH 28 29
BRANCH 28 32
ATOM     32  C   VAL B   4      14.414  -0.356  27.873  1.00 25.61 LIG 0.24  C 
ATOM     33  N   ASN B   5      14.432   0.857  27.329  1.00 29.33 LIG-0.35  N 
ATOM     34 H    ASN B   5      14.748   1.023  26.546  1.00 29.33 LIG 0.16  HD
ATOM     35 O    VAL B   4      13.964  -0.583  28.996  1.00 29.65 LIG-0.27  OA
BRANCH 33 36
ATOM     36  CA  ASN B   5      13.904   2.042  28.028  1.00 34.74 LIG 0.17  C 
BRANCH 36 37
ATOM     37  CB  ASN B   5      15.040   2.741  28.769  1.00 42.44 LIG 0.14  C 
BRANCH 37 38
ATOM     38  CG  ASN B   5      15.442   2.000  30.031  1.00 45.23 LIG 0.22  C 
ATOM     39 OD1  ASN B   5      14.594   1.491  30.745  1.00 53.97 LIG-0.27  OA
ATOM     40  ND2 ASN B   5      16.737   1.978  30.331  1.00 50.63 LIG-0.37  N 
ATOM     41 21HD ASN B   5      17.004   1.595  31.053  1.00 50.63 LIG 0.16  HD
ATOM     42 22HD ASN B   5      17.307   2.347  29.804  1.00 50.63 LIG 0.16  HD
ENDBRANCH 37 38
ENDBRANCH 36 37
BRANCH 36 43
ATOM     43  C   ASN B   5      13.207   3.011  27.089  1.00 38.04 LIG 0.22  C 
ATOM     44 O    ASN B   5      13.102   2.741  25.897  1.00 41.05 LIG-0.29  OA
ENDBRANCH 36 43
ENDBRANCH 33 36
ENDBRANCH 28 32
ENDBRANCH 25 28
ENDBRANCH 1 24
TORSDOF 16
ENDMDL
MODEL 38
USER: ADFR SOLUTION from run 192
USER: SCORE 9.403815 LL:  -3.101 LR:  -8.432 RR:   0.000 FEB:  -3.659
USER: RMSD 3.890151
USER: SEED 191
USER: STATUS no improvement in best in 11 clusters for 5 generations
USER: GENES 18
USER: genes 0 Translation |==|  0.64693 0.50090 0.40417
USER: genes 1 Rotation |==|  0.60462 0.56119 0.64172 0.96392
USER: genes 2 Torsion [CB]-CA--N-[C] |==|  0.49365
USER: genes 3 Torsion [N]-C--CA-[N] |==|  0.92233
USER: genes 4 Torsion [C]-CA--N-[C] |==|  0.65346
USER: genes 5 Torsion [N]-C--CA-[N] |==|  0.37448
USER: genes 6 Torsion [C]-CA--CB-[CG2] |==|  0.13647
USER: genes 7 Torsion [C]-CA--N-[H2] |==|  0.15404
USER: genes 8 Torsion [C]-CA--CB-[CG] |==|  0.25636
USER: genes 9 Torsion [CA]-CB--CG-[OD2] |==|  0.22593
USER: genes 10 Torsion [N]-CA--C-[N] |==|  0.35526
USER: genes 11 Torsion [C]-N--CA-[CB] |==|  0.47699
USER: genes 12 Torsion [N]-CA--CB-[CG2] |==|  0.79395
USER: genes 13 Torsion [N]-CA--C-[N] |==|  0.36300
USER: genes 14 Torsion [C]-N--CA-[CB] |==|  0.32452
USER: genes 15 Torsion [N]-CA--CB-[CG] |==|  0.83981
USER: genes 16 Torsion [CA]-CB--CG-[OD1] |==|  0.80551
USER: genes 17 Torsion [N]-CA--C-[O] |==|  0.22520
ROOT
ATOM      1  CA  ALA B   3      13.450  -0.256  24.044  1.00 18.86 LIG 0.17  C 
ATOM      2  CB  ALA B   3      13.671   1.232  23.781  1.00 19.35 LIG 0.04  C 
ENDROOT
BRANCH 1 3
ATOM      3  N   ALA B   3      12.073  -0.602  23.719  1.00 16.29 LIG-0.35  N 
ATOM      4  C   ASP B   2      11.604  -1.838  23.807  1.00 15.20 LIG 0.24  C 
ATOM      5 O    ASP B   2      12.281  -2.784  24.243  1.00 18.35 LIG-0.27  OA
ATOM      6 H    ALA B   3      11.596   0.068  23.466  1.00 16.29 LIG 0.16  HD
BRANCH 4 7
ATOM      7  CA  ASP B   2      10.160  -2.049  23.326  1.00 15.30 LIG 0.19  C 
BRANCH 7 8
ATOM      8  N   ASP B   2       9.371  -0.845  23.472  1.00 15.19 LIG-0.34  N 
ATOM      9  C   VAL B   1       8.238  -0.835  24.151  1.00 14.82 LIG 0.25  C 
ATOM     10 O    VAL B   1       7.753  -1.852  24.648  1.00 14.79 LIG-0.27  OA
ATOM     11 H    ASP B   2       9.703  -0.153  23.082  1.00 15.19 LIG 0.16  HD
BRANCH 9 12
ATOM     12  CA  VAL B   1       7.510   0.503  24.225  1.00 14.89 LIG 0.28  C 
BRANCH 12 13
ATOM     13  CB  VAL B   1       7.673   1.201  25.584  1.00 17.39 LIG 0.02  C 
ATOM     14  CG2 VAL B   1       9.085   1.266  26.039  1.00 22.29 LIG 0.01  C 
ATOM     15  CG1 VAL B   1       6.874   0.518  26.656  1.00 17.29 LIG 0.01  C 
ENDBRANCH 12 13
BRANCH 12 16
ATOM     16  N   VAL B   1       6.086   0.258  23.960  1.00 15.02 LIG-0.07  N 
ATOM     17 H2   VAL B   1       5.779  -0.352  24.530  1.00 15.02 LIG 0.28  HD
ATOM     18 H3   VAL B   1       5.630   1.016  24.063  1.00 15.02 LIG 0.28  HD
ATOM     19 H1   VAL B   1       5.985  -0.037  23.126  1.00 15.02 LIG 0.28  HD
ENDBRANCH 12 16
ENDBRANCH 9 12
ENDBRANCH 7 8
BRANCH 7 20
ATOM     20  CB  ASP B   2      10.102  -2.562  21.885  1.00 16.98 LIG 0.15  C 
BRANCH 20 21
ATOM     21  CG  ASP B   2      10.059  -4.071  21.795  1.00 17.41 LIG 0.17  C 
ATOM     22 OD1  ASP B   2      11.138  -4.679  21.538  1.00 15.73 LIG-0.65  OA
ATOM     23 OD2  ASP B   2       8.944  -4.650  21.962  1.00 22.30 LIG-0.65  OA
ENDBRANCH 20 21
ENDBRANCH 7 20
ENDBRANCH 4 7
ENDBRANCH 1 3
BRANCH 1 24
ATOM     24  C   ALA B   3      13.776  -0.599  25.497  1.00 21.51 LIG 0.24  C 
ATOM     25  N   VAL B   4      14.861  -1.340  25.696  1.00 22.67 LIG-0.35  N 
ATOM     26 H    VAL B   4      15.299  -1.727  25.065  1.00 22.67 LIG 0.16  HD
ATOM     27 O    ALA B   3      13.058  -0.198  26.416  1.00 22.81 LIG-0.27  OA
BRANCH 25 28
ATOM     28  CA  VAL B   4      15.410  -1.559  27.037  1.00 26.45 LIG 0.18  C 
BRANCH 28 29
ATOM     29  CB  VAL B   4      16.541  -2.613  27.025  1.00 30.01 LIG 0.01  C 
ATOM     30  CG2 VAL B   4      15.967  -4.018  26.851  1.00 31.20 LIG 0.01  C 
ATOM     31  CG1 VAL B   4      17.377  -2.526  28.300  1.00 33.02 LIG 0.01  C 
ENDBRANCH 28 29
BRANCH 28 32
ATOM     32  C   VAL B   4      15.947  -0.207  27.517  1.00 25.61 LIG 0.24  C 
ATOM     33  N   ASN B   5      15.577   0.191  28.730  1.00 29.33 LIG-0.35  N 
ATOM     34 H    ASN B   5      15.079  -0.277  29.253  1.00 29.33 LIG 0.16  HD
ATOM     35 O    VAL B   4      16.657   0.470  26.774  1.00 29.65 LIG-0.27  OA
BRANCH 33 36
ATOM     36  CA  ASN B   5      15.995   1.486  29.297  1.00 34.74 LIG 0.17  C 
BRANCH 36 37
ATOM     37  CB  ASN B   5      14.765   2.356  29.535  1.00 42.44 LIG 0.14  C 
BRANCH 37 38
ATOM     38  CG  ASN B   5      13.967   2.579  28.264  1.00 45.23 LIG 0.22  C 
ATOM     39 OD1  ASN B   5      14.413   3.279  27.369  1.00 53.97 LIG-0.27  OA
ATOM     40  ND2 ASN B   5      12.763   2.021  28.201  1.00 50.63 LIG-0.37  N 
ATOM     41 21HD ASN B   5      12.266   2.147  27.511  1.00 50.63 LIG 0.16  HD
ATOM     42 22HD ASN B   5      12.481   1.533  28.851  1.00 50.63 LIG 0.16  HD
ENDBRANCH 37 38
ENDBRANCH 36 37
BRANCH 36 43
ATOM     43  C   ASN B   5      16.793   1.330  30.581  1.00 38.04 LIG 0.22  C 
ATOM     44 O    ASN B   5      17.989   1.061  30.530  1.00 41.05 LIG-0.29  OA
ENDBRANCH 36 43
ENDBRANCH 33 36
ENDBRANCH 28 32
ENDBRANCH 25 28
ENDBRANCH 1 24
TORSDOF 16
ENDMDL
MODEL 39
USER: ADFR SOLUTION from run 13
USER: SCORE 9.444758 LL:  -3.169 LR:  -8.393 RR:   0.000 FEB:  -3.621
USER: RMSD 4.929432
USER: SEED 377165
USER: STATUS no improvement in best in 11 clusters for 5 generations
USER: GENES 18
USER: genes 0 Translation |==|  0.63062 0.49513 0.41435
USER: genes 1 Rotation |==|  0.61945 0.59179 0.59481 0.96724
USER: genes 2 Torsion [CB]-CA--N-[C] |==|  0.50010
USER: genes 3 Torsion [N]-C--CA-[N] |==|  0.35594
USER: genes 4 Torsion [C]-CA--N-[C] |==|  0.81467
USER: genes 5 Torsion [N]-C--CA-[N] |==|  0.43996
USER: genes 6 Torsion [C]-CA--CB-[CG2] |==|  0.90794
USER: genes 7 Torsion [C]-CA--N-[H2] |==|  0.94595
USER: genes 8 Torsion [C]-CA--CB-[CG] |==|  0.31376
USER: genes 9 Torsion [CA]-CB--CG-[OD2] |==|  0.24506
USER: genes 10 Torsion [N]-CA--C-[N] |==|  0.45439
USER: genes 11 Torsion [C]-N--CA-[CB] |==|  0.87772
USER: genes 12 Torsion [N]-CA--CB-[CG2] |==|  0.85863
USER: genes 13 Torsion [N]-CA--C-[N] |==|  0.17774
USER: genes 14 Torsion [C]-N--CA-[CB] |==|  0.23083
USER: genes 15 Torsion [N]-CA--CB-[CG] |==|  0.73285
USER: genes 16 Torsion [CA]-CB--CG-[OD1] |==|  0.86222
USER: genes 17 Torsion [N]-CA--C-[O] |==|  0.94333
ROOT
ATOM      1  CA  ALA B   3      13.168  -0.360  24.257  1.00 18.86 LIG 0.17  C 
ATOM      2  CB  ALA B   3      13.575   1.076  23.933  1.00 19.35 LIG 0.04  C 
ENDROOT
BRANCH 1 3
ATOM      3  N   ALA B   3      11.719  -0.480  24.173  1.00 16.29 LIG-0.35  N 
ATOM      4  C   ASP B   2      11.079  -1.617  24.405  1.00 15.20 LIG 0.24  C 
ATOM      5 O    ASP B   2      11.658  -2.649  24.784  1.00 18.35 LIG-0.27  OA
ATOM      6 H    ALA B   3      11.321   0.252  23.960  1.00 16.29 LIG 0.16  HD
BRANCH 4 7
ATOM      7  CA  ASP B   2       9.561  -1.597  24.169  1.00 15.30 LIG 0.19  C 
BRANCH 7 8
ATOM      8  N   ASP B   2       9.144  -2.681  23.306  1.00 15.19 LIG-0.34  N 
ATOM      9  C   VAL B   1       9.501  -2.733  22.036  1.00 14.82 LIG 0.25  C 
ATOM     10 O    VAL B   1      10.155  -1.842  21.492  1.00 14.79 LIG-0.27  OA
ATOM     11 H    ASP B   2       8.653  -3.273  23.692  1.00 15.19 LIG 0.16  HD
BRANCH 9 12
ATOM     12  CA  VAL B   1       8.992  -3.932  21.242  1.00 14.89 LIG 0.28  C 
BRANCH 12 13
ATOM     13  CB  VAL B   1       9.819  -5.205  21.480  1.00 17.39 LIG 0.02  C 
ATOM     14  CG2 VAL B   1      11.258  -4.926  21.723  1.00 22.29 LIG 0.01  C 
ATOM     15  CG1 VAL B   1       9.723  -6.151  20.318  1.00 17.29 LIG 0.01  C 
ENDBRANCH 12 13
BRANCH 12 16
ATOM     16  N   VAL B   1       9.024  -3.578  19.817  1.00 15.02 LIG-0.07  N 
ATOM     17 H2   VAL B   1       9.052  -2.693  19.732  1.00 15.02 LIG 0.28  HD
ATOM     18 H3   VAL B   1       9.745  -3.936  19.438  1.00 15.02 LIG 0.28  HD
ATOM     19 H1   VAL B   1       8.292  -3.891  19.417  1.00 15.02 LIG 0.28  HD
ENDBRANCH 12 16
ENDBRANCH 9 12
ENDBRANCH 7 8
BRANCH 7 20
ATOM     20  CB  ASP B   2       8.773  -1.618  25.482  1.00 16.98 LIG 0.15  C 
BRANCH 20 21
ATOM     21  CG  ASP B   2       8.016  -0.335  25.738  1.00 17.41 LIG 0.17  C 
ATOM     22 OD1  ASP B   2       8.586   0.562  26.424  1.00 15.73 LIG-0.65  OA
ATOM     23 OD2  ASP B   2       6.842  -0.228  25.271  1.00 22.30 LIG-0.65  OA
ENDBRANCH 20 21
ENDBRANCH 7 20
ENDBRANCH 4 7
ENDBRANCH 1 3
BRANCH 1 24
ATOM     24  C   ALA B   3      13.675  -0.762  25.642  1.00 21.51 LIG 0.24  C 
ATOM     25  N   VAL B   4      14.975  -1.018  25.740  1.00 22.67 LIG-0.35  N 
ATOM     26 H    VAL B   4      15.501  -1.091  25.064  1.00 22.67 LIG 0.16  HD
ATOM     27 O    ALA B   3      12.901  -0.836  26.600  1.00 22.81 LIG-0.27  OA
BRANCH 25 28
ATOM     28  CA  VAL B   4      15.629  -1.201  27.039  1.00 26.45 LIG 0.18  C 
BRANCH 28 29
ATOM     29  CB  VAL B   4      15.169  -0.139  28.064  1.00 30.01 LIG 0.01  C 
ATOM     30  CG2 VAL B   4      15.295   1.265  27.477  1.00 31.20 LIG 0.01  C 
ATOM     31  CG1 VAL B   4      15.968  -0.255  29.361  1.00 33.02 LIG 0.01  C 
ENDBRANCH 28 29
BRANCH 28 32
ATOM     32  C   VAL B   4      15.254  -2.606  27.524  1.00 25.61 LIG 0.24  C 
ATOM     33  N   ASN B   5      15.686  -3.629  26.793  1.00 29.33 LIG-0.35  N 
ATOM     34 H    ASN B   5      16.173  -3.540  26.090  1.00 29.33 LIG 0.16  HD
ATOM     35 O    VAL B   4      14.555  -2.743  28.527  1.00 29.65 LIG-0.27  OA
BRANCH 33 36
ATOM     36  CA  ASN B   5      15.367  -5.028  27.130  1.00 34.74 LIG 0.17  C 
BRANCH 36 37
ATOM     37  CB  ASN B   5      13.988  -5.380  26.580  1.00 42.44 LIG 0.14  C 
BRANCH 37 38
ATOM     38  CG  ASN B   5      12.899  -5.230  27.626  1.00 45.23 LIG 0.22  C 
ATOM     39 OD1  ASN B   5      13.028  -5.735  28.729  1.00 53.97 LIG-0.27  OA
ATOM     40  ND2 ASN B   5      11.801  -4.573  27.264  1.00 50.63 LIG-0.37  N 
ATOM     41 21HD ASN B   5      11.148  -4.492  27.816  1.00 50.63 LIG 0.16  HD
ATOM     42 22HD ASN B   5      11.745  -4.230  26.477  1.00 50.63 LIG 0.16  HD
ENDBRANCH 37 38
ENDBRANCH 36 37
BRANCH 36 43
ATOM     43  C   ASN B   5      16.410  -6.005  26.614  1.00 38.04 LIG 0.22  C 
ATOM     44 O    ASN B   5      17.160  -5.675  25.702  1.00 41.05 LIG-0.29  OA
ENDBRANCH 36 43
ENDBRANCH 33 36
ENDBRANCH 28 32
ENDBRANCH 25 28
ENDBRANCH 1 24
TORSDOF 16
ENDMDL
