MODEL 1
USER: ADFR SOLUTION from run 97
USER: SCORE 8.310505 LL:  -1.146 LR:  -8.302 RR:   0.000 FEB:  -5.617
USER: RMSD 2.766125
USER: SEED 96
USER: STATUS searching
USER: GENES 11
USER: genes 0 Translation |==|  0.40507 0.59943 0.42009
USER: genes 1 Rotation |==|  0.58669 0.57728 0.46832 0.98529
USER: genes 2 Torsion [N]-CA--C-[N] |==|  0.59998
USER: genes 3 Torsion [C]-N--CA-[C] |==|  0.70401
USER: genes 4 Torsion [N]-CA--C-[N] |==|  0.61441
USER: genes 5 Torsion [C]-N--CA-[C] |==|  0.60628
USER: genes 6 Torsion [N]-CA--C-[O] |==|  0.39071
USER: genes 7 Torsion [CB]-CA--N-[C] |==|  0.78250
USER: genes 8 Torsion [N]-C--CA-[N] |==|  0.95719
USER: genes 9 Torsion [C]-CA--N-[C] |==|  0.29443
USER: genes 10 Torsion [N]-C--CA-[N] |==|  0.44921
ROOT
ATOM      1  CA  ALA F 463      33.542 -25.159  23.945  1.00 80.84 LIG 0.17  C 
ATOM      2  CB  ALA F 463      33.097 -23.738  23.638  1.00 75.28 LIG 0.04  C 
ENDROOT
BRANCH 1 3
ATOM      3  C   ALA F 463      35.010 -25.351  23.587  1.00 84.46 LIG 0.24  C 
ATOM      4 O    ALA F 463      35.671 -26.257  24.097  1.00 85.06 LIG-0.27  OA
ATOM      5  N   GLY F 464      35.519 -24.493  22.709  1.00 87.45 LIG-0.35  N 
ATOM      6 H    GLY F 464      35.057 -23.891  22.304  1.00 87.45 LIG 0.16  HD
BRANCH 5 7
ATOM      7  CA  GLY F 464      36.927 -24.501  22.358  1.00 89.28 LIG 0.23  C 
BRANCH 7 8
ATOM      8  C   GLY F 464      37.741 -23.355  22.933  1.00 90.16 LIG 0.23  C 
ATOM      9 O    GLY F 464      37.556 -22.984  24.093  1.00 90.52 LIG-0.27  OA
ATOM     10  N   ALA F 465      38.640 -22.794  22.128  1.00 88.18 LIG-0.35  N 
ATOM     11 H    ALA F 465      38.763 -23.030  21.310  1.00 88.18 LIG 0.16  HD
BRANCH 10 12
ATOM     12  CA  ALA F 465      39.511 -21.710  22.576  1.00 85.90 LIG 0.16  C 
ATOM     13  CB  ALA F 465      40.852 -22.264  23.036  1.00 84.54 LIG 0.04  C 
BRANCH 12 14
ATOM     14  C   ALA F 465      39.720 -20.665  21.480  1.00 85.67 LIG 0.22  C 
ATOM     15 O    ALA F 465      39.751 -19.463  21.753  1.00 84.89 LIG-0.29  OA
ENDBRANCH 12 14
ENDBRANCH 10 12
ENDBRANCH 7 8
ENDBRANCH 5 7
ENDBRANCH 1 3
BRANCH 1 16
ATOM     16  N   ALA F 463      33.323 -25.474  25.353  1.00 83.00 LIG-0.35  N 
ATOM     17  C   GLY F 462      34.150 -25.044  26.303  1.00 85.58 LIG 0.24  C 
ATOM     18 O    GLY F 462      35.155 -24.371  26.068  1.00 87.56 LIG-0.27  OA
ATOM     19 H    ALA F 463      32.626 -25.952  25.505  1.00 83.00 LIG 0.16  HD
BRANCH 17 20
ATOM     20  CA  GLY F 462      33.798 -25.430  27.725  1.00 87.31 LIG 0.23  C 
BRANCH 20 21
ATOM     21  N   GLY F 462      32.431 -25.901  27.847  1.00 88.73 LIG-0.35  N 
ATOM     22  C   ALA F 461      32.142 -27.186  28.018  1.00 88.98 LIG 0.26  C 
ATOM     23 O    ALA F 461      33.001 -28.066  28.082  1.00 91.33 LIG-0.27  OA
ATOM     24 H    GLY F 462      31.838 -25.280  27.799  1.00 88.73 LIG 0.16  HD
BRANCH 22 25
ATOM     25  CA  ALA F 461      30.662 -27.529  28.128  1.00 85.90 LIG 0.40  C 
ATOM     26  CB  ALA F 461      30.121 -27.136  29.495  1.00 82.87 LIG 0.06  C 
ATOM     27  N   ALA F 461      30.439 -28.950  27.881  1.00 83.73 LIG 0.61  N 
ENDBRANCH 22 25
ENDBRANCH 20 21
ENDBRANCH 17 20
ENDBRANCH 1 16
TORSDOF 9
ENDMDL
MODEL 2
USER: ADFR SOLUTION from run 97
USER: SCORE 7.684490 LL:  -1.076 LR:  -8.026 RR:   0.000 FEB:  -5.341
USER: RMSD 3.441261
USER: SEED 96
USER: STATUS searching
USER: GENES 11
USER: genes 0 Translation |==|  0.51259 0.66779 0.46934
USER: genes 1 Rotation |==|  0.86509 0.60778 0.21400 0.65264
USER: genes 2 Torsion [N]-CA--C-[N] |==|  0.62363
USER: genes 3 Torsion [C]-N--CA-[C] |==|  0.36830
USER: genes 4 Torsion [N]-CA--C-[N] |==|  0.96938
USER: genes 5 Torsion [C]-N--CA-[C] |==|  0.51695
USER: genes 6 Torsion [N]-CA--C-[O] |==|  0.56429
USER: genes 7 Torsion [CB]-CA--N-[C] |==|  0.19326
USER: genes 8 Torsion [N]-C--CA-[N] |==|  0.50623
USER: genes 9 Torsion [C]-CA--N-[C] |==|  0.51093
USER: genes 10 Torsion [N]-C--CA-[N] |==|  0.17418
ROOT
ATOM      1  CA  ALA F 463      35.478 -24.134  24.905  1.00 80.84 LIG 0.17  C 
ATOM      2  CB  ALA F 463      36.771 -24.322  25.684  1.00 75.28 LIG 0.04  C 
ENDROOT
BRANCH 1 3
ATOM      3  C   ALA F 463      35.728 -24.271  23.409  1.00 84.46 LIG 0.24  C 
ATOM      4 O    ALA F 463      34.790 -24.393  22.621  1.00 85.06 LIG-0.27  OA
ATOM      5  N   GLY F 464      36.999 -24.256  23.021  1.00 87.45 LIG-0.35  N 
ATOM      6 H    GLY F 464      37.661 -24.116  23.553  1.00 87.45 LIG 0.16  HD
BRANCH 5 7
ATOM      7  CA  GLY F 464      37.380 -24.477  21.638  1.00 89.28 LIG 0.23  C 
BRANCH 7 8
ATOM      8  C   GLY F 464      38.379 -23.479  21.079  1.00 90.16 LIG 0.23  C 
ATOM      9 O    GLY F 464      38.922 -23.686  19.993  1.00 90.52 LIG-0.27  OA
ATOM     10  N   ALA F 465      38.622 -22.397  21.816  1.00 88.18 LIG-0.35  N 
ATOM     11 H    ALA F 465      38.266 -22.252  22.585  1.00 88.18 LIG 0.16  HD
BRANCH 10 12
ATOM     12  CA  ALA F 465      39.532 -21.345  21.369  1.00 85.90 LIG 0.16  C 
ATOM     13  CB  ALA F 465      39.001 -20.689  20.102  1.00 84.54 LIG 0.04  C 
BRANCH 12 14
ATOM     14  C   ALA F 465      39.753 -20.292  22.454  1.00 85.67 LIG 0.22  C 
ATOM     15 O    ALA F 465      40.118 -19.151  22.161  1.00 84.89 LIG-0.29  OA
ENDBRANCH 12 14
ENDBRANCH 10 12
ENDBRANCH 7 8
ENDBRANCH 5 7
ENDBRANCH 1 3
BRANCH 1 16
ATOM     16  N   ALA F 463      34.473 -25.100  25.337  1.00 83.00 LIG-0.35  N 
ATOM     17  C   GLY F 462      33.904 -25.030  26.538  1.00 85.58 LIG 0.24  C 
ATOM     18 O    GLY F 462      34.189 -24.166  27.369  1.00 87.56 LIG-0.27  OA
ATOM     19 H    ALA F 463      34.289 -25.705  24.754  1.00 83.00 LIG 0.16  HD
BRANCH 17 20
ATOM     20  CA  GLY F 462      32.866 -26.087  26.852  1.00 87.31 LIG 0.23  C 
BRANCH 20 21
ATOM     21  N   GLY F 462      32.265 -25.901  28.159  1.00 88.73 LIG-0.35  N 
ATOM     22  C   ALA F 461      31.387 -26.763  28.660  1.00 88.98 LIG 0.26  C 
ATOM     23 O    ALA F 461      31.017 -27.772  28.060  1.00 91.33 LIG-0.27  OA
ATOM     24 H    GLY F 462      32.527 -25.193  28.571  1.00 88.73 LIG 0.16  HD
BRANCH 22 25
ATOM     25  CA  ALA F 461      30.841 -26.432  30.044  1.00 85.90 LIG 0.40  C 
ATOM     26  CB  ALA F 461      29.956 -27.559  30.555  1.00 82.87 LIG 0.06  C 
ATOM     27  N   ALA F 461      30.101 -25.174  30.021  1.00 83.73 LIG 0.61  N 
ENDBRANCH 22 25
ENDBRANCH 20 21
ENDBRANCH 17 20
ENDBRANCH 1 16
TORSDOF 9
ENDMDL
MODEL 3
USER: ADFR SOLUTION from run 148
USER: SCORE 7.483452 LL:  -0.990 LR:  -8.007 RR:   0.000 FEB:  -5.323
USER: RMSD 2.858429
USER: SEED 147
USER: STATUS no improvement in best in 16 clusters for 5 generations
USER: GENES 11
USER: genes 0 Translation |==|  0.45469 0.59762 0.38907
USER: genes 1 Rotation |==|  0.63011 0.55448 0.60936 0.96706
USER: genes 2 Torsion [N]-CA--C-[N] |==|  0.37261
USER: genes 3 Torsion [C]-N--CA-[C] |==|  0.41666
USER: genes 4 Torsion [N]-CA--C-[N] |==|  0.07358
USER: genes 5 Torsion [C]-N--CA-[C] |==|  0.18386
USER: genes 6 Torsion [N]-CA--C-[O] |==|  0.37824
USER: genes 7 Torsion [CB]-CA--N-[C] |==|  0.87519
USER: genes 8 Torsion [N]-C--CA-[N] |==|  0.62160
USER: genes 9 Torsion [C]-CA--N-[C] |==|  0.39548
USER: genes 10 Torsion [N]-C--CA-[N] |==|  0.47753
ROOT
ATOM      1  CA  ALA F 463      34.435 -25.187  23.340  1.00 80.84 LIG 0.17  C 
ATOM      2  CB  ALA F 463      33.374 -24.102  23.231  1.00 75.28 LIG 0.04  C 
ENDROOT
BRANCH 1 3
ATOM      3  C   ALA F 463      35.831 -24.576  23.318  1.00 84.46 LIG 0.24  C 
ATOM      4 O    ALA F 463      36.289 -24.015  24.314  1.00 85.06 LIG-0.27  OA
ATOM      5  N   GLY F 464      36.502 -24.683  22.177  1.00 87.45 LIG-0.35  N 
ATOM      6 H    GLY F 464      36.218 -25.119  21.492  1.00 87.45 LIG 0.16  HD
BRANCH 5 7
ATOM      7  CA  GLY F 464      37.800 -24.059  21.990  1.00 89.28 LIG 0.23  C 
BRANCH 7 8
ATOM      8  C   GLY F 464      38.729 -24.783  21.032  1.00 90.16 LIG 0.23  C 
ATOM      9 O    GLY F 464      39.951 -24.668  21.147  1.00 90.52 LIG-0.27  OA
ATOM     10  N   ALA F 465      38.157 -25.527  20.088  1.00 88.18 LIG-0.35  N 
ATOM     11 H    ALA F 465      37.306 -25.597  19.984  1.00 88.18 LIG 0.16  HD
BRANCH 10 12
ATOM     12  CA  ALA F 465      38.943 -26.302  19.131  1.00 85.90 LIG 0.16  C 
ATOM     13  CB  ALA F 465      39.903 -25.394  18.376  1.00 84.54 LIG 0.04  C 
BRANCH 12 14
ATOM     14  C   ALA F 465      39.713 -27.429  19.817  1.00 85.67 LIG 0.22  C 
ATOM     15 O    ALA F 465      39.751 -28.559  19.323  1.00 84.89 LIG-0.29  OA
ENDBRANCH 12 14
ENDBRANCH 10 12
ENDBRANCH 7 8
ENDBRANCH 5 7
ENDBRANCH 1 3
BRANCH 1 16
ATOM     16  N   ALA F 463      34.248 -25.968  24.558  1.00 83.00 LIG-0.35  N 
ATOM     17  C   GLY F 462      33.997 -25.389  25.730  1.00 85.58 LIG 0.24  C 
ATOM     18 O    GLY F 462      33.921 -24.169  25.876  1.00 87.56 LIG-0.27  OA
ATOM     19 H    ALA F 463      34.314 -26.818  24.447  1.00 83.00 LIG 0.16  HD
BRANCH 17 20
ATOM     20  CA  GLY F 462      33.809 -26.319  26.911  1.00 87.31 LIG 0.23  C 
BRANCH 20 21
ATOM     21  N   GLY F 462      32.686 -25.934  27.745  1.00 88.73 LIG-0.35  N 
ATOM     22  C   ALA F 461      31.890 -26.833  28.312  1.00 88.98 LIG 0.26  C 
ATOM     23 O    ALA F 461      32.039 -28.047  28.174  1.00 91.33 LIG-0.27  OA
ATOM     24 H    GLY F 462      32.589 -25.085  27.835  1.00 88.73 LIG 0.16  HD
BRANCH 22 25
ATOM     25  CA  ALA F 461      30.751 -26.276  29.159  1.00 85.90 LIG 0.40  C 
ATOM     26  CB  ALA F 461      31.297 -25.546  30.377  1.00 82.87 LIG 0.06  C 
ATOM     27  N   ALA F 461      29.842 -27.341  29.568  1.00 83.73 LIG 0.61  N 
ENDBRANCH 22 25
ENDBRANCH 20 21
ENDBRANCH 17 20
ENDBRANCH 1 16
TORSDOF 9
ENDMDL
MODEL 4
USER: ADFR SOLUTION from run 44
USER: SCORE 7.780295 LL:  -1.187 LR:  -7.822 RR:   0.000 FEB:  -5.137
USER: RMSD 3.650100
USER: SEED 43
USER: STATUS no improvement in best in 18 clusters for 5 generations
USER: GENES 11
USER: genes 0 Translation |==|  0.40230 0.61014 0.41651
USER: genes 1 Rotation |==|  0.66533 0.57259 0.45222 0.96380
USER: genes 2 Torsion [N]-CA--C-[N] |==|  0.53317
USER: genes 3 Torsion [C]-N--CA-[C] |==|  0.72742
USER: genes 4 Torsion [N]-CA--C-[N] |==|  0.62525
USER: genes 5 Torsion [C]-N--CA-[C] |==|  0.62003
USER: genes 6 Torsion [N]-CA--C-[O] |==|  0.41850
USER: genes 7 Torsion [CB]-CA--N-[C] |==|  0.82594
USER: genes 8 Torsion [N]-C--CA-[N] |==|  0.62402
USER: genes 9 Torsion [C]-CA--N-[C] |==|  0.75432
USER: genes 10 Torsion [N]-C--CA-[N] |==|  0.74598
ROOT
ATOM      1  CA  ALA F 463      33.492 -24.999  23.875  1.00 80.84 LIG 0.17  C 
ATOM      2  CB  ALA F 463      33.225 -23.508  24.019  1.00 75.28 LIG 0.04  C 
ENDROOT
BRANCH 1 3
ATOM      3  C   ALA F 463      34.939 -25.248  23.468  1.00 84.46 LIG 0.24  C 
ATOM      4 O    ALA F 463      35.611 -26.115  24.028  1.00 85.06 LIG-0.27  OA
ATOM      5  N   GLY F 464      35.416 -24.481  22.493  1.00 87.45 LIG-0.35  N 
ATOM      6 H    GLY F 464      34.943 -23.911  22.056  1.00 87.45 LIG 0.16  HD
BRANCH 5 7
ATOM      7  CA  GLY F 464      36.806 -24.546  22.078  1.00 89.28 LIG 0.23  C 
BRANCH 7 8
ATOM      8  C   GLY F 464      37.705 -23.476  22.673  1.00 90.16 LIG 0.23  C 
ATOM      9 O    GLY F 464      37.639 -23.206  23.873  1.00 90.52 LIG-0.27  OA
ATOM     10  N   ALA F 465      38.544 -22.866  21.838  1.00 88.18 LIG-0.35  N 
ATOM     11 H    ALA F 465      38.583 -23.030  20.995  1.00 88.18 LIG 0.16  HD
BRANCH 10 12
ATOM     12  CA  ALA F 465      39.486 -21.847  22.295  1.00 85.90 LIG 0.16  C 
ATOM     13  CB  ALA F 465      40.875 -22.447  22.459  1.00 84.54 LIG 0.04  C 
BRANCH 12 14
ATOM     14  C   ALA F 465      39.536 -20.656  21.339  1.00 85.67 LIG 0.22  C 
ATOM     15 O    ALA F 465      39.806 -19.526  21.753  1.00 84.89 LIG-0.29  OA
ENDBRANCH 12 14
ENDBRANCH 10 12
ENDBRANCH 7 8
ENDBRANCH 5 7
ENDBRANCH 1 3
BRANCH 1 16
ATOM     16  N   ALA F 463      33.194 -25.697  25.121  1.00 83.00 LIG-0.35  N 
ATOM     17  C   GLY F 462      33.861 -25.442  26.244  1.00 85.58 LIG 0.24  C 
ATOM     18 O    GLY F 462      34.776 -24.621  26.312  1.00 87.56 LIG-0.27  OA
ATOM     19 H    ALA F 463      32.561 -26.276  25.060  1.00 83.00 LIG 0.16  HD
BRANCH 17 20
ATOM     20  CA  GLY F 462      33.439 -26.229  27.468  1.00 87.31 LIG 0.23  C 
BRANCH 20 21
ATOM     21  N   GLY F 462      33.326 -25.394  28.649  1.00 88.73 LIG-0.35  N 
ATOM     22  C   ALA F 461      34.360 -25.164  29.451  1.00 88.98 LIG 0.26  C 
ATOM     23 O    ALA F 461      35.479 -25.638  29.257  1.00 91.33 LIG-0.27  OA
ATOM     24 H    GLY F 462      32.540 -25.069  28.778  1.00 88.73 LIG 0.16  HD
BRANCH 22 25
ATOM     25  CA  ALA F 461      34.087 -24.269  30.653  1.00 85.90 LIG 0.40  C 
ATOM     26  CB  ALA F 461      32.652 -24.436  31.131  1.00 82.87 LIG 0.06  C 
ATOM     27  N   ALA F 461      34.357 -22.871  30.331  1.00 83.73 LIG 0.61  N 
ENDBRANCH 22 25
ENDBRANCH 20 21
ENDBRANCH 17 20
ENDBRANCH 1 16
TORSDOF 9
ENDMDL
MODEL 5
USER: ADFR SOLUTION from run 44
USER: SCORE 7.609258 LL:  -1.046 LR:  -7.632 RR:   0.000 FEB:  -4.947
USER: RMSD 3.872610
USER: SEED 43
USER: STATUS no improvement in best in 18 clusters for 5 generations
USER: GENES 11
USER: genes 0 Translation |==|  0.45073 0.60187 0.38832
USER: genes 1 Rotation |==|  0.61205 0.55288 0.59757 0.97448
USER: genes 2 Torsion [N]-CA--C-[N] |==|  0.39385
USER: genes 3 Torsion [C]-N--CA-[C] |==|  0.46538
USER: genes 4 Torsion [N]-CA--C-[N] |==|  0.87441
USER: genes 5 Torsion [C]-N--CA-[C] |==|  0.49932
USER: genes 6 Torsion [N]-CA--C-[O] |==|  0.72343
USER: genes 7 Torsion [CB]-CA--N-[C] |==|  0.86051
USER: genes 8 Torsion [N]-C--CA-[N] |==|  0.53131
USER: genes 9 Torsion [C]-CA--N-[C] |==|  0.75669
USER: genes 10 Torsion [N]-C--CA-[N] |==|  0.27442
ROOT
ATOM      1  CA  ALA F 463      34.364 -25.123  23.325  1.00 80.84 LIG 0.17  C 
ATOM      2  CB  ALA F 463      33.354 -24.005  23.116  1.00 75.28 LIG 0.04  C 
ENDROOT
BRANCH 1 3
ATOM      3  C   ALA F 463      35.786 -24.577  23.276  1.00 84.46 LIG 0.24  C 
ATOM      4 O    ALA F 463      36.307 -24.085  24.277  1.00 85.06 LIG-0.27  OA
ATOM      5  N   GLY F 464      36.409 -24.664  22.106  1.00 87.45 LIG-0.35  N 
ATOM      6 H    GLY F 464      36.078 -25.055  21.414  1.00 87.45 LIG 0.16  HD
BRANCH 5 7
ATOM      7  CA  GLY F 464      37.727 -24.093  21.896  1.00 89.28 LIG 0.23  C 
BRANCH 7 8
ATOM      8  C   GLY F 464      38.419 -24.527  20.616  1.00 90.16 LIG 0.23  C 
ATOM      9 O    GLY F 464      38.983 -23.696  19.902  1.00 90.52 LIG-0.27  OA
ATOM     10  N   ALA F 465      38.379 -25.825  20.323  1.00 88.18 LIG-0.35  N 
ATOM     11 H    ALA F 465      37.970 -26.411  20.801  1.00 88.18 LIG 0.16  HD
BRANCH 10 12
ATOM     12  CA  ALA F 465      39.040 -26.373  19.140  1.00 85.90 LIG 0.16  C 
ATOM     13  CB  ALA F 465      40.524 -26.032  19.159  1.00 84.54 LIG 0.04  C 
BRANCH 12 14
ATOM     14  C   ALA F 465      38.848 -27.885  19.037  1.00 85.67 LIG 0.22  C 
ATOM     15 O    ALA F 465      39.736 -28.660  19.402  1.00 84.89 LIG-0.29  OA
ENDBRANCH 12 14
ENDBRANCH 10 12
ENDBRANCH 7 8
ENDBRANCH 5 7
ENDBRANCH 1 3
BRANCH 1 16
ATOM     16  N   ALA F 463      34.129 -25.797  24.598  1.00 83.00 LIG-0.35  N 
ATOM     17  C   GLY F 462      33.994 -25.118  25.735  1.00 85.58 LIG 0.24  C 
ATOM     18 O    GLY F 462      34.072 -23.891  25.801  1.00 87.56 LIG-0.27  OA
ATOM     19 H    ALA F 463      34.086 -26.654  24.543  1.00 83.00 LIG 0.16  HD
BRANCH 17 20
ATOM     20  CA  GLY F 462      33.738 -25.941  26.981  1.00 87.31 LIG 0.23  C 
BRANCH 20 21
ATOM     21  N   GLY F 462      33.348 -25.123  28.114  1.00 88.73 LIG-0.35  N 
ATOM     22  C   ALA F 461      34.243 -24.578  28.930  1.00 88.98 LIG 0.26  C 
ATOM     23 O    ALA F 461      35.457 -24.726  28.793  1.00 91.33 LIG-0.27  OA
ATOM     24 H    GLY F 462      32.498 -25.026  28.203  1.00 88.73 LIG 0.16  HD
BRANCH 22 25
ATOM     25  CA  ALA F 461      33.681 -23.746  30.077  1.00 85.90 LIG 0.40  C 
ATOM     26  CB  ALA F 461      34.502 -22.479  30.271  1.00 82.87 LIG 0.06  C 
ATOM     27  N   ALA F 461      33.643 -24.523  31.311  1.00 83.73 LIG 0.61  N 
ENDBRANCH 22 25
ENDBRANCH 20 21
ENDBRANCH 17 20
ENDBRANCH 1 16
TORSDOF 9
ENDMDL
MODEL 6
USER: ADFR SOLUTION from run 120
USER: SCORE 7.840625 LL:  -1.363 LR:  -7.557 RR:   0.000 FEB:  -4.872
USER: RMSD 2.895800
USER: SEED 119
USER: STATUS no improvement in best in 13 clusters for 5 generations
USER: GENES 11
USER: genes 0 Translation |==|  0.49501 0.62650 0.40987
USER: genes 1 Rotation |==|  0.56615 0.46411 0.76647 0.91633
USER: genes 2 Torsion [N]-CA--C-[N] |==|  0.15130
USER: genes 3 Torsion [C]-N--CA-[C] |==|  0.76560
USER: genes 4 Torsion [N]-CA--C-[N] |==|  0.07778
USER: genes 5 Torsion [C]-N--CA-[C] |==|  0.82937
USER: genes 6 Torsion [N]-CA--C-[O] |==|  0.64307
USER: genes 7 Torsion [CB]-CA--N-[C] |==|  0.82168
USER: genes 8 Torsion [N]-C--CA-[N] |==|  0.53906
USER: genes 9 Torsion [C]-CA--N-[C] |==|  0.42928
USER: genes 10 Torsion [N]-C--CA-[N] |==|  0.46478
ROOT
ATOM      1  CA  ALA F 463      35.161 -24.753  23.745  1.00 80.84 LIG 0.17  C 
ATOM      2  CB  ALA F 463      33.923 -24.394  22.938  1.00 75.28 LIG 0.04  C 
ENDROOT
BRANCH 1 3
ATOM      3  C   ALA F 463      35.833 -23.497  24.285  1.00 84.46 LIG 0.24  C 
ATOM      4 O    ALA F 463      35.400 -22.380  24.003  1.00 85.06 LIG-0.27  OA
ATOM      5  N   GLY F 464      36.896 -23.685  25.060  1.00 87.45 LIG-0.35  N 
ATOM      6 H    GLY F 464      37.176 -24.459  25.311  1.00 87.45 LIG 0.16  HD
BRANCH 5 7
ATOM      7  CA  GLY F 464      37.687 -22.575  25.558  1.00 89.28 LIG 0.23  C 
BRANCH 7 8
ATOM      8  C   GLY F 464      38.754 -22.067  24.603  1.00 90.16 LIG 0.23  C 
ATOM      9 O    GLY F 464      39.775 -21.535  25.040  1.00 90.52 LIG-0.27  OA
ATOM     10  N   ALA F 465      38.521 -22.230  23.302  1.00 88.18 LIG-0.35  N 
ATOM     11 H    ALA F 465      37.803 -22.580  22.985  1.00 88.18 LIG 0.16  HD
BRANCH 10 12
ATOM     12  CA  ALA F 465      39.487 -21.820  22.286  1.00 85.90 LIG 0.16  C 
ATOM     13  CB  ALA F 465      39.001 -22.224  20.900  1.00 84.54 LIG 0.04  C 
BRANCH 12 14
ATOM     14  C   ALA F 465      39.752 -20.316  22.334  1.00 85.67 LIG 0.22  C 
ATOM     15 O    ALA F 465      39.666 -19.628  21.314  1.00 84.89 LIG-0.29  OA
ENDBRANCH 12 14
ENDBRANCH 10 12
ENDBRANCH 7 8
ENDBRANCH 5 7
ENDBRANCH 1 3
BRANCH 1 16
ATOM     16  N   ALA F 463      34.816 -25.650  24.844  1.00 83.00 LIG-0.35  N 
ATOM     17  C   GLY F 462      34.017 -25.266  25.836  1.00 85.58 LIG 0.24  C 
ATOM     18 O    GLY F 462      33.528 -24.138  25.910  1.00 87.56 LIG-0.27  OA
ATOM     19 H    ALA F 463      35.171 -26.431  24.788  1.00 83.00 LIG 0.16  HD
BRANCH 17 20
ATOM     20  CA  GLY F 462      33.729 -26.301  26.904  1.00 87.31 LIG 0.23  C 
BRANCH 20 21
ATOM     21  N   GLY F 462      32.615 -25.923  27.754  1.00 88.73 LIG-0.35  N 
ATOM     22  C   ALA F 461      31.882 -26.826  28.396  1.00 88.98 LIG 0.26  C 
ATOM     23 O    ALA F 461      32.085 -28.037  28.318  1.00 91.33 LIG-0.27  OA
ATOM     24 H    GLY F 462      32.479 -25.076  27.802  1.00 88.73 LIG 0.16  HD
BRANCH 22 25
ATOM     25  CA  ALA F 461      30.745 -26.277  29.250  1.00 85.90 LIG 0.40  C 
ATOM     26  CB  ALA F 461      31.293 -25.552  30.470  1.00 82.87 LIG 0.06  C 
ATOM     27  N   ALA F 461      29.840 -27.347  29.657  1.00 83.73 LIG 0.61  N 
ENDBRANCH 22 25
ENDBRANCH 20 21
ENDBRANCH 17 20
ENDBRANCH 1 16
TORSDOF 9
ENDMDL
MODEL 7
USER: ADFR SOLUTION from run 55
USER: SCORE 8.351813 LL:  -1.337 LR:  -7.377 RR:   0.000 FEB:  -4.693
USER: RMSD 3.330886
USER: SEED 54
USER: STATUS no improvement in best in 7 clusters for 5 generations
USER: GENES 11
USER: genes 0 Translation |==|  0.49679 0.61721 0.39060
USER: genes 1 Rotation |==|  0.46710 0.66145 0.56505 0.96757
USER: genes 2 Torsion [N]-CA--C-[N] |==|  0.13296
USER: genes 3 Torsion [C]-N--CA-[C] |==|  0.21232
USER: genes 4 Torsion [N]-CA--C-[N] |==|  0.00016
USER: genes 5 Torsion [C]-N--CA-[C] |==|  0.15403
USER: genes 6 Torsion [N]-CA--C-[O] |==|  0.46367
USER: genes 7 Torsion [CB]-CA--N-[C] |==|  0.16212
USER: genes 8 Torsion [N]-C--CA-[N] |==|  0.48890
USER: genes 9 Torsion [C]-CA--N-[C] |==|  0.23778
USER: genes 10 Torsion [N]-C--CA-[N] |==|  0.26132
ROOT
ATOM      1  CA  ALA F 463      35.193 -24.893  23.370  1.00 80.84 LIG 0.17  C 
ATOM      2  CB  ALA F 463      34.016 -24.064  22.878  1.00 75.28 LIG 0.04  C 
ENDROOT
BRANCH 1 3
ATOM      3  C   ALA F 463      36.443 -24.588  22.553  1.00 84.46 LIG 0.24  C 
ATOM      4 O    ALA F 463      36.376 -23.906  21.530  1.00 85.06 LIG-0.27  OA
ATOM      5  N   GLY F 464      37.582 -25.099  23.007  1.00 87.45 LIG-0.35  N 
ATOM      6 H    GLY F 464      37.652 -25.529  23.749  1.00 87.45 LIG 0.16  HD
BRANCH 5 7
ATOM      7  CA  GLY F 464      38.826 -24.968  22.272  1.00 89.28 LIG 0.23  C 
BRANCH 7 8
ATOM      8  C   GLY F 464      39.482 -23.601  22.356  1.00 90.16 LIG 0.23  C 
ATOM      9 O    GLY F 464      40.542 -23.384  21.767  1.00 90.52 LIG-0.27  OA
ATOM     10  N   ALA F 465      38.856 -22.679  23.085  1.00 88.18 LIG-0.35  N 
ATOM     11 H    ALA F 465      38.128 -22.826  23.518  1.00 88.18 LIG 0.16  HD
BRANCH 10 12
ATOM     12  CA  ALA F 465      39.365 -21.316  23.211  1.00 85.90 LIG 0.16  C 
ATOM     13  CB  ALA F 465      40.674 -21.310  23.989  1.00 84.54 LIG 0.04  C 
BRANCH 12 14
ATOM     14  C   ALA F 465      39.561 -20.658  21.846  1.00 85.67 LIG 0.22  C 
ATOM     15 O    ALA F 465      39.751 -19.443  21.753  1.00 84.89 LIG-0.29  OA
ENDBRANCH 12 14
ENDBRANCH 10 12
ENDBRANCH 7 8
ENDBRANCH 5 7
ENDBRANCH 1 3
BRANCH 1 16
ATOM     16  N   ALA F 463      35.444 -24.640  24.785  1.00 83.00 LIG-0.35  N 
ATOM     17  C   GLY F 462      34.510 -24.850  25.710  1.00 85.58 LIG 0.24  C 
ATOM     18 O    GLY F 462      33.377 -25.253  25.444  1.00 87.56 LIG-0.27  OA
ATOM     19 H    ALA F 463      36.234 -24.349  24.958  1.00 83.00 LIG 0.16  HD
BRANCH 17 20
ATOM     20  CA  GLY F 462      34.908 -24.561  27.143  1.00 87.31 LIG 0.23  C 
BRANCH 20 21
ATOM     21  N   GLY F 462      33.804 -24.729  28.068  1.00 88.73 LIG-0.35  N 
ATOM     22  C   ALA F 461      33.496 -25.911  28.591  1.00 88.98 LIG 0.26  C 
ATOM     23 O    ALA F 461      34.115 -26.942  28.332  1.00 91.33 LIG-0.27  OA
ATOM     24 H    GLY F 462      33.376 -24.003  28.242  1.00 88.73 LIG 0.16  HD
BRANCH 22 25
ATOM     25  CA  ALA F 461      32.309 -25.930  29.546  1.00 85.90 LIG 0.40  C 
ATOM     26  CB  ALA F 461      32.557 -26.902  30.689  1.00 82.87 LIG 0.06  C 
ATOM     27  N   ALA F 461      31.081 -26.277  28.839  1.00 83.73 LIG 0.61  N 
ENDBRANCH 22 25
ENDBRANCH 20 21
ENDBRANCH 17 20
ENDBRANCH 1 16
TORSDOF 9
ENDMDL
MODEL 8
USER: ADFR SOLUTION from run 184
USER: SCORE 7.682244 LL:  -1.343 LR:  -7.261 RR:   0.000 FEB:  -4.577
USER: RMSD 3.698265
USER: SEED 183
USER: STATUS no improvement in best in 23 clusters for 5 generations
USER: GENES 11
USER: genes 0 Translation |==|  0.60417 0.66261 0.48342
USER: genes 1 Rotation |==|  0.11772 0.47873 0.80647 0.59740
USER: genes 2 Torsion [N]-CA--C-[N] |==|  0.49994
USER: genes 3 Torsion [C]-N--CA-[C] |==|  0.78222
USER: genes 4 Torsion [N]-CA--C-[N] |==|  0.60253
USER: genes 5 Torsion [C]-N--CA-[C] |==|  0.75530
USER: genes 6 Torsion [N]-CA--C-[O] |==|  0.40649
USER: genes 7 Torsion [CB]-CA--N-[C] |==|  0.83281
USER: genes 8 Torsion [N]-C--CA-[N] |==|  0.88939
USER: genes 9 Torsion [C]-CA--N-[C] |==|  0.81920
USER: genes 10 Torsion [N]-C--CA-[N] |==|  0.50168
ROOT
ATOM      1  CA  ALA F 463      37.126 -24.212  25.180  1.00 80.84 LIG 0.17  C 
ATOM      2  CB  ALA F 463      37.686 -25.619  25.320  1.00 75.28 LIG 0.04  C 
ENDROOT
BRANCH 1 3
ATOM      3  C   ALA F 463      37.353 -23.683  23.769  1.00 84.46 LIG 0.24  C 
ATOM      4 O    ALA F 463      36.406 -23.316  23.073  1.00 85.06 LIG-0.27  OA
ATOM      5  N   GLY F 464      38.613 -23.648  23.350  1.00 87.45 LIG-0.35  N 
ATOM      6 H    GLY F 464      39.289 -23.849  23.843  1.00 87.45 LIG 0.16  HD
BRANCH 5 7
ATOM      7  CA  GLY F 464      38.959 -23.261  21.994  1.00 89.28 LIG 0.23  C 
BRANCH 7 8
ATOM      8  C   GLY F 464      38.748 -24.339  20.945  1.00 90.16 LIG 0.23  C 
ATOM      9 O    GLY F 464      37.787 -25.104  21.025  1.00 90.52 LIG-0.27  OA
ATOM     10  N   ALA F 465      39.643 -24.401  19.961  1.00 88.18 LIG-0.35  N 
ATOM     11 H    ALA F 465      40.330 -23.887  19.906  1.00 88.18 LIG 0.16  HD
BRANCH 10 12
ATOM     12  CA  ALA F 465      39.530 -25.368  18.871  1.00 85.90 LIG 0.16  C 
ATOM     13  CB  ALA F 465      40.126 -24.795  17.592  1.00 84.54 LIG 0.04  C 
BRANCH 12 14
ATOM     14  C   ALA F 465      40.206 -26.693  19.220  1.00 85.67 LIG 0.22  C 
ATOM     15 O    ALA F 465      39.751 -27.761  18.803  1.00 84.89 LIG-0.29  OA
ENDBRANCH 12 14
ENDBRANCH 10 12
ENDBRANCH 7 8
ENDBRANCH 5 7
ENDBRANCH 1 3
BRANCH 1 16
ATOM     16  N   ALA F 463      35.703 -24.190  25.501  1.00 83.00 LIG-0.35  N 
ATOM     17  C   GLY F 462      34.819 -24.913  24.816  1.00 85.58 LIG 0.24  C 
ATOM     18 O    GLY F 462      35.129 -25.631  23.865  1.00 87.56 LIG-0.27  OA
ATOM     19 H    ALA F 463      35.496 -23.678  26.160  1.00 83.00 LIG 0.16  HD
BRANCH 17 20
ATOM     20  CA  GLY F 462      33.376 -24.809  25.265  1.00 87.31 LIG 0.23  C 
BRANCH 20 21
ATOM     21  N   GLY F 462      33.247 -24.770  26.709  1.00 88.73 LIG-0.35  N 
ATOM     22  C   ALA F 461      33.590 -25.801  27.475  1.00 88.98 LIG 0.26  C 
ATOM     23 O    ALA F 461      34.034 -26.856  27.023  1.00 91.33 LIG-0.27  OA
ATOM     24 H    GLY F 462      32.935 -24.030  27.016  1.00 88.73 LIG 0.16  HD
BRANCH 22 25
ATOM     25  CA  ALA F 461      33.396 -25.611  28.975  1.00 85.90 LIG 0.40  C 
ATOM     26  CB  ALA F 461      34.158 -24.389  29.463  1.00 82.87 LIG 0.06  C 
ATOM     27  N   ALA F 461      33.819 -26.801  29.705  1.00 83.73 LIG 0.61  N 
ENDBRANCH 22 25
ENDBRANCH 20 21
ENDBRANCH 17 20
ENDBRANCH 1 16
TORSDOF 9
ENDMDL
MODEL 9
USER: ADFR SOLUTION from run 68
USER: SCORE 7.544230 LL:  -1.141 LR:  -7.168 RR:   0.000 FEB:  -4.484
USER: RMSD 2.208687
USER: SEED 67
USER: STATUS no improvement in best in 15 clusters for 5 generations
USER: GENES 11
USER: genes 0 Translation |==|  0.39586 0.63623 0.43186
USER: genes 1 Rotation |==|  0.67016 0.60842 0.39457 0.94517
USER: genes 2 Torsion [N]-CA--C-[N] |==|  0.85114
USER: genes 3 Torsion [C]-N--CA-[C] |==|  0.20611
USER: genes 4 Torsion [N]-CA--C-[N] |==|  0.53898
USER: genes 5 Torsion [C]-N--CA-[C] |==|  0.58865
USER: genes 6 Torsion [N]-CA--C-[O] |==|  0.39145
USER: genes 7 Torsion [CB]-CA--N-[C] |==|  0.86630
USER: genes 8 Torsion [N]-C--CA-[N] |==|  0.90148
USER: genes 9 Torsion [C]-CA--N-[C] |==|  0.34721
USER: genes 10 Torsion [N]-C--CA-[N] |==|  0.42877
ROOT
ATOM      1  CA  ALA F 463      33.376 -24.608  24.174  1.00 80.84 LIG 0.17  C 
ATOM      2  CB  ALA F 463      33.415 -23.101  24.378  1.00 75.28 LIG 0.04  C 
ENDROOT
BRANCH 1 3
ATOM      3  C   ALA F 463      34.635 -25.085  23.461  1.00 84.46 LIG 0.24  C 
ATOM      4 O    ALA F 463      34.582 -25.512  22.307  1.00 85.06 LIG-0.27  OA
ATOM      5  N   GLY F 464      35.767 -25.013  24.153  1.00 87.45 LIG-0.35  N 
ATOM      6 H    GLY F 464      35.828 -24.666  24.938  1.00 87.45 LIG 0.16  HD
BRANCH 5 7
ATOM      7  CA  GLY F 464      37.019 -25.527  23.629  1.00 89.28 LIG 0.23  C 
BRANCH 7 8
ATOM      8  C   GLY F 464      37.656 -24.681  22.540  1.00 90.16 LIG 0.23  C 
ATOM      9 O    GLY F 464      37.265 -23.530  22.341  1.00 90.52 LIG-0.27  OA
ATOM     10  N   ALA F 465      38.635 -25.246  21.836  1.00 88.18 LIG-0.35  N 
ATOM     11 H    ALA F 465      38.901 -26.055  21.952  1.00 88.18 LIG 0.16  HD
BRANCH 10 12
ATOM     12  CA  ALA F 465      39.352 -24.523  20.789  1.00 85.90 LIG 0.16  C 
ATOM     13  CB  ALA F 465      40.551 -23.792  21.378  1.00 84.54 LIG 0.04  C 
BRANCH 12 14
ATOM     14  C   ALA F 465      39.803 -25.456  19.667  1.00 85.67 LIG 0.22  C 
ATOM     15 O    ALA F 465      39.751 -25.096  18.488  1.00 84.89 LIG-0.29  OA
ENDBRANCH 12 14
ENDBRANCH 10 12
ENDBRANCH 7 8
ENDBRANCH 5 7
ENDBRANCH 1 3
BRANCH 1 16
ATOM     16  N   ALA F 463      33.232 -25.296  25.453  1.00 83.00 LIG-0.35  N 
ATOM     17  C   GLY F 462      33.994 -24.992  26.501  1.00 85.58 LIG 0.24  C 
ATOM     18 O    GLY F 462      34.875 -24.132  26.468  1.00 87.56 LIG-0.27  OA
ATOM     19 H    ALA F 463      32.623 -25.902  25.462  1.00 83.00 LIG 0.16  HD
BRANCH 17 20
ATOM     20  CA  GLY F 462      33.730 -25.774  27.772  1.00 87.31 LIG 0.23  C 
BRANCH 20 21
ATOM     21  N   GLY F 462      32.323 -26.079  27.950  1.00 88.73 LIG-0.35  N 
ATOM     22  C   ALA F 461      31.889 -27.322  28.127  1.00 88.98 LIG 0.26  C 
ATOM     23 O    ALA F 461      32.637 -28.299  28.150  1.00 91.33 LIG-0.27  OA
ATOM     24 H    GLY F 462      31.807 -25.391  27.931  1.00 88.73 LIG 0.16  HD
BRANCH 22 25
ATOM     25  CA  ALA F 461      30.383 -27.485  28.300  1.00 85.90 LIG 0.40  C 
ATOM     26  CB  ALA F 461      29.977 -27.218  29.741  1.00 82.87 LIG 0.06  C 
ATOM     27  N   ALA F 461      29.957 -28.819  27.889  1.00 83.73 LIG 0.61  N 
ENDBRANCH 22 25
ENDBRANCH 20 21
ENDBRANCH 17 20
ENDBRANCH 1 16
TORSDOF 9
ENDMDL
MODEL 10
USER: ADFR SOLUTION from run 106
USER: SCORE 7.059336 LL:  -1.207 LR:  -7.137 RR:   0.000 FEB:  -4.452
USER: RMSD 4.296680
USER: SEED 105
USER: STATUS no improvement in best in 21 clusters for 5 generations
USER: GENES 11
USER: genes 0 Translation |==|  0.46402 0.58479 0.39599
USER: genes 1 Rotation |==|  0.61236 0.57871 0.61972 0.96567
USER: genes 2 Torsion [N]-CA--C-[N] |==|  0.39449
USER: genes 3 Torsion [C]-N--CA-[C] |==|  0.45290
USER: genes 4 Torsion [N]-CA--C-[N] |==|  0.89277
USER: genes 5 Torsion [C]-N--CA-[C] |==|  0.50804
USER: genes 6 Torsion [N]-CA--C-[O] |==|  0.64733
USER: genes 7 Torsion [CB]-CA--N-[C] |==|  0.51750
USER: genes 8 Torsion [N]-C--CA-[N] |==|  0.42819
USER: genes 9 Torsion [C]-CA--N-[C] |==|  0.82512
USER: genes 10 Torsion [N]-C--CA-[N] |==|  0.43175
ROOT
ATOM      1  CA  ALA F 463      34.603 -25.379  23.475  1.00 80.84 LIG 0.17  C 
ATOM      2  CB  ALA F 463      33.459 -24.385  23.352  1.00 75.28 LIG 0.04  C 
ENDROOT
BRANCH 1 3
ATOM      3  C   ALA F 463      35.945 -24.676  23.311  1.00 84.46 LIG 0.24  C 
ATOM      4 O    ALA F 463      36.489 -24.125  24.268  1.00 85.06 LIG-0.27  OA
ATOM      5  N   GLY F 464      36.474 -24.695  22.092  1.00 87.45 LIG-0.35  N 
ATOM      6 H    GLY F 464      36.133 -25.122  21.428  1.00 87.45 LIG 0.16  HD
BRANCH 5 7
ATOM      7  CA  GLY F 464      37.696 -23.978  21.777  1.00 89.28 LIG 0.23  C 
BRANCH 7 8
ATOM      8  C   GLY F 464      38.381 -24.410  20.492  1.00 90.16 LIG 0.23  C 
ATOM      9 O    GLY F 464      38.908 -23.573  19.758  1.00 90.52 LIG-0.27  OA
ATOM     10  N   ALA F 465      38.376 -25.713  20.218  1.00 88.18 LIG-0.35  N 
ATOM     11 H    ALA F 465      37.993 -26.304  20.712  1.00 88.18 LIG 0.16  HD
BRANCH 10 12
ATOM     12  CA  ALA F 465      39.035 -26.258  19.033  1.00 85.90 LIG 0.16  C 
ATOM     13  CB  ALA F 465      40.523 -25.938  19.062  1.00 84.54 LIG 0.04  C 
BRANCH 12 14
ATOM     14  C   ALA F 465      38.823 -27.766  18.913  1.00 85.67 LIG 0.22  C 
ATOM     15 O    ALA F 465      39.783 -28.529  18.780  1.00 84.89 LIG-0.29  OA
ENDBRANCH 12 14
ENDBRANCH 10 12
ENDBRANCH 7 8
ENDBRANCH 5 7
ENDBRANCH 1 3
BRANCH 1 16
ATOM     16  N   ALA F 463      34.551 -26.067  24.760  1.00 83.00 LIG-0.35  N 
ATOM     17  C   GLY F 462      35.517 -26.895  25.152  1.00 85.58 LIG 0.24  C 
ATOM     18 O    GLY F 462      36.505 -27.151  24.463  1.00 87.56 LIG-0.27  OA
ATOM     19 H    ALA F 463      33.852 -25.890  25.229  1.00 83.00 LIG 0.16  HD
BRANCH 17 20
ATOM     20  CA  GLY F 462      35.344 -27.532  26.515  1.00 87.31 LIG 0.23  C 
BRANCH 20 21
ATOM     21  N   GLY F 462      36.041 -28.799  26.627  1.00 88.73 LIG-0.35  N 
ATOM     22  C   ALA F 461      35.725 -29.845  25.871  1.00 88.98 LIG 0.26  C 
ATOM     23 O    ALA F 461      34.826 -29.821  25.031  1.00 91.33 LIG-0.27  OA
ATOM     24 H    GLY F 462      36.666 -28.807  27.217  1.00 88.73 LIG 0.16  HD
BRANCH 22 25
ATOM     25  CA  ALA F 461      36.545 -31.108  26.103  1.00 85.90 LIG 0.40  C 
ATOM     26  CB  ALA F 461      37.869 -31.033  25.357  1.00 82.87 LIG 0.06  C 
ATOM     27  N   ALA F 461      35.798 -32.293  25.696  1.00 83.73 LIG 0.61  N 
ENDBRANCH 22 25
ENDBRANCH 20 21
ENDBRANCH 17 20
ENDBRANCH 1 16
TORSDOF 9
ENDMDL
MODEL 11
USER: ADFR SOLUTION from run 181
USER: SCORE 7.737646 LL:  -1.465 LR:  -7.079 RR:   0.000 FEB:  -4.395
USER: RMSD 3.775738
USER: SEED 180
USER: STATUS no improvement in best in 22 clusters for 5 generations
USER: GENES 11
USER: genes 0 Translation |==|  0.53768 0.59859 0.41138
USER: genes 1 Rotation |==|  0.48791 0.40883 0.73587 0.93117
USER: genes 2 Torsion [N]-CA--C-[N] |==|  0.23955
USER: genes 3 Torsion [C]-N--CA-[C] |==|  0.80839
USER: genes 4 Torsion [N]-CA--C-[N] |==|  0.01111
USER: genes 5 Torsion [C]-N--CA-[C] |==|  0.84597
USER: genes 6 Torsion [N]-CA--C-[O] |==|  0.50967
USER: genes 7 Torsion [CB]-CA--N-[C] |==|  0.82515
USER: genes 8 Torsion [N]-C--CA-[N] |==|  0.36914
USER: genes 9 Torsion [C]-CA--N-[C] |==|  0.81975
USER: genes 10 Torsion [N]-C--CA-[N] |==|  0.32844
ROOT
ATOM      1  CA  ALA F 463      35.929 -25.172  23.775  1.00 80.84 LIG 0.17  C 
ATOM      2  CB  ALA F 463      35.104 -24.763  22.564  1.00 75.28 LIG 0.04  C 
ENDROOT
BRANCH 1 3
ATOM      3  C   ALA F 463      36.643 -23.965  24.370  1.00 84.46 LIG 0.24  C 
ATOM      4 O    ALA F 463      36.165 -22.835  24.264  1.00 85.06 LIG-0.27  OA
ATOM      5  N   GLY F 464      37.791 -24.208  24.993  1.00 87.45 LIG-0.35  N 
ATOM      6 H    GLY F 464      38.108 -24.997  25.123  1.00 87.45 LIG 0.16  HD
BRANCH 5 7
ATOM      7  CA  GLY F 464      38.620 -23.138  25.517  1.00 89.28 LIG 0.23  C 
BRANCH 7 8
ATOM      8  C   GLY F 464      39.282 -22.265  24.465  1.00 90.16 LIG 0.23  C 
ATOM      9 O    GLY F 464      40.065 -21.375  24.801  1.00 90.52 LIG-0.27  OA
ATOM     10  N   ALA F 465      38.973 -22.517  23.195  1.00 88.18 LIG-0.35  N 
ATOM     11 H    ALA F 465      38.412 -23.121  22.950  1.00 88.18 LIG 0.16  HD
BRANCH 10 12
ATOM     12  CA  ALA F 465      39.573 -21.773  22.090  1.00 85.90 LIG 0.16  C 
ATOM     13  CB  ALA F 465      39.002 -22.248  20.761  1.00 84.54 LIG 0.04  C 
BRANCH 12 14
ATOM     14  C   ALA F 465      39.366 -20.268  22.245  1.00 85.67 LIG 0.22  C 
ATOM     15 O    ALA F 465      39.750 -19.485  21.372  1.00 84.89 LIG-0.29  OA
ENDBRANCH 12 14
ENDBRANCH 10 12
ENDBRANCH 7 8
ENDBRANCH 5 7
ENDBRANCH 1 3
BRANCH 1 16
ATOM     16  N   ALA F 463      35.084 -25.803  24.783  1.00 83.00 LIG-0.35  N 
ATOM     17  C   GLY F 462      34.097 -25.143  25.383  1.00 85.58 LIG 0.24  C 
ATOM     18 O    GLY F 462      33.836 -23.962  25.148  1.00 87.56 LIG-0.27  OA
ATOM     19 H    ALA F 463      35.282 -26.624  24.947  1.00 83.00 LIG 0.16  HD
BRANCH 17 20
ATOM     20  CA  GLY F 462      33.288 -25.922  26.399  1.00 87.31 LIG 0.23  C 
BRANCH 20 21
ATOM     21  N   GLY F 462      33.098 -25.188  27.636  1.00 88.73 LIG-0.35  N 
ATOM     22  C   ALA F 461      34.114 -24.870  28.430  1.00 88.98 LIG 0.26  C 
ATOM     23 O    ALA F 461      35.281 -25.174  28.183  1.00 91.33 LIG-0.27  OA
ATOM     24 H    GLY F 462      32.280 -24.981  27.801  1.00 88.73 LIG 0.16  HD
BRANCH 22 25
ATOM     25  CA  ALA F 461      33.758 -24.098  29.695  1.00 85.90 LIG 0.40  C 
ATOM     26  CB  ALA F 461      34.442 -22.740  29.704  1.00 82.87 LIG 0.06  C 
ATOM     27  N   ALA F 461      34.120 -24.860  30.885  1.00 83.73 LIG 0.61  N 
ENDBRANCH 22 25
ENDBRANCH 20 21
ENDBRANCH 17 20
ENDBRANCH 1 16
TORSDOF 9
ENDMDL
MODEL 12
USER: ADFR SOLUTION from run 185
USER: SCORE 7.023836 LL:  -1.160 LR:  -7.037 RR:   0.000 FEB:  -4.352
USER: RMSD 2.533890
USER: SEED 184
USER: STATUS no improvement in best in 13 clusters for 5 generations
USER: GENES 11
USER: genes 0 Translation |==|  0.42157 0.63089 0.48917
USER: genes 1 Rotation |==|  0.54717 0.46708 0.56390 0.99255
USER: genes 2 Torsion [N]-CA--C-[N] |==|  0.49901
USER: genes 3 Torsion [C]-N--CA-[C] |==|  0.55022
USER: genes 4 Torsion [N]-CA--C-[N] |==|  0.45865
USER: genes 5 Torsion [C]-N--CA-[C] |==|  0.19438
USER: genes 6 Torsion [N]-CA--C-[O] |==|  0.48485
USER: genes 7 Torsion [CB]-CA--N-[C] |==|  0.47778
USER: genes 8 Torsion [N]-C--CA-[N] |==|  0.38831
USER: genes 9 Torsion [C]-CA--N-[C] |==|  0.77600
USER: genes 10 Torsion [N]-C--CA-[N] |==|  0.51350
ROOT
ATOM      1  CA  ALA F 463      33.839 -24.688  25.292  1.00 80.84 LIG 0.17  C 
ATOM      2  CB  ALA F 463      33.228 -23.514  24.541  1.00 75.28 LIG 0.04  C 
ENDROOT
BRANCH 1 3
ATOM      3  C   ALA F 463      35.284 -24.388  25.672  1.00 84.46 LIG 0.24  C 
ATOM      4 O    ALA F 463      35.645 -24.416  26.849  1.00 85.06 LIG-0.27  OA
ATOM      5  N   GLY F 464      36.107 -24.097  24.671  1.00 87.45 LIG-0.35  N 
ATOM      6 H    GLY F 464      35.883 -24.128  23.841  1.00 87.45 LIG 0.16  HD
BRANCH 5 7
ATOM      7  CA  GLY F 464      37.483 -23.695  24.903  1.00 89.28 LIG 0.23  C 
BRANCH 7 8
ATOM      8  C   GLY F 464      38.155 -22.997  23.734  1.00 90.16 LIG 0.23  C 
ATOM      9 O    GLY F 464      37.653 -23.046  22.610  1.00 90.52 LIG-0.27  OA
ATOM     10  N   ALA F 465      39.287 -22.347  23.994  1.00 88.18 LIG-0.35  N 
ATOM     11 H    ALA F 465      39.659 -22.324  24.769  1.00 88.18 LIG 0.16  HD
BRANCH 10 12
ATOM     12  CA  ALA F 465      40.007 -21.603  22.963  1.00 85.90 LIG 0.16  C 
ATOM     13  CB  ALA F 465      40.264 -22.491  21.753  1.00 84.54 LIG 0.04  C 
BRANCH 12 14
ATOM     14  C   ALA F 465      39.249 -20.346  22.542  1.00 85.67 LIG 0.22  C 
ATOM     15 O    ALA F 465      39.751 -19.541  21.753  1.00 84.89 LIG-0.29  OA
ENDBRANCH 12 14
ENDBRANCH 10 12
ENDBRANCH 7 8
ENDBRANCH 5 7
ENDBRANCH 1 3
BRANCH 1 16
ATOM     16  N   ALA F 463      33.059 -24.996  26.486  1.00 83.00 LIG-0.35  N 
ATOM     17  C   GLY F 462      33.302 -26.079  27.221  1.00 85.58 LIG 0.24  C 
ATOM     18 O    GLY F 462      34.180 -26.897  26.945  1.00 87.56 LIG-0.27  OA
ATOM     19 H    ALA F 463      32.442 -24.424  26.663  1.00 83.00 LIG 0.16  HD
BRANCH 17 20
ATOM     20  CA  GLY F 462      32.427 -26.271  28.442  1.00 87.31 LIG 0.23  C 
BRANCH 20 21
ATOM     21  N   GLY F 462      32.043 -27.656  28.635  1.00 88.73 LIG-0.35  N 
ATOM     22  C   ALA F 461      31.045 -28.211  27.956  1.00 88.98 LIG 0.26  C 
ATOM     23 O    ALA F 461      30.376 -27.600  27.124  1.00 91.33 LIG-0.27  OA
ATOM     24 H    GLY F 462      32.515 -28.075  29.219  1.00 88.73 LIG 0.16  HD
BRANCH 22 25
ATOM     25  CA  ALA F 461      30.758 -29.675  28.268  1.00 85.90 LIG 0.40  C 
ATOM     26  CB  ALA F 461      32.028 -30.506  28.154  1.00 82.87 LIG 0.06  C 
ATOM     27  N   ALA F 461      29.724 -30.200  27.383  1.00 83.73 LIG 0.61  N 
ENDBRANCH 22 25
ENDBRANCH 20 21
ENDBRANCH 17 20
ENDBRANCH 1 16
TORSDOF 9
ENDMDL
MODEL 13
USER: ADFR SOLUTION from run 161
USER: SCORE 7.323085 LL:  -1.160 LR:  -7.030 RR:   0.000 FEB:  -4.345
USER: RMSD 4.267843
USER: SEED 160
USER: STATUS no improvement in best in 20 clusters for 5 generations
USER: GENES 11
USER: genes 0 Translation |==|  0.41992 0.57539 0.45194
USER: genes 1 Rotation |==|  0.74156 0.75108 0.53295 0.85710
USER: genes 2 Torsion [N]-CA--C-[N] |==|  0.96698
USER: genes 3 Torsion [C]-N--CA-[C] |==|  0.27241
USER: genes 4 Torsion [N]-CA--C-[N] |==|  0.46105
USER: genes 5 Torsion [C]-N--CA-[C] |==|  0.64104
USER: genes 6 Torsion [N]-CA--C-[O] |==|  0.40141
USER: genes 7 Torsion [CB]-CA--N-[C] |==|  0.87173
USER: genes 8 Torsion [N]-C--CA-[N] |==|  0.96201
USER: genes 9 Torsion [C]-CA--N-[C] |==|  0.33864
USER: genes 10 Torsion [N]-C--CA-[N] |==|  0.51810
ROOT
ATOM      1  CA  ALA F 463      33.810 -25.520  24.566  1.00 80.84 LIG 0.17  C 
ATOM      2  CB  ALA F 463      33.348 -24.597  25.683  1.00 75.28 LIG 0.04  C 
ENDROOT
BRANCH 1 3
ATOM      3  C   ALA F 463      34.657 -24.758  23.555  1.00 84.46 LIG 0.24  C 
ATOM      4 O    ALA F 463      34.150 -23.912  22.817  1.00 85.06 LIG-0.27  OA
ATOM      5  N   GLY F 464      35.950 -25.063  23.522  1.00 87.45 LIG-0.35  N 
ATOM      6 H    GLY F 464      36.327 -25.610  24.068  1.00 87.45 LIG 0.16  HD
BRANCH 5 7
ATOM      7  CA  GLY F 464      36.848 -24.484  22.540  1.00 89.28 LIG 0.23  C 
BRANCH 7 8
ATOM      8  C   GLY F 464      37.658 -23.297  23.030  1.00 90.16 LIG 0.23  C 
ATOM      9 O    GLY F 464      37.354 -22.729  24.080  1.00 90.52 LIG-0.27  OA
ATOM     10  N   ALA F 465      38.688 -22.920  22.275  1.00 88.18 LIG-0.35  N 
ATOM     11 H    ALA F 465      38.896 -23.294  21.529  1.00 88.18 LIG 0.16  HD
BRANCH 10 12
ATOM     12  CA  ALA F 465      39.566 -21.817  22.658  1.00 85.90 LIG 0.16  C 
ATOM     13  CB  ALA F 465      40.925 -22.350  23.093  1.00 84.54 LIG 0.04  C 
BRANCH 12 14
ATOM     14  C   ALA F 465      39.735 -20.810  21.522  1.00 85.67 LIG 0.22  C 
ATOM     15 O    ALA F 465      39.839 -19.603  21.759  1.00 84.89 LIG-0.29  OA
ENDBRANCH 12 14
ENDBRANCH 10 12
ENDBRANCH 7 8
ENDBRANCH 5 7
ENDBRANCH 1 3
BRANCH 1 16
ATOM     16  N   ALA F 463      34.565 -26.645  25.107  1.00 83.00 LIG-0.35  N 
ATOM     17  C   GLY F 462      35.517 -26.474  26.022  1.00 85.58 LIG 0.24  C 
ATOM     18 O    GLY F 462      35.837 -25.370  26.462  1.00 87.56 LIG-0.27  OA
ATOM     19 H    ALA F 463      34.340 -27.410  24.786  1.00 83.00 LIG 0.16  HD
BRANCH 17 20
ATOM     20  CA  GLY F 462      36.212 -27.729  26.510  1.00 87.31 LIG 0.23  C 
BRANCH 20 21
ATOM     21  N   GLY F 462      35.506 -28.936  26.127  1.00 88.73 LIG-0.35  N 
ATOM     22  C   ALA F 461      36.081 -29.889  25.401  1.00 88.98 LIG 0.26  C 
ATOM     23 O    ALA F 461      37.242 -29.819  24.999  1.00 91.33 LIG-0.27  OA
ATOM     24 H    GLY F 462      34.695 -28.976  26.410  1.00 88.73 LIG 0.16  HD
BRANCH 22 25
ATOM     25  CA  ALA F 461      35.212 -31.098  25.076  1.00 85.90 LIG 0.40  C 
ATOM     26  CB  ALA F 461      34.565 -31.647  26.338  1.00 82.87 LIG 0.06  C 
ATOM     27  N   ALA F 461      35.995 -32.135  24.412  1.00 83.73 LIG 0.61  N 
ENDBRANCH 22 25
ENDBRANCH 20 21
ENDBRANCH 17 20
ENDBRANCH 1 16
TORSDOF 9
ENDMDL
MODEL 14
USER: ADFR SOLUTION from run 195
USER: SCORE 7.155471 LL:  -1.406 LR:  -7.007 RR:   0.000 FEB:  -4.322
USER: RMSD 3.561414
USER: SEED 194
USER: STATUS no improvement in best in 16 clusters for 5 generations
USER: GENES 11
USER: genes 0 Translation |==|  0.40204 0.62581 0.42652
USER: genes 1 Rotation |==|  0.69004 0.57617 0.42892 0.95059
USER: genes 2 Torsion [N]-CA--C-[N] |==|  0.54253
USER: genes 3 Torsion [C]-N--CA-[C] |==|  0.70731
USER: genes 4 Torsion [N]-CA--C-[N] |==|  0.64994
USER: genes 5 Torsion [C]-N--CA-[C] |==|  0.57782
USER: genes 6 Torsion [N]-CA--C-[O] |==|  0.36179
USER: genes 7 Torsion [CB]-CA--N-[C] |==|  0.83879
USER: genes 8 Torsion [N]-C--CA-[N] |==|  0.36000
USER: genes 9 Torsion [C]-CA--N-[C] |==|  0.81894
USER: genes 10 Torsion [N]-C--CA-[N] |==|  0.46343
ROOT
ATOM      1  CA  ALA F 463      33.488 -24.764  24.070  1.00 80.84 LIG 0.17  C 
ATOM      2  CB  ALA F 463      33.381 -23.276  24.367  1.00 75.28 LIG 0.04  C 
ENDROOT
BRANCH 1 3
ATOM      3  C   ALA F 463      34.885 -25.113  23.574  1.00 84.46 LIG 0.24  C 
ATOM      4 O    ALA F 463      35.460 -26.127  23.971  1.00 85.06 LIG-0.27  OA
ATOM      5  N   GLY F 464      35.430 -24.267  22.706  1.00 87.45 LIG-0.35  N 
ATOM      6 H    GLY F 464      35.019 -23.586  22.378  1.00 87.45 LIG 0.16  HD
BRANCH 5 7
ATOM      7  CA  GLY F 464      36.792 -24.428  22.232  1.00 89.28 LIG 0.23  C 
BRANCH 7 8
ATOM      8  C   GLY F 464      37.797 -23.453  22.820  1.00 90.16 LIG 0.23  C 
ATOM      9 O    GLY F 464      37.911 -23.341  24.042  1.00 90.52 LIG-0.27  OA
ATOM     10  N   ALA F 465      38.525 -22.747  21.957  1.00 88.18 LIG-0.35  N 
ATOM     11 H    ALA F 465      38.439 -22.801  21.103  1.00 88.18 LIG 0.16  HD
BRANCH 10 12
ATOM     12  CA  ALA F 465      39.552 -21.806  22.398  1.00 85.90 LIG 0.16  C 
ATOM     13  CB  ALA F 465      40.867 -22.533  22.639  1.00 84.54 LIG 0.04  C 
BRANCH 12 14
ATOM     14  C   ALA F 465      39.751 -20.677  21.388  1.00 85.67 LIG 0.22  C 
ATOM     15 O    ALA F 465      39.751 -19.498  21.753  1.00 84.89 LIG-0.29  OA
ENDBRANCH 12 14
ENDBRANCH 10 12
ENDBRANCH 7 8
ENDBRANCH 5 7
ENDBRANCH 1 3
BRANCH 1 16
ATOM     16  N   ALA F 463      33.165 -25.549  25.257  1.00 83.00 LIG-0.35  N 
ATOM     17  C   GLY F 462      33.840 -25.407  26.395  1.00 85.58 LIG 0.24  C 
ATOM     18 O    GLY F 462      34.783 -24.625  26.527  1.00 87.56 LIG-0.27  OA
ATOM     19 H    ALA F 463      32.513 -26.099  25.151  1.00 83.00 LIG 0.16  HD
BRANCH 17 20
ATOM     20  CA  GLY F 462      33.392 -26.274  27.554  1.00 87.31 LIG 0.23  C 
BRANCH 20 21
ATOM     21  N   GLY F 462      34.495 -26.985  28.171  1.00 88.73 LIG-0.35  N 
ATOM     22  C   ALA F 461      35.185 -27.916  27.521  1.00 88.98 LIG 0.26  C 
ATOM     23 O    ALA F 461      34.942 -28.245  26.360  1.00 91.33 LIG-0.27  OA
ATOM     24 H    GLY F 462      34.657 -26.751  28.982  1.00 88.73 LIG 0.16  HD
BRANCH 22 25
ATOM     25  CA  ALA F 461      36.315 -28.577  28.301  1.00 85.90 LIG 0.40  C 
ATOM     26  CB  ALA F 461      37.460 -27.600  28.517  1.00 82.87 LIG 0.06  C 
ATOM     27  N   ALA F 461      36.788 -29.774  27.614  1.00 83.73 LIG 0.61  N 
ENDBRANCH 22 25
ENDBRANCH 20 21
ENDBRANCH 17 20
ENDBRANCH 1 16
TORSDOF 9
ENDMDL
MODEL 15
USER: ADFR SOLUTION from run 111
USER: SCORE 7.091620 LL:  -1.129 LR:  -6.972 RR:   0.000 FEB:  -4.287
USER: RMSD 2.575768
USER: SEED 110
USER: STATUS no improvement in best in 23 clusters for 5 generations
USER: GENES 11
USER: genes 0 Translation |==|  0.41131 0.63715 0.49482
USER: genes 1 Rotation |==|  0.63139 0.52423 0.53956 0.98019
USER: genes 2 Torsion [N]-CA--C-[N] |==|  0.41441
USER: genes 3 Torsion [C]-N--CA-[C] |==|  0.55803
USER: genes 4 Torsion [N]-CA--C-[N] |==|  0.49357
USER: genes 5 Torsion [C]-N--CA-[C] |==|  0.18588
USER: genes 6 Torsion [N]-CA--C-[O] |==|  0.27855
USER: genes 7 Torsion [CB]-CA--N-[C] |==|  0.51667
USER: genes 8 Torsion [N]-C--CA-[N] |==|  0.98667
USER: genes 9 Torsion [C]-CA--N-[C] |==|  0.39402
USER: genes 10 Torsion [N]-C--CA-[N] |==|  0.49800
ROOT
ATOM      1  CA  ALA F 463      33.655 -24.594  25.402  1.00 80.84 LIG 0.17  C 
ATOM      2  CB  ALA F 463      32.975 -23.243  25.238  1.00 75.28 LIG 0.04  C 
ENDROOT
BRANCH 1 3
ATOM      3  C   ALA F 463      35.169 -24.431  25.442  1.00 84.46 LIG 0.24  C 
ATOM      4 O    ALA F 463      35.759 -24.284  26.512  1.00 85.06 LIG-0.27  OA
ATOM      5  N   GLY F 464      35.794 -24.453  24.269  1.00 87.45 LIG-0.35  N 
ATOM      6 H    GLY F 464      35.402 -24.610  23.520  1.00 87.45 LIG 0.16  HD
BRANCH 5 7
ATOM      7  CA  GLY F 464      37.221 -24.210  24.158  1.00 89.28 LIG 0.23  C 
BRANCH 7 8
ATOM      8  C   GLY F 464      37.693 -23.782  22.779  1.00 90.16 LIG 0.23  C 
ATOM      9 O    GLY F 464      36.894 -23.705  21.845  1.00 90.52 LIG-0.27  OA
ATOM     10  N   ALA F 465      38.989 -23.503  22.649  1.00 88.18 LIG-0.35  N 
ATOM     11 H    ALA F 465      39.560 -23.574  23.288  1.00 88.18 LIG 0.16  HD
BRANCH 10 12
ATOM     12  CA  ALA F 465      39.559 -23.043  21.385  1.00 85.90 LIG 0.16  C 
ATOM     13  CB  ALA F 465      39.252 -24.038  20.274  1.00 84.54 LIG 0.04  C 
BRANCH 12 14
ATOM     14  C   ALA F 465      39.044 -21.655  21.006  1.00 85.67 LIG 0.22  C 
ATOM     15 O    ALA F 465      39.731 -20.651  21.209  1.00 84.89 LIG-0.29  OA
ENDBRANCH 12 14
ENDBRANCH 10 12
ENDBRANCH 7 8
ENDBRANCH 5 7
ENDBRANCH 1 3
BRANCH 1 16
ATOM     16  N   ALA F 463      33.189 -25.259  26.614  1.00 83.00 LIG-0.35  N 
ATOM     17  C   GLY F 462      33.725 -26.402  27.036  1.00 85.58 LIG 0.24  C 
ATOM     18 O    GLY F 462      34.630 -26.983  26.436  1.00 87.56 LIG-0.27  OA
ATOM     19 H    ALA F 463      32.550 -24.851  27.019  1.00 83.00 LIG 0.16  HD
BRANCH 17 20
ATOM     20  CA  GLY F 462      33.157 -26.977  28.317  1.00 87.31 LIG 0.23  C 
BRANCH 20 21
ATOM     21  N   GLY F 462      32.178 -26.100  28.931  1.00 88.73 LIG-0.35  N 
ATOM     22  C   ALA F 461      31.084 -26.569  29.521  1.00 88.98 LIG 0.26  C 
ATOM     23 O    ALA F 461      30.819 -27.769  29.589  1.00 91.33 LIG-0.27  OA
ATOM     24 H    GLY F 462      32.371 -25.264  28.877  1.00 88.73 LIG 0.16  HD
BRANCH 22 25
ATOM     25  CA  ALA F 461      30.148 -25.526  30.119  1.00 85.90 LIG 0.40  C 
ATOM     26  CB  ALA F 461      30.880 -24.676  31.147  1.00 82.87 LIG 0.06  C 
ATOM     27  N   ALA F 461      28.981 -26.162  30.721  1.00 83.73 LIG 0.61  N 
ENDBRANCH 22 25
ENDBRANCH 20 21
ENDBRANCH 17 20
ENDBRANCH 1 16
TORSDOF 9
ENDMDL
MODEL 16
USER: ADFR SOLUTION from run 73
USER: SCORE 6.701701 LL:  -1.215 LR:  -6.898 RR:   0.000 FEB:  -4.213
USER: RMSD 2.931591
USER: SEED 72
USER: STATUS no improvement in best in 14 clusters for 5 generations
USER: GENES 11
USER: genes 0 Translation |==|  0.46156 0.61339 0.46862
USER: genes 1 Rotation |==|  0.44612 0.66231 0.48252 0.96952
USER: genes 2 Torsion [N]-CA--C-[N] |==|  0.79451
USER: genes 3 Torsion [C]-N--CA-[C] |==|  0.17986
USER: genes 4 Torsion [N]-CA--C-[N] |==|  0.57710
USER: genes 5 Torsion [C]-N--CA-[C] |==|  0.61985
USER: genes 6 Torsion [N]-CA--C-[O] |==|  0.46534
USER: genes 7 Torsion [CB]-CA--N-[C] |==|  0.23677
USER: genes 8 Torsion [N]-C--CA-[N] |==|  0.44105
USER: genes 9 Torsion [C]-CA--N-[C] |==|  0.25122
USER: genes 10 Torsion [N]-C--CA-[N] |==|  0.24239
ROOT
ATOM      1  CA  ALA F 463      34.559 -24.950  24.891  1.00 80.84 LIG 0.17  C 
ATOM      2  CB  ALA F 463      33.666 -23.936  24.193  1.00 75.28 LIG 0.04  C 
ENDROOT
BRANCH 1 3
ATOM      3  C   ALA F 463      35.848 -25.160  24.107  1.00 84.46 LIG 0.24  C 
ATOM      4 O    ALA F 463      36.255 -26.294  23.853  1.00 85.06 LIG-0.27  OA
ATOM      5  N   GLY F 464      36.491 -24.060  23.726  1.00 87.45 LIG-0.35  N 
ATOM      6 H    GLY F 464      36.190 -23.263  23.848  1.00 87.45 LIG 0.16  HD
BRANCH 5 7
ATOM      7  CA  GLY F 464      37.780 -24.118  23.061  1.00 89.28 LIG 0.23  C 
BRANCH 7 8
ATOM      8  C   GLY F 464      37.768 -24.778  21.693  1.00 90.16 LIG 0.23  C 
ATOM      9 O    GLY F 464      36.747 -24.757  21.003  1.00 90.52 LIG-0.27  OA
ATOM     10  N   ALA F 465      38.897 -25.362  21.299  1.00 88.18 LIG-0.35  N 
ATOM     11 H    ALA F 465      39.608 -25.402  21.781  1.00 88.18 LIG 0.16  HD
BRANCH 10 12
ATOM     12  CA  ALA F 465      39.025 -25.996  19.989  1.00 85.90 LIG 0.16  C 
ATOM     13  CB  ALA F 465      39.751 -25.071  19.022  1.00 84.54 LIG 0.04  C 
BRANCH 12 14
ATOM     14  C   ALA F 465      39.750 -27.338  20.080  1.00 85.67 LIG 0.22  C 
ATOM     15 O    ALA F 465      39.751 -28.120  19.126  1.00 84.89 LIG-0.29  OA
ENDBRANCH 12 14
ENDBRANCH 10 12
ENDBRANCH 7 8
ENDBRANCH 5 7
ENDBRANCH 1 3
BRANCH 1 16
ATOM     16  N   ALA F 463      34.863 -24.517  26.250  1.00 83.00 LIG-0.35  N 
ATOM     17  C   GLY F 462      34.045 -24.775  27.268  1.00 85.58 LIG 0.24  C 
ATOM     18 O    GLY F 462      32.978 -25.377  27.138  1.00 87.56 LIG-0.27  OA
ATOM     19 H    ALA F 463      35.605 -24.088  26.328  1.00 83.00 LIG 0.16  HD
BRANCH 17 20
ATOM     20  CA  GLY F 462      34.489 -24.281  28.629  1.00 87.31 LIG 0.23  C 
BRANCH 20 21
ATOM     21  N   GLY F 462      33.383 -24.152  29.559  1.00 88.73 LIG-0.35  N 
ATOM     22  C   ALA F 461      33.009 -25.151  30.351  1.00 88.98 LIG 0.26  C 
ATOM     23 O    ALA F 461      33.563 -26.250  30.355  1.00 91.33 LIG-0.27  OA
ATOM     24 H    GLY F 462      33.001 -23.382  29.548  1.00 88.73 LIG 0.16  HD
BRANCH 22 25
ATOM     25  CA  ALA F 461      31.829 -24.866  31.273  1.00 85.90 LIG 0.40  C 
ATOM     26  CB  ALA F 461      31.944 -25.677  32.555  1.00 82.87 LIG 0.06  C 
ATOM     27  N   ALA F 461      30.566 -25.151  30.600  1.00 83.73 LIG 0.61  N 
ENDBRANCH 22 25
ENDBRANCH 20 21
ENDBRANCH 17 20
ENDBRANCH 1 16
TORSDOF 9
ENDMDL
MODEL 17
USER: ADFR SOLUTION from run 175
USER: SCORE 7.275809 LL:  -0.999 LR:  -6.879 RR:   0.000 FEB:  -4.195
USER: RMSD 3.765332
USER: SEED 174
USER: STATUS no improvement in best in 13 clusters for 5 generations
USER: GENES 11
USER: genes 0 Translation |==|  0.45965 0.61100 0.37392
USER: genes 1 Rotation |==|  0.60336 0.57996 0.63076 0.96457
USER: genes 2 Torsion [N]-CA--C-[N] |==|  0.36667
USER: genes 3 Torsion [C]-N--CA-[C] |==|  0.23901
USER: genes 4 Torsion [N]-CA--C-[N] |==|  0.43985
USER: genes 5 Torsion [C]-N--CA-[C] |==|  0.13104
USER: genes 6 Torsion [N]-CA--C-[O] |==|  0.42843
USER: genes 7 Torsion [CB]-CA--N-[C] |==|  0.87979
USER: genes 8 Torsion [N]-C--CA-[N] |==|  0.51704
USER: genes 9 Torsion [C]-CA--N-[C] |==|  0.63523
USER: genes 10 Torsion [N]-C--CA-[N] |==|  0.42826
ROOT
ATOM      1  CA  ALA F 463      34.525 -24.986  23.044  1.00 80.84 LIG 0.17  C 
ATOM      2  CB  ALA F 463      33.335 -24.053  22.881  1.00 75.28 LIG 0.04  C 
ENDROOT
BRANCH 1 3
ATOM      3  C   ALA F 463      35.832 -24.222  22.878  1.00 84.46 LIG 0.24  C 
ATOM      4 O    ALA F 463      36.242 -23.473  23.765  1.00 85.06 LIG-0.27  OA
ATOM      5  N   GLY F 464      36.484 -24.413  21.736  1.00 87.45 LIG-0.35  N 
ATOM      6 H    GLY F 464      36.239 -24.974  21.132  1.00 87.45 LIG 0.16  HD
BRANCH 5 7
ATOM      7  CA  GLY F 464      37.688 -23.672  21.408  1.00 89.28 LIG 0.23  C 
BRANCH 7 8
ATOM      8  C   GLY F 464      38.977 -24.271  21.943  1.00 90.16 LIG 0.23  C 
ATOM      9 O    GLY F 464      38.951 -25.047  22.899  1.00 90.52 LIG-0.27  OA
ATOM     10  N   ALA F 465      40.104 -23.916  21.329  1.00 88.18 LIG-0.35  N 
ATOM     11 H    ALA F 465      40.137 -23.359  20.674  1.00 88.18 LIG 0.16  HD
BRANCH 10 12
ATOM     12  CA  ALA F 465      41.403 -24.454  21.723  1.00 85.90 LIG 0.16  C 
ATOM     13  CB  ALA F 465      41.877 -23.799  23.014  1.00 84.54 LIG 0.04  C 
BRANCH 12 14
ATOM     14  C   ALA F 465      41.358 -25.972  21.889  1.00 85.67 LIG 0.22  C 
ATOM     15 O    ALA F 465      42.378 -26.652  21.750  1.00 84.89 LIG-0.29  OA
ENDBRANCH 12 14
ENDBRANCH 10 12
ENDBRANCH 7 8
ENDBRANCH 5 7
ENDBRANCH 1 3
BRANCH 1 16
ATOM     16  N   ALA F 463      34.488 -25.642  24.347  1.00 83.00 LIG-0.35  N 
ATOM     17  C   GLY F 462      34.188 -24.974  25.459  1.00 85.58 LIG 0.24  C 
ATOM     18 O    GLY F 462      33.938 -23.768  25.474  1.00 87.56 LIG-0.27  OA
ATOM     19 H    ALA F 463      34.675 -26.481  24.327  1.00 83.00 LIG 0.16  HD
BRANCH 17 20
ATOM     20  CA  GLY F 462      34.172 -25.780  26.742  1.00 87.31 LIG 0.23  C 
BRANCH 20 21
ATOM     21  N   GLY F 462      33.699 -25.006  27.874  1.00 88.73 LIG-0.35  N 
ATOM     22  C   ALA F 461      34.353 -24.977  29.030  1.00 88.98 LIG 0.26  C 
ATOM     23 O    ALA F 461      35.397 -25.599  29.228  1.00 91.33 LIG-0.27  OA
ATOM     24 H    GLY F 462      32.968 -24.577  27.728  1.00 88.73 LIG 0.16  HD
BRANCH 22 25
ATOM     25  CA  ALA F 461      33.733 -24.121  30.128  1.00 85.90 LIG 0.40  C 
ATOM     26  CB  ALA F 461      34.129 -22.662  29.957  1.00 82.87 LIG 0.06  C 
ATOM     27  N   ALA F 461      34.126 -24.606  31.447  1.00 83.73 LIG 0.61  N 
ENDBRANCH 22 25
ENDBRANCH 20 21
ENDBRANCH 17 20
ENDBRANCH 1 16
TORSDOF 9
ENDMDL
MODEL 18
USER: ADFR SOLUTION from run 24
USER: SCORE 7.182702 LL:  -1.134 LR:  -6.821 RR:   0.000 FEB:  -4.136
USER: RMSD 3.111335
USER: SEED 23
USER: STATUS no improvement in best in 23 clusters for 5 generations
USER: GENES 11
USER: genes 0 Translation |==|  0.46614 0.58758 0.43113
USER: genes 1 Rotation |==|  0.48794 0.49101 0.74691 0.93452
USER: genes 2 Torsion [N]-CA--C-[N] |==|  0.18407
USER: genes 3 Torsion [C]-N--CA-[C] |==|  0.80000
USER: genes 4 Torsion [N]-CA--C-[N] |==|  0.55463
USER: genes 5 Torsion [C]-N--CA-[C] |==|  0.21773
USER: genes 6 Torsion [N]-CA--C-[O] |==|  0.34503
USER: genes 7 Torsion [CB]-CA--N-[C] |==|  0.81757
USER: genes 8 Torsion [N]-C--CA-[N] |==|  0.96518
USER: genes 9 Torsion [C]-CA--N-[C] |==|  0.28781
USER: genes 10 Torsion [N]-C--CA-[N] |==|  0.54106
ROOT
ATOM      1  CA  ALA F 463      34.642 -25.337  24.160  1.00 80.84 LIG 0.17  C 
ATOM      2  CB  ALA F 463      33.491 -25.133  23.186  1.00 75.28 LIG 0.04  C 
ENDROOT
BRANCH 1 3
ATOM      3  C   ALA F 463      35.436 -24.049  24.330  1.00 84.46 LIG 0.24  C 
ATOM      4 O    ALA F 463      35.031 -22.990  23.850  1.00 85.06 LIG-0.27  OA
ATOM      5  N   GLY F 464      36.572 -24.144  25.012  1.00 87.45 LIG-0.35  N 
ATOM      6 H    GLY F 464      36.840 -24.864  25.400  1.00 87.45 LIG 0.16  HD
BRANCH 5 7
ATOM      7  CA  GLY F 464      37.473 -23.015  25.161  1.00 89.28 LIG 0.23  C 
BRANCH 7 8
ATOM      8  C   GLY F 464      38.234 -22.630  23.905  1.00 90.16 LIG 0.23  C 
ATOM      9 O    GLY F 464      37.829 -22.991  22.799  1.00 90.52 LIG-0.27  OA
ATOM     10  N   ALA F 465      39.335 -21.899  24.070  1.00 88.18 LIG-0.35  N 
ATOM     11 H    ALA F 465      39.639 -21.660  24.838  1.00 88.18 LIG 0.16  HD
BRANCH 10 12
ATOM     12  CA  ALA F 465      40.132 -21.433  22.938  1.00 85.90 LIG 0.16  C 
ATOM     13  CB  ALA F 465      40.323 -22.556  21.928  1.00 84.54 LIG 0.04  C 
BRANCH 12 14
ATOM     14  C   ALA F 465      39.495 -20.219  22.263  1.00 85.67 LIG 0.22  C 
ATOM     15 O    ALA F 465      40.129 -19.169  22.126  1.00 84.89 LIG-0.29  OA
ENDBRANCH 12 14
ENDBRANCH 10 12
ENDBRANCH 7 8
ENDBRANCH 5 7
ENDBRANCH 1 3
BRANCH 1 16
ATOM     16  N   ALA F 463      34.145 -25.795  25.453  1.00 83.00 LIG-0.35  N 
ATOM     17  C   GLY F 462      33.379 -25.024  26.222  1.00 85.58 LIG 0.24  C 
ATOM     18 O    GLY F 462      33.051 -23.878  25.913  1.00 87.56 LIG-0.27  OA
ATOM     19 H    ALA F 463      34.388 -26.592  25.665  1.00 83.00 LIG 0.16  HD
BRANCH 17 20
ATOM     20  CA  GLY F 462      32.920 -25.629  27.533  1.00 87.31 LIG 0.23  C 
BRANCH 20 21
ATOM     21  N   GLY F 462      33.158 -27.058  27.596  1.00 88.73 LIG-0.35  N 
ATOM     22  C   ALA F 461      34.159 -27.575  28.301  1.00 88.98 LIG 0.26  C 
ATOM     23 O    ALA F 461      34.952 -26.890  28.945  1.00 91.33 LIG-0.27  OA
ATOM     24 H    GLY F 462      32.600 -27.529  27.142  1.00 88.73 LIG 0.16  HD
BRANCH 22 25
ATOM     25  CA  ALA F 461      34.283 -29.094  28.270  1.00 85.90 LIG 0.40  C 
ATOM     26  CB  ALA F 461      32.914 -29.746  28.395  1.00 82.87 LIG 0.06  C 
ATOM     27  N   ALA F 461      35.169 -29.563  29.329  1.00 83.73 LIG 0.61  N 
ENDBRANCH 22 25
ENDBRANCH 20 21
ENDBRANCH 17 20
ENDBRANCH 1 16
TORSDOF 9
ENDMDL
MODEL 19
USER: ADFR SOLUTION from run 13
USER: SCORE 7.231230 LL:  -1.165 LR:  -6.758 RR:   0.000 FEB:  -4.074
USER: RMSD 3.110920
USER: SEED 583216
USER: STATUS no improvement in best in 24 clusters for 5 generations
USER: GENES 11
USER: genes 0 Translation |==|  0.39694 0.63849 0.42084
USER: genes 1 Rotation |==|  0.70688 0.59034 0.41472 0.93791
USER: genes 2 Torsion [N]-CA--C-[N] |==|  0.85840
USER: genes 3 Torsion [C]-N--CA-[C] |==|  0.17703
USER: genes 4 Torsion [N]-CA--C-[N] |==|  0.59736
USER: genes 5 Torsion [C]-N--CA-[C] |==|  0.53718
USER: genes 6 Torsion [N]-CA--C-[O] |==|  0.40407
USER: genes 7 Torsion [CB]-CA--N-[C] |==|  0.87056
USER: genes 8 Torsion [N]-C--CA-[N] |==|  0.63076
USER: genes 9 Torsion [C]-CA--N-[C] |==|  0.71667
USER: genes 10 Torsion [N]-C--CA-[N] |==|  0.43085
ROOT
ATOM      1  CA  ALA F 463      33.396 -24.574  23.959  1.00 80.84 LIG 0.17  C 
ATOM      2  CB  ALA F 463      33.384 -23.111  24.378  1.00 75.28 LIG 0.04  C 
ENDROOT
BRANCH 1 3
ATOM      3  C   ALA F 463      34.737 -24.943  23.337  1.00 84.46 LIG 0.24  C 
ATOM      4 O    ALA F 463      34.833 -25.155  22.128  1.00 85.06 LIG-0.27  OA
ATOM      5  N   GLY F 464      35.769 -25.023  24.169  1.00 87.45 LIG-0.35  N 
ATOM      6 H    GLY F 464      35.728 -24.824  25.005  1.00 87.45 LIG 0.16  HD
BRANCH 5 7
ATOM      7  CA  GLY F 464      37.079 -25.462  23.724  1.00 89.28 LIG 0.23  C 
BRANCH 7 8
ATOM      8  C   GLY F 464      37.745 -24.561  22.699  1.00 90.16 LIG 0.23  C 
ATOM      9 O    GLY F 464      37.589 -23.340  22.751  1.00 90.52 LIG-0.27  OA
ATOM     10  N   ALA F 465      38.487 -25.158  21.768  1.00 88.18 LIG-0.35  N 
ATOM     11 H    ALA F 465      38.585 -26.010  21.708  1.00 88.18 LIG 0.16  HD
BRANCH 10 12
ATOM     12  CA  ALA F 465      39.210 -24.398  20.750  1.00 85.90 LIG 0.16  C 
ATOM     13  CB  ALA F 465      40.378 -23.651  21.379  1.00 84.54 LIG 0.04  C 
BRANCH 12 14
ATOM     14  C   ALA F 465      39.708 -25.300  19.622  1.00 85.67 LIG 0.22  C 
ATOM     15 O    ALA F 465      39.751 -24.889  18.459  1.00 84.89 LIG-0.29  OA
ENDBRANCH 12 14
ENDBRANCH 10 12
ENDBRANCH 7 8
ENDBRANCH 5 7
ENDBRANCH 1 3
BRANCH 1 16
ATOM     16  N   ALA F 463      33.117 -25.437  25.102  1.00 83.00 LIG-0.35  N 
ATOM     17  C   GLY F 462      33.726 -25.267  26.273  1.00 85.58 LIG 0.24  C 
ATOM     18 O    GLY F 462      34.568 -24.391  26.474  1.00 87.56 LIG-0.27  OA
ATOM     19 H    ALA F 463      32.536 -26.052  24.948  1.00 83.00 LIG 0.16  HD
BRANCH 17 20
ATOM     20  CA  GLY F 462      33.333 -26.225  27.379  1.00 87.31 LIG 0.23  C 
BRANCH 20 21
ATOM     21  N   GLY F 462      33.061 -25.543  28.630  1.00 88.73 LIG-0.35  N 
ATOM     22  C   ALA F 461      33.940 -25.521  29.626  1.00 88.98 LIG 0.26  C 
ATOM     23 O    ALA F 461      35.038 -26.074  29.566  1.00 91.33 LIG-0.27  OA
ATOM     24 H    GLY F 462      32.291 -25.162  28.664  1.00 88.73 LIG 0.16  HD
BRANCH 22 25
ATOM     25  CA  ALA F 461      33.511 -24.766  30.879  1.00 85.90 LIG 0.40  C 
ATOM     26  CB  ALA F 461      33.750 -23.273  30.712  1.00 82.87 LIG 0.06  C 
ATOM     27  N   ALA F 461      34.217 -25.268  32.053  1.00 83.73 LIG 0.61  N 
ENDBRANCH 22 25
ENDBRANCH 20 21
ENDBRANCH 17 20
ENDBRANCH 1 16
TORSDOF 9
ENDMDL
MODEL 20
USER: ADFR SOLUTION from run 163
USER: SCORE 6.935169 LL:  -1.234 LR:  -6.760 RR:   0.000 FEB:  -4.075
USER: RMSD 3.049112
USER: SEED 162
USER: STATUS no improvement in best in 28 clusters for 5 generations
USER: GENES 11
USER: genes 0 Translation |==|  0.47110 0.57842 0.40409
USER: genes 1 Rotation |==|  0.42694 0.59659 0.72197 0.93135
USER: genes 2 Torsion [N]-CA--C-[N] |==|  0.39544
USER: genes 3 Torsion [C]-N--CA-[C] |==|  0.42222
USER: genes 4 Torsion [N]-CA--C-[N] |==|  0.13869
USER: genes 5 Torsion [C]-N--CA-[C] |==|  0.72497
USER: genes 6 Torsion [N]-CA--C-[O] |==|  0.17593
USER: genes 7 Torsion [CB]-CA--N-[C] |==|  0.84912
USER: genes 8 Torsion [N]-C--CA-[N] |==|  0.93535
USER: genes 9 Torsion [C]-CA--N-[C] |==|  0.78475
USER: genes 10 Torsion [N]-C--CA-[N] |==|  0.47406
ROOT
ATOM      1  CA  ALA F 463      34.731 -25.475  23.633  1.00 80.84 LIG 0.17  C 
ATOM      2  CB  ALA F 463      33.379 -25.509  22.937  1.00 75.28 LIG 0.04  C 
ENDROOT
BRANCH 1 3
ATOM      3  C   ALA F 463      35.595 -24.352  23.073  1.00 84.46 LIG 0.24  C 
ATOM      4 O    ALA F 463      35.492 -23.203  23.503  1.00 85.06 LIG-0.27  OA
ATOM      5  N   GLY F 464      36.443 -24.688  22.107  1.00 87.45 LIG-0.35  N 
ATOM      6 H    GLY F 464      36.565 -25.495  21.835  1.00 87.45 LIG 0.16  HD
BRANCH 5 7
ATOM      7  CA  GLY F 464      37.251 -23.698  21.419  1.00 89.28 LIG 0.23  C 
BRANCH 7 8
ATOM      8  C   GLY F 464      38.571 -24.213  20.871  1.00 90.16 LIG 0.23  C 
ATOM      9 O    GLY F 464      39.619 -23.610  21.107  1.00 90.52 LIG-0.27  OA
ATOM     10  N   ALA F 465      38.524 -25.327  20.142  1.00 88.18 LIG-0.35  N 
ATOM     11 H    ALA F 465      37.797 -25.744  19.953  1.00 88.18 LIG 0.16  HD
BRANCH 10 12
ATOM     12  CA  ALA F 465      39.729 -25.943  19.593  1.00 85.90 LIG 0.16  C 
ATOM     13  CB  ALA F 465      39.667 -27.457  19.749  1.00 84.54 LIG 0.04  C 
BRANCH 12 14
ATOM     14  C   ALA F 465      39.933 -25.573  18.125  1.00 85.67 LIG 0.22  C 
ATOM     15 O    ALA F 465      40.126 -24.401  17.791  1.00 84.89 LIG-0.29  OA
ENDBRANCH 12 14
ENDBRANCH 10 12
ENDBRANCH 7 8
ENDBRANCH 5 7
ENDBRANCH 1 3
BRANCH 1 16
ATOM     16  N   ALA F 463      34.563 -25.309  25.073  1.00 83.00 LIG-0.35  N 
ATOM     17  C   GLY F 462      33.857 -24.304  25.585  1.00 85.58 LIG 0.24  C 
ATOM     18 O    GLY F 462      33.312 -23.442  24.893  1.00 87.56 LIG-0.27  OA
ATOM     19 H    ALA F 463      34.956 -25.909  25.547  1.00 83.00 LIG 0.16  HD
BRANCH 17 20
ATOM     20  CA  GLY F 462      33.751 -24.258  27.095  1.00 87.31 LIG 0.23  C 
BRANCH 20 21
ATOM     21  N   GLY F 462      33.961 -25.559  27.703  1.00 88.73 LIG-0.35  N 
ATOM     22  C   ALA F 461      33.018 -26.494  27.708  1.00 88.98 LIG 0.26  C 
ATOM     23 O    ALA F 461      31.906 -26.331  27.206  1.00 91.33 LIG-0.27  OA
ATOM     24 H    GLY F 462      34.740 -25.663  28.053  1.00 88.73 LIG 0.16  HD
BRANCH 22 25
ATOM     25  CA  ALA F 461      33.385 -27.809  28.386  1.00 85.90 LIG 0.40  C 
ATOM     26  CB  ALA F 461      34.480 -28.525  27.609  1.00 82.87 LIG 0.06  C 
ATOM     27  N   ALA F 461      32.212 -28.666  28.522  1.00 83.73 LIG 0.61  N 
ENDBRANCH 22 25
ENDBRANCH 20 21
ENDBRANCH 17 20
ENDBRANCH 1 16
TORSDOF 9
ENDMDL
MODEL 21
USER: ADFR SOLUTION from run 188
USER: SCORE 6.990984 LL:  -1.420 LR:  -6.751 RR:   0.000 FEB:  -4.067
USER: RMSD 3.411366
USER: SEED 187
USER: STATUS no improvement in best in 32 clusters for 5 generations
USER: GENES 11
USER: genes 0 Translation |==|  0.46934 0.59311 0.38952
USER: genes 1 Rotation |==|  0.60966 0.61480 0.64915 0.95006
USER: genes 2 Torsion [N]-CA--C-[N] |==|  0.35792
USER: genes 3 Torsion [C]-N--CA-[C] |==|  0.35261
USER: genes 4 Torsion [N]-CA--C-[N] |==|  0.08791
USER: genes 5 Torsion [C]-N--CA-[C] |==|  0.53776
USER: genes 6 Torsion [N]-CA--C-[O] |==|  0.60006
USER: genes 7 Torsion [CB]-CA--N-[C] |==|  0.51421
USER: genes 8 Torsion [N]-C--CA-[N] |==|  0.02945
USER: genes 9 Torsion [C]-CA--N-[C] |==|  0.73341
USER: genes 10 Torsion [N]-C--CA-[N] |==|  0.49610
ROOT
ATOM      1  CA  ALA F 463      34.699 -25.254  23.349  1.00 80.84 LIG 0.17  C 
ATOM      2  CB  ALA F 463      33.405 -24.455  23.357  1.00 75.28 LIG 0.04  C 
ENDROOT
BRANCH 1 3
ATOM      3  C   ALA F 463      35.885 -24.353  23.028  1.00 84.46 LIG 0.24  C 
ATOM      4 O    ALA F 463      36.287 -23.526  23.847  1.00 85.06 LIG-0.27  OA
ATOM      5  N   GLY F 464      36.439 -24.513  21.832  1.00 87.45 LIG-0.35  N 
ATOM      6 H    GLY F 464      36.204 -25.122  21.272  1.00 87.45 LIG 0.16  HD
BRANCH 5 7
ATOM      7  CA  GLY F 464      37.509 -23.651  21.362  1.00 89.28 LIG 0.23  C 
BRANCH 7 8
ATOM      8  C   GLY F 464      38.753 -24.377  20.879  1.00 90.16 LIG 0.23  C 
ATOM      9 O    GLY F 464      39.863 -23.860  21.009  1.00 90.52 LIG-0.27  OA
ATOM     10  N   ALA F 465      38.572 -25.573  20.322  1.00 88.18 LIG-0.35  N 
ATOM     11 H    ALA F 465      37.800 -25.934  20.206  1.00 88.18 LIG 0.16  HD
BRANCH 10 12
ATOM     12  CA  ALA F 465      39.691 -26.386  19.853  1.00 85.90 LIG 0.16  C 
ATOM     13  CB  ALA F 465      40.485 -26.924  21.036  1.00 84.54 LIG 0.04  C 
BRANCH 12 14
ATOM     14  C   ALA F 465      39.219 -27.538  18.968  1.00 85.67 LIG 0.22  C 
ATOM     15 O    ALA F 465      39.782 -28.635  19.006  1.00 84.89 LIG-0.29  OA
ENDBRANCH 12 14
ENDBRANCH 10 12
ENDBRANCH 7 8
ENDBRANCH 5 7
ENDBRANCH 1 3
BRANCH 1 16
ATOM     16  N   ALA F 463      34.903 -25.915  24.634  1.00 83.00 LIG-0.35  N 
ATOM     17  C   GLY F 462      36.017 -26.592  24.904  1.00 85.58 LIG 0.24  C 
ATOM     18 O    GLY F 462      36.938 -26.723  24.098  1.00 87.56 LIG-0.27  OA
ATOM     19 H    ALA F 463      34.250 -25.826  25.185  1.00 83.00 LIG 0.16  HD
BRANCH 17 20
ATOM     20  CA  GLY F 462      36.104 -27.216  26.282  1.00 87.31 LIG 0.23  C 
BRANCH 20 21
ATOM     21  N   GLY F 462      34.840 -27.171  26.991  1.00 88.73 LIG-0.35  N 
ATOM     22  C   ALA F 461      34.554 -26.207  27.860  1.00 88.98 LIG 0.26  C 
ATOM     23 O    ALA F 461      35.332 -25.292  28.130  1.00 91.33 LIG-0.27  OA
ATOM     24 H    GLY F 462      34.304 -27.814  26.798  1.00 88.73 LIG 0.16  HD
BRANCH 22 25
ATOM     25  CA  ALA F 461      33.187 -26.294  28.528  1.00 85.90 LIG 0.40  C 
ATOM     26  CB  ALA F 461      32.080 -26.278  27.485  1.00 82.87 LIG 0.06  C 
ATOM     27  N   ALA F 461      33.006 -25.204  29.481  1.00 83.73 LIG 0.61  N 
ENDBRANCH 22 25
ENDBRANCH 20 21
ENDBRANCH 17 20
ENDBRANCH 1 16
TORSDOF 9
ENDMDL
MODEL 22
USER: ADFR SOLUTION from run 111
USER: SCORE 7.064211 LL:  -1.250 LR:  -6.716 RR:   0.000 FEB:  -4.032
USER: RMSD 3.355799
USER: SEED 110
USER: STATUS no improvement in best in 23 clusters for 5 generations
USER: GENES 11
USER: genes 0 Translation |==|  0.51259 0.61213 0.39839
USER: genes 1 Rotation |==|  0.51554 0.69398 0.57401 0.95459
USER: genes 2 Torsion [N]-CA--C-[N] |==|  0.00935
USER: genes 3 Torsion [C]-N--CA-[C] |==|  0.84228
USER: genes 4 Torsion [N]-CA--C-[N] |==|  0.38586
USER: genes 5 Torsion [C]-N--CA-[C] |==|  0.46847
USER: genes 6 Torsion [N]-CA--C-[O] |==|  0.61649
USER: genes 7 Torsion [CB]-CA--N-[C] |==|  0.23879
USER: genes 8 Torsion [N]-C--CA-[N] |==|  0.41001
USER: genes 9 Torsion [C]-CA--N-[C] |==|  0.82217
USER: genes 10 Torsion [N]-C--CA-[N] |==|  0.37855
ROOT
ATOM      1  CA  ALA F 463      35.478 -24.969  23.522  1.00 80.84 LIG 0.17  C 
ATOM      2  CB  ALA F 463      34.275 -24.048  23.381  1.00 75.28 LIG 0.04  C 
ENDROOT
BRANCH 1 3
ATOM      3  C   ALA F 463      36.590 -24.547  22.571  1.00 84.46 LIG 0.24  C 
ATOM      4 O    ALA F 463      36.376 -24.423  21.365  1.00 85.06 LIG-0.27  OA
ATOM      5  N   GLY F 464      37.782 -24.331  23.118  1.00 87.45 LIG-0.35  N 
ATOM      6 H    GLY F 464      37.933 -24.360  23.964  1.00 87.45 LIG 0.16  HD
BRANCH 5 7
ATOM      7  CA  GLY F 464      38.950 -24.022  22.313  1.00 89.28 LIG 0.23  C 
BRANCH 7 8
ATOM      8  C   GLY F 464      39.288 -25.053  21.250  1.00 90.16 LIG 0.23  C 
ATOM      9 O    GLY F 464      39.204 -26.256  21.503  1.00 90.52 LIG-0.27  OA
ATOM     10  N   ALA F 465      39.672 -24.587  20.063  1.00 88.18 LIG-0.35  N 
ATOM     11 H    ALA F 465      39.756 -23.751  19.882  1.00 88.18 LIG 0.16  HD
BRANCH 10 12
ATOM     12  CA  ALA F 465      39.987 -25.476  18.947  1.00 85.90 LIG 0.16  C 
ATOM     13  CB  ALA F 465      38.920 -26.554  18.813  1.00 84.54 LIG 0.04  C 
BRANCH 12 14
ATOM     14  C   ALA F 465      40.126 -24.706  17.635  1.00 85.67 LIG 0.22  C 
ATOM     15 O    ALA F 465      39.646 -25.151  16.589  1.00 84.89 LIG-0.29  OA
ENDBRANCH 12 14
ENDBRANCH 10 12
ENDBRANCH 7 8
ENDBRANCH 5 7
ENDBRANCH 1 3
BRANCH 1 16
ATOM     16  N   ALA F 463      35.965 -24.970  24.897  1.00 83.00 LIG-0.35  N 
ATOM     17  C   GLY F 462      35.455 -25.781  25.821  1.00 85.58 LIG 0.24  C 
ATOM     18 O    GLY F 462      34.536 -26.568  25.592  1.00 87.56 LIG-0.27  OA
ATOM     19 H    ALA F 463      36.599 -24.410  25.048  1.00 83.00 LIG 0.16  HD
BRANCH 17 20
ATOM     20  CA  GLY F 462      36.064 -25.689  27.205  1.00 87.31 LIG 0.23  C 
BRANCH 20 21
ATOM     21  N   GLY F 462      35.097 -25.954  28.253  1.00 88.73 LIG-0.35  N 
ATOM     22  C   ALA F 461      34.047 -25.167  28.458  1.00 88.98 LIG 0.26  C 
ATOM     23 O    ALA F 461      33.817 -24.163  27.784  1.00 91.33 LIG-0.27  OA
ATOM     24 H    GLY F 462      35.265 -26.657  28.719  1.00 88.73 LIG 0.16  HD
BRANCH 22 25
ATOM     25  CA  ALA F 461      33.120 -25.573  29.597  1.00 85.90 LIG 0.40  C 
ATOM     26  CB  ALA F 461      31.884 -26.277  29.057  1.00 82.87 LIG 0.06  C 
ATOM     27  N   ALA F 461      32.738 -24.412  30.393  1.00 83.73 LIG 0.61  N 
ENDBRANCH 22 25
ENDBRANCH 20 21
ENDBRANCH 17 20
ENDBRANCH 1 16
TORSDOF 9
ENDMDL
MODEL 23
USER: ADFR SOLUTION from run 45
USER: SCORE 6.174740 LL:  -1.340 LR:  -6.693 RR:   0.000 FEB:  -4.009
USER: RMSD 4.676352
USER: SEED 44
USER: STATUS no improvement in best in 13 clusters for 5 generations
USER: GENES 11
USER: genes 0 Translation |==|  0.54326 0.68656 0.47823
USER: genes 1 Rotation |==|  0.83912 0.63392 0.23992 0.72232
USER: genes 2 Torsion [N]-CA--C-[N] |==|  0.70244
USER: genes 3 Torsion [C]-N--CA-[C] |==|  0.27222
USER: genes 4 Torsion [N]-CA--C-[N] |==|  0.01046
USER: genes 5 Torsion [C]-N--CA-[C] |==|  0.48231
USER: genes 6 Torsion [N]-CA--C-[O] |==|  0.36996
USER: genes 7 Torsion [CB]-CA--N-[C] |==|  0.84961
USER: genes 8 Torsion [N]-C--CA-[N] |==|  0.46151
USER: genes 9 Torsion [C]-CA--N-[C] |==|  0.77672
USER: genes 10 Torsion [N]-C--CA-[N] |==|  0.43835
ROOT
ATOM      1  CA  ALA F 463      36.030 -23.853  25.078  1.00 80.84 LIG 0.17  C 
ATOM      2  CB  ALA F 463      37.269 -23.544  25.905  1.00 75.28 LIG 0.04  C 
ENDROOT
BRANCH 1 3
ATOM      3  C   ALA F 463      36.407 -24.126  23.628  1.00 84.46 LIG 0.24  C 
ATOM      4 O    ALA F 463      35.551 -24.121  22.742  1.00 85.06 LIG-0.27  OA
ATOM      5  N   GLY F 464      37.691 -24.369  23.390  1.00 87.45 LIG-0.35  N 
ATOM      6 H    GLY F 464      38.307 -24.322  23.989  1.00 87.45 LIG 0.16  HD
BRANCH 5 7
ATOM      7  CA  GLY F 464      38.168 -24.743  22.071  1.00 89.28 LIG 0.23  C 
BRANCH 7 8
ATOM      8  C   GLY F 464      38.751 -23.604  21.252  1.00 90.16 LIG 0.23  C 
ATOM      9 O    GLY F 464      39.120 -23.799  20.093  1.00 90.52 LIG-0.27  OA
ATOM     10  N   ALA F 465      38.834 -22.417  21.849  1.00 88.18 LIG-0.35  N 
ATOM     11 H    ALA F 465      38.600 -22.274  22.664  1.00 88.18 LIG 0.16  HD
BRANCH 10 12
ATOM     12  CA  ALA F 465      39.340 -21.235  21.155  1.00 85.90 LIG 0.16  C 
ATOM     13  CB  ALA F 465      38.626 -21.059  19.821  1.00 84.54 LIG 0.04  C 
BRANCH 12 14
ATOM     14  C   ALA F 465      39.188 -19.975  22.004  1.00 85.67 LIG 0.22  C 
ATOM     15 O    ALA F 465      40.125 -19.181  22.128  1.00 84.89 LIG-0.29  OA
ENDBRANCH 12 14
ENDBRANCH 10 12
ENDBRANCH 7 8
ENDBRANCH 5 7
ENDBRANCH 1 3
BRANCH 1 16
ATOM     16  N   ALA F 463      35.312 -24.995  25.635  1.00 83.00 LIG-0.35  N 
ATOM     17  C   GLY F 462      35.915 -26.161  25.855  1.00 85.58 LIG 0.24  C 
ATOM     18 O    GLY F 462      37.102 -26.365  25.596  1.00 87.56 LIG-0.27  OA
ATOM     19 H    ALA F 463      34.483 -24.845  25.802  1.00 83.00 LIG 0.16  HD
BRANCH 17 20
ATOM     20  CA  GLY F 462      35.057 -27.258  26.450  1.00 87.31 LIG 0.23  C 
BRANCH 20 21
ATOM     21  N   GLY F 462      35.686 -28.562  26.359  1.00 88.73 LIG-0.35  N 
ATOM     22  C   ALA F 461      35.662 -29.280  25.242  1.00 88.98 LIG 0.26  C 
ATOM     23 O    ALA F 461      35.108 -28.900  24.210  1.00 91.33 LIG-0.27  OA
ATOM     24 H    GLY F 462      36.069 -28.821  27.085  1.00 88.73 LIG 0.16  HD
BRANCH 22 25
ATOM     25  CA  ALA F 461      36.365 -30.631  25.300  1.00 85.90 LIG 0.40  C 
ATOM     26  CB  ALA F 461      37.870 -30.459  25.158  1.00 82.87 LIG 0.06  C 
ATOM     27  N   ALA F 461      35.854 -31.525  24.266  1.00 83.73 LIG 0.61  N 
ENDBRANCH 22 25
ENDBRANCH 20 21
ENDBRANCH 17 20
ENDBRANCH 1 16
TORSDOF 9
ENDMDL
MODEL 24
USER: ADFR SOLUTION from run 154
USER: SCORE 7.228994 LL:  -1.167 LR:  -6.683 RR:   0.000 FEB:  -3.998
USER: RMSD 4.659583
USER: SEED 153
USER: STATUS no improvement in best in 13 clusters for 5 generations
USER: GENES 11
USER: genes 0 Translation |==|  0.45684 0.59656 0.38112
USER: genes 1 Rotation |==|  0.64257 0.59038 0.63446 0.95103
USER: genes 2 Torsion [N]-CA--C-[N] |==|  0.35556
USER: genes 3 Torsion [C]-N--CA-[C] |==|  0.25002
USER: genes 4 Torsion [N]-CA--C-[N] |==|  0.43629
USER: genes 5 Torsion [C]-N--CA-[C] |==|  0.15221
USER: genes 6 Torsion [N]-CA--C-[O] |==|  0.57725
USER: genes 7 Torsion [CB]-CA--N-[C] |==|  0.55557
USER: genes 8 Torsion [N]-C--CA-[N] |==|  0.45179
USER: genes 9 Torsion [C]-CA--N-[C] |==|  0.78025
USER: genes 10 Torsion [N]-C--CA-[N] |==|  0.39865
ROOT
ATOM      1  CA  ALA F 463      34.474 -25.203  23.185  1.00 80.84 LIG 0.17  C 
ATOM      2  CB  ALA F 463      33.270 -24.277  23.262  1.00 75.28 LIG 0.04  C 
ENDROOT
BRANCH 1 3
ATOM      3  C   ALA F 463      35.759 -24.400  23.024  1.00 84.46 LIG 0.24  C 
ATOM      4 O    ALA F 463      36.200 -23.723  23.954  1.00 85.06 LIG-0.27  OA
ATOM      5  N   GLY F 464      36.355 -24.474  21.839  1.00 87.45 LIG-0.35  N 
ATOM      6 H    GLY F 464      36.089 -24.985  21.200  1.00 87.45 LIG 0.16  HD
BRANCH 5 7
ATOM      7  CA  GLY F 464      37.529 -23.682  21.521  1.00 89.28 LIG 0.23  C 
BRANCH 7 8
ATOM      8  C   GLY F 464      38.857 -24.340  21.850  1.00 90.16 LIG 0.23  C 
ATOM      9 O    GLY F 464      38.915 -25.230  22.700  1.00 90.52 LIG-0.27  OA
ATOM     10  N   ALA F 465      39.924 -23.906  21.182  1.00 88.18 LIG-0.35  N 
ATOM     11 H    ALA F 465      39.899 -23.271  20.603  1.00 88.18 LIG 0.16  HD
BRANCH 10 12
ATOM     12  CA  ALA F 465      41.250 -24.486  21.380  1.00 85.90 LIG 0.16  C 
ATOM     13  CB  ALA F 465      41.771 -24.150  22.771  1.00 84.54 LIG 0.04  C 
BRANCH 12 14
ATOM     14  C   ALA F 465      41.241 -25.999  21.171  1.00 85.67 LIG 0.22  C 
ATOM     15 O    ALA F 465      42.055 -26.721  21.753  1.00 84.89 LIG-0.29  OA
ENDBRANCH 12 14
ENDBRANCH 10 12
ENDBRANCH 7 8
ENDBRANCH 5 7
ENDBRANCH 1 3
BRANCH 1 16
ATOM     16  N   ALA F 463      34.553 -26.044  24.374  1.00 83.00 LIG-0.35  N 
ATOM     17  C   GLY F 462      35.686 -26.640  24.737  1.00 85.58 LIG 0.24  C 
ATOM     18 O    GLY F 462      36.734 -26.541  24.097  1.00 87.56 LIG-0.27  OA
ATOM     19 H    ALA F 463      33.814 -26.115  24.808  1.00 83.00 LIG 0.16  HD
BRANCH 17 20
ATOM     20  CA  GLY F 462      35.632 -27.473  26.001  1.00 87.31 LIG 0.23  C 
BRANCH 20 21
ATOM     21  N   GLY F 462      36.750 -28.391  26.107  1.00 88.73 LIG-0.35  N 
ATOM     22  C   ALA F 461      36.785 -29.538  25.439  1.00 88.98 LIG 0.26  C 
ATOM     23 O    ALA F 461      35.882 -29.908  24.690  1.00 91.33 LIG-0.27  OA
ATOM     24 H    GLY F 462      37.376 -28.125  26.634  1.00 88.73 LIG 0.16  HD
BRANCH 22 25
ATOM     25  CA  ALA F 461      38.025 -30.398  25.653  1.00 85.90 LIG 0.40  C 
ATOM     26  CB  ALA F 461      39.069 -30.110  24.584  1.00 82.87 LIG 0.06  C 
ATOM     27  N   ALA F 461      37.678 -31.815  25.658  1.00 83.73 LIG 0.61  N 
ENDBRANCH 22 25
ENDBRANCH 20 21
ENDBRANCH 17 20
ENDBRANCH 1 16
TORSDOF 9
ENDMDL
MODEL 25
USER: ADFR SOLUTION from run 119
USER: SCORE 7.374147 LL:  -1.522 LR:  -6.646 RR:   0.000 FEB:  -3.961
USER: RMSD 4.488896
USER: SEED 118
USER: STATUS no improvement in best in 22 clusters for 5 generations
USER: GENES 11
USER: genes 0 Translation |==|  0.44870 0.56121 0.40538
USER: genes 1 Rotation |==|  0.43790 0.60060 0.65803 0.95940
USER: genes 2 Torsion [N]-CA--C-[N] |==|  0.20159
USER: genes 3 Torsion [C]-N--CA-[C] |==|  0.18636
USER: genes 4 Torsion [N]-CA--C-[N] |==|  0.52154
USER: genes 5 Torsion [C]-N--CA-[C] |==|  0.63010
USER: genes 6 Torsion [N]-CA--C-[O] |==|  0.53459
USER: genes 7 Torsion [CB]-CA--N-[C] |==|  0.82776
USER: genes 8 Torsion [N]-C--CA-[N] |==|  0.11866
USER: genes 9 Torsion [C]-CA--N-[C] |==|  0.19272
USER: genes 10 Torsion [N]-C--CA-[N] |==|  0.41460
ROOT
ATOM      1  CA  ALA F 463      34.328 -25.733  23.658  1.00 80.84 LIG 0.17  C 
ATOM      2  CB  ALA F 463      33.037 -25.393  22.927  1.00 75.28 LIG 0.04  C 
ENDROOT
BRANCH 1 3
ATOM      3  C   ALA F 463      35.484 -24.898  23.122  1.00 84.46 LIG 0.24  C 
ATOM      4 O    ALA F 463      35.274 -23.905  22.425  1.00 85.06 LIG-0.27  OA
ATOM      5  N   GLY F 464      36.705 -25.308  23.446  1.00 87.45 LIG-0.35  N 
ATOM      6 H    GLY F 464      36.865 -25.967  23.976  1.00 87.45 LIG 0.16  HD
BRANCH 5 7
ATOM      7  CA  GLY F 464      37.894 -24.663  22.919  1.00 89.28 LIG 0.23  C 
BRANCH 7 8
ATOM      8  C   GLY F 464      38.119 -23.240  23.398  1.00 90.16 LIG 0.23  C 
ATOM      9 O    GLY F 464      37.406 -22.762  24.282  1.00 90.52 LIG-0.27  OA
ATOM     10  N   ALA F 465      39.106 -22.560  22.817  1.00 88.18 LIG-0.35  N 
ATOM     11 H    ALA F 465      39.595 -22.875  22.184  1.00 88.18 LIG 0.16  HD
BRANCH 10 12
ATOM     12  CA  ALA F 465      39.447 -21.197  23.217  1.00 85.90 LIG 0.16  C 
ATOM     13  CB  ALA F 465      40.713 -21.194  24.061  1.00 84.54 LIG 0.04  C 
BRANCH 12 14
ATOM     14  C   ALA F 465      39.619 -20.281  22.006  1.00 85.67 LIG 0.22  C 
ATOM     15 O    ALA F 465      40.125 -19.163  22.128  1.00 84.89 LIG-0.29  OA
ENDBRANCH 12 14
ENDBRANCH 10 12
ENDBRANCH 7 8
ENDBRANCH 5 7
ENDBRANCH 1 3
BRANCH 1 16
ATOM     16  N   ALA F 463      34.177 -25.519  25.093  1.00 83.00 LIG-0.35  N 
ATOM     17  C   GLY F 462      33.912 -24.316  25.598  1.00 85.58 LIG 0.24  C 
ATOM     18 O    GLY F 462      33.791 -23.305  24.904  1.00 87.56 LIG-0.27  OA
ATOM     19 H    ALA F 463      34.273 -26.228  25.570  1.00 83.00 LIG 0.16  HD
BRANCH 17 20
ATOM     20  CA  GLY F 462      33.766 -24.237  27.104  1.00 87.31 LIG 0.23  C 
BRANCH 20 21
ATOM     21  N   GLY F 462      34.776 -25.012  27.798  1.00 88.73 LIG-0.35  N 
ATOM     22  C   ALA F 461      36.056 -24.657  27.805  1.00 88.98 LIG 0.26  C 
ATOM     23 O    ALA F 461      36.479 -23.657  27.227  1.00 91.33 LIG-0.27  OA
ATOM     24 H    GLY F 462      34.471 -25.710  28.198  1.00 88.73 LIG 0.16  HD
BRANCH 22 25
ATOM     25  CA  ALA F 461      36.999 -25.573  28.577  1.00 85.90 LIG 0.40  C 
ATOM     26  CB  ALA F 461      37.071 -25.157  30.039  1.00 82.87 LIG 0.06  C 
ATOM     27  N   ALA F 461      38.330 -25.568  27.979  1.00 83.73 LIG 0.61  N 
ENDBRANCH 22 25
ENDBRANCH 20 21
ENDBRANCH 17 20
ENDBRANCH 1 16
TORSDOF 9
ENDMDL
MODEL 26
USER: ADFR SOLUTION from run 124
USER: SCORE 7.307779 LL:  -1.312 LR:  -6.618 RR:   0.000 FEB:  -3.933
USER: RMSD 3.242542
USER: SEED 123
USER: STATUS no improvement in best in 14 clusters for 5 generations
USER: GENES 11
USER: genes 0 Translation |==|  0.41636 0.64648 0.48448
USER: genes 1 Rotation |==|  0.61379 0.68531 0.54610 0.94787
USER: genes 2 Torsion [N]-CA--C-[N] |==|  0.04104
USER: genes 3 Torsion [C]-N--CA-[C] |==|  0.21771
USER: genes 4 Torsion [N]-CA--C-[N] |==|  0.53550
USER: genes 5 Torsion [C]-N--CA-[C] |==|  0.60610
USER: genes 6 Torsion [N]-CA--C-[O] |==|  0.41038
USER: genes 7 Torsion [CB]-CA--N-[C] |==|  0.19444
USER: genes 8 Torsion [N]-C--CA-[N] |==|  0.42392
USER: genes 9 Torsion [C]-CA--N-[C] |==|  0.78681
USER: genes 10 Torsion [N]-C--CA-[N] |==|  0.54172
ROOT
ATOM      1  CA  ALA F 463      33.746 -24.454  25.200  1.00 80.84 LIG 0.17  C 
ATOM      2  CB  ALA F 463      32.814 -23.277  25.447  1.00 75.28 LIG 0.04  C 
ENDROOT
BRANCH 1 3
ATOM      3  C   ALA F 463      34.929 -24.030  24.340  1.00 84.46 LIG 0.24  C 
ATOM      4 O    ALA F 463      34.768 -23.302  23.361  1.00 85.06 LIG-0.27  OA
ATOM      5  N   GLY F 464      36.119 -24.493  24.708  1.00 87.45 LIG-0.35  N 
ATOM      6 H    GLY F 464      36.254 -24.957  25.420  1.00 87.45 LIG 0.16  HD
BRANCH 5 7
ATOM      7  CA  GLY F 464      37.313 -24.248  23.919  1.00 89.28 LIG 0.23  C 
BRANCH 7 8
ATOM      8  C   GLY F 464      37.917 -22.864  24.080  1.00 90.16 LIG 0.23  C 
ATOM      9 O    GLY F 464      37.548 -22.129  24.997  1.00 90.52 LIG-0.27  OA
ATOM     10  N   ALA F 465      38.844 -22.507  23.193  1.00 88.18 LIG-0.35  N 
ATOM     11 H    ALA F 465      39.093 -23.003  22.536  1.00 88.18 LIG 0.16  HD
BRANCH 10 12
ATOM     12  CA  ALA F 465      39.527 -21.218  23.264  1.00 85.90 LIG 0.16  C 
ATOM     13  CB  ALA F 465      40.852 -21.362  24.001  1.00 84.54 LIG 0.04  C 
BRANCH 12 14
ATOM     14  C   ALA F 465      39.758 -20.625  21.875  1.00 85.67 LIG 0.22  C 
ATOM     15 O    ALA F 465      39.751 -19.404  21.702  1.00 84.89 LIG-0.29  OA
ENDBRANCH 12 14
ENDBRANCH 10 12
ENDBRANCH 7 8
ENDBRANCH 5 7
ENDBRANCH 1 3
BRANCH 1 16
ATOM     16  N   ALA F 463      34.217 -25.009  26.465  1.00 83.00 LIG-0.35  N 
ATOM     17  C   GLY F 462      33.405 -25.674  27.284  1.00 85.58 LIG 0.24  C 
ATOM     18 O    GLY F 462      32.210 -25.854  27.047  1.00 87.56 LIG-0.27  OA
ATOM     19 H    ALA F 463      35.049 -24.869  26.625  1.00 83.00 LIG 0.16  HD
BRANCH 17 20
ATOM     20  CA  GLY F 462      34.027 -26.210  28.556  1.00 87.31 LIG 0.23  C 
BRANCH 20 21
ATOM     21  N   GLY F 462      33.064 -26.334  29.634  1.00 88.73 LIG-0.35  N 
ATOM     22  C   ALA F 461      32.637 -25.281  30.322  1.00 88.98 LIG 0.26  C 
ATOM     23 O    ALA F 461      33.024 -24.133  30.103  1.00 91.33 LIG-0.27  OA
ATOM     24 H    GLY F 462      32.800 -27.139  29.781  1.00 88.73 LIG 0.16  HD
BRANCH 22 25
ATOM     25  CA  ALA F 461      31.626 -25.568  31.425  1.00 85.90 LIG 0.40  C 
ATOM     26  CB  ALA F 461      30.592 -26.580  30.953  1.00 82.87 LIG 0.06  C 
ATOM     27  N   ALA F 461      30.973 -24.339  31.863  1.00 83.73 LIG 0.61  N 
ENDBRANCH 22 25
ENDBRANCH 20 21
ENDBRANCH 17 20
ENDBRANCH 1 16
TORSDOF 9
ENDMDL
MODEL 27
USER: ADFR SOLUTION from run 21
USER: SCORE 7.352440 LL:  -1.288 LR:  -6.583 RR:   0.000 FEB:  -3.899
USER: RMSD 2.814956
USER: SEED 20
USER: STATUS no improvement in best in 15 clusters for 5 generations
USER: GENES 11
USER: genes 0 Translation |==|  0.45874 0.62755 0.41355
USER: genes 1 Rotation |==|  0.46671 0.60186 0.62174 0.97297
USER: genes 2 Torsion [N]-CA--C-[N] |==|  0.44035
USER: genes 3 Torsion [C]-N--CA-[C] |==|  0.25011
USER: genes 4 Torsion [N]-CA--C-[N] |==|  0.48741
USER: genes 5 Torsion [C]-N--CA-[C] |==|  0.15115
USER: genes 6 Torsion [N]-CA--C-[O] |==|  0.56835
USER: genes 7 Torsion [CB]-CA--N-[C] |==|  0.50556
USER: genes 8 Torsion [N]-C--CA-[N] |==|  0.10471
USER: genes 9 Torsion [C]-CA--N-[C] |==|  0.18250
USER: genes 10 Torsion [N]-C--CA-[N] |==|  0.45624
ROOT
ATOM      1  CA  ALA F 463      34.508 -24.738  23.817  1.00 80.84 LIG 0.17  C 
ATOM      2  CB  ALA F 463      33.294 -24.121  23.141  1.00 75.28 LIG 0.04  C 
ENDROOT
BRANCH 1 3
ATOM      3  C   ALA F 463      35.790 -24.074  23.328  1.00 84.46 LIG 0.24  C 
ATOM      4 O    ALA F 463      36.357 -23.220  24.009  1.00 85.06 LIG-0.27  OA
ATOM      5  N   GLY F 464      36.240 -24.469  22.141  1.00 87.45 LIG-0.35  N 
ATOM      6 H    GLY F 464      35.885 -25.102  21.680  1.00 87.45 LIG 0.16  HD
BRANCH 5 7
ATOM      7  CA  GLY F 464      37.392 -23.847  21.515  1.00 89.28 LIG 0.23  C 
BRANCH 7 8
ATOM      8  C   GLY F 464      38.729 -24.483  21.853  1.00 90.16 LIG 0.23  C 
ATOM      9 O    GLY F 464      38.790 -25.400  22.673  1.00 90.52 LIG-0.27  OA
ATOM     10  N   ALA F 465      39.799 -23.999  21.225  1.00 88.18 LIG-0.35  N 
ATOM     11 H    ALA F 465      39.772 -23.345  20.668  1.00 88.18 LIG 0.16  HD
BRANCH 10 12
ATOM     12  CA  ALA F 465      41.135 -24.552  21.435  1.00 85.90 LIG 0.16  C 
ATOM     13  CB  ALA F 465      41.619 -24.245  22.845  1.00 84.54 LIG 0.04  C 
BRANCH 12 14
ATOM     14  C   ALA F 465      41.167 -26.059  21.183  1.00 85.67 LIG 0.22  C 
ATOM     15 O    ALA F 465      42.024 -26.769  21.716  1.00 84.89 LIG-0.29  OA
ENDBRANCH 12 14
ENDBRANCH 10 12
ENDBRANCH 7 8
ENDBRANCH 5 7
ENDBRANCH 1 3
BRANCH 1 16
ATOM     16  N   ALA F 463      34.404 -24.620  25.268  1.00 83.00 LIG-0.35  N 
ATOM     17  C   GLY F 462      35.368 -25.053  26.077  1.00 85.58 LIG 0.24  C 
ATOM     18 O    GLY F 462      36.399 -25.591  25.669  1.00 87.56 LIG-0.27  OA
ATOM     19 H    ALA F 463      33.677 -24.252  25.542  1.00 83.00 LIG 0.16  HD
BRANCH 17 20
ATOM     20  CA  GLY F 462      35.138 -24.855  27.561  1.00 87.31 LIG 0.23  C 
BRANCH 20 21
ATOM     21  N   GLY F 462      33.753 -25.063  27.938  1.00 88.73 LIG-0.35  N 
ATOM     22  C   ALA F 461      33.168 -26.251  27.843  1.00 88.98 LIG 0.26  C 
ATOM     23 O    ALA F 461      33.747 -27.255  27.429  1.00 91.33 LIG-0.27  OA
ATOM     24 H    GLY F 462      33.356 -24.356  28.225  1.00 88.73 LIG 0.16  HD
BRANCH 22 25
ATOM     25  CA  ALA F 461      31.708 -26.313  28.275  1.00 85.90 LIG 0.40  C 
ATOM     26  CB  ALA F 461      31.593 -26.221  29.790  1.00 82.87 LIG 0.06  C 
ATOM     27  N   ALA F 461      31.075 -27.535  27.790  1.00 83.73 LIG 0.61  N 
ENDBRANCH 22 25
ENDBRANCH 20 21
ENDBRANCH 17 20
ENDBRANCH 1 16
TORSDOF 9
ENDMDL
MODEL 28
USER: ADFR SOLUTION from run 35
USER: SCORE 7.035963 LL:  -1.081 LR:  -6.526 RR:   0.000 FEB:  -3.842
USER: RMSD 3.552557
USER: SEED 34
USER: STATUS no improvement in best in 15 clusters for 5 generations
USER: GENES 11
USER: genes 0 Translation |==|  0.43300 0.59868 0.39281
USER: genes 1 Rotation |==|  0.62028 0.56740 0.59427 0.97128
USER: genes 2 Torsion [N]-CA--C-[N] |==|  0.38504
USER: genes 3 Torsion [C]-N--CA-[C] |==|  0.34015
USER: genes 4 Torsion [N]-CA--C-[N] |==|  0.33831
USER: genes 5 Torsion [C]-N--CA-[C] |==|  0.21578
USER: genes 6 Torsion [N]-CA--C-[O] |==|  0.61774
USER: genes 7 Torsion [CB]-CA--N-[C] |==|  0.85554
USER: genes 8 Torsion [N]-C--CA-[N] |==|  0.09313
USER: genes 9 Torsion [C]-CA--N-[C] |==|  0.19293
USER: genes 10 Torsion [N]-C--CA-[N] |==|  0.74172
ROOT
ATOM      1  CA  ALA F 463      34.045 -25.171  23.413  1.00 80.84 LIG 0.17  C 
ATOM      2  CB  ALA F 463      33.025 -24.049  23.294  1.00 75.28 LIG 0.04  C 
ENDROOT
BRANCH 1 3
ATOM      3  C   ALA F 463      35.461 -24.624  23.282  1.00 84.46 LIG 0.24  C 
ATOM      4 O    ALA F 463      36.026 -24.100  24.242  1.00 85.06 LIG-0.27  OA
ATOM      5  N   GLY F 464      36.030 -24.745  22.087  1.00 87.45 LIG-0.35  N 
ATOM      6 H    GLY F 464      35.669 -25.157  21.424  1.00 87.45 LIG 0.16  HD
BRANCH 5 7
ATOM      7  CA  GLY F 464      37.335 -24.178  21.800  1.00 89.28 LIG 0.23  C 
BRANCH 7 8
ATOM      8  C   GLY F 464      38.378 -25.173  21.322  1.00 90.16 LIG 0.23  C 
ATOM      9 O    GLY F 464      38.679 -26.140  22.023  1.00 90.52 LIG-0.27  OA
ATOM     10  N   ALA F 465      38.928 -24.941  20.132  1.00 88.18 LIG-0.35  N 
ATOM     11 H    ALA F 465      38.742 -24.258  19.644  1.00 88.18 LIG 0.16  HD
BRANCH 10 12
ATOM     12  CA  ALA F 465      39.914 -25.846  19.546  1.00 85.90 LIG 0.16  C 
ATOM     13  CB  ALA F 465      40.949 -26.248  20.588  1.00 84.54 LIG 0.04  C 
BRANCH 12 14
ATOM     14  C   ALA F 465      39.255 -27.089  18.951  1.00 85.67 LIG 0.22  C 
ATOM     15 O    ALA F 465      39.751 -28.206  19.116  1.00 84.89 LIG-0.29  OA
ENDBRANCH 12 14
ENDBRANCH 10 12
ENDBRANCH 7 8
ENDBRANCH 5 7
ENDBRANCH 1 3
BRANCH 1 16
ATOM     16  N   ALA F 463      33.893 -25.872  24.683  1.00 83.00 LIG-0.35  N 
ATOM     17  C   GLY F 462      33.869 -25.221  25.844  1.00 85.58 LIG 0.24  C 
ATOM     18 O    GLY F 462      33.988 -23.998  25.933  1.00 87.56 LIG-0.27  OA
ATOM     19 H    ALA F 463      33.822 -26.725  24.611  1.00 83.00 LIG 0.16  HD
BRANCH 17 20
ATOM     20  CA  GLY F 462      33.691 -26.069  27.086  1.00 87.31 LIG 0.23  C 
BRANCH 20 21
ATOM     21  N   GLY F 462      34.318 -27.372  26.961  1.00 88.73 LIG-0.35  N 
ATOM     22  C   ALA F 461      35.638 -27.518  26.932  1.00 88.98 LIG 0.26  C 
ATOM     23 O    ALA F 461      36.421 -26.572  27.005  1.00 91.33 LIG-0.27  OA
ATOM     24 H    GLY F 462      33.763 -28.027  26.909  1.00 88.73 LIG 0.16  HD
BRANCH 22 25
ATOM     25  CA  ALA F 461      36.148 -28.948  26.795  1.00 85.90 LIG 0.40  C 
ATOM     26  CB  ALA F 461      35.155 -29.799  26.017  1.00 82.87 LIG 0.06  C 
ATOM     27  N   ALA F 461      36.404 -29.534  28.106  1.00 83.73 LIG 0.61  N 
ENDBRANCH 22 25
ENDBRANCH 20 21
ENDBRANCH 17 20
ENDBRANCH 1 16
TORSDOF 9
ENDMDL
MODEL 29
USER: ADFR SOLUTION from run 64
USER: SCORE 6.717011 LL:  -1.334 LR:  -6.440 RR:   0.000 FEB:  -3.755
USER: RMSD 3.760326
USER: SEED 63
USER: STATUS no improvement in best in 10 clusters for 5 generations
USER: GENES 11
USER: genes 0 Translation |==|  0.49533 0.55435 0.43449
USER: genes 1 Rotation |==|  0.58292 0.56757 0.74744 0.92111
USER: genes 2 Torsion [N]-CA--C-[N] |==|  0.06158
USER: genes 3 Torsion [C]-N--CA-[C] |==|  0.82508
USER: genes 4 Torsion [N]-CA--C-[N] |==|  0.38791
USER: genes 5 Torsion [C]-N--CA-[C] |==|  0.50941
USER: genes 6 Torsion [N]-CA--C-[O] |==|  0.63032
USER: genes 7 Torsion [CB]-CA--N-[C] |==|  0.26069
USER: genes 8 Torsion [N]-C--CA-[N] |==|  0.51032
USER: genes 9 Torsion [C]-CA--N-[C] |==|  0.74171
USER: genes 10 Torsion [N]-C--CA-[N] |==|  0.50594
ROOT
ATOM      1  CA  ALA F 463      35.167 -25.836  24.226  1.00 80.84 LIG 0.17  C 
ATOM      2  CB  ALA F 463      33.708 -25.550  23.906  1.00 75.28 LIG 0.04  C 
ENDROOT
BRANCH 1 3
ATOM      3  C   ALA F 463      35.972 -24.543  24.258  1.00 84.46 LIG 0.24  C 
ATOM      4 O    ALA F 463      35.713 -23.619  23.487  1.00 85.06 LIG-0.27  OA
ATOM      5  N   GLY F 464      36.953 -24.483  25.153  1.00 87.45 LIG-0.35  N 
ATOM      6 H    GLY F 464      37.110 -25.097  25.734  1.00 87.45 LIG 0.16  HD
BRANCH 5 7
ATOM      7  CA  GLY F 464      37.859 -23.351  25.221  1.00 89.28 LIG 0.23  C 
BRANCH 7 8
ATOM      8  C   GLY F 464      38.713 -23.135  23.984  1.00 90.16 LIG 0.23  C 
ATOM      9 O    GLY F 464      39.205 -24.098  23.394  1.00 90.52 LIG-0.27  OA
ATOM     10  N   ALA F 465      38.891 -21.876  23.590  1.00 88.18 LIG-0.35  N 
ATOM     11 H    ALA F 465      38.571 -21.195  24.006  1.00 88.18 LIG 0.16  HD
BRANCH 10 12
ATOM     12  CA  ALA F 465      39.659 -21.540  22.393  1.00 85.90 LIG 0.16  C 
ATOM     13  CB  ALA F 465      39.021 -22.170  21.162  1.00 84.54 LIG 0.04  C 
BRANCH 12 14
ATOM     14  C   ALA F 465      39.783 -20.029  22.208  1.00 85.67 LIG 0.22  C 
ATOM     15 O    ALA F 465      39.568 -19.508  21.110  1.00 84.89 LIG-0.29  OA
ENDBRANCH 12 14
ENDBRANCH 10 12
ENDBRANCH 7 8
ENDBRANCH 5 7
ENDBRANCH 1 3
BRANCH 1 16
ATOM     16  N   ALA F 463      35.286 -26.534  25.501  1.00 83.00 LIG-0.35  N 
ATOM     17  C   GLY F 462      35.342 -27.862  25.570  1.00 85.58 LIG 0.24  C 
ATOM     18 O    GLY F 462      35.284 -28.591  24.579  1.00 87.56 LIG-0.27  OA
ATOM     19 H    ALA F 463      35.315 -26.017  26.187  1.00 83.00 LIG 0.16  HD
BRANCH 17 20
ATOM     20  CA  GLY F 462      35.481 -28.457  26.956  1.00 87.31 LIG 0.23  C 
BRANCH 20 21
ATOM     21  N   GLY F 462      35.620 -29.901  26.927  1.00 88.73 LIG-0.35  N 
ATOM     22  C   ALA F 461      34.574 -30.712  27.036  1.00 88.98 LIG 0.26  C 
ATOM     23 O    ALA F 461      33.420 -30.306  27.172  1.00 91.33 LIG-0.27  OA
ATOM     24 H    GLY F 462      36.430 -30.175  26.833  1.00 88.73 LIG 0.16  HD
BRANCH 22 25
ATOM     25  CA  ALA F 461      34.878 -32.204  26.989  1.00 85.90 LIG 0.40  C 
ATOM     26  CB  ALA F 461      35.651 -32.554  25.726  1.00 82.87 LIG 0.06  C 
ATOM     27  N   ALA F 461      33.649 -32.986  27.067  1.00 83.73 LIG 0.61  N 
ENDBRANCH 22 25
ENDBRANCH 20 21
ENDBRANCH 17 20
ENDBRANCH 1 16
TORSDOF 9
ENDMDL
MODEL 30
USER: ADFR SOLUTION from run 66
USER: SCORE 5.894646 LL:  -1.283 LR:  -6.432 RR:   0.000 FEB:  -3.747
USER: RMSD 3.941791
USER: SEED 65
USER: STATUS no improvement in best in 14 clusters for 5 generations
USER: GENES 11
USER: genes 0 Translation |==|  0.49751 0.61821 0.41319
USER: genes 1 Rotation |==|  0.46308 0.57530 0.57034 0.98787
USER: genes 2 Torsion [N]-CA--C-[N] |==|  0.51914
USER: genes 3 Torsion [C]-N--CA-[C] |==|  0.44079
USER: genes 4 Torsion [N]-CA--C-[N] |==|  0.85158
USER: genes 5 Torsion [C]-N--CA-[C] |==|  0.50803
USER: genes 6 Torsion [N]-CA--C-[O] |==|  0.72145
USER: genes 7 Torsion [CB]-CA--N-[C] |==|  0.20304
USER: genes 8 Torsion [N]-C--CA-[N] |==|  0.88704
USER: genes 9 Torsion [C]-CA--N-[C] |==|  0.80437
USER: genes 10 Torsion [N]-C--CA-[N] |==|  0.24942
ROOT
ATOM      1  CA  ALA F 463      35.206 -24.878  23.810  1.00 80.84 LIG 0.17  C 
ATOM      2  CB  ALA F 463      34.234 -24.061  22.972  1.00 75.28 LIG 0.04  C 
ENDROOT
BRANCH 1 3
ATOM      3  C   ALA F 463      36.645 -24.498  23.485  1.00 84.46 LIG 0.24  C 
ATOM      4 O    ALA F 463      37.440 -24.213  24.381  1.00 85.06 LIG-0.27  OA
ATOM      5  N   GLY F 464      36.975 -24.490  22.198  1.00 87.45 LIG-0.35  N 
ATOM      6 H    GLY F 464      36.447 -24.740  21.566  1.00 87.45 LIG 0.16  HD
BRANCH 5 7
ATOM      7  CA  GLY F 464      38.282 -24.051  21.745  1.00 89.28 LIG 0.23  C 
BRANCH 7 8
ATOM      8  C   GLY F 464      38.691 -24.557  20.373  1.00 90.16 LIG 0.23  C 
ATOM      9 O    GLY F 464      39.052 -23.765  19.502  1.00 90.52 LIG-0.27  OA
ATOM     10  N   ALA F 465      38.636 -25.873  20.178  1.00 88.18 LIG-0.35  N 
ATOM     11 H    ALA F 465      38.364 -26.433  20.771  1.00 88.18 LIG 0.16  HD
BRANCH 10 12
ATOM     12  CA  ALA F 465      39.040 -26.486  18.915  1.00 85.90 LIG 0.16  C 
ATOM     13  CB  ALA F 465      40.501 -26.175  18.620  1.00 84.54 LIG 0.04  C 
BRANCH 12 14
ATOM     14  C   ALA F 465      38.814 -27.997  18.924  1.00 85.67 LIG 0.22  C 
ATOM     15 O    ALA F 465      39.751 -28.773  19.128  1.00 84.89 LIG-0.29  OA
ENDBRANCH 12 14
ENDBRANCH 10 12
ENDBRANCH 7 8
ENDBRANCH 5 7
ENDBRANCH 1 3
BRANCH 1 16
ATOM     16  N   ALA F 463      34.945 -24.686  25.233  1.00 83.00 LIG-0.35  N 
ATOM     17  C   GLY F 462      33.884 -25.224  25.829  1.00 85.58 LIG 0.24  C 
ATOM     18 O    GLY F 462      33.046 -25.901  25.231  1.00 87.56 LIG-0.27  OA
ATOM     19 H    ALA F 463      35.530 -24.203  25.638  1.00 83.00 LIG 0.16  HD
BRANCH 17 20
ATOM     20  CA  GLY F 462      33.741 -24.958  27.314  1.00 87.31 LIG 0.23  C 
BRANCH 20 21
ATOM     21  N   GLY F 462      35.009 -25.034  28.013  1.00 88.73 LIG-0.35  N 
ATOM     22  C   ALA F 461      35.643 -26.187  28.199  1.00 88.98 LIG 0.26  C 
ATOM     23 O    ALA F 461      35.206 -27.266  27.799  1.00 91.33 LIG-0.27  OA
ATOM     24 H    GLY F 462      35.306 -24.276  28.290  1.00 88.73 LIG 0.16  HD
BRANCH 22 25
ATOM     25  CA  ALA F 461      36.965 -26.109  28.953  1.00 85.90 LIG 0.40  C 
ATOM     26  CB  ALA F 461      37.931 -27.171  28.452  1.00 82.87 LIG 0.06  C 
ATOM     27  N   ALA F 461      36.750 -26.252  30.389  1.00 83.73 LIG 0.61  N 
ENDBRANCH 22 25
ENDBRANCH 20 21
ENDBRANCH 17 20
ENDBRANCH 1 16
TORSDOF 9
ENDMDL
MODEL 31
USER: ADFR SOLUTION from run 188
USER: SCORE 7.060716 LL:  -1.180 LR:  -6.392 RR:   0.000 FEB:  -3.708
USER: RMSD 2.488771
USER: SEED 187
USER: STATUS no improvement in best in 32 clusters for 5 generations
USER: GENES 11
USER: genes 0 Translation |==|  0.41748 0.64806 0.55060
USER: genes 1 Rotation |==|  0.86610 0.54997 0.21809 0.68440
USER: genes 2 Torsion [N]-CA--C-[N] |==|  0.38216
USER: genes 3 Torsion [C]-N--CA-[C] |==|  0.74606
USER: genes 4 Torsion [N]-CA--C-[N] |==|  0.54397
USER: genes 5 Torsion [C]-N--CA-[C] |==|  0.69031
USER: genes 6 Torsion [N]-CA--C-[O] |==|  0.91070
USER: genes 7 Torsion [CB]-CA--N-[C] |==|  0.86294
USER: genes 8 Torsion [N]-C--CA-[N] |==|  0.50556
USER: genes 9 Torsion [C]-CA--N-[C] |==|  0.63773
USER: genes 10 Torsion [N]-C--CA-[N] |==|  0.43786
ROOT
ATOM      1  CA  ALA F 463      33.766 -24.430  26.490  1.00 80.84 LIG 0.17  C 
ATOM      2  CB  ALA F 463      34.947 -24.540  27.442  1.00 75.28 LIG 0.04  C 
ENDROOT
BRANCH 1 3
ATOM      3  C   ALA F 463      34.150 -24.918  25.099  1.00 84.46 LIG 0.24  C 
ATOM      4 O    ALA F 463      34.183 -26.121  24.839  1.00 85.06 LIG-0.27  OA
ATOM      5  N   GLY F 464      34.445 -23.978  24.207  1.00 87.45 LIG-0.35  N 
ATOM      6 H    GLY F 464      34.373 -23.134  24.357  1.00 87.45 LIG 0.16  HD
BRANCH 5 7
ATOM      7  CA  GLY F 464      34.924 -24.308  22.876  1.00 89.28 LIG 0.23  C 
BRANCH 7 8
ATOM      8  C   GLY F 464      36.434 -24.392  22.739  1.00 90.16 LIG 0.23  C 
ATOM      9 O    GLY F 464      37.144 -24.478  23.741  1.00 90.52 LIG-0.27  OA
ATOM     10  N   ALA F 465      36.926 -24.368  21.502  1.00 88.18 LIG-0.35  N 
ATOM     11 H    ALA F 465      36.441 -24.285  20.796  1.00 88.18 LIG 0.16  HD
BRANCH 10 12
ATOM     12  CA  ALA F 465      38.358 -24.481  21.236  1.00 85.90 LIG 0.16  C 
ATOM     13  CB  ALA F 465      38.626 -25.617  20.259  1.00 84.54 LIG 0.04  C 
BRANCH 12 14
ATOM     14  C   ALA F 465      38.936 -23.174  20.695  1.00 85.67 LIG 0.22  C 
ATOM     15 O    ALA F 465      38.251 -22.423  19.995  1.00 84.89 LIG-0.29  OA
ENDBRANCH 12 14
ENDBRANCH 10 12
ENDBRANCH 7 8
ENDBRANCH 5 7
ENDBRANCH 1 3
BRANCH 1 16
ATOM     16  N   ALA F 463      32.628 -25.193  26.992  1.00 83.00 LIG-0.35  N 
ATOM     17  C   GLY F 462      32.754 -26.454  27.398  1.00 85.58 LIG 0.24  C 
ATOM     18 O    GLY F 462      33.821 -27.068  27.366  1.00 87.56 LIG-0.27  OA
ATOM     19 H    ALA F 463      31.886 -24.759  27.000  1.00 83.00 LIG 0.16  HD
BRANCH 17 20
ATOM     20  CA  GLY F 462      31.496 -27.124  27.910  1.00 87.31 LIG 0.23  C 
BRANCH 20 21
ATOM     21  N   GLY F 462      31.738 -28.477  28.372  1.00 88.73 LIG-0.35  N 
ATOM     22  C   ALA F 461      30.987 -29.500  27.980  1.00 88.98 LIG 0.26  C 
ATOM     23 O    ALA F 461      30.038 -29.380  27.207  1.00 91.33 LIG-0.27  OA
ATOM     24 H    GLY F 462      32.403 -28.552  28.913  1.00 88.73 LIG 0.16  HD
BRANCH 22 25
ATOM     25  CA  ALA F 461      31.364 -30.862  28.552  1.00 85.90 LIG 0.40  C 
ATOM     26  CB  ALA F 461      32.550 -31.449  27.802  1.00 82.87 LIG 0.06  C 
ATOM     27  N   ALA F 461      30.227 -31.776  28.503  1.00 83.73 LIG 0.61  N 
ENDBRANCH 22 25
ENDBRANCH 20 21
ENDBRANCH 17 20
ENDBRANCH 1 16
TORSDOF 9
ENDMDL
MODEL 32
USER: ADFR SOLUTION from run 7
USER: SCORE 6.708521 LL:  -1.210 LR:  -6.371 RR:   0.000 FEB:  -3.686
USER: RMSD 4.512418
USER: SEED 728683
USER: STATUS no improvement in best in 22 clusters for 5 generations
USER: GENES 11
USER: genes 0 Translation |==|  0.53253 0.47637 0.49650
USER: genes 1 Rotation |==|  0.23211 0.53078 0.82626 0.76616
USER: genes 2 Torsion [N]-CA--C-[N] |==|  0.34817
USER: genes 3 Torsion [C]-N--CA-[C] |==|  0.31743
USER: genes 4 Torsion [N]-CA--C-[N] |==|  0.39006
USER: genes 5 Torsion [C]-N--CA-[C] |==|  0.60788
USER: genes 6 Torsion [N]-CA--C-[O] |==|  0.49198
USER: genes 7 Torsion [CB]-CA--N-[C] |==|  0.53381
USER: genes 8 Torsion [N]-C--CA-[N] |==|  0.45941
USER: genes 9 Torsion [C]-CA--N-[C] |==|  0.80969
USER: genes 10 Torsion [N]-C--CA-[N] |==|  0.37084
ROOT
ATOM      1  CA  ALA F 463      35.837 -27.005  25.435  1.00 80.84 LIG 0.17  C 
ATOM      2  CB  ALA F 463      35.476 -28.347  24.815  1.00 75.28 LIG 0.04  C 
ENDROOT
BRANCH 1 3
ATOM      3  C   ALA F 463      35.976 -25.937  24.358  1.00 84.46 LIG 0.24  C 
ATOM      4 O    ALA F 463      34.994 -25.552  23.721  1.00 85.06 LIG-0.27  OA
ATOM      5  N   GLY F 464      37.200 -25.462  24.155  1.00 87.45 LIG-0.35  N 
ATOM      6 H    GLY F 464      37.883 -25.680  24.629  1.00 87.45 LIG 0.16  HD
BRANCH 5 7
ATOM      7  CA  GLY F 464      37.487 -24.515  23.093  1.00 89.28 LIG 0.23  C 
BRANCH 7 8
ATOM      8  C   GLY F 464      37.920 -23.136  23.561  1.00 90.16 LIG 0.23  C 
ATOM      9 O    GLY F 464      37.379 -22.614  24.536  1.00 90.52 LIG-0.27  OA
ATOM     10  N   ALA F 465      38.892 -22.546  22.869  1.00 88.18 LIG-0.35  N 
ATOM     11 H    ALA F 465      39.262 -22.891  22.173  1.00 88.18 LIG 0.16  HD
BRANCH 10 12
ATOM     12  CA  ALA F 465      39.422 -21.237  23.242  1.00 85.90 LIG 0.16  C 
ATOM     13  CB  ALA F 465      40.678 -21.397  24.089  1.00 84.54 LIG 0.04  C 
BRANCH 12 14
ATOM     14  C   ALA F 465      39.721 -20.378  22.014  1.00 85.67 LIG 0.22  C 
ATOM     15 O    ALA F 465      40.126 -19.219  22.138  1.00 84.89 LIG-0.29  OA
ENDBRANCH 12 14
ENDBRANCH 10 12
ENDBRANCH 7 8
ENDBRANCH 5 7
ENDBRANCH 1 3
BRANCH 1 16
ATOM     16  N   ALA F 463      34.831 -26.605  26.413  1.00 83.00 LIG-0.35  N 
ATOM     17  C   GLY F 462      34.793 -25.372  26.914  1.00 85.58 LIG 0.24  C 
ATOM     18 O    GLY F 462      35.600 -24.495  26.606  1.00 87.56 LIG-0.27  OA
ATOM     19 H    ALA F 463      34.279 -27.228  26.629  1.00 83.00 LIG 0.16  HD
BRANCH 17 20
ATOM     20  CA  GLY F 462      33.688 -25.087  27.910  1.00 87.31 LIG 0.23  C 
BRANCH 20 21
ATOM     21  N   GLY F 462      33.914 -23.859  28.650  1.00 88.73 LIG-0.35  N 
ATOM     22  C   ALA F 461      34.897 -23.741  29.535  1.00 88.98 LIG 0.26  C 
ATOM     23 O    ALA F 461      35.681 -24.654  29.795  1.00 91.33 LIG-0.27  OA
ATOM     24 H    GLY F 462      33.361 -23.228  28.463  1.00 88.73 LIG 0.16  HD
BRANCH 22 25
ATOM     25  CA  ALA F 461      35.008 -22.392  30.234  1.00 85.90 LIG 0.40  C 
ATOM     26  CB  ALA F 461      36.159 -21.582  29.655  1.00 82.87 LIG 0.06  C 
ATOM     27  N   ALA F 461      35.181 -22.566  31.672  1.00 83.73 LIG 0.61  N 
ENDBRANCH 22 25
ENDBRANCH 20 21
ENDBRANCH 17 20
ENDBRANCH 1 16
TORSDOF 9
ENDMDL
MODEL 33
USER: ADFR SOLUTION from run 26
USER: SCORE 7.413784 LL:  -1.541 LR:  -6.316 RR:   0.000 FEB:  -3.631
USER: RMSD 4.889348
USER: SEED 25
USER: STATUS no improvement in best in 15 clusters for 5 generations
USER: GENES 11
USER: genes 0 Translation |==|  0.50950 0.61881 0.37543
USER: genes 1 Rotation |==|  0.60354 0.65841 0.54541 0.96057
USER: genes 2 Torsion [N]-CA--C-[N] |==|  0.06113
USER: genes 3 Torsion [C]-N--CA-[C] |==|  0.19529
USER: genes 4 Torsion [N]-CA--C-[N] |==|  0.00033
USER: genes 5 Torsion [C]-N--CA-[C] |==|  0.15578
USER: genes 6 Torsion [N]-CA--C-[O] |==|  0.45084
USER: genes 7 Torsion [CB]-CA--N-[C] |==|  0.17412
USER: genes 8 Torsion [N]-C--CA-[N] |==|  0.93335
USER: genes 9 Torsion [C]-CA--N-[C] |==|  0.76157
USER: genes 10 Torsion [N]-C--CA-[N] |==|  0.48670
ROOT
ATOM      1  CA  ALA F 463      35.422 -24.869  23.074  1.00 80.84 LIG 0.17  C 
ATOM      2  CB  ALA F 463      34.490 -23.670  23.163  1.00 75.28 LIG 0.04  C 
ENDROOT
BRANCH 1 3
ATOM      3  C   ALA F 463      36.707 -24.497  22.344  1.00 84.46 LIG 0.24  C 
ATOM      4 O    ALA F 463      36.691 -23.701  21.405  1.00 85.06 LIG-0.27  OA
ATOM      5  N   GLY F 464      37.819 -25.081  22.777  1.00 87.45 LIG-0.35  N 
ATOM      6 H    GLY F 464      37.854 -25.595  23.465  1.00 87.45 LIG 0.16  HD
BRANCH 5 7
ATOM      7  CA  GLY F 464      39.093 -24.892  22.108  1.00 89.28 LIG 0.23  C 
BRANCH 7 8
ATOM      8  C   GLY F 464      39.697 -23.506  22.254  1.00 90.16 LIG 0.23  C 
ATOM      9 O    GLY F 464      40.776 -23.239  21.723  1.00 90.52 LIG-0.27  OA
ATOM     10  N   ALA F 465      39.006 -22.623  22.973  1.00 88.18 LIG-0.35  N 
ATOM     11 H    ALA F 465      38.263 -22.804  23.367  1.00 88.18 LIG 0.16  HD
BRANCH 10 12
ATOM     12  CA  ALA F 465      39.461 -21.247  23.155  1.00 85.90 LIG 0.16  C 
ATOM     13  CB  ALA F 465      40.739 -21.218  23.983  1.00 84.54 LIG 0.04  C 
BRANCH 12 14
ATOM     14  C   ALA F 465      39.685 -20.546  21.817  1.00 85.67 LIG 0.22  C 
ATOM     15 O    ALA F 465      39.751 -19.315  21.753  1.00 84.89 LIG-0.29  OA
ENDBRANCH 12 14
ENDBRANCH 10 12
ENDBRANCH 7 8
ENDBRANCH 5 7
ENDBRANCH 1 3
BRANCH 1 16
ATOM     16  N   ALA F 463      35.731 -25.380  24.405  1.00 83.00 LIG-0.35  N 
ATOM     17  C   GLY F 462      34.785 -25.870  25.204  1.00 85.58 LIG 0.24  C 
ATOM     18 O    GLY F 462      33.595 -25.915  24.890  1.00 87.56 LIG-0.27  OA
ATOM     19 H    ALA F 463      36.562 -25.334  24.619  1.00 83.00 LIG 0.16  HD
BRANCH 17 20
ATOM     20  CA  GLY F 462      35.245 -26.380  26.554  1.00 87.31 LIG 0.23  C 
BRANCH 20 21
ATOM     21  N   GLY F 462      36.644 -26.763  26.553  1.00 88.73 LIG-0.35  N 
ATOM     22  C   ALA F 461      37.043 -27.973  26.176  1.00 88.98 LIG 0.26  C 
ATOM     23 O    ALA F 461      36.266 -28.852  25.806  1.00 91.33 LIG-0.27  OA
ATOM     24 H    GLY F 462      37.180 -26.143  26.814  1.00 88.73 LIG 0.16  HD
BRANCH 22 25
ATOM     25  CA  ALA F 461      38.545 -28.228  26.230  1.00 85.90 LIG 0.40  C 
ATOM     26  CB  ALA F 461      39.282 -27.288  25.287  1.00 82.87 LIG 0.06  C 
ATOM     27  N   ALA F 461      38.846 -29.618  25.903  1.00 83.73 LIG 0.61  N 
ENDBRANCH 22 25
ENDBRANCH 20 21
ENDBRANCH 17 20
ENDBRANCH 1 16
TORSDOF 9
ENDMDL
