MODEL 1
USER: ADFR SOLUTION from run 89
USER: SCORE 20.206019 LL:  -2.277 LR: -18.468 RR:   0.000 FEB: -13.098
USER: RMSD 1.091651
USER: SEED 88
USER: STATUS 1 or 2 clusters left
USER: GENES 20
USER: genes 0 Translation |==|  0.56365 0.58384 0.50465
USER: genes 1 Rotation |==|  0.48478 0.52871 0.49225 0.99888
USER: genes 2 Torsion [C]-CA--N-[C] |==|  0.74512
USER: genes 3 Torsion [N]-C--CA-[N] |==|  0.12749
USER: genes 4 Torsion [C]-CA--N-[H2] |==|  0.76691
USER: genes 5 Torsion [C]-CA--CB-[CG] |==|  0.46318
USER: genes 6 Torsion [CA]-CB--CG-[CD2] |==|  0.85021
USER: genes 7 Torsion [N]-CA--C-[N] |==|  0.43508
USER: genes 8 Torsion [C]-N--CA-[CB] |==|  0.51197
USER: genes 9 Torsion [N]-CA--CB-[CG] |==|  0.57302
USER: genes 10 Torsion [CA]-CB--CG-[CD] |==|  0.24589
USER: genes 11 Torsion [CB]-CG--CD-[OE2] |==|  0.41922
USER: genes 12 Torsion [N]-CA--C-[N] |==|  0.44452
USER: genes 13 Torsion [C]-N--CA-[CB] |==|  0.48244
USER: genes 14 Torsion [N]-CA--CB-[CG] |==|  0.65118
USER: genes 15 Torsion [CA]-CB--CG-[CD2] |==|  0.00447
USER: genes 16 Torsion [N]-CA--C-[O] |==|  0.54391
USER: genes 17 Torsion [N]-CA--CB-[CG] |==|  0.14646
USER: genes 18 Torsion [CA]-CB--CG-[CD] |==|  0.39869
USER: genes 19 Torsion [CB]-CG--CD-[OE1] |==|  0.00087
ROOT
ATOM      1  CA  GLU C   2     -21.575  20.778  -2.684  1.00 17.05 LIG 0.18  C 
ENDROOT
BRANCH 1 2
ATOM      2  N   GLU C   2     -22.899  21.309  -2.971  1.00 17.18 LIG-0.35  N 
ATOM      3 H    GLU C   2     -23.498  21.112  -2.386  1.00 17.18 LIG 0.16  HD
ATOM      4  C   TRP C   1     -23.128  22.034  -4.057  1.00 16.43 LIG 0.25  C 
ATOM      5 O    TRP C   1     -22.249  22.334  -4.860  1.00 19.21 LIG-0.27  OA
BRANCH 4 6
ATOM      6  CA  TRP C   1     -24.560  22.482  -4.268  1.00 16.09 LIG 0.28  C 
BRANCH 6 7
ATOM      7  N   TRP C   1     -25.167  23.029  -3.025  1.00 14.00 LIG-0.07  N 
ATOM      8 H2   TRP C   1     -25.481  22.360  -2.528  1.00 14.00 LIG 0.28  HD
ATOM      9 H1   TRP C   1     -25.834  23.579  -3.236  1.00 14.00 LIG 0.28  HD
ATOM     10 H3   TRP C   1     -24.549  23.475  -2.564  1.00 14.00 LIG 0.28  HD
ENDBRANCH 6 7
BRANCH 6 11
ATOM     11  CB  TRP C   1     -24.574  23.530  -5.386  1.00 13.46 LIG 0.08  C 
BRANCH 11 12
ATOM     12  CG  TRP C   1     -25.927  23.830  -5.913  1.00 14.84 LIG-0.03  A 
ATOM     13  CD1 TRP C   1     -26.542  25.047  -5.963  1.00 13.19 LIG 0.10  A 
ATOM     14  NE1 TRP C   1     -27.814  24.915  -6.464  1.00 14.33 LIG-0.36  N 
ATOM     15 HE1  TRP C   1     -28.376  25.556  -6.579  1.00 14.33 LIG 0.17  HD
ATOM     16  CE2 TRP C   1     -28.041  23.594  -6.749  1.00 14.48 LIG 0.04  A 
ATOM     17  CZ2 TRP C   1     -29.178  22.964  -7.268  1.00 13.61 LIG 0.03  A 
ATOM     18  CD2 TRP C   1     -26.870  22.879  -6.412  1.00 13.42 LIG-0.00  A 
ATOM     19  CH2 TRP C   1     -29.122  21.603  -7.449  1.00 12.22 LIG 0.00  A 
ATOM     20  CZ3 TRP C   1     -27.969  20.865  -7.126  1.00 14.06 LIG 0.00  A 
ATOM     21  CE3 TRP C   1     -26.840  21.491  -6.609  1.00 13.53 LIG 0.01  A 
ENDBRANCH 11 12
ENDBRANCH 6 11
ENDBRANCH 4 6
ENDBRANCH 1 2
BRANCH 1 22
ATOM     22  C   GLU C   2     -21.443  19.390  -3.271  1.00 17.76 LIG 0.24  C 
ATOM     23 O    GLU C   2     -22.441  18.714  -3.518  1.00 15.11 LIG-0.27  OA
ATOM     24  N   GLU C   3     -20.205  18.979  -3.518  1.00 16.84 LIG-0.35  N 
ATOM     25 H    GLU C   3     -19.505  19.458  -3.375  1.00 16.84 LIG 0.16  HD
BRANCH 24 26
ATOM     26  CA  GLU C   3     -19.926  17.660  -4.061  1.00 19.32 LIG 0.18  C 
BRANCH 26 27
ATOM     27  CB  GLU C   3     -18.411  17.455  -4.129  1.00 21.63 LIG 0.04  C 
BRANCH 27 28
ATOM     28  CG  GLU C   3     -17.918  16.478  -5.183  1.00 28.11 LIG 0.12  C 
BRANCH 28 29
ATOM     29  CD  GLU C   3     -17.659  17.135  -6.524  1.00 31.25 LIG 0.17  C 
ATOM     30 OE2  GLU C   3     -16.783  16.642  -7.268  1.00 33.54 LIG-0.65  OA
ATOM     31 OE1  GLU C   3     -18.316  18.153  -6.829  1.00 33.71 LIG-0.65  OA
ENDBRANCH 28 29
ENDBRANCH 27 28
ENDBRANCH 26 27
BRANCH 26 32
ATOM     32  C   GLU C   3     -20.559  16.642  -3.116  1.00 20.73 LIG 0.24  C 
ATOM     33  N   LEU C   4     -20.787  15.425  -3.604  1.00 21.37 LIG-0.34  N 
ATOM     34 H    LEU C   4     -20.603  15.184  -4.408  1.00 21.37 LIG 0.16  HD
ATOM     35 O    GLU C   3     -20.852  16.961  -1.963  1.00 19.68 LIG-0.27  OA
BRANCH 33 36
ATOM     36  CA  LEU C   4     -21.385  14.383  -2.778  1.00 23.29 LIG 0.18  C 
BRANCH 36 37
ATOM     37  CB  LEU C   4     -21.685  13.133  -3.608  1.00 22.30 LIG 0.04  C 
BRANCH 37 38
ATOM     38  CG  LEU C   4     -23.141  12.666  -3.517  1.00 23.00 LIG-0.02  C 
ATOM     39  CD2 LEU C   4     -23.933  13.615  -2.634  1.00 24.82 LIG 0.01  C 
ATOM     40  CD1 LEU C   4     -23.191  11.254  -2.954  1.00 24.76 LIG 0.01  C 
ENDBRANCH 37 38
ENDBRANCH 36 37
BRANCH 36 41
ATOM     41  C   LEU C   4     -20.444  14.005  -1.643  1.00 23.96 LIG 0.20  C 
ATOM     42 O    LEU C   4     -20.659  12.938  -1.029  1.00 25.84 LIG-0.65  OA
ATOM     43 OXT  LEU C   4     -19.492  14.778  -1.398  1.00 25.23 LIG-0.65  OA
ENDBRANCH 36 41
ENDBRANCH 33 36
ENDBRANCH 26 32
ENDBRANCH 24 26
ENDBRANCH 1 22
BRANCH 1 44
ATOM     44  CB  GLU C   2     -21.300  20.732  -1.177  1.00 20.11 LIG 0.04  C 
BRANCH 44 45
ATOM     45  CG  GLU C   2     -22.347  20.022  -0.346  1.00 24.89 LIG 0.12  C 
BRANCH 45 46
ATOM     46  CD  GLU C   2     -21.732  19.246   0.809  1.00 27.65 LIG 0.17  C 
ATOM     47 OE1  GLU C   2     -20.490  19.267   0.964  1.00 28.60 LIG-0.65  OA
ATOM     48 OE2  GLU C   2     -22.496  18.622   1.573  1.00 30.33 LIG-0.65  OA
ENDBRANCH 45 46
ENDBRANCH 44 45
ENDBRANCH 1 44
TORSDOF 18
ENDMDL
MODEL 2
USER: ADFR SOLUTION from run 147
USER: SCORE 19.184380 LL:  -3.084 LR: -16.554 RR:   0.000 FEB: -11.185
USER: RMSD 2.280085
USER: SEED 146
USER: STATUS no improvement in best in 2 clusters for 5 generations
USER: GENES 20
USER: genes 0 Translation |==|  0.55580 0.59815 0.47946
USER: genes 1 Rotation |==|  0.44727 0.53053 0.50757 0.99622
USER: genes 2 Torsion [C]-CA--N-[C] |==|  0.69877
USER: genes 3 Torsion [N]-C--CA-[N] |==|  0.30702
USER: genes 4 Torsion [C]-CA--N-[H2] |==|  0.85693
USER: genes 5 Torsion [C]-CA--CB-[CG] |==|  0.43198
USER: genes 6 Torsion [CA]-CB--CG-[CD2] |==|  0.20724
USER: genes 7 Torsion [N]-CA--C-[N] |==|  0.41486
USER: genes 8 Torsion [C]-N--CA-[CB] |==|  0.53969
USER: genes 9 Torsion [N]-CA--CB-[CG] |==|  0.56789
USER: genes 10 Torsion [CA]-CB--CG-[CD] |==|  0.22477
USER: genes 11 Torsion [CB]-CG--CD-[OE2] |==|  0.52116
USER: genes 12 Torsion [N]-CA--C-[N] |==|  0.40565
USER: genes 13 Torsion [C]-N--CA-[CB] |==|  0.47575
USER: genes 14 Torsion [N]-CA--CB-[CG] |==|  0.57986
USER: genes 15 Torsion [CA]-CB--CG-[CD2] |==|  0.60632
USER: genes 16 Torsion [N]-CA--C-[O] |==|  0.07167
USER: genes 17 Torsion [N]-CA--CB-[CG] |==|  0.85638
USER: genes 18 Torsion [CA]-CB--CG-[CD] |==|  0.20707
USER: genes 19 Torsion [CB]-CG--CD-[OE1] |==|  0.71944
ROOT
ATOM      1  CA  GLU C   2     -21.728  21.100  -3.138  1.00 17.05 LIG 0.18  C 
ENDROOT
BRANCH 1 2
ATOM      2  N   GLU C   2     -23.087  21.492  -3.476  1.00 17.18 LIG-0.35  N 
ATOM      3 H    GLU C   2     -23.695  21.148  -2.973  1.00 17.18 LIG 0.16  HD
ATOM      4  C   TRP C   1     -23.335  22.314  -4.486  1.00 16.43 LIG 0.25  C 
ATOM      5 O    TRP C   1     -22.449  22.822  -5.168  1.00 19.21 LIG-0.27  OA
BRANCH 4 6
ATOM      6  CA  TRP C   1     -24.796  22.601  -4.768  1.00 16.09 LIG 0.28  C 
BRANCH 6 7
ATOM      7  N   TRP C   1     -25.169  24.000  -4.430  1.00 14.00 LIG-0.07  N 
ATOM      8 H2   TRP C   1     -24.908  24.185  -3.600  1.00 14.00 LIG 0.28  HD
ATOM      9 H1   TRP C   1     -26.052  24.096  -4.491  1.00 14.00 LIG 0.28  HD
ATOM     10 H3   TRP C   1     -24.771  24.559  -4.997  1.00 14.00 LIG 0.28  HD
ENDBRANCH 6 7
BRANCH 6 11
ATOM     11  CB  TRP C   1     -25.063  22.308  -6.249  1.00 13.46 LIG 0.08  C 
BRANCH 11 12
ATOM     12  CG  TRP C   1     -26.478  21.985  -6.552  1.00 14.84 LIG-0.03  A 
ATOM     13  CD1 TRP C   1     -26.991  20.767  -6.893  1.00 13.19 LIG 0.10  A 
ATOM     14  NE1 TRP C   1     -28.335  20.876  -7.156  1.00 14.33 LIG-0.36  N 
ATOM     15 HE1  TRP C   1     -28.853  20.231  -7.390  1.00 14.33 LIG 0.17  HD
ATOM     16  CE2 TRP C   1     -28.713  22.183  -6.985  1.00 14.48 LIG 0.04  A 
ATOM     17  CZ2 TRP C   1     -29.966  22.789  -7.140  1.00 13.61 LIG 0.03  A 
ATOM     18  CD2 TRP C   1     -27.565  22.911  -6.605  1.00 13.42 LIG-0.00  A 
ATOM     19  CH2 TRP C   1     -30.051  24.139  -6.901  1.00 12.22 LIG 0.00  A 
ATOM     20  CZ3 TRP C   1     -28.925  24.891  -6.518  1.00 14.06 LIG 0.00  A 
ATOM     21  CE3 TRP C   1     -27.681  24.289  -6.366  1.00 13.53 LIG 0.01  A 
ENDBRANCH 11 12
ENDBRANCH 6 11
ENDBRANCH 4 6
ENDBRANCH 1 2
BRANCH 1 22
ATOM     22  C   GLU C   2     -21.504  19.653  -3.518  1.00 17.76 LIG 0.24  C 
ATOM     23 O    GLU C   2     -22.436  18.851  -3.518  1.00 15.11 LIG-0.27  OA
ATOM     24  N   GLU C   3     -20.265  19.331  -3.870  1.00 16.84 LIG-0.35  N 
ATOM     25 H    GLU C   3     -19.615  19.893  -3.901  1.00 16.84 LIG 0.16  HD
BRANCH 24 26
ATOM     26  CA  GLU C   3     -19.897  17.974  -4.239  1.00 19.32 LIG 0.18  C 
BRANCH 26 27
ATOM     27  CB  GLU C   3     -18.372  17.848  -4.242  1.00 21.63 LIG 0.04  C 
BRANCH 27 28
ATOM     28  CG  GLU C   3     -17.796  16.752  -5.121  1.00 28.11 LIG 0.12  C 
BRANCH 28 29
ATOM     29  CD  GLU C   3     -17.704  17.150  -6.581  1.00 31.25 LIG 0.17  C 
ATOM     30 OE2  GLU C   3     -17.381  16.277  -7.416  1.00 33.54 LIG-0.65  OA
ATOM     31 OE1  GLU C   3     -17.936  18.338  -6.893  1.00 33.71 LIG-0.65  OA
ENDBRANCH 28 29
ENDBRANCH 27 28
ENDBRANCH 26 27
BRANCH 26 32
ATOM     32  C   GLU C   3     -20.506  17.043  -3.192  1.00 20.73 LIG 0.24  C 
ATOM     33  N   LEU C   4     -20.917  15.849  -3.612  1.00 21.37 LIG-0.34  N 
ATOM     34 H    LEU C   4     -20.863  15.577  -4.425  1.00 21.37 LIG 0.16  HD
ATOM     35 O    GLU C   3     -20.616  17.410  -2.022  1.00 19.68 LIG-0.27  OA
BRANCH 33 36
ATOM     36  CA  LEU C   4     -21.508  14.890  -2.687  1.00 23.29 LIG 0.18  C 
BRANCH 36 37
ATOM     37  CB  LEU C   4     -22.091  13.693  -3.441  1.00 22.30 LIG 0.04  C 
BRANCH 37 38
ATOM     38  CG  LEU C   4     -23.273  13.029  -2.727  1.00 23.00 LIG-0.02  C 
ATOM     39  CD2 LEU C   4     -23.198  11.522  -2.896  1.00 24.82 LIG 0.01  C 
ATOM     40  CD1 LEU C   4     -24.579  13.561  -3.298  1.00 24.76 LIG 0.01  C 
ENDBRANCH 37 38
ENDBRANCH 36 37
BRANCH 36 41
ATOM     41  C   LEU C   4     -20.459  14.389  -1.705  1.00 23.96 LIG 0.20  C 
ATOM     42 O    LEU C   4     -19.481  15.127  -1.458  1.00 25.84 LIG-0.65  OA
ATOM     43 OXT  LEU C   4     -20.642  13.267  -1.183  1.00 25.23 LIG-0.65  OA
ENDBRANCH 36 41
ENDBRANCH 33 36
ENDBRANCH 26 32
ENDBRANCH 24 26
ENDBRANCH 1 22
BRANCH 1 44
ATOM     44  CB  GLU C   2     -21.440  21.294  -1.645  1.00 20.11 LIG 0.04  C 
BRANCH 44 45
ATOM     45  CG  GLU C   2     -21.770  22.663  -1.090  1.00 24.89 LIG 0.12  C 
BRANCH 45 46
ATOM     46  CD  GLU C   2     -23.269  22.867  -0.923  1.00 27.65 LIG 0.17  C 
ATOM     47 OE1  GLU C   2     -23.893  23.531  -1.781  1.00 28.60 LIG-0.65  OA
ATOM     48 OE2  GLU C   2     -23.828  22.348   0.065  1.00 30.33 LIG-0.65  OA
ENDBRANCH 45 46
ENDBRANCH 44 45
ENDBRANCH 1 44
TORSDOF 18
ENDMDL
