MODEL 1
USER: ADFR SOLUTION from run 112
USER: SCORE 9.371903 LL:  -2.356 LR:  -8.630 RR:   0.000 FEB:  -4.752
USER: RMSD 4.745566
USER: SEED 111
USER: STATUS no improvement in best in 20 clusters for 5 generations
USER: GENES 15
USER: genes 0 Translation |==|  0.48211 0.51964 0.42371
USER: genes 1 Rotation |==|  0.88522 0.65331 0.50935 0.77931
USER: genes 2 Torsion [C]-N--CA-[CB] |==|  0.34795
USER: genes 3 Torsion [N]-CA--C-[N] |==|  0.89161
USER: genes 4 Torsion [C]-N--CA-[CB] |==|  0.25687
USER: genes 5 Torsion [N]-CA--CB-[CG] |==|  0.10267
USER: genes 6 Torsion [CA]-CB--CG-[OD1] |==|  0.56581
USER: genes 7 Torsion [N]-CA--C-[O] |==|  0.99628
USER: genes 8 Torsion [N]-CA--CB-[CG2] |==|  0.73775
USER: genes 9 Torsion [N]-C--CA-[N] |==|  0.50478
USER: genes 10 Torsion [C]-CA--N-[C] |==|  0.78411
USER: genes 11 Torsion [N]-C--CA-[N] |==|  0.28273
USER: genes 12 Torsion [C]-CA--CB-[CG] |==|  0.50867
USER: genes 13 Torsion [CA]-CB--CG-[CD2] |==|  0.64192
USER: genes 14 Torsion [C]-CA--CB-[CG2] |==|  0.86780
ROOT
ATOM      1  C   VAL D4842     -57.416  27.891  37.936  1.00 57.35 LIG 0.24  C 
ATOM      2 O    VAL D4842     -57.887  28.734  38.709  1.00 61.28 LIG-0.27  OA
ATOM      3  N   VAL D4843     -57.860  27.728  36.696  1.00 52.36 LIG-0.35  N 
ATOM      4 H    VAL D4843     -57.436  27.272  36.102  1.00 52.36 LIG 0.16  HD
ENDROOT
BRANCH 3 5
ATOM      5  CA  VAL D4843     -59.106  28.300  36.209  1.00 37.99 LIG 0.18  C 
BRANCH 5 6
ATOM      6  C   VAL D4843     -59.990  27.067  35.898  1.00 51.29 LIG 0.24  C 
ATOM      7  N   ASN D4844     -59.434  25.994  35.351  1.00 50.43 LIG-0.35  N 
ATOM      8 H    ASN D4844     -58.599  25.904  35.168  1.00 50.43 LIG 0.16  HD
ATOM      9 O    VAL D4843     -61.203  27.089  36.150  1.00 47.22 LIG-0.27  OA
BRANCH 7 10
ATOM     10  CA  ASN D4844     -60.287  24.843  35.019  1.00 46.88 LIG 0.17  C 
BRANCH 10 11
ATOM     11  CB  ASN D4844     -60.774  24.942  33.573  1.00 66.72 LIG 0.14  C 
BRANCH 11 12
ATOM     12  CG  ASN D4844     -59.725  25.512  32.639  1.00 62.42 LIG 0.22  C 
ATOM     13 OD1  ASN D4844     -60.040  26.059  31.580  1.00 56.11 LIG-0.27  OA
ATOM     14  ND2 ASN D4844     -58.463  25.384  33.032  1.00 67.26 LIG-0.37  N 
ATOM     15 21HD ASN D4844     -57.826  25.690  32.541  1.00 67.26 LIG 0.16  HD
ATOM     16 22HD ASN D4844     -58.283  24.996  33.778  1.00 67.26 LIG 0.16  HD
ENDBRANCH 11 12
ENDBRANCH 10 11
BRANCH 10 17
ATOM     17  C   ASN D4844     -59.673  23.458  35.287  1.00 52.57 LIG 0.22  C 
ATOM     18 O    ASN D4844     -58.519  23.338  35.731  1.00 48.91 LIG-0.29  OA
ENDBRANCH 10 17
ENDBRANCH 7 10
ENDBRANCH 5 6
BRANCH 5 19
ATOM     19  CB  VAL D4843     -58.781  29.139  34.935  1.00 37.59 LIG 0.01  C 
ATOM     20  CG1 VAL D4843     -59.830  28.987  33.869  1.00 42.19 LIG 0.01  C 
ATOM     21  CG2 VAL D4843     -58.560  30.612  35.288  1.00 33.91 LIG 0.01  C 
ENDBRANCH 5 19
ENDBRANCH 3 5
BRANCH 1 22
ATOM     22  CA  VAL D4842     -56.230  26.989  38.329  1.00 42.26 LIG 0.18  C 
BRANCH 22 23
ATOM     23  N   VAL D4842     -55.744  27.122  39.706  1.00 51.43 LIG-0.34  N 
ATOM     24 H    VAL D4842     -56.003  26.490  40.229  1.00 51.43 LIG 0.16  HD
ATOM     25  C   LEU D4841     -54.973  28.133  40.100  1.00 54.30 LIG 0.26  C 
ATOM     26 O    LEU D4841     -54.426  28.165  41.200  1.00 66.57 LIG-0.27  OA
BRANCH 25 27
ATOM     27  CA  LEU D4841     -54.758  29.257  39.096  1.00 50.85 LIG 0.40  C 
ATOM     28  N   LEU D4841     -55.603  30.410  39.420  1.00 66.18 LIG 0.61  N 
BRANCH 27 29
ATOM     29  CB  LEU D4841     -53.283  29.675  39.072  1.00 58.40 LIG 0.06  C 
BRANCH 29 30
ATOM     30  CG  LEU D4841     -52.910  30.851  38.162  1.00 54.26 LIG-0.02  C 
ATOM     31  CD2 LEU D4841     -51.721  30.522  37.228  1.00 54.78 LIG 0.01  C 
ATOM     32  CD1 LEU D4841     -52.648  32.130  38.969  1.00 32.44 LIG 0.01  C 
ENDBRANCH 29 30
ENDBRANCH 27 29
ENDBRANCH 25 27
ENDBRANCH 22 23
BRANCH 22 33
ATOM     33  CB  VAL D4842     -56.520  25.512  37.961  1.00 48.47 LIG 0.01  C 
ATOM     34  CG2 VAL D4842     -57.889  25.094  38.421  1.00 42.42 LIG 0.01  C 
ATOM     35  CG1 VAL D4842     -55.467  24.618  38.593  1.00 34.87 LIG 0.01  C 
ENDBRANCH 22 33
ENDBRANCH 1 22
TORSDOF 13
ENDMDL
MODEL 2
USER: ADFR SOLUTION from run 22
USER: SCORE 8.184529 LL:  -2.473 LR:  -7.202 RR:   0.000 FEB:  -3.324
USER: RMSD 4.363517
USER: SEED 21
USER: STATUS no improvement in best in 36 clusters for 5 generations
USER: GENES 15
USER: genes 0 Translation |==|  0.47012 0.52903 0.42514
USER: genes 1 Rotation |==|  0.45557 0.35463 0.14555 0.81821
USER: genes 2 Torsion [C]-N--CA-[CB] |==|  0.89321
USER: genes 3 Torsion [N]-CA--C-[N] |==|  0.74027
USER: genes 4 Torsion [C]-N--CA-[CB] |==|  0.39208
USER: genes 5 Torsion [N]-CA--CB-[CG] |==|  0.82563
USER: genes 6 Torsion [CA]-CB--CG-[OD1] |==|  0.43466
USER: genes 7 Torsion [N]-CA--C-[O] |==|  0.95771
USER: genes 8 Torsion [N]-CA--CB-[CG2] |==|  0.81636
USER: genes 9 Torsion [N]-C--CA-[N] |==|  0.51452
USER: genes 10 Torsion [C]-CA--N-[C] |==|  0.75494
USER: genes 11 Torsion [N]-C--CA-[N] |==|  0.22170
USER: genes 12 Torsion [C]-CA--CB-[CG] |==|  0.74628
USER: genes 13 Torsion [CA]-CB--CG-[CD2] |==|  0.63098
USER: genes 14 Torsion [C]-CA--CB-[CG2] |==|  0.81281
ROOT
ATOM      1  C   VAL D4842     -57.667  28.046  37.957  1.00 57.35 LIG 0.24  C 
ATOM      2 O    VAL D4842     -57.054  27.597  36.981  1.00 61.28 LIG-0.27  OA
ATOM      3  N   VAL D4843     -58.959  28.347  37.915  1.00 52.36 LIG-0.35  N 
ATOM      4 H    VAL D4843     -59.429  28.495  38.619  1.00 52.36 LIG 0.16  HD
ENDROOT
BRANCH 3 5
ATOM      5  CA  VAL D4843     -59.716  28.457  36.676  1.00 37.99 LIG 0.18  C 
BRANCH 5 6
ATOM      6  C   VAL D4843     -60.061  26.991  36.316  1.00 51.29 LIG 0.24  C 
ATOM      7  N   ASN D4844     -59.258  26.318  35.501  1.00 50.43 LIG-0.35  N 
ATOM      8 H    ASN D4844     -58.529  26.619  35.160  1.00 50.43 LIG 0.16  HD
ATOM      9 O    VAL D4843     -61.079  26.457  36.779  1.00 47.22 LIG-0.27  OA
BRANCH 7 10
ATOM     10  CA  ASN D4844     -59.616  24.941  35.129  1.00 46.88 LIG 0.17  C 
BRANCH 10 11
ATOM     11  CB  ASN D4844     -59.284  24.683  33.659  1.00 66.72 LIG 0.14  C 
BRANCH 11 12
ATOM     12  CG  ASN D4844     -60.077  25.566  32.716  1.00 62.42 LIG 0.22  C 
ATOM     13 OD1  ASN D4844     -59.671  25.818  31.580  1.00 56.11 LIG-0.27  OA
ATOM     14  ND2 ASN D4844     -61.223  26.043  33.189  1.00 67.26 LIG-0.37  N 
ATOM     15 21HD ASN D4844     -61.715  26.549  32.697  1.00 67.26 LIG 0.16  HD
ATOM     16 22HD ASN D4844     -61.474  25.845  33.988  1.00 67.26 LIG 0.16  HD
ENDBRANCH 11 12
ENDBRANCH 10 11
BRANCH 10 17
ATOM     17  C   ASN D4844     -59.020  23.835  36.018  1.00 52.57 LIG 0.22  C 
ATOM     18 O    ASN D4844     -58.081  24.068  36.796  1.00 48.91 LIG-0.29  OA
ENDBRANCH 10 17
ENDBRANCH 7 10
ENDBRANCH 5 6
BRANCH 5 19
ATOM     19  CB  VAL D4843     -58.796  29.133  35.613  1.00 37.59 LIG 0.01  C 
ATOM     20  CG1 VAL D4843     -59.372  29.053  34.227  1.00 42.19 LIG 0.01  C 
ATOM     21  CG2 VAL D4843     -58.481  30.580  35.999  1.00 33.91 LIG 0.01  C 
ENDBRANCH 5 19
ENDBRANCH 3 5
BRANCH 1 22
ATOM     22  CA  VAL D4842     -56.995  28.245  39.329  1.00 42.26 LIG 0.18  C 
BRANCH 22 23
ATOM     23  N   VAL D4842     -55.545  28.034  39.376  1.00 51.43 LIG-0.34  N 
ATOM     24 H    VAL D4842     -55.084  28.748  39.244  1.00 51.43 LIG 0.16  HD
ATOM     25  C   LEU D4841     -55.001  26.841  39.603  1.00 54.30 LIG 0.26  C 
ATOM     26 O    LEU D4841     -53.799  26.684  39.810  1.00 66.57 LIG-0.27  OA
BRANCH 25 27
ATOM     27  CA  LEU D4841     -55.953  25.654  39.636  1.00 50.85 LIG 0.40  C 
ATOM     28  N   LEU D4841     -56.292  25.224  38.276  1.00 66.18 LIG 0.61  N 
BRANCH 27 29
ATOM     29  CB  LEU D4841     -55.328  24.491  40.416  1.00 58.40 LIG 0.06  C 
BRANCH 29 30
ATOM     30  CG  LEU D4841     -54.517  23.470  39.607  1.00 54.26 LIG-0.02  C 
ATOM     31  CD2 LEU D4841     -54.889  22.009  39.958  1.00 54.78 LIG 0.01  C 
ATOM     32  CD1 LEU D4841     -53.008  23.711  39.745  1.00 32.44 LIG 0.01  C 
ENDBRANCH 29 30
ENDBRANCH 27 29
ENDBRANCH 25 27
ENDBRANCH 22 23
BRANCH 22 33
ATOM     33  CB  VAL D4842     -57.398  29.610  39.943  1.00 48.47 LIG 0.01  C 
ATOM     34  CG2 VAL D4842     -56.831  30.754  39.149  1.00 42.42 LIG 0.01  C 
ATOM     35  CG1 VAL D4842     -56.906  29.683  41.379  1.00 34.87 LIG 0.01  C 
ENDBRANCH 22 33
ENDBRANCH 1 22
TORSDOF 13
ENDMDL
MODEL 3
USER: ADFR SOLUTION from run 118
USER: SCORE 7.127541 LL:  -1.944 LR:  -7.112 RR:   0.000 FEB:  -3.234
USER: RMSD 5.384441
USER: SEED 117
USER: STATUS no improvement in best in 41 clusters for 5 generations
USER: GENES 15
USER: genes 0 Translation |==|  0.47589 0.50782 0.42999
USER: genes 1 Rotation |==|  0.47676 0.41009 0.61259 0.97823
USER: genes 2 Torsion [C]-N--CA-[CB] |==|  0.47778
USER: genes 3 Torsion [N]-CA--C-[N] |==|  0.39449
USER: genes 4 Torsion [C]-N--CA-[CB] |==|  0.46151
USER: genes 5 Torsion [N]-CA--CB-[CG] |==|  0.78377
USER: genes 6 Torsion [CA]-CB--CG-[OD1] |==|  0.58650
USER: genes 7 Torsion [N]-CA--C-[O] |==|  0.91627
USER: genes 8 Torsion [N]-CA--CB-[CG2] |==|  0.72838
USER: genes 9 Torsion [N]-C--CA-[N] |==|  0.40984
USER: genes 10 Torsion [C]-CA--N-[C] |==|  0.17563
USER: genes 11 Torsion [N]-C--CA-[N] |==|  0.29236
USER: genes 12 Torsion [C]-CA--CB-[CG] |==|  0.72862
USER: genes 13 Torsion [CA]-CB--CG-[CD2] |==|  0.72582
USER: genes 14 Torsion [C]-CA--CB-[CG2] |==|  0.50097
ROOT
ATOM      1  C   VAL D4842     -57.546  27.696  38.030  1.00 57.35 LIG 0.24  C 
ATOM      2 O    VAL D4842     -57.415  27.864  36.811  1.00 61.28 LIG-0.27  OA
ATOM      3  N   VAL D4843     -57.232  26.557  38.634  1.00 52.36 LIG-0.35  N 
ATOM      4 H    VAL D4843     -57.158  26.484  39.488  1.00 52.36 LIG 0.16  HD
ENDROOT
BRANCH 3 5
ATOM      5  CA  VAL D4843     -56.979  25.314  37.920  1.00 37.99 LIG 0.18  C 
BRANCH 5 6
ATOM      6  C   VAL D4843     -58.362  24.925  37.344  1.00 51.29 LIG 0.24  C 
ATOM      7  N   ASN D4844     -58.431  24.385  36.133  1.00 50.43 LIG-0.35  N 
ATOM      8 H    ASN D4844     -57.758  24.203  35.630  1.00 50.43 LIG 0.16  HD
ATOM      9 O    VAL D4843     -59.392  25.123  38.004  1.00 47.22 LIG-0.27  OA
BRANCH 7 10
ATOM     10  CA  ASN D4844     -59.752  24.058  35.575  1.00 46.88 LIG 0.17  C 
BRANCH 10 11
ATOM     11  CB  ASN D4844     -59.642  23.778  34.077  1.00 66.72 LIG 0.14  C 
BRANCH 11 12
ATOM     12  CG  ASN D4844     -59.527  25.044  33.251  1.00 62.42 LIG 0.22  C 
ATOM     13 OD1  ASN D4844     -59.979  25.105  32.106  1.00 56.11 LIG-0.27  OA
ATOM     14  ND2 ASN D4844     -58.915  26.067  33.835  1.00 67.26 LIG-0.37  N 
ATOM     15 21HD ASN D4844     -58.822  26.811  33.413  1.00 67.26 LIG 0.16  HD
ATOM     16 22HD ASN D4844     -58.612  25.987  34.636  1.00 67.26 LIG 0.16  HD
ENDBRANCH 11 12
ENDBRANCH 10 11
BRANCH 10 17
ATOM     17  C   ASN D4844     -60.510  22.921  36.282  1.00 52.57 LIG 0.22  C 
ATOM     18 O    ASN D4844     -59.907  21.991  36.840  1.00 48.91 LIG-0.29  OA
ENDBRANCH 10 17
ENDBRANCH 7 10
ENDBRANCH 5 6
BRANCH 5 19
ATOM     19  CB  VAL D4843     -56.446  24.271  38.951  1.00 37.59 LIG 0.01  C 
ATOM     20  CG1 VAL D4843     -57.066  22.916  38.762  1.00 42.19 LIG 0.01  C 
ATOM     21  CG2 VAL D4843     -54.918  24.192  38.912  1.00 33.91 LIG 0.01  C 
ENDBRANCH 5 19
ENDBRANCH 3 5
BRANCH 1 22
ATOM     22  CA  VAL D4842     -58.038  28.818  38.965  1.00 42.26 LIG 0.18  C 
BRANCH 22 23
ATOM     23  N   VAL D4842     -57.705  30.188  38.563  1.00 51.43 LIG-0.34  N 
ATOM     24 H    VAL D4842     -57.191  30.599  39.117  1.00 51.43 LIG 0.16  HD
ATOM     25  C   LEU D4841     -58.161  30.736  37.439  1.00 54.30 LIG 0.26  C 
ATOM     26 O    LEU D4841     -57.757  31.815  37.012  1.00 66.57 LIG-0.27  OA
BRANCH 25 27
ATOM     27  CA  LEU D4841     -59.201  29.938  36.665  1.00 50.85 LIG 0.40  C 
ATOM     28  N   LEU D4841     -60.535  30.522  36.835  1.00 66.18 LIG 0.61  N 
BRANCH 27 29
ATOM     29  CB  LEU D4841     -58.834  29.887  35.177  1.00 58.40 LIG 0.06  C 
BRANCH 29 30
ATOM     30  CG  LEU D4841     -59.529  30.898  34.256  1.00 54.26 LIG-0.02  C 
ATOM     31  CD2 LEU D4841     -60.734  30.282  33.506  1.00 54.78 LIG 0.01  C 
ATOM     32  CD1 LEU D4841     -58.538  31.549  33.282  1.00 32.44 LIG 0.01  C 
ENDBRANCH 29 30
ENDBRANCH 27 29
ENDBRANCH 25 27
ENDBRANCH 22 23
BRANCH 22 33
ATOM     33  CB  VAL D4842     -59.551  28.657  39.263  1.00 48.47 LIG 0.01  C 
ATOM     34  CG2 VAL D4842     -60.048  29.750  40.168  1.00 42.42 LIG 0.01  C 
ATOM     35  CG1 VAL D4842     -59.797  27.302  39.905  1.00 34.87 LIG 0.01  C 
ENDBRANCH 22 33
ENDBRANCH 1 22
TORSDOF 13
ENDMDL
MODEL 4
USER: ADFR SOLUTION from run 22
USER: SCORE 8.261507 LL:  -2.833 LR:  -7.011 RR:   0.000 FEB:  -3.133
USER: RMSD 6.164163
USER: SEED 21
USER: STATUS no improvement in best in 36 clusters for 5 generations
USER: GENES 15
USER: genes 0 Translation |==|  0.45093 0.52555 0.35941
USER: genes 1 Rotation |==|  0.40740 0.31888 0.62628 0.93895
USER: genes 2 Torsion [C]-N--CA-[CB] |==|  0.41684
USER: genes 3 Torsion [N]-CA--C-[N] |==|  0.31789
USER: genes 4 Torsion [C]-N--CA-[CB] |==|  0.32730
USER: genes 5 Torsion [N]-CA--CB-[CG] |==|  0.14305
USER: genes 6 Torsion [CA]-CB--CG-[OD1] |==|  0.32526
USER: genes 7 Torsion [N]-CA--C-[O] |==|  0.01507
USER: genes 8 Torsion [N]-CA--CB-[CG2] |==|  0.75307
USER: genes 9 Torsion [N]-C--CA-[N] |==|  0.91094
USER: genes 10 Torsion [C]-CA--N-[C] |==|  0.79584
USER: genes 11 Torsion [N]-C--CA-[N] |==|  0.39475
USER: genes 12 Torsion [C]-CA--CB-[CG] |==|  0.40349
USER: genes 13 Torsion [CA]-CB--CG-[CD2] |==|  0.16176
USER: genes 14 Torsion [C]-CA--CB-[CG2] |==|  0.84951
ROOT
ATOM      1  C   VAL D4842     -58.070  27.989  36.971  1.00 57.35 LIG 0.24  C 
ATOM      2 O    VAL D4842     -57.430  27.944  35.914  1.00 61.28 LIG-0.27  OA
ATOM      3  N   VAL D4843     -58.036  27.015  37.872  1.00 52.36 LIG-0.35  N 
ATOM      4 H    VAL D4843     -58.335  27.107  38.673  1.00 52.36 LIG 0.16  HD
ENDROOT
BRANCH 3 5
ATOM      5  CA  VAL D4843     -57.489  25.693  37.603  1.00 37.99 LIG 0.18  C 
BRANCH 5 6
ATOM      6  C   VAL D4843     -58.703  24.883  37.088  1.00 51.29 LIG 0.24  C 
ATOM      7  N   ASN D4844     -58.709  24.451  35.833  1.00 50.43 LIG-0.35  N 
ATOM      8 H    ASN D4844     -58.073  24.561  35.266  1.00 50.43 LIG 0.16  HD
ATOM      9 O    VAL D4843     -59.661  24.648  37.839  1.00 47.22 LIG-0.27  OA
BRANCH 7 10
ATOM     10  CA  ASN D4844     -59.885  23.719  35.339  1.00 46.88 LIG 0.17  C 
BRANCH 10 11
ATOM     11  CB  ASN D4844     -60.542  24.482  34.189  1.00 66.72 LIG 0.14  C 
BRANCH 11 12
ATOM     12  CG  ASN D4844     -59.557  24.863  33.101  1.00 62.42 LIG 0.22  C 
ATOM     13 OD1  ASN D4844     -59.666  24.423  31.955  1.00 56.11 LIG-0.27  OA
ATOM     14  ND2 ASN D4844     -58.584  25.692  33.461  1.00 67.26 LIG-0.37  N 
ATOM     15 21HD ASN D4844     -57.997  25.943  32.884  1.00 67.26 LIG 0.16  HD
ATOM     16 22HD ASN D4844     -58.540  25.978  34.271  1.00 67.26 LIG 0.16  HD
ENDBRANCH 11 12
ENDBRANCH 10 11
BRANCH 10 17
ATOM     17  C   ASN D4844     -59.639  22.253  34.943  1.00 52.57 LIG 0.22  C 
ATOM     18 O    ASN D4844     -58.540  21.708  35.134  1.00 48.91 LIG-0.29  OA
ENDBRANCH 10 17
ENDBRANCH 7 10
ENDBRANCH 5 6
BRANCH 5 19
ATOM     19  CB  VAL D4843     -56.920  25.130  38.942  1.00 37.59 LIG 0.01  C 
ATOM     20  CG1 VAL D4843     -57.085  23.641  39.051  1.00 42.19 LIG 0.01  C 
ATOM     21  CG2 VAL D4843     -55.457  25.541  39.133  1.00 33.91 LIG 0.01  C 
ENDBRANCH 5 19
ENDBRANCH 3 5
BRANCH 1 22
ATOM     22  CA  VAL D4842     -58.927  29.209  37.361  1.00 42.26 LIG 0.18  C 
BRANCH 22 23
ATOM     23  N   VAL D4842     -60.102  28.936  38.194  1.00 51.43 LIG-0.34  N 
ATOM     24 H    VAL D4842     -60.014  29.184  39.013  1.00 51.43 LIG 0.16  HD
ATOM     25  C   LEU D4841     -61.201  28.356  37.716  1.00 54.30 LIG 0.26  C 
ATOM     26 O    LEU D4841     -62.246  28.275  38.358  1.00 66.57 LIG-0.27  OA
BRANCH 25 27
ATOM     27  CA  LEU D4841     -61.123  27.819  36.294  1.00 50.85 LIG 0.40  C 
ATOM     28  N   LEU D4841     -61.859  26.556  36.176  1.00 66.18 LIG 0.61  N 
BRANCH 27 29
ATOM     29  CB  LEU D4841     -61.681  28.848  35.304  1.00 58.40 LIG 0.06  C 
BRANCH 29 30
ATOM     30  CG  LEU D4841     -61.009  28.921  33.927  1.00 54.26 LIG-0.02  C 
ATOM     31  CD2 LEU D4841     -61.057  27.569  33.175  1.00 54.78 LIG 0.01  C 
ATOM     32  CD1 LEU D4841     -59.574  29.455  34.025  1.00 32.44 LIG 0.01  C 
ENDBRANCH 29 30
ENDBRANCH 27 29
ENDBRANCH 25 27
ENDBRANCH 22 23
BRANCH 22 33
ATOM     33  CB  VAL D4842     -58.041  30.329  37.965  1.00 48.47 LIG 0.01  C 
ATOM     34  CG2 VAL D4842     -57.218  29.814  39.113  1.00 42.42 LIG 0.01  C 
ATOM     35  CG1 VAL D4842     -58.924  31.473  38.433  1.00 34.87 LIG 0.01  C 
ENDBRANCH 22 33
ENDBRANCH 1 22
TORSDOF 13
ENDMDL
MODEL 5
USER: ADFR SOLUTION from run 141
USER: SCORE 8.905219 LL:  -2.392 LR:  -7.010 RR:   0.000 FEB:  -3.133
USER: RMSD 5.006641
USER: SEED 140
USER: STATUS no improvement in best in 27 clusters for 5 generations
USER: GENES 15
USER: genes 0 Translation |==|  0.49742 0.47166 0.47231
USER: genes 1 Rotation |==|  0.58599 0.91084 0.66128 0.71864
USER: genes 2 Torsion [C]-N--CA-[CB] |==|  0.89069
USER: genes 3 Torsion [N]-CA--C-[N] |==|  0.33911
USER: genes 4 Torsion [C]-N--CA-[CB] |==|  0.44324
USER: genes 5 Torsion [N]-CA--CB-[CG] |==|  0.79616
USER: genes 6 Torsion [CA]-CB--CG-[OD1] |==|  0.60948
USER: genes 7 Torsion [N]-CA--C-[O] |==|  0.25692
USER: genes 8 Torsion [N]-CA--CB-[CG2] |==|  0.80343
USER: genes 9 Torsion [N]-C--CA-[N] |==|  0.43874
USER: genes 10 Torsion [C]-CA--N-[C] |==|  0.80173
USER: genes 11 Torsion [N]-C--CA-[N] |==|  0.38397
USER: genes 12 Torsion [C]-CA--CB-[CG] |==|  0.43091
USER: genes 13 Torsion [CA]-CB--CG-[CD2] |==|  0.30764
USER: genes 14 Torsion [C]-CA--CB-[CG2] |==|  0.82823
ROOT
ATOM      1  C   VAL D4842     -57.094  27.099  38.665  1.00 57.35 LIG 0.24  C 
ATOM      2 O    VAL D4842     -57.957  26.755  39.481  1.00 61.28 LIG-0.27  OA
ATOM      3  N   VAL D4843     -56.702  26.320  37.665  1.00 52.36 LIG-0.35  N 
ATOM      4 H    VAL D4843     -56.236  26.607  37.002  1.00 52.36 LIG 0.16  HD
ENDROOT
BRANCH 3 5
ATOM      5  CA  VAL D4843     -57.017  24.901  37.584  1.00 37.99 LIG 0.18  C 
BRANCH 5 6
ATOM      6  C   VAL D4843     -58.468  24.869  37.046  1.00 51.29 LIG 0.24  C 
ATOM      7  N   ASN D4844     -58.727  24.218  35.919  1.00 50.43 LIG-0.35  N 
ATOM      8 H    ASN D4844     -58.153  23.778  35.455  1.00 50.43 LIG 0.16  HD
ATOM      9 O    VAL D4843     -59.374  25.453  37.657  1.00 47.22 LIG-0.27  OA
BRANCH 7 10
ATOM     10  CA  ASN D4844     -60.100  24.229  35.391  1.00 46.88 LIG 0.17  C 
BRANCH 10 11
ATOM     11  CB  ASN D4844     -60.100  23.887  33.901  1.00 66.72 LIG 0.14  C 
BRANCH 11 12
ATOM     12  CG  ASN D4844     -59.577  25.020  33.040  1.00 62.42 LIG 0.22  C 
ATOM     13 OD1  ASN D4844     -60.094  25.291  31.954  1.00 56.11 LIG-0.27  OA
ATOM     14  ND2 ASN D4844     -58.540  25.692  33.528  1.00 67.26 LIG-0.37  N 
ATOM     15 21HD ASN D4844     -58.203  26.346  33.081  1.00 67.26 LIG 0.16  HD
ATOM     16 22HD ASN D4844     -58.206  25.473  34.290  1.00 67.26 LIG 0.16  HD
ENDBRANCH 11 12
ENDBRANCH 10 11
BRANCH 10 17
ATOM     17  C   ASN D4844     -61.111  23.349  36.146  1.00 52.57 LIG 0.22  C 
ATOM     18 O    ASN D4844     -61.806  23.807  37.067  1.00 48.91 LIG-0.29  OA
ENDBRANCH 10 17
ENDBRANCH 7 10
ENDBRANCH 5 6
BRANCH 5 19
ATOM     19  CB  VAL D4843     -56.900  24.303  39.021  1.00 37.59 LIG 0.01  C 
ATOM     20  CG1 VAL D4843     -57.562  22.959  39.134  1.00 42.19 LIG 0.01  C 
ATOM     21  CG2 VAL D4843     -55.438  24.240  39.472  1.00 33.91 LIG 0.01  C 
ENDBRANCH 5 19
ENDBRANCH 3 5
BRANCH 1 22
ATOM     22  CA  VAL D4842     -56.435  28.492  38.705  1.00 42.26 LIG 0.18  C 
BRANCH 22 23
ATOM     23  N   VAL D4842     -57.163  29.532  39.438  1.00 51.43 LIG-0.34  N 
ATOM     24 H    VAL D4842     -56.796  29.757  40.182  1.00 51.43 LIG 0.16  HD
ATOM     25  C   LEU D4841     -58.292  30.073  38.983  1.00 54.30 LIG 0.26  C 
ATOM     26 O    LEU D4841     -58.816  31.056  39.502  1.00 66.57 LIG-0.27  OA
BRANCH 25 27
ATOM     27  CA  LEU D4841     -58.900  29.437  37.742  1.00 50.85 LIG 0.40  C 
ATOM     28  N   LEU D4841     -60.356  29.332  37.873  1.00 66.18 LIG 0.61  N 
BRANCH 27 29
ATOM     29  CB  LEU D4841     -58.541  30.252  36.494  1.00 58.40 LIG 0.06  C 
BRANCH 29 30
ATOM     30  CG  LEU D4841     -58.540  29.506  35.154  1.00 54.26 LIG-0.02  C 
ATOM     31  CD2 LEU D4841     -59.698  29.952  34.229  1.00 54.78 LIG 0.01  C 
ATOM     32  CD1 LEU D4841     -58.540  27.985  35.354  1.00 32.44 LIG 0.01  C 
ENDBRANCH 29 30
ENDBRANCH 27 29
ENDBRANCH 25 27
ENDBRANCH 22 23
BRANCH 22 33
ATOM     33  CB  VAL D4842     -54.960  28.386  39.170  1.00 48.47 LIG 0.01  C 
ATOM     34  CG2 VAL D4842     -54.866  27.829  40.563  1.00 42.42 LIG 0.01  C 
ATOM     35  CG1 VAL D4842     -54.315  29.760  39.116  1.00 34.87 LIG 0.01  C 
ENDBRANCH 22 33
ENDBRANCH 1 22
TORSDOF 13
ENDMDL
MODEL 6
USER: ADFR SOLUTION from run 152
USER: SCORE 7.307074 LL:  -2.103 LR:  -6.945 RR:   0.000 FEB:  -3.067
USER: RMSD 4.297249
USER: SEED 151
USER: STATUS no improvement in best in 30 clusters for 5 generations
USER: GENES 15
USER: genes 0 Translation |==|  0.49711 0.49875 0.48610
USER: genes 1 Rotation |==|  0.85935 0.72091 0.55572 0.76261
USER: genes 2 Torsion [C]-N--CA-[CB] |==|  0.29055
USER: genes 3 Torsion [N]-CA--C-[N] |==|  0.59577
USER: genes 4 Torsion [C]-N--CA-[CB] |==|  0.35745
USER: genes 5 Torsion [N]-CA--CB-[CG] |==|  0.93120
USER: genes 6 Torsion [CA]-CB--CG-[OD1] |==|  0.86792
USER: genes 7 Torsion [N]-CA--C-[O] |==|  0.82742
USER: genes 8 Torsion [N]-CA--CB-[CG2] |==|  0.18074
USER: genes 9 Torsion [N]-C--CA-[N] |==|  0.44197
USER: genes 10 Torsion [C]-CA--N-[C] |==|  0.79745
USER: genes 11 Torsion [N]-C--CA-[N] |==|  0.24691
USER: genes 12 Torsion [C]-CA--CB-[CG] |==|  0.15216
USER: genes 13 Torsion [CA]-CB--CG-[CD2] |==|  0.67900
USER: genes 14 Torsion [C]-CA--CB-[CG2] |==|  0.51694
ROOT
ATOM      1  C   VAL D4842     -57.101  27.546  38.871  1.00 57.35 LIG 0.24  C 
ATOM      2 O    VAL D4842     -57.803  28.147  39.694  1.00 61.28 LIG-0.27  OA
ATOM      3  N   VAL D4843     -57.505  27.291  37.634  1.00 52.36 LIG-0.35  N 
ATOM      4 H    VAL D4843     -56.973  27.031  37.011  1.00 52.36 LIG 0.16  HD
ENDROOT
BRANCH 3 5
ATOM      5  CA  VAL D4843     -58.888  27.425  37.199  1.00 37.99 LIG 0.18  C 
BRANCH 5 6
ATOM      6  C   VAL D4843     -59.143  26.149  36.361  1.00 51.29 LIG 0.24  C 
ATOM      7  N   ASN D4844     -59.945  26.216  35.306  1.00 50.43 LIG-0.35  N 
ATOM      8 H    ASN D4844     -60.332  26.928  35.019  1.00 50.43 LIG 0.16  HD
ATOM      9 O    VAL D4843     -58.609  25.076  36.678  1.00 47.22 LIG-0.27  OA
BRANCH 7 10
ATOM     10  CA  ASN D4844     -60.216  24.990  34.540  1.00 46.88 LIG 0.17  C 
BRANCH 10 11
ATOM     11  CB  ASN D4844     -61.722  24.795  34.363  1.00 66.72 LIG 0.14  C 
BRANCH 11 12
ATOM     12  CG  ASN D4844     -62.533  25.482  35.444  1.00 62.42 LIG 0.22  C 
ATOM     13 OD1  ASN D4844     -62.243  25.362  36.636  1.00 56.11 LIG-0.27  OA
ATOM     14  ND2 ASN D4844     -63.561  26.212  35.026  1.00 67.26 LIG-0.37  N 
ATOM     15 21HD ASN D4844     -64.055  26.625  35.597  1.00 67.26 LIG 0.16  HD
ATOM     16 22HD ASN D4844     -63.732  26.272  34.185  1.00 67.26 LIG 0.16  HD
ENDBRANCH 11 12
ENDBRANCH 10 11
BRANCH 10 17
ATOM     17  C   ASN D4844     -59.495  24.877  33.186  1.00 52.57 LIG 0.22  C 
ATOM     18 O    ASN D4844     -59.703  25.693  32.273  1.00 48.91 LIG-0.29  OA
ENDBRANCH 10 17
ENDBRANCH 7 10
ENDBRANCH 5 6
BRANCH 5 19
ATOM     19  CB  VAL D4843     -58.997  28.729  36.350  1.00 37.59 LIG 0.01  C 
ATOM     20  CG1 VAL D4843     -58.615  29.953  37.132  1.00 42.19 LIG 0.01  C 
ATOM     21  CG2 VAL D4843     -58.177  28.616  35.062  1.00 33.91 LIG 0.01  C 
ENDBRANCH 5 19
ENDBRANCH 3 5
BRANCH 1 22
ATOM     22  CA  VAL D4842     -55.666  27.087  39.198  1.00 42.26 LIG 0.18  C 
BRANCH 22 23
ATOM     23  N   VAL D4842     -55.021  27.742  40.339  1.00 51.43 LIG-0.34  N 
ATOM     24 H    VAL D4842     -54.951  27.242  41.035  1.00 51.43 LIG 0.16  HD
ATOM     25  C   LEU D4841     -54.585  28.999  40.291  1.00 54.30 LIG 0.26  C 
ATOM     26 O    LEU D4841     -53.897  29.501  41.178  1.00 66.57 LIG-0.27  OA
BRANCH 25 27
ATOM     27  CA  LEU D4841     -54.947  29.799  39.048  1.00 50.85 LIG 0.40  C 
ATOM     28  N   LEU D4841     -56.237  30.473  39.223  1.00 66.18 LIG 0.61  N 
BRANCH 27 29
ATOM     29  CB  LEU D4841     -53.853  30.828  38.738  1.00 58.40 LIG 0.06  C 
BRANCH 29 30
ATOM     30  CG  LEU D4841     -52.423  30.295  38.589  1.00 54.26 LIG-0.02  C 
ATOM     31  CD2 LEU D4841     -51.474  30.835  39.685  1.00 54.78 LIG 0.01  C 
ATOM     32  CD1 LEU D4841     -51.864  30.563  37.185  1.00 32.44 LIG 0.01  C 
ENDBRANCH 29 30
ENDBRANCH 27 29
ENDBRANCH 25 27
ENDBRANCH 22 23
BRANCH 22 33
ATOM     33  CB  VAL D4842     -55.599  25.542  39.307  1.00 48.47 LIG 0.01  C 
ATOM     34  CG2 VAL D4842     -54.242  25.087  39.769  1.00 42.42 LIG 0.01  C 
ATOM     35  CG1 VAL D4842     -55.918  24.927  37.955  1.00 34.87 LIG 0.01  C 
ENDBRANCH 22 33
ENDBRANCH 1 22
TORSDOF 13
ENDMDL
MODEL 7
USER: ADFR SOLUTION from run 67
USER: SCORE 8.143539 LL:  -1.744 LR:  -6.942 RR:   0.000 FEB:  -3.064
USER: RMSD 3.749821
USER: SEED 66
USER: STATUS no improvement in best in 25 clusters for 5 generations
USER: GENES 15
USER: genes 0 Translation |==|  0.59468 0.61462 0.50679
USER: genes 1 Rotation |==|  0.52963 0.63136 0.57211 0.97610
USER: genes 2 Torsion [C]-N--CA-[CB] |==|  0.57851
USER: genes 3 Torsion [N]-CA--C-[N] |==|  0.35339
USER: genes 4 Torsion [C]-N--CA-[CB] |==|  0.28131
USER: genes 5 Torsion [N]-CA--CB-[CG] |==|  0.20135
USER: genes 6 Torsion [CA]-CB--CG-[OD1] |==|  0.45178
USER: genes 7 Torsion [N]-CA--C-[O] |==|  0.95062
USER: genes 8 Torsion [N]-CA--CB-[CG2] |==|  0.93631
USER: genes 9 Torsion [N]-C--CA-[N] |==|  0.48889
USER: genes 10 Torsion [C]-CA--N-[C] |==|  0.75665
USER: genes 11 Torsion [N]-C--CA-[N] |==|  0.41765
USER: genes 12 Torsion [C]-CA--CB-[CG] |==|  0.44818
USER: genes 13 Torsion [CA]-CB--CG-[CD2] |==|  0.32609
USER: genes 14 Torsion [C]-CA--CB-[CG2] |==|  0.23364
ROOT
ATOM      1  C   VAL D4842     -55.052  29.458  39.182  1.00 57.35 LIG 0.24  C 
ATOM      2 O    VAL D4842     -55.908  29.726  38.330  1.00 61.28 LIG-0.27  OA
ATOM      3  N   VAL D4843     -54.563  28.236  39.346  1.00 52.36 LIG-0.35  N 
ATOM      4 H    VAL D4843     -53.857  28.071  39.809  1.00 52.36 LIG 0.16  HD
ENDROOT
BRANCH 3 5
ATOM      5  CA  VAL D4843     -55.165  27.046  38.762  1.00 37.99 LIG 0.18  C 
BRANCH 5 6
ATOM      6  C   VAL D4843     -56.680  27.366  38.739  1.00 51.29 LIG 0.24  C 
ATOM      7  N   ASN D4844     -57.352  27.241  37.601  1.00 50.43 LIG-0.35  N 
ATOM      8 H    ASN D4844     -57.021  26.969  36.856  1.00 50.43 LIG 0.16  HD
ATOM      9 O    VAL D4843     -57.255  27.742  39.771  1.00 47.22 LIG-0.27  OA
BRANCH 7 10
ATOM     10  CA  ASN D4844     -58.780  27.588  37.577  1.00 46.88 LIG 0.17  C 
BRANCH 10 11
ATOM     11  CB  ASN D4844     -58.982  28.971  36.958  1.00 66.72 LIG 0.14  C 
BRANCH 11 12
ATOM     12  CG  ASN D4844     -58.758  28.980  35.458  1.00 62.42 LIG 0.22  C 
ATOM     13 OD1  ASN D4844     -59.174  29.903  34.755  1.00 56.11 LIG-0.27  OA
ATOM     14  ND2 ASN D4844     -58.094  27.943  34.962  1.00 67.26 LIG-0.37  N 
ATOM     15 21HD ASN D4844     -57.939  27.896  34.117  1.00 67.26 LIG 0.16  HD
ATOM     16 22HD ASN D4844     -57.821  27.317  35.485  1.00 67.26 LIG 0.16  HD
ENDBRANCH 11 12
ENDBRANCH 10 11
BRANCH 10 17
ATOM     17  C   ASN D4844     -59.705  26.558  36.907  1.00 52.57 LIG 0.22  C 
ATOM     18 O    ASN D4844     -59.256  25.684  36.147  1.00 48.91 LIG-0.29  OA
ENDBRANCH 10 17
ENDBRANCH 7 10
ENDBRANCH 5 6
BRANCH 5 19
ATOM     19  CB  VAL D4843     -54.825  25.836  39.686  1.00 37.59 LIG 0.01  C 
ATOM     20  CG1 VAL D4843     -54.684  24.553  38.916  1.00 42.19 LIG 0.01  C 
ATOM     21  CG2 VAL D4843     -53.575  26.119  40.524  1.00 33.91 LIG 0.01  C 
ENDBRANCH 5 19
ENDBRANCH 3 5
BRANCH 1 22
ATOM     22  CA  VAL D4842     -54.436  30.536  40.095  1.00 42.26 LIG 0.18  C 
BRANCH 22 23
ATOM     23  N   VAL D4842     -54.893  31.911  39.871  1.00 51.43 LIG-0.34  N 
ATOM     24 H    VAL D4842     -55.561  32.141  40.361  1.00 51.43 LIG 0.16  HD
ATOM     25  C   LEU D4841     -54.317  32.723  38.987  1.00 54.30 LIG 0.26  C 
ATOM     26 O    LEU D4841     -54.580  33.921  38.911  1.00 66.57 LIG-0.27  OA
BRANCH 25 27
ATOM     27  CA  LEU D4841     -53.266  32.104  38.077  1.00 50.85 LIG 0.40  C 
ATOM     28  N   LEU D4841     -53.225  32.796  36.786  1.00 66.18 LIG 0.61  N 
BRANCH 27 29
ATOM     29  CB  LEU D4841     -51.886  32.153  38.745  1.00 58.40 LIG 0.06  C 
BRANCH 29 30
ATOM     30  CG  LEU D4841     -50.814  31.206  38.193  1.00 54.26 LIG-0.02  C 
ATOM     31  CD2 LEU D4841     -49.604  31.966  37.599  1.00 54.78 LIG 0.01  C 
ATOM     32  CD1 LEU D4841     -51.403  30.214  37.181  1.00 32.44 LIG 0.01  C 
ENDBRANCH 29 30
ENDBRANCH 27 29
ENDBRANCH 25 27
ENDBRANCH 22 23
BRANCH 22 33
ATOM     33  CB  VAL D4842     -54.555  30.125  41.584  1.00 48.47 LIG 0.01  C 
ATOM     34  CG2 VAL D4842     -53.427  29.218  41.992  1.00 42.42 LIG 0.01  C 
ATOM     35  CG1 VAL D4842     -55.887  29.428  41.810  1.00 34.87 LIG 0.01  C 
ENDBRANCH 22 33
ENDBRANCH 1 22
TORSDOF 13
ENDMDL
MODEL 8
USER: ADFR SOLUTION from run 51
USER: SCORE 8.380908 LL:  -2.685 LR:  -6.929 RR:   0.000 FEB:  -3.051
USER: RMSD 4.644971
USER: SEED 50
USER: STATUS no improvement in best in 17 clusters for 5 generations
USER: GENES 15
USER: genes 0 Translation |==|  0.47686 0.49676 0.41897
USER: genes 1 Rotation |==|  0.42825 0.10850 0.47597 0.80166
USER: genes 2 Torsion [C]-N--CA-[CB] |==|  0.26920
USER: genes 3 Torsion [N]-CA--C-[N] |==|  0.31527
USER: genes 4 Torsion [C]-N--CA-[CB] |==|  0.42321
USER: genes 5 Torsion [N]-CA--CB-[CG] |==|  0.82541
USER: genes 6 Torsion [CA]-CB--CG-[OD1] |==|  0.61051
USER: genes 7 Torsion [N]-CA--C-[O] |==|  0.87975
USER: genes 8 Torsion [N]-CA--CB-[CG2] |==|  0.75454
USER: genes 9 Torsion [N]-C--CA-[N] |==|  0.46000
USER: genes 10 Torsion [C]-CA--N-[C] |==|  0.79384
USER: genes 11 Torsion [N]-C--CA-[N] |==|  0.43738
USER: genes 12 Torsion [C]-CA--CB-[CG] |==|  0.38595
USER: genes 13 Torsion [CA]-CB--CG-[CD2] |==|  0.04249
USER: genes 14 Torsion [C]-CA--CB-[CG2] |==|  0.22714
ROOT
ATOM      1  C   VAL D4842     -57.526  27.514  37.865  1.00 57.35 LIG 0.24  C 
ATOM      2 O    VAL D4842     -56.293  27.475  37.950  1.00 61.28 LIG-0.27  OA
ATOM      3  N   VAL D4843     -58.276  26.420  37.820  1.00 52.36 LIG-0.35  N 
ATOM      4 H    VAL D4843     -59.129  26.432  37.931  1.00 52.36 LIG 0.16  HD
ENDROOT
BRANCH 3 5
ATOM      5  CA  VAL D4843     -57.739  25.089  37.580  1.00 37.99 LIG 0.18  C 
BRANCH 5 6
ATOM      6  C   VAL D4843     -58.824  24.395  36.720  1.00 51.29 LIG 0.24  C 
ATOM      7  N   ASN D4844     -58.547  24.073  35.463  1.00 50.43 LIG-0.35  N 
ATOM      8 H    ASN D4844     -57.790  24.194  35.073  1.00 50.43 LIG 0.16  HD
ATOM      9 O    VAL D4843     -59.941  24.153  37.200  1.00 47.22 LIG-0.27  OA
BRANCH 7 10
ATOM     10  CA  ASN D4844     -59.596  23.454  34.640  1.00 46.88 LIG 0.17  C 
BRANCH 10 11
ATOM     11  CB  ASN D4844     -59.372  23.774  33.163  1.00 66.72 LIG 0.14  C 
BRANCH 11 12
ATOM     12  CG  ASN D4844     -59.461  25.258  32.864  1.00 62.42 LIG 0.22  C 
ATOM     13 OD1  ASN D4844     -60.012  25.674  31.843  1.00 56.11 LIG-0.27  OA
ATOM     14  ND2 ASN D4844     -58.915  26.067  33.765  1.00 67.26 LIG-0.37  N 
ATOM     15 21HD ASN D4844     -58.937  26.919  33.647  1.00 67.26 LIG 0.16  HD
ATOM     16 22HD ASN D4844     -58.539  25.739  34.466  1.00 67.26 LIG 0.16  HD
ENDBRANCH 11 12
ENDBRANCH 10 11
BRANCH 10 17
ATOM     17  C   ASN D4844     -59.794  21.941  34.840  1.00 52.57 LIG 0.22  C 
ATOM     18 O    ASN D4844     -58.826  21.169  34.928  1.00 48.91 LIG-0.29  OA
ENDBRANCH 10 17
ENDBRANCH 7 10
ENDBRANCH 5 6
BRANCH 5 19
ATOM     19  CB  VAL D4843     -57.542  24.397  38.964  1.00 37.59 LIG 0.01  C 
ATOM     20  CG1 VAL D4843     -57.782  22.915  38.900  1.00 42.19 LIG 0.01  C 
ATOM     21  CG2 VAL D4843     -56.159  24.710  39.543  1.00 33.91 LIG 0.01  C 
ENDBRANCH 5 19
ENDBRANCH 3 5
BRANCH 1 22
ATOM     22  CA  VAL D4842     -58.307  28.842  37.856  1.00 42.26 LIG 0.18  C 
BRANCH 22 23
ATOM     23  N   VAL D4842     -57.549  30.040  38.230  1.00 51.43 LIG-0.34  N 
ATOM     24 H    VAL D4842     -57.355  30.552  37.567  1.00 51.43 LIG 0.16  HD
ATOM     25  C   LEU D4841     -57.198  30.303  39.488  1.00 54.30 LIG 0.26  C 
ATOM     26 O    LEU D4841     -56.714  31.379  39.834  1.00 66.57 LIG-0.27  OA
BRANCH 25 27
ATOM     27  CA  LEU D4841     -57.463  29.209  40.511  1.00 50.85 LIG 0.40  C 
ATOM     28  N   LEU D4841     -56.593  29.371  41.680  1.00 66.18 LIG 0.61  N 
BRANCH 27 29
ATOM     29  CB  LEU D4841     -58.935  29.228  40.943  1.00 58.40 LIG 0.06  C 
BRANCH 29 30
ATOM     30  CG  LEU D4841     -59.627  27.870  41.108  1.00 54.26 LIG-0.02  C 
ATOM     31  CD2 LEU D4841     -58.619  26.697  41.173  1.00 54.78 LIG 0.01  C 
ATOM     32  CD1 LEU D4841     -60.684  27.638  40.020  1.00 32.44 LIG 0.01  C 
ENDBRANCH 29 30
ENDBRANCH 27 29
ENDBRANCH 25 27
ENDBRANCH 22 23
BRANCH 22 33
ATOM     33  CB  VAL D4842     -59.053  29.030  36.511  1.00 48.47 LIG 0.01  C 
ATOM     34  CG2 VAL D4842     -60.351  28.273  36.496  1.00 42.42 LIG 0.01  C 
ATOM     35  CG1 VAL D4842     -58.165  28.557  35.372  1.00 34.87 LIG 0.01  C 
ENDBRANCH 22 33
ENDBRANCH 1 22
TORSDOF 13
ENDMDL
MODEL 9
USER: ADFR SOLUTION from run 7
USER: SCORE 7.870287 LL:  -2.366 LR:  -6.879 RR:   0.000 FEB:  -3.001
USER: RMSD 4.888212
USER: SEED 254003
USER: STATUS no improvement in best in 22 clusters for 5 generations
USER: GENES 15
USER: genes 0 Translation |==|  0.48458 0.50312 0.43535
USER: genes 1 Rotation |==|  0.89261 0.67240 0.55172 0.75191
USER: genes 2 Torsion [C]-N--CA-[CB] |==|  0.36346
USER: genes 3 Torsion [N]-CA--C-[N] |==|  0.92337
USER: genes 4 Torsion [C]-N--CA-[CB] |==|  0.81973
USER: genes 5 Torsion [N]-CA--CB-[CG] |==|  0.70501
USER: genes 6 Torsion [CA]-CB--CG-[OD1] |==|  0.99796
USER: genes 7 Torsion [N]-CA--C-[O] |==|  0.17720
USER: genes 8 Torsion [N]-CA--CB-[CG2] |==|  0.74285
USER: genes 9 Torsion [N]-C--CA-[N] |==|  0.47600
USER: genes 10 Torsion [C]-CA--N-[C] |==|  0.77508
USER: genes 11 Torsion [N]-C--CA-[N] |==|  0.26658
USER: genes 12 Torsion [C]-CA--CB-[CG] |==|  0.47072
USER: genes 13 Torsion [CA]-CB--CG-[CD2] |==|  0.62913
USER: genes 14 Torsion [C]-CA--CB-[CG2] |==|  0.87664
ROOT
ATOM      1  C   VAL D4842     -57.364  27.619  38.110  1.00 57.35 LIG 0.24  C 
ATOM      2 O    VAL D4842     -57.988  28.257  38.966  1.00 61.28 LIG-0.27  OA
ATOM      3  N   VAL D4843     -57.725  27.587  36.834  1.00 52.36 LIG-0.35  N 
ATOM      4 H    VAL D4843     -57.214  27.294  36.209  1.00 52.36 LIG 0.16  HD
ENDROOT
BRANCH 3 5
ATOM      5  CA  VAL D4843     -59.022  28.046  36.357  1.00 37.99 LIG 0.18  C 
BRANCH 5 6
ATOM      6  C   VAL D4843     -59.753  26.745  35.946  1.00 51.29 LIG 0.24  C 
ATOM      7  N   ASN D4844     -59.039  25.696  35.556  1.00 50.43 LIG-0.35  N 
ATOM      8 H    ASN D4844     -58.180  25.660  35.530  1.00 50.43 LIG 0.16  HD
ATOM      9 O    VAL D4843     -60.991  26.688  35.974  1.00 47.22 LIG-0.27  OA
BRANCH 7 10
ATOM     10  CA  ASN D4844     -59.741  24.478  35.126  1.00 46.88 LIG 0.17  C 
BRANCH 10 11
ATOM     11  CB  ASN D4844     -60.512  23.867  36.296  1.00 66.72 LIG 0.14  C 
BRANCH 11 12
ATOM     12  CG  ASN D4844     -59.857  22.610  36.836  1.00 62.42 LIG 0.22  C 
ATOM     13 OD1  ASN D4844     -58.821  22.163  36.338  1.00 56.11 LIG-0.27  OA
ATOM     14  ND2 ASN D4844     -60.465  22.033  37.866  1.00 67.26 LIG-0.37  N 
ATOM     15 21HD ASN D4844     -60.136  21.317  38.213  1.00 67.26 LIG 0.16  HD
ATOM     16 22HD ASN D4844     -61.186  22.374  38.185  1.00 67.26 LIG 0.16  HD
ENDBRANCH 11 12
ENDBRANCH 10 11
BRANCH 10 17
ATOM     17  C   ASN D4844     -60.658  24.636  33.901  1.00 52.57 LIG 0.22  C 
ATOM     18 O    ASN D4844     -60.202  24.937  32.786  1.00 48.91 LIG-0.29  OA
ENDBRANCH 10 17
ENDBRANCH 7 10
ENDBRANCH 5 6
BRANCH 5 19
ATOM     19  CB  VAL D4843     -58.776  29.001  35.148  1.00 37.59 LIG 0.01  C 
ATOM     20  CG1 VAL D4843     -59.809  28.833  34.070  1.00 42.19 LIG 0.01  C 
ATOM     21  CG2 VAL D4843     -58.686  30.458  35.607  1.00 33.91 LIG 0.01  C 
ENDBRANCH 5 19
ENDBRANCH 3 5
BRANCH 1 22
ATOM     22  CA  VAL D4842     -56.074  26.844  38.443  1.00 42.26 LIG 0.18  C 
BRANCH 22 23
ATOM     23  N   VAL D4842     -55.543  27.021  39.798  1.00 51.43 LIG-0.34  N 
ATOM     24 H    VAL D4842     -55.748  26.385  40.339  1.00 51.43 LIG 0.16  HD
ATOM     25  C   LEU D4841     -54.811  28.076  40.149  1.00 54.30 LIG 0.26  C 
ATOM     26 O    LEU D4841     -54.225  28.152  41.226  1.00 66.57 LIG-0.27  OA
BRANCH 25 27
ATOM     27  CA  LEU D4841     -54.693  29.194  39.123  1.00 50.85 LIG 0.40  C 
ATOM     28  N   LEU D4841     -55.680  30.246  39.387  1.00 66.18 LIG 0.61  N 
BRANCH 27 29
ATOM     29  CB  LEU D4841     -53.278  29.785  39.139  1.00 58.40 LIG 0.06  C 
BRANCH 29 30
ATOM     30  CG  LEU D4841     -52.916  30.748  38.002  1.00 54.26 LIG-0.02  C 
ATOM     31  CD2 LEU D4841     -51.535  30.432  37.377  1.00 54.78 LIG 0.01  C 
ATOM     32  CD1 LEU D4841     -53.003  32.212  38.452  1.00 32.44 LIG 0.01  C 
ENDBRANCH 29 30
ENDBRANCH 27 29
ENDBRANCH 25 27
ENDBRANCH 22 23
BRANCH 22 33
ATOM     33  CB  VAL D4842     -56.226  25.346  38.075  1.00 48.47 LIG 0.01  C 
ATOM     34  CG2 VAL D4842     -57.554  24.805  38.525  1.00 42.42 LIG 0.01  C 
ATOM     35  CG1 VAL D4842     -55.100  24.552  38.718  1.00 34.87 LIG 0.01  C 
ENDBRANCH 22 33
ENDBRANCH 1 22
TORSDOF 13
ENDMDL
MODEL 10
USER: ADFR SOLUTION from run 79
USER: SCORE 7.629037 LL:  -2.261 LR:  -6.855 RR:   0.000 FEB:  -2.977
USER: RMSD 3.610141
USER: SEED 78
USER: STATUS no improvement in best in 34 clusters for 5 generations
USER: GENES 15
USER: genes 0 Translation |==|  0.45771 0.52043 0.38317
USER: genes 1 Rotation |==|  0.43211 0.34256 0.62754 0.95204
USER: genes 2 Torsion [C]-N--CA-[CB] |==|  0.43415
USER: genes 3 Torsion [N]-CA--C-[N] |==|  0.36847
USER: genes 4 Torsion [C]-N--CA-[CB] |==|  0.23805
USER: genes 5 Torsion [N]-CA--CB-[CG] |==|  0.16672
USER: genes 6 Torsion [CA]-CB--CG-[OD1] |==|  0.30690
USER: genes 7 Torsion [N]-CA--C-[O] |==|  0.13752
USER: genes 8 Torsion [N]-CA--CB-[CG2] |==|  0.71107
USER: genes 9 Torsion [N]-C--CA-[N] |==|  0.09360
USER: genes 10 Torsion [C]-CA--N-[C] |==|  0.16272
USER: genes 11 Torsion [N]-C--CA-[N] |==|  0.33455
USER: genes 12 Torsion [C]-CA--CB-[CG] |==|  0.70239
USER: genes 13 Torsion [CA]-CB--CG-[CD2] |==|  0.77331
USER: genes 14 Torsion [C]-CA--CB-[CG2] |==|  0.53005
ROOT
ATOM      1  C   VAL D4842     -57.928  27.904  37.328  1.00 57.35 LIG 0.24  C 
ATOM      2 O    VAL D4842     -57.428  27.942  36.197  1.00 61.28 LIG-0.27  OA
ATOM      3  N   VAL D4843     -57.773  26.871  38.145  1.00 52.36 LIG-0.35  N 
ATOM      4 H    VAL D4843     -57.968  26.902  38.982  1.00 52.36 LIG 0.16  HD
ENDROOT
BRANCH 3 5
ATOM      5  CA  VAL D4843     -57.259  25.579  37.716  1.00 37.99 LIG 0.18  C 
BRANCH 5 6
ATOM      6  C   VAL D4843     -58.503  24.848  37.152  1.00 51.29 LIG 0.24  C 
ATOM      7  N   ASN D4844     -58.419  24.238  35.977  1.00 50.43 LIG-0.35  N 
ATOM      8 H    ASN D4844     -57.711  24.187  35.492  1.00 50.43 LIG 0.16  HD
ATOM      9 O    VAL D4843     -59.565  24.842  37.791  1.00 47.22 LIG-0.27  OA
BRANCH 7 10
ATOM     10  CA  ASN D4844     -59.616  23.584  35.429  1.00 46.88 LIG 0.17  C 
BRANCH 10 11
ATOM     11  CB  ASN D4844     -60.470  24.592  34.661  1.00 66.72 LIG 0.14  C 
BRANCH 11 12
ATOM     12  CG  ASN D4844     -59.728  25.222  33.498  1.00 62.42 LIG 0.22  C 
ATOM     13 OD1  ASN D4844     -60.032  24.966  32.331  1.00 56.11 LIG-0.27  OA
ATOM     14  ND2 ASN D4844     -58.745  26.055  33.817  1.00 67.26 LIG-0.37  N 
ATOM     15 21HD ASN D4844     -58.290  26.442  33.197  1.00 67.26 LIG 0.16  HD
ATOM     16 22HD ASN D4844     -58.562  26.209  34.643  1.00 67.26 LIG 0.16  HD
ENDBRANCH 11 12
ENDBRANCH 10 11
BRANCH 10 17
ATOM     17  C   ASN D4844     -59.359  22.332  34.572  1.00 52.57 LIG 0.22  C 
ATOM     18 O    ASN D4844     -58.622  21.416  34.972  1.00 48.91 LIG-0.29  OA
ENDBRANCH 10 17
ENDBRANCH 7 10
ENDBRANCH 5 6
BRANCH 5 19
ATOM     19  CB  VAL D4843     -56.661  24.863  38.966  1.00 37.59 LIG 0.01  C 
ATOM     20  CG1 VAL D4843     -57.154  23.450  39.104  1.00 42.19 LIG 0.01  C 
ATOM     21  CG2 VAL D4843     -55.131  24.916  38.951  1.00 33.91 LIG 0.01  C 
ENDBRANCH 5 19
ENDBRANCH 3 5
BRANCH 1 22
ATOM     22  CA  VAL D4842     -58.733  29.082  37.909  1.00 42.26 LIG 0.18  C 
BRANCH 22 23
ATOM     23  N   VAL D4842     -58.582  29.323  39.347  1.00 51.43 LIG-0.34  N 
ATOM     24 H    VAL D4842     -59.320  29.283  39.787  1.00 51.43 LIG 0.16  HD
ATOM     25  C   LEU D4841     -57.403  29.578  39.911  1.00 54.30 LIG 0.26  C 
ATOM     26 O    LEU D4841     -57.240  29.614  41.129  1.00 66.57 LIG-0.27  OA
BRANCH 25 27
ATOM     27  CA  LEU D4841     -56.228  29.789  38.967  1.00 50.85 LIG 0.40  C 
ATOM     28  N   LEU D4841     -55.644  31.120  39.157  1.00 66.18 LIG 0.61  N 
BRANCH 27 29
ATOM     29  CB  LEU D4841     -55.163  28.709  39.191  1.00 58.40 LIG 0.06  C 
BRANCH 29 30
ATOM     30  CG  LEU D4841     -53.873  29.143  39.897  1.00 54.26 LIG-0.02  C 
ATOM     31  CD2 LEU D4841     -52.869  29.817  38.931  1.00 54.78 LIG 0.01  C 
ATOM     32  CD1 LEU D4841     -53.222  27.977  40.653  1.00 32.44 LIG 0.01  C 
ENDBRANCH 29 30
ENDBRANCH 27 29
ENDBRANCH 25 27
ENDBRANCH 22 23
BRANCH 22 33
ATOM     33  CB  VAL D4842     -58.492  30.371  37.082  1.00 48.47 LIG 0.01  C 
ATOM     34  CG2 VAL D4842     -59.054  31.579  37.777  1.00 42.42 LIG 0.01  C 
ATOM     35  CG1 VAL D4842     -59.133  30.218  35.712  1.00 34.87 LIG 0.01  C 
ENDBRANCH 22 33
ENDBRANCH 1 22
TORSDOF 13
ENDMDL
MODEL 11
USER: ADFR SOLUTION from run 117
USER: SCORE 8.116602 LL:  -2.730 LR:  -6.825 RR:   0.000 FEB:  -2.948
USER: RMSD 4.654859
USER: SEED 116
USER: STATUS no improvement in best in 9 clusters for 5 generations
USER: GENES 15
USER: genes 0 Translation |==|  0.44083 0.49085 0.45356
USER: genes 1 Rotation |==|  0.87024 0.66256 0.62921 0.76420
USER: genes 2 Torsion [C]-N--CA-[CB] |==|  0.39391
USER: genes 3 Torsion [N]-CA--C-[N] |==|  0.85556
USER: genes 4 Torsion [C]-N--CA-[CB] |==|  0.30935
USER: genes 5 Torsion [N]-CA--CB-[CG] |==|  0.86492
USER: genes 6 Torsion [CA]-CB--CG-[OD1] |==|  0.36356
USER: genes 7 Torsion [N]-CA--C-[O] |==|  0.19897
USER: genes 8 Torsion [N]-CA--CB-[CG2] |==|  0.81208
USER: genes 9 Torsion [N]-C--CA-[N] |==|  0.45023
USER: genes 10 Torsion [C]-CA--N-[C] |==|  0.58371
USER: genes 11 Torsion [N]-C--CA-[N] |==|  0.32729
USER: genes 12 Torsion [C]-CA--CB-[CG] |==|  0.22776
USER: genes 13 Torsion [CA]-CB--CG-[CD2] |==|  0.71359
USER: genes 14 Torsion [C]-CA--CB-[CG2] |==|  0.24418
ROOT
ATOM      1  C   VAL D4842     -58.283  27.416  38.383  1.00 57.35 LIG 0.24  C 
ATOM      2 O    VAL D4842     -59.214  27.914  39.027  1.00 61.28 LIG-0.27  OA
ATOM      3  N   VAL D4843     -58.258  27.395  37.057  1.00 52.36 LIG-0.35  N 
ATOM      4 H    VAL D4843     -57.552  27.209  36.604  1.00 52.36 LIG 0.16  HD
ENDROOT
BRANCH 3 5
ATOM      5  CA  VAL D4843     -59.421  27.684  36.230  1.00 37.99 LIG 0.18  C 
BRANCH 5 6
ATOM      6  C   VAL D4843     -59.967  26.286  35.849  1.00 51.29 LIG 0.24  C 
ATOM      7  N   ASN D4844     -59.143  25.390  35.319  1.00 50.43 LIG-0.35  N 
ATOM      8 H    ASN D4844     -58.302  25.507  35.184  1.00 50.43 LIG 0.16  HD
ATOM      9 O    VAL D4843     -61.162  26.011  36.030  1.00 47.22 LIG-0.27  OA
BRANCH 7 10
ATOM     10  CA  ASN D4844     -59.678  24.080  34.921  1.00 46.88 LIG 0.17  C 
BRANCH 10 11
ATOM     11  CB  ASN D4844     -59.660  23.939  33.399  1.00 66.72 LIG 0.14  C 
BRANCH 11 12
ATOM     12  CG  ASN D4844     -60.255  25.141  32.691  1.00 62.42 LIG 0.22  C 
ATOM     13 OD1  ASN D4844     -59.665  25.692  31.760  1.00 56.11 LIG-0.27  OA
ATOM     14  ND2 ASN D4844     -61.437  25.552  33.136  1.00 67.26 LIG-0.37  N 
ATOM     15 21HD ASN D4844     -61.821  26.230  32.770  1.00 67.26 LIG 0.16  HD
ATOM     16 22HD ASN D4844     -61.817  25.142  33.789  1.00 67.26 LIG 0.16  HD
ENDBRANCH 11 12
ENDBRANCH 10 11
BRANCH 10 17
ATOM     17  C   ASN D4844     -59.016  22.860  35.583  1.00 52.57 LIG 0.22  C 
ATOM     18 O    ASN D4844     -59.203  22.595  36.782  1.00 48.91 LIG-0.29  OA
ENDBRANCH 10 17
ENDBRANCH 7 10
ENDBRANCH 5 6
BRANCH 5 19
ATOM     19  CB  VAL D4843     -58.934  28.493  34.988  1.00 37.59 LIG 0.01  C 
ATOM     20  CG1 VAL D4843     -59.985  28.581  33.917  1.00 42.19 LIG 0.01  C 
ATOM     21  CG2 VAL D4843     -58.443  29.884  35.397  1.00 33.91 LIG 0.01  C 
ENDBRANCH 5 19
ENDBRANCH 3 5
BRANCH 1 22
ATOM     22  CA  VAL D4842     -57.037  26.821  39.069  1.00 42.26 LIG 0.18  C 
BRANCH 22 23
ATOM     23  N   VAL D4842     -56.837  27.184  40.475  1.00 51.43 LIG-0.34  N 
ATOM     24 H    VAL D4842     -57.567  27.331  40.905  1.00 51.43 LIG 0.16  HD
ATOM     25  C   LEU D4841     -55.629  27.275  41.027  1.00 54.30 LIG 0.26  C 
ATOM     26 O    LEU D4841     -55.456  27.412  42.236  1.00 66.57 LIG-0.27  OA
BRANCH 25 27
ATOM     27  CA  LEU D4841     -54.439  27.160  40.085  1.00 50.85 LIG 0.40  C 
ATOM     28  N   LEU D4841     -53.649  28.395  40.093  1.00 66.18 LIG 0.61  N 
BRANCH 27 29
ATOM     29  CB  LEU D4841     -53.558  25.969  40.481  1.00 58.40 LIG 0.06  C 
BRANCH 29 30
ATOM     30  CG  LEU D4841     -54.001  24.585  39.990  1.00 54.26 LIG-0.02  C 
ATOM     31  CD2 LEU D4841     -54.668  23.747  41.107  1.00 54.78 LIG 0.01  C 
ATOM     32  CD1 LEU D4841     -52.844  23.820  39.334  1.00 32.44 LIG 0.01  C 
ENDBRANCH 29 30
ENDBRANCH 27 29
ENDBRANCH 25 27
ENDBRANCH 22 23
BRANCH 22 33
ATOM     33  CB  VAL D4842     -56.976  25.287  38.856  1.00 48.47 LIG 0.01  C 
ATOM     34  CG2 VAL D4842     -56.260  24.941  37.580  1.00 42.42 LIG 0.01  C 
ATOM     35  CG1 VAL D4842     -58.387  24.726  38.826  1.00 34.87 LIG 0.01  C 
ENDBRANCH 22 33
ENDBRANCH 1 22
TORSDOF 13
ENDMDL
MODEL 12
USER: ADFR SOLUTION from run 68
USER: SCORE 7.772232 LL:  -2.266 LR:  -6.781 RR:   0.000 FEB:  -2.903
USER: RMSD 4.099359
USER: SEED 67
USER: STATUS no improvement in best in 38 clusters for 5 generations
USER: GENES 15
USER: genes 0 Translation |==|  0.62593 0.56801 0.51725
USER: genes 1 Rotation |==|  0.28435 0.14132 0.30049 0.68719
USER: genes 2 Torsion [C]-N--CA-[CB] |==|  0.18421
USER: genes 3 Torsion [N]-CA--C-[N] |==|  0.42910
USER: genes 4 Torsion [C]-N--CA-[CB] |==|  0.40070
USER: genes 5 Torsion [N]-CA--CB-[CG] |==|  0.16177
USER: genes 6 Torsion [CA]-CB--CG-[OD1] |==|  0.03675
USER: genes 7 Torsion [N]-CA--C-[O] |==|  0.02145
USER: genes 8 Torsion [N]-CA--CB-[CG2] |==|  0.62459
USER: genes 9 Torsion [N]-C--CA-[N] |==|  0.00924
USER: genes 10 Torsion [C]-CA--N-[C] |==|  0.63889
USER: genes 11 Torsion [N]-C--CA-[N] |==|  0.37993
USER: genes 12 Torsion [C]-CA--CB-[CG] |==|  0.45029
USER: genes 13 Torsion [CA]-CB--CG-[CD2] |==|  0.99439
USER: genes 14 Torsion [C]-CA--CB-[CG2] |==|  0.59304
ROOT
ATOM      1  C   VAL D4842     -54.396  28.689  39.339  1.00 57.35 LIG 0.24  C 
ATOM      2 O    VAL D4842     -53.817  27.659  39.704  1.00 61.28 LIG-0.27  OA
ATOM      3  N   VAL D4843     -55.610  28.678  38.805  1.00 52.36 LIG-0.35  N 
ATOM      4 H    VAL D4843     -56.085  29.388  38.706  1.00 52.36 LIG 0.16  HD
ENDROOT
BRANCH 3 5
ATOM      5  CA  VAL D4843     -56.267  27.468  38.332  1.00 37.99 LIG 0.18  C 
BRANCH 5 6
ATOM      6  C   VAL D4843     -57.568  27.982  37.668  1.00 51.29 LIG 0.24  C 
ATOM      7  N   ASN D4844     -58.140  27.257  36.716  1.00 50.43 LIG-0.35  N 
ATOM      8 H    ASN D4844     -57.862  26.492  36.438  1.00 50.43 LIG 0.16  HD
ATOM      9 O    VAL D4843     -58.062  29.063  38.018  1.00 47.22 LIG-0.27  OA
BRANCH 7 10
ATOM     10  CA  ASN D4844     -59.351  27.772  36.060  1.00 46.88 LIG 0.17  C 
BRANCH 10 11
ATOM     11  CB  ASN D4844     -59.360  27.388  34.581  1.00 66.72 LIG 0.14  C 
BRANCH 11 12
ATOM     12  CG  ASN D4844     -59.290  25.889  34.363  1.00 62.42 LIG 0.22  C 
ATOM     13 OD1  ASN D4844     -59.476  25.099  35.291  1.00 56.11 LIG-0.27  OA
ATOM     14  ND2 ASN D4844     -59.021  25.492  33.125  1.00 67.26 LIG-0.37  N 
ATOM     15 21HD ASN D4844     -58.970  24.652  32.944  1.00 67.26 LIG 0.16  HD
ATOM     16 22HD ASN D4844     -58.897  26.074  32.504  1.00 67.26 LIG 0.16  HD
ENDBRANCH 11 12
ENDBRANCH 10 11
BRANCH 10 17
ATOM     17  C   ASN D4844     -60.684  27.386  36.725  1.00 52.57 LIG 0.22  C 
ATOM     18 O    ASN D4844     -60.715  26.806  37.822  1.00 48.91 LIG-0.29  OA
ENDBRANCH 10 17
ENDBRANCH 7 10
ENDBRANCH 5 6
BRANCH 5 19
ATOM     19  CB  VAL D4843     -56.546  26.561  39.570  1.00 37.59 LIG 0.01  C 
ATOM     20  CG1 VAL D4843     -57.967  26.669  40.046  1.00 42.19 LIG 0.01  C 
ATOM     21  CG2 VAL D4843     -56.167  25.106  39.282  1.00 33.91 LIG 0.01  C 
ENDBRANCH 5 19
ENDBRANCH 3 5
BRANCH 1 22
ATOM     22  CA  VAL D4842     -53.775  30.088  39.523  1.00 42.26 LIG 0.18  C 
BRANCH 22 23
ATOM     23  N   VAL D4842     -54.625  31.226  39.159  1.00 51.43 LIG-0.34  N 
ATOM     24 H    VAL D4842     -55.412  31.199  39.507  1.00 51.43 LIG 0.16  HD
ATOM     25  C   LEU D4841     -54.208  32.207  38.362  1.00 54.30 LIG 0.26  C 
ATOM     26 O    LEU D4841     -54.847  33.242  38.187  1.00 66.57 LIG-0.27  OA
BRANCH 25 27
ATOM     27  CA  LEU D4841     -52.856  32.009  37.690  1.00 50.85 LIG 0.40  C 
ATOM     28  N   LEU D4841     -52.913  32.417  36.283  1.00 66.18 LIG 0.61  N 
BRANCH 27 29
ATOM     29  CB  LEU D4841     -51.773  32.806  38.427  1.00 58.40 LIG 0.06  C 
BRANCH 29 30
ATOM     30  CG  LEU D4841     -50.317  32.405  38.163  1.00 54.26 LIG-0.02  C 
ATOM     31  CD2 LEU D4841     -50.202  31.195  37.205  1.00 54.78 LIG 0.01  C 
ATOM     32  CD1 LEU D4841     -49.553  32.156  39.471  1.00 32.44 LIG 0.01  C 
ENDBRANCH 29 30
ENDBRANCH 27 29
ENDBRANCH 25 27
ENDBRANCH 22 23
BRANCH 22 33
ATOM     33  CB  VAL D4842     -53.186  30.242  40.948  1.00 48.47 LIG 0.01  C 
ATOM     34  CG2 VAL D4842     -53.323  31.654  41.446  1.00 42.42 LIG 0.01  C 
ATOM     35  CG1 VAL D4842     -51.721  29.838  40.934  1.00 34.87 LIG 0.01  C 
ENDBRANCH 22 33
ENDBRANCH 1 22
TORSDOF 13
ENDMDL
MODEL 13
USER: ADFR SOLUTION from run 119
USER: SCORE 7.766646 LL:  -2.099 LR:  -6.783 RR:   0.000 FEB:  -2.905
USER: RMSD 3.050861
USER: SEED 118
USER: STATUS no improvement in best in 36 clusters for 5 generations
USER: GENES 15
USER: genes 0 Translation |==|  0.50689 0.54530 0.47617
USER: genes 1 Rotation |==|  0.47146 0.48293 0.66593 0.97049
USER: genes 2 Torsion [C]-N--CA-[CB] |==|  0.49785
USER: genes 3 Torsion [N]-CA--C-[N] |==|  0.26343
USER: genes 4 Torsion [C]-N--CA-[CB] |==|  0.36600
USER: genes 5 Torsion [N]-CA--CB-[CG] |==|  0.25591
USER: genes 6 Torsion [CA]-CB--CG-[OD1] |==|  0.30684
USER: genes 7 Torsion [N]-CA--C-[O] |==|  0.14012
USER: genes 8 Torsion [N]-CA--CB-[CG2] |==|  0.88662
USER: genes 9 Torsion [N]-C--CA-[N] |==|  0.09453
USER: genes 10 Torsion [C]-CA--N-[C] |==|  0.16023
USER: genes 11 Torsion [N]-C--CA-[N] |==|  0.27420
USER: genes 12 Torsion [C]-CA--CB-[CG] |==|  0.68552
USER: genes 13 Torsion [CA]-CB--CG-[CD2] |==|  0.66101
USER: genes 14 Torsion [C]-CA--CB-[CG2] |==|  0.52877
ROOT
ATOM      1  C   VAL D4842     -56.895  28.314  38.723  1.00 57.35 LIG 0.24  C 
ATOM      2 O    VAL D4842     -57.125  28.317  37.507  1.00 61.28 LIG-0.27  OA
ATOM      3  N   VAL D4843     -56.204  27.352  39.319  1.00 52.36 LIG-0.35  N 
ATOM      4 H    VAL D4843     -55.896  27.422  40.119  1.00 52.36 LIG 0.16  HD
ENDROOT
BRANCH 3 5
ATOM      5  CA  VAL D4843     -55.894  26.078  38.686  1.00 37.99 LIG 0.18  C 
BRANCH 5 6
ATOM      6  C   VAL D4843     -57.282  25.454  38.399  1.00 51.29 LIG 0.24  C 
ATOM      7  N   ASN D4844     -57.835  25.625  37.205  1.00 50.43 LIG-0.35  N 
ATOM      8 H    ASN D4844     -57.476  26.043  36.545  1.00 50.43 LIG 0.16  HD
ATOM      9 O    VAL D4843     -57.870  24.809  39.279  1.00 47.22 LIG-0.27  OA
BRANCH 7 10
ATOM     10  CA  ASN D4844     -59.171  25.066  36.955  1.00 46.88 LIG 0.17  C 
BRANCH 10 11
ATOM     11  CB  ASN D4844     -60.075  26.116  36.309  1.00 66.72 LIG 0.14  C 
BRANCH 11 12
ATOM     12  CG  ASN D4844     -60.047  26.063  34.794  1.00 62.42 LIG 0.22  C 
ATOM     13 OD1  ASN D4844     -61.025  25.679  34.149  1.00 56.11 LIG-0.27  OA
ATOM     14  ND2 ASN D4844     -58.915  26.451  34.219  1.00 67.26 LIG-0.37  N 
ATOM     15 21HD ASN D4844     -58.843  26.442  33.361  1.00 67.26 LIG 0.16  HD
ATOM     16 22HD ASN D4844     -58.254  26.712  34.703  1.00 67.26 LIG 0.16  HD
ENDBRANCH 11 12
ENDBRANCH 10 11
BRANCH 10 17
ATOM     17  C   ASN D4844     -59.206  23.757  36.148  1.00 52.57 LIG 0.22  C 
ATOM     18 O    ASN D4844     -58.497  22.786  36.460  1.00 48.91 LIG-0.29  OA
ENDBRANCH 10 17
ENDBRANCH 7 10
ENDBRANCH 5 6
BRANCH 5 19
ATOM     19  CB  VAL D4843     -55.057  25.234  39.697  1.00 37.59 LIG 0.01  C 
ATOM     20  CG1 VAL D4843     -54.399  24.051  39.044  1.00 42.19 LIG 0.01  C 
ATOM     21  CG2 VAL D4843     -54.031  26.107  40.424  1.00 33.91 LIG 0.01  C 
ENDBRANCH 5 19
ENDBRANCH 3 5
BRANCH 1 22
ATOM     22  CA  VAL D4842     -57.347  29.462  39.646  1.00 42.26 LIG 0.18  C 
BRANCH 22 23
ATOM     23  N   VAL D4842     -56.435  29.812  40.739  1.00 51.43 LIG-0.34  N 
ATOM     24 H    VAL D4842     -56.788  29.756  41.521  1.00 51.43 LIG 0.16  HD
ATOM     25  C   LEU D4841     -55.173  30.181  40.528  1.00 54.30 LIG 0.26  C 
ATOM     26 O    LEU D4841     -54.356  30.312  41.437  1.00 66.57 LIG-0.27  OA
BRANCH 25 27
ATOM     27  CA  LEU D4841     -54.760  30.401  39.080  1.00 50.85 LIG 0.40  C 
ATOM     28  N   LEU D4841     -54.793  31.827  38.743  1.00 66.18 LIG 0.61  N 
BRANCH 27 29
ATOM     29  CB  LEU D4841     -53.357  29.833  38.833  1.00 58.40 LIG 0.06  C 
BRANCH 29 30
ATOM     30  CG  LEU D4841     -52.246  30.842  38.518  1.00 54.26 LIG-0.02  C 
ATOM     31  CD2 LEU D4841     -51.566  30.566  37.156  1.00 54.78 LIG 0.01  C 
ATOM     32  CD1 LEU D4841     -51.215  30.919  39.652  1.00 32.44 LIG 0.01  C 
ENDBRANCH 29 30
ENDBRANCH 27 29
ENDBRANCH 25 27
ENDBRANCH 22 23
BRANCH 22 33
ATOM     33  CB  VAL D4842     -57.753  30.706  38.815  1.00 48.47 LIG 0.01  C 
ATOM     34  CG2 VAL D4842     -57.955  31.908  39.694  1.00 42.42 LIG 0.01  C 
ATOM     35  CG1 VAL D4842     -59.030  30.405  38.048  1.00 34.87 LIG 0.01  C 
ENDBRANCH 22 33
ENDBRANCH 1 22
TORSDOF 13
ENDMDL
MODEL 14
USER: ADFR SOLUTION from run 49
USER: SCORE 7.998726 LL:  -2.237 LR:  -6.736 RR:   0.000 FEB:  -2.858
USER: RMSD 4.387298
USER: SEED 48
USER: STATUS no improvement in best in 42 clusters for 5 generations
USER: GENES 15
USER: genes 0 Translation |==|  0.50662 0.65044 0.47108
USER: genes 1 Rotation |==|  0.82064 0.81017 0.69932 0.60610
USER: genes 2 Torsion [C]-N--CA-[CB] |==|  0.51116
USER: genes 3 Torsion [N]-CA--C-[N] |==|  0.42008
USER: genes 4 Torsion [C]-N--CA-[CB] |==|  0.77800
USER: genes 5 Torsion [N]-CA--CB-[CG] |==|  0.92174
USER: genes 6 Torsion [CA]-CB--CG-[OD1] |==|  0.88222
USER: genes 7 Torsion [N]-CA--C-[O] |==|  0.09074
USER: genes 8 Torsion [N]-CA--CB-[CG2] |==|  0.82668
USER: genes 9 Torsion [N]-C--CA-[N] |==|  0.27362
USER: genes 10 Torsion [C]-CA--N-[C] |==|  0.58333
USER: genes 11 Torsion [N]-C--CA-[N] |==|  0.32166
USER: genes 12 Torsion [C]-CA--CB-[CG] |==|  0.45006
USER: genes 13 Torsion [CA]-CB--CG-[CD2] |==|  0.32601
USER: genes 14 Torsion [C]-CA--CB-[CG2] |==|  0.11020
ROOT
ATOM      1  C   VAL D4842     -56.901  30.049  38.646  1.00 57.35 LIG 0.24  C 
ATOM      2 O    VAL D4842     -57.608  29.542  39.526  1.00 61.28 LIG-0.27  OA
ATOM      3  N   VAL D4843     -57.340  30.272  37.414  1.00 52.36 LIG-0.35  N 
ATOM      4 H    VAL D4843     -56.924  30.771  36.851  1.00 52.36 LIG 0.16  HD
ENDROOT
BRANCH 3 5
ATOM      5  CA  VAL D4843     -58.570  29.700  36.886  1.00 37.99 LIG 0.18  C 
BRANCH 5 6
ATOM      6  C   VAL D4843     -58.382  28.173  37.069  1.00 51.29 LIG 0.24  C 
ATOM      7  N   ASN D4844     -59.450  27.405  37.242  1.00 50.43 LIG-0.35  N 
ATOM      8 H    ASN D4844     -60.265  27.678  37.239  1.00 50.43 LIG 0.16  HD
ATOM      9 O    VAL D4843     -57.245  27.679  37.062  1.00 47.22 LIG-0.27  OA
BRANCH 7 10
ATOM     10  CA  ASN D4844     -59.261  25.963  37.458  1.00 46.88 LIG 0.17  C 
BRANCH 10 11
ATOM     11  CB  ASN D4844     -59.012  25.254  36.127  1.00 66.72 LIG 0.14  C 
BRANCH 11 12
ATOM     12  CG  ASN D4844     -59.661  25.963  34.955  1.00 62.42 LIG 0.22  C 
ATOM     13 OD1  ASN D4844     -60.802  26.422  35.036  1.00 56.11 LIG-0.27  OA
ATOM     14  ND2 ASN D4844     -58.928  26.054  33.851  1.00 67.26 LIG-0.37  N 
ATOM     15 21HD ASN D4844     -59.247  26.447  33.155  1.00 67.26 LIG 0.16  HD
ATOM     16 22HD ASN D4844     -58.136  25.720  33.832  1.00 67.26 LIG 0.16  HD
ENDBRANCH 11 12
ENDBRANCH 10 11
BRANCH 10 17
ATOM     17  C   ASN D4844     -58.180  25.579  38.483  1.00 52.57 LIG 0.22  C 
ATOM     18 O    ASN D4844     -57.944  26.294  39.471  1.00 48.91 LIG-0.29  OA
ENDBRANCH 10 17
ENDBRANCH 7 10
ENDBRANCH 5 6
BRANCH 5 19
ATOM     19  CB  VAL D4843     -58.682  30.111  35.385  1.00 37.59 LIG 0.01  C 
ATOM     20  CG1 VAL D4843     -59.823  29.424  34.689  1.00 42.19 LIG 0.01  C 
ATOM     21  CG2 VAL D4843     -58.780  31.633  35.239  1.00 33.91 LIG 0.01  C 
ENDBRANCH 5 19
ENDBRANCH 3 5
BRANCH 1 22
ATOM     22  CA  VAL D4842     -55.459  30.518  38.920  1.00 42.26 LIG 0.18  C 
BRANCH 22 23
ATOM     23  N   VAL D4842     -55.316  31.815  39.589  1.00 51.43 LIG-0.34  N 
ATOM     24 H    VAL D4842     -55.967  32.009  40.116  1.00 51.43 LIG 0.16  HD
ATOM     25  C   LEU D4841     -54.267  32.611  39.392  1.00 54.30 LIG 0.26  C 
ATOM     26 O    LEU D4841     -54.056  33.615  40.069  1.00 66.57 LIG-0.27  OA
BRANCH 25 27
ATOM     27  CA  LEU D4841     -53.296  32.199  38.295  1.00 50.85 LIG 0.40  C 
ATOM     28  N   LEU D4841     -53.281  33.192  37.216  1.00 66.18 LIG 0.61  N 
BRANCH 27 29
ATOM     29  CB  LEU D4841     -51.885  32.025  38.870  1.00 58.40 LIG 0.06  C 
BRANCH 29 30
ATOM     30  CG  LEU D4841     -50.888  31.219  38.028  1.00 54.26 LIG-0.02  C 
ATOM     31  CD2 LEU D4841     -49.673  32.066  37.580  1.00 54.78 LIG 0.01  C 
ATOM     32  CD1 LEU D4841     -51.573  30.547  36.830  1.00 32.44 LIG 0.01  C 
ENDBRANCH 29 30
ENDBRANCH 27 29
ENDBRANCH 25 27
ENDBRANCH 22 23
BRANCH 22 33
ATOM     33  CB  VAL D4842     -54.650  29.408  39.639  1.00 48.47 LIG 0.01  C 
ATOM     34  CG2 VAL D4842     -54.976  28.049  39.083  1.00 42.42 LIG 0.01  C 
ATOM     35  CG1 VAL D4842     -54.956  29.444  41.127  1.00 34.87 LIG 0.01  C 
ENDBRANCH 22 33
ENDBRANCH 1 22
TORSDOF 13
ENDMDL
MODEL 15
USER: ADFR SOLUTION from run 91
USER: SCORE 8.328205 LL:  -2.246 LR:  -6.718 RR:   0.000 FEB:  -2.840
USER: RMSD 3.518255
USER: SEED 90
USER: STATUS no improvement in best in 34 clusters for 5 generations
USER: GENES 15
USER: genes 0 Translation |==|  0.49714 0.47053 0.42559
USER: genes 1 Rotation |==|  0.53716 0.46711 0.48570 0.99733
USER: genes 2 Torsion [C]-N--CA-[CB] |==|  0.53975
USER: genes 3 Torsion [N]-CA--C-[N] |==|  0.35366
USER: genes 4 Torsion [C]-N--CA-[CB] |==|  0.48516
USER: genes 5 Torsion [N]-CA--CB-[CG] |==|  0.13067
USER: genes 6 Torsion [CA]-CB--CG-[OD1] |==|  0.60332
USER: genes 7 Torsion [N]-CA--C-[O] |==|  0.87409
USER: genes 8 Torsion [N]-CA--CB-[CG2] |==|  0.86444
USER: genes 9 Torsion [N]-C--CA-[N] |==|  0.33988
USER: genes 10 Torsion [C]-CA--N-[C] |==|  0.70147
USER: genes 11 Torsion [N]-C--CA-[N] |==|  0.83619
USER: genes 12 Torsion [C]-CA--CB-[CG] |==|  0.39118
USER: genes 13 Torsion [CA]-CB--CG-[CD2] |==|  0.92678
USER: genes 14 Torsion [C]-CA--CB-[CG2] |==|  0.14813
ROOT
ATOM      1  C   VAL D4842     -57.100  27.081  37.964  1.00 57.35 LIG 0.24  C 
ATOM      2 O    VAL D4842     -57.133  27.564  36.826  1.00 61.28 LIG-0.27  OA
ATOM      3  N   VAL D4843     -57.270  25.786  38.198  1.00 52.36 LIG-0.35  N 
ATOM      4 H    VAL D4843     -57.083  25.417  38.952  1.00 52.36 LIG 0.16  HD
ENDROOT
BRANCH 3 5
ATOM      5  CA  VAL D4843     -57.788  24.854  37.207  1.00 37.99 LIG 0.18  C 
BRANCH 5 6
ATOM      6  C   VAL D4843     -59.013  25.586  36.607  1.00 51.29 LIG 0.24  C 
ATOM      7  N   ASN D4844     -59.104  25.727  35.291  1.00 50.43 LIG-0.35  N 
ATOM      8 H    ASN D4844     -58.541  25.421  34.718  1.00 50.43 LIG 0.16  HD
ATOM      9 O    VAL D4843     -59.894  26.042  37.351  1.00 47.22 LIG-0.27  OA
BRANCH 7 10
ATOM     10  CA  ASN D4844     -60.248  26.461  34.732  1.00 46.88 LIG 0.17  C 
BRANCH 10 11
ATOM     11  CB  ASN D4844     -60.091  26.620  33.220  1.00 66.72 LIG 0.14  C 
BRANCH 11 12
ATOM     12  CG  ASN D4844     -59.700  25.327  32.532  1.00 62.42 LIG 0.22  C 
ATOM     13 OD1  ASN D4844     -58.916  25.319  31.580  1.00 56.11 LIG-0.27  OA
ATOM     14  ND2 ASN D4844     -60.249  24.219  33.017  1.00 67.26 LIG-0.37  N 
ATOM     15 21HD ASN D4844     -60.061  23.457  32.666  1.00 67.26 LIG 0.16  HD
ATOM     16 22HD ASN D4844     -60.792  24.265  33.683  1.00 67.26 LIG 0.16  HD
ENDBRANCH 11 12
ENDBRANCH 10 11
BRANCH 10 17
ATOM     17  C   ASN D4844     -61.636  25.892  35.072  1.00 52.57 LIG 0.22  C 
ATOM     18 O    ASN D4844     -61.873  24.676  34.991  1.00 48.91 LIG-0.29  OA
ENDBRANCH 10 17
ENDBRANCH 7 10
ENDBRANCH 5 6
BRANCH 5 19
ATOM     19  CB  VAL D4843     -58.182  23.539  37.949  1.00 37.59 LIG 0.01  C 
ATOM     20  CG1 VAL D4843     -58.597  22.451  36.999  1.00 42.19 LIG 0.01  C 
ATOM     21  CG2 VAL D4843     -57.054  23.069  38.871  1.00 33.91 LIG 0.01  C 
ENDBRANCH 5 19
ENDBRANCH 3 5
BRANCH 1 22
ATOM     22  CA  VAL D4842     -56.804  27.937  39.211  1.00 42.26 LIG 0.18  C 
BRANCH 22 23
ATOM     23  N   VAL D4842     -55.554  28.703  39.188  1.00 51.43 LIG-0.34  N 
ATOM     24 H    VAL D4842     -55.569  29.379  38.656  1.00 51.43 LIG 0.16  HD
ATOM     25  C   LEU D4841     -54.497  28.374  39.927  1.00 54.30 LIG 0.26  C 
ATOM     26 O    LEU D4841     -53.512  29.099  40.043  1.00 66.57 LIG-0.27  OA
BRANCH 25 27
ATOM     27  CA  LEU D4841     -54.575  27.050  40.674  1.00 50.85 LIG 0.40  C 
ATOM     28  N   LEU D4841     -55.722  27.036  41.587  1.00 66.18 LIG 0.61  N 
BRANCH 27 29
ATOM     29  CB  LEU D4841     -54.676  25.884  39.683  1.00 58.40 LIG 0.06  C 
BRANCH 29 30
ATOM     30  CG  LEU D4841     -53.892  24.612  40.026  1.00 54.26 LIG-0.02  C 
ATOM     31  CD2 LEU D4841     -52.660  24.900  40.917  1.00 54.78 LIG 0.01  C 
ATOM     32  CD1 LEU D4841     -53.498  23.832  38.764  1.00 32.44 LIG 0.01  C 
ENDBRANCH 29 30
ENDBRANCH 27 29
ENDBRANCH 25 27
ENDBRANCH 22 23
BRANCH 22 33
ATOM     33  CB  VAL D4842     -58.021  28.830  39.562  1.00 48.47 LIG 0.01  C 
ATOM     34  CG2 VAL D4842     -59.277  28.015  39.691  1.00 42.42 LIG 0.01  C 
ATOM     35  CG1 VAL D4842     -58.198  29.887  38.486  1.00 34.87 LIG 0.01  C 
ENDBRANCH 22 33
ENDBRANCH 1 22
TORSDOF 13
ENDMDL
MODEL 16
USER: ADFR SOLUTION from run 125
USER: SCORE 7.696187 LL:  -2.516 LR:  -6.718 RR:   0.000 FEB:  -2.840
USER: RMSD 5.758647
USER: SEED 124
USER: STATUS no improvement in best in 38 clusters for 5 generations
USER: GENES 15
USER: genes 0 Translation |==|  0.47452 0.48584 0.41701
USER: genes 1 Rotation |==|  0.43100 0.12868 0.49066 0.82753
USER: genes 2 Torsion [C]-N--CA-[CB] |==|  0.29444
USER: genes 3 Torsion [N]-CA--C-[N] |==|  0.30567
USER: genes 4 Torsion [C]-N--CA-[CB] |==|  0.43621
USER: genes 5 Torsion [N]-CA--CB-[CG] |==|  0.82229
USER: genes 6 Torsion [CA]-CB--CG-[OD1] |==|  0.61206
USER: genes 7 Torsion [N]-CA--C-[O] |==|  0.02785
USER: genes 8 Torsion [N]-CA--CB-[CG2] |==|  0.80095
USER: genes 9 Torsion [N]-C--CA-[N] |==|  0.26395
USER: genes 10 Torsion [C]-CA--N-[C] |==|  0.74177
USER: genes 11 Torsion [N]-C--CA-[N] |==|  0.38397
USER: genes 12 Torsion [C]-CA--CB-[CG] |==|  0.26333
USER: genes 13 Torsion [CA]-CB--CG-[CD2] |==|  0.48794
USER: genes 14 Torsion [C]-CA--CB-[CG2] |==|  0.55358
ROOT
ATOM      1  C   VAL D4842     -57.575  27.333  37.835  1.00 57.35 LIG 0.24  C 
ATOM      2 O    VAL D4842     -56.341  27.341  37.751  1.00 61.28 LIG-0.27  OA
ATOM      3  N   VAL D4843     -58.282  26.213  37.914  1.00 52.36 LIG-0.35  N 
ATOM      4 H    VAL D4843     -59.111  26.196  38.141  1.00 52.36 LIG 0.16  HD
ENDROOT
BRANCH 3 5
ATOM      5  CA  VAL D4843     -57.731  24.897  37.626  1.00 37.99 LIG 0.18  C 
BRANCH 5 6
ATOM      6  C   VAL D4843     -58.804  24.228  36.733  1.00 51.29 LIG 0.24  C 
ATOM      7  N   ASN D4844     -58.541  24.019  35.449  1.00 50.43 LIG-0.35  N 
ATOM      8 H    ASN D4844     -57.799  24.204  35.057  1.00 50.43 LIG 0.16  HD
ATOM      9 O    VAL D4843     -59.899  23.899  37.212  1.00 47.22 LIG-0.27  OA
BRANCH 7 10
ATOM     10  CA  ASN D4844     -59.581  23.423  34.598  1.00 46.88 LIG 0.17  C 
BRANCH 10 11
ATOM     11  CB  ASN D4844     -59.335  23.776  33.131  1.00 66.72 LIG 0.14  C 
BRANCH 11 12
ATOM     12  CG  ASN D4844     -59.442  25.264  32.861  1.00 62.42 LIG 0.22  C 
ATOM     13 OD1  ASN D4844     -59.990  25.692  31.843  1.00 56.11 LIG-0.27  OA
ATOM     14  ND2 ASN D4844     -58.915  26.063  33.781  1.00 67.26 LIG-0.37  N 
ATOM     15 21HD ASN D4844     -58.947  26.917  33.679  1.00 67.26 LIG 0.16  HD
ATOM     16 22HD ASN D4844     -58.540  25.727  34.479  1.00 67.26 LIG 0.16  HD
ENDBRANCH 11 12
ENDBRANCH 10 11
BRANCH 10 17
ATOM     17  C   ASN D4844     -59.787  21.907  34.760  1.00 52.57 LIG 0.22  C 
ATOM     18 O    ASN D4844     -59.247  21.277  35.684  1.00 48.91 LIG-0.29  OA
ENDBRANCH 10 17
ENDBRANCH 7 10
ENDBRANCH 5 6
BRANCH 5 19
ATOM     19  CB  VAL D4843     -57.536  24.153  38.984  1.00 37.59 LIG 0.01  C 
ATOM     20  CG1 VAL D4843     -57.363  22.672  38.803  1.00 42.19 LIG 0.01  C 
ATOM     21  CG2 VAL D4843     -56.373  24.755  39.778  1.00 33.91 LIG 0.01  C 
ENDBRANCH 5 19
ENDBRANCH 3 5
BRANCH 1 22
ATOM     22  CA  VAL D4842     -58.400  28.633  37.911  1.00 42.26 LIG 0.18  C 
BRANCH 22 23
ATOM     23  N   VAL D4842     -58.518  29.248  39.236  1.00 51.43 LIG-0.34  N 
ATOM     24 H    VAL D4842     -57.875  29.786  39.430  1.00 51.43 LIG 0.16  HD
ATOM     25  C   LEU D4841     -59.534  28.993  40.058  1.00 54.30 LIG 0.26  C 
ATOM     26 O    LEU D4841     -59.730  29.625  41.093  1.00 66.57 LIG-0.27  OA
BRANCH 25 27
ATOM     27  CA  LEU D4841     -60.489  27.885  39.635  1.00 50.85 LIG 0.40  C 
ATOM     28  N   LEU D4841     -60.853  27.048  40.783  1.00 66.18 LIG 0.61  N 
BRANCH 27 29
ATOM     29  CB  LEU D4841     -61.749  28.482  38.998  1.00 58.40 LIG 0.06  C 
BRANCH 29 30
ATOM     30  CG  LEU D4841     -61.765  28.600  37.469  1.00 54.26 LIG-0.02  C 
ATOM     31  CD2 LEU D4841     -63.121  29.113  36.930  1.00 54.78 LIG 0.01  C 
ATOM     32  CD1 LEU D4841     -61.359  27.281  36.797  1.00 32.44 LIG 0.01  C 
ENDBRANCH 29 30
ENDBRANCH 27 29
ENDBRANCH 25 27
ENDBRANCH 22 23
BRANCH 22 33
ATOM     33  CB  VAL D4842     -57.919  29.649  36.844  1.00 48.47 LIG 0.01  C 
ATOM     34  CG2 VAL D4842     -58.358  31.046  37.184  1.00 42.42 LIG 0.01  C 
ATOM     35  CG1 VAL D4842     -58.467  29.251  35.484  1.00 34.87 LIG 0.01  C 
ENDBRANCH 22 33
ENDBRANCH 1 22
TORSDOF 13
ENDMDL
MODEL 17
USER: ADFR SOLUTION from run 56
USER: SCORE 8.534636 LL:  -2.824 LR:  -6.673 RR:   0.000 FEB:  -2.795
USER: RMSD 4.036110
USER: SEED 55
USER: STATUS no improvement in best in 42 clusters for 5 generations
USER: GENES 15
USER: genes 0 Translation |==|  0.49919 0.52467 0.44814
USER: genes 1 Rotation |==|  0.38530 0.35696 0.14963 0.80598
USER: genes 2 Torsion [C]-N--CA-[CB] |==|  0.87778
USER: genes 3 Torsion [N]-CA--C-[N] |==|  0.78410
USER: genes 4 Torsion [C]-N--CA-[CB] |==|  0.36773
USER: genes 5 Torsion [N]-CA--CB-[CG] |==|  0.85102
USER: genes 6 Torsion [CA]-CB--CG-[OD1] |==|  0.78144
USER: genes 7 Torsion [N]-CA--C-[O] |==|  0.90049
USER: genes 8 Torsion [N]-CA--CB-[CG2] |==|  0.79720
USER: genes 9 Torsion [N]-C--CA-[N] |==|  0.95338
USER: genes 10 Torsion [C]-CA--N-[C] |==|  0.75757
USER: genes 11 Torsion [N]-C--CA-[N] |==|  0.37188
USER: genes 12 Torsion [C]-CA--CB-[CG] |==|  0.27716
USER: genes 13 Torsion [CA]-CB--CG-[CD2] |==|  0.70189
USER: genes 14 Torsion [C]-CA--CB-[CG2] |==|  0.20430
ROOT
ATOM      1  C   VAL D4842     -57.057  27.974  38.302  1.00 57.35 LIG 0.24  C 
ATOM      2 O    VAL D4842     -56.693  27.294  37.335  1.00 61.28 LIG-0.27  OA
ATOM      3  N   VAL D4843     -58.299  28.420  38.438  1.00 52.36 LIG-0.35  N 
ATOM      4 H    VAL D4843     -58.604  28.743  39.174  1.00 52.36 LIG 0.16  HD
ENDROOT
BRANCH 3 5
ATOM      5  CA  VAL D4843     -59.276  28.411  37.359  1.00 37.99 LIG 0.18  C 
BRANCH 5 6
ATOM      6  C   VAL D4843     -59.709  26.928  37.256  1.00 51.29 LIG 0.24  C 
ATOM      7  N   ASN D4844     -58.909  26.060  36.649  1.00 50.43 LIG-0.35  N 
ATOM      8 H    ASN D4844     -58.137  26.243  36.317  1.00 50.43 LIG 0.16  HD
ATOM      9 O    VAL D4843     -60.793  26.560  37.729  1.00 47.22 LIG-0.27  OA
BRANCH 7 10
ATOM     10  CA  ASN D4844     -59.346  24.663  36.518  1.00 46.88 LIG 0.17  C 
BRANCH 10 11
ATOM     11  CB  ASN D4844     -59.135  24.171  35.086  1.00 66.72 LIG 0.14  C 
BRANCH 11 12
ATOM     12  CG  ASN D4844     -59.784  25.074  34.055  1.00 62.42 LIG 0.22  C 
ATOM     13 OD1  ASN D4844     -60.996  25.025  33.833  1.00 56.11 LIG-0.27  OA
ATOM     14  ND2 ASN D4844     -58.972  25.909  33.418  1.00 67.26 LIG-0.37  N 
ATOM     15 21HD ASN D4844     -59.286  26.445  32.823  1.00 67.26 LIG 0.16  HD
ATOM     16 22HD ASN D4844     -58.131  25.914  33.600  1.00 67.26 LIG 0.16  HD
ENDBRANCH 11 12
ENDBRANCH 10 11
BRANCH 10 17
ATOM     17  C   ASN D4844     -58.729  23.674  37.523  1.00 52.57 LIG 0.22  C 
ATOM     18 O    ASN D4844     -57.554  23.791  37.906  1.00 48.91 LIG-0.29  OA
ENDBRANCH 10 17
ENDBRANCH 7 10
ENDBRANCH 5 6
BRANCH 5 19
ATOM     19  CB  VAL D4843     -58.564  28.916  36.066  1.00 37.59 LIG 0.01  C 
ATOM     20  CG1 VAL D4843     -59.317  28.547  34.819  1.00 42.19 LIG 0.01  C 
ATOM     21  CG2 VAL D4843     -58.309  30.425  36.132  1.00 33.91 LIG 0.01  C 
ENDBRANCH 5 19
ENDBRANCH 3 5
BRANCH 1 22
ATOM     22  CA  VAL D4842     -56.108  28.318  39.467  1.00 42.26 LIG 0.18  C 
BRANCH 22 23
ATOM     23  N   VAL D4842     -56.552  29.385  40.369  1.00 51.43 LIG-0.34  N 
ATOM     24 H    VAL D4842     -56.987  29.104  41.055  1.00 51.43 LIG 0.16  HD
ATOM     25  C   LEU D4841     -56.298  30.671  40.138  1.00 54.30 LIG 0.26  C 
ATOM     26 O    LEU D4841     -56.516  31.554  40.965  1.00 66.57 LIG-0.27  OA
BRANCH 25 27
ATOM     27  CA  LEU D4841     -55.676  31.011  38.791  1.00 50.85 LIG 0.40  C 
ATOM     28  N   LEU D4841     -56.357  32.155  38.178  1.00 66.18 LIG 0.61  N 
BRANCH 27 29
ATOM     29  CB  LEU D4841     -54.182  31.314  38.956  1.00 58.40 LIG 0.06  C 
BRANCH 29 30
ATOM     30  CG  LEU D4841     -53.202  30.187  38.606  1.00 54.26 LIG-0.02  C 
ATOM     31  CD2 LEU D4841     -52.550  29.561  39.861  1.00 54.78 LIG 0.01  C 
ATOM     32  CD1 LEU D4841     -52.142  30.652  37.598  1.00 32.44 LIG 0.01  C 
ENDBRANCH 29 30
ENDBRANCH 27 29
ENDBRANCH 25 27
ENDBRANCH 22 23
BRANCH 22 33
ATOM     33  CB  VAL D4842     -55.708  27.037  40.243  1.00 48.47 LIG 0.01  C 
ATOM     34  CG2 VAL D4842     -54.733  26.206  39.458  1.00 42.42 LIG 0.01  C 
ATOM     35  CG1 VAL D4842     -56.954  26.223  40.548  1.00 34.87 LIG 0.01  C 
ENDBRANCH 22 33
ENDBRANCH 1 22
TORSDOF 13
ENDMDL
MODEL 18
USER: ADFR SOLUTION from run 47
USER: SCORE 7.971523 LL:  -2.277 LR:  -6.672 RR:   0.000 FEB:  -2.794
USER: RMSD 3.977900
USER: SEED 46
USER: STATUS no improvement in best in 36 clusters for 5 generations
USER: GENES 15
USER: genes 0 Translation |==|  0.49625 0.43853 0.48224
USER: genes 1 Rotation |==|  0.69551 0.83832 0.65684 0.76967
USER: genes 2 Torsion [C]-N--CA-[CB] |==|  0.88484
USER: genes 3 Torsion [N]-CA--C-[N] |==|  0.28958
USER: genes 4 Torsion [C]-N--CA-[CB] |==|  0.47665
USER: genes 5 Torsion [N]-CA--CB-[CG] |==|  0.12832
USER: genes 6 Torsion [CA]-CB--CG-[OD1] |==|  0.60430
USER: genes 7 Torsion [N]-CA--C-[O] |==|  0.84900
USER: genes 8 Torsion [N]-CA--CB-[CG2] |==|  0.76358
USER: genes 9 Torsion [N]-C--CA-[N] |==|  0.47553
USER: genes 10 Torsion [C]-CA--N-[C] |==|  0.65080
USER: genes 11 Torsion [N]-C--CA-[N] |==|  0.31088
USER: genes 12 Torsion [C]-CA--CB-[CG] |==|  0.25330
USER: genes 13 Torsion [CA]-CB--CG-[CD2] |==|  0.67125
USER: genes 14 Torsion [C]-CA--CB-[CG2] |==|  0.91873
ROOT
ATOM      1  C   VAL D4842     -57.119  26.553  38.814  1.00 57.35 LIG 0.24  C 
ATOM      2 O    VAL D4842     -58.189  26.519  39.433  1.00 61.28 LIG-0.27  OA
ATOM      3  N   VAL D4843     -56.924  25.887  37.683  1.00 52.36 LIG-0.35  N 
ATOM      4 H    VAL D4843     -56.256  26.033  37.161  1.00 52.36 LIG 0.16  HD
ENDROOT
BRANCH 3 5
ATOM      5  CA  VAL D4843     -57.816  24.840  37.205  1.00 37.99 LIG 0.18  C 
BRANCH 5 6
ATOM      6  C   VAL D4843     -59.013  25.615  36.601  1.00 51.29 LIG 0.24  C 
ATOM      7  N   ASN D4844     -59.125  25.709  35.282  1.00 50.43 LIG-0.35  N 
ATOM      8 H    ASN D4844     -58.592  25.350  34.711  1.00 50.43 LIG 0.16  HD
ATOM      9 O    VAL D4843     -59.851  26.146  37.344  1.00 47.22 LIG-0.27  OA
BRANCH 7 10
ATOM     10  CA  ASN D4844     -60.240  26.482  34.717  1.00 46.88 LIG 0.17  C 
BRANCH 10 11
ATOM     11  CB  ASN D4844     -60.068  26.638  33.206  1.00 66.72 LIG 0.14  C 
BRANCH 11 12
ATOM     12  CG  ASN D4844     -59.696  25.338  32.521  1.00 62.42 LIG 0.22  C 
ATOM     13 OD1  ASN D4844     -58.901  25.315  31.580  1.00 56.11 LIG-0.27  OA
ATOM     14  ND2 ASN D4844     -60.275  24.242  32.997  1.00 67.26 LIG-0.37  N 
ATOM     15 21HD ASN D4844     -60.100  23.476  32.647  1.00 67.26 LIG 0.16  HD
ATOM     16 22HD ASN D4844     -60.826  24.298  33.656  1.00 67.26 LIG 0.16  HD
ENDBRANCH 11 12
ENDBRANCH 10 11
BRANCH 10 17
ATOM     17  C   ASN D4844     -61.649  25.959  35.048  1.00 52.57 LIG 0.22  C 
ATOM     18 O    ASN D4844     -61.975  24.786  34.807  1.00 48.91 LIG-0.29  OA
ENDBRANCH 10 17
ENDBRANCH 7 10
ENDBRANCH 5 6
BRANCH 5 19
ATOM     19  CB  VAL D4843     -58.227  23.967  38.431  1.00 37.59 LIG 0.01  C 
ATOM     20  CG1 VAL D4843     -59.599  23.376  38.275  1.00 42.19 LIG 0.01  C 
ATOM     21  CG2 VAL D4843     -57.184  22.880  38.706  1.00 33.91 LIG 0.01  C 
ENDBRANCH 5 19
ENDBRANCH 3 5
BRANCH 1 22
ATOM     22  CA  VAL D4842     -55.930  27.419  39.275  1.00 42.26 LIG 0.18  C 
BRANCH 22 23
ATOM     23  N   VAL D4842     -56.185  28.317  40.405  1.00 51.43 LIG-0.34  N 
ATOM     24 H    VAL D4842     -56.501  27.922  41.101  1.00 51.43 LIG 0.16  HD
ATOM     25  C   LEU D4841     -55.944  29.625  40.349  1.00 54.30 LIG 0.26  C 
ATOM     26 O    LEU D4841     -55.994  30.356  41.337  1.00 66.57 LIG-0.27  OA
BRANCH 25 27
ATOM     27  CA  LEU D4841     -55.557  30.189  38.990  1.00 50.85 LIG 0.40  C 
ATOM     28  N   LEU D4841     -56.613  31.063  38.471  1.00 66.18 LIG 0.61  N 
BRANCH 27 29
ATOM     29  CB  LEU D4841     -54.236  30.961  39.089  1.00 58.40 LIG 0.06  C 
BRANCH 29 30
ATOM     30  CG  LEU D4841     -52.948  30.170  38.828  1.00 54.26 LIG-0.02  C 
ATOM     31  CD2 LEU D4841     -52.012  30.142  40.060  1.00 54.78 LIG 0.01  C 
ATOM     32  CD1 LEU D4841     -52.215  30.679  37.580  1.00 32.44 LIG 0.01  C 
ENDBRANCH 29 30
ENDBRANCH 27 29
ENDBRANCH 25 27
ENDBRANCH 22 23
BRANCH 22 33
ATOM     33  CB  VAL D4842     -54.673  26.543  39.508  1.00 48.47 LIG 0.01  C 
ATOM     34  CG2 VAL D4842     -55.049  25.147  39.920  1.00 42.42 LIG 0.01  C 
ATOM     35  CG1 VAL D4842     -53.804  27.182  40.578  1.00 34.87 LIG 0.01  C 
ENDBRANCH 22 33
ENDBRANCH 1 22
TORSDOF 13
ENDMDL
MODEL 19
USER: ADFR SOLUTION from run 122
USER: SCORE 9.257524 LL:  -3.380 LR:  -6.647 RR:   0.000 FEB:  -2.770
USER: RMSD 5.638079
USER: SEED 121
USER: STATUS no improvement in best in 33 clusters for 5 generations
USER: GENES 15
USER: genes 0 Translation |==|  0.45628 0.50886 0.41266
USER: genes 1 Rotation |==|  0.47286 0.34120 0.52006 0.97291
USER: genes 2 Torsion [C]-N--CA-[CB] |==|  0.50003
USER: genes 3 Torsion [N]-CA--C-[N] |==|  0.37350
USER: genes 4 Torsion [C]-N--CA-[CB] |==|  0.21037
USER: genes 5 Torsion [N]-CA--CB-[CG] |==|  0.59980
USER: genes 6 Torsion [CA]-CB--CG-[OD1] |==|  0.65700
USER: genes 7 Torsion [N]-CA--C-[O] |==|  0.71119
USER: genes 8 Torsion [N]-CA--CB-[CG2] |==|  0.76284
USER: genes 9 Torsion [N]-C--CA-[N] |==|  0.88831
USER: genes 10 Torsion [C]-CA--N-[C] |==|  0.81122
USER: genes 11 Torsion [N]-C--CA-[N] |==|  0.44306
USER: genes 12 Torsion [C]-CA--CB-[CG] |==|  0.38437
USER: genes 13 Torsion [CA]-CB--CG-[CD2] |==|  0.65160
USER: genes 14 Torsion [C]-CA--CB-[CG2] |==|  0.35367
ROOT
ATOM      1  C   VAL D4842     -57.958  27.713  37.770  1.00 57.35 LIG 0.24  C 
ATOM      2 O    VAL D4842     -57.422  27.899  36.671  1.00 61.28 LIG-0.27  OA
ATOM      3  N   VAL D4843     -58.213  26.502  38.247  1.00 52.36 LIG-0.35  N 
ATOM      4 H    VAL D4843     -58.425  26.356  39.068  1.00 52.36 LIG 0.16  HD
ENDROOT
BRANCH 3 5
ATOM      5  CA  VAL D4843     -58.162  25.294  37.436  1.00 37.99 LIG 0.18  C 
BRANCH 5 6
ATOM      6  C   VAL D4843     -59.222  25.537  36.334  1.00 51.29 LIG 0.24  C 
ATOM      7  N   ASN D4844     -58.920  25.259  35.072  1.00 50.43 LIG-0.35  N 
ATOM      8 H    ASN D4844     -58.176  24.925  34.800  1.00 50.43 LIG 0.16  HD
ATOM      9 O    VAL D4843     -60.336  25.992  36.629  1.00 47.22 LIG-0.27  OA
BRANCH 7 10
ATOM     10  CA  ASN D4844     -59.916  25.533  34.026  1.00 46.88 LIG 0.17  C 
BRANCH 10 11
ATOM     11  CB  ASN D4844     -59.984  27.032  33.735  1.00 66.72 LIG 0.14  C 
BRANCH 11 12
ATOM     12  CG  ASN D4844     -61.390  27.504  33.419  1.00 62.42 LIG 0.22  C 
ATOM     13 OD1  ASN D4844     -61.648  28.086  32.363  1.00 56.11 LIG-0.27  OA
ATOM     14  ND2 ASN D4844     -62.311  27.252  34.342  1.00 67.26 LIG-0.37  N 
ATOM     15 21HD ASN D4844     -63.126  27.497  34.214  1.00 67.26 LIG 0.16  HD
ATOM     16 22HD ASN D4844     -62.092  26.843  35.067  1.00 67.26 LIG 0.16  HD
ENDBRANCH 11 12
ENDBRANCH 10 11
BRANCH 10 17
ATOM     17  C   ASN D4844     -59.748  24.737  32.720  1.00 52.57 LIG 0.22  C 
ATOM     18 O    ASN D4844     -59.282  25.266  31.697  1.00 48.91 LIG-0.29  OA
ENDBRANCH 10 17
ENDBRANCH 7 10
ENDBRANCH 5 6
BRANCH 5 19
ATOM     19  CB  VAL D4843     -58.522  24.086  38.355  1.00 37.59 LIG 0.01  C 
ATOM     20  CG1 VAL D4843     -59.204  22.979  37.601  1.00 42.19 LIG 0.01  C 
ATOM     21  CG2 VAL D4843     -57.285  23.571  39.096  1.00 33.91 LIG 0.01  C 
ENDBRANCH 5 19
ENDBRANCH 3 5
BRANCH 1 22
ATOM     22  CA  VAL D4842     -58.329  28.877  38.710  1.00 42.26 LIG 0.18  C 
BRANCH 22 23
ATOM     23  N   VAL D4842     -59.588  28.737  39.448  1.00 51.43 LIG-0.34  N 
ATOM     24 H    VAL D4842     -59.486  28.639  40.296  1.00 51.43 LIG 0.16  HD
ATOM     25  C   LEU D4841     -60.777  28.760  38.848  1.00 54.30 LIG 0.26  C 
ATOM     26 O    LEU D4841     -61.836  28.812  39.470  1.00 66.57 LIG-0.27  OA
BRANCH 25 27
ATOM     27  CA  LEU D4841     -60.772  28.760  37.327  1.00 50.85 LIG 0.40  C 
ATOM     28  N   LEU D4841     -62.064  28.306  36.804  1.00 66.18 LIG 0.61  N 
BRANCH 27 29
ATOM     29  CB  LEU D4841     -60.452  30.162  36.794  1.00 58.40 LIG 0.06  C 
BRANCH 29 30
ATOM     30  CG  LEU D4841     -59.497  30.249  35.597  1.00 54.26 LIG-0.02  C 
ATOM     31  CD2 LEU D4841     -58.290  31.178  35.871  1.00 54.78 LIG 0.01  C 
ATOM     32  CD1 LEU D4841     -60.235  30.654  34.314  1.00 32.44 LIG 0.01  C 
ENDBRANCH 29 30
ENDBRANCH 27 29
ENDBRANCH 25 27
ENDBRANCH 22 23
BRANCH 22 33
ATOM     33  CB  VAL D4842     -57.145  29.219  39.650  1.00 48.47 LIG 0.01  C 
ATOM     34  CG2 VAL D4842     -56.806  30.682  39.591  1.00 42.42 LIG 0.01  C 
ATOM     35  CG1 VAL D4842     -55.934  28.390  39.257  1.00 34.87 LIG 0.01  C 
ENDBRANCH 22 33
ENDBRANCH 1 22
TORSDOF 13
ENDMDL
