MODEL 1
USER: ADFR SOLUTION from run 32
USER: SCORE 17.284322 LL:  -3.208 LR: -14.393 RR:   0.000 FEB:  -9.322
USER: RMSD 1.494592
USER: SEED 31
USER: STATUS 1 or 2 clusters left
USER: GENES 19
USER: genes 0 Translation |==|  0.52629 0.51915 0.56302
USER: genes 1 Rotation |==|  0.54089 0.51494 0.50973 0.99801
USER: genes 2 Torsion [C]-N--CA-[C] |==|  0.79036
USER: genes 3 Torsion [N]-CA--CB-[CG] |==|  0.20145
USER: genes 4 Torsion [CA]-CB--CG-[CD1] |==|  0.25867
USER: genes 5 Torsion [N]-CA--C-[N] |==|  0.38102
USER: genes 6 Torsion [C]-N--CA-[C] |==|  0.66146
USER: genes 7 Torsion [N]-CA--C-[O] |==|  0.92672
USER: genes 8 Torsion [N]-CA--CB-[CG] |==|  0.91206
USER: genes 9 Torsion [CA]-CB--CG-[CD] |==|  0.74849
USER: genes 10 Torsion [CB]-CG--CD-[OE1] |==|  0.04227
USER: genes 11 Torsion [N]-C--CA-[N] |==|  0.18949
USER: genes 12 Torsion [C]-CA--CB-[CG] |==|  0.32173
USER: genes 13 Torsion [CA]-CB--CG-[CD1] |==|  0.19237
USER: genes 14 Torsion [CE1]-CZ--OH-[HH] |==|  0.45750
USER: genes 15 Torsion [C]-CA--N-[C] |==|  0.74886
USER: genes 16 Torsion [N]-C--CA-[N] |==|  0.12006
USER: genes 17 Torsion [C]-CA--CB-[CG] |==|  0.68445
USER: genes 18 Torsion [CA]-CB--CG-[CD1] |==|  0.28669
ROOT
ATOM      1  C   TYR C  12     -37.254  69.393  15.022  1.00 66.29 LIG 0.24  C 
ATOM      2 O    TYR C  12     -36.795  69.771  16.101  1.00 72.73 LIG-0.27  OA
ATOM      3  N   PHE C  13     -36.486  69.006  14.007  1.00 62.12 LIG-0.35  N 
ATOM      4 H    PHE C  13     -36.787  68.765  13.238  1.00 62.12 LIG 0.16  HD
ENDROOT
BRANCH 3 5
ATOM      5  CA  PHE C  13     -35.032  68.963  14.129  1.00 61.15 LIG 0.18  C 
BRANCH 5 6
ATOM      6  CB  PHE C  13     -34.417  68.076  13.040  1.00 57.79 LIG 0.07  C 
BRANCH 6 7
ATOM      7  CG  PHE C  13     -34.449  68.682  11.663  1.00 55.93 LIG-0.06  A 
ATOM      8  CD1 PHE C  13     -33.372  69.414  11.185  1.00 55.40 LIG 0.01  A 
ATOM      9  CE1 PHE C  13     -33.397  69.965   9.915  1.00 55.08 LIG 0.00  A 
ATOM     10  CZ  PHE C  13     -34.500  69.784   9.106  1.00 53.84 LIG 0.00  A 
ATOM     11  CE2 PHE C  13     -35.573  69.049   9.566  1.00 62.38 LIG 0.00  A 
ATOM     12  CD2 PHE C  13     -35.546  68.503  10.837  1.00 55.52 LIG 0.01  A 
ENDBRANCH 6 7
ENDBRANCH 5 6
BRANCH 5 13
ATOM     13  C   PHE C  13     -34.437  70.364  14.073  1.00 64.85 LIG 0.24  C 
ATOM     14 O    PHE C  13     -34.845  71.190  13.258  1.00 62.65 LIG-0.27  OA
ATOM     15  N   GLN C  14     -33.472  70.624  14.950  1.00 69.96 LIG-0.34  N 
ATOM     16 H    GLN C  14     -33.159  70.044  15.502  1.00 69.96 LIG 0.16  HD
BRANCH 15 17
ATOM     17  CA  GLN C  14     -32.852  71.940  15.051  1.00 68.16 LIG 0.19  C 
BRANCH 17 18
ATOM     18  C   GLN C  14     -31.343  71.867  14.827  1.00 80.56 LIG 0.20  C 
ATOM     19 O    GLN C  14     -30.711  70.836  15.068  1.00 73.75 LIG-0.65  OA
ATOM     20 OXT  GLN C  14     -30.720  72.838  14.397  1.00 84.17 LIG-0.65  OA
ENDBRANCH 17 18
BRANCH 17 21
ATOM     21  CB  GLN C  14     -33.150  72.564  16.416  1.00 71.08 LIG 0.04  C 
BRANCH 21 22
ATOM     22  CG  GLN C  14     -34.494  72.164  17.003  1.00 84.90 LIG 0.10  C 
BRANCH 22 23
ATOM     23  CD  GLN C  14     -35.608  73.112  16.608  1.00 85.71 LIG 0.21  C 
ATOM     24  NE2 GLN C  14     -36.735  73.029  17.306  1.00 87.27 LIG-0.37  N 
ATOM     25 22HE GLN C  14     -37.396  73.545  17.118  1.00 87.27 LIG 0.16  HD
ATOM     26 21HE GLN C  14     -36.803  72.459  17.947  1.00 87.27 LIG 0.16  HD
ATOM     27 OE1  GLN C  14     -35.458  73.909  15.681  1.00 92.83 LIG-0.27  OA
ENDBRANCH 22 23
ENDBRANCH 21 22
ENDBRANCH 17 21
ENDBRANCH 15 17
ENDBRANCH 5 13
ENDBRANCH 3 5
BRANCH 1 28
ATOM     28  CA  TYR C  12     -38.761  69.358  14.794  1.00 72.08 LIG 0.18  C 
BRANCH 28 29
ATOM     29  CB  TYR C  12     -39.472  70.083  15.938  1.00 70.95 LIG 0.07  C 
BRANCH 29 30
ATOM     30  CG  TYR C  12     -40.219  71.325  15.514  1.00 83.06 LIG-0.06  A 
ATOM     31  CD1 TYR C  12     -41.366  71.238  14.734  1.00 86.94 LIG 0.01  A 
ATOM     32  CE1 TYR C  12     -42.054  72.372  14.345  1.00 80.65 LIG 0.04  A 
ATOM     33  CZ  TYR C  12     -41.601  73.613  14.740  1.00 81.62 LIG 0.07  A 
ATOM     34  CE2 TYR C  12     -40.466  73.726  15.517  1.00 86.89 LIG 0.04  A 
ATOM     35  CD2 TYR C  12     -39.784  72.587  15.900  1.00 81.98 LIG 0.01  A 
BRANCH 33 36
ATOM     36 OH   TYR C  12     -42.283  74.744  14.354  1.00 83.24 LIG-0.36  OA
ATOM     37 HH   TYR C  12     -42.033  75.395  14.823  1.00 83.24 LIG 0.22  HD
ENDBRANCH 33 36
ENDBRANCH 29 30
ENDBRANCH 28 29
BRANCH 28 38
ATOM     38  N   TYR C  12     -39.254  67.991  14.670  1.00 66.73 LIG-0.34  N 
ATOM     39  C   LEU C  11     -39.331  67.380  13.492  1.00 75.02 LIG 0.26  C 
ATOM     40 O    LEU C  11     -39.000  67.917  12.436  1.00 79.88 LIG-0.27  OA
ATOM     41 H    TYR C  12     -39.486  67.628  15.415  1.00 66.73 LIG 0.16  HD
BRANCH 39 42
ATOM     42  CA  LEU C  11     -39.858  65.949  13.505  1.00 79.60 LIG 0.40  C 
ATOM     43  N   LEU C  11     -41.015  65.818  14.383  1.00 85.33 LIG 0.61  N 
BRANCH 42 44
ATOM     44  CB  LEU C  11     -40.209  65.509  12.081  1.00 82.02 LIG 0.06  C 
BRANCH 44 45
ATOM     45  CG  LEU C  11     -41.689  65.253  11.783  1.00 84.03 LIG-0.02  C 
ATOM     46  CD1 LEU C  11     -42.287  66.410  11.001  1.00 79.83 LIG 0.01  C 
ATOM     47  CD2 LEU C  11     -41.864  63.945  11.026  1.00 84.62 LIG 0.01  C 
ENDBRANCH 44 45
ENDBRANCH 42 44
ENDBRANCH 39 42
ENDBRANCH 28 38
ENDBRANCH 1 28
TORSDOF 17
ENDMDL
MODEL 2
USER: ADFR SOLUTION from run 162
USER: SCORE 15.895260 LL:  -3.442 LR: -13.169 RR:   0.000 FEB:  -8.098
USER: RMSD 4.520090
USER: SEED 161
USER: STATUS no improvement in best in 3 clusters for 5 generations
USER: GENES 19
USER: genes 0 Translation |==|  0.53584 0.51654 0.56867
USER: genes 1 Rotation |==|  0.48420 0.53653 0.51556 0.99817
USER: genes 2 Torsion [C]-N--CA-[C] |==|  0.83238
USER: genes 3 Torsion [N]-CA--CB-[CG] |==|  0.19964
USER: genes 4 Torsion [CA]-CB--CG-[CD1] |==|  0.25446
USER: genes 5 Torsion [N]-CA--C-[N] |==|  0.37712
USER: genes 6 Torsion [C]-N--CA-[C] |==|  0.65509
USER: genes 7 Torsion [N]-CA--C-[O] |==|  0.92626
USER: genes 8 Torsion [N]-CA--CB-[CG] |==|  0.89498
USER: genes 9 Torsion [CA]-CB--CG-[CD] |==|  0.74428
USER: genes 10 Torsion [CB]-CG--CD-[OE1] |==|  0.05335
USER: genes 11 Torsion [N]-C--CA-[N] |==|  0.60902
USER: genes 12 Torsion [C]-CA--CB-[CG] |==|  0.25440
USER: genes 13 Torsion [CA]-CB--CG-[CD1] |==|  0.41200
USER: genes 14 Torsion [CE1]-CZ--OH-[HH] |==|  0.06262
USER: genes 15 Torsion [C]-CA--N-[C] |==|  0.69394
USER: genes 16 Torsion [N]-C--CA-[N] |==|  0.70925
USER: genes 17 Torsion [C]-CA--CB-[CG] |==|  0.32234
USER: genes 18 Torsion [CA]-CB--CG-[CD1] |==|  0.53608
ROOT
ATOM      1  C   TYR C  12     -37.039  69.344  15.115  1.00 66.29 LIG 0.24  C 
ATOM      2 O    TYR C  12     -36.518  69.969  16.040  1.00 72.73 LIG-0.27  OA
ATOM      3  N   PHE C  13     -36.332  68.759  14.152  1.00 62.12 LIG-0.35  N 
ATOM      4 H    PHE C  13     -36.679  68.341  13.484  1.00 62.12 LIG 0.16  HD
ENDROOT
BRANCH 3 5
ATOM      5  CA  PHE C  13     -34.873  68.784  14.160  1.00 61.15 LIG 0.18  C 
BRANCH 5 6
ATOM      6  CB  PHE C  13     -34.304  67.968  12.993  1.00 57.79 LIG 0.07  C 
BRANCH 6 7
ATOM      7  CG  PHE C  13     -34.488  68.612  11.645  1.00 55.93 LIG-0.06  A 
ATOM      8  CD1 PHE C  13     -33.512  69.444  11.117  1.00 55.40 LIG 0.01  A 
ATOM      9  CE1 PHE C  13     -33.676  70.030   9.874  1.00 55.08 LIG 0.00  A 
ATOM     10  CZ  PHE C  13     -34.819  69.784   9.141  1.00 53.84 LIG 0.00  A 
ATOM     11  CE2 PHE C  13     -35.793  68.948   9.650  1.00 62.38 LIG 0.00  A 
ATOM     12  CD2 PHE C  13     -35.627  68.367  10.895  1.00 55.52 LIG 0.01  A 
ENDBRANCH 6 7
ENDBRANCH 5 6
BRANCH 5 13
ATOM     13  C   PHE C  13     -34.351  70.215  14.111  1.00 64.85 LIG 0.24  C 
ATOM     14 O    PHE C  13     -34.845  71.041  13.344  1.00 62.65 LIG-0.27  OA
ATOM     15  N   GLN C  14     -33.352  70.501  14.941  1.00 69.96 LIG-0.34  N 
ATOM     16 H    GLN C  14     -32.981  69.923  15.458  1.00 69.96 LIG 0.16  HD
BRANCH 15 17
ATOM     17  CA  GLN C  14     -32.793  71.844  15.045  1.00 68.16 LIG 0.19  C 
BRANCH 17 18
ATOM     18  C   GLN C  14     -31.287  71.844  14.791  1.00 80.56 LIG 0.20  C 
ATOM     19 O    GLN C  14     -30.602  70.843  15.011  1.00 73.75 LIG-0.65  OA
ATOM     20 OXT  GLN C  14     -30.720  72.847  14.358  1.00 84.17 LIG-0.65  OA
ENDBRANCH 17 18
BRANCH 17 21
ATOM     21  CB  GLN C  14     -33.093  72.438  16.423  1.00 71.08 LIG 0.04  C 
BRANCH 21 22
ATOM     22  CG  GLN C  14     -34.469  72.086  16.965  1.00 84.90 LIG 0.10  C 
BRANCH 22 23
ATOM     23  CD  GLN C  14     -35.519  73.119  16.608  1.00 85.71 LIG 0.21  C 
ATOM     24  NE2 GLN C  14     -36.628  73.117  17.338  1.00 87.27 LIG-0.37  N 
ATOM     25 22HE GLN C  14     -37.253  73.683  17.172  1.00 87.27 LIG 0.16  HD
ATOM     26 21HE GLN C  14     -36.721  72.549  17.978  1.00 87.27 LIG 0.16  HD
ATOM     27 OE1  GLN C  14     -35.335  73.909  15.681  1.00 92.83 LIG-0.27  OA
ENDBRANCH 22 23
ENDBRANCH 21 22
ENDBRANCH 17 21
ENDBRANCH 15 17
ENDBRANCH 5 13
ENDBRANCH 3 5
BRANCH 1 28
ATOM     28  CA  TYR C  12     -38.555  69.217  15.027  1.00 72.08 LIG 0.18  C 
BRANCH 28 29
ATOM     29  CB  TYR C  12     -38.957  68.812  13.607  1.00 70.95 LIG 0.07  C 
BRANCH 29 30
ATOM     30  CG  TYR C  12     -39.065  67.320  13.396  1.00 83.06 LIG-0.06  A 
ATOM     31  CD1 TYR C  12     -39.979  66.791  12.493  1.00 86.94 LIG 0.01  A 
ATOM     32  CE1 TYR C  12     -40.079  65.426  12.295  1.00 80.65 LIG 0.04  A 
ATOM     33  CZ  TYR C  12     -39.257  64.573  13.000  1.00 81.62 LIG 0.07  A 
ATOM     34  CE2 TYR C  12     -38.340  65.075  13.901  1.00 86.89 LIG 0.04  A 
ATOM     35  CD2 TYR C  12     -38.248  66.439  14.093  1.00 81.98 LIG 0.01  A 
BRANCH 33 36
ATOM     36 OH   TYR C  12     -39.355  63.214  12.806  1.00 83.24 LIG-0.36  OA
ATOM     37 HH   TYR C  12     -39.699  63.062  12.056  1.00 83.24 LIG 0.22  HD
ENDBRANCH 33 36
ENDBRANCH 29 30
ENDBRANCH 28 29
BRANCH 28 38
ATOM     38  N   TYR C  12     -39.223  70.454  15.415  1.00 66.73 LIG-0.34  N 
ATOM     39  C   LEU C  11     -39.920  70.549  16.543  1.00 75.02 LIG 0.26  C 
ATOM     40 O    LEU C  11     -40.054  69.611  17.327  1.00 79.88 LIG-0.27  OA
ATOM     41 H    TYR C  12     -39.125  71.101  14.856  1.00 66.73 LIG 0.16  HD
BRANCH 39 42
ATOM     42  CA  LEU C  11     -40.561  71.902  16.831  1.00 79.60 LIG 0.40  C 
ATOM     43  N   LEU C  11     -39.829  72.627  17.863  1.00 85.33 LIG 0.61  N 
BRANCH 42 44
ATOM     44  CB  LEU C  11     -40.639  72.728  15.545  1.00 82.02 LIG 0.06  C 
BRANCH 44 45
ATOM     45  CG  LEU C  11     -42.038  73.076  15.031  1.00 84.03 LIG-0.02  C 
ATOM     46  CD1 LEU C  11     -41.970  73.608  13.609  1.00 79.83 LIG 0.01  C 
ATOM     47  CD2 LEU C  11     -42.954  71.864  15.107  1.00 84.62 LIG 0.01  C 
ENDBRANCH 44 45
ENDBRANCH 42 44
ENDBRANCH 39 42
ENDBRANCH 28 38
ENDBRANCH 1 28
TORSDOF 17
ENDMDL
MODEL 3
USER: ADFR SOLUTION from run 95
USER: SCORE 15.764708 LL:  -3.001 LR: -13.129 RR:   0.000 FEB:  -8.058
USER: RMSD 2.747006
USER: SEED 94
USER: STATUS no improvement in best in 2 clusters for 5 generations
USER: GENES 19
USER: genes 0 Translation |==|  0.52078 0.50207 0.56087
USER: genes 1 Rotation |==|  0.60091 0.49609 0.46730 0.98860
USER: genes 2 Torsion [C]-N--CA-[C] |==|  0.78537
USER: genes 3 Torsion [N]-CA--CB-[CG] |==|  0.18593
USER: genes 4 Torsion [CA]-CB--CG-[CD1] |==|  0.22735
USER: genes 5 Torsion [N]-CA--C-[N] |==|  0.44640
USER: genes 6 Torsion [C]-N--CA-[C] |==|  0.74680
USER: genes 7 Torsion [N]-CA--C-[O] |==|  0.95829
USER: genes 8 Torsion [N]-CA--CB-[CG] |==|  0.30142
USER: genes 9 Torsion [CA]-CB--CG-[CD] |==|  0.75238
USER: genes 10 Torsion [CB]-CG--CD-[OE1] |==|  0.64264
USER: genes 11 Torsion [N]-C--CA-[N] |==|  0.21595
USER: genes 12 Torsion [C]-CA--CB-[CG] |==|  0.36379
USER: genes 13 Torsion [CA]-CB--CG-[CD1] |==|  0.18089
USER: genes 14 Torsion [CE1]-CZ--OH-[HH] |==|  0.45451
USER: genes 15 Torsion [C]-CA--N-[C] |==|  0.78629
USER: genes 16 Torsion [N]-C--CA-[N] |==|  0.06587
USER: genes 17 Torsion [C]-CA--CB-[CG] |==|  0.62575
USER: genes 18 Torsion [CA]-CB--CG-[CD1] |==|  0.34847
ROOT
ATOM      1  C   TYR C  12     -37.377  69.073  14.986  1.00 66.29 LIG 0.24  C 
ATOM      2 O    TYR C  12     -36.944  69.099  16.139  1.00 72.73 LIG-0.27  OA
ATOM      3  N   PHE C  13     -36.613  68.795  13.934  1.00 62.12 LIG-0.35  N 
ATOM      4 H    PHE C  13     -36.892  68.798  13.120  1.00 62.12 LIG 0.16  HD
ENDROOT
BRANCH 3 5
ATOM      5  CA  PHE C  13     -35.203  68.454  14.091  1.00 61.15 LIG 0.18  C 
BRANCH 5 6
ATOM      6  CB  PHE C  13     -34.680  67.705  12.859  1.00 57.79 LIG 0.07  C 
BRANCH 6 7
ATOM      7  CG  PHE C  13     -34.632  68.538  11.606  1.00 55.93 LIG-0.06  A 
ATOM      8  CD1 PHE C  13     -33.570  69.397  11.366  1.00 55.40 LIG 0.01  A 
ATOM      9  CE1 PHE C  13     -33.522  70.158  10.210  1.00 55.08 LIG 0.00  A 
ATOM     10  CZ  PHE C  13     -34.535  70.062   9.278  1.00 53.84 LIG 0.00  A 
ATOM     11  CE2 PHE C  13     -35.591  69.202   9.501  1.00 62.38 LIG 0.00  A 
ATOM     12  CD2 PHE C  13     -35.638  68.446  10.659  1.00 55.52 LIG 0.01  A 
ENDBRANCH 6 7
ENDBRANCH 5 6
BRANCH 5 13
ATOM     13  C   PHE C  13     -34.365  69.701  14.350  1.00 64.85 LIG 0.24  C 
ATOM     14 O    PHE C  13     -34.794  70.819  14.067  1.00 62.65 LIG-0.27  OA
ATOM     15  N   GLN C  14     -33.169  69.497  14.893  1.00 69.96 LIG-0.34  N 
ATOM     16 H    GLN C  14     -32.848  68.718  15.065  1.00 69.96 LIG 0.16  HD
BRANCH 15 17
ATOM     17  CA  GLN C  14     -32.284  70.600  15.250  1.00 68.16 LIG 0.19  C 
BRANCH 17 18
ATOM     18  C   GLN C  14     -31.344  70.958  14.101  1.00 80.56 LIG 0.20  C 
ATOM     19 O    GLN C  14     -31.184  70.197  13.146  1.00 73.75 LIG-0.65  OA
ATOM     20 OXT  GLN C  14     -30.723  72.022  14.102  1.00 84.17 LIG-0.65  OA
ENDBRANCH 17 18
BRANCH 17 21
ATOM     21  CB  GLN C  14     -31.474  70.247  16.500  1.00 71.08 LIG 0.04  C 
BRANCH 21 22
ATOM     22  CG  GLN C  14     -30.001  69.983  16.233  1.00 84.90 LIG 0.10  C 
BRANCH 22 23
ATOM     23  CD  GLN C  14     -29.718  68.531  15.908  1.00 85.71 LIG 0.21  C 
ATOM     24  NE2 GLN C  14     -30.463  67.978  14.956  1.00 87.27 LIG-0.37  N 
ATOM     25 22HE GLN C  14     -30.341  67.156  14.738  1.00 87.27 LIG 0.16  HD
ATOM     26 21HE GLN C  14     -31.067  68.444  14.559  1.00 87.27 LIG 0.16  HD
ATOM     27 OE1  GLN C  14     -28.841  67.910  16.508  1.00 92.83 LIG-0.27  OA
ENDBRANCH 22 23
ENDBRANCH 21 22
ENDBRANCH 17 21
ENDBRANCH 15 17
ENDBRANCH 5 13
ENDBRANCH 3 5
BRANCH 1 28
ATOM     28  CA  TYR C  12     -38.846  69.372  14.707  1.00 72.08 LIG 0.18  C 
BRANCH 28 29
ATOM     29  CB  TYR C  12     -39.446  70.148  15.882  1.00 70.95 LIG 0.07  C 
BRANCH 29 30
ATOM     30  CG  TYR C  12     -40.217  71.383  15.478  1.00 83.06 LIG-0.06  A 
ATOM     31  CD1 TYR C  12     -41.385  71.284  14.732  1.00 86.94 LIG 0.01  A 
ATOM     32  CE1 TYR C  12     -42.095  72.412  14.363  1.00 80.65 LIG 0.04  A 
ATOM     33  CZ  TYR C  12     -41.642  73.657  14.743  1.00 81.62 LIG 0.07  A 
ATOM     34  CE2 TYR C  12     -40.486  73.781  15.487  1.00 86.89 LIG 0.04  A 
ATOM     35  CD2 TYR C  12     -39.782  72.649  15.850  1.00 81.98 LIG 0.01  A 
BRANCH 33 36
ATOM     36 OH   TYR C  12     -42.345  74.782  14.377  1.00 83.24 LIG-0.36  OA
ATOM     37 HH   TYR C  12     -42.098  75.432  14.847  1.00 83.24 LIG 0.22  HD
ENDBRANCH 33 36
ENDBRANCH 29 30
ENDBRANCH 28 29
BRANCH 28 38
ATOM     38  N   TYR C  12     -39.606  68.152  14.458  1.00 66.73 LIG-0.34  N 
ATOM     39  C   LEU C  11     -39.537  67.511  13.296  1.00 75.02 LIG 0.26  C 
ATOM     40 O    LEU C  11     -38.841  67.897  12.358  1.00 79.88 LIG-0.27  OA
ATOM     41 H    TYR C  12     -40.091  67.895  15.120  1.00 66.73 LIG 0.16  HD
BRANCH 39 42
ATOM     42  CA  LEU C  11     -40.377  66.245  13.171  1.00 79.60 LIG 0.40  C 
ATOM     43  N   LEU C  11     -41.500  66.258  14.102  1.00 85.33 LIG 0.61  N 
BRANCH 42 44
ATOM     44  CB  LEU C  11     -40.873  66.087  11.732  1.00 82.02 LIG 0.06  C 
BRANCH 44 45
ATOM     45  CG  LEU C  11     -42.345  65.709  11.545  1.00 84.03 LIG-0.02  C 
ATOM     46  CD1 LEU C  11     -43.044  66.707  10.637  1.00 79.83 LIG 0.01  C 
ATOM     47  CD2 LEU C  11     -42.471  64.298  10.991  1.00 84.62 LIG 0.01  C 
ENDBRANCH 44 45
ENDBRANCH 42 44
ENDBRANCH 39 42
ENDBRANCH 28 38
ENDBRANCH 1 28
TORSDOF 17
ENDMDL
MODEL 4
USER: ADFR SOLUTION from run 107
USER: SCORE 16.623179 LL:  -3.860 LR: -13.059 RR:   0.000 FEB:  -7.988
USER: RMSD 2.204795
USER: SEED 106
USER: STATUS 1 or 2 clusters left
USER: GENES 19
USER: genes 0 Translation |==|  0.54483 0.52549 0.56958
USER: genes 1 Rotation |==|  0.48608 0.52865 0.52274 0.99847
USER: genes 2 Torsion [C]-N--CA-[C] |==|  0.82851
USER: genes 3 Torsion [N]-CA--CB-[CG] |==|  0.18702
USER: genes 4 Torsion [CA]-CB--CG-[CD1] |==|  0.26692
USER: genes 5 Torsion [N]-CA--C-[N] |==|  0.38341
USER: genes 6 Torsion [C]-N--CA-[C] |==|  0.64645
USER: genes 7 Torsion [N]-CA--C-[O] |==|  0.96507
USER: genes 8 Torsion [N]-CA--CB-[CG] |==|  0.91171
USER: genes 9 Torsion [CA]-CB--CG-[CD] |==|  0.74775
USER: genes 10 Torsion [CB]-CG--CD-[OE1] |==|  0.04943
USER: genes 11 Torsion [N]-C--CA-[N] |==|  0.15907
USER: genes 12 Torsion [C]-CA--CB-[CG] |==|  0.31824
USER: genes 13 Torsion [CA]-CB--CG-[CD1] |==|  0.64445
USER: genes 14 Torsion [CE1]-CZ--OH-[HH] |==|  0.01330
USER: genes 15 Torsion [C]-CA--N-[C] |==|  0.16111
USER: genes 16 Torsion [N]-C--CA-[N] |==|  0.89698
USER: genes 17 Torsion [C]-CA--CB-[CG] |==|  0.97037
USER: genes 18 Torsion [CA]-CB--CG-[CD1] |==|  0.33460
ROOT
ATOM      1  C   TYR C  12     -36.836  69.512  15.130  1.00 66.29 LIG 0.24  C 
ATOM      2 O    TYR C  12     -36.363  70.142  16.077  1.00 72.73 LIG-0.27  OA
ATOM      3  N   PHE C  13     -36.084  68.958  14.183  1.00 62.12 LIG-0.35  N 
ATOM      4 H    PHE C  13     -36.399  68.538  13.501  1.00 62.12 LIG 0.16  HD
ENDROOT
BRANCH 3 5
ATOM      5  CA  PHE C  13     -34.628  69.026  14.236  1.00 61.15 LIG 0.18  C 
BRANCH 5 6
ATOM      6  CB  PHE C  13     -34.000  68.210  13.099  1.00 57.79 LIG 0.07  C 
BRANCH 6 7
ATOM      7  CG  PHE C  13     -34.252  68.774  11.726  1.00 55.93 LIG-0.06  A 
ATOM      8  CD1 PHE C  13     -33.314  69.591  11.112  1.00 55.40 LIG 0.01  A 
ATOM      9  CE1 PHE C  13     -33.542  70.103   9.846  1.00 55.08 LIG 0.00  A 
ATOM     10  CZ  PHE C  13     -34.710  69.798   9.177  1.00 53.84 LIG 0.00  A 
ATOM     11  CE2 PHE C  13     -35.645  68.976   9.773  1.00 62.38 LIG 0.00  A 
ATOM     12  CD2 PHE C  13     -35.416  68.469  11.041  1.00 55.52 LIG 0.01  A 
ENDBRANCH 6 7
ENDBRANCH 5 6
BRANCH 5 13
ATOM     13  C   PHE C  13     -34.145  70.470  14.183  1.00 64.85 LIG 0.24  C 
ATOM     14 O    PHE C  13     -34.666  71.281  13.418  1.00 62.65 LIG-0.27  OA
ATOM     15  N   GLN C  14     -33.149  70.783  15.006  1.00 69.96 LIG-0.34  N 
ATOM     16 H    GLN C  14     -32.759  70.216  15.521  1.00 69.96 LIG 0.16  HD
BRANCH 15 17
ATOM     17  CA  GLN C  14     -32.626  72.141  15.106  1.00 68.16 LIG 0.19  C 
BRANCH 17 18
ATOM     18  C   GLN C  14     -31.111  72.172  14.919  1.00 80.56 LIG 0.20  C 
ATOM     19 O    GLN C  14     -30.443  71.137  14.941  1.00 73.75 LIG-0.65  OA
ATOM     20 OXT  GLN C  14     -30.519  73.237  14.738  1.00 84.17 LIG-0.65  OA
ENDBRANCH 17 18
BRANCH 17 21
ATOM     21  CB  GLN C  14     -33.001  72.756  16.457  1.00 71.08 LIG 0.04  C 
BRANCH 21 22
ATOM     22  CG  GLN C  14     -34.329  72.270  17.014  1.00 84.90 LIG 0.10  C 
BRANCH 22 23
ATOM     23  CD  GLN C  14     -35.494  73.139  16.586  1.00 85.71 LIG 0.21  C 
ATOM     24  NE2 GLN C  14     -36.613  73.023  17.293  1.00 87.27 LIG-0.37  N 
ATOM     25 22HE GLN C  14     -37.302  73.494  17.087  1.00 87.27 LIG 0.16  HD
ATOM     26 21HE GLN C  14     -36.648  72.477  17.956  1.00 87.27 LIG 0.16  HD
ATOM     27 OE1  GLN C  14     -35.390  73.905  15.628  1.00 92.83 LIG-0.27  OA
ENDBRANCH 22 23
ENDBRANCH 21 22
ENDBRANCH 17 21
ENDBRANCH 15 17
ENDBRANCH 5 13
ENDBRANCH 3 5
BRANCH 1 28
ATOM     28  CA  TYR C  12     -38.345  69.342  14.995  1.00 72.08 LIG 0.18  C 
BRANCH 28 29
ATOM     29  CB  TYR C  12     -39.049  70.040  16.160  1.00 70.95 LIG 0.07  C 
BRANCH 29 30
ATOM     30  CG  TYR C  12     -39.902  71.218  15.752  1.00 83.06 LIG-0.06  A 
ATOM     31  CD1 TYR C  12     -39.750  72.456  16.365  1.00 86.94 LIG 0.01  A 
ATOM     32  CE1 TYR C  12     -40.527  73.538  15.993  1.00 80.65 LIG 0.04  A 
ATOM     33  CZ  TYR C  12     -41.465  73.391  14.994  1.00 81.62 LIG 0.07  A 
ATOM     34  CE2 TYR C  12     -41.633  72.173  14.368  1.00 86.89 LIG 0.04  A 
ATOM     35  CD2 TYR C  12     -40.854  71.097  14.748  1.00 81.98 LIG 0.01  A 
BRANCH 33 36
ATOM     36 OH   TYR C  12     -42.241  74.465  14.622  1.00 83.24 LIG-0.36  OA
ATOM     37 HH   TYR C  12     -41.989  75.150  15.037  1.00 83.24 LIG 0.22  HD
ENDBRANCH 33 36
ENDBRANCH 29 30
ENDBRANCH 28 29
BRANCH 28 38
ATOM     38  N   TYR C  12     -38.725  67.934  14.937  1.00 66.73 LIG-0.34  N 
ATOM     39  C   LEU C  11     -38.414  67.086  15.913  1.00 75.02 LIG 0.26  C 
ATOM     40 O    LEU C  11     -37.788  67.422  16.917  1.00 79.88 LIG-0.27  OA
ATOM     41 H    TYR C  12     -39.158  67.712  14.229  1.00 66.73 LIG 0.16  HD
BRANCH 39 42
ATOM     42  CA  LEU C  11     -38.877  65.645  15.730  1.00 79.60 LIG 0.40  C 
ATOM     43  N   LEU C  11     -40.188  65.586  15.094  1.00 85.33 LIG 0.61  N 
BRANCH 42 44
ATOM     44  CB  LEU C  11     -37.846  64.864  14.912  1.00 82.02 LIG 0.06  C 
BRANCH 44 45
ATOM     45  CG  LEU C  11     -36.738  65.678  14.239  1.00 84.03 LIG-0.02  C 
ATOM     46  CD1 LEU C  11     -35.371  65.232  14.732  1.00 79.83 LIG 0.01  C 
ATOM     47  CD2 LEU C  11     -36.828  65.560  12.726  1.00 84.62 LIG 0.01  C 
ENDBRANCH 44 45
ENDBRANCH 42 44
ENDBRANCH 39 42
ENDBRANCH 28 38
ENDBRANCH 1 28
TORSDOF 17
ENDMDL
