MODEL 1
USER: ADFR SOLUTION from run 160
USER: SCORE 20.707869 LL:  -2.929 LR: -17.840 RR:   0.000 FEB: -12.471
USER: RMSD 2.183045
USER: SEED 159
USER: STATUS no improvement in best in 1 clusters for 5 generations
USER: GENES 20
USER: genes 0 Translation |==|  0.53647 0.41151 0.45597
USER: genes 1 Rotation |==|  0.41812 0.46882 0.57236 0.98692
USER: genes 2 Torsion [N]-CA--C-[N] |==|  0.40100
USER: genes 3 Torsion [C]-N--CA-[C] |==|  0.78111
USER: genes 4 Torsion [N]-CA--C-[N] |==|  0.44443
USER: genes 5 Torsion [C]-N--CA-[CB] |==|  0.18256
USER: genes 6 Torsion [N]-CA--CB-[CG] |==|  0.56468
USER: genes 7 Torsion [CA]-CB--CG-[CD1] |==|  0.22298
USER: genes 8 Torsion [N]-CA--C-[OXT] |==|  0.49906
USER: genes 9 Torsion [N]-CA--CB-[CG] |==|  0.55542
USER: genes 10 Torsion [CA]-CB--CG-[CD] |==|  0.23634
USER: genes 11 Torsion [CB]-CG--CD-[OE2] |==|  0.58576
USER: genes 12 Torsion [C]-CA--CB-[CG] |==|  0.02768
USER: genes 13 Torsion [CA]-CB--CG-[CD] |==|  0.28992
USER: genes 14 Torsion [CB]-CG--CD-[OE1] |==|  0.26170
USER: genes 15 Torsion [C]-CA--N-[C] |==|  0.80015
USER: genes 16 Torsion [N]-C--CA-[N] |==|  0.08400
USER: genes 17 Torsion [C]-CA--N-[H2] |==|  0.95354
USER: genes 18 Torsion [C]-CA--CB-[CG] |==|  0.47269
USER: genes 19 Torsion [CA]-CB--CG-[CD1] |==|  0.39734
ROOT
ATOM      1  CA  GLU E   2     -21.333 -12.936 -25.106  1.00 18.96 LIG 0.18  C 
ENDROOT
BRANCH 1 2
ATOM      2  C   GLU E   2     -21.253 -11.561 -25.772  1.00 19.39 LIG 0.24  C 
ATOM      3 O    GLU E   2     -22.257 -10.883 -25.918  1.00 16.83 LIG-0.27  OA
ATOM      4  N   GLU E   3     -20.046 -11.123 -26.120  1.00 20.18 LIG-0.35  N 
ATOM      5 H    GLU E   3     -19.322 -11.580 -26.044  1.00 20.18 LIG 0.16  HD
BRANCH 4 6
ATOM      6  CA  GLU E   3     -19.873  -9.781 -26.676  1.00 16.65 LIG 0.18  C 
BRANCH 6 7
ATOM      7  C   GLU E   3     -20.272  -9.762 -28.152  1.00 17.64 LIG 0.24  C 
ATOM      8 O    GLU E   3     -20.335 -10.814 -28.797  1.00 25.54 LIG-0.27  OA
ATOM      9  N   LEU E   4     -20.561  -8.576 -28.682  1.00 17.38 LIG-0.34  N 
ATOM     10 H    LEU E   4     -20.511  -7.828 -28.260  1.00 17.38 LIG 0.16  HD
BRANCH 9 11
ATOM     11  CA  LEU E   4     -20.999  -8.472 -30.068  1.00 18.86 LIG 0.18  C 
BRANCH 11 12
ATOM     12  CB  LEU E   4     -22.356  -9.149 -30.258  1.00 23.62 LIG 0.04  C 
BRANCH 12 13
ATOM     13  CG  LEU E   4     -22.715  -9.619 -31.667  1.00 21.70 LIG-0.02  C 
ATOM     14  CD2 LEU E   4     -24.219  -9.755 -31.835  1.00 23.28 LIG 0.01  C 
ATOM     15  CD1 LEU E   4     -22.031 -10.955 -31.951  1.00 18.19 LIG 0.01  C 
ENDBRANCH 12 13
ENDBRANCH 11 12
BRANCH 11 16
ATOM     16  C   LEU E   4     -21.072  -7.009 -30.504  1.00 26.72 LIG 0.20  C 
ATOM     17 OXT  LEU E   4     -21.415  -6.677 -31.646  1.00 25.91 LIG-0.65  OA
ATOM     18 O    LEU E   4     -20.778  -6.115 -29.711  1.00 22.73 LIG-0.65  OA
ENDBRANCH 11 16
ENDBRANCH 9 11
ENDBRANCH 6 7
BRANCH 6 19
ATOM     19  CB  GLU E   3     -18.423  -9.315 -26.497  1.00 17.46 LIG 0.04  C 
BRANCH 19 20
ATOM     20  CG  GLU E   3     -18.257  -7.801 -26.593  1.00 17.22 LIG 0.12  C 
BRANCH 20 21
ATOM     21  CD  GLU E   3     -18.517  -7.109 -25.273  1.00 22.54 LIG 0.17  C 
ATOM     22 OE2  GLU E   3     -18.989  -5.948 -25.275  1.00 22.26 LIG-0.65  OA
ATOM     23 OE1  GLU E   3     -18.246  -7.733 -24.229  1.00 23.90 LIG-0.65  OA
ENDBRANCH 20 21
ENDBRANCH 19 20
ENDBRANCH 6 19
ENDBRANCH 4 6
ENDBRANCH 1 2
BRANCH 1 24
ATOM     24  CB  GLU E   2     -21.593 -14.057 -26.122  1.00 24.38 LIG 0.04  C 
BRANCH 24 25
ATOM     25  CG  GLU E   2     -21.482 -13.632 -27.594  1.00 27.62 LIG 0.12  C 
BRANCH 25 26
ATOM     26  CD  GLU E   2     -20.195 -14.101 -28.273  1.00 34.01 LIG 0.17  C 
ATOM     27 OE2  GLU E   2     -19.172 -13.387 -28.164  1.00 31.63 LIG-0.65  OA
ATOM     28 OE1  GLU E   2     -20.205 -15.177 -28.916  1.00 33.59 LIG-0.65  OA
ENDBRANCH 25 26
ENDBRANCH 24 25
ENDBRANCH 1 24
BRANCH 1 29
ATOM     29  N   GLU E   2     -22.391 -12.857 -24.121  1.00 16.88 LIG-0.35  N 
ATOM     30  C   TRP E   1     -22.216 -12.159 -23.003  1.00 25.23 LIG 0.25  C 
ATOM     31 O    TRP E   1     -21.121 -11.709 -22.660  1.00 23.92 LIG-0.27  OA
ATOM     32 H    GLU E   2     -23.108 -13.285 -24.322  1.00 16.88 LIG 0.16  HD
BRANCH 30 33
ATOM     33  CA  TRP E   1     -23.455 -11.906 -22.162  1.00 23.48 LIG 0.28  C 
BRANCH 33 34
ATOM     34  N   TRP E   1     -24.450 -12.967 -22.273  1.00 27.44 LIG-0.07  N 
ATOM     35 H2   TRP E   1     -24.278 -13.463 -22.992  1.00 27.44 LIG 0.28  HD
ATOM     36 H1   TRP E   1     -25.261 -12.607 -22.350  1.00 27.44 LIG 0.28  HD
ATOM     37 H3   TRP E   1     -24.422 -13.479 -21.546  1.00 27.44 LIG 0.28  HD
ENDBRANCH 33 34
BRANCH 33 38
ATOM     38  CB  TRP E   1     -23.018 -11.734 -20.706  1.00 28.17 LIG 0.08  C 
BRANCH 38 39
ATOM     39  CG  TRP E   1     -24.090 -11.254 -19.800  1.00 25.63 LIG-0.03  A 
ATOM     40  CD1 TRP E   1     -24.297 -11.630 -18.502  1.00 24.31 LIG 0.10  A 
ATOM     41  NE1 TRP E   1     -25.383 -10.967 -17.987  1.00 27.21 LIG-0.36  N 
ATOM     42 HE1  TRP E   1     -25.694 -11.060 -17.191  1.00 27.21 LIG 0.17  HD
ATOM     43  CE2 TRP E   1     -25.889 -10.131 -18.950  1.00 24.74 LIG 0.04  A 
ATOM     44  CD2 TRP E   1     -25.094 -10.284 -20.103  1.00 19.22 LIG-0.00  A 
ATOM     45  CZ2 TRP E   1     -26.968  -9.246 -18.898  1.00 22.29 LIG 0.03  A 
ATOM     46  CE3 TRP E   1     -25.403  -9.534 -21.240  1.00 22.29 LIG 0.01  A 
ATOM     47  CZ3 TRP E   1     -26.468  -8.662 -21.186  1.00 20.39 LIG 0.00  A 
ATOM     48  CH2 TRP E   1     -27.238  -8.529 -20.031  1.00 19.87 LIG 0.00  A 
ENDBRANCH 38 39
ENDBRANCH 33 38
ENDBRANCH 30 33
ENDBRANCH 1 29
TORSDOF 18
ENDMDL
MODEL 2
USER: ADFR SOLUTION from run 73
USER: SCORE 20.087506 LL:  -2.720 LR: -17.597 RR:   0.000 FEB: -12.227
USER: RMSD 2.304542
USER: SEED 72
USER: STATUS 1 or 2 clusters left
USER: GENES 20
USER: genes 0 Translation |==|  0.53280 0.41856 0.45163
USER: genes 1 Rotation |==|  0.42107 0.47697 0.55679 0.98991
USER: genes 2 Torsion [N]-CA--C-[N] |==|  0.39412
USER: genes 3 Torsion [C]-N--CA-[C] |==|  0.76666
USER: genes 4 Torsion [N]-CA--C-[N] |==|  0.24406
USER: genes 5 Torsion [C]-N--CA-[CB] |==|  0.81695
USER: genes 6 Torsion [N]-CA--CB-[CG] |==|  0.85896
USER: genes 7 Torsion [CA]-CB--CG-[CD1] |==|  0.27701
USER: genes 8 Torsion [N]-CA--C-[OXT] |==|  0.57707
USER: genes 9 Torsion [N]-CA--CB-[CG] |==|  0.84362
USER: genes 10 Torsion [CA]-CB--CG-[CD] |==|  0.76481
USER: genes 11 Torsion [CB]-CG--CD-[OE2] |==|  0.44149
USER: genes 12 Torsion [C]-CA--CB-[CG] |==|  0.06012
USER: genes 13 Torsion [CA]-CB--CG-[CD] |==|  0.26388
USER: genes 14 Torsion [CB]-CG--CD-[OE1] |==|  0.75544
USER: genes 15 Torsion [C]-CA--N-[C] |==|  0.81145
USER: genes 16 Torsion [N]-C--CA-[N] |==|  0.08499
USER: genes 17 Torsion [C]-CA--N-[H2] |==|  0.65109
USER: genes 18 Torsion [C]-CA--CB-[CG] |==|  0.49552
USER: genes 19 Torsion [CA]-CB--CG-[CD1] |==|  0.37455
ROOT
ATOM      1  CA  GLU E   2     -21.399 -12.814 -25.200  1.00 18.96 LIG 0.18  C 
ENDROOT
BRANCH 1 2
ATOM      2  C   GLU E   2     -21.243 -11.439 -25.852  1.00 19.39 LIG 0.24  C 
ATOM      3 O    GLU E   2     -22.211 -10.712 -26.007  1.00 16.83 LIG-0.27  OA
ATOM      4  N   GLU E   3     -20.011 -11.057 -26.178  1.00 20.18 LIG-0.35  N 
ATOM      5 H    GLU E   3     -19.311 -11.550 -26.095  1.00 20.18 LIG 0.16  HD
BRANCH 4 6
ATOM      6  CA  GLU E   3     -19.764  -9.720 -26.718  1.00 16.65 LIG 0.18  C 
BRANCH 6 7
ATOM      7  C   GLU E   3     -20.017  -9.702 -28.227  1.00 17.64 LIG 0.24  C 
ATOM      8 O    GLU E   3     -19.097  -9.933 -29.019  1.00 25.54 LIG-0.27  OA
ATOM      9  N   LEU E   4     -21.262  -9.450 -28.625  1.00 17.38 LIG-0.34  N 
ATOM     10 H    LEU E   4     -21.916  -9.272 -28.097  1.00 17.38 LIG 0.16  HD
BRANCH 9 11
ATOM     11  CA  LEU E   4     -21.601  -9.464 -30.043  1.00 18.86 LIG 0.18  C 
BRANCH 11 12
ATOM     12  CB  LEU E   4     -20.891  -8.329 -30.780  1.00 23.62 LIG 0.04  C 
BRANCH 12 13
ATOM     13  CG  LEU E   4     -21.017  -6.924 -30.194  1.00 21.70 LIG-0.02  C 
ATOM     14  CD2 LEU E   4     -21.239  -5.891 -31.285  1.00 23.28 LIG 0.01  C 
ATOM     15  CD1 LEU E   4     -19.759  -6.586 -29.397  1.00 18.19 LIG 0.01  C 
ENDBRANCH 12 13
ENDBRANCH 11 12
BRANCH 11 16
ATOM     16  C   LEU E   4     -21.241 -10.811 -30.671  1.00 26.72 LIG 0.20  C 
ATOM     17 OXT  LEU E   4     -20.954 -10.923 -31.870  1.00 25.91 LIG-0.65  OA
ATOM     18 O    LEU E   4     -21.235 -11.830 -29.982  1.00 22.73 LIG-0.65  OA
ENDBRANCH 11 16
ENDBRANCH 9 11
ENDBRANCH 6 7
BRANCH 6 19
ATOM     19  CB  GLU E   3     -18.332  -9.274 -26.400  1.00 17.46 LIG 0.04  C 
BRANCH 19 20
ATOM     20  CG  GLU E   3     -18.008  -9.300 -24.909  1.00 17.22 LIG 0.12  C 
BRANCH 20 21
ATOM     21  CD  GLU E   3     -18.442  -8.034 -24.203  1.00 22.54 LIG 0.17  C 
ATOM     22 OE2  GLU E   3     -18.613  -8.055 -22.962  1.00 22.26 LIG-0.65  OA
ATOM     23 OE1  GLU E   3     -18.614  -7.014 -24.898  1.00 23.90 LIG-0.65  OA
ENDBRANCH 20 21
ENDBRANCH 19 20
ENDBRANCH 6 19
ENDBRANCH 4 6
ENDBRANCH 1 2
BRANCH 1 24
ATOM     24  CB  GLU E   2     -21.758 -13.902 -26.223  1.00 24.38 LIG 0.04  C 
BRANCH 24 25
ATOM     25  CG  GLU E   2     -21.389 -13.567 -27.676  1.00 27.62 LIG 0.12  C 
BRANCH 25 26
ATOM     26  CD  GLU E   2     -20.033 -14.127 -28.110  1.00 34.01 LIG 0.17  C 
ATOM     27 OE2  GLU E   2     -20.002 -15.257 -28.648  1.00 31.63 LIG-0.65  OA
ATOM     28 OE1  GLU E   2     -19.002 -13.442 -27.912  1.00 33.59 LIG-0.65  OA
ENDBRANCH 25 26
ENDBRANCH 24 25
ENDBRANCH 1 24
BRANCH 1 29
ATOM     29  N   GLU E   2     -22.426 -12.678 -24.189  1.00 16.88 LIG-0.35  N 
ATOM     30  C   TRP E   1     -22.206 -11.941 -23.104  1.00 25.23 LIG 0.25  C 
ATOM     31 O    TRP E   1     -21.093 -11.499 -22.811  1.00 23.92 LIG-0.27  OA
ATOM     32 H    GLU E   2     -23.156 -13.100 -24.352  1.00 16.88 LIG 0.16  HD
BRANCH 30 33
ATOM     33  CA  TRP E   1     -23.414 -11.633 -22.238  1.00 23.48 LIG 0.28  C 
BRANCH 33 34
ATOM     34  N   TRP E   1     -24.428 -12.682 -22.273  1.00 27.44 LIG-0.07  N 
ATOM     35 H2   TRP E   1     -25.213 -12.330 -22.501  1.00 27.44 LIG 0.28  HD
ATOM     36 H1   TRP E   1     -24.494 -13.058 -21.469  1.00 27.44 LIG 0.28  HD
ATOM     37 H3   TRP E   1     -24.195 -13.301 -22.870  1.00 27.44 LIG 0.28  HD
ENDBRANCH 33 34
BRANCH 33 38
ATOM     38  CB  TRP E   1     -22.931 -11.405 -20.805  1.00 28.17 LIG 0.08  C 
BRANCH 38 39
ATOM     39  CG  TRP E   1     -24.008 -11.055 -19.846  1.00 25.63 LIG-0.03  A 
ATOM     40  CD1 TRP E   1     -24.189 -11.569 -18.593  1.00 24.31 LIG 0.10  A 
ATOM     41  NE1 TRP E   1     -25.288 -10.996 -18.004  1.00 27.21 LIG-0.36  N 
ATOM     42 HE1  TRP E   1     -25.589 -11.181 -17.219  1.00 27.21 LIG 0.17  HD
ATOM     43  CE2 TRP E   1     -25.830 -10.082 -18.872  1.00 24.74 LIG 0.04  A 
ATOM     44  CD2 TRP E   1     -25.043 -10.091 -20.040  1.00 19.22 LIG-0.00  A 
ATOM     45  CZ2 TRP E   1     -26.935  -9.242 -18.720  1.00 22.29 LIG 0.03  A 
ATOM     46  CE3 TRP E   1     -25.387  -9.237 -21.091  1.00 22.29 LIG 0.01  A 
ATOM     47  CZ3 TRP E   1     -26.477  -8.409 -20.939  1.00 20.39 LIG 0.00  A 
ATOM     48  CH2 TRP E   1     -27.239  -8.420 -19.771  1.00 19.87 LIG 0.00  A 
ENDBRANCH 38 39
ENDBRANCH 33 38
ENDBRANCH 30 33
ENDBRANCH 1 29
TORSDOF 18
ENDMDL
MODEL 3
USER: ADFR SOLUTION from run 132
USER: SCORE 19.414342 LL:  -2.835 LR: -16.709 RR:   0.000 FEB: -11.339
USER: RMSD 2.074926
USER: SEED 131
USER: STATUS no improvement in best in 3 clusters for 5 generations
USER: GENES 20
USER: genes 0 Translation |==|  0.49838 0.38483 0.46566
USER: genes 1 Rotation |==|  0.48922 0.53863 0.51858 0.99804
USER: genes 2 Torsion [N]-CA--C-[N] |==|  0.44111
USER: genes 3 Torsion [C]-N--CA-[C] |==|  0.61690
USER: genes 4 Torsion [N]-CA--C-[N] |==|  0.45451
USER: genes 5 Torsion [C]-N--CA-[CB] |==|  0.48264
USER: genes 6 Torsion [N]-CA--CB-[CG] |==|  0.75420
USER: genes 7 Torsion [CA]-CB--CG-[CD1] |==|  0.61157
USER: genes 8 Torsion [N]-CA--C-[OXT] |==|  0.37084
USER: genes 9 Torsion [N]-CA--CB-[CG] |==|  0.75072
USER: genes 10 Torsion [CA]-CB--CG-[CD] |==|  0.63345
USER: genes 11 Torsion [CB]-CG--CD-[OE2] |==|  0.70054
USER: genes 12 Torsion [C]-CA--CB-[CG] |==|  0.14815
USER: genes 13 Torsion [CA]-CB--CG-[CD] |==|  0.21353
USER: genes 14 Torsion [CB]-CG--CD-[OE1] |==|  0.52963
USER: genes 15 Torsion [C]-CA--N-[C] |==|  0.79033
USER: genes 16 Torsion [N]-C--CA-[N] |==|  0.36052
USER: genes 17 Torsion [C]-CA--N-[H2] |==|  0.69950
USER: genes 18 Torsion [C]-CA--CB-[CG] |==|  0.30544
USER: genes 19 Torsion [CA]-CB--CG-[CD1] |==|  0.80376
ROOT
ATOM      1  CA  GLU E   2     -22.018 -13.396 -24.895  1.00 18.96 LIG 0.18  C 
ENDROOT
BRANCH 1 2
ATOM      2  C   GLU E   2     -21.729 -11.934 -25.239  1.00 19.39 LIG 0.24  C 
ATOM      3 O    GLU E   2     -22.360 -11.034 -24.709  1.00 16.83 LIG-0.27  OA
ATOM      4  N   GLU E   3     -20.730 -11.695 -26.084  1.00 20.18 LIG-0.35  N 
ATOM      5 H    GLU E   3     -20.276 -12.305 -26.486  1.00 20.18 LIG 0.16  HD
BRANCH 4 6
ATOM      6  CA  GLU E   3     -20.328 -10.322 -26.393  1.00 16.65 LIG 0.18  C 
BRANCH 6 7
ATOM      7  C   GLU E   3     -20.050 -10.174 -27.890  1.00 17.64 LIG 0.24  C 
ATOM      8 O    GLU E   3     -19.898 -11.174 -28.600  1.00 25.54 LIG-0.27  OA
ATOM      9  N   LEU E   4     -20.003  -8.935 -28.374  1.00 17.38 LIG-0.34  N 
ATOM     10 H    LEU E   4     -20.090  -8.223 -27.900  1.00 17.38 LIG 0.16  HD
BRANCH 9 11
ATOM     11  CA  LEU E   4     -19.793  -8.705 -29.797  1.00 18.86 LIG 0.18  C 
BRANCH 11 12
ATOM     12  CB  LEU E   4     -19.932  -7.220 -30.132  1.00 23.62 LIG 0.04  C 
BRANCH 12 13
ATOM     13  CG  LEU E   4     -21.330  -6.705 -30.474  1.00 21.70 LIG-0.02  C 
ATOM     14  CD2 LEU E   4     -22.262  -7.847 -30.840  1.00 23.28 LIG 0.01  C 
ATOM     15  CD1 LEU E   4     -21.239  -5.709 -31.629  1.00 18.19 LIG 0.01  C 
ENDBRANCH 12 13
ENDBRANCH 11 12
BRANCH 11 16
ATOM     16  C   LEU E   4     -18.420  -9.219 -30.231  1.00 26.72 LIG 0.20  C 
ATOM     17 OXT  LEU E   4     -18.264  -9.906 -31.248  1.00 25.91 LIG-0.65  OA
ATOM     18 O    LEU E   4     -17.424  -8.957 -29.558  1.00 22.73 LIG-0.65  OA
ENDBRANCH 11 16
ENDBRANCH 9 11
ENDBRANCH 6 7
BRANCH 6 19
ATOM     19  CB  GLU E   3     -19.096  -9.931 -25.568  1.00 17.46 LIG 0.04  C 
BRANCH 19 20
ATOM     20  CG  GLU E   3     -19.444  -9.308 -24.219  1.00 17.22 LIG 0.12  C 
BRANCH 20 21
ATOM     21  CD  GLU E   3     -18.671  -8.035 -23.957  1.00 22.54 LIG 0.17  C 
ATOM     22 OE2  GLU E   3     -17.753  -8.043 -23.103  1.00 22.26 LIG-0.65  OA
ATOM     23 OE1  GLU E   3     -18.987  -7.021 -24.608  1.00 23.90 LIG-0.65  OA
ENDBRANCH 20 21
ENDBRANCH 19 20
ENDBRANCH 6 19
ENDBRANCH 4 6
ENDBRANCH 1 2
BRANCH 1 24
ATOM     24  CB  GLU E   2     -22.814 -14.105 -26.000  1.00 24.38 LIG 0.04  C 
BRANCH 24 25
ATOM     25  CG  GLU E   2     -22.196 -14.005 -27.404  1.00 27.62 LIG 0.12  C 
BRANCH 25 26
ATOM     26  CD  GLU E   2     -21.005 -14.940 -27.618  1.00 34.01 LIG 0.17  C 
ATOM     27 OE2  GLU E   2     -20.772 -15.814 -26.752  1.00 31.63 LIG-0.65  OA
ATOM     28 OE1  GLU E   2     -20.301 -14.801 -28.646  1.00 33.59 LIG-0.65  OA
ENDBRANCH 25 26
ENDBRANCH 24 25
ENDBRANCH 1 24
BRANCH 1 29
ATOM     29  N   GLU E   2     -22.743 -13.389 -23.642  1.00 16.88 LIG-0.35  N 
ATOM     30  C   TRP E   1     -22.105 -13.158 -22.499  1.00 25.23 LIG 0.25  C 
ATOM     31 O    TRP E   1     -20.876 -13.122 -22.414  1.00 23.92 LIG-0.27  OA
ATOM     32 H    GLU E   2     -23.587 -13.542 -23.708  1.00 16.88 LIG 0.16  HD
BRANCH 30 33
ATOM     33  CA  TRP E   1     -22.973 -12.902 -21.279  1.00 23.48 LIG 0.28  C 
BRANCH 33 34
ATOM     34  N   TRP E   1     -22.602 -13.719 -20.129  1.00 27.44 LIG-0.07  N 
ATOM     35 H2   TRP E   1     -23.224 -14.343 -19.994  1.00 27.44 LIG 0.28  HD
ATOM     36 H1   TRP E   1     -22.539 -13.204 -19.406  1.00 27.44 LIG 0.28  HD
ATOM     37 H3   TRP E   1     -21.818 -14.111 -20.283  1.00 27.44 LIG 0.28  HD
ENDBRANCH 33 34
BRANCH 33 38
ATOM     38  CB  TRP E   1     -22.881 -11.416 -20.930  1.00 28.17 LIG 0.08  C 
BRANCH 38 39
ATOM     39  CG  TRP E   1     -24.124 -10.649 -21.191  1.00 25.63 LIG-0.03  A 
ATOM     40  CD1 TRP E   1     -24.645 -10.322 -22.412  1.00 24.31 LIG 0.10  A 
ATOM     41  NE1 TRP E   1     -25.810  -9.615 -22.252  1.00 27.21 LIG-0.36  N 
ATOM     42 HE1  TRP E   1     -26.297  -9.303 -22.889  1.00 27.21 LIG 0.17  HD
ATOM     43  CE2 TRP E   1     -26.070  -9.487 -20.911  1.00 24.74 LIG 0.04  A 
ATOM     44  CD2 TRP E   1     -25.029 -10.132 -20.215  1.00 19.22 LIG-0.00  A 
ATOM     45  CZ2 TRP E   1     -27.138  -8.870 -20.257  1.00 22.29 LIG 0.03  A 
ATOM     46  CE3 TRP E   1     -25.059 -10.146 -18.819  1.00 22.29 LIG 0.01  A 
ATOM     47  CZ3 TRP E   1     -26.113  -9.537 -18.175  1.00 20.39 LIG 0.00  A 
ATOM     48  CH2 TRP E   1     -27.132  -8.905 -18.889  1.00 19.87 LIG 0.00  A 
ENDBRANCH 38 39
ENDBRANCH 33 38
ENDBRANCH 30 33
ENDBRANCH 1 29
TORSDOF 18
ENDMDL
MODEL 4
USER: ADFR SOLUTION from run 73
USER: SCORE 19.118086 LL:  -2.962 LR: -16.426 RR:   0.000 FEB: -11.056
USER: RMSD 1.180597
USER: SEED 72
USER: STATUS 1 or 2 clusters left
USER: GENES 20
USER: genes 0 Translation |==|  0.52992 0.42179 0.44580
USER: genes 1 Rotation |==|  0.45627 0.46203 0.53295 0.99554
USER: genes 2 Torsion [N]-CA--C-[N] |==|  0.31200
USER: genes 3 Torsion [C]-N--CA-[C] |==|  0.75437
USER: genes 4 Torsion [N]-CA--C-[N] |==|  0.39035
USER: genes 5 Torsion [C]-N--CA-[CB] |==|  0.30291
USER: genes 6 Torsion [N]-CA--CB-[CG] |==|  0.11092
USER: genes 7 Torsion [CA]-CB--CG-[CD1] |==|  0.40039
USER: genes 8 Torsion [N]-CA--C-[OXT] |==|  0.61660
USER: genes 9 Torsion [N]-CA--CB-[CG] |==|  0.93417
USER: genes 10 Torsion [CA]-CB--CG-[CD] |==|  0.50278
USER: genes 11 Torsion [CB]-CG--CD-[OE2] |==|  0.49951
USER: genes 12 Torsion [C]-CA--CB-[CG] |==|  0.07482
USER: genes 13 Torsion [CA]-CB--CG-[CD] |==|  0.27455
USER: genes 14 Torsion [CB]-CG--CD-[OE1] |==|  0.70262
USER: genes 15 Torsion [C]-CA--N-[C] |==|  0.78889
USER: genes 16 Torsion [N]-C--CA-[N] |==|  0.13858
USER: genes 17 Torsion [C]-CA--N-[H2] |==|  0.60478
USER: genes 18 Torsion [C]-CA--CB-[CG] |==|  0.48353
USER: genes 19 Torsion [CA]-CB--CG-[CD1] |==|  0.38199
ROOT
ATOM      1  CA  GLU E   2     -21.450 -12.758 -25.327  1.00 18.96 LIG 0.18  C 
ENDROOT
BRANCH 1 2
ATOM      2  C   GLU E   2     -21.151 -11.319 -25.750  1.00 19.39 LIG 0.24  C 
ATOM      3 O    GLU E   2     -21.987 -10.661 -26.346  1.00 16.83 LIG-0.27  OA
ATOM      4  N   GLU E   3     -19.977 -10.811 -25.386  1.00 20.18 LIG-0.35  N 
ATOM      5 H    GLU E   3     -19.361 -11.251 -24.978  1.00 20.18 LIG 0.16  HD
BRANCH 4 6
ATOM      6  CA  GLU E   3     -19.651  -9.412 -25.668  1.00 16.65 LIG 0.18  C 
BRANCH 6 7
ATOM      7  C   GLU E   3     -19.009  -9.286 -27.051  1.00 17.64 LIG 0.24  C 
ATOM      8 O    GLU E   3     -18.217 -10.144 -27.454  1.00 25.54 LIG-0.27  OA
ATOM      9  N   LEU E   4     -19.364  -8.233 -27.785  1.00 17.38 LIG-0.34  N 
ATOM     10 H    LEU E   4     -19.901  -7.615 -27.523  1.00 17.38 LIG 0.16  HD
BRANCH 9 11
ATOM     11  CA  LEU E   4     -18.839  -8.062 -29.134  1.00 18.86 LIG 0.18  C 
BRANCH 11 12
ATOM     12  CB  LEU E   4     -19.933  -8.301 -30.174  1.00 23.62 LIG 0.04  C 
BRANCH 12 13
ATOM     13  CG  LEU E   4     -21.327  -7.757 -29.865  1.00 21.70 LIG-0.02  C 
ATOM     14  CD2 LEU E   4     -22.195  -8.814 -29.204  1.00 23.28 LIG 0.01  C 
ATOM     15  CD1 LEU E   4     -21.984  -7.268 -31.154  1.00 18.19 LIG 0.01  C 
ENDBRANCH 12 13
ENDBRANCH 11 12
BRANCH 11 16
ATOM     16  C   LEU E   4     -18.239  -6.667 -29.307  1.00 26.72 LIG 0.20  C 
ATOM     17 OXT  LEU E   4     -18.419  -5.994 -30.330  1.00 25.91 LIG-0.65  OA
ATOM     18 O    LEU E   4     -17.547  -6.179 -28.415  1.00 22.73 LIG-0.65  OA
ENDBRANCH 11 16
ENDBRANCH 9 11
ENDBRANCH 6 7
BRANCH 6 19
ATOM     19  CB  GLU E   3     -18.723  -8.853 -24.584  1.00 17.46 LIG 0.04  C 
BRANCH 19 20
ATOM     20  CG  GLU E   3     -18.823  -9.602 -23.257  1.00 17.22 LIG 0.12  C 
BRANCH 20 21
ATOM     21  CD  GLU E   3     -17.916  -9.017 -22.197  1.00 22.54 LIG 0.17  C 
ATOM     22 OE2  GLU E   3     -17.900  -9.534 -21.055  1.00 22.26 LIG-0.65  OA
ATOM     23 OE1  GLU E   3     -17.218  -8.034 -22.510  1.00 23.90 LIG-0.65  OA
ENDBRANCH 20 21
ENDBRANCH 19 20
ENDBRANCH 6 19
ENDBRANCH 4 6
ENDBRANCH 1 2
BRANCH 1 24
ATOM     24  CB  GLU E   2     -21.826 -13.647 -26.522  1.00 24.38 LIG 0.04  C 
BRANCH 24 25
ATOM     25  CG  GLU E   2     -21.236 -13.199 -27.868  1.00 27.62 LIG 0.12  C 
BRANCH 25 26
ATOM     26  CD  GLU E   2     -19.978 -13.970 -28.273  1.00 34.01 LIG 0.17  C 
ATOM     27 OE2  GLU E   2     -20.104 -15.156 -28.654  1.00 31.63 LIG-0.65  OA
ATOM     28 OE1  GLU E   2     -18.867 -13.393 -28.209  1.00 33.59 LIG-0.65  OA
ENDBRANCH 25 26
ENDBRANCH 24 25
ENDBRANCH 1 24
BRANCH 1 29
ATOM     29  N   GLU E   2     -22.526 -12.689 -24.359  1.00 16.88 LIG-0.35  N 
ATOM     30  C   TRP E   1     -22.282 -12.294 -23.113  1.00 25.23 LIG 0.25  C 
ATOM     31 O    TRP E   1     -21.142 -12.148 -22.669  1.00 23.92 LIG-0.27  OA
ATOM     32 H    GLU E   2     -23.299 -12.918 -24.657  1.00 16.88 LIG 0.16  HD
BRANCH 30 33
ATOM     33  CA  TRP E   1     -23.495 -11.993 -22.250  1.00 23.48 LIG 0.28  C 
BRANCH 33 34
ATOM     34  N   TRP E   1     -24.492 -13.057 -22.270  1.00 27.44 LIG-0.07  N 
ATOM     35 H2   TRP E   1     -25.308 -12.700 -22.261  1.00 27.44 LIG 0.28  HD
ATOM     36 H1   TRP E   1     -24.388 -13.576 -21.555  1.00 27.44 LIG 0.28  HD
ATOM     37 H3   TRP E   1     -24.391 -13.546 -23.008  1.00 27.44 LIG 0.28  HD
ENDBRANCH 33 34
BRANCH 33 38
ATOM     38  CB  TRP E   1     -23.013 -11.740 -20.821  1.00 28.17 LIG 0.08  C 
BRANCH 38 39
ATOM     39  CG  TRP E   1     -24.078 -11.295 -19.888  1.00 25.63 LIG-0.03  A 
ATOM     40  CD1 TRP E   1     -24.270 -11.715 -18.602  1.00 24.31 LIG 0.10  A 
ATOM     41  NE1 TRP E   1     -25.352 -11.074 -18.053  1.00 27.21 LIG-0.36  N 
ATOM     42 HE1  TRP E   1     -25.655 -11.195 -17.257  1.00 27.21 LIG 0.17  HD
ATOM     43  CE2 TRP E   1     -25.871 -10.208 -18.982  1.00 24.74 LIG 0.04  A 
ATOM     44  CD2 TRP E   1     -25.088 -10.320 -20.148  1.00 19.22 LIG-0.00  A 
ATOM     45  CZ2 TRP E   1     -26.954  -9.331 -18.889  1.00 22.29 LIG 0.03  A 
ATOM     46  CE3 TRP E   1     -25.412  -9.534 -21.256  1.00 22.29 LIG 0.01  A 
ATOM     47  CZ3 TRP E   1     -26.480  -8.668 -21.162  1.00 20.39 LIG 0.00  A 
ATOM     48  CH2 TRP E   1     -27.239  -8.578 -19.995  1.00 19.87 LIG 0.00  A 
ENDBRANCH 38 39
ENDBRANCH 33 38
ENDBRANCH 30 33
ENDBRANCH 1 29
TORSDOF 18
ENDMDL
