MODEL 1
USER: ADFR SOLUTION from run 14
USER: SCORE 22.479147 LL:  -5.014 LR: -20.392 RR:   0.000 FEB: -12.337
USER: RMSD 1.663407
USER: SEED 377940
USER: STATUS no improvement in best in 2 clusters for 5 generations
USER: GENES 29
USER: genes 0 Translation |==|  0.47790 0.49772 0.54740
USER: genes 1 Rotation |==|  0.49057 0.41662 0.45713 0.99104
USER: genes 2 Torsion [C]-N--CA-[CB] |==|  0.24196
USER: genes 3 Torsion [N]-CA--CB-[CG] |==|  0.49592
USER: genes 4 Torsion [CA]-CB--CG-[CD] |==|  0.46846
USER: genes 5 Torsion [CB]-CG--CD-[OE1] |==|  0.94718
USER: genes 6 Torsion [N]-CA--C-[N] |==|  0.40752
USER: genes 7 Torsion [C]-N--CA-[CB] |==|  0.24306
USER: genes 8 Torsion [N]-CA--CB-[CG2] |==|  0.47602
USER: genes 9 Torsion [CA]-CB--OG1-[HG1] |==|  0.25056
USER: genes 10 Torsion [N]-CA--C-[N] |==|  0.36386
USER: genes 11 Torsion [C]-N--CA-[CB] |==|  0.48192
USER: genes 12 Torsion [N]-CA--C-[N] |==|  0.43550
USER: genes 13 Torsion [C]-N--CA-[CB] |==|  0.23023
USER: genes 14 Torsion [N]-CA--CB-[CG1] |==|  0.72902
USER: genes 15 Torsion [N]-CA--C-[OXT] |==|  0.87066
USER: genes 16 Torsion [N]-C--CA-[N] |==|  0.46589
USER: genes 17 Torsion [C]-CA--N-[C] |==|  0.77197
USER: genes 18 Torsion [N]-C--CA-[N] |==|  0.23223
USER: genes 19 Torsion [C]-CA--N-[C] |==|  0.77778
USER: genes 20 Torsion [N]-C--CA-[N] |==|  0.17158
USER: genes 21 Torsion [C]-CA--CB-[CG] |==|  0.64314
USER: genes 22 Torsion [CA]-CB--CG-[CD] |==|  0.20063
USER: genes 23 Torsion [CB]-CG--CD-[OE1] |==|  0.18625
USER: genes 24 Torsion [C]-CA--CB-[CG] |==|  0.22001
USER: genes 25 Torsion [CA]-CB--CG-[OD2] |==|  0.53529
USER: genes 26 Torsion [C]-CA--CB-[CG] |==|  0.27404
USER: genes 27 Torsion [CA]-CB--CG-[CD] |==|  0.65859
USER: genes 28 Torsion [CB]-CG--CD-[NE2] |==|  0.25336
ROOT
ATOM      1  C   GLN P 203      48.317  23.753  63.364  1.00  9.42 LIG 0.24  C 
ATOM      2 O    GLN P 203      48.181  22.783  64.106  1.00  9.14 LIG-0.27  OA
ATOM      3  N   GLU P 204      48.292  23.683  62.037  1.00  8.86 LIG-0.35  N 
ATOM      4 H    GLU P 204      48.372  24.373  61.529  1.00  8.86 LIG 0.16  HD
ENDROOT
BRANCH 3 5
ATOM      5  CA  GLU P 204      48.129  22.440  61.309  1.00  8.20 LIG 0.18  C 
BRANCH 5 6
ATOM      6  CB  GLU P 204      46.639  22.125  61.122  1.00  8.38 LIG 0.04  C 
BRANCH 6 7
ATOM      7  CG  GLU P 204      46.369  20.856  60.337  1.00  8.68 LIG 0.12  C 
BRANCH 7 8
ATOM      8  CD  GLU P 204      44.931  20.393  60.378  1.00  9.48 LIG 0.17  C 
ATOM      9 OE2  GLU P 204      44.560  19.591  59.490  1.00  9.77 LIG-0.65  OA
ATOM     10 OE1  GLU P 204      44.162  20.813  61.285  1.00 12.74 LIG-0.65  OA
ENDBRANCH 7 8
ENDBRANCH 6 7
ENDBRANCH 5 6
BRANCH 5 11
ATOM     11  C   GLU P 204      48.831  22.559  59.958  1.00  7.44 LIG 0.24  C 
ATOM     12  N   THR P 205      49.375  21.443  59.483  1.00  7.26 LIG-0.34  N 
ATOM     13 H    THR P 205      49.304  20.679  59.872  1.00  7.26 LIG 0.16  HD
ATOM     14 O    GLU P 204      48.858  23.633  59.354  1.00  9.81 LIG-0.27  OA
BRANCH 12 15
ATOM     15  CA  THR P 205      50.155  21.409  58.240  1.00  8.42 LIG 0.20  C 
BRANCH 15 16
ATOM     16  CB  THR P 205      51.642  21.726  58.512  1.00  8.21 LIG 0.15  C 
ATOM     17  CG2 THR P 205      52.499  21.487  57.272  1.00 10.35 LIG 0.04  C 
BRANCH 16 18
ATOM     18 OG1  THR P 205      51.758  23.086  58.915  1.00  9.36 LIG-0.39  OA
ATOM     19 HG1  THR P 205      51.692  23.138  59.750  1.00  9.36 LIG 0.21  HD
ENDBRANCH 16 18
ENDBRANCH 15 16
BRANCH 15 20
ATOM     20  C   THR P 205      50.048  20.022  57.623  1.00  8.16 LIG 0.24  C 
ATOM     21  N   ALA P 206      49.739  19.954  56.326  1.00  8.68 LIG-0.35  N 
ATOM     22 H    ALA P 206      49.515  20.639  55.856  1.00  8.68 LIG 0.16  HD
ATOM     23 O    THR P 205      50.264  19.028  58.310  1.00  8.51 LIG-0.27  OA
BRANCH 21 24
ATOM     24  CA  ALA P 206      49.751  18.696  55.577  1.00  9.43 LIG 0.17  C 
ATOM     25  CB  ALA P 206      49.207  18.909  54.182  1.00 10.70 LIG 0.04  C 
BRANCH 24 26
ATOM     26  C   ALA P 206      51.178  18.185  55.487  1.00  8.67 LIG 0.24  C 
ATOM     27  N   VAL P 207      51.343  16.887  55.283  1.00  8.87 LIG-0.34  N 
ATOM     28 H    VAL P 207      50.689  16.334  55.203  1.00  8.87 LIG 0.16  HD
ATOM     29 O    ALA P 206      52.125  18.969  55.578  1.00 12.25 LIG-0.27  OA
BRANCH 27 30
ATOM     30  CA  VAL P 207      52.665  16.263  55.170  1.00 10.42 LIG 0.19  C 
BRANCH 30 31
ATOM     31  CB  VAL P 207      53.262  15.964  56.559  1.00 10.06 LIG 0.01  C 
ATOM     32  CG2 VAL P 207      52.174  15.798  57.603  1.00  9.34 LIG 0.01  C 
ATOM     33  CG1 VAL P 207      54.221  17.064  56.969  1.00 12.13 LIG 0.01  C 
ENDBRANCH 30 31
BRANCH 30 34
ATOM     34  C   VAL P 207      52.603  14.975  54.353  1.00 10.78 LIG 0.20  C 
ATOM     35 OXT  VAL P 207      51.715  14.117  54.563  1.00 11.55 LIG-0.65  OA
ATOM     36 O    VAL P 207      53.464  14.770  53.495  1.00 12.79 LIG-0.65  OA
ENDBRANCH 30 34
ENDBRANCH 27 30
ENDBRANCH 24 26
ENDBRANCH 21 24
ENDBRANCH 15 20
ENDBRANCH 12 15
ENDBRANCH 5 11
ENDBRANCH 3 5
BRANCH 1 37
ATOM     37  CA  GLN P 203      48.494  25.135  63.955  1.00 11.41 LIG 0.18  C 
BRANCH 37 38
ATOM     38  N   GLN P 203      48.198  25.014  65.374  1.00 12.67 LIG-0.35  N 
ATOM     39 H    GLN P 203      48.897  24.934  65.868  1.00 12.67 LIG 0.16  HD
ATOM     40  C   ASP P 202      46.970  25.027  65.857  1.00 21.18 LIG 0.24  C 
ATOM     41 O    ASP P 202      45.971  25.208  65.164  1.00 33.25 LIG-0.27  OA
BRANCH 40 42
ATOM     42  CA  ASP P 202      46.868  24.815  67.358  1.00 16.67 LIG 0.19  C 
BRANCH 42 43
ATOM     43  N   ASP P 202      47.077  26.078  68.059  1.00 26.09 LIG-0.34  N 
ATOM     44 H    ASP P 202      46.350  26.459  68.314  1.00 26.09 LIG 0.16  HD
ATOM     45  C   GLU P 201      48.287  26.587  68.279  1.00 35.13 LIG 0.26  C 
ATOM     46 O    GLU P 201      49.343  26.065  67.893  1.00 29.54 LIG-0.27  OA
BRANCH 45 47
ATOM     47  CA  GLU P 201      48.313  27.886  69.062  1.00 34.09 LIG 0.40  C 
ATOM     48  N   GLU P 201      47.750  27.682  70.392  1.00 44.06 LIG 0.61  N 
BRANCH 47 49
ATOM     49  CB  GLU P 201      49.746  28.398  69.154  1.00 39.23 LIG 0.06  C 
BRANCH 49 50
ATOM     50  CG  GLU P 201      50.176  28.722  70.565  1.00 50.88 LIG 0.12  C 
BRANCH 50 51
ATOM     51  CD  GLU P 201      50.393  27.487  71.404  1.00 53.24 LIG 0.17  C 
ATOM     52 OE1  GLU P 201      51.340  26.721  71.117  1.00 48.77 LIG-0.65  OA
ATOM     53 OE2  GLU P 201      49.598  27.259  72.337  1.00 60.00 LIG-0.65  OA
ENDBRANCH 50 51
ENDBRANCH 49 50
ENDBRANCH 47 49
ENDBRANCH 45 47
ENDBRANCH 42 43
BRANCH 42 54
ATOM     54  CB  ASP P 202      45.498  24.217  67.693  1.00 19.05 LIG 0.15  C 
BRANCH 54 55
ATOM     55  CG  ASP P 202      45.416  22.706  67.422  1.00 27.39 LIG 0.17  C 
ATOM     56 OD2  ASP P 202      44.290  22.159  67.427  1.00 38.79 LIG-0.65  OA
ATOM     57 OD1  ASP P 202      46.463  22.061  67.207  1.00 28.21 LIG-0.65  OA
ENDBRANCH 54 55
ENDBRANCH 42 54
ENDBRANCH 40 42
ENDBRANCH 37 38
BRANCH 37 58
ATOM     58  CB  GLN P 203      49.930  25.644  63.754  1.00 11.55 LIG 0.04  C 
BRANCH 58 59
ATOM     59  CG  GLN P 203      50.104  26.584  62.578  1.00 10.86 LIG 0.10  C 
BRANCH 59 60
ATOM     60  CD  GLN P 203      51.137  26.099  61.580  1.00 14.61 LIG 0.21  C 
ATOM     61  NE2 GLN P 203      50.680  25.346  60.586  1.00 16.54 LIG-0.37  N 
ATOM     62 21HE GLN P 203      49.845  25.147  60.546  1.00 16.54 LIG 0.16  HD
ATOM     63 22HE GLN P 203      51.220  25.057  59.982  1.00 16.54 LIG 0.16  HD
ATOM     64 OE1  GLN P 203      52.323  26.414  61.685  1.00 19.59 LIG-0.27  OA
ENDBRANCH 59 60
ENDBRANCH 58 59
ENDBRANCH 37 58
ENDBRANCH 1 37
TORSDOF 27
ENDMDL
MODEL 2
USER: ADFR SOLUTION from run 90
USER: SCORE 20.873185 LL:  -4.788 LR: -19.972 RR:   0.000 FEB: -11.918
USER: RMSD 3.877179
USER: SEED 89
USER: STATUS no improvement in best in 2 clusters for 5 generations
USER: GENES 29
USER: genes 0 Translation |==|  0.49513 0.50266 0.54100
USER: genes 1 Rotation |==|  0.47514 0.46569 0.48961 0.99809
USER: genes 2 Torsion [C]-N--CA-[CB] |==|  0.26052
USER: genes 3 Torsion [N]-CA--CB-[CG] |==|  0.45192
USER: genes 4 Torsion [CA]-CB--CG-[CD] |==|  0.48987
USER: genes 5 Torsion [CB]-CG--CD-[OE1] |==|  0.97431
USER: genes 6 Torsion [N]-CA--C-[N] |==|  0.36305
USER: genes 7 Torsion [C]-N--CA-[CB] |==|  0.29920
USER: genes 8 Torsion [N]-CA--CB-[CG2] |==|  0.48934
USER: genes 9 Torsion [CA]-CB--OG1-[HG1] |==|  0.14221
USER: genes 10 Torsion [N]-CA--C-[N] |==|  0.37281
USER: genes 11 Torsion [C]-N--CA-[CB] |==|  0.46667
USER: genes 12 Torsion [N]-CA--C-[N] |==|  0.42077
USER: genes 13 Torsion [C]-N--CA-[CB] |==|  0.25165
USER: genes 14 Torsion [N]-CA--CB-[CG1] |==|  0.73623
USER: genes 15 Torsion [N]-CA--C-[OXT] |==|  0.89060
USER: genes 16 Torsion [N]-C--CA-[N] |==|  0.45179
USER: genes 17 Torsion [C]-CA--N-[C] |==|  0.66710
USER: genes 18 Torsion [N]-C--CA-[N] |==|  0.81020
USER: genes 19 Torsion [C]-CA--N-[C] |==|  0.60574
USER: genes 20 Torsion [N]-C--CA-[N] |==|  0.92871
USER: genes 21 Torsion [C]-CA--CB-[CG] |==|  0.48400
USER: genes 22 Torsion [CA]-CB--CG-[CD] |==|  0.58096
USER: genes 23 Torsion [CB]-CG--CD-[OE1] |==|  0.57117
USER: genes 24 Torsion [C]-CA--CB-[CG] |==|  0.38246
USER: genes 25 Torsion [CA]-CB--CG-[OD2] |==|  0.50451
USER: genes 26 Torsion [C]-CA--CB-[CG] |==|  0.28213
USER: genes 27 Torsion [CA]-CB--CG-[CD] |==|  0.72044
USER: genes 28 Torsion [CB]-CG--CD-[NE2] |==|  0.55029
ROOT
ATOM      1  C   GLN P 203      48.627  23.883  63.196  1.00  9.42 LIG 0.24  C 
ATOM      2 O    GLN P 203      48.762  22.963  64.000  1.00  9.14 LIG-0.27  OA
ATOM      3  N   GLU P 204      48.346  23.709  61.909  1.00  8.86 LIG-0.35  N 
ATOM      4 H    GLU P 204      48.238  24.363  61.360  1.00  8.86 LIG 0.16  HD
ENDROOT
BRANCH 3 5
ATOM      5  CA  GLU P 204      48.194  22.404  61.296  1.00  8.20 LIG 0.18  C 
BRANCH 5 6
ATOM      6  CB  GLU P 204      46.716  21.989  61.291  1.00  8.38 LIG 0.04  C 
BRANCH 6 7
ATOM      7  CG  GLU P 204      46.394  20.864  60.328  1.00  8.68 LIG 0.12  C 
BRANCH 7 8
ATOM      8  CD  GLU P 204      44.960  20.391  60.381  1.00  9.48 LIG 0.17  C 
ATOM      9 OE2  GLU P 204      44.585  19.589  59.495  1.00  9.77 LIG-0.65  OA
ATOM     10 OE1  GLU P 204      44.196  20.804  61.296  1.00 12.74 LIG-0.65  OA
ENDBRANCH 7 8
ENDBRANCH 6 7
ENDBRANCH 5 6
BRANCH 5 11
ATOM     11  C   GLU P 204      48.747  22.454  59.874  1.00  7.44 LIG 0.24  C 
ATOM     12  N   THR P 205      49.590  21.482  59.542  1.00  7.26 LIG-0.34  N 
ATOM     13 H    THR P 205      49.786  20.827  60.064  1.00  7.26 LIG 0.16  HD
ATOM     14 O    GLU P 204      48.399  23.342  59.093  1.00  9.81 LIG-0.27  OA
BRANCH 12 15
ATOM     15  CA  THR P 205      50.273  21.434  58.243  1.00  8.42 LIG 0.20  C 
BRANCH 15 16
ATOM     16  CB  THR P 205      51.772  21.771  58.393  1.00  8.21 LIG 0.15  C 
ATOM     17  CG2 THR P 205      52.511  21.633  57.065  1.00 10.35 LIG 0.04  C 
BRANCH 16 18
ATOM     18 OG1  THR P 205      51.900  23.106  58.871  1.00  9.36 LIG-0.39  OA
ATOM     19 HG1  THR P 205      51.419  23.207  59.552  1.00  9.36 LIG 0.21  HD
ENDBRANCH 16 18
ENDBRANCH 15 16
BRANCH 15 20
ATOM     20  C   THR P 205      50.134  20.035  57.659  1.00  8.16 LIG 0.24  C 
ATOM     21  N   ALA P 206      49.790  19.944  56.373  1.00  8.68 LIG-0.35  N 
ATOM     22 H    ALA P 206      49.562  20.621  55.894  1.00  8.68 LIG 0.16  HD
ATOM     23 O    THR P 205      50.357  19.054  58.362  1.00  8.51 LIG-0.27  OA
BRANCH 21 24
ATOM     24  CA  ALA P 206      49.769  18.670  55.650  1.00  9.43 LIG 0.17  C 
ATOM     25  CB  ALA P 206      49.069  18.831  54.319  1.00 10.70 LIG 0.04  C 
BRANCH 24 26
ATOM     26  C   ALA P 206      51.197  18.209  55.416  1.00  8.67 LIG 0.24  C 
ATOM     27  N   VAL P 207      51.402  16.903  55.326  1.00  8.87 LIG-0.34  N 
ATOM     28 H    VAL P 207      50.774  16.319  55.398  1.00  8.87 LIG 0.16  HD
ATOM     29 O    ALA P 206      52.103  19.034  55.290  1.00 12.25 LIG-0.27  OA
BRANCH 27 30
ATOM     30  CA  VAL P 207      52.728  16.323  55.096  1.00 10.42 LIG 0.19  C 
BRANCH 30 31
ATOM     31  CB  VAL P 207      53.448  16.026  56.426  1.00 10.06 LIG 0.01  C 
ATOM     32  CG2 VAL P 207      52.456  15.750  57.540  1.00  9.34 LIG 0.01  C 
ATOM     33  CG1 VAL P 207      54.356  17.180  56.803  1.00 12.13 LIG 0.01  C 
ENDBRANCH 30 31
BRANCH 30 34
ATOM     34  C   VAL P 207      52.638  15.044  54.267  1.00 10.78 LIG 0.20  C 
ATOM     35 OXT  VAL P 207      51.715  14.217  54.452  1.00 11.55 LIG-0.65  OA
ATOM     36 O    VAL P 207      53.510  14.813  53.427  1.00 12.79 LIG-0.65  OA
ENDBRANCH 30 34
ENDBRANCH 27 30
ENDBRANCH 24 26
ENDBRANCH 21 24
ENDBRANCH 15 20
ENDBRANCH 12 15
ENDBRANCH 5 11
ENDBRANCH 3 5
BRANCH 1 37
ATOM     37  CA  GLN P 203      48.749  25.317  63.664  1.00 11.41 LIG 0.18  C 
BRANCH 37 38
ATOM     38  N   GLN P 203      48.637  25.285  65.114  1.00 12.67 LIG-0.35  N 
ATOM     39 H    GLN P 203      49.245  24.814  65.498  1.00 12.67 LIG 0.16  HD
ATOM     40  C   ASP P 202      47.689  25.920  65.777  1.00 21.18 LIG 0.24  C 
ATOM     41 O    ASP P 202      46.857  26.648  65.239  1.00 33.25 LIG-0.27  OA
BRANCH 40 42
ATOM     42  CA  ASP P 202      47.701  25.703  67.281  1.00 16.67 LIG 0.19  C 
BRANCH 42 43
ATOM     43  N   ASP P 202      47.338  24.325  67.592  1.00 26.09 LIG-0.34  N 
ATOM     44 H    ASP P 202      47.656  23.747  67.040  1.00 26.09 LIG 0.16  HD
ATOM     45  C   GLU P 201      46.582  23.998  68.638  1.00 35.13 LIG 0.26  C 
ATOM     46 O    GLU P 201      46.092  24.819  69.427  1.00 29.54 LIG-0.27  OA
BRANCH 45 47
ATOM     47  CA  GLU P 201      46.344  22.512  68.829  1.00 34.09 LIG 0.40  C 
ATOM     48  N   GLU P 201      46.465  21.816  67.553  1.00 44.06 LIG 0.61  N 
BRANCH 47 49
ATOM     49  CB  GLU P 201      47.342  21.962  69.842  1.00 39.23 LIG 0.06  C 
BRANCH 49 50
ATOM     50  CG  GLU P 201      47.094  20.516  70.202  1.00 50.88 LIG 0.12  C 
BRANCH 50 51
ATOM     51  CD  GLU P 201      47.545  20.181  71.603  1.00 53.24 LIG 0.17  C 
ATOM     52 OE1  GLU P 201      47.856  18.999  71.870  1.00 48.77 LIG-0.65  OA
ATOM     53 OE2  GLU P 201      47.563  21.094  72.452  1.00 60.00 LIG-0.65  OA
ENDBRANCH 50 51
ENDBRANCH 49 50
ENDBRANCH 47 49
ENDBRANCH 45 47
ENDBRANCH 42 43
BRANCH 42 54
ATOM     54  CB  ASP P 202      49.090  26.047  67.830  1.00 19.05 LIG 0.15  C 
BRANCH 54 55
ATOM     55  CG  ASP P 202      49.040  26.843  69.144  1.00 27.39 LIG 0.17  C 
ATOM     56 OD2  ASP P 202      50.119  27.204  69.665  1.00 38.79 LIG-0.65  OA
ATOM     57 OD1  ASP P 202      47.935  27.111  69.660  1.00 28.21 LIG-0.65  OA
ENDBRANCH 54 55
ENDBRANCH 42 54
ENDBRANCH 40 42
ENDBRANCH 37 38
BRANCH 37 58
ATOM     58  CB  GLN P 203      50.099  25.922  63.250  1.00 11.55 LIG 0.04  C 
BRANCH 58 59
ATOM     59  CG  GLN P 203      50.035  26.833  62.040  1.00 10.86 LIG 0.10  C 
BRANCH 59 60
ATOM     60  CD  GLN P 203      50.492  26.156  60.763  1.00 14.61 LIG 0.21  C 
ATOM     61  NE2 GLN P 203      50.818  26.962  59.759  1.00 16.54 LIG-0.37  N 
ATOM     62 21HE GLN P 203      50.748  27.814  59.851  1.00 16.54 LIG 0.16  HD
ATOM     63 22HE GLN P 203      51.099  26.632  59.017  1.00 16.54 LIG 0.16  HD
ATOM     64 OE1  GLN P 203      50.574  24.930  60.686  1.00 19.59 LIG-0.27  OA
ENDBRANCH 59 60
ENDBRANCH 58 59
ENDBRANCH 37 58
ENDBRANCH 1 37
TORSDOF 27
ENDMDL
MODEL 3
USER: ADFR SOLUTION from run 105
USER: SCORE 20.977032 LL:  -4.534 LR: -19.313 RR:   0.000 FEB: -11.259
USER: RMSD 3.043507
USER: SEED 104
USER: STATUS 1 or 2 clusters left
USER: GENES 29
USER: genes 0 Translation |==|  0.49087 0.49267 0.53868
USER: genes 1 Rotation |==|  0.49658 0.44380 0.46968 0.99589
USER: genes 2 Torsion [C]-N--CA-[CB] |==|  0.27047
USER: genes 3 Torsion [N]-CA--CB-[CG] |==|  0.51001
USER: genes 4 Torsion [CA]-CB--CG-[CD] |==|  0.44714
USER: genes 5 Torsion [CB]-CG--CD-[OE1] |==|  0.45150
USER: genes 6 Torsion [N]-CA--C-[N] |==|  0.38937
USER: genes 7 Torsion [C]-N--CA-[CB] |==|  0.26580
USER: genes 8 Torsion [N]-CA--CB-[CG2] |==|  0.46144
USER: genes 9 Torsion [CA]-CB--OG1-[HG1] |==|  0.16991
USER: genes 10 Torsion [N]-CA--C-[N] |==|  0.33088
USER: genes 11 Torsion [C]-N--CA-[CB] |==|  0.48962
USER: genes 12 Torsion [N]-CA--C-[N] |==|  0.39490
USER: genes 13 Torsion [C]-N--CA-[CB] |==|  0.26782
USER: genes 14 Torsion [N]-CA--CB-[CG1] |==|  0.73041
USER: genes 15 Torsion [N]-CA--C-[OXT] |==|  0.86963
USER: genes 16 Torsion [N]-C--CA-[N] |==|  0.41253
USER: genes 17 Torsion [C]-CA--N-[C] |==|  0.78946
USER: genes 18 Torsion [N]-C--CA-[N] |==|  0.38964
USER: genes 19 Torsion [C]-CA--N-[C] |==|  0.79298
USER: genes 20 Torsion [N]-C--CA-[N] |==|  0.34983
USER: genes 21 Torsion [C]-CA--CB-[CG] |==|  0.10985
USER: genes 22 Torsion [CA]-CB--CG-[CD] |==|  0.20534
USER: genes 23 Torsion [CB]-CG--CD-[OE1] |==|  0.47184
USER: genes 24 Torsion [C]-CA--CB-[CG] |==|  0.62633
USER: genes 25 Torsion [CA]-CB--CG-[OD2] |==|  0.34508
USER: genes 26 Torsion [C]-CA--CB-[CG] |==|  0.28319
USER: genes 27 Torsion [CA]-CB--CG-[CD] |==|  0.51835
USER: genes 28 Torsion [CB]-CG--CD-[NE2] |==|  0.49814
ROOT
ATOM      1  C   GLN P 203      48.551  23.621  63.135  1.00  9.42 LIG 0.24  C 
ATOM      2 O    GLN P 203      48.547  22.629  63.860  1.00  9.14 LIG-0.27  OA
ATOM      3  N   GLU P 204      48.384  23.579  61.817  1.00  8.86 LIG-0.35  N 
ATOM      4 H    GLU P 204      48.372  24.282  61.323  1.00  8.86 LIG 0.16  HD
ENDROOT
BRANCH 3 5
ATOM      5  CA  GLU P 204      48.207  22.345  61.076  1.00  8.20 LIG 0.18  C 
BRANCH 5 6
ATOM      6  CB  GLU P 204      46.715  22.087  60.823  1.00  8.38 LIG 0.04  C 
BRANCH 6 7
ATOM      7  CG  GLU P 204      46.425  20.772  60.127  1.00  8.68 LIG 0.12  C 
BRANCH 7 8
ATOM      8  CD  GLU P 204      45.000  20.293  60.272  1.00  9.48 LIG 0.17  C 
ATOM      9 OE2  GLU P 204      44.310  20.807  61.183  1.00  9.77 LIG-0.65  OA
ATOM     10 OE1  GLU P 204      44.550  19.412  59.489  1.00 12.74 LIG-0.65  OA
ENDBRANCH 7 8
ENDBRANCH 6 7
ENDBRANCH 5 6
BRANCH 5 11
ATOM     11  C   GLU P 204      48.971  22.441  59.759  1.00  7.44 LIG 0.24  C 
ATOM     12  N   THR P 205      49.606  21.340  59.371  1.00  7.26 LIG-0.34  N 
ATOM     13 H    THR P 205      49.561  20.593  59.795  1.00  7.26 LIG 0.16  HD
ATOM     14 O    GLU P 204      48.966  23.484  59.101  1.00  9.81 LIG-0.27  OA
BRANCH 12 15
ATOM     15  CA  THR P 205      50.453  21.294  58.172  1.00  8.42 LIG 0.20  C 
BRANCH 15 16
ATOM     16  CB  THR P 205      51.937  21.517  58.534  1.00  8.21 LIG 0.15  C 
ATOM     17  CG2 THR P 205      52.857  21.139  57.377  1.00 10.35 LIG 0.04  C 
BRANCH 16 18
ATOM     18 OG1  THR P 205      52.131  22.888  58.867  1.00  9.36 LIG-0.39  OA
ATOM     19 HG1  THR P 205      51.658  23.085  59.532  1.00  9.36 LIG 0.21  HD
ENDBRANCH 16 18
ENDBRANCH 15 16
BRANCH 15 20
ATOM     20  C   THR P 205      50.303  19.933  57.509  1.00  8.16 LIG 0.24  C 
ATOM     21  N   ALA P 206      49.828  19.912  56.261  1.00  8.68 LIG-0.35  N 
ATOM     22 H    ALA P 206      49.526  20.608  55.858  1.00  8.68 LIG 0.16  HD
ATOM     23 O    THR P 205      50.634  18.918  58.114  1.00  8.51 LIG-0.27  OA
BRANCH 21 24
ATOM     24  CA  ALA P 206      49.776  18.689  55.457  1.00  9.43 LIG 0.17  C 
ATOM     25  CB  ALA P 206      49.108  18.960  54.128  1.00 10.70 LIG 0.04  C 
BRANCH 24 26
ATOM     26  C   ALA P 206      51.191  18.192  55.217  1.00  8.67 LIG 0.24  C 
ATOM     27  N   VAL P 207      51.381  16.881  55.236  1.00  8.87 LIG-0.34  N 
ATOM     28 H    VAL P 207      50.751  16.313  55.378  1.00  8.87 LIG 0.16  HD
ATOM     29 O    ALA P 206      52.099  18.992  54.990  1.00 12.25 LIG-0.27  OA
BRANCH 27 30
ATOM     30  CA  VAL P 207      52.693  16.267  55.013  1.00 10.42 LIG 0.19  C 
BRANCH 30 31
ATOM     31  CB  VAL P 207      53.395  15.946  56.347  1.00 10.06 LIG 0.01  C 
ATOM     32  CG2 VAL P 207      52.388  15.742  57.463  1.00  9.34 LIG 0.01  C 
ATOM     33  CG1 VAL P 207      54.368  17.050  56.711  1.00 12.13 LIG 0.01  C 
ENDBRANCH 30 31
BRANCH 30 34
ATOM     34  C   VAL P 207      52.577  14.994  54.178  1.00 10.78 LIG 0.20  C 
ATOM     35 OXT  VAL P 207      51.715  14.123  54.443  1.00 11.55 LIG-0.65  OA
ATOM     36 O    VAL P 207      53.367  14.813  53.250  1.00 12.79 LIG-0.65  OA
ENDBRANCH 30 34
ENDBRANCH 27 30
ENDBRANCH 24 26
ENDBRANCH 21 24
ENDBRANCH 15 20
ENDBRANCH 12 15
ENDBRANCH 5 11
ENDBRANCH 3 5
BRANCH 1 37
ATOM     37  CA  GLN P 203      48.720  24.997  63.742  1.00 11.41 LIG 0.18  C 
BRANCH 37 38
ATOM     38  N   GLN P 203      48.144  24.930  65.076  1.00 12.67 LIG-0.35  N 
ATOM     39 H    GLN P 203      48.730  24.892  65.704  1.00 12.67 LIG 0.16  HD
ATOM     40  C   ASP P 202      46.844  24.927  65.300  1.00 21.18 LIG 0.24  C 
ATOM     41 O    ASP P 202      46.003  25.048  64.412  1.00 33.25 LIG-0.27  OA
BRANCH 40 42
ATOM     42  CA  ASP P 202      46.444  24.778  66.759  1.00 16.67 LIG 0.19  C 
BRANCH 42 43
ATOM     43  N   ASP P 202      45.310  25.645  67.060  1.00 26.09 LIG-0.34  N 
ATOM     44 H    ASP P 202      44.564  25.226  67.142  1.00 26.09 LIG 0.16  HD
ATOM     45  C   GLU P 201      45.428  26.964  67.193  1.00 35.13 LIG 0.26  C 
ATOM     46 O    GLU P 201      46.490  27.586  67.049  1.00 29.54 LIG-0.27  OA
BRANCH 45 47
ATOM     47  CA  GLU P 201      44.149  27.698  67.550  1.00 34.09 LIG 0.40  C 
ATOM     48  N   GLU P 201      44.353  28.509  68.745  1.00 44.06 LIG 0.61  N 
BRANCH 47 49
ATOM     49  CB  GLU P 201      43.714  28.566  66.375  1.00 39.23 LIG 0.06  C 
BRANCH 49 50
ATOM     50  CG  GLU P 201      43.917  27.901  65.033  1.00 50.88 LIG 0.12  C 
BRANCH 50 51
ATOM     51  CD  GLU P 201      42.906  26.813  64.766  1.00 53.24 LIG 0.17  C 
ATOM     52 OE1  GLU P 201      42.842  26.317  63.619  1.00 48.77 LIG-0.65  OA
ATOM     53 OE2  GLU P 201      42.148  26.469  65.695  1.00 60.00 LIG-0.65  OA
ENDBRANCH 50 51
ENDBRANCH 49 50
ENDBRANCH 47 49
ENDBRANCH 45 47
ENDBRANCH 42 43
BRANCH 42 54
ATOM     54  CB  ASP P 202      46.110  23.310  67.043  1.00 19.05 LIG 0.15  C 
BRANCH 54 55
ATOM     55  CG  ASP P 202      44.814  23.131  67.853  1.00 27.39 LIG 0.17  C 
ATOM     56 OD2  ASP P 202      43.910  22.407  67.380  1.00 38.79 LIG-0.65  OA
ATOM     57 OD1  ASP P 202      44.693  23.707  68.954  1.00 28.21 LIG-0.65  OA
ENDBRANCH 54 55
ENDBRANCH 42 54
ENDBRANCH 40 42
ENDBRANCH 37 38
BRANCH 37 58
ATOM     58  CB  GLN P 203      50.203  25.388  63.822  1.00 11.55 LIG 0.04  C 
BRANCH 58 59
ATOM     59  CG  GLN P 203      50.659  26.350  62.743  1.00 10.86 LIG 0.10  C 
BRANCH 59 60
ATOM     60  CD  GLN P 203      52.156  26.588  62.756  1.00 14.61 LIG 0.21  C 
ATOM     61  NE2 GLN P 203      52.625  27.412  61.825  1.00 16.54 LIG-0.37  N 
ATOM     62 21HE GLN P 203      52.089  27.762  61.251  1.00 16.54 LIG 0.16  HD
ATOM     63 22HE GLN P 203      53.464  27.595  61.796  1.00 16.54 LIG 0.16  HD
ATOM     64 OE1  GLN P 203      52.879  26.061  63.602  1.00 19.59 LIG-0.27  OA
ENDBRANCH 59 60
ENDBRANCH 58 59
ENDBRANCH 37 58
ENDBRANCH 1 37
TORSDOF 27
ENDMDL
MODEL 4
USER: ADFR SOLUTION from run 149
USER: SCORE 20.314186 LL:  -4.427 LR: -19.023 RR:   0.000 FEB: -10.968
USER: RMSD 4.217519
USER: SEED 148
USER: STATUS no improvement in best in 3 clusters for 5 generations
USER: GENES 29
USER: genes 0 Translation |==|  0.49033 0.49719 0.54323
USER: genes 1 Rotation |==|  0.48847 0.42788 0.45622 0.99270
USER: genes 2 Torsion [C]-N--CA-[CB] |==|  0.24463
USER: genes 3 Torsion [N]-CA--CB-[CG] |==|  0.48974
USER: genes 4 Torsion [CA]-CB--CG-[CD] |==|  0.46875
USER: genes 5 Torsion [CB]-CG--CD-[OE1] |==|  0.94896
USER: genes 6 Torsion [N]-CA--C-[N] |==|  0.38475
USER: genes 7 Torsion [C]-N--CA-[CB] |==|  0.26111
USER: genes 8 Torsion [N]-CA--CB-[CG2] |==|  0.47293
USER: genes 9 Torsion [CA]-CB--OG1-[HG1] |==|  0.18445
USER: genes 10 Torsion [N]-CA--C-[N] |==|  0.35358
USER: genes 11 Torsion [C]-N--CA-[CB] |==|  0.50189
USER: genes 12 Torsion [N]-CA--C-[N] |==|  0.44527
USER: genes 13 Torsion [C]-N--CA-[CB] |==|  0.21811
USER: genes 14 Torsion [N]-CA--CB-[CG1] |==|  0.73580
USER: genes 15 Torsion [N]-CA--C-[OXT] |==|  0.37128
USER: genes 16 Torsion [N]-C--CA-[N] |==|  0.43596
USER: genes 17 Torsion [C]-CA--N-[C] |==|  0.78115
USER: genes 18 Torsion [N]-C--CA-[N] |==|  0.79336
USER: genes 19 Torsion [C]-CA--N-[C] |==|  0.65888
USER: genes 20 Torsion [N]-C--CA-[N] |==|  0.29144
USER: genes 21 Torsion [C]-CA--CB-[CG] |==|  0.76894
USER: genes 22 Torsion [CA]-CB--CG-[CD] |==|  0.34802
USER: genes 23 Torsion [CB]-CG--CD-[OE1] |==|  0.38152
USER: genes 24 Torsion [C]-CA--CB-[CG] |==|  0.55586
USER: genes 25 Torsion [CA]-CB--CG-[OD2] |==|  0.91068
USER: genes 26 Torsion [C]-CA--CB-[CG] |==|  0.26751
USER: genes 27 Torsion [CA]-CB--CG-[CD] |==|  0.50859
USER: genes 28 Torsion [CB]-CG--CD-[NE2] |==|  0.52851
ROOT
ATOM      1  C   GLN P 203      48.541  23.739  63.255  1.00  9.42 LIG 0.24  C 
ATOM      2 O    GLN P 203      48.434  22.773  64.005  1.00  9.14 LIG-0.27  OA
ATOM      3  N   GLU P 204      48.455  23.665  61.930  1.00  8.86 LIG-0.35  N 
ATOM      4 H    GLU P 204      48.514  24.352  61.416  1.00  8.86 LIG 0.16  HD
ENDROOT
BRANCH 3 5
ATOM      5  CA  GLU P 204      48.252  22.420  61.215  1.00  8.20 LIG 0.18  C 
BRANCH 5 6
ATOM      6  CB  GLU P 204      46.752  22.124  61.077  1.00  8.38 LIG 0.04  C 
BRANCH 6 7
ATOM      7  CG  GLU P 204      46.439  20.884  60.264  1.00  8.68 LIG 0.12  C 
BRANCH 7 8
ATOM      8  CD  GLU P 204      44.999  20.434  60.344  1.00  9.48 LIG 0.17  C 
ATOM      9 OE2  GLU P 204      44.589  19.655  59.453  1.00  9.77 LIG-0.65  OA
ATOM     10 OE1  GLU P 204      44.266  20.842  61.286  1.00 12.74 LIG-0.65  OA
ENDBRANCH 7 8
ENDBRANCH 6 7
ENDBRANCH 5 6
BRANCH 5 11
ATOM     11  C   GLU P 204      48.912  22.522  59.842  1.00  7.44 LIG 0.24  C 
ATOM     12  N   THR P 205      49.572  21.444  59.431  1.00  7.26 LIG-0.34  N 
ATOM     13 H    THR P 205      49.595  20.706  59.872  1.00  7.26 LIG 0.16  HD
ATOM     14 O    GLU P 204      48.806  23.547  59.166  1.00  9.81 LIG-0.27  OA
BRANCH 12 15
ATOM     15  CA  THR P 205      50.330  21.410  58.174  1.00  8.42 LIG 0.20  C 
BRANCH 15 16
ATOM     16  CB  THR P 205      51.815  21.756  58.414  1.00  8.21 LIG 0.15  C 
ATOM     17  CG2 THR P 205      52.658  21.493  57.170  1.00 10.35 LIG 0.04  C 
BRANCH 16 18
ATOM     18 OG1  THR P 205      51.918  23.129  58.776  1.00  9.36 LIG-0.39  OA
ATOM     19 HG1  THR P 205      51.552  23.250  59.522  1.00  9.36 LIG 0.21  HD
ENDBRANCH 16 18
ENDBRANCH 15 16
BRANCH 15 20
ATOM     20  C   THR P 205      50.235  20.015  57.573  1.00  8.16 LIG 0.24  C 
ATOM     21  N   ALA P 206      49.830  19.925  56.304  1.00  8.68 LIG-0.35  N 
ATOM     22 H    ALA P 206      49.541  20.595  55.850  1.00  8.68 LIG 0.16  HD
ATOM     23 O    THR P 205      50.546  19.037  58.245  1.00  8.51 LIG-0.27  OA
BRANCH 21 24
ATOM     24  CA  ALA P 206      49.839  18.663  55.561  1.00  9.43 LIG 0.17  C 
ATOM     25  CB  ALA P 206      49.341  18.879  54.149  1.00 10.70 LIG 0.04  C 
BRANCH 24 26
ATOM     26  C   ALA P 206      51.257  18.122  55.517  1.00  8.67 LIG 0.24  C 
ATOM     27  N   VAL P 207      51.403  16.832  55.253  1.00  8.87 LIG-0.34  N 
ATOM     28 H    VAL P 207      50.742  16.301  55.111  1.00  8.87 LIG 0.16  HD
ATOM     29 O    ALA P 206      52.214  18.877  55.698  1.00 12.25 LIG-0.27  OA
BRANCH 27 30
ATOM     30  CA  VAL P 207      52.715  16.183  55.175  1.00 10.42 LIG 0.19  C 
BRANCH 30 31
ATOM     31  CB  VAL P 207      53.281  15.895  56.579  1.00 10.06 LIG 0.01  C 
ATOM     32  CG2 VAL P 207      52.169  15.707  57.593  1.00  9.34 LIG 0.01  C 
ATOM     33  CG1 VAL P 207      54.206  17.014  57.014  1.00 12.13 LIG 0.01  C 
ENDBRANCH 30 31
BRANCH 30 34
ATOM     34  C   VAL P 207      52.645  14.884  54.376  1.00 10.78 LIG 0.20  C 
ATOM     35 OXT  VAL P 207      53.496  14.619  53.495  1.00 11.55 LIG-0.65  OA
ATOM     36 O    VAL P 207      51.715  14.102  54.586  1.00 12.79 LIG-0.65  OA
ENDBRANCH 30 34
ENDBRANCH 27 30
ENDBRANCH 24 26
ENDBRANCH 21 24
ENDBRANCH 15 20
ENDBRANCH 12 15
ENDBRANCH 5 11
ENDBRANCH 3 5
BRANCH 1 37
ATOM     37  CA  GLN P 203      48.752  25.123  63.832  1.00 11.41 LIG 0.18  C 
BRANCH 37 38
ATOM     38  N   GLN P 203      48.273  25.071  65.204  1.00 12.67 LIG-0.35  N 
ATOM     39 H    GLN P 203      48.901  24.999  65.787  1.00 12.67 LIG 0.16  HD
ATOM     40  C   ASP P 202      46.994  25.129  65.523  1.00 21.18 LIG 0.24  C 
ATOM     41 O    ASP P 202      46.097  25.298  64.699  1.00 33.25 LIG-0.27  OA
BRANCH 40 42
ATOM     42  CA  ASP P 202      46.695  24.986  67.006  1.00 16.67 LIG 0.19  C 
BRANCH 42 43
ATOM     43  N   ASP P 202      46.861  23.597  67.421  1.00 26.09 LIG-0.34  N 
ATOM     44 H    ASP P 202      47.643  23.277  67.260  1.00 26.09 LIG 0.16  HD
ATOM     45  C   GLU P 201      45.886  22.896  67.995  1.00 35.13 LIG 0.26  C 
ATOM     46 O    GLU P 201      44.746  23.333  68.207  1.00 29.54 LIG-0.27  OA
BRANCH 45 47
ATOM     47  CA  GLU P 201      46.254  21.480  68.398  1.00 34.09 LIG 0.40  C 
ATOM     48  N   GLU P 201      46.433  21.401  69.843  1.00 44.06 LIG 0.61  N 
BRANCH 47 49
ATOM     49  CB  GLU P 201      45.167  20.518  67.934  1.00 39.23 LIG 0.06  C 
BRANCH 49 50
ATOM     50  CG  GLU P 201      43.996  20.436  68.884  1.00 50.88 LIG 0.12  C 
BRANCH 50 51
ATOM     51  CD  GLU P 201      42.677  20.718  68.205  1.00 53.24 LIG 0.17  C 
ATOM     52 OE1  GLU P 201      41.692  19.999  68.479  1.00 48.77 LIG-0.65  OA
ATOM     53 OE2  GLU P 201      42.629  21.644  67.371  1.00 60.00 LIG-0.65  OA
ENDBRANCH 50 51
ENDBRANCH 49 50
ENDBRANCH 47 49
ENDBRANCH 45 47
ENDBRANCH 42 43
BRANCH 42 54
ATOM     54  CB  ASP P 202      47.620  25.915  67.799  1.00 19.05 LIG 0.15  C 
BRANCH 54 55
ATOM     55  CG  ASP P 202      47.758  25.512  69.277  1.00 27.39 LIG 0.17  C 
ATOM     56 OD2  ASP P 202      46.779  24.978  69.844  1.00 38.79 LIG-0.65  OA
ATOM     57 OD1  ASP P 202      48.833  25.725  69.875  1.00 28.21 LIG-0.65  OA
ENDBRANCH 54 55
ENDBRANCH 42 54
ENDBRANCH 40 42
ENDBRANCH 37 38
BRANCH 37 58
ATOM     58  CB  GLN P 203      50.238  25.514  63.802  1.00 11.55 LIG 0.04  C 
BRANCH 58 59
ATOM     59  CG  GLN P 203      50.642  26.353  62.606  1.00 10.86 LIG 0.10  C 
BRANCH 59 60
ATOM     60  CD  GLN P 203      52.127  26.657  62.571  1.00 14.61 LIG 0.21  C 
ATOM     61  NE2 GLN P 203      52.518  27.558  61.676  1.00 16.54 LIG-0.37  N 
ATOM     62 21HE GLN P 203      51.943  27.918  61.149  1.00 16.54 LIG 0.16  HD
ATOM     63 22HE GLN P 203      53.347  27.780  61.624  1.00 16.54 LIG 0.16  HD
ATOM     64 OE1  GLN P 203      52.908  26.111  63.350  1.00 19.59 LIG-0.27  OA
ENDBRANCH 59 60
ENDBRANCH 58 59
ENDBRANCH 37 58
ENDBRANCH 1 37
TORSDOF 27
ENDMDL
MODEL 5
USER: ADFR SOLUTION from run 67
USER: SCORE 21.456830 LL:  -5.366 LR: -18.901 RR:   0.000 FEB: -10.847
USER: RMSD 3.442147
USER: SEED 66
USER: STATUS no improvement in best in 3 clusters for 5 generations
USER: GENES 29
USER: genes 0 Translation |==|  0.47080 0.48659 0.54280
USER: genes 1 Rotation |==|  0.51133 0.44952 0.47459 0.99667
USER: genes 2 Torsion [C]-N--CA-[CB] |==|  0.28322
USER: genes 3 Torsion [N]-CA--CB-[CG] |==|  0.51712
USER: genes 4 Torsion [CA]-CB--CG-[CD] |==|  0.43496
USER: genes 5 Torsion [CB]-CG--CD-[OE1] |==|  0.96810
USER: genes 6 Torsion [N]-CA--C-[N] |==|  0.40785
USER: genes 7 Torsion [C]-N--CA-[CB] |==|  0.23330
USER: genes 8 Torsion [N]-CA--CB-[CG2] |==|  0.45470
USER: genes 9 Torsion [CA]-CB--OG1-[HG1] |==|  0.28566
USER: genes 10 Torsion [N]-CA--C-[N] |==|  0.34089
USER: genes 11 Torsion [C]-N--CA-[CB] |==|  0.49191
USER: genes 12 Torsion [N]-CA--C-[N] |==|  0.43655
USER: genes 13 Torsion [C]-N--CA-[CB] |==|  0.22998
USER: genes 14 Torsion [N]-CA--CB-[CG1] |==|  0.74775
USER: genes 15 Torsion [N]-CA--C-[OXT] |==|  0.88630
USER: genes 16 Torsion [N]-C--CA-[N] |==|  0.42857
USER: genes 17 Torsion [C]-CA--N-[C] |==|  0.77964
USER: genes 18 Torsion [N]-C--CA-[N] |==|  0.42683
USER: genes 19 Torsion [C]-CA--N-[C] |==|  0.63271
USER: genes 20 Torsion [N]-C--CA-[N] |==|  0.90369
USER: genes 21 Torsion [C]-CA--CB-[CG] |==|  0.90684
USER: genes 22 Torsion [CA]-CB--CG-[CD] |==|  0.79387
USER: genes 23 Torsion [CB]-CG--CD-[OE1] |==|  0.99238
USER: genes 24 Torsion [C]-CA--CB-[CG] |==|  0.45150
USER: genes 25 Torsion [CA]-CB--CG-[OD2] |==|  0.49943
USER: genes 26 Torsion [C]-CA--CB-[CG] |==|  0.28256
USER: genes 27 Torsion [CA]-CB--CG-[CD] |==|  0.81286
USER: genes 28 Torsion [CB]-CG--CD-[NE2] |==|  0.28104
ROOT
ATOM      1  C   GLN P 203      48.189  23.461  63.244  1.00  9.42 LIG 0.24  C 
ATOM      2 O    GLN P 203      48.225  22.429  63.909  1.00  9.14 LIG-0.27  OA
ATOM      3  N   GLU P 204      47.997  23.490  61.928  1.00  8.86 LIG-0.35  N 
ATOM      4 H    GLU P 204      47.957  24.221  61.476  1.00  8.86 LIG 0.16  HD
ENDROOT
BRANCH 3 5
ATOM      5  CA  GLU P 204      47.836  22.297  61.121  1.00  8.20 LIG 0.18  C 
BRANCH 5 6
ATOM      6  CB  GLU P 204      46.355  22.078  60.785  1.00  8.38 LIG 0.04  C 
BRANCH 6 7
ATOM      7  CG  GLU P 204      46.071  20.774  60.068  1.00  8.68 LIG 0.12  C 
BRANCH 7 8
ATOM      8  CD  GLU P 204      44.651  20.277  60.220  1.00  9.48 LIG 0.17  C 
ATOM      9 OE2  GLU P 204      44.292  19.330  59.483  1.00  9.77 LIG-0.65  OA
ATOM     10 OE1  GLU P 204      43.886  20.813  61.066  1.00 12.74 LIG-0.65  OA
ENDBRANCH 7 8
ENDBRANCH 6 7
ENDBRANCH 5 6
BRANCH 5 11
ATOM     11  C   GLU P 204      48.664  22.443  59.847  1.00  7.44 LIG 0.24  C 
ATOM     12  N   THR P 205      49.188  21.323  59.360  1.00  7.26 LIG-0.34  N 
ATOM     13 H    THR P 205      49.040  20.545  59.697  1.00  7.26 LIG 0.16  HD
ATOM     14 O    GLU P 204      48.806  23.543  59.309  1.00  9.81 LIG-0.27  OA
BRANCH 12 15
ATOM     15  CA  THR P 205      50.076  21.305  58.191  1.00  8.42 LIG 0.20  C 
BRANCH 15 16
ATOM     16  CB  THR P 205      51.534  21.606  58.600  1.00  8.21 LIG 0.15  C 
ATOM     17  CG2 THR P 205      52.516  21.206  57.503  1.00 10.35 LIG 0.04  C 
BRANCH 16 18
ATOM     18 OG1  THR P 205      51.662  22.998  58.867  1.00  9.36 LIG-0.39  OA
ATOM     19 HG1  THR P 205      51.676  23.125  59.697  1.00  9.36 LIG 0.21  HD
ENDBRANCH 16 18
ENDBRANCH 15 16
BRANCH 15 20
ATOM     20  C   THR P 205      50.016  19.931  57.541  1.00  8.16 LIG 0.24  C 
ATOM     21  N   ALA P 206      49.657  19.880  56.256  1.00  8.68 LIG-0.35  N 
ATOM     22 H    ALA P 206      49.378  20.563  55.815  1.00  8.68 LIG 0.16  HD
ATOM     23 O    THR P 205      50.313  18.933  58.190  1.00  8.51 LIG-0.27  OA
BRANCH 21 24
ATOM     24  CA  ALA P 206      49.704  18.644  55.471  1.00  9.43 LIG 0.17  C 
ATOM     25  CB  ALA P 206      49.171  18.885  54.077  1.00 10.70 LIG 0.04  C 
BRANCH 24 26
ATOM     26  C   ALA P 206      51.142  18.165  55.385  1.00  8.67 LIG 0.24  C 
ATOM     27  N   VAL P 207      51.336  16.878  55.139  1.00  8.87 LIG-0.34  N 
ATOM     28 H    VAL P 207      50.694  16.315  55.031  1.00  8.87 LIG 0.16  HD
ATOM     29 O    ALA P 206      52.071  18.964  55.516  1.00 12.25 LIG-0.27  OA
BRANCH 27 30
ATOM     30  CA  VAL P 207      52.671  16.285  55.024  1.00 10.42 LIG 0.19  C 
BRANCH 30 31
ATOM     31  CB  VAL P 207      53.256  15.952  56.410  1.00 10.06 LIG 0.01  C 
ATOM     32  CG2 VAL P 207      52.165  15.569  57.392  1.00  9.34 LIG 0.01  C 
ATOM     33  CG1 VAL P 207      54.054  17.126  56.942  1.00 12.13 LIG 0.01  C 
ENDBRANCH 30 31
BRANCH 30 34
ATOM     34  C   VAL P 207      52.647  15.024  54.164  1.00 10.78 LIG 0.20  C 
ATOM     35 OXT  VAL P 207      51.715  14.191  54.262  1.00 11.55 LIG-0.65  OA
ATOM     36 O    VAL P 207      53.579  14.813  53.386  1.00 12.79 LIG-0.65  OA
ENDBRANCH 30 34
ENDBRANCH 27 30
ENDBRANCH 24 26
ENDBRANCH 21 24
ENDBRANCH 15 20
ENDBRANCH 12 15
ENDBRANCH 5 11
ENDBRANCH 3 5
BRANCH 1 37
ATOM     37  CA  GLN P 203      48.336  24.805  63.926  1.00 11.41 LIG 0.18  C 
BRANCH 37 38
ATOM     38  N   GLN P 203      47.919  24.610  65.306  1.00 12.67 LIG-0.35  N 
ATOM     39 H    GLN P 203      48.574  24.526  65.856  1.00 12.67 LIG 0.16  HD
ATOM     40  C   ASP P 202      46.653  24.566  65.677  1.00 21.18 LIG 0.24  C 
ATOM     41 O    ASP P 202      45.714  24.751  64.905  1.00 33.25 LIG-0.27  OA
BRANCH 40 42
ATOM     42  CA  ASP P 202      46.426  24.283  67.152  1.00 16.67 LIG 0.19  C 
BRANCH 42 43
ATOM     43  N   ASP P 202      45.152  24.847  67.582  1.00 26.09 LIG-0.34  N 
ATOM     44 H    ASP P 202      44.495  24.663  67.058  1.00 26.09 LIG 0.16  HD
ATOM     45  C   GLU P 201      45.025  25.580  68.686  1.00 35.13 LIG 0.26  C 
ATOM     46 O    GLU P 201      45.965  25.877  69.436  1.00 29.54 LIG-0.27  OA
BRANCH 45 47
ATOM     47  CA  GLU P 201      43.615  26.046  68.998  1.00 34.09 LIG 0.40  C 
ATOM     48  N   GLU P 201      42.894  26.325  67.761  1.00 44.06 LIG 0.61  N 
BRANCH 47 49
ATOM     49  CB  GLU P 201      42.895  24.980  69.815  1.00 39.23 LIG 0.06  C 
BRANCH 49 50
ATOM     50  CG  GLU P 201      43.307  23.571  69.457  1.00 50.88 LIG 0.12  C 
BRANCH 50 51
ATOM     51  CD  GLU P 201      42.734  23.116  68.138  1.00 53.24 LIG 0.17  C 
ATOM     52 OE1  GLU P 201      41.965  23.884  67.517  1.00 48.77 LIG-0.65  OA
ATOM     53 OE2  GLU P 201      43.025  21.975  67.729  1.00 60.00 LIG-0.65  OA
ENDBRANCH 50 51
ENDBRANCH 49 50
ENDBRANCH 47 49
ENDBRANCH 45 47
ENDBRANCH 42 43
BRANCH 42 54
ATOM     54  CB  ASP P 202      46.469  22.769  67.388  1.00 19.05 LIG 0.15  C 
BRANCH 54 55
ATOM     55  CG  ASP P 202      46.678  22.393  68.864  1.00 27.39 LIG 0.17  C 
ATOM     56 OD2  ASP P 202      46.725  21.181  69.171  1.00 38.79 LIG-0.65  OA
ATOM     57 OD1  ASP P 202      46.794  23.296  69.719  1.00 28.21 LIG-0.65  OA
ENDBRANCH 54 55
ENDBRANCH 42 54
ENDBRANCH 40 42
ENDBRANCH 37 38
BRANCH 37 58
ATOM     58  CB  GLN P 203      49.790  25.296  63.874  1.00 11.55 LIG 0.04  C 
BRANCH 58 59
ATOM     59  CG  GLN P 203      50.060  26.352  62.820  1.00 10.86 LIG 0.10  C 
BRANCH 59 60
ATOM     60  CD  GLN P 203      49.932  25.822  61.405  1.00 14.61 LIG 0.21  C 
ATOM     61  NE2 GLN P 203      48.801  26.112  60.773  1.00 16.54 LIG-0.37  N 
ATOM     62 21HE GLN P 203      48.187  26.562  61.173  1.00 16.54 LIG 0.16  HD
ATOM     63 22HE GLN P 203      48.682  25.850  59.963  1.00 16.54 LIG 0.16  HD
ATOM     64 OE1  GLN P 203      50.843  25.181  60.879  1.00 19.59 LIG-0.27  OA
ENDBRANCH 59 60
ENDBRANCH 58 59
ENDBRANCH 37 58
ENDBRANCH 1 37
TORSDOF 27
ENDMDL
