MODEL 1
USER: ADFR SOLUTION from run 10
USER: SCORE 19.676023 LL:  -2.779 LR: -19.993 RR:   0.000 FEB: -12.834
USER: RMSD 1.824714
USER: SEED 660375
USER: STATUS no improvement in best in 2 clusters for 5 generations
USER: GENES 26
USER: genes 0 Translation |==|  0.48247 0.50105 0.52491
USER: genes 1 Rotation |==|  0.51414 0.46714 0.45413 0.99660
USER: genes 2 Torsion [N]-C--CA-[N] |==|  0.39094
USER: genes 3 Torsion [C]-CA--CB-[CG] |==|  0.23775
USER: genes 4 Torsion [CA]-CB--CG-[CD] |==|  0.50059
USER: genes 5 Torsion [CB]-CG--CD-[OE1] |==|  0.37274
USER: genes 6 Torsion [C]-CA--N-[C] |==|  0.62249
USER: genes 7 Torsion [N]-C--CA-[N] |==|  0.40258
USER: genes 8 Torsion [C]-CA--CB-[CG] |==|  0.65531
USER: genes 9 Torsion [CA]-CB--CG-[CD] |==|  0.60085
USER: genes 10 Torsion [CB]-CG--CD-[NE] |==|  0.67393
USER: genes 11 Torsion [CG]-CD--NE-[CZ] |==|  0.37784
USER: genes 12 Torsion [C]-CA--N-[C] |==|  0.79335
USER: genes 13 Torsion [N]-C--CA-[N] |==|  0.31176
USER: genes 14 Torsion [C]-N--CA-[CB] |==|  0.27605
USER: genes 15 Torsion [N]-CA--CB-[CG2] |==|  0.51237
USER: genes 16 Torsion [CA]-CB--OG1-[HG1] |==|  0.20440
USER: genes 17 Torsion [N]-CA--C-[N] |==|  0.34448
USER: genes 18 Torsion [C]-N--CA-[CB] |==|  0.42548
USER: genes 19 Torsion [N]-CA--CB-[CG] |==|  0.55302
USER: genes 20 Torsion [CA]-CB--CG-[CD] |==|  0.71755
USER: genes 21 Torsion [CB]-CG--CD-[OE1] |==|  0.72607
USER: genes 22 Torsion [N]-CA--C-[N] |==|  0.25858
USER: genes 23 Torsion [C]-N--CA-[C] |==|  0.74975
USER: genes 24 Torsion [N]-CA--C-[O] |==|  0.35415
USER: genes 25 Torsion [N]-CA--CB-[CG2] |==|  0.09207
ROOT
ATOM      1  C   GLU E  10      34.858 -33.653  -8.473  1.00 63.15 LIG 0.24  C 
ATOM      2 O    GLU E  10      35.166 -34.819  -8.214  1.00 62.80 LIG-0.27  OA
ATOM      3  N   THR E  11      34.353 -33.271  -9.660  1.00 58.35 LIG-0.34  N 
ATOM      4 H    THR E  11      34.144 -32.457  -9.842  1.00 58.35 LIG 0.16  HD
ENDROOT
BRANCH 1 5
ATOM      5  CA  GLU E  10      35.038 -32.562  -7.412  1.00 61.04 LIG 0.18  C 
BRANCH 5 6
ATOM      6  CB  GLU E  10      36.480 -32.027  -7.402  1.00 62.44 LIG 0.04  C 
BRANCH 6 7
ATOM      7  CG  GLU E  10      36.740 -30.915  -8.408  1.00 71.88 LIG 0.12  C 
BRANCH 7 8
ATOM      8  CD  GLU E  10      38.154 -30.365  -8.430  1.00 89.61 LIG 0.17  C 
ATOM      9 OE1  GLU E  10      38.717 -30.195  -9.536  1.00 85.83 LIG-0.65  OA
ATOM     10 OE2  GLU E  10      38.682 -30.056  -7.338  1.00 80.51 LIG-0.65  OA
ENDBRANCH 7 8
ENDBRANCH 6 7
ENDBRANCH 5 6
BRANCH 5 11
ATOM     11  N   GLU E  10      34.674 -33.093  -6.099  1.00 62.09 LIG-0.35  N 
ATOM     12  C   ARG E   9      33.926 -32.442  -5.194  1.00 67.00 LIG 0.24  C 
ATOM     13 O    ARG E   9      33.476 -31.308  -5.373  1.00 66.41 LIG-0.27  OA
ATOM     14 H    GLU E  10      34.990 -33.880  -5.955  1.00 62.09 LIG 0.16  HD
BRANCH 12 15
ATOM     15  CA  ARG E   9      33.642 -33.185  -3.888  1.00 65.18 LIG 0.18  C 
BRANCH 15 16
ATOM     16  CB  ARG E   9      32.334 -33.986  -4.013  1.00 65.91 LIG 0.04  C 
BRANCH 16 17
ATOM     17  CG  ARG E   9      31.281 -33.670  -2.949  1.00 77.53 LIG 0.02  C 
BRANCH 17 18
ATOM     18  CD  ARG E   9      30.475 -34.886  -2.496  1.00 87.32 LIG 0.14  C 
BRANCH 18 19
ATOM     19  NE  ARG E   9      29.043 -34.773  -2.794  1.00 94.16 LIG-0.23  N 
ATOM     20  CZ  ARG E   9      28.293 -35.748  -3.302  1.00107.18 LIG 0.67  C 
ATOM     21  NH2 ARG E   9      27.005 -35.545  -3.539  1.00 92.81 LIG-0.23  N 
ATOM     22  NH1 ARG E   9      28.825 -36.934  -3.571  1.00 95.67 LIG-0.23  N 
ATOM     23 1HH2 ARG E   9      26.650 -34.781  -3.365  1.00 92.81 LIG 0.17  HD
ATOM     24 2HH2 ARG E   9      26.523 -36.178  -3.867  1.00 92.81 LIG 0.17  HD
ATOM     25 2HH1 ARG E   9      28.335 -37.561  -3.898  1.00 95.67 LIG 0.17  HD
ATOM     26 1HH1 ARG E   9      29.660 -37.076  -3.417  1.00 95.67 LIG 0.17  HD
ATOM     27 HE   ARG E   9      28.660 -34.020  -2.630  1.00 94.16 LIG 0.18  HD
ENDBRANCH 18 19
ENDBRANCH 17 18
ENDBRANCH 16 17
ENDBRANCH 15 16
BRANCH 15 28
ATOM     28  N   ARG E   9      33.595 -32.289  -2.728  1.00 66.15 LIG-0.35  N 
ATOM     29 H    ARG E   9      32.795 -32.153  -2.443  1.00 66.15 LIG 0.16  HD
ATOM     30  C   GLY E   8      34.674 -31.725  -2.149  1.00 70.79 LIG 0.25  C 
ATOM     31 O    GLY E   8      35.829 -31.907  -2.545  1.00 70.42 LIG-0.27  OA
BRANCH 30 32
ATOM     32  CA  GLY E   8      34.411 -30.831  -0.956  1.00 68.19 LIG 0.47  C 
ATOM     33  N   GLY E   8      34.915 -31.385   0.292  1.00 68.87 LIG 0.61  N 
ENDBRANCH 30 32
ENDBRANCH 15 28
ENDBRANCH 12 15
ENDBRANCH 5 11
ENDBRANCH 1 5
BRANCH 3 34
ATOM     34  CA  THR E  11      34.108 -34.204 -10.762  1.00 57.37 LIG 0.20  C 
BRANCH 34 35
ATOM     35  CB  THR E  11      32.617 -34.600 -10.814  1.00 62.59 LIG 0.15  C 
ATOM     36  CG2 THR E  11      32.318 -35.655 -11.876  1.00 60.54 LIG 0.04  C 
BRANCH 35 37
ATOM     37 OG1  THR E  11      32.209 -35.084  -9.535  1.00 61.42 LIG-0.39  OA
ATOM     38 HG1  THR E  11      32.141 -34.441  -9.000  1.00 61.42 LIG 0.21  HD
ENDBRANCH 35 37
ENDBRANCH 34 35
BRANCH 34 39
ATOM     39  C   THR E  11      34.609 -33.646 -12.097  1.00 59.93 LIG 0.24  C 
ATOM     40 O    THR E  11      34.194 -32.561 -12.507  1.00 59.05 LIG-0.27  OA
ATOM     41  N   GLU E  12      35.487 -34.407 -12.774  1.00 55.90 LIG-0.35  N 
ATOM     42 H    GLU E  12      35.783 -35.155 -12.472  1.00 55.90 LIG 0.16  HD
BRANCH 41 43
ATOM     43  CA  GLU E  12      36.031 -34.056 -14.086  1.00 55.43 LIG 0.18  C 
BRANCH 43 44
ATOM     44  CB  GLU E  12      37.419 -34.694 -14.303  1.00 56.88 LIG 0.04  C 
BRANCH 44 45
ATOM     45  CG  GLU E  12      38.255 -34.049 -15.397  1.00 68.03 LIG 0.12  C 
BRANCH 45 46
ATOM     46  CD  GLU E  12      38.290 -34.795 -16.718  1.00 88.63 LIG 0.17  C 
ATOM     47 OE1  GLU E  12      39.273 -35.531 -16.967  1.00 85.30 LIG-0.65  OA
ATOM     48 OE2  GLU E  12      37.310 -34.677 -17.488  1.00 81.03 LIG-0.65  OA
ENDBRANCH 45 46
ENDBRANCH 44 45
ENDBRANCH 43 44
BRANCH 43 49
ATOM     49  C   GLU E  12      35.053 -34.545 -15.155  1.00 58.58 LIG 0.24  C 
ATOM     50 O    GLU E  12      35.121 -35.709 -15.557  1.00 58.36 LIG-0.27  OA
ATOM     51  N   VAL E  13      34.126 -33.670 -15.589  1.00 54.46 LIG-0.34  N 
ATOM     52 H    VAL E  13      34.063 -32.866 -15.289  1.00 54.46 LIG 0.16  HD
BRANCH 51 53
ATOM     53  CA  VAL E  13      33.125 -33.995 -16.618  1.00 55.96 LIG 0.19  C 
BRANCH 53 54
ATOM     54  C   VAL E  13      33.613 -33.678 -18.046  1.00 65.43 LIG 0.20  C 
ATOM     55 O    VAL E  13      33.551 -34.576 -18.914  1.00 66.90 LIG-0.65  OA
ATOM     56 OXT  VAL E  13      34.075 -32.542 -18.288  1.00 83.99 LIG-0.65  OA
ENDBRANCH 53 54
BRANCH 53 57
ATOM     57  CB  VAL E  13      31.693 -33.444 -16.330  1.00 59.73 LIG 0.01  C 
ATOM     58  CG2 VAL E  13      31.728 -32.110 -15.589  1.00 59.40 LIG 0.01  C 
ATOM     59  CG1 VAL E  13      30.839 -34.467 -15.583  1.00 59.53 LIG 0.01  C 
ENDBRANCH 53 57
ENDBRANCH 51 53
ENDBRANCH 43 49
ENDBRANCH 41 43
ENDBRANCH 34 39
ENDBRANCH 3 34
TORSDOF 24
ENDMDL
MODEL 2
USER: ADFR SOLUTION from run 150
USER: SCORE 19.505152 LL:  -3.008 LR: -18.959 RR:   0.000 FEB: -11.800
USER: RMSD 3.133133
USER: SEED 149
USER: STATUS no improvement in best in 2 clusters for 5 generations
USER: GENES 26
USER: genes 0 Translation |==|  0.47546 0.50364 0.54161
USER: genes 1 Rotation |==|  0.50101 0.42972 0.48524 0.99482
USER: genes 2 Torsion [N]-C--CA-[N] |==|  0.38136
USER: genes 3 Torsion [C]-CA--CB-[CG] |==|  0.13289
USER: genes 4 Torsion [CA]-CB--CG-[CD] |==|  0.48179
USER: genes 5 Torsion [CB]-CG--CD-[OE1] |==|  0.05138
USER: genes 6 Torsion [C]-CA--N-[C] |==|  0.56159
USER: genes 7 Torsion [N]-C--CA-[N] |==|  0.94451
USER: genes 8 Torsion [C]-CA--CB-[CG] |==|  0.42295
USER: genes 9 Torsion [CA]-CB--CG-[CD] |==|  0.13250
USER: genes 10 Torsion [CB]-CG--CD-[NE] |==|  0.59623
USER: genes 11 Torsion [CG]-CD--NE-[CZ] |==|  0.33458
USER: genes 12 Torsion [C]-CA--N-[C] |==|  0.70115
USER: genes 13 Torsion [N]-C--CA-[N] |==|  0.55610
USER: genes 14 Torsion [C]-N--CA-[CB] |==|  0.21416
USER: genes 15 Torsion [N]-CA--CB-[CG2] |==|  0.62800
USER: genes 16 Torsion [CA]-CB--OG1-[HG1] |==|  0.18130
USER: genes 17 Torsion [N]-CA--C-[N] |==|  0.36450
USER: genes 18 Torsion [C]-N--CA-[CB] |==|  0.46842
USER: genes 19 Torsion [N]-CA--CB-[CG] |==|  0.53669
USER: genes 20 Torsion [CA]-CB--CG-[CD] |==|  0.61087
USER: genes 21 Torsion [CB]-CG--CD-[OE1] |==|  0.84328
USER: genes 22 Torsion [N]-CA--C-[N] |==|  0.43621
USER: genes 23 Torsion [C]-N--CA-[C] |==|  0.58350
USER: genes 24 Torsion [N]-CA--C-[O] |==|  0.40304
USER: genes 25 Torsion [N]-CA--CB-[CG2] |==|  0.07746
ROOT
ATOM      1  C   GLU E  10      34.721 -33.610  -8.009  1.00 63.15 LIG 0.24  C 
ATOM      2 O    GLU E  10      35.112 -34.711  -7.614  1.00 62.80 LIG-0.27  OA
ATOM      3  N   THR E  11      34.363 -33.369  -9.284  1.00 58.35 LIG-0.34  N 
ATOM      4 H    THR E  11      34.096 -32.600  -9.560  1.00 58.35 LIG 0.16  HD
ENDROOT
BRANCH 1 5
ATOM      5  CA  GLU E  10      34.618 -32.439  -7.027  1.00 61.04 LIG 0.18  C 
BRANCH 5 6
ATOM      6  CB  GLU E  10      35.992 -31.789  -6.789  1.00 62.44 LIG 0.04  C 
BRANCH 6 7
ATOM      7  CG  GLU E  10      36.771 -31.493  -8.063  1.00 71.88 LIG 0.12  C 
BRANCH 7 8
ATOM      8  CD  GLU E  10      38.059 -30.713  -7.880  1.00 89.61 LIG 0.17  C 
ATOM      9 OE1  GLU E  10      38.581 -30.669  -6.741  1.00 85.83 LIG-0.65  OA
ATOM     10 OE2  GLU E  10      38.575 -30.185  -8.890  1.00 80.51 LIG-0.65  OA
ENDBRANCH 7 8
ENDBRANCH 6 7
ENDBRANCH 5 6
BRANCH 5 11
ATOM     11  N   GLU E  10      34.043 -32.908  -5.767  1.00 62.09 LIG-0.35  N 
ATOM     12  C   ARG E   9      33.430 -32.120  -4.869  1.00 67.00 LIG 0.24  C 
ATOM     13 O    ARG E   9      33.301 -30.902  -5.009  1.00 66.41 LIG-0.27  OA
ATOM     14 H    GLU E  10      34.135 -33.755  -5.650  1.00 62.09 LIG 0.16  HD
BRANCH 12 15
ATOM     15  CA  ARG E   9      32.878 -32.814  -3.623  1.00 65.18 LIG 0.18  C 
BRANCH 15 16
ATOM     16  CB  ARG E   9      33.796 -32.538  -2.418  1.00 65.91 LIG 0.04  C 
BRANCH 16 17
ATOM     17  CG  ARG E   9      33.097 -32.568  -1.058  1.00 77.53 LIG 0.02  C 
BRANCH 17 18
ATOM     18  CD  ARG E   9      32.196 -33.785  -0.851  1.00 87.32 LIG 0.14  C 
BRANCH 18 19
ATOM     19  NE  ARG E   9      31.000 -33.488  -0.055  1.00 94.16 LIG-0.23  N 
ATOM     20  CZ  ARG E   9      29.748 -33.648  -0.477  1.00107.18 LIG 0.67  C 
ATOM     21  NH2 ARG E   9      28.732 -33.348   0.319  1.00 92.81 LIG-0.23  N 
ATOM     22  NH1 ARG E   9      29.504 -34.113  -1.696  1.00 95.67 LIG-0.23  N 
ATOM     23 1HH2 ARG E   9      28.880 -33.050   1.112  1.00 92.81 LIG 0.17  HD
ATOM     24 2HH2 ARG E   9      27.924 -33.453   0.042  1.00 92.81 LIG 0.17  HD
ATOM     25 2HH1 ARG E   9      28.693 -34.214  -1.964  1.00 95.67 LIG 0.17  HD
ATOM     26 1HH1 ARG E   9      30.158 -34.313  -2.219  1.00 95.67 LIG 0.17  HD
ATOM     27 HE   ARG E   9      31.116 -33.189   0.743  1.00 94.16 LIG 0.18  HD
ENDBRANCH 18 19
ENDBRANCH 17 18
ENDBRANCH 16 17
ENDBRANCH 15 16
BRANCH 15 28
ATOM     28  N   ARG E   9      32.691 -34.255  -3.816  1.00 66.15 LIG-0.35  N 
ATOM     29 H    ARG E   9      33.433 -34.688  -3.841  1.00 66.15 LIG 0.16  HD
ATOM     30  C   GLY E   8      31.495 -34.864  -3.943  1.00 70.79 LIG 0.25  C 
ATOM     31 O    GLY E   8      30.419 -34.259  -3.912  1.00 70.42 LIG-0.27  OA
BRANCH 30 32
ATOM     32  CA  GLY E   8      31.518 -36.366  -4.131  1.00 68.19 LIG 0.47  C 
ATOM     33  N   GLY E   8      30.290 -36.885  -4.715  1.00 68.87 LIG 0.61  N 
ENDBRANCH 30 32
ENDBRANCH 15 28
ENDBRANCH 12 15
ENDBRANCH 5 11
ENDBRANCH 1 5
BRANCH 3 34
ATOM     34  CA  THR E  11      34.391 -34.395 -10.330  1.00 57.37 LIG 0.20  C 
BRANCH 34 35
ATOM     35  CB  THR E  11      33.178 -35.339 -10.194  1.00 62.59 LIG 0.15  C 
ATOM     36  CG2 THR E  11      33.556 -36.814 -10.309  1.00 60.54 LIG 0.04  C 
BRANCH 35 37
ATOM     37 OG1  THR E  11      32.536 -35.110  -8.939  1.00 61.42 LIG-0.39  OA
ATOM     38 HG1  THR E  11      32.212 -34.336  -8.927  1.00 61.42 LIG 0.21  HD
ENDBRANCH 35 37
ENDBRANCH 34 35
BRANCH 34 39
ATOM     39  C   THR E  11      34.493 -33.775 -11.726  1.00 59.93 LIG 0.24  C 
ATOM     40 O    THR E  11      33.726 -32.869 -12.056  1.00 59.05 LIG-0.27  OA
ATOM     41  N   GLU E  12      35.431 -34.286 -12.543  1.00 55.90 LIG-0.35  N 
ATOM     42 H    GLU E  12      35.972 -34.908 -12.297  1.00 55.90 LIG 0.16  HD
BRANCH 41 43
ATOM     43  CA  GLU E  12      35.637 -33.852 -13.924  1.00 55.43 LIG 0.18  C 
BRANCH 43 44
ATOM     44  CB  GLU E  12      36.952 -34.419 -14.498  1.00 56.88 LIG 0.04  C 
BRANCH 44 45
ATOM     45  CG  GLU E  12      37.410 -33.780 -15.800  1.00 68.03 LIG 0.12  C 
BRANCH 45 46
ATOM     46  CD  GLU E  12      37.991 -34.734 -16.827  1.00 88.63 LIG 0.17  C 
ATOM     47 OE1  GLU E  12      38.964 -35.451 -16.498  1.00 85.30 LIG-0.65  OA
ATOM     48 OE2  GLU E  12      37.443 -34.795 -17.951  1.00 81.03 LIG-0.65  OA
ENDBRANCH 45 46
ENDBRANCH 44 45
ENDBRANCH 43 44
BRANCH 43 49
ATOM     49  C   GLU E  12      34.448 -34.332 -14.757  1.00 58.58 LIG 0.24  C 
ATOM     50 O    GLU E  12      33.759 -35.272 -14.352  1.00 58.36 LIG-0.27  OA
ATOM     51  N   VAL E  13      34.187 -33.670 -15.900  1.00 54.46 LIG-0.34  N 
ATOM     52 H    VAL E  13      34.652 -32.999 -16.169  1.00 54.46 LIG 0.16  HD
BRANCH 51 53
ATOM     53  CA  VAL E  13      33.082 -34.023 -16.807  1.00 55.96 LIG 0.19  C 
BRANCH 53 54
ATOM     54  C   VAL E  13      33.390 -33.688 -18.280  1.00 65.43 LIG 0.20  C 
ATOM     55 O    VAL E  13      32.949 -34.445 -19.172  1.00 66.90 LIG-0.65  OA
ATOM     56 OXT  VAL E  13      34.086 -32.682 -18.538  1.00 83.99 LIG-0.65  OA
ENDBRANCH 53 54
BRANCH 53 57
ATOM     57  CB  VAL E  13      31.679 -33.517 -16.349  1.00 59.73 LIG 0.01  C 
ATOM     58  CG2 VAL E  13      31.771 -32.252 -15.500  1.00 59.40 LIG 0.01  C 
ATOM     59  CG1 VAL E  13      30.897 -34.611 -15.625  1.00 59.53 LIG 0.01  C 
ENDBRANCH 53 57
ENDBRANCH 51 53
ENDBRANCH 43 49
ENDBRANCH 41 43
ENDBRANCH 34 39
ENDBRANCH 3 34
TORSDOF 24
ENDMDL
MODEL 3
USER: ADFR SOLUTION from run 65
USER: SCORE 19.451325 LL:  -3.393 LR: -18.281 RR:   0.000 FEB: -11.122
USER: RMSD 2.281469
USER: SEED 64
USER: STATUS 1 or 2 clusters left
USER: GENES 26
USER: genes 0 Translation |==|  0.47376 0.51320 0.54882
USER: genes 1 Rotation |==|  0.46744 0.45328 0.45794 0.99496
USER: genes 2 Torsion [N]-C--CA-[N] |==|  0.42244
USER: genes 3 Torsion [C]-CA--CB-[CG] |==|  0.15972
USER: genes 4 Torsion [CA]-CB--CG-[CD] |==|  0.60180
USER: genes 5 Torsion [CB]-CG--CD-[OE1] |==|  0.23190
USER: genes 6 Torsion [C]-CA--N-[C] |==|  0.61026
USER: genes 7 Torsion [N]-C--CA-[N] |==|  0.37258
USER: genes 8 Torsion [C]-CA--CB-[CG] |==|  0.25431
USER: genes 9 Torsion [CA]-CB--CG-[CD] |==|  0.65902
USER: genes 10 Torsion [CB]-CG--CD-[NE] |==|  0.77577
USER: genes 11 Torsion [CG]-CD--NE-[CZ] |==|  0.63942
USER: genes 12 Torsion [C]-CA--N-[C] |==|  0.86058
USER: genes 13 Torsion [N]-C--CA-[N] |==|  0.28312
USER: genes 14 Torsion [C]-N--CA-[CB] |==|  0.26111
USER: genes 15 Torsion [N]-CA--CB-[CG2] |==|  0.48188
USER: genes 16 Torsion [CA]-CB--OG1-[HG1] |==|  0.19389
USER: genes 17 Torsion [N]-CA--C-[N] |==|  0.43043
USER: genes 18 Torsion [C]-N--CA-[CB] |==|  0.45749
USER: genes 19 Torsion [N]-CA--CB-[CG] |==|  0.10024
USER: genes 20 Torsion [CA]-CB--CG-[CD] |==|  0.24692
USER: genes 21 Torsion [CB]-CG--CD-[OE1] |==|  0.09899
USER: genes 22 Torsion [N]-CA--C-[N] |==|  0.41897
USER: genes 23 Torsion [C]-N--CA-[C] |==|  0.55312
USER: genes 24 Torsion [N]-CA--C-[O] |==|  0.30951
USER: genes 25 Torsion [N]-CA--CB-[CG2] |==|  0.08975
ROOT
ATOM      1  C   GLU E  10      34.688 -33.452  -7.809  1.00 63.15 LIG 0.24  C 
ATOM      2 O    GLU E  10      34.982 -34.546  -7.321  1.00 62.80 LIG-0.27  OA
ATOM      3  N   THR E  11      34.231 -33.305  -9.066  1.00 58.35 LIG-0.34  N 
ATOM      4 H    THR E  11      34.031 -32.542  -9.408  1.00 58.35 LIG 0.16  HD
ENDROOT
BRANCH 1 5
ATOM      5  CA  GLU E  10      34.830 -32.179  -6.970  1.00 61.04 LIG 0.18  C 
BRANCH 5 6
ATOM      6  CB  GLU E  10      36.182 -31.490  -7.225  1.00 62.44 LIG 0.04  C 
BRANCH 6 7
ATOM      7  CG  GLU E  10      36.430 -31.123  -8.681  1.00 71.88 LIG 0.12  C 
BRANCH 7 8
ATOM      8  CD  GLU E  10      37.860 -31.273  -9.164  1.00 89.61 LIG 0.17  C 
ATOM      9 OE1  GLU E  10      38.255 -32.402  -9.538  1.00 85.83 LIG-0.65  OA
ATOM     10 OE2  GLU E  10      38.574 -30.247  -9.215  1.00 80.51 LIG-0.65  OA
ENDBRANCH 7 8
ENDBRANCH 6 7
ENDBRANCH 5 6
BRANCH 5 11
ATOM     11  N   GLU E  10      34.677 -32.508  -5.553  1.00 62.09 LIG-0.35  N 
ATOM     12  C   ARG E   9      34.017 -31.752  -4.662  1.00 67.00 LIG 0.24  C 
ATOM     13 O    ARG E   9      33.478 -30.680  -4.946  1.00 66.41 LIG-0.27  OA
ATOM     14 H    GLU E  10      35.058 -33.248  -5.337  1.00 62.09 LIG 0.16  HD
BRANCH 12 15
ATOM     15  CA  ARG E   9      33.956 -32.288  -3.231  1.00 65.18 LIG 0.18  C 
BRANCH 15 16
ATOM     16  CB  ARG E   9      32.577 -32.920  -2.965  1.00 65.91 LIG 0.04  C 
BRANCH 16 17
ATOM     17  CG  ARG E   9      32.490 -34.419  -3.259  1.00 77.53 LIG 0.02  C 
BRANCH 17 18
ATOM     18  CD  ARG E   9      31.408 -34.789  -4.272  1.00 87.32 LIG 0.14  C 
BRANCH 18 19
ATOM     19  NE  ARG E   9      30.066 -34.861  -3.683  1.00 94.16 LIG-0.23  N 
ATOM     20  CZ  ARG E   9      29.225 -35.882  -3.832  1.00107.18 LIG 0.67  C 
ATOM     21  NH2 ARG E   9      28.030 -35.851  -3.260  1.00 92.81 LIG-0.23  N 
ATOM     22  NH1 ARG E   9      29.575 -36.942  -4.551  1.00 95.67 LIG-0.23  N 
ATOM     23 1HH2 ARG E   9      27.796 -35.170  -2.789  1.00 92.81 LIG 0.17  HD
ATOM     24 2HH2 ARG E   9      27.489 -36.513  -3.358  1.00 92.81 LIG 0.17  HD
ATOM     25 2HH1 ARG E   9      29.027 -37.599  -4.643  1.00 95.67 LIG 0.17  HD
ATOM     26 1HH1 ARG E   9      30.350 -36.972  -4.924  1.00 95.67 LIG 0.17  HD
ATOM     27 HE   ARG E   9      29.804 -34.195  -3.206  1.00 94.16 LIG 0.18  HD
ENDBRANCH 18 19
ENDBRANCH 17 18
ENDBRANCH 16 17
ENDBRANCH 15 16
BRANCH 15 28
ATOM     28  N   ARG E   9      34.258 -31.260  -2.230  1.00 66.15 LIG-0.35  N 
ATOM     29 H    ARG E   9      33.672 -31.222  -1.602  1.00 66.15 LIG 0.16  HD
ATOM     30  C   GLY E   8      35.335 -30.449  -2.264  1.00 70.79 LIG 0.25  C 
ATOM     31 O    GLY E   8      36.186 -30.489  -3.157  1.00 70.42 LIG-0.27  OA
BRANCH 30 32
ATOM     32  CA  GLY E   8      35.467 -29.455  -1.130  1.00 68.19 LIG 0.47  C 
ATOM     33  N   GLY E   8      36.437 -29.864  -0.125  1.00 68.87 LIG 0.61  N 
ENDBRANCH 30 32
ENDBRANCH 15 28
ENDBRANCH 12 15
ENDBRANCH 5 11
ENDBRANCH 1 5
BRANCH 3 34
ATOM     34  CA  THR E  11      34.025 -34.432  -9.979  1.00 57.37 LIG 0.20  C 
BRANCH 34 35
ATOM     35  CB  THR E  11      32.565 -34.924  -9.911  1.00 62.59 LIG 0.15  C 
ATOM     36  CG2 THR E  11      32.247 -35.993 -10.954  1.00 60.54 LIG 0.04  C 
BRANCH 35 37
ATOM     37 OG1  THR E  11      32.296 -35.439  -8.607  1.00 61.42 LIG-0.39  OA
ATOM     38 HG1  THR E  11      32.283 -34.808  -8.053  1.00 61.42 LIG 0.21  HD
ENDBRANCH 35 37
ENDBRANCH 34 35
BRANCH 34 39
ATOM     39  C   THR E  11      34.459 -34.090 -11.407  1.00 59.93 LIG 0.24  C 
ATOM     40 O    THR E  11      34.455 -32.918 -11.788  1.00 59.05 LIG-0.27  OA
ATOM     41  N   GLU E  12      34.812 -35.122 -12.192  1.00 55.90 LIG-0.35  N 
ATOM     42 H    GLU E  12      34.827 -35.935 -11.911  1.00 55.90 LIG 0.16  HD
BRANCH 41 43
ATOM     43  CA  GLU E  12      35.204 -34.986 -13.595  1.00 55.43 LIG 0.18  C 
BRANCH 43 44
ATOM     44  CB  GLU E  12      35.904 -36.264 -14.105  1.00 56.88 LIG 0.04  C 
BRANCH 44 45
ATOM     45  CG  GLU E  12      35.351 -37.564 -13.544  1.00 68.03 LIG 0.12  C 
BRANCH 45 46
ATOM     46  CD  GLU E  12      34.207 -38.180 -14.328  1.00 88.63 LIG 0.17  C 
ATOM     47 OE1  GLU E  12      34.213 -38.081 -15.576  1.00 85.30 LIG-0.65  OA
ATOM     48 OE2  GLU E  12      33.325 -38.801 -13.693  1.00 81.03 LIG-0.65  OA
ENDBRANCH 45 46
ENDBRANCH 44 45
ENDBRANCH 43 44
BRANCH 43 49
ATOM     49  C   GLU E  12      33.945 -34.710 -14.417  1.00 58.58 LIG 0.24  C 
ATOM     50 O    GLU E  12      32.853 -35.124 -14.019  1.00 58.36 LIG-0.27  OA
ATOM     51  N   VAL E  13      34.090 -33.985 -15.542  1.00 54.46 LIG-0.34  N 
ATOM     52 H    VAL E  13      34.847 -33.675 -15.806  1.00 54.46 LIG 0.16  HD
BRANCH 51 53
ATOM     53  CA  VAL E  13      32.971 -33.647 -16.438  1.00 55.96 LIG 0.19  C 
BRANCH 53 54
ATOM     54  C   VAL E  13      33.439 -33.238 -17.849  1.00 65.43 LIG 0.20  C 
ATOM     55 O    VAL E  13      33.186 -33.998 -18.809  1.00 66.90 LIG-0.65  OA
ATOM     56 OXT  VAL E  13      34.074 -32.170 -17.988  1.00 83.99 LIG-0.65  OA
ENDBRANCH 53 54
BRANCH 53 57
ATOM     57  CB  VAL E  13      31.930 -32.655 -15.832  1.00 59.73 LIG 0.01  C 
ATOM     58  CG2 VAL E  13      32.575 -31.659 -14.871  1.00 59.40 LIG 0.01  C 
ATOM     59  CG1 VAL E  13      30.773 -33.394 -15.164  1.00 59.53 LIG 0.01  C 
ENDBRANCH 53 57
ENDBRANCH 51 53
ENDBRANCH 43 49
ENDBRANCH 41 43
ENDBRANCH 34 39
ENDBRANCH 3 34
TORSDOF 24
ENDMDL
