MODEL 1
USER: ADFR SOLUTION from run 74
USER: SCORE 11.005882 LL:  -2.015 LR: -10.780 RR:   0.000 FEB:  -6.902
USER: RMSD 2.967057
USER: SEED 73
USER: STATUS no improvement in best in 17 clusters for 5 generations
USER: GENES 15
USER: genes 0 Translation |==|  0.63434 0.50688 0.47966
USER: genes 1 Rotation |==|  0.34198 0.44949 0.69530 0.92935
USER: genes 2 Torsion [CB]-CA--N-[C] |==|  0.39944
USER: genes 3 Torsion [N]-C--CA-[N] |==|  0.45059
USER: genes 4 Torsion [C]-CA--CB-[OG] |==|  0.32097
USER: genes 5 Torsion [CA]-CB--OG-[HG] |==|  0.99348
USER: genes 6 Torsion [C]-CA--N-[C] |==|  0.75196
USER: genes 7 Torsion [N]-C--CA-[N] |==|  0.33605
USER: genes 8 Torsion [N]-CA--CB-[CG] |==|  0.58890
USER: genes 9 Torsion [CA]-CB--CG-[CD1] |==|  0.79498
USER: genes 10 Torsion [N]-CA--C-[N] |==|  0.14167
USER: genes 11 Torsion [C]-N--CA-[C] |==|  0.18435
USER: genes 12 Torsion [N]-CA--CB-[CG] |==|  0.93443
USER: genes 13 Torsion [CA]-CB--CG-[ND1] |==|  0.85191
USER: genes 14 Torsion [N]-CA--C-[O] |==|  0.86286
ROOT
ATOM      1  CA  TRP G 420     -36.876 -28.134  30.326  1.00 30.19 LIG 0.18  C 
ENDROOT
BRANCH 1 2
ATOM      2  N   TRP G 420     -36.713 -27.883  31.757  1.00 29.90 LIG-0.35  N 
ATOM      3 H    TRP G 420     -35.897 -27.907  32.026  1.00 29.90 LIG 0.16  HD
ATOM      4  C   SER G 419     -37.751 -27.638  32.567  1.00 34.18 LIG 0.24  C 
ATOM      5 O    SER G 419     -38.908 -27.530  32.165  1.00 34.33 LIG-0.27  OA
BRANCH 4 6
ATOM      6  CA  SER G 419     -37.441 -27.513  34.060  1.00 31.26 LIG 0.20  C 
BRANCH 6 7
ATOM      7  CB  SER G 419     -37.155 -28.897  34.640  1.00 37.91 LIG 0.20  C 
BRANCH 7 8
ATOM      8 OG   SER G 419     -35.812 -28.979  35.092  1.00 57.41 LIG-0.40  OA
ATOM      9 HG   SER G 419     -35.415 -28.258  34.926  1.00 57.41 LIG 0.21  HD
ENDBRANCH 7 8
ENDBRANCH 6 7
BRANCH 6 10
ATOM     10  N   SER G 419     -38.522 -26.849  34.790  1.00 31.62 LIG-0.34  N 
ATOM     11 H    SER G 419     -39.121 -27.377  35.106  1.00 31.62 LIG 0.16  HD
ATOM     12  C   GLY G 418     -38.536 -25.512  34.929  1.00 37.47 LIG 0.25  C 
ATOM     13 O    GLY G 418     -37.665 -24.793  34.442  1.00 34.17 LIG-0.27  OA
BRANCH 12 14
ATOM     14  CA  GLY G 418     -39.699 -24.889  35.673  1.00 40.24 LIG 0.47  C 
ATOM     15  N   GLY G 418     -39.314 -24.116  36.849  1.00 42.39 LIG 0.61  N 
ENDBRANCH 12 14
ENDBRANCH 6 10
ENDBRANCH 4 6
ENDBRANCH 1 2
BRANCH 1 16
ATOM     16  CB  TRP G 420     -35.720 -27.524  29.537  1.00 27.27 LIG 0.07  C 
BRANCH 16 17
ATOM     17  CG  TRP G 420     -36.081 -27.043  28.164  1.00 26.68 LIG-0.03  A 
ATOM     18  CD1 TRP G 420     -36.335 -27.804  27.065  1.00 29.02 LIG 0.10  A 
ATOM     19  NE1 TRP G 420     -36.518 -26.999  25.963  1.00 28.83 LIG-0.36  N 
ATOM     20 HE1  TRP G 420     -36.652 -27.275  25.159  1.00 28.83 LIG 0.17  HD
ATOM     21  CE2 TRP G 420     -36.452 -25.687  26.356  1.00 29.48 LIG 0.04  A 
ATOM     22  CD2 TRP G 420     -36.166 -25.678  27.739  1.00 26.13 LIG-0.00  A 
ATOM     23  CZ2 TRP G 420     -36.578 -24.508  25.610  1.00 28.18 LIG 0.03  A 
ATOM     24  CE3 TRP G 420     -36.006 -24.444  28.394  1.00 26.84 LIG 0.01  A 
ATOM     25  CZ3 TRP G 420     -36.150 -23.275  27.653  1.00 27.14 LIG 0.00  A 
ATOM     26  CH2 TRP G 420     -36.426 -23.318  26.284  1.00 27.58 LIG 0.00  A 
ENDBRANCH 16 17
ENDBRANCH 1 16
BRANCH 1 27
ATOM     27  C   TRP G 420     -36.936 -29.638  30.089  1.00 38.21 LIG 0.24  C 
ATOM     28 O    TRP G 420     -36.165 -30.150  29.285  1.00 38.32 LIG-0.27  OA
ATOM     29  N   HIS G 421     -37.803 -30.348  30.831  1.00 36.18 LIG-0.35  N 
ATOM     30 H    HIS G 421     -38.328 -29.989  31.410  1.00 36.18 LIG 0.16  HD
BRANCH 29 31
ATOM     31  CA  HIS G 421     -37.947 -31.802  30.733  1.00 85.07 LIG 0.17  C 
BRANCH 31 32
ATOM     32  CB  HIS G 421     -38.303 -32.218  29.298  1.00 86.25 LIG 0.09  C 
BRANCH 32 33
ATOM     33  CG  HIS G 421     -38.954 -31.123  28.511  1.00 90.14 LIG 0.06  A 
ATOM     34 ND1  HIS G 421     -40.073 -30.459  28.986  1.00 92.13 LIG-0.24  NA
ATOM     35  CE1 HIS G 421     -40.376 -29.562  28.060  1.00 91.61 LIG 0.23  A 
ATOM     36 NE2  HIS G 421     -39.519 -29.605  27.036  1.00 91.87 LIG-0.25  NA
ATOM     37  CD2 HIS G 421     -38.610 -30.599  27.311  1.00 92.02 LIG 0.14  A 
ENDBRANCH 32 33
ENDBRANCH 31 32
BRANCH 31 38
ATOM     38  C   HIS G 421     -36.699 -32.527  31.209  1.00112.71 LIG 0.22  C 
ATOM     39 O    HIS G 421     -35.598 -32.185  30.784  1.00 75.09 LIG-0.29  OA
ENDBRANCH 31 38
ENDBRANCH 29 31
ENDBRANCH 1 27
TORSDOF 13
ENDMDL
MODEL 2
USER: ADFR SOLUTION from run 50
USER: SCORE 10.742473 LL:  -1.950 LR: -10.539 RR:   0.000 FEB:  -6.661
USER: RMSD 3.502183
USER: SEED 49
USER: STATUS no improvement in best in 7 clusters for 5 generations
USER: GENES 15
USER: genes 0 Translation |==|  0.60745 0.52650 0.47372
USER: genes 1 Rotation |==|  0.37422 0.50096 0.57986 0.97728
USER: genes 2 Torsion [CB]-CA--N-[C] |==|  0.47250
USER: genes 3 Torsion [N]-C--CA-[N] |==|  0.44963
USER: genes 4 Torsion [C]-CA--CB-[OG] |==|  0.35264
USER: genes 5 Torsion [CA]-CB--OG-[HG] |==|  0.02200
USER: genes 6 Torsion [C]-CA--N-[C] |==|  0.79820
USER: genes 7 Torsion [N]-C--CA-[N] |==|  0.38355
USER: genes 8 Torsion [N]-CA--CB-[CG] |==|  0.55824
USER: genes 9 Torsion [CA]-CB--CG-[CD1] |==|  0.73176
USER: genes 10 Torsion [N]-CA--C-[N] |==|  0.67807
USER: genes 11 Torsion [C]-N--CA-[C] |==|  0.19231
USER: genes 12 Torsion [N]-CA--CB-[CG] |==|  0.78596
USER: genes 13 Torsion [CA]-CB--CG-[ND1] |==|  0.20931
USER: genes 14 Torsion [N]-CA--C-[O] |==|  0.05556
ROOT
ATOM      1  CA  TRP G 420     -37.259 -27.781  30.193  1.00 30.19 LIG 0.18  C 
ENDROOT
BRANCH 1 2
ATOM      2  N   TRP G 420     -36.904 -27.874  31.608  1.00 29.90 LIG-0.35  N 
ATOM      3 H    TRP G 420     -36.068 -28.011  31.751  1.00 29.90 LIG 0.16  HD
ATOM      4  C   SER G 419     -37.811 -27.756  32.586  1.00 34.18 LIG 0.24  C 
ATOM      5 O    SER G 419     -38.993 -27.485  32.379  1.00 34.33 LIG-0.27  OA
BRANCH 4 6
ATOM      6  CA  SER G 419     -37.315 -27.994  34.014  1.00 31.26 LIG 0.20  C 
BRANCH 6 7
ATOM      7  CB  SER G 419     -37.100 -29.491  34.236  1.00 37.91 LIG 0.20  C 
BRANCH 7 8
ATOM      8 OG   SER G 419     -35.790 -29.738  34.725  1.00 57.41 LIG-0.40  OA
ATOM      9 HG   SER G 419     -35.415 -29.008  34.903  1.00 57.41 LIG 0.21  HD
ENDBRANCH 7 8
ENDBRANCH 6 7
BRANCH 6 10
ATOM     10  N   SER G 419     -38.232 -27.441  35.011  1.00 31.62 LIG-0.34  N 
ATOM     11 H    SER G 419     -38.687 -28.025  35.447  1.00 31.62 LIG 0.16  HD
ATOM     12  C   GLY G 418     -38.323 -26.112  35.197  1.00 37.47 LIG 0.25  C 
ATOM     13 O    GLY G 418     -37.665 -25.312  34.534  1.00 34.17 LIG-0.27  OA
BRANCH 12 14
ATOM     14  CA  GLY G 418     -39.311 -25.606  36.227  1.00 40.24 LIG 0.47  C 
ATOM     15  N   GLY G 418     -38.807 -24.519  37.058  1.00 42.39 LIG 0.61  N 
ENDBRANCH 12 14
ENDBRANCH 6 10
ENDBRANCH 4 6
ENDBRANCH 1 2
BRANCH 1 16
ATOM     16  CB  TRP G 420     -36.004 -27.709  29.327  1.00 27.27 LIG 0.07  C 
BRANCH 16 17
ATOM     17  CG  TRP G 420     -36.216 -27.129  27.960  1.00 26.68 LIG-0.03  A 
ATOM     18  CD1 TRP G 420     -36.421 -27.809  26.800  1.00 29.02 LIG 0.10  A 
ATOM     19  NE1 TRP G 420     -36.459 -26.934  25.738  1.00 28.83 LIG-0.36  N 
ATOM     20 HE1  TRP G 420     -36.540 -27.155  24.910  1.00 28.83 LIG 0.17  HD
ATOM     21  CE2 TRP G 420     -36.347 -25.653  26.214  1.00 29.48 LIG 0.04  A 
ATOM     22  CD2 TRP G 420     -36.180 -25.740  27.614  1.00 26.13 LIG-0.00  A 
ATOM     23  CZ2 TRP G 420     -36.336 -24.428  25.533  1.00 28.18 LIG 0.03  A 
ATOM     24  CE3 TRP G 420     -36.003 -24.558  28.353  1.00 26.84 LIG 0.01  A 
ATOM     25  CZ3 TRP G 420     -36.011 -23.342  27.676  1.00 27.14 LIG 0.00  A 
ATOM     26  CH2 TRP G 420     -36.171 -23.290  26.289  1.00 27.58 LIG 0.00  A 
ENDBRANCH 16 17
ENDBRANCH 1 16
BRANCH 1 27
ATOM     27  C   TRP G 420     -38.092 -28.997  29.808  1.00 38.21 LIG 0.24  C 
ATOM     28 O    TRP G 420     -39.214 -29.131  30.284  1.00 38.32 LIG-0.27  OA
ATOM     29  N   HIS G 421     -37.571 -29.845  28.904  1.00 36.18 LIG-0.35  N 
ATOM     30 H    HIS G 421     -36.792 -29.737  28.556  1.00 36.18 LIG 0.16  HD
BRANCH 29 31
ATOM     31  CA  HIS G 421     -38.270 -31.036  28.418  1.00 85.07 LIG 0.17  C 
BRANCH 31 32
ATOM     32  CB  HIS G 421     -38.701 -31.930  29.591  1.00 86.25 LIG 0.09  C 
BRANCH 32 33
ATOM     33  CG  HIS G 421     -37.574 -32.729  30.169  1.00 90.14 LIG 0.06  A 
ATOM     34 ND1  HIS G 421     -36.615 -32.144  30.981  1.00 92.13 LIG-0.24  NA
ATOM     35  CE1 HIS G 421     -35.790 -33.123  31.320  1.00 91.61 LIG 0.23  A 
ATOM     36 NE2  HIS G 421     -36.165 -34.289  30.787  1.00 91.87 LIG-0.25  NA
ATOM     37  CD2 HIS G 421     -37.300 -34.050  30.049  1.00 92.02 LIG 0.14  A 
ENDBRANCH 32 33
ENDBRANCH 31 32
BRANCH 31 38
ATOM     38  C   HIS G 421     -39.464 -30.677  27.550  1.00112.71 LIG 0.22  C 
ATOM     39 O    HIS G 421     -39.528 -29.563  27.035  1.00 75.09 LIG-0.29  OA
ENDBRANCH 31 38
ENDBRANCH 29 31
ENDBRANCH 1 27
TORSDOF 13
ENDMDL
MODEL 3
USER: ADFR SOLUTION from run 40
USER: SCORE 11.363605 LL:  -1.652 LR: -10.286 RR:   0.000 FEB:  -6.408
USER: RMSD 3.105794
USER: SEED 39
USER: STATUS searching
USER: GENES 15
USER: genes 0 Translation |==|  0.54157 0.54167 0.47427
USER: genes 1 Rotation |==|  0.33606 0.45838 0.56742 0.96567
USER: genes 2 Torsion [CB]-CA--N-[C] |==|  0.87003
USER: genes 3 Torsion [N]-C--CA-[N] |==|  0.07556
USER: genes 4 Torsion [C]-CA--CB-[OG] |==|  0.34535
USER: genes 5 Torsion [CA]-CB--OG-[HG] |==|  0.96775
USER: genes 6 Torsion [C]-CA--N-[C] |==|  0.70656
USER: genes 7 Torsion [N]-C--CA-[N] |==|  0.41561
USER: genes 8 Torsion [N]-CA--CB-[CG] |==|  0.56484
USER: genes 9 Torsion [CA]-CB--CG-[CD1] |==|  0.73615
USER: genes 10 Torsion [N]-CA--C-[N] |==|  0.32787
USER: genes 11 Torsion [C]-N--CA-[C] |==|  0.72035
USER: genes 12 Torsion [N]-CA--CB-[CG] |==|  0.21264
USER: genes 13 Torsion [CA]-CB--CG-[ND1] |==|  0.70735
USER: genes 14 Torsion [N]-CA--C-[O] |==|  0.05126
ROOT
ATOM      1  CA  TRP G 420     -38.198 -27.508  30.205  1.00 30.19 LIG 0.18  C 
ENDROOT
BRANCH 1 2
ATOM      2  N   TRP G 420     -38.132 -27.412  31.662  1.00 29.90 LIG-0.35  N 
ATOM      3 H    TRP G 420     -38.661 -26.824  31.999  1.00 29.90 LIG 0.16  HD
ATOM      4  C   SER G 419     -37.316 -28.178  32.397  1.00 34.18 LIG 0.24  C 
ATOM      5 O    SER G 419     -36.617 -29.070  31.919  1.00 34.33 LIG-0.27  OA
BRANCH 4 6
ATOM      6  CA  SER G 419     -37.267 -27.885  33.898  1.00 31.26 LIG 0.20  C 
BRANCH 6 7
ATOM      7  CB  SER G 419     -36.937 -29.169  34.659  1.00 37.91 LIG 0.20  C 
BRANCH 7 8
ATOM      8 OG   SER G 419     -35.790 -28.981  35.475  1.00 57.41 LIG-0.40  OA
ATOM      9 HG   SER G 419     -35.415 -28.258  35.271  1.00 57.41 LIG 0.21  HD
ENDBRANCH 7 8
ENDBRANCH 6 7
BRANCH 6 10
ATOM     10  N   SER G 419     -38.516 -27.294  34.381  1.00 31.62 LIG-0.34  N 
ATOM     11 H    SER G 419     -39.173 -27.844  34.448  1.00 31.62 LIG 0.16  HD
ATOM     12  C   GLY G 418     -38.585 -25.986  34.683  1.00 37.47 LIG 0.25  C 
ATOM     13 O    GLY G 418     -37.621 -25.232  34.552  1.00 34.17 LIG-0.27  OA
BRANCH 12 14
ATOM     14  CA  GLY G 418     -39.915 -25.435  35.152  1.00 40.24 LIG 0.47  C 
ATOM     15  N   GLY G 418     -39.808 -24.313  36.078  1.00 42.39 LIG 0.61  N 
ENDBRANCH 12 14
ENDBRANCH 6 10
ENDBRANCH 4 6
ENDBRANCH 1 2
BRANCH 1 16
ATOM     16  CB  TRP G 420     -36.796 -27.528  29.602  1.00 27.27 LIG 0.07  C 
BRANCH 16 17
ATOM     17  CG  TRP G 420     -36.719 -27.080  28.174  1.00 26.68 LIG-0.03  A 
ATOM     18  CD1 TRP G 420     -36.739 -27.863  27.062  1.00 29.02 LIG 0.10  A 
ATOM     19  NE1 TRP G 420     -36.533 -27.097  25.937  1.00 28.83 LIG-0.36  N 
ATOM     20 HE1  TRP G 420     -36.470 -27.395  25.133  1.00 28.83 LIG 0.17  HD
ATOM     21  CE2 TRP G 420     -36.446 -25.780  26.308  1.00 29.48 LIG 0.04  A 
ATOM     22  CD2 TRP G 420     -36.548 -25.733  27.716  1.00 26.13 LIG-0.00  A 
ATOM     23  CZ2 TRP G 420     -36.246 -24.629  25.534  1.00 28.18 LIG 0.03  A 
ATOM     24  CE3 TRP G 420     -36.450 -24.490  28.365  1.00 26.84 LIG 0.01  A 
ATOM     25  CZ3 TRP G 420     -36.269 -23.348  27.592  1.00 27.14 LIG 0.00  A 
ATOM     26  CH2 TRP G 420     -36.165 -23.428  26.201  1.00 27.58 LIG 0.00  A 
ENDBRANCH 16 17
ENDBRANCH 1 16
BRANCH 1 27
ATOM     27  C   TRP G 420     -38.950 -28.777  29.824  1.00 38.21 LIG 0.24  C 
ATOM     28 O    TRP G 420     -38.525 -29.863  30.203  1.00 38.32 LIG-0.27  OA
ATOM     29  N   HIS G 421     -40.094 -28.635  29.132  1.00 36.18 LIG-0.35  N 
ATOM     30 H    HIS G 421     -40.401 -27.871  28.886  1.00 36.18 LIG 0.16  HD
BRANCH 29 31
ATOM     31  CA  HIS G 421     -40.936 -29.762  28.726  1.00 85.07 LIG 0.17  C 
BRANCH 31 32
ATOM     32  CB  HIS G 421     -42.417 -29.460  28.998  1.00 86.25 LIG 0.09  C 
BRANCH 32 33
ATOM     33  CG  HIS G 421     -43.023 -28.528  27.995  1.00 90.14 LIG 0.06  A 
ATOM     34 ND1  HIS G 421     -43.290 -27.205  28.307  1.00 92.13 LIG-0.24  NA
ATOM     35  CE1 HIS G 421     -43.804 -26.675  27.207  1.00 91.61 LIG 0.23  A 
ATOM     36 NE2  HIS G 421     -43.871 -27.569  26.216  1.00 91.87 LIG-0.25  NA
ATOM     37  CD2 HIS G 421     -43.379 -28.756  26.708  1.00 92.02 LIG 0.14  A 
ENDBRANCH 32 33
ENDBRANCH 31 32
BRANCH 31 38
ATOM     38  C   HIS G 421     -40.721 -30.131  27.267  1.00112.71 LIG 0.22  C 
ATOM     39 O    HIS G 421     -39.707 -29.753  26.687  1.00 75.09 LIG-0.29  OA
ENDBRANCH 31 38
ENDBRANCH 29 31
ENDBRANCH 1 27
TORSDOF 13
ENDMDL
MODEL 4
USER: ADFR SOLUTION from run 123
USER: SCORE 11.592528 LL:  -1.760 LR: -10.045 RR:   0.000 FEB:  -6.167
USER: RMSD 2.257387
USER: SEED 122
USER: STATUS searching
USER: GENES 15
USER: genes 0 Translation |==|  0.54902 0.52556 0.47256
USER: genes 1 Rotation |==|  0.32633 0.44746 0.59924 0.95523
USER: genes 2 Torsion [CB]-CA--N-[C] |==|  0.86564
USER: genes 3 Torsion [N]-C--CA-[N] |==|  0.06448
USER: genes 4 Torsion [C]-CA--CB-[OG] |==|  0.36204
USER: genes 5 Torsion [CA]-CB--OG-[HG] |==|  0.34731
USER: genes 6 Torsion [C]-CA--N-[C] |==|  0.68466
USER: genes 7 Torsion [N]-C--CA-[N] |==|  0.22249
USER: genes 8 Torsion [N]-CA--CB-[CG] |==|  0.57619
USER: genes 9 Torsion [CA]-CB--CG-[CD1] |==|  0.75125
USER: genes 10 Torsion [N]-CA--C-[N] |==|  0.37778
USER: genes 11 Torsion [C]-N--CA-[C] |==|  0.84875
USER: genes 12 Torsion [N]-CA--CB-[CG] |==|  0.18498
USER: genes 13 Torsion [CA]-CB--CG-[ND1] |==|  0.99570
USER: genes 14 Torsion [N]-CA--C-[O] |==|  0.95519
ROOT
ATOM      1  CA  TRP G 420     -38.091 -27.798  30.167  1.00 30.19 LIG 0.18  C 
ENDROOT
BRANCH 1 2
ATOM      2  N   TRP G 420     -38.055 -27.616  31.617  1.00 29.90 LIG-0.35  N 
ATOM      3 H    TRP G 420     -38.649 -27.070  31.916  1.00 29.90 LIG 0.16  HD
ATOM      4  C   SER G 419     -37.172 -28.248  32.399  1.00 34.18 LIG 0.24  C 
ATOM      5 O    SER G 419     -36.375 -29.084  31.977  1.00 34.33 LIG-0.27  OA
BRANCH 4 6
ATOM      6  CA  SER G 419     -37.175 -27.869  33.882  1.00 31.26 LIG 0.20  C 
BRANCH 6 7
ATOM      7  CB  SER G 419     -36.815 -29.093  34.722  1.00 37.91 LIG 0.20  C 
BRANCH 7 8
ATOM      8 OG   SER G 419     -35.790 -28.774  35.652  1.00 57.41 LIG-0.40  OA
ATOM      9 HG   SER G 419     -36.044 -28.969  36.428  1.00 57.41 LIG 0.21  HD
ENDBRANCH 7 8
ENDBRANCH 6 7
BRANCH 6 10
ATOM     10  N   SER G 419     -38.458 -27.303  34.299  1.00 31.62 LIG-0.34  N 
ATOM     11 H    SER G 419     -39.119 -27.853  34.279  1.00 31.62 LIG 0.16  HD
ATOM     12  C   GLY G 418     -38.551 -26.016  34.676  1.00 37.47 LIG 0.25  C 
ATOM     13 O    GLY G 418     -37.581 -25.260  34.670  1.00 34.17 LIG-0.27  OA
BRANCH 12 14
ATOM     14  CA  GLY G 418     -39.915 -25.489  35.071  1.00 40.24 LIG 0.47  C 
ATOM     15  N   GLY G 418     -40.322 -25.833  36.428  1.00 42.39 LIG 0.61  N 
ENDBRANCH 12 14
ENDBRANCH 6 10
ENDBRANCH 4 6
ENDBRANCH 1 2
BRANCH 1 16
ATOM     16  CB  TRP G 420     -36.693 -27.661  29.571  1.00 27.27 LIG 0.07  C 
BRANCH 16 17
ATOM     17  CG  TRP G 420     -36.658 -27.191  28.148  1.00 26.68 LIG-0.03  A 
ATOM     18  CD1 TRP G 420     -36.692 -27.959  27.026  1.00 29.02 LIG 0.10  A 
ATOM     19  NE1 TRP G 420     -36.527 -27.173  25.908  1.00 28.83 LIG-0.36  N 
ATOM     20 HE1  TRP G 420     -36.478 -27.459  25.098  1.00 28.83 LIG 0.17  HD
ATOM     21  CE2 TRP G 420     -36.453 -25.860  26.295  1.00 29.48 LIG 0.04  A 
ATOM     22  CD2 TRP G 420     -36.521 -25.836  27.706  1.00 26.13 LIG-0.00  A 
ATOM     23  CZ2 TRP G 420     -36.291 -24.696  25.534  1.00 28.18 LIG 0.03  A 
ATOM     24  CE3 TRP G 420     -36.429 -24.601  28.371  1.00 26.84 LIG 0.01  A 
ATOM     25  CZ3 TRP G 420     -36.287 -23.444  27.610  1.00 27.14 LIG 0.00  A 
ATOM     26  CH2 TRP G 420     -36.215 -23.503  26.216  1.00 27.58 LIG 0.00  A 
ENDBRANCH 16 17
ENDBRANCH 1 16
BRANCH 1 27
ATOM     27  C   TRP G 420     -38.662 -29.176  29.853  1.00 38.21 LIG 0.24  C 
ATOM     28 O    TRP G 420     -38.323 -30.136  30.538  1.00 38.32 LIG-0.27  OA
ATOM     29  N   HIS G 421     -39.569 -29.261  28.865  1.00 36.18 LIG-0.35  N 
ATOM     30 H    HIS G 421     -39.820 -28.582  28.401  1.00 36.18 LIG 0.16  HD
BRANCH 29 31
ATOM     31  CA  HIS G 421     -40.223 -30.512  28.476  1.00 85.07 LIG 0.17  C 
BRANCH 31 32
ATOM     32  CB  HIS G 421     -41.175 -30.282  27.292  1.00 86.25 LIG 0.09  C 
BRANCH 32 33
ATOM     33  CG  HIS G 421     -40.466 -29.906  26.028  1.00 90.14 LIG 0.06  A 
ATOM     34 ND1  HIS G 421     -39.089 -29.758  25.989  1.00 92.13 LIG-0.24  NA
ATOM     35  CE1 HIS G 421     -38.799 -29.438  24.737  1.00 91.61 LIG 0.23  A 
ATOM     36 NE2  HIS G 421     -39.897 -29.384  23.978  1.00 91.87 LIG-0.25  NA
ATOM     37  CD2 HIS G 421     -40.966 -29.677  24.791  1.00 92.02 LIG 0.14  A 
ENDBRANCH 32 33
ENDBRANCH 31 32
BRANCH 31 38
ATOM     38  C   HIS G 421     -39.213 -31.600  28.150  1.00112.71 LIG 0.22  C 
ATOM     39 O    HIS G 421     -38.040 -31.299  27.941  1.00 75.09 LIG-0.29  OA
ENDBRANCH 31 38
ENDBRANCH 29 31
ENDBRANCH 1 27
TORSDOF 13
ENDMDL
MODEL 5
USER: ADFR SOLUTION from run 146
USER: SCORE 9.958617 LL:  -1.818 LR:  -9.968 RR:   0.000 FEB:  -6.090
USER: RMSD 5.300804
USER: SEED 145
USER: STATUS no improvement in best in 9 clusters for 5 generations
USER: GENES 15
USER: genes 0 Translation |==|  0.62539 0.48389 0.48114
USER: genes 1 Rotation |==|  0.27375 0.47225 0.70010 0.89749
USER: genes 2 Torsion [CB]-CA--N-[C] |==|  0.43524
USER: genes 3 Torsion [N]-C--CA-[N] |==|  0.44538
USER: genes 4 Torsion [C]-CA--CB-[OG] |==|  0.19524
USER: genes 5 Torsion [CA]-CB--OG-[HG] |==|  0.43766
USER: genes 6 Torsion [C]-CA--N-[C] |==|  0.59445
USER: genes 7 Torsion [N]-C--CA-[N] |==|  0.16367
USER: genes 8 Torsion [N]-CA--CB-[CG] |==|  0.66180
USER: genes 9 Torsion [CA]-CB--CG-[CD1] |==|  0.76343
USER: genes 10 Torsion [N]-CA--C-[N] |==|  0.03380
USER: genes 11 Torsion [C]-N--CA-[C] |==|  0.83543
USER: genes 12 Torsion [N]-CA--CB-[CG] |==|  0.73527
USER: genes 13 Torsion [CA]-CB--CG-[ND1] |==|  0.80726
USER: genes 14 Torsion [N]-CA--C-[O] |==|  0.90578
ROOT
ATOM      1  CA  TRP G 420     -37.003 -28.548  30.360  1.00 30.19 LIG 0.18  C 
ENDROOT
BRANCH 1 2
ATOM      2  N   TRP G 420     -36.894 -27.866  31.648  1.00 29.90 LIG-0.35  N 
ATOM      3 H    TRP G 420     -36.091 -27.638  31.856  1.00 29.90 LIG 0.16  HD
ATOM      4  C   SER G 419     -37.956 -27.624  32.426  1.00 34.18 LIG 0.24  C 
ATOM      5 O    SER G 419     -39.110 -27.884  32.090  1.00 34.33 LIG-0.27  OA
BRANCH 4 6
ATOM      6  CA  SER G 419     -37.675 -27.009  33.799  1.00 31.26 LIG 0.20  C 
BRANCH 6 7
ATOM      7  CB  SER G 419     -37.129 -28.085  34.737  1.00 37.91 LIG 0.20  C 
BRANCH 7 8
ATOM      8 OG   SER G 419     -35.816 -28.462  34.350  1.00 57.41 LIG-0.40  OA
ATOM      9 HG   SER G 419     -35.415 -28.799  35.006  1.00 57.41 LIG 0.21  HD
ENDBRANCH 7 8
ENDBRANCH 6 7
BRANCH 6 10
ATOM     10  N   SER G 419     -38.863 -26.370  34.366  1.00 31.62 LIG-0.34  N 
ATOM     11 H    SER G 419     -39.607 -26.754  34.173  1.00 31.62 LIG 0.16  HD
ATOM     12  C   GLY G 418     -38.751 -25.267  35.126  1.00 37.47 LIG 0.25  C 
ATOM     13 O    GLY G 418     -37.665 -24.740  35.361  1.00 34.17 LIG-0.27  OA
BRANCH 12 14
ATOM     14  CA  GLY G 418     -40.023 -24.641  35.660  1.00 40.24 LIG 0.47  C 
ATOM     15  N   GLY G 418     -40.826 -25.530  36.493  1.00 42.39 LIG 0.61  N 
ENDBRANCH 12 14
ENDBRANCH 6 10
ENDBRANCH 4 6
ENDBRANCH 1 2
BRANCH 1 16
ATOM     16  CB  TRP G 420     -35.823 -28.193  29.460  1.00 27.27 LIG 0.07  C 
BRANCH 16 17
ATOM     17  CG  TRP G 420     -36.196 -27.569  28.149  1.00 26.68 LIG-0.03  A 
ATOM     18  CD1 TRP G 420     -36.539 -28.211  27.000  1.00 29.02 LIG 0.10  A 
ATOM     19  NE1 TRP G 420     -36.704 -27.301  25.979  1.00 28.83 LIG-0.36  N 
ATOM     20 HE1  TRP G 420     -36.884 -27.494  25.161  1.00 28.83 LIG 0.17  HD
ATOM     21  CE2 TRP G 420     -36.534 -26.036  26.481  1.00 29.48 LIG 0.04  A 
ATOM     22  CD2 TRP G 420     -36.201 -26.169  27.848  1.00 26.13 LIG-0.00  A 
ATOM     23  CZ2 TRP G 420     -36.604 -24.790  25.846  1.00 28.18 LIG 0.03  A 
ATOM     24  CE3 TRP G 420     -35.934 -25.012  28.599  1.00 26.84 LIG 0.01  A 
ATOM     25  CZ3 TRP G 420     -36.023 -23.774  27.969  1.00 27.14 LIG 0.00  A 
ATOM     26  CH2 TRP G 420     -36.347 -23.677  26.614  1.00 27.58 LIG 0.00  A 
ENDBRANCH 16 17
ENDBRANCH 1 16
BRANCH 1 27
ATOM     27  C   TRP G 420     -37.048 -30.053  30.596  1.00 38.21 LIG 0.24  C 
ATOM     28 O    TRP G 420     -36.858 -30.815  29.654  1.00 38.32 LIG-0.27  OA
ATOM     29  N   HIS G 421     -37.237 -30.476  31.858  1.00 36.18 LIG-0.35  N 
ATOM     30 H    HIS G 421     -37.349 -29.939  32.520  1.00 36.18 LIG 0.16  HD
BRANCH 29 31
ATOM     31  CA  HIS G 421     -37.271 -31.890  32.238  1.00 85.07 LIG 0.17  C 
BRANCH 31 32
ATOM     32  CB  HIS G 421     -37.423 -32.041  33.759  1.00 86.25 LIG 0.09  C 
BRANCH 32 33
ATOM     33  CG  HIS G 421     -36.116 -32.222  34.467  1.00 90.14 LIG 0.06  A 
ATOM     34 ND1  HIS G 421     -35.373 -33.383  34.327  1.00 92.13 LIG-0.24  NA
ATOM     35  CE1 HIS G 421     -34.290 -33.206  35.068  1.00 91.61 LIG 0.23  A 
ATOM     36 NE2  HIS G 421     -34.290 -32.008  35.660  1.00 91.87 LIG-0.25  NA
ATOM     37  CD2 HIS G 421     -35.451 -31.373  35.286  1.00 92.02 LIG 0.14  A 
ENDBRANCH 32 33
ENDBRANCH 31 32
BRANCH 31 38
ATOM     38  C   HIS G 421     -38.372 -32.644  31.511  1.00112.71 LIG 0.22  C 
ATOM     39 O    HIS G 421     -39.427 -32.073  31.244  1.00 75.09 LIG-0.29  OA
ENDBRANCH 31 38
ENDBRANCH 29 31
ENDBRANCH 1 27
TORSDOF 13
ENDMDL
MODEL 6
USER: ADFR SOLUTION from run 145
USER: SCORE 11.199099 LL:  -2.146 LR:  -9.754 RR:   0.000 FEB:  -5.876
USER: RMSD 3.801029
USER: SEED 144
USER: STATUS no improvement in best in 9 clusters for 5 generations
USER: GENES 15
USER: genes 0 Translation |==|  0.59266 0.53358 0.48132
USER: genes 1 Rotation |==|  0.34183 0.50515 0.57608 0.96815
USER: genes 2 Torsion [CB]-CA--N-[C] |==|  0.50564
USER: genes 3 Torsion [N]-C--CA-[N] |==|  0.42231
USER: genes 4 Torsion [C]-CA--CB-[OG] |==|  0.35427
USER: genes 5 Torsion [CA]-CB--OG-[HG] |==|  0.82381
USER: genes 6 Torsion [C]-CA--N-[C] |==|  0.76721
USER: genes 7 Torsion [N]-C--CA-[N] |==|  0.34340
USER: genes 8 Torsion [N]-CA--CB-[CG] |==|  0.57637
USER: genes 9 Torsion [CA]-CB--CG-[CD1] |==|  0.72095
USER: genes 10 Torsion [N]-CA--C-[N] |==|  0.37801
USER: genes 11 Torsion [C]-N--CA-[C] |==|  0.69896
USER: genes 12 Torsion [N]-CA--CB-[CG] |==|  0.79539
USER: genes 13 Torsion [CA]-CB--CG-[ND1] |==|  0.01693
USER: genes 14 Torsion [N]-CA--C-[O] |==|  0.97095
ROOT
ATOM      1  CA  TRP G 420     -37.470 -27.654  30.364  1.00 30.19 LIG 0.18  C 
ENDROOT
BRANCH 1 2
ATOM      2  N   TRP G 420     -37.127 -27.559  31.782  1.00 29.90 LIG-0.35  N 
ATOM      3 H    TRP G 420     -36.282 -27.523  31.936  1.00 29.90 LIG 0.16  HD
ATOM      4  C   SER G 419     -38.056 -27.532  32.746  1.00 34.18 LIG 0.24  C 
ATOM      5 O    SER G 419     -39.264 -27.507  32.517  1.00 34.33 LIG-0.27  OA
BRANCH 4 6
ATOM      6  CA  SER G 419     -37.547 -27.551  34.189  1.00 31.26 LIG 0.20  C 
BRANCH 6 7
ATOM      7  CB  SER G 419     -37.289 -28.995  34.619  1.00 37.91 LIG 0.20  C 
BRANCH 7 8
ATOM      8 OG   SER G 419     -35.975 -29.130  35.140  1.00 57.41 LIG-0.40  OA
ATOM      9 HG   SER G 419     -35.415 -28.962  34.537  1.00 57.41 LIG 0.21  HD
ENDBRANCH 7 8
ENDBRANCH 6 7
BRANCH 6 10
ATOM     10  N   SER G 419     -38.475 -26.887  35.105  1.00 31.62 LIG-0.34  N 
ATOM     11 H    SER G 419     -39.017 -27.413  35.515  1.00 31.62 LIG 0.16  HD
ATOM     12  C   GLY G 418     -38.447 -25.552  35.262  1.00 37.47 LIG 0.25  C 
ATOM     13 O    GLY G 418     -37.665 -24.836  34.639  1.00 34.17 LIG-0.27  OA
BRANCH 12 14
ATOM     14  CA  GLY G 418     -39.453 -24.927  36.207  1.00 40.24 LIG 0.47  C 
ATOM     15  N   GLY G 418     -38.859 -24.127  37.272  1.00 42.39 LIG 0.61  N 
ENDBRANCH 12 14
ENDBRANCH 6 10
ENDBRANCH 4 6
ENDBRANCH 1 2
BRANCH 1 16
ATOM     16  CB  TRP G 420     -36.208 -27.714  29.508  1.00 27.27 LIG 0.07  C 
BRANCH 16 17
ATOM     17  CG  TRP G 420     -36.365 -27.178  28.116  1.00 26.68 LIG-0.03  A 
ATOM     18  CD1 TRP G 420     -36.542 -27.894  26.973  1.00 29.02 LIG 0.10  A 
ATOM     19  NE1 TRP G 420     -36.532 -27.054  25.882  1.00 28.83 LIG-0.36  N 
ATOM     20 HE1  TRP G 420     -36.589 -27.301  25.060  1.00 28.83 LIG 0.17  HD
ATOM     21  CE2 TRP G 420     -36.416 -25.760  26.319  1.00 29.48 LIG 0.04  A 
ATOM     22  CD2 TRP G 420     -36.297 -25.802  27.726  1.00 26.13 LIG-0.00  A 
ATOM     23  CZ2 TRP G 420     -36.365 -24.559  25.599  1.00 28.18 LIG 0.03  A 
ATOM     24  CE3 TRP G 420     -36.127 -24.598  28.431  1.00 26.84 LIG 0.01  A 
ATOM     25  CZ3 TRP G 420     -36.094 -23.406  27.714  1.00 27.14 LIG 0.00  A 
ATOM     26  CH2 TRP G 420     -36.207 -23.399  26.322  1.00 27.58 LIG 0.00  A 
ENDBRANCH 16 17
ENDBRANCH 1 16
BRANCH 1 27
ATOM     27  C   TRP G 420     -38.316 -28.901  30.139  1.00 38.21 LIG 0.24  C 
ATOM     28 O    TRP G 420     -38.022 -29.939  30.724  1.00 38.32 LIG-0.27  OA
ATOM     29  N   HIS G 421     -39.395 -28.783  29.346  1.00 36.18 LIG-0.35  N 
ATOM     30 H    HIS G 421     -39.610 -28.049  28.955  1.00 36.18 LIG 0.16  HD
BRANCH 29 31
ATOM     31  CA  HIS G 421     -40.314 -29.888  29.067  1.00 85.07 LIG 0.17  C 
BRANCH 31 32
ATOM     32  CB  HIS G 421     -41.765 -29.474  29.354  1.00 86.25 LIG 0.09  C 
BRANCH 32 33
ATOM     33  CG  HIS G 421     -42.075 -29.383  30.816  1.00 90.14 LIG 0.06  A 
ATOM     34 ND1  HIS G 421     -41.086 -29.533  31.775  1.00 92.13 LIG-0.24  NA
ATOM     35  CE1 HIS G 421     -41.695 -29.386  32.942  1.00 91.61 LIG 0.23  A 
ATOM     36 NE2  HIS G 421     -43.000 -29.143  32.788  1.00 91.87 LIG-0.25  NA
ATOM     37  CD2 HIS G 421     -43.254 -29.142  31.436  1.00 92.02 LIG 0.14  A 
ENDBRANCH 32 33
ENDBRANCH 31 32
BRANCH 31 38
ATOM     38  C   HIS G 421     -40.172 -30.395  27.641  1.00112.71 LIG 0.22  C 
ATOM     39 O    HIS G 421     -39.500 -29.758  26.833  1.00 75.09 LIG-0.29  OA
ENDBRANCH 31 38
ENDBRANCH 29 31
ENDBRANCH 1 27
TORSDOF 13
ENDMDL
MODEL 7
USER: ADFR SOLUTION from run 159
USER: SCORE 10.794478 LL:  -1.726 LR:  -9.708 RR:   0.000 FEB:  -5.830
USER: RMSD 3.062863
USER: SEED 158
USER: STATUS no improvement in best in 12 clusters for 5 generations
USER: GENES 15
USER: genes 0 Translation |==|  0.50493 0.51938 0.44996
USER: genes 1 Rotation |==|  0.43752 0.41904 0.51228 0.98928
USER: genes 2 Torsion [CB]-CA--N-[C] |==|  0.17778
USER: genes 3 Torsion [N]-C--CA-[N] |==|  0.48268
USER: genes 4 Torsion [C]-CA--CB-[OG] |==|  0.70239
USER: genes 5 Torsion [CA]-CB--OG-[HG] |==|  0.31101
USER: genes 6 Torsion [C]-CA--N-[C] |==|  0.77370
USER: genes 7 Torsion [N]-C--CA-[N] |==|  0.27134
USER: genes 8 Torsion [N]-CA--CB-[CG] |==|  0.50978
USER: genes 9 Torsion [CA]-CB--CG-[CD1] |==|  0.71470
USER: genes 10 Torsion [N]-CA--C-[N] |==|  0.16848
USER: genes 11 Torsion [C]-N--CA-[C] |==|  0.86909
USER: genes 12 Torsion [N]-CA--CB-[CG] |==|  0.19958
USER: genes 13 Torsion [CA]-CB--CG-[ND1] |==|  0.23566
USER: genes 14 Torsion [N]-CA--C-[O] |==|  0.24953
ROOT
ATOM      1  CA  TRP G 420     -38.720 -27.909  29.658  1.00 30.19 LIG 0.18  C 
ENDROOT
BRANCH 1 2
ATOM      2  N   TRP G 420     -38.910 -28.453  31.002  1.00 29.90 LIG-0.35  N 
ATOM      3 H    TRP G 420     -39.361 -29.185  31.022  1.00 29.90 LIG 0.16  HD
ATOM      4  C   SER G 419     -38.422 -27.855  32.096  1.00 34.18 LIG 0.24  C 
ATOM      5 O    SER G 419     -37.715 -26.850  32.055  1.00 34.33 LIG-0.27  OA
BRANCH 4 6
ATOM      6  CA  SER G 419     -38.801 -28.474  33.443  1.00 31.26 LIG 0.20  C 
BRANCH 6 7
ATOM      7  CB  SER G 419     -40.316 -28.397  33.631  1.00 37.91 LIG 0.20  C 
BRANCH 7 8
ATOM      8 OG   SER G 419     -40.647 -27.412  34.599  1.00 57.41 LIG-0.40  OA
ATOM      9 HG   SER G 419     -41.040 -26.772  34.224  1.00 57.41 LIG 0.21  HD
ENDBRANCH 7 8
ENDBRANCH 6 7
BRANCH 6 10
ATOM     10  N   SER G 419     -38.100 -27.834  34.556  1.00 31.62 LIG-0.34  N 
ATOM     11 H    SER G 419     -38.556 -27.239  34.976  1.00 31.62 LIG 0.16  HD
ATOM     12  C   GLY G 418     -36.838 -28.182  34.862  1.00 37.47 LIG 0.25  C 
ATOM     13 O    GLY G 418     -36.217 -29.027  34.219  1.00 34.17 LIG-0.27  OA
BRANCH 12 14
ATOM     14  CA  GLY G 418     -36.162 -27.461  36.010  1.00 40.24 LIG 0.47  C 
ATOM     15  N   GLY G 418     -36.201 -28.181  37.278  1.00 42.39 LIG 0.61  N 
ENDBRANCH 12 14
ENDBRANCH 6 10
ENDBRANCH 4 6
ENDBRANCH 1 2
BRANCH 1 16
ATOM     16  CB  TRP G 420     -37.240 -27.901  29.285  1.00 27.27 LIG 0.07  C 
BRANCH 16 17
ATOM     17  CG  TRP G 420     -36.930 -27.283  27.954  1.00 26.68 LIG-0.03  A 
ATOM     18  CD1 TRP G 420     -36.640 -27.931  26.794  1.00 29.02 LIG 0.10  A 
ATOM     19  NE1 TRP G 420     -36.302 -27.022  25.816  1.00 28.83 LIG-0.36  N 
ATOM     20 HE1  TRP G 420     -36.046 -27.218  25.018  1.00 28.83 LIG 0.17  HD
ATOM     21  CE2 TRP G 420     -36.438 -25.755  26.321  1.00 29.48 LIG 0.04  A 
ATOM     22  CD2 TRP G 420     -36.823 -25.883  27.674  1.00 26.13 LIG-0.00  A 
ATOM     23  CZ2 TRP G 420     -36.218 -24.509  25.720  1.00 28.18 LIG 0.03  A 
ATOM     24  CE3 TRP G 420     -36.998 -24.721  28.445  1.00 26.84 LIG 0.01  A 
ATOM     25  CZ3 TRP G 420     -36.795 -23.484  27.840  1.00 27.14 LIG 0.00  A 
ATOM     26  CH2 TRP G 420     -36.407 -23.392  26.501  1.00 27.58 LIG 0.00  A 
ENDBRANCH 16 17
ENDBRANCH 1 16
BRANCH 1 27
ATOM     27  C   TRP G 420     -39.506 -28.755  28.664  1.00 38.21 LIG 0.24  C 
ATOM     28 O    TRP G 420     -38.903 -29.377  27.796  1.00 38.32 LIG-0.27  OA
ATOM     29  N   HIS G 421     -40.839 -28.825  28.828  1.00 36.18 LIG-0.35  N 
ATOM     30 H    HIS G 421     -41.257 -28.404  29.450  1.00 36.18 LIG 0.16  HD
BRANCH 29 31
ATOM     31  CA  HIS G 421     -41.716 -29.622  27.969  1.00 85.07 LIG 0.17  C 
BRANCH 31 32
ATOM     32  CB  HIS G 421     -43.192 -29.324  28.272  1.00 86.25 LIG 0.09  C 
BRANCH 32 33
ATOM     33  CG  HIS G 421     -43.631 -27.974  27.794  1.00 90.14 LIG 0.06  A 
ATOM     34 ND1  HIS G 421     -44.052 -27.770  26.490  1.00 92.13 LIG-0.24  NA
ATOM     35  CE1 HIS G 421     -44.373 -26.488  26.415  1.00 91.61 LIG 0.23  A 
ATOM     36 NE2  HIS G 421     -44.193 -25.867  27.584  1.00 91.87 LIG-0.25  NA
ATOM     37  CD2 HIS G 421     -43.717 -26.804  28.470  1.00 92.02 LIG 0.14  A 
ENDBRANCH 32 33
ENDBRANCH 31 32
BRANCH 31 38
ATOM     38  C   HIS G 421     -41.415 -29.404  26.495  1.00112.71 LIG 0.22  C 
ATOM     39 O    HIS G 421     -40.588 -30.116  25.931  1.00 75.09 LIG-0.29  OA
ENDBRANCH 31 38
ENDBRANCH 29 31
ENDBRANCH 1 27
TORSDOF 13
ENDMDL
MODEL 8
USER: ADFR SOLUTION from run 23
USER: SCORE 11.276242 LL:  -2.317 LR:  -9.701 RR:   0.000 FEB:  -5.823
USER: RMSD 1.684899
USER: SEED 22
USER: STATUS no improvement in best in 17 clusters for 5 generations
USER: GENES 15
USER: genes 0 Translation |==|  0.51683 0.51731 0.46158
USER: genes 1 Rotation |==|  0.43862 0.40847 0.56609 0.98320
USER: genes 2 Torsion [CB]-CA--N-[C] |==|  0.19204
USER: genes 3 Torsion [N]-C--CA-[N] |==|  0.43235
USER: genes 4 Torsion [C]-CA--CB-[OG] |==|  0.73335
USER: genes 5 Torsion [CA]-CB--OG-[HG] |==|  0.34368
USER: genes 6 Torsion [C]-CA--N-[C] |==|  0.74520
USER: genes 7 Torsion [N]-C--CA-[N] |==|  0.29536
USER: genes 8 Torsion [N]-CA--CB-[CG] |==|  0.48528
USER: genes 9 Torsion [CA]-CB--CG-[CD1] |==|  0.77404
USER: genes 10 Torsion [N]-CA--C-[N] |==|  0.84226
USER: genes 11 Torsion [C]-N--CA-[C] |==|  0.58237
USER: genes 12 Torsion [N]-CA--CB-[CG] |==|  0.74863
USER: genes 13 Torsion [CA]-CB--CG-[ND1] |==|  0.91721
USER: genes 14 Torsion [N]-CA--C-[O] |==|  0.94503
ROOT
ATOM      1  CA  TRP G 420     -38.550 -27.946  29.920  1.00 30.19 LIG 0.18  C 
ENDROOT
BRANCH 1 2
ATOM      2  N   TRP G 420     -38.648 -28.478  31.278  1.00 29.90 LIG-0.35  N 
ATOM      3 H    TRP G 420     -38.864 -29.309  31.314  1.00 29.90 LIG 0.16  HD
ATOM      4  C   SER G 419     -38.421 -27.726  32.363  1.00 34.18 LIG 0.24  C 
ATOM      5 O    SER G 419     -38.040 -26.558  32.305  1.00 34.33 LIG-0.27  OA
BRANCH 4 6
ATOM      6  CA  SER G 419     -38.677 -28.385  33.720  1.00 31.26 LIG 0.20  C 
BRANCH 6 7
ATOM      7  CB  SER G 419     -40.173 -28.346  34.032  1.00 37.91 LIG 0.20  C 
BRANCH 7 8
ATOM      8 OG   SER G 419     -40.480 -27.228  34.851  1.00 57.41 LIG-0.40  OA
ATOM      9 HG   SER G 419     -41.067 -26.758  34.477  1.00 57.41 LIG 0.21  HD
ENDBRANCH 7 8
ENDBRANCH 6 7
BRANCH 6 10
ATOM     10  N   SER G 419     -37.900 -27.756  34.788  1.00 31.62 LIG-0.34  N 
ATOM     11 H    SER G 419     -38.283 -27.087  35.168  1.00 31.62 LIG 0.16  HD
ATOM     12  C   GLY G 418     -36.683 -28.222  35.117  1.00 37.47 LIG 0.25  C 
ATOM     13 O    GLY G 418     -36.165 -29.172  34.532  1.00 34.17 LIG-0.27  OA
BRANCH 12 14
ATOM     14  CA  GLY G 418     -35.922 -27.508  36.215  1.00 40.24 LIG 0.47  C 
ATOM     15  N   GLY G 418     -35.866 -28.235  37.478  1.00 42.39 LIG 0.61  N 
ENDBRANCH 12 14
ENDBRANCH 6 10
ENDBRANCH 4 6
ENDBRANCH 1 2
BRANCH 1 16
ATOM     16  CB  TRP G 420     -37.099 -27.630  29.568  1.00 27.27 LIG 0.07  C 
BRANCH 16 17
ATOM     17  CG  TRP G 420     -36.876 -27.196  28.151  1.00 26.68 LIG-0.03  A 
ATOM     18  CD1 TRP G 420     -36.760 -27.992  27.054  1.00 29.02 LIG 0.10  A 
ATOM     19  NE1 TRP G 420     -36.448 -27.234  25.948  1.00 28.83 LIG-0.36  N 
ATOM     20 HE1  TRP G 420     -36.291 -27.540  25.159  1.00 28.83 LIG 0.17  HD
ATOM     21  CE2 TRP G 420     -36.426 -25.912  26.308  1.00 29.48 LIG 0.04  A 
ATOM     22  CD2 TRP G 420     -36.682 -25.852  27.696  1.00 26.13 LIG-0.00  A 
ATOM     23  CZ2 TRP G 420     -36.165 -24.766  25.545  1.00 28.18 LIG 0.03  A 
ATOM     24  CE3 TRP G 420     -36.679 -24.600  28.336  1.00 26.84 LIG 0.01  A 
ATOM     25  CZ3 TRP G 420     -36.437 -23.462  27.571  1.00 27.14 LIG 0.00  A 
ATOM     26  CH2 TRP G 420     -36.181 -23.556  26.201  1.00 27.58 LIG 0.00  A 
ENDBRANCH 16 17
ENDBRANCH 1 16
BRANCH 1 27
ATOM     27  C   TRP G 420     -39.114 -28.972  28.944  1.00 38.21 LIG 0.24  C 
ATOM     28 O    TRP G 420     -39.994 -28.633  28.159  1.00 38.32 LIG-0.27  OA
ATOM     29  N   HIS G 421     -38.567 -30.200  28.950  1.00 36.18 LIG-0.35  N 
ATOM     30 H    HIS G 421     -37.936 -30.428  29.487  1.00 36.18 LIG 0.16  HD
BRANCH 29 31
ATOM     31  CA  HIS G 421     -38.986 -31.274  28.048  1.00 85.07 LIG 0.17  C 
BRANCH 31 32
ATOM     32  CB  HIS G 421     -38.243 -31.179  26.707  1.00 86.25 LIG 0.09  C 
BRANCH 32 33
ATOM     33  CG  HIS G 421     -38.962 -30.346  25.691  1.00 90.14 LIG 0.06  A 
ATOM     34 ND1  HIS G 421     -40.344 -30.246  25.687  1.00 92.13 LIG-0.24  NA
ATOM     35  CE1 HIS G 421     -40.640 -29.436  24.681  1.00 91.61 LIG 0.23  A 
ATOM     36 NE2  HIS G 421     -39.540 -29.008  24.055  1.00 91.87 LIG-0.25  NA
ATOM     37  CD2 HIS G 421     -38.464 -29.585  24.689  1.00 92.02 LIG 0.14  A 
ENDBRANCH 32 33
ENDBRANCH 31 32
BRANCH 31 38
ATOM     38  C   HIS G 421     -38.793 -32.646  28.674  1.00112.71 LIG 0.22  C 
ATOM     39 O    HIS G 421     -38.020 -32.779  29.620  1.00 75.09 LIG-0.29  OA
ENDBRANCH 31 38
ENDBRANCH 29 31
ENDBRANCH 1 27
TORSDOF 13
ENDMDL
MODEL 9
USER: ADFR SOLUTION from run 112
USER: SCORE 10.282554 LL:  -2.003 LR:  -9.702 RR:   0.000 FEB:  -5.824
USER: RMSD 4.041525
USER: SEED 111
USER: STATUS no improvement in best in 11 clusters for 5 generations
USER: GENES 15
USER: genes 0 Translation |==|  0.60681 0.50240 0.47909
USER: genes 1 Rotation |==|  0.31022 0.48557 0.64764 0.93816
USER: genes 2 Torsion [CB]-CA--N-[C] |==|  0.44607
USER: genes 3 Torsion [N]-C--CA-[N] |==|  0.44879
USER: genes 4 Torsion [C]-CA--CB-[OG] |==|  0.25107
USER: genes 5 Torsion [CA]-CB--OG-[HG] |==|  0.37228
USER: genes 6 Torsion [C]-CA--N-[C] |==|  0.72897
USER: genes 7 Torsion [N]-C--CA-[N] |==|  0.37264
USER: genes 8 Torsion [N]-CA--CB-[CG] |==|  0.62245
USER: genes 9 Torsion [CA]-CB--CG-[CD1] |==|  0.73526
USER: genes 10 Torsion [N]-CA--C-[N] |==|  0.94336
USER: genes 11 Torsion [C]-N--CA-[C] |==|  0.63864
USER: genes 12 Torsion [N]-CA--CB-[CG] |==|  0.60069
USER: genes 13 Torsion [CA]-CB--CG-[ND1] |==|  0.60191
USER: genes 14 Torsion [N]-CA--C-[O] |==|  0.02131
ROOT
ATOM      1  CA  TRP G 420     -37.268 -28.215  30.314  1.00 30.19 LIG 0.18  C 
ENDROOT
BRANCH 1 2
ATOM      2  N   TRP G 420     -37.004 -27.823  31.697  1.00 29.90 LIG-0.35  N 
ATOM      3 H    TRP G 420     -36.168 -27.787  31.897  1.00 29.90 LIG 0.16  HD
ATOM      4  C   SER G 419     -37.984 -27.546  32.566  1.00 34.18 LIG 0.24  C 
ATOM      5 O    SER G 419     -39.174 -27.525  32.255  1.00 34.33 LIG-0.27  OA
BRANCH 4 6
ATOM      6  CA  SER G 419     -37.562 -27.267  34.010  1.00 31.26 LIG 0.20  C 
BRANCH 6 7
ATOM      7  CB  SER G 419     -37.178 -28.579  34.692  1.00 37.91 LIG 0.20  C 
BRANCH 7 8
ATOM      8 OG   SER G 419     -35.793 -28.840  34.522  1.00 57.41 LIG-0.40  OA
ATOM      9 HG   SER G 419     -35.459 -29.076  35.256  1.00 57.41 LIG 0.21  HD
ENDBRANCH 7 8
ENDBRANCH 6 7
BRANCH 6 10
ATOM     10  N   SER G 419     -38.607 -26.570  34.760  1.00 31.62 LIG-0.34  N 
ATOM     11 H    SER G 419     -39.222 -27.078  35.081  1.00 31.62 LIG 0.16  HD
ATOM     12  C   GLY G 418     -38.569 -25.235  34.912  1.00 37.47 LIG 0.25  C 
ATOM     13 O    GLY G 418     -37.678 -24.545  34.419  1.00 34.17 LIG-0.27  OA
BRANCH 12 14
ATOM     14  CA  GLY G 418     -39.696 -24.575  35.678  1.00 40.24 LIG 0.47  C 
ATOM     15  N   GLY G 418     -39.259 -23.592  36.663  1.00 42.39 LIG 0.61  N 
ENDBRANCH 12 14
ENDBRANCH 6 10
ENDBRANCH 4 6
ENDBRANCH 1 2
BRANCH 1 16
ATOM     16  CB  TRP G 420     -36.030 -28.003  29.448  1.00 27.27 LIG 0.07  C 
BRANCH 16 17
ATOM     17  CG  TRP G 420     -36.294 -27.366  28.116  1.00 26.68 LIG-0.03  A 
ATOM     18  CD1 TRP G 420     -36.482 -27.996  26.925  1.00 29.02 LIG 0.10  A 
ATOM     19  NE1 TRP G 420     -36.585 -27.070  25.911  1.00 28.83 LIG-0.36  N 
ATOM     20 HE1  TRP G 420     -36.667 -27.252  25.074  1.00 28.83 LIG 0.17  HD
ATOM     21  CE2 TRP G 420     -36.533 -25.812  26.451  1.00 29.48 LIG 0.04  A 
ATOM     22  CD2 TRP G 420     -36.339 -25.961  27.843  1.00 26.13 LIG-0.00  A 
ATOM     23  CZ2 TRP G 420     -36.599 -24.555  25.836  1.00 28.18 LIG 0.03  A 
ATOM     24  CE3 TRP G 420     -36.212 -24.810  28.640  1.00 26.84 LIG 0.01  A 
ATOM     25  CZ3 TRP G 420     -36.297 -23.564  28.028  1.00 27.14 LIG 0.00  A 
ATOM     26  CH2 TRP G 420     -36.482 -23.450  26.648  1.00 27.58 LIG 0.00  A 
ENDBRANCH 16 17
ENDBRANCH 1 16
BRANCH 1 27
ATOM     27  C   TRP G 420     -37.684 -29.680  30.283  1.00 38.21 LIG 0.24  C 
ATOM     28 O    TRP G 420     -38.253 -30.123  29.291  1.00 38.32 LIG-0.27  OA
ATOM     29  N   HIS G 421     -37.347 -30.442  31.339  1.00 36.18 LIG-0.35  N 
ATOM     30 H    HIS G 421     -36.929 -30.134  32.024  1.00 36.18 LIG 0.16  HD
BRANCH 29 31
ATOM     31  CA  HIS G 421     -37.653 -31.871  31.433  1.00 85.07 LIG 0.17  C 
BRANCH 31 32
ATOM     32  CB  HIS G 421     -36.387 -32.714  31.220  1.00 86.25 LIG 0.09  C 
BRANCH 32 33
ATOM     33  CG  HIS G 421     -36.643 -33.986  30.473  1.00 90.14 LIG 0.06  A 
ATOM     34 ND1  HIS G 421     -35.966 -35.155  30.784  1.00 92.13 LIG-0.24  NA
ATOM     35  CE1 HIS G 421     -36.436 -36.071  29.951  1.00 91.61 LIG 0.23  A 
ATOM     36 NE2  HIS G 421     -37.371 -35.566  29.141  1.00 91.87 LIG-0.25  NA
ATOM     37  CD2 HIS G 421     -37.508 -34.236  29.463  1.00 92.02 LIG 0.14  A 
ENDBRANCH 32 33
ENDBRANCH 31 32
BRANCH 31 38
ATOM     38  C   HIS G 421     -38.317 -32.221  32.754  1.00112.71 LIG 0.22  C 
ATOM     39 O    HIS G 421     -38.657 -31.324  33.521  1.00 75.09 LIG-0.29  OA
ENDBRANCH 31 38
ENDBRANCH 29 31
ENDBRANCH 1 27
TORSDOF 13
ENDMDL
MODEL 10
USER: ADFR SOLUTION from run 134
USER: SCORE 11.395583 LL:  -2.195 LR:  -9.676 RR:   0.000 FEB:  -5.798
USER: RMSD 2.595182
USER: SEED 133
USER: STATUS searching
USER: GENES 15
USER: genes 0 Translation |==|  0.58096 0.46976 0.42708
USER: genes 1 Rotation |==|  0.46815 0.39485 0.62868 0.97050
USER: genes 2 Torsion [CB]-CA--N-[C] |==|  0.84444
USER: genes 3 Torsion [N]-C--CA-[N] |==|  0.96119
USER: genes 4 Torsion [C]-CA--CB-[OG] |==|  0.05780
USER: genes 5 Torsion [CA]-CB--OG-[HG] |==|  0.83962
USER: genes 6 Torsion [C]-CA--N-[C] |==|  0.72465
USER: genes 7 Torsion [N]-C--CA-[N] |==|  0.41777
USER: genes 8 Torsion [N]-CA--CB-[CG] |==|  0.53016
USER: genes 9 Torsion [CA]-CB--CG-[CD1] |==|  0.76491
USER: genes 10 Torsion [N]-CA--C-[N] |==|  0.45255
USER: genes 11 Torsion [C]-N--CA-[C] |==|  0.55758
USER: genes 12 Torsion [N]-CA--CB-[CG] |==|  0.11256
USER: genes 13 Torsion [CA]-CB--CG-[ND1] |==|  0.77321
USER: genes 14 Torsion [N]-CA--C-[O] |==|  0.77548
ROOT
ATOM      1  CA  TRP G 420     -37.636 -28.802  29.143  1.00 30.19 LIG 0.18  C 
ENDROOT
BRANCH 1 2
ATOM      2  N   TRP G 420     -37.593 -29.435  30.461  1.00 29.90 LIG-0.35  N 
ATOM      3 H    TRP G 420     -38.230 -29.195  30.985  1.00 29.90 LIG 0.16  HD
ATOM      4  C   SER G 419     -36.639 -30.308  30.808  1.00 34.18 LIG 0.24  C 
ATOM      5 O    SER G 419     -35.773 -30.705  30.030  1.00 34.33 LIG-0.27  OA
BRANCH 4 6
ATOM      6  CA  SER G 419     -36.652 -30.797  32.258  1.00 31.26 LIG 0.20  C 
BRANCH 6 7
ATOM      7  CB  SER G 419     -37.080 -32.264  32.297  1.00 37.91 LIG 0.20  C 
BRANCH 7 8
ATOM      8 OG   SER G 419     -36.879 -32.874  31.031  1.00 57.41 LIG-0.40  OA
ATOM      9 HG   SER G 419     -37.310 -32.454  30.445  1.00 57.41 LIG 0.21  HD
ENDBRANCH 7 8
ENDBRANCH 6 7
BRANCH 6 10
ATOM     10  N   SER G 419     -37.516 -29.974  33.105  1.00 31.62 LIG-0.34  N 
ATOM     11 H    SER G 419     -38.354 -30.160  33.055  1.00 31.62 LIG 0.16  HD
ATOM     12  C   GLY G 418     -36.996 -29.011  33.885  1.00 37.47 LIG 0.25  C 
ATOM     13 O    GLY G 418     -35.790 -28.767  33.908  1.00 34.17 LIG-0.27  OA
BRANCH 12 14
ATOM     14  CA  GLY G 418     -37.950 -28.179  34.716  1.00 40.24 LIG 0.47  C 
ATOM     15  N   GLY G 418     -37.380 -27.677  35.962  1.00 42.39 LIG 0.61  N 
ENDBRANCH 12 14
ENDBRANCH 6 10
ENDBRANCH 4 6
ENDBRANCH 1 2
BRANCH 1 16
ATOM     16  CB  TRP G 420     -36.326 -28.077  28.850  1.00 27.27 LIG 0.07  C 
BRANCH 16 17
ATOM     17  CG  TRP G 420     -36.357 -27.186  27.644  1.00 26.68 LIG-0.03  A 
ATOM     18  CD1 TRP G 420     -36.152 -27.546  26.349  1.00 29.02 LIG 0.10  A 
ATOM     19  NE1 TRP G 420     -36.148 -26.431  25.541  1.00 28.83 LIG-0.36  N 
ATOM     20 HE1  TRP G 420     -35.997 -26.427  24.694  1.00 28.83 LIG 0.17  HD
ATOM     21  CE2 TRP G 420     -36.423 -25.328  26.307  1.00 29.48 LIG 0.04  A 
ATOM     22  CD2 TRP G 420     -36.550 -25.767  27.644  1.00 26.13 LIG-0.00  A 
ATOM     23  CZ2 TRP G 420     -36.532 -23.978  25.949  1.00 28.18 LIG 0.03  A 
ATOM     24  CE3 TRP G 420     -36.799 -24.819  28.651  1.00 26.84 LIG 0.01  A 
ATOM     25  CZ3 TRP G 420     -36.924 -23.481  28.290  1.00 27.14 LIG 0.00  A 
ATOM     26  CH2 TRP G 420     -36.786 -23.078  26.959  1.00 27.58 LIG 0.00  A 
ENDBRANCH 16 17
ENDBRANCH 1 16
BRANCH 1 27
ATOM     27  C   TRP G 420     -37.891 -29.871  28.088  1.00 38.21 LIG 0.24  C 
ATOM     28 O    TRP G 420     -37.762 -31.053  28.387  1.00 38.32 LIG-0.27  OA
ATOM     29  N   HIS G 421     -38.311 -29.460  26.878  1.00 36.18 LIG-0.35  N 
ATOM     30 H    HIS G 421     -38.421 -28.631  26.678  1.00 36.18 LIG 0.16  HD
BRANCH 29 31
ATOM     31  CA  HIS G 421     -38.623 -30.375  25.779  1.00 85.07 LIG 0.17  C 
BRANCH 31 32
ATOM     32  CB  HIS G 421     -39.990 -31.042  25.999  1.00 86.25 LIG 0.09  C 
BRANCH 32 33
ATOM     33  CG  HIS G 421     -41.025 -30.103  26.537  1.00 90.14 LIG 0.06  A 
ATOM     34 ND1  HIS G 421     -41.097 -29.804  27.888  1.00 92.13 LIG-0.24  NA
ATOM     35  CE1 HIS G 421     -42.101 -28.950  28.011  1.00 91.61 LIG 0.23  A 
ATOM     36 NE2  HIS G 421     -42.664 -28.679  26.831  1.00 91.87 LIG-0.25  NA
ATOM     37  CD2 HIS G 421     -41.988 -29.412  25.883  1.00 92.02 LIG 0.14  A 
ENDBRANCH 32 33
ENDBRANCH 31 32
BRANCH 31 38
ATOM     38  C   HIS G 421     -38.578 -29.676  24.430  1.00112.71 LIG 0.22  C 
ATOM     39 O    HIS G 421     -39.540 -29.009  24.058  1.00 75.09 LIG-0.29  OA
ENDBRANCH 31 38
ENDBRANCH 29 31
ENDBRANCH 1 27
TORSDOF 13
ENDMDL
MODEL 11
USER: ADFR SOLUTION from run 10
USER: SCORE 10.459220 LL:  -2.022 LR:  -9.660 RR:   0.000 FEB:  -5.782
USER: RMSD 2.841065
USER: SEED 408629
USER: STATUS no improvement in best in 19 clusters for 5 generations
USER: GENES 15
USER: genes 0 Translation |==|  0.56730 0.52336 0.47734
USER: genes 1 Rotation |==|  0.31949 0.36470 0.72916 0.88288
USER: genes 2 Torsion [CB]-CA--N-[C] |==|  0.80915
USER: genes 3 Torsion [N]-C--CA-[N] |==|  0.53167
USER: genes 4 Torsion [C]-CA--CB-[OG] |==|  0.65092
USER: genes 5 Torsion [CA]-CB--OG-[HG] |==|  0.82306
USER: genes 6 Torsion [C]-CA--N-[C] |==|  0.62061
USER: genes 7 Torsion [N]-C--CA-[N] |==|  0.47803
USER: genes 8 Torsion [N]-CA--CB-[CG] |==|  0.57002
USER: genes 9 Torsion [CA]-CB--CG-[CD1] |==|  0.86376
USER: genes 10 Torsion [N]-CA--C-[N] |==|  0.13765
USER: genes 11 Torsion [C]-N--CA-[C] |==|  0.14638
USER: genes 12 Torsion [N]-CA--CB-[CG] |==|  0.97074
USER: genes 13 Torsion [CA]-CB--CG-[ND1] |==|  0.80032
USER: genes 14 Torsion [N]-CA--C-[O] |==|  0.76445
ROOT
ATOM      1  CA  TRP G 420     -37.831 -27.837  30.274  1.00 30.19 LIG 0.18  C 
ENDROOT
BRANCH 1 2
ATOM      2  N   TRP G 420     -38.179 -27.589  31.672  1.00 29.90 LIG-0.35  N 
ATOM      3 H    TRP G 420     -38.957 -27.239  31.782  1.00 29.90 LIG 0.16  HD
ATOM      4  C   SER G 419     -37.351 -27.883  32.683  1.00 34.18 LIG 0.24  C 
ATOM      5 O    SER G 419     -36.272 -28.451  32.526  1.00 34.33 LIG-0.27  OA
BRANCH 4 6
ATOM      6  CA  SER G 419     -37.800 -27.458  34.083  1.00 31.26 LIG 0.20  C 
BRANCH 6 7
ATOM      7  CB  SER G 419     -38.337 -26.028  34.034  1.00 37.91 LIG 0.20  C 
BRANCH 7 8
ATOM      8 OG   SER G 419     -37.665 -25.212  34.982  1.00 57.41 LIG-0.40  OA
ATOM      9 HG   SER G 419     -37.826 -25.492  35.757  1.00 57.41 LIG 0.21  HD
ENDBRANCH 7 8
ENDBRANCH 6 7
BRANCH 6 10
ATOM     10  N   SER G 419     -36.722 -27.582  35.064  1.00 31.62 LIG-0.34  N 
ATOM     11 H    SER G 419     -35.956 -27.298  34.797  1.00 31.62 LIG 0.16  HD
ATOM     12  C   GLY G 418     -36.957 -28.106  36.280  1.00 37.47 LIG 0.25  C 
ATOM     13 O    GLY G 418     -38.068 -28.517  36.612  1.00 34.17 LIG-0.27  OA
BRANCH 12 14
ATOM     14  CA  GLY G 418     -35.791 -28.229  37.237  1.00 40.24 LIG 0.47  C 
ATOM     15  N   GLY G 418     -36.163 -28.635  38.588  1.00 42.39 LIG 0.61  N 
ENDBRANCH 12 14
ENDBRANCH 6 10
ENDBRANCH 4 6
ENDBRANCH 1 2
BRANCH 1 16
ATOM     16  CB  TRP G 420     -36.710 -26.905  29.824  1.00 27.27 LIG 0.07  C 
BRANCH 16 17
ATOM     17  CG  TRP G 420     -36.670 -26.637  28.349  1.00 26.68 LIG-0.03  A 
ATOM     18  CD1 TRP G 420     -36.719 -27.552  27.344  1.00 29.02 LIG 0.10  A 
ATOM     19  NE1 TRP G 420     -36.541 -26.931  26.128  1.00 28.83 LIG-0.36  N 
ATOM     20 HE1  TRP G 420     -36.499 -27.327  25.365  1.00 28.83 LIG 0.17  HD
ATOM     21  CE2 TRP G 420     -36.444 -25.579  26.330  1.00 29.48 LIG 0.04  A 
ATOM     22  CD2 TRP G 420     -36.510 -25.358  27.724  1.00 26.13 LIG-0.00  A 
ATOM     23  CZ2 TRP G 420     -36.263 -24.534  25.415  1.00 28.18 LIG 0.03  A 
ATOM     24  CE3 TRP G 420     -36.395 -24.045  28.212  1.00 26.84 LIG 0.01  A 
ATOM     25  CZ3 TRP G 420     -36.234 -23.008  27.298  1.00 27.14 LIG 0.00  A 
ATOM     26  CH2 TRP G 420     -36.165 -23.260  25.926  1.00 27.58 LIG 0.00  A 
ENDBRANCH 16 17
ENDBRANCH 1 16
BRANCH 1 27
ATOM     27  C   TRP G 420     -37.397 -29.290  30.121  1.00 38.21 LIG 0.24  C 
ATOM     28 O    TRP G 420     -36.323 -29.542  29.586  1.00 38.32 LIG-0.27  OA
ATOM     29  N   HIS G 421     -38.198 -30.235  30.644  1.00 36.18 LIG-0.35  N 
ATOM     30 H    HIS G 421     -38.941 -30.053  31.037  1.00 36.18 LIG 0.16  HD
BRANCH 29 31
ATOM     31  CA  HIS G 421     -37.894 -31.666  30.599  1.00 85.07 LIG 0.17  C 
BRANCH 31 32
ATOM     32  CB  HIS G 421     -38.042 -32.209  29.170  1.00 86.25 LIG 0.09  C 
BRANCH 32 33
ATOM     33  CG  HIS G 421     -38.692 -31.238  28.233  1.00 90.14 LIG 0.06  A 
ATOM     34 ND1  HIS G 421     -40.044 -30.945  28.320  1.00 92.13 LIG-0.24  NA
ATOM     35  CE1 HIS G 421     -40.278 -30.056  27.366  1.00 91.61 LIG 0.23  A 
ATOM     36 NE2  HIS G 421     -39.166 -29.758  26.688  1.00 91.87 LIG-0.25  NA
ATOM     37  CD2 HIS G 421     -38.149 -30.508  27.231  1.00 92.02 LIG 0.14  A 
ENDBRANCH 32 33
ENDBRANCH 31 32
BRANCH 31 38
ATOM     38  C   HIS G 421     -36.508 -31.967  31.146  1.00112.71 LIG 0.22  C 
ATOM     39 O    HIS G 421     -35.529 -31.875  30.409  1.00 75.09 LIG-0.29  OA
ENDBRANCH 31 38
ENDBRANCH 29 31
ENDBRANCH 1 27
TORSDOF 13
ENDMDL
MODEL 12
USER: ADFR SOLUTION from run 132
USER: SCORE 10.635309 LL:  -2.240 LR:  -9.660 RR:   0.000 FEB:  -5.782
USER: RMSD 5.361241
USER: SEED 131
USER: STATUS no improvement in best in 20 clusters for 5 generations
USER: GENES 15
USER: genes 0 Translation |==|  0.61656 0.46901 0.48379
USER: genes 1 Rotation |==|  0.27841 0.35361 0.76193 0.83295
USER: genes 2 Torsion [CB]-CA--N-[C] |==|  0.81344
USER: genes 3 Torsion [N]-C--CA-[N] |==|  0.50467
USER: genes 4 Torsion [C]-CA--CB-[OG] |==|  0.66245
USER: genes 5 Torsion [CA]-CB--OG-[HG] |==|  0.32766
USER: genes 6 Torsion [C]-CA--N-[C] |==|  0.70087
USER: genes 7 Torsion [N]-C--CA-[N] |==|  0.48568
USER: genes 8 Torsion [N]-CA--CB-[CG] |==|  0.64352
USER: genes 9 Torsion [CA]-CB--CG-[CD1] |==|  0.86175
USER: genes 10 Torsion [N]-CA--C-[N] |==|  0.09491
USER: genes 11 Torsion [C]-N--CA-[C] |==|  0.77162
USER: genes 12 Torsion [N]-CA--CB-[CG] |==|  0.74754
USER: genes 13 Torsion [CA]-CB--CG-[ND1] |==|  0.71708
USER: genes 14 Torsion [N]-CA--C-[O] |==|  0.41689
ROOT
ATOM      1  CA  TRP G 420     -37.129 -28.816  30.419  1.00 30.19 LIG 0.18  C 
ENDROOT
BRANCH 1 2
ATOM      2  N   TRP G 420     -37.692 -28.355  31.687  1.00 29.90 LIG-0.35  N 
ATOM      3 H    TRP G 420     -38.526 -28.152  31.646  1.00 29.90 LIG 0.16  HD
ATOM      4  C   SER G 419     -36.963 -28.263  32.807  1.00 34.18 LIG 0.24  C 
ATOM      5 O    SER G 419     -35.790 -28.626  32.879  1.00 34.33 LIG-0.27  OA
BRANCH 4 6
ATOM      6  CA  SER G 419     -37.655 -27.653  34.027  1.00 31.26 LIG 0.20  C 
BRANCH 6 7
ATOM      7  CB  SER G 419     -38.216 -26.279  33.662  1.00 37.91 LIG 0.20  C 
BRANCH 7 8
ATOM      8 OG   SER G 419     -37.665 -25.277  34.504  1.00 57.41 LIG-0.40  OA
ATOM      9 HG   SER G 419     -37.232 -24.728  34.039  1.00 57.41 LIG 0.21  HD
ENDBRANCH 7 8
ENDBRANCH 6 7
BRANCH 6 10
ATOM     10  N   SER G 419     -36.756 -27.565  35.179  1.00 31.62 LIG-0.34  N 
ATOM     11 H    SER G 419     -36.147 -26.961  35.116  1.00 31.62 LIG 0.16  HD
ATOM     12  C   GLY G 418     -36.908 -28.385  36.233  1.00 37.47 LIG 0.25  C 
ATOM     13 O    GLY G 418     -37.784 -29.249  36.269  1.00 34.17 LIG-0.27  OA
BRANCH 12 14
ATOM     14  CA  GLY G 418     -35.927 -28.258  37.379  1.00 40.24 LIG 0.47  C 
ATOM     15  N   GLY G 418     -36.234 -29.101  38.529  1.00 42.39 LIG 0.61  N 
ENDBRANCH 12 14
ENDBRANCH 6 10
ENDBRANCH 4 6
ENDBRANCH 1 2
BRANCH 1 16
ATOM     16  CB  TRP G 420     -36.111 -27.812  29.886  1.00 27.27 LIG 0.07  C 
BRANCH 16 17
ATOM     17  CG  TRP G 420     -36.333 -27.386  28.466  1.00 26.68 LIG-0.03  A 
ATOM     18  CD1 TRP G 420     -36.540 -28.188  27.387  1.00 29.02 LIG 0.10  A 
ATOM     19  NE1 TRP G 420     -36.589 -27.434  26.236  1.00 28.83 LIG-0.36  N 
ATOM     20 HE1  TRP G 420     -36.673 -27.743  25.438  1.00 28.83 LIG 0.17  HD
ATOM     21  CE2 TRP G 420     -36.481 -26.108  26.570  1.00 29.48 LIG 0.04  A 
ATOM     22  CD2 TRP G 420     -36.307 -26.042  27.970  1.00 26.13 LIG-0.00  A 
ATOM     23  CZ2 TRP G 420     -36.481 -24.965  25.761  1.00 28.18 LIG 0.03  A 
ATOM     24  CE3 TRP G 420     -36.132 -24.786  28.576  1.00 26.84 LIG 0.01  A 
ATOM     25  CZ3 TRP G 420     -36.151 -23.650  27.771  1.00 27.14 LIG 0.00  A 
ATOM     26  CH2 TRP G 420     -36.318 -23.751  26.388  1.00 27.58 LIG 0.00  A 
ENDBRANCH 16 17
ENDBRANCH 1 16
BRANCH 1 27
ATOM     27  C   TRP G 420     -36.467 -30.171  30.633  1.00 38.21 LIG 0.24  C 
ATOM     28 O    TRP G 420     -35.428 -30.433  30.034  1.00 38.32 LIG-0.27  OA
ATOM     29  N   HIS G 421     -37.029 -31.002  31.528  1.00 36.18 LIG-0.35  N 
ATOM     30 H    HIS G 421     -37.745 -30.807  31.962  1.00 36.18 LIG 0.16  HD
BRANCH 29 31
ATOM     31  CA  HIS G 421     -36.485 -32.321  31.857  1.00 85.07 LIG 0.17  C 
BRANCH 31 32
ATOM     32  CB  HIS G 421     -36.896 -32.739  33.277  1.00 86.25 LIG 0.09  C 
BRANCH 32 33
ATOM     33  CG  HIS G 421     -35.908 -32.324  34.324  1.00 90.14 LIG 0.06  A 
ATOM     34 ND1  HIS G 421     -35.009 -33.228  34.867  1.00 92.13 LIG-0.24  NA
ATOM     35  CE1 HIS G 421     -34.290 -32.536  35.738  1.00 91.61 LIG 0.23  A 
ATOM     36 NE2  HIS G 421     -34.665 -31.254  35.776  1.00 91.87 LIG-0.25  NA
ATOM     37  CD2 HIS G 421     -35.699 -31.108  34.881  1.00 92.02 LIG 0.14  A 
ENDBRANCH 32 33
ENDBRANCH 31 32
BRANCH 31 38
ATOM     38  C   HIS G 421     -36.903 -33.374  30.845  1.00112.71 LIG 0.22  C 
ATOM     39 O    HIS G 421     -36.165 -34.330  30.621  1.00 75.09 LIG-0.29  OA
ENDBRANCH 31 38
ENDBRANCH 29 31
ENDBRANCH 1 27
TORSDOF 13
ENDMDL
MODEL 13
USER: ADFR SOLUTION from run 121
USER: SCORE 10.190145 LL:  -1.974 LR:  -9.582 RR:   0.000 FEB:  -5.704
USER: RMSD 2.803180
USER: SEED 120
USER: STATUS no improvement in best in 13 clusters for 5 generations
USER: GENES 15
USER: genes 0 Translation |==|  0.64389 0.45494 0.45071
USER: genes 1 Rotation |==|  0.66500 0.52872 0.54422 0.96904
USER: genes 2 Torsion [CB]-CA--N-[C] |==|  0.39237
USER: genes 3 Torsion [N]-C--CA-[N] |==|  0.44999
USER: genes 4 Torsion [C]-CA--CB-[OG] |==|  0.39871
USER: genes 5 Torsion [CA]-CB--OG-[HG] |==|  0.70217
USER: genes 6 Torsion [C]-CA--N-[C] |==|  0.61870
USER: genes 7 Torsion [N]-C--CA-[N] |==|  0.04782
USER: genes 8 Torsion [N]-CA--CB-[CG] |==|  0.37238
USER: genes 9 Torsion [CA]-CB--CG-[CD1] |==|  0.78672
USER: genes 10 Torsion [N]-CA--C-[N] |==|  0.94584
USER: genes 11 Torsion [C]-N--CA-[C] |==|  0.71163
USER: genes 12 Torsion [N]-CA--CB-[CG] |==|  0.66538
USER: genes 13 Torsion [CA]-CB--CG-[ND1] |==|  0.45845
USER: genes 14 Torsion [N]-CA--C-[O] |==|  0.00332
ROOT
ATOM      1  CA  TRP G 420     -36.740 -29.069  29.675  1.00 30.19 LIG 0.18  C 
ENDROOT
BRANCH 1 2
ATOM      2  N   TRP G 420     -36.251 -30.402  30.025  1.00 29.90 LIG-0.35  N 
ATOM      3 H    TRP G 420     -35.714 -30.741  29.445  1.00 29.90 LIG 0.16  HD
ATOM      4  C   SER G 419     -36.615 -31.029  31.151  1.00 34.18 LIG 0.24  C 
ATOM      5 O    SER G 419     -37.323 -30.510  32.012  1.00 34.33 LIG-0.27  OA
BRANCH 4 6
ATOM      6  CA  SER G 419     -36.119 -32.466  31.326  1.00 31.26 LIG 0.20  C 
BRANCH 6 7
ATOM      7  CB  SER G 419     -36.914 -33.395  30.410  1.00 37.91 LIG 0.20  C 
BRANCH 7 8
ATOM      8 OG   SER G 419     -36.077 -34.420  29.894  1.00 57.41 LIG-0.40  OA
ATOM      9 HG   SER G 419     -35.922 -34.273  29.082  1.00 57.41 LIG 0.21  HD
ENDBRANCH 7 8
ENDBRANCH 6 7
BRANCH 6 10
ATOM     10  N   SER G 419     -36.198 -32.906  32.719  1.00 31.62 LIG-0.34  N 
ATOM     11 H    SER G 419     -36.921 -32.683  33.128  1.00 31.62 LIG 0.16  HD
ATOM     12  C   GLY G 418     -35.193 -33.602  33.278  1.00 37.47 LIG 0.25  C 
ATOM     13 O    GLY G 418     -34.167 -33.881  32.659  1.00 34.17 LIG-0.27  OA
BRANCH 12 14
ATOM     14  CA  GLY G 418     -35.329 -34.003  34.732  1.00 40.24 LIG 0.47  C 
ATOM     15  N   GLY G 418     -36.691 -33.932  35.249  1.00 42.39 LIG 0.61  N 
ENDBRANCH 12 14
ENDBRANCH 6 10
ENDBRANCH 4 6
ENDBRANCH 1 2
BRANCH 1 16
ATOM     16  CB  TRP G 420     -35.631 -28.239  29.034  1.00 27.27 LIG 0.07  C 
BRANCH 16 17
ATOM     17  CG  TRP G 420     -36.035 -27.498  27.796  1.00 26.68 LIG-0.03  A 
ATOM     18  CD1 TRP G 420     -36.206 -28.011  26.548  1.00 29.02 LIG 0.10  A 
ATOM     19  NE1 TRP G 420     -36.469 -27.000  25.651  1.00 28.83 LIG-0.36  N 
ATOM     20 HE1  TRP G 420     -36.571 -27.098  24.802  1.00 28.83 LIG 0.17  HD
ATOM     21  CE2 TRP G 420     -36.540 -25.811  26.330  1.00 29.48 LIG 0.04  A 
ATOM     22  CD2 TRP G 420     -36.260 -26.088  27.687  1.00 26.13 LIG-0.00  A 
ATOM     23  CZ2 TRP G 420     -36.786 -24.512  25.866  1.00 28.18 LIG 0.03  A 
ATOM     24  CE3 TRP G 420     -36.232 -25.025  28.607  1.00 26.84 LIG 0.01  A 
ATOM     25  CZ3 TRP G 420     -36.494 -23.738  28.146  1.00 27.14 LIG 0.00  A 
ATOM     26  CH2 TRP G 420     -36.760 -23.497  26.795  1.00 27.58 LIG 0.00  A 
ENDBRANCH 16 17
ENDBRANCH 1 16
BRANCH 1 27
ATOM     27  C   TRP G 420     -37.913 -29.207  28.713  1.00 38.21 LIG 0.24  C 
ATOM     28 O    TRP G 420     -38.658 -28.249  28.533  1.00 38.32 LIG-0.27  OA
ATOM     29  N   HIS G 421     -38.040 -30.371  28.053  1.00 36.18 LIG-0.35  N 
ATOM     30 H    HIS G 421     -37.504 -31.034  28.166  1.00 36.18 LIG 0.16  HD
BRANCH 29 31
ATOM     31  CA  HIS G 421     -39.099 -30.634  27.077  1.00 85.07 LIG 0.17  C 
BRANCH 31 32
ATOM     32  CB  HIS G 421     -38.516 -31.246  25.794  1.00 86.25 LIG 0.09  C 
BRANCH 32 33
ATOM     33  CG  HIS G 421     -38.786 -30.423  24.572  1.00 90.14 LIG 0.06  A 
ATOM     34 ND1  HIS G 421     -38.095 -30.638  23.390  1.00 92.13 LIG-0.24  NA
ATOM     35  CE1 HIS G 421     -38.582 -29.758  22.528  1.00 91.61 LIG 0.23  A 
ATOM     36 NE2  HIS G 421     -39.540 -29.008  23.079  1.00 91.87 LIG-0.25  NA
ATOM     37  CD2 HIS G 421     -39.676 -29.421  24.384  1.00 92.02 LIG 0.14  A 
ENDBRANCH 32 33
ENDBRANCH 31 32
BRANCH 31 38
ATOM     38  C   HIS G 421     -40.189 -31.525  27.650  1.00112.71 LIG 0.22  C 
ATOM     39 O    HIS G 421     -40.111 -31.908  28.815  1.00 75.09 LIG-0.29  OA
ENDBRANCH 31 38
ENDBRANCH 29 31
ENDBRANCH 1 27
TORSDOF 13
ENDMDL
MODEL 14
USER: ADFR SOLUTION from run 112
USER: SCORE 10.387183 LL:  -2.349 LR:  -9.573 RR:   0.000 FEB:  -5.695
USER: RMSD 4.159418
USER: SEED 111
USER: STATUS no improvement in best in 11 clusters for 5 generations
USER: GENES 15
USER: genes 0 Translation |==|  0.60182 0.50153 0.48359
USER: genes 1 Rotation |==|  0.29556 0.48870 0.64463 0.93262
USER: genes 2 Torsion [CB]-CA--N-[C] |==|  0.47190
USER: genes 3 Torsion [N]-C--CA-[N] |==|  0.43190
USER: genes 4 Torsion [C]-CA--CB-[OG] |==|  0.23477
USER: genes 5 Torsion [CA]-CB--OG-[HG] |==|  0.37263
USER: genes 6 Torsion [C]-CA--N-[C] |==|  0.70103
USER: genes 7 Torsion [N]-C--CA-[N] |==|  0.26195
USER: genes 8 Torsion [N]-CA--CB-[CG] |==|  0.62173
USER: genes 9 Torsion [CA]-CB--CG-[CD1] |==|  0.73904
USER: genes 10 Torsion [N]-CA--C-[N] |==|  0.93783
USER: genes 11 Torsion [C]-N--CA-[C] |==|  0.20245
USER: genes 12 Torsion [N]-CA--CB-[CG] |==|  0.86819
USER: genes 13 Torsion [CA]-CB--CG-[ND1] |==|  0.36903
USER: genes 14 Torsion [N]-CA--C-[O] |==|  0.06170
ROOT
ATOM      1  CA  TRP G 420     -37.339 -28.230  30.415  1.00 30.19 LIG 0.18  C 
ENDROOT
BRANCH 1 2
ATOM      2  N   TRP G 420     -37.086 -27.754  31.774  1.00 29.90 LIG-0.35  N 
ATOM      3 H    TRP G 420     -36.258 -27.594  31.940  1.00 29.90 LIG 0.16  HD
ATOM      4  C   SER G 419     -38.066 -27.587  32.671  1.00 34.18 LIG 0.24  C 
ATOM      5 O    SER G 419     -39.256 -27.745  32.406  1.00 34.33 LIG-0.27  OA
BRANCH 4 6
ATOM      6  CA  SER G 419     -37.638 -27.198  34.088  1.00 31.26 LIG 0.20  C 
BRANCH 6 7
ATOM      7  CB  SER G 419     -37.190 -28.446  34.847  1.00 37.91 LIG 0.20  C 
BRANCH 7 8
ATOM      8 OG   SER G 419     -35.829 -28.736  34.565  1.00 57.41 LIG-0.40  OA
ATOM      9 HG   SER G 419     -35.425 -28.909  35.281  1.00 57.41 LIG 0.21  HD
ENDBRANCH 7 8
ENDBRANCH 6 7
BRANCH 6 10
ATOM     10  N   SER G 419     -38.703 -26.498  34.808  1.00 31.62 LIG-0.34  N 
ATOM     11 H    SER G 419     -39.361 -26.995  35.052  1.00 31.62 LIG 0.16  HD
ATOM     12  C   GLY G 418     -38.618 -25.178  35.047  1.00 37.47 LIG 0.25  C 
ATOM     13 O    GLY G 418     -37.665 -24.503  34.661  1.00 34.17 LIG-0.27  OA
BRANCH 12 14
ATOM     14  CA  GLY G 418     -39.768 -24.513  35.774  1.00 40.24 LIG 0.47  C 
ATOM     15  N   GLY G 418     -39.586 -24.410  37.218  1.00 42.39 LIG 0.61  N 
ENDBRANCH 12 14
ENDBRANCH 6 10
ENDBRANCH 4 6
ENDBRANCH 1 2
BRANCH 1 16
ATOM     16  CB  TRP G 420     -36.089 -28.086  29.552  1.00 27.27 LIG 0.07  C 
BRANCH 16 17
ATOM     17  CG  TRP G 420     -36.333 -27.538  28.178  1.00 26.68 LIG-0.03  A 
ATOM     18  CD1 TRP G 420     -36.537 -28.244  27.033  1.00 29.02 LIG 0.10  A 
ATOM     19  NE1 TRP G 420     -36.610 -27.391  25.956  1.00 28.83 LIG-0.36  N 
ATOM     20 HE1  TRP G 420     -36.697 -27.629  25.134  1.00 28.83 LIG 0.17  HD
ATOM     21  CE2 TRP G 420     -36.523 -26.099  26.406  1.00 29.48 LIG 0.04  A 
ATOM     22  CD2 TRP G 420     -36.335 -26.155  27.805  1.00 26.13 LIG-0.00  A 
ATOM     23  CZ2 TRP G 420     -36.551 -24.887  25.703  1.00 28.18 LIG 0.03  A 
ATOM     24  CE3 TRP G 420     -36.176 -24.955  28.520  1.00 26.84 LIG 0.01  A 
ATOM     25  CZ3 TRP G 420     -36.223 -23.753  27.821  1.00 27.14 LIG 0.00  A 
ATOM     26  CH2 TRP G 420     -36.403 -23.732  26.435  1.00 27.58 LIG 0.00  A 
ENDBRANCH 16 17
ENDBRANCH 1 16
BRANCH 1 27
ATOM     27  C   TRP G 420     -37.771 -29.691  30.472  1.00 38.21 LIG 0.24  C 
ATOM     28 O    TRP G 420     -38.366 -30.179  29.517  1.00 38.32 LIG-0.27  OA
ATOM     29  N   HIS G 421     -37.418 -30.399  31.559  1.00 36.18 LIG-0.35  N 
ATOM     30 H    HIS G 421     -36.982 -30.059  32.218  1.00 36.18 LIG 0.16  HD
BRANCH 29 31
ATOM     31  CA  HIS G 421     -37.737 -31.817  31.736  1.00 85.07 LIG 0.17  C 
BRANCH 31 32
ATOM     32  CB  HIS G 421     -39.232 -32.073  31.494  1.00 86.25 LIG 0.09  C 
BRANCH 32 33
ATOM     33  CG  HIS G 421     -40.120 -31.101  32.208  1.00 90.14 LIG 0.06  A 
ATOM     34 ND1  HIS G 421     -41.174 -30.476  31.561  1.00 92.13 LIG-0.24  NA
ATOM     35  CE1 HIS G 421     -41.746 -29.705  32.473  1.00 91.61 LIG 0.23  A 
ATOM     36 NE2  HIS G 421     -41.134 -29.807  33.656  1.00 91.87 LIG-0.25  NA
ATOM     37  CD2 HIS G 421     -40.093 -30.692  33.498  1.00 92.02 LIG 0.14  A 
ENDBRANCH 32 33
ENDBRANCH 31 32
BRANCH 31 38
ATOM     38  C   HIS G 421     -36.888 -32.703  30.840  1.00112.71 LIG 0.22  C 
ATOM     39 O    HIS G 421     -35.816 -32.285  30.409  1.00 75.09 LIG-0.29  OA
ENDBRANCH 31 38
ENDBRANCH 29 31
ENDBRANCH 1 27
TORSDOF 13
ENDMDL
MODEL 15
USER: ADFR SOLUTION from run 162
USER: SCORE 11.852621 LL:  -2.625 LR:  -9.555 RR:   0.000 FEB:  -5.677
USER: RMSD 1.546123
USER: SEED 161
USER: STATUS no improvement in best in 13 clusters for 5 generations
USER: GENES 15
USER: genes 0 Translation |==|  0.57530 0.49348 0.45654
USER: genes 1 Rotation |==|  0.48287 0.46081 0.55131 0.99552
USER: genes 2 Torsion [CB]-CA--N-[C] |==|  0.87776
USER: genes 3 Torsion [N]-C--CA-[N] |==|  0.00059
USER: genes 4 Torsion [C]-CA--CB-[OG] |==|  0.10998
USER: genes 5 Torsion [CA]-CB--OG-[HG] |==|  0.67201
USER: genes 6 Torsion [C]-CA--N-[C] |==|  0.74175
USER: genes 7 Torsion [N]-C--CA-[N] |==|  0.39291
USER: genes 8 Torsion [N]-CA--CB-[CG] |==|  0.48807
USER: genes 9 Torsion [CA]-CB--CG-[CD1] |==|  0.75532
USER: genes 10 Torsion [N]-CA--C-[N] |==|  0.89277
USER: genes 11 Torsion [C]-N--CA-[C] |==|  0.57154
USER: genes 12 Torsion [N]-CA--CB-[CG] |==|  0.73823
USER: genes 13 Torsion [CA]-CB--CG-[ND1] |==|  0.89857
USER: genes 14 Torsion [N]-CA--C-[O] |==|  0.96338
ROOT
ATOM      1  CA  TRP G 420     -37.717 -28.375  29.806  1.00 30.19 LIG 0.18  C 
ENDROOT
BRANCH 1 2
ATOM      2  N   TRP G 420     -37.552 -29.119  31.054  1.00 29.90 LIG-0.35  N 
ATOM      3 H    TRP G 420     -38.055 -28.844  31.694  1.00 29.90 LIG 0.16  HD
ATOM      4  C   SER G 419     -36.691 -30.138  31.176  1.00 34.18 LIG 0.24  C 
ATOM      5 O    SER G 419     -36.030 -30.576  30.237  1.00 34.33 LIG-0.27  OA
BRANCH 4 6
ATOM      6  CA  SER G 419     -36.540 -30.744  32.572  1.00 31.26 LIG 0.20  C 
BRANCH 6 7
ATOM      7  CB  SER G 419     -36.833 -32.243  32.512  1.00 37.91 LIG 0.20  C 
BRANCH 7 8
ATOM      8 OG   SER G 419     -36.285 -32.808  31.330  1.00 57.41 LIG-0.40  OA
ATOM      9 HG   SER G 419     -36.904 -33.125  30.858  1.00 57.41 LIG 0.21  HD
ENDBRANCH 7 8
ENDBRANCH 6 7
BRANCH 6 10
ATOM     10  N   SER G 419     -37.399 -30.079  33.553  1.00 31.62 LIG-0.34  N 
ATOM     11 H    SER G 419     -38.196 -30.396  33.609  1.00 31.62 LIG 0.16  HD
ATOM     12  C   GLY G 418     -36.935 -29.055  34.290  1.00 37.47 LIG 0.25  C 
ATOM     13 O    GLY G 418     -35.790 -28.623  34.162  1.00 34.17 LIG-0.27  OA
BRANCH 12 14
ATOM     14  CA  GLY G 418     -37.885 -28.396  35.267  1.00 40.24 LIG 0.47  C 
ATOM     15  N   GLY G 418     -37.272 -28.009  36.533  1.00 42.39 LIG 0.61  N 
ENDBRANCH 12 14
ENDBRANCH 6 10
ENDBRANCH 4 6
ENDBRANCH 1 2
BRANCH 1 16
ATOM     16  CB  TRP G 420     -36.360 -28.061  29.183  1.00 27.27 LIG 0.07  C 
BRANCH 16 17
ATOM     17  CG  TRP G 420     -36.423 -27.386  27.846  1.00 26.68 LIG-0.03  A 
ATOM     18  CD1 TRP G 420     -36.494 -27.982  26.625  1.00 29.02 LIG 0.10  A 
ATOM     19  NE1 TRP G 420     -36.421 -27.034  25.629  1.00 28.83 LIG-0.36  N 
ATOM     20 HE1  TRP G 420     -36.408 -27.196  24.784  1.00 28.83 LIG 0.17  HD
ATOM     21  CE2 TRP G 420     -36.371 -25.790  26.203  1.00 29.48 LIG 0.04  A 
ATOM     22  CD2 TRP G 420     -36.359 -25.976  27.604  1.00 26.13 LIG-0.00  A 
ATOM     23  CZ2 TRP G 420     -36.294 -24.521  25.616  1.00 28.18 LIG 0.03  A 
ATOM     24  CE3 TRP G 420     -36.273 -24.849  28.439  1.00 26.84 LIG 0.01  A 
ATOM     25  CZ3 TRP G 420     -36.215 -23.588  27.853  1.00 27.14 LIG 0.00  A 
ATOM     26  CH2 TRP G 420     -36.221 -23.439  26.463  1.00 27.58 LIG 0.00  A 
ENDBRANCH 16 17
ENDBRANCH 1 16
BRANCH 1 27
ATOM     27  C   TRP G 420     -38.557 -29.203  28.841  1.00 38.21 LIG 0.24  C 
ATOM     28 O    TRP G 420     -39.344 -28.635  28.091  1.00 38.32 LIG-0.27  OA
ATOM     29  N   HIS G 421     -38.346 -30.531  28.818  1.00 36.18 LIG-0.35  N 
ATOM     30 H    HIS G 421     -37.779 -30.924  29.330  1.00 36.18 LIG 0.16  HD
BRANCH 29 31
ATOM     31  CA  HIS G 421     -39.057 -31.445  27.922  1.00 85.07 LIG 0.17  C 
BRANCH 31 32
ATOM     32  CB  HIS G 421     -38.415 -31.447  26.527  1.00 86.25 LIG 0.09  C 
BRANCH 32 33
ATOM     33  CG  HIS G 421     -39.067 -30.493  25.574  1.00 90.14 LIG 0.06  A 
ATOM     34 ND1  HIS G 421     -40.436 -30.278  25.591  1.00 92.13 LIG-0.24  NA
ATOM     35  CE1 HIS G 421     -40.668 -29.383  24.643  1.00 91.61 LIG 0.23  A 
ATOM     36 NE2  HIS G 421     -39.540 -29.009  24.033  1.00 91.87 LIG-0.25  NA
ATOM     37  CD2 HIS G 421     -38.513 -29.713  24.617  1.00 92.02 LIG 0.14  A 
ENDBRANCH 32 33
ENDBRANCH 31 32
BRANCH 31 38
ATOM     38  C   HIS G 421     -39.122 -32.854  28.486  1.00112.71 LIG 0.22  C 
ATOM     39 O    HIS G 421     -38.412 -33.160  29.441  1.00 75.09 LIG-0.29  OA
ENDBRANCH 31 38
ENDBRANCH 29 31
ENDBRANCH 1 27
TORSDOF 13
ENDMDL
MODEL 16
USER: ADFR SOLUTION from run 182
USER: SCORE 10.212611 LL:  -1.803 LR:  -9.299 RR:   0.000 FEB:  -5.421
USER: RMSD 3.170132
USER: SEED 181
USER: STATUS no improvement in best in 12 clusters for 5 generations
USER: GENES 15
USER: genes 0 Translation |==|  0.52113 0.50320 0.45860
USER: genes 1 Rotation |==|  0.42716 0.39958 0.57855 0.97795
USER: genes 2 Torsion [CB]-CA--N-[C] |==|  0.18494
USER: genes 3 Torsion [N]-C--CA-[N] |==|  0.42665
USER: genes 4 Torsion [C]-CA--CB-[OG] |==|  0.72421
USER: genes 5 Torsion [CA]-CB--OG-[HG] |==|  0.34650
USER: genes 6 Torsion [C]-CA--N-[C] |==|  0.75557
USER: genes 7 Torsion [N]-C--CA-[N] |==|  0.29016
USER: genes 8 Torsion [N]-CA--CB-[CG] |==|  0.50189
USER: genes 9 Torsion [CA]-CB--CG-[CD1] |==|  0.76949
USER: genes 10 Torsion [N]-CA--C-[N] |==|  0.94458
USER: genes 11 Torsion [C]-N--CA-[C] |==|  0.84706
USER: genes 12 Torsion [N]-CA--CB-[CG] |==|  0.83140
USER: genes 13 Torsion [CA]-CB--CG-[ND1] |==|  0.10692
USER: genes 14 Torsion [N]-CA--C-[O] |==|  0.95924
ROOT
ATOM      1  CA  TRP G 420     -38.489 -28.200  29.852  1.00 30.19 LIG 0.18  C 
ENDROOT
BRANCH 1 2
ATOM      2  N   TRP G 420     -38.616 -28.667  31.232  1.00 29.90 LIG-0.35  N 
ATOM      3 H    TRP G 420     -38.828 -29.497  31.303  1.00 29.90 LIG 0.16  HD
ATOM      4  C   SER G 419     -38.417 -27.862  32.284  1.00 34.18 LIG 0.24  C 
ATOM      5 O    SER G 419     -38.040 -26.697  32.179  1.00 34.33 LIG-0.27  OA
BRANCH 4 6
ATOM      6  CA  SER G 419     -38.701 -28.457  33.665  1.00 31.26 LIG 0.20  C 
BRANCH 6 7
ATOM      7  CB  SER G 419     -40.197 -28.365  33.962  1.00 37.91 LIG 0.20  C 
BRANCH 7 8
ATOM      8 OG   SER G 419     -40.471 -27.248  34.795  1.00 57.41 LIG-0.40  OA
ATOM      9 HG   SER G 419     -41.045 -26.758  34.428  1.00 57.41 LIG 0.21  HD
ENDBRANCH 7 8
ENDBRANCH 6 7
BRANCH 6 10
ATOM     10  N   SER G 419     -37.916 -27.806  34.714  1.00 31.62 LIG-0.34  N 
ATOM     11 H    SER G 419     -38.305 -27.142  35.097  1.00 31.62 LIG 0.16  HD
ATOM     12  C   GLY G 418     -36.683 -28.245  35.021  1.00 37.47 LIG 0.25  C 
ATOM     13 O    GLY G 418     -36.158 -29.188  34.431  1.00 34.17 LIG-0.27  OA
BRANCH 12 14
ATOM     14  CA  GLY G 418     -35.915 -27.508  36.098  1.00 40.24 LIG 0.47  C 
ATOM     15  N   GLY G 418     -35.855 -28.206  37.378  1.00 42.39 LIG 0.61  N 
ENDBRANCH 12 14
ENDBRANCH 6 10
ENDBRANCH 4 6
ENDBRANCH 1 2
BRANCH 1 16
ATOM     16  CB  TRP G 420     -37.041 -27.833  29.539  1.00 27.27 LIG 0.07  C 
BRANCH 16 17
ATOM     17  CG  TRP G 420     -36.809 -27.326  28.147  1.00 26.68 LIG-0.03  A 
ATOM     18  CD1 TRP G 420     -36.627 -28.067  27.020  1.00 29.02 LIG 0.10  A 
ATOM     19  NE1 TRP G 420     -36.329 -27.246  25.956  1.00 28.83 LIG-0.36  N 
ATOM     20 HE1  TRP G 420     -36.140 -27.509  25.159  1.00 28.83 LIG 0.17  HD
ATOM     21  CE2 TRP G 420     -36.384 -25.941  26.373  1.00 29.48 LIG 0.04  A 
ATOM     22  CD2 TRP G 420     -36.674 -25.955  27.756  1.00 26.13 LIG-0.00  A 
ATOM     23  CZ2 TRP G 420     -36.165 -24.751  25.666  1.00 28.18 LIG 0.03  A 
ATOM     24  CE3 TRP G 420     -36.750 -24.734  28.448  1.00 26.84 LIG 0.01  A 
ATOM     25  CZ3 TRP G 420     -36.550 -23.554  27.739  1.00 27.14 LIG 0.00  A 
ATOM     26  CH2 TRP G 420     -36.258 -23.574  26.373  1.00 27.58 LIG 0.00  A 
ENDBRANCH 16 17
ENDBRANCH 1 16
BRANCH 1 27
ATOM     27  C   TRP G 420     -38.966 -29.299  28.911  1.00 38.21 LIG 0.24  C 
ATOM     28 O    TRP G 420     -39.239 -29.018  27.749  1.00 38.32 LIG-0.27  OA
ATOM     29  N   HIS G 421     -39.007 -30.554  29.393  1.00 36.18 LIG-0.35  N 
ATOM     30 H    HIS G 421     -38.794 -30.752  30.202  1.00 36.18 LIG 0.16  HD
BRANCH 29 31
ATOM     31  CA  HIS G 421     -39.414 -31.712  28.594  1.00 85.07 LIG 0.17  C 
BRANCH 31 32
ATOM     32  CB  HIS G 421     -39.376 -32.994  29.438  1.00 86.25 LIG 0.09  C 
BRANCH 32 33
ATOM     33  CG  HIS G 421     -38.013 -33.310  29.972  1.00 90.14 LIG 0.06  A 
ATOM     34 ND1  HIS G 421     -37.164 -32.311  30.422  1.00 92.13 LIG-0.24  NA
ATOM     35  CE1 HIS G 421     -36.066 -32.932  30.827  1.00 91.61 LIG 0.23  A 
ATOM     36 NE2  HIS G 421     -36.165 -34.255  30.674  1.00 91.87 LIG-0.25  NA
ATOM     37  CD2 HIS G 421     -37.401 -34.508  30.126  1.00 92.02 LIG 0.14  A 
ENDBRANCH 32 33
ENDBRANCH 31 32
BRANCH 31 38
ATOM     38  C   HIS G 421     -40.789 -31.516  27.976  1.00112.71 LIG 0.22  C 
ATOM     39 O    HIS G 421     -41.518 -30.616  28.385  1.00 75.09 LIG-0.29  OA
ENDBRANCH 31 38
ENDBRANCH 29 31
ENDBRANCH 1 27
TORSDOF 13
ENDMDL
MODEL 17
USER: ADFR SOLUTION from run 35
USER: SCORE 10.781059 LL:  -2.253 LR:  -9.288 RR:   0.000 FEB:  -5.410
USER: RMSD 2.432952
USER: SEED 34
USER: STATUS searching
USER: GENES 15
USER: genes 0 Translation |==|  0.53241 0.50769 0.45824
USER: genes 1 Rotation |==|  0.43736 0.42380 0.54997 0.98762
USER: genes 2 Torsion [CB]-CA--N-[C] |==|  0.20897
USER: genes 3 Torsion [N]-C--CA-[N] |==|  0.87794
USER: genes 4 Torsion [C]-CA--CB-[OG] |==|  0.23216
USER: genes 5 Torsion [CA]-CB--OG-[HG] |==|  0.55148
USER: genes 6 Torsion [C]-CA--N-[C] |==|  0.79105
USER: genes 7 Torsion [N]-C--CA-[N] |==|  0.55045
USER: genes 8 Torsion [N]-CA--CB-[CG] |==|  0.49840
USER: genes 9 Torsion [CA]-CB--CG-[CD1] |==|  0.75001
USER: genes 10 Torsion [N]-CA--C-[N] |==|  0.84343
USER: genes 11 Torsion [C]-N--CA-[C] |==|  0.58505
USER: genes 12 Torsion [N]-CA--CB-[CG] |==|  0.75420
USER: genes 13 Torsion [CA]-CB--CG-[ND1] |==|  0.90775
USER: genes 14 Torsion [N]-CA--C-[O] |==|  0.96438
ROOT
ATOM      1  CA  TRP G 420     -38.328 -28.120  29.845  1.00 30.19 LIG 0.18  C 
ENDROOT
BRANCH 1 2
ATOM      2  N   TRP G 420     -38.391 -28.646  31.207  1.00 29.90 LIG-0.35  N 
ATOM      3 H    TRP G 420     -38.585 -29.483  31.250  1.00 29.90 LIG 0.16  HD
ATOM      4  C   SER G 419     -38.167 -27.883  32.284  1.00 34.18 LIG 0.24  C 
ATOM      5 O    SER G 419     -37.817 -26.706  32.215  1.00 34.33 LIG-0.27  OA
BRANCH 4 6
ATOM      6  CA  SER G 419     -38.385 -28.542  33.648  1.00 31.26 LIG 0.20  C 
BRANCH 6 7
ATOM      7  CB  SER G 419     -37.170 -29.400  34.000  1.00 37.91 LIG 0.20  C 
BRANCH 7 8
ATOM      8 OG   SER G 419     -36.148 -28.600  34.578  1.00 57.41 LIG-0.40  OA
ATOM      9 HG   SER G 419     -35.415 -29.008  34.534  1.00 57.41 LIG 0.21  HD
ENDBRANCH 7 8
ENDBRANCH 6 7
BRANCH 6 10
ATOM     10  N   SER G 419     -39.615 -29.333  33.683  1.00 31.62 LIG-0.34  N 
ATOM     11 H    SER G 419     -39.499 -30.183  33.649  1.00 31.62 LIG 0.16  HD
ATOM     12  C   GLY G 418     -40.816 -28.732  33.763  1.00 37.47 LIG 0.25  C 
ATOM     13 O    GLY G 418     -40.934 -27.508  33.789  1.00 34.17 LIG-0.27  OA
BRANCH 12 14
ATOM     14  CA  GLY G 418     -42.050 -29.609  33.768  1.00 40.24 LIG 0.47  C 
ATOM     15  N   GLY G 418     -43.286 -28.909  33.439  1.00 42.39 LIG 0.61  N 
ENDBRANCH 12 14
ENDBRANCH 6 10
ENDBRANCH 4 6
ENDBRANCH 1 2
BRANCH 1 16
ATOM     16  CB  TRP G 420     -36.879 -27.909  29.415  1.00 27.27 LIG 0.07  C 
BRANCH 16 17
ATOM     17  CG  TRP G 420     -36.706 -27.381  28.022  1.00 26.68 LIG-0.03  A 
ATOM     18  CD1 TRP G 420     -36.576 -28.105  26.878  1.00 29.02 LIG 0.10  A 
ATOM     19  NE1 TRP G 420     -36.323 -27.269  25.813  1.00 28.83 LIG-0.36  N 
ATOM     20 HE1  TRP G 420     -36.170 -27.520  25.005  1.00 28.83 LIG 0.17  HD
ATOM     21  CE2 TRP G 420     -36.356 -25.971  26.252  1.00 29.48 LIG 0.04  A 
ATOM     22  CD2 TRP G 420     -36.585 -26.005  27.646  1.00 26.13 LIG-0.00  A 
ATOM     23  CZ2 TRP G 420     -36.165 -24.771  25.554  1.00 28.18 LIG 0.03  A 
ATOM     24  CE3 TRP G 420     -36.628 -24.794  28.359  1.00 26.84 LIG 0.01  A 
ATOM     25  CZ3 TRP G 420     -36.455 -23.604  27.660  1.00 27.14 LIG 0.00  A 
ATOM     26  CH2 TRP G 420     -36.224 -23.604  26.282  1.00 27.58 LIG 0.00  A 
ENDBRANCH 16 17
ENDBRANCH 1 16
BRANCH 1 27
ATOM     27  C   TRP G 420     -39.017 -29.098  28.901  1.00 38.21 LIG 0.24  C 
ATOM     28 O    TRP G 420     -39.906 -28.692  28.159  1.00 38.32 LIG-0.27  OA
ATOM     29  N   HIS G 421     -38.568 -30.365  28.886  1.00 36.18 LIG-0.35  N 
ATOM     30 H    HIS G 421     -37.930 -30.642  29.392  1.00 36.18 LIG 0.16  HD
BRANCH 29 31
ATOM     31  CA  HIS G 421     -39.113 -31.404  28.010  1.00 85.07 LIG 0.17  C 
BRANCH 31 32
ATOM     32  CB  HIS G 421     -38.415 -31.383  26.642  1.00 86.25 LIG 0.09  C 
BRANCH 32 33
ATOM     33  CG  HIS G 421     -39.067 -30.459  25.660  1.00 90.14 LIG 0.06  A 
ATOM     34 ND1  HIS G 421     -40.437 -30.250  25.665  1.00 92.13 LIG-0.24  NA
ATOM     35  CE1 HIS G 421     -40.669 -29.383  24.691  1.00 91.61 LIG 0.23  A 
ATOM     36 NE2  HIS G 421     -39.540 -29.021  24.076  1.00 91.87 LIG-0.25  NA
ATOM     37  CD2 HIS G 421     -38.512 -29.703  24.683  1.00 92.02 LIG 0.14  A 
ENDBRANCH 32 33
ENDBRANCH 31 32
BRANCH 31 38
ATOM     38  C   HIS G 421     -39.017 -32.783  28.641  1.00112.71 LIG 0.22  C 
ATOM     39 O    HIS G 421     -38.321 -32.948  29.640  1.00 75.09 LIG-0.29  OA
ENDBRANCH 31 38
ENDBRANCH 29 31
ENDBRANCH 1 27
TORSDOF 13
ENDMDL
MODEL 18
USER: ADFR SOLUTION from run 52
USER: SCORE 10.181814 LL:  -2.197 LR:  -9.250 RR:   0.000 FEB:  -5.372
USER: RMSD 1.655674
USER: SEED 51
USER: STATUS no improvement in best in 9 clusters for 5 generations
USER: GENES 15
USER: genes 0 Translation |==|  0.61973 0.51791 0.47156
USER: genes 1 Rotation |==|  0.50540 0.50199 0.52512 0.99934
USER: genes 2 Torsion [CB]-CA--N-[C] |==|  0.43081
USER: genes 3 Torsion [N]-C--CA-[N] |==|  0.41747
USER: genes 4 Torsion [C]-CA--CB-[OG] |==|  0.58696
USER: genes 5 Torsion [CA]-CB--OG-[HG] |==|  0.39659
USER: genes 6 Torsion [C]-CA--N-[C] |==|  0.80003
USER: genes 7 Torsion [N]-C--CA-[N] |==|  0.30299
USER: genes 8 Torsion [N]-CA--CB-[CG] |==|  0.45707
USER: genes 9 Torsion [CA]-CB--CG-[CD1] |==|  0.73534
USER: genes 10 Torsion [N]-CA--C-[N] |==|  0.90760
USER: genes 11 Torsion [C]-N--CA-[C] |==|  0.19281
USER: genes 12 Torsion [N]-CA--CB-[CG] |==|  0.39081
USER: genes 13 Torsion [CA]-CB--CG-[ND1] |==|  0.73543
USER: genes 14 Torsion [N]-CA--C-[O] |==|  0.86332
ROOT
ATOM      1  CA  TRP G 420     -37.084 -27.936  30.144  1.00 30.19 LIG 0.18  C 
ENDROOT
BRANCH 1 2
ATOM      2  N   TRP G 420     -36.799 -28.801  31.287  1.00 29.90 LIG-0.35  N 
ATOM      3 H    TRP G 420     -36.118 -29.315  31.176  1.00 29.90 LIG 0.16  HD
ATOM      4  C   SER G 419     -37.539 -28.785  32.404  1.00 34.18 LIG 0.24  C 
ATOM      5 O    SER G 419     -38.463 -27.996  32.588  1.00 34.33 LIG-0.27  OA
BRANCH 4 6
ATOM      6  CA  SER G 419     -37.194 -29.828  33.469  1.00 31.26 LIG 0.20  C 
BRANCH 6 7
ATOM      7  CB  SER G 419     -37.934 -31.131  33.165  1.00 37.91 LIG 0.20  C 
BRANCH 7 8
ATOM      8 OG   SER G 419     -38.243 -31.819  34.368  1.00 57.41 LIG-0.40  OA
ATOM      9 HG   SER G 419     -38.997 -32.182  34.298  1.00 57.41 LIG 0.21  HD
ENDBRANCH 7 8
ENDBRANCH 6 7
BRANCH 6 10
ATOM     10  N   SER G 419     -37.499 -29.353  34.819  1.00 31.62 LIG-0.34  N 
ATOM     11 H    SER G 419     -38.179 -29.726  35.188  1.00 31.62 LIG 0.16  HD
ATOM     12  C   GLY G 418     -36.745 -28.403  35.398  1.00 37.47 LIG 0.25  C 
ATOM     13 O    GLY G 418     -35.790 -27.883  34.822  1.00 34.17 LIG-0.27  OA
BRANCH 12 14
ATOM     14  CA  GLY G 418     -37.132 -27.938  36.786  1.00 40.24 LIG 0.47  C 
ATOM     15  N   GLY G 418     -36.217 -28.365  37.839  1.00 42.39 LIG 0.61  N 
ENDBRANCH 12 14
ENDBRANCH 6 10
ENDBRANCH 4 6
ENDBRANCH 1 2
BRANCH 1 16
ATOM     16  CB  TRP G 420     -35.822 -27.699  29.319  1.00 27.27 LIG 0.07  C 
BRANCH 16 17
ATOM     17  CG  TRP G 420     -36.062 -27.140  27.949  1.00 26.68 LIG-0.03  A 
ATOM     18  CD1 TRP G 420     -36.166 -27.833  26.783  1.00 29.02 LIG 0.10  A 
ATOM     19  NE1 TRP G 420     -36.272 -26.963  25.722  1.00 28.83 LIG-0.36  N 
ATOM     20 HE1  TRP G 420     -36.309 -27.188  24.892  1.00 28.83 LIG 0.17  HD
ATOM     21  CE2 TRP G 420     -36.308 -25.680  26.202  1.00 29.48 LIG 0.04  A 
ATOM     22  CD2 TRP G 420     -36.166 -25.753  27.605  1.00 26.13 LIG-0.00  A 
ATOM     23  CZ2 TRP G 420     -36.411 -24.458  25.523  1.00 28.18 LIG 0.03  A 
ATOM     24  CE3 TRP G 420     -36.132 -24.562  28.350  1.00 26.84 LIG 0.01  A 
ATOM     25  CZ3 TRP G 420     -36.254 -23.351  27.675  1.00 27.14 LIG 0.00  A 
ATOM     26  CH2 TRP G 420     -36.385 -23.312  26.284  1.00 27.58 LIG 0.00  A 
ENDBRANCH 16 17
ENDBRANCH 1 16
BRANCH 1 27
ATOM     27  C   TRP G 420     -38.158 -28.589  29.283  1.00 38.21 LIG 0.24  C 
ATOM     28 O    TRP G 420     -38.929 -27.880  28.645  1.00 38.32 LIG-0.27  OA
ATOM     29  N   HIS G 421     -38.167 -29.931  29.217  1.00 36.18 LIG-0.35  N 
ATOM     30 H    HIS G 421     -37.612 -30.426  29.649  1.00 36.18 LIG 0.16  HD
BRANCH 29 31
ATOM     31  CA  HIS G 421     -39.120 -30.692  28.406  1.00 85.07 LIG 0.17  C 
BRANCH 31 32
ATOM     32  CB  HIS G 421     -40.564 -30.303  28.755  1.00 86.25 LIG 0.09  C 
BRANCH 32 33
ATOM     33  CG  HIS G 421     -41.461 -30.224  27.558  1.00 90.14 LIG 0.06  A 
ATOM     34 ND1  HIS G 421     -41.701 -29.021  26.914  1.00 92.13 LIG-0.24  NA
ATOM     35  CE1 HIS G 421     -42.514 -29.310  25.909  1.00 91.61 LIG 0.23  A 
ATOM     36 NE2  HIS G 421     -42.796 -30.615  25.866  1.00 91.87 LIG-0.25  NA
ATOM     37  CD2 HIS G 421     -42.133 -31.207  26.915  1.00 92.02 LIG 0.14  A 
ENDBRANCH 32 33
ENDBRANCH 31 32
BRANCH 31 38
ATOM     38  C   HIS G 421     -38.862 -30.518  26.918  1.00112.71 LIG 0.22  C 
ATOM     39 O    HIS G 421     -38.720 -29.390  26.453  1.00 75.09 LIG-0.29  OA
ENDBRANCH 31 38
ENDBRANCH 29 31
ENDBRANCH 1 27
TORSDOF 13
ENDMDL
MODEL 19
USER: ADFR SOLUTION from run 81
USER: SCORE 10.581072 LL:  -2.328 LR:  -9.163 RR:   0.000 FEB:  -5.285
USER: RMSD 3.698148
USER: SEED 80
USER: STATUS no improvement in best in 15 clusters for 5 generations
USER: GENES 15
USER: genes 0 Translation |==|  0.54274 0.53586 0.46495
USER: genes 1 Rotation |==|  0.41088 0.41569 0.59409 0.97550
USER: genes 2 Torsion [CB]-CA--N-[C] |==|  0.87385
USER: genes 3 Torsion [N]-C--CA-[N] |==|  0.40461
USER: genes 4 Torsion [C]-CA--CB-[OG] |==|  0.59563
USER: genes 5 Torsion [CA]-CB--OG-[HG] |==|  0.17654
USER: genes 6 Torsion [C]-CA--N-[C] |==|  0.80645
USER: genes 7 Torsion [N]-C--CA-[N] |==|  0.47879
USER: genes 8 Torsion [N]-CA--CB-[CG] |==|  0.51027
USER: genes 9 Torsion [CA]-CB--CG-[CD1] |==|  0.77815
USER: genes 10 Torsion [N]-CA--C-[N] |==|  0.78333
USER: genes 11 Torsion [C]-N--CA-[C] |==|  0.08369
USER: genes 12 Torsion [N]-CA--CB-[CG] |==|  0.78671
USER: genes 13 Torsion [CA]-CB--CG-[ND1] |==|  0.13308
USER: genes 14 Torsion [N]-CA--C-[O] |==|  0.13289
ROOT
ATOM      1  CA  TRP G 420     -38.181 -27.612  29.995  1.00 30.19 LIG 0.18  C 
ENDROOT
BRANCH 1 2
ATOM      2  N   TRP G 420     -38.210 -27.961  31.415  1.00 29.90 LIG-0.35  N 
ATOM      3 H    TRP G 420     -38.866 -27.612  31.848  1.00 29.90 LIG 0.16  HD
ATOM      4  C   SER G 419     -37.291 -28.754  31.980  1.00 34.18 LIG 0.24  C 
ATOM      5 O    SER G 419     -36.399 -29.311  31.343  1.00 34.33 LIG-0.27  OA
BRANCH 4 6
ATOM      6  CA  SER G 419     -37.381 -28.934  33.497  1.00 31.26 LIG 0.20  C 
BRANCH 6 7
ATOM      7  CB  SER G 419     -36.531 -27.868  34.189  1.00 37.91 LIG 0.20  C 
BRANCH 7 8
ATOM      8 OG   SER G 419     -35.945 -28.391  35.372  1.00 57.41 LIG-0.40  OA
ATOM      9 HG   SER G 419     -35.418 -29.014  35.173  1.00 57.41 LIG 0.21  HD
ENDBRANCH 7 8
ENDBRANCH 6 7
BRANCH 6 10
ATOM     10  N   SER G 419     -36.979 -30.278  33.913  1.00 31.62 LIG-0.34  N 
ATOM     11 H    SER G 419     -36.236 -30.317  34.342  1.00 31.62 LIG 0.16  HD
ATOM     12  C   GLY G 418     -37.747 -31.344  33.624  1.00 37.47 LIG 0.25  C 
ATOM     13 O    GLY G 418     -38.796 -31.242  32.990  1.00 34.17 LIG-0.27  OA
BRANCH 12 14
ATOM     14  CA  GLY G 418     -37.259 -32.709  34.061  1.00 40.24 LIG 0.47  C 
ATOM     15  N   GLY G 418     -38.226 -33.783  33.866  1.00 42.39 LIG 0.61  N 
ENDBRANCH 12 14
ENDBRANCH 6 10
ENDBRANCH 4 6
ENDBRANCH 1 2
BRANCH 1 16
ATOM     16  CB  TRP G 420     -36.770 -27.222  29.565  1.00 27.27 LIG 0.07  C 
BRANCH 16 17
ATOM     17  CG  TRP G 420     -36.650 -26.763  28.143  1.00 26.68 LIG-0.03  A 
ATOM     18  CD1 TRP G 420     -36.588 -27.541  27.029  1.00 29.02 LIG 0.10  A 
ATOM     19  NE1 TRP G 420     -36.367 -26.760  25.917  1.00 28.83 LIG-0.36  N 
ATOM     20 HE1  TRP G 420     -36.256 -27.051  25.115  1.00 28.83 LIG 0.17  HD
ATOM     21  CE2 TRP G 420     -36.353 -25.442  26.295  1.00 29.48 LIG 0.04  A 
ATOM     22  CD2 TRP G 420     -36.518 -25.408  27.698  1.00 26.13 LIG-0.00  A 
ATOM     23  CZ2 TRP G 420     -36.169 -24.280  25.535  1.00 28.18 LIG 0.03  A 
ATOM     24  CE3 TRP G 420     -36.503 -24.165  28.355  1.00 26.84 LIG 0.01  A 
ATOM     25  CZ3 TRP G 420     -36.338 -23.012  27.595  1.00 27.14 LIG 0.00  A 
ATOM     26  CH2 TRP G 420     -36.170 -23.080  26.209  1.00 27.58 LIG 0.00  A 
ENDBRANCH 16 17
ENDBRANCH 1 16
BRANCH 1 27
ATOM     27  C   TRP G 420     -38.666 -28.806  29.181  1.00 38.21 LIG 0.24  C 
ATOM     28 O    TRP G 420     -39.790 -28.782  28.693  1.00 38.32 LIG-0.27  OA
ATOM     29  N   HIS G 421     -37.799 -29.815  28.985  1.00 36.18 LIG-0.35  N 
ATOM     30 H    HIS G 421     -37.004 -29.819  29.311  1.00 36.18 LIG 0.16  HD
BRANCH 29 31
ATOM     31  CA  HIS G 421     -38.117 -31.009  28.199  1.00 85.07 LIG 0.17  C 
BRANCH 31 32
ATOM     32  CB  HIS G 421     -38.634 -32.135  29.105  1.00 86.25 LIG 0.09  C 
BRANCH 32 33
ATOM     33  CG  HIS G 421     -37.546 -32.824  29.871  1.00 90.14 LIG 0.06  A 
ATOM     34 ND1  HIS G 421     -36.583 -32.106  30.561  1.00 92.13 LIG-0.24  NA
ATOM     35  CE1 HIS G 421     -35.797 -33.012  31.123  1.00 91.61 LIG 0.23  A 
ATOM     36 NE2  HIS G 421     -36.203 -34.254  30.845  1.00 91.87 LIG-0.25  NA
ATOM     37  CD2 HIS G 421     -37.315 -34.147  30.044  1.00 92.02 LIG 0.14  A 
ENDBRANCH 32 33
ENDBRANCH 31 32
BRANCH 31 38
ATOM     38  C   HIS G 421     -39.114 -30.709  27.092  1.00112.71 LIG 0.22  C 
ATOM     39 O    HIS G 421     -38.939 -29.736  26.362  1.00 75.09 LIG-0.29  OA
ENDBRANCH 31 38
ENDBRANCH 29 31
ENDBRANCH 1 27
TORSDOF 13
ENDMDL
MODEL 20
USER: ADFR SOLUTION from run 159
USER: SCORE 10.568011 LL:  -2.234 LR:  -9.082 RR:   0.000 FEB:  -5.204
USER: RMSD 2.995237
USER: SEED 158
USER: STATUS no improvement in best in 12 clusters for 5 generations
USER: GENES 15
USER: genes 0 Translation |==|  0.52188 0.51713 0.46104
USER: genes 1 Rotation |==|  0.43854 0.40858 0.56484 0.98339
USER: genes 2 Torsion [CB]-CA--N-[C] |==|  0.19784
USER: genes 3 Torsion [N]-C--CA-[N] |==|  0.42920
USER: genes 4 Torsion [C]-CA--CB-[OG] |==|  0.73982
USER: genes 5 Torsion [CA]-CB--OG-[HG] |==|  0.33612
USER: genes 6 Torsion [C]-CA--N-[C] |==|  0.73892
USER: genes 7 Torsion [N]-C--CA-[N] |==|  0.30720
USER: genes 8 Torsion [N]-CA--CB-[CG] |==|  0.48803
USER: genes 9 Torsion [CA]-CB--CG-[CD1] |==|  0.76521
USER: genes 10 Torsion [N]-CA--C-[N] |==|  0.83937
USER: genes 11 Torsion [C]-N--CA-[C] |==|  0.17870
USER: genes 12 Torsion [N]-CA--CB-[CG] |==|  0.92052
USER: genes 13 Torsion [CA]-CB--CG-[ND1] |==|  0.32059
USER: genes 14 Torsion [N]-CA--C-[O] |==|  0.89821
ROOT
ATOM      1  CA  TRP G 420     -38.478 -27.950  29.907  1.00 30.19 LIG 0.18  C 
ENDROOT
BRANCH 1 2
ATOM      2  N   TRP G 420     -38.579 -28.481  31.265  1.00 29.90 LIG-0.35  N 
ATOM      3 H    TRP G 420     -38.771 -29.319  31.300  1.00 29.90 LIG 0.16  HD
ATOM      4  C   SER G 419     -38.388 -27.721  32.351  1.00 34.18 LIG 0.24  C 
ATOM      5 O    SER G 419     -38.040 -26.543  32.296  1.00 34.33 LIG-0.27  OA
BRANCH 4 6
ATOM      6  CA  SER G 419     -38.643 -28.385  33.706  1.00 31.26 LIG 0.20  C 
BRANCH 6 7
ATOM      7  CB  SER G 419     -40.140 -28.363  34.011  1.00 37.91 LIG 0.20  C 
BRANCH 7 8
ATOM      8 OG   SER G 419     -40.473 -27.221  34.786  1.00 57.41 LIG-0.40  OA
ATOM      9 HG   SER G 419     -41.040 -26.758  34.374  1.00 57.41 LIG 0.21  HD
ENDBRANCH 7 8
ENDBRANCH 6 7
BRANCH 6 10
ATOM     10  N   SER G 419     -37.878 -27.749  34.780  1.00 31.62 LIG-0.34  N 
ATOM     11 H    SER G 419     -38.258 -27.067  35.138  1.00 31.62 LIG 0.16  HD
ATOM     12  C   GLY G 418     -36.677 -28.230  35.144  1.00 37.47 LIG 0.25  C 
ATOM     13 O    GLY G 418     -36.163 -29.200  34.588  1.00 34.17 LIG-0.27  OA
BRANCH 12 14
ATOM     14  CA  GLY G 418     -35.927 -27.508  36.244  1.00 40.24 LIG 0.47  C 
ATOM     15  N   GLY G 418     -35.828 -28.255  37.493  1.00 42.39 LIG 0.61  N 
ENDBRANCH 12 14
ENDBRANCH 6 10
ENDBRANCH 4 6
ENDBRANCH 1 2
BRANCH 1 16
ATOM     16  CB  TRP G 420     -37.026 -27.640  29.556  1.00 27.27 LIG 0.07  C 
BRANCH 16 17
ATOM     17  CG  TRP G 420     -36.803 -27.184  28.145  1.00 26.68 LIG-0.03  A 
ATOM     18  CD1 TRP G 420     -36.639 -27.965  27.044  1.00 29.02 LIG 0.10  A 
ATOM     19  NE1 TRP G 420     -36.346 -27.184  25.948  1.00 28.83 LIG-0.36  N 
ATOM     20 HE1  TRP G 420     -36.166 -27.476  25.159  1.00 28.83 LIG 0.17  HD
ATOM     21  CE2 TRP G 420     -36.386 -25.865  26.320  1.00 29.48 LIG 0.04  A 
ATOM     22  CD2 TRP G 420     -36.662 -25.829  27.705  1.00 26.13 LIG-0.00  A 
ATOM     23  CZ2 TRP G 420     -36.165 -24.702  25.570  1.00 28.18 LIG 0.03  A 
ATOM     24  CE3 TRP G 420     -36.722 -24.584  28.355  1.00 26.84 LIG 0.01  A 
ATOM     25  CZ3 TRP G 420     -36.520 -23.430  27.604  1.00 27.14 LIG 0.00  A 
ATOM     26  CH2 TRP G 420     -36.241 -23.500  26.236  1.00 27.58 LIG 0.00  A 
ENDBRANCH 16 17
ENDBRANCH 1 16
BRANCH 1 27
ATOM     27  C   TRP G 420     -39.047 -28.971  28.931  1.00 38.21 LIG 0.24  C 
ATOM     28 O    TRP G 420     -39.939 -28.633  28.159  1.00 38.32 LIG-0.27  OA
ATOM     29  N   HIS G 421     -38.492 -30.196  28.921  1.00 36.18 LIG-0.35  N 
ATOM     30 H    HIS G 421     -37.853 -30.424  29.449  1.00 36.18 LIG 0.16  HD
BRANCH 29 31
ATOM     31  CA  HIS G 421     -38.915 -31.266  28.017  1.00 85.07 LIG 0.17  C 
BRANCH 31 32
ATOM     32  CB  HIS G 421     -40.399 -31.604  28.230  1.00 86.25 LIG 0.09  C 
BRANCH 32 33
ATOM     33  CG  HIS G 421     -40.870 -31.339  29.626  1.00 90.14 LIG 0.06  A 
ATOM     34 ND1  HIS G 421     -41.829 -30.375  29.894  1.00 92.13 LIG-0.24  NA
ATOM     35  CE1 HIS G 421     -42.015 -30.411  31.205  1.00 91.61 LIG 0.23  A 
ATOM     36 NE2  HIS G 421     -41.248 -31.339  31.784  1.00 91.87 LIG-0.25  NA
ATOM     37  CD2 HIS G 421     -40.511 -31.934  30.787  1.00 92.02 LIG 0.14  A 
ENDBRANCH 32 33
ENDBRANCH 31 32
BRANCH 31 38
ATOM     38  C   HIS G 421     -38.647 -30.916  26.562  1.00112.71 LIG 0.22  C 
ATOM     39 O    HIS G 421     -38.791 -29.758  26.179  1.00 75.09 LIG-0.29  OA
ENDBRANCH 31 38
ENDBRANCH 29 31
ENDBRANCH 1 27
TORSDOF 13
ENDMDL
MODEL 21
USER: ADFR SOLUTION from run 101
USER: SCORE 10.027193 LL:  -2.114 LR:  -9.070 RR:   0.000 FEB:  -5.192
USER: RMSD 2.951566
USER: SEED 100
USER: STATUS no improvement in best in 21 clusters for 5 generations
USER: GENES 15
USER: genes 0 Translation |==|  0.57056 0.48507 0.43566
USER: genes 1 Rotation |==|  0.43170 0.40491 0.61394 0.97256
USER: genes 2 Torsion [CB]-CA--N-[C] |==|  0.20763
USER: genes 3 Torsion [N]-C--CA-[N] |==|  0.86480
USER: genes 4 Torsion [C]-CA--CB-[OG] |==|  0.34045
USER: genes 5 Torsion [CA]-CB--OG-[HG] |==|  0.94074
USER: genes 6 Torsion [C]-CA--N-[C] |==|  0.77794
USER: genes 7 Torsion [N]-C--CA-[N] |==|  0.30261
USER: genes 8 Torsion [N]-CA--CB-[CG] |==|  0.54667
USER: genes 9 Torsion [CA]-CB--CG-[CD1] |==|  0.75387
USER: genes 10 Torsion [N]-CA--C-[N] |==|  0.46368
USER: genes 11 Torsion [C]-N--CA-[C] |==|  0.53543
USER: genes 12 Torsion [N]-CA--CB-[CG] |==|  0.12809
USER: genes 13 Torsion [CA]-CB--CG-[ND1] |==|  0.26673
USER: genes 14 Torsion [N]-CA--C-[O] |==|  0.81935
ROOT
ATOM      1  CA  TRP G 420     -37.785 -28.527  29.336  1.00 30.19 LIG 0.18  C 
ENDROOT
BRANCH 1 2
ATOM      2  N   TRP G 420     -37.792 -28.978  30.727  1.00 29.90 LIG-0.35  N 
ATOM      3 H    TRP G 420     -37.772 -29.833  30.818  1.00 29.90 LIG 0.16  HD
ATOM      4  C   SER G 419     -37.828 -28.126  31.759  1.00 34.18 LIG 0.24  C 
ATOM      5 O    SER G 419     -37.780 -26.905  31.626  1.00 34.33 LIG-0.27  OA
BRANCH 4 6
ATOM      6  CA  SER G 419     -37.953 -28.744  33.154  1.00 31.26 LIG 0.20  C 
BRANCH 6 7
ATOM      7  CB  SER G 419     -36.612 -29.351  33.564  1.00 37.91 LIG 0.20  C 
BRANCH 7 8
ATOM      8 OG   SER G 419     -36.158 -28.777  34.782  1.00 57.41 LIG-0.40  OA
ATOM      9 HG   SER G 419     -36.534 -28.035  34.899  1.00 57.41 LIG 0.21  HD
ENDBRANCH 7 8
ENDBRANCH 6 7
BRANCH 6 10
ATOM     10  N   SER G 419     -39.023 -29.740  33.217  1.00 31.62 LIG-0.34  N 
ATOM     11 H    SER G 419     -38.760 -30.556  33.166  1.00 31.62 LIG 0.16  HD
ATOM     12  C   GLY G 418     -40.306 -29.361  33.347  1.00 37.47 LIG 0.25  C 
ATOM     13 O    GLY G 418     -40.638 -28.177  33.397  1.00 34.17 LIG-0.27  OA
BRANCH 12 14
ATOM     14  CA  GLY G 418     -41.366 -30.443  33.379  1.00 40.24 LIG 0.47  C 
ATOM     15  N   GLY G 418     -41.985 -30.637  34.685  1.00 42.39 LIG 0.61  N 
ENDBRANCH 12 14
ENDBRANCH 6 10
ENDBRANCH 4 6
ENDBRANCH 1 2
BRANCH 1 16
ATOM     16  CB  TRP G 420     -36.415 -27.969  28.959  1.00 27.27 LIG 0.07  C 
BRANCH 16 17
ATOM     17  CG  TRP G 420     -36.399 -27.130  27.716  1.00 26.68 LIG-0.03  A 
ATOM     18  CD1 TRP G 420     -36.219 -27.558  26.437  1.00 29.02 LIG 0.10  A 
ATOM     19  NE1 TRP G 420     -36.154 -26.480  25.582  1.00 28.83 LIG-0.36  N 
ATOM     20 HE1  TRP G 420     -36.006 -26.522  24.735  1.00 28.83 LIG 0.17  HD
ATOM     21  CE2 TRP G 420     -36.363 -25.331  26.299  1.00 29.48 LIG 0.04  A 
ATOM     22  CD2 TRP G 420     -36.511 -25.704  27.654  1.00 26.13 LIG-0.00  A 
ATOM     23  CZ2 TRP G 420     -36.396 -23.993  25.883  1.00 28.18 LIG 0.03  A 
ATOM     24  CE3 TRP G 420     -36.702 -24.701  28.620  1.00 26.84 LIG 0.01  A 
ATOM     25  CZ3 TRP G 420     -36.751 -23.375  28.201  1.00 27.14 LIG 0.00  A 
ATOM     26  CH2 TRP G 420     -36.595 -23.038  26.854  1.00 27.58 LIG 0.00  A 
ENDBRANCH 16 17
ENDBRANCH 1 16
BRANCH 1 27
ATOM     27  C   TRP G 420     -38.140 -29.700  28.432  1.00 38.21 LIG 0.24  C 
ATOM     28 O    TRP G 420     -38.189 -30.830  28.906  1.00 38.32 LIG-0.27  OA
ATOM     29  N   HIS G 421     -38.446 -29.425  27.152  1.00 36.18 LIG-0.35  N 
ATOM     30 H    HIS G 421     -38.431 -28.629  26.827  1.00 36.18 LIG 0.16  HD
BRANCH 29 31
ATOM     31  CA  HIS G 421     -38.835 -30.447  26.178  1.00 85.07 LIG 0.17  C 
BRANCH 31 32
ATOM     32  CB  HIS G 421     -40.214 -31.030  26.524  1.00 86.25 LIG 0.09  C 
BRANCH 32 33
ATOM     33  CG  HIS G 421     -41.231 -29.983  26.859  1.00 90.14 LIG 0.06  A 
ATOM     34 ND1  HIS G 421     -42.116 -29.504  25.907  1.00 92.13 LIG-0.24  NA
ATOM     35  CE1 HIS G 421     -42.868 -28.613  26.534  1.00 91.61 LIG 0.23  A 
ATOM     36 NE2  HIS G 421     -42.527 -28.501  27.821  1.00 91.87 LIG-0.25  NA
ATOM     37  CD2 HIS G 421     -41.481 -29.368  28.039  1.00 92.02 LIG 0.14  A 
ENDBRANCH 32 33
ENDBRANCH 31 32
BRANCH 31 38
ATOM     38  C   HIS G 421     -38.821 -29.909  24.757  1.00112.71 LIG 0.22  C 
ATOM     39 O    HIS G 421     -39.610 -29.025  24.433  1.00 75.09 LIG-0.29  OA
ENDBRANCH 31 38
ENDBRANCH 29 31
ENDBRANCH 1 27
TORSDOF 13
ENDMDL
MODEL 22
USER: ADFR SOLUTION from run 140
USER: SCORE 10.805897 LL:  -1.875 LR:  -9.007 RR:   0.000 FEB:  -5.129
USER: RMSD 3.435438
USER: SEED 139
USER: STATUS no improvement in best in 14 clusters for 5 generations
USER: GENES 15
USER: genes 0 Translation |==|  0.50752 0.50559 0.43762
USER: genes 1 Rotation |==|  0.40853 0.46581 0.46773 0.98931
USER: genes 2 Torsion [CB]-CA--N-[C] |==|  0.14797
USER: genes 3 Torsion [N]-C--CA-[N] |==|  0.99448
USER: genes 4 Torsion [C]-CA--CB-[OG] |==|  0.28936
USER: genes 5 Torsion [CA]-CB--OG-[HG] |==|  0.53452
USER: genes 6 Torsion [C]-CA--N-[C] |==|  0.73754
USER: genes 7 Torsion [N]-C--CA-[N] |==|  0.52789
USER: genes 8 Torsion [N]-CA--CB-[CG] |==|  0.56168
USER: genes 9 Torsion [CA]-CB--CG-[CD1] |==|  0.64924
USER: genes 10 Torsion [N]-CA--C-[N] |==|  0.11408
USER: genes 11 Torsion [C]-N--CA-[C] |==|  0.18161
USER: genes 12 Torsion [N]-CA--CB-[CG] |==|  0.77531
USER: genes 13 Torsion [CA]-CB--CG-[ND1] |==|  0.50170
USER: genes 14 Torsion [N]-CA--C-[O] |==|  0.07544
ROOT
ATOM      1  CA  TRP G 420     -38.683 -28.157  29.380  1.00 30.19 LIG 0.18  C 
ENDROOT
BRANCH 1 2
ATOM      2  N   TRP G 420     -38.756 -28.548  30.787  1.00 29.90 LIG-0.35  N 
ATOM      3 H    TRP G 420     -39.430 -29.047  30.977  1.00 29.90 LIG 0.16  HD
ATOM      4  C   SER G 419     -37.848 -28.158  31.691  1.00 34.18 LIG 0.24  C 
ATOM      5 O    SER G 419     -36.846 -27.508  31.400  1.00 34.33 LIG-0.27  OA
BRANCH 4 6
ATOM      6  CA  SER G 419     -38.119 -28.545  33.146  1.00 31.26 LIG 0.20  C 
BRANCH 6 7
ATOM      7  CB  SER G 419     -36.954 -29.380  33.677  1.00 37.91 LIG 0.20  C 
BRANCH 7 8
ATOM      8 OG   SER G 419     -36.134 -28.600  34.534  1.00 57.41 LIG-0.40  OA
ATOM      9 HG   SER G 419     -35.415 -29.008  34.682  1.00 57.41 LIG 0.21  HD
ENDBRANCH 7 8
ENDBRANCH 6 7
BRANCH 6 10
ATOM     10  N   SER G 419     -39.388 -29.258  33.295  1.00 31.62 LIG-0.34  N 
ATOM     11 H    SER G 419     -39.345 -30.105  33.160  1.00 31.62 LIG 0.16  HD
ATOM     12  C   GLY G 418     -40.513 -28.596  33.620  1.00 37.47 LIG 0.25  C 
ATOM     13 O    GLY G 418     -40.531 -27.377  33.785  1.00 34.17 LIG-0.27  OA
BRANCH 12 14
ATOM     14  CA  GLY G 418     -41.797 -29.391  33.732  1.00 40.24 LIG 0.47  C 
ATOM     15  N   GLY G 418     -42.999 -28.576  33.859  1.00 42.39 LIG 0.61  N 
ENDBRANCH 12 14
ENDBRANCH 6 10
ENDBRANCH 4 6
ENDBRANCH 1 2
BRANCH 1 16
ATOM     16  CB  TRP G 420     -37.317 -28.503  28.795  1.00 27.27 LIG 0.07  C 
BRANCH 16 17
ATOM     17  CG  TRP G 420     -36.935 -27.715  27.579  1.00 26.68 LIG-0.03  A 
ATOM     18  CD1 TRP G 420     -36.540 -28.203  26.372  1.00 29.02 LIG 0.10  A 
ATOM     19  NE1 TRP G 420     -36.166 -27.169  25.542  1.00 28.83 LIG-0.36  N 
ATOM     20 HE1  TRP G 420     -35.847 -27.256  24.748  1.00 28.83 LIG 0.17  HD
ATOM     21  CE2 TRP G 420     -36.383 -25.980  26.189  1.00 29.48 LIG 0.04  A 
ATOM     22  CD2 TRP G 420     -36.859 -26.288  27.483  1.00 26.13 LIG-0.00  A 
ATOM     23  CZ2 TRP G 420     -36.165 -24.663  25.765  1.00 28.18 LIG 0.03  A 
ATOM     24  CE3 TRP G 420     -37.129 -25.237  28.377  1.00 26.84 LIG 0.01  A 
ATOM     25  CZ3 TRP G 420     -36.928 -23.929  27.947  1.00 27.14 LIG 0.00  A 
ATOM     26  CH2 TRP G 420     -36.449 -23.658  26.662  1.00 27.58 LIG 0.00  A 
ENDBRANCH 16 17
ENDBRANCH 1 16
BRANCH 1 27
ATOM     27  C   TRP G 420     -39.781 -28.876  28.607  1.00 38.21 LIG 0.24  C 
ATOM     28 O    TRP G 420     -39.518 -29.383  27.522  1.00 38.32 LIG-0.27  OA
ATOM     29  N   HIS G 421     -40.988 -28.973  29.191  1.00 36.18 LIG-0.35  N 
ATOM     30 H    HIS G 421     -41.164 -28.635  29.962  1.00 36.18 LIG 0.16  HD
BRANCH 29 31
ATOM     31  CA  HIS G 421     -42.127 -29.662  28.580  1.00 85.07 LIG 0.17  C 
BRANCH 31 32
ATOM     32  CB  HIS G 421     -42.473 -29.038  27.219  1.00 86.25 LIG 0.09  C 
BRANCH 32 33
ATOM     33  CG  HIS G 421     -43.295 -27.791  27.333  1.00 90.14 LIG 0.06  A 
ATOM     34 ND1  HIS G 421     -43.713 -27.097  26.210  1.00 92.13 LIG-0.24  NA
ATOM     35  CE1 HIS G 421     -44.415 -26.071  26.666  1.00 91.61 LIG 0.23  A 
ATOM     36 NE2  HIS G 421     -44.479 -26.073  28.000  1.00 91.87 LIG-0.25  NA
ATOM     37  CD2 HIS G 421     -43.765 -27.164  28.437  1.00 92.02 LIG 0.14  A 
ENDBRANCH 32 33
ENDBRANCH 31 32
BRANCH 31 38
ATOM     38  C   HIS G 421     -41.876 -31.154  28.438  1.00112.71 LIG 0.22  C 
ATOM     39 O    HIS G 421     -41.109 -31.718  29.215  1.00 75.09 LIG-0.29  OA
ENDBRANCH 31 38
ENDBRANCH 29 31
ENDBRANCH 1 27
TORSDOF 13
ENDMDL
MODEL 23
USER: ADFR SOLUTION from run 60
USER: SCORE 10.593984 LL:  -2.833 LR:  -8.990 RR:   0.000 FEB:  -5.112
USER: RMSD 2.479489
USER: SEED 59
USER: STATUS no improvement in best in 8 clusters for 5 generations
USER: GENES 15
USER: genes 0 Translation |==|  0.58987 0.51106 0.46413
USER: genes 1 Rotation |==|  0.48013 0.47101 0.54475 0.99675
USER: genes 2 Torsion [CB]-CA--N-[C] |==|  0.39487
USER: genes 3 Torsion [N]-C--CA-[N] |==|  0.97219
USER: genes 4 Torsion [C]-CA--CB-[OG] |==|  0.76269
USER: genes 5 Torsion [CA]-CB--OG-[HG] |==|  0.65428
USER: genes 6 Torsion [C]-CA--N-[C] |==|  0.79949
USER: genes 7 Torsion [N]-C--CA-[N] |==|  0.44134
USER: genes 8 Torsion [N]-CA--CB-[CG] |==|  0.47867
USER: genes 9 Torsion [CA]-CB--CG-[CD1] |==|  0.75097
USER: genes 10 Torsion [N]-CA--C-[N] |==|  0.90214
USER: genes 11 Torsion [C]-N--CA-[C] |==|  0.57531
USER: genes 12 Torsion [N]-CA--CB-[CG] |==|  0.72360
USER: genes 13 Torsion [CA]-CB--CG-[ND1] |==|  0.90045
USER: genes 14 Torsion [N]-CA--C-[O] |==|  0.86941
ROOT
ATOM      1  CA  TRP G 420     -37.509 -28.059  29.977  1.00 30.19 LIG 0.18  C 
ENDROOT
BRANCH 1 2
ATOM      2  N   TRP G 420     -37.317 -28.792  31.227  1.00 29.90 LIG-0.35  N 
ATOM      3 H    TRP G 420     -36.696 -29.386  31.193  1.00 29.90 LIG 0.16  HD
ATOM      4  C   SER G 419     -38.050 -28.551  32.322  1.00 34.18 LIG 0.24  C 
ATOM      5 O    SER G 419     -38.884 -27.651  32.389  1.00 34.33 LIG-0.27  OA
BRANCH 4 6
ATOM      6  CA  SER G 419     -37.819 -29.477  33.518  1.00 31.26 LIG 0.20  C 
BRANCH 6 7
ATOM      7  CB  SER G 419     -37.202 -28.680  34.667  1.00 37.91 LIG 0.20  C 
BRANCH 7 8
ATOM      8 OG   SER G 419     -35.790 -28.618  34.527  1.00 57.41 LIG-0.40  OA
ATOM      9 HG   SER G 419     -35.425 -28.912  35.223  1.00 57.41 LIG 0.21  HD
ENDBRANCH 7 8
ENDBRANCH 6 7
BRANCH 6 10
ATOM     10  N   SER G 419     -36.984 -30.626  33.167  1.00 31.62 LIG-0.34  N 
ATOM     11 H    SER G 419     -36.186 -30.604  33.486  1.00 31.62 LIG 0.16  HD
ATOM     12  C   GLY G 418     -37.470 -31.619  32.402  1.00 37.47 LIG 0.25  C 
ATOM     13 O    GLY G 418     -38.615 -31.599  31.952  1.00 34.17 LIG-0.27  OA
BRANCH 12 14
ATOM     14  CA  GLY G 418     -36.545 -32.766  32.055  1.00 40.24 LIG 0.47  C 
ATOM     15  N   GLY G 418     -37.229 -33.993  31.663  1.00 42.39 LIG 0.61  N 
ENDBRANCH 12 14
ENDBRANCH 6 10
ENDBRANCH 4 6
ENDBRANCH 1 2
BRANCH 1 16
ATOM     16  CB  TRP G 420     -36.169 -27.791  29.298  1.00 27.27 LIG 0.07  C 
BRANCH 16 17
ATOM     17  CG  TRP G 420     -36.268 -27.205  27.922  1.00 26.68 LIG-0.03  A 
ATOM     18  CD1 TRP G 420     -36.344 -27.879  26.742  1.00 29.02 LIG 0.10  A 
ATOM     19  NE1 TRP G 420     -36.306 -26.995  25.687  1.00 28.83 LIG-0.36  N 
ATOM     20 HE1  TRP G 420     -36.303 -27.210  24.854  1.00 28.83 LIG 0.17  HD
ATOM     21  CE2 TRP G 420     -36.275 -25.716  26.181  1.00 29.48 LIG 0.04  A 
ATOM     22  CD2 TRP G 420     -36.238 -25.812  27.590  1.00 26.13 LIG-0.00  A 
ATOM     23  CZ2 TRP G 420     -36.234 -24.485  25.513  1.00 28.18 LIG 0.03  A 
ATOM     24  CE3 TRP G 420     -36.164 -24.632  28.351  1.00 26.84 LIG 0.01  A 
ATOM     25  CZ3 TRP G 420     -36.142 -23.411  27.684  1.00 27.14 LIG 0.00  A 
ATOM     26  CH2 TRP G 420     -36.172 -23.350  26.289  1.00 27.58 LIG 0.00  A 
ENDBRANCH 16 17
ENDBRANCH 1 16
BRANCH 1 27
ATOM     27  C   TRP G 420     -38.410 -28.874  29.056  1.00 38.21 LIG 0.24  C 
ATOM     28 O    TRP G 420     -39.165 -28.291  28.285  1.00 38.32 LIG-0.27  OA
ATOM     29  N   HIS G 421     -38.286 -30.212  29.094  1.00 36.18 LIG-0.35  N 
ATOM     30 H    HIS G 421     -37.740 -30.617  29.621  1.00 36.18 LIG 0.16  HD
BRANCH 29 31
ATOM     31  CA  HIS G 421     -39.062 -31.118  28.245  1.00 85.07 LIG 0.17  C 
BRANCH 31 32
ATOM     32  CB  HIS G 421     -38.414 -31.253  26.859  1.00 86.25 LIG 0.09  C 
BRANCH 32 33
ATOM     33  CG  HIS G 421     -39.067 -30.399  25.816  1.00 90.14 LIG 0.06  A 
ATOM     34 ND1  HIS G 421     -40.435 -30.177  25.816  1.00 92.13 LIG-0.24  NA
ATOM     35  CE1 HIS G 421     -40.667 -29.383  24.782  1.00 91.61 LIG 0.23  A 
ATOM     36 NE2  HIS G 421     -39.540 -29.078  24.134  1.00 91.87 LIG-0.25  NA
ATOM     37  CD2 HIS G 421     -38.513 -29.723  24.782  1.00 92.02 LIG 0.14  A 
ENDBRANCH 32 33
ENDBRANCH 31 32
BRANCH 31 38
ATOM     38  C   HIS G 421     -39.241 -32.482  28.890  1.00112.71 LIG 0.22  C 
ATOM     39 O    HIS G 421     -38.273 -33.052  29.387  1.00 75.09 LIG-0.29  OA
ENDBRANCH 31 38
ENDBRANCH 29 31
ENDBRANCH 1 27
TORSDOF 13
ENDMDL
MODEL 24
USER: ADFR SOLUTION from run 140
USER: SCORE 10.460271 LL:  -2.251 LR:  -8.962 RR:   0.000 FEB:  -5.084
USER: RMSD 2.907753
USER: SEED 139
USER: STATUS no improvement in best in 14 clusters for 5 generations
USER: GENES 15
USER: genes 0 Translation |==|  0.58252 0.50005 0.44754
USER: genes 1 Rotation |==|  0.48550 0.44730 0.55636 0.99380
USER: genes 2 Torsion [CB]-CA--N-[C] |==|  0.87427
USER: genes 3 Torsion [N]-C--CA-[N] |==|  0.99773
USER: genes 4 Torsion [C]-CA--CB-[OG] |==|  0.10150
USER: genes 5 Torsion [CA]-CB--OG-[HG] |==|  0.76922
USER: genes 6 Torsion [C]-CA--N-[C] |==|  0.73364
USER: genes 7 Torsion [N]-C--CA-[N] |==|  0.51760
USER: genes 8 Torsion [N]-CA--CB-[CG] |==|  0.49030
USER: genes 9 Torsion [CA]-CB--CG-[CD1] |==|  0.74397
USER: genes 10 Torsion [N]-CA--C-[N] |==|  0.81758
USER: genes 11 Torsion [C]-N--CA-[C] |==|  0.11849
USER: genes 12 Torsion [N]-CA--CB-[CG] |==|  0.74494
USER: genes 13 Torsion [CA]-CB--CG-[ND1] |==|  0.19901
USER: genes 14 Torsion [N]-CA--C-[O] |==|  0.12314
ROOT
ATOM      1  CA  TRP G 420     -37.614 -28.257  29.604  1.00 30.19 LIG 0.18  C 
ENDROOT
BRANCH 1 2
ATOM      2  N   TRP G 420     -37.497 -29.015  30.848  1.00 29.90 LIG-0.35  N 
ATOM      3 H    TRP G 420     -38.027 -28.750  31.471  1.00 29.90 LIG 0.16  HD
ATOM      4  C   SER G 419     -36.637 -30.031  30.993  1.00 34.18 LIG 0.24  C 
ATOM      5 O    SER G 419     -35.935 -30.456  30.077  1.00 34.33 LIG-0.27  OA
BRANCH 4 6
ATOM      6  CA  SER G 419     -36.540 -30.654  32.388  1.00 31.26 LIG 0.20  C 
BRANCH 6 7
ATOM      7  CB  SER G 419     -36.848 -32.148  32.301  1.00 37.91 LIG 0.20  C 
BRANCH 7 8
ATOM      8 OG   SER G 419     -36.327 -32.694  31.098  1.00 57.41 LIG-0.40  OA
ATOM      9 HG   SER G 419     -36.868 -32.555  30.470  1.00 57.41 LIG 0.21  HD
ENDBRANCH 7 8
ENDBRANCH 6 7
BRANCH 6 10
ATOM     10  N   SER G 419     -37.424 -29.989  33.346  1.00 31.62 LIG-0.34  N 
ATOM     11 H    SER G 419     -38.236 -30.270  33.343  1.00 31.62 LIG 0.16  HD
ATOM     12  C   GLY G 418     -36.958 -29.018  34.150  1.00 37.47 LIG 0.25  C 
ATOM     13 O    GLY G 418     -35.790 -28.634  34.105  1.00 34.17 LIG-0.27  OA
BRANCH 12 14
ATOM     14  CA  GLY G 418     -37.933 -28.354  35.099  1.00 40.24 LIG 0.47  C 
ATOM     15  N   GLY G 418     -37.382 -27.217  35.828  1.00 42.39 LIG 0.61  N 
ENDBRANCH 12 14
ENDBRANCH 6 10
ENDBRANCH 4 6
ENDBRANCH 1 2
BRANCH 1 16
ATOM     16  CB  TRP G 420     -36.234 -27.902  29.057  1.00 27.27 LIG 0.07  C 
BRANCH 16 17
ATOM     17  CG  TRP G 420     -36.244 -27.193  27.736  1.00 26.68 LIG-0.03  A 
ATOM     18  CD1 TRP G 420     -36.167 -27.754  26.499  1.00 29.02 LIG 0.10  A 
ATOM     19  NE1 TRP G 420     -36.091 -26.772  25.537  1.00 28.83 LIG-0.36  N 
ATOM     20 HE1  TRP G 420     -35.997 -26.905  24.692  1.00 28.83 LIG 0.17  HD
ATOM     21  CE2 TRP G 420     -36.191 -25.547  26.144  1.00 29.48 LIG 0.04  A 
ATOM     22  CD2 TRP G 420     -36.278 -25.775  27.536  1.00 26.13 LIG-0.00  A 
ATOM     23  CZ2 TRP G 420     -36.171 -24.257  25.598  1.00 28.18 LIG 0.03  A 
ATOM     24  CE3 TRP G 420     -36.352 -24.672  28.404  1.00 26.84 LIG 0.01  A 
ATOM     25  CZ3 TRP G 420     -36.351 -23.393  27.856  1.00 27.14 LIG 0.00  A 
ATOM     26  CH2 TRP G 420     -36.256 -23.200  26.475  1.00 27.58 LIG 0.00  A 
ENDBRANCH 16 17
ENDBRANCH 1 16
BRANCH 1 27
ATOM     27  C   TRP G 420     -38.383 -29.090  28.585  1.00 38.21 LIG 0.24  C 
ATOM     28 O    TRP G 420     -39.458 -28.678  28.162  1.00 38.32 LIG-0.27  OA
ATOM     29  N   HIS G 421     -37.806 -30.223  28.149  1.00 36.18 LIG-0.35  N 
ATOM     30 H    HIS G 421     -37.042 -30.498  28.432  1.00 36.18 LIG 0.16  HD
BRANCH 29 31
ATOM     31  CA  HIS G 421     -38.413 -31.104  27.150  1.00 85.07 LIG 0.17  C 
BRANCH 31 32
ATOM     32  CB  HIS G 421     -39.456 -32.027  27.800  1.00 86.25 LIG 0.09  C 
BRANCH 32 33
ATOM     33  CG  HIS G 421     -38.887 -33.338  28.246  1.00 90.14 LIG 0.06  A 
ATOM     34 ND1  HIS G 421     -38.042 -33.425  29.341  1.00 92.13 LIG-0.24  NA
ATOM     35  CE1 HIS G 421     -37.741 -34.709  29.459  1.00 91.61 LIG 0.23  A 
ATOM     36 NE2  HIS G 421     -38.345 -35.444  28.520  1.00 91.87 LIG-0.25  NA
ATOM     37  CD2 HIS G 421     -39.076 -34.579  27.739  1.00 92.02 LIG 0.14  A 
ENDBRANCH 32 33
ENDBRANCH 31 32
BRANCH 31 38
ATOM     38  C   HIS G 421     -39.031 -30.320  26.004  1.00112.71 LIG 0.22  C 
ATOM     39 O    HIS G 421     -38.414 -29.381  25.507  1.00 75.09 LIG-0.29  OA
ENDBRANCH 31 38
ENDBRANCH 29 31
ENDBRANCH 1 27
TORSDOF 13
ENDMDL
MODEL 25
USER: ADFR SOLUTION from run 119
USER: SCORE 9.829755 LL:  -1.987 LR:  -8.903 RR:   0.000 FEB:  -5.025
USER: RMSD 2.568430
USER: SEED 118
USER: STATUS no improvement in best in 17 clusters for 5 generations
USER: GENES 15
USER: genes 0 Translation |==|  0.56813 0.47720 0.42276
USER: genes 1 Rotation |==|  0.44977 0.36635 0.63192 0.96067
USER: genes 2 Torsion [CB]-CA--N-[C] |==|  0.18351
USER: genes 3 Torsion [N]-C--CA-[N] |==|  0.47222
USER: genes 4 Torsion [C]-CA--CB-[OG] |==|  0.72786
USER: genes 5 Torsion [CA]-CB--OG-[HG] |==|  0.14783
USER: genes 6 Torsion [C]-CA--N-[C] |==|  0.76157
USER: genes 7 Torsion [N]-C--CA-[N] |==|  0.29095
USER: genes 8 Torsion [N]-CA--CB-[CG] |==|  0.52926
USER: genes 9 Torsion [CA]-CB--CG-[CD1] |==|  0.78123
USER: genes 10 Torsion [N]-CA--C-[N] |==|  0.44027
USER: genes 11 Torsion [C]-N--CA-[C] |==|  0.52766
USER: genes 12 Torsion [N]-CA--CB-[CG] |==|  0.70370
USER: genes 13 Torsion [CA]-CB--CG-[ND1] |==|  0.86475
USER: genes 14 Torsion [N]-CA--C-[O] |==|  0.82543
ROOT
ATOM      1  CA  TRP G 420     -37.819 -28.668  29.046  1.00 30.19 LIG 0.18  C 
ENDROOT
BRANCH 1 2
ATOM      2  N   TRP G 420     -37.945 -29.241  30.385  1.00 29.90 LIG-0.35  N 
ATOM      3 H    TRP G 420     -37.953 -30.101  30.399  1.00 29.90 LIG 0.16  HD
ATOM      4  C   SER G 419     -38.039 -28.484  31.486  1.00 34.18 LIG 0.24  C 
ATOM      5 O    SER G 419     -37.951 -27.258  31.469  1.00 34.33 LIG-0.27  OA
BRANCH 4 6
ATOM      6  CA  SER G 419     -38.285 -29.220  32.805  1.00 31.26 LIG 0.20  C 
BRANCH 6 7
ATOM      7  CB  SER G 419     -39.671 -29.863  32.779  1.00 37.91 LIG 0.20  C 
BRANCH 7 8
ATOM      8 OG   SER G 419     -40.612 -29.043  33.455  1.00 57.41 LIG-0.40  OA
ATOM      9 HG   SER G 419     -40.586 -28.265  33.138  1.00 57.41 LIG 0.21  HD
ENDBRANCH 7 8
ENDBRANCH 6 7
BRANCH 6 10
ATOM     10  N   SER G 419     -38.138 -28.334  33.960  1.00 31.62 LIG-0.34  N 
ATOM     11 H    SER G 419     -38.869 -27.979  34.239  1.00 31.62 LIG 0.16  HD
ATOM     12  C   GLY G 418     -36.930 -28.121  34.512  1.00 37.47 LIG 0.25  C 
ATOM     13 O    GLY G 418     -35.906 -28.637  34.066  1.00 34.17 LIG-0.27  OA
BRANCH 12 14
ATOM     14  CA  GLY G 418     -36.845 -27.173  35.690  1.00 40.24 LIG 0.47  C 
ATOM     15  N   GLY G 418     -36.672 -27.831  36.980  1.00 42.39 LIG 0.61  N 
ENDBRANCH 12 14
ENDBRANCH 6 10
ENDBRANCH 4 6
ENDBRANCH 1 2
BRANCH 1 16
ATOM     16  CB  TRP G 420     -36.490 -27.934  28.897  1.00 27.27 LIG 0.07  C 
BRANCH 16 17
ATOM     17  CG  TRP G 420     -36.366 -27.104  27.654  1.00 26.68 LIG-0.03  A 
ATOM     18  CD1 TRP G 420     -36.089 -27.541  26.396  1.00 29.02 LIG 0.10  A 
ATOM     19  NE1 TRP G 420     -35.945 -26.470  25.543  1.00 28.83 LIG-0.36  N 
ATOM     20 HE1  TRP G 420     -35.731 -26.518  24.711  1.00 28.83 LIG 0.17  HD
ATOM     21  CE2 TRP G 420     -36.199 -25.314  26.235  1.00 29.48 LIG 0.04  A 
ATOM     22  CD2 TRP G 420     -36.458 -25.677  27.576  1.00 26.13 LIG-0.00  A 
ATOM     23  CZ2 TRP G 420     -36.185 -23.979  25.811  1.00 28.18 LIG 0.03  A 
ATOM     24  CE3 TRP G 420     -36.715 -24.666  28.518  1.00 26.84 LIG 0.01  A 
ATOM     25  CZ3 TRP G 420     -36.717 -23.342  28.089  1.00 27.14 LIG 0.00  A 
ATOM     26  CH2 TRP G 420     -36.450 -23.015  26.757  1.00 27.58 LIG 0.00  A 
ENDBRANCH 16 17
ENDBRANCH 1 16
BRANCH 1 27
ATOM     27  C   TRP G 420     -37.919 -29.787  28.016  1.00 38.21 LIG 0.24  C 
ATOM     28 O    TRP G 420     -37.737 -30.947  28.370  1.00 38.32 LIG-0.27  OA
ATOM     29  N   HIS G 421     -38.267 -29.446  26.763  1.00 36.18 LIG-0.35  N 
ATOM     30 H    HIS G 421     -38.415 -28.634  26.523  1.00 36.18 LIG 0.16  HD
BRANCH 29 31
ATOM     31  CA  HIS G 421     -38.431 -30.417  25.679  1.00 85.07 LIG 0.17  C 
BRANCH 31 32
ATOM     32  CB  HIS G 421     -39.620 -31.348  25.959  1.00 86.25 LIG 0.09  C 
BRANCH 32 33
ATOM     33  CG  HIS G 421     -39.206 -32.732  26.354  1.00 90.14 LIG 0.06  A 
ATOM     34 ND1  HIS G 421     -38.264 -33.440  25.626  1.00 92.13 LIG-0.24  NA
ATOM     35  CE1 HIS G 421     -38.130 -34.601  26.249  1.00 91.61 LIG 0.23  A 
ATOM     36 NE2  HIS G 421     -38.914 -34.673  27.328  1.00 91.87 LIG-0.25  NA
ATOM     37  CD2 HIS G 421     -39.608 -33.488  27.403  1.00 92.02 LIG 0.14  A 
ENDBRANCH 32 33
ENDBRANCH 31 32
BRANCH 31 38
ATOM     38  C   HIS G 421     -38.587 -29.736  24.329  1.00112.71 LIG 0.22  C 
ATOM     39 O    HIS G 421     -39.553 -29.005  24.125  1.00 75.09 LIG-0.29  OA
ENDBRANCH 31 38
ENDBRANCH 29 31
ENDBRANCH 1 27
TORSDOF 13
ENDMDL
MODEL 26
USER: ADFR SOLUTION from run 105
USER: SCORE 10.458674 LL:  -2.066 LR:  -8.870 RR:   0.000 FEB:  -4.992
USER: RMSD 3.767366
USER: SEED 104
USER: STATUS no improvement in best in 18 clusters for 5 generations
USER: GENES 15
USER: genes 0 Translation |==|  0.49806 0.51365 0.45704
USER: genes 1 Rotation |==|  0.42238 0.43654 0.48249 0.98953
USER: genes 2 Torsion [CB]-CA--N-[C] |==|  0.18887
USER: genes 3 Torsion [N]-C--CA-[N] |==|  0.48400
USER: genes 4 Torsion [C]-CA--CB-[OG] |==|  0.70848
USER: genes 5 Torsion [CA]-CB--OG-[HG] |==|  0.39392
USER: genes 6 Torsion [C]-CA--N-[C] |==|  0.78091
USER: genes 7 Torsion [N]-C--CA-[N] |==|  0.26083
USER: genes 8 Torsion [N]-CA--CB-[CG] |==|  0.52173
USER: genes 9 Torsion [CA]-CB--CG-[CD1] |==|  0.69828
USER: genes 10 Torsion [N]-CA--C-[N] |==|  0.11498
USER: genes 11 Torsion [C]-N--CA-[C] |==|  0.76859
USER: genes 12 Torsion [N]-CA--CB-[CG] |==|  0.11493
USER: genes 13 Torsion [CA]-CB--CG-[ND1] |==|  0.76328
USER: genes 14 Torsion [N]-CA--C-[O] |==|  0.79693
ROOT
ATOM      1  CA  TRP G 420     -38.818 -28.012  29.817  1.00 30.19 LIG 0.18  C 
ENDROOT
BRANCH 1 2
ATOM      2  N   TRP G 420     -39.005 -28.474  31.192  1.00 29.90 LIG-0.35  N 
ATOM      3 H    TRP G 420     -39.505 -29.170  31.262  1.00 29.90 LIG 0.16  HD
ATOM      4  C   SER G 419     -38.444 -27.858  32.240  1.00 34.18 LIG 0.24  C 
ATOM      5 O    SER G 419     -37.669 -26.910  32.129  1.00 34.33 LIG-0.27  OA
BRANCH 4 6
ATOM      6  CA  SER G 419     -38.824 -28.382  33.627  1.00 31.26 LIG 0.20  C 
BRANCH 6 7
ATOM      7  CB  SER G 419     -40.326 -28.199  33.846  1.00 37.91 LIG 0.20  C 
BRANCH 7 8
ATOM      8 OG   SER G 419     -40.570 -27.113  34.729  1.00 57.41 LIG-0.40  OA
ATOM      9 HG   SER G 419     -41.250 -26.691  34.472  1.00 57.41 LIG 0.21  HD
ENDBRANCH 7 8
ENDBRANCH 6 7
BRANCH 6 10
ATOM     10  N   SER G 419     -38.055 -27.731  34.687  1.00 31.62 LIG-0.34  N 
ATOM     11 H    SER G 419     -38.474 -27.110  35.109  1.00 31.62 LIG 0.16  HD
ATOM     12  C   GLY G 418     -36.790 -28.107  34.948  1.00 37.47 LIG 0.25  C 
ATOM     13 O    GLY G 418     -36.224 -28.989  34.303  1.00 34.17 LIG-0.27  OA
BRANCH 12 14
ATOM     14  CA  GLY G 418     -36.042 -27.373  36.041  1.00 40.24 LIG 0.47  C 
ATOM     15  N   GLY G 418     -36.117 -28.010  37.351  1.00 42.39 LIG 0.61  N 
ENDBRANCH 12 14
ENDBRANCH 6 10
ENDBRANCH 4 6
ENDBRANCH 1 2
BRANCH 1 16
ATOM     16  CB  TRP G 420     -37.373 -28.219  29.372  1.00 27.27 LIG 0.07  C 
BRANCH 16 17
ATOM     17  CG  TRP G 420     -37.031 -27.612  28.044  1.00 26.68 LIG-0.03  A 
ATOM     18  CD1 TRP G 420     -36.788 -28.267  26.877  1.00 29.02 LIG 0.10  A 
ATOM     19  NE1 TRP G 420     -36.397 -27.373  25.904  1.00 28.83 LIG-0.36  N 
ATOM     20 HE1  TRP G 420     -36.159 -27.578  25.104  1.00 28.83 LIG 0.17  HD
ATOM     21  CE2 TRP G 420     -36.450 -26.105  26.421  1.00 29.48 LIG 0.04  A 
ATOM     22  CD2 TRP G 420     -36.836 -26.219  27.775  1.00 26.13 LIG-0.00  A 
ATOM     23  CZ2 TRP G 420     -36.153 -24.870  25.829  1.00 28.18 LIG 0.03  A 
ATOM     24  CE3 TRP G 420     -36.932 -25.054  28.556  1.00 26.84 LIG 0.01  A 
ATOM     25  CZ3 TRP G 420     -36.654 -23.828  27.960  1.00 27.14 LIG 0.00  A 
ATOM     26  CH2 TRP G 420     -36.267 -23.749  26.620  1.00 27.58 LIG 0.00  A 
ENDBRANCH 16 17
ENDBRANCH 1 16
BRANCH 1 27
ATOM     27  C   TRP G 420     -39.763 -28.780  28.902  1.00 38.21 LIG 0.24  C 
ATOM     28 O    TRP G 420     -39.344 -29.217  27.836  1.00 38.32 LIG-0.27  OA
ATOM     29  N   HIS G 421     -41.015 -28.996  29.344  1.00 36.18 LIG-0.35  N 
ATOM     30 H    HIS G 421     -41.300 -28.706  30.102  1.00 36.18 LIG 0.16  HD
BRANCH 29 31
ATOM     31  CA  HIS G 421     -42.020 -29.743  28.587  1.00 85.07 LIG 0.17  C 
BRANCH 31 32
ATOM     32  CB  HIS G 421     -43.041 -30.394  29.532  1.00 86.25 LIG 0.09  C 
BRANCH 32 33
ATOM     33  CG  HIS G 421     -43.453 -29.501  30.661  1.00 90.14 LIG 0.06  A 
ATOM     34 ND1  HIS G 421     -42.712 -29.423  31.829  1.00 92.13 LIG-0.24  NA
ATOM     35  CE1 HIS G 421     -43.344 -28.547  32.595  1.00 91.61 LIG 0.23  A 
ATOM     36 NE2  HIS G 421     -44.428 -28.056  31.989  1.00 91.87 LIG-0.25  NA
ATOM     37  CD2 HIS G 421     -44.510 -28.659  30.756  1.00 92.02 LIG 0.14  A 
ENDBRANCH 32 33
ENDBRANCH 31 32
BRANCH 31 38
ATOM     38  C   HIS G 421     -42.721 -28.868  27.560  1.00112.71 LIG 0.22  C 
ATOM     39 O    HIS G 421     -43.536 -28.028  27.932  1.00 75.09 LIG-0.29  OA
ENDBRANCH 31 38
ENDBRANCH 29 31
ENDBRANCH 1 27
TORSDOF 13
ENDMDL
MODEL 27
USER: ADFR SOLUTION from run 2
USER: SCORE 10.215934 LL:  -2.691 LR:  -8.859 RR:   0.000 FEB:  -4.981
USER: RMSD 2.980509
USER: SEED 327137
USER: STATUS no improvement in best in 12 clusters for 5 generations
USER: GENES 15
USER: genes 0 Translation |==|  0.64168 0.50066 0.46104
USER: genes 1 Rotation |==|  0.54301 0.51696 0.54689 0.99564
USER: genes 2 Torsion [CB]-CA--N-[C] |==|  0.45374
USER: genes 3 Torsion [N]-C--CA-[N] |==|  0.45482
USER: genes 4 Torsion [C]-CA--CB-[OG] |==|  0.16796
USER: genes 5 Torsion [CA]-CB--OG-[HG] |==|  0.58022
USER: genes 6 Torsion [C]-CA--N-[C] |==|  0.80347
USER: genes 7 Torsion [N]-C--CA-[N] |==|  0.51203
USER: genes 8 Torsion [N]-CA--CB-[CG] |==|  0.45479
USER: genes 9 Torsion [CA]-CB--CG-[CD1] |==|  0.74511
USER: genes 10 Torsion [N]-CA--C-[N] |==|  0.91001
USER: genes 11 Torsion [C]-N--CA-[C] |==|  0.19625
USER: genes 12 Torsion [N]-CA--CB-[CG] |==|  0.88384
USER: genes 13 Torsion [CA]-CB--CG-[ND1] |==|  0.84637
USER: genes 14 Torsion [N]-CA--C-[O] |==|  0.82182
ROOT
ATOM      1  CA  TRP G 420     -36.771 -28.246  29.907  1.00 30.19 LIG 0.18  C 
ENDROOT
BRANCH 1 2
ATOM      2  N   TRP G 420     -36.333 -29.237  30.889  1.00 29.90 LIG-0.35  N 
ATOM      3 H    TRP G 420     -35.566 -29.585  30.717  1.00 29.90 LIG 0.16  HD
ATOM      4  C   SER G 419     -37.071 -29.566  31.957  1.00 34.18 LIG 0.24  C 
ATOM      5 O    SER G 419     -38.132 -29.012  32.239  1.00 34.33 LIG-0.27  OA
BRANCH 4 6
ATOM      6  CA  SER G 419     -36.540 -30.704  32.833  1.00 31.26 LIG 0.20  C 
BRANCH 6 7
ATOM      7  CB  SER G 419     -36.719 -32.035  32.103  1.00 37.91 LIG 0.20  C 
BRANCH 7 8
ATOM      8 OG   SER G 419     -35.998 -32.031  30.880  1.00 57.41 LIG-0.40  OA
ATOM      9 HG   SER G 419     -36.380 -32.536  30.327  1.00 57.41 LIG 0.21  HD
ENDBRANCH 7 8
ENDBRANCH 6 7
BRANCH 6 10
ATOM     10  N   SER G 419     -37.187 -30.731  34.145  1.00 31.62 LIG-0.34  N 
ATOM     11 H    SER G 419     -37.725 -31.390  34.268  1.00 31.62 LIG 0.16  HD
ATOM     12  C   GLY G 418     -36.930 -29.778  35.057  1.00 37.47 LIG 0.25  C 
ATOM     13 O    GLY G 418     -36.165 -28.842  34.829  1.00 34.17 LIG-0.27  OA
BRANCH 12 14
ATOM     14  CA  GLY G 418     -37.654 -29.853  36.385  1.00 40.24 LIG 0.47  C 
ATOM     15  N   GLY G 418     -37.392 -28.729  37.276  1.00 42.39 LIG 0.61  N 
ENDBRANCH 12 14
ENDBRANCH 6 10
ENDBRANCH 4 6
ENDBRANCH 1 2
BRANCH 1 16
ATOM     16  CB  TRP G 420     -35.596 -27.777  29.054  1.00 27.27 LIG 0.07  C 
BRANCH 16 17
ATOM     17  CG  TRP G 420     -35.980 -27.068  27.790  1.00 26.68 LIG-0.03  A 
ATOM     18  CD1 TRP G 420     -36.166 -27.619  26.560  1.00 29.02 LIG 0.10  A 
ATOM     19  NE1 TRP G 420     -36.400 -26.633  25.629  1.00 28.83 LIG-0.36  N 
ATOM     20 HE1  TRP G 420     -36.505 -26.757  24.784  1.00 28.83 LIG 0.17  HD
ATOM     21  CE2 TRP G 420     -36.438 -25.420  26.267  1.00 29.48 LIG 0.04  A 
ATOM     22  CD2 TRP G 420     -36.165 -25.657  27.633  1.00 26.13 LIG-0.00  A 
ATOM     23  CZ2 TRP G 420     -36.647 -24.131  25.758  1.00 28.18 LIG 0.03  A 
ATOM     24  CE3 TRP G 420     -36.107 -24.564  28.515  1.00 26.84 LIG 0.01  A 
ATOM     25  CZ3 TRP G 420     -36.333 -23.288  28.009  1.00 27.14 LIG 0.00  A 
ATOM     26  CH2 TRP G 420     -36.593 -23.086  26.651  1.00 27.58 LIG 0.00  A 
ENDBRANCH 16 17
ENDBRANCH 1 16
BRANCH 1 27
ATOM     27  C   TRP G 420     -37.847 -28.865  29.023  1.00 38.21 LIG 0.24  C 
ATOM     28 O    TRP G 420     -38.709 -28.143  28.533  1.00 38.32 LIG-0.27  OA
ATOM     29  N   HIS G 421     -37.761 -30.182  28.772  1.00 36.18 LIG-0.35  N 
ATOM     30 H    HIS G 421     -37.143 -30.682  29.100  1.00 36.18 LIG 0.16  HD
BRANCH 29 31
ATOM     31  CA  HIS G 421     -38.705 -30.904  27.917  1.00 85.07 LIG 0.17  C 
BRANCH 31 32
ATOM     32  CB  HIS G 421     -40.150 -30.662  28.376  1.00 86.25 LIG 0.09  C 
BRANCH 32 33
ATOM     33  CG  HIS G 421     -40.310 -30.696  29.865  1.00 90.14 LIG 0.06  A 
ATOM     34 ND1  HIS G 421     -39.901 -31.790  30.610  1.00 92.13 LIG-0.24  NA
ATOM     35  CE1 HIS G 421     -40.175 -31.486  31.870  1.00 91.61 LIG 0.23  A 
ATOM     36 NE2  HIS G 421     -40.719 -30.271  31.975  1.00 91.87 LIG-0.25  NA
ATOM     37  CD2 HIS G 421     -40.813 -29.758  30.702  1.00 92.02 LIG 0.14  A 
ENDBRANCH 32 33
ENDBRANCH 31 32
BRANCH 31 38
ATOM     38  C   HIS G 421     -38.538 -30.533  26.452  1.00112.71 LIG 0.22  C 
ATOM     39 O    HIS G 421     -38.766 -29.383  26.086  1.00 75.09 LIG-0.29  OA
ENDBRANCH 31 38
ENDBRANCH 29 31
ENDBRANCH 1 27
TORSDOF 13
ENDMDL
