MODEL 1
USER: ADFR SOLUTION from run 187
USER: SCORE 22.869698 LL:  -5.810 LR: -18.825 RR:   0.000 FEB: -11.964
USER: RMSD 3.062955
USER: SEED 186
USER: STATUS 1 or 2 clusters left
USER: GENES 25
USER: genes 0 Translation |==|  0.52222 0.55428 0.63068
USER: genes 1 Rotation |==|  0.42956 0.19837 0.61485 0.87532
USER: genes 2 Torsion [N]-C--CA-[N] |==|  0.30056
USER: genes 3 Torsion [C]-CA--N-[C] |==|  0.55679
USER: genes 4 Torsion [N]-C--CA-[N] |==|  0.17850
USER: genes 5 Torsion [C]-CA--CB-[CG] |==|  0.31950
USER: genes 6 Torsion [CA]-CB--CG-[CD2] |==|  0.16746
USER: genes 7 Torsion [C]-CA--N-[C] |==|  0.77778
USER: genes 8 Torsion [N]-C--CA-[N] |==|  0.80645
USER: genes 9 Torsion [C]-CA--CB-[CG] |==|  0.84734
USER: genes 10 Torsion [CA]-CB--CG-[OD2] |==|  0.33376
USER: genes 11 Torsion [C]-CA--CB-[CG] |==|  0.77964
USER: genes 12 Torsion [CA]-CB--CG-[ND2] |==|  0.20999
USER: genes 13 Torsion [C]-N--CA-[CB] |==|  0.16581
USER: genes 14 Torsion [N]-CA--CB-[CG] |==|  0.12464
USER: genes 15 Torsion [CA]-CB--CG-[CD1] |==|  0.74624
USER: genes 16 Torsion [N]-CA--C-[N] |==|  0.56474
USER: genes 17 Torsion [C]-N--CA-[C] |==|  0.63144
USER: genes 18 Torsion [N]-CA--C-[N] |==|  0.35439
USER: genes 19 Torsion [C]-N--CA-[CB] |==|  0.48329
USER: genes 20 Torsion [N]-CA--CB-[CG2] |==|  0.51416
USER: genes 21 Torsion [N]-CA--C-[O] |==|  0.27380
USER: genes 22 Torsion [N]-CA--CB-[CG] |==|  0.59355
USER: genes 23 Torsion [CA]-CB--CG-[CD] |==|  0.62458
USER: genes 24 Torsion [CB]-CG--CD-[OE1] |==|  0.39757
ROOT
ATOM      1  C   ASN P   4      34.347  -1.159 -28.620  1.00 47.61 LIG 0.24  C 
ATOM      2 O    ASN P   4      33.245  -1.308 -28.150  1.00 46.30 LIG-0.27  OA
ATOM      3  N   TRP P   5      35.205  -2.176 -28.673  1.00 43.61 LIG-0.35  N 
ATOM      4 H    TRP P   5      36.009  -2.148 -28.978  1.00 43.61 LIG 0.16  HD
ENDROOT
BRANCH 1 5
ATOM      5  CA  ASN P   4      34.755   0.205 -29.185  1.00 56.71 LIG 0.18  C 
BRANCH 5 6
ATOM      6  N   ASN P   4      34.032   0.464 -30.418  1.00 58.55 LIG-0.35  N 
ATOM      7  C   TRP P   3      34.478   1.348 -31.287  1.00 51.89 LIG 0.24  C 
ATOM      8 O    TRP P   3      35.381   2.151 -31.040  1.00 53.51 LIG-0.27  OA
ATOM      9 H    ASN P   4      33.313   0.002 -30.519  1.00 58.55 LIG 0.16  HD
BRANCH 7 10
ATOM     10  CA  TRP P   3      33.767   1.416 -32.585  1.00 49.09 LIG 0.18  C 
BRANCH 10 11
ATOM     11  CB  TRP P   3      34.630   2.398 -33.380  1.00 45.21 LIG 0.07  C 
BRANCH 11 12
ATOM     12  CG  TRP P   3      35.396   1.888 -34.666  1.00 38.74 LIG-0.03  A 
ATOM     13  CD1 TRP P   3      36.763   1.970 -34.957  1.00 32.85 LIG 0.10  A 
ATOM     14  NE1 TRP P   3      37.005   1.481 -36.255  1.00 33.71 LIG-0.36  N 
ATOM     15  CE2 TRP P   3      35.818   1.074 -36.804  1.00 32.42 LIG 0.04  A 
ATOM     16 HE1  TRP P   3      37.773   1.444 -36.640  1.00 33.71 LIG 0.17  HD
ATOM     17  CZ2 TRP P   3      35.547   0.579 -38.104  1.00 29.39 LIG 0.03  A 
ATOM     18  CD2 TRP P   3      34.783   1.320 -35.856  1.00 33.85 LIG-0.00  A 
ATOM     19  CH2 TRP P   3      34.255   0.247 -38.364  1.00 25.26 LIG 0.00  A 
ATOM     20  CZ3 TRP P   3      33.220   0.443 -37.456  1.00 33.31 LIG 0.00  A 
ATOM     21  CE3 TRP P   3      33.466   1.020 -36.198  1.00 32.67 LIG 0.01  A 
ENDBRANCH 11 12
ENDBRANCH 10 11
BRANCH 10 22
ATOM     22  N   TRP P   3      32.317   1.862 -32.479  1.00 48.62 LIG-0.34  N 
ATOM     23 H    TRP P   3      32.199   2.691 -32.675  1.00 48.62 LIG 0.16  HD
ATOM     24  C   ASP P   2      31.303   1.046 -32.115  1.00 44.46 LIG 0.26  C 
ATOM     25 O    ASP P   2      31.517  -0.122 -31.692  1.00 32.12 LIG-0.27  OA
BRANCH 24 26
ATOM     26  CA  ASP P   2      29.804   1.570 -32.308  1.00 48.39 LIG 0.41  C 
ATOM     27  N   ASP P   2      29.514   2.677 -31.333  1.00 44.52 LIG 0.61  N 
BRANCH 26 28
ATOM     28  CB  ASP P   2      29.389   1.997 -33.766  1.00 55.68 LIG 0.16  C 
BRANCH 28 29
ATOM     29  CG  ASP P   2      30.362   3.104 -34.411  1.00 65.31 LIG 0.17  C 
ATOM     30 OD2  ASP P   2      30.996   2.847 -35.496  1.00 61.23 LIG-0.65  OA
ATOM     31 OD1  ASP P   2      30.503   4.230 -33.827  1.00 59.39 LIG-0.65  OA
ENDBRANCH 28 29
ENDBRANCH 26 28
ENDBRANCH 24 26
ENDBRANCH 10 22
ENDBRANCH 7 10
ENDBRANCH 5 6
BRANCH 5 32
ATOM     32  CB  ASN P   4      34.512   1.360 -28.175  1.00 62.15 LIG 0.14  C 
BRANCH 32 33
ATOM     33  CG  ASN P   4      33.054   1.802 -28.120  1.00 66.74 LIG 0.22  C 
ATOM     34 OD1  ASN P   4      32.697   2.862 -28.639  1.00 65.57 LIG-0.27  OA
ATOM     35  ND2 ASN P   4      32.210   1.007 -27.473  1.00 62.00 LIG-0.37  N 
ATOM     36 21HD ASN P   4      31.380   1.225 -27.403  1.00 62.00 LIG 0.16  HD
ATOM     37 22HD ASN P   4      32.492   0.274 -27.123  1.00 62.00 LIG 0.16  HD
ENDBRANCH 32 33
ENDBRANCH 5 32
ENDBRANCH 1 5
BRANCH 3 38
ATOM     38  CA  TRP P   5      34.747  -3.452 -28.170  1.00 39.30 LIG 0.18  C 
BRANCH 38 39
ATOM     39  CB  TRP P   5      33.507  -3.986 -28.918  1.00 34.53 LIG 0.07  C 
BRANCH 39 40
ATOM     40  CG  TRP P   5      33.535  -3.890 -30.409  1.00 28.80 LIG-0.03  A 
ATOM     41  CD1 TRP P   5      33.069  -2.861 -31.146  1.00 24.67 LIG 0.10  A 
ATOM     42  NE1 TRP P   5      33.213  -3.123 -32.453  1.00 28.39 LIG-0.36  N 
ATOM     43 HE1  TRP P   5      32.951  -2.610 -33.092  1.00 28.39 LIG 0.17  HD
ATOM     44  CE2 TRP P   5      33.841  -4.333 -32.621  1.00 28.85 LIG 0.04  A 
ATOM     45  CZ2 TRP P   5      34.253  -4.978 -33.769  1.00 29.12 LIG 0.03  A 
ATOM     46  CD2 TRP P   5      34.082  -4.844 -31.338  1.00 31.26 LIG-0.00  A 
ATOM     47  CH2 TRP P   5      34.842  -6.210 -33.629  1.00 31.42 LIG 0.00  A 
ATOM     48  CZ3 TRP P   5      35.021  -6.802 -32.367  1.00 31.13 LIG 0.00  A 
ATOM     49  CE3 TRP P   5      34.652  -6.124 -31.210  1.00 35.06 LIG 0.01  A 
ENDBRANCH 39 40
ENDBRANCH 38 39
BRANCH 38 50
ATOM     50  C   TRP P   5      35.960  -4.361 -28.207  1.00 44.67 LIG 0.24  C 
ATOM     51 O    TRP P   5      37.084  -3.902 -28.182  1.00 47.12 LIG-0.27  OA
ATOM     52  N   GLU P   6      35.720  -5.657 -28.257  1.00 57.45 LIG-0.35  N 
ATOM     53 H    GLU P   6      34.947  -5.990 -28.435  1.00 57.45 LIG 0.16  HD
BRANCH 52 54
ATOM     54  CA  GLU P   6      36.752  -6.653 -28.013  1.00 54.50 LIG 0.18  C 
BRANCH 54 55
ATOM     55  C   GLU P   6      36.720  -7.707 -29.074  1.00 56.45 LIG 0.24  C 
ATOM     56 O    GLU P   6      35.642  -8.310 -29.343  1.00 44.81 LIG-0.27  OA
ATOM     57  N   VAL P   7      37.894  -7.933 -29.669  1.00 47.96 LIG-0.35  N 
ATOM     58 H    VAL P   7      38.569  -7.404 -29.614  1.00 47.96 LIG 0.16  HD
BRANCH 57 59
ATOM     59  CA  VAL P   7      38.123  -9.108 -30.466  1.00 55.51 LIG 0.17  C 
BRANCH 59 60
ATOM     60  CB  VAL P   7      39.517  -9.041 -31.159  1.00 57.72 LIG 0.01  C 
ATOM     61  CG2 VAL P   7      39.711 -10.234 -32.109  1.00 57.86 LIG 0.01  C 
ATOM     62  CG1 VAL P   7      40.663  -8.913 -30.150  1.00 55.94 LIG 0.01  C 
ENDBRANCH 59 60
BRANCH 59 63
ATOM     63  C   VAL P   7      37.943 -10.310 -29.515  1.00 56.50 LIG 0.22  C 
ATOM     64 O    VAL P   7      36.880 -10.940 -29.483  1.00 61.93 LIG-0.29  OA
ENDBRANCH 59 63
ENDBRANCH 57 59
ENDBRANCH 54 55
BRANCH 54 65
ATOM     65  CB  GLU P   6      36.470  -7.366 -26.698  1.00 55.84 LIG 0.04  C 
BRANCH 65 66
ATOM     66  CG  GLU P   6      37.721  -7.771 -25.948  1.00 56.62 LIG 0.12  C 
BRANCH 66 67
ATOM     67  CD  GLU P   6      37.639  -9.189 -25.410  1.00 56.54 LIG 0.17  C 
ATOM     68 OE1  GLU P   6      38.700  -9.905 -25.417  1.00 46.52 LIG-0.65  OA
ATOM     69 OE2  GLU P   6      36.499  -9.544 -24.989  1.00 53.74 LIG-0.65  OA
ENDBRANCH 66 67
ENDBRANCH 65 66
ENDBRANCH 54 65
ENDBRANCH 52 54
ENDBRANCH 38 50
ENDBRANCH 3 38
TORSDOF 23
ENDMDL
MODEL 2
USER: ADFR SOLUTION from run 129
USER: SCORE 22.027668 LL:  -5.296 LR: -18.581 RR:   0.000 FEB: -11.720
USER: RMSD 2.815998
USER: SEED 128
USER: STATUS no improvement in best in 5 clusters for 5 generations
USER: GENES 25
USER: genes 0 Translation |==|  0.50281 0.54366 0.63870
USER: genes 1 Rotation |==|  0.44310 0.19321 0.63470 0.86674
USER: genes 2 Torsion [N]-C--CA-[N] |==|  0.30290
USER: genes 3 Torsion [C]-CA--N-[C] |==|  0.59567
USER: genes 4 Torsion [N]-C--CA-[N] |==|  0.20553
USER: genes 5 Torsion [C]-CA--CB-[CG] |==|  0.45784
USER: genes 6 Torsion [CA]-CB--CG-[CD2] |==|  0.56804
USER: genes 7 Torsion [C]-CA--N-[C] |==|  0.77165
USER: genes 8 Torsion [N]-C--CA-[N] |==|  0.79546
USER: genes 9 Torsion [C]-CA--CB-[CG] |==|  0.79969
USER: genes 10 Torsion [CA]-CB--CG-[OD2] |==|  0.39555
USER: genes 11 Torsion [C]-CA--CB-[CG] |==|  0.74424
USER: genes 12 Torsion [CA]-CB--CG-[ND2] |==|  0.73138
USER: genes 13 Torsion [C]-N--CA-[CB] |==|  0.18450
USER: genes 14 Torsion [N]-CA--CB-[CG] |==|  0.10635
USER: genes 15 Torsion [CA]-CB--CG-[CD1] |==|  0.77059
USER: genes 16 Torsion [N]-CA--C-[N] |==|  0.48518
USER: genes 17 Torsion [C]-N--CA-[C] |==|  0.64929
USER: genes 18 Torsion [N]-CA--C-[N] |==|  0.28353
USER: genes 19 Torsion [C]-N--CA-[CB] |==|  0.28480
USER: genes 20 Torsion [N]-CA--CB-[CG2] |==|  0.80681
USER: genes 21 Torsion [N]-CA--C-[O] |==|  0.72083
USER: genes 22 Torsion [N]-CA--CB-[CG] |==|  0.74808
USER: genes 23 Torsion [CA]-CB--CG-[CD] |==|  0.42441
USER: genes 24 Torsion [CB]-CG--CD-[OE1] |==|  0.14723
ROOT
ATOM      1  C   ASN P   4      33.939  -1.406 -28.451  1.00 47.61 LIG 0.24  C 
ATOM      2 O    ASN P   4      32.852  -1.664 -27.994  1.00 46.30 LIG-0.27  OA
ATOM      3  N   TRP P   5      34.898  -2.329 -28.486  1.00 43.61 LIG-0.35  N 
ATOM      4 H    TRP P   5      35.699  -2.221 -28.781  1.00 43.61 LIG 0.16  HD
ENDROOT
BRANCH 1 5
ATOM      5  CA  ASN P   4      34.212  -0.011 -29.022  1.00 56.71 LIG 0.18  C 
BRANCH 5 6
ATOM      6  N   ASN P   4      33.467   0.171 -30.256  1.00 58.55 LIG-0.35  N 
ATOM      7  C   TRP P   3      33.966   0.885 -31.245  1.00 51.89 LIG 0.24  C 
ATOM      8 O    TRP P   3      34.959   1.606 -31.131  1.00 53.51 LIG-0.27  OA
ATOM      9 H    ASN P   4      32.699  -0.217 -30.275  1.00 58.55 LIG 0.16  HD
BRANCH 7 10
ATOM     10  CA  TRP P   3      33.209   0.868 -32.518  1.00 49.09 LIG 0.18  C 
BRANCH 10 11
ATOM     11  CB  TRP P   3      34.234   1.414 -33.515  1.00 45.21 LIG 0.07  C 
BRANCH 11 12
ATOM     12  CG  TRP P   3      33.976   1.235 -35.065  1.00 38.74 LIG-0.03  A 
ATOM     13  CD1 TRP P   3      32.771   0.962 -35.724  1.00 32.85 LIG 0.10  A 
ATOM     14  NE1 TRP P   3      33.009   0.784 -37.100  1.00 33.71 LIG-0.36  N 
ATOM     15  CE2 TRP P   3      34.346   0.948 -37.343  1.00 32.42 LIG 0.04  A 
ATOM     16 HE1  TRP P   3      32.411   0.602 -37.691  1.00 33.71 LIG 0.17  HD
ATOM     17  CZ2 TRP P   3      35.069   0.798 -38.554  1.00 29.39 LIG 0.03  A 
ATOM     18  CD2 TRP P   3      34.994   1.217 -36.103  1.00 33.85 LIG-0.00  A 
ATOM     19  CH2 TRP P   3      36.406   1.034 -38.490  1.00 25.26 LIG 0.00  A 
ATOM     20  CZ3 TRP P   3      37.071   1.329 -37.304  1.00 33.31 LIG 0.00  A 
ATOM     21  CE3 TRP P   3      36.376   1.388 -36.084  1.00 32.67 LIG 0.01  A 
ENDBRANCH 11 12
ENDBRANCH 10 11
BRANCH 10 22
ATOM     22  N   TRP P   3      31.925   1.684 -32.492  1.00 48.62 LIG-0.34  N 
ATOM     23 H    TRP P   3      32.013   2.470 -32.831  1.00 48.62 LIG 0.16  HD
ATOM     24  C   ASP P   2      30.756   1.231 -31.988  1.00 44.46 LIG 0.26  C 
ATOM     25 O    ASP P   2      30.687   0.137 -31.365  1.00 32.12 LIG-0.27  OA
BRANCH 24 26
ATOM     26  CA  ASP P   2      29.431   2.083 -32.269  1.00 48.39 LIG 0.41  C 
ATOM     27  N   ASP P   2      29.432   3.330 -31.431  1.00 44.52 LIG 0.61  N 
BRANCH 26 28
ATOM     28  CB  ASP P   2      29.122   2.429 -33.774  1.00 55.68 LIG 0.16  C 
BRANCH 28 29
ATOM     29  CG  ASP P   2      30.110   3.539 -34.392  1.00 65.31 LIG 0.17  C 
ATOM     30 OD2  ASP P   2      30.505   3.440 -35.608  1.00 61.23 LIG-0.65  OA
ATOM     31 OD1  ASP P   2      30.502   4.506 -33.658  1.00 59.39 LIG-0.65  OA
ENDBRANCH 28 29
ENDBRANCH 26 28
ENDBRANCH 24 26
ENDBRANCH 10 22
ENDBRANCH 7 10
ENDBRANCH 5 6
BRANCH 5 32
ATOM     32  CB  ASN P   4      33.858   1.120 -28.017  1.00 62.15 LIG 0.14  C 
BRANCH 32 33
ATOM     33  CG  ASN P   4      32.431   1.631 -28.180  1.00 66.74 LIG 0.22  C 
ATOM     34 OD1  ASN P   4      31.485   1.030 -27.667  1.00 65.57 LIG-0.27  OA
ATOM     35  ND2 ASN P   4      32.266   2.726 -28.913  1.00 62.00 LIG-0.37  N 
ATOM     36 21HD ASN P   4      31.476   3.041 -29.044  1.00 62.00 LIG 0.16  HD
ATOM     37 22HD ASN P   4      32.948   3.121 -29.256  1.00 62.00 LIG 0.16  HD
ENDBRANCH 32 33
ENDBRANCH 5 32
ENDBRANCH 1 5
BRANCH 3 38
ATOM     38  CA  TRP P   5      34.568  -3.643 -27.979  1.00 39.30 LIG 0.18  C 
BRANCH 38 39
ATOM     39  CB  TRP P   5      33.514  -4.374 -28.837  1.00 34.53 LIG 0.07  C 
BRANCH 39 40
ATOM     40  CG  TRP P   5      33.619  -4.194 -30.317  1.00 28.80 LIG-0.03  A 
ATOM     41  CD1 TRP P   5      33.139  -3.152 -31.025  1.00 24.67 LIG 0.10  A 
ATOM     42  NE1 TRP P   5      33.370  -3.334 -32.334  1.00 28.39 LIG-0.36  N 
ATOM     43 HE1  TRP P   5      33.116  -2.800 -32.959  1.00 28.39 LIG 0.17  HD
ATOM     44  CE2 TRP P   5      34.069  -4.500 -32.528  1.00 28.85 LIG 0.04  A 
ATOM     45  CZ2 TRP P   5      34.577  -5.059 -33.682  1.00 29.12 LIG 0.03  A 
ATOM     46  CD2 TRP P   5      34.266  -5.068 -31.261  1.00 31.26 LIG-0.00  A 
ATOM     47  CH2 TRP P   5      35.222  -6.266 -33.573  1.00 31.42 LIG 0.00  A 
ATOM     48  CZ3 TRP P   5      35.363  -6.916 -32.335  1.00 31.13 LIG 0.00  A 
ATOM     49  CE3 TRP P   5      34.895  -6.322 -31.167  1.00 35.06 LIG 0.01  A 
ENDBRANCH 39 40
ENDBRANCH 38 39
BRANCH 38 50
ATOM     50  C   TRP P   5      35.892  -4.366 -27.833  1.00 44.67 LIG 0.24  C 
ATOM     51 O    TRP P   5      36.927  -3.853 -28.206  1.00 47.12 LIG-0.27  OA
ATOM     52  N   GLU P   6      35.848  -5.561 -27.276  1.00 57.45 LIG-0.35  N 
ATOM     53 H    GLU P   6      35.119  -6.002 -27.155  1.00 57.45 LIG 0.16  HD
BRANCH 52 54
ATOM     54  CA  GLU P   6      37.042  -6.252 -26.812  1.00 54.50 LIG 0.18  C 
BRANCH 54 55
ATOM     55  C   GLU P   6      37.123  -7.617 -27.418  1.00 56.45 LIG 0.24  C 
ATOM     56 O    GLU P   6      36.417  -8.561 -26.962  1.00 44.81 LIG-0.27  OA
ATOM     57  N   VAL P   7      37.981  -7.724 -28.435  1.00 47.96 LIG-0.35  N 
ATOM     58 H    VAL P   7      38.316  -7.052 -28.854  1.00 47.96 LIG 0.16  HD
BRANCH 57 59
ATOM     59  CA  VAL P   7      38.424  -9.005 -28.919  1.00 55.51 LIG 0.17  C 
BRANCH 59 60
ATOM     60  CB  VAL P   7      37.684  -9.382 -30.238  1.00 57.72 LIG 0.01  C 
ATOM     61  CG2 VAL P   7      36.203  -9.686 -29.962  1.00 57.86 LIG 0.01  C 
ATOM     62  CG1 VAL P   7      38.379 -10.522 -30.989  1.00 55.94 LIG 0.01  C 
ENDBRANCH 59 60
BRANCH 59 63
ATOM     63  C   VAL P   7      39.957  -8.901 -29.057  1.00 56.50 LIG 0.22  C 
ATOM     64 O    VAL P   7      40.484  -8.709 -30.158  1.00 61.93 LIG-0.29  OA
ENDBRANCH 59 63
ENDBRANCH 57 59
ENDBRANCH 54 55
BRANCH 54 65
ATOM     65  CB  GLU P   6      36.957  -6.459 -25.307  1.00 55.84 LIG 0.04  C 
BRANCH 65 66
ATOM     66  CG  GLU P   6      37.564  -5.328 -24.505  1.00 56.62 LIG 0.12  C 
BRANCH 66 67
ATOM     67  CD  GLU P   6      36.933  -5.190 -23.130  1.00 56.54 LIG 0.17  C 
ATOM     68 OE1  GLU P   6      36.880  -6.224 -22.377  1.00 46.52 LIG-0.65  OA
ATOM     69 OE2  GLU P   6      36.505  -4.033 -22.844  1.00 53.74 LIG-0.65  OA
ENDBRANCH 66 67
ENDBRANCH 65 66
ENDBRANCH 54 65
ENDBRANCH 52 54
ENDBRANCH 38 50
ENDBRANCH 3 38
TORSDOF 23
ENDMDL
MODEL 3
USER: ADFR SOLUTION from run 192
USER: SCORE 21.387532 LL:  -5.045 LR: -17.916 RR:   0.000 FEB: -11.055
USER: RMSD 5.249521
USER: SEED 191
USER: STATUS no improvement in best in 2 clusters for 5 generations
USER: GENES 25
USER: genes 0 Translation |==|  0.54114 0.55726 0.63966
USER: genes 1 Rotation |==|  0.41600 0.27212 0.58077 0.92952
USER: genes 2 Torsion [N]-C--CA-[N] |==|  0.42121
USER: genes 3 Torsion [C]-CA--N-[C] |==|  0.81621
USER: genes 4 Torsion [N]-C--CA-[N] |==|  0.48333
USER: genes 5 Torsion [C]-CA--CB-[CG] |==|  0.60862
USER: genes 6 Torsion [CA]-CB--CG-[CD2] |==|  0.34082
USER: genes 7 Torsion [C]-CA--N-[C] |==|  0.64698
USER: genes 8 Torsion [N]-C--CA-[N] |==|  0.33072
USER: genes 9 Torsion [C]-CA--CB-[CG] |==|  0.89307
USER: genes 10 Torsion [CA]-CB--CG-[OD2] |==|  0.38159
USER: genes 11 Torsion [C]-CA--CB-[CG] |==|  0.96832
USER: genes 12 Torsion [CA]-CB--CG-[ND2] |==|  0.74444
USER: genes 13 Torsion [C]-N--CA-[CB] |==|  0.23482
USER: genes 14 Torsion [N]-CA--CB-[CG] |==|  0.09857
USER: genes 15 Torsion [CA]-CB--CG-[CD1] |==|  0.74108
USER: genes 16 Torsion [N]-CA--C-[N] |==|  0.43800
USER: genes 17 Torsion [C]-N--CA-[C] |==|  0.69316
USER: genes 18 Torsion [N]-CA--C-[N] |==|  0.25609
USER: genes 19 Torsion [C]-N--CA-[CB] |==|  0.38822
USER: genes 20 Torsion [N]-CA--CB-[CG2] |==|  0.77110
USER: genes 21 Torsion [N]-CA--C-[O] |==|  0.28764
USER: genes 22 Torsion [N]-CA--CB-[CG] |==|  0.83210
USER: genes 23 Torsion [CA]-CB--CG-[CD] |==|  0.47191
USER: genes 24 Torsion [CB]-CG--CD-[OE1] |==|  0.53891
ROOT
ATOM      1  C   ASN P   4      34.744  -1.090 -28.431  1.00 47.61 LIG 0.24  C 
ATOM      2 O    ASN P   4      33.841  -1.010 -27.634  1.00 46.30 LIG-0.27  OA
ATOM      3  N   TRP P   5      35.293  -2.268 -28.719  1.00 43.61 LIG-0.35  N 
ATOM      4 H    TRP P   5      35.946  -2.407 -29.263  1.00 43.61 LIG 0.16  HD
ENDROOT
BRANCH 1 5
ATOM      5  CA  ASN P   4      35.247   0.172 -29.140  1.00 56.71 LIG 0.18  C 
BRANCH 5 6
ATOM      6  N   ASN P   4      34.177   1.150 -29.224  1.00 58.55 LIG-0.35  N 
ATOM      7  C   TRP P   3      33.108   0.917 -29.959  1.00 51.89 LIG 0.24  C 
ATOM      8 O    TRP P   3      33.029  -0.005 -30.774  1.00 53.51 LIG-0.27  OA
ATOM      9 H    ASN P   4      34.305   1.866 -28.764  1.00 58.55 LIG 0.16  HD
BRANCH 7 10
ATOM     10  CA  TRP P   3      32.002   1.896 -29.844  1.00 49.09 LIG 0.18  C 
BRANCH 10 11
ATOM     11  CB  TRP P   3      31.576   1.736 -28.383  1.00 45.21 LIG 0.07  C 
BRANCH 11 12
ATOM     12  CG  TRP P   3      30.038   1.787 -28.015  1.00 38.74 LIG-0.03  A 
ATOM     13  CD1 TRP P   3      29.138   2.847 -28.174  1.00 32.85 LIG 0.10  A 
ATOM     14  NE1 TRP P   3      27.890   2.501 -27.624  1.00 33.71 LIG-0.36  N 
ATOM     15  CE2 TRP P   3      27.965   1.229 -27.121  1.00 32.42 LIG 0.04  A 
ATOM     16 HE1  TRP P   3      27.194   3.005 -27.606  1.00 33.71 LIG 0.17  HD
ATOM     17  CZ2 TRP P   3      26.992   0.478 -26.415  1.00 29.39 LIG 0.03  A 
ATOM     18  CD2 TRP P   3      29.290   0.746 -27.329  1.00 33.85 LIG-0.00  A 
ATOM     19  CH2 TRP P   3      27.356  -0.777 -26.040  1.00 25.26 LIG 0.00  A 
ATOM     20  CZ3 TRP P   3      28.630  -1.296 -26.251  1.00 33.31 LIG 0.00  A 
ATOM     21  CE3 TRP P   3      29.629  -0.523 -26.867  1.00 32.67 LIG 0.01  A 
ENDBRANCH 11 12
ENDBRANCH 10 11
BRANCH 10 22
ATOM     22  N   TRP P   3      30.856   1.661 -30.817  1.00 48.62 LIG-0.34  N 
ATOM     23 H    TRP P   3      30.544   0.860 -30.790  1.00 48.62 LIG 0.16  HD
ATOM     24  C   ASP P   2      30.368   2.609 -31.646  1.00 44.46 LIG 0.26  C 
ATOM     25 O    ASP P   2      30.934   3.728 -31.774  1.00 32.12 LIG-0.27  OA
BRANCH 24 26
ATOM     26  CA  ASP P   2      28.996   2.308 -32.414  1.00 48.39 LIG 0.41  C 
ATOM     27  N   ASP P   2      27.955   3.320 -32.026  1.00 44.52 LIG 0.61  N 
BRANCH 26 28
ATOM     28  CB  ASP P   2      29.080   2.175 -33.980  1.00 55.68 LIG 0.16  C 
BRANCH 28 29
ATOM     29  CG  ASP P   2      30.101   3.217 -34.659  1.00 65.31 LIG 0.17  C 
ATOM     30 OD2  ASP P   2      30.888   2.829 -35.594  1.00 61.23 LIG-0.65  OA
ATOM     31 OD1  ASP P   2      30.127   4.426 -34.248  1.00 59.39 LIG-0.65  OA
ENDBRANCH 28 29
ENDBRANCH 26 28
ENDBRANCH 24 26
ENDBRANCH 10 22
ENDBRANCH 7 10
ENDBRANCH 5 6
BRANCH 5 32
ATOM     32  CB  ASN P   4      36.481   0.796 -28.432  1.00 62.15 LIG 0.14  C 
BRANCH 32 33
ATOM     33  CG  ASN P   4      36.744   0.189 -27.058  1.00 66.74 LIG 0.22  C 
ATOM     34 OD1  ASN P   4      37.430  -0.829 -26.940  1.00 65.57 LIG-0.27  OA
ATOM     35  ND2 ASN P   4      36.183   0.794 -26.017  1.00 62.00 LIG-0.37  N 
ATOM     36 21HD ASN P   4      36.292   0.476 -25.225  1.00 62.00 LIG 0.16  HD
ATOM     37 22HD ASN P   4      35.711   1.502 -26.135  1.00 62.00 LIG 0.16  HD
ENDBRANCH 32 33
ENDBRANCH 5 32
ENDBRANCH 1 5
BRANCH 3 38
ATOM     38  CA  TRP P   5      34.744  -3.431 -28.058  1.00 39.30 LIG 0.18  C 
BRANCH 38 39
ATOM     39  CB  TRP P   5      33.507  -4.007 -28.777  1.00 34.53 LIG 0.07  C 
BRANCH 39 40
ATOM     40  CG  TRP P   5      33.511  -3.936 -30.270  1.00 28.80 LIG-0.03  A 
ATOM     41  CD1 TRP P   5      32.978  -2.949 -31.018  1.00 24.67 LIG 0.10  A 
ATOM     42  NE1 TRP P   5      33.121  -3.226 -32.323  1.00 28.39 LIG-0.36  N 
ATOM     43 HE1  TRP P   5      32.822  -2.739 -32.966  1.00 28.39 LIG 0.17  HD
ATOM     44  CE2 TRP P   5      33.814  -4.401 -32.479  1.00 28.85 LIG 0.04  A 
ATOM     45  CZ2 TRP P   5      34.247  -5.042 -33.620  1.00 29.12 LIG 0.03  A 
ATOM     46  CD2 TRP P   5      34.099  -4.875 -31.190  1.00 31.26 LIG-0.00  A 
ATOM     47  CH2 TRP P   5      34.907  -6.236 -33.468  1.00 31.42 LIG 0.00  A 
ATOM     48  CZ3 TRP P   5      35.136  -6.794 -32.198  1.00 31.13 LIG 0.00  A 
ATOM     49  CE3 TRP P   5      34.743  -6.118 -31.048  1.00 35.06 LIG 0.01  A 
ENDBRANCH 39 40
ENDBRANCH 38 39
BRANCH 38 50
ATOM     50  C   TRP P   5      35.904  -4.394 -27.902  1.00 44.67 LIG 0.24  C 
ATOM     51 O    TRP P   5      36.883  -4.311 -28.615  1.00 47.12 LIG-0.27  OA
ATOM     52  N   GLU P   6      35.786  -5.305 -26.954  1.00 57.45 LIG-0.35  N 
ATOM     53 H    GLU P   6      35.046  -5.479 -26.553  1.00 57.45 LIG 0.16  HD
BRANCH 52 54
ATOM     54  CA  GLU P   6      36.911  -6.106 -26.496  1.00 54.50 LIG 0.18  C 
BRANCH 54 55
ATOM     55  C   GLU P   6      36.743  -7.530 -26.921  1.00 56.45 LIG 0.24  C 
ATOM     56 O    GLU P   6      36.110  -8.344 -26.190  1.00 44.81 LIG-0.27  OA
ATOM     57  N   VAL P   7      37.311  -7.833 -28.091  1.00 47.96 LIG-0.35  N 
ATOM     58 H    VAL P   7      37.576  -7.246 -28.662  1.00 47.96 LIG 0.16  HD
BRANCH 57 59
ATOM     59  CA  VAL P   7      37.529  -9.196 -28.496  1.00 55.51 LIG 0.17  C 
BRANCH 59 60
ATOM     60  CB  VAL P   7      37.216  -9.377 -30.012  1.00 57.72 LIG 0.01  C 
ATOM     61  CG2 VAL P   7      35.708  -9.567 -30.237  1.00 57.86 LIG 0.01  C 
ATOM     62  CG1 VAL P   7      38.042 -10.501 -30.645  1.00 55.94 LIG 0.01  C 
ENDBRANCH 59 60
BRANCH 59 63
ATOM     63  C   VAL P   7      38.983  -9.530 -28.102  1.00 56.50 LIG 0.22  C 
ATOM     64 O    VAL P   7      39.228 -10.223 -27.108  1.00 61.93 LIG-0.29  OA
ENDBRANCH 59 63
ENDBRANCH 57 59
ENDBRANCH 54 55
BRANCH 54 65
ATOM     65  CB  GLU P   6      36.941  -6.117 -24.974  1.00 55.84 LIG 0.04  C 
BRANCH 65 66
ATOM     66  CG  GLU P   6      37.098  -4.742 -24.362  1.00 56.62 LIG 0.12  C 
BRANCH 66 67
ATOM     67  CD  GLU P   6      36.880  -4.749 -22.859  1.00 56.54 LIG 0.17  C 
ATOM     68 OE1  GLU P   6      36.714  -3.629 -22.261  1.00 46.52 LIG-0.65  OA
ATOM     69 OE2  GLU P   6      36.880  -5.894 -22.317  1.00 53.74 LIG-0.65  OA
ENDBRANCH 66 67
ENDBRANCH 65 66
ENDBRANCH 54 65
ENDBRANCH 52 54
ENDBRANCH 38 50
ENDBRANCH 3 38
TORSDOF 23
ENDMDL
MODEL 4
USER: ADFR SOLUTION from run 60
USER: SCORE 21.987326 LL:  -5.654 LR: -17.760 RR:   0.000 FEB: -10.899
USER: RMSD 2.301207
USER: SEED 59
USER: STATUS 1 or 2 clusters left
USER: GENES 25
USER: genes 0 Translation |==|  0.51230 0.61564 0.63563
USER: genes 1 Rotation |==|  0.45941 0.28667 0.56146 0.94617
USER: genes 2 Torsion [N]-C--CA-[N] |==|  0.19724
USER: genes 3 Torsion [C]-CA--N-[C] |==|  0.76782
USER: genes 4 Torsion [N]-C--CA-[N] |==|  0.97376
USER: genes 5 Torsion [C]-CA--CB-[CG] |==|  0.32302
USER: genes 6 Torsion [CA]-CB--CG-[CD2] |==|  0.13644
USER: genes 7 Torsion [C]-CA--N-[C] |==|  0.78613
USER: genes 8 Torsion [N]-C--CA-[N] |==|  0.82701
USER: genes 9 Torsion [C]-CA--CB-[CG] |==|  0.82023
USER: genes 10 Torsion [CA]-CB--CG-[OD2] |==|  0.34112
USER: genes 11 Torsion [C]-CA--CB-[CG] |==|  0.30714
USER: genes 12 Torsion [CA]-CB--CG-[ND2] |==|  0.55999
USER: genes 13 Torsion [C]-N--CA-[CB] |==|  0.25470
USER: genes 14 Torsion [N]-CA--CB-[CG] |==|  0.22163
USER: genes 15 Torsion [CA]-CB--CG-[CD1] |==|  0.71693
USER: genes 16 Torsion [N]-CA--C-[N] |==|  0.42410
USER: genes 17 Torsion [C]-N--CA-[C] |==|  0.62552
USER: genes 18 Torsion [N]-CA--C-[N] |==|  0.39505
USER: genes 19 Torsion [C]-N--CA-[CB] |==|  0.40463
USER: genes 20 Torsion [N]-CA--CB-[CG2] |==|  0.12863
USER: genes 21 Torsion [N]-CA--C-[O] |==|  0.37673
USER: genes 22 Torsion [N]-CA--CB-[CG] |==|  0.34086
USER: genes 23 Torsion [CA]-CB--CG-[CD] |==|  0.56284
USER: genes 24 Torsion [CB]-CG--CD-[OE1] |==|  0.49196
ROOT
ATOM      1  C   ASN P   4      34.138   0.268 -28.516  1.00 47.61 LIG 0.24  C 
ATOM      2 O    ASN P   4      33.316   0.197 -27.635  1.00 46.30 LIG-0.27  OA
ATOM      3  N   TRP P   5      34.639  -0.836 -29.068  1.00 43.61 LIG-0.35  N 
ATOM      4 H    TRP P   5      35.235  -0.871 -29.687  1.00 43.61 LIG 0.16  HD
ENDROOT
BRANCH 1 5
ATOM      5  CA  ASN P   4      34.593   1.640 -29.024  1.00 56.71 LIG 0.18  C 
BRANCH 5 6
ATOM      6  N   ASN P   4      34.047   1.881 -30.348  1.00 58.55 LIG-0.35  N 
ATOM      7  C   TRP P   3      34.648   1.406 -31.421  1.00 51.89 LIG 0.24  C 
ATOM      8 O    TRP P   3      35.785   0.932 -31.411  1.00 53.51 LIG-0.27  OA
ATOM      9 H    ASN P   4      33.323   2.345 -30.361  1.00 58.55 LIG 0.16  HD
BRANCH 7 10
ATOM     10  CA  TRP P   3      33.924   1.559 -32.704  1.00 49.09 LIG 0.18  C 
BRANCH 10 11
ATOM     11  CB  TRP P   3      34.807   2.554 -33.460  1.00 45.21 LIG 0.07  C 
BRANCH 11 12
ATOM     12  CG  TRP P   3      35.519   2.096 -34.796  1.00 38.74 LIG-0.03  A 
ATOM     13  CD1 TRP P   3      36.836   2.331 -35.208  1.00 32.85 LIG 0.10  A 
ATOM     14  NE1 TRP P   3      37.027   1.831 -36.510  1.00 33.71 LIG-0.36  N 
ATOM     15  CE2 TRP P   3      35.856   1.267 -36.943  1.00 32.42 LIG 0.04  A 
ATOM     16 HE1  TRP P   3      37.758   1.873 -36.960  1.00 33.71 LIG 0.17  HD
ATOM     17  CZ2 TRP P   3      35.539   0.700 -38.203  1.00 29.39 LIG 0.03  A 
ATOM     18  CD2 TRP P   3      34.881   1.420 -35.914  1.00 33.85 LIG-0.00  A 
ATOM     19  CH2 TRP P   3      34.280   0.207 -38.342  1.00 25.26 LIG 0.00  A 
ATOM     20  CZ3 TRP P   3      33.309   0.310 -37.351  1.00 33.31 LIG 0.00  A 
ATOM     21  CE3 TRP P   3      33.588   0.954 -36.133  1.00 32.67 LIG 0.01  A 
ENDBRANCH 11 12
ENDBRANCH 10 11
BRANCH 10 22
ATOM     22  N   TRP P   3      32.489   2.042 -32.558  1.00 48.62 LIG-0.34  N 
ATOM     23 H    TRP P   3      32.388   2.875 -32.750  1.00 48.62 LIG 0.16  HD
ATOM     24  C   ASP P   2      31.466   1.252 -32.165  1.00 44.46 LIG 0.26  C 
ATOM     25 O    ASP P   2      31.662   0.079 -31.748  1.00 32.12 LIG-0.27  OA
BRANCH 24 26
ATOM     26  CA  ASP P   2      29.976   1.814 -32.317  1.00 48.39 LIG 0.41  C 
ATOM     27  N   ASP P   2      29.797   3.040 -31.465  1.00 44.52 LIG 0.61  N 
BRANCH 26 28
ATOM     28  CB  ASP P   2      29.469   2.082 -33.783  1.00 55.68 LIG 0.16  C 
BRANCH 28 29
ATOM     29  CG  ASP P   2      30.282   3.247 -34.539  1.00 65.31 LIG 0.17  C 
ATOM     30 OD2  ASP P   2      30.867   3.002 -35.653  1.00 61.23 LIG-0.65  OA
ATOM     31 OD1  ASP P   2      30.347   4.408 -34.013  1.00 59.39 LIG-0.65  OA
ENDBRANCH 28 29
ENDBRANCH 26 28
ENDBRANCH 24 26
ENDBRANCH 10 22
ENDBRANCH 7 10
ENDBRANCH 5 6
BRANCH 5 32
ATOM     32  CB  ASN P   4      34.186   2.791 -28.063  1.00 62.15 LIG 0.14  C 
BRANCH 32 33
ATOM     33  CG  ASN P   4      35.380   3.419 -27.353  1.00 66.74 LIG 0.22  C 
ATOM     34 OD1  ASN P   4      36.519   3.295 -27.808  1.00 65.57 LIG-0.27  OA
ATOM     35  ND2 ASN P   4      35.131   4.074 -26.225  1.00 62.00 LIG-0.37  N 
ATOM     36 21HD ASN P   4      35.777   4.431 -25.783  1.00 62.00 LIG 0.16  HD
ATOM     37 22HD ASN P   4      34.324   4.142 -25.937  1.00 62.00 LIG 0.16  HD
ENDBRANCH 32 33
ENDBRANCH 5 32
ENDBRANCH 1 5
BRANCH 3 38
ATOM     38  CA  TRP P   5      34.135  -2.103 -28.583  1.00 39.30 LIG 0.18  C 
BRANCH 38 39
ATOM     39  CB  TRP P   5      32.928  -2.622 -29.392  1.00 34.53 LIG 0.07  C 
BRANCH 39 40
ATOM     40  CG  TRP P   5      33.236  -3.291 -30.692  1.00 28.80 LIG-0.03  A 
ATOM     41  CD1 TRP P   5      33.110  -2.740 -31.917  1.00 24.67 LIG 0.10  A 
ATOM     42  NE1 TRP P   5      33.430  -3.634 -32.864  1.00 28.39 LIG-0.36  N 
ATOM     43 HE1  TRP P   5      33.386  -3.492 -33.711  1.00 28.39 LIG 0.17  HD
ATOM     44  CE2 TRP P   5      33.836  -4.809 -32.280  1.00 28.85 LIG 0.04  A 
ATOM     45  CZ2 TRP P   5      34.313  -5.973 -32.846  1.00 29.12 LIG 0.03  A 
ATOM     46  CD2 TRP P   5      33.746  -4.622 -30.894  1.00 31.26 LIG-0.00  A 
ATOM     47  CH2 TRP P   5      34.624  -7.009 -32.001  1.00 31.42 LIG 0.00  A 
ATOM     48  CZ3 TRP P   5      34.463  -6.898 -30.609  1.00 31.13 LIG 0.00  A 
ATOM     49  CE3 TRP P   5      34.032  -5.704 -30.041  1.00 35.06 LIG 0.01  A 
ENDBRANCH 39 40
ENDBRANCH 38 39
BRANCH 38 50
ATOM     50  C   TRP P   5      35.334  -3.029 -28.550  1.00 44.67 LIG 0.24  C 
ATOM     51 O    TRP P   5      36.276  -2.858 -29.296  1.00 47.12 LIG-0.27  OA
ATOM     52  N   GLU P   6      35.292  -4.010 -27.668  1.00 57.45 LIG-0.35  N 
ATOM     53 H    GLU P   6      34.577  -4.241 -27.249  1.00 57.45 LIG 0.16  HD
BRANCH 52 54
ATOM     54  CA  GLU P   6      36.464  -4.799 -27.319  1.00 54.50 LIG 0.18  C 
BRANCH 54 55
ATOM     55  C   GLU P   6      36.121  -6.254 -27.289  1.00 56.45 LIG 0.24  C 
ATOM     56 O    GLU P   6      35.005  -6.638 -26.836  1.00 44.81 LIG-0.27  OA
ATOM     57  N   VAL P   7      37.076  -7.060 -27.760  1.00 47.96 LIG-0.35  N 
ATOM     58 H    VAL P   7      37.745  -6.790 -28.228  1.00 47.96 LIG 0.16  HD
BRANCH 57 59
ATOM     59  CA  VAL P   7      37.058  -8.478 -27.514  1.00 55.51 LIG 0.17  C 
BRANCH 59 60
ATOM     60  CB  VAL P   7      37.636  -9.256 -28.734  1.00 57.72 LIG 0.01  C 
ATOM     61  CG2 VAL P   7      38.942  -8.610 -29.222  1.00 57.86 LIG 0.01  C 
ATOM     62  CG1 VAL P   7      36.612  -9.414 -29.862  1.00 55.94 LIG 0.01  C 
ENDBRANCH 59 60
BRANCH 59 63
ATOM     63  C   VAL P   7      37.834  -8.691 -26.197  1.00 56.50 LIG 0.22  C 
ATOM     64 O    VAL P   7      37.403  -9.451 -25.323  1.00 61.93 LIG-0.29  OA
ENDBRANCH 59 63
ENDBRANCH 57 59
ENDBRANCH 54 55
BRANCH 54 65
ATOM     65  CB  GLU P   6      36.918  -4.439 -25.912  1.00 55.84 LIG 0.04  C 
BRANCH 65 66
ATOM     66  CG  GLU P   6      36.970  -5.624 -24.971  1.00 56.62 LIG 0.12  C 
BRANCH 66 67
ATOM     67  CD  GLU P   6      36.879  -5.209 -23.513  1.00 56.54 LIG 0.17  C 
ATOM     68 OE1  GLU P   6      36.855  -6.125 -22.619  1.00 46.52 LIG-0.65  OA
ATOM     69 OE2  GLU P   6      36.836  -3.961 -23.306  1.00 53.74 LIG-0.65  OA
ENDBRANCH 66 67
ENDBRANCH 65 66
ENDBRANCH 54 65
ENDBRANCH 52 54
ENDBRANCH 38 50
ENDBRANCH 3 38
TORSDOF 23
ENDMDL
MODEL 5
USER: ADFR SOLUTION from run 25
USER: SCORE 21.650626 LL:  -5.462 LR: -17.555 RR:   0.000 FEB: -10.695
USER: RMSD 2.507090
USER: SEED 24
USER: STATUS no improvement in best in 2 clusters for 5 generations
USER: GENES 25
USER: genes 0 Translation |==|  0.52439 0.56347 0.61156
USER: genes 1 Rotation |==|  0.39712 0.22286 0.63534 0.87986
USER: genes 2 Torsion [N]-C--CA-[N] |==|  0.40484
USER: genes 3 Torsion [C]-CA--N-[C] |==|  0.78831
USER: genes 4 Torsion [N]-C--CA-[N] |==|  0.91451
USER: genes 5 Torsion [C]-CA--CB-[CG] |==|  0.08087
USER: genes 6 Torsion [CA]-CB--CG-[CD2] |==|  0.28305
USER: genes 7 Torsion [C]-CA--N-[C] |==|  0.83699
USER: genes 8 Torsion [N]-C--CA-[N] |==|  0.27026
USER: genes 9 Torsion [C]-CA--CB-[CG] |==|  0.74960
USER: genes 10 Torsion [CA]-CB--CG-[OD2] |==|  0.44363
USER: genes 11 Torsion [C]-CA--CB-[CG] |==|  0.89501
USER: genes 12 Torsion [CA]-CB--CG-[ND2] |==|  0.33706
USER: genes 13 Torsion [C]-N--CA-[CB] |==|  0.17649
USER: genes 14 Torsion [N]-CA--CB-[CG] |==|  0.09777
USER: genes 15 Torsion [CA]-CB--CG-[CD1] |==|  0.73284
USER: genes 16 Torsion [N]-CA--C-[N] |==|  0.56211
USER: genes 17 Torsion [C]-N--CA-[C] |==|  0.62468
USER: genes 18 Torsion [N]-CA--C-[N] |==|  0.17731
USER: genes 19 Torsion [C]-N--CA-[CB] |==|  0.81150
USER: genes 20 Torsion [N]-CA--CB-[CG2] |==|  0.60778
USER: genes 21 Torsion [N]-CA--C-[O] |==|  0.24289
USER: genes 22 Torsion [N]-CA--CB-[CG] |==|  0.79148
USER: genes 23 Torsion [CA]-CB--CG-[CD] |==|  0.56851
USER: genes 24 Torsion [CB]-CG--CD-[OE1] |==|  0.10644
ROOT
ATOM      1  C   ASN P   4      34.392  -0.945 -29.021  1.00 47.61 LIG 0.24  C 
ATOM      2 O    ASN P   4      33.322  -0.970 -28.465  1.00 46.30 LIG-0.27  OA
ATOM      3  N   TRP P   5      35.215  -1.990 -28.958  1.00 43.61 LIG-0.35  N 
ATOM      4 H    TRP P   5      35.997  -2.046 -29.313  1.00 43.61 LIG 0.16  HD
ENDROOT
BRANCH 1 5
ATOM      5  CA  ASN P   4      34.800   0.289 -29.831  1.00 56.71 LIG 0.18  C 
BRANCH 5 6
ATOM      6  N   ASN P   4      33.626   0.889 -30.440  1.00 58.55 LIG-0.35  N 
ATOM      7  C   TRP P   3      33.066   0.345 -31.503  1.00 51.89 LIG 0.24  C 
ATOM      8 O    TRP P   3      33.594  -0.547 -32.169  1.00 53.51 LIG-0.27  OA
ATOM      9 H    ASN P   4      33.344   1.605 -30.054  1.00 58.55 LIG 0.16  HD
BRANCH 7 10
ATOM     10  CA  TRP P   3      31.779   0.932 -31.944  1.00 49.09 LIG 0.18  C 
BRANCH 10 11
ATOM     11  CB  TRP P   3      32.232   1.997 -32.945  1.00 45.21 LIG 0.07  C 
BRANCH 11 12
ATOM     12  CG  TRP P   3      33.575   1.778 -33.751  1.00 38.74 LIG-0.03  A 
ATOM     13  CD1 TRP P   3      34.888   2.052 -33.351  1.00 32.85 LIG 0.10  A 
ATOM     14  NE1 TRP P   3      35.774   1.799 -34.415  1.00 33.71 LIG-0.36  N 
ATOM     15  CE2 TRP P   3      35.057   1.356 -35.494  1.00 32.42 LIG 0.04  A 
ATOM     16 HE1  TRP P   3      36.627   1.906 -34.391  1.00 33.71 LIG 0.17  HD
ATOM     17  CZ2 TRP P   3      35.497   1.042 -36.804  1.00 29.39 LIG 0.03  A 
ATOM     18  CD2 TRP P   3      33.678   1.338 -35.134  1.00 33.85 LIG-0.00  A 
ATOM     19  CH2 TRP P   3      34.543   0.616 -37.674  1.00 25.26 LIG 0.00  A 
ATOM     20  CZ3 TRP P   3      33.191   0.556 -37.352  1.00 33.31 LIG 0.00  A 
ATOM     21  CE3 TRP P   3      32.735   0.954 -36.083  1.00 32.67 LIG 0.01  A 
ENDBRANCH 11 12
ENDBRANCH 10 11
BRANCH 10 22
ATOM     22  N   TRP P   3      30.937   1.508 -30.816  1.00 48.62 LIG-0.34  N 
ATOM     23 H    TRP P   3      30.759   2.344 -30.915  1.00 48.62 LIG 0.16  HD
ATOM     24  C   ASP P   2      30.503   0.788 -29.758  1.00 44.46 LIG 0.26  C 
ATOM     25 O    ASP P   2      30.896  -0.392 -29.559  1.00 32.12 LIG-0.27  OA
BRANCH 24 26
ATOM     26  CA  ASP P   2      29.407   1.446 -28.795  1.00 48.39 LIG 0.41  C 
ATOM     27  N   ASP P   2      28.034   0.966 -29.171  1.00 44.52 LIG 0.61  N 
BRANCH 26 28
ATOM     28  CB  ASP P   2      29.643   1.285 -27.246  1.00 55.68 LIG 0.16  C 
BRANCH 28 29
ATOM     29  CG  ASP P   2      28.967  -0.038 -26.629  1.00 65.31 LIG 0.17  C 
ATOM     30 OD2  ASP P   2      29.380  -0.508 -25.510  1.00 61.23 LIG-0.65  OA
ATOM     31 OD1  ASP P   2      28.028  -0.619 -27.270  1.00 59.39 LIG-0.65  OA
ENDBRANCH 28 29
ENDBRANCH 26 28
ENDBRANCH 24 26
ENDBRANCH 10 22
ENDBRANCH 7 10
ENDBRANCH 5 6
BRANCH 5 32
ATOM     32  CB  ASN P   4      35.547   1.343 -28.968  1.00 62.15 LIG 0.14  C 
BRANCH 32 33
ATOM     33  CG  ASN P   4      34.980   1.461 -27.557  1.00 66.74 LIG 0.22  C 
ATOM     34 OD1  ASN P   4      33.804   1.783 -27.376  1.00 65.57 LIG-0.27  OA
ATOM     35  ND2 ASN P   4      35.817   1.226 -26.553  1.00 62.00 LIG-0.37  N 
ATOM     36 21HD ASN P   4      35.543   1.297 -25.740  1.00 62.00 LIG 0.16  HD
ATOM     37 22HD ASN P   4      36.631   1.003 -26.715  1.00 62.00 LIG 0.16  HD
ENDBRANCH 32 33
ENDBRANCH 5 32
ENDBRANCH 1 5
BRANCH 3 38
ATOM     38  CA  TRP P   5      34.756  -3.147 -28.221  1.00 39.30 LIG 0.18  C 
BRANCH 38 39
ATOM     39  CB  TRP P   5      33.506  -3.803 -28.844  1.00 34.53 LIG 0.07  C 
BRANCH 39 40
ATOM     40  CG  TRP P   5      33.418  -3.786 -30.336  1.00 28.80 LIG-0.03  A 
ATOM     41  CD1 TRP P   5      32.750  -2.883 -31.081  1.00 24.67 LIG 0.10  A 
ATOM     42  NE1 TRP P   5      32.845  -3.192 -32.382  1.00 28.39 LIG-0.36  N 
ATOM     43 HE1  TRP P   5      32.464  -2.760 -33.021  1.00 28.39 LIG 0.17  HD
ATOM     44  CE2 TRP P   5      33.639  -4.301 -32.543  1.00 28.85 LIG 0.04  A 
ATOM     45  CZ2 TRP P   5      34.067  -4.939 -33.688  1.00 29.12 LIG 0.03  A 
ATOM     46  CD2 TRP P   5      34.042  -4.697 -31.260  1.00 31.26 LIG-0.00  A 
ATOM     47  CH2 TRP P   5      34.848  -6.058 -33.539  1.00 31.42 LIG 0.00  A 
ATOM     48  CZ3 TRP P   5      35.201  -6.545 -32.269  1.00 31.13 LIG 0.00  A 
ATOM     49  CE3 TRP P   5      34.810  -5.868 -31.119  1.00 35.06 LIG 0.01  A 
ENDBRANCH 39 40
ENDBRANCH 38 39
BRANCH 38 50
ATOM     50  C   TRP P   5      35.964  -4.055 -28.097  1.00 44.67 LIG 0.24  C 
ATOM     51 O    TRP P   5      37.090  -3.609 -28.186  1.00 47.12 LIG-0.27  OA
ATOM     52  N   GLU P   6      35.717  -5.333 -27.882  1.00 57.45 LIG-0.35  N 
ATOM     53 H    GLU P   6      34.939  -5.688 -27.975  1.00 57.45 LIG 0.16  HD
BRANCH 52 54
ATOM     54  CA  GLU P   6      36.750  -6.269 -27.463  1.00 54.50 LIG 0.18  C 
BRANCH 54 55
ATOM     55  C   GLU P   6      36.654  -7.536 -28.251  1.00 56.45 LIG 0.24  C 
ATOM     56 O    GLU P   6      36.386  -8.628 -27.674  1.00 44.81 LIG-0.27  OA
ATOM     57  N   VAL P   7      36.878  -7.396 -29.560  1.00 47.96 LIG-0.35  N 
ATOM     58 H    VAL P   7      36.878  -6.639 -29.969  1.00 47.96 LIG 0.16  HD
BRANCH 57 59
ATOM     59  CA  VAL P   7      37.145  -8.527 -30.407  1.00 55.51 LIG 0.17  C 
BRANCH 59 60
ATOM     60  CB  VAL P   7      38.524  -9.164 -30.058  1.00 57.72 LIG 0.01  C 
ATOM     61  CG2 VAL P   7      39.254  -9.614 -31.334  1.00 57.86 LIG 0.01  C 
ATOM     62  CG1 VAL P   7      38.399 -10.296 -29.033  1.00 55.94 LIG 0.01  C 
ENDBRANCH 59 60
BRANCH 59 63
ATOM     63  C   VAL P   7      35.943  -9.480 -30.237  1.00 56.50 LIG 0.22  C 
ATOM     64 O    VAL P   7      34.933  -9.358 -30.938  1.00 61.93 LIG-0.29  OA
ENDBRANCH 59 63
ENDBRANCH 57 59
ENDBRANCH 54 55
BRANCH 54 65
ATOM     65  CB  GLU P   6      36.525  -6.655 -26.008  1.00 55.84 LIG 0.04  C 
BRANCH 65 66
ATOM     66  CG  GLU P   6      36.918  -5.571 -25.027  1.00 56.62 LIG 0.12  C 
BRANCH 66 67
ATOM     67  CD  GLU P   6      37.261  -6.129 -23.656  1.00 56.54 LIG 0.17  C 
ATOM     68 OE1  GLU P   6      37.900  -7.237 -23.591  1.00 46.52 LIG-0.65  OA
ATOM     69 OE2  GLU P   6      36.876  -5.429 -22.674  1.00 53.74 LIG-0.65  OA
ENDBRANCH 66 67
ENDBRANCH 65 66
ENDBRANCH 54 65
ENDBRANCH 52 54
ENDBRANCH 38 50
ENDBRANCH 3 38
TORSDOF 23
ENDMDL
MODEL 6
USER: ADFR SOLUTION from run 87
USER: SCORE 21.769691 LL:  -5.635 LR: -17.481 RR:   0.000 FEB: -10.620
USER: RMSD 3.754148
USER: SEED 86
USER: STATUS 1 or 2 clusters left
USER: GENES 25
USER: genes 0 Translation |==|  0.52183 0.58442 0.64041
USER: genes 1 Rotation |==|  0.41326 0.21409 0.58225 0.89239
USER: genes 2 Torsion [N]-C--CA-[N] |==|  0.29009
USER: genes 3 Torsion [C]-CA--N-[C] |==|  0.69381
USER: genes 4 Torsion [N]-C--CA-[N] |==|  0.02767
USER: genes 5 Torsion [C]-CA--CB-[CG] |==|  0.30705
USER: genes 6 Torsion [CA]-CB--CG-[CD2] |==|  0.15619
USER: genes 7 Torsion [C]-CA--N-[C] |==|  0.76667
USER: genes 8 Torsion [N]-C--CA-[N] |==|  0.84520
USER: genes 9 Torsion [C]-CA--CB-[CG] |==|  0.83403
USER: genes 10 Torsion [CA]-CB--CG-[OD2] |==|  0.23696
USER: genes 11 Torsion [C]-CA--CB-[CG] |==|  0.78831
USER: genes 12 Torsion [CA]-CB--CG-[ND2] |==|  0.50646
USER: genes 13 Torsion [C]-N--CA-[CB] |==|  0.19022
USER: genes 14 Torsion [N]-CA--CB-[CG] |==|  0.15292
USER: genes 15 Torsion [CA]-CB--CG-[CD1] |==|  0.75835
USER: genes 16 Torsion [N]-CA--C-[N] |==|  0.48090
USER: genes 17 Torsion [C]-N--CA-[C] |==|  0.14650
USER: genes 18 Torsion [N]-CA--C-[N] |==|  0.13514
USER: genes 19 Torsion [C]-N--CA-[CB] |==|  0.44432
USER: genes 20 Torsion [N]-CA--CB-[CG2] |==|  0.81467
USER: genes 21 Torsion [N]-CA--C-[O] |==|  0.79514
USER: genes 22 Torsion [N]-CA--CB-[CG] |==|  0.77194
USER: genes 23 Torsion [CA]-CB--CG-[CD] |==|  0.80669
USER: genes 24 Torsion [CB]-CG--CD-[OE1] |==|  0.08616
ROOT
ATOM      1  C   ASN P   4      34.338  -0.458 -28.415  1.00 47.61 LIG 0.24  C 
ATOM      2 O    ASN P   4      33.254  -0.442 -27.887  1.00 46.30 LIG-0.27  OA
ATOM      3  N   TRP P   5      35.017  -1.597 -28.538  1.00 43.61 LIG-0.35  N 
ATOM      4 H    TRP P   5      35.798  -1.690 -28.887  1.00 43.61 LIG 0.16  HD
ENDROOT
BRANCH 1 5
ATOM      5  CA  ASN P   4      34.932   0.839 -28.975  1.00 56.71 LIG 0.18  C 
BRANCH 5 6
ATOM      6  N   ASN P   4      34.254   1.198 -30.208  1.00 58.55 LIG-0.35  N 
ATOM      7  C   TRP P   3      34.878   1.118 -31.367  1.00 51.89 LIG 0.24  C 
ATOM      8 O    TRP P   3      36.094   0.954 -31.476  1.00 53.51 LIG-0.27  OA
ATOM      9 H    ASN P   4      33.440   1.458 -30.111  1.00 58.55 LIG 0.16  HD
BRANCH 7 10
ATOM     10  CA  TRP P   3      34.053   1.341 -32.577  1.00 49.09 LIG 0.18  C 
BRANCH 10 11
ATOM     11  CB  TRP P   3      34.902   2.335 -33.373  1.00 45.21 LIG 0.07  C 
BRANCH 11 12
ATOM     12  CG  TRP P   3      35.594   1.859 -34.714  1.00 38.74 LIG-0.03  A 
ATOM     13  CD1 TRP P   3      36.934   1.991 -35.098  1.00 32.85 LIG 0.10  A 
ATOM     14  NE1 TRP P   3      37.102   1.519 -36.413  1.00 33.71 LIG-0.36  N 
ATOM     15  CE2 TRP P   3      35.894   1.075 -36.882  1.00 32.42 LIG 0.04  A 
ATOM     16 HE1  TRP P   3      37.842   1.511 -36.851  1.00 33.71 LIG 0.17  HD
ATOM     17  CZ2 TRP P   3      35.550   0.579 -38.165  1.00 29.39 LIG 0.03  A 
ATOM     18  CD2 TRP P   3      34.919   1.279 -35.863  1.00 33.85 LIG-0.00  A 
ATOM     19  CH2 TRP P   3      34.255   0.204 -38.338  1.00 25.26 LIG 0.00  A 
ATOM     20  CZ3 TRP P   3      33.280   0.359 -37.358  1.00 33.31 LIG 0.00  A 
ATOM     21  CE3 TRP P   3      33.593   0.936 -36.116  1.00 32.67 LIG 0.01  A 
ENDBRANCH 11 12
ENDBRANCH 10 11
BRANCH 10 22
ATOM     22  N   TRP P   3      32.653   1.865 -32.291  1.00 48.62 LIG-0.34  N 
ATOM     23 H    TRP P   3      32.589   2.720 -32.353  1.00 48.62 LIG 0.16  HD
ATOM     24  C   ASP P   2      31.606   1.074 -31.969  1.00 44.46 LIG 0.26  C 
ATOM     25 O    ASP P   2      31.756  -0.156 -31.740  1.00 32.12 LIG-0.27  OA
BRANCH 24 26
ATOM     26  CA  ASP P   2      30.143   1.723 -31.963  1.00 48.39 LIG 0.41  C 
ATOM     27  N   ASP P   2      30.112   2.916 -31.049  1.00 44.52 LIG 0.61  N 
BRANCH 26 28
ATOM     28  CB  ASP P   2      29.526   2.085 -33.365  1.00 55.68 LIG 0.16  C 
BRANCH 28 29
ATOM     29  CG  ASP P   2      30.406   3.145 -34.198  1.00 65.31 LIG 0.17  C 
ATOM     30 OD2  ASP P   2      31.381   2.739 -34.925  1.00 61.23 LIG-0.65  OA
ATOM     31 OD1  ASP P   2      30.130   4.388 -34.116  1.00 59.39 LIG-0.65  OA
ENDBRANCH 28 29
ENDBRANCH 26 28
ENDBRANCH 24 26
ENDBRANCH 10 22
ENDBRANCH 7 10
ENDBRANCH 5 6
BRANCH 5 32
ATOM     32  CB  ASN P   4      34.848   2.013 -27.962  1.00 62.15 LIG 0.14  C 
BRANCH 32 33
ATOM     33  CG  ASN P   4      33.445   2.602 -27.853  1.00 66.74 LIG 0.22  C 
ATOM     34 OD1  ASN P   4      32.513   2.134 -28.511  1.00 65.57 LIG-0.27  OA
ATOM     35  ND2 ASN P   4      33.292   3.643 -27.043  1.00 62.00 LIG-0.37  N 
ATOM     36 21HD ASN P   4      32.521   4.017 -26.963  1.00 62.00 LIG 0.16  HD
ATOM     37 22HD ASN P   4      33.964   3.944 -26.598  1.00 62.00 LIG 0.16  HD
ENDBRANCH 32 33
ENDBRANCH 5 32
ENDBRANCH 1 5
BRANCH 3 38
ATOM     38  CA  TRP P   5      34.386  -2.798 -28.036  1.00 39.30 LIG 0.18  C 
BRANCH 38 39
ATOM     39  CB  TRP P   5      33.154  -3.223 -28.863  1.00 34.53 LIG 0.07  C 
BRANCH 39 40
ATOM     40  CG  TRP P   5      33.369  -3.413 -30.329  1.00 28.80 LIG-0.03  A 
ATOM     41  CD1 TRP P   5      33.292  -2.453 -31.273  1.00 24.67 LIG 0.10  A 
ATOM     42  NE1 TRP P   5      33.498  -2.979 -32.489  1.00 28.39 LIG-0.36  N 
ATOM     43 HE1  TRP P   5      33.461  -2.542 -33.229  1.00 28.39 LIG 0.17  HD
ATOM     44  CE2 TRP P   5      33.775  -4.320 -32.379  1.00 28.85 LIG 0.04  A 
ATOM     45  CZ2 TRP P   5      34.110  -5.249 -33.341  1.00 29.12 LIG 0.03  A 
ATOM     46  CD2 TRP P   5      33.723  -4.630 -31.012  1.00 31.26 LIG-0.00  A 
ATOM     47  CH2 TRP P   5      34.312  -6.544 -32.933  1.00 31.42 LIG 0.00  A 
ATOM     48  CZ3 TRP P   5      34.180  -6.919 -31.585  1.00 31.13 LIG 0.00  A 
ATOM     49  CE3 TRP P   5      33.893  -5.968 -30.611  1.00 35.06 LIG 0.01  A 
ENDBRANCH 39 40
ENDBRANCH 38 39
BRANCH 38 50
ATOM     50  C   TRP P   5      35.491  -3.832 -27.952  1.00 44.67 LIG 0.24  C 
ATOM     51 O    TRP P   5      36.601  -3.595 -28.383  1.00 47.12 LIG-0.27  OA
ATOM     52  N   GLU P   6      35.177  -4.980 -27.382  1.00 57.45 LIG-0.35  N 
ATOM     53 H    GLU P   6      34.369  -5.223 -27.218  1.00 57.45 LIG 0.16  HD
BRANCH 52 54
ATOM     54  CA  GLU P   6      36.182  -5.950 -26.973  1.00 54.50 LIG 0.18  C 
BRANCH 54 55
ATOM     55  C   GLU P   6      37.211  -5.299 -26.105  1.00 56.45 LIG 0.24  C 
ATOM     56 O    GLU P   6      38.442  -5.474 -26.334  1.00 44.81 LIG-0.27  OA
ATOM     57  N   VAL P   7      36.713  -4.559 -25.112  1.00 47.96 LIG-0.35  N 
ATOM     58 H    VAL P   7      35.895  -4.297 -25.071  1.00 47.96 LIG 0.16  HD
BRANCH 57 59
ATOM     59  CA  VAL P   7      37.528  -4.132 -24.005  1.00 55.51 LIG 0.17  C 
BRANCH 59 60
ATOM     60  CB  VAL P   7      36.882  -2.911 -23.284  1.00 57.72 LIG 0.01  C 
ATOM     61  CG2 VAL P   7      36.880  -1.677 -24.199  1.00 57.86 LIG 0.01  C 
ATOM     62  CG1 VAL P   7      37.535  -2.625 -21.928  1.00 55.94 LIG 0.01  C 
ENDBRANCH 59 60
BRANCH 59 63
ATOM     63  C   VAL P   7      37.715  -5.374 -23.110  1.00 56.50 LIG 0.22  C 
ATOM     64 O    VAL P   7      36.789  -5.796 -22.409  1.00 61.93 LIG-0.29  OA
ENDBRANCH 59 63
ENDBRANCH 57 59
ENDBRANCH 54 55
BRANCH 54 65
ATOM     65  CB  GLU P   6      36.923  -6.462 -28.200  1.00 55.84 LIG 0.04  C 
BRANCH 65 66
ATOM     66  CG  GLU P   6      36.189  -7.565 -28.934  1.00 56.62 LIG 0.12  C 
BRANCH 66 67
ATOM     67  CD  GLU P   6      36.154  -8.861 -28.144  1.00 56.54 LIG 0.17  C 
ATOM     68 OE1  GLU P   6      36.139  -8.796 -26.866  1.00 46.52 LIG-0.65  OA
ATOM     69 OE2  GLU P   6      36.141  -9.920 -28.839  1.00 53.74 LIG-0.65  OA
ENDBRANCH 66 67
ENDBRANCH 65 66
ENDBRANCH 54 65
ENDBRANCH 52 54
ENDBRANCH 38 50
ENDBRANCH 3 38
TORSDOF 23
ENDMDL
MODEL 7
USER: ADFR SOLUTION from run 115
USER: SCORE 20.764307 LL:  -5.526 LR: -17.044 RR:   0.000 FEB: -10.183
USER: RMSD 4.745833
USER: SEED 114
USER: STATUS no improvement in best in 3 clusters for 5 generations
USER: GENES 25
USER: genes 0 Translation |==|  0.51540 0.63086 0.63710
USER: genes 1 Rotation |==|  0.51876 0.55377 0.42577 0.99117
USER: genes 2 Torsion [N]-C--CA-[N] |==|  0.98760
USER: genes 3 Torsion [C]-CA--N-[C] |==|  0.79439
USER: genes 4 Torsion [N]-C--CA-[N] |==|  0.92377
USER: genes 5 Torsion [C]-CA--CB-[CG] |==|  0.34491
USER: genes 6 Torsion [CA]-CB--CG-[CD2] |==|  0.12518
USER: genes 7 Torsion [C]-CA--N-[C] |==|  0.80025
USER: genes 8 Torsion [N]-C--CA-[N] |==|  0.60882
USER: genes 9 Torsion [C]-CA--CB-[CG] |==|  0.19740
USER: genes 10 Torsion [CA]-CB--CG-[OD2] |==|  0.97310
USER: genes 11 Torsion [C]-CA--CB-[CG] |==|  0.81926
USER: genes 12 Torsion [CA]-CB--CG-[ND2] |==|  0.36946
USER: genes 13 Torsion [C]-N--CA-[CB] |==|  0.36411
USER: genes 14 Torsion [N]-CA--CB-[CG] |==|  0.84461
USER: genes 15 Torsion [CA]-CB--CG-[CD1] |==|  0.13693
USER: genes 16 Torsion [N]-CA--C-[N] |==|  0.33012
USER: genes 17 Torsion [C]-N--CA-[C] |==|  0.82122
USER: genes 18 Torsion [N]-CA--C-[N] |==|  0.40604
USER: genes 19 Torsion [C]-N--CA-[CB] |==|  0.29982
USER: genes 20 Torsion [N]-CA--CB-[CG2] |==|  0.15192
USER: genes 21 Torsion [N]-CA--C-[O] |==|  0.37029
USER: genes 22 Torsion [N]-CA--CB-[CG] |==|  0.44360
USER: genes 23 Torsion [CA]-CB--CG-[CD] |==|  0.62866
USER: genes 24 Torsion [CB]-CG--CD-[OE1] |==|  0.84134
ROOT
ATOM      1  C   ASN P   4      34.203   0.622 -28.485  1.00 47.61 LIG 0.24  C 
ATOM      2 O    ASN P   4      34.518   0.301 -27.365  1.00 46.30 LIG-0.27  OA
ATOM      3  N   TRP P   5      33.354  -0.122 -29.191  1.00 43.61 LIG-0.35  N 
ATOM      4 H    TRP P   5      33.092   0.029 -29.996  1.00 43.61 LIG 0.16  HD
ENDROOT
BRANCH 1 5
ATOM      5  CA  ASN P   4      34.766   1.910 -29.094  1.00 56.71 LIG 0.18  C 
BRANCH 5 6
ATOM      6  N   ASN P   4      34.313   2.044 -30.467  1.00 58.55 LIG-0.35  N 
ATOM      7  C   TRP P   3      34.824   1.292 -31.422  1.00 51.89 LIG 0.24  C 
ATOM      8 O    TRP P   3      35.835   0.603 -31.278  1.00 53.51 LIG-0.27  OA
ATOM      9 H    ASN P   4      33.703   2.639 -30.590  1.00 58.55 LIG 0.16  HD
BRANCH 7 10
ATOM     10  CA  TRP P   3      34.177   1.384 -32.752  1.00 49.09 LIG 0.18  C 
BRANCH 10 11
ATOM     11  CB  TRP P   3      35.040   2.429 -33.462  1.00 45.21 LIG 0.07  C 
BRANCH 11 12
ATOM     12  CG  TRP P   3      35.717   2.063 -34.844  1.00 38.74 LIG-0.03  A 
ATOM     13  CD1 TRP P   3      36.997   2.394 -35.304  1.00 32.85 LIG 0.10  A 
ATOM     14  NE1 TRP P   3      37.158   1.952 -36.630  1.00 33.71 LIG-0.36  N 
ATOM     15  CE2 TRP P   3      36.006   1.331 -37.033  1.00 32.42 LIG 0.04  A 
ATOM     16 HE1  TRP P   3      37.864   2.054 -37.109  1.00 33.71 LIG 0.17  HD
ATOM     17  CZ2 TRP P   3      35.666   0.789 -38.298  1.00 29.39 LIG 0.03  A 
ATOM     18  CD2 TRP P   3      35.071   1.387 -35.958  1.00 33.85 LIG-0.00  A 
ATOM     19  CH2 TRP P   3      34.434   0.224 -38.400  1.00 25.26 LIG 0.00  A 
ATOM     20  CZ3 TRP P   3      33.505   0.231 -37.365  1.00 33.31 LIG 0.00  A 
ATOM     21  CE3 TRP P   3      33.800   0.849 -36.137  1.00 32.67 LIG 0.01  A 
ENDBRANCH 11 12
ENDBRANCH 10 11
BRANCH 10 22
ATOM     22  N   TRP P   3      32.707   1.771 -32.706  1.00 48.62 LIG-0.34  N 
ATOM     23 H    TRP P   3      32.556   2.572 -32.982  1.00 48.62 LIG 0.16  HD
ATOM     24  C   ASP P   2      31.726   0.948 -32.275  1.00 44.46 LIG 0.26  C 
ATOM     25 O    ASP P   2      31.986  -0.163 -31.739  1.00 32.12 LIG-0.27  OA
BRANCH 24 26
ATOM     26  CA  ASP P   2      30.208   1.381 -32.535  1.00 48.39 LIG 0.41  C 
ATOM     27  N   ASP P   2      29.360   1.031 -31.345  1.00 44.52 LIG 0.61  N 
BRANCH 26 28
ATOM     28  CB  ASP P   2      29.965   2.877 -32.964  1.00 55.68 LIG 0.16  C 
BRANCH 28 29
ATOM     29  CG  ASP P   2      30.463   3.204 -34.459  1.00 65.31 LIG 0.17  C 
ATOM     30 OD2  ASP P   2      31.161   2.345 -35.105  1.00 61.23 LIG-0.65  OA
ATOM     31 OD1  ASP P   2      30.167   4.329 -34.984  1.00 59.39 LIG-0.65  OA
ENDBRANCH 28 29
ENDBRANCH 26 28
ENDBRANCH 24 26
ENDBRANCH 10 22
ENDBRANCH 7 10
ENDBRANCH 5 6
BRANCH 5 32
ATOM     32  CB  ASN P   4      34.371   3.172 -28.279  1.00 62.15 LIG 0.14  C 
BRANCH 32 33
ATOM     33  CG  ASN P   4      32.869   3.438 -28.291  1.00 66.74 LIG 0.22  C 
ATOM     34 OD1  ASN P   4      32.236   3.421 -29.349  1.00 65.57 LIG-0.27  OA
ATOM     35  ND2 ASN P   4      32.297   3.707 -27.123  1.00 62.00 LIG-0.37  N 
ATOM     36 21HD ASN P   4      31.455   3.880 -27.086  1.00 62.00 LIG 0.16  HD
ATOM     37 22HD ASN P   4      32.769   3.710 -26.405  1.00 62.00 LIG 0.16  HD
ENDBRANCH 32 33
ENDBRANCH 5 32
ENDBRANCH 1 5
BRANCH 3 38
ATOM     38  CA  TRP P   5      32.816  -1.300 -28.546  1.00 39.30 LIG 0.18  C 
BRANCH 38 39
ATOM     39  CB  TRP P   5      31.281  -1.409 -28.670  1.00 34.53 LIG 0.07  C 
BRANCH 39 40
ATOM     40  CG  TRP P   5      30.488  -0.246 -28.168  1.00 28.80 LIG-0.03  A 
ATOM     41  CD1 TRP P   5      30.706   1.051 -28.469  1.00 24.67 LIG 0.10  A 
ATOM     42  NE1 TRP P   5      29.836   1.832 -27.812  1.00 28.39 LIG-0.36  N 
ATOM     43 HE1  TRP P   5      29.825   2.692 -27.842  1.00 28.39 LIG 0.17  HD
ATOM     44  CE2 TRP P   5      28.966   1.057 -27.085  1.00 28.85 LIG 0.04  A 
ATOM     45  CZ2 TRP P   5      27.878   1.411 -26.315  1.00 29.12 LIG 0.03  A 
ATOM     46  CD2 TRP P   5      29.338  -0.278 -27.304  1.00 31.26 LIG-0.00  A 
ATOM     47  CH2 TRP P   5      27.199   0.405 -25.674  1.00 31.42 LIG 0.00  A 
ATOM     48  CZ3 TRP P   5      27.591  -0.940 -25.792  1.00 31.13 LIG 0.00  A 
ATOM     49  CE3 TRP P   5      28.657  -1.296 -26.612  1.00 35.06 LIG 0.01  A 
ENDBRANCH 39 40
ENDBRANCH 38 39
BRANCH 38 50
ATOM     50  C   TRP P   5      33.592  -2.467 -29.122  1.00 44.67 LIG 0.24  C 
ATOM     51 O    TRP P   5      33.565  -2.708 -30.311  1.00 47.12 LIG-0.27  OA
ATOM     52  N   GLU P   6      34.293  -3.185 -28.264  1.00 57.45 LIG-0.35  N 
ATOM     53 H    GLU P   6      34.199  -3.130 -27.411  1.00 57.45 LIG 0.16  HD
BRANCH 52 54
ATOM     54  CA  GLU P   6      35.300  -4.146 -28.688  1.00 54.50 LIG 0.18  C 
BRANCH 54 55
ATOM     55  C   GLU P   6      34.665  -5.259 -29.459  1.00 56.45 LIG 0.24  C 
ATOM     56 O    GLU P   6      33.505  -5.662 -29.160  1.00 44.81 LIG-0.27  OA
ATOM     57  N   VAL P   7      35.421  -5.758 -30.440  1.00 47.96 LIG-0.35  N 
ATOM     58 H    VAL P   7      36.120  -5.368 -30.754  1.00 47.96 LIG 0.16  HD
BRANCH 57 59
ATOM     59  CA  VAL P   7      35.117  -7.019 -31.062  1.00 55.51 LIG 0.17  C 
BRANCH 59 60
ATOM     60  CB  VAL P   7      34.571  -6.805 -32.506  1.00 57.72 LIG 0.01  C 
ATOM     61  CG2 VAL P   7      35.552  -5.964 -33.338  1.00 57.86 LIG 0.01  C 
ATOM     62  CG1 VAL P   7      33.156  -6.218 -32.512  1.00 55.94 LIG 0.01  C 
ENDBRANCH 59 60
BRANCH 59 63
ATOM     63  C   VAL P   7      36.413  -7.854 -30.989  1.00 56.50 LIG 0.22  C 
ATOM     64 O    VAL P   7      36.389  -9.031 -30.613  1.00 61.93 LIG-0.29  OA
ENDBRANCH 59 63
ENDBRANCH 57 59
ENDBRANCH 54 55
BRANCH 54 65
ATOM     65  CB  GLU P   6      35.939  -4.786 -27.464  1.00 55.84 LIG 0.04  C 
BRANCH 65 66
ATOM     66  CG  GLU P   6      36.622  -6.105 -27.758  1.00 56.62 LIG 0.12  C 
BRANCH 66 67
ATOM     67  CD  GLU P   6      36.269  -7.177 -26.742  1.00 56.54 LIG 0.17  C 
ATOM     68 OE1  GLU P   6      36.507  -6.947 -25.505  1.00 46.52 LIG-0.65  OA
ATOM     69 OE2  GLU P   6      35.756  -8.231 -27.222  1.00 53.74 LIG-0.65  OA
ENDBRANCH 66 67
ENDBRANCH 65 66
ENDBRANCH 54 65
ENDBRANCH 52 54
ENDBRANCH 38 50
ENDBRANCH 3 38
TORSDOF 23
ENDMDL
