MODEL 1
USER: ADFR SOLUTION from run 35
USER: SCORE 12.926094 LL:  -2.585 LR: -11.196 RR:   0.000 FEB:  -7.020
USER: RMSD 2.182679
USER: SEED 34
USER: STATUS 1 or 2 clusters left
USER: GENES 16
USER: genes 0 Translation |==|  0.52242 0.45137 0.48428
USER: genes 1 Rotation |==|  0.46127 0.50870 0.49487 0.99840
USER: genes 2 Torsion [N]-CA--C-[N] |==|  0.33666
USER: genes 3 Torsion [C]-N--CA-[C] |==|  0.84381
USER: genes 4 Torsion [N]-CA--C-[N] |==|  0.37998
USER: genes 5 Torsion [C]-N--CA-[C] |==|  0.31402
USER: genes 6 Torsion [N]-CA--C-[N] |==|  0.01111
USER: genes 7 Torsion [N]-CA--CB-[CG2] |==|  0.39851
USER: genes 8 Torsion [CA]-CB--OG1-[HG1] |==|  0.62232
USER: genes 9 Torsion [C]-CA--CB-[CG] |==|  0.61415
USER: genes 10 Torsion [CA]-CB--CG-[CD2] |==|  0.86956
USER: genes 11 Torsion [C]-CA--N-[C] |==|  0.74270
USER: genes 12 Torsion [N]-C--CA-[N] |==|  0.53860
USER: genes 13 Torsion [C]-CA--N-[C] |==|  0.68481
USER: genes 14 Torsion [C]-CA--CB-[CG] |==|  0.51568
USER: genes 15 Torsion [CA]-CB--CG-[CD2] |==|  0.88774
ROOT
ATOM      1  CA  HIS E   2      15.500  -9.697   2.229  1.00 15.97 LIG 0.18  C 
ENDROOT
BRANCH 1 2
ATOM      2  C   HIS E   2      14.132 -10.349   2.322  1.00 15.29 LIG 0.24  C 
ATOM      3  N   THR E   3      14.007 -11.535   1.732  1.00 22.30 LIG-0.34  N 
ATOM      4 H    THR E   3      14.642 -11.923   1.302  1.00 22.30 LIG 0.16  HD
ATOM      5 O    HIS E   2      13.213  -9.802   2.926  1.00 12.62 LIG-0.27  OA
BRANCH 3 6
ATOM      6  CA  THR E   3      12.761 -12.289   1.767  1.00 13.35 LIG 0.20  C 
BRANCH 6 7
ATOM      7  C   THR E   3      12.303 -12.532   3.195  1.00 17.92 LIG 0.24  C 
ATOM      8  N   GLY E   4      11.005 -12.358   3.440  1.00 20.63 LIG-0.35  N 
ATOM      9 H    GLY E   4      10.455 -12.022   2.870  1.00 20.63 LIG 0.16  HD
ATOM     10 O    THR E   3      13.117 -12.818   4.072  1.00 20.63 LIG-0.27  OA
BRANCH 8 11
ATOM     11  CA  GLY E   4      10.395 -12.724   4.707  1.00 21.12 LIG 0.23  C 
BRANCH 11 12
ATOM     12  C   GLY E   4       9.868 -11.603   5.585  1.00 30.37 LIG 0.28  C 
ATOM     13 O    GLY E   4       9.422 -11.853   6.702  1.00 22.56 LIG-0.27  OA
ATOM     14  N   NH2 E   5       9.928 -10.368   5.093  1.00 46.70 LIG-0.11  N 
ENDBRANCH 11 12
ENDBRANCH 8 11
ENDBRANCH 6 7
BRANCH 6 15
ATOM     15  CB  THR E   3      12.925 -13.639   1.045  1.00 21.65 LIG 0.15  C 
ATOM     16  CG2 THR E   3      12.141 -14.722   1.738  1.00 26.78 LIG 0.04  C 
BRANCH 15 17
ATOM     17 OG1  THR E   3      12.455 -13.509  -0.301  1.00 29.20 LIG-0.39  OA
ATOM     18 HG1  THR E   3      11.987 -14.178  -0.500  1.00 29.20 LIG 0.21  HD
ENDBRANCH 15 17
ENDBRANCH 6 15
ENDBRANCH 3 6
ENDBRANCH 1 2
BRANCH 1 19
ATOM     19  CB  HIS E   2      16.094  -9.566   3.628  1.00 16.39 LIG 0.10  C 
BRANCH 19 20
ATOM     20  CG  HIS E   2      16.793  -8.263   3.868  1.00 27.51 LIG 0.06  A 
ATOM     21  CD2 HIS E   2      17.695  -7.585   3.119  1.00 25.75 LIG 0.14  A 
ATOM     22 NE2  HIS E   2      18.013  -6.439   3.808  1.00 29.28 LIG-0.25  NA
ATOM     23  CE1 HIS E   2      17.333  -6.414   4.939  1.00 28.87 LIG 0.23  A 
ATOM     24 ND1  HIS E   2      16.586  -7.502   4.999  1.00 29.28 LIG-0.24  NA
ENDBRANCH 19 20
ENDBRANCH 1 19
BRANCH 1 25
ATOM     25  N   HIS E   2      15.432  -8.389   1.576  1.00 15.79 LIG-0.35  N 
ATOM     26 H    HIS E   2      15.265  -7.736   2.110  1.00 15.79 LIG 0.16  HD
ATOM     27  C   PHE E   1      15.616  -8.247   0.269  1.00 15.11 LIG 0.24  C 
ATOM     28 O    PHE E   1      15.843  -9.190  -0.481  1.00 17.78 LIG-0.27  OA
BRANCH 27 29
ATOM     29  CA  PHE E   1      15.524  -6.826  -0.278  1.00 10.43 LIG 0.18  C 
BRANCH 29 30
ATOM     30  N   PHE E   1      15.415  -6.837  -1.727  1.00 15.82 LIG-0.35  N 
ATOM     31 H    PHE E   1      14.680  -7.179  -2.013  1.00 15.82 LIG 0.16  HD
ATOM     32  C   ACE E   0      16.358  -6.363  -2.543  1.00 20.55 LIG 0.21  C 
ATOM     33 O    ACE E   0      16.205  -6.377  -3.769  1.00 32.51 LIG-0.27  OA
ATOM     34  CH3 ACE E   0      17.587  -5.780  -1.907  1.00 11.71 LIG 0.12  C 
ENDBRANCH 29 30
BRANCH 29 35
ATOM     35  CB  PHE E   1      14.330  -6.104   0.348  1.00  9.28 LIG 0.07  C 
BRANCH 35 36
ATOM     36  CG  PHE E   1      14.072  -4.739  -0.225  1.00 12.52 LIG-0.06  A 
ATOM     37  CD1 PHE E   1      12.775  -4.303  -0.448  1.00 10.90 LIG 0.01  A 
ATOM     38  CE1 PHE E   1      12.525  -3.047  -0.960  1.00 11.94 LIG 0.00  A 
ATOM     39  CZ  PHE E   1      13.581  -2.211  -1.265  1.00  8.92 LIG 0.00  A 
ATOM     40  CE2 PHE E   1      14.890  -2.639  -1.037  1.00  8.81 LIG 0.00  A 
ATOM     41  CD2 PHE E   1      15.125  -3.888  -0.525  1.00 12.38 LIG 0.01  A 
ENDBRANCH 35 36
ENDBRANCH 29 35
ENDBRANCH 27 29
ENDBRANCH 1 25
TORSDOF 14
ENDMDL
MODEL 2
USER: ADFR SOLUTION from run 61
USER: SCORE 13.666057 LL:  -2.889 LR: -11.139 RR:   0.000 FEB:  -6.963
USER: RMSD 2.024624
USER: SEED 60
USER: STATUS 1 or 2 clusters left
USER: GENES 16
USER: genes 0 Translation |==|  0.52394 0.44085 0.49050
USER: genes 1 Rotation |==|  0.52373 0.53667 0.48345 0.99781
USER: genes 2 Torsion [N]-CA--C-[N] |==|  0.40556
USER: genes 3 Torsion [C]-N--CA-[C] |==|  0.83744
USER: genes 4 Torsion [N]-CA--C-[N] |==|  0.38321
USER: genes 5 Torsion [C]-N--CA-[C] |==|  0.28795
USER: genes 6 Torsion [N]-CA--C-[N] |==|  0.02703
USER: genes 7 Torsion [N]-CA--CB-[CG2] |==|  0.39773
USER: genes 8 Torsion [CA]-CB--OG1-[HG1] |==|  0.70000
USER: genes 9 Torsion [C]-CA--CB-[CG] |==|  0.85441
USER: genes 10 Torsion [CA]-CB--CG-[CD2] |==|  0.73262
USER: genes 11 Torsion [C]-CA--N-[C] |==|  0.75072
USER: genes 12 Torsion [N]-C--CA-[N] |==|  0.28937
USER: genes 13 Torsion [C]-CA--N-[C] |==|  0.74983
USER: genes 14 Torsion [C]-CA--CB-[CG] |==|  0.49044
USER: genes 15 Torsion [CA]-CB--CG-[CD2] |==|  0.68954
ROOT
ATOM      1  CA  HIS E   2      15.529  -9.918   2.331  1.00 15.97 LIG 0.18  C 
ENDROOT
BRANCH 1 2
ATOM      2  C   HIS E   2      14.133 -10.511   2.415  1.00 15.29 LIG 0.24  C 
ATOM      3  N   THR E   3      14.004 -11.766   1.992  1.00 22.30 LIG-0.34  N 
ATOM      4 H    THR E   3      14.651 -12.230   1.669  1.00 22.30 LIG 0.16  HD
ATOM      5 O    HIS E   2      13.196  -9.856   2.865  1.00 12.62 LIG-0.27  OA
BRANCH 3 6
ATOM      6  CA  THR E   3      12.730 -12.471   2.042  1.00 13.35 LIG 0.20  C 
BRANCH 6 7
ATOM      7  C   THR E   3      12.193 -12.541   3.461  1.00 17.92 LIG 0.24  C 
ATOM      8  N   GLY E   4      10.887 -12.322   3.613  1.00 20.63 LIG-0.35  N 
ATOM      9 H    GLY E   4      10.374 -12.048   2.979  1.00 20.63 LIG 0.16  HD
ATOM     10 O    THR E   3      12.953 -12.733   4.408  1.00 20.63 LIG-0.27  OA
BRANCH 8 11
ATOM     11  CA  GLY E   4      10.204 -12.531   4.879  1.00 21.12 LIG 0.23  C 
BRANCH 11 12
ATOM     12  C   GLY E   4       9.846 -11.303   5.697  1.00 30.37 LIG 0.28  C 
ATOM     13 O    GLY E   4       9.445 -11.427   6.851  1.00 22.56 LIG-0.27  OA
ATOM     14  N   NH2 E   5      10.001 -10.118   5.111  1.00 46.70 LIG-0.11  N 
ENDBRANCH 11 12
ENDBRANCH 8 11
ENDBRANCH 6 7
BRANCH 6 15
ATOM     15  CB  THR E   3      12.878 -13.896   1.479  1.00 21.65 LIG 0.15  C 
ATOM     16  CG2 THR E   3      12.027 -14.872   2.247  1.00 26.78 LIG 0.04  C 
BRANCH 15 17
ATOM     17 OG1  THR E   3      12.475 -13.902   0.106  1.00 29.20 LIG-0.39  OA
ATOM     18 HG1  THR E   3      11.738 -14.298   0.032  1.00 29.20 LIG 0.21  HD
ENDBRANCH 15 17
ENDBRANCH 6 15
ENDBRANCH 3 6
ENDBRANCH 1 2
BRANCH 1 19
ATOM     19  CB  HIS E   2      16.264 -10.167   3.645  1.00 16.39 LIG 0.10  C 
BRANCH 19 20
ATOM     20  CG  HIS E   2      15.505  -9.718   4.856  1.00 27.51 LIG 0.06  A 
ATOM     21  CD2 HIS E   2      15.570  -8.571   5.573  1.00 25.75 LIG 0.14  A 
ATOM     22 NE2  HIS E   2      14.651  -8.676   6.589  1.00 29.28 LIG-0.25  NA
ATOM     23  CE1 HIS E   2      14.044  -9.845   6.500  1.00 28.87 LIG 0.23  A 
ATOM     24 ND1  HIS E   2      14.539 -10.494   5.461  1.00 29.28 LIG-0.24  NA
ENDBRANCH 19 20
ENDBRANCH 1 19
BRANCH 1 25
ATOM     25  N   HIS E   2      15.491  -8.487   2.029  1.00 15.79 LIG-0.35  N 
ATOM     26 H    HIS E   2      15.463  -7.979   2.723  1.00 15.79 LIG 0.16  HD
ATOM     27  C   PHE E   1      15.500  -8.033   0.781  1.00 15.11 LIG 0.24  C 
ATOM     28 O    PHE E   1      15.530  -8.770  -0.198  1.00 17.78 LIG-0.27  OA
BRANCH 27 29
ATOM     29  CA  PHE E   1      15.463  -6.518   0.611  1.00 10.43 LIG 0.18  C 
BRANCH 29 30
ATOM     30  N   PHE E   1      16.774  -6.008   0.245  1.00 15.82 LIG-0.35  N 
ATOM     31 H    PHE E   1      16.904  -5.978  -0.605  1.00 15.82 LIG 0.16  HD
ATOM     32  C   ACE E   0      17.692  -5.620   1.131  1.00 20.55 LIG 0.21  C 
ATOM     33 O    ACE E   0      18.784  -5.173   0.764  1.00 32.51 LIG-0.27  OA
ATOM     34  CH3 ACE E   0      17.325  -5.713   2.584  1.00 11.71 LIG 0.12  C 
ENDBRANCH 29 30
BRANCH 29 35
ATOM     35  CB  PHE E   1      14.421  -6.137  -0.441  1.00  9.28 LIG 0.07  C 
BRANCH 35 36
ATOM     36  CG  PHE E   1      14.250  -4.655  -0.624  1.00 12.52 LIG-0.06  A 
ATOM     37  CD1 PHE E   1      15.260  -3.895  -1.196  1.00 10.90 LIG 0.01  A 
ATOM     38  CE1 PHE E   1      15.109  -2.538  -1.382  1.00 11.94 LIG 0.00  A 
ATOM     39  CZ  PHE E   1      13.939  -1.919  -0.985  1.00  8.92 LIG 0.00  A 
ATOM     40  CE2 PHE E   1      12.916  -2.676  -0.414  1.00  8.81 LIG 0.00  A 
ATOM     41  CD2 PHE E   1      13.076  -4.026  -0.238  1.00 12.38 LIG 0.01  A 
ENDBRANCH 35 36
ENDBRANCH 29 35
ENDBRANCH 27 29
ENDBRANCH 1 25
TORSDOF 14
ENDMDL
MODEL 3
USER: ADFR SOLUTION from run 18
USER: SCORE 12.653468 LL:  -2.782 LR: -10.996 RR:   0.000 FEB:  -6.820
USER: RMSD 2.720105
USER: SEED 17
USER: STATUS no improvement in best in 2 clusters for 5 generations
USER: GENES 16
USER: genes 0 Translation |==|  0.60037 0.53829 0.51412
USER: genes 1 Rotation |==|  0.51118 0.42547 0.50740 0.99423
USER: genes 2 Torsion [N]-CA--C-[N] |==|  0.57534
USER: genes 3 Torsion [C]-N--CA-[C] |==|  0.62413
USER: genes 4 Torsion [N]-CA--C-[N] |==|  0.46110
USER: genes 5 Torsion [C]-N--CA-[C] |==|  0.33323
USER: genes 6 Torsion [N]-CA--C-[N] |==|  0.97630
USER: genes 7 Torsion [N]-CA--CB-[CG2] |==|  0.56329
USER: genes 8 Torsion [CA]-CB--OG1-[HG1] |==|  0.38516
USER: genes 9 Torsion [C]-CA--CB-[CG] |==|  0.68993
USER: genes 10 Torsion [CA]-CB--CG-[CD2] |==|  0.83308
USER: genes 11 Torsion [C]-CA--N-[C] |==|  0.69444
USER: genes 12 Torsion [N]-C--CA-[N] |==|  0.36116
USER: genes 13 Torsion [C]-CA--N-[C] |==|  0.70137
USER: genes 14 Torsion [C]-CA--CB-[CG] |==|  0.27076
USER: genes 15 Torsion [CA]-CB--CG-[CD2] |==|  0.80227
ROOT
ATOM      1  CA  HIS E   2      16.962  -7.872   2.721  1.00 15.97 LIG 0.18  C 
ENDROOT
BRANCH 1 2
ATOM      2  C   HIS E   2      15.709  -8.582   2.238  1.00 15.29 LIG 0.24  C 
ATOM      3  N   THR E   3      15.316  -9.630   2.957  1.00 22.30 LIG-0.34  N 
ATOM      4 H    THR E   3      15.738  -9.920   3.648  1.00 22.30 LIG 0.16  HD
ATOM      5 O    HIS E   2      15.102  -8.184   1.247  1.00 12.62 LIG-0.27  OA
BRANCH 3 6
ATOM      6  CA  THR E   3      14.116 -10.387   2.628  1.00 13.35 LIG 0.20  C 
BRANCH 6 7
ATOM      7  C   THR E   3      13.291 -10.680   3.870  1.00 17.92 LIG 0.24  C 
ATOM      8  N   GLY E   4      12.045 -11.107   3.667  1.00 20.63 LIG-0.35  N 
ATOM      9 H    GLY E   4      11.667 -11.120   2.895  1.00 20.63 LIG 0.16  HD
ATOM     10 O    THR E   3      13.753 -10.472   4.990  1.00 20.63 LIG-0.27  OA
BRANCH 8 11
ATOM     11  CA  GLY E   4      11.203 -11.594   4.747  1.00 21.12 LIG 0.23  C 
BRANCH 11 12
ATOM     12  C   GLY E   4       9.900 -10.862   5.009  1.00 30.37 LIG 0.28  C 
ATOM     13 O    GLY E   4       9.087 -11.317   5.810  1.00 22.56 LIG-0.27  OA
ATOM     14  N   NH2 E   5       9.701  -9.723   4.350  1.00 46.70 LIG-0.11  N 
ENDBRANCH 11 12
ENDBRANCH 8 11
ENDBRANCH 6 7
BRANCH 6 15
ATOM     15  CB  THR E   3      14.484 -11.710   1.933  1.00 21.65 LIG 0.15  C 
ATOM     16  CG2 THR E   3      13.334 -12.229   1.112  1.00 26.78 LIG 0.04  C 
BRANCH 15 17
ATOM     17 OG1  THR E   3      15.610 -11.492   1.077  1.00 29.20 LIG-0.39  OA
ATOM     18 HG1  THR E   3      16.142 -12.139   1.143  1.00 29.20 LIG 0.21  HD
ENDBRANCH 15 17
ENDBRANCH 6 15
ENDBRANCH 3 6
ENDBRANCH 1 2
BRANCH 1 19
ATOM     19  CB  HIS E   2      17.066  -8.005   4.238  1.00 16.39 LIG 0.10  C 
BRANCH 19 20
ATOM     20  CG  HIS E   2      16.871  -6.714   4.972  1.00 27.51 LIG 0.06  A 
ATOM     21  CD2 HIS E   2      17.558  -5.549   4.921  1.00 25.75 LIG 0.14  A 
ATOM     22 NE2  HIS E   2      16.955  -4.684   5.802  1.00 29.28 LIG-0.25  NA
ATOM     23  CE1 HIS E   2      15.935  -5.296   6.375  1.00 28.87 LIG 0.23  A 
ATOM     24 ND1  HIS E   2      15.860  -6.523   5.890  1.00 29.28 LIG-0.24  NA
ENDBRANCH 19 20
ENDBRANCH 1 19
BRANCH 1 25
ATOM     25  N   HIS E   2      16.969  -6.462   2.329  1.00 15.79 LIG-0.35  N 
ATOM     26 H    HIS E   2      16.392  -5.977   2.741  1.00 15.79 LIG 0.16  HD
ATOM     27  C   PHE E   1      17.807  -5.994   1.410  1.00 15.11 LIG 0.24  C 
ATOM     28 O    PHE E   1      18.618  -6.701   0.823  1.00 17.78 LIG-0.27  OA
BRANCH 27 29
ATOM     29  CA  PHE E   1      17.711  -4.504   1.103  1.00 10.43 LIG 0.18  C 
BRANCH 29 30
ATOM     30  N   PHE E   1      19.023  -3.880   1.153  1.00 15.82 LIG-0.35  N 
ATOM     31 H    PHE E   1      19.526  -4.088   0.487  1.00 15.82 LIG 0.16  HD
ATOM     32  C   ACE E   0      19.418  -3.065   2.132  1.00 20.55 LIG 0.21  C 
ATOM     33 O    ACE E   0      20.538  -2.544   2.114  1.00 32.51 LIG-0.27  OA
ATOM     34  CH3 ACE E   0      18.431  -2.778   3.227  1.00 11.71 LIG 0.12  C 
ENDBRANCH 29 30
BRANCH 29 35
ATOM     35  CB  PHE E   1      17.065  -4.294  -0.267  1.00  9.28 LIG 0.07  C 
BRANCH 35 36
ATOM     36  CG  PHE E   1      15.594  -3.993  -0.210  1.00 12.52 LIG-0.06  A 
ATOM     37  CD1 PHE E   1      15.122  -2.726  -0.523  1.00 10.90 LIG 0.01  A 
ATOM     38  CE1 PHE E   1      13.774  -2.441  -0.488  1.00 11.94 LIG 0.00  A 
ATOM     39  CZ  PHE E   1      12.875  -3.427  -0.128  1.00  8.92 LIG 0.00  A 
ATOM     40  CE2 PHE E   1      13.340  -4.706   0.182  1.00  8.81 LIG 0.00  A 
ATOM     41  CD2 PHE E   1      14.683  -4.978   0.140  1.00 12.38 LIG 0.01  A 
ENDBRANCH 35 36
ENDBRANCH 29 35
ENDBRANCH 27 29
ENDBRANCH 1 25
TORSDOF 14
ENDMDL
MODEL 4
USER: ADFR SOLUTION from run 111
USER: SCORE 13.024250 LL:  -2.880 LR: -10.713 RR:   0.000 FEB:  -6.537
USER: RMSD 2.691802
USER: SEED 110
USER: STATUS 1 or 2 clusters left
USER: GENES 16
USER: genes 0 Translation |==|  0.53439 0.47355 0.48253
USER: genes 1 Rotation |==|  0.45779 0.52396 0.49521 0.99762
USER: genes 2 Torsion [N]-CA--C-[N] |==|  0.29624
USER: genes 3 Torsion [C]-N--CA-[C] |==|  0.84078
USER: genes 4 Torsion [N]-CA--C-[N] |==|  0.37335
USER: genes 5 Torsion [C]-N--CA-[C] |==|  0.75719
USER: genes 6 Torsion [N]-CA--C-[N] |==|  0.03964
USER: genes 7 Torsion [N]-CA--CB-[CG2] |==|  0.35548
USER: genes 8 Torsion [CA]-CB--OG1-[HG1] |==|  0.52967
USER: genes 9 Torsion [C]-CA--CB-[CG] |==|  0.09071
USER: genes 10 Torsion [CA]-CB--CG-[CD2] |==|  0.67914
USER: genes 11 Torsion [C]-CA--N-[C] |==|  0.77157
USER: genes 12 Torsion [N]-C--CA-[N] |==|  0.49444
USER: genes 13 Torsion [C]-CA--N-[C] |==|  0.68896
USER: genes 14 Torsion [C]-CA--CB-[CG] |==|  0.52483
USER: genes 15 Torsion [CA]-CB--CG-[CD2] |==|  0.89344
ROOT
ATOM      1  CA  HIS E   2      15.725  -9.232   2.200  1.00 15.97 LIG 0.18  C 
ENDROOT
BRANCH 1 2
ATOM      2  C   HIS E   2      14.363  -9.878   2.385  1.00 15.29 LIG 0.24  C 
ATOM      3  N   THR E   3      14.091 -10.908   1.589  1.00 22.30 LIG-0.34  N 
ATOM      4 H    THR E   3      14.628 -11.200   0.985  1.00 22.30 LIG 0.16  HD
ATOM      5 O    HIS E   2      13.581  -9.465   3.238  1.00 12.62 LIG-0.27  OA
BRANCH 3 6
ATOM      6  CA  THR E   3      12.835 -11.642   1.677  1.00 13.35 LIG 0.20  C 
BRANCH 6 7
ATOM      7  C   THR E   3      12.621 -12.205   3.072  1.00 17.92 LIG 0.24  C 
ATOM      8  N   GLY E   4      11.408 -12.040   3.598  1.00 20.63 LIG-0.35  N 
ATOM      9 H    GLY E   4      10.796 -11.552   3.240  1.00 20.63 LIG 0.16  HD
ATOM     10 O    THR E   3      13.550 -12.730   3.682  1.00 20.63 LIG-0.27  OA
BRANCH 8 11
ATOM     11  CA  GLY E   4      11.005 -12.676   4.841  1.00 21.12 LIG 0.23  C 
BRANCH 11 12
ATOM     12  C   GLY E   4      10.420 -14.075   4.759  1.00 30.37 LIG 0.28  C 
ATOM     13 O    GLY E   4       9.818 -14.548   5.718  1.00 22.56 LIG-0.27  OA
ATOM     14  N   NH2 E   5      10.582 -14.733   3.613  1.00 46.70 LIG-0.11  N 
ENDBRANCH 11 12
ENDBRANCH 8 11
ENDBRANCH 6 7
BRANCH 6 15
ATOM     15  CB  THR E   3      12.807 -12.789   0.651  1.00 21.65 LIG 0.15  C 
ATOM     16  CG2 THR E   3      12.457 -14.097   1.311  1.00 26.78 LIG 0.04  C 
BRANCH 15 17
ATOM     17 OG1  THR E   3      11.830 -12.496  -0.353  1.00 29.20 LIG-0.39  OA
ATOM     18 HG1  THR E   3      11.704 -13.176  -0.830  1.00 29.20 LIG 0.21  HD
ENDBRANCH 15 17
ENDBRANCH 6 15
ENDBRANCH 3 6
ENDBRANCH 1 2
BRANCH 1 19
ATOM     19  CB  HIS E   2      16.403  -9.083   3.559  1.00 16.39 LIG 0.10  C 
BRANCH 19 20
ATOM     20  CG  HIS E   2      16.062 -10.174   4.527  1.00 27.51 LIG 0.06  A 
ATOM     21  CD2 HIS E   2      15.401 -10.140   5.708  1.00 25.75 LIG 0.14  A 
ATOM     22 NE2  HIS E   2      15.364 -11.428   6.187  1.00 29.28 LIG-0.25  NA
ATOM     23  CE1 HIS E   2      15.980 -12.223   5.332  1.00 28.87 LIG 0.23  A 
ATOM     24 ND1  HIS E   2      16.409 -11.492   4.318  1.00 29.28 LIG-0.24  NA
ENDBRANCH 19 20
ENDBRANCH 1 19
BRANCH 1 25
ATOM     25  N   HIS E   2      15.620  -7.932   1.535  1.00 15.79 LIG-0.35  N 
ATOM     26 H    HIS E   2      15.629  -7.259   2.070  1.00 15.79 LIG 0.16  HD
ATOM     27  C   PHE E   1      15.521  -7.826   0.215  1.00 15.11 LIG 0.24  C 
ATOM     28 O    PHE E   1      15.499  -8.796  -0.534  1.00 17.78 LIG-0.27  OA
BRANCH 27 29
ATOM     29  CA  PHE E   1      15.425  -6.410  -0.345  1.00 10.43 LIG 0.18  C 
BRANCH 29 30
ATOM     30  N   PHE E   1      15.369  -6.432  -1.797  1.00 15.82 LIG-0.35  N 
ATOM     31 H    PHE E   1      14.640  -6.770  -2.106  1.00 15.82 LIG 0.16  HD
ATOM     32  C   ACE E   0      16.345  -5.976  -2.583  1.00 20.55 LIG 0.21  C 
ATOM     33 O    ACE E   0      16.235  -5.998  -3.814  1.00 32.51 LIG-0.27  OA
ATOM     34  CH3 ACE E   0      17.556  -5.399  -1.909  1.00 11.71 LIG 0.12  C 
ENDBRANCH 29 30
BRANCH 29 35
ATOM     35  CB  PHE E   1      14.200  -5.702   0.234  1.00  9.28 LIG 0.07  C 
BRANCH 35 36
ATOM     36  CG  PHE E   1      13.895  -4.381  -0.413  1.00 12.52 LIG-0.06  A 
ATOM     37  CD1 PHE E   1      12.582  -3.989  -0.630  1.00 10.90 LIG 0.01  A 
ATOM     38  CE1 PHE E   1      12.290  -2.772  -1.209  1.00 11.94 LIG 0.00  A 
ATOM     39  CZ  PHE E   1      13.318  -1.931  -1.588  1.00  8.92 LIG 0.00  A 
ATOM     40  CE2 PHE E   1      14.642  -2.314  -1.367  1.00  8.81 LIG 0.00  A 
ATOM     41  CD2 PHE E   1      14.920  -3.524  -0.788  1.00 12.38 LIG 0.01  A 
ENDBRANCH 35 36
ENDBRANCH 29 35
ENDBRANCH 27 29
ENDBRANCH 1 25
TORSDOF 14
ENDMDL
MODEL 5
USER: ADFR SOLUTION from run 21
USER: SCORE 12.436647 LL:  -2.788 LR: -10.143 RR:   0.000 FEB:  -5.966
USER: RMSD 2.336917
USER: SEED 20
USER: STATUS no improvement in best in 2 clusters for 5 generations
USER: GENES 16
USER: genes 0 Translation |==|  0.50738 0.43972 0.49670
USER: genes 1 Rotation |==|  0.51934 0.44028 0.48824 0.99590
USER: genes 2 Torsion [N]-CA--C-[N] |==|  0.31681
USER: genes 3 Torsion [C]-N--CA-[C] |==|  0.83183
USER: genes 4 Torsion [N]-CA--C-[N] |==|  0.92472
USER: genes 5 Torsion [C]-N--CA-[C] |==|  0.15500
USER: genes 6 Torsion [N]-CA--C-[N] |==|  0.64539
USER: genes 7 Torsion [N]-CA--CB-[CG2] |==|  0.27980
USER: genes 8 Torsion [CA]-CB--OG1-[HG1] |==|  0.77574
USER: genes 9 Torsion [C]-CA--CB-[CG] |==|  0.62499
USER: genes 10 Torsion [CA]-CB--CG-[CD2] |==|  0.82302
USER: genes 11 Torsion [C]-CA--N-[C] |==|  0.77719
USER: genes 12 Torsion [N]-C--CA-[N] |==|  0.31704
USER: genes 13 Torsion [C]-CA--N-[C] |==|  0.72255
USER: genes 14 Torsion [C]-CA--CB-[CG] |==|  0.46183
USER: genes 15 Torsion [CA]-CB--CG-[CD2] |==|  0.69821
ROOT
ATOM      1  CA  HIS E   2      15.218  -9.942   2.434  1.00 15.97 LIG 0.18  C 
ENDROOT
BRANCH 1 2
ATOM      2  C   HIS E   2      13.892 -10.542   2.003  1.00 15.29 LIG 0.24  C 
ATOM      3  N   THR E   3      13.949 -11.460   1.041  1.00 22.30 LIG-0.34  N 
ATOM      4 H    THR E   3      14.679 -11.704   0.657  1.00 22.30 LIG 0.16  HD
ATOM      5 O    HIS E   2      12.840 -10.196   2.536  1.00 12.62 LIG-0.27  OA
BRANCH 3 6
ATOM      6  CA  THR E   3      12.759 -12.141   0.550  1.00 13.35 LIG 0.20  C 
BRANCH 6 7
ATOM      7  C   THR E   3      12.069 -12.917   1.660  1.00 17.92 LIG 0.24  C 
ATOM      8  N   GLY E   4      12.842 -13.335   2.660  1.00 20.63 LIG-0.35  N 
ATOM      9 H    GLY E   4      13.701 -13.281   2.652  1.00 20.63 LIG 0.16  HD
ATOM     10 O    THR E   3      10.870 -13.179   1.585  1.00 20.63 LIG-0.27  OA
BRANCH 8 11
ATOM     11  CA  GLY E   4      12.298 -13.929   3.869  1.00 21.12 LIG 0.23  C 
BRANCH 11 12
ATOM     12  C   GLY E   4      11.394 -15.139   3.715  1.00 30.37 LIG 0.28  C 
ATOM     13 O    GLY E   4      11.773 -16.113   3.070  1.00 22.56 LIG-0.27  OA
ATOM     14  N   NH2 E   5      10.206 -15.089   4.313  1.00 46.70 LIG-0.11  N 
ENDBRANCH 11 12
ENDBRANCH 8 11
ENDBRANCH 6 7
BRANCH 6 15
ATOM     15  CB  THR E   3      13.119 -13.100  -0.599  1.00 21.65 LIG 0.15  C 
ATOM     16  CG2 THR E   3      13.199 -14.523  -0.110  1.00 26.78 LIG 0.04  C 
BRANCH 15 17
ATOM     17 OG1  THR E   3      12.117 -13.010  -1.617  1.00 29.20 LIG-0.39  OA
ATOM     18 HG1  THR E   3      11.452 -13.475  -1.398  1.00 29.20 LIG 0.21  HD
ENDBRANCH 15 17
ENDBRANCH 6 15
ENDBRANCH 3 6
ENDBRANCH 1 2
BRANCH 1 19
ATOM     19  CB  HIS E   2      15.404 -10.149   3.934  1.00 16.39 LIG 0.10  C 
BRANCH 19 20
ATOM     20  CG  HIS E   2      15.894  -8.932   4.657  1.00 27.51 LIG 0.06  A 
ATOM     21  CD2 HIS E   2      17.055  -8.244   4.554  1.00 25.75 LIG 0.14  A 
ATOM     22 NE2  HIS E   2      16.989  -7.203   5.449  1.00 29.28 LIG-0.25  NA
ATOM     23  CE1 HIS E   2      15.830  -7.252   6.080  1.00 28.87 LIG 0.23  A 
ATOM     24 ND1  HIS E   2      15.148  -8.285   5.618  1.00 29.28 LIG-0.24  NA
ENDBRANCH 19 20
ENDBRANCH 1 19
BRANCH 1 25
ATOM     25  N   HIS E   2      15.302  -8.520   2.099  1.00 15.79 LIG-0.35  N 
ATOM     26 H    HIS E   2      15.140  -7.991   2.758  1.00 15.79 LIG 0.16  HD
ATOM     27  C   PHE E   1      15.604  -8.104   0.875  1.00 15.11 LIG 0.24  C 
ATOM     28 O    PHE E   1      15.822  -8.871  -0.057  1.00 17.78 LIG-0.27  OA
BRANCH 27 29
ATOM     29  CA  PHE E   1      15.663  -6.594   0.667  1.00 10.43 LIG 0.18  C 
BRANCH 29 30
ATOM     30  N   PHE E   1      17.018  -6.168   0.358  1.00 15.82 LIG-0.35  N 
ATOM     31 H    PHE E   1      17.237  -6.295  -0.465  1.00 15.82 LIG 0.16  HD
ATOM     32  C   ACE E   0      17.849  -5.632   1.253  1.00 20.55 LIG 0.21  C 
ATOM     33 O    ACE E   0      18.984  -5.267   0.930  1.00 32.51 LIG-0.27  OA
ATOM     34  CH3 ACE E   0      17.330  -5.457   2.651  1.00 11.71 LIG 0.12  C 
ENDBRANCH 29 30
BRANCH 29 35
ATOM     35  CB  PHE E   1      14.699  -6.183  -0.446  1.00  9.28 LIG 0.07  C 
BRANCH 35 36
ATOM     36  CG  PHE E   1      14.436  -4.705  -0.512  1.00 12.52 LIG-0.06  A 
ATOM     37  CD1 PHE E   1      15.414  -3.836  -0.972  1.00 10.90 LIG 0.01  A 
ATOM     38  CE1 PHE E   1      15.179  -2.479  -1.051  1.00 11.94 LIG 0.00  A 
ATOM     39  CZ  PHE E   1      13.955  -1.973  -0.658  1.00  8.92 LIG 0.00  A 
ATOM     40  CE2 PHE E   1      12.963  -2.841  -0.201  1.00  8.81 LIG 0.00  A 
ATOM     41  CD2 PHE E   1      13.207  -4.188  -0.131  1.00 12.38 LIG 0.01  A 
ENDBRANCH 35 36
ENDBRANCH 29 35
ENDBRANCH 27 29
ENDBRANCH 1 25
TORSDOF 14
ENDMDL
MODEL 6
USER: ADFR SOLUTION from run 2
USER: SCORE 12.004818 LL:  -2.963 LR:  -9.857 RR:   0.000 FEB:  -5.681
USER: RMSD 3.087595
USER: SEED 985362
USER: STATUS searching
USER: GENES 16
USER: genes 0 Translation |==|  0.59878 0.51389 0.53924
USER: genes 1 Rotation |==|  0.43591 0.53889 0.53345 0.99322
USER: genes 2 Torsion [N]-CA--C-[N] |==|  0.55556
USER: genes 3 Torsion [C]-N--CA-[C] |==|  0.80697
USER: genes 4 Torsion [N]-CA--C-[N] |==|  0.40736
USER: genes 5 Torsion [C]-N--CA-[C] |==|  0.82429
USER: genes 6 Torsion [N]-CA--C-[N] |==|  0.88896
USER: genes 7 Torsion [N]-CA--CB-[CG2] |==|  0.58080
USER: genes 8 Torsion [CA]-CB--OG1-[HG1] |==|  0.84627
USER: genes 9 Torsion [C]-CA--CB-[CG] |==|  0.77227
USER: genes 10 Torsion [CA]-CB--CG-[CD2] |==|  0.75805
USER: genes 11 Torsion [C]-CA--N-[C] |==|  0.74060
USER: genes 12 Torsion [N]-C--CA-[N] |==|  0.36494
USER: genes 13 Torsion [C]-CA--N-[C] |==|  0.71098
USER: genes 14 Torsion [C]-CA--CB-[CG] |==|  0.46116
USER: genes 15 Torsion [CA]-CB--CG-[CD2] |==|  0.62865
ROOT
ATOM      1  CA  HIS E   2      16.932  -8.384   3.136  1.00 15.97 LIG 0.18  C 
ENDROOT
BRANCH 1 2
ATOM      2  C   HIS E   2      15.701  -9.206   3.477  1.00 15.29 LIG 0.24  C 
ATOM      3  N   THR E   3      15.835 -10.072   4.477  1.00 22.30 LIG-0.34  N 
ATOM      4 H    THR E   3      16.568 -10.193   4.910  1.00 22.30 LIG 0.16  HD
ATOM      5 O    HIS E   2      14.649  -9.051   2.861  1.00 12.62 LIG-0.27  OA
BRANCH 3 6
ATOM      6  CA  THR E   3      14.729 -10.905   4.932  1.00 13.35 LIG 0.20  C 
BRANCH 6 7
ATOM      7  C   THR E   3      13.662 -10.074   5.625  1.00 17.92 LIG 0.24  C 
ATOM      8  N   GLY E   4      12.403 -10.485   5.478  1.00 20.63 LIG-0.35  N 
ATOM      9 H    GLY E   4      12.167 -11.113   4.940  1.00 20.63 LIG 0.16  HD
ATOM     10 O    THR E   3      13.965  -9.051   6.235  1.00 20.63 LIG-0.27  OA
BRANCH 8 11
ATOM     11  CA  GLY E   4      11.301  -9.900   6.223  1.00 21.12 LIG 0.23  C 
BRANCH 11 12
ATOM     12  C   GLY E   4      11.314 -10.049   7.734  1.00 30.37 LIG 0.28  C 
ATOM     13 O    GLY E   4      10.955  -9.117   8.449  1.00 22.56 LIG-0.27  OA
ATOM     14  N   NH2 E   5      11.713 -11.221   8.224  1.00 46.70 LIG-0.11  N 
ENDBRANCH 11 12
ENDBRANCH 8 11
ENDBRANCH 6 7
BRANCH 6 15
ATOM     15  CB  THR E   3      15.233 -11.996   5.894  1.00 21.65 LIG 0.15  C 
ATOM     16  CG2 THR E   3      14.363 -13.223   5.824  1.00 26.78 LIG 0.04  C 
BRANCH 15 17
ATOM     17 OG1  THR E   3      16.574 -12.352   5.537  1.00 29.20 LIG-0.39  OA
ATOM     18 HG1  THR E   3      16.597 -12.582   4.729  1.00 29.20 LIG 0.21  HD
ENDBRANCH 15 17
ENDBRANCH 6 15
ENDBRANCH 3 6
ENDBRANCH 1 2
BRANCH 1 19
ATOM     19  CB  HIS E   2      17.670  -8.021   4.421  1.00 16.39 LIG 0.10  C 
BRANCH 19 20
ATOM     20  CG  HIS E   2      17.099  -6.833   5.131  1.00 27.51 LIG 0.06  A 
ATOM     21  CD2 HIS E   2      17.341  -5.509   4.988  1.00 25.75 LIG 0.14  A 
ATOM     22 NE2  HIS E   2      16.542  -4.851   5.892  1.00 29.28 LIG-0.25  NA
ATOM     23  CE1 HIS E   2      15.834  -5.739   6.566  1.00 28.87 LIG 0.23  A 
ATOM     24 ND1  HIS E   2      16.149  -6.944   6.124  1.00 29.28 LIG-0.24  NA
ENDBRANCH 19 20
ENDBRANCH 1 19
BRANCH 1 25
ATOM     25  N   HIS E   2      16.585  -7.176   2.386  1.00 15.79 LIG-0.35  N 
ATOM     26 H    HIS E   2      16.379  -6.502   2.878  1.00 15.79 LIG 0.16  HD
ATOM     27  C   PHE E   1      16.593  -7.148   1.058  1.00 15.11 LIG 0.24  C 
ATOM     28 O    PHE E   1      16.879  -8.122   0.371  1.00 17.78 LIG-0.27  OA
BRANCH 27 29
ATOM     29  CA  PHE E   1      16.217  -5.822   0.407  1.00 10.43 LIG 0.18  C 
BRANCH 29 30
ATOM     30  N   PHE E   1      17.184  -5.454  -0.613  1.00 15.82 LIG-0.35  N 
ATOM     31 H    PHE E   1      17.100  -5.903  -1.343  1.00 15.82 LIG 0.16  HD
ATOM     32  C   ACE E   0      18.116  -4.515  -0.446  1.00 20.55 LIG 0.21  C 
ATOM     33 O    ACE E   0      18.901  -4.227  -1.355  1.00 32.51 LIG-0.27  OA
ATOM     34  CH3 ACE E   0      18.141  -3.801   0.875  1.00 11.71 LIG 0.12  C 
ENDBRANCH 29 30
BRANCH 29 35
ATOM     35  CB  PHE E   1      14.811  -5.915  -0.189  1.00  9.28 LIG 0.07  C 
BRANCH 35 36
ATOM     36  CG  PHE E   1      14.214  -4.586  -0.558  1.00 12.52 LIG-0.06  A 
ATOM     37  CD1 PHE E   1      14.954  -3.656  -1.274  1.00 10.90 LIG 0.01  A 
ATOM     38  CE1 PHE E   1      14.411  -2.439  -1.630  1.00 11.94 LIG 0.00  A 
ATOM     39  CZ  PHE E   1      13.115  -2.134  -1.262  1.00  8.92 LIG 0.00  A 
ATOM     40  CE2 PHE E   1      12.362  -3.066  -0.547  1.00  8.81 LIG 0.00  A 
ATOM     41  CD2 PHE E   1      12.910  -4.274  -0.202  1.00 12.38 LIG 0.01  A 
ENDBRANCH 35 36
ENDBRANCH 29 35
ENDBRANCH 27 29
ENDBRANCH 1 25
TORSDOF 14
ENDMDL
MODEL 7
USER: ADFR SOLUTION from run 10
USER: SCORE 12.044413 LL:  -3.065 LR:  -9.419 RR:   0.000 FEB:  -5.243
USER: RMSD 3.068430
USER: SEED 748461
USER: STATUS no improvement in best in 2 clusters for 5 generations
USER: GENES 16
USER: genes 0 Translation |==|  0.47823 0.43798 0.53129
USER: genes 1 Rotation |==|  0.50737 0.69544 0.35269 0.93595
USER: genes 2 Torsion [N]-CA--C-[N] |==|  0.36207
USER: genes 3 Torsion [C]-N--CA-[C] |==|  0.86111
USER: genes 4 Torsion [N]-CA--C-[N] |==|  0.37062
USER: genes 5 Torsion [C]-N--CA-[C] |==|  0.22811
USER: genes 6 Torsion [N]-CA--C-[N] |==|  0.99476
USER: genes 7 Torsion [N]-CA--CB-[CG2] |==|  0.64451
USER: genes 8 Torsion [CA]-CB--OG1-[HG1] |==|  0.74110
USER: genes 9 Torsion [C]-CA--CB-[CG] |==|  0.88276
USER: genes 10 Torsion [CA]-CB--CG-[CD2] |==|  0.80776
USER: genes 11 Torsion [C]-CA--N-[C] |==|  0.63943
USER: genes 12 Torsion [N]-C--CA-[N] |==|  0.27231
USER: genes 13 Torsion [C]-CA--N-[C] |==|  0.73487
USER: genes 14 Torsion [C]-CA--CB-[CG] |==|  0.40666
USER: genes 15 Torsion [CA]-CB--CG-[CD2] |==|  0.20941
ROOT
ATOM      1  CA  HIS E   2      14.672  -9.978   3.004  1.00 15.97 LIG 0.18  C 
ENDROOT
BRANCH 1 2
ATOM      2  C   HIS E   2      13.568  -9.847   4.039  1.00 15.29 LIG 0.24  C 
ATOM      3  N   THR E   3      12.518 -10.648   3.880  1.00 22.30 LIG-0.34  N 
ATOM      4 H    THR E   3      12.436 -11.203   3.228  1.00 22.30 LIG 0.16  HD
ATOM      5 O    HIS E   2      13.669  -9.051   4.970  1.00 12.62 LIG-0.27  OA
BRANCH 3 6
ATOM      6  CA  THR E   3      11.400 -10.651   4.813  1.00 13.35 LIG 0.20  C 
BRANCH 6 7
ATOM      7  C   THR E   3      11.879 -10.772   6.250  1.00 17.92 LIG 0.24  C 
ATOM      8  N   GLY E   4      11.336  -9.933   7.130  1.00 20.63 LIG-0.35  N 
ATOM      9 H    GLY E   4      10.823  -9.279   6.909  1.00 20.63 LIG 0.16  HD
ATOM     10 O    THR E   3      12.765 -11.572   6.546  1.00 20.63 LIG-0.27  OA
BRANCH 8 11
ATOM     11  CA  GLY E   4      11.562 -10.050   8.561  1.00 21.12 LIG 0.23  C 
BRANCH 11 12
ATOM     12  C   GLY E   4      12.842  -9.457   9.122  1.00 30.37 LIG 0.28  C 
ATOM     13 O    GLY E   4      13.070  -9.510  10.327  1.00 22.56 LIG-0.27  OA
ATOM     14  N   NH2 E   5      13.686  -8.904   8.253  1.00 46.70 LIG-0.11  N 
ENDBRANCH 11 12
ENDBRANCH 8 11
ENDBRANCH 6 7
BRANCH 6 15
ATOM     15  CB  THR E   3      10.434 -11.807   4.496  1.00 21.65 LIG 0.15  C 
ATOM     16  CG2 THR E   3       9.019 -11.309   4.363  1.00 26.78 LIG 0.04  C 
BRANCH 15 17
ATOM     17 OG1  THR E   3      10.830 -12.426   3.267  1.00 29.20 LIG-0.39  OA
ATOM     18 HG1  THR E   3      10.409 -12.077   2.630  1.00 29.20 LIG 0.21  HD
ENDBRANCH 15 17
ENDBRANCH 6 15
ENDBRANCH 3 6
ENDBRANCH 1 2
BRANCH 1 19
ATOM     19  CB  HIS E   2      15.873 -10.679   3.632  1.00 16.39 LIG 0.10  C 
BRANCH 19 20
ATOM     20  CG  HIS E   2      16.188 -10.212   5.020  1.00 27.51 LIG 0.06  A 
ATOM     21  CD2 HIS E   2      16.674  -9.032   5.474  1.00 25.75 LIG 0.14  A 
ATOM     22 NE2  HIS E   2      16.772  -9.134   6.841  1.00 29.28 LIG-0.25  NA
ATOM     23  CE1 HIS E   2      16.362 -10.332   7.213  1.00 28.87 LIG 0.23  A 
ATOM     24 ND1  HIS E   2      16.000 -11.003   6.134  1.00 29.28 LIG-0.24  NA
ENDBRANCH 19 20
ENDBRANCH 1 19
BRANCH 1 25
ATOM     25  N   HIS E   2      15.063  -8.676   2.464  1.00 15.79 LIG-0.35  N 
ATOM     26 H    HIS E   2      15.233  -8.081   3.061  1.00 15.79 LIG 0.16  HD
ATOM     27  C   PHE E   1      15.144  -8.455   1.157  1.00 15.11 LIG 0.24  C 
ATOM     28 O    PHE E   1      14.889  -9.311   0.317  1.00 17.78 LIG-0.27  OA
BRANCH 27 29
ATOM     29  CA  PHE E   1      15.570  -7.054   0.732  1.00 10.43 LIG 0.18  C 
BRANCH 29 30
ATOM     30  N   PHE E   1      16.989  -7.018   0.419  1.00 15.82 LIG-0.35  N 
ATOM     31 H    PHE E   1      17.168  -7.261  -0.387  1.00 15.82 LIG 0.16  HD
ATOM     32  C   ACE E   0      17.930  -6.648   1.289  1.00 20.55 LIG 0.21  C 
ATOM     33 O    ACE E   0      19.122  -6.615   0.963  1.00 32.51 LIG-0.27  OA
ATOM     34  CH3 ACE E   0      17.474  -6.235   2.659  1.00 11.71 LIG 0.12  C 
ENDBRANCH 29 30
BRANCH 29 35
ATOM     35  CB  PHE E   1      14.740  -6.598  -0.469  1.00  9.28 LIG 0.07  C 
BRANCH 35 36
ATOM     36  CG  PHE E   1      14.458  -5.122  -0.492  1.00 12.52 LIG-0.06  A 
ATOM     37  CD1 PHE E   1      13.206  -4.640  -0.141  1.00 10.90 LIG 0.01  A 
ATOM     38  CE1 PHE E   1      12.939  -3.287  -0.144  1.00 11.94 LIG 0.00  A 
ATOM     39  CZ  PHE E   1      13.928  -2.395  -0.511  1.00  8.92 LIG 0.00  A 
ATOM     40  CE2 PHE E   1      15.193  -2.872  -0.860  1.00  8.81 LIG 0.00  A 
ATOM     41  CD2 PHE E   1      15.447  -4.218  -0.849  1.00 12.38 LIG 0.01  A 
ENDBRANCH 35 36
ENDBRANCH 29 35
ENDBRANCH 27 29
ENDBRANCH 1 25
TORSDOF 14
ENDMDL
