MODEL 1
USER: ADFR SOLUTION from run 120
USER: SCORE 15.008069 LL:  -3.118 LR: -12.959 RR:   0.000 FEB:  -8.783
USER: RMSD 1.994350
USER: SEED 119
USER: STATUS no improvement in best in 2 clusters for 5 generations
USER: GENES 16
USER: genes 0 Translation |==|  0.59035 0.49494 0.54638
USER: genes 1 Rotation |==|  0.47910 0.41887 0.50093 0.99293
USER: genes 2 Torsion [N]-CA--C-[N] |==|  0.57222
USER: genes 3 Torsion [C]-N--CA-[C] |==|  0.64883
USER: genes 4 Torsion [N]-CA--C-[N] |==|  0.45382
USER: genes 5 Torsion [C]-N--CA-[C] |==|  0.77616
USER: genes 6 Torsion [N]-CA--C-[N] |==|  0.90249
USER: genes 7 Torsion [N]-CA--CB-[CG2] |==|  0.25215
USER: genes 8 Torsion [CA]-CB--OG1-[HG1] |==|  0.92894
USER: genes 9 Torsion [C]-CA--CB-[CG] |==|  0.69684
USER: genes 10 Torsion [CA]-CB--CG-[ND1] |==|  0.33143
USER: genes 11 Torsion [C]-CA--N-[C] |==|  0.69172
USER: genes 12 Torsion [N]-C--CA-[N] |==|  0.30230
USER: genes 13 Torsion [C]-CA--N-[C] |==|  0.73786
USER: genes 14 Torsion [C]-CA--CB-[CG] |==|  0.37167
USER: genes 15 Torsion [CA]-CB--CG-[CD1] |==|  0.34513
ROOT
ATOM      1  CA  HIS E   2      16.918  -8.671   3.308  1.00 14.20 LIG 0.18  C 
ENDROOT
BRANCH 1 2
ATOM      2  C   HIS E   2      15.660  -9.317   2.734  1.00 15.34 LIG 0.24  C 
ATOM      3 O    HIS E   2      15.156  -8.918   1.680  1.00 13.21 LIG-0.27  OA
ATOM      4  N   THR E   3      15.142 -10.306   3.461  1.00 14.85 LIG-0.34  N 
ATOM      5 H    THR E   3      15.505 -10.628   4.171  1.00 14.85 LIG 0.16  HD
BRANCH 4 6
ATOM      6  CA  THR E   3      13.877 -10.929   3.086  1.00 13.22 LIG 0.20  C 
BRANCH 6 7
ATOM      7  C   THR E   3      12.901 -10.908   4.256  1.00 13.63 LIG 0.24  C 
ATOM      8  N   ALA E   4      11.621 -11.125   3.957  1.00  8.98 LIG-0.35  N 
ATOM      9 H    ALA E   4      11.331 -11.267   3.160  1.00  8.98 LIG 0.16  HD
ATOM     10 O    THR E   3      13.293 -10.692   5.406  1.00 14.15 LIG-0.27  OA
BRANCH 8 11
ATOM     11  CA  ALA E   4      10.588 -11.139   4.990  1.00 15.48 LIG 0.18  C 
ATOM     12  CB  ALA E   4       9.233 -10.816   4.383  1.00 13.80 LIG 0.04  C 
BRANCH 11 13
ATOM     13  C   ALA E   4      10.527 -12.473   5.739  1.00 23.80 LIG 0.28  C 
ATOM     14 O    ALA E   4      10.246 -12.505   6.939  1.00 30.75 LIG-0.27  OA
ATOM     15  N   NH2 E 101      10.778 -13.571   5.032  1.00 22.73 LIG-0.11  N 
ENDBRANCH 11 13
ENDBRANCH 8 11
ENDBRANCH 6 7
BRANCH 6 16
ATOM     16  CB  THR E   3      14.108 -12.370   2.633  1.00 20.99 LIG 0.15  C 
ATOM     17  CG2 THR E   3      13.992 -13.327   3.820  1.00 14.08 LIG 0.04  C 
BRANCH 16 18
ATOM     18 OG1  THR E   3      13.134 -12.716   1.646  1.00 27.33 LIG-0.39  OA
ATOM     19 HG1  THR E   3      12.449 -12.241   1.749  1.00 27.33 LIG 0.21  HD
ENDBRANCH 16 18
ENDBRANCH 6 16
ENDBRANCH 4 6
ENDBRANCH 1 2
BRANCH 1 20
ATOM     20  CB  HIS E   2      16.858  -8.744   4.840  1.00 18.36 LIG 0.10  C 
BRANCH 20 21
ATOM     21  CG  HIS E   2      16.630  -7.424   5.508  1.00 23.43 LIG 0.06  A 
ATOM     22  CD2 HIS E   2      17.372  -6.291   5.520  1.00 23.79 LIG 0.14  A 
ATOM     23 NE2  HIS E   2      16.708  -5.383   6.309  1.00 23.75 LIG-0.25  NA
ATOM     24  CE1 HIS E   2      15.601  -5.939   6.767  1.00 26.05 LIG 0.23  A 
ATOM     25 ND1  HIS E   2      15.531  -7.174   6.302  1.00 21.22 LIG-0.24  NA
ENDBRANCH 20 21
ENDBRANCH 1 20
BRANCH 1 26
ATOM     26  N   HIS E   2      17.032  -7.299   2.825  1.00 15.97 LIG-0.35  N 
ATOM     27 H    HIS E   2      16.436  -6.766   3.141  1.00 15.97 LIG 0.16  HD
ATOM     28  C   TRP E   1      17.982  -6.919   1.968  1.00 12.03 LIG 0.24  C 
ATOM     29 O    TRP E   1      18.860  -7.684   1.552  1.00 13.67 LIG-0.27  OA
BRANCH 28 30
ATOM     30  CA  TRP E   1      17.919  -5.476   1.480  1.00  9.26 LIG 0.18  C 
BRANCH 30 31
ATOM     31  N   TRP E   1      18.980  -4.624   2.022  1.00 13.05 LIG-0.35  N 
ATOM     32 H    TRP E   1      19.710  -4.658   1.569  1.00 13.05 LIG 0.16  HD
ATOM     33  C   ACE E   0      18.836  -3.868   3.110  1.00 12.60 LIG 0.21  C 
ATOM     34  CH3 ACE E   0      20.048  -3.052   3.509  1.00  6.27 LIG 0.12  C 
ATOM     35 O    ACE E   0      17.783  -3.835   3.746  1.00 15.02 LIG-0.27  OA
ENDBRANCH 30 31
BRANCH 30 36
ATOM     36  CB  TRP E   1      17.973  -5.459  -0.044  1.00 10.27 LIG 0.07  C 
BRANCH 36 37
ATOM     37  CG  TRP E   1      16.952  -4.558  -0.677  1.00  6.62 LIG-0.03  A 
ATOM     38  CD1 TRP E   1      17.182  -3.533  -1.553  1.00  7.94 LIG 0.10  A 
ATOM     39  NE1 TRP E   1      15.986  -2.940  -1.914  1.00 10.26 LIG-0.36  N 
ATOM     40  CE2 TRP E   1      14.964  -3.579  -1.261  1.00  6.86 LIG 0.04  A 
ATOM     41 HE1  TRP E   1      15.898  -2.280  -2.459  1.00 10.26 LIG 0.17  HD
ATOM     42  CZ2 TRP E   1      13.588  -3.346  -1.295  1.00  8.31 LIG 0.03  A 
ATOM     43  CD2 TRP E   1      15.539  -4.604  -0.473  1.00  9.88 LIG-0.00  A 
ATOM     44  CH2 TRP E   1      12.792  -4.166  -0.536  1.00 13.27 LIG 0.00  A 
ATOM     45  CZ3 TRP E   1      13.330  -5.188   0.256  1.00 13.61 LIG 0.00  A 
ATOM     46  CE3 TRP E   1      14.699  -5.419   0.293  1.00 14.26 LIG 0.01  A 
ENDBRANCH 36 37
ENDBRANCH 30 36
ENDBRANCH 28 30
ENDBRANCH 1 26
TORSDOF 14
ENDMDL
MODEL 2
USER: ADFR SOLUTION from run 80
USER: SCORE 15.315504 LL:  -3.147 LR: -12.686 RR:   0.000 FEB:  -8.510
USER: RMSD 1.977467
USER: SEED 79
USER: STATUS no improvement in best in 2 clusters for 5 generations
USER: GENES 16
USER: genes 0 Translation |==|  0.53581 0.40981 0.48850
USER: genes 1 Rotation |==|  0.51531 0.55456 0.49361 0.99674
USER: genes 2 Torsion [N]-CA--C-[N] |==|  0.40431
USER: genes 3 Torsion [C]-N--CA-[C] |==|  0.86091
USER: genes 4 Torsion [N]-CA--C-[N] |==|  0.36279
USER: genes 5 Torsion [C]-N--CA-[C] |==|  0.79553
USER: genes 6 Torsion [N]-CA--C-[N] |==|  0.93577
USER: genes 7 Torsion [N]-CA--CB-[CG2] |==|  0.41600
USER: genes 8 Torsion [CA]-CB--OG1-[HG1] |==|  0.72330
USER: genes 9 Torsion [C]-CA--CB-[CG] |==|  0.80916
USER: genes 10 Torsion [CA]-CB--CG-[ND1] |==|  0.76111
USER: genes 11 Torsion [C]-CA--N-[C] |==|  0.71103
USER: genes 12 Torsion [N]-C--CA-[N] |==|  0.12778
USER: genes 13 Torsion [C]-CA--N-[C] |==|  0.18124
USER: genes 14 Torsion [C]-CA--CB-[CG] |==|  0.45652
USER: genes 15 Torsion [CA]-CB--CG-[CD1] |==|  0.40439
ROOT
ATOM      1  CA  HIS E   2      15.854 -10.459   2.310  1.00 14.20 LIG 0.18  C 
ENDROOT
BRANCH 1 2
ATOM      2  C   HIS E   2      14.441 -11.027   2.389  1.00 15.34 LIG 0.24  C 
ATOM      3 O    HIS E   2      13.510 -10.373   2.868  1.00 13.21 LIG-0.27  OA
ATOM      4  N   THR E   3      14.299 -12.273   1.937  1.00 14.85 LIG-0.34  N 
ATOM      5 H    THR E   3      14.924 -12.726   1.557  1.00 14.85 LIG 0.16  HD
BRANCH 4 6
ATOM      6  CA  THR E   3      13.027 -12.976   2.063  1.00 13.22 LIG 0.20  C 
BRANCH 6 7
ATOM      7  C   THR E   3      12.505 -12.890   3.492  1.00 13.63 LIG 0.24  C 
ATOM      8  N   ALA E   4      11.237 -12.509   3.633  1.00  8.98 LIG-0.35  N 
ATOM      9 H    ALA E   4      10.718 -12.312   2.976  1.00  8.98 LIG 0.16  HD
ATOM     10 O    THR E   3      13.235 -13.154   4.451  1.00 14.15 LIG-0.27  OA
BRANCH 8 11
ATOM     11  CA  ALA E   4      10.615 -12.396   4.951  1.00 15.48 LIG 0.18  C 
ATOM     12  CB  ALA E   4       9.346 -11.565   4.864  1.00 13.80 LIG 0.04  C 
BRANCH 11 13
ATOM     13  C   ALA E   4      10.311 -13.761   5.574  1.00 23.80 LIG 0.28  C 
ATOM     14 O    ALA E   4      10.185 -13.878   6.794  1.00 30.75 LIG-0.27  OA
ATOM     15  N   NH2 E 101      10.183 -14.788   4.738  1.00 22.73 LIG-0.11  N 
ENDBRANCH 11 13
ENDBRANCH 8 11
ENDBRANCH 6 7
BRANCH 6 16
ATOM     16  CB  THR E   3      13.186 -14.441   1.660  1.00 20.99 LIG 0.15  C 
ATOM     17  CG2 THR E   3      12.204 -15.318   2.437  1.00 14.08 LIG 0.04  C 
BRANCH 16 18
ATOM     18 OG1  THR E   3      12.939 -14.575   0.258  1.00 27.33 LIG-0.39  OA
ATOM     19 HG1  THR E   3      12.156 -14.853   0.137  1.00 27.33 LIG 0.21  HD
ENDBRANCH 16 18
ENDBRANCH 6 16
ENDBRANCH 4 6
ENDBRANCH 1 2
BRANCH 1 20
ATOM     20  CB  HIS E   2      16.585 -10.759   3.626  1.00 18.36 LIG 0.10  C 
BRANCH 20 21
ATOM     21  CG  HIS E   2      16.056 -10.007   4.807  1.00 23.43 LIG 0.06  A 
ATOM     22  CD2 HIS E   2      15.120 -10.337   5.728  1.00 23.79 LIG 0.14  A 
ATOM     23 NE2  HIS E   2      15.004  -9.270   6.585  1.00 23.75 LIG-0.25  NA
ATOM     24  CE1 HIS E   2      15.837  -8.319   6.203  1.00 26.05 LIG 0.23  A 
ATOM     25 ND1  HIS E   2      16.483  -8.736   5.128  1.00 21.22 LIG-0.24  NA
ENDBRANCH 20 21
ENDBRANCH 1 20
BRANCH 1 26
ATOM     26  N   HIS E   2      15.795  -9.028   2.026  1.00 15.97 LIG-0.35  N 
ATOM     27 H    HIS E   2      15.573  -8.546   2.703  1.00 15.97 LIG 0.16  HD
ATOM     28  C   TRP E   1      16.064  -8.527   0.818  1.00 12.03 LIG 0.24  C 
ATOM     29 O    TRP E   1      16.424  -9.225  -0.136  1.00 13.67 LIG-0.27  OA
BRANCH 28 30
ATOM     30  CA  TRP E   1      15.870  -7.025   0.648  1.00  9.26 LIG 0.18  C 
BRANCH 30 31
ATOM     31  N   TRP E   1      16.441  -6.230   1.738  1.00 13.05 LIG-0.35  N 
ATOM     32 H    TRP E   1      15.852  -5.808   2.199  1.00 13.05 LIG 0.16  HD
ATOM     33  C   ACE E   0      17.747  -6.163   1.995  1.00 12.60 LIG 0.21  C 
ATOM     34  CH3 ACE E   0      18.142  -5.291   3.169  1.00  6.27 LIG 0.12  C 
ATOM     35 O    ACE E   0      18.577  -6.772   1.321  1.00 15.02 LIG-0.27  OA
ENDBRANCH 30 31
BRANCH 30 36
ATOM     36  CB  TRP E   1      16.477  -6.588  -0.681  1.00 10.27 LIG 0.07  C 
BRANCH 36 37
ATOM     37  CG  TRP E   1      16.032  -5.226  -1.132  1.00  6.62 LIG-0.03  A 
ATOM     38  CD1 TRP E   1      16.768  -4.300  -1.818  1.00  7.94 LIG 0.10  A 
ATOM     39  NE1 TRP E   1      16.008  -3.169  -2.053  1.00 10.26 LIG-0.36  N 
ATOM     40  CE2 TRP E   1      14.764  -3.354  -1.508  1.00  6.86 LIG 0.04  A 
ATOM     41 HE1  TRP E   1      16.272  -2.465  -2.472  1.00 10.26 LIG 0.17  HD
ATOM     42  CZ2 TRP E   1      13.656  -2.506  -1.483  1.00  8.31 LIG 0.03  A 
ATOM     43  CD2 TRP E   1      14.746  -4.642  -0.920  1.00  9.88 LIG-0.00  A 
ATOM     44  CH2 TRP E   1      12.521  -2.971  -0.868  1.00 13.27 LIG 0.00  A 
ATOM     45  CZ3 TRP E   1      12.471  -4.240  -0.275  1.00 13.61 LIG 0.00  A 
ATOM     46  CE3 TRP E   1      13.574  -5.084  -0.297  1.00 14.26 LIG 0.01  A 
ENDBRANCH 36 37
ENDBRANCH 30 36
ENDBRANCH 28 30
ENDBRANCH 1 26
TORSDOF 14
ENDMDL
MODEL 3
USER: ADFR SOLUTION from run 52
USER: SCORE 14.721591 LL:  -3.161 LR: -11.974 RR:   0.000 FEB:  -7.798
USER: RMSD 2.881200
USER: SEED 51
USER: STATUS searching
USER: GENES 16
USER: genes 0 Translation |==|  0.59517 0.42881 0.45079
USER: genes 1 Rotation |==|  0.46312 0.54727 0.42651 0.99092
USER: genes 2 Torsion [N]-CA--C-[N] |==|  0.38660
USER: genes 3 Torsion [C]-N--CA-[C] |==|  0.79078
USER: genes 4 Torsion [N]-CA--C-[N] |==|  0.40494
USER: genes 5 Torsion [C]-N--CA-[C] |==|  0.53334
USER: genes 6 Torsion [N]-CA--C-[N] |==|  0.46086
USER: genes 7 Torsion [N]-CA--CB-[CG2] |==|  0.35662
USER: genes 8 Torsion [CA]-CB--OG1-[HG1] |==|  0.96875
USER: genes 9 Torsion [C]-CA--CB-[CG] |==|  0.87938
USER: genes 10 Torsion [CA]-CB--CG-[ND1] |==|  0.26108
USER: genes 11 Torsion [C]-CA--N-[C] |==|  0.84780
USER: genes 12 Torsion [N]-C--CA-[N] |==|  0.46427
USER: genes 13 Torsion [C]-CA--N-[C] |==|  0.65074
USER: genes 14 Torsion [C]-CA--CB-[CG] |==|  0.59485
USER: genes 15 Torsion [CA]-CB--CG-[CD1] |==|  0.82542
ROOT
ATOM      1  CA  HIS E   2      17.012 -10.060   1.659  1.00 14.20 LIG 0.18  C 
ENDROOT
BRANCH 1 2
ATOM      2  C   HIS E   2      15.504 -10.238   1.805  1.00 15.34 LIG 0.24  C 
ATOM      3 O    HIS E   2      14.781  -9.314   2.190  1.00 13.21 LIG-0.27  OA
ATOM      4  N   THR E   3      15.041 -11.454   1.518  1.00 14.85 LIG-0.34  N 
ATOM      5 H    THR E   3      15.521 -12.094   1.203  1.00 14.85 LIG 0.16  HD
BRANCH 4 6
ATOM      6  CA  THR E   3      13.637 -11.791   1.728  1.00 13.22 LIG 0.20  C 
BRANCH 6 7
ATOM      7  C   THR E   3      13.350 -11.994   3.210  1.00 13.63 LIG 0.24  C 
ATOM      8  N   ALA E   4      12.146 -11.614   3.633  1.00  8.98 LIG-0.35  N 
ATOM      9 H    ALA E   4      11.545 -11.266   3.125  1.00  8.98 LIG 0.16  HD
ATOM     10 O    THR E   3      14.201 -12.478   3.961  1.00 14.15 LIG-0.27  OA
BRANCH 8 11
ATOM     11  CA  ALA E   4      11.744 -11.764   5.031  1.00 15.48 LIG 0.18  C 
ATOM     12  CB  ALA E   4      12.540 -10.815   5.911  1.00 13.80 LIG 0.04  C 
BRANCH 11 13
ATOM     13  C   ALA E   4      10.243 -11.542   5.235  1.00 23.80 LIG 0.28  C 
ATOM     14 O    ALA E   4       9.560 -11.031   4.346  1.00 30.75 LIG-0.27  OA
ATOM     15  N   NH2 E 101       9.730 -11.932   6.399  1.00 22.73 LIG-0.11  N 
ENDBRANCH 11 13
ENDBRANCH 8 11
ENDBRANCH 6 7
BRANCH 6 16
ATOM     16  CB  THR E   3      13.272 -13.057   0.954  1.00 20.99 LIG 0.15  C 
ATOM     17  CG2 THR E   3      12.593 -14.069   1.877  1.00 14.08 LIG 0.04  C 
BRANCH 16 18
ATOM     18 OG1  THR E   3      12.386 -12.718  -0.115  1.00 27.33 LIG-0.39  OA
ATOM     19 HG1  THR E   3      12.119 -11.927  -0.018  1.00 27.33 LIG 0.21  HD
ENDBRANCH 16 18
ENDBRANCH 6 16
ENDBRANCH 4 6
ENDBRANCH 1 2
BRANCH 1 20
ATOM     20  CB  HIS E   2      17.665 -10.209   3.040  1.00 18.36 LIG 0.10  C 
BRANCH 20 21
ATOM     21  CG  HIS E   2      16.939  -9.502   4.142  1.00 23.43 LIG 0.06  A 
ATOM     22  CD2 HIS E   2      17.030  -8.228   4.595  1.00 23.79 LIG 0.14  A 
ATOM     23 NE2  HIS E   2      16.149  -8.111   5.642  1.00 23.75 LIG-0.25  NA
ATOM     24  CE1 HIS E   2      15.543  -9.269   5.827  1.00 26.05 LIG 0.23  A 
ATOM     25 ND1  HIS E   2      16.004 -10.129   4.936  1.00 21.22 LIG-0.24  NA
ENDBRANCH 20 21
ENDBRANCH 1 20
BRANCH 1 26
ATOM     26  N   HIS E   2      17.299  -8.765   1.051  1.00 15.97 LIG-0.35  N 
ATOM     27 H    HIS E   2      17.835  -8.273   1.509  1.00 15.97 LIG 0.16  HD
ATOM     28  C   TRP E   1      16.767  -8.389  -0.115  1.00 12.03 LIG 0.24  C 
ATOM     29 O    TRP E   1      16.030  -9.120  -0.787  1.00 13.67 LIG-0.27  OA
BRANCH 28 30
ATOM     30  CA  TRP E   1      17.083  -6.972  -0.580  1.00  9.26 LIG 0.18  C 
BRANCH 30 31
ATOM     31  N   TRP E   1      16.731  -6.719  -1.979  1.00 13.05 LIG-0.35  N 
ATOM     32 H    TRP E   1      15.912  -6.902  -2.164  1.00 13.05 LIG 0.16  HD
ATOM     33  C   ACE E   0      17.591  -6.250  -2.883  1.00 12.60 LIG 0.21  C 
ATOM     34  CH3 ACE E   0      17.033  -6.049  -4.277  1.00  6.27 LIG 0.12  C 
ATOM     35 O    ACE E   0      18.760  -5.996  -2.599  1.00 15.02 LIG-0.27  OA
ENDBRANCH 30 31
BRANCH 30 36
ATOM     36  CB  TRP E   1      16.361  -5.976   0.321  1.00 10.27 LIG 0.07  C 
BRANCH 36 37
ATOM     37  CG  TRP E   1      15.900  -4.737  -0.392  1.00  6.62 LIG-0.03  A 
ATOM     38  CD1 TRP E   1      16.680  -3.798  -1.008  1.00  7.94 LIG 0.10  A 
ATOM     39  NE1 TRP E   1      15.887  -2.804  -1.553  1.00 10.26 LIG-0.36  N 
ATOM     40  CE2 TRP E   1      14.575  -3.093  -1.282  1.00  6.86 LIG 0.04  A 
ATOM     41 HE1  TRP E   1      16.170  -2.119  -1.989  1.00 10.26 LIG 0.17  HD
ATOM     42  CZ2 TRP E   1      13.411  -2.397  -1.616  1.00  8.31 LIG 0.03  A 
ATOM     43  CD2 TRP E   1      14.548  -4.305  -0.551  1.00  9.88 LIG-0.00  A 
ATOM     44  CH2 TRP E   1      12.216  -2.940  -1.218  1.00 13.27 LIG 0.00  A 
ATOM     45  CZ3 TRP E   1      12.156  -4.137  -0.492  1.00 13.61 LIG 0.00  A 
ATOM     46  CE3 TRP E   1      13.312  -4.829  -0.156  1.00 14.26 LIG 0.01  A 
ENDBRANCH 36 37
ENDBRANCH 30 36
ENDBRANCH 28 30
ENDBRANCH 1 26
TORSDOF 14
ENDMDL
MODEL 4
USER: ADFR SOLUTION from run 30
USER: SCORE 14.073741 LL:  -3.136 LR: -11.952 RR:   0.000 FEB:  -7.776
USER: RMSD 2.510342
USER: SEED 29
USER: STATUS no improvement in best in 3 clusters for 5 generations
USER: GENES 16
USER: genes 0 Translation |==|  0.58233 0.47865 0.54653
USER: genes 1 Rotation |==|  0.41031 0.41007 0.49669 0.98359
USER: genes 2 Torsion [N]-CA--C-[N] |==|  0.49919
USER: genes 3 Torsion [C]-N--CA-[C] |==|  0.72555
USER: genes 4 Torsion [N]-CA--C-[N] |==|  0.43988
USER: genes 5 Torsion [C]-N--CA-[C] |==|  0.83249
USER: genes 6 Torsion [N]-CA--C-[N] |==|  0.89694
USER: genes 7 Torsion [N]-CA--CB-[CG2] |==|  0.58884
USER: genes 8 Torsion [CA]-CB--OG1-[HG1] |==|  0.21091
USER: genes 9 Torsion [C]-CA--CB-[CG] |==|  0.62100
USER: genes 10 Torsion [CA]-CB--CG-[ND1] |==|  0.36037
USER: genes 11 Torsion [C]-CA--N-[C] |==|  0.75929
USER: genes 12 Torsion [N]-C--CA-[N] |==|  0.61973
USER: genes 13 Torsion [C]-CA--N-[C] |==|  0.15623
USER: genes 14 Torsion [C]-CA--CB-[CG] |==|  0.57259
USER: genes 15 Torsion [CA]-CB--CG-[CD1] |==|  0.85172
ROOT
ATOM      1  CA  HIS E   2      16.761  -9.013   3.311  1.00 14.20 LIG 0.18  C 
ENDROOT
BRANCH 1 2
ATOM      2  C   HIS E   2      15.485  -9.721   2.867  1.00 15.34 LIG 0.24  C 
ATOM      3 O    HIS E   2      14.781  -9.269   1.959  1.00 13.21 LIG-0.27  OA
ATOM      4  N   THR E   3      15.178 -10.827   3.545  1.00 14.85 LIG-0.34  N 
ATOM      5 H    THR E   3      15.680 -11.182   4.146  1.00 14.85 LIG 0.16  HD
BRANCH 4 6
ATOM      6  CA  THR E   3      13.926 -11.533   3.301  1.00 13.22 LIG 0.20  C 
BRANCH 6 7
ATOM      7  C   THR E   3      12.886 -11.161   4.350  1.00 13.63 LIG 0.24  C 
ATOM      8  N   ALA E   4      11.613 -11.361   4.014  1.00  8.98 LIG-0.35  N 
ATOM      9 H    ALA E   4      11.360 -11.677   3.255  1.00  8.98 LIG 0.16  HD
ATOM     10 O    THR E   3      13.224 -10.693   5.441  1.00 14.15 LIG-0.27  OA
BRANCH 8 11
ATOM     11  CA  ALA E   4      10.521 -11.052   4.935  1.00 15.48 LIG 0.18  C 
ATOM     12  CB  ALA E   4       9.181 -11.291   4.261  1.00 13.80 LIG 0.04  C 
BRANCH 11 13
ATOM     13  C   ALA E   4      10.610 -11.855   6.236  1.00 23.80 LIG 0.28  C 
ATOM     14 O    ALA E   4      10.286 -11.343   7.310  1.00 30.75 LIG-0.27  OA
ATOM     15  N   NH2 E 101      11.036 -13.111   6.140  1.00 22.73 LIG-0.11  N 
ENDBRANCH 11 13
ENDBRANCH 8 11
ENDBRANCH 6 7
BRANCH 6 16
ATOM     16  CB  THR E   3      14.155 -13.044   3.317  1.00 20.99 LIG 0.15  C 
ATOM     17  CG2 THR E   3      13.192 -13.739   2.354  1.00 14.08 LIG 0.04  C 
BRANCH 16 18
ATOM     18 OG1  THR E   3      15.502 -13.321   2.926  1.00 27.33 LIG-0.39  OA
ATOM     19 HG1  THR E   3      16.021 -13.145   3.563  1.00 27.33 LIG 0.21  HD
ENDBRANCH 16 18
ENDBRANCH 6 16
ENDBRANCH 4 6
ENDBRANCH 1 2
BRANCH 1 20
ATOM     20  CB  HIS E   2      16.646  -8.668   4.802  1.00 18.36 LIG 0.10  C 
BRANCH 20 21
ATOM     21  CG  HIS E   2      17.117  -7.291   5.151  1.00 23.43 LIG 0.06  A 
ATOM     22  CD2 HIS E   2      18.277  -6.649   4.874  1.00 23.79 LIG 0.14  A 
ATOM     23 NE2  HIS E   2      18.196  -5.405   5.451  1.00 23.75 LIG-0.25  NA
ATOM     24  CE1 HIS E   2      17.031  -5.289   6.062  1.00 26.05 LIG 0.23  A 
ATOM     25 ND1  HIS E   2      16.360  -6.416   5.900  1.00 21.22 LIG-0.24  NA
ENDBRANCH 20 21
ENDBRANCH 1 20
BRANCH 1 26
ATOM     26  N   HIS E   2      16.980  -7.829   2.486  1.00 15.97 LIG-0.35  N 
ATOM     27 H    HIS E   2      16.656  -7.106   2.819  1.00 15.97 LIG 0.16  HD
ATOM     28  C   TRP E   1      17.628  -7.880   1.320  1.00 12.03 LIG 0.24  C 
ATOM     29 O    TRP E   1      18.127  -8.917   0.870  1.00 13.67 LIG-0.27  OA
BRANCH 28 30
ATOM     30  CA  TRP E   1      17.698  -6.580   0.525  1.00  9.26 LIG 0.18  C 
BRANCH 30 31
ATOM     31  N   TRP E   1      17.450  -6.752  -0.908  1.00 13.05 LIG-0.35  N 
ATOM     32 H    TRP E   1      18.088  -6.457  -1.403  1.00 13.05 LIG 0.16  HD
ATOM     33  C   ACE E   0      16.347  -7.311  -1.404  1.00 12.60 LIG 0.21  C 
ATOM     34  CH3 ACE E   0      16.280  -7.404  -2.915  1.00  6.27 LIG 0.12  C 
ATOM     35 O    ACE E   0      15.443  -7.725  -0.680  1.00 15.02 LIG-0.27  OA
ENDBRANCH 30 31
BRANCH 30 36
ATOM     36  CB  TRP E   1      16.698  -5.584   1.104  1.00 10.27 LIG 0.07  C 
BRANCH 36 37
ATOM     37  CG  TRP E   1      16.216  -4.563   0.114  1.00  6.62 LIG-0.03  A 
ATOM     38  CD1 TRP E   1      16.982  -3.740  -0.665  1.00  7.94 LIG 0.10  A 
ATOM     39  NE1 TRP E   1      16.172  -2.940  -1.450  1.00 10.26 LIG-0.36  N 
ATOM     40  CE2 TRP E   1      14.863  -3.238  -1.176  1.00  6.86 LIG 0.04  A 
ATOM     41 HE1  TRP E   1      16.444  -2.353  -2.017  1.00 10.26 LIG 0.17  HD
ATOM     42  CZ2 TRP E   1      13.687  -2.703  -1.705  1.00  8.31 LIG 0.03  A 
ATOM     43  CD2 TRP E   1      14.855  -4.258  -0.193  1.00  9.88 LIG-0.00  A 
ATOM     44  CH2 TRP E   1      12.500  -3.214  -1.244  1.00 13.27 LIG 0.00  A 
ATOM     45  CZ3 TRP E   1      12.459  -4.222  -0.271  1.00 13.61 LIG 0.00  A 
ATOM     46  CE3 TRP E   1      13.627  -4.753   0.258  1.00 14.26 LIG 0.01  A 
ENDBRANCH 36 37
ENDBRANCH 30 36
ENDBRANCH 28 30
ENDBRANCH 1 26
TORSDOF 14
ENDMDL
MODEL 5
USER: ADFR SOLUTION from run 52
USER: SCORE 13.932191 LL:  -2.916 LR: -11.662 RR:   0.000 FEB:  -7.486
USER: RMSD 2.403384
USER: SEED 51
USER: STATUS searching
USER: GENES 16
USER: genes 0 Translation |==|  0.57898 0.46091 0.49922
USER: genes 1 Rotation |==|  0.52919 0.55000 0.47863 0.99618
USER: genes 2 Torsion [N]-CA--C-[N] |==|  0.36256
USER: genes 3 Torsion [C]-N--CA-[C] |==|  0.85316
USER: genes 4 Torsion [N]-CA--C-[N] |==|  0.34535
USER: genes 5 Torsion [C]-N--CA-[C] |==|  0.55363
USER: genes 6 Torsion [N]-CA--C-[N] |==|  0.46054
USER: genes 7 Torsion [N]-CA--CB-[CG2] |==|  0.13706
USER: genes 8 Torsion [CA]-CB--OG1-[HG1] |==|  0.11000
USER: genes 9 Torsion [C]-CA--CB-[CG] |==|  0.85429
USER: genes 10 Torsion [CA]-CB--CG-[ND1] |==|  0.27996
USER: genes 11 Torsion [C]-CA--N-[C] |==|  0.72804
USER: genes 12 Torsion [N]-C--CA-[N] |==|  0.25891
USER: genes 13 Torsion [C]-CA--N-[C] |==|  0.73902
USER: genes 14 Torsion [C]-CA--CB-[CG] |==|  0.27007
USER: genes 15 Torsion [CA]-CB--CG-[CD1] |==|  0.87090
ROOT
ATOM      1  CA  HIS E   2      16.696  -9.386   2.495  1.00 14.20 LIG 0.18  C 
ENDROOT
BRANCH 1 2
ATOM      2  C   HIS E   2      15.247  -9.862   2.525  1.00 15.34 LIG 0.24  C 
ATOM      3 O    HIS E   2      14.406  -9.319   3.247  1.00 13.21 LIG-0.27  OA
ATOM      4  N   THR E   3      14.973 -10.910   1.747  1.00 14.85 LIG-0.34  N 
ATOM      5 H    THR E   3      15.533 -11.270   1.203  1.00 14.85 LIG 0.16  HD
BRANCH 4 6
ATOM      6  CA  THR E   3      13.656 -11.536   1.772  1.00 13.22 LIG 0.20  C 
BRANCH 6 7
ATOM      7  C   THR E   3      13.261 -11.902   3.197  1.00 13.63 LIG 0.24  C 
ATOM      8  N   ALA E   4      12.105 -11.406   3.633  1.00  8.98 LIG-0.35  N 
ATOM      9 H    ALA E   4      11.591 -10.901   3.164  1.00  8.98 LIG 0.16  HD
ATOM     10 O    THR E   3      13.990 -12.613   3.895  1.00 14.15 LIG-0.27  OA
BRANCH 8 11
ATOM     11  CA  ALA E   4      11.611 -11.690   4.979  1.00 15.48 LIG 0.18  C 
ATOM     12  CB  ALA E   4      12.374 -10.868   6.003  1.00 13.80 LIG 0.04  C 
BRANCH 11 13
ATOM     13  C   ALA E   4      10.106 -11.438   5.114  1.00 23.80 LIG 0.28  C 
ATOM     14 O    ALA E   4       9.497 -10.811   4.247  1.00 30.75 LIG-0.27  OA
ATOM     15  N   NH2 E 101       9.508 -11.935   6.194  1.00 22.73 LIG-0.11  N 
ENDBRANCH 11 13
ENDBRANCH 8 11
ENDBRANCH 6 7
BRANCH 6 16
ATOM     16  CB  THR E   3      13.647 -12.790   0.897  1.00 20.99 LIG 0.15  C 
ATOM     17  CG2 THR E   3      14.842 -13.682   1.233  1.00 14.08 LIG 0.04  C 
BRANCH 16 18
ATOM     18 OG1  THR E   3      12.434 -13.513   1.121  1.00 27.33 LIG-0.39  OA
ATOM     19 HG1  THR E   3      11.796 -12.972   1.198  1.00 27.33 LIG 0.21  HD
ENDBRANCH 16 18
ENDBRANCH 6 16
ENDBRANCH 4 6
ENDBRANCH 1 2
BRANCH 1 20
ATOM     20  CB  HIS E   2      17.381  -9.797   3.805  1.00 18.36 LIG 0.10  C 
BRANCH 20 21
ATOM     21  CG  HIS E   2      16.647  -9.374   5.040  1.00 23.43 LIG 0.06  A 
ATOM     22  CD2 HIS E   2      16.601  -8.185   5.686  1.00 23.79 LIG 0.14  A 
ATOM     23 NE2  HIS E   2      15.788  -8.352   6.780  1.00 23.75 LIG-0.25  NA
ATOM     24  CE1 HIS E   2      15.353  -9.599   6.806  1.00 26.05 LIG 0.23  A 
ATOM     25 ND1  HIS E   2      15.860 -10.240   5.768  1.00 21.22 LIG-0.24  NA
ENDBRANCH 20 21
ENDBRANCH 1 20
BRANCH 1 26
ATOM     26  N   HIS E   2      16.736  -7.943   2.281  1.00 15.97 LIG-0.35  N 
ATOM     27 H    HIS E   2      16.616  -7.479   2.995  1.00 15.97 LIG 0.16  HD
ATOM     28  C   TRP E   1      16.942  -7.404   1.076  1.00 12.03 LIG 0.24  C 
ATOM     29 O    TRP E   1      17.157  -8.079   0.064  1.00 13.67 LIG-0.27  OA
BRANCH 28 30
ATOM     30  CA  TRP E   1      16.864  -5.884   0.991  1.00  9.26 LIG 0.18  C 
BRANCH 30 31
ATOM     31  N   TRP E   1      18.159  -5.218   1.145  1.00 13.05 LIG-0.35  N 
ATOM     32 H    TRP E   1      18.598  -5.149   0.409  1.00 13.05 LIG 0.16  HD
ATOM     33  C   ACE E   0      18.620  -4.761   2.309  1.00 12.60 LIG 0.21  C 
ATOM     34  CH3 ACE E   0      19.981  -4.097   2.263  1.00  6.27 LIG 0.12  C 
ATOM     35 O    ACE E   0      17.979  -4.872   3.353  1.00 15.02 LIG-0.27  OA
ENDBRANCH 30 31
BRANCH 30 36
ATOM     36  CB  TRP E   1      16.238  -5.488  -0.342  1.00 10.27 LIG 0.07  C 
BRANCH 36 37
ATOM     37  CG  TRP E   1      14.767  -5.195  -0.258  1.00  6.62 LIG-0.03  A 
ATOM     38  CD1 TRP E   1      13.809  -5.940   0.373  1.00  7.94 LIG 0.10  A 
ATOM     39  NE1 TRP E   1      12.571  -5.341   0.229  1.00 10.26 LIG-0.36  N 
ATOM     40  CE2 TRP E   1      12.720  -4.198  -0.511  1.00  6.86 LIG 0.04  A 
ATOM     41 HE1  TRP E   1      11.830  -5.638   0.551  1.00 10.26 LIG 0.17  HD
ATOM     42  CZ2 TRP E   1      11.770  -3.261  -0.923  1.00  8.31 LIG 0.03  A 
ATOM     43  CD2 TRP E   1      14.092  -4.076  -0.835  1.00  9.88 LIG-0.00  A 
ATOM     44  CH2 TRP E   1      12.217  -2.190  -1.654  1.00 13.27 LIG 0.00  A 
ATOM     45  CZ3 TRP E   1      13.569  -2.042  -1.992  1.00 13.61 LIG 0.00  A 
ATOM     46  CE3 TRP E   1      14.515  -2.974  -1.586  1.00 14.26 LIG 0.01  A 
ENDBRANCH 36 37
ENDBRANCH 30 36
ENDBRANCH 28 30
ENDBRANCH 1 26
TORSDOF 14
ENDMDL
MODEL 6
USER: ADFR SOLUTION from run 176
USER: SCORE 13.733232 LL:  -2.974 LR: -11.630 RR:   0.000 FEB:  -7.454
USER: RMSD 4.128007
USER: SEED 175
USER: STATUS no improvement in best in 3 clusters for 5 generations
USER: GENES 16
USER: genes 0 Translation |==|  0.46816 0.42889 0.43629
USER: genes 1 Rotation |==|  0.68044 0.84622 0.38127 0.78892
USER: genes 2 Torsion [N]-CA--C-[N] |==|  0.43074
USER: genes 3 Torsion [C]-N--CA-[C] |==|  0.63601
USER: genes 4 Torsion [N]-CA--C-[N] |==|  0.37302
USER: genes 5 Torsion [C]-N--CA-[C] |==|  0.80242
USER: genes 6 Torsion [N]-CA--C-[N] |==|  0.94937
USER: genes 7 Torsion [N]-CA--CB-[CG2] |==|  0.32915
USER: genes 8 Torsion [CA]-CB--OG1-[HG1] |==|  0.81183
USER: genes 9 Torsion [C]-CA--CB-[CG] |==|  0.19618
USER: genes 10 Torsion [CA]-CB--CG-[ND1] |==|  0.18515
USER: genes 11 Torsion [C]-CA--N-[C] |==|  0.53387
USER: genes 12 Torsion [N]-C--CA-[N] |==|  0.12222
USER: genes 13 Torsion [C]-CA--N-[C] |==|  0.64522
USER: genes 14 Torsion [C]-CA--CB-[CG] |==|  0.28658
USER: genes 15 Torsion [CA]-CB--CG-[CD1] |==|  0.40798
ROOT
ATOM      1  CA  HIS E   2      14.535 -10.058   1.409  1.00 14.20 LIG 0.18  C 
ENDROOT
BRANCH 1 2
ATOM      2  C   HIS E   2      14.043 -10.608   2.744  1.00 15.34 LIG 0.24  C 
ATOM      3 O    HIS E   2      14.687 -10.444   3.785  1.00 13.21 LIG-0.27  OA
ATOM      4  N   THR E   3      12.901 -11.293   2.695  1.00 14.85 LIG-0.34  N 
ATOM      5 H    THR E   3      12.415 -11.376   1.990  1.00 14.85 LIG 0.16  HD
BRANCH 4 6
ATOM      6  CA  THR E   3      12.381 -11.970   3.878  1.00 13.22 LIG 0.20  C 
BRANCH 6 7
ATOM      7  C   THR E   3      11.998 -13.408   3.549  1.00 13.63 LIG 0.24  C 
ATOM      8  N   ALA E   4      12.403 -14.337   4.413  1.00  8.98 LIG-0.35  N 
ATOM      9 H    ALA E   4      12.859 -14.168   5.122  1.00  8.98 LIG 0.16  HD
ATOM     10 O    THR E   3      11.356 -13.676   2.529  1.00 14.15 LIG-0.27  OA
BRANCH 8 11
ATOM     11  CA  ALA E   4      12.092 -15.751   4.215  1.00 15.48 LIG 0.18  C 
ATOM     12  CB  ALA E   4      12.954 -16.611   5.123  1.00 13.80 LIG 0.04  C 
BRANCH 11 13
ATOM     13  C   ALA E   4      10.610 -16.062   4.444  1.00 23.80 LIG 0.28  C 
ATOM     14 O    ALA E   4      10.116 -17.107   4.014  1.00 30.75 LIG-0.27  OA
ATOM     15  N   NH2 E 101       9.906 -15.164   5.127  1.00 22.73 LIG-0.11  N 
ENDBRANCH 11 13
ENDBRANCH 8 11
ENDBRANCH 6 7
BRANCH 6 16
ATOM     16  CB  THR E   3      11.165 -11.226   4.426  1.00 20.99 LIG 0.15  C 
ATOM     17  CG2 THR E   3       9.928 -12.124   4.388  1.00 14.08 LIG 0.04  C 
BRANCH 16 18
ATOM     18 OG1  THR E   3      11.424 -10.828   5.775  1.00 27.33 LIG-0.39  OA
ATOM     19 HG1  THR E   3      11.467 -11.508   6.265  1.00 27.33 LIG 0.21  HD
ENDBRANCH 16 18
ENDBRANCH 6 16
ENDBRANCH 4 6
ENDBRANCH 1 2
BRANCH 1 20
ATOM     20  CB  HIS E   2      15.267 -11.175   0.652  1.00 18.36 LIG 0.10  C 
BRANCH 20 21
ATOM     21  CG  HIS E   2      14.370 -12.257   0.138  1.00 23.43 LIG 0.06  A 
ATOM     22  CD2 HIS E   2      14.282 -13.570   0.460  1.00 23.79 LIG 0.14  A 
ATOM     23 NE2  HIS E   2      13.299 -14.114  -0.330  1.00 23.75 LIG-0.25  NA
ATOM     24  CE1 HIS E   2      12.804 -13.171  -1.111  1.00 26.05 LIG 0.23  A 
ATOM     25 ND1  HIS E   2      13.435 -12.039  -0.852  1.00 21.22 LIG-0.24  NA
ENDBRANCH 20 21
ENDBRANCH 1 20
BRANCH 1 26
ATOM     26  N   HIS E   2      15.389  -8.897   1.639  1.00 15.97 LIG-0.35  N 
ATOM     27 H    HIS E   2      15.624  -8.792   2.459  1.00 15.97 LIG 0.16  HD
ATOM     28  C   TRP E   1      15.763  -8.078   0.653  1.00 12.03 LIG 0.24  C 
ATOM     29 O    TRP E   1      15.454  -8.262  -0.529  1.00 13.67 LIG-0.27  OA
BRANCH 28 30
ATOM     30  CA  TRP E   1      16.577  -6.855   1.059  1.00  9.26 LIG 0.18  C 
BRANCH 30 31
ATOM     31  N   TRP E   1      17.632  -7.146   2.032  1.00 13.05 LIG-0.35  N 
ATOM     32 H    TRP E   1      18.149  -7.790   1.793  1.00 13.05 LIG 0.16  HD
ATOM     33  C   ACE E   0      17.783  -6.482   3.178  1.00 12.60 LIG 0.21  C 
ATOM     34  CH3 ACE E   0      18.939  -6.929   4.049  1.00  6.27 LIG 0.12  C 
ATOM     35 O    ACE E   0      17.031  -5.565   3.503  1.00 15.02 LIG-0.27  OA
ENDBRANCH 30 31
BRANCH 30 36
ATOM     36  CB  TRP E   1      17.187  -6.222  -0.188  1.00 10.27 LIG 0.07  C 
BRANCH 36 37
ATOM     37  CG  TRP E   1      16.478  -4.981  -0.647  1.00  6.62 LIG-0.03  A 
ATOM     38  CD1 TRP E   1      17.032  -3.885  -1.249  1.00  7.94 LIG 0.10  A 
ATOM     39  NE1 TRP E   1      16.054  -2.947  -1.524  1.00 10.26 LIG-0.36  N 
ATOM     40  CE2 TRP E   1      14.848  -3.432  -1.089  1.00  6.86 LIG 0.04  A 
ATOM     41 HE1  TRP E   1      16.181  -2.187  -1.904  1.00 10.26 LIG 0.17  HD
ATOM     42  CZ2 TRP E   1      13.576  -2.859  -1.138  1.00  8.31 LIG 0.03  A 
ATOM     43  CD2 TRP E   1      15.080  -4.712  -0.530  1.00  9.88 LIG-0.00  A 
ATOM     44  CH2 TRP E   1      12.534  -3.593  -0.631  1.00 13.27 LIG 0.00  A 
ATOM     45  CZ3 TRP E   1      12.731  -4.862  -0.070  1.00 13.61 LIG 0.00  A 
ATOM     46  CE3 TRP E   1      13.996  -5.432  -0.017  1.00 14.26 LIG 0.01  A 
ENDBRANCH 36 37
ENDBRANCH 30 36
ENDBRANCH 28 30
ENDBRANCH 1 26
TORSDOF 14
ENDMDL
MODEL 7
USER: ADFR SOLUTION from run 58
USER: SCORE 14.224567 LL:  -3.184 LR: -11.583 RR:   0.000 FEB:  -7.407
USER: RMSD 2.207512
USER: SEED 57
USER: STATUS 1 or 2 clusters left
USER: GENES 16
USER: genes 0 Translation |==|  0.57525 0.45887 0.52790
USER: genes 1 Rotation |==|  0.48207 0.46176 0.50161 0.99821
USER: genes 2 Torsion [N]-CA--C-[N] |==|  0.26126
USER: genes 3 Torsion [C]-N--CA-[C] |==|  0.82900
USER: genes 4 Torsion [N]-CA--C-[N] |==|  0.35157
USER: genes 5 Torsion [C]-N--CA-[C] |==|  0.80349
USER: genes 6 Torsion [N]-CA--C-[N] |==|  0.43324
USER: genes 7 Torsion [N]-CA--CB-[CG2] |==|  0.55727
USER: genes 8 Torsion [CA]-CB--OG1-[HG1] |==|  0.73274
USER: genes 9 Torsion [C]-CA--CB-[CG] |==|  0.69165
USER: genes 10 Torsion [CA]-CB--CG-[ND1] |==|  0.28982
USER: genes 11 Torsion [C]-CA--N-[C] |==|  0.73251
USER: genes 12 Torsion [N]-C--CA-[N] |==|  0.25869
USER: genes 13 Torsion [C]-CA--N-[C] |==|  0.75869
USER: genes 14 Torsion [C]-CA--CB-[CG] |==|  0.42994
USER: genes 15 Torsion [CA]-CB--CG-[CD1] |==|  0.31582
ROOT
ATOM      1  CA  HIS E   2      16.623  -9.429   2.989  1.00 14.20 LIG 0.18  C 
ENDROOT
BRANCH 1 2
ATOM      2  C   HIS E   2      15.284 -10.065   2.633  1.00 15.34 LIG 0.24  C 
ATOM      3 O    HIS E   2      14.304  -9.964   3.378  1.00 13.21 LIG-0.27  OA
ATOM      4  N   THR E   3      15.262 -10.752   1.491  1.00 14.85 LIG-0.34  N 
ATOM      5 H    THR E   3      15.918 -10.793   0.937  1.00 14.85 LIG 0.16  HD
BRANCH 4 6
ATOM      6  CA  THR E   3      14.079 -11.506   1.092  1.00 13.22 LIG 0.20  C 
BRANCH 6 7
ATOM      7  C   THR E   3      13.768 -12.595   2.110  1.00 13.63 LIG 0.24  C 
ATOM      8  N   ALA E   4      12.530 -12.604   2.603  1.00  8.98 LIG-0.35  N 
ATOM      9 H    ALA E   4      11.921 -12.038   2.383  1.00  8.98 LIG 0.16  HD
ATOM     10 O    THR E   3      14.630 -13.409   2.452  1.00 14.15 LIG-0.27  OA
BRANCH 8 11
ATOM     11  CA  ALA E   4      12.104 -13.603   3.581  1.00 15.48 LIG 0.18  C 
ATOM     12  CB  ALA E   4      10.793 -13.184   4.223  1.00 13.80 LIG 0.04  C 
BRANCH 11 13
ATOM     13  C   ALA E   4      11.970 -15.000   2.968  1.00 23.80 LIG 0.28  C 
ATOM     14 O    ALA E   4      11.781 -15.137   1.758  1.00 30.75 LIG-0.27  OA
ATOM     15  N   NH2 E 101      12.076 -16.034   3.799  1.00 22.73 LIG-0.11  N 
ENDBRANCH 11 13
ENDBRANCH 8 11
ENDBRANCH 6 7
BRANCH 6 16
ATOM     16  CB  THR E   3      14.287 -12.133  -0.286  1.00 20.99 LIG 0.15  C 
ATOM     17  CG2 THR E   3      12.941 -12.473  -0.926  1.00 14.08 LIG 0.04  C 
BRANCH 16 18
ATOM     18 OG1  THR E   3      14.993 -11.212  -1.122  1.00 27.33 LIG-0.39  OA
ATOM     19 HG1  THR E   3      14.446 -10.783  -1.592  1.00 27.33 LIG 0.21  HD
ENDBRANCH 16 18
ENDBRANCH 6 16
ENDBRANCH 4 6
ENDBRANCH 1 2
BRANCH 1 20
ATOM     20  CB  HIS E   2      16.828  -9.520   4.508  1.00 18.36 LIG 0.10  C 
BRANCH 20 21
ATOM     21  CG  HIS E   2      16.767  -8.202   5.215  1.00 23.43 LIG 0.06  A 
ATOM     22  CD2 HIS E   2      17.672  -7.199   5.311  1.00 23.79 LIG 0.14  A 
ATOM     23 NE2  HIS E   2      17.111  -6.224   6.099  1.00 23.75 LIG-0.25  NA
ATOM     24  CE1 HIS E   2      15.907  -6.615   6.475  1.00 26.05 LIG 0.23  A 
ATOM     25 ND1  HIS E   2      15.675  -7.809   5.958  1.00 21.22 LIG-0.24  NA
ENDBRANCH 20 21
ENDBRANCH 1 20
BRANCH 1 26
ATOM     26  N   HIS E   2      16.657  -8.051   2.510  1.00 15.97 LIG-0.35  N 
ATOM     27 H    HIS E   2      16.289  -7.485   3.043  1.00 15.97 LIG 0.16  HD
ATOM     28  C   TRP E   1      17.214  -7.713   1.344  1.00 12.03 LIG 0.24  C 
ATOM     29 O    TRP E   1      17.779  -8.527   0.606  1.00 13.67 LIG-0.27  OA
BRANCH 28 30
ATOM     30  CA  TRP E   1      17.091  -6.250   0.932  1.00  9.26 LIG 0.18  C 
BRANCH 30 31
ATOM     31  N   TRP E   1      18.231  -5.426   1.341  1.00 13.05 LIG-0.35  N 
ATOM     32 H    TRP E   1      18.839  -5.360   0.737  1.00 13.05 LIG 0.16  HD
ATOM     33  C   ACE E   0      18.323  -4.832   2.530  1.00 12.60 LIG 0.21  C 
ATOM     34  CH3 ACE E   0      19.578  -4.016   2.762  1.00  6.27 LIG 0.12  C 
ATOM     35 O    ACE E   0      17.443  -4.940   3.383  1.00 15.02 LIG-0.27  OA
ENDBRANCH 30 31
BRANCH 30 36
ATOM     36  CB  TRP E   1      16.913  -6.168  -0.580  1.00 10.27 LIG 0.07  C 
BRANCH 36 37
ATOM     37  CG  TRP E   1      16.206  -4.927  -1.041  1.00  6.62 LIG-0.03  A 
ATOM     38  CD1 TRP E   1      16.726  -3.906  -1.788  1.00  7.94 LIG 0.10  A 
ATOM     39  NE1 TRP E   1      15.762  -2.940  -2.011  1.00 10.26 LIG-0.36  N 
ATOM     40  CE2 TRP E   1      14.601  -3.329  -1.395  1.00  6.86 LIG 0.04  A 
ATOM     41 HE1  TRP E   1      15.873  -2.215  -2.461  1.00 10.26 LIG 0.17  HD
ATOM     42  CZ2 TRP E   1      13.359  -2.695  -1.331  1.00  8.31 LIG 0.03  A 
ATOM     43  CD2 TRP E   1      14.846  -4.577  -0.774  1.00  9.88 LIG-0.00  A 
ATOM     44  CH2 TRP E   1      12.359  -3.336  -0.645  1.00 13.27 LIG 0.00  A 
ATOM     45  CZ3 TRP E   1      12.571  -4.571  -0.019  1.00 13.61 LIG 0.00  A 
ATOM     46  CE3 TRP E   1      13.806  -5.202  -0.079  1.00 14.26 LIG 0.01  A 
ENDBRANCH 36 37
ENDBRANCH 30 36
ENDBRANCH 28 30
ENDBRANCH 1 26
TORSDOF 14
ENDMDL
MODEL 8
USER: ADFR SOLUTION from run 52
USER: SCORE 13.679578 LL:  -2.988 LR: -11.510 RR:   0.000 FEB:  -7.334
USER: RMSD 1.711779
USER: SEED 51
USER: STATUS searching
USER: GENES 16
USER: genes 0 Translation |==|  0.58537 0.47861 0.52180
USER: genes 1 Rotation |==|  0.46580 0.43560 0.48517 0.99443
USER: genes 2 Torsion [N]-CA--C-[N] |==|  0.52450
USER: genes 3 Torsion [C]-N--CA-[C] |==|  0.69454
USER: genes 4 Torsion [N]-CA--C-[N] |==|  0.43396
USER: genes 5 Torsion [C]-N--CA-[C] |==|  0.75053
USER: genes 6 Torsion [N]-CA--C-[N] |==|  0.39841
USER: genes 7 Torsion [N]-CA--CB-[CG2] |==|  0.24328
USER: genes 8 Torsion [CA]-CB--OG1-[HG1] |==|  0.94720
USER: genes 9 Torsion [C]-CA--CB-[CG] |==|  0.22312
USER: genes 10 Torsion [CA]-CB--CG-[ND1] |==|  0.10300
USER: genes 11 Torsion [C]-CA--N-[C] |==|  0.74053
USER: genes 12 Torsion [N]-C--CA-[N] |==|  0.28924
USER: genes 13 Torsion [C]-CA--N-[C] |==|  0.73357
USER: genes 14 Torsion [C]-CA--CB-[CG] |==|  0.38877
USER: genes 15 Torsion [CA]-CB--CG-[CD1] |==|  0.31540
ROOT
ATOM      1  CA  HIS E   2      16.821  -9.014   2.884  1.00 14.20 LIG 0.18  C 
ENDROOT
BRANCH 1 2
ATOM      2  C   HIS E   2      15.485  -9.586   2.419  1.00 15.34 LIG 0.24  C 
ATOM      3 O    HIS E   2      14.791  -9.001   1.581  1.00 13.21 LIG-0.27  OA
ATOM      4  N   THR E   3      15.119 -10.729   2.999  1.00 14.85 LIG-0.34  N 
ATOM      5 H    THR E   3      15.609 -11.173   3.547  1.00 14.85 LIG 0.16  HD
BRANCH 4 6
ATOM      6  CA  THR E   3      13.812 -11.320   2.731  1.00 13.22 LIG 0.20  C 
BRANCH 6 7
ATOM      7  C   THR E   3      12.915 -11.218   3.959  1.00 13.63 LIG 0.24  C 
ATOM      8  N   ALA E   4      11.603 -11.253   3.733  1.00  8.98 LIG-0.35  N 
ATOM      9 H    ALA E   4      11.252 -11.323   2.951  1.00  8.98 LIG 0.16  HD
ATOM     10 O    THR E   3      13.397 -11.102   5.089  1.00 14.15 LIG-0.27  OA
BRANCH 8 11
ATOM     11  CA  ALA E   4      10.637 -11.173   4.827  1.00 15.48 LIG 0.18  C 
ATOM     12  CB  ALA E   4       9.386 -10.443   4.370  1.00 13.80 LIG 0.04  C 
BRANCH 11 13
ATOM     13  C   ALA E   4      10.271 -12.551   5.386  1.00 23.80 LIG 0.28  C 
ATOM     14 O    ALA E   4      10.182 -13.526   4.638  1.00 30.75 LIG-0.27  OA
ATOM     15  N   NH2 E 101      10.070 -12.633   6.698  1.00 22.73 LIG-0.11  N 
ENDBRANCH 11 13
ENDBRANCH 8 11
ENDBRANCH 6 7
BRANCH 6 16
ATOM     16  CB  THR E   3      13.965 -12.785   2.325  1.00 20.99 LIG 0.15  C 
ATOM     17  CG2 THR E   3      13.974 -13.683   3.562  1.00 14.08 LIG 0.04  C 
BRANCH 16 18
ATOM     18 OG1  THR E   3      12.876 -13.155   1.475  1.00 27.33 LIG-0.39  OA
ATOM     19 HG1  THR E   3      12.247 -12.606   1.570  1.00 27.33 LIG 0.21  HD
ENDBRANCH 16 18
ENDBRANCH 6 16
ENDBRANCH 4 6
ENDBRANCH 1 2
BRANCH 1 20
ATOM     20  CB  HIS E   2      16.857  -9.021   4.418  1.00 18.36 LIG 0.10  C 
BRANCH 20 21
ATOM     21  CG  HIS E   2      17.195 -10.350   5.018  1.00 23.43 LIG 0.06  A 
ATOM     22  CD2 HIS E   2      16.756 -10.957   6.146  1.00 23.79 LIG 0.14  A 
ATOM     23 NE2  HIS E   2      17.408 -12.163   6.235  1.00 23.75 LIG-0.25  NA
ATOM     24  CE1 HIS E   2      18.219 -12.290   5.201  1.00 26.05 LIG 0.23  A 
ATOM     25 ND1  HIS E   2      18.114 -11.207   4.451  1.00 21.22 LIG-0.24  NA
ENDBRANCH 20 21
ENDBRANCH 1 20
BRANCH 1 26
ATOM     26  N   HIS E   2      17.001  -7.674   2.335  1.00 15.97 LIG-0.35  N 
ATOM     27 H    HIS E   2      16.652  -7.050   2.812  1.00 15.97 LIG 0.16  HD
ATOM     28  C   TRP E   1      17.653  -7.453   1.190  1.00 12.03 LIG 0.24  C 
ATOM     29 O    TRP E   1      18.187  -8.353   0.534  1.00 13.67 LIG-0.27  OA
BRANCH 28 30
ATOM     30  CA  TRP E   1      17.680  -6.011   0.693  1.00  9.26 LIG 0.18  C 
BRANCH 30 31
ATOM     31  N   TRP E   1      18.964  -5.340   0.906  1.00 13.05 LIG-0.35  N 
ATOM     32 H    TRP E   1      19.540  -5.497   0.288  1.00 13.05 LIG 0.16  HD
ATOM     33  C   ACE E   0      19.223  -4.559   1.955  1.00 12.60 LIG 0.21  C 
ATOM     34  CH3 ACE E   0      20.610  -3.949   1.994  1.00  6.27 LIG 0.12  C 
ATOM     35 O    ACE E   0      18.388  -4.348   2.832  1.00 15.02 LIG-0.27  OA
ENDBRANCH 30 31
BRANCH 30 36
ATOM     36  CB  TRP E   1      17.326  -5.985  -0.790  1.00 10.27 LIG 0.07  C 
BRANCH 36 37
ATOM     37  CG  TRP E   1      16.435  -4.841  -1.181  1.00  6.62 LIG-0.03  A 
ATOM     38  CD1 TRP E   1      16.751  -3.786  -1.991  1.00  7.94 LIG 0.10  A 
ATOM     39  NE1 TRP E   1      15.665  -2.939  -2.113  1.00 10.26 LIG-0.36  N 
ATOM     40  CE2 TRP E   1      14.630  -3.442  -1.368  1.00  6.86 LIG 0.04  A 
ATOM     41 HE1  TRP E   1      15.642  -2.216  -2.579  1.00 10.26 LIG 0.17  HD
ATOM     42  CZ2 TRP E   1      13.338  -2.951  -1.172  1.00  8.31 LIG 0.03  A 
ATOM     43  CD2 TRP E   1      15.083  -4.641  -0.767  1.00  9.88 LIG-0.00  A 
ATOM     44  CH2 TRP E   1      12.499  -3.685  -0.373  1.00 13.27 LIG 0.00  A 
ATOM     45  CZ3 TRP E   1      12.918  -4.875   0.237  1.00 13.61 LIG 0.00  A 
ATOM     46  CE3 TRP E   1      14.203  -5.364   0.046  1.00 14.26 LIG 0.01  A 
ENDBRANCH 36 37
ENDBRANCH 30 36
ENDBRANCH 28 30
ENDBRANCH 1 26
TORSDOF 14
ENDMDL
