MODEL 1
USER: ADFR SOLUTION from run 135
USER: SCORE 12.084441 LL:  -2.565 LR: -11.183 RR:   0.000 FEB:  -7.604
USER: RMSD 2.757298
USER: SEED 134
USER: STATUS no improvement in best in 4 clusters for 5 generations
USER: GENES 14
USER: genes 0 Translation |==|  0.53610 0.51117 0.57827
USER: genes 1 Rotation |==|  0.47281 0.54215 0.42263 0.99142
USER: genes 2 Torsion [CB]-CA--N-[C] |==|  0.51132
USER: genes 3 Torsion [N]-C--CA-[N] |==|  0.43889
USER: genes 4 Torsion [C]-CA--CB-[CG] |==|  0.54363
USER: genes 5 Torsion [CA]-CB--CG-[CD1] |==|  0.87193
USER: genes 6 Torsion [C]-CA--N-[C] |==|  0.66265
USER: genes 7 Torsion [N]-CA--C-[N] |==|  0.28909
USER: genes 8 Torsion [C]-N--CA-[CB] |==|  0.53545
USER: genes 9 Torsion [N]-CA--C-[N] |==|  0.33575
USER: genes 10 Torsion [C]-N--CA-[C] |==|  0.52544
USER: genes 11 Torsion [N]-CA--C-[N] |==|  0.43160
USER: genes 12 Torsion [N]-CA--CB-[CG] |==|  0.98857
USER: genes 13 Torsion [CA]-CB--CG-[CD2] |==|  0.35368
ROOT
ATOM      1  CA  HIS C   2      13.130  21.923  32.387  1.00 10.06 LIG 0.18  C 
ENDROOT
BRANCH 1 2
ATOM      2  N   HIS C   2      13.892  20.677  32.319  1.00  9.48 LIG-0.35  N 
ATOM      3 H    HIS C   2      14.712  20.754  32.569  1.00  9.48 LIG 0.16  HD
ATOM      4  C   PHE C   1      13.358  19.535  31.907  1.00  9.37 LIG 0.24  C 
ATOM      5 O    PHE C   1      12.170  19.408  31.629  1.00 11.27 LIG-0.27  OA
BRANCH 4 6
ATOM      6  CA  PHE C   1      14.314  18.370  31.769  1.00  8.68 LIG 0.18  C 
BRANCH 6 7
ATOM      7  CB  PHE C   1      15.063  18.512  30.445  1.00  8.30 LIG 0.07  C 
BRANCH 7 8
ATOM      8  CG  PHE C   1      15.758  17.256  30.007  1.00  6.80 LIG-0.06  A 
ATOM      9  CD1 PHE C   1      16.519  16.517  30.902  1.00  6.68 LIG 0.01  A 
ATOM     10  CE1 PHE C   1      17.146  15.355  30.495  1.00  6.85 LIG 0.00  A 
ATOM     11  CZ  PHE C   1      17.034  14.927  29.191  1.00  6.56 LIG 0.00  A 
ATOM     12  CE2 PHE C   1      16.283  15.653  28.285  1.00  6.82 LIG 0.00  A 
ATOM     13  CD2 PHE C   1      15.646  16.811  28.698  1.00  7.43 LIG 0.01  A 
ENDBRANCH 7 8
ENDBRANCH 6 7
BRANCH 6 14
ATOM     14  N   PHE C   1      13.602  17.090  31.825  1.00  9.64 LIG-0.35  N 
ATOM     15 H    PHE C   1      12.997  16.993  31.222  1.00  9.64 LIG 0.16  HD
ATOM     16  C   ACE C   0      13.889  16.175  32.745  1.00 12.10 LIG 0.21  C 
ATOM     17  CH3 ACE C   0      13.040  14.937  32.736  1.00 13.09 LIG 0.12  C 
ATOM     18 O    ACE C   0      14.788  16.339  33.570  1.00 13.69 LIG-0.27  OA
ENDBRANCH 6 14
ENDBRANCH 4 6
ENDBRANCH 1 2
BRANCH 1 19
ATOM     19  C   HIS C   2      12.561  22.234  31.019  1.00  9.05 LIG 0.24  C 
ATOM     20  N   ALA C   3      11.268  22.002  30.842  1.00  9.24 LIG-0.35  N 
ATOM     21 H    ALA C   3      10.755  21.624  31.420  1.00  9.24 LIG 0.16  HD
ATOM     22 O    HIS C   2      13.270  22.717  30.144  1.00  8.29 LIG-0.27  OA
BRANCH 20 23
ATOM     23  CA  ALA C   3      10.613  22.394  29.597  1.00  8.91 LIG 0.17  C 
ATOM     24  CB  ALA C   3       9.103  22.319  29.742  1.00  9.99 LIG 0.04  C 
BRANCH 23 25
ATOM     25  C   ALA C   3      11.035  23.811  29.203  1.00  9.36 LIG 0.24  C 
ATOM     26  N   ALA C   4      11.627  23.938  28.021  1.00  9.08 LIG-0.35  N 
ATOM     27 H    ALA C   4      11.691  23.303  27.445  1.00  9.08 LIG 0.16  HD
ATOM     28 O    ALA C   3      10.806  24.774  29.947  1.00  9.90 LIG-0.27  OA
BRANCH 26 29
ATOM     29  CA  ALA C   4      12.231  25.201  27.596  1.00  9.70 LIG 0.18  C 
ATOM     30  CB  ALA C   4      13.410  25.536  28.480  1.00  9.53 LIG 0.04  C 
BRANCH 29 31
ATOM     31  C   ALA C   4      12.661  25.218  26.141  1.00 11.00 LIG 0.28  C 
ATOM     32  N   NH2 C   5      12.738  26.402  25.550  1.00 10.22 LIG-0.11  N 
ATOM     33 O    ALA C   4      12.885  24.163  25.564  1.00 13.70 LIG-0.27  OA
ENDBRANCH 29 31
ENDBRANCH 26 29
ENDBRANCH 23 25
ENDBRANCH 20 23
ENDBRANCH 1 19
BRANCH 1 34
ATOM     34  CB  HIS C   2      14.021  23.100  32.801  1.00 12.23 LIG 0.10  C 
BRANCH 34 35
ATOM     35  CG  HIS C   2      15.423  22.716  33.134  1.00 15.24 LIG 0.06  A 
ATOM     36 ND1  HIS C   2      15.725  21.726  34.043  1.00 17.16 LIG-0.24  NA
ATOM     37  CE1 HIS C   2      17.037  21.605  34.137  1.00 17.55 LIG 0.23  A 
ATOM     38 NE2  HIS C   2      17.596  22.480  33.322  1.00 18.01 LIG-0.25  NA
ATOM     39  CD2 HIS C   2      16.609  23.186  32.681  1.00 16.53 LIG 0.14  A 
ENDBRANCH 34 35
ENDBRANCH 1 34
TORSDOF 12
ENDMDL
MODEL 2
USER: ADFR SOLUTION from run 114
USER: SCORE 12.363856 LL:  -2.874 LR: -11.167 RR:   0.000 FEB:  -7.588
USER: RMSD 2.010269
USER: SEED 113
USER: STATUS no improvement in best in 6 clusters for 5 generations
USER: GENES 14
USER: genes 0 Translation |==|  0.46484 0.51497 0.53302
USER: genes 1 Rotation |==|  0.53629 0.49314 0.50888 0.99855
USER: genes 2 Torsion [CB]-CA--N-[C] |==|  0.24909
USER: genes 3 Torsion [N]-C--CA-[N] |==|  0.41124
USER: genes 4 Torsion [C]-CA--CB-[CG] |==|  0.47702
USER: genes 5 Torsion [CA]-CB--CG-[CD1] |==|  0.72713
USER: genes 6 Torsion [C]-CA--N-[C] |==|  0.80215
USER: genes 7 Torsion [N]-CA--C-[N] |==|  0.39444
USER: genes 8 Torsion [C]-N--CA-[CB] |==|  0.53475
USER: genes 9 Torsion [N]-CA--C-[N] |==|  0.34635
USER: genes 10 Torsion [C]-N--CA-[C] |==|  0.54007
USER: genes 11 Torsion [N]-CA--C-[N] |==|  0.44690
USER: genes 12 Torsion [N]-CA--CB-[CG] |==|  0.13561
USER: genes 13 Torsion [CA]-CB--CG-[CD2] |==|  0.25131
ROOT
ATOM      1  CA  HIS C   2      11.954  22.002  31.505  1.00 10.06 LIG 0.18  C 
ENDROOT
BRANCH 1 2
ATOM      2  N   HIS C   2      13.105  21.109  31.374  1.00  9.48 LIG-0.35  N 
ATOM      3 H    HIS C   2      13.606  21.281  30.697  1.00  9.48 LIG 0.16  HD
ATOM      4  C   PHE C   1      13.344  20.125  32.231  1.00  9.37 LIG 0.24  C 
ATOM      5 O    PHE C   1      12.676  19.932  33.241  1.00 11.27 LIG-0.27  OA
BRANCH 4 6
ATOM      6  CA  PHE C   1      14.499  19.211  31.880  1.00  8.68 LIG 0.18  C 
BRANCH 6 7
ATOM      7  CB  PHE C   1      13.963  18.057  31.034  1.00  8.30 LIG 0.07  C 
BRANCH 7 8
ATOM      8  CG  PHE C   1      15.037  17.184  30.455  1.00  6.80 LIG-0.06  A 
ATOM      9  CD1 PHE C   1      15.466  17.360  29.146  1.00  6.68 LIG 0.01  A 
ATOM     10  CE1 PHE C   1      16.464  16.560  28.623  1.00  6.85 LIG 0.00  A 
ATOM     11  CZ  PHE C   1      17.033  15.569  29.393  1.00  6.56 LIG 0.00  A 
ATOM     12  CE2 PHE C   1      16.616  15.378  30.697  1.00  6.82 LIG 0.00  A 
ATOM     13  CD2 PHE C   1      15.623  16.188  31.223  1.00  7.43 LIG 0.01  A 
ENDBRANCH 7 8
ENDBRANCH 6 7
BRANCH 6 14
ATOM     14  N   PHE C   1      15.159  18.704  33.086  1.00  9.64 LIG-0.35  N 
ATOM     15 H    PHE C   1      15.022  17.870  33.243  1.00  9.64 LIG 0.16  HD
ATOM     16  C   ACE C   0      15.901  19.493  33.855  1.00 12.10 LIG 0.21  C 
ATOM     17  CH3 ACE C   0      16.464  18.867  35.098  1.00 13.09 LIG 0.12  C 
ATOM     18 O    ACE C   0      16.101  20.676  33.577  1.00 13.69 LIG-0.27  OA
ENDBRANCH 6 14
ENDBRANCH 4 6
ENDBRANCH 1 2
BRANCH 1 19
ATOM     19  C   HIS C   2      11.551  22.500  30.133  1.00  9.05 LIG 0.24  C 
ATOM     20  N   ALA C   3      10.252  22.624  29.900  1.00  9.24 LIG-0.35  N 
ATOM     21 H    ALA C   3       9.632  22.375  30.442  1.00  9.24 LIG 0.16  HD
ATOM     22 O    HIS C   2      12.401  22.808  29.307  1.00  8.29 LIG-0.27  OA
BRANCH 20 23
ATOM     23  CA  ALA C   3       9.780  23.217  28.652  1.00  8.91 LIG 0.17  C 
ATOM     24  CB  ALA C   3       8.297  23.534  28.738  1.00  9.99 LIG 0.04  C 
BRANCH 23 25
ATOM     25  C   ALA C   3      10.573  24.489  28.340  1.00  9.36 LIG 0.24  C 
ATOM     26  N   ALA C   4      11.169  24.531  27.154  1.00  9.08 LIG-0.35  N 
ATOM     27 H    ALA C   4      11.052  23.944  26.537  1.00  9.08 LIG 0.16  HD
ATOM     28 O    ALA C   3      10.623  25.423  29.152  1.00  9.90 LIG-0.27  OA
BRANCH 26 29
ATOM     29  CA  ALA C   4      12.094  25.606  26.798  1.00  9.70 LIG 0.18  C 
ATOM     30  CB  ALA C   4      13.380  25.467  27.580  1.00  9.53 LIG 0.04  C 
BRANCH 29 31
ATOM     31  C   ALA C   4      12.404  25.684  25.314  1.00 11.00 LIG 0.28  C 
ATOM     32  N   NH2 C   5      12.899  26.828  24.862  1.00 10.22 LIG-0.11  N 
ATOM     33 O    ALA C   4      12.161  24.727  24.594  1.00 13.70 LIG-0.27  OA
ENDBRANCH 29 31
ENDBRANCH 26 29
ENDBRANCH 23 25
ENDBRANCH 20 23
ENDBRANCH 1 19
BRANCH 1 34
ATOM     34  CB  HIS C   2      12.294  23.227  32.364  1.00 12.23 LIG 0.10  C 
BRANCH 34 35
ATOM     35  CG  HIS C   2      13.560  23.912  31.976  1.00 15.24 LIG 0.06  A 
ATOM     36 ND1  HIS C   2      14.782  23.567  32.509  1.00 17.16 LIG-0.24  NA
ATOM     37  CE1 HIS C   2      15.720  24.338  31.986  1.00 17.55 LIG 0.23  A 
ATOM     38 NE2  HIS C   2      15.149  25.169  31.134  1.00 18.01 LIG-0.25  NA
ATOM     39  CD2 HIS C   2      13.798  24.922  31.108  1.00 16.53 LIG 0.14  A 
ENDBRANCH 34 35
ENDBRANCH 1 34
TORSDOF 12
ENDMDL
MODEL 3
USER: ADFR SOLUTION from run 103
USER: SCORE 12.510077 LL:  -2.789 LR: -10.628 RR:   0.000 FEB:  -7.048
USER: RMSD 2.762881
USER: SEED 102
USER: STATUS no improvement in best in 3 clusters for 5 generations
USER: GENES 14
USER: genes 0 Translation |==|  0.59563 0.56467 0.62718
USER: genes 1 Rotation |==|  0.46755 0.61222 0.43082 0.98121
USER: genes 2 Torsion [CB]-CA--N-[C] |==|  0.24444
USER: genes 3 Torsion [N]-C--CA-[N] |==|  0.46574
USER: genes 4 Torsion [C]-CA--CB-[CG] |==|  0.40495
USER: genes 5 Torsion [CA]-CB--CG-[CD1] |==|  0.71814
USER: genes 6 Torsion [C]-CA--N-[C] |==|  0.78107
USER: genes 7 Torsion [N]-CA--C-[N] |==|  0.00836
USER: genes 8 Torsion [C]-N--CA-[CB] |==|  0.86036
USER: genes 9 Torsion [N]-CA--C-[N] |==|  0.41633
USER: genes 10 Torsion [C]-N--CA-[C] |==|  0.74743
USER: genes 11 Torsion [N]-CA--C-[N] |==|  0.97082
USER: genes 12 Torsion [N]-CA--CB-[CG] |==|  0.01389
USER: genes 13 Torsion [CA]-CB--CG-[CD2] |==|  0.24488
ROOT
ATOM      1  CA  HIS C   2      14.112  23.046  33.341  1.00 10.06 LIG 0.18  C 
ENDROOT
BRANCH 1 2
ATOM      2  N   HIS C   2      14.836  21.814  33.031  1.00  9.48 LIG-0.35  N 
ATOM      3 H    HIS C   2      14.929  21.665  32.189  1.00  9.48 LIG 0.16  HD
ATOM      4  C   PHE C   1      15.303  21.005  33.972  1.00  9.37 LIG 0.24  C 
ATOM      5 O    PHE C   1      15.242  21.259  35.171  1.00 11.27 LIG-0.27  OA
BRANCH 4 6
ATOM      6  CA  PHE C   1      15.911  19.707  33.486  1.00  8.68 LIG 0.18  C 
BRANCH 6 7
ATOM      7  CB  PHE C   1      14.789  18.814  32.959  1.00  8.30 LIG 0.07  C 
BRANCH 7 8
ATOM      8  CG  PHE C   1      15.193  17.961  31.793  1.00  6.80 LIG-0.06  A 
ATOM      9  CD1 PHE C   1      14.835  18.313  30.499  1.00  6.68 LIG 0.01  A 
ATOM     10  CE1 PHE C   1      15.222  17.529  29.428  1.00  6.85 LIG 0.00  A 
ATOM     11  CZ  PHE C   1      15.953  16.381  29.638  1.00  6.56 LIG 0.00  A 
ATOM     12  CE2 PHE C   1      16.314  16.014  30.921  1.00  6.82 LIG 0.00  A 
ATOM     13  CD2 PHE C   1      15.936  16.806  31.991  1.00  7.43 LIG 0.01  A 
ENDBRANCH 7 8
ENDBRANCH 6 7
BRANCH 6 14
ATOM     14  N   PHE C   1      16.648  19.032  34.558  1.00  9.64 LIG-0.35  N 
ATOM     15 H    PHE C   1      16.223  18.381  34.926  1.00  9.64 LIG 0.16  HD
ATOM     16  C   ACE C   0      17.869  19.418  34.911  1.00 12.10 LIG 0.21  C 
ATOM     17  CH3 ACE C   0      18.486  18.688  36.069  1.00 13.09 LIG 0.12  C 
ATOM     18 O    ACE C   0      18.456  20.334  34.334  1.00 13.69 LIG-0.27  OA
ENDBRANCH 6 14
ENDBRANCH 4 6
ENDBRANCH 1 2
BRANCH 1 19
ATOM     19  C   HIS C   2      13.179  23.378  32.196  1.00  9.05 LIG 0.24  C 
ATOM     20  N   ALA C   3      13.131  22.511  31.194  1.00  9.24 LIG-0.35  N 
ATOM     21 H    ALA C   3      13.640  21.822  31.118  1.00  9.24 LIG 0.16  HD
ATOM     22 O    HIS C   2      12.478  24.382  32.233  1.00  8.29 LIG-0.27  OA
BRANCH 20 23
ATOM     23  CA  ALA C   3      12.166  22.688  30.112  1.00  8.91 LIG 0.17  C 
ATOM     24  CB  ALA C   3      10.771  22.905  30.672  1.00  9.99 LIG 0.04  C 
BRANCH 23 25
ATOM     25  C   ALA C   3      12.571  23.873  29.232  1.00  9.36 LIG 0.24  C 
ATOM     26  N   ALA C   4      12.221  23.799  27.953  1.00  9.08 LIG-0.35  N 
ATOM     27 H    ALA C   4      11.709  23.188  27.630  1.00  9.08 LIG 0.16  HD
ATOM     28 O    ALA C   3      13.170  24.845  29.711  1.00  9.90 LIG-0.27  OA
BRANCH 26 29
ATOM     29  CA  ALA C   4      12.690  24.775  26.971  1.00  9.70 LIG 0.18  C 
ATOM     30  CB  ALA C   4      12.909  24.105  25.634  1.00  9.53 LIG 0.04  C 
BRANCH 29 31
ATOM     31  C   ALA C   4      11.767  25.968  26.800  1.00 11.00 LIG 0.28  C 
ATOM     32  N   NH2 C   5      10.574  25.892  27.372  1.00 10.22 LIG-0.11  N 
ATOM     33 O    ALA C   4      12.130  26.922  26.128  1.00 13.70 LIG-0.27  OA
ENDBRANCH 29 31
ENDBRANCH 26 29
ENDBRANCH 23 25
ENDBRANCH 20 23
ENDBRANCH 1 19
BRANCH 1 34
ATOM     34  CB  HIS C   2      15.073  24.228  33.516  1.00 12.23 LIG 0.10  C 
BRANCH 34 35
ATOM     35  CG  HIS C   2      16.499  23.905  33.222  1.00 15.24 LIG 0.06  A 
ATOM     36 ND1  HIS C   2      17.378  23.481  34.194  1.00 17.16 LIG-0.24  NA
ATOM     37  CE1 HIS C   2      18.564  23.271  33.649  1.00 17.55 LIG 0.23  A 
ATOM     38 NE2  HIS C   2      18.483  23.543  32.359  1.00 18.01 LIG-0.25  NA
ATOM     39  CD2 HIS C   2      17.202  23.940  32.066  1.00 16.53 LIG 0.14  A 
ENDBRANCH 34 35
ENDBRANCH 1 34
TORSDOF 12
ENDMDL
MODEL 4
USER: ADFR SOLUTION from run 114
USER: SCORE 12.050352 LL:  -2.955 LR: -10.519 RR:   0.000 FEB:  -6.940
USER: RMSD 2.693160
USER: SEED 113
USER: STATUS no improvement in best in 6 clusters for 5 generations
USER: GENES 14
USER: genes 0 Translation |==|  0.52566 0.50624 0.57937
USER: genes 1 Rotation |==|  0.46351 0.56104 0.42498 0.98920
USER: genes 2 Torsion [CB]-CA--N-[C] |==|  0.52225
USER: genes 3 Torsion [N]-C--CA-[N] |==|  0.43571
USER: genes 4 Torsion [C]-CA--CB-[CG] |==|  0.53092
USER: genes 5 Torsion [CA]-CB--CG-[CD1] |==|  0.89828
USER: genes 6 Torsion [C]-CA--N-[C] |==|  0.66333
USER: genes 7 Torsion [N]-CA--C-[N] |==|  0.30837
USER: genes 8 Torsion [C]-N--CA-[CB] |==|  0.51256
USER: genes 9 Torsion [N]-CA--C-[N] |==|  0.34445
USER: genes 10 Torsion [C]-N--CA-[C] |==|  0.75517
USER: genes 11 Torsion [N]-CA--C-[N] |==|  0.99948
USER: genes 12 Torsion [N]-CA--CB-[CG] |==|  0.39945
USER: genes 13 Torsion [CA]-CB--CG-[CD2] |==|  0.21583
ROOT
ATOM      1  CA  HIS C   2      12.957  21.819  32.409  1.00 10.06 LIG 0.18  C 
ENDROOT
BRANCH 1 2
ATOM      2  N   HIS C   2      13.722  20.576  32.309  1.00  9.48 LIG-0.35  N 
ATOM      3 H    HIS C   2      14.547  20.653  32.541  1.00  9.48 LIG 0.16  HD
ATOM      4  C   PHE C   1      13.181  19.438  31.897  1.00  9.37 LIG 0.24  C 
ATOM      5 O    PHE C   1      11.988  19.310  31.644  1.00 11.27 LIG-0.27  OA
BRANCH 4 6
ATOM      6  CA  PHE C   1      14.137  18.277  31.723  1.00  8.68 LIG 0.18  C 
BRANCH 6 7
ATOM      7  CB  PHE C   1      14.834  18.421  30.371  1.00  8.30 LIG 0.07  C 
BRANCH 7 8
ATOM      8  CG  PHE C   1      15.609  17.204  29.959  1.00  6.80 LIG-0.06  A 
ATOM      9  CD1 PHE C   1      16.294  16.447  30.900  1.00  6.68 LIG 0.01  A 
ATOM     10  CE1 PHE C   1      16.995  15.320  30.515  1.00  6.85 LIG 0.00  A 
ATOM     11  CZ  PHE C   1      17.034  14.946  29.190  1.00  6.56 LIG 0.00  A 
ATOM     12  CE2 PHE C   1      16.361  15.691  28.239  1.00  6.82 LIG 0.00  A 
ATOM     13  CD2 PHE C   1      15.649  16.814  28.629  1.00  7.43 LIG 0.01  A 
ENDBRANCH 7 8
ENDBRANCH 6 7
BRANCH 6 14
ATOM     14  N   PHE C   1      13.434  16.994  31.808  1.00  9.64 LIG-0.35  N 
ATOM     15 H    PHE C   1      12.809  16.891  31.226  1.00  9.64 LIG 0.16  HD
ATOM     16  C   ACE C   0      13.758  16.084  32.720  1.00 12.10 LIG 0.21  C 
ATOM     17  CH3 ACE C   0      12.916  14.841  32.745  1.00 13.09 LIG 0.12  C 
ATOM     18 O    ACE C   0      14.684  16.255  33.514  1.00 13.69 LIG-0.27  OA
ENDBRANCH 6 14
ENDBRANCH 4 6
ENDBRANCH 1 2
BRANCH 1 19
ATOM     19  C   HIS C   2      12.278  22.093  31.084  1.00  9.05 LIG 0.24  C 
ATOM     20  N   ALA C   3      10.957  21.986  31.057  1.00  9.24 LIG-0.35  N 
ATOM     21 H    ALA C   3      10.475  21.704  31.712  1.00  9.24 LIG 0.16  HD
ATOM     22 O    HIS C   2      12.931  22.438  30.107  1.00  8.29 LIG-0.27  OA
BRANCH 20 23
ATOM     23  CA  ALA C   3      10.212  22.357  29.857  1.00  8.91 LIG 0.17  C 
ATOM     24  CB  ALA C   3       8.716  22.254  30.104  1.00  9.99 LIG 0.04  C 
BRANCH 23 25
ATOM     25  C   ALA C   3      10.578  23.780  29.428  1.00  9.36 LIG 0.24  C 
ATOM     26  N   ALA C   4      11.027  23.920  28.186  1.00  9.08 LIG-0.35  N 
ATOM     27 H    ALA C   4      11.025  23.289  27.601  1.00  9.08 LIG 0.16  HD
ATOM     28 O    ALA C   3      10.434  24.735  30.203  1.00  9.90 LIG-0.27  OA
BRANCH 26 29
ATOM     29  CA  ALA C   4      11.571  25.189  27.705  1.00  9.70 LIG 0.18  C 
ATOM     30  CB  ALA C   4      12.649  24.936  26.677  1.00  9.53 LIG 0.04  C 
BRANCH 29 31
ATOM     31  C   ALA C   4      10.526  26.127  27.129  1.00 11.00 LIG 0.28  C 
ATOM     32  N   NH2 C   5       9.271  25.700  27.124  1.00 10.22 LIG-0.11  N 
ATOM     33 O    ALA C   4      10.870  27.206  26.668  1.00 13.70 LIG-0.27  OA
ENDBRANCH 29 31
ENDBRANCH 26 29
ENDBRANCH 23 25
ENDBRANCH 20 23
ENDBRANCH 1 19
BRANCH 1 34
ATOM     34  CB  HIS C   2      13.871  23.011  32.720  1.00 12.23 LIG 0.10  C 
BRANCH 34 35
ATOM     35  CG  HIS C   2      13.466  24.281  32.050  1.00 15.24 LIG 0.06  A 
ATOM     36 ND1  HIS C   2      14.105  24.763  30.929  1.00 17.16 LIG-0.24  NA
ATOM     37  CE1 HIS C   2      13.538  25.898  30.558  1.00 17.55 LIG 0.23  A 
ATOM     38 NE2  HIS C   2      12.555  26.167  31.398  1.00 18.01 LIG-0.25  NA
ATOM     39  CD2 HIS C   2      12.489  25.170  32.339  1.00 16.53 LIG 0.14  A 
ENDBRANCH 34 35
ENDBRANCH 1 34
TORSDOF 12
ENDMDL
MODEL 5
USER: ADFR SOLUTION from run 18
USER: SCORE 11.323029 LL:  -2.639 LR: -10.461 RR:   0.000 FEB:  -6.881
USER: RMSD 2.068336
USER: SEED 17
USER: STATUS 1 or 2 clusters left
USER: GENES 14
USER: genes 0 Translation |==|  0.44988 0.51101 0.52927
USER: genes 1 Rotation |==|  0.54500 0.48715 0.52704 0.99707
USER: genes 2 Torsion [CB]-CA--N-[C] |==|  0.26328
USER: genes 3 Torsion [N]-C--CA-[N] |==|  0.39562
USER: genes 4 Torsion [C]-CA--CB-[CG] |==|  0.50579
USER: genes 5 Torsion [CA]-CB--CG-[CD1] |==|  0.74282
USER: genes 6 Torsion [C]-CA--N-[C] |==|  0.79767
USER: genes 7 Torsion [N]-CA--C-[N] |==|  0.40652
USER: genes 8 Torsion [C]-N--CA-[CB] |==|  0.53449
USER: genes 9 Torsion [N]-CA--C-[N] |==|  0.34719
USER: genes 10 Torsion [C]-N--CA-[C] |==|  0.53368
USER: genes 11 Torsion [N]-CA--C-[N] |==|  0.47778
USER: genes 12 Torsion [N]-CA--CB-[CG] |==|  0.55671
USER: genes 13 Torsion [CA]-CB--CG-[CD2] |==|  0.32131
ROOT
ATOM      1  CA  HIS C   2      11.707  21.919  31.432  1.00 10.06 LIG 0.18  C 
ENDROOT
BRANCH 1 2
ATOM      2  N   HIS C   2      12.922  21.115  31.306  1.00  9.48 LIG-0.35  N 
ATOM      3 H    HIS C   2      13.461  21.389  30.694  1.00  9.48 LIG 0.16  HD
ATOM      4  C   PHE C   1      13.161  20.059  32.072  1.00  9.37 LIG 0.24  C 
ATOM      5 O    PHE C   1      12.432  19.718  32.997  1.00 11.27 LIG-0.27  OA
BRANCH 4 6
ATOM      6  CA  PHE C   1      14.398  19.259  31.726  1.00  8.68 LIG 0.18  C 
BRANCH 6 7
ATOM      7  CB  PHE C   1      13.984  18.089  30.834  1.00  8.30 LIG 0.07  C 
BRANCH 7 8
ATOM      8  CG  PHE C   1      15.120  17.184  30.459  1.00  6.80 LIG-0.06  A 
ATOM      9  CD1 PHE C   1      15.833  17.389  29.286  1.00  6.68 LIG 0.01  A 
ATOM     10  CE1 PHE C   1      16.887  16.559  28.953  1.00  6.85 LIG 0.00  A 
ATOM     11  CZ  PHE C   1      17.230  15.510  29.776  1.00  6.56 LIG 0.00  A 
ATOM     12  CE2 PHE C   1      16.528  15.289  30.947  1.00  6.82 LIG 0.00  A 
ATOM     13  CD2 PHE C   1      15.480  16.128  31.284  1.00  7.43 LIG 0.01  A 
ENDBRANCH 7 8
ENDBRANCH 6 7
BRANCH 6 14
ATOM     14  N   PHE C   1      15.071  18.774  32.934  1.00  9.64 LIG-0.35  N 
ATOM     15 H    PHE C   1      14.984  17.929  33.075  1.00  9.64 LIG 0.16  HD
ATOM     16  C   ACE C   0      15.751  19.594  33.727  1.00 12.10 LIG 0.21  C 
ATOM     17  CH3 ACE C   0      16.334  18.984  34.969  1.00 13.09 LIG 0.12  C 
ATOM     18 O    ACE C   0      15.880  20.792  33.471  1.00 13.69 LIG-0.27  OA
ENDBRANCH 6 14
ENDBRANCH 4 6
ENDBRANCH 1 2
BRANCH 1 19
ATOM     19  C   HIS C   2      11.307  22.435  30.066  1.00  9.05 LIG 0.24  C 
ATOM     20  N   ALA C   3      10.009  22.559  29.831  1.00  9.24 LIG-0.35  N 
ATOM     21 H    ALA C   3       9.387  22.301  30.367  1.00  9.24 LIG 0.16  HD
ATOM     22 O    HIS C   2      12.159  22.758  29.247  1.00  8.29 LIG-0.27  OA
BRANCH 20 23
ATOM     23  CA  ALA C   3       9.539  23.169  28.590  1.00  8.91 LIG 0.17  C 
ATOM     24  CB  ALA C   3       8.055  23.478  28.674  1.00  9.99 LIG 0.04  C 
BRANCH 23 25
ATOM     25  C   ALA C   3      10.328  24.449  28.300  1.00  9.36 LIG 0.24  C 
ATOM     26  N   ALA C   4      10.924  24.514  27.115  1.00  9.08 LIG-0.35  N 
ATOM     27 H    ALA C   4      10.808  23.938  26.487  1.00  9.08 LIG 0.16  HD
ATOM     28 O    ALA C   3      10.375  25.368  29.128  1.00  9.90 LIG-0.27  OA
BRANCH 26 29
ATOM     29  CA  ALA C   4      11.845  25.598  26.777  1.00  9.70 LIG 0.18  C 
ATOM     30  CB  ALA C   4      13.109  25.481  27.597  1.00  9.53 LIG 0.04  C 
BRANCH 29 31
ATOM     31  C   ALA C   4      12.197  25.669  25.303  1.00 11.00 LIG 0.28  C 
ATOM     32  N   NH2 C   5      12.895  26.722  24.900  1.00 10.22 LIG-0.11  N 
ATOM     33 O    ALA C   4      11.806  24.793  24.545  1.00 13.70 LIG-0.27  OA
ENDBRANCH 29 31
ENDBRANCH 26 29
ENDBRANCH 23 25
ENDBRANCH 20 23
ENDBRANCH 1 19
BRANCH 1 34
ATOM     34  CB  HIS C   2      11.934  23.133  32.341  1.00 12.23 LIG 0.10  C 
BRANCH 34 35
ATOM     35  CG  HIS C   2      10.683  23.718  32.903  1.00 15.24 LIG 0.06  A 
ATOM     36 ND1  HIS C   2       9.714  24.294  32.112  1.00 17.16 LIG-0.24  NA
ATOM     37  CE1 HIS C   2       8.726  24.726  32.875  1.00 17.55 LIG 0.23  A 
ATOM     38 NE2  HIS C   2       9.020  24.449  34.133  1.00 18.01 LIG-0.25  NA
ATOM     39  CD2 HIS C   2      10.238  23.818  34.177  1.00 16.53 LIG 0.14  A 
ENDBRANCH 34 35
ENDBRANCH 1 34
TORSDOF 12
ENDMDL
MODEL 6
USER: ADFR SOLUTION from run 71
USER: SCORE 11.331007 LL:  -3.096 LR:  -9.898 RR:   0.000 FEB:  -6.319
USER: RMSD 2.918790
USER: SEED 70
USER: STATUS no improvement in best in 5 clusters for 5 generations
USER: GENES 14
USER: genes 0 Translation |==|  0.58444 0.52486 0.63681
USER: genes 1 Rotation |==|  0.40888 0.65632 0.48332 0.96582
USER: genes 2 Torsion [CB]-CA--N-[C] |==|  0.37441
USER: genes 3 Torsion [N]-C--CA-[N] |==|  0.38162
USER: genes 4 Torsion [C]-CA--CB-[CG] |==|  0.37654
USER: genes 5 Torsion [CA]-CB--CG-[CD1] |==|  0.75937
USER: genes 6 Torsion [C]-CA--N-[C] |==|  0.79646
USER: genes 7 Torsion [N]-CA--C-[N] |==|  0.91371
USER: genes 8 Torsion [C]-N--CA-[CB] |==|  0.85344
USER: genes 9 Torsion [N]-CA--C-[N] |==|  0.31667
USER: genes 10 Torsion [C]-N--CA-[C] |==|  0.74160
USER: genes 11 Torsion [N]-CA--C-[N] |==|  0.00343
USER: genes 12 Torsion [N]-CA--CB-[CG] |==|  0.30693
USER: genes 13 Torsion [CA]-CB--CG-[CD2] |==|  0.25096
ROOT
ATOM      1  CA  HIS C   2      13.927  22.210  33.529  1.00 10.06 LIG 0.18  C 
ENDROOT
BRANCH 1 2
ATOM      2  N   HIS C   2      14.855  21.124  33.212  1.00  9.48 LIG-0.35  N 
ATOM      3 H    HIS C   2      15.287  21.236  32.477  1.00  9.48 LIG 0.16  HD
ATOM      4  C   PHE C   1      15.008  20.066  33.997  1.00  9.37 LIG 0.24  C 
ATOM      5 O    PHE C   1      14.452  19.946  35.083  1.00 11.27 LIG-0.27  OA
BRANCH 4 6
ATOM      6  CA  PHE C   1      15.906  18.972  33.461  1.00  8.68 LIG 0.18  C 
BRANCH 6 7
ATOM      7  CB  PHE C   1      15.027  17.857  32.896  1.00  8.30 LIG 0.07  C 
BRANCH 7 8
ATOM      8  CG  PHE C   1      15.491  17.337  31.568  1.00  6.80 LIG-0.06  A 
ATOM      9  CD1 PHE C   1      15.090  17.948  30.387  1.00  6.68 LIG 0.01  A 
ATOM     10  CE1 PHE C   1      15.531  17.471  29.167  1.00  6.85 LIG 0.00  A 
ATOM     11  CZ  PHE C   1      16.362  16.374  29.111  1.00  6.56 LIG 0.00  A 
ATOM     12  CE2 PHE C   1      16.768  15.751  30.277  1.00  6.82 LIG 0.00  A 
ATOM     13  CD2 PHE C   1      16.334  16.237  31.498  1.00  7.43 LIG 0.01  A 
ENDBRANCH 7 8
ENDBRANCH 6 7
BRANCH 6 14
ATOM     14  N   PHE C   1      16.790  18.452  34.508  1.00  9.64 LIG-0.35  N 
ATOM     15 H    PHE C   1      16.579  17.669  34.796  1.00  9.64 LIG 0.16  HD
ATOM     16  C   ACE C   0      17.825  19.155  34.955  1.00 12.10 LIG 0.21  C 
ATOM     17  CH3 ACE C   0      18.610  18.538  36.076  1.00 13.09 LIG 0.12  C 
ATOM     18 O    ACE C   0      18.114  20.258  34.491  1.00 13.69 LIG-0.27  OA
ENDBRANCH 6 14
ENDBRANCH 4 6
ENDBRANCH 1 2
BRANCH 1 19
ATOM     19  C   HIS C   2      12.725  22.121  32.614  1.00  9.05 LIG 0.24  C 
ATOM     20  N   ALA C   3      12.932  21.627  31.401  1.00  9.24 LIG-0.35  N 
ATOM     21 H    ALA C   3      13.704  21.426  31.080  1.00  9.24 LIG 0.16  HD
ATOM     22 O    HIS C   2      11.614  22.454  33.008  1.00  8.29 LIG-0.27  OA
BRANCH 20 23
ATOM     23  CA  ALA C   3      11.807  21.387  30.501  1.00  8.91 LIG 0.17  C 
ATOM     24  CB  ALA C   3      10.749  20.537  31.184  1.00  9.99 LIG 0.04  C 
BRANCH 23 25
ATOM     25  C   ALA C   3      11.202  22.717  30.047  1.00  9.36 LIG 0.24  C 
ATOM     26  N   ALA C   4      11.321  23.004  28.756  1.00  9.08 LIG-0.35  N 
ATOM     27 H    ALA C   4      11.621  22.453  28.167  1.00  9.08 LIG 0.16  HD
ATOM     28 O    ALA C   3      10.618  23.457  30.849  1.00  9.90 LIG-0.27  OA
BRANCH 26 29
ATOM     29  CA  ALA C   4      10.941  24.311  28.221  1.00  9.70 LIG 0.18  C 
ATOM     30  CB  ALA C   4      11.896  24.722  27.124  1.00  9.53 LIG 0.04  C 
BRANCH 29 31
ATOM     31  C   ALA C   4       9.515  24.375  27.708  1.00 11.00 LIG 0.28  C 
ATOM     32  N   NH2 C   5       8.784  23.275  27.823  1.00 10.22 LIG-0.11  N 
ATOM     33 O    ALA C   4       9.104  25.402  27.187  1.00 13.70 LIG-0.27  OA
ENDBRANCH 29 31
ENDBRANCH 26 29
ENDBRANCH 23 25
ENDBRANCH 20 23
ENDBRANCH 1 19
BRANCH 1 34
ATOM     34  CB  HIS C   2      14.579  23.581  33.310  1.00 12.23 LIG 0.10  C 
BRANCH 34 35
ATOM     35  CG  HIS C   2      14.026  24.343  32.153  1.00 15.24 LIG 0.06  A 
ATOM     36 ND1  HIS C   2      14.535  24.228  30.879  1.00 17.16 LIG-0.24  NA
ATOM     37  CE1 HIS C   2      13.854  25.014  30.064  1.00 17.55 LIG 0.23  A 
ATOM     38 NE2  HIS C   2      12.922  25.633  30.765  1.00 18.01 LIG-0.25  NA
ATOM     39  CD2 HIS C   2      13.007  25.229  32.074  1.00 16.53 LIG 0.14  A 
ENDBRANCH 34 35
ENDBRANCH 1 34
TORSDOF 12
ENDMDL
MODEL 7
USER: ADFR SOLUTION from run 104
USER: SCORE 11.201244 LL:  -3.050 LR:  -9.765 RR:   0.000 FEB:  -6.185
USER: RMSD 2.232978
USER: SEED 103
USER: STATUS no improvement in best in 3 clusters for 5 generations
USER: GENES 14
USER: genes 0 Translation |==|  0.45506 0.49317 0.57445
USER: genes 1 Rotation |==|  0.70877 0.40621 0.51281 0.94436
USER: genes 2 Torsion [CB]-CA--N-[C] |==|  0.20499
USER: genes 3 Torsion [N]-C--CA-[N] |==|  0.34814
USER: genes 4 Torsion [C]-CA--CB-[CG] |==|  0.53780
USER: genes 5 Torsion [CA]-CB--CG-[CD1] |==|  0.21972
USER: genes 6 Torsion [C]-CA--N-[C] |==|  0.77444
USER: genes 7 Torsion [N]-CA--C-[N] |==|  0.95576
USER: genes 8 Torsion [C]-N--CA-[CB] |==|  0.45623
USER: genes 9 Torsion [N]-CA--C-[N] |==|  0.47392
USER: genes 10 Torsion [C]-N--CA-[C] |==|  0.76022
USER: genes 11 Torsion [N]-CA--C-[N] |==|  0.02220
USER: genes 12 Torsion [N]-CA--CB-[CG] |==|  0.08268
USER: genes 13 Torsion [CA]-CB--CG-[CD2] |==|  0.18734
ROOT
ATOM      1  CA  HIS C   2      11.792  21.545  32.313  1.00 10.06 LIG 0.18  C 
ENDROOT
BRANCH 1 2
ATOM      2  N   HIS C   2      13.028  20.827  32.000  1.00  9.48 LIG-0.35  N 
ATOM      3 H    HIS C   2      13.619  21.306  31.598  1.00  9.48 LIG 0.16  HD
ATOM      4  C   PHE C   1      13.211  19.552  32.314  1.00  9.37 LIG 0.24  C 
ATOM      5 O    PHE C   1      12.402  18.893  32.958  1.00 11.27 LIG-0.27  OA
BRANCH 4 6
ATOM      6  CA  PHE C   1      14.489  18.923  31.803  1.00  8.68 LIG 0.18  C 
BRANCH 6 7
ATOM      7  CB  PHE C   1      14.127  17.869  30.757  1.00  8.30 LIG 0.07  C 
BRANCH 7 8
ATOM      8  CG  PHE C   1      15.261  16.952  30.407  1.00  6.80 LIG-0.06  A 
ATOM      9  CD1 PHE C   1      15.602  15.894  31.239  1.00  6.68 LIG 0.01  A 
ATOM     10  CE1 PHE C   1      16.640  15.046  30.904  1.00  6.85 LIG 0.00  A 
ATOM     11  CZ  PHE C   1      17.357  15.252  29.746  1.00  6.56 LIG 0.00  A 
ATOM     12  CE2 PHE C   1      17.034  16.302  28.908  1.00  6.82 LIG 0.00  A 
ATOM     13  CD2 PHE C   1      15.987  17.145  29.240  1.00  7.43 LIG 0.01  A 
ENDBRANCH 7 8
ENDBRANCH 6 7
BRANCH 6 14
ATOM     14  N   PHE C   1      15.258  18.322  32.896  1.00  9.64 LIG-0.35  N 
ATOM     15 H    PHE C   1      15.157  17.472  32.978  1.00  9.64 LIG 0.16  HD
ATOM     16  C   ACE C   0      16.039  19.056  33.681  1.00 12.10 LIG 0.21  C 
ATOM     17  CH3 ACE C   0      16.718  18.330  34.807  1.00 13.09 LIG 0.12  C 
ATOM     18 O    ACE C   0      16.184  20.267  33.510  1.00 13.69 LIG-0.27  OA
ENDBRANCH 6 14
ENDBRANCH 4 6
ENDBRANCH 1 2
BRANCH 1 19
ATOM     19  C   HIS C   2      11.776  22.860  31.563  1.00  9.05 LIG 0.24  C 
ATOM     20  N   ALA C   3      12.931  23.277  31.064  1.00  9.24 LIG-0.35  N 
ATOM     21 H    ALA C   3      13.689  22.894  31.198  1.00  9.24 LIG 0.16  HD
ATOM     22 O    HIS C   2      10.728  23.472  31.400  1.00  8.29 LIG-0.27  OA
BRANCH 20 23
ATOM     23  CA  ALA C   3      12.981  24.467  30.219  1.00  8.91 LIG 0.17  C 
ATOM     24  CB  ALA C   3      14.409  24.970  30.088  1.00  9.99 LIG 0.04  C 
BRANCH 23 25
ATOM     25  C   ALA C   3      12.404  24.157  28.836  1.00  9.36 LIG 0.24  C 
ATOM     26  N   ALA C   4      12.212  25.198  28.034  1.00  9.08 LIG-0.35  N 
ATOM     27 H    ALA C   4      12.481  25.995  28.210  1.00  9.08 LIG 0.16  HD
ATOM     28 O    ALA C   3      12.159  22.992  28.496  1.00  9.90 LIG-0.27  OA
BRANCH 26 29
ATOM     29  CA  ALA C   4      11.511  25.065  26.758  1.00  9.70 LIG 0.18  C 
ATOM     30  CB  ALA C   4      10.800  26.354  26.418  1.00  9.53 LIG 0.04  C 
BRANCH 29 31
ATOM     31  C   ALA C   4      12.408  24.656  25.604  1.00 11.00 LIG 0.28  C 
ATOM     32  N   NH2 C   5      13.654  24.313  25.902  1.00 10.22 LIG-0.11  N 
ATOM     33 O    ALA C   4      11.976  24.689  24.460  1.00 13.70 LIG-0.27  OA
ENDBRANCH 29 31
ENDBRANCH 26 29
ENDBRANCH 23 25
ENDBRANCH 20 23
ENDBRANCH 1 19
BRANCH 1 34
ATOM     34  CB  HIS C   2      11.695  21.860  33.810  1.00 12.23 LIG 0.10  C 
BRANCH 34 35
ATOM     35  CG  HIS C   2      13.013  22.048  34.482  1.00 15.24 LIG 0.06  A 
ATOM     36 ND1  HIS C   2      13.496  21.167  35.424  1.00 17.16 LIG-0.24  NA
ATOM     37  CE1 HIS C   2      14.678  21.583  35.846  1.00 17.55 LIG 0.23  A 
ATOM     38 NE2  HIS C   2      14.977  22.701  35.209  1.00 18.01 LIG-0.25  NA
ATOM     39  CD2 HIS C   2      13.953  23.012  34.349  1.00 16.53 LIG 0.14  A 
ENDBRANCH 34 35
ENDBRANCH 1 34
TORSDOF 12
ENDMDL
MODEL 8
USER: ADFR SOLUTION from run 30
USER: SCORE 11.000981 LL:  -2.946 LR:  -9.691 RR:   0.000 FEB:  -6.111
USER: RMSD 2.350525
USER: SEED 29
USER: STATUS searching
USER: GENES 14
USER: genes 0 Translation |==|  0.45177 0.52307 0.48106
USER: genes 1 Rotation |==|  0.64057 0.30307 0.53119 0.93645
USER: genes 2 Torsion [CB]-CA--N-[C] |==|  0.22888
USER: genes 3 Torsion [N]-C--CA-[N] |==|  0.31615
USER: genes 4 Torsion [C]-CA--CB-[CG] |==|  0.44991
USER: genes 5 Torsion [CA]-CB--CG-[CD1] |==|  0.72864
USER: genes 6 Torsion [C]-CA--N-[C] |==|  0.70889
USER: genes 7 Torsion [N]-CA--C-[N] |==|  0.40095
USER: genes 8 Torsion [C]-N--CA-[CB] |==|  0.21667
USER: genes 9 Torsion [N]-CA--C-[N] |==|  0.10470
USER: genes 10 Torsion [C]-N--CA-[C] |==|  0.81540
USER: genes 11 Torsion [N]-CA--C-[N] |==|  0.93871
USER: genes 12 Torsion [N]-CA--CB-[CG] |==|  0.04334
USER: genes 13 Torsion [CA]-CB--CG-[CD2] |==|  0.20460
ROOT
ATOM      1  CA  HIS C   2      11.738  22.172  30.492  1.00 10.06 LIG 0.18  C 
ENDROOT
BRANCH 1 2
ATOM      2  N   HIS C   2      12.830  21.274  30.866  1.00  9.48 LIG-0.35  N 
ATOM      3 H    HIS C   2      13.613  21.615  30.770  1.00  9.48 LIG 0.16  HD
ATOM      4  C   PHE C   1      12.618  20.043  31.313  1.00  9.37 LIG 0.24  C 
ATOM      5 O    PHE C   1      11.501  19.585  31.526  1.00 11.27 LIG-0.27  OA
BRANCH 4 6
ATOM      6  CA  PHE C   1      13.855  19.198  31.529  1.00  8.68 LIG 0.18  C 
BRANCH 6 7
ATOM      7  CB  PHE C   1      13.709  17.909  30.720  1.00  8.30 LIG 0.07  C 
BRANCH 7 8
ATOM      8  CG  PHE C   1      15.005  17.188  30.496  1.00  6.80 LIG-0.06  A 
ATOM      9  CD1 PHE C   1      15.707  17.342  29.308  1.00  6.68 LIG 0.01  A 
ATOM     10  CE1 PHE C   1      16.906  16.683  29.113  1.00  6.85 LIG 0.00  A 
ATOM     11  CZ  PHE C   1      17.409  15.854  30.091  1.00  6.56 LIG 0.00  A 
ATOM     12  CE2 PHE C   1      16.721  15.687  31.279  1.00  6.82 LIG 0.00  A 
ATOM     13  CD2 PHE C   1      15.525  16.356  31.477  1.00  7.43 LIG 0.01  A 
ENDBRANCH 7 8
ENDBRANCH 6 7
BRANCH 6 14
ATOM     14  N   PHE C   1      14.049  18.896  32.950  1.00  9.64 LIG-0.35  N 
ATOM     15 H    PHE C   1      13.515  18.299  33.263  1.00  9.64 LIG 0.16  HD
ATOM     16  C   ACE C   0      14.982  19.511  33.669  1.00 12.10 LIG 0.21  C 
ATOM     17  CH3 ACE C   0      15.031  19.161  35.128  1.00 13.09 LIG 0.12  C 
ATOM     18 O    ACE C   0      15.750  20.336  33.174  1.00 13.69 LIG-0.27  OA
ENDBRANCH 6 14
ENDBRANCH 4 6
ENDBRANCH 1 2
BRANCH 1 19
ATOM     19  C   HIS C   2      12.271  23.244  29.565  1.00  9.05 LIG 0.24  C 
ATOM     20  N   ALA C   3      11.461  23.656  28.600  1.00  9.24 LIG-0.35  N 
ATOM     21 H    ALA C   3      10.694  23.310  28.423  1.00  9.24 LIG 0.16  HD
ATOM     22 O    HIS C   2      13.384  23.725  29.742  1.00  8.29 LIG-0.27  OA
BRANCH 20 23
ATOM     23  CA  ALA C   3      11.845  24.775  27.743  1.00  8.91 LIG 0.17  C 
ATOM     24  CB  ALA C   3      12.845  24.324  26.692  1.00  9.99 LIG 0.04  C 
BRANCH 23 25
ATOM     25  C   ALA C   3      10.607  25.373  27.071  1.00  9.36 LIG 0.24  C 
ATOM     26  N   ALA C   4       9.506  25.425  27.811  1.00  9.08 LIG-0.35  N 
ATOM     27 H    ALA C   4       9.483  25.240  28.651  1.00  9.08 LIG 0.16  HD
ATOM     28 O    ALA C   3      10.658  25.800  25.909  1.00  9.90 LIG-0.27  OA
BRANCH 26 29
ATOM     29  CA  ALA C   4       8.216  25.812  27.242  1.00  9.70 LIG 0.18  C 
ATOM     30  CB  ALA C   4       7.109  25.548  28.236  1.00  9.53 LIG 0.04  C 
BRANCH 29 31
ATOM     31  C   ALA C   4       8.155  27.258  26.783  1.00 11.00 LIG 0.28  C 
ATOM     32  N   NH2 C   5       9.028  28.098  27.322  1.00 10.22 LIG-0.11  N 
ATOM     33 O    ALA C   4       7.303  27.601  25.975  1.00 13.70 LIG-0.27  OA
ENDBRANCH 29 31
ENDBRANCH 26 29
ENDBRANCH 23 25
ENDBRANCH 20 23
ENDBRANCH 1 19
BRANCH 1 34
ATOM     34  CB  HIS C   2      11.146  22.871  31.721  1.00 12.23 LIG 0.10  C 
BRANCH 34 35
ATOM     35  CG  HIS C   2      12.001  22.792  32.940  1.00 15.24 LIG 0.06  A 
ATOM     36 ND1  HIS C   2      11.698  21.976  34.007  1.00 17.16 LIG-0.24  NA
ATOM     37  CE1 HIS C   2      12.625  22.111  34.938  1.00 17.55 LIG 0.23  A 
ATOM     38 NE2  HIS C   2      13.519  22.985  34.513  1.00 18.01 LIG-0.25  NA
ATOM     39  CD2 HIS C   2      13.152  23.425  33.265  1.00 16.53 LIG 0.14  A 
ENDBRANCH 34 35
ENDBRANCH 1 34
TORSDOF 12
ENDMDL
MODEL 9
USER: ADFR SOLUTION from run 45
USER: SCORE 10.773083 LL:  -3.002 LR:  -9.580 RR:   0.000 FEB:  -6.001
USER: RMSD 1.614133
USER: SEED 44
USER: STATUS 1 or 2 clusters left
USER: GENES 14
USER: genes 0 Translation |==|  0.45064 0.47198 0.56074
USER: genes 1 Rotation |==|  0.54767 0.46985 0.57758 0.99071
USER: genes 2 Torsion [CB]-CA--N-[C] |==|  0.26622
USER: genes 3 Torsion [N]-C--CA-[N] |==|  0.32022
USER: genes 4 Torsion [C]-CA--CB-[CG] |==|  0.35156
USER: genes 5 Torsion [CA]-CB--CG-[CD1] |==|  0.87235
USER: genes 6 Torsion [C]-CA--N-[C] |==|  0.76351
USER: genes 7 Torsion [N]-CA--C-[N] |==|  0.39199
USER: genes 8 Torsion [C]-N--CA-[CB] |==|  0.48889
USER: genes 9 Torsion [N]-CA--C-[N] |==|  0.40580
USER: genes 10 Torsion [C]-N--CA-[C] |==|  0.77540
USER: genes 11 Torsion [N]-CA--C-[N] |==|  0.96359
USER: genes 12 Torsion [N]-CA--CB-[CG] |==|  0.96124
USER: genes 13 Torsion [CA]-CB--CG-[CD2] |==|  0.26352
ROOT
ATOM      1  CA  HIS C   2      11.720  21.100  32.045  1.00 10.06 LIG 0.18  C 
ENDROOT
BRANCH 1 2
ATOM      2  N   HIS C   2      13.075  20.550  32.024  1.00  9.48 LIG-0.35  N 
ATOM      3 H    HIS C   2      13.604  20.945  31.473  1.00  9.48 LIG 0.16  HD
ATOM      4  C   PHE C   1      13.444  19.533  32.791  1.00  9.37 LIG 0.24  C 
ATOM      5 O    PHE C   1      12.713  19.024  33.634  1.00 11.27 LIG-0.27  OA
BRANCH 4 6
ATOM      6  CA  PHE C   1      14.840  18.999  32.553  1.00  8.68 LIG 0.18  C 
BRANCH 6 7
ATOM      7  CB  PHE C   1      14.739  17.512  32.217  1.00  8.30 LIG 0.07  C 
BRANCH 7 8
ATOM      8  CG  PHE C   1      15.425  17.134  30.937  1.00  6.80 LIG-0.06  A 
ATOM      9  CD1 PHE C   1      15.250  17.892  29.788  1.00  6.68 LIG 0.01  A 
ATOM     10  CE1 PHE C   1      15.895  17.546  28.615  1.00  6.85 LIG 0.00  A 
ATOM     11  CZ  PHE C   1      16.706  16.434  28.573  1.00  6.56 LIG 0.00  A 
ATOM     12  CE2 PHE C   1      16.889  15.665  29.708  1.00  6.82 LIG 0.00  A 
ATOM     13  CD2 PHE C   1      16.251  16.020  30.884  1.00  7.43 LIG 0.01  A 
ENDBRANCH 7 8
ENDBRANCH 6 7
BRANCH 6 14
ATOM     14  N   PHE C   1      15.694  19.207  33.725  1.00  9.64 LIG-0.35  N 
ATOM     15 H    PHE C   1      15.735  18.534  34.260  1.00  9.64 LIG 0.16  HD
ATOM     16  C   ACE C   0      16.340  20.351  33.919  1.00 12.10 LIG 0.21  C 
ATOM     17  CH3 ACE C   0      17.126  20.460  35.194  1.00 13.09 LIG 0.12  C 
ATOM     18 O    ACE C   0      16.284  21.278  33.111  1.00 13.69 LIG-0.27  OA
ENDBRANCH 6 14
ENDBRANCH 4 6
ENDBRANCH 1 2
BRANCH 1 19
ATOM     19  C   HIS C   2      11.345  21.555  30.651  1.00  9.05 LIG 0.24  C 
ATOM     20  N   ALA C   3      10.097  21.331  30.265  1.00  9.24 LIG-0.35  N 
ATOM     21 H    ALA C   3       9.517  20.886  30.718  1.00  9.24 LIG 0.16  HD
ATOM     22 O    HIS C   2      12.158  22.139  29.946  1.00  8.29 LIG-0.27  OA
BRANCH 20 23
ATOM     23  CA  ALA C   3       9.616  21.851  28.988  1.00  8.91 LIG 0.17  C 
ATOM     24  CB  ALA C   3       8.195  21.384  28.722  1.00  9.99 LIG 0.04  C 
BRANCH 23 25
ATOM     25  C   ALA C   3       9.677  23.380  28.986  1.00  9.36 LIG 0.24  C 
ATOM     26  N   ALA C   4       9.957  23.954  27.821  1.00  9.08 LIG-0.35  N 
ATOM     27 H    ALA C   4      10.005  23.528  27.075  1.00  9.08 LIG 0.16  HD
ATOM     28 O    ALA C   3       9.451  24.028  30.016  1.00  9.90 LIG-0.27  OA
BRANCH 26 29
ATOM     29  CA  ALA C   4      10.214  25.389  27.713  1.00  9.70 LIG 0.18  C 
ATOM     30  CB  ALA C   4      11.060  25.677  26.495  1.00  9.53 LIG 0.04  C 
BRANCH 29 31
ATOM     31  C   ALA C   4       8.956  26.237  27.674  1.00 11.00 LIG 0.28  C 
ATOM     32  N   NH2 C   5       7.809  25.604  27.470  1.00 10.22 LIG-0.11  N 
ATOM     33 O    ALA C   4       9.040  27.451  27.793  1.00 13.70 LIG-0.27  OA
ENDBRANCH 29 31
ENDBRANCH 26 29
ENDBRANCH 23 25
ENDBRANCH 20 23
ENDBRANCH 1 19
BRANCH 1 34
ATOM     34  CB  HIS C   2      11.626  22.316  32.974  1.00 12.23 LIG 0.10  C 
BRANCH 34 35
ATOM     35  CG  HIS C   2      12.795  22.480  33.886  1.00 15.24 LIG 0.06  A 
ATOM     36 ND1  HIS C   2      12.887  21.830  35.097  1.00 17.16 LIG-0.24  NA
ATOM     37  CE1 HIS C   2      14.022  22.162  35.686  1.00 17.55 LIG 0.23  A 
ATOM     38 NE2  HIS C   2      14.669  23.003  34.900  1.00 18.01 LIG-0.25  NA
ATOM     39  CD2 HIS C   2      13.924  23.217  33.767  1.00 16.53 LIG 0.14  A 
ENDBRANCH 34 35
ENDBRANCH 1 34
TORSDOF 12
ENDMDL
MODEL 10
USER: ADFR SOLUTION from run 148
USER: SCORE 11.103569 LL:  -2.609 LR:  -9.372 RR:   0.000 FEB:  -5.792
USER: RMSD 1.414643
USER: SEED 147
USER: STATUS no improvement in best in 2 clusters for 5 generations
USER: GENES 14
USER: genes 0 Translation |==|  0.38133 0.49118 0.53980
USER: genes 1 Rotation |==|  0.53315 0.44774 0.47533 0.99554
USER: genes 2 Torsion [CB]-CA--N-[C] |==|  0.83867
USER: genes 3 Torsion [N]-C--CA-[N] |==|  0.87905
USER: genes 4 Torsion [C]-CA--CB-[CG] |==|  0.43923
USER: genes 5 Torsion [CA]-CB--CG-[CD1] |==|  0.67054
USER: genes 6 Torsion [C]-CA--N-[C] |==|  0.68632
USER: genes 7 Torsion [N]-CA--C-[N] |==|  0.42687
USER: genes 8 Torsion [C]-N--CA-[CB] |==|  0.52277
USER: genes 9 Torsion [N]-CA--C-[N] |==|  0.40186
USER: genes 10 Torsion [C]-N--CA-[C] |==|  0.75000
USER: genes 11 Torsion [N]-CA--C-[N] |==|  0.96522
USER: genes 12 Torsion [N]-CA--CB-[CG] |==|  0.91659
USER: genes 13 Torsion [CA]-CB--CG-[CD2] |==|  0.31590
ROOT
ATOM      1  CA  HIS C   2      10.576  21.503  31.637  1.00 10.06 LIG 0.18  C 
ENDROOT
BRANCH 1 2
ATOM      2  N   HIS C   2      11.589  20.450  31.700  1.00  9.48 LIG-0.35  N 
ATOM      3 H    HIS C   2      11.283  19.684  31.946  1.00  9.48 LIG 0.16  HD
ATOM      4  C   PHE C   1      12.863  20.667  31.401  1.00  9.37 LIG 0.24  C 
ATOM      5 O    PHE C   1      13.282  21.737  30.973  1.00 11.27 LIG-0.27  OA
BRANCH 4 6
ATOM      6  CA  PHE C   1      13.805  19.508  31.645  1.00  8.68 LIG 0.18  C 
BRANCH 6 7
ATOM      7  CB  PHE C   1      13.652  18.509  30.498  1.00  8.30 LIG 0.07  C 
BRANCH 7 8
ATOM      8  CG  PHE C   1      14.838  17.608  30.321  1.00  6.80 LIG-0.06  A 
ATOM      9  CD1 PHE C   1      15.565  17.617  29.139  1.00  6.68 LIG 0.01  A 
ATOM     10  CE1 PHE C   1      16.664  16.792  28.987  1.00  6.85 LIG 0.00  A 
ATOM     11  CZ  PHE C   1      17.038  15.941  30.003  1.00  6.56 LIG 0.00  A 
ATOM     12  CE2 PHE C   1      16.322  15.917  31.186  1.00  6.82 LIG 0.00  A 
ATOM     13  CD2 PHE C   1      15.229  16.752  31.340  1.00  7.43 LIG 0.01  A 
ENDBRANCH 7 8
ENDBRANCH 6 7
BRANCH 6 14
ATOM     14  N   PHE C   1      13.529  18.862  32.931  1.00  9.64 LIG-0.35  N 
ATOM     15 H    PHE C   1      12.771  18.458  32.972  1.00  9.64 LIG 0.16  HD
ATOM     16  C   ACE C   0      14.398  18.914  33.935  1.00 12.10 LIG 0.21  C 
ATOM     17  CH3 ACE C   0      13.965  18.272  35.221  1.00 13.09 LIG 0.12  C 
ATOM     18 O    ACE C   0      15.489  19.474  33.825  1.00 13.69 LIG-0.27  OA
ENDBRANCH 6 14
ENDBRANCH 4 6
ENDBRANCH 1 2
BRANCH 1 19
ATOM     19  C   HIS C   2      10.490  22.027  30.220  1.00  9.05 LIG 0.24  C 
ATOM     20  N   ALA C   3       9.332  22.556  29.848  1.00  9.24 LIG-0.35  N 
ATOM     21 H    ALA C   3       8.618  22.555  30.326  1.00  9.24 LIG 0.16  HD
ATOM     22 O    HIS C   2      11.467  21.994  29.481  1.00  8.29 LIG-0.27  OA
BRANCH 20 23
ATOM     23  CA  ALA C   3       9.202  23.200  28.544  1.00  8.91 LIG 0.17  C 
ATOM     24  CB  ALA C   3       7.859  23.900  28.425  1.00  9.99 LIG 0.04  C 
BRANCH 23 25
ATOM     25  C   ALA C   3      10.339  24.203  28.335  1.00  9.36 LIG 0.24  C 
ATOM     26  N   ALA C   4      10.802  24.314  27.095  1.00  9.08 LIG-0.35  N 
ATOM     27 H    ALA C   4      10.440  23.938  26.412  1.00  9.08 LIG 0.16  HD
ATOM     28 O    ALA C   3      10.772  24.880  29.277  1.00  9.90 LIG-0.27  OA
BRANCH 26 29
ATOM     29  CA  ALA C   4      11.994  25.104  26.788  1.00  9.70 LIG 0.18  C 
ATOM     30  CB  ALA C   4      12.758  24.471  25.648  1.00  9.53 LIG 0.04  C 
BRANCH 29 31
ATOM     31  C   ALA C   4      11.701  26.557  26.463  1.00 11.00 LIG 0.28  C 
ATOM     32  N   NH2 C   5      10.435  26.881  26.242  1.00 10.22 LIG-0.11  N 
ATOM     33 O    ALA C   4      12.623  27.357  26.384  1.00 13.70 LIG-0.27  OA
ENDBRANCH 29 31
ENDBRANCH 26 29
ENDBRANCH 23 25
ENDBRANCH 20 23
ENDBRANCH 1 19
BRANCH 1 34
ATOM     34  CB  HIS C   2      10.940  22.681  32.549  1.00 12.23 LIG 0.10  C 
BRANCH 34 35
ATOM     35  CG  HIS C   2      11.733  22.300  33.753  1.00 15.24 LIG 0.06  A 
ATOM     36 ND1  HIS C   2      11.218  21.517  34.762  1.00 17.16 LIG-0.24  NA
ATOM     37  CE1 HIS C   2      12.138  21.343  35.694  1.00 17.55 LIG 0.23  A 
ATOM     38 NE2  HIS C   2      13.232  21.985  35.324  1.00 18.01 LIG-0.25  NA
ATOM     39  CD2 HIS C   2      13.005  22.590  34.112  1.00 16.53 LIG 0.14  A 
ENDBRANCH 34 35
ENDBRANCH 1 34
TORSDOF 12
ENDMDL
MODEL 11
USER: ADFR SOLUTION from run 30
USER: SCORE 10.528432 LL:  -2.848 LR:  -9.284 RR:   0.000 FEB:  -5.704
USER: RMSD 2.368859
USER: SEED 29
USER: STATUS searching
USER: GENES 14
USER: genes 0 Translation |==|  0.46139 0.53699 0.47348
USER: genes 1 Rotation |==|  0.61382 0.28259 0.52321 0.93502
USER: genes 2 Torsion [CB]-CA--N-[C] |==|  0.25083
USER: genes 3 Torsion [N]-C--CA-[N] |==|  0.30000
USER: genes 4 Torsion [C]-CA--CB-[CG] |==|  0.41613
USER: genes 5 Torsion [CA]-CB--CG-[CD1] |==|  0.74081
USER: genes 6 Torsion [C]-CA--N-[C] |==|  0.70569
USER: genes 7 Torsion [N]-CA--C-[N] |==|  0.35972
USER: genes 8 Torsion [C]-N--CA-[CB] |==|  0.53560
USER: genes 9 Torsion [N]-CA--C-[N] |==|  0.40000
USER: genes 10 Torsion [C]-N--CA-[C] |==|  0.75464
USER: genes 11 Torsion [N]-CA--C-[N] |==|  0.98714
USER: genes 12 Torsion [N]-CA--CB-[CG] |==|  0.04742
USER: genes 13 Torsion [CA]-CB--CG-[CD2] |==|  0.20459
ROOT
ATOM      1  CA  HIS C   2      11.897  22.465  30.344  1.00 10.06 LIG 0.18  C 
ENDROOT
BRANCH 1 2
ATOM      2  N   HIS C   2      12.870  21.503  30.861  1.00  9.48 LIG-0.35  N 
ATOM      3 H    HIS C   2      13.674  21.806  30.899  1.00  9.48 LIG 0.16  HD
ATOM      4  C   PHE C   1      12.531  20.277  31.235  1.00  9.37 LIG 0.24  C 
ATOM      5 O    PHE C   1      11.373  19.874  31.257  1.00 11.27 LIG-0.27  OA
BRANCH 4 6
ATOM      6  CA  PHE C   1      13.675  19.364  31.621  1.00  8.68 LIG 0.18  C 
BRANCH 6 7
ATOM      7  CB  PHE C   1      13.515  18.043  30.871  1.00  8.30 LIG 0.07  C 
BRANCH 7 8
ATOM      8  CG  PHE C   1      14.816  17.360  30.566  1.00  6.80 LIG-0.06  A 
ATOM      9  CD1 PHE C   1      15.459  17.567  29.353  1.00  6.68 LIG 0.01  A 
ATOM     10  CE1 PHE C   1      16.663  16.945  29.084  1.00  6.85 LIG 0.00  A 
ATOM     11  CZ  PHE C   1      17.229  16.099  30.013  1.00  6.56 LIG 0.00  A 
ATOM     12  CE2 PHE C   1      16.600  15.879  31.224  1.00  6.82 LIG 0.00  A 
ATOM     13  CD2 PHE C   1      15.399  16.512  31.496  1.00  7.43 LIG 0.01  A 
ENDBRANCH 7 8
ENDBRANCH 6 7
BRANCH 6 14
ATOM     14  N   PHE C   1      13.706  19.136  33.068  1.00  9.64 LIG-0.35  N 
ATOM     15 H    PHE C   1      13.092  18.608  33.358  1.00  9.64 LIG 0.16  HD
ATOM     16  C   ACE C   0      14.620  19.711  33.842  1.00 12.10 LIG 0.21  C 
ATOM     17  CH3 ACE C   0      14.500  19.450  35.316  1.00 13.09 LIG 0.12  C 
ATOM     18 O    ACE C   0      15.505  20.433  33.382  1.00 13.69 LIG-0.27  OA
ENDBRANCH 6 14
ENDBRANCH 4 6
ENDBRANCH 1 2
BRANCH 1 19
ATOM     19  C   HIS C   2      12.591  23.410  29.386  1.00  9.05 LIG 0.24  C 
ATOM     20  N   ALA C   3      12.025  23.579  28.199  1.00  9.24 LIG-0.35  N 
ATOM     21 H    ALA C   3      11.343  23.140  27.915  1.00  9.24 LIG 0.16  HD
ATOM     22 O    HIS C   2      13.602  24.012  29.727  1.00  8.29 LIG-0.27  OA
BRANCH 20 23
ATOM     23  CA  ALA C   3      12.556  24.568  27.265  1.00  8.91 LIG 0.17  C 
ATOM     24  CB  ALA C   3      11.579  24.805  26.126  1.00  9.99 LIG 0.04  C 
BRANCH 23 25
ATOM     25  C   ALA C   3      12.843  25.883  27.995  1.00  9.36 LIG 0.24  C 
ATOM     26  N   ALA C   4      13.910  26.559  27.587  1.00  9.08 LIG-0.35  N 
ATOM     27 H    ALA C   4      14.372  26.352  26.892  1.00  9.08 LIG 0.16  HD
ATOM     28 O    ALA C   3      12.095  26.286  28.896  1.00  9.90 LIG-0.27  OA
BRANCH 26 29
ATOM     29  CA  ALA C   4      14.394  27.736  28.306  1.00  9.70 LIG 0.18  C 
ATOM     30  CB  ALA C   4      15.898  27.838  28.185  1.00  9.53 LIG 0.04  C 
BRANCH 29 31
ATOM     31  C   ALA C   4      13.757  29.037  27.855  1.00 11.00 LIG 0.28  C 
ATOM     32  N   NH2 C   5      12.927  28.975  26.823  1.00 10.22 LIG-0.11  N 
ATOM     33 O    ALA C   4      14.047  30.082  28.421  1.00 13.70 LIG-0.27  OA
ENDBRANCH 29 31
ENDBRANCH 26 29
ENDBRANCH 23 25
ENDBRANCH 20 23
ENDBRANCH 1 19
BRANCH 1 34
ATOM     34  CB  HIS C   2      11.291  23.307  31.474  1.00 12.23 LIG 0.10  C 
BRANCH 34 35
ATOM     35  CG  HIS C   2      12.070  23.273  32.745  1.00 15.24 LIG 0.06  A 
ATOM     36 ND1  HIS C   2      11.647  22.575  33.854  1.00 17.16 LIG-0.24  NA
ATOM     37  CE1 HIS C   2      12.529  22.724  34.827  1.00 17.55 LIG 0.23  A 
ATOM     38 NE2  HIS C   2      13.508  23.494  34.387  1.00 18.01 LIG-0.25  NA
ATOM     39  CD2 HIS C   2      13.245  23.849  33.087  1.00 16.53 LIG 0.14  A 
ENDBRANCH 34 35
ENDBRANCH 1 34
TORSDOF 12
ENDMDL
