MODEL 1
USER: ADFR SOLUTION from run 151
USER: SCORE 11.149779 LL:  -2.406 LR: -11.744 RR:   0.000 FEB:  -8.165
USER: RMSD 1.460492
USER: SEED 150
USER: STATUS 1 or 2 clusters left
USER: GENES 14
USER: genes 0 Translation |==|  0.55379 0.48005 0.55856
USER: genes 1 Rotation |==|  0.52249 0.48734 0.44584 0.99639
USER: genes 2 Torsion [CB]-CA--N-[C] |==|  0.35388
USER: genes 3 Torsion [N]-C--CA-[N] |==|  0.37803
USER: genes 4 Torsion [C]-CA--N-[C] |==|  0.64793
USER: genes 5 Torsion [C]-CA--CB-[CG] |==|  0.49585
USER: genes 6 Torsion [CA]-CB--CG-[CD2] |==|  0.74322
USER: genes 7 Torsion [N]-CA--C-[N] |==|  0.39625
USER: genes 8 Torsion [C]-N--CA-[CB] |==|  0.52542
USER: genes 9 Torsion [N]-CA--C-[N] |==|  0.36216
USER: genes 10 Torsion [C]-N--CA-[CB] |==|  0.20865
USER: genes 11 Torsion [N]-CA--C-[N] |==|  0.98889
USER: genes 12 Torsion [N]-CA--CB-[OG1] |==|  0.80387
USER: genes 13 Torsion [CA]-CB--OG1-[HG1] |==|  0.76797
ROOT
ATOM      1  CA  ALA C   2      25.663   1.976  43.945  1.00 19.98 LIG 0.17  C 
ATOM      2  CB  ALA C   2      26.613   3.150  44.188  1.00 20.88 LIG 0.04  C 
ENDROOT
BRANCH 1 3
ATOM      3  N   ALA C   2      25.558   1.678  42.526  1.00 19.64 LIG-0.35  N 
ATOM      4 H    ALA C   2      25.359   2.346  42.022  1.00 19.64 LIG 0.16  HD
ATOM      5  C   PHE C   1      25.766   0.444  42.103  1.00 22.16 LIG 0.24  C 
ATOM      6 O    PHE C   1      26.137  -0.446  42.868  1.00 23.85 LIG-0.27  OA
BRANCH 5 7
ATOM      7  CA  PHE C   1      25.598   0.173  40.617  1.00 22.77 LIG 0.18  C 
BRANCH 7 8
ATOM      8  N   PHE C   1      26.704  -0.650  40.205  1.00 26.70 LIG-0.35  N 
ATOM      9 H    PHE C   1      26.808  -1.363  40.674  1.00 26.70 LIG 0.16  HD
ATOM     10  C   ACE C   0      27.476  -0.321  39.197  1.00 28.63 LIG 0.21  C 
ATOM     11  CH3 ACE C   0      28.552  -1.350  38.933  1.00 28.20 LIG 0.12  C 
ATOM     12 O    ACE C   0      27.280   0.734  38.586  1.00 29.97 LIG-0.27  OA
ENDBRANCH 7 8
BRANCH 7 13
ATOM     13  CB  PHE C   1      24.335  -0.596  40.287  1.00 20.34 LIG 0.07  C 
BRANCH 13 14
ATOM     14  CG  PHE C   1      24.157  -0.830  38.809  1.00 17.40 LIG-0.06  A 
ATOM     15  CD1 PHE C   1      24.718  -1.928  38.150  1.00 16.88 LIG 0.01  A 
ATOM     16  CE1 PHE C   1      24.541  -2.091  36.758  1.00 14.02 LIG 0.00  A 
ATOM     17  CZ  PHE C   1      23.833  -1.181  36.064  1.00 15.72 LIG 0.00  A 
ATOM     18  CE2 PHE C   1      23.277  -0.096  36.715  1.00 14.79 LIG 0.00  A 
ATOM     19  CD2 PHE C   1      23.435   0.064  38.068  1.00 15.53 LIG 0.01  A 
ENDBRANCH 13 14
ENDBRANCH 7 13
ENDBRANCH 5 7
ENDBRANCH 1 3
BRANCH 1 20
ATOM     20  C   ALA C   2      24.297   2.324  44.500  1.00 17.39 LIG 0.24  C 
ATOM     21  N   THR C   3      24.053   1.878  45.736  1.00 15.98 LIG-0.34  N 
ATOM     22 H    THR C   3      24.596   1.393  46.194  1.00 15.98 LIG 0.16  HD
ATOM     23 O    ALA C   2      23.507   3.008  43.842  1.00 16.73 LIG-0.27  OA
BRANCH 21 24
ATOM     24  CA  THR C   3      22.805   2.199  46.404  1.00 15.15 LIG 0.20  C 
BRANCH 24 25
ATOM     25  C   THR C   3      22.499   3.682  46.286  1.00 14.93 LIG 0.24  C 
ATOM     26  N   ALA C   4      21.278   3.975  45.872  1.00 13.95 LIG-0.35  N 
ATOM     27 H    ALA C   4      20.702   3.381  45.634  1.00 13.95 LIG 0.16  HD
ATOM     28 O    THR C   3      23.330   4.539  46.602  1.00 16.43 LIG-0.27  OA
BRANCH 26 29
ATOM     29  CA  ALA C   4      20.793   5.331  45.780  1.00 14.93 LIG 0.18  C 
ATOM     30  CB  ALA C   4      21.420   5.991  44.557  1.00 15.34 LIG 0.04  C 
BRANCH 29 31
ATOM     31  C   ALA C   4      19.262   5.356  45.717  1.00 16.13 LIG 0.28  C 
ATOM     32 O    ALA C   4      18.656   6.424  45.715  1.00 17.37 LIG-0.27  OA
ATOM     33  N   NH2 C   5      18.639   4.180  45.673  1.00 15.73 LIG-0.11  N 
ENDBRANCH 29 31
ENDBRANCH 26 29
ENDBRANCH 24 25
BRANCH 24 34
ATOM     34  CB  THR C   3      22.833   1.780  47.880  1.00 16.10 LIG 0.15  C 
ATOM     35  CG2 THR C   3      21.648   2.340  48.661  1.00 16.48 LIG 0.04  C 
BRANCH 34 36
ATOM     36 OG1  THR C   3      22.795   0.348  47.948  1.00 16.89 LIG-0.39  OA
ATOM     37 HG1  THR C   3      21.999   0.086  47.893  1.00 16.89 LIG 0.21  HD
ENDBRANCH 34 36
ENDBRANCH 24 34
ENDBRANCH 21 24
ENDBRANCH 1 20
TORSDOF 12
ENDMDL
MODEL 2
USER: ADFR SOLUTION from run 151
USER: SCORE 10.622490 LL:  -2.337 LR: -10.928 RR:   0.000 FEB:  -7.349
USER: RMSD 2.649130
USER: SEED 150
USER: STATUS 1 or 2 clusters left
USER: GENES 14
USER: genes 0 Translation |==|  0.56342 0.40669 0.56248
USER: genes 1 Rotation |==|  0.48214 0.45514 0.40728 0.98895
USER: genes 2 Torsion [CB]-CA--N-[C] |==|  0.33880
USER: genes 3 Torsion [N]-C--CA-[N] |==|  0.43500
USER: genes 4 Torsion [C]-CA--N-[C] |==|  0.61406
USER: genes 5 Torsion [C]-CA--CB-[CG] |==|  0.39435
USER: genes 6 Torsion [CA]-CB--CG-[CD2] |==|  0.71369
USER: genes 7 Torsion [N]-CA--C-[N] |==|  0.39986
USER: genes 8 Torsion [C]-N--CA-[CB] |==|  0.52361
USER: genes 9 Torsion [N]-CA--C-[N] |==|  0.29444
USER: genes 10 Torsion [C]-N--CA-[CB] |==|  0.85785
USER: genes 11 Torsion [N]-CA--C-[N] |==|  0.94933
USER: genes 12 Torsion [N]-CA--CB-[OG1] |==|  0.84550
USER: genes 13 Torsion [CA]-CB--OG1-[HG1] |==|  0.76797
ROOT
ATOM      1  CA  ALA C   2      25.843   0.765  44.027  1.00 19.98 LIG 0.17  C 
ATOM      2  CB  ALA C   2      26.958   1.801  44.190  1.00 20.88 LIG 0.04  C 
ENDROOT
BRANCH 1 3
ATOM      3  N   ALA C   2      25.815   0.243  42.671  1.00 19.64 LIG-0.35  N 
ATOM      4 H    ALA C   2      25.708   0.829  42.051  1.00 19.64 LIG 0.16  HD
ATOM      5  C   PHE C   1      25.952  -1.057  42.472  1.00 22.16 LIG 0.24  C 
ATOM      6 O    PHE C   1      26.193  -1.829  43.399  1.00 23.85 LIG-0.27  OA
BRANCH 5 7
ATOM      7  CA  PHE C   1      25.868  -1.560  41.041  1.00 22.77 LIG 0.18  C 
BRANCH 7 8
ATOM      8  N   PHE C   1      26.567  -2.817  40.989  1.00 26.70 LIG-0.35  N 
ATOM      9 H    PHE C   1      26.424  -3.329  41.665  1.00 26.70 LIG 0.16  HD
ATOM     10  C   ACE C   0      27.349  -3.134  39.985  1.00 28.63 LIG 0.21  C 
ATOM     11  CH3 ACE C   0      27.952  -4.514  40.135  1.00 28.20 LIG 0.12  C 
ATOM     12 O    ACE C   0      27.525  -2.336  39.060  1.00 29.97 LIG-0.27  OA
ENDBRANCH 7 8
BRANCH 7 13
ATOM     13  CB  PHE C   1      24.449  -1.830  40.582  1.00 20.34 LIG 0.07  C 
BRANCH 13 14
ATOM     14  CG  PHE C   1      24.210  -1.440  39.146  1.00 17.40 LIG-0.06  A 
ATOM     15  CD1 PHE C   1      24.667  -2.211  38.073  1.00 16.88 LIG 0.01  A 
ATOM     16  CE1 PHE C   1      24.437  -1.791  36.745  1.00 14.02 LIG 0.00  A 
ATOM     17  CZ  PHE C   1      23.779  -0.640  36.513  1.00 15.72 LIG 0.00  A 
ATOM     18  CE2 PHE C   1      23.326   0.121  37.572  1.00 14.79 LIG 0.00  A 
ATOM     19  CD2 PHE C   1      23.535  -0.284  38.865  1.00 15.53 LIG 0.01  A 
ENDBRANCH 13 14
ENDBRANCH 7 13
ENDBRANCH 5 7
ENDBRANCH 1 3
BRANCH 1 20
ATOM     20  C   ALA C   2      24.515   1.415  44.356  1.00 17.39 LIG 0.24  C 
ATOM     21  N   THR C   3      24.101   1.260  45.617  1.00 15.98 LIG-0.34  N 
ATOM     22 H    THR C   3      24.516   0.798  46.212  1.00 15.98 LIG 0.16  HD
ATOM     23 O    ALA C   2      23.906   2.067  43.502  1.00 16.73 LIG-0.27  OA
BRANCH 21 24
ATOM     24  CA  THR C   3      22.874   1.887  46.074  1.00 15.15 LIG 0.20  C 
BRANCH 24 25
ATOM     25  C   THR C   3      22.838   3.352  45.672  1.00 14.93 LIG 0.24  C 
ATOM     26  N   ALA C   4      22.016   3.644  44.678  1.00 13.95 LIG-0.35  N 
ATOM     27 H    ALA C   4      21.565   3.052  44.246  1.00 13.95 LIG 0.16  HD
ATOM     28 O    THR C   3      23.503   4.202  46.272  1.00 16.43 LIG-0.27  OA
BRANCH 26 29
ATOM     29  CA  ALA C   4      21.799   4.995  44.222  1.00 14.93 LIG 0.18  C 
ATOM     30  CB  ALA C   4      21.459   5.868  45.424  1.00 15.34 LIG 0.04  C 
BRANCH 29 31
ATOM     31  C   ALA C   4      23.028   5.517  43.470  1.00 16.13 LIG 0.28  C 
ATOM     32 O    ALA C   4      22.935   6.488  42.722  1.00 17.37 LIG-0.27  OA
ATOM     33  N   NH2 C   5      24.175   4.871  43.663  1.00 15.73 LIG-0.11  N 
ENDBRANCH 29 31
ENDBRANCH 26 29
ENDBRANCH 24 25
BRANCH 24 34
ATOM     34  CB  THR C   3      22.704   1.751  47.593  1.00 16.10 LIG 0.15  C 
ATOM     35  CG2 THR C   3      21.373   2.316  48.077  1.00 16.48 LIG 0.04  C 
BRANCH 34 36
ATOM     36 OG1  THR C   3      22.768   0.360  47.936  1.00 16.89 LIG-0.39  OA
ATOM     37 HG1  THR C   3      22.013   0.009  47.824  1.00 16.89 LIG 0.21  HD
ENDBRANCH 34 36
ENDBRANCH 24 34
ENDBRANCH 21 24
ENDBRANCH 1 20
TORSDOF 12
ENDMDL
MODEL 3
USER: ADFR SOLUTION from run 178
USER: SCORE 11.557231 LL:  -2.443 LR: -10.857 RR:   0.000 FEB:  -7.277
USER: RMSD 3.168922
USER: SEED 177
USER: STATUS no improvement in best in 8 clusters for 5 generations
USER: GENES 14
USER: genes 0 Translation |==|  0.51753 0.45892 0.56380
USER: genes 1 Rotation |==|  0.53897 0.44151 0.23385 0.91740
USER: genes 2 Torsion [CB]-CA--N-[C] |==|  0.20516
USER: genes 3 Torsion [N]-C--CA-[N] |==|  0.31729
USER: genes 4 Torsion [C]-CA--N-[C] |==|  0.75356
USER: genes 5 Torsion [C]-CA--CB-[CG] |==|  0.52325
USER: genes 6 Torsion [CA]-CB--CG-[CD2] |==|  0.77889
USER: genes 7 Torsion [N]-CA--C-[N] |==|  0.95402
USER: genes 8 Torsion [C]-N--CA-[CB] |==|  0.48889
USER: genes 9 Torsion [N]-CA--C-[N] |==|  0.45004
USER: genes 10 Torsion [C]-N--CA-[CB] |==|  0.17573
USER: genes 11 Torsion [N]-CA--C-[N] |==|  0.11401
USER: genes 12 Torsion [N]-CA--CB-[OG1] |==|  0.90273
USER: genes 13 Torsion [CA]-CB--OG1-[HG1] |==|  0.11015
ROOT
ATOM      1  CA  ALA C   2      24.983   1.627  44.055  1.00 19.98 LIG 0.17  C 
ATOM      2  CB  ALA C   2      26.426   1.584  44.562  1.00 20.88 LIG 0.04  C 
ENDROOT
BRANCH 1 3
ATOM      3  N   ALA C   2      24.940   1.533  42.605  1.00 19.64 LIG-0.35  N 
ATOM      4 H    ALA C   2      24.753   2.264  42.193  1.00 19.64 LIG 0.16  HD
ATOM      5  C   PHE C   1      25.181   0.373  42.021  1.00 22.16 LIG 0.24  C 
ATOM      6 O    PHE C   1      25.531  -0.614  42.668  1.00 23.85 LIG-0.27  OA
BRANCH 5 7
ATOM      7  CA  PHE C   1      25.077   0.314  40.506  1.00 22.77 LIG 0.18  C 
BRANCH 7 8
ATOM      8  N   PHE C   1      26.397   0.050  39.998  1.00 26.70 LIG-0.35  N 
ATOM      9 H    PHE C   1      26.577  -0.784  39.896  1.00 26.70 LIG 0.16  HD
ATOM     10  C   ACE C   0      27.239   1.017  39.720  1.00 28.63 LIG 0.21  C 
ATOM     11  CH3 ACE C   0      28.552   0.501  39.173  1.00 28.20 LIG 0.12  C 
ATOM     12 O    ACE C   0      26.919   2.193  39.917  1.00 29.97 LIG-0.27  OA
ENDBRANCH 7 8
BRANCH 7 13
ATOM     13  CB  PHE C   1      24.186  -0.807  40.009  1.00 20.34 LIG 0.07  C 
BRANCH 13 14
ATOM     14  CG  PHE C   1      24.245  -0.986  38.514  1.00 17.40 LIG-0.06  A 
ATOM     15  CD1 PHE C   1      25.022  -1.978  37.907  1.00 16.88 LIG 0.01  A 
ATOM     16  CE1 PHE C   1      25.061  -2.091  36.500  1.00 14.02 LIG 0.00  A 
ATOM     17  CZ  PHE C   1      24.350  -1.237  35.741  1.00 15.72 LIG 0.00  A 
ATOM     18  CE2 PHE C   1      23.581  -0.257  36.340  1.00 14.79 LIG 0.00  A 
ATOM     19  CD2 PHE C   1      23.529  -0.147  37.706  1.00 15.53 LIG 0.01  A 
ENDBRANCH 13 14
ENDBRANCH 7 13
ENDBRANCH 5 7
ENDBRANCH 1 3
BRANCH 1 20
ATOM     20  C   ALA C   2      24.340   2.923  44.506  1.00 17.39 LIG 0.24  C 
ATOM     21  N   THR C   3      24.190   3.847  43.553  1.00 15.98 LIG-0.34  N 
ATOM     22 H    THR C   3      24.462   3.758  42.742  1.00 15.98 LIG 0.16  HD
ATOM     23 O    ALA C   2      23.960   3.062  45.673  1.00 16.73 LIG-0.27  OA
BRANCH 21 24
ATOM     24  CA  THR C   3      23.530   5.107  43.843  1.00 15.15 LIG 0.20  C 
BRANCH 24 25
ATOM     25  C   THR C   3      22.098   4.873  44.291  1.00 14.93 LIG 0.24  C 
ATOM     26  N   ALA C   4      21.533   5.886  44.925  1.00 13.95 LIG-0.35  N 
ATOM     27 H    ALA C   4      21.947   6.614  45.122  1.00 13.95 LIG 0.16  HD
ATOM     28 O    THR C   3      21.505   3.820  44.034  1.00 16.43 LIG-0.27  OA
BRANCH 26 29
ATOM     29  CA  ALA C   4      20.154   5.865  45.350  1.00 14.93 LIG 0.18  C 
ATOM     30  CB  ALA C   4      19.976   4.752  46.376  1.00 15.34 LIG 0.04  C 
BRANCH 29 31
ATOM     31  C   ALA C   4      19.738   7.229  45.912  1.00 16.13 LIG 0.28  C 
ATOM     32 O    ALA C   4      19.030   7.301  46.913  1.00 17.37 LIG-0.27  OA
ATOM     33  N   NH2 C   5      20.175   8.308  45.265  1.00 15.73 LIG-0.11  N 
ENDBRANCH 29 31
ENDBRANCH 26 29
ENDBRANCH 24 25
BRANCH 24 34
ATOM     34  CB  THR C   3      23.558   6.050  42.632  1.00 16.10 LIG 0.15  C 
ATOM     35  CG2 THR C   3      23.446   7.515  43.039  1.00 16.48 LIG 0.04  C 
BRANCH 34 36
ATOM     36 OG1  THR C   3      24.795   5.857  41.934  1.00 16.89 LIG-0.39  OA
ATOM     37 HG1  THR C   3      24.986   5.039  41.922  1.00 16.89 LIG 0.21  HD
ENDBRANCH 34 36
ENDBRANCH 24 34
ENDBRANCH 21 24
ENDBRANCH 1 20
TORSDOF 12
ENDMDL
MODEL 4
USER: ADFR SOLUTION from run 13
USER: SCORE 9.734754 LL:  -2.299 LR: -10.551 RR:   0.000 FEB:  -6.972
USER: RMSD 2.645395
USER: SEED 703084
USER: STATUS no improvement in best in 2 clusters for 5 generations
USER: GENES 14
USER: genes 0 Translation |==|  0.53840 0.49896 0.54163
USER: genes 1 Rotation |==|  0.39995 0.51412 0.50145 0.98968
USER: genes 2 Torsion [CB]-CA--N-[C] |==|  0.39771
USER: genes 3 Torsion [N]-C--CA-[N] |==|  0.98662
USER: genes 4 Torsion [C]-CA--N-[C] |==|  0.61747
USER: genes 5 Torsion [C]-CA--CB-[CG] |==|  0.63668
USER: genes 6 Torsion [CA]-CB--CG-[CD2] |==|  0.77301
USER: genes 7 Torsion [N]-CA--C-[N] |==|  0.26786
USER: genes 8 Torsion [C]-N--CA-[CB] |==|  0.53333
USER: genes 9 Torsion [N]-CA--C-[N] |==|  0.36120
USER: genes 10 Torsion [C]-N--CA-[CB] |==|  0.19370
USER: genes 11 Torsion [N]-CA--C-[N] |==|  0.01559
USER: genes 12 Torsion [N]-CA--CB-[OG1] |==|  0.48378
USER: genes 13 Torsion [CA]-CB--OG1-[HG1] |==|  0.20475
ROOT
ATOM      1  CA  ALA C   2      25.374   2.288  43.589  1.00 19.98 LIG 0.17  C 
ATOM      2  CB  ALA C   2      26.036   3.575  43.094  1.00 20.88 LIG 0.04  C 
ENDROOT
BRANCH 1 3
ATOM      3  N   ALA C   2      25.212   1.337  42.502  1.00 19.64 LIG-0.35  N 
ATOM      4 H    ALA C   2      25.013   1.679  41.739  1.00 19.64 LIG 0.16  HD
ATOM      5  C   PHE C   1      25.373   0.046  42.737  1.00 22.16 LIG 0.24  C 
ATOM      6 O    PHE C   1      25.745  -0.367  43.835  1.00 23.85 LIG-0.27  OA
BRANCH 5 7
ATOM      7  CA  PHE C   1      25.146  -0.912  41.580  1.00 22.77 LIG 0.18  C 
BRANCH 7 8
ATOM      8  N   PHE C   1      24.676  -0.132  40.466  1.00 26.70 LIG-0.35  N 
ATOM      9 H    PHE C   1      25.090   0.613  40.357  1.00 26.70 LIG 0.16  HD
ATOM     10  C   ACE C   0      23.697  -0.542  39.695  1.00 28.63 LIG 0.21  C 
ATOM     11  CH3 ACE C   0      23.397   0.429  38.575  1.00 28.20 LIG 0.12  C 
ATOM     12 O    ACE C   0      23.132  -1.614  39.930  1.00 29.97 LIG-0.27  OA
ENDBRANCH 7 8
BRANCH 7 13
ATOM     13  CB  PHE C   1      26.410  -1.610  41.122  1.00 20.34 LIG 0.07  C 
BRANCH 13 14
ATOM     14  CG  PHE C   1      26.611  -1.545  39.630  1.00 17.40 LIG-0.06  A 
ATOM     15  CD1 PHE C   1      27.439  -0.594  39.025  1.00 16.88 LIG 0.01  A 
ATOM     16  CE1 PHE C   1      27.577  -0.561  37.620  1.00 14.02 LIG 0.00  A 
ATOM     17  CZ  PHE C   1      26.904  -1.445  36.861  1.00 15.72 LIG 0.00  A 
ATOM     18  CE2 PHE C   1      26.087  -2.385  37.458  1.00 14.79 LIG 0.00  A 
ATOM     19  CD2 PHE C   1      25.955  -2.433  38.822  1.00 15.53 LIG 0.01  A 
ENDBRANCH 13 14
ENDBRANCH 7 13
ENDBRANCH 5 7
ENDBRANCH 1 3
BRANCH 1 20
ATOM     20  C   ALA C   2      24.022   2.626  44.184  1.00 17.39 LIG 0.24  C 
ATOM     21  N   THR C   3      23.688   1.928  45.273  1.00 15.98 LIG-0.34  N 
ATOM     22 H    THR C   3      24.166   1.299  45.614  1.00 15.98 LIG 0.16  HD
ATOM     23 O    ALA C   2      23.324   3.517  43.690  1.00 16.73 LIG-0.27  OA
BRANCH 21 24
ATOM     24  CA  THR C   3      22.445   2.201  45.973  1.00 15.15 LIG 0.20  C 
BRANCH 24 25
ATOM     25  C   THR C   3      22.243   3.697  46.142  1.00 14.93 LIG 0.24  C 
ATOM     26  N   ALA C   4      21.059   4.152  45.769  1.00 13.95 LIG-0.35  N 
ATOM     27 H    ALA C   4      20.453   3.659  45.407  1.00 13.95 LIG 0.16  HD
ATOM     28 O    THR C   3      23.118   4.415  46.637  1.00 16.43 LIG-0.27  OA
BRANCH 26 29
ATOM     29  CA  ALA C   4      20.669   5.531  45.934  1.00 14.93 LIG 0.18  C 
ATOM     30  CB  ALA C   4      21.479   6.387  44.968  1.00 15.34 LIG 0.04  C 
BRANCH 29 31
ATOM     31  C   ALA C   4      19.161   5.698  45.714  1.00 16.13 LIG 0.28  C 
ATOM     32 O    ALA C   4      18.651   6.816  45.716  1.00 17.37 LIG-0.27  OA
ATOM     33  N   NH2 C   5      18.450   4.587  45.532  1.00 15.73 LIG-0.11  N 
ENDBRANCH 29 31
ENDBRANCH 26 29
ENDBRANCH 24 25
BRANCH 24 34
ATOM     34  CB  THR C   3      22.404   1.504  47.339  1.00 16.10 LIG 0.15  C 
ATOM     35  CG2 THR C   3      23.619   1.842  48.196  1.00 16.48 LIG 0.04  C 
BRANCH 34 36
ATOM     36 OG1  THR C   3      21.219   1.924  48.029  1.00 16.89 LIG-0.39  OA
ATOM     37 HG1  THR C   3      20.548   1.555  47.684  1.00 16.89 LIG 0.21  HD
ENDBRANCH 34 36
ENDBRANCH 24 34
ENDBRANCH 21 24
ENDBRANCH 1 20
TORSDOF 12
ENDMDL
MODEL 5
USER: ADFR SOLUTION from run 4
USER: SCORE 10.791774 LL:  -2.140 LR: -10.511 RR:   0.000 FEB:  -6.931
USER: RMSD 3.278297
USER: SEED 45011
USER: STATUS no improvement in best in 3 clusters for 5 generations
USER: GENES 14
USER: genes 0 Translation |==|  0.46905 0.50257 0.57576
USER: genes 1 Rotation |==|  0.54824 0.34808 0.31143 0.93478
USER: genes 2 Torsion [CB]-CA--N-[C] |==|  0.24444
USER: genes 3 Torsion [N]-C--CA-[N] |==|  0.29640
USER: genes 4 Torsion [C]-CA--N-[C] |==|  0.63933
USER: genes 5 Torsion [C]-CA--CB-[CG] |==|  0.39056
USER: genes 6 Torsion [CA]-CB--CG-[CD2] |==|  0.81533
USER: genes 7 Torsion [N]-CA--C-[N] |==|  0.40688
USER: genes 8 Torsion [C]-N--CA-[CB] |==|  0.54000
USER: genes 9 Torsion [N]-CA--C-[N] |==|  0.39355
USER: genes 10 Torsion [C]-N--CA-[CB] |==|  0.84972
USER: genes 11 Torsion [N]-CA--C-[N] |==|  0.39363
USER: genes 12 Torsion [N]-CA--CB-[OG1] |==|  0.64847
USER: genes 13 Torsion [CA]-CB--OG1-[HG1] |==|  0.29985
ROOT
ATOM      1  CA  ALA C   2      24.074   2.347  44.306  1.00 19.98 LIG 0.17  C 
ATOM      2  CB  ALA C   2      25.201   2.818  45.228  1.00 20.88 LIG 0.04  C 
ENDROOT
BRANCH 1 3
ATOM      3  N   ALA C   2      24.587   2.020  42.986  1.00 19.64 LIG-0.35  N 
ATOM      4 H    ALA C   2      24.573   2.662  42.414  1.00 19.64 LIG 0.16  HD
ATOM      5  C   PHE C   1      25.030   0.798  42.745  1.00 22.16 LIG 0.24  C 
ATOM      6 O    PHE C   1      25.104  -0.048  43.636  1.00 23.85 LIG-0.27  OA
BRANCH 5 7
ATOM      7  CA  PHE C   1      25.511   0.491  41.337  1.00 22.77 LIG 0.18  C 
BRANCH 7 8
ATOM      8  N   PHE C   1      26.947   0.410  41.385  1.00 26.70 LIG-0.35  N 
ATOM      9 H    PHE C   1      27.252  -0.102  42.005  1.00 26.70 LIG 0.16  HD
ATOM     10  C   ACE C   0      27.707   1.069  40.543  1.00 28.63 LIG 0.21  C 
ATOM     11  CH3 ACE C   0      29.180   0.808  40.767  1.00 28.20 LIG 0.12  C 
ATOM     12 O    ACE C   0      27.196   1.806  39.695  1.00 29.97 LIG-0.27  OA
ENDBRANCH 7 8
BRANCH 7 13
ATOM     13  CB  PHE C   1      25.016  -0.842  40.811  1.00 20.34 LIG 0.07  C 
BRANCH 13 14
ATOM     14  CG  PHE C   1      24.630  -0.793  39.355  1.00 17.40 LIG-0.06  A 
ATOM     15  CD1 PHE C   1      25.343  -1.480  38.367  1.00 16.88 LIG 0.01  A 
ATOM     16  CE1 PHE C   1      24.954  -1.385  37.013  1.00 14.02 LIG 0.00  A 
ATOM     17  CZ  PHE C   1      23.897  -0.625  36.673  1.00 15.72 LIG 0.00  A 
ATOM     18  CE2 PHE C   1      23.192   0.052  37.649  1.00 14.79 LIG 0.00  A 
ATOM     19  CD2 PHE C   1      23.555  -0.043  38.967  1.00 15.53 LIG 0.01  A 
ENDBRANCH 13 14
ENDBRANCH 7 13
ENDBRANCH 5 7
ENDBRANCH 1 3
BRANCH 1 20
ATOM     20  C   ALA C   2      23.035   3.445  44.197  1.00 17.39 LIG 0.24  C 
ATOM     21  N   THR C   3      22.038   3.375  45.083  1.00 15.98 LIG-0.34  N 
ATOM     22 H    THR C   3      21.943   2.745  45.661  1.00 15.98 LIG 0.16  HD
ATOM     23 O    ALA C   2      23.157   4.345  43.360  1.00 16.73 LIG-0.27  OA
BRANCH 21 24
ATOM     24  CA  THR C   3      21.012   4.403  45.124  1.00 15.15 LIG 0.20  C 
BRANCH 24 25
ATOM     25  C   THR C   3      21.630   5.783  44.980  1.00 14.93 LIG 0.24  C 
ATOM     26  N   ALA C   4      20.934   6.639  44.251  1.00 13.95 LIG-0.35  N 
ATOM     27 H    ALA C   4      20.207   6.431  43.839  1.00 13.95 LIG 0.16  HD
ATOM     28 O    THR C   3      22.686   6.079  45.548  1.00 16.43 LIG-0.27  OA
BRANCH 26 29
ATOM     29  CA  ALA C   4      21.333   8.015  44.077  1.00 14.93 LIG 0.18  C 
ATOM     30  CB  ALA C   4      21.525   8.645  45.452  1.00 15.34 LIG 0.04  C 
BRANCH 29 31
ATOM     31  C   ALA C   4      22.604   8.107  43.227  1.00 16.13 LIG 0.28  C 
ATOM     32 O    ALA C   4      23.505   7.282  43.361  1.00 17.37 LIG-0.27  OA
ATOM     33  N   NH2 C   5      22.679   9.113  42.358  1.00 15.73 LIG-0.11  N 
ENDBRANCH 29 31
ENDBRANCH 26 29
ENDBRANCH 24 25
BRANCH 24 34
ATOM     34  CB  THR C   3      20.187   4.324  46.415  1.00 16.10 LIG 0.15  C 
ATOM     35  CG2 THR C   3      20.405   5.537  47.313  1.00 16.48 LIG 0.04  C 
BRANCH 34 36
ATOM     36 OG1  THR C   3      18.798   4.253  46.065  1.00 16.89 LIG-0.39  OA
ATOM     37 HG1  THR C   3      18.511   3.478  46.214  1.00 16.89 LIG 0.21  HD
ENDBRANCH 34 36
ENDBRANCH 24 34
ENDBRANCH 21 24
ENDBRANCH 1 20
TORSDOF 12
ENDMDL
MODEL 6
USER: ADFR SOLUTION from run 18
USER: SCORE 10.617948 LL:  -2.328 LR: -10.503 RR:   0.000 FEB:  -6.924
USER: RMSD 2.848566
USER: SEED 17
USER: STATUS no improvement in best in 8 clusters for 5 generations
USER: GENES 14
USER: genes 0 Translation |==|  0.59012 0.45293 0.53653
USER: genes 1 Rotation |==|  0.44656 0.48577 0.46452 0.99566
USER: genes 2 Torsion [CB]-CA--N-[C] |==|  0.41376
USER: genes 3 Torsion [N]-C--CA-[N] |==|  0.41449
USER: genes 4 Torsion [C]-CA--N-[C] |==|  0.62552
USER: genes 5 Torsion [C]-CA--CB-[CG] |==|  0.39480
USER: genes 6 Torsion [CA]-CB--CG-[CD2] |==|  0.68057
USER: genes 7 Torsion [N]-CA--C-[N] |==|  0.54996
USER: genes 8 Torsion [C]-N--CA-[CB] |==|  0.86360
USER: genes 9 Torsion [N]-CA--C-[N] |==|  0.36245
USER: genes 10 Torsion [C]-N--CA-[CB] |==|  0.18333
USER: genes 11 Torsion [N]-CA--C-[N] |==|  0.13818
USER: genes 12 Torsion [N]-CA--CB-[OG1] |==|  0.89841
USER: genes 13 Torsion [CA]-CB--OG1-[HG1] |==|  0.22049
ROOT
ATOM      1  CA  ALA C   2      26.344   1.528  43.482  1.00 19.98 LIG 0.17  C 
ATOM      2  CB  ALA C   2      27.215   2.777  43.331  1.00 20.88 LIG 0.04  C 
ENDROOT
BRANCH 1 3
ATOM      3  N   ALA C   2      26.241   0.812  42.222  1.00 19.64 LIG-0.35  N 
ATOM      4 H    ALA C   2      26.278   1.300  41.515  1.00 19.64 LIG 0.16  HD
ATOM      5  C   PHE C   1      26.102  -0.503  42.230  1.00 22.16 LIG 0.24  C 
ATOM      6 O    PHE C   1      26.147  -1.149  43.276  1.00 23.85 LIG-0.27  OA
BRANCH 5 7
ATOM      7  CA  PHE C   1      25.950  -1.201  40.889  1.00 22.77 LIG 0.18  C 
BRANCH 7 8
ATOM      8  N   PHE C   1      26.527  -2.512  41.023  1.00 26.70 LIG-0.35  N 
ATOM      9 H    PHE C   1      26.301  -2.925  41.743  1.00 26.70 LIG 0.16  HD
ATOM     10  C   ACE C   0      27.326  -3.015  40.113  1.00 28.63 LIG 0.21  C 
ATOM     11  CH3 ACE C   0      27.785  -4.415  40.456  1.00 28.20 LIG 0.12  C 
ATOM     12 O    ACE C   0      27.625  -2.351  39.117  1.00 29.97 LIG-0.27  OA
ENDBRANCH 7 8
BRANCH 7 13
ATOM     13  CB  PHE C   1      24.506  -1.399  40.476  1.00 20.34 LIG 0.07  C 
BRANCH 13 14
ATOM     14  CG  PHE C   1      24.285  -1.208  38.997  1.00 17.40 LIG-0.06  A 
ATOM     15  CD1 PHE C   1      24.862  -2.045  38.038  1.00 16.88 LIG 0.01  A 
ATOM     16  CE1 PHE C   1      24.643  -1.811  36.662  1.00 14.02 LIG 0.00  A 
ATOM     17  CZ  PHE C   1      23.879  -0.772  36.276  1.00 15.72 LIG 0.00  A 
ATOM     18  CE2 PHE C   1      23.308   0.055  37.223  1.00 14.79 LIG 0.00  A 
ATOM     19  CD2 PHE C   1      23.506  -0.172  38.561  1.00 15.53 LIG 0.01  A 
ENDBRANCH 13 14
ENDBRANCH 7 13
ENDBRANCH 5 7
ENDBRANCH 1 3
BRANCH 1 20
ATOM     20  C   ALA C   2      24.965   1.943  43.952  1.00 17.39 LIG 0.24  C 
ATOM     21  N   THR C   3      24.944   2.910  44.874  1.00 15.98 LIG-0.34  N 
ATOM     22 H    THR C   3      25.645   3.264  45.224  1.00 15.98 LIG 0.16  HD
ATOM     23 O    ALA C   2      23.954   1.428  43.465  1.00 16.73 LIG-0.27  OA
BRANCH 21 24
ATOM     24  CA  THR C   3      23.682   3.440  45.361  1.00 15.15 LIG 0.20  C 
BRANCH 24 25
ATOM     25  C   THR C   3      23.007   2.447  46.291  1.00 14.93 LIG 0.24  C 
ATOM     26  N   ALA C   4      22.595   2.945  47.445  1.00 13.95 LIG-0.35  N 
ATOM     27 H    ALA C   4      22.737   3.758  47.688  1.00 13.95 LIG 0.16  HD
ATOM     28 O    THR C   3      22.823   1.272  45.957  1.00 16.43 LIG-0.27  OA
BRANCH 26 29
ATOM     29  CA  ALA C   4      21.864   2.163  48.412  1.00 14.93 LIG 0.18  C 
ATOM     30  CB  ALA C   4      22.779   1.066  48.946  1.00 15.34 LIG 0.04  C 
BRANCH 29 31
ATOM     31  C   ALA C   4      21.330   3.055  49.538  1.00 16.13 LIG 0.28  C 
ATOM     32 O    ALA C   4      21.508   2.748  50.714  1.00 17.37 LIG-0.27  OA
ATOM     33  N   NH2 C   5      20.670   4.154  49.177  1.00 15.73 LIG-0.11  N 
ENDBRANCH 29 31
ENDBRANCH 26 29
ENDBRANCH 24 25
BRANCH 24 34
ATOM     34  CB  THR C   3      22.742   3.806  44.204  1.00 16.10 LIG 0.15  C 
ATOM     35  CG2 THR C   3      21.702   4.844  44.614  1.00 16.48 LIG 0.04  C 
BRANCH 34 36
ATOM     36 OG1  THR C   3      23.528   4.338  43.130  1.00 16.89 LIG-0.39  OA
ATOM     37 HG1  THR C   3      23.885   3.707  42.705  1.00 16.89 LIG 0.21  HD
ENDBRANCH 34 36
ENDBRANCH 24 34
ENDBRANCH 21 24
ENDBRANCH 1 20
TORSDOF 12
ENDMDL
MODEL 7
USER: ADFR SOLUTION from run 18
USER: SCORE 11.329401 LL:  -2.321 LR: -10.478 RR:   0.000 FEB:  -6.898
USER: RMSD 2.988603
USER: SEED 17
USER: STATUS no improvement in best in 8 clusters for 5 generations
USER: GENES 14
USER: genes 0 Translation |==|  0.55042 0.38563 0.56008
USER: genes 1 Rotation |==|  0.48971 0.39102 0.25760 0.92339
USER: genes 2 Torsion [CB]-CA--N-[C] |==|  0.22809
USER: genes 3 Torsion [N]-C--CA-[N] |==|  0.43449
USER: genes 4 Torsion [C]-CA--N-[C] |==|  0.60735
USER: genes 5 Torsion [C]-CA--CB-[CG] |==|  0.37704
USER: genes 6 Torsion [CA]-CB--CG-[CD2] |==|  0.71042
USER: genes 7 Torsion [N]-CA--C-[N] |==|  0.53333
USER: genes 8 Torsion [C]-N--CA-[CB] |==|  0.84346
USER: genes 9 Torsion [N]-CA--C-[N] |==|  0.33959
USER: genes 10 Torsion [C]-N--CA-[CB] |==|  0.51244
USER: genes 11 Torsion [N]-CA--C-[N] |==|  0.39921
USER: genes 12 Torsion [N]-CA--CB-[OG1] |==|  0.74714
USER: genes 13 Torsion [CA]-CB--OG1-[HG1] |==|  0.11614
ROOT
ATOM      1  CA  ALA C   2      25.599   0.418  43.977  1.00 19.98 LIG 0.17  C 
ATOM      2  CB  ALA C   2      27.001   0.608  44.561  1.00 20.88 LIG 0.04  C 
ENDROOT
BRANCH 1 3
ATOM      3  N   ALA C   2      25.670  -0.081  42.613  1.00 19.64 LIG-0.35  N 
ATOM      4 H    ALA C   2      25.593   0.514  41.998  1.00 19.64 LIG 0.16  HD
ATOM      5  C   PHE C   1      25.842  -1.374  42.401  1.00 22.16 LIG 0.24  C 
ATOM      6 O    PHE C   1      26.035  -2.159  43.330  1.00 23.85 LIG-0.27  OA
BRANCH 5 7
ATOM      7  CA  PHE C   1      25.861  -1.853  40.960  1.00 22.77 LIG 0.18  C 
BRANCH 7 8
ATOM      8  N   PHE C   1      26.587  -3.095  40.932  1.00 26.70 LIG-0.35  N 
ATOM      9 H    PHE C   1      26.436  -3.607  41.605  1.00 26.70 LIG 0.16  HD
ATOM     10  C   ACE C   0      27.403  -3.399  39.952  1.00 28.63 LIG 0.21  C 
ATOM     11  CH3 ACE C   0      28.031  -4.764  40.124  1.00 28.20 LIG 0.12  C 
ATOM     12 O    ACE C   0      27.588  -2.599  39.029  1.00 29.97 LIG-0.27  OA
ENDBRANCH 7 8
BRANCH 7 13
ATOM     13  CB  PHE C   1      24.480  -2.142  40.405  1.00 20.34 LIG 0.07  C 
BRANCH 13 14
ATOM     14  CG  PHE C   1      24.278  -1.597  39.015  1.00 17.40 LIG-0.06  A 
ATOM     15  CD1 PHE C   1      24.843  -2.196  37.885  1.00 16.88 LIG 0.01  A 
ATOM     16  CE1 PHE C   1      24.642  -1.634  36.605  1.00 14.02 LIG 0.00  A 
ATOM     17  CZ  PHE C   1      23.908  -0.514  36.475  1.00 15.72 LIG 0.00  A 
ATOM     18  CE2 PHE C   1      23.348   0.077  37.591  1.00 14.79 LIG 0.00  A 
ATOM     19  CD2 PHE C   1      23.528  -0.467  38.836  1.00 15.53 LIG 0.01  A 
ENDBRANCH 13 14
ENDBRANCH 7 13
ENDBRANCH 5 7
ENDBRANCH 1 3
BRANCH 1 20
ATOM     20  C   ALA C   2      24.870   1.745  44.003  1.00 17.39 LIG 0.24  C 
ATOM     21  N   THR C   3      24.958   2.422  45.151  1.00 15.98 LIG-0.34  N 
ATOM     22 H    THR C   3      25.360   2.135  45.856  1.00 15.98 LIG 0.16  HD
ATOM     23 O    ALA C   2      24.278   2.157  43.000  1.00 16.73 LIG-0.27  OA
BRANCH 21 24
ATOM     24  CA  THR C   3      24.355   3.736  45.283  1.00 15.15 LIG 0.20  C 
BRANCH 24 25
ATOM     25  C   THR C   3      22.841   3.641  45.210  1.00 14.93 LIG 0.24  C 
ATOM     26  N   ALA C   4      22.194   4.119  46.260  1.00 13.95 LIG-0.35  N 
ATOM     27 H    ALA C   4      22.587   4.419  46.963  1.00 13.95 LIG 0.16  HD
ATOM     28 O    THR C   3      22.270   3.187  44.213  1.00 16.43 LIG-0.27  OA
BRANCH 26 29
ATOM     29  CA  ALA C   4      20.754   4.180  46.323  1.00 14.93 LIG 0.18  C 
ATOM     30  CB  ALA C   4      20.351   4.882  47.615  1.00 15.34 LIG 0.04  C 
BRANCH 29 31
ATOM     31  C   ALA C   4      20.187   4.892  45.089  1.00 16.13 LIG 0.28  C 
ATOM     32 O    ALA C   4      20.782   5.844  44.591  1.00 17.37 LIG-0.27  OA
ATOM     33  N   NH2 C   5      19.036   4.433  44.602  1.00 15.73 LIG-0.11  N 
ENDBRANCH 29 31
ENDBRANCH 26 29
ENDBRANCH 24 25
BRANCH 24 34
ATOM     34  CB  THR C   3      24.876   4.705  44.213  1.00 16.10 LIG 0.15  C 
ATOM     35  CG2 THR C   3      23.829   5.738  43.812  1.00 16.48 LIG 0.04  C 
BRANCH 34 36
ATOM     36 OG1  THR C   3      26.022   5.388  44.738  1.00 16.89 LIG-0.39  OA
ATOM     37 HG1  THR C   3      26.506   4.843  45.156  1.00 16.89 LIG 0.21  HD
ENDBRANCH 34 36
ENDBRANCH 24 34
ENDBRANCH 21 24
ENDBRANCH 1 20
TORSDOF 12
ENDMDL
MODEL 8
USER: ADFR SOLUTION from run 103
USER: SCORE 10.638445 LL:  -2.222 LR: -10.399 RR:   0.000 FEB:  -6.819
USER: RMSD 2.643920
USER: SEED 102
USER: STATUS no improvement in best in 7 clusters for 5 generations
USER: GENES 14
USER: genes 0 Translation |==|  0.48649 0.48334 0.56813
USER: genes 1 Rotation |==|  0.53936 0.38826 0.27721 0.93166
USER: genes 2 Torsion [CB]-CA--N-[C] |==|  0.22569
USER: genes 3 Torsion [N]-C--CA-[N] |==|  0.35014
USER: genes 4 Torsion [C]-CA--N-[C] |==|  0.65511
USER: genes 5 Torsion [C]-CA--CB-[CG] |==|  0.46983
USER: genes 6 Torsion [CA]-CB--CG-[CD2] |==|  0.75624
USER: genes 7 Torsion [N]-CA--C-[N] |==|  0.42266
USER: genes 8 Torsion [C]-N--CA-[CB] |==|  0.17896
USER: genes 9 Torsion [N]-CA--C-[N] |==|  0.01667
USER: genes 10 Torsion [C]-N--CA-[CB] |==|  0.51332
USER: genes 11 Torsion [N]-CA--C-[N] |==|  0.42306
USER: genes 12 Torsion [N]-CA--CB-[OG1] |==|  0.67411
USER: genes 13 Torsion [CA]-CB--OG1-[HG1] |==|  0.16497
ROOT
ATOM      1  CA  ALA C   2      24.401   2.030  44.146  1.00 19.98 LIG 0.17  C 
ATOM      2  CB  ALA C   2      25.708   2.294  44.895  1.00 20.88 LIG 0.04  C 
ENDROOT
BRANCH 1 3
ATOM      3  N   ALA C   2      24.655   1.756  42.741  1.00 19.64 LIG-0.35  N 
ATOM      4 H    ALA C   2      24.542   2.421  42.209  1.00 19.64 LIG 0.16  HD
ATOM      5  C   PHE C   1      25.031   0.543  42.372  1.00 22.16 LIG 0.24  C 
ATOM      6 O    PHE C   1      25.260  -0.339  43.199  1.00 23.85 LIG-0.27  OA
BRANCH 5 7
ATOM      7  CA  PHE C   1      25.238   0.293  40.888  1.00 22.77 LIG 0.18  C 
BRANCH 7 8
ATOM      8  N   PHE C   1      26.563  -0.243  40.726  1.00 26.70 LIG-0.35  N 
ATOM      9 H    PHE C   1      26.716  -0.951  41.190  1.00 26.70 LIG 0.16  HD
ATOM     10  C   ACE C   0      27.445   0.316  39.933  1.00 28.63 LIG 0.21  C 
ATOM     11  CH3 ACE C   0      28.756  -0.439  39.903  1.00 28.20 LIG 0.12  C 
ATOM     12 O    ACE C   0      27.159   1.348  39.318  1.00 29.97 LIG-0.27  OA
ENDBRANCH 7 8
BRANCH 7 13
ATOM     13  CB  PHE C   1      24.279  -0.729  40.313  1.00 20.34 LIG 0.07  C 
BRANCH 13 14
ATOM     14  CG  PHE C   1      24.310  -0.784  38.807  1.00 17.40 LIG-0.06  A 
ATOM     15  CD1 PHE C   1      25.150  -1.653  38.105  1.00 16.88 LIG 0.01  A 
ATOM     16  CE1 PHE C   1      25.158  -1.651  36.693  1.00 14.02 LIG 0.00  A 
ATOM     17  CZ  PHE C   1      24.357  -0.803  36.022  1.00 15.72 LIG 0.00  A 
ATOM     18  CE2 PHE C   1      23.525   0.055  36.715  1.00 14.79 LIG 0.00  A 
ATOM     19  CD2 PHE C   1      23.503   0.052  38.086  1.00 15.53 LIG 0.01  A 
ENDBRANCH 13 14
ENDBRANCH 7 13
ENDBRANCH 5 7
ENDBRANCH 1 3
BRANCH 1 20
ATOM     20  C   ALA C   2      23.502   3.242  44.279  1.00 17.39 LIG 0.24  C 
ATOM     21  N   THR C   3      22.741   3.269  45.377  1.00 15.98 LIG-0.34  N 
ATOM     22 H    THR C   3      22.711   2.641  45.964  1.00 15.98 LIG 0.16  HD
ATOM     23 O    ALA C   2      23.529   4.141  43.432  1.00 16.73 LIG-0.27  OA
BRANCH 21 24
ATOM     24  CA  THR C   3      21.882   4.407  45.653  1.00 15.15 LIG 0.20  C 
BRANCH 24 25
ATOM     25  C   THR C   3      21.261   4.288  47.034  1.00 14.93 LIG 0.24  C 
ATOM     26  N   ALA C   4      21.697   3.273  47.762  1.00 13.95 LIG-0.35  N 
ATOM     27 H    ALA C   4      22.253   2.685  47.472  1.00 13.95 LIG 0.16  HD
ATOM     28 O    THR C   3      20.442   5.115  47.447  1.00 16.43 LIG-0.27  OA
BRANCH 26 29
ATOM     29  CA  ALA C   4      21.274   3.057  49.124  1.00 14.93 LIG 0.18  C 
ATOM     30  CB  ALA C   4      22.054   1.880  49.697  1.00 15.34 LIG 0.04  C 
BRANCH 29 31
ATOM     31  C   ALA C   4      21.467   4.328  49.960  1.00 16.13 LIG 0.28  C 
ATOM     32 O    ALA C   4      22.343   5.138  49.667  1.00 17.37 LIG-0.27  OA
ATOM     33  N   NH2 C   5      20.655   4.496  51.001  1.00 15.73 LIG-0.11  N 
ENDBRANCH 29 31
ENDBRANCH 26 29
ENDBRANCH 24 25
BRANCH 24 34
ATOM     34  CB  THR C   3      20.784   4.555  44.590  1.00 16.10 LIG 0.15  C 
ATOM     35  CG2 THR C   3      19.386   4.521  45.198  1.00 16.48 LIG 0.04  C 
BRANCH 34 36
ATOM     36 OG1  THR C   3      20.966   5.809  43.919  1.00 16.89 LIG-0.39  OA
ATOM     37 HG1  THR C   3      21.726   5.827  43.561  1.00 16.89 LIG 0.21  HD
ENDBRANCH 34 36
ENDBRANCH 24 34
ENDBRANCH 21 24
ENDBRANCH 1 20
TORSDOF 12
ENDMDL
MODEL 9
USER: ADFR SOLUTION from run 178
USER: SCORE 10.516384 LL:  -2.383 LR: -10.093 RR:   0.000 FEB:  -6.513
USER: RMSD 3.904176
USER: SEED 177
USER: STATUS no improvement in best in 8 clusters for 5 generations
USER: GENES 14
USER: genes 0 Translation |==|  0.57752 0.45461 0.48531
USER: genes 1 Rotation |==|  0.42768 0.66905 0.44524 0.96173
USER: genes 2 Torsion [CB]-CA--N-[C] |==|  0.15570
USER: genes 3 Torsion [N]-C--CA-[N] |==|  0.42619
USER: genes 4 Torsion [C]-CA--N-[C] |==|  0.61154
USER: genes 5 Torsion [C]-CA--CB-[CG] |==|  0.88922
USER: genes 6 Torsion [CA]-CB--CG-[CD2] |==|  0.75296
USER: genes 7 Torsion [N]-CA--C-[N] |==|  0.83100
USER: genes 8 Torsion [C]-N--CA-[CB] |==|  0.50556
USER: genes 9 Torsion [N]-CA--C-[N] |==|  0.46350
USER: genes 10 Torsion [C]-N--CA-[CB] |==|  0.18104
USER: genes 11 Torsion [N]-CA--C-[N] |==|  0.11281
USER: genes 12 Torsion [N]-CA--CB-[OG1] |==|  0.90372
USER: genes 13 Torsion [CA]-CB--OG1-[HG1] |==|  0.10967
ROOT
ATOM      1  CA  ALA C   2      26.107   1.556  42.407  1.00 19.98 LIG 0.17  C 
ATOM      2  CB  ALA C   2      26.816   2.645  41.599  1.00 20.88 LIG 0.04  C 
ENDROOT
BRANCH 1 3
ATOM      3  N   ALA C   2      25.084   0.901  41.608  1.00 19.64 LIG-0.35  N 
ATOM      4 H    ALA C   2      24.293   0.911  41.943  1.00 19.64 LIG 0.16  HD
ATOM      5  C   PHE C   1      25.415   0.348  40.454  1.00 22.16 LIG 0.24  C 
ATOM      6 O    PHE C   1      26.551   0.449  39.992  1.00 23.85 LIG-0.27  OA
BRANCH 5 7
ATOM      7  CA  PHE C   1      24.320  -0.366  39.679  1.00 22.77 LIG 0.18  C 
BRANCH 7 8
ATOM      8  N   PHE C   1      24.684  -0.322  38.288  1.00 26.70 LIG-0.35  N 
ATOM      9 H    PHE C   1      25.521  -0.448  38.138  1.00 26.70 LIG 0.16  HD
ATOM     10  C   ACE C   0      23.797  -0.107  37.346  1.00 28.63 LIG 0.21  C 
ATOM     11  CH3 ACE C   0      24.406  -0.133  35.961  1.00 28.20 LIG 0.12  C 
ATOM     12 O    ACE C   0      22.615   0.091  37.641  1.00 29.97 LIG-0.27  OA
ENDBRANCH 7 8
BRANCH 7 13
ATOM     13  CB  PHE C   1      24.181  -1.830  40.048  1.00 20.34 LIG 0.07  C 
BRANCH 13 14
ATOM     14  CG  PHE C   1      25.507  -2.512  40.262  1.00 17.40 LIG-0.06  A 
ATOM     15  CD1 PHE C   1      26.130  -2.566  41.513  1.00 16.88 LIG 0.01  A 
ATOM     16  CE1 PHE C   1      27.385  -3.198  41.658  1.00 14.02 LIG 0.00  A 
ATOM     17  CZ  PHE C   1      27.984  -3.745  40.585  1.00 15.72 LIG 0.00  A 
ATOM     18  CE2 PHE C   1      27.369  -3.693  39.349  1.00 14.79 LIG 0.00  A 
ATOM     19  CD2 PHE C   1      26.146  -3.092  39.201  1.00 15.53 LIG 0.01  A 
ENDBRANCH 13 14
ENDBRANCH 7 13
ENDBRANCH 5 7
ENDBRANCH 1 3
BRANCH 1 20
ATOM     20  C   ALA C   2      25.480   2.183  43.634  1.00 17.39 LIG 0.24  C 
ATOM     21  N   THR C   3      24.560   3.120  43.389  1.00 15.98 LIG-0.34  N 
ATOM     22 H    THR C   3      24.345   3.398  42.603  1.00 15.98 LIG 0.16  HD
ATOM     23 O    ALA C   2      25.794   1.800  44.766  1.00 16.73 LIG-0.27  OA
BRANCH 21 24
ATOM     24  CA  THR C   3      23.840   3.753  44.480  1.00 15.15 LIG 0.20  C 
BRANCH 24 25
ATOM     25  C   THR C   3      23.166   2.709  45.354  1.00 14.93 LIG 0.24  C 
ATOM     26  N   ALA C   4      22.717   3.152  46.516  1.00 13.95 LIG-0.35  N 
ATOM     27 H    ALA C   4      22.833   3.958  46.794  1.00 13.95 LIG 0.16  HD
ATOM     28 O    THR C   3      23.018   1.544  44.971  1.00 16.43 LIG-0.27  OA
BRANCH 26 29
ATOM     29  CA  ALA C   4      21.982   2.316  47.434  1.00 14.93 LIG 0.18  C 
ATOM     30  CB  ALA C   4      22.903   1.208  47.931  1.00 15.34 LIG 0.04  C 
BRANCH 29 31
ATOM     31  C   ALA C   4      21.418   3.147  48.591  1.00 16.13 LIG 0.28  C 
ATOM     32 O    ALA C   4      21.434   2.710  49.739  1.00 17.37 LIG-0.27  OA
ATOM     33  N   NH2 C   5      20.914   4.342  48.288  1.00 15.73 LIG-0.11  N 
ENDBRANCH 29 31
ENDBRANCH 26 29
ENDBRANCH 24 25
BRANCH 24 34
ATOM     34  CB  THR C   3      22.803   4.759  43.962  1.00 16.10 LIG 0.15  C 
ATOM     35  CG2 THR C   3      22.484   5.838  44.990  1.00 16.48 LIG 0.04  C 
BRANCH 34 36
ATOM     36 OG1  THR C   3      23.325   5.384  42.782  1.00 16.89 LIG-0.39  OA
ATOM     37 HG1  THR C   3      23.728   4.812  42.317  1.00 16.89 LIG 0.21  HD
ENDBRANCH 34 36
ENDBRANCH 24 34
ENDBRANCH 21 24
ENDBRANCH 1 20
TORSDOF 12
ENDMDL
MODEL 10
USER: ADFR SOLUTION from run 79
USER: SCORE 10.677264 LL:  -2.104 LR: -10.021 RR:   0.000 FEB:  -6.441
USER: RMSD 3.375401
USER: SEED 78
USER: STATUS no improvement in best in 2 clusters for 5 generations
USER: GENES 14
USER: genes 0 Translation |==|  0.56214 0.41081 0.57757
USER: genes 1 Rotation |==|  0.40053 0.47092 0.44216 0.98571
USER: genes 2 Torsion [CB]-CA--N-[C] |==|  0.86499
USER: genes 3 Torsion [N]-C--CA-[N] |==|  0.42720
USER: genes 4 Torsion [C]-CA--N-[C] |==|  0.60566
USER: genes 5 Torsion [C]-CA--CB-[CG] |==|  0.29999
USER: genes 6 Torsion [CA]-CB--CG-[CD2] |==|  0.81629
USER: genes 7 Torsion [N]-CA--C-[N] |==|  0.32778
USER: genes 8 Torsion [C]-N--CA-[CB] |==|  0.51178
USER: genes 9 Torsion [N]-CA--C-[N] |==|  0.40112
USER: genes 10 Torsion [C]-N--CA-[CB] |==|  0.22323
USER: genes 11 Torsion [N]-CA--C-[N] |==|  0.00079
USER: genes 12 Torsion [N]-CA--CB-[OG1] |==|  0.49226
USER: genes 13 Torsion [CA]-CB--OG1-[HG1] |==|  0.21675
ROOT
ATOM      1  CA  ALA C   2      25.819   0.833  44.344  1.00 19.98 LIG 0.17  C 
ATOM      2  CB  ALA C   2      26.811   1.953  44.021  1.00 20.88 LIG 0.04  C 
ENDROOT
BRANCH 1 3
ATOM      3  N   ALA C   2      25.709  -0.098  43.234  1.00 19.64 LIG-0.35  N 
ATOM      4 H    ALA C   2      25.772  -0.930  43.442  1.00 19.64 LIG 0.16  HD
ATOM      5  C   PHE C   1      25.525   0.366  42.010  1.00 22.16 LIG 0.24  C 
ATOM      6 O    PHE C   1      25.353   1.566  41.795  1.00 23.85 LIG-0.27  OA
BRANCH 5 7
ATOM      7  CA  PHE C   1      25.465  -0.644  40.877  1.00 22.77 LIG 0.18  C 
BRANCH 7 8
ATOM      8  N   PHE C   1      24.679  -0.058  39.824  1.00 26.70 LIG-0.35  N 
ATOM      9 H    PHE C   1      24.807   0.785  39.715  1.00 26.70 LIG 0.16  HD
ATOM     10  C   ACE C   0      23.844  -0.768  39.103  1.00 28.63 LIG 0.21  C 
ATOM     11  CH3 ACE C   0      23.152   0.055  38.040  1.00 28.20 LIG 0.12  C 
ATOM     12 O    ACE C   0      23.695  -1.972  39.336  1.00 29.97 LIG-0.27  OA
ENDBRANCH 7 8
BRANCH 7 13
ATOM     13  CB  PHE C   1      26.822  -0.962  40.284  1.00 20.34 LIG 0.07  C 
BRANCH 13 14
ATOM     14  CG  PHE C   1      27.315  -2.339  40.645  1.00 17.40 LIG-0.06  A 
ATOM     15  CD1 PHE C   1      27.466  -3.355  39.697  1.00 16.88 LIG 0.01  A 
ATOM     16  CE1 PHE C   1      27.911  -4.637  40.090  1.00 14.02 LIG 0.00  A 
ATOM     17  CZ  PHE C   1      28.185  -4.880  41.385  1.00 15.72 LIG 0.00  A 
ATOM     18  CE2 PHE C   1      28.037  -3.876  42.322  1.00 14.79 LIG 0.00  A 
ATOM     19  CD2 PHE C   1      27.617  -2.626  41.948  1.00 15.53 LIG 0.01  A 
ENDBRANCH 13 14
ENDBRANCH 7 13
ENDBRANCH 5 7
ENDBRANCH 1 3
BRANCH 1 20
ATOM     20  C   ALA C   2      24.465   1.445  44.639  1.00 17.39 LIG 0.24  C 
ATOM     21  N   THR C   3      23.976   1.187  45.856  1.00 15.98 LIG-0.34  N 
ATOM     22 H    THR C   3      24.360   0.684  46.438  1.00 15.98 LIG 0.16  HD
ATOM     23 O    ALA C   2      23.902   2.158  43.802  1.00 16.73 LIG-0.27  OA
BRANCH 21 24
ATOM     24  CA  THR C   3      22.715   1.768  46.283  1.00 15.15 LIG 0.20  C 
BRANCH 24 25
ATOM     25  C   THR C   3      22.727   3.274  46.093  1.00 14.93 LIG 0.24  C 
ATOM     26  N   ALA C   4      21.570   3.805  45.731  1.00 13.95 LIG-0.35  N 
ATOM     27 H    ALA C   4      20.866   3.340  45.563  1.00 13.95 LIG 0.16  HD
ATOM     28 O    THR C   3      23.741   3.945  46.308  1.00 16.43 LIG-0.27  OA
BRANCH 26 29
ATOM     29  CA  ALA C   4      21.381   5.228  45.584  1.00 14.93 LIG 0.18  C 
ATOM     30  CB  ALA C   4      21.934   5.656  44.229  1.00 15.34 LIG 0.04  C 
BRANCH 29 31
ATOM     31  C   ALA C   4      19.902   5.597  45.736  1.00 16.13 LIG 0.28  C 
ATOM     32 O    ALA C   4      19.538   6.767  45.643  1.00 17.37 LIG-0.27  OA
ATOM     33  N   NH2 C   5      19.052   4.600  45.976  1.00 15.73 LIG-0.11  N 
ENDBRANCH 29 31
ENDBRANCH 26 29
ENDBRANCH 24 25
BRANCH 24 34
ATOM     34  CB  THR C   3      22.404   1.421  47.746  1.00 16.10 LIG 0.15  C 
ATOM     35  CG2 THR C   3      23.513   1.869  48.693  1.00 16.48 LIG 0.04  C 
BRANCH 34 36
ATOM     36 OG1  THR C   3      21.185   2.077  48.119  1.00 16.89 LIG-0.39  OA
ATOM     37 HG1  THR C   3      20.531   1.650  47.809  1.00 16.89 LIG 0.21  HD
ENDBRANCH 34 36
ENDBRANCH 24 34
ENDBRANCH 21 24
ENDBRANCH 1 20
TORSDOF 12
ENDMDL
MODEL 11
USER: ADFR SOLUTION from run 80
USER: SCORE 9.822814 LL:  -2.292 LR:  -9.958 RR:   0.000 FEB:  -6.379
USER: RMSD 2.114602
USER: SEED 79
USER: STATUS no improvement in best in 7 clusters for 5 generations
USER: GENES 14
USER: genes 0 Translation |==|  0.56614 0.47397 0.54696
USER: genes 1 Rotation |==|  0.63038 0.44706 0.40196 0.96967
USER: genes 2 Torsion [CB]-CA--N-[C] |==|  0.25064
USER: genes 3 Torsion [N]-C--CA-[N] |==|  0.26245
USER: genes 4 Torsion [C]-CA--N-[C] |==|  0.73278
USER: genes 5 Torsion [C]-CA--CB-[CG] |==|  0.18736
USER: genes 6 Torsion [CA]-CB--CG-[CD2] |==|  0.08456
USER: genes 7 Torsion [N]-CA--C-[N] |==|  0.43769
USER: genes 8 Torsion [C]-N--CA-[CB] |==|  0.52778
USER: genes 9 Torsion [N]-CA--C-[N] |==|  0.38441
USER: genes 10 Torsion [C]-N--CA-[CB] |==|  0.22148
USER: genes 11 Torsion [N]-CA--C-[N] |==|  0.00955
USER: genes 12 Torsion [N]-CA--CB-[OG1] |==|  0.47113
USER: genes 13 Torsion [CA]-CB--OG1-[HG1] |==|  0.20884
ROOT
ATOM      1  CA  ALA C   2      25.894   1.875  43.701  1.00 19.98 LIG 0.17  C 
ATOM      2  CB  ALA C   2      26.911   2.624  44.566  1.00 20.88 LIG 0.04  C 
ENDROOT
BRANCH 1 3
ATOM      3  N   ALA C   2      26.084   2.183  42.294  1.00 19.64 LIG-0.35  N 
ATOM      4 H    ALA C   2      25.642   2.859  42.000  1.00 19.64 LIG 0.16  HD
ATOM      5  C   PHE C   1      26.897   1.435  41.568  1.00 22.16 LIG 0.24  C 
ATOM      6 O    PHE C   1      27.569   0.536  42.073  1.00 23.85 LIG-0.27  OA
BRANCH 5 7
ATOM      7  CA  PHE C   1      27.026   1.767  40.091  1.00 22.77 LIG 0.18  C 
BRANCH 7 8
ATOM      8  N   PHE C   1      28.167   2.631  39.945  1.00 26.70 LIG-0.35  N 
ATOM      9 H    PHE C   1      28.919   2.217  39.893  1.00 26.70 LIG 0.16  HD
ATOM     10  C   ACE C   0      28.048   3.936  39.899  1.00 28.63 LIG 0.21  C 
ATOM     11  CH3 ACE C   0      29.378   4.633  39.715  1.00 28.20 LIG 0.12  C 
ATOM     12 O    ACE C   0      26.935   4.460  40.006  1.00 29.97 LIG-0.27  OA
ENDBRANCH 7 8
BRANCH 7 13
ATOM     13  CB  PHE C   1      27.285   0.552  39.223  1.00 20.34 LIG 0.07  C 
BRANCH 13 14
ATOM     14  CG  PHE C   1      26.113  -0.395  39.171  1.00 17.40 LIG-0.06  A 
ATOM     15  CD1 PHE C   1      26.269  -1.772  38.987  1.00 16.88 LIG 0.01  A 
ATOM     16  CE1 PHE C   1      25.137  -2.615  38.923  1.00 14.02 LIG 0.00  A 
ATOM     17  CZ  PHE C   1      23.904  -2.087  39.034  1.00 15.72 LIG 0.00  A 
ATOM     18  CE2 PHE C   1      23.750  -0.726  39.218  1.00 14.79 LIG 0.00  A 
ATOM     19  CD2 PHE C   1      24.843   0.098  39.292  1.00 15.53 LIG 0.01  A 
ENDBRANCH 13 14
ENDBRANCH 7 13
ENDBRANCH 5 7
ENDBRANCH 1 3
BRANCH 1 20
ATOM     20  C   ALA C   2      24.496   2.270  44.130  1.00 17.39 LIG 0.24  C 
ATOM     21  N   THR C   3      24.034   1.642  45.215  1.00 15.98 LIG-0.34  N 
ATOM     22 H    THR C   3      24.459   1.026  45.639  1.00 15.98 LIG 0.16  HD
ATOM     23 O    ALA C   2      23.874   3.144  43.518  1.00 16.73 LIG-0.27  OA
BRANCH 21 24
ATOM     24  CA  THR C   3      22.732   1.977  45.764  1.00 15.15 LIG 0.20  C 
BRANCH 24 25
ATOM     25  C   THR C   3      22.567   3.482  45.874  1.00 14.93 LIG 0.24  C 
ATOM     26  N   ALA C   4      21.381   3.948  45.518  1.00 13.95 LIG-0.35  N 
ATOM     27 H    ALA C   4      20.754   3.453  45.198  1.00 13.95 LIG 0.16  HD
ATOM     28 O    THR C   3      23.473   4.201  46.309  1.00 16.43 LIG-0.27  OA
BRANCH 26 29
ATOM     29  CA  ALA C   4      21.027   5.341  45.636  1.00 14.93 LIG 0.18  C 
ATOM     30  CB  ALA C   4      21.626   6.099  44.457  1.00 15.34 LIG 0.04  C 
BRANCH 29 31
ATOM     31  C   ALA C   4      19.505   5.509  45.705  1.00 16.13 LIG 0.28  C 
ATOM     32 O    ALA C   4      19.003   6.629  45.749  1.00 17.37 LIG-0.27  OA
ATOM     33  N   NH2 C   5      18.774   4.396  45.720  1.00 15.73 LIG-0.11  N 
ENDBRANCH 29 31
ENDBRANCH 26 29
ENDBRANCH 24 25
BRANCH 24 34
ATOM     34  CB  THR C   3      22.512   1.319  47.133  1.00 16.10 LIG 0.15  C 
ATOM     35  CG2 THR C   3      23.688   1.547  48.077  1.00 16.48 LIG 0.04  C 
BRANCH 34 36
ATOM     36 OG1  THR C   3      21.331   1.877  47.723  1.00 16.89 LIG-0.39  OA
ATOM     37 HG1  THR C   3      20.651   1.558  47.345  1.00 16.89 LIG 0.21  HD
ENDBRANCH 34 36
ENDBRANCH 24 34
ENDBRANCH 21 24
ENDBRANCH 1 20
TORSDOF 12
ENDMDL
MODEL 12
USER: ADFR SOLUTION from run 67
USER: SCORE 9.283128 LL:  -2.497 LR:  -9.789 RR:   0.000 FEB:  -6.209
USER: RMSD 1.870432
USER: SEED 66
USER: STATUS no improvement in best in 3 clusters for 5 generations
USER: GENES 14
USER: genes 0 Translation |==|  0.54907 0.52368 0.56438
USER: genes 1 Rotation |==|  0.51667 0.48900 0.50958 0.99951
USER: genes 2 Torsion [CB]-CA--N-[C] |==|  0.45880
USER: genes 3 Torsion [N]-C--CA-[N] |==|  0.26973
USER: genes 4 Torsion [C]-CA--N-[C] |==|  0.72263
USER: genes 5 Torsion [C]-CA--CB-[CG] |==|  0.49977
USER: genes 6 Torsion [CA]-CB--CG-[CD2] |==|  0.76069
USER: genes 7 Torsion [N]-CA--C-[N] |==|  0.46137
USER: genes 8 Torsion [C]-N--CA-[CB] |==|  0.25794
USER: genes 9 Torsion [N]-CA--C-[N] |==|  0.46658
USER: genes 10 Torsion [C]-N--CA-[CB] |==|  0.45007
USER: genes 11 Torsion [N]-CA--C-[N] |==|  0.41667
USER: genes 12 Torsion [N]-CA--CB-[OG1] |==|  0.51224
USER: genes 13 Torsion [CA]-CB--OG1-[HG1] |==|  0.28131
ROOT
ATOM      1  CA  ALA C   2      25.574   2.696  44.067  1.00 19.98 LIG 0.17  C 
ATOM      2  CB  ALA C   2      26.197   4.078  44.273  1.00 20.88 LIG 0.04  C 
ENDROOT
BRANCH 1 3
ATOM      3  N   ALA C   2      25.556   2.341  42.658  1.00 19.64 LIG-0.35  N 
ATOM      4 H    ALA C   2      25.695   2.989  42.111  1.00 19.64 LIG 0.16  HD
ATOM      5  C   PHE C   1      25.334   1.086  42.305  1.00 22.16 LIG 0.24  C 
ATOM      6 O    PHE C   1      25.232   0.190  43.143  1.00 23.85 LIG-0.27  OA
BRANCH 5 7
ATOM      7  CA  PHE C   1      25.277   0.773  40.820  1.00 22.77 LIG 0.18  C 
BRANCH 7 8
ATOM      8  N   PHE C   1      26.575   0.285  40.436  1.00 26.70 LIG-0.35  N 
ATOM      9 H    PHE C   1      26.712  -0.541  40.628  1.00 26.70 LIG 0.16  HD
ATOM     10  C   ACE C   0      27.457   1.054  39.844  1.00 28.63 LIG 0.21  C 
ATOM     11  CH3 ACE C   0      28.736   0.316  39.511  1.00 28.20 LIG 0.12  C 
ATOM     12 O    ACE C   0      27.196   2.240  39.623  1.00 29.97 LIG-0.27  OA
ENDBRANCH 7 8
BRANCH 7 13
ATOM     13  CB  PHE C   1      24.281  -0.315  40.474  1.00 20.34 LIG 0.07  C 
BRANCH 13 14
ATOM     14  CG  PHE C   1      24.228  -0.618  38.999  1.00 17.40 LIG-0.06  A 
ATOM     15  CD1 PHE C   1      24.999  -1.627  38.412  1.00 16.88 LIG 0.01  A 
ATOM     16  CE1 PHE C   1      24.930  -1.857  37.020  1.00 14.02 LIG 0.00  A 
ATOM     17  CZ  PHE C   1      24.124  -1.097  36.256  1.00 15.72 LIG 0.00  A 
ATOM     18  CE2 PHE C   1      23.361  -0.102  36.836  1.00 14.79 LIG 0.00  A 
ATOM     19  CD2 PHE C   1      23.413   0.122  38.187  1.00 15.53 LIG 0.01  A 
ENDBRANCH 13 14
ENDBRANCH 7 13
ENDBRANCH 5 7
ENDBRANCH 1 3
BRANCH 1 20
ATOM     20  C   ALA C   2      24.162   2.705  44.614  1.00 17.39 LIG 0.24  C 
ATOM     21  N   THR C   3      24.067   2.730  45.947  1.00 15.98 LIG-0.34  N 
ATOM     22 H    THR C   3      24.738   2.704  46.483  1.00 15.98 LIG 0.16  HD
ATOM     23 O    ALA C   2      23.192   2.726  43.849  1.00 16.73 LIG-0.27  OA
BRANCH 21 24
ATOM     24  CA  THR C   3      22.769   2.803  46.594  1.00 15.15 LIG 0.20  C 
BRANCH 24 25
ATOM     25  C   THR C   3      22.844   3.653  47.850  1.00 14.93 LIG 0.24  C 
ATOM     26  N   ALA C   4      21.676   3.988  48.375  1.00 13.95 LIG-0.35  N 
ATOM     27 H    ALA C   4      20.920   3.790  48.015  1.00 13.95 LIG 0.16  HD
ATOM     28 O    THR C   3      23.927   3.962  48.357  1.00 16.43 LIG-0.27  OA
BRANCH 26 29
ATOM     29  CA  ALA C   4      21.563   4.724  49.611  1.00 14.93 LIG 0.18  C 
ATOM     30  CB  ALA C   4      20.163   5.322  49.697  1.00 15.34 LIG 0.04  C 
BRANCH 29 31
ATOM     31  C   ALA C   4      21.870   3.820  50.810  1.00 16.13 LIG 0.28  C 
ATOM     32 O    ALA C   4      21.624   2.617  50.762  1.00 17.37 LIG-0.27  OA
ATOM     33  N   NH2 C   5      22.400   4.400  51.884  1.00 15.73 LIG-0.11  N 
ENDBRANCH 29 31
ENDBRANCH 26 29
ENDBRANCH 24 25
BRANCH 24 34
ATOM     34  CB  THR C   3      22.227   1.407  46.930  1.00 16.10 LIG 0.15  C 
ATOM     35  CG2 THR C   3      23.098   0.682  47.949  1.00 16.48 LIG 0.04  C 
BRANCH 34 36
ATOM     36 OG1  THR C   3      20.906   1.549  47.468  1.00 16.89 LIG-0.39  OA
ATOM     37 HG1  THR C   3      20.340   1.366  46.875  1.00 16.89 LIG 0.21  HD
ENDBRANCH 34 36
ENDBRANCH 24 34
ENDBRANCH 21 24
ENDBRANCH 1 20
TORSDOF 12
ENDMDL
