MODEL 1
USER: ADFR SOLUTION from run 49
USER: SCORE 16.469237 LL:  -2.347 LR: -14.722 RR:   0.000 FEB:  -9.949
USER: RMSD 1.889498
USER: SEED 48
USER: STATUS no improvement in best in 2 clusters for 5 generations
USER: GENES 18
USER: genes 0 Translation |==|  0.52377 0.55008 0.52425
USER: genes 1 Rotation |==|  0.53503 0.58753 0.58826 0.98303
USER: genes 2 Torsion [C]-N--CA-[CB] |==|  0.52222
USER: genes 3 Torsion [N]-CA--CB-[OG] |==|  0.63292
USER: genes 4 Torsion [CA]-CB--OG-[HG] |==|  0.93346
USER: genes 5 Torsion [N]-CA--C-[N] |==|  0.40305
USER: genes 6 Torsion [C]-N--CA-[CB] |==|  0.43276
USER: genes 7 Torsion [N]-CA--CB-[CG] |==|  0.84307
USER: genes 8 Torsion [CA]-CB--CG-[CD] |==|  0.41593
USER: genes 9 Torsion [CB]-CG--CD-[CE] |==|  0.51653
USER: genes 10 Torsion [CG]-CD--CE-[NZ] |==|  0.29102
USER: genes 11 Torsion [CD]-CE--NZ-[HZ1] |==|  0.38752
USER: genes 12 Torsion [N]-CA--C-[OXT] |==|  0.45736
USER: genes 13 Torsion [N]-C--CA-[N] |==|  0.31088
USER: genes 14 Torsion [C]-CA--CB-[CG] |==|  0.66816
USER: genes 15 Torsion [CA]-CB--CG-[CD1] |==|  0.34315
USER: genes 16 Torsion [C]-CA--N-[C] |==|  0.75499
USER: genes 17 Torsion [N]-C--CA-[N] |==|  0.43896
ROOT
ATOM      1  C   LEU D   2      28.110 -24.593  -3.617  1.00 63.17 LIG 0.24  C 
ATOM      2 O    LEU D   2      26.930 -24.218  -3.617  1.00 65.03 LIG-0.27  OA
ATOM      3  N   SER D   3      28.500 -25.787  -4.060  1.00 44.71 LIG-0.34  N 
ATOM      4 H    SER D   3      29.304 -26.082  -3.992  1.00 44.71 LIG 0.16  HD
ENDROOT
BRANCH 3 5
ATOM      5  CA  SER D   3      27.567 -26.720  -4.718  1.00 47.15 LIG 0.20  C 
BRANCH 5 6
ATOM      6  CB  SER D   3      28.206 -28.093  -4.957  1.00 46.48 LIG 0.20  C 
BRANCH 6 7
ATOM      7 OG   SER D   3      27.978 -28.523  -6.282  1.00 63.57 LIG-0.40  OA
ATOM      8 HG   SER D   3      27.294 -28.142  -6.587  1.00 63.57 LIG 0.21  HD
ENDBRANCH 6 7
ENDBRANCH 5 6
BRANCH 5 9
ATOM      9  C   SER D   3      26.337 -26.893  -3.825  1.00 37.61 LIG 0.24  C 
ATOM     10  N   LYS D   4      25.161 -27.052  -4.442  1.00 35.09 LIG-0.34  N 
ATOM     11 H    LYS D   4      25.054 -26.995  -5.293  1.00 35.09 LIG 0.16  HD
ATOM     12 O    SER D   3      26.466 -26.877  -2.594  1.00 37.14 LIG-0.27  OA
BRANCH 10 13
ATOM     13  CA  LYS D   4      23.939 -27.344  -3.700  1.00 32.57 LIG 0.18  C 
BRANCH 13 14
ATOM     14  CB  LYS D   4      22.685 -26.915  -4.456  1.00 31.41 LIG 0.04  C 
BRANCH 14 15
ATOM     15  CG  LYS D   4      22.816 -25.419  -4.769  1.00 31.93 LIG 0.00  C 
BRANCH 15 16
ATOM     16  CD  LYS D   4      22.120 -24.955  -6.052  1.00 28.01 LIG 0.03  C 
BRANCH 16 17
ATOM     17  CE  LYS D   4      22.485 -23.463  -6.282  1.00 30.04 LIG 0.23  C 
BRANCH 17 18
ATOM     18  NZ  LYS D   4      23.468 -23.323  -7.354  1.00 33.56 LIG-0.08  N 
ATOM     19 HZ3  LYS D   4      23.467 -24.058  -7.856  1.00 33.56 LIG 0.27  HD
ATOM     20 HZ2  LYS D   4      24.277 -23.207  -7.001  1.00 33.56 LIG 0.27  HD
ATOM     21 HZ1  LYS D   4      23.260 -22.620  -7.857  1.00 33.56 LIG 0.27  HD
ENDBRANCH 17 18
ENDBRANCH 16 17
ENDBRANCH 15 16
ENDBRANCH 14 15
ENDBRANCH 13 14
BRANCH 13 22
ATOM     22  C   LYS D   4      23.897 -28.812  -3.332  1.00 36.61 LIG 0.20  C 
ATOM     23 OXT  LYS D   4      23.093 -29.207  -2.462  1.00 35.43 LIG-0.65  OA
ATOM     24 O    LYS D   4      24.691 -29.576  -3.880  1.00 33.95 LIG-0.65  OA
ENDBRANCH 13 22
ENDBRANCH 10 13
ENDBRANCH 5 9
ENDBRANCH 3 5
BRANCH 1 25
ATOM     25  CA  LEU D   2      29.192 -23.675  -3.048  1.00 72.77 LIG 0.18  C 
BRANCH 25 26
ATOM     26  CB  LEU D   2      28.785 -23.217  -1.619  1.00 74.70 LIG 0.04  C 
BRANCH 26 27
ATOM     27  CG  LEU D   2      28.587 -21.698  -1.306  1.00 82.94 LIG-0.02  C 
ATOM     28  CD1 LEU D   2      27.218 -21.332  -0.744  1.00 82.40 LIG 0.01  C 
ATOM     29  CD2 LEU D   2      29.699 -21.159  -0.383  1.00 81.51 LIG 0.01  C 
ENDBRANCH 26 27
ENDBRANCH 25 26
BRANCH 25 30
ATOM     30  N   LEU D   2      29.331 -22.542  -3.979  1.00 75.65 LIG-0.35  N 
ATOM     31 H    LEU D   2      28.826 -21.881  -3.763  1.00 75.65 LIG 0.16  HD
ATOM     32  C   PRO D   1      30.132 -22.493  -5.048  1.00 79.92 LIG 0.25  C 
ATOM     33 O    PRO D   1      29.960 -21.648  -5.934  1.00 91.02 LIG-0.27  OA
BRANCH 32 34
ATOM     34  CA  PRO D   1      31.271 -23.516  -5.205  1.00 80.93 LIG 0.28  C 
ATOM     35  N   PRO D   1      31.718 -23.677  -6.590  1.00 82.79 LIG-0.06  N 
ATOM     36  CD  PRO D   1      33.163 -23.969  -6.664  1.00 86.01 LIG 0.23  C 
ATOM     37 H3   PRO D   1      31.276 -24.313  -6.962  1.00 82.79 LIG 0.28  HD
ATOM     38 H2   PRO D   1      31.547 -22.960  -7.032  1.00 82.79 LIG 0.28  HD
ATOM     39  CG  PRO D   1      33.683 -23.610  -5.288  1.00 80.97 LIG 0.03  C 
ATOM     40  CB  PRO D   1      32.543 -23.043  -4.487  1.00 77.42 LIG 0.04  C 
ENDBRANCH 32 34
ENDBRANCH 25 30
ENDBRANCH 1 25
TORSDOF 16
ENDMDL
MODEL 2
USER: ADFR SOLUTION from run 186
USER: SCORE 15.072299 LL:  -1.759 LR: -14.370 RR:   0.000 FEB:  -9.598
USER: RMSD 3.307429
USER: SEED 185
USER: STATUS no improvement in best in 2 clusters for 5 generations
USER: GENES 18
USER: genes 0 Translation |==|  0.53645 0.48124 0.55665
USER: genes 1 Rotation |==|  0.61439 0.61694 0.60419 0.96085
USER: genes 2 Torsion [C]-N--CA-[CB] |==|  0.56845
USER: genes 3 Torsion [N]-CA--CB-[OG] |==|  0.60098
USER: genes 4 Torsion [CA]-CB--OG-[HG] |==|  0.96122
USER: genes 5 Torsion [N]-CA--C-[N] |==|  0.35325
USER: genes 6 Torsion [C]-N--CA-[CB] |==|  0.50385
USER: genes 7 Torsion [N]-CA--CB-[CG] |==|  0.85859
USER: genes 8 Torsion [CA]-CB--CG-[CD] |==|  0.43727
USER: genes 9 Torsion [CB]-CG--CD-[CE] |==|  0.48767
USER: genes 10 Torsion [CG]-CD--CE-[NZ] |==|  0.30526
USER: genes 11 Torsion [CD]-CE--NZ-[HZ1] |==|  0.03928
USER: genes 12 Torsion [N]-CA--C-[OXT] |==|  0.43615
USER: genes 13 Torsion [N]-C--CA-[N] |==|  0.19797
USER: genes 14 Torsion [C]-CA--CB-[CG] |==|  0.61340
USER: genes 15 Torsion [CA]-CB--CG-[CD1] |==|  0.39594
USER: genes 16 Torsion [C]-CA--N-[C] |==|  0.18306
USER: genes 17 Torsion [N]-C--CA-[N] |==|  0.45870
ROOT
ATOM      1  C   LEU D   2      28.386 -25.781  -3.155  1.00 63.17 LIG 0.24  C 
ATOM      2 O    LEU D   2      27.225 -25.490  -2.837  1.00 65.03 LIG-0.27  OA
ATOM      3  N   SER D   3      28.690 -26.766  -3.998  1.00 44.71 LIG-0.34  N 
ATOM      4 H    SER D   3      29.494 -27.022  -4.163  1.00 44.71 LIG 0.16  HD
ENDROOT
BRANCH 3 5
ATOM      5  CA  SER D   3      27.655 -27.514  -4.734  1.00 47.15 LIG 0.20  C 
BRANCH 5 6
ATOM      6  CB  SER D   3      28.138 -28.913  -5.136  1.00 46.48 LIG 0.20  C 
BRANCH 6 7
ATOM      7 OG   SER D   3      27.627 -29.269  -6.402  1.00 63.57 LIG-0.40  OA
ATOM      8 HG   SER D   3      27.009 -28.741  -6.614  1.00 63.57 LIG 0.21  HD
ENDBRANCH 6 7
ENDBRANCH 5 6
BRANCH 5 9
ATOM      9  C   SER D   3      26.422 -27.651  -3.840  1.00 37.61 LIG 0.24  C 
ATOM     10  N   LYS D   4      25.254 -27.254  -4.356  1.00 35.09 LIG-0.34  N 
ATOM     11 H    LYS D   4      25.174 -26.870  -5.121  1.00 35.09 LIG 0.16  HD
ATOM     12 O    SER D   3      26.542 -28.112  -2.696  1.00 37.14 LIG-0.27  OA
BRANCH 10 13
ATOM     13  CA  LYS D   4      23.995 -27.446  -3.644  1.00 32.57 LIG 0.18  C 
BRANCH 13 14
ATOM     14  CB  LYS D   4      22.795 -26.945  -4.442  1.00 31.41 LIG 0.04  C 
BRANCH 14 15
ATOM     15  CG  LYS D   4      23.101 -25.512  -4.896  1.00 31.93 LIG 0.00  C 
BRANCH 15 16
ATOM     16  CD  LYS D   4      22.312 -25.030  -6.118  1.00 28.01 LIG 0.03  C 
BRANCH 16 17
ATOM     17  CE  LYS D   4      22.666 -23.537  -6.358  1.00 30.04 LIG 0.23  C 
BRANCH 17 18
ATOM     18  NZ  LYS D   4      23.468 -23.377  -7.568  1.00 33.56 LIG-0.08  N 
ATOM     19 HZ3  LYS D   4      24.313 -23.207  -7.345  1.00 33.56 LIG 0.27  HD
ATOM     20 HZ2  LYS D   4      23.147 -22.700  -8.050  1.00 33.56 LIG 0.27  HD
ATOM     21 HZ1  LYS D   4      23.433 -24.125  -8.049  1.00 33.56 LIG 0.27  HD
ENDBRANCH 17 18
ENDBRANCH 16 17
ENDBRANCH 15 16
ENDBRANCH 14 15
ENDBRANCH 13 14
BRANCH 13 22
ATOM     22  C   LYS D   4      23.840 -28.900  -3.253  1.00 36.61 LIG 0.20  C 
ATOM     23 OXT  LYS D   4      23.093 -29.207  -2.301  1.00 35.43 LIG-0.65  OA
ATOM     24 O    LYS D   4      24.493 -29.744  -3.867  1.00 33.95 LIG-0.65  OA
ENDBRANCH 13 22
ENDBRANCH 10 13
ENDBRANCH 5 9
ENDBRANCH 3 5
BRANCH 1 25
ATOM     25  CA  LEU D   2      29.552 -25.012  -2.533  1.00 72.77 LIG 0.18  C 
BRANCH 25 26
ATOM     26  CB  LEU D   2      29.030 -24.149  -1.349  1.00 74.70 LIG 0.04  C 
BRANCH 26 27
ATOM     27  CG  LEU D   2      29.567 -22.696  -1.138  1.00 82.94 LIG-0.02  C 
ATOM     28  CD1 LEU D   2      28.525 -21.691  -0.659  1.00 82.40 LIG 0.01  C 
ATOM     29  CD2 LEU D   2      30.793 -22.673  -0.203  1.00 81.51 LIG 0.01  C 
ENDBRANCH 26 27
ENDBRANCH 25 26
BRANCH 25 30
ATOM     30  N   LEU D   2      30.148 -24.192  -3.601  1.00 75.65 LIG-0.35  N 
ATOM     31 H    LEU D   2      30.948 -24.441  -3.795  1.00 75.65 LIG 0.16  HD
ATOM     32  C   PRO D   1      29.561 -23.169  -4.231  1.00 79.92 LIG 0.25  C 
ATOM     33 O    PRO D   1      30.228 -22.353  -4.878  1.00 91.02 LIG-0.27  OA
BRANCH 32 34
ATOM     34  CA  PRO D   1      28.038 -22.975  -4.131  1.00 80.93 LIG 0.28  C 
ATOM     35  N   PRO D   1      27.593 -21.651  -4.570  1.00 82.79 LIG-0.06  N 
ATOM     36  CD  PRO D   1      26.261 -21.707  -5.203  1.00 86.01 LIG 0.23  C 
ATOM     37 H3   PRO D   1      27.569 -21.118  -3.896  1.00 82.79 LIG 0.28  HD
ATOM     38 H2   PRO D   1      28.163 -21.326  -5.127  1.00 82.79 LIG 0.28  HD
ATOM     39  CG  PRO D   1      26.049 -23.179  -5.487  1.00 80.97 LIG 0.03  C 
ATOM     40  CB  PRO D   1      27.297 -23.920  -5.088  1.00 77.42 LIG 0.04  C 
ENDBRANCH 32 34
ENDBRANCH 25 30
ENDBRANCH 1 25
TORSDOF 16
ENDMDL
MODEL 3
USER: ADFR SOLUTION from run 140
USER: SCORE 16.038004 LL:  -2.771 LR: -13.923 RR:   0.000 FEB:  -9.151
USER: RMSD 3.372447
USER: SEED 139
USER: STATUS no improvement in best in 4 clusters for 5 generations
USER: GENES 18
USER: genes 0 Translation |==|  0.49975 0.55210 0.52039
USER: genes 1 Rotation |==|  0.41963 0.54796 0.63355 0.97266
USER: genes 2 Torsion [C]-N--CA-[CB] |==|  0.53333
USER: genes 3 Torsion [N]-CA--CB-[OG] |==|  0.93401
USER: genes 4 Torsion [CA]-CB--OG-[HG] |==|  0.29238
USER: genes 5 Torsion [N]-CA--C-[N] |==|  0.31300
USER: genes 6 Torsion [C]-N--CA-[CB] |==|  0.45685
USER: genes 7 Torsion [N]-CA--CB-[CG] |==|  0.72989
USER: genes 8 Torsion [CA]-CB--CG-[CD] |==|  0.35935
USER: genes 9 Torsion [CB]-CG--CD-[CE] |==|  0.65163
USER: genes 10 Torsion [CG]-CD--CE-[NZ] |==|  0.33913
USER: genes 11 Torsion [CD]-CE--NZ-[HZ1] |==|  0.42638
USER: genes 12 Torsion [N]-CA--C-[OXT] |==|  0.90267
USER: genes 13 Torsion [N]-C--CA-[N] |==|  0.44605
USER: genes 14 Torsion [C]-CA--CB-[CG] |==|  0.26207
USER: genes 15 Torsion [CA]-CB--CG-[CD1] |==|  0.34452
USER: genes 16 Torsion [C]-CA--N-[C] |==|  0.75312
USER: genes 17 Torsion [N]-C--CA-[N] |==|  0.58647
ROOT
ATOM      1  C   LEU D   2      27.588 -24.558  -3.671  1.00 63.17 LIG 0.24  C 
ATOM      2 O    LEU D   2      26.405 -24.564  -4.038  1.00 65.03 LIG-0.27  OA
ATOM      3  N   SER D   3      28.314 -25.665  -3.520  1.00 44.71 LIG-0.34  N 
ATOM      4 H    SER D   3      29.109 -25.673  -3.193  1.00 44.71 LIG 0.16  HD
ENDROOT
BRANCH 3 5
ATOM      5  CA  SER D   3      27.806 -26.993  -3.908  1.00 47.15 LIG 0.20  C 
BRANCH 5 6
ATOM      6  CB  SER D   3      28.693 -28.123  -3.371  1.00 46.48 LIG 0.20  C 
BRANCH 6 7
ATOM      7 OG   SER D   3      30.001 -27.655  -3.129  1.00 63.57 LIG-0.40  OA
ATOM      8 HG   SER D   3      30.120 -27.568  -2.301  1.00 63.57 LIG 0.21  HD
ENDBRANCH 6 7
ENDBRANCH 5 6
BRANCH 5 9
ATOM      9  C   SER D   3      26.393 -27.160  -3.346  1.00 37.61 LIG 0.24  C 
ATOM     10  N   LYS D   4      25.394 -27.217  -4.233  1.00 35.09 LIG-0.34  N 
ATOM     11 H    LYS D   4      25.495 -27.098  -5.078  1.00 35.09 LIG 0.16  HD
ATOM     12 O    SER D   3      26.225 -27.233  -2.121  1.00 37.14 LIG-0.27  OA
BRANCH 10 13
ATOM     13  CA  LYS D   4      24.020 -27.493  -3.824  1.00 32.57 LIG 0.18  C 
BRANCH 13 14
ATOM     14  CB  LYS D   4      23.010 -27.141  -4.912  1.00 31.41 LIG 0.04  C 
BRANCH 14 15
ATOM     15  CG  LYS D   4      22.452 -25.746  -4.601  1.00 31.93 LIG 0.00  C 
BRANCH 15 16
ATOM     16  CD  LYS D   4      22.488 -24.752  -5.765  1.00 28.01 LIG 0.03  C 
BRANCH 16 17
ATOM     17  CE  LYS D   4      23.242 -23.481  -5.287  1.00 30.04 LIG 0.23  C 
BRANCH 17 18
ATOM     18  NZ  LYS D   4      24.398 -23.207  -6.137  1.00 33.56 LIG-0.08  N 
ATOM     19 HZ3  LYS D   4      24.218 -23.453  -6.973  1.00 33.56 LIG 0.27  HD
ATOM     20 HZ2  LYS D   4      25.102 -23.664  -5.839  1.00 33.56 LIG 0.27  HD
ATOM     21 HZ1  LYS D   4      24.581 -22.337  -6.117  1.00 33.56 LIG 0.27  HD
ENDBRANCH 17 18
ENDBRANCH 16 17
ENDBRANCH 15 16
ENDBRANCH 14 15
ENDBRANCH 13 14
BRANCH 13 22
ATOM     22  C   LYS D   4      23.892 -28.936  -3.386  1.00 36.61 LIG 0.20  C 
ATOM     23 OXT  LYS D   4      24.562 -29.818  -3.963  1.00 35.43 LIG-0.65  OA
ATOM     24 O    LYS D   4      23.093 -29.207  -2.490  1.00 33.95 LIG-0.65  OA
ENDBRANCH 13 22
ENDBRANCH 10 13
ENDBRANCH 5 9
ENDBRANCH 3 5
BRANCH 1 25
ATOM     25  CA  LEU D   2      28.264 -23.231  -3.331  1.00 72.77 LIG 0.18  C 
BRANCH 25 26
ATOM     26  CB  LEU D   2      28.303 -23.051  -1.787  1.00 74.70 LIG 0.04  C 
BRANCH 26 27
ATOM     27  CG  LEU D   2      29.566 -23.490  -0.974  1.00 82.94 LIG-0.02  C 
ATOM     28  CD1 LEU D   2      30.191 -22.393  -0.119  1.00 82.40 LIG 0.01  C 
ATOM     29  CD2 LEU D   2      29.281 -24.736  -0.112  1.00 81.51 LIG 0.01  C 
ENDBRANCH 26 27
ENDBRANCH 25 26
BRANCH 25 30
ATOM     30  N   LEU D   2      27.492 -22.168  -3.997  1.00 75.65 LIG-0.35  N 
ATOM     31 H    LEU D   2      26.871 -21.853  -3.492  1.00 75.65 LIG 0.16  HD
ATOM     32  C   PRO D   1      27.690 -21.707  -5.235  1.00 79.92 LIG 0.25  C 
ATOM     33 O    PRO D   1      26.819 -21.050  -5.817  1.00 91.02 LIG-0.27  OA
BRANCH 32 34
ATOM     34  CA  PRO D   1      29.006 -22.017  -5.971  1.00 80.93 LIG 0.28  C 
ATOM     35  N   PRO D   1      29.412 -20.962  -6.901  1.00 82.79 LIG-0.06  N 
ATOM     36  CD  PRO D   1      30.881 -20.844  -6.983  1.00 86.01 LIG 0.23  C 
ATOM     37 H3   PRO D   1      29.093 -21.129  -7.682  1.00 82.79 LIG 0.28  HD
ATOM     38 H2   PRO D   1      29.076 -20.212  -6.648  1.00 82.79 LIG 0.28  HD
ATOM     39  CG  PRO D   1      31.379 -21.614  -5.777  1.00 80.97 LIG 0.03  C 
ATOM     40  CB  PRO D   1      30.185 -22.082  -4.990  1.00 77.42 LIG 0.04  C 
ENDBRANCH 32 34
ENDBRANCH 25 30
ENDBRANCH 1 25
TORSDOF 16
ENDMDL
MODEL 4
USER: ADFR SOLUTION from run 177
USER: SCORE 15.136885 LL:  -2.521 LR: -13.729 RR:   0.000 FEB:  -8.956
USER: RMSD 3.473187
USER: SEED 176
USER: STATUS no improvement in best in 3 clusters for 5 generations
USER: GENES 18
USER: genes 0 Translation |==|  0.53253 0.53770 0.56276
USER: genes 1 Rotation |==|  0.54588 0.53413 0.55509 0.99366
USER: genes 2 Torsion [C]-N--CA-[CB] |==|  0.50327
USER: genes 3 Torsion [N]-CA--CB-[OG] |==|  0.50808
USER: genes 4 Torsion [CA]-CB--OG-[HG] |==|  0.12491
USER: genes 5 Torsion [N]-CA--C-[N] |==|  0.44457
USER: genes 6 Torsion [C]-N--CA-[CB] |==|  0.43409
USER: genes 7 Torsion [N]-CA--CB-[CG] |==|  0.75140
USER: genes 8 Torsion [CA]-CB--CG-[CD] |==|  0.17882
USER: genes 9 Torsion [CB]-CG--CD-[CE] |==|  0.35487
USER: genes 10 Torsion [CG]-CD--CE-[NZ] |==|  0.59556
USER: genes 11 Torsion [CD]-CE--NZ-[HZ1] |==|  0.58783
USER: genes 12 Torsion [N]-CA--C-[OXT] |==|  0.42658
USER: genes 13 Torsion [N]-C--CA-[N] |==|  0.53710
USER: genes 14 Torsion [C]-CA--CB-[CG] |==|  0.80737
USER: genes 15 Torsion [CA]-CB--CG-[CD1] |==|  0.42210
USER: genes 16 Torsion [C]-CA--N-[C] |==|  0.53889
USER: genes 17 Torsion [N]-C--CA-[N] |==|  0.31296
ROOT
ATOM      1  C   LEU D   2      28.300 -24.807  -3.068  1.00 63.17 LIG 0.24  C 
ATOM      2 O    LEU D   2      27.215 -24.245  -3.267  1.00 65.03 LIG-0.27  OA
ATOM      3  N   SER D   3      28.585 -26.031  -3.510  1.00 44.71 LIG-0.34  N 
ATOM      4 H    SER D   3      29.306 -26.455  -3.310  1.00 44.71 LIG 0.16  HD
ENDROOT
BRANCH 3 5
ATOM      5  CA  SER D   3      27.672 -26.775  -4.396  1.00 47.15 LIG 0.20  C 
BRANCH 5 6
ATOM      6  CB  SER D   3      28.215 -28.167  -4.737  1.00 46.48 LIG 0.20  C 
BRANCH 6 7
ATOM      7 OG   SER D   3      27.354 -28.829  -5.638  1.00 63.57 LIG-0.40  OA
ATOM      8 HG   SER D   3      27.127 -28.299  -6.250  1.00 63.57 LIG 0.21  HD
ENDBRANCH 6 7
ENDBRANCH 5 6
BRANCH 5 9
ATOM      9  C   SER D   3      26.322 -26.926  -3.692  1.00 37.61 LIG 0.24  C 
ATOM     10  N   LYS D   4      25.265 -27.196  -4.465  1.00 35.09 LIG-0.34  N 
ATOM     11 H    LYS D   4      25.292 -27.218  -5.324  1.00 35.09 LIG 0.16  HD
ATOM     12 O    SER D   3      26.254 -26.797  -2.462  1.00 37.14 LIG-0.27  OA
BRANCH 10 13
ATOM     13  CA  LYS D   4      23.951 -27.478  -3.896  1.00 32.57 LIG 0.18  C 
BRANCH 13 14
ATOM     14  CB  LYS D   4      22.820 -27.189  -4.878  1.00 31.41 LIG 0.04  C 
BRANCH 14 15
ATOM     15  CG  LYS D   4      22.401 -25.725  -4.691  1.00 31.93 LIG 0.00  C 
BRANCH 15 16
ATOM     16  CD  LYS D   4      23.471 -24.688  -5.043  1.00 28.01 LIG 0.03  C 
BRANCH 16 17
ATOM     17  CE  LYS D   4      22.844 -23.669  -6.034  1.00 30.04 LIG 0.23  C 
BRANCH 17 18
ATOM     18  NZ  LYS D   4      23.834 -23.200  -7.000  1.00 33.56 LIG-0.08  N 
ATOM     19 HZ3  LYS D   4      23.814 -23.719  -7.723  1.00 33.56 LIG 0.27  HD
ATOM     20 HZ2  LYS D   4      24.645 -23.232  -6.635  1.00 33.56 LIG 0.27  HD
ATOM     21 HZ1  LYS D   4      23.647 -22.362  -7.233  1.00 33.56 LIG 0.27  HD
ENDBRANCH 17 18
ENDBRANCH 16 17
ENDBRANCH 15 16
ENDBRANCH 14 15
ENDBRANCH 13 14
BRANCH 13 22
ATOM     22  C   LYS D   4      23.904 -28.905  -3.392  1.00 36.61 LIG 0.20  C 
ATOM     23 OXT  LYS D   4      23.120 -29.207  -2.468  1.00 35.43 LIG-0.65  OA
ATOM     24 O    LYS D   4      24.675 -29.726  -3.885  1.00 33.95 LIG-0.65  OA
ENDBRANCH 13 22
ENDBRANCH 10 13
ENDBRANCH 5 9
ENDBRANCH 3 5
BRANCH 1 25
ATOM     25  CA  LEU D   2      29.374 -24.098  -2.242  1.00 72.77 LIG 0.18  C 
BRANCH 25 26
ATOM     26  CB  LEU D   2      29.965 -25.091  -1.200  1.00 74.70 LIG 0.04  C 
BRANCH 26 27
ATOM     27  CG  LEU D   2      29.094 -25.579   0.003  1.00 82.94 LIG-0.02  C 
ATOM     28  CD1 LEU D   2      29.458 -26.960   0.539  1.00 82.40 LIG 0.01  C 
ATOM     29  CD2 LEU D   2      29.087 -24.552   1.153  1.00 81.51 LIG 0.01  C 
ENDBRANCH 26 27
ENDBRANCH 25 26
BRANCH 25 30
ATOM     30  N   LEU D   2      28.733 -22.936  -1.604  1.00 75.65 LIG-0.35  N 
ATOM     31 H    LEU D   2      27.875 -22.976  -1.644  1.00 75.65 LIG 0.16  HD
ATOM     32  C   PRO D   1      29.361 -21.913  -1.016  1.00 79.92 LIG 0.25  C 
ATOM     33 O    PRO D   1      28.771 -20.850  -0.790  1.00 91.02 LIG-0.27  OA
BRANCH 32 34
ATOM     34  CA  PRO D   1      30.847 -22.036  -0.639  1.00 80.93 LIG 0.28  C 
ATOM     35  N   PRO D   1      31.718 -21.156  -1.421  1.00 82.79 LIG-0.06  N 
ATOM     36  CD  PRO D   1      32.871 -20.687  -0.627  1.00 86.01 LIG 0.23  C 
ATOM     37 H3   PRO D   1      32.000 -21.575  -2.117  1.00 82.79 LIG 0.28  HD
ATOM     38 H2   PRO D   1      31.267 -20.480  -1.700  1.00 82.79 LIG 0.28  HD
ATOM     39  CG  PRO D   1      32.487 -21.003   0.803  1.00 80.97 LIG 0.03  C 
ATOM     40  CB  PRO D   1      31.092 -21.567   0.803  1.00 77.42 LIG 0.04  C 
ENDBRANCH 32 34
ENDBRANCH 25 30
ENDBRANCH 1 25
TORSDOF 16
ENDMDL
MODEL 5
USER: ADFR SOLUTION from run 58
USER: SCORE 15.247624 LL:  -2.084 LR: -13.649 RR:   0.000 FEB:  -8.876
USER: RMSD 3.244926
USER: SEED 57
USER: STATUS no improvement in best in 3 clusters for 5 generations
USER: GENES 18
USER: genes 0 Translation |==|  0.53389 0.46821 0.53901
USER: genes 1 Rotation |==|  0.60627 0.59317 0.56983 0.97450
USER: genes 2 Torsion [C]-N--CA-[CB] |==|  0.53920
USER: genes 3 Torsion [N]-CA--CB-[OG] |==|  0.51913
USER: genes 4 Torsion [CA]-CB--OG-[HG] |==|  0.08146
USER: genes 5 Torsion [N]-CA--C-[N] |==|  0.36294
USER: genes 6 Torsion [C]-N--CA-[CB] |==|  0.52499
USER: genes 7 Torsion [N]-CA--CB-[CG] |==|  0.72363
USER: genes 8 Torsion [CA]-CB--CG-[CD] |==|  0.21732
USER: genes 9 Torsion [CB]-CG--CD-[CE] |==|  0.31253
USER: genes 10 Torsion [CG]-CD--CE-[NZ] |==|  0.33602
USER: genes 11 Torsion [CD]-CE--NZ-[HZ1] |==|  0.98197
USER: genes 12 Torsion [N]-CA--C-[OXT] |==|  0.90670
USER: genes 13 Torsion [N]-C--CA-[N] |==|  0.44639
USER: genes 14 Torsion [C]-CA--CB-[CG] |==|  0.81596
USER: genes 15 Torsion [CA]-CB--CG-[CD1] |==|  0.43526
USER: genes 16 Torsion [C]-CA--N-[C] |==|  0.79112
USER: genes 17 Torsion [N]-C--CA-[N] |==|  0.44200
ROOT
ATOM      1  C   LEU D   2      28.330 -26.005  -3.406  1.00 63.17 LIG 0.24  C 
ATOM      2 O    LEU D   2      27.208 -25.525  -3.196  1.00 65.03 LIG-0.27  OA
ATOM      3  N   SER D   3      28.539 -27.074  -4.174  1.00 44.71 LIG-0.34  N 
ATOM      4 H    SER D   3      29.304 -27.457  -4.261  1.00 44.71 LIG 0.16  HD
ENDROOT
BRANCH 3 5
ATOM      5  CA  SER D   3      27.456 -27.702  -4.952  1.00 47.15 LIG 0.20  C 
BRANCH 5 6
ATOM      6  CB  SER D   3      27.854 -29.091  -5.467  1.00 46.48 LIG 0.20  C 
BRANCH 6 7
ATOM      7 OG   SER D   3      26.865 -29.600  -6.336  1.00 63.57 LIG-0.40  OA
ATOM      8 HG   SER D   3      26.477 -28.963  -6.723  1.00 63.57 LIG 0.21  HD
ENDBRANCH 6 7
ENDBRANCH 5 6
BRANCH 5 9
ATOM      9  C   SER D   3      26.224 -27.838  -4.056  1.00 37.61 LIG 0.24  C 
ATOM     10  N   LYS D   4      25.064 -27.399  -4.555  1.00 35.09 LIG-0.34  N 
ATOM     11 H    LYS D   4      24.988 -26.992  -5.308  1.00 35.09 LIG 0.16  HD
ATOM     12 O    SER D   3      26.339 -28.333  -2.927  1.00 37.14 LIG-0.27  OA
BRANCH 10 13
ATOM     13  CA  LYS D   4      23.803 -27.584  -3.842  1.00 32.57 LIG 0.18  C 
BRANCH 13 14
ATOM     14  CB  LYS D   4      22.595 -27.205  -4.693  1.00 31.41 LIG 0.04  C 
BRANCH 14 15
ATOM     15  CG  LYS D   4      22.157 -25.793  -4.283  1.00 31.93 LIG 0.00  C 
BRANCH 15 16
ATOM     16  CD  LYS D   4      23.004 -24.653  -4.854  1.00 28.01 LIG 0.03  C 
BRANCH 16 17
ATOM     17  CE  LYS D   4      22.123 -23.857  -5.855  1.00 30.04 LIG 0.23  C 
BRANCH 17 18
ATOM     18  NZ  LYS D   4      22.007 -22.457  -5.454  1.00 33.56 LIG-0.08  N 
ATOM     19 HZ3  LYS D   4      21.147 -22.231  -5.406  1.00 33.56 LIG 0.27  HD
ATOM     20 HZ2  LYS D   4      22.415 -21.941  -6.053  1.00 33.56 LIG 0.27  HD
ATOM     21 HZ1  LYS D   4      22.387 -22.344  -4.658  1.00 33.56 LIG 0.27  HD
ENDBRANCH 17 18
ENDBRANCH 16 17
ENDBRANCH 15 16
ENDBRANCH 14 15
ENDBRANCH 13 14
BRANCH 13 22
ATOM     22  C   LYS D   4      23.704 -29.004  -3.329  1.00 36.61 LIG 0.20  C 
ATOM     23 OXT  LYS D   4      24.207 -29.936  -3.991  1.00 35.43 LIG-0.65  OA
ATOM     24 O    LYS D   4      23.089 -29.207  -2.283  1.00 33.95 LIG-0.65  OA
ENDBRANCH 13 22
ENDBRANCH 10 13
ENDBRANCH 5 9
ENDBRANCH 3 5
BRANCH 1 25
ATOM     25  CA  LEU D   2      29.553 -25.384  -2.732  1.00 72.77 LIG 0.18  C 
BRANCH 25 26
ATOM     26  CB  LEU D   2      29.963 -26.247  -1.505  1.00 74.70 LIG 0.04  C 
BRANCH 26 27
ATOM     27  CG  LEU D   2      29.017 -26.350  -0.264  1.00 82.94 LIG-0.02  C 
ATOM     28  CD1 LEU D   2      29.218 -27.594   0.594  1.00 82.40 LIG 0.01  C 
ATOM     29  CD2 LEU D   2      29.093 -25.085   0.614  1.00 81.51 LIG 0.01  C 
ENDBRANCH 26 27
ENDBRANCH 25 26
BRANCH 25 30
ATOM     30  N   LEU D   2      29.185 -24.010  -2.350  1.00 75.65 LIG-0.35  N 
ATOM     31 H    LEU D   2      29.044 -23.935  -1.505  1.00 75.65 LIG 0.16  HD
ATOM     32  C   PRO D   1      29.070 -22.965  -3.175  1.00 79.92 LIG 0.25  C 
ATOM     33 O    PRO D   1      28.464 -21.944  -2.829  1.00 91.02 LIG-0.27  OA
BRANCH 32 34
ATOM     34  CA  PRO D   1      29.668 -23.033  -4.591  1.00 80.93 LIG 0.28  C 
ATOM     35  N   PRO D   1      29.072 -22.069  -5.518  1.00 82.79 LIG-0.06  N 
ATOM     36  CD  PRO D   1      30.056 -21.586  -6.507  1.00 86.01 LIG 0.23  C 
ATOM     37 H3   PRO D   1      28.410 -22.435  -5.927  1.00 82.79 LIG 0.28  HD
ATOM     38 H2   PRO D   1      28.758 -21.402  -5.076  1.00 82.79 LIG 0.28  HD
ATOM     39  CG  PRO D   1      31.394 -21.999  -5.928  1.00 80.97 LIG 0.03  C 
ATOM     40  CB  PRO D   1      31.150 -22.632  -4.585  1.00 77.42 LIG 0.04  C 
ENDBRANCH 32 34
ENDBRANCH 25 30
ENDBRANCH 1 25
TORSDOF 16
ENDMDL
