MODEL 1
USER: ADFR SOLUTION from run 192
USER: SCORE 17.158674 LL:  -4.804 LR: -12.791 RR:   0.000 FEB:  -7.123
USER: RMSD 2.213114
USER: SEED 191
USER: STATUS no improvement in best in 8 clusters for 5 generations
USER: GENES 21
USER: genes 0 Translation |==|  0.59145 0.66247 0.56139
USER: genes 1 Rotation |==|  0.52136 0.51066 0.52644 0.99873
USER: genes 2 Torsion [C]-CA--N-[C] |==|  0.86645
USER: genes 3 Torsion [N]-C--CA-[N] |==|  0.03674
USER: genes 4 Torsion [C]-CA--N-[C] |==|  0.77706
USER: genes 5 Torsion [N]-C--CA-[N] |==|  0.91986
USER: genes 6 Torsion [C]-CA--CB-[CG] |==|  0.17787
USER: genes 7 Torsion [CA]-CB--CG-[CD1] |==|  0.23501
USER: genes 8 Torsion [C]-CA--N-[C] |==|  0.77537
USER: genes 9 Torsion [N]-C--CA-[N] |==|  0.30082
USER: genes 10 Torsion [N]-CA--C-[N] |==|  0.89136
USER: genes 11 Torsion [C]-N--CA-[C] |==|  0.67793
USER: genes 12 Torsion [N]-CA--C-[N] |==|  0.02996
USER: genes 13 Torsion [C]-N--CA-[C] |==|  0.80983
USER: genes 14 Torsion [N]-CA--C-[O] |==|  0.15868
USER: genes 15 Torsion [N]-CA--CB-[CG] |==|  0.64909
USER: genes 16 Torsion [CA]-CB--CG-[OD1] |==|  0.26223
USER: genes 17 Torsion [N]-CA--CB-[CG] |==|  0.05636
USER: genes 18 Torsion [CA]-CB--CG-[CD2] |==|  0.15338
USER: genes 19 Torsion [N]-CA--CB-[CG] |==|  0.18085
USER: genes 20 Torsion [CA]-CB--CG-[CD2] |==|  0.81287
ROOT
ATOM      1  CA  LEU C   5     -13.170  11.488  23.878  1.00 25.10 LIG 0.18  C 
ENDROOT
BRANCH 1 2
ATOM      2  N   LEU C   5     -14.183  10.402  24.191  1.00 25.35 LIG-0.35  N 
ATOM      3  C   GLY C   4     -15.405  10.410  23.585  1.00 24.95 LIG 0.24  C 
ATOM      4 O    GLY C   4     -15.709  11.313  22.796  1.00 25.89 LIG-0.27  OA
ATOM      5 H    LEU C   5     -13.922   9.812  24.760  1.00 25.35 LIG 0.16  HD
BRANCH 3 6
ATOM      6  CA  GLY C   4     -16.380   9.318  23.861  1.00 25.42 LIG 0.23  C 
BRANCH 6 7
ATOM      7  N   GLY C   4     -16.112   8.433  24.993  1.00 25.00 LIG-0.35  N 
ATOM      8  C   PHE C   3     -15.237   7.398  24.929  1.00 25.70 LIG 0.24  C 
ATOM      9 O    PHE C   3     -14.558   7.153  23.914  1.00 20.17 LIG-0.27  OA
ATOM     10 H    GLY C   4     -16.558   8.629  25.701  1.00 25.00 LIG 0.16  HD
BRANCH 8 11
ATOM     11  CA  PHE C   3     -14.998   6.628  26.227  1.00 26.56 LIG 0.18  C 
BRANCH 11 12
ATOM     12  CB  PHE C   3     -15.968   5.465  26.284  1.00 27.24 LIG 0.07  C 
BRANCH 12 13
ATOM     13  CG  PHE C   3     -15.761   4.474  25.222  1.00 26.12 LIG-0.06  A 
ATOM     14  CD1 PHE C   3     -14.816   3.476  25.398  1.00 28.42 LIG 0.01  A 
ATOM     15  CE1 PHE C   3     -14.613   2.491  24.422  1.00 27.55 LIG 0.00  A 
ATOM     16  CZ  PHE C   3     -15.310   2.578  23.173  1.00 28.40 LIG 0.00  A 
ATOM     17  CE2 PHE C   3     -16.272   3.588  22.989  1.00 22.84 LIG 0.00  A 
ATOM     18  CD2 PHE C   3     -16.459   4.566  23.996  1.00 25.80 LIG 0.01  A 
ENDBRANCH 12 13
ENDBRANCH 11 12
BRANCH 11 19
ATOM     19  N   PHE C   3     -15.193   7.504  27.391  1.00 29.45 LIG-0.35  N 
ATOM     20 H    PHE C   3     -15.958   7.433  27.778  1.00 29.45 LIG 0.16  HD
ATOM     21  C   GLY C   2     -14.221   8.330  27.778  1.00 31.80 LIG 0.25  C 
ATOM     22 O    GLY C   2     -13.178   8.517  27.098  1.00 33.21 LIG-0.27  OA
BRANCH 21 23
ATOM     23  CA  GLY C   2     -14.496   9.128  29.052  1.00 32.25 LIG 0.47  C 
ATOM     24  N   GLY C   2     -13.678   8.657  30.216  1.00 32.96 LIG 0.61  N 
ENDBRANCH 21 23
ENDBRANCH 11 19
ENDBRANCH 8 11
ENDBRANCH 6 7
ENDBRANCH 3 6
ENDBRANCH 1 2
BRANCH 1 25
ATOM     25  C   LEU C   5     -12.947  11.782  22.388  1.00 23.49 LIG 0.24  C 
ATOM     26  N   PHE C   6     -12.932  10.738  21.556  1.00 22.96 LIG-0.35  N 
ATOM     27 H    PHE C   6     -13.074   9.924  21.795  1.00 22.96 LIG 0.16  HD
ATOM     28 O    LEU C   5     -12.904  12.968  21.988  1.00 25.98 LIG-0.27  OA
BRANCH 26 29
ATOM     29  CA  PHE C   6     -12.659  10.920  20.108  1.00 22.19 LIG 0.18  C 
BRANCH 29 30
ATOM     30  C   PHE C   6     -13.801  10.560  19.162  1.00 17.26 LIG 0.24  C 
ATOM     31 O    PHE C   6     -13.662  10.500  17.977  1.00 22.18 LIG-0.27  OA
ATOM     32  N   ASP C   7     -14.989  10.336  19.735  1.00 22.18 LIG-0.35  N 
ATOM     33 H    ASP C   7     -15.129  10.370  20.584  1.00 22.18 LIG 0.16  HD
BRANCH 32 34
ATOM     34  CA  ASP C   7     -16.177  10.008  18.933  1.00 22.70 LIG 0.17  C 
BRANCH 34 35
ATOM     35  C   ASP C   7     -16.680  11.143  18.082  1.00 27.36 LIG 0.22  C 
ATOM     36 O    ASP C   7     -15.941  11.704  17.237  1.00 28.20 LIG-0.29  OA
ENDBRANCH 34 35
BRANCH 34 37
ATOM     37  CB  ASP C   7     -17.314   9.578  19.870  1.00 23.18 LIG 0.15  C 
BRANCH 37 38
ATOM     38  CG  ASP C   7     -17.907   8.233  19.515  1.00 26.80 LIG 0.17  C 
ATOM     39 OD2  ASP C   7     -18.857   8.220  18.671  1.00 27.82 LIG-0.65  OA
ATOM     40 OD1  ASP C   7     -17.441   7.206  20.121  1.00 32.15 LIG-0.65  OA
ENDBRANCH 37 38
ENDBRANCH 34 37
ENDBRANCH 32 34
ENDBRANCH 29 30
BRANCH 29 41
ATOM     41  CB  PHE C   6     -11.335  10.237  19.685  1.00 21.19 LIG 0.07  C 
BRANCH 41 42
ATOM     42  CG  PHE C   6     -10.884   9.183  20.632  1.00 25.43 LIG-0.06  A 
ATOM     43  CD2 PHE C   6     -11.712   8.108  20.989  1.00 26.31 LIG 0.01  A 
ATOM     44  CE2 PHE C   6     -11.225   7.108  21.828  1.00 29.51 LIG 0.00  A 
ATOM     45  CZ  PHE C   6      -9.949   7.204  22.398  1.00 25.82 LIG 0.00  A 
ATOM     46  CE1 PHE C   6      -9.148   8.267  22.078  1.00 26.71 LIG 0.00  A 
ATOM     47  CD1 PHE C   6      -9.630   9.274  21.204  1.00 21.41 LIG 0.01  A 
ENDBRANCH 41 42
ENDBRANCH 29 41
ENDBRANCH 26 29
ENDBRANCH 1 25
BRANCH 1 48
ATOM     48  CB  LEU C   5     -11.759  11.360  24.566  1.00 26.63 LIG 0.04  C 
BRANCH 48 49
ATOM     49  CG  LEU C   5     -10.910  10.193  24.183  1.00 31.82 LIG-0.02  C 
ATOM     50  CD2 LEU C   5     -11.635   8.909  24.729  1.00 33.90 LIG 0.01  C 
ATOM     51  CD1 LEU C   5      -9.472  10.311  24.705  1.00 30.04 LIG 0.01  C 
ENDBRANCH 48 49
ENDBRANCH 1 48
TORSDOF 19
ENDMDL
MODEL 2
USER: ADFR SOLUTION from run 17
USER: SCORE 15.856435 LL:  -4.271 LR: -12.748 RR:   0.000 FEB:  -7.080
USER: RMSD 2.890076
USER: SEED 16
USER: STATUS searching
USER: GENES 21
USER: genes 0 Translation |==|  0.60110 0.64932 0.54548
USER: genes 1 Rotation |==|  0.54902 0.57993 0.47999 0.99072
USER: genes 2 Torsion [C]-CA--N-[C] |==|  0.19459
USER: genes 3 Torsion [N]-C--CA-[N] |==|  0.47546
USER: genes 4 Torsion [C]-CA--N-[C] |==|  0.41598
USER: genes 5 Torsion [N]-C--CA-[N] |==|  0.46494
USER: genes 6 Torsion [C]-CA--CB-[CG] |==|  0.43996
USER: genes 7 Torsion [CA]-CB--CG-[CD1] |==|  0.04842
USER: genes 8 Torsion [C]-CA--N-[C] |==|  0.73766
USER: genes 9 Torsion [N]-C--CA-[N] |==|  0.81728
USER: genes 10 Torsion [N]-CA--C-[N] |==|  0.83582
USER: genes 11 Torsion [C]-N--CA-[C] |==|  0.72822
USER: genes 12 Torsion [N]-CA--C-[N] |==|  0.97173
USER: genes 13 Torsion [C]-N--CA-[C] |==|  0.79908
USER: genes 14 Torsion [N]-CA--C-[O] |==|  0.79918
USER: genes 15 Torsion [N]-CA--CB-[CG] |==|  0.72932
USER: genes 16 Torsion [CA]-CB--CG-[OD1] |==|  0.79757
USER: genes 17 Torsion [N]-CA--CB-[CG] |==|  0.98284
USER: genes 18 Torsion [CA]-CB--CG-[CD2] |==|  0.23413
USER: genes 19 Torsion [N]-CA--CB-[CG] |==|  0.87863
USER: genes 20 Torsion [CA]-CB--CG-[CD2] |==|  0.57130
ROOT
ATOM      1  CA  LEU C   5     -12.996  11.202  23.592  1.00 25.10 LIG 0.18  C 
ENDROOT
BRANCH 1 2
ATOM      2  N   LEU C   5     -14.065  10.261  24.116  1.00 25.35 LIG-0.35  N 
ATOM      3  C   GLY C   4     -14.117   8.970  23.678  1.00 24.95 LIG 0.24  C 
ATOM      4 O    GLY C   4     -13.313   8.561  22.832  1.00 25.89 LIG-0.27  OA
ATOM      5 H    LEU C   5     -14.606  10.606  24.689  1.00 25.35 LIG 0.16  HD
BRANCH 3 6
ATOM      6  CA  GLY C   4     -15.139   8.037  24.228  1.00 25.42 LIG 0.23  C 
BRANCH 6 7
ATOM      7  N   GLY C   4     -15.284   6.729  23.590  1.00 25.00 LIG-0.35  N 
ATOM      8  C   PHE C   3     -15.677   5.619  24.263  1.00 25.70 LIG 0.24  C 
ATOM      9 O    PHE C   3     -15.993   5.639  25.468  1.00 20.17 LIG-0.27  OA
ATOM     10 H    GLY C   4     -15.098   6.730  22.750  1.00 25.00 LIG 0.16  HD
BRANCH 8 11
ATOM     11  CA  PHE C   3     -15.872   4.352  23.431  1.00 26.56 LIG 0.18  C 
BRANCH 11 12
ATOM     12  CB  PHE C   3     -17.123   4.515  22.591  1.00 27.24 LIG 0.07  C 
BRANCH 12 13
ATOM     13  CG  PHE C   3     -17.160   3.637  21.415  1.00 26.12 LIG-0.06  A 
ATOM     14  CD1 PHE C   3     -16.316   2.539  21.359  1.00 28.42 LIG 0.01  A 
ATOM     15  CE1 PHE C   3     -16.346   1.658  20.270  1.00 27.55 LIG 0.00  A 
ATOM     16  CZ  PHE C   3     -17.179   1.954  19.142  1.00 28.40 LIG 0.00  A 
ATOM     17  CE2 PHE C   3     -18.039   3.067  19.194  1.00 22.84 LIG 0.00  A 
ATOM     18  CD2 PHE C   3     -17.991   3.936  20.311  1.00 25.80 LIG 0.01  A 
ENDBRANCH 12 13
ENDBRANCH 11 12
BRANCH 11 19
ATOM     19  N   PHE C   3     -16.000   3.176  24.302  1.00 29.45 LIG-0.35  N 
ATOM     20 H    PHE C   3     -16.795   3.021  24.592  1.00 29.45 LIG 0.16  HD
ATOM     21  C   GLY C   2     -14.929   2.436  24.590  1.00 31.80 LIG 0.25  C 
ATOM     22 O    GLY C   2     -13.760   2.782  24.274  1.00 33.21 LIG-0.27  OA
BRANCH 21 23
ATOM     23  CA  GLY C   2     -15.191   1.187  25.430  1.00 32.25 LIG 0.47  C 
ATOM     24  N   GLY C   2     -15.664   1.512  26.815  1.00 32.96 LIG 0.61  N 
ENDBRANCH 21 23
ENDBRANCH 11 19
ENDBRANCH 8 11
ENDBRANCH 6 7
ENDBRANCH 3 6
ENDBRANCH 1 2
BRANCH 1 25
ATOM     25  C   LEU C   5     -13.146  11.629  22.125  1.00 23.49 LIG 0.24  C 
ATOM     26  N   PHE C   6     -13.149  10.662  21.205  1.00 22.96 LIG-0.35  N 
ATOM     27 H    PHE C   6     -13.110   9.821  21.384  1.00 22.96 LIG 0.16  HD
ATOM     28 O    LEU C   5     -13.373  12.829  21.847  1.00 25.98 LIG-0.27  OA
BRANCH 26 29
ATOM     29  CA  PHE C   6     -13.225  10.985  19.758  1.00 22.19 LIG 0.18  C 
BRANCH 29 30
ATOM     30  C   PHE C   6     -14.611  10.897  19.125  1.00 17.26 LIG 0.24  C 
ATOM     31 O    PHE C   6     -14.848  11.316  18.031  1.00 22.18 LIG-0.27  OA
ATOM     32  N   ASP C   7     -15.565  10.339  19.878  1.00 22.18 LIG-0.35  N 
ATOM     33 H    ASP C   7     -15.434  10.025  20.668  1.00 22.18 LIG 0.16  HD
BRANCH 32 34
ATOM     34  CA  ASP C   7     -16.949  10.219  19.396  1.00 22.70 LIG 0.17  C 
BRANCH 34 35
ATOM     35  C   ASP C   7     -17.701  11.522  19.347  1.00 27.36 LIG 0.22  C 
ATOM     36 O    ASP C   7     -18.086  12.095  20.395  1.00 28.20 LIG-0.29  OA
ENDBRANCH 34 35
BRANCH 34 37
ATOM     37  CB  ASP C   7     -17.720   9.259  20.313  1.00 23.18 LIG 0.15  C 
BRANCH 37 38
ATOM     38  CG  ASP C   7     -17.799   7.849  19.773  1.00 26.80 LIG 0.17  C 
ATOM     39 OD2  ASP C   7     -17.054   6.974  20.316  1.00 27.82 LIG-0.65  OA
ATOM     40 OD1  ASP C   7     -18.578   7.643  18.777  1.00 32.15 LIG-0.65  OA
ENDBRANCH 37 38
ENDBRANCH 34 37
ENDBRANCH 32 34
ENDBRANCH 29 30
BRANCH 29 41
ATOM     41  CB  PHE C   6     -12.176  10.193  18.940  1.00 21.19 LIG 0.07  C 
BRANCH 41 42
ATOM     42  CG  PHE C   6     -11.238   9.404  19.783  1.00 25.43 LIG-0.06  A 
ATOM     43  CD2 PHE C   6     -11.567   8.123  20.252  1.00 26.31 LIG 0.01  A 
ATOM     44  CE2 PHE C   6     -10.633   7.394  20.983  1.00 29.51 LIG 0.00  A 
ATOM     45  CZ  PHE C   6      -9.400   7.954  21.340  1.00 25.82 LIG 0.00  A 
ATOM     46  CE1 PHE C   6      -9.086   9.216  20.912  1.00 26.71 LIG 0.00  A 
ATOM     47  CD1 PHE C   6     -10.024   9.952  20.144  1.00 21.41 LIG 0.01  A 
ENDBRANCH 41 42
ENDBRANCH 29 41
ENDBRANCH 26 29
ENDBRANCH 1 25
BRANCH 1 48
ATOM     48  CB  LEU C   5     -11.498  10.773  23.824  1.00 26.63 LIG 0.04  C 
BRANCH 48 49
ATOM     49  CG  LEU C   5     -11.138  10.232  25.168  1.00 31.82 LIG-0.02  C 
ATOM     50  CD2 LEU C   5      -9.603  10.511  25.370  1.00 33.90 LIG 0.01  C 
ATOM     51  CD1 LEU C   5     -11.479   8.745  25.318  1.00 30.04 LIG 0.01  C 
ENDBRANCH 48 49
ENDBRANCH 1 48
TORSDOF 19
ENDMDL
MODEL 3
USER: ADFR SOLUTION from run 66
USER: SCORE 16.319854 LL:  -4.461 LR: -12.675 RR:   0.000 FEB:  -7.007
USER: RMSD 2.574562
USER: SEED 65
USER: STATUS searching
USER: GENES 21
USER: genes 0 Translation |==|  0.58288 0.65366 0.54631
USER: genes 1 Rotation |==|  0.52281 0.50515 0.54867 0.99708
USER: genes 2 Torsion [C]-CA--N-[C] |==|  0.84444
USER: genes 3 Torsion [N]-C--CA-[N] |==|  0.07072
USER: genes 4 Torsion [C]-CA--N-[C] |==|  0.73405
USER: genes 5 Torsion [N]-C--CA-[N] |==|  0.94417
USER: genes 6 Torsion [C]-CA--CB-[CG] |==|  0.16742
USER: genes 7 Torsion [CA]-CB--CG-[CD1] |==|  0.22188
USER: genes 8 Torsion [C]-CA--N-[C] |==|  0.74502
USER: genes 9 Torsion [N]-C--CA-[N] |==|  0.33276
USER: genes 10 Torsion [N]-CA--C-[N] |==|  0.92435
USER: genes 11 Torsion [C]-N--CA-[C] |==|  0.70612
USER: genes 12 Torsion [N]-CA--C-[N] |==|  0.14143
USER: genes 13 Torsion [C]-N--CA-[C] |==|  0.19428
USER: genes 14 Torsion [N]-CA--C-[O] |==|  0.97993
USER: genes 15 Torsion [N]-CA--CB-[CG] |==|  0.74647
USER: genes 16 Torsion [CA]-CB--CG-[OD1] |==|  0.44969
USER: genes 17 Torsion [N]-CA--CB-[CG] |==|  0.97956
USER: genes 18 Torsion [CA]-CB--CG-[CD2] |==|  0.20030
USER: genes 19 Torsion [N]-CA--CB-[CG] |==|  0.15658
USER: genes 20 Torsion [CA]-CB--CG-[CD2] |==|  0.80018
ROOT
ATOM      1  CA  LEU C   5     -13.324  11.296  23.607  1.00 25.10 LIG 0.18  C 
ENDROOT
BRANCH 1 2
ATOM      2  N   LEU C   5     -14.245  10.123  23.885  1.00 25.35 LIG-0.35  N 
ATOM      3  C   GLY C   4     -15.510  10.109  23.375  1.00 24.95 LIG 0.24  C 
ATOM      4 O    GLY C   4     -15.928  11.061  22.705  1.00 25.89 LIG-0.27  OA
ATOM      5 H    LEU C   5     -13.906   9.500  24.371  1.00 25.35 LIG 0.16  HD
BRANCH 3 6
ATOM      6  CA  GLY C   4     -16.397   8.935  23.613  1.00 25.42 LIG 0.23  C 
BRANCH 6 7
ATOM      7  N   GLY C   4     -16.143   8.117  24.798  1.00 25.00 LIG-0.35  N 
ATOM      8  C   PHE C   3     -15.398   6.984  24.767  1.00 25.70 LIG 0.24  C 
ATOM      9 O    PHE C   3     -14.832   6.579  23.734  1.00 20.17 LIG-0.27  OA
ATOM     10 H    GLY C   4     -16.509   8.421  25.515  1.00 25.00 LIG 0.16  HD
BRANCH 8 11
ATOM     11  CA  PHE C   3     -15.148   6.297  26.109  1.00 26.56 LIG 0.18  C 
BRANCH 11 12
ATOM     12  CB  PHE C   3     -16.100   5.125  26.236  1.00 27.24 LIG 0.07  C 
BRANCH 12 13
ATOM     13  CG  PHE C   3     -15.935   4.116  25.182  1.00 26.12 LIG-0.06  A 
ATOM     14  CD1 PHE C   3     -14.907   3.192  25.281  1.00 28.42 LIG 0.01  A 
ATOM     15  CE1 PHE C   3     -14.737   2.192  24.314  1.00 27.55 LIG 0.00  A 
ATOM     16  CZ  PHE C   3     -15.566   2.190  23.145  1.00 28.40 LIG 0.00  A 
ATOM     17  CE2 PHE C   3     -16.613   3.125  23.040  1.00 22.84 LIG 0.00  A 
ATOM     18  CD2 PHE C   3     -16.763   4.120  24.037  1.00 25.80 LIG 0.01  A 
ENDBRANCH 12 13
ENDBRANCH 11 12
BRANCH 11 19
ATOM     19  N   PHE C   3     -15.357   7.238  27.218  1.00 29.45 LIG-0.35  N 
ATOM     20 H    PHE C   3     -16.165   7.283  27.512  1.00 29.45 LIG 0.16  HD
ATOM     21  C   GLY C   2     -14.336   7.947  27.698  1.00 31.80 LIG 0.25  C 
ATOM     22 O    GLY C   2     -13.206   7.969  27.142  1.00 33.21 LIG-0.27  OA
BRANCH 21 23
ATOM     23  CA  GLY C   2     -14.646   8.826  28.908  1.00 32.25 LIG 0.47  C 
ATOM     24  N   GLY C   2     -13.825   8.465  30.109  1.00 32.96 LIG 0.61  N 
ENDBRANCH 21 23
ENDBRANCH 11 19
ENDBRANCH 8 11
ENDBRANCH 6 7
ENDBRANCH 3 6
ENDBRANCH 1 2
BRANCH 1 25
ATOM     25  C   LEU C   5     -13.091  11.624  22.125  1.00 23.49 LIG 0.24  C 
ATOM     26  N   PHE C   6     -13.205  10.620  21.253  1.00 22.96 LIG-0.35  N 
ATOM     27 H    PHE C   6     -13.435   9.818  21.463  1.00 22.96 LIG 0.16  HD
ATOM     28 O    LEU C   5     -12.921  12.813  21.771  1.00 25.98 LIG-0.27  OA
BRANCH 26 29
ATOM     29  CA  PHE C   6     -12.934  10.829  19.808  1.00 22.19 LIG 0.18  C 
BRANCH 29 30
ATOM     30  C   PHE C   6     -14.159  10.877  18.899  1.00 17.26 LIG 0.24  C 
ATOM     31 O    PHE C   6     -14.244  10.229  17.898  1.00 22.18 LIG-0.27  OA
ATOM     32  N   ASP C   7     -15.135  11.711  19.273  1.00 22.18 LIG-0.35  N 
ATOM     33 H    ASP C   7     -15.111  12.193  19.986  1.00 22.18 LIG 0.16  HD
BRANCH 32 34
ATOM     34  CA  ASP C   7     -16.357  11.871  18.470  1.00 22.70 LIG 0.17  C 
BRANCH 34 35
ATOM     35  C   ASP C   7     -17.266  10.671  18.484  1.00 27.36 LIG 0.22  C 
ATOM     36 O    ASP C   7     -16.919   9.593  19.023  1.00 28.20 LIG-0.29  OA
ENDBRANCH 34 35
BRANCH 34 37
ATOM     37  CB  ASP C   7     -15.967  12.154  17.012  1.00 23.18 LIG 0.15  C 
BRANCH 37 38
ATOM     38  CG  ASP C   7     -15.842  13.628  16.702  1.00 26.80 LIG 0.17  C 
ATOM     39 OD2  ASP C   7     -16.429  14.441  17.483  1.00 27.82 LIG-0.65  OA
ATOM     40 OD1  ASP C   7     -15.191  13.954  15.648  1.00 32.15 LIG-0.65  OA
ENDBRANCH 37 38
ENDBRANCH 34 37
ENDBRANCH 32 34
ENDBRANCH 29 30
BRANCH 29 41
ATOM     41  CB  PHE C   6     -11.871   9.837  19.277  1.00 21.19 LIG 0.07  C 
BRANCH 41 42
ATOM     42  CG  PHE C   6     -11.234   9.022  20.345  1.00 25.43 LIG-0.06  A 
ATOM     43  CD2 PHE C   6     -11.928   7.993  21.000  1.00 26.31 LIG 0.01  A 
ATOM     44  CE2 PHE C   6     -11.273   7.211  21.947  1.00 29.51 LIG 0.00  A 
ATOM     45  CZ  PHE C   6      -9.954   7.493  22.327  1.00 25.82 LIG 0.00  A 
ATOM     46  CE1 PHE C   6      -9.282   8.515  21.714  1.00 26.71 LIG 0.00  A 
ATOM     47  CD1 PHE C   6      -9.937   9.298  20.729  1.00 21.41 LIG 0.01  A 
ENDBRANCH 41 42
ENDBRANCH 29 41
ENDBRANCH 26 29
ENDBRANCH 1 25
BRANCH 1 48
ATOM     48  CB  LEU C   5     -11.925  11.285  24.330  1.00 26.63 LIG 0.04  C 
BRANCH 48 49
ATOM     49  CG  LEU C   5     -11.047  10.097  24.112  1.00 31.82 LIG-0.02  C 
ATOM     50  CD2 LEU C   5     -11.698   8.904  24.904  1.00 33.90 LIG 0.01  C 
ATOM     51  CD1 LEU C   5      -9.595  10.349  24.538  1.00 30.04 LIG 0.01  C 
ENDBRANCH 48 49
ENDBRANCH 1 48
TORSDOF 19
ENDMDL
MODEL 4
USER: ADFR SOLUTION from run 174
USER: SCORE 16.790946 LL:  -4.939 LR: -12.173 RR:   0.000 FEB:  -6.506
USER: RMSD 3.990217
USER: SEED 173
USER: STATUS searching
USER: GENES 21
USER: genes 0 Translation |==|  0.59442 0.66978 0.56433
USER: genes 1 Rotation |==|  0.51448 0.51258 0.53367 0.99850
USER: genes 2 Torsion [C]-CA--N-[C] |==|  0.86103
USER: genes 3 Torsion [N]-C--CA-[N] |==|  0.05537
USER: genes 4 Torsion [C]-CA--N-[C] |==|  0.76444
USER: genes 5 Torsion [N]-C--CA-[N] |==|  0.39841
USER: genes 6 Torsion [C]-CA--CB-[CG] |==|  0.27956
USER: genes 7 Torsion [CA]-CB--CG-[CD1] |==|  0.80214
USER: genes 8 Torsion [C]-CA--N-[C] |==|  0.82018
USER: genes 9 Torsion [N]-C--CA-[N] |==|  0.69268
USER: genes 10 Torsion [N]-CA--C-[N] |==|  0.88583
USER: genes 11 Torsion [C]-N--CA-[C] |==|  0.68334
USER: genes 12 Torsion [N]-CA--C-[N] |==|  0.04084
USER: genes 13 Torsion [C]-N--CA-[C] |==|  0.79724
USER: genes 14 Torsion [N]-CA--C-[O] |==|  0.16103
USER: genes 15 Torsion [N]-CA--CB-[CG] |==|  0.63460
USER: genes 16 Torsion [CA]-CB--CG-[OD1] |==|  0.27117
USER: genes 17 Torsion [N]-CA--CB-[CG] |==|  0.06936
USER: genes 18 Torsion [CA]-CB--CG-[CD2] |==|  0.16745
USER: genes 19 Torsion [N]-CA--CB-[CG] |==|  0.14478
USER: genes 20 Torsion [CA]-CB--CG-[CD2] |==|  0.79123
ROOT
ATOM      1  CA  LEU C   5     -13.116  11.647  23.931  1.00 25.10 LIG 0.18  C 
ENDROOT
BRANCH 1 2
ATOM      2  N   LEU C   5     -14.095  10.541  24.279  1.00 25.35 LIG-0.35  N 
ATOM      3  C   GLY C   4     -15.334  10.518  23.709  1.00 24.95 LIG 0.24  C 
ATOM      4 O    GLY C   4     -15.682  11.409  22.925  1.00 25.89 LIG-0.27  OA
ATOM      5 H    LEU C   5     -13.805   9.960  24.842  1.00 25.35 LIG 0.16  HD
BRANCH 3 6
ATOM      6  CA  GLY C   4     -16.276   9.406  24.018  1.00 25.42 LIG 0.23  C 
BRANCH 6 7
ATOM      7  N   GLY C   4     -16.037   8.626  25.232  1.00 25.00 LIG-0.35  N 
ATOM      8  C   PHE C   3     -15.181   7.574  25.277  1.00 25.70 LIG 0.24  C 
ATOM      9 O    PHE C   3     -14.496   7.223  24.298  1.00 20.17 LIG-0.27  OA
ATOM     10 H    GLY C   4     -16.488   8.896  25.913  1.00 25.00 LIG 0.16  HD
BRANCH 8 11
ATOM     11  CA  PHE C   3     -14.971   6.926  26.644  1.00 26.56 LIG 0.18  C 
BRANCH 11 12
ATOM     12  CB  PHE C   3     -13.727   7.521  27.274  1.00 27.24 LIG 0.07  C 
BRANCH 12 13
ATOM     13  CG  PHE C   3     -14.013   8.552  28.279  1.00 26.12 LIG-0.06  A 
ATOM     14  CD1 PHE C   3     -14.498   9.784  27.871  1.00 28.42 LIG 0.01  A 
ATOM     15  CE1 PHE C   3     -14.816  10.781  28.802  1.00 27.55 LIG 0.00  A 
ATOM     16  CZ  PHE C   3     -14.532  10.570  30.190  1.00 28.40 LIG 0.00  A 
ATOM     17  CE2 PHE C   3     -14.041   9.321  30.612  1.00 22.84 LIG 0.00  A 
ATOM     18  CD2 PHE C   3     -13.735   8.329  29.647  1.00 25.80 LIG 0.01  A 
ENDBRANCH 12 13
ENDBRANCH 11 12
BRANCH 11 19
ATOM     19  N   PHE C   3     -14.819   5.471  26.508  1.00 29.45 LIG-0.35  N 
ATOM     20 H    PHE C   3     -14.049   5.161  26.734  1.00 29.45 LIG 0.16  HD
ATOM     21  C   GLY C   2     -15.834   4.730  26.063  1.00 31.80 LIG 0.25  C 
ATOM     22 O    GLY C   2     -16.889   5.235  25.597  1.00 33.21 LIG-0.27  OA
BRANCH 21 23
ATOM     23  CA  GLY C   2     -15.597   3.221  26.046  1.00 32.25 LIG 0.47  C 
ATOM     24  N   GLY C   2     -15.490   2.669  24.656  1.00 32.96 LIG 0.61  N 
ENDBRANCH 21 23
ENDBRANCH 11 19
ENDBRANCH 8 11
ENDBRANCH 6 7
ENDBRANCH 3 6
ENDBRANCH 1 2
BRANCH 1 25
ATOM     25  C   LEU C   5     -12.909  11.907  22.432  1.00 23.49 LIG 0.24  C 
ATOM     26  N   PHE C   6     -12.826  10.840  21.634  1.00 22.96 LIG-0.35  N 
ATOM     27 H    PHE C   6     -12.917  10.027  21.899  1.00 22.96 LIG 0.16  HD
ATOM     28 O    LEU C   5     -12.941  13.080  21.995  1.00 25.98 LIG-0.27  OA
BRANCH 26 29
ATOM     29  CA  PHE C   6     -12.561  10.993  20.181  1.00 22.19 LIG 0.18  C 
BRANCH 29 30
ATOM     30  C   PHE C   6     -13.694  10.574  19.248  1.00 17.26 LIG 0.24  C 
ATOM     31 O    PHE C   6     -13.539  10.421  18.073  1.00 22.18 LIG-0.27  OA
ATOM     32  N   ASP C   7     -14.893  10.408  19.819  1.00 22.18 LIG-0.35  N 
ATOM     33 H    ASP C   7     -15.045  10.508  20.660  1.00 22.18 LIG 0.16  HD
BRANCH 32 34
ATOM     34  CA  ASP C   7     -16.073  10.032  19.026  1.00 22.70 LIG 0.17  C 
BRANCH 34 35
ATOM     35  C   ASP C   7     -16.615  11.139  18.162  1.00 27.36 LIG 0.22  C 
ATOM     36 O    ASP C   7     -15.902  11.701  17.296  1.00 28.20 LIG-0.29  OA
ENDBRANCH 34 35
BRANCH 34 37
ATOM     37  CB  ASP C   7     -17.193   9.579  19.974  1.00 23.18 LIG 0.15  C 
BRANCH 37 38
ATOM     38  CG  ASP C   7     -17.830   8.270  19.565  1.00 26.80 LIG 0.17  C 
ATOM     39 OD2  ASP C   7     -18.763   8.319  18.704  1.00 27.82 LIG-0.65  OA
ATOM     40 OD1  ASP C   7     -17.416   7.207  20.148  1.00 32.15 LIG-0.65  OA
ENDBRANCH 37 38
ENDBRANCH 34 37
ENDBRANCH 32 34
ENDBRANCH 29 30
BRANCH 29 41
ATOM     41  CB  PHE C   6     -11.219  10.339  19.772  1.00 21.19 LIG 0.07  C 
BRANCH 41 42
ATOM     42  CG  PHE C   6     -10.789   9.247  20.686  1.00 25.43 LIG-0.06  A 
ATOM     43  CD2 PHE C   6     -11.573   8.101  20.887  1.00 26.31 LIG 0.01  A 
ATOM     44  CE2 PHE C   6     -11.101   7.073  21.700  1.00 29.51 LIG 0.00  A 
ATOM     45  CZ  PHE C   6      -9.894   7.204  22.398  1.00 25.82 LIG 0.00  A 
ATOM     46  CE1 PHE C   6      -9.139   8.334  22.231  1.00 26.71 LIG 0.00  A 
ATOM     47  CD1 PHE C   6      -9.603   9.371  21.383  1.00 21.41 LIG 0.01  A 
ENDBRANCH 41 42
ENDBRANCH 29 41
ENDBRANCH 26 29
ENDBRANCH 1 25
BRANCH 1 48
ATOM     48  CB  LEU C   5     -11.699  11.580  24.615  1.00 26.63 LIG 0.04  C 
BRANCH 48 49
ATOM     49  CG  LEU C   5     -10.940  10.299  24.500  1.00 31.82 LIG-0.02  C 
ATOM     50  CD2 LEU C   5     -11.615   9.283  25.491  1.00 33.90 LIG 0.01  C 
ATOM     51  CD1 LEU C   5      -9.442  10.472  24.782  1.00 30.04 LIG 0.01  C 
ENDBRANCH 48 49
ENDBRANCH 1 48
TORSDOF 19
ENDMDL
MODEL 5
USER: ADFR SOLUTION from run 174
USER: SCORE 16.068933 LL:  -4.645 LR: -12.087 RR:   0.000 FEB:  -6.420
USER: RMSD 2.044589
USER: SEED 173
USER: STATUS searching
USER: GENES 21
USER: genes 0 Translation |==|  0.59148 0.65649 0.56147
USER: genes 1 Rotation |==|  0.52625 0.51797 0.47767 0.99849
USER: genes 2 Torsion [C]-CA--N-[C] |==|  0.84993
USER: genes 3 Torsion [N]-C--CA-[N] |==|  0.93333
USER: genes 4 Torsion [C]-CA--N-[C] |==|  0.84895
USER: genes 5 Torsion [N]-C--CA-[N] |==|  0.01632
USER: genes 6 Torsion [C]-CA--CB-[CG] |==|  0.50381
USER: genes 7 Torsion [CA]-CB--CG-[CD1] |==|  0.42607
USER: genes 8 Torsion [C]-CA--N-[C] |==|  0.74196
USER: genes 9 Torsion [N]-C--CA-[N] |==|  0.76027
USER: genes 10 Torsion [N]-CA--C-[N] |==|  0.90943
USER: genes 11 Torsion [C]-N--CA-[C] |==|  0.73272
USER: genes 12 Torsion [N]-CA--C-[N] |==|  0.09848
USER: genes 13 Torsion [C]-N--CA-[C] |==|  0.84431
USER: genes 14 Torsion [N]-CA--C-[O] |==|  0.21034
USER: genes 15 Torsion [N]-CA--CB-[CG] |==|  0.16755
USER: genes 16 Torsion [CA]-CB--CG-[OD1] |==|  0.30933
USER: genes 17 Torsion [N]-CA--CB-[CG] |==|  0.89815
USER: genes 18 Torsion [CA]-CB--CG-[CD2] |==|  0.24913
USER: genes 19 Torsion [N]-CA--CB-[CG] |==|  0.10530
USER: genes 20 Torsion [CA]-CB--CG-[CD2] |==|  0.79123
ROOT
ATOM      1  CA  LEU C   5     -13.169  11.358  23.879  1.00 25.10 LIG 0.18  C 
ENDROOT
BRANCH 1 2
ATOM      2  N   LEU C   5     -14.361  10.482  24.221  1.00 25.35 LIG-0.35  N 
ATOM      3  C   GLY C   4     -15.603  10.806  23.762  1.00 24.95 LIG 0.24  C 
ATOM      4 O    GLY C   4     -15.777  11.827  23.085  1.00 25.89 LIG-0.27  OA
ATOM      5 H    LEU C   5     -14.182   9.797  24.709  1.00 25.35 LIG 0.16  HD
BRANCH 3 6
ATOM      6  CA  GLY C   4     -16.763   9.920  24.062  1.00 25.42 LIG 0.23  C 
BRANCH 6 7
ATOM      7  N   GLY C   4     -16.490   8.513  24.355  1.00 25.00 LIG-0.35  N 
ATOM      8  C   PHE C   3     -15.781   7.710  23.523  1.00 25.70 LIG 0.24  C 
ATOM      9 O    PHE C   3     -15.265   8.123  22.467  1.00 20.17 LIG-0.27  OA
ATOM     10 H    GLY C   4     -16.819   8.244  25.103  1.00 25.00 LIG 0.16  HD
BRANCH 8 11
ATOM     11  CA  PHE C   3     -15.501   6.293  24.020  1.00 26.56 LIG 0.18  C 
BRANCH 11 12
ATOM     12  CB  PHE C   3     -15.970   5.310  22.966  1.00 27.24 LIG 0.07  C 
BRANCH 12 13
ATOM     13  CG  PHE C   3     -15.781   3.905  23.346  1.00 26.12 LIG-0.06  A 
ATOM     14  CD1 PHE C   3     -16.611   2.937  22.805  1.00 28.42 LIG 0.01  A 
ATOM     15  CE1 PHE C   3     -16.440   1.581  23.116  1.00 27.55 LIG 0.00  A 
ATOM     16  CZ  PHE C   3     -15.468   1.197  24.095  1.00 28.40 LIG 0.00  A 
ATOM     17  CE2 PHE C   3     -14.621   2.175  24.647  1.00 22.84 LIG 0.00  A 
ATOM     18  CD2 PHE C   3     -14.814   3.537  24.309  1.00 25.80 LIG 0.01  A 
ENDBRANCH 12 13
ENDBRANCH 11 12
BRANCH 11 19
ATOM     19  N   PHE C   3     -16.200   6.042  25.288  1.00 29.45 LIG-0.35  N 
ATOM     20 H    PHE C   3     -17.008   5.756  25.210  1.00 29.45 LIG 0.16  HD
ATOM     21  C   GLY C   2     -15.581   6.258  26.449  1.00 31.80 LIG 0.25  C 
ATOM     22 O    GLY C   2     -14.458   6.822  26.524  1.00 33.21 LIG-0.27  OA
BRANCH 21 23
ATOM     23  CA  GLY C   2     -16.369   5.880  27.702  1.00 32.25 LIG 0.47  C 
ATOM     24  N   GLY C   2     -17.269   6.982  28.173  1.00 32.96 LIG 0.61  N 
ENDBRANCH 21 23
ENDBRANCH 11 19
ENDBRANCH 8 11
ENDBRANCH 6 7
ENDBRANCH 3 6
ENDBRANCH 1 2
BRANCH 1 25
ATOM     25  C   LEU C   5     -12.949  11.629  22.385  1.00 23.49 LIG 0.24  C 
ATOM     26  N   PHE C   6     -13.293  10.662  21.531  1.00 22.96 LIG-0.35  N 
ATOM     27 H    PHE C   6     -13.661   9.919  21.763  1.00 22.96 LIG 0.16  HD
ATOM     28 O    LEU C   5     -12.574  12.763  22.008  1.00 25.98 LIG-0.27  OA
BRANCH 26 29
ATOM     29  CA  PHE C   6     -13.056  10.810  20.073  1.00 22.19 LIG 0.18  C 
BRANCH 29 30
ATOM     30  C   PHE C   6     -14.242  11.308  19.251  1.00 17.26 LIG 0.24  C 
ATOM     31 O    PHE C   6     -14.449  10.943  18.132  1.00 22.18 LIG-0.27  OA
ATOM     32  N   ASP C   7     -15.036  12.204  19.849  1.00 22.18 LIG-0.35  N 
ATOM     33 H    ASP C   7     -14.921  12.490  20.652  1.00 22.18 LIG 0.16  HD
BRANCH 32 34
ATOM     34  CA  ASP C   7     -16.197  12.782  19.156  1.00 22.70 LIG 0.17  C 
BRANCH 34 35
ATOM     35  C   ASP C   7     -15.865  13.451  17.849  1.00 27.36 LIG 0.22  C 
ATOM     36 O    ASP C   7     -15.616  12.782  16.816  1.00 28.20 LIG-0.29  OA
ENDBRANCH 34 35
BRANCH 34 37
ATOM     37  CB  ASP C   7     -16.860  13.824  20.067  1.00 23.18 LIG 0.15  C 
BRANCH 37 38
ATOM     38  CG  ASP C   7     -15.941  14.964  20.440  1.00 26.80 LIG 0.17  C 
ATOM     39 OD2  ASP C   7     -14.990  14.709  21.244  1.00 27.82 LIG-0.65  OA
ATOM     40 OD1  ASP C   7     -16.211  16.119  19.957  1.00 32.15 LIG-0.65  OA
ENDBRANCH 37 38
ENDBRANCH 34 37
ENDBRANCH 32 34
ENDBRANCH 29 30
BRANCH 29 41
ATOM     41  CB  PHE C   6     -12.439   9.529  19.461  1.00 21.19 LIG 0.07  C 
BRANCH 41 42
ATOM     42  CG  PHE C   6     -11.470   8.849  20.362  1.00 25.43 LIG-0.06  A 
ATOM     43  CD2 PHE C   6     -11.878   7.867  21.277  1.00 26.31 LIG 0.01  A 
ATOM     44  CE2 PHE C   6     -10.928   7.209  22.054  1.00 29.51 LIG 0.00  A 
ATOM     45  CZ  PHE C   6      -9.577   7.576  22.005  1.00 25.82 LIG 0.00  A 
ATOM     46  CE1 PHE C   6      -9.178   8.555  21.136  1.00 26.71 LIG 0.00  A 
ATOM     47  CD1 PHE C   6     -10.138   9.210  20.324  1.00 21.41 LIG 0.01  A 
ENDBRANCH 41 42
ENDBRANCH 29 41
ENDBRANCH 26 29
ENDBRANCH 1 25
BRANCH 1 48
ATOM     48  CB  LEU C   5     -11.785  10.948  24.510  1.00 26.63 LIG 0.04  C 
BRANCH 48 49
ATOM     49  CG  LEU C   5     -11.480   9.490  24.611  1.00 31.82 LIG-0.02  C 
ATOM     50  CD2 LEU C   5     -12.340   8.931  25.803  1.00 33.90 LIG 0.01  C 
ATOM     51  CD1 LEU C   5      -9.983   9.211  24.799  1.00 30.04 LIG 0.01  C 
ENDBRANCH 48 49
ENDBRANCH 1 48
TORSDOF 19
ENDMDL
MODEL 6
USER: ADFR SOLUTION from run 7
USER: SCORE 15.704049 LL:  -4.648 LR: -12.014 RR:   0.000 FEB:  -6.347
USER: RMSD 1.876452
USER: SEED 238988
USER: STATUS searching
USER: GENES 21
USER: genes 0 Translation |==|  0.58873 0.66336 0.55503
USER: genes 1 Rotation |==|  0.51470 0.50064 0.53490 0.99856
USER: genes 2 Torsion [C]-CA--N-[C] |==|  0.82962
USER: genes 3 Torsion [N]-C--CA-[N] |==|  0.97383
USER: genes 4 Torsion [C]-CA--N-[C] |==|  0.58890
USER: genes 5 Torsion [N]-C--CA-[N] |==|  0.34164
USER: genes 6 Torsion [C]-CA--CB-[CG] |==|  0.62547
USER: genes 7 Torsion [CA]-CB--CG-[CD1] |==|  0.77912
USER: genes 8 Torsion [C]-CA--N-[C] |==|  0.73490
USER: genes 9 Torsion [N]-C--CA-[N] |==|  0.81452
USER: genes 10 Torsion [N]-CA--C-[N] |==|  0.90077
USER: genes 11 Torsion [C]-N--CA-[C] |==|  0.67166
USER: genes 12 Torsion [N]-CA--C-[N] |==|  0.06092
USER: genes 13 Torsion [C]-N--CA-[C] |==|  0.76197
USER: genes 14 Torsion [N]-CA--C-[O] |==|  0.15563
USER: genes 15 Torsion [N]-CA--CB-[CG] |==|  0.81262
USER: genes 16 Torsion [CA]-CB--CG-[OD1] |==|  0.68965
USER: genes 17 Torsion [N]-CA--CB-[CG] |==|  0.05892
USER: genes 18 Torsion [CA]-CB--CG-[CD2] |==|  0.16051
USER: genes 19 Torsion [N]-CA--CB-[CG] |==|  0.15301
USER: genes 20 Torsion [CA]-CB--CG-[CD2] |==|  0.79084
ROOT
ATOM      1  CA  LEU C   5     -13.219  11.507  23.764  1.00 25.10 LIG 0.18  C 
ENDROOT
BRANCH 1 2
ATOM      2  N   LEU C   5     -14.209  10.396  24.060  1.00 25.35 LIG-0.35  N 
ATOM      3  C   GLY C   4     -15.496  10.490  23.617  1.00 24.95 LIG 0.24  C 
ATOM      4 O    GLY C   4     -15.875  11.488  22.994  1.00 25.89 LIG-0.27  OA
ATOM      5 H    LEU C   5     -13.893   9.736  24.512  1.00 25.35 LIG 0.16  HD
BRANCH 3 6
ATOM      6  CA  GLY C   4     -16.454   9.377  23.871  1.00 25.42 LIG 0.23  C 
BRANCH 6 7
ATOM      7  N   GLY C   4     -15.919   8.125  24.408  1.00 25.00 LIG-0.35  N 
ATOM      8  C   PHE C   3     -16.450   6.911  24.116  1.00 25.70 LIG 0.24  C 
ATOM      9 O    PHE C   3     -17.403   6.765  23.328  1.00 20.17 LIG-0.27  OA
ATOM     10 H    GLY C   4     -15.239   8.231  24.923  1.00 25.00 LIG 0.16  HD
BRANCH 8 11
ATOM     11  CA  PHE C   3     -15.716   5.695  24.680  1.00 26.56 LIG 0.18  C 
BRANCH 11 12
ATOM     12  CB  PHE C   3     -15.191   4.869  23.523  1.00 27.24 LIG 0.07  C 
BRANCH 12 13
ATOM     13  CG  PHE C   3     -15.431   3.429  23.672  1.00 26.12 LIG-0.06  A 
ATOM     14  CD1 PHE C   3     -14.599   2.682  24.490  1.00 28.42 LIG 0.01  A 
ATOM     15  CE1 PHE C   3     -14.817   1.312  24.686  1.00 27.55 LIG 0.00  A 
ATOM     16  CZ  PHE C   3     -15.845   0.645  23.944  1.00 28.40 LIG 0.00  A 
ATOM     17  CE2 PHE C   3     -16.694   1.398  23.113  1.00 22.84 LIG 0.00  A 
ATOM     18  CD2 PHE C   3     -16.453   2.783  22.940  1.00 25.80 LIG 0.01  A 
ENDBRANCH 12 13
ENDBRANCH 11 12
BRANCH 11 19
ATOM     19  N   PHE C   3     -16.620   4.885  25.508  1.00 29.45 LIG-0.35  N 
ATOM     20 H    PHE C   3     -17.102   4.318  25.076  1.00 29.45 LIG 0.16  HD
ATOM     21  C   GLY C   2     -16.651   5.054  26.830  1.00 31.80 LIG 0.25  C 
ATOM     22 O    GLY C   2     -16.045   5.996  27.407  1.00 33.21 LIG-0.27  OA
BRANCH 21 23
ATOM     23  CA  GLY C   2     -17.559   4.098  27.601  1.00 32.25 LIG 0.47  C 
ATOM     24  N   GLY C   2     -19.011   4.311  27.298  1.00 32.96 LIG 0.61  N 
ENDBRANCH 21 23
ENDBRANCH 11 19
ENDBRANCH 8 11
ENDBRANCH 6 7
ENDBRANCH 3 6
ENDBRANCH 1 2
BRANCH 1 25
ATOM     25  C   LEU C   5     -12.941  11.774  22.278  1.00 23.49 LIG 0.24  C 
ATOM     26  N   PHE C   6     -12.926  10.718  21.460  1.00 22.96 LIG-0.35  N 
ATOM     27 H    PHE C   6     -13.096   9.912  21.706  1.00 22.96 LIG 0.16  HD
ATOM     28 O    LEU C   5     -12.857  12.953  21.863  1.00 25.98 LIG-0.27  OA
BRANCH 26 29
ATOM     29  CA  PHE C   6     -12.602  10.873  20.020  1.00 22.19 LIG 0.18  C 
BRANCH 29 30
ATOM     30  C   PHE C   6     -13.704  10.477  19.041  1.00 17.26 LIG 0.24  C 
ATOM     31 O    PHE C   6     -13.484  10.204  17.899  1.00 22.18 LIG-0.27  OA
ATOM     32  N   ASP C   7     -14.950  10.474  19.530  1.00 22.18 LIG-0.35  N 
ATOM     33 H    ASP C   7     -15.148  10.664  20.346  1.00 22.18 LIG 0.16  HD
BRANCH 32 34
ATOM     34  CA  ASP C   7     -16.104  10.137  18.684  1.00 22.70 LIG 0.17  C 
BRANCH 34 35
ATOM     35  C   ASP C   7     -16.662  11.301  17.909  1.00 27.36 LIG 0.22  C 
ATOM     36 O    ASP C   7     -15.941  11.979  17.138  1.00 28.20 LIG-0.29  OA
ENDBRANCH 34 35
BRANCH 34 37
ATOM     37  CB  ASP C   7     -17.227   9.572  19.565  1.00 23.18 LIG 0.15  C 
BRANCH 37 38
ATOM     38  CG  ASP C   7     -16.891   8.229  20.174  1.00 26.80 LIG 0.17  C 
ATOM     39 OD2  ASP C   7     -15.946   8.194  21.023  1.00 27.82 LIG-0.65  OA
ATOM     40 OD1  ASP C   7     -17.552   7.214  19.759  1.00 32.15 LIG-0.65  OA
ENDBRANCH 37 38
ENDBRANCH 34 37
ENDBRANCH 32 34
ENDBRANCH 29 30
BRANCH 29 41
ATOM     41  CB  PHE C   6     -11.255  10.199  19.661  1.00 21.19 LIG 0.07  C 
BRANCH 41 42
ATOM     42  CG  PHE C   6     -10.836   9.157  20.636  1.00 25.43 LIG-0.06  A 
ATOM     43  CD2 PHE C   6     -11.646   8.049  20.925  1.00 26.31 LIG 0.01  A 
ATOM     44  CE2 PHE C   6     -11.185   7.063  21.794  1.00 29.51 LIG 0.00  A 
ATOM     45  CZ  PHE C   6      -9.960   7.204  22.459  1.00 25.82 LIG 0.00  A 
ATOM     46  CE1 PHE C   6      -9.179   8.299  22.204  1.00 26.71 LIG 0.00  A 
ATOM     47  CD1 PHE C   6      -9.633   9.292  21.300  1.00 21.41 LIG 0.01  A 
ENDBRANCH 41 42
ENDBRANCH 29 41
ENDBRANCH 26 29
ENDBRANCH 1 25
BRANCH 1 48
ATOM     48  CB  LEU C   5     -11.835  11.442  24.514  1.00 26.63 LIG 0.04  C 
BRANCH 48 49
ATOM     49  CG  LEU C   5     -11.035  10.189  24.374  1.00 31.82 LIG-0.02  C 
ATOM     50  CD2 LEU C   5     -11.728   9.107  25.281  1.00 33.90 LIG 0.01  C 
ATOM     51  CD1 LEU C   5      -9.558  10.387  24.737  1.00 30.04 LIG 0.01  C 
ENDBRANCH 48 49
ENDBRANCH 1 48
TORSDOF 19
ENDMDL
MODEL 7
USER: ADFR SOLUTION from run 191
USER: SCORE 16.015607 LL:  -4.774 LR: -11.998 RR:   0.000 FEB:  -6.331
USER: RMSD 4.197465
USER: SEED 190
USER: STATUS no improvement in best in 6 clusters for 5 generations
USER: GENES 21
USER: genes 0 Translation |==|  0.59504 0.66593 0.56132
USER: genes 1 Rotation |==|  0.51851 0.52700 0.52127 0.99847
USER: genes 2 Torsion [C]-CA--N-[C] |==|  0.86085
USER: genes 3 Torsion [N]-C--CA-[N] |==|  0.05548
USER: genes 4 Torsion [C]-CA--N-[C] |==|  0.76667
USER: genes 5 Torsion [N]-C--CA-[N] |==|  0.40668
USER: genes 6 Torsion [C]-CA--CB-[CG] |==|  0.27318
USER: genes 7 Torsion [CA]-CB--CG-[CD1] |==|  0.80456
USER: genes 8 Torsion [C]-CA--N-[C] |==|  0.81660
USER: genes 9 Torsion [N]-C--CA-[N] |==|  0.80660
USER: genes 10 Torsion [N]-CA--C-[N] |==|  0.90277
USER: genes 11 Torsion [C]-N--CA-[C] |==|  0.75793
USER: genes 12 Torsion [N]-CA--C-[N] |==|  0.11682
USER: genes 13 Torsion [C]-N--CA-[C] |==|  0.82616
USER: genes 14 Torsion [N]-CA--C-[O] |==|  0.19901
USER: genes 15 Torsion [N]-CA--CB-[CG] |==|  0.17641
USER: genes 16 Torsion [CA]-CB--CG-[OD1] |==|  0.28730
USER: genes 17 Torsion [N]-CA--CB-[CG] |==|  0.92325
USER: genes 18 Torsion [CA]-CB--CG-[CD2] |==|  0.24265
USER: genes 19 Torsion [N]-CA--CB-[CG] |==|  0.14288
USER: genes 20 Torsion [CA]-CB--CG-[CD2] |==|  0.78251
ROOT
ATOM      1  CA  LEU C   5     -13.105  11.563  23.877  1.00 25.10 LIG 0.18  C 
ENDROOT
BRANCH 1 2
ATOM      2  N   LEU C   5     -14.114  10.501  24.272  1.00 25.35 LIG-0.35  N 
ATOM      3  C   GLY C   4     -15.385  10.545  23.779  1.00 24.95 LIG 0.24  C 
ATOM      4 O    GLY C   4     -15.735  11.463  23.027  1.00 25.89 LIG-0.27  OA
ATOM      5 H    LEU C   5     -13.818   9.899  24.811  1.00 25.35 LIG 0.16  HD
BRANCH 3 6
ATOM      6  CA  GLY C   4     -16.360   9.476  24.134  1.00 25.42 LIG 0.23  C 
BRANCH 6 7
ATOM      7  N   GLY C   4     -16.086   8.670  25.324  1.00 25.00 LIG-0.35  N 
ATOM      8  C   PHE C   3     -15.269   7.587  25.309  1.00 25.70 LIG 0.24  C 
ATOM      9 O    PHE C   3     -14.649   7.225  24.291  1.00 20.17 LIG-0.27  OA
ATOM     10 H    GLY C   4     -16.490   8.946  26.031  1.00 25.00 LIG 0.16  HD
BRANCH 8 11
ATOM     11  CA  PHE C   3     -15.011   6.912  26.655  1.00 26.56 LIG 0.18  C 
BRANCH 11 12
ATOM     12  CB  PHE C   3     -13.755   7.505  27.260  1.00 27.24 LIG 0.07  C 
BRANCH 12 13
ATOM     13  CG  PHE C   3     -14.019   8.549  28.258  1.00 26.12 LIG-0.06  A 
ATOM     14  CD1 PHE C   3     -14.518   9.773  27.844  1.00 28.42 LIG 0.01  A 
ATOM     15  CE1 PHE C   3     -14.816  10.783  28.769  1.00 27.55 LIG 0.00  A 
ATOM     16  CZ  PHE C   3     -14.496  10.593  30.152  1.00 28.40 LIG 0.00  A 
ATOM     17  CE2 PHE C   3     -13.991   9.351  30.579  1.00 22.84 LIG 0.00  A 
ATOM     18  CD2 PHE C   3     -13.706   8.347  29.621  1.00 25.80 LIG 0.01  A 
ENDBRANCH 12 13
ENDBRANCH 11 12
BRANCH 11 19
ATOM     19  N   PHE C   3     -14.851   5.461  26.483  1.00 29.45 LIG-0.35  N 
ATOM     20 H    PHE C   3     -14.066   5.156  26.662  1.00 29.45 LIG 0.16  HD
ATOM     21  C   GLY C   2     -15.879   4.716  26.077  1.00 31.80 LIG 0.25  C 
ATOM     22 O    GLY C   2     -16.963   5.217  25.677  1.00 33.21 LIG-0.27  OA
BRANCH 21 23
ATOM     23  CA  GLY C   2     -15.627   3.211  26.018  1.00 32.25 LIG 0.47  C 
ATOM     24  N   GLY C   2     -14.678   2.827  24.923  1.00 32.96 LIG 0.61  N 
ENDBRANCH 21 23
ENDBRANCH 11 19
ENDBRANCH 8 11
ENDBRANCH 6 7
ENDBRANCH 3 6
ENDBRANCH 1 2
BRANCH 1 25
ATOM     25  C   LEU C   5     -12.975  11.831  22.371  1.00 23.49 LIG 0.24  C 
ATOM     26  N   PHE C   6     -13.117  10.787  21.551  1.00 22.96 LIG-0.35  N 
ATOM     27 H    PHE C   6     -13.310   9.990  21.809  1.00 22.96 LIG 0.16  HD
ATOM     28 O    LEU C   5     -12.861  13.008  21.957  1.00 25.98 LIG-0.27  OA
BRANCH 26 29
ATOM     29  CA  PHE C   6     -12.944  10.940  20.084  1.00 22.19 LIG 0.18  C 
BRANCH 29 30
ATOM     30  C   PHE C   6     -14.188  11.357  19.305  1.00 17.26 LIG 0.24  C 
ATOM     31 O    PHE C   6     -14.472  10.885  18.244  1.00 22.18 LIG-0.27  OA
ATOM     32  N   ASP C   7     -14.941  12.309  19.867  1.00 22.18 LIG-0.35  N 
ATOM     33 H    ASP C   7     -14.770  12.671  20.628  1.00 22.18 LIG 0.16  HD
BRANCH 32 34
ATOM     34  CA  ASP C   7     -16.151  12.819  19.206  1.00 22.70 LIG 0.17  C 
BRANCH 34 35
ATOM     35  C   ASP C   7     -15.894  13.496  17.886  1.00 27.36 LIG 0.22  C 
ATOM     36 O    ASP C   7     -15.566  12.841  16.868  1.00 28.20 LIG-0.29  OA
ENDBRANCH 34 35
BRANCH 34 37
ATOM     37  CB  ASP C   7     -16.843  13.829  20.131  1.00 23.18 LIG 0.15  C 
BRANCH 37 38
ATOM     38  CG  ASP C   7     -16.006  15.057  20.410  1.00 26.80 LIG 0.17  C 
ATOM     39 OD2  ASP C   7     -15.079  14.947  21.273  1.00 27.82 LIG-0.65  OA
ATOM     40 OD1  ASP C   7     -16.316  16.134  19.790  1.00 32.15 LIG-0.65  OA
ENDBRANCH 37 38
ENDBRANCH 34 37
ENDBRANCH 32 34
ENDBRANCH 29 30
BRANCH 29 41
ATOM     41  CB  PHE C   6     -12.271   9.695  19.456  1.00 21.19 LIG 0.07  C 
BRANCH 41 42
ATOM     42  CG  PHE C   6     -11.388   8.959  20.398  1.00 25.43 LIG-0.06  A 
ATOM     43  CD2 PHE C   6     -11.885   7.958  21.247  1.00 26.31 LIG 0.01  A 
ATOM     44  CE2 PHE C   6     -11.012   7.248  22.066  1.00 29.51 LIG 0.00  A 
ATOM     45  CZ  PHE C   6      -9.652   7.579  22.127  1.00 25.82 LIG 0.00  A 
ATOM     46  CE1 PHE C   6      -9.165   8.575  21.324  1.00 26.71 LIG 0.00  A 
ATOM     47  CD1 PHE C   6     -10.048   9.283  20.469  1.00 21.41 LIG 0.01  A 
ENDBRANCH 41 42
ENDBRANCH 29 41
ENDBRANCH 26 29
ENDBRANCH 1 25
BRANCH 1 48
ATOM     48  CB  LEU C   5     -11.654  11.420  24.473  1.00 26.63 LIG 0.04  C 
BRANCH 48 49
ATOM     49  CG  LEU C   5     -10.972  10.101  24.314  1.00 31.82 LIG-0.02  C 
ATOM     50  CD2 LEU C   5     -11.583   9.143  25.402  1.00 33.90 LIG 0.01  C 
ATOM     51  CD1 LEU C   5      -9.447  10.207  24.428  1.00 30.04 LIG 0.01  C 
ENDBRANCH 48 49
ENDBRANCH 1 48
TORSDOF 19
ENDMDL
MODEL 8
USER: ADFR SOLUTION from run 114
USER: SCORE 16.209915 LL:  -4.893 LR: -11.829 RR:   0.000 FEB:  -6.162
USER: RMSD 4.332418
USER: SEED 113
USER: STATUS no improvement in best in 9 clusters for 5 generations
USER: GENES 21
USER: genes 0 Translation |==|  0.58368 0.77704 0.53385
USER: genes 1 Rotation |==|  0.34518 0.55998 0.67812 0.93670
USER: genes 2 Torsion [C]-CA--N-[C] |==|  0.66365
USER: genes 3 Torsion [N]-C--CA-[N] |==|  0.91129
USER: genes 4 Torsion [C]-CA--N-[C] |==|  0.84914
USER: genes 5 Torsion [N]-C--CA-[N] |==|  0.33142
USER: genes 6 Torsion [C]-CA--CB-[CG] |==|  0.26223
USER: genes 7 Torsion [CA]-CB--CG-[CD1] |==|  0.86762
USER: genes 8 Torsion [C]-CA--N-[C] |==|  0.69478
USER: genes 9 Torsion [N]-C--CA-[N] |==|  0.78813
USER: genes 10 Torsion [N]-CA--C-[N] |==|  0.01795
USER: genes 11 Torsion [C]-N--CA-[C] |==|  0.79713
USER: genes 12 Torsion [N]-CA--C-[N] |==|  0.93893
USER: genes 13 Torsion [C]-N--CA-[C] |==|  0.67288
USER: genes 14 Torsion [N]-CA--C-[O] |==|  0.16607
USER: genes 15 Torsion [N]-CA--CB-[CG] |==|  0.75897
USER: genes 16 Torsion [CA]-CB--CG-[OD1] |==|  0.18318
USER: genes 17 Torsion [N]-CA--CB-[CG] |==|  0.67055
USER: genes 18 Torsion [CA]-CB--CG-[CD2] |==|  0.10995
USER: genes 19 Torsion [N]-CA--CB-[CG] |==|  0.80970
USER: genes 20 Torsion [CA]-CB--CG-[CD2] |==|  0.81067
ROOT
ATOM      1  CA  LEU C   5     -13.310  13.980  23.382  1.00 25.10 LIG 0.18  C 
ENDROOT
BRANCH 1 2
ATOM      2  N   LEU C   5     -13.471  13.057  24.576  1.00 25.35 LIG-0.35  N 
ATOM      3  C   GLY C   4     -14.579  13.147  25.367  1.00 24.95 LIG 0.24  C 
ATOM      4 O    GLY C   4     -15.448  13.995  25.136  1.00 25.89 LIG-0.27  OA
ATOM      5 H    LEU C   5     -12.827  12.500  24.697  1.00 25.35 LIG 0.16  HD
BRANCH 3 6
ATOM      6  CA  GLY C   4     -14.755  12.209  26.511  1.00 25.42 LIG 0.23  C 
BRANCH 6 7
ATOM      7  N   GLY C   4     -14.210  10.858  26.377  1.00 25.00 LIG-0.35  N 
ATOM      8  C   PHE C   3     -14.517  10.038  25.342  1.00 25.70 LIG 0.24  C 
ATOM      9 O    PHE C   3     -15.250  10.392  24.398  1.00 20.17 LIG-0.27  OA
ATOM     10 H    GLY C   4     -13.678  10.634  27.015  1.00 25.00 LIG 0.16  HD
BRANCH 8 11
ATOM     11  CA  PHE C   3     -13.790   8.695  25.298  1.00 26.56 LIG 0.18  C 
BRANCH 11 12
ATOM     12  CB  PHE C   3     -13.001   8.616  24.006  1.00 27.24 LIG 0.07  C 
BRANCH 12 13
ATOM     13  CG  PHE C   3     -11.603   9.044  24.144  1.00 26.12 LIG-0.06  A 
ATOM     14  CD1 PHE C   3     -11.318  10.230  24.801  1.00 28.42 LIG 0.01  A 
ATOM     15  CE1 PHE C   3      -9.995  10.656  24.983  1.00 27.55 LIG 0.00  A 
ATOM     16  CZ  PHE C   3      -8.924   9.915  24.385  1.00 28.40 LIG 0.00  A 
ATOM     17  CE2 PHE C   3      -9.208   8.709  23.719  1.00 22.84 LIG 0.00  A 
ATOM     18  CD2 PHE C   3     -10.555   8.301  23.556  1.00 25.80 LIG 0.01  A 
ENDBRANCH 12 13
ENDBRANCH 11 12
BRANCH 11 19
ATOM     19  N   PHE C   3     -14.749   7.585  25.371  1.00 29.45 LIG-0.35  N 
ATOM     20 H    PHE C   3     -15.239   7.478  24.671  1.00 29.45 LIG 0.16  HD
ATOM     21  C   GLY C   2     -14.816   6.827  26.465  1.00 31.80 LIG 0.25  C 
ATOM     22 O    GLY C   2     -14.195   7.109  27.524  1.00 33.21 LIG-0.27  OA
BRANCH 21 23
ATOM     23  CA  GLY C   2     -15.784   5.647  26.399  1.00 32.25 LIG 0.47  C 
ATOM     24  N   GLY C   2     -17.216   6.066  26.547  1.00 32.96 LIG 0.61  N 
ENDBRANCH 21 23
ENDBRANCH 11 19
ENDBRANCH 8 11
ENDBRANCH 6 7
ENDBRANCH 3 6
ENDBRANCH 1 2
BRANCH 1 25
ATOM     25  C   LEU C   5     -13.167  13.288  22.019  1.00 23.49 LIG 0.24  C 
ATOM     26  N   PHE C   6     -13.329  11.963  21.987  1.00 22.96 LIG-0.35  N 
ATOM     27 H    PHE C   6     -13.542  11.484  22.669  1.00 22.96 LIG 0.16  HD
ATOM     28 O    LEU C   5     -13.024  13.979  20.984  1.00 25.98 LIG-0.27  OA
BRANCH 26 29
ATOM     29  CA  PHE C   6     -13.146  11.202  20.726  1.00 22.19 LIG 0.18  C 
BRANCH 29 30
ATOM     30  C   PHE C   6     -14.249  11.363  19.683  1.00 17.26 LIG 0.24  C 
ATOM     31 O    PHE C   6     -14.068  11.163  18.518  1.00 22.18 LIG-0.27  OA
ATOM     32  N   ASP C   7     -15.438  11.768  20.144  1.00 22.18 LIG-0.35  N 
ATOM     33 H    ASP C   7     -15.606  11.921  20.973  1.00 22.18 LIG 0.16  HD
BRANCH 32 34
ATOM     34  CA  ASP C   7     -16.576  11.988  19.239  1.00 22.70 LIG 0.17  C 
BRANCH 34 35
ATOM     35  C   ASP C   7     -17.079  13.406  19.212  1.00 27.36 LIG 0.22  C 
ATOM     36 O    ASP C   7     -16.336  14.358  18.871  1.00 28.20 LIG-0.29  OA
ENDBRANCH 34 35
BRANCH 34 37
ATOM     37  CB  ASP C   7     -17.738  11.079  19.662  1.00 23.18 LIG 0.15  C 
BRANCH 37 38
ATOM     38  CG  ASP C   7     -17.674   9.700  19.047  1.00 26.80 LIG 0.17  C 
ATOM     39 OD2  ASP C   7     -18.614   9.368  18.259  1.00 27.82 LIG-0.65  OA
ATOM     40 OD1  ASP C   7     -16.702   8.944  19.398  1.00 32.15 LIG-0.65  OA
ENDBRANCH 37 38
ENDBRANCH 34 37
ENDBRANCH 32 34
ENDBRANCH 29 30
BRANCH 29 41
ATOM     41  CB  PHE C   6     -12.836   9.710  20.998  1.00 21.19 LIG 0.07  C 
BRANCH 41 42
ATOM     42  CG  PHE C   6     -11.511   9.276  20.481  1.00 25.43 LIG-0.06  A 
ATOM     43  CD2 PHE C   6     -10.378  10.098  20.572  1.00 26.31 LIG 0.01  A 
ATOM     44  CE2 PHE C   6      -9.143   9.626  20.135  1.00 29.51 LIG 0.00  A 
ATOM     45  CZ  PHE C   6      -9.028   8.373  19.518  1.00 25.82 LIG 0.00  A 
ATOM     46  CE1 PHE C   6     -10.136   7.579  19.398  1.00 26.71 LIG 0.00  A 
ATOM     47  CD1 PHE C   6     -11.391   8.046  19.866  1.00 21.41 LIG 0.01  A 
ENDBRANCH 41 42
ENDBRANCH 29 41
ENDBRANCH 26 29
ENDBRANCH 1 25
BRANCH 1 48
ATOM     48  CB  LEU C   5     -12.193  15.085  23.487  1.00 26.63 LIG 0.04  C 
BRANCH 48 49
ATOM     49  CG  LEU C   5     -12.407  16.189  24.470  1.00 31.82 LIG-0.02  C 
ATOM     50  CD2 LEU C   5     -13.611  17.045  23.931  1.00 33.90 LIG 0.01  C 
ATOM     51  CD1 LEU C   5     -11.149  17.037  24.690  1.00 30.04 LIG 0.01  C 
ENDBRANCH 48 49
ENDBRANCH 1 48
TORSDOF 19
ENDMDL
MODEL 9
USER: ADFR SOLUTION from run 128
USER: SCORE 16.351920 LL:  -5.484 LR: -11.471 RR:   0.000 FEB:  -5.803
USER: RMSD 2.498253
USER: SEED 127
USER: STATUS 1 or 2 clusters left
USER: GENES 21
USER: genes 0 Translation |==|  0.59171 0.66731 0.55526
USER: genes 1 Rotation |==|  0.51988 0.52116 0.47225 0.99838
USER: genes 2 Torsion [C]-CA--N-[C] |==|  0.65027
USER: genes 3 Torsion [N]-C--CA-[N] |==|  0.98122
USER: genes 4 Torsion [C]-CA--N-[C] |==|  0.26603
USER: genes 5 Torsion [N]-C--CA-[N] |==|  0.98683
USER: genes 6 Torsion [C]-CA--CB-[CG] |==|  0.40634
USER: genes 7 Torsion [CA]-CB--CG-[CD1] |==|  0.69864
USER: genes 8 Torsion [C]-CA--N-[C] |==|  0.75367
USER: genes 9 Torsion [N]-C--CA-[N] |==|  0.20914
USER: genes 10 Torsion [N]-CA--C-[N] |==|  0.84577
USER: genes 11 Torsion [C]-N--CA-[C] |==|  0.68348
USER: genes 12 Torsion [N]-CA--C-[N] |==|  0.05684
USER: genes 13 Torsion [C]-N--CA-[C] |==|  0.78237
USER: genes 14 Torsion [N]-CA--C-[O] |==|  0.14662
USER: genes 15 Torsion [N]-CA--CB-[CG] |==|  0.64908
USER: genes 16 Torsion [CA]-CB--CG-[OD1] |==|  0.26036
USER: genes 17 Torsion [N]-CA--CB-[CG] |==|  0.06383
USER: genes 18 Torsion [CA]-CB--CG-[CD2] |==|  0.13968
USER: genes 19 Torsion [N]-CA--CB-[CG] |==|  0.10652
USER: genes 20 Torsion [CA]-CB--CG-[CD2] |==|  0.80817
ROOT
ATOM      1  CA  LEU C   5     -13.165  11.593  23.768  1.00 25.10 LIG 0.18  C 
ENDROOT
BRANCH 1 2
ATOM      2  N   LEU C   5     -14.368  10.751  24.150  1.00 25.35 LIG-0.35  N 
ATOM      3  C   GLY C   4     -15.285  11.230  25.038  1.00 24.95 LIG 0.24  C 
ATOM      4 O    GLY C   4     -15.134  12.341  25.560  1.00 25.89 LIG-0.27  OA
ATOM      5 H    LEU C   5     -14.411   9.981  23.769  1.00 25.35 LIG 0.16  HD
BRANCH 3 6
ATOM      6  CA  GLY C   4     -16.489  10.419  25.377  1.00 25.42 LIG 0.23  C 
BRANCH 6 7
ATOM      7  N   GLY C   4     -16.718   9.189  24.620  1.00 25.00 LIG-0.35  N 
ATOM      8  C   PHE C   3     -16.323   7.968  25.059  1.00 25.70 LIG 0.24  C 
ATOM      9 O    PHE C   3     -15.779   7.795  26.166  1.00 20.17 LIG-0.27  OA
ATOM     10 H    GLY C   4     -17.126   9.312  23.873  1.00 25.00 LIG 0.16  HD
BRANCH 8 11
ATOM     11  CA  PHE C   3     -16.724   6.772  24.196  1.00 26.56 LIG 0.18  C 
BRANCH 11 12
ATOM     12  CB  PHE C   3     -15.464   6.120  23.662  1.00 27.24 LIG 0.07  C 
BRANCH 12 13
ATOM     13  CG  PHE C   3     -15.571   4.662  23.522  1.00 26.12 LIG-0.06  A 
ATOM     14  CD1 PHE C   3     -14.875   3.843  24.395  1.00 28.42 LIG 0.01  A 
ATOM     15  CE1 PHE C   3     -14.979   2.447  24.316  1.00 27.55 LIG 0.00  A 
ATOM     16  CZ  PHE C   3     -15.725   1.852  23.247  1.00 28.40 LIG 0.00  A 
ATOM     17  CE2 PHE C   3     -16.436   2.679  22.358  1.00 22.84 LIG 0.00  A 
ATOM     18  CD2 PHE C   3     -16.316   4.087  22.467  1.00 25.80 LIG 0.01  A 
ENDBRANCH 12 13
ENDBRANCH 11 12
BRANCH 11 19
ATOM     19  N   PHE C   3     -17.580   7.202  23.082  1.00 29.45 LIG-0.35  N 
ATOM     20 H    PHE C   3     -17.163   7.400  22.356  1.00 29.45 LIG 0.16  HD
ATOM     21  C   GLY C   2     -18.902   7.262  23.238  1.00 31.80 LIG 0.25  C 
ATOM     22 O    GLY C   2     -19.461   7.114  24.356  1.00 33.21 LIG-0.27  OA
BRANCH 21 23
ATOM     23  CA  GLY C   2     -19.702   7.634  21.990  1.00 32.25 LIG 0.47  C 
ATOM     24  N   GLY C   2     -19.803   6.503  21.011  1.00 32.96 LIG 0.61  N 
ENDBRANCH 21 23
ENDBRANCH 11 19
ENDBRANCH 8 11
ENDBRANCH 6 7
ENDBRANCH 3 6
ENDBRANCH 1 2
BRANCH 1 25
ATOM     25  C   LEU C   5     -12.962  11.822  22.263  1.00 23.49 LIG 0.24  C 
ATOM     26  N   PHE C   6     -12.880  10.739  21.487  1.00 22.96 LIG-0.35  N 
ATOM     27 H    PHE C   6     -12.969   9.931  21.770  1.00 22.96 LIG 0.16  HD
ATOM     28 O    LEU C   5     -12.997  12.986  21.802  1.00 25.98 LIG-0.27  OA
BRANCH 26 29
ATOM     29  CA  PHE C   6     -12.620  10.862  20.030  1.00 22.19 LIG 0.18  C 
BRANCH 29 30
ATOM     30  C   PHE C   6     -13.755  10.424  19.110  1.00 17.26 LIG 0.24  C 
ATOM     31 O    PHE C   6     -13.583  10.150  17.959  1.00 22.18 LIG-0.27  OA
ATOM     32  N   ASP C   7     -14.974  10.385  19.660  1.00 22.18 LIG-0.35  N 
ATOM     33 H    ASP C   7     -15.138  10.574  20.483  1.00 22.18 LIG 0.16  HD
BRANCH 32 34
ATOM     34  CA  ASP C   7     -16.158  10.006  18.873  1.00 22.70 LIG 0.17  C 
BRANCH 34 35
ATOM     35  C   ASP C   7     -16.686  11.101  17.986  1.00 27.36 LIG 0.22  C 
ATOM     36 O    ASP C   7     -15.941  11.704  17.176  1.00 28.20 LIG-0.29  OA
ENDBRANCH 34 35
BRANCH 34 37
ATOM     37  CB  ASP C   7     -17.283   9.584  19.828  1.00 23.18 LIG 0.15  C 
BRANCH 37 38
ATOM     38  CG  ASP C   7     -17.849   8.216  19.519  1.00 26.80 LIG 0.17  C 
ATOM     39 OD2  ASP C   7     -18.810   8.157  18.689  1.00 27.82 LIG-0.65  OA
ATOM     40 OD1  ASP C   7     -17.352   7.218  20.148  1.00 32.15 LIG-0.65  OA
ENDBRANCH 37 38
ENDBRANCH 34 37
ENDBRANCH 32 34
ENDBRANCH 29 30
BRANCH 29 41
ATOM     41  CB  PHE C   6     -11.278  10.200  19.632  1.00 21.19 LIG 0.07  C 
BRANCH 41 42
ATOM     42  CG  PHE C   6     -10.822   9.160  20.592  1.00 25.43 LIG-0.06  A 
ATOM     43  CD2 PHE C   6     -11.671   8.129  21.021  1.00 26.31 LIG 0.01  A 
ATOM     44  CE2 PHE C   6     -11.182   7.138  21.869  1.00 29.51 LIG 0.00  A 
ATOM     45  CZ  PHE C   6      -9.878   7.204  22.377  1.00 25.82 LIG 0.00  A 
ATOM     46  CE1 PHE C   6      -9.055   8.225  21.986  1.00 26.71 LIG 0.00  A 
ATOM     47  CD1 PHE C   6      -9.540   9.222  21.102  1.00 21.41 LIG 0.01  A 
ENDBRANCH 41 42
ENDBRANCH 29 41
ENDBRANCH 26 29
ENDBRANCH 1 25
BRANCH 1 48
ATOM     48  CB  LEU C   5     -11.780  11.172  24.388  1.00 26.63 LIG 0.04  C 
BRANCH 48 49
ATOM     49  CG  LEU C   5     -11.498   9.711  24.513  1.00 31.82 LIG-0.02  C 
ATOM     50  CD2 LEU C   5     -12.468   9.158  25.620  1.00 33.90 LIG 0.01  C 
ATOM     51  CD1 LEU C   5     -10.027   9.419  24.835  1.00 30.04 LIG 0.01  C 
ENDBRANCH 48 49
ENDBRANCH 1 48
TORSDOF 19
ENDMDL
MODEL 10
USER: ADFR SOLUTION from run 186
USER: SCORE 15.483577 LL:  -5.424 LR: -11.285 RR:   0.000 FEB:  -5.617
USER: RMSD 2.952153
USER: SEED 185
USER: STATUS no improvement in best in 10 clusters for 5 generations
USER: GENES 21
USER: genes 0 Translation |==|  0.60358 0.66967 0.55751
USER: genes 1 Rotation |==|  0.52042 0.54155 0.49278 0.99780
USER: genes 2 Torsion [C]-CA--N-[C] |==|  0.59444
USER: genes 3 Torsion [N]-C--CA-[N] |==|  0.98430
USER: genes 4 Torsion [C]-CA--N-[C] |==|  0.20758
USER: genes 5 Torsion [N]-C--CA-[N] |==|  0.12634
USER: genes 6 Torsion [C]-CA--CB-[CG] |==|  0.33995
USER: genes 7 Torsion [CA]-CB--CG-[CD1] |==|  0.19153
USER: genes 8 Torsion [C]-CA--N-[C] |==|  0.15596
USER: genes 9 Torsion [N]-C--CA-[N] |==|  0.22194
USER: genes 10 Torsion [N]-CA--C-[N] |==|  0.87613
USER: genes 11 Torsion [C]-N--CA-[C] |==|  0.76393
USER: genes 12 Torsion [N]-CA--C-[N] |==|  0.15438
USER: genes 13 Torsion [C]-N--CA-[C] |==|  0.82817
USER: genes 14 Torsion [N]-CA--C-[O] |==|  0.18427
USER: genes 15 Torsion [N]-CA--CB-[CG] |==|  0.93537
USER: genes 16 Torsion [CA]-CB--CG-[OD1] |==|  0.81832
USER: genes 17 Torsion [N]-CA--CB-[CG] |==|  0.93716
USER: genes 18 Torsion [CA]-CB--CG-[CD2] |==|  0.23387
USER: genes 19 Torsion [N]-CA--CB-[CG] |==|  0.13641
USER: genes 20 Torsion [CA]-CB--CG-[CD2] |==|  0.79859
ROOT
ATOM      1  CA  LEU C   5     -12.952  11.644  23.808  1.00 25.10 LIG 0.18  C 
ENDROOT
BRANCH 1 2
ATOM      2  N   LEU C   5     -14.046  10.700  24.271  1.00 25.35 LIG-0.35  N 
ATOM      3  C   GLY C   4     -14.657  10.897  25.474  1.00 24.95 LIG 0.24  C 
ATOM      4 O    GLY C   4     -14.310  11.828  26.210  1.00 25.89 LIG-0.27  OA
ATOM      5 H    LEU C   5     -14.232  10.062  23.726  1.00 25.35 LIG 0.16  HD
BRANCH 3 6
ATOM      6  CA  GLY C   4     -15.762   9.995  25.905  1.00 25.42 LIG 0.23  C 
BRANCH 6 7
ATOM      7  N   GLY C   4     -16.238   8.994  24.950  1.00 25.00 LIG-0.35  N 
ATOM      8  C   PHE C   3     -15.542   7.869  24.653  1.00 25.70 LIG 0.24  C 
ATOM      9 O    PHE C   3     -14.465   7.577  25.208  1.00 20.17 LIG-0.27  OA
ATOM     10 H    GLY C   4     -16.998   9.185  24.597  1.00 25.00 LIG 0.16  HD
BRANCH 8 11
ATOM     11  CA  PHE C   3     -16.221   6.878  23.708  1.00 26.56 LIG 0.18  C 
BRANCH 11 12
ATOM     12  CB  PHE C   3     -15.186   5.879  23.231  1.00 27.24 LIG 0.07  C 
BRANCH 12 13
ATOM     13  CG  PHE C   3     -15.531   4.485  23.534  1.00 26.12 LIG-0.06  A 
ATOM     14  CD1 PHE C   3     -16.594   3.889  22.874  1.00 28.42 LIG 0.01  A 
ATOM     15  CE1 PHE C   3     -16.932   2.550  23.110  1.00 27.55 LIG 0.00  A 
ATOM     16  CZ  PHE C   3     -16.244   1.814  24.129  1.00 28.40 LIG 0.00  A 
ATOM     17  CE2 PHE C   3     -15.162   2.414  24.801  1.00 22.84 LIG 0.00  A 
ATOM     18  CD2 PHE C   3     -14.840   3.768  24.536  1.00 25.80 LIG 0.01  A 
ENDBRANCH 12 13
ENDBRANCH 11 12
BRANCH 11 19
ATOM     19  N   PHE C   3     -16.811   7.580  22.560  1.00 29.45 LIG-0.35  N 
ATOM     20 H    PHE C   3     -17.653   7.445  22.442  1.00 29.45 LIG 0.16  HD
ATOM     21  C   GLY C   2     -16.053   8.358  21.788  1.00 31.80 LIG 0.25  C 
ATOM     22 O    GLY C   2     -14.800   8.409  21.899  1.00 33.21 LIG-0.27  OA
BRANCH 21 23
ATOM     23  CA  GLY C   2     -16.786   9.110  20.678  1.00 32.25 LIG 0.47  C 
ATOM     24  N   GLY C   2     -17.484  10.339  21.177  1.00 32.96 LIG 0.61  N 
ENDBRANCH 21 23
ENDBRANCH 11 19
ENDBRANCH 8 11
ENDBRANCH 6 7
ENDBRANCH 3 6
ENDBRANCH 1 2
BRANCH 1 25
ATOM     25  C   LEU C   5     -12.887  11.900  22.296  1.00 23.49 LIG 0.24  C 
ATOM     26  N   PHE C   6     -13.001  10.840  21.492  1.00 22.96 LIG-0.35  N 
ATOM     27 H    PHE C   6     -13.143  10.037  21.766  1.00 22.96 LIG 0.16  HD
ATOM     28 O    LEU C   5     -12.850  13.076  21.866  1.00 25.98 LIG-0.27  OA
BRANCH 26 29
ATOM     29  CA  PHE C   6     -12.886  10.983  20.019  1.00 22.19 LIG 0.18  C 
BRANCH 29 30
ATOM     30  C   PHE C   6     -14.165  11.375  19.284  1.00 17.26 LIG 0.24  C 
ATOM     31 O    PHE C   6     -14.605  10.739  18.373  1.00 22.18 LIG-0.27  OA
ATOM     32  N   ASP C   7     -14.763  12.496  19.704  1.00 22.18 LIG-0.35  N 
ATOM     33 H    ASP C   7     -14.477  12.980  20.355  1.00 22.18 LIG 0.16  HD
BRANCH 32 34
ATOM     34  CA  ASP C   7     -15.987  12.998  19.062  1.00 22.70 LIG 0.17  C 
BRANCH 34 35
ATOM     35  C   ASP C   7     -15.820  13.355  17.609  1.00 27.36 LIG 0.22  C 
ATOM     36 O    ASP C   7     -15.577  12.479  16.744  1.00 28.20 LIG-0.29  OA
ENDBRANCH 34 35
BRANCH 34 37
ATOM     37  CB  ASP C   7     -16.469  14.251  19.806  1.00 23.18 LIG 0.15  C 
BRANCH 37 38
ATOM     38  CG  ASP C   7     -15.975  14.327  21.233  1.00 26.80 LIG 0.17  C 
ATOM     39 OD2  ASP C   7     -15.142  15.245  21.514  1.00 27.82 LIG-0.65  OA
ATOM     40 OD1  ASP C   7     -16.394  13.433  22.049  1.00 32.15 LIG-0.65  OA
ENDBRANCH 37 38
ENDBRANCH 34 37
ENDBRANCH 32 34
ENDBRANCH 29 30
BRANCH 29 41
ATOM     41  CB  PHE C   6     -12.218   9.744  19.375  1.00 21.19 LIG 0.07  C 
BRANCH 41 42
ATOM     42  CG  PHE C   6     -11.381   8.962  20.323  1.00 25.43 LIG-0.06  A 
ATOM     43  CD2 PHE C   6     -11.936   7.992  21.171  1.00 26.31 LIG 0.01  A 
ATOM     44  CE2 PHE C   6     -11.106   7.237  21.995  1.00 29.51 LIG 0.00  A 
ATOM     45  CZ  PHE C   6      -9.731   7.492  22.061  1.00 25.82 LIG 0.00  A 
ATOM     46  CE1 PHE C   6      -9.187   8.458  21.258  1.00 26.71 LIG 0.00  A 
ATOM     47  CD1 PHE C   6     -10.025   9.212  20.398  1.00 21.41 LIG 0.01  A 
ENDBRANCH 41 42
ENDBRANCH 29 41
ENDBRANCH 26 29
ENDBRANCH 1 25
BRANCH 1 48
ATOM     48  CB  LEU C   5     -11.491  11.338  24.313  1.00 26.63 LIG 0.04  C 
BRANCH 48 49
ATOM     49  CG  LEU C   5     -10.991   9.939  24.166  1.00 31.82 LIG-0.02  C 
ATOM     50  CD2 LEU C   5     -11.752   9.073  25.236  1.00 33.90 LIG 0.01  C 
ATOM     51  CD1 LEU C   5      -9.469   9.837  24.317  1.00 30.04 LIG 0.01  C 
ENDBRANCH 48 49
ENDBRANCH 1 48
TORSDOF 19
ENDMDL
MODEL 11
USER: ADFR SOLUTION from run 114
USER: SCORE 15.917754 LL:  -4.918 LR: -11.283 RR:   0.000 FEB:  -5.616
USER: RMSD 1.849077
USER: SEED 113
USER: STATUS no improvement in best in 9 clusters for 5 generations
USER: GENES 21
USER: genes 0 Translation |==|  0.57675 0.65009 0.53896
USER: genes 1 Rotation |==|  0.48975 0.48422 0.46689 0.99855
USER: genes 2 Torsion [C]-CA--N-[C] |==|  0.85440
USER: genes 3 Torsion [N]-C--CA-[N] |==|  0.88771
USER: genes 4 Torsion [C]-CA--N-[C] |==|  0.83869
USER: genes 5 Torsion [N]-C--CA-[N] |==|  0.93401
USER: genes 6 Torsion [C]-CA--CB-[CG] |==|  0.36793
USER: genes 7 Torsion [CA]-CB--CG-[CD1] |==|  0.70143
USER: genes 8 Torsion [C]-CA--N-[C] |==|  0.83333
USER: genes 9 Torsion [N]-C--CA-[N] |==|  0.65291
USER: genes 10 Torsion [N]-CA--C-[N] |==|  0.89255
USER: genes 11 Torsion [C]-N--CA-[C] |==|  0.73041
USER: genes 12 Torsion [N]-CA--C-[N] |==|  0.03542
USER: genes 13 Torsion [C]-N--CA-[C] |==|  0.77786
USER: genes 14 Torsion [N]-CA--C-[O] |==|  0.34303
USER: genes 15 Torsion [N]-CA--CB-[CG] |==|  0.78341
USER: genes 16 Torsion [CA]-CB--CG-[OD1] |==|  0.98147
USER: genes 17 Torsion [N]-CA--CB-[CG] |==|  0.88994
USER: genes 18 Torsion [CA]-CB--CG-[CD2] |==|  0.23472
USER: genes 19 Torsion [N]-CA--CB-[CG] |==|  0.06271
USER: genes 20 Torsion [CA]-CB--CG-[CD2] |==|  0.79116
ROOT
ATOM      1  CA  LEU C   5     -13.434  11.218  23.474  1.00 25.10 LIG 0.18  C 
ENDROOT
BRANCH 1 2
ATOM      2  N   LEU C   5     -14.704  10.449  23.787  1.00 25.35 LIG-0.35  N 
ATOM      3  C   GLY C   4     -15.854  10.718  23.105  1.00 24.95 LIG 0.24  C 
ATOM      4 O    GLY C   4     -15.881  11.607  22.245  1.00 25.89 LIG-0.27  OA
ATOM      5 H    LEU C   5     -14.629   9.856  24.406  1.00 25.35 LIG 0.16  HD
BRANCH 3 6
ATOM      6  CA  GLY C   4     -17.088   9.930  23.384  1.00 25.42 LIG 0.23  C 
BRANCH 6 7
ATOM      7  N   GLY C   4     -16.944   8.490  23.596  1.00 25.00 LIG-0.35  N 
ATOM      8  C   PHE C   3     -16.394   7.660  22.675  1.00 25.70 LIG 0.24  C 
ATOM      9 O    PHE C   3     -15.924   8.068  21.596  1.00 20.17 LIG-0.27  OA
ATOM     10 H    GLY C   4     -17.240   8.220  24.357  1.00 25.00 LIG 0.16  HD
BRANCH 8 11
ATOM     11  CA  PHE C   3     -16.229   6.198  23.089  1.00 26.56 LIG 0.18  C 
BRANCH 11 12
ATOM     12  CB  PHE C   3     -17.405   5.408  22.550  1.00 27.24 LIG 0.07  C 
BRANCH 12 13
ATOM     13  CG  PHE C   3     -17.017   4.165  21.872  1.00 26.12 LIG-0.06  A 
ATOM     14  CD1 PHE C   3     -17.110   4.085  20.492  1.00 28.42 LIG 0.01  A 
ATOM     15  CE1 PHE C   3     -16.716   2.928  19.806  1.00 27.55 LIG 0.00  A 
ATOM     16  CZ  PHE C   3     -16.318   1.768  20.546  1.00 28.40 LIG 0.00  A 
ATOM     17  CE2 PHE C   3     -16.220   1.843  21.948  1.00 22.84 LIG 0.00  A 
ATOM     18  CD2 PHE C   3     -16.619   3.029  22.612  1.00 25.80 LIG 0.01  A 
ENDBRANCH 12 13
ENDBRANCH 11 12
BRANCH 11 19
ATOM     19  N   PHE C   3     -16.171   6.078  24.552  1.00 29.45 LIG-0.35  N 
ATOM     20 H    PHE C   3     -16.788   5.593  24.904  1.00 29.45 LIG 0.16  HD
ATOM     21  C   GLY C   2     -15.211   6.698  25.237  1.00 31.80 LIG 0.25  C 
ATOM     22 O    GLY C   2     -14.421   7.522  24.705  1.00 33.21 LIG-0.27  OA
BRANCH 21 23
ATOM     23  CA  GLY C   2     -15.191   6.433  26.742  1.00 32.25 LIG 0.47  C 
ATOM     24  N   GLY C   2     -15.243   7.694  27.551  1.00 32.96 LIG 0.61  N 
ENDBRANCH 21 23
ENDBRANCH 11 19
ENDBRANCH 8 11
ENDBRANCH 6 7
ENDBRANCH 3 6
ENDBRANCH 1 2
BRANCH 1 25
ATOM     25  C   LEU C   5     -13.019  11.247  21.997  1.00 23.49 LIG 0.24  C 
ATOM     26  N   PHE C   6     -13.195  10.127  21.292  1.00 22.96 LIG-0.35  N 
ATOM     27 H    PHE C   6     -13.557   9.410  21.601  1.00 22.96 LIG 0.16  HD
ATOM     28 O    LEU C   5     -12.648  12.324  21.476  1.00 25.98 LIG-0.27  OA
BRANCH 26 29
ATOM     29  CA  PHE C   6     -12.763  10.042  19.874  1.00 22.19 LIG 0.18  C 
BRANCH 29 30
ATOM     30  C   PHE C   6     -13.849  10.289  18.829  1.00 17.26 LIG 0.24  C 
ATOM     31 O    PHE C   6     -13.690  10.055  17.668  1.00 22.18 LIG-0.27  OA
ATOM     32  N   ASP C   7     -14.994  10.810  19.284  1.00 22.18 LIG-0.35  N 
ATOM     33 H    ASP C   7     -15.146  10.991  20.111  1.00 22.18 LIG 0.16  HD
BRANCH 32 34
ATOM     34  CA  ASP C   7     -16.108  11.120  18.377  1.00 22.70 LIG 0.17  C 
BRANCH 34 35
ATOM     35  C   ASP C   7     -15.952  12.418  17.629  1.00 27.36 LIG 0.22  C 
ATOM     36 O    ASP C   7     -15.985  12.459  16.376  1.00 28.20 LIG-0.29  OA
ENDBRANCH 34 35
BRANCH 34 37
ATOM     37  CB  ASP C   7     -17.411  11.192  19.185  1.00 23.18 LIG 0.15  C 
BRANCH 37 38
ATOM     38  CG  ASP C   7     -17.974   9.833  19.535  1.00 26.80 LIG 0.17  C 
ATOM     39 OD2  ASP C   7     -18.950   9.798  20.348  1.00 27.82 LIG-0.65  OA
ATOM     40 OD1  ASP C   7     -17.399   8.809  19.024  1.00 32.15 LIG-0.65  OA
ENDBRANCH 37 38
ENDBRANCH 34 37
ENDBRANCH 32 34
ENDBRANCH 29 30
BRANCH 29 41
ATOM     41  CB  PHE C   6     -11.990   8.731  19.590  1.00 21.19 LIG 0.07  C 
BRANCH 41 42
ATOM     42  CG  PHE C   6     -11.067   8.337  20.687  1.00 25.43 LIG-0.06  A 
ATOM     43  CD2 PHE C   6     -11.513   7.609  21.801  1.00 26.31 LIG 0.01  A 
ATOM     44  CE2 PHE C   6     -10.602   7.204  22.773  1.00 29.51 LIG 0.00  A 
ATOM     45  CZ  PHE C   6      -9.258   7.592  22.706  1.00 25.82 LIG 0.00  A 
ATOM     46  CE1 PHE C   6      -8.822   8.329  21.638  1.00 26.71 LIG 0.00  A 
ATOM     47  CD1 PHE C   6      -9.742   8.721  20.632  1.00 21.41 LIG 0.01  A 
ENDBRANCH 41 42
ENDBRANCH 29 41
ENDBRANCH 26 29
ENDBRANCH 1 25
BRANCH 1 48
ATOM     48  CB  LEU C   5     -12.161  10.864  24.331  1.00 26.63 LIG 0.04  C 
BRANCH 48 49
ATOM     49  CG  LEU C   5     -12.123   9.521  24.983  1.00 31.82 LIG-0.02  C 
ATOM     50  CD2 LEU C   5     -13.099   9.588  26.214  1.00 33.90 LIG 0.01  C 
ATOM     51  CD1 LEU C   5     -10.705   9.103  25.392  1.00 30.04 LIG 0.01  C 
ENDBRANCH 48 49
ENDBRANCH 1 48
TORSDOF 19
ENDMDL
MODEL 12
USER: ADFR SOLUTION from run 90
USER: SCORE 16.085805 LL:  -5.465 LR: -11.212 RR:   0.000 FEB:  -5.544
USER: RMSD 2.523951
USER: SEED 89
USER: STATUS no improvement in best in 4 clusters for 5 generations
USER: GENES 21
USER: genes 0 Translation |==|  0.56780 0.65704 0.54860
USER: genes 1 Rotation |==|  0.46756 0.48352 0.46354 0.99734
USER: genes 2 Torsion [C]-CA--N-[C] |==|  0.82793
USER: genes 3 Torsion [N]-C--CA-[N] |==|  0.87222
USER: genes 4 Torsion [C]-CA--N-[C] |==|  0.86645
USER: genes 5 Torsion [N]-C--CA-[N] |==|  0.42099
USER: genes 6 Torsion [C]-CA--CB-[CG] |==|  0.43272
USER: genes 7 Torsion [CA]-CB--CG-[CD1] |==|  0.27659
USER: genes 8 Torsion [C]-CA--N-[C] |==|  0.57819
USER: genes 9 Torsion [N]-C--CA-[N] |==|  0.32138
USER: genes 10 Torsion [N]-CA--C-[N] |==|  0.91712
USER: genes 11 Torsion [C]-N--CA-[C] |==|  0.71858
USER: genes 12 Torsion [N]-CA--C-[N] |==|  0.97252
USER: genes 13 Torsion [C]-N--CA-[C] |==|  0.80592
USER: genes 14 Torsion [N]-CA--C-[O] |==|  0.18161
USER: genes 15 Torsion [N]-CA--CB-[CG] |==|  0.80519
USER: genes 16 Torsion [CA]-CB--CG-[OD1] |==|  0.42893
USER: genes 17 Torsion [N]-CA--CB-[CG] |==|  0.82781
USER: genes 18 Torsion [CA]-CB--CG-[CD2] |==|  0.28632
USER: genes 19 Torsion [N]-CA--CB-[CG] |==|  0.19685
USER: genes 20 Torsion [CA]-CB--CG-[CD2] |==|  0.79711
ROOT
ATOM      1  CA  LEU C   5     -13.596  11.370  23.648  1.00 25.10 LIG 0.18  C 
ENDROOT
BRANCH 1 2
ATOM      2  N   LEU C   5     -14.877  10.652  24.030  1.00 25.35 LIG-0.35  N 
ATOM      3  C   GLY C   4     -16.062  11.017  23.463  1.00 24.95 LIG 0.24  C 
ATOM      4 O    GLY C   4     -16.110  11.951  22.653  1.00 25.89 LIG-0.27  OA
ATOM      5 H    LEU C   5     -14.784  10.024  24.611  1.00 25.35 LIG 0.16  HD
BRANCH 3 6
ATOM      6  CA  GLY C   4     -17.311  10.281  23.807  1.00 25.42 LIG 0.23  C 
BRANCH 6 7
ATOM      7  N   GLY C   4     -17.261   8.819  23.813  1.00 25.00 LIG-0.35  N 
ATOM      8  C   PHE C   3     -16.722   8.094  22.801  1.00 25.70 LIG 0.24  C 
ATOM      9 O    PHE C   3     -16.181   8.622  21.810  1.00 20.17 LIG-0.27  OA
ATOM     10 H    GLY C   4     -17.606   8.463  24.516  1.00 25.00 LIG 0.16  HD
BRANCH 8 11
ATOM     11  CA  PHE C   3     -16.661   6.581  23.004  1.00 26.56 LIG 0.18  C 
BRANCH 11 12
ATOM     12  CB  PHE C   3     -15.369   6.242  23.720  1.00 27.24 LIG 0.07  C 
BRANCH 12 13
ATOM     13  CG  PHE C   3     -15.423   4.976  24.461  1.00 26.12 LIG-0.06  A 
ATOM     14  CD1 PHE C   3     -14.875   3.835  23.898  1.00 28.42 LIG 0.01  A 
ATOM     15  CE1 PHE C   3     -14.876   2.616  24.589  1.00 27.55 LIG 0.00  A 
ATOM     16  CZ  PHE C   3     -15.551   2.515  25.848  1.00 28.40 LIG 0.00  A 
ATOM     17  CE2 PHE C   3     -16.107   3.671  26.426  1.00 22.84 LIG 0.00  A 
ATOM     18  CD2 PHE C   3     -16.086   4.891  25.707  1.00 25.80 LIG 0.01  A 
ENDBRANCH 12 13
ENDBRANCH 11 12
BRANCH 11 19
ATOM     19  N   PHE C   3     -16.719   5.884  21.712  1.00 29.45 LIG-0.35  N 
ATOM     20 H    PHE C   3     -16.406   6.326  21.043  1.00 29.45 LIG 0.16  HD
ATOM     21  C   GLY C   2     -17.229   4.655  21.636  1.00 31.80 LIG 0.25  C 
ATOM     22 O    GLY C   2     -17.816   4.103  22.605  1.00 33.21 LIG-0.27  OA
BRANCH 21 23
ATOM     23  CA  GLY C   2     -17.158   3.989  20.263  1.00 32.25 LIG 0.47  C 
ATOM     24  N   GLY C   2     -16.287   2.769  20.258  1.00 32.96 LIG 0.61  N 
ENDBRANCH 21 23
ENDBRANCH 11 19
ENDBRANCH 8 11
ENDBRANCH 6 7
ENDBRANCH 3 6
ENDBRANCH 1 2
BRANCH 1 25
ATOM     25  C   LEU C   5     -13.185  11.261  22.173  1.00 23.49 LIG 0.24  C 
ATOM     26  N   PHE C   6     -13.545  10.153  21.519  1.00 22.96 LIG-0.35  N 
ATOM     27 H    PHE C   6     -14.018   9.521  21.860  1.00 22.96 LIG 0.16  HD
ATOM     28 O    LEU C   5     -12.643  12.237  21.605  1.00 25.98 LIG-0.27  OA
BRANCH 26 29
ATOM     29  CA  PHE C   6     -13.136   9.933  20.109  1.00 22.19 LIG 0.18  C 
BRANCH 29 30
ATOM     30  C   PHE C   6     -14.203  10.210  19.054  1.00 17.26 LIG 0.24  C 
ATOM     31 O    PHE C   6     -13.956  10.259  17.885  1.00 22.18 LIG-0.27  OA
ATOM     32  N   ASP C   7     -15.442  10.420  19.513  1.00 22.18 LIG-0.35  N 
ATOM     33 H    ASP C   7     -15.659  10.392  20.345  1.00 22.18 LIG 0.16  HD
BRANCH 32 34
ATOM     34  CA  ASP C   7     -16.555  10.725  18.601  1.00 22.70 LIG 0.17  C 
BRANCH 34 35
ATOM     35  C   ASP C   7     -16.473  12.084  17.960  1.00 27.36 LIG 0.22  C 
ATOM     36 O    ASP C   7     -15.554  12.375  17.157  1.00 28.20 LIG-0.29  OA
ENDBRANCH 34 35
BRANCH 34 37
ATOM     37  CB  ASP C   7     -17.877  10.645  19.377  1.00 23.18 LIG 0.15  C 
BRANCH 37 38
ATOM     38  CG  ASP C   7     -18.256   9.235  19.771  1.00 26.80 LIG 0.17  C 
ATOM     39 OD2  ASP C   7     -17.837   8.290  19.031  1.00 27.82 LIG-0.65  OA
ATOM     40 OD1  ASP C   7     -19.010   9.094  20.796  1.00 32.15 LIG-0.65  OA
ENDBRANCH 37 38
ENDBRANCH 34 37
ENDBRANCH 32 34
ENDBRANCH 29 30
BRANCH 29 41
ATOM     41  CB  PHE C   6     -12.491   8.539  19.912  1.00 21.19 LIG 0.07  C 
BRANCH 41 42
ATOM     42  CG  PHE C   6     -11.245   8.345  20.700  1.00 25.43 LIG-0.06  A 
ATOM     43  CD2 PHE C   6     -11.228   7.585  21.879  1.00 26.31 LIG 0.01  A 
ATOM     44  CE2 PHE C   6     -10.026   7.375  22.550  1.00 29.51 LIG 0.00  A 
ATOM     45  CZ  PHE C   6      -8.843   7.988  22.117  1.00 25.82 LIG 0.00  A 
ATOM     46  CE1 PHE C   6      -8.859   8.757  20.984  1.00 26.71 LIG 0.00  A 
ATOM     47  CD1 PHE C   6     -10.077   8.952  20.284  1.00 21.41 LIG 0.01  A 
ENDBRANCH 41 42
ENDBRANCH 29 41
ENDBRANCH 26 29
ENDBRANCH 1 25
BRANCH 1 48
ATOM     48  CB  LEU C   5     -12.326  11.071  24.530  1.00 26.63 LIG 0.04  C 
BRANCH 48 49
ATOM     49  CG  LEU C   5     -11.700   9.721  24.402  1.00 31.82 LIG-0.02  C 
ATOM     50  CD2 LEU C   5     -12.664   8.707  25.121  1.00 33.90 LIG 0.01  C 
ATOM     51  CD1 LEU C   5     -10.278   9.671  24.974  1.00 30.04 LIG 0.01  C 
ENDBRANCH 48 49
ENDBRANCH 1 48
TORSDOF 19
ENDMDL
MODEL 13
USER: ADFR SOLUTION from run 156
USER: SCORE 15.135888 LL:  -4.605 LR: -11.155 RR:   0.000 FEB:  -5.487
USER: RMSD 3.185492
USER: SEED 155
USER: STATUS no improvement in best in 11 clusters for 5 generations
USER: GENES 21
USER: genes 0 Translation |==|  0.59843 0.66243 0.56157
USER: genes 1 Rotation |==|  0.52665 0.52924 0.52742 0.99768
USER: genes 2 Torsion [C]-CA--N-[C] |==|  0.84978
USER: genes 3 Torsion [N]-C--CA-[N] |==|  0.05269
USER: genes 4 Torsion [C]-CA--N-[C] |==|  0.74444
USER: genes 5 Torsion [N]-C--CA-[N] |==|  0.99219
USER: genes 6 Torsion [C]-CA--CB-[CG] |==|  0.75067
USER: genes 7 Torsion [CA]-CB--CG-[CD1] |==|  0.20688
USER: genes 8 Torsion [C]-CA--N-[C] |==|  0.74453
USER: genes 9 Torsion [N]-C--CA-[N] |==|  0.58514
USER: genes 10 Torsion [N]-CA--C-[N] |==|  0.90031
USER: genes 11 Torsion [C]-N--CA-[C] |==|  0.75750
USER: genes 12 Torsion [N]-CA--C-[N] |==|  0.12230
USER: genes 13 Torsion [C]-N--CA-[C] |==|  0.83060
USER: genes 14 Torsion [N]-CA--C-[O] |==|  0.19180
USER: genes 15 Torsion [N]-CA--CB-[CG] |==|  0.17557
USER: genes 16 Torsion [CA]-CB--CG-[OD1] |==|  0.28381
USER: genes 17 Torsion [N]-CA--CB-[CG] |==|  0.93167
USER: genes 18 Torsion [CA]-CB--CG-[CD2] |==|  0.23557
USER: genes 19 Torsion [N]-CA--CB-[CG] |==|  0.14204
USER: genes 20 Torsion [CA]-CB--CG-[CD2] |==|  0.77833
ROOT
ATOM      1  CA  LEU C   5     -13.044  11.487  23.881  1.00 25.10 LIG 0.18  C 
ENDROOT
BRANCH 1 2
ATOM      2  N   LEU C   5     -14.024  10.389  24.250  1.00 25.35 LIG-0.35  N 
ATOM      3  C   GLY C   4     -15.322  10.462  23.838  1.00 24.95 LIG 0.24  C 
ATOM      4 O    GLY C   4     -15.720  11.433  23.183  1.00 25.89 LIG-0.27  OA
ATOM      5 H    LEU C   5     -13.695   9.749  24.721  1.00 25.35 LIG 0.16  HD
BRANCH 3 6
ATOM      6  CA  GLY C   4     -16.271   9.360  24.163  1.00 25.42 LIG 0.23  C 
BRANCH 6 7
ATOM      7  N   GLY C   4     -15.913   8.451  25.253  1.00 25.00 LIG-0.35  N 
ATOM      8  C   PHE C   3     -15.233   7.295  25.056  1.00 25.70 LIG 0.24  C 
ATOM      9 O    PHE C   3     -14.817   6.941  23.936  1.00 20.17 LIG-0.27  OA
ATOM     10 H    GLY C   4     -16.174   8.719  26.028  1.00 25.00 LIG 0.16  HD
BRANCH 8 11
ATOM     11  CA  PHE C   3     -14.854   6.506  26.308  1.00 26.56 LIG 0.18  C 
BRANCH 11 12
ATOM     12  CB  PHE C   3     -15.537   5.154  26.253  1.00 27.24 LIG 0.07  C 
BRANCH 12 13
ATOM     13  CG  PHE C   3     -16.868   5.142  26.870  1.00 26.12 LIG-0.06  A 
ATOM     14  CD1 PHE C   3     -17.931   5.733  26.205  1.00 28.42 LIG 0.01  A 
ATOM     15  CE1 PHE C   3     -19.224   5.711  26.745  1.00 27.55 LIG 0.00  A 
ATOM     16  CZ  PHE C   3     -19.435   5.171  28.055  1.00 28.40 LIG 0.00  A 
ATOM     17  CE2 PHE C   3     -18.361   4.568  28.734  1.00 22.84 LIG 0.00  A 
ATOM     18  CD2 PHE C   3     -17.066   4.600  28.160  1.00 25.80 LIG 0.01  A 
ENDBRANCH 12 13
ENDBRANCH 11 12
BRANCH 11 19
ATOM     19  N   PHE C   3     -15.267   7.229  27.519  1.00 29.45 LIG-0.35  N 
ATOM     20 H    PHE C   3     -16.069   7.067  27.786  1.00 29.45 LIG 0.16  HD
ATOM     21  C   GLY C   2     -14.422   8.065  28.122  1.00 31.80 LIG 0.25  C 
ATOM     22 O    GLY C   2     -13.316   8.393  27.616  1.00 33.21 LIG-0.27  OA
BRANCH 21 23
ATOM     23  CA  GLY C   2     -14.922   8.694  29.421  1.00 32.25 LIG 0.47  C 
ATOM     24  N   GLY C   2     -14.356  10.062  29.655  1.00 32.96 LIG 0.61  N 
ENDBRANCH 21 23
ENDBRANCH 11 19
ENDBRANCH 8 11
ENDBRANCH 6 7
ENDBRANCH 3 6
ENDBRANCH 1 2
BRANCH 1 25
ATOM     25  C   LEU C   5     -12.936  11.808  22.384  1.00 23.49 LIG 0.24  C 
ATOM     26  N   PHE C   6     -13.043  10.786  21.531  1.00 22.96 LIG-0.35  N 
ATOM     27 H    PHE C   6     -13.204   9.974  21.765  1.00 22.96 LIG 0.16  HD
ATOM     28 O    LEU C   5     -12.870  13.001  22.008  1.00 25.98 LIG-0.27  OA
BRANCH 26 29
ATOM     29  CA  PHE C   6     -12.886  10.993  20.069  1.00 22.19 LIG 0.18  C 
BRANCH 29 30
ATOM     30  C   PHE C   6     -14.152  11.383  19.311  1.00 17.26 LIG 0.24  C 
ATOM     31 O    PHE C   6     -14.441  10.908  18.253  1.00 22.18 LIG-0.27  OA
ATOM     32  N   ASP C   7     -14.919  12.314  19.889  1.00 22.18 LIG-0.35  N 
ATOM     33 H    ASP C   7     -14.745  12.679  20.648  1.00 22.18 LIG 0.16  HD
BRANCH 32 34
ATOM     34  CA  ASP C   7     -16.151  12.798  19.248  1.00 22.70 LIG 0.17  C 
BRANCH 34 35
ATOM     35  C   ASP C   7     -15.934  13.452  17.909  1.00 27.36 LIG 0.22  C 
ATOM     36 O    ASP C   7     -15.577  12.788  16.907  1.00 28.20 LIG-0.29  OA
ENDBRANCH 34 35
BRANCH 34 37
ATOM     37  CB  ASP C   7     -16.831  13.819  20.170  1.00 23.18 LIG 0.15  C 
BRANCH 37 38
ATOM     38  CG  ASP C   7     -15.998  15.058  20.410  1.00 26.80 LIG 0.17  C 
ATOM     39 OD2  ASP C   7     -15.069  14.977  21.273  1.00 27.82 LIG-0.65  OA
ATOM     40 OD1  ASP C   7     -16.316  16.114  19.760  1.00 32.15 LIG-0.65  OA
ENDBRANCH 37 38
ENDBRANCH 34 37
ENDBRANCH 32 34
ENDBRANCH 29 30
BRANCH 29 41
ATOM     41  CB  PHE C   6     -12.168   9.797  19.397  1.00 21.19 LIG 0.07  C 
BRANCH 41 42
ATOM     42  CG  PHE C   6     -11.303   9.025  20.329  1.00 25.43 LIG-0.06  A 
ATOM     43  CD2 PHE C   6     -11.821   8.005  21.141  1.00 26.31 LIG 0.01  A 
ATOM     44  CE2 PHE C   6     -10.964   7.263  21.950  1.00 29.51 LIG 0.00  A 
ATOM     45  CZ  PHE C   6      -9.603   7.579  22.038  1.00 25.82 LIG 0.00  A 
ATOM     46  CE1 PHE C   6      -9.097   8.594  21.271  1.00 26.71 LIG 0.00  A 
ATOM     47  CD1 PHE C   6      -9.961   9.335  20.426  1.00 21.41 LIG 0.01  A 
ENDBRANCH 41 42
ENDBRANCH 29 41
ENDBRANCH 26 29
ENDBRANCH 1 25
BRANCH 1 48
ATOM     48  CB  LEU C   5     -11.585  11.358  24.459  1.00 26.63 LIG 0.04  C 
BRANCH 48 49
ATOM     49  CG  LEU C   5     -10.877  10.059  24.256  1.00 31.82 LIG-0.02  C 
ATOM     50  CD2 LEU C   5     -11.427   9.069  25.346  1.00 33.90 LIG 0.01  C 
ATOM     51  CD1 LEU C   5      -9.351  10.201  24.321  1.00 30.04 LIG 0.01  C 
ENDBRANCH 48 49
ENDBRANCH 1 48
TORSDOF 19
ENDMDL
MODEL 14
USER: ADFR SOLUTION from run 192
USER: SCORE 15.610593 LL:  -4.842 LR: -10.905 RR:   0.000 FEB:  -5.237
USER: RMSD 2.729163
USER: SEED 191
USER: STATUS no improvement in best in 8 clusters for 5 generations
USER: GENES 21
USER: genes 0 Translation |==|  0.59751 0.66870 0.55497
USER: genes 1 Rotation |==|  0.49706 0.54073 0.50470 0.99831
USER: genes 2 Torsion [C]-CA--N-[C] |==|  0.84944
USER: genes 3 Torsion [N]-C--CA-[N] |==|  0.01657
USER: genes 4 Torsion [C]-CA--N-[C] |==|  0.78654
USER: genes 5 Torsion [N]-C--CA-[N] |==|  0.97924
USER: genes 6 Torsion [C]-CA--CB-[CG] |==|  0.75173
USER: genes 7 Torsion [CA]-CB--CG-[CD1] |==|  0.17692
USER: genes 8 Torsion [C]-CA--N-[C] |==|  0.76897
USER: genes 9 Torsion [N]-C--CA-[N] |==|  0.31325
USER: genes 10 Torsion [N]-CA--C-[N] |==|  0.90075
USER: genes 11 Torsion [C]-N--CA-[C] |==|  0.75097
USER: genes 12 Torsion [N]-CA--C-[N] |==|  0.98436
USER: genes 13 Torsion [C]-N--CA-[C] |==|  0.69915
USER: genes 14 Torsion [N]-CA--C-[O] |==|  0.95352
USER: genes 15 Torsion [N]-CA--CB-[CG] |==|  0.80508
USER: genes 16 Torsion [CA]-CB--CG-[OD1] |==|  0.18337
USER: genes 17 Torsion [N]-CA--CB-[CG] |==|  0.88868
USER: genes 18 Torsion [CA]-CB--CG-[CD2] |==|  0.26820
USER: genes 19 Torsion [N]-CA--CB-[CG] |==|  0.16563
USER: genes 20 Torsion [CA]-CB--CG-[CD2] |==|  0.80293
ROOT
ATOM      1  CA  LEU C   5     -13.061  11.623  23.763  1.00 25.10 LIG 0.18  C 
ENDROOT
BRANCH 1 2
ATOM      2  N   LEU C   5     -14.105  10.665  24.306  1.00 25.35 LIG-0.35  N 
ATOM      3  C   GLY C   4     -15.412  10.797  23.940  1.00 24.95 LIG 0.24  C 
ATOM      4 O    GLY C   4     -15.764  11.710  23.184  1.00 25.89 LIG-0.27  OA
ATOM      5 H    LEU C   5     -13.804  10.062  24.840  1.00 25.35 LIG 0.16  HD
BRANCH 3 6
ATOM      6  CA  GLY C   4     -16.427   9.827  24.440  1.00 25.42 LIG 0.23  C 
BRANCH 6 7
ATOM      7  N   GLY C   4     -15.995   8.834  25.423  1.00 25.00 LIG-0.35  N 
ATOM      8  C   PHE C   3     -15.275   7.733  25.094  1.00 25.70 LIG 0.24  C 
ATOM      9 O    PHE C   3     -14.883   7.509  23.933  1.00 20.17 LIG-0.27  OA
ATOM     10 H    GLY C   4     -16.241   9.013  26.228  1.00 25.00 LIG 0.16  HD
BRANCH 8 11
ATOM     11  CA  PHE C   3     -14.822   6.845  26.251  1.00 26.56 LIG 0.18  C 
BRANCH 11 12
ATOM     12  CB  PHE C   3     -15.539   5.513  26.147  1.00 27.24 LIG 0.07  C 
BRANCH 12 13
ATOM     13  CG  PHE C   3     -16.824   5.482  26.855  1.00 26.12 LIG-0.06  A 
ATOM     14  CD1 PHE C   3     -17.850   6.315  26.439  1.00 28.42 LIG 0.01  A 
ATOM     15  CE1 PHE C   3     -19.103   6.289  27.067  1.00 27.55 LIG 0.00  A 
ATOM     16  CZ  PHE C   3     -19.296   5.472  28.228  1.00 28.40 LIG 0.00  A 
ATOM     17  CE2 PHE C   3     -18.259   4.622  28.654  1.00 22.84 LIG 0.00  A 
ATOM     18  CD2 PHE C   3     -17.005   4.666  27.995  1.00 25.80 LIG 0.01  A 
ENDBRANCH 12 13
ENDBRANCH 11 12
BRANCH 11 19
ATOM     19  N   PHE C   3     -15.125   7.481  27.540  1.00 29.45 LIG-0.35  N 
ATOM     20 H    PHE C   3     -15.856   7.222  27.913  1.00 29.45 LIG 0.16  HD
ATOM     21  C   GLY C   2     -14.293   8.387  28.052  1.00 31.80 LIG 0.25  C 
ATOM     22 O    GLY C   2     -13.316   8.852  27.408  1.00 33.21 LIG-0.27  OA
BRANCH 21 23
ATOM     23  CA  GLY C   2     -14.658   8.917  29.438  1.00 32.25 LIG 0.47  C 
ATOM     24  N   GLY C   2     -13.678   8.500  30.493  1.00 32.96 LIG 0.61  N 
ENDBRANCH 21 23
ENDBRANCH 11 19
ENDBRANCH 8 11
ENDBRANCH 6 7
ENDBRANCH 3 6
ENDBRANCH 1 2
BRANCH 1 25
ATOM     25  C   LEU C   5     -13.001  11.747  22.234  1.00 23.49 LIG 0.24  C 
ATOM     26  N   PHE C   6     -13.233  10.641  21.522  1.00 22.96 LIG-0.35  N 
ATOM     27 H    PHE C   6     -13.447   9.881  21.864  1.00 22.96 LIG 0.16  HD
ATOM     28 O    LEU C   5     -12.857  12.874  21.706  1.00 25.98 LIG-0.27  OA
BRANCH 26 29
ATOM     29  CA  PHE C   6     -13.132  10.651  20.041  1.00 22.19 LIG 0.18  C 
BRANCH 29 30
ATOM     30  C   PHE C   6     -14.413  10.998  19.288  1.00 17.26 LIG 0.24  C 
ATOM     31 O    PHE C   6     -14.441  11.157  18.103  1.00 22.18 LIG-0.27  OA
ATOM     32  N   ASP C   7     -15.513  11.141  20.035  1.00 22.18 LIG-0.35  N 
ATOM     33 H    ASP C   7     -15.534  11.035  20.888  1.00 22.18 LIG 0.16  HD
BRANCH 32 34
ATOM     34  CA  ASP C   7     -16.806  11.502  19.434  1.00 22.70 LIG 0.17  C 
BRANCH 34 35
ATOM     35  C   ASP C   7     -17.257  12.907  19.737  1.00 27.36 LIG 0.22  C 
ATOM     36 O    ASP C   7     -16.748  13.570  20.672  1.00 28.20 LIG-0.29  OA
ENDBRANCH 34 35
BRANCH 34 37
ATOM     37  CB  ASP C   7     -17.885  10.538  19.944  1.00 23.18 LIG 0.15  C 
BRANCH 37 38
ATOM     38  CG  ASP C   7     -17.741   9.135  19.398  1.00 26.80 LIG 0.17  C 
ATOM     39 OD2  ASP C   7     -18.678   8.697  18.660  1.00 27.82 LIG-0.65  OA
ATOM     40 OD1  ASP C   7     -16.706   8.470  19.753  1.00 32.15 LIG-0.65  OA
ENDBRANCH 37 38
ENDBRANCH 34 37
ENDBRANCH 32 34
ENDBRANCH 29 30
BRANCH 29 41
ATOM     41  CB  PHE C   6     -12.493   9.348  19.503  1.00 21.19 LIG 0.07  C 
BRANCH 41 42
ATOM     42  CG  PHE C   6     -11.357   8.859  20.329  1.00 25.43 LIG-0.06  A 
ATOM     43  CD2 PHE C   6     -11.530   7.871  21.311  1.00 26.31 LIG 0.01  A 
ATOM     44  CE2 PHE C   6     -10.427   7.396  22.015  1.00 29.51 LIG 0.00  A 
ATOM     45  CZ  PHE C   6      -9.156   7.954  21.827  1.00 25.82 LIG 0.00  A 
ATOM     46  CE1 PHE C   6      -8.987   8.940  20.893  1.00 26.71 LIG 0.00  A 
ATOM     47  CD1 PHE C   6     -10.103   9.409  20.154  1.00 21.41 LIG 0.01  A 
ENDBRANCH 41 42
ENDBRANCH 29 41
ENDBRANCH 26 29
ENDBRANCH 1 25
BRANCH 1 48
ATOM     48  CB  LEU C   5     -11.589  11.445  24.295  1.00 26.63 LIG 0.04  C 
BRANCH 48 49
ATOM     49  CG  LEU C   5     -10.926  10.129  24.056  1.00 31.82 LIG-0.02  C 
ATOM     50  CD2 LEU C   5     -11.637   9.087  24.995  1.00 33.90 LIG 0.01  C 
ATOM     51  CD1 LEU C   5      -9.411  10.179  24.291  1.00 30.04 LIG 0.01  C 
ENDBRANCH 48 49
ENDBRANCH 1 48
TORSDOF 19
ENDMDL
MODEL 15
USER: ADFR SOLUTION from run 192
USER: SCORE 15.844676 LL:  -5.825 LR: -10.862 RR:   0.000 FEB:  -5.194
USER: RMSD 2.955018
USER: SEED 191
USER: STATUS no improvement in best in 8 clusters for 5 generations
USER: GENES 21
USER: genes 0 Translation |==|  0.59107 0.69654 0.55294
USER: genes 1 Rotation |==|  0.49623 0.51401 0.47921 0.99936
USER: genes 2 Torsion [C]-CA--N-[C] |==|  0.66813
USER: genes 3 Torsion [N]-C--CA-[N] |==|  0.11352
USER: genes 4 Torsion [C]-CA--N-[C] |==|  0.14173
USER: genes 5 Torsion [N]-C--CA-[N] |==|  0.90095
USER: genes 6 Torsion [C]-CA--CB-[CG] |==|  0.84060
USER: genes 7 Torsion [CA]-CB--CG-[CD1] |==|  0.28144
USER: genes 8 Torsion [C]-CA--N-[C] |==|  0.80009
USER: genes 9 Torsion [N]-C--CA-[N] |==|  0.46556
USER: genes 10 Torsion [N]-CA--C-[N] |==|  0.85424
USER: genes 11 Torsion [C]-N--CA-[C] |==|  0.67294
USER: genes 12 Torsion [N]-CA--C-[N] |==|  0.06056
USER: genes 13 Torsion [C]-N--CA-[C] |==|  0.77006
USER: genes 14 Torsion [N]-CA--C-[O] |==|  0.14197
USER: genes 15 Torsion [N]-CA--CB-[CG] |==|  0.59898
USER: genes 16 Torsion [CA]-CB--CG-[OD1] |==|  0.26805
USER: genes 17 Torsion [N]-CA--CB-[CG] |==|  0.10293
USER: genes 18 Torsion [CA]-CB--CG-[CD2] |==|  0.13267
USER: genes 19 Torsion [N]-CA--CB-[CG] |==|  0.13760
USER: genes 20 Torsion [CA]-CB--CG-[CD2] |==|  0.78198
ROOT
ATOM      1  CA  LEU C   5     -13.177  12.229  23.726  1.00 25.10 LIG 0.18  C 
ENDROOT
BRANCH 1 2
ATOM      2  N   LEU C   5     -14.364  11.388  24.159  1.00 25.35 LIG-0.35  N 
ATOM      3  C   GLY C   4     -15.383  11.955  24.867  1.00 24.95 LIG 0.24  C 
ATOM      4 O    GLY C   4     -15.338  13.149  25.185  1.00 25.89 LIG-0.27  OA
ATOM      5 H    LEU C   5     -14.331  10.562  23.924  1.00 25.35 LIG 0.16  HD
BRANCH 3 6
ATOM      6  CA  GLY C   4     -16.568  11.138  25.251  1.00 25.42 LIG 0.23  C 
BRANCH 6 7
ATOM      7  N   GLY C   4     -16.333   9.769  25.709  1.00 25.00 LIG-0.35  N 
ATOM      8  C   PHE C   3     -15.441   9.459  26.683  1.00 25.70 LIG 0.24  C 
ATOM      9 O    PHE C   3     -14.788  10.325  27.297  1.00 20.17 LIG-0.27  OA
ATOM     10 H    GLY C   4     -16.813   9.180  25.305  1.00 25.00 LIG 0.16  HD
BRANCH 8 11
ATOM     11  CA  PHE C   3     -15.384   7.995  27.114  1.00 26.56 LIG 0.18  C 
BRANCH 11 12
ATOM     12  CB  PHE C   3     -14.455   7.251  26.175  1.00 27.24 LIG 0.07  C 
BRANCH 12 13
ATOM     13  CG  PHE C   3     -14.849   7.342  24.764  1.00 26.12 LIG-0.06  A 
ATOM     14  CD1 PHE C   3     -14.186   8.227  23.930  1.00 28.42 LIG 0.01  A 
ATOM     15  CE1 PHE C   3     -14.508   8.319  22.569  1.00 27.55 LIG 0.00  A 
ATOM     16  CZ  PHE C   3     -15.615   7.570  22.052  1.00 28.40 LIG 0.00  A 
ATOM     17  CE2 PHE C   3     -16.291   6.668  22.894  1.00 22.84 LIG 0.00  A 
ATOM     18  CD2 PHE C   3     -15.938   6.594  24.264  1.00 25.80 LIG 0.01  A 
ENDBRANCH 12 13
ENDBRANCH 11 12
BRANCH 11 19
ATOM     19  N   PHE C   3     -16.725   7.393  27.077  1.00 29.45 LIG-0.35  N 
ATOM     20 H    PHE C   3     -16.855   6.830  26.439  1.00 29.45 LIG 0.16  HD
ATOM     21  C   GLY C   2     -17.635   7.728  27.991  1.00 31.80 LIG 0.25  C 
ATOM     22 O    GLY C   2     -17.458   8.666  28.812  1.00 33.21 LIG-0.27  OA
BRANCH 21 23
ATOM     23  CA  GLY C   2     -18.963   6.976  27.913  1.00 32.25 LIG 0.47  C 
ATOM     24  N   GLY C   2     -19.815   7.184  29.129  1.00 32.96 LIG 0.61  N 
ENDBRANCH 21 23
ENDBRANCH 11 19
ENDBRANCH 8 11
ENDBRANCH 6 7
ENDBRANCH 3 6
ENDBRANCH 1 2
BRANCH 1 25
ATOM     25  C   LEU C   5     -12.942  12.321  22.212  1.00 23.49 LIG 0.24  C 
ATOM     26  N   PHE C   6     -12.870  11.173  21.534  1.00 22.96 LIG-0.35  N 
ATOM     27 H    PHE C   6     -12.982  10.395  21.884  1.00 22.96 LIG 0.16  HD
ATOM     28 O    LEU C   5     -12.942  13.441  21.650  1.00 25.98 LIG-0.27  OA
BRANCH 26 29
ATOM     29  CA  PHE C   6     -12.581  11.163  20.078  1.00 22.19 LIG 0.18  C 
BRANCH 29 30
ATOM     30  C   PHE C   6     -13.675  10.586  19.184  1.00 17.26 LIG 0.24  C 
ATOM     31 O    PHE C   6     -13.459  10.186  18.078  1.00 22.18 LIG-0.27  OA
ATOM     32  N   ASP C   7     -14.909  10.573  19.701  1.00 22.18 LIG-0.35  N 
ATOM     33 H    ASP C   7     -15.103  10.851  20.491  1.00 22.18 LIG 0.16  HD
BRANCH 32 34
ATOM     34  CA  ASP C   7     -16.056  10.068  18.932  1.00 22.70 LIG 0.17  C 
BRANCH 34 35
ATOM     35  C   ASP C   7     -16.653  11.072  17.983  1.00 27.36 LIG 0.22  C 
ATOM     36 O    ASP C   7     -15.941  11.704  17.165  1.00 28.20 LIG-0.29  OA
ENDBRANCH 34 35
BRANCH 34 37
ATOM     37  CB  ASP C   7     -17.156   9.621  19.904  1.00 23.18 LIG 0.15  C 
BRANCH 37 38
ATOM     38  CG  ASP C   7     -17.920   8.407  19.426  1.00 26.80 LIG 0.17  C 
ATOM     39 OD2  ASP C   7     -18.905   8.606  18.648  1.00 27.82 LIG-0.65  OA
ATOM     40 OD1  ASP C   7     -17.550   7.266  19.875  1.00 32.15 LIG-0.65  OA
ENDBRANCH 37 38
ENDBRANCH 34 37
ENDBRANCH 32 34
ENDBRANCH 29 30
BRANCH 29 41
ATOM     41  CB  PHE C   6     -11.203  10.525  19.773  1.00 21.19 LIG 0.07  C 
BRANCH 41 42
ATOM     42  CG  PHE C   6     -10.875   9.373  20.654  1.00 25.43 LIG-0.06  A 
ATOM     43  CD2 PHE C   6     -11.796   8.342  20.894  1.00 26.31 LIG 0.01  A 
ATOM     44  CE2 PHE C   6     -11.424   7.249  21.672  1.00 29.51 LIG 0.00  A 
ATOM     45  CZ  PHE C   6     -10.172   7.204  22.300  1.00 25.82 LIG 0.00  A 
ATOM     46  CE1 PHE C   6      -9.280   8.222  22.095  1.00 26.71 LIG 0.00  A 
ATOM     47  CD1 PHE C   6      -9.646   9.325  21.281  1.00 21.41 LIG 0.01  A 
ENDBRANCH 41 42
ENDBRANCH 29 41
ENDBRANCH 26 29
ENDBRANCH 1 25
BRANCH 1 48
ATOM     48  CB  LEU C   5     -11.796  11.913  24.415  1.00 26.63 LIG 0.04  C 
BRANCH 48 49
ATOM     49  CG  LEU C   5     -11.358  10.486  24.455  1.00 31.82 LIG-0.02  C 
ATOM     50  CD2 LEU C   5     -12.162   9.799  25.618  1.00 33.90 LIG 0.01  C 
ATOM     51  CD1 LEU C   5      -9.842  10.338  24.635  1.00 30.04 LIG 0.01  C 
ENDBRANCH 48 49
ENDBRANCH 1 48
TORSDOF 19
ENDMDL
MODEL 16
USER: ADFR SOLUTION from run 156
USER: SCORE 15.445994 LL:  -5.675 LR: -10.861 RR:   0.000 FEB:  -5.193
USER: RMSD 3.372448
USER: SEED 155
USER: STATUS no improvement in best in 11 clusters for 5 generations
USER: GENES 21
USER: genes 0 Translation |==|  0.60703 0.67053 0.55739
USER: genes 1 Rotation |==|  0.52352 0.54650 0.49060 0.99719
USER: genes 2 Torsion [C]-CA--N-[C] |==|  0.64028
USER: genes 3 Torsion [N]-C--CA-[N] |==|  0.00702
USER: genes 4 Torsion [C]-CA--N-[C] |==|  0.20671
USER: genes 5 Torsion [N]-C--CA-[N] |==|  0.90105
USER: genes 6 Torsion [C]-CA--CB-[CG] |==|  0.79349
USER: genes 7 Torsion [CA]-CB--CG-[CD1] |==|  0.74933
USER: genes 8 Torsion [C]-CA--N-[C] |==|  0.78972
USER: genes 9 Torsion [N]-C--CA-[N] |==|  0.61790
USER: genes 10 Torsion [N]-CA--C-[N] |==|  0.86625
USER: genes 11 Torsion [C]-N--CA-[C] |==|  0.76533
USER: genes 12 Torsion [N]-CA--C-[N] |==|  0.12509
USER: genes 13 Torsion [C]-N--CA-[C] |==|  0.82661
USER: genes 14 Torsion [N]-CA--C-[O] |==|  0.17758
USER: genes 15 Torsion [N]-CA--CB-[CG] |==|  0.16021
USER: genes 16 Torsion [CA]-CB--CG-[OD1] |==|  0.29853
USER: genes 17 Torsion [N]-CA--CB-[CG] |==|  0.95305
USER: genes 18 Torsion [CA]-CB--CG-[CD2] |==|  0.22326
USER: genes 19 Torsion [N]-CA--CB-[CG] |==|  0.13025
USER: genes 20 Torsion [CA]-CB--CG-[CD2] |==|  0.80001
ROOT
ATOM      1  CA  LEU C   5     -12.889  11.663  23.806  1.00 25.10 LIG 0.18  C 
ENDROOT
BRANCH 1 2
ATOM      2  N   LEU C   5     -13.983  10.723  24.279  1.00 25.35 LIG-0.35  N 
ATOM      3  C   GLY C   4     -14.795  11.083  25.314  1.00 24.95 LIG 0.24  C 
ATOM      4 O    GLY C   4     -14.634  12.164  25.893  1.00 25.89 LIG-0.27  OA
ATOM      5 H    LEU C   5     -14.035   9.979  23.851  1.00 25.35 LIG 0.16  HD
BRANCH 3 6
ATOM      6  CA  GLY C   4     -15.896  10.177  25.747  1.00 25.42 LIG 0.23  C 
BRANCH 6 7
ATOM      7  N   GLY C   4     -16.028   8.889  25.066  1.00 25.00 LIG-0.35  N 
ATOM      8  C   PHE C   3     -15.186   7.849  25.286  1.00 25.70 LIG 0.24  C 
ATOM      9 O    PHE C   3     -14.264   7.894  26.122  1.00 20.17 LIG-0.27  OA
ATOM     10 H    GLY C   4     -16.687   8.853  24.516  1.00 25.00 LIG 0.16  HD
BRANCH 8 11
ATOM     11  CA  PHE C   3     -15.517   6.542  24.568  1.00 26.56 LIG 0.18  C 
BRANCH 11 12
ATOM     12  CB  PHE C   3     -14.920   6.591  23.175  1.00 27.24 LIG 0.07  C 
BRANCH 12 13
ATOM     13  CG  PHE C   3     -15.652   7.467  22.253  1.00 26.12 LIG-0.06  A 
ATOM     14  CD1 PHE C   3     -16.683   6.942  21.490  1.00 28.42 LIG 0.01  A 
ATOM     15  CE1 PHE C   3     -17.428   7.753  20.624  1.00 27.55 LIG 0.00  A 
ATOM     16  CZ  PHE C   3     -17.050   9.122  20.435  1.00 28.40 LIG 0.00  A 
ATOM     17  CE2 PHE C   3     -16.005   9.662  21.208  1.00 22.84 LIG 0.00  A 
ATOM     18  CD2 PHE C   3     -15.274   8.818  22.080  1.00 25.80 LIG 0.01  A 
ENDBRANCH 12 13
ENDBRANCH 11 12
BRANCH 11 19
ATOM     19  N   PHE C   3     -16.972   6.351  24.485  1.00 29.45 LIG-0.35  N 
ATOM     20 H    PHE C   3     -17.317   6.503  23.711  1.00 29.45 LIG 0.16  HD
ATOM     21  C   GLY C   2     -17.660   5.970  25.561  1.00 31.80 LIG 0.25  C 
ATOM     22 O    GLY C   2     -17.145   5.908  26.708  1.00 33.21 LIG-0.27  OA
BRANCH 21 23
ATOM     23  CA  GLY C   2     -19.150   5.716  25.341  1.00 32.25 LIG 0.47  C 
ATOM     24  N   GLY C   2     -20.000   6.272  26.444  1.00 32.96 LIG 0.61  N 
ENDBRANCH 21 23
ENDBRANCH 11 19
ENDBRANCH 8 11
ENDBRANCH 6 7
ENDBRANCH 3 6
ENDBRANCH 1 2
BRANCH 1 25
ATOM     25  C   LEU C   5     -12.853  11.937  22.296  1.00 23.49 LIG 0.24  C 
ATOM     26  N   PHE C   6     -12.919  10.880  21.483  1.00 22.96 LIG-0.35  N 
ATOM     27 H    PHE C   6     -13.017  10.068  21.749  1.00 22.96 LIG 0.16  HD
ATOM     28 O    LEU C   5     -12.881  13.117  21.877  1.00 25.98 LIG-0.27  OA
BRANCH 26 29
ATOM     29  CA  PHE C   6     -12.826  11.043  20.010  1.00 22.19 LIG 0.18  C 
BRANCH 29 30
ATOM     30  C   PHE C   6     -14.128  11.387  19.292  1.00 17.26 LIG 0.24  C 
ATOM     31 O    PHE C   6     -14.459  10.861  18.271  1.00 22.18 LIG-0.27  OA
ATOM     32  N   ASP C   7     -14.879  12.336  19.862  1.00 22.18 LIG-0.35  N 
ATOM     33 H    ASP C   7     -14.676  12.736  20.595  1.00 22.18 LIG 0.16  HD
BRANCH 32 34
ATOM     34  CA  ASP C   7     -16.144  12.779  19.256  1.00 22.70 LIG 0.17  C 
BRANCH 34 35
ATOM     35  C   ASP C   7     -15.991  13.404  17.895  1.00 27.36 LIG 0.22  C 
ATOM     36 O    ASP C   7     -15.566  12.744  16.916  1.00 28.20 LIG-0.29  OA
ENDBRANCH 34 35
BRANCH 34 37
ATOM     37  CB  ASP C   7     -16.812  13.807  20.178  1.00 23.18 LIG 0.15  C 
BRANCH 37 38
ATOM     38  CG  ASP C   7     -15.941  15.010  20.464  1.00 26.80 LIG 0.17  C 
ATOM     39 OD2  ASP C   7     -14.974  14.851  21.273  1.00 27.82 LIG-0.65  OA
ATOM     40 OD1  ASP C   7     -16.265  16.116  19.905  1.00 32.15 LIG-0.65  OA
ENDBRANCH 37 38
ENDBRANCH 34 37
ENDBRANCH 32 34
ENDBRANCH 29 30
BRANCH 29 41
ATOM     41  CB  PHE C   6     -12.112   9.841  19.346  1.00 21.19 LIG 0.07  C 
BRANCH 41 42
ATOM     42  CG  PHE C   6     -11.339   9.007  20.304  1.00 25.43 LIG-0.06  A 
ATOM     43  CD2 PHE C   6     -11.961   8.046  21.115  1.00 26.31 LIG 0.01  A 
ATOM     44  CE2 PHE C   6     -11.191   7.241  21.950  1.00 29.51 LIG 0.00  A 
ATOM     45  CZ  PHE C   6      -9.808   7.437  22.065  1.00 25.82 LIG 0.00  A 
ATOM     46  CE1 PHE C   6      -9.199   8.395  21.299  1.00 26.71 LIG 0.00  A 
ATOM     47  CD1 PHE C   6      -9.977   9.199  20.427  1.00 21.41 LIG 0.01  A 
ENDBRANCH 41 42
ENDBRANCH 29 41
ENDBRANCH 26 29
ENDBRANCH 1 25
BRANCH 1 48
ATOM     48  CB  LEU C   5     -11.422  11.338  24.278  1.00 26.63 LIG 0.04  C 
BRANCH 48 49
ATOM     49  CG  LEU C   5     -10.956   9.926  24.151  1.00 31.82 LIG-0.02  C 
ATOM     50  CD2 LEU C   5     -11.713   9.099  25.254  1.00 33.90 LIG 0.01  C 
ATOM     51  CD1 LEU C   5      -9.433   9.793  24.275  1.00 30.04 LIG 0.01  C 
ENDBRANCH 48 49
ENDBRANCH 1 48
TORSDOF 19
ENDMDL
