MODEL 1
USER: ADFR SOLUTION from run 43
USER: SCORE 18.682203 LL:  -2.647 LR: -18.767 RR:   0.000 FEB: -11.608
USER: RMSD 1.486960
USER: SEED 42
USER: STATUS 1 or 2 clusters left
USER: GENES 26
USER: genes 0 Translation |==|  0.49925 0.43610 0.60897
USER: genes 1 Rotation |==|  0.50795 0.51126 0.49172 0.99974
USER: genes 2 Torsion [C]-CA--CB-[CG] |==|  0.65725
USER: genes 3 Torsion [CA]-CB--CG-[CD] |==|  0.45497
USER: genes 4 Torsion [CB]-CG--CD-[CE] |==|  0.85030
USER: genes 5 Torsion [CG]-CD--CE-[NZ] |==|  0.71247
USER: genes 6 Torsion [CD]-CE--NZ-[HZ1] |==|  0.64776
USER: genes 7 Torsion [N]-CA--C-[N] |==|  0.29961
USER: genes 8 Torsion [C]-N--CA-[CB] |==|  0.48899
USER: genes 9 Torsion [N]-CA--CB-[CG] |==|  0.76769
USER: genes 10 Torsion [CA]-CB--CG-[CD] |==|  0.60223
USER: genes 11 Torsion [CB]-CG--CD-[NE] |==|  0.30163
USER: genes 12 Torsion [CG]-CD--NE-[CZ] |==|  0.67753
USER: genes 13 Torsion [N]-CA--C-[N] |==|  0.51929
USER: genes 14 Torsion [C]-N--CA-[C] |==|  0.66836
USER: genes 15 Torsion [N]-CA--C-[O] |==|  0.81232
USER: genes 16 Torsion [CB]-CA--N-[C] |==|  0.40571
USER: genes 17 Torsion [N]-C--CA-[N] |==|  0.30685
USER: genes 18 Torsion [C]-CA--CB-[CG] |==|  0.41277
USER: genes 19 Torsion [CA]-CB--CG-[CD] |==|  0.48933
USER: genes 20 Torsion [CB]-CG--CD-[CE] |==|  0.56031
USER: genes 21 Torsion [CG]-CD--CE-[NZ] |==|  0.39959
USER: genes 22 Torsion [CD]-CE--NZ-[HZ3] |==|  0.41081
USER: genes 23 Torsion [C]-CA--N-[C] |==|  0.73333
USER: genes 24 Torsion [N]-C--CA-[N] |==|  0.38832
USER: genes 25 Torsion [N]-C--CA-[CB] |==|  0.81539
ROOT
ATOM      1  CA  LYS B 185       2.346  33.000   9.003  1.00 91.41 LIG 0.18  C 
ENDROOT
BRANCH 1 2
ATOM      2  CB  LYS B 185       1.616  32.542  10.270  1.00 90.53 LIG 0.04  C 
BRANCH 2 3
ATOM      3  CG  LYS B 185       0.691  33.565  10.925  1.00 86.81 LIG 0.00  C 
BRANCH 3 4
ATOM      4  CD  LYS B 185      -0.267  32.890  11.915  1.00 79.71 LIG 0.03  C 
BRANCH 4 5
ATOM      5  CE  LYS B 185      -1.056  31.740  11.284  1.00 72.24 LIG 0.23  C 
BRANCH 5 6
ATOM      6  NZ  LYS B 185      -2.471  32.097  10.970  1.00 67.20 LIG-0.08  N 
ATOM      7 HZ1  LYS B 185      -3.017  31.498  11.338  1.00 67.20 LIG 0.27  HD
ATOM      8 HZ3  LYS B 185      -2.587  32.100  10.088  1.00 67.20 LIG 0.27  HD
ATOM      9 HZ2  LYS B 185      -2.653  32.904  11.296  1.00 67.20 LIG 0.27  HD
ENDBRANCH 5 6
ENDBRANCH 4 5
ENDBRANCH 3 4
ENDBRANCH 2 3
ENDBRANCH 1 2
BRANCH 1 10
ATOM     10  C   LYS B 185       2.026  32.049   7.853  1.00 87.67 LIG 0.24  C 
ATOM     11 O    LYS B 185       0.856  31.753   7.593  1.00 75.85 LIG-0.27  OA
ATOM     12  N   ARG B 186       3.073  31.564   7.190  1.00 93.18 LIG-0.35  N 
ATOM     13 H    ARG B 186       3.880  31.820   7.344  1.00 93.18 LIG 0.16  HD
BRANCH 12 14
ATOM     14  CA  ARG B 186       2.980  30.556   6.137  1.00 93.88 LIG 0.18  C 
BRANCH 14 15
ATOM     15  CB  ARG B 186       4.380  30.326   5.546  1.00 94.11 LIG 0.04  C 
BRANCH 15 16
ATOM     16  CG  ARG B 186       4.750  31.345   4.475  1.00 91.13 LIG 0.02  C 
BRANCH 16 17
ATOM     17  CD  ARG B 186       5.557  30.739   3.340  1.00 90.43 LIG 0.14  C 
BRANCH 17 18
ATOM     18  NE  ARG B 186       4.761  30.647   2.117  1.00 88.65 LIG-0.23  N 
ATOM     19 HE   ARG B 186       4.491  31.379   1.755  1.00 88.65 LIG 0.18  HD
ATOM     20  CZ  ARG B 186       4.430  29.500   1.528  1.00 77.61 LIG 0.67  C 
ATOM     21  NH2 ARG B 186       3.700  29.500   0.421  1.00 64.46 LIG-0.23  N 
ATOM     22  NH1 ARG B 186       4.834  28.350   2.048  1.00 71.89 LIG-0.23  N 
ATOM     23 2HH2 ARG B 186       3.489  28.756   0.046  1.00 64.46 LIG 0.17  HD
ATOM     24 1HH2 ARG B 186       3.437  30.244   0.079  1.00 64.46 LIG 0.17  HD
ATOM     25 1HH1 ARG B 186       5.310  28.346   2.765  1.00 71.89 LIG 0.17  HD
ATOM     26 2HH1 ARG B 186       4.620  27.608   1.669  1.00 71.89 LIG 0.17  HD
ENDBRANCH 17 18
ENDBRANCH 16 17
ENDBRANCH 15 16
ENDBRANCH 14 15
BRANCH 14 27
ATOM     27  C   ARG B 186       2.368  29.279   6.753  1.00100.48 LIG 0.24  C 
ATOM     28  N   ALA B 187       2.294  28.144   6.043  1.00104.89 LIG-0.35  N 
ATOM     29 H    ALA B 187       1.950  27.429   6.376  1.00104.89 LIG 0.16  HD
ATOM     30 O    ARG B 186       1.932  29.334   7.905  1.00101.56 LIG-0.27  OA
BRANCH 28 31
ATOM     31  CA  ALA B 187       2.758  27.942   4.669  1.00100.92 LIG 0.16  C 
ATOM     32  CB  ALA B 187       3.862  26.874   4.629  1.00 98.55 LIG 0.04  C 
BRANCH 31 33
ATOM     33  C   ALA B 187       1.609  27.540   3.748  1.00 96.24 LIG 0.22  C 
ATOM     34 O    ALA B 187       1.053  26.448   3.879  1.00 95.92 LIG-0.29  OA
ENDBRANCH 31 33
ENDBRANCH 28 31
ENDBRANCH 14 27
ENDBRANCH 12 14
ENDBRANCH 1 10
BRANCH 1 35
ATOM     35  N   LYS B 185       1.986  34.367   8.631  1.00 94.70 LIG-0.35  N 
ATOM     36 H    LYS B 185       1.170  34.570   8.814  1.00 94.70 LIG 0.16  HD
ATOM     37  C   LYS B 184       2.842  35.223   8.062  1.00 95.69 LIG 0.24  C 
ATOM     38 O    LYS B 184       3.991  34.910   7.738  1.00 96.36 LIG-0.27  OA
BRANCH 37 39
ATOM     39  CA  LYS B 184       2.322  36.640   7.837  1.00 89.09 LIG 0.18  C 
BRANCH 39 40
ATOM     40  CB  LYS B 184       2.515  37.059   6.375  1.00 73.03 LIG 0.04  C 
BRANCH 40 41
ATOM     41  CG  LYS B 184       1.441  38.025   5.858  1.00 60.77 LIG 0.00  C 
BRANCH 41 42
ATOM     42  CD  LYS B 184       1.730  38.480   4.438  1.00 63.88 LIG 0.03  C 
BRANCH 42 43
ATOM     43  CE  LYS B 184       1.029  39.791   4.087  1.00 60.38 LIG 0.23  C 
BRANCH 43 44
ATOM     44  NZ  LYS B 184       1.801  40.725   3.193  1.00 53.06 LIG-0.08  N 
ATOM     45 HZ3  LYS B 184       1.234  41.181   2.680  1.00 53.06 LIG 0.27  HD
ATOM     46 HZ2  LYS B 184       2.353  40.255   2.678  1.00 53.06 LIG 0.27  HD
ATOM     47 HZ1  LYS B 184       2.271  41.293   3.692  1.00 53.06 LIG 0.27  HD
ENDBRANCH 43 44
ENDBRANCH 42 43
ENDBRANCH 41 42
ENDBRANCH 40 41
ENDBRANCH 39 40
BRANCH 39 48
ATOM     48  N   LYS B 184       2.992  37.583   8.724  1.00 95.16 LIG-0.35  N 
ATOM     49 H    LYS B 184       3.749  37.868   8.432  1.00 95.16 LIG 0.16  HD
ATOM     50  C   PRO B 183       2.454  37.957   9.884  1.00102.83 LIG 0.24  C 
ATOM     51 O    PRO B 183       1.362  37.532  10.277  1.00 96.65 LIG-0.27  OA
BRANCH 50 52
ATOM     52  CA  PRO B 183       3.268  38.939  10.723  1.00119.60 LIG 0.18  C 
ATOM     53  N   PRO B 183       2.460  39.981  11.374  1.00125.08 LIG-0.34  N 
ATOM     54  CD  PRO B 183       2.067  39.594  12.742  1.00128.64 LIG 0.13  C 
ATOM     55  C   PRO B 182       2.420  41.222  10.858  1.00122.07 LIG 0.26  C 
ATOM     56  CG  PRO B 183       2.896  38.343  13.012  1.00127.59 LIG 0.02  C 
ATOM     57  CB  PRO B 183       3.932  38.240  11.915  1.00124.68 LIG 0.04  C 
ATOM     58 O    PRO B 182       3.049  41.557   9.851  1.00123.88 LIG-0.27  OA
BRANCH 55 59
ATOM     59  CA  PRO B 182       1.563  42.261  11.585  1.00115.83 LIG 0.35  C 
ATOM     60  CB  PRO B 182       0.073  41.895  11.495  1.00111.53 LIG 0.05  C 
ATOM     61  CG  PRO B 182      -0.641  43.198  11.292  1.00111.42 LIG 0.04  C 
ATOM     62  CD  PRO B 182       0.301  44.046  10.497  1.00113.66 LIG 0.32  C 
ATOM     63  N   PRO B 182       1.625  43.584  10.951  1.00115.25 LIG 0.32  N 
ENDBRANCH 55 59
ENDBRANCH 50 52
ENDBRANCH 39 48
ENDBRANCH 37 39
ENDBRANCH 1 35
TORSDOF 24
ENDMDL
MODEL 2
USER: ADFR SOLUTION from run 124
USER: SCORE 18.322222 LL:  -3.166 LR: -18.202 RR:   0.000 FEB: -11.043
USER: RMSD 2.625270
USER: SEED 123
USER: STATUS no improvement in best in 6 clusters for 5 generations
USER: GENES 26
USER: genes 0 Translation |==|  0.48309 0.46405 0.63515
USER: genes 1 Rotation |==|  0.47804 0.50841 0.47862 0.99899
USER: genes 2 Torsion [C]-CA--CB-[CG] |==|  0.73648
USER: genes 3 Torsion [CA]-CB--CG-[CD] |==|  0.42154
USER: genes 4 Torsion [CB]-CG--CD-[CE] |==|  0.85797
USER: genes 5 Torsion [CG]-CD--CE-[NZ] |==|  0.69180
USER: genes 6 Torsion [CD]-CE--NZ-[HZ1] |==|  0.47812
USER: genes 7 Torsion [N]-CA--C-[N] |==|  0.23859
USER: genes 8 Torsion [C]-N--CA-[CB] |==|  0.49472
USER: genes 9 Torsion [N]-CA--CB-[CG] |==|  0.41148
USER: genes 10 Torsion [CA]-CB--CG-[CD] |==|  0.21088
USER: genes 11 Torsion [CB]-CG--CD-[NE] |==|  0.19426
USER: genes 12 Torsion [CG]-CD--NE-[CZ] |==|  0.34705
USER: genes 13 Torsion [N]-CA--C-[N] |==|  0.85010
USER: genes 14 Torsion [C]-N--CA-[C] |==|  0.70180
USER: genes 15 Torsion [N]-CA--C-[O] |==|  0.96013
USER: genes 16 Torsion [CB]-CA--N-[C] |==|  0.33600
USER: genes 17 Torsion [N]-C--CA-[N] |==|  0.35509
USER: genes 18 Torsion [C]-CA--CB-[CG] |==|  0.34753
USER: genes 19 Torsion [CA]-CB--CG-[CD] |==|  0.46104
USER: genes 20 Torsion [CB]-CG--CD-[CE] |==|  0.62372
USER: genes 21 Torsion [CG]-CD--CE-[NZ] |==|  0.42036
USER: genes 22 Torsion [CD]-CE--NZ-[HZ3] |==|  0.42903
USER: genes 23 Torsion [C]-CA--N-[C] |==|  0.80264
USER: genes 24 Torsion [N]-C--CA-[N] |==|  0.33304
USER: genes 25 Torsion [N]-C--CA-[CB] |==|  0.80514
ROOT
ATOM      1  CA  LYS B 185       2.067  33.754   9.533  1.00 91.41 LIG 0.18  C 
ENDROOT
BRANCH 1 2
ATOM      2  CB  LYS B 185       1.308  33.489  10.838  1.00 90.53 LIG 0.04  C 
BRANCH 2 3
ATOM      3  CG  LYS B 185      -0.008  34.242  11.020  1.00 86.81 LIG 0.00  C 
BRANCH 3 4
ATOM      4  CD  LYS B 185      -0.977  33.455  11.911  1.00 79.71 LIG 0.03  C 
BRANCH 4 5
ATOM      5  CE  LYS B 185      -1.157  32.005  11.452  1.00 72.24 LIG 0.23  C 
BRANCH 5 6
ATOM      6  NZ  LYS B 185      -2.515  31.725  10.900  1.00 67.20 LIG-0.08  N 
ATOM      7 HZ1  LYS B 185      -2.529  30.908  10.546  1.00 67.20 LIG 0.27  HD
ATOM      8 HZ3  LYS B 185      -2.709  32.324  10.271  1.00 67.20 LIG 0.27  HD
ATOM      9 HZ2  LYS B 185      -3.117  31.776  11.553  1.00 67.20 LIG 0.27  HD
ENDBRANCH 5 6
ENDBRANCH 4 5
ENDBRANCH 3 4
ENDBRANCH 2 3
ENDBRANCH 1 2
BRANCH 1 10
ATOM     10  C   LYS B 185       1.707  32.689   8.503  1.00 87.67 LIG 0.24  C 
ATOM     11 O    LYS B 185       0.605  32.131   8.538  1.00 75.85 LIG-0.27  OA
ATOM     12  N   ARG B 186       2.648  32.402   7.607  1.00 93.18 LIG-0.35  N 
ATOM     13 H    ARG B 186       3.389  32.835   7.557  1.00 93.18 LIG 0.16  HD
BRANCH 12 14
ATOM     14  CA  ARG B 186       2.537  31.335   6.615  1.00 93.88 LIG 0.18  C 
BRANCH 14 15
ATOM     15  CB  ARG B 186       3.796  31.345   5.734  1.00 94.11 LIG 0.04  C 
BRANCH 15 16
ATOM     16  CG  ARG B 186       4.189  29.959   5.238  1.00 91.13 LIG 0.02  C 
BRANCH 16 17
ATOM     17  CD  ARG B 186       3.301  29.465   4.109  1.00 90.43 LIG 0.14  C 
BRANCH 17 18
ATOM     18  NE  ARG B 186       3.540  30.221   2.880  1.00 88.65 LIG-0.23  N 
ATOM     19 HE   ARG B 186       3.467  31.078   2.912  1.00 88.65 LIG 0.18  HD
ATOM     20  CZ  ARG B 186       3.864  29.665   1.715  1.00 77.61 LIG 0.67  C 
ATOM     21  NH2 ARG B 186       4.061  30.421   0.643  1.00 64.46 LIG-0.23  N 
ATOM     22  NH1 ARG B 186       3.995  28.350   1.624  1.00 71.89 LIG-0.23  N 
ATOM     23 2HH2 ARG B 186       4.270  30.056  -0.108  1.00 64.46 LIG 0.17  HD
ATOM     24 1HH2 ARG B 186       3.979  31.275   0.697  1.00 64.46 LIG 0.17  HD
ATOM     25 1HH1 ARG B 186       3.871  27.857   2.318  1.00 71.89 LIG 0.17  HD
ATOM     26 2HH1 ARG B 186       4.205  27.990   0.871  1.00 71.89 LIG 0.17  HD
ENDBRANCH 17 18
ENDBRANCH 16 17
ENDBRANCH 15 16
ENDBRANCH 14 15
BRANCH 14 27
ATOM     27  C   ARG B 186       2.339  30.002   7.370  1.00100.48 LIG 0.24  C 
ATOM     28  N   ALA B 187       3.200  29.620   8.323  1.00104.89 LIG-0.35  N 
ATOM     29 H    ALA B 187       3.101  28.878   8.745  1.00104.89 LIG 0.16  HD
ATOM     30 O    ARG B 186       1.381  29.290   7.061  1.00101.56 LIG-0.27  OA
BRANCH 28 31
ATOM     31  CA  ALA B 187       4.381  30.358   8.778  1.00100.92 LIG 0.16  C 
ATOM     32  CB  ALA B 187       4.389  30.461  10.311  1.00 98.55 LIG 0.04  C 
BRANCH 31 33
ATOM     33  C   ALA B 187       5.669  29.697   8.293  1.00 96.24 LIG 0.22  C 
ATOM     34 O    ALA B 187       5.656  28.551   7.842  1.00 95.92 LIG-0.29  OA
ENDBRANCH 31 33
ENDBRANCH 28 31
ENDBRANCH 14 27
ENDBRANCH 12 14
ENDBRANCH 1 10
BRANCH 1 35
ATOM     35  N   LYS B 185       1.778  35.083   8.996  1.00 94.70 LIG-0.35  N 
ATOM     36 H    LYS B 185       0.945  35.213   8.829  1.00 94.70 LIG 0.16  HD
ATOM     37  C   LYS B 184       2.719  36.009   8.783  1.00 95.69 LIG 0.24  C 
ATOM     38 O    LYS B 184       3.923  35.798   8.958  1.00 96.36 LIG-0.27  OA
BRANCH 37 39
ATOM     39  CA  LYS B 184       2.222  37.374   8.314  1.00 89.09 LIG 0.18  C 
BRANCH 39 40
ATOM     40  CB  LYS B 184       2.609  37.614   6.850  1.00 73.03 LIG 0.04  C 
BRANCH 40 41
ATOM     41  CG  LYS B 184       1.422  37.958   5.942  1.00 60.77 LIG 0.00  C 
BRANCH 41 42
ATOM     42  CD  LYS B 184       1.879  38.514   4.604  1.00 63.88 LIG 0.03  C 
BRANCH 42 43
ATOM     43  CE  LYS B 184       1.077  39.741   4.173  1.00 60.38 LIG 0.23  C 
BRANCH 43 44
ATOM     44  NZ  LYS B 184       1.808  40.725   3.299  1.00 53.06 LIG-0.08  N 
ATOM     45 HZ3  LYS B 184       1.221  41.178   2.806  1.00 53.06 LIG 0.27  HD
ATOM     46 HZ2  LYS B 184       2.369  40.288   2.764  1.00 53.06 LIG 0.27  HD
ATOM     47 HZ1  LYS B 184       2.266  41.292   3.810  1.00 53.06 LIG 0.27  HD
ENDBRANCH 43 44
ENDBRANCH 42 43
ENDBRANCH 41 42
ENDBRANCH 40 41
ENDBRANCH 39 40
BRANCH 39 48
ATOM     48  N   LYS B 184       2.756  38.436   9.157  1.00 95.16 LIG-0.35  N 
ATOM     49 H    LYS B 184       3.350  38.928   8.775  1.00 95.16 LIG 0.16  HD
ATOM     50  C   PRO B 183       2.343  38.610  10.411  1.00102.83 LIG 0.24  C 
ATOM     51 O    PRO B 183       1.487  37.888  10.934  1.00 96.65 LIG-0.27  OA
BRANCH 50 52
ATOM     52  CA  PRO B 183       2.995  39.750  11.189  1.00119.60 LIG 0.18  C 
ATOM     53  N   PRO B 183       2.048  40.774  11.654  1.00125.08 LIG-0.34  N 
ATOM     54  CD  PRO B 183       1.578  40.502  13.025  1.00128.64 LIG 0.13  C 
ATOM     55  C   PRO B 182       1.942  41.943  10.997  1.00122.07 LIG 0.26  C 
ATOM     56  CG  PRO B 183       2.487  39.373  13.497  1.00127.59 LIG 0.02  C 
ATOM     57  CB  PRO B 183       3.617  39.252  12.499  1.00124.68 LIG 0.04  C 
ATOM     58 O    PRO B 182       2.621  42.225  10.007  1.00123.88 LIG-0.27  OA
BRANCH 55 59
ATOM     59  CA  PRO B 182       0.940  42.966  11.534  1.00115.83 LIG 0.35  C 
ATOM     60  CB  PRO B 182      -0.502  42.493  11.296  1.00111.53 LIG 0.05  C 
ATOM     61  CG  PRO B 182      -1.264  43.725  10.910  1.00111.42 LIG 0.04  C 
ATOM     62  CD  PRO B 182      -0.284  44.580  10.171  1.00113.66 LIG 0.32  C 
ATOM     63  N   PRO B 182       1.000  44.244  10.813  1.00115.25 LIG 0.32  N 
ENDBRANCH 55 59
ENDBRANCH 50 52
ENDBRANCH 39 48
ENDBRANCH 37 39
ENDBRANCH 1 35
TORSDOF 24
ENDMDL
MODEL 3
USER: ADFR SOLUTION from run 90
USER: SCORE 17.714124 LL:  -3.233 LR: -18.000 RR:   0.000 FEB: -10.841
USER: RMSD 2.039788
USER: SEED 89
USER: STATUS no improvement in best in 2 clusters for 5 generations
USER: GENES 26
USER: genes 0 Translation |==|  0.49626 0.44838 0.61876
USER: genes 1 Rotation |==|  0.49919 0.48831 0.48963 0.99976
USER: genes 2 Torsion [C]-CA--CB-[CG] |==|  0.69676
USER: genes 3 Torsion [CA]-CB--CG-[CD] |==|  0.48206
USER: genes 4 Torsion [CB]-CG--CD-[CE] |==|  0.84820
USER: genes 5 Torsion [CG]-CD--CE-[NZ] |==|  0.73025
USER: genes 6 Torsion [CD]-CE--NZ-[HZ1] |==|  0.75977
USER: genes 7 Torsion [N]-CA--C-[N] |==|  0.28052
USER: genes 8 Torsion [C]-N--CA-[CB] |==|  0.35538
USER: genes 9 Torsion [N]-CA--CB-[CG] |==|  0.08185
USER: genes 10 Torsion [CA]-CB--CG-[CD] |==|  0.43499
USER: genes 11 Torsion [CB]-CG--CD-[NE] |==|  0.14936
USER: genes 12 Torsion [CG]-CD--NE-[CZ] |==|  0.55249
USER: genes 13 Torsion [N]-CA--C-[N] |==|  0.24461
USER: genes 14 Torsion [C]-N--CA-[C] |==|  0.71911
USER: genes 15 Torsion [N]-CA--C-[O] |==|  0.38113
USER: genes 16 Torsion [CB]-CA--N-[C] |==|  0.36818
USER: genes 17 Torsion [N]-C--CA-[N] |==|  0.34172
USER: genes 18 Torsion [C]-CA--CB-[CG] |==|  0.36925
USER: genes 19 Torsion [CA]-CB--CG-[CD] |==|  0.45898
USER: genes 20 Torsion [CB]-CG--CD-[CE] |==|  0.59381
USER: genes 21 Torsion [CG]-CD--CE-[NZ] |==|  0.44726
USER: genes 22 Torsion [CD]-CE--NZ-[HZ3] |==|  0.07946
USER: genes 23 Torsion [C]-CA--N-[C] |==|  0.74444
USER: genes 24 Torsion [N]-C--CA-[N] |==|  0.37733
USER: genes 25 Torsion [N]-C--CA-[CB] |==|  0.82448
ROOT
ATOM      1  CA  LYS B 185       2.294  33.331   9.201  1.00 91.41 LIG 0.18  C 
ENDROOT
BRANCH 1 2
ATOM      2  CB  LYS B 185       1.447  32.926  10.412  1.00 90.53 LIG 0.04  C 
BRANCH 2 3
ATOM      3  CG  LYS B 185       0.257  33.825  10.737  1.00 86.81 LIG 0.00  C 
BRANCH 3 4
ATOM      4  CD  LYS B 185      -0.596  33.228  11.863  1.00 79.71 LIG 0.03  C 
BRANCH 4 5
ATOM      5  CE  LYS B 185      -1.054  31.798  11.563  1.00 72.24 LIG 0.23  C 
BRANCH 5 6
ATOM      6  NZ  LYS B 185      -2.435  31.725  11.002  1.00 67.20 LIG-0.08  N 
ATOM      7 HZ1  LYS B 185      -3.026  31.699  11.668  1.00 67.20 LIG 0.27  HD
ATOM      8 HZ3  LYS B 185      -2.515  30.991  10.506  1.00 67.20 LIG 0.27  HD
ATOM      9 HZ2  LYS B 185      -2.589  32.442  10.497  1.00 67.20 LIG 0.27  HD
ENDBRANCH 5 6
ENDBRANCH 4 5
ENDBRANCH 3 4
ENDBRANCH 2 3
ENDBRANCH 1 2
BRANCH 1 10
ATOM     10  C   LYS B 185       2.070  32.341   8.062  1.00 87.67 LIG 0.24  C 
ATOM     11 O    LYS B 185       0.932  31.947   7.791  1.00 75.85 LIG-0.27  OA
ATOM     12  N   ARG B 186       3.163  31.933   7.422  1.00 93.18 LIG-0.35  N 
ATOM     13 H    ARG B 186       3.944  32.256   7.583  1.00 93.18 LIG 0.16  HD
BRANCH 12 14
ATOM     14  CA  ARG B 186       3.167  30.905   6.384  1.00 93.88 LIG 0.18  C 
BRANCH 14 15
ATOM     15  CB  ARG B 186       3.887  31.458   5.143  1.00 94.11 LIG 0.04  C 
BRANCH 15 16
ATOM     16  CG  ARG B 186       4.955  32.488   5.482  1.00 91.13 LIG 0.02  C 
BRANCH 16 17
ATOM     17  CD  ARG B 186       6.017  32.613   4.402  1.00 90.43 LIG 0.14  C 
BRANCH 17 18
ATOM     18  NE  ARG B 186       5.413  32.874   3.097  1.00 88.65 LIG-0.23  N 
ATOM     19 HE   ARG B 186       4.608  33.175   3.077  1.00 88.65 LIG 0.18  HD
ATOM     20  CZ  ARG B 186       6.035  32.675   1.936  1.00 77.61 LIG 0.67  C 
ATOM     21  NH2 ARG B 186       5.416  32.932   0.791  1.00 64.46 LIG-0.23  N 
ATOM     22  NH1 ARG B 186       7.279  32.221   1.923  1.00 71.89 LIG-0.23  N 
ATOM     23 2HH2 ARG B 186       5.823  32.802   0.045  1.00 64.46 LIG 0.17  HD
ATOM     24 1HH2 ARG B 186       4.609  33.229   0.795  1.00 64.46 LIG 0.17  HD
ATOM     25 1HH1 ARG B 186       7.685  32.056   2.663  1.00 71.89 LIG 0.17  HD
ATOM     26 2HH1 ARG B 186       7.682  32.092   1.173  1.00 71.89 LIG 0.17  HD
ENDBRANCH 17 18
ENDBRANCH 16 17
ENDBRANCH 15 16
ENDBRANCH 14 15
BRANCH 14 27
ATOM     27  C   ARG B 186       3.846  29.645   6.963  1.00100.48 LIG 0.24  C 
ATOM     28  N   ALA B 187       3.131  28.725   7.626  1.00104.89 LIG-0.35  N 
ATOM     29 H    ALA B 187       3.501  28.023   7.958  1.00104.89 LIG 0.16  HD
ATOM     30 O    ARG B 186       5.064  29.516   6.819  1.00101.56 LIG-0.27  OA
BRANCH 28 31
ATOM     31  CA  ALA B 187       1.689  28.759   7.882  1.00100.92 LIG 0.16  C 
ATOM     32  CB  ALA B 187       1.070  27.375   7.634  1.00 98.55 LIG 0.04  C 
BRANCH 31 33
ATOM     33  C   ALA B 187       1.388  29.217   9.307  1.00 96.24 LIG 0.22  C 
ATOM     34 O    ALA B 187       0.479  30.017   9.530  1.00 95.92 LIG-0.29  OA
ENDBRANCH 31 33
ENDBRANCH 28 31
ENDBRANCH 14 27
ENDBRANCH 12 14
ENDBRANCH 1 10
BRANCH 1 35
ATOM     35  N   LYS B 185       1.984  34.686   8.749  1.00 94.70 LIG-0.35  N 
ATOM     36 H    LYS B 185       1.141  34.840   8.675  1.00 94.70 LIG 0.16  HD
ATOM     37  C   LYS B 184       2.920  35.602   8.477  1.00 95.69 LIG 0.24  C 
ATOM     38 O    LYS B 184       4.130  35.360   8.517  1.00 96.36 LIG-0.27  OA
BRANCH 37 39
ATOM     39  CA  LYS B 184       2.411  36.995   8.115  1.00 89.09 LIG 0.18  C 
BRANCH 39 40
ATOM     40  CB  LYS B 184       2.757  37.334   6.661  1.00 73.03 LIG 0.04  C 
BRANCH 40 41
ATOM     41  CG  LYS B 184       1.583  37.917   5.863  1.00 60.77 LIG 0.00  C 
BRANCH 41 42
ATOM     42  CD  LYS B 184       2.048  38.564   4.569  1.00 63.88 LIG 0.03  C 
BRANCH 42 43
ATOM     43  CE  LYS B 184       1.207  39.778   4.183  1.00 60.38 LIG 0.23  C 
BRANCH 43 44
ATOM     44  NZ  LYS B 184       1.840  40.725   3.198  1.00 53.06 LIG-0.08  N 
ATOM     45 HZ3  LYS B 184       2.403  40.276   2.675  1.00 53.06 LIG 0.27  HD
ATOM     46 HZ2  LYS B 184       2.285  41.358   3.638  1.00 53.06 LIG 0.27  HD
ATOM     47 HZ1  LYS B 184       1.207  41.101   2.698  1.00 53.06 LIG 0.27  HD
ENDBRANCH 43 44
ENDBRANCH 42 43
ENDBRANCH 41 42
ENDBRANCH 40 41
ENDBRANCH 39 40
BRANCH 39 48
ATOM     48  N   LYS B 184       2.968  37.997   9.013  1.00 95.16 LIG-0.35  N 
ATOM     49 H    LYS B 184       3.725  38.319   8.761  1.00 95.16 LIG 0.16  HD
ATOM     50  C   PRO B 183       2.338  38.369  10.127  1.00102.83 LIG 0.24  C 
ATOM     51 O    PRO B 183       1.250  37.891  10.465  1.00 96.65 LIG-0.27  OA
BRANCH 50 52
ATOM     52  CA  PRO B 183       3.040  39.418  10.986  1.00119.60 LIG 0.18  C 
ATOM     53  N   PRO B 183       2.150  40.479  11.479  1.00125.08 LIG-0.34  N 
ATOM     54  CD  PRO B 183       1.616  40.166  12.819  1.00128.64 LIG 0.13  C 
ATOM     55  C   PRO B 182       2.145  41.685  10.886  1.00122.07 LIG 0.26  C 
ATOM     56  CG  PRO B 183       2.431  38.954  13.254  1.00127.59 LIG 0.02  C 
ATOM     57  CB  PRO B 183       3.582  38.808  12.284  1.00124.68 LIG 0.04  C 
ATOM     58 O    PRO B 182       2.874  41.972   9.933  1.00123.88 LIG-0.27  OA
BRANCH 55 59
ATOM     59  CA  PRO B 182       1.197  42.746  11.450  1.00115.83 LIG 0.35  C 
ATOM     60  CB  PRO B 182      -0.266  42.304  11.296  1.00111.53 LIG 0.05  C 
ATOM     61  CG  PRO B 182      -1.016  43.547  10.921  1.00111.42 LIG 0.04  C 
ATOM     62  CD  PRO B 182      -0.055  44.360  10.113  1.00113.66 LIG 0.32  C 
ATOM     63  N   PRO B 182       1.251  44.005  10.696  1.00115.25 LIG 0.32  N 
ENDBRANCH 55 59
ENDBRANCH 50 52
ENDBRANCH 39 48
ENDBRANCH 37 39
ENDBRANCH 1 35
TORSDOF 24
ENDMDL
MODEL 4
USER: ADFR SOLUTION from run 142
USER: SCORE 17.945027 LL:  -2.245 LR: -17.906 RR:   0.000 FEB: -10.746
USER: RMSD 2.913216
USER: SEED 141
USER: STATUS no improvement in best in 2 clusters for 5 generations
USER: GENES 26
USER: genes 0 Translation |==|  0.50898 0.43540 0.59083
USER: genes 1 Rotation |==|  0.46992 0.53865 0.48937 0.99748
USER: genes 2 Torsion [C]-CA--CB-[CG] |==|  0.70619
USER: genes 3 Torsion [CA]-CB--CG-[CD] |==|  0.42520
USER: genes 4 Torsion [CB]-CG--CD-[CE] |==|  0.82132
USER: genes 5 Torsion [CG]-CD--CE-[NZ] |==|  0.65485
USER: genes 6 Torsion [CD]-CE--NZ-[HZ1] |==|  0.47494
USER: genes 7 Torsion [N]-CA--C-[N] |==|  0.32514
USER: genes 8 Torsion [C]-N--CA-[CB] |==|  0.50000
USER: genes 9 Torsion [N]-CA--CB-[CG] |==|  0.82280
USER: genes 10 Torsion [CA]-CB--CG-[CD] |==|  0.66263
USER: genes 11 Torsion [CB]-CG--CD-[NE] |==|  0.28562
USER: genes 12 Torsion [CG]-CD--NE-[CZ] |==|  0.61216
USER: genes 13 Torsion [N]-CA--C-[N] |==|  0.50525
USER: genes 14 Torsion [C]-N--CA-[C] |==|  0.61918
USER: genes 15 Torsion [N]-CA--C-[O] |==|  0.90301
USER: genes 16 Torsion [CB]-CA--N-[C] |==|  0.30493
USER: genes 17 Torsion [N]-C--CA-[N] |==|  0.46666
USER: genes 18 Torsion [C]-CA--CB-[CG] |==|  0.46644
USER: genes 19 Torsion [CA]-CB--CG-[CD] |==|  0.30622
USER: genes 20 Torsion [CB]-CG--CD-[CE] |==|  0.51668
USER: genes 21 Torsion [CG]-CD--CE-[NZ] |==|  0.58158
USER: genes 22 Torsion [CD]-CE--NZ-[HZ3] |==|  0.29632
USER: genes 23 Torsion [C]-CA--N-[C] |==|  0.67709
USER: genes 24 Torsion [N]-C--CA-[N] |==|  0.28013
USER: genes 25 Torsion [N]-C--CA-[CB] |==|  0.18190
ROOT
ATOM      1  CA  LYS B 185       2.514  32.981   8.635  1.00 91.41 LIG 0.18  C 
ENDROOT
BRANCH 1 2
ATOM      2  CB  LYS B 185       1.932  32.727  10.031  1.00 90.53 LIG 0.04  C 
BRANCH 2 3
ATOM      3  CG  LYS B 185       0.772  33.624  10.454  1.00 86.81 LIG 0.00  C 
BRANCH 3 4
ATOM      4  CD  LYS B 185      -0.129  32.918  11.475  1.00 79.71 LIG 0.03  C 
BRANCH 4 5
ATOM      5  CE  LYS B 185      -0.824  31.683  10.896  1.00 72.24 LIG 0.23  C 
BRANCH 5 6
ATOM      6  NZ  LYS B 185      -2.310  31.726  11.027  1.00 67.20 LIG-0.08  N 
ATOM      7 HZ1  LYS B 185      -2.669  31.056  10.563  1.00 67.20 LIG 0.27  HD
ATOM      8 HZ3  LYS B 185      -2.614  32.500  10.710  1.00 67.20 LIG 0.27  HD
ATOM      9 HZ2  LYS B 185      -2.536  31.647  11.884  1.00 67.20 LIG 0.27  HD
ENDBRANCH 5 6
ENDBRANCH 4 5
ENDBRANCH 3 4
ENDBRANCH 2 3
ENDBRANCH 1 2
BRANCH 1 10
ATOM     10  C   LYS B 185       2.071  31.873   7.684  1.00 87.67 LIG 0.24  C 
ATOM     11 O    LYS B 185       0.871  31.669   7.476  1.00 75.85 LIG-0.27  OA
ATOM     12  N   ARG B 186       3.046  31.155   7.132  1.00 93.18 LIG-0.35  N 
ATOM     13 H    ARG B 186       3.879  31.341   7.241  1.00 93.18 LIG 0.16  HD
BRANCH 12 14
ATOM     14  CA  ARG B 186       2.823  29.983   6.289  1.00 93.88 LIG 0.18  C 
BRANCH 14 15
ATOM     15  CB  ARG B 186       4.185  29.428   5.843  1.00 94.11 LIG 0.04  C 
BRANCH 15 16
ATOM     16  CG  ARG B 186       4.968  30.399   4.969  1.00 91.13 LIG 0.02  C 
BRANCH 16 17
ATOM     17  CD  ARG B 186       5.306  29.822   3.605  1.00 90.43 LIG 0.14  C 
BRANCH 17 18
ATOM     18  NE  ARG B 186       4.424  30.362   2.571  1.00 88.65 LIG-0.23  N 
ATOM     19 HE   ARG B 186       4.224  31.198   2.607  1.00 88.65 LIG 0.18  HD
ATOM     20  CZ  ARG B 186       3.912  29.639   1.578  1.00 77.61 LIG 0.67  C 
ATOM     21  NH2 ARG B 186       3.114  30.202   0.680  1.00 64.46 LIG-0.23  N 
ATOM     22  NH1 ARG B 186       4.201  28.350   1.481  1.00 71.89 LIG-0.23  N 
ATOM     23 2HH2 ARG B 186       2.786  29.730   0.040  1.00 64.46 LIG 0.17  HD
ATOM     24 1HH2 ARG B 186       2.925  31.040   0.737  1.00 64.46 LIG 0.17  HD
ATOM     25 1HH1 ARG B 186       4.720  27.982   2.060  1.00 71.89 LIG 0.17  HD
ATOM     26 2HH1 ARG B 186       3.870  27.882   0.840  1.00 71.89 LIG 0.17  HD
ENDBRANCH 17 18
ENDBRANCH 16 17
ENDBRANCH 15 16
ENDBRANCH 14 15
BRANCH 14 27
ATOM     27  C   ARG B 186       1.991  28.965   7.098  1.00100.48 LIG 0.24  C 
ATOM     28  N   ALA B 187       1.670  27.773   6.575  1.00104.89 LIG-0.35  N 
ATOM     29 H    ALA B 187       1.203  27.202   7.016  1.00104.89 LIG 0.16  HD
ATOM     30 O    ARG B 186       1.613  29.282   8.228  1.00101.56 LIG-0.27  OA
BRANCH 28 31
ATOM     31  CA  ALA B 187       2.039  27.275   5.248  1.00100.92 LIG 0.16  C 
ATOM     32  CB  ALA B 187       3.233  26.313   5.351  1.00 98.55 LIG 0.04  C 
BRANCH 31 33
ATOM     33  C   ALA B 187       0.863  26.575   4.571  1.00 96.24 LIG 0.22  C 
ATOM     34 O    ALA B 187       0.055  25.922   5.233  1.00 95.92 LIG-0.29  OA
ENDBRANCH 31 33
ENDBRANCH 28 31
ENDBRANCH 14 27
ENDBRANCH 12 14
ENDBRANCH 1 10
BRANCH 1 35
ATOM     35  N   LYS B 185       2.109  34.282   8.106  1.00 94.70 LIG-0.35  N 
ATOM     36 H    LYS B 185       1.276  34.325   7.898  1.00 94.70 LIG 0.16  HD
ATOM     37  C   LYS B 184       2.952  35.310   7.959  1.00 95.69 LIG 0.24  C 
ATOM     38 O    LYS B 184       4.162  35.226   8.193  1.00 96.36 LIG-0.27  OA
BRANCH 37 39
ATOM     39  CA  LYS B 184       2.333  36.622   7.487  1.00 89.09 LIG 0.18  C 
BRANCH 39 40
ATOM     40  CB  LYS B 184       1.877  36.509   6.028  1.00 73.03 LIG 0.04  C 
BRANCH 40 41
ATOM     41  CG  LYS B 184       0.987  37.669   5.563  1.00 60.77 LIG 0.00  C 
BRANCH 41 42
ATOM     42  CD  LYS B 184       1.701  38.560   4.562  1.00 63.88 LIG 0.03  C 
BRANCH 42 43
ATOM     43  CE  LYS B 184       0.890  39.802   4.196  1.00 60.38 LIG 0.23  C 
BRANCH 43 44
ATOM     44  NZ  LYS B 184       1.123  40.350   2.813  1.00 53.06 LIG-0.08  N 
ATOM     45 HZ3  LYS B 184       0.421  40.165   2.298  1.00 53.06 LIG 0.27  HD
ATOM     46 HZ2  LYS B 184       1.852  39.977   2.464  1.00 53.06 LIG 0.27  HD
ATOM     47 HZ1  LYS B 184       1.234  41.232   2.858  1.00 53.06 LIG 0.27  HD
ENDBRANCH 43 44
ENDBRANCH 42 43
ENDBRANCH 41 42
ENDBRANCH 40 41
ENDBRANCH 39 40
BRANCH 39 48
ATOM     48  N   LYS B 184       3.278  37.721   7.635  1.00 95.16 LIG-0.35  N 
ATOM     49 H    LYS B 184       3.985  37.650   7.149  1.00 95.16 LIG 0.16  HD
ATOM     50  C   PRO B 183       3.044  38.741   8.460  1.00102.83 LIG 0.24  C 
ATOM     51 O    PRO B 183       2.018  38.819   9.144  1.00 96.65 LIG-0.27  OA
BRANCH 50 52
ATOM     52  CA  PRO B 183       4.123  39.818   8.530  1.00119.60 LIG 0.18  C 
ATOM     53  N   PRO B 183       3.817  41.024   7.748  1.00125.08 LIG-0.34  N 
ATOM     54  CD  PRO B 183       3.151  42.054   8.568  1.00128.64 LIG 0.13  C 
ATOM     55  C   PRO B 182       4.399  41.218   6.552  1.00122.07 LIG 0.26  C 
ATOM     56  CG  PRO B 183       3.286  41.521   9.990  1.00127.59 LIG 0.02  C 
ATOM     57  CB  PRO B 183       4.269  40.373   9.952  1.00124.68 LIG 0.04  C 
ATOM     58 O    PRO B 182       5.212  40.431   6.060  1.00123.88 LIG-0.27  OA
BRANCH 55 59
ATOM     59  CA  PRO B 182       4.039  42.495   5.789  1.00115.83 LIG 0.35  C 
ATOM     60  CB  PRO B 182       4.533  43.738   6.544  1.00111.53 LIG 0.05  C 
ATOM     61  CG  PRO B 182       3.446  44.757   6.381  1.00111.42 LIG 0.04  C 
ATOM     62  CD  PRO B 182       2.173  43.973   6.333  1.00113.66 LIG 0.32  C 
ATOM     63  N   PRO B 182       2.588  42.707   5.703  1.00115.25 LIG 0.32  N 
ENDBRANCH 55 59
ENDBRANCH 50 52
ENDBRANCH 39 48
ENDBRANCH 37 39
ENDBRANCH 1 35
TORSDOF 24
ENDMDL
MODEL 5
USER: ADFR SOLUTION from run 191
USER: SCORE 18.454610 LL:  -2.708 LR: -17.883 RR:   0.000 FEB: -10.724
USER: RMSD 2.036436
USER: SEED 190
USER: STATUS no improvement in best in 4 clusters for 5 generations
USER: GENES 26
USER: genes 0 Translation |==|  0.52443 0.44166 0.57789
USER: genes 1 Rotation |==|  0.54940 0.45370 0.51710 0.99510
USER: genes 2 Torsion [C]-CA--CB-[CG] |==|  0.75238
USER: genes 3 Torsion [CA]-CB--CG-[CD] |==|  0.63040
USER: genes 4 Torsion [CB]-CG--CD-[CE] |==|  0.74144
USER: genes 5 Torsion [CG]-CD--CE-[NZ] |==|  0.74964
USER: genes 6 Torsion [CD]-CE--NZ-[HZ1] |==|  0.64674
USER: genes 7 Torsion [N]-CA--C-[N] |==|  0.22979
USER: genes 8 Torsion [C]-N--CA-[CB] |==|  0.49460
USER: genes 9 Torsion [N]-CA--CB-[CG] |==|  0.88059
USER: genes 10 Torsion [CA]-CB--CG-[CD] |==|  0.54988
USER: genes 11 Torsion [CB]-CG--CD-[NE] |==|  0.20615
USER: genes 12 Torsion [CG]-CD--NE-[CZ] |==|  0.75811
USER: genes 13 Torsion [N]-CA--C-[N] |==|  0.45452
USER: genes 14 Torsion [C]-N--CA-[C] |==|  0.67290
USER: genes 15 Torsion [N]-CA--C-[O] |==|  0.07231
USER: genes 16 Torsion [CB]-CA--N-[C] |==|  0.24444
USER: genes 17 Torsion [N]-C--CA-[N] |==|  0.51446
USER: genes 18 Torsion [C]-CA--CB-[CG] |==|  0.41253
USER: genes 19 Torsion [CA]-CB--CG-[CD] |==|  0.55133
USER: genes 20 Torsion [CB]-CG--CD-[CE] |==|  0.59630
USER: genes 21 Torsion [CG]-CD--CE-[NZ] |==|  0.65913
USER: genes 22 Torsion [CD]-CE--NZ-[HZ3] |==|  0.26991
USER: genes 23 Torsion [C]-CA--N-[C] |==|  0.73686
USER: genes 24 Torsion [N]-C--CA-[N] |==|  0.36683
USER: genes 25 Torsion [N]-C--CA-[CB] |==|  0.81032
ROOT
ATOM      1  CA  LYS B 185       2.780  33.150   8.373  1.00 91.41 LIG 0.18  C 
ENDROOT
BRANCH 1 2
ATOM      2  CB  LYS B 185       1.841  32.426   9.345  1.00 90.53 LIG 0.04  C 
BRANCH 2 3
ATOM      3  CG  LYS B 185       0.370  32.832   9.293  1.00 86.81 LIG 0.00  C 
BRANCH 3 4
ATOM      4  CD  LYS B 185      -0.187  33.073  10.701  1.00 79.71 LIG 0.03  C 
BRANCH 4 5
ATOM      5  CE  LYS B 185      -0.847  31.827  11.297  1.00 72.24 LIG 0.23  C 
BRANCH 5 6
ATOM      6  NZ  LYS B 185      -2.304  31.725  10.989  1.00 67.20 LIG-0.08  N 
ATOM      7 HZ1  LYS B 185      -2.760  31.611  11.745  1.00 67.20 LIG 0.27  HD
ATOM      8 HZ3  LYS B 185      -2.446  31.031  10.451  1.00 67.20 LIG 0.27  HD
ATOM      9 HZ2  LYS B 185      -2.576  32.472  10.589  1.00 67.20 LIG 0.27  HD
ENDBRANCH 5 6
ENDBRANCH 4 5
ENDBRANCH 3 4
ENDBRANCH 2 3
ENDBRANCH 1 2
BRANCH 1 10
ATOM     10  C   LYS B 185       2.834  32.392   7.050  1.00 87.67 LIG 0.24  C 
ATOM     11 O    LYS B 185       1.894  31.670   6.704  1.00 75.85 LIG-0.27  OA
ATOM     12  N   ARG B 186       3.945  32.549   6.334  1.00 93.18 LIG-0.35  N 
ATOM     13 H    ARG B 186       4.569  33.097   6.558  1.00 93.18 LIG 0.16  HD
BRANCH 12 14
ATOM     14  CA  ARG B 186       4.234  31.821   5.101  1.00 93.88 LIG 0.18  C 
BRANCH 14 15
ATOM     15  CB  ARG B 186       5.581  32.307   4.543  1.00 94.11 LIG 0.04  C 
BRANCH 15 16
ATOM     16  CG  ARG B 186       5.744  33.820   4.610  1.00 91.13 LIG 0.02  C 
BRANCH 16 17
ATOM     17  CD  ARG B 186       6.840  34.335   3.693  1.00 90.43 LIG 0.14  C 
BRANCH 17 18
ATOM     18  NE  ARG B 186       6.415  34.305   2.294  1.00 88.65 LIG-0.23  N 
ATOM     19 HE   ARG B 186       6.058  35.015   1.965  1.00 88.65 LIG 0.18  HD
ATOM     20  CZ  ARG B 186       6.547  33.245   1.499  1.00 77.61 LIG 0.67  C 
ATOM     21  NH2 ARG B 186       6.132  33.295   0.240  1.00 64.46 LIG-0.23  N 
ATOM     22  NH1 ARG B 186       7.100  32.135   1.964  1.00 71.89 LIG-0.23  N 
ATOM     23 2HH2 ARG B 186       6.220  32.608  -0.269  1.00 64.46 LIG 0.17  HD
ATOM     24 1HH2 ARG B 186       5.775  34.015  -0.067  1.00 64.46 LIG 0.17  HD
ATOM     25 1HH1 ARG B 186       7.373  32.100   2.779  1.00 71.89 LIG 0.17  HD
ATOM     26 2HH1 ARG B 186       7.186  31.450   1.451  1.00 71.89 LIG 0.17  HD
ENDBRANCH 17 18
ENDBRANCH 16 17
ENDBRANCH 15 16
ENDBRANCH 14 15
BRANCH 14 27
ATOM     27  C   ARG B 186       4.224  30.311   5.425  1.00100.48 LIG 0.24  C 
ATOM     28  N   ALA B 187       4.133  29.401   4.445  1.00104.89 LIG-0.35  N 
ATOM     29 H    ALA B 187       4.122  28.558   4.616  1.00104.89 LIG 0.16  HD
ATOM     30 O    ARG B 186       4.281  29.965   6.607  1.00101.56 LIG-0.27  OA
BRANCH 28 31
ATOM     31  CA  ALA B 187       4.045  29.671   3.009  1.00100.92 LIG 0.16  C 
ATOM     32  CB  ALA B 187       5.231  29.032   2.270  1.00 98.55 LIG 0.04  C 
BRANCH 31 33
ATOM     33  C   ALA B 187       2.731  29.158   2.426  1.00 96.24 LIG 0.22  C 
ATOM     34 O    ALA B 187       1.731  29.043   3.137  1.00 95.92 LIG-0.29  OA
ENDBRANCH 31 33
ENDBRANCH 28 31
ENDBRANCH 14 27
ENDBRANCH 12 14
ENDBRANCH 1 10
BRANCH 1 35
ATOM     35  N   LYS B 185       2.362  34.530   8.138  1.00 94.70 LIG-0.35  N 
ATOM     36 H    LYS B 185       1.840  34.622   7.460  1.00 94.70 LIG 0.16  HD
ATOM     37  C   LYS B 184       2.750  35.556   8.904  1.00 95.69 LIG 0.24  C 
ATOM     38 O    LYS B 184       3.553  35.434   9.835  1.00 96.36 LIG-0.27  OA
BRANCH 37 39
ATOM     39  CA  LYS B 184       2.134  36.912   8.572  1.00 89.09 LIG 0.18  C 
BRANCH 39 40
ATOM     40  CB  LYS B 184       2.313  37.235   7.084  1.00 73.03 LIG 0.04  C 
BRANCH 40 41
ATOM     41  CG  LYS B 184       1.178  38.080   6.491  1.00 60.77 LIG 0.00  C 
BRANCH 41 42
ATOM     42  CD  LYS B 184       1.150  37.999   4.974  1.00 63.88 LIG 0.03  C 
BRANCH 42 43
ATOM     43  CE  LYS B 184       0.717  39.311   4.323  1.00 60.38 LIG 0.23  C 
BRANCH 43 44
ATOM     44  NZ  LYS B 184      -0.485  39.226   3.420  1.00 53.06 LIG-0.08  N 
ATOM     45 HZ3  LYS B 184      -1.213  39.470   3.871  1.00 53.06 LIG 0.27  HD
ATOM     46 HZ2  LYS B 184      -0.582  38.390   3.132  1.00 53.06 LIG 0.27  HD
ATOM     47 HZ1  LYS B 184      -0.373  39.769   2.724  1.00 53.06 LIG 0.27  HD
ENDBRANCH 43 44
ENDBRANCH 42 43
ENDBRANCH 41 42
ENDBRANCH 40 41
ENDBRANCH 39 40
BRANCH 39 48
ATOM     48  N   LYS B 184       2.726  37.962   9.391  1.00 95.16 LIG-0.35  N 
ATOM     49 H    LYS B 184       3.456  38.290   9.075  1.00 95.16 LIG 0.16  HD
ATOM     50  C   PRO B 183       2.163  38.364  10.530  1.00102.83 LIG 0.24  C 
ATOM     51 O    PRO B 183       1.113  37.875  10.960  1.00 96.65 LIG-0.27  OA
BRANCH 50 52
ATOM     52  CA  PRO B 183       2.895  39.462  11.298  1.00119.60 LIG 0.18  C 
ATOM     53  N   PRO B 183       2.027  40.566  11.734  1.00125.08 LIG-0.34  N 
ATOM     54  CD  PRO B 183       1.520  40.354  13.103  1.00128.64 LIG 0.13  C 
ATOM     55  C   PRO B 182       2.022  41.727  11.057  1.00122.07 LIG 0.26  C 
ATOM     56  CG  PRO B 183       2.332  39.165  13.605  1.00127.59 LIG 0.02  C 
ATOM     57  CB  PRO B 183       3.459  38.938  12.623  1.00124.68 LIG 0.04  C 
ATOM     58 O    PRO B 182       2.733  41.938  10.072  1.00123.88 LIG-0.27  OA
BRANCH 55 59
ATOM     59  CA  PRO B 182       1.098  42.836  11.565  1.00115.83 LIG 0.35  C 
ATOM     60  CB  PRO B 182      -0.375  42.454  11.357  1.00111.53 LIG 0.05  C 
ATOM     61  CG  PRO B 182      -1.055  43.721  10.933  1.00111.42 LIG 0.04  C 
ATOM     62  CD  PRO B 182      -0.028  44.479  10.153  1.00113.66 LIG 0.32  C 
ATOM     63  N   PRO B 182       1.237  44.080  10.796  1.00115.25 LIG 0.32  N 
ENDBRANCH 55 59
ENDBRANCH 50 52
ENDBRANCH 39 48
ENDBRANCH 37 39
ENDBRANCH 1 35
TORSDOF 24
ENDMDL
MODEL 6
USER: ADFR SOLUTION from run 52
USER: SCORE 18.883962 LL:  -3.003 LR: -17.769 RR:   0.000 FEB: -10.609
USER: RMSD 2.181611
USER: SEED 51
USER: STATUS searching
USER: GENES 26
USER: genes 0 Translation |==|  0.49916 0.43409 0.60736
USER: genes 1 Rotation |==|  0.47817 0.50123 0.49431 0.99949
USER: genes 2 Torsion [C]-CA--CB-[CG] |==|  0.62052
USER: genes 3 Torsion [CA]-CB--CG-[CD] |==|  0.34191
USER: genes 4 Torsion [CB]-CG--CD-[CE] |==|  0.07279
USER: genes 5 Torsion [CG]-CD--CE-[NZ] |==|  0.53564
USER: genes 6 Torsion [CD]-CE--NZ-[HZ1] |==|  0.38431
USER: genes 7 Torsion [N]-CA--C-[N] |==|  0.29875
USER: genes 8 Torsion [C]-N--CA-[CB] |==|  0.49567
USER: genes 9 Torsion [N]-CA--CB-[CG] |==|  0.76939
USER: genes 10 Torsion [CA]-CB--CG-[CD] |==|  0.67905
USER: genes 11 Torsion [CB]-CG--CD-[NE] |==|  0.33071
USER: genes 12 Torsion [CG]-CD--NE-[CZ] |==|  0.59863
USER: genes 13 Torsion [N]-CA--C-[N] |==|  0.47618
USER: genes 14 Torsion [C]-N--CA-[C] |==|  0.59244
USER: genes 15 Torsion [N]-CA--C-[O] |==|  0.96863
USER: genes 16 Torsion [CB]-CA--N-[C] |==|  0.28178
USER: genes 17 Torsion [N]-C--CA-[N] |==|  0.42488
USER: genes 18 Torsion [C]-CA--CB-[CG] |==|  0.43270
USER: genes 19 Torsion [CA]-CB--CG-[CD] |==|  0.37975
USER: genes 20 Torsion [CB]-CG--CD-[CE] |==|  0.49332
USER: genes 21 Torsion [CG]-CD--CE-[NZ] |==|  0.46286
USER: genes 22 Torsion [CD]-CE--NZ-[HZ3] |==|  0.50495
USER: genes 23 Torsion [C]-CA--N-[C] |==|  0.76897
USER: genes 24 Torsion [N]-C--CA-[N] |==|  0.59838
USER: genes 25 Torsion [N]-C--CA-[CB] |==|  0.82568
ROOT
ATOM      1  CA  LYS B 185       2.345  32.945   8.970  1.00 91.41 LIG 0.18  C 
ENDROOT
BRANCH 1 2
ATOM      2  CB  LYS B 185       1.570  32.631  10.255  1.00 90.53 LIG 0.04  C 
BRANCH 2 3
ATOM      3  CG  LYS B 185       0.857  33.806  10.920  1.00 86.81 LIG 0.00  C 
BRANCH 3 4
ATOM      4  CD  LYS B 185      -0.643  33.526  11.075  1.00 79.71 LIG 0.03  C 
BRANCH 4 5
ATOM      5  CE  LYS B 185      -0.961  32.030  11.153  1.00 72.24 LIG 0.23  C 
BRANCH 5 6
ATOM      6  NZ  LYS B 185      -2.413  31.725  10.998  1.00 67.20 LIG-0.08  N 
ATOM      7 HZ1  LYS B 185      -2.513  31.009  10.478  1.00 67.20 LIG 0.27  HD
ATOM      8 HZ3  LYS B 185      -2.825  32.421  10.626  1.00 67.20 LIG 0.27  HD
ATOM      9 HZ2  LYS B 185      -2.769  31.562  11.797  1.00 67.20 LIG 0.27  HD
ENDBRANCH 5 6
ENDBRANCH 4 5
ENDBRANCH 3 4
ENDBRANCH 2 3
ENDBRANCH 1 2
BRANCH 1 10
ATOM     10  C   LYS B 185       2.079  31.860   7.931  1.00 87.67 LIG 0.24  C 
ATOM     11 O    LYS B 185       0.923  31.514   7.669  1.00 75.85 LIG-0.27  OA
ATOM     12  N   ARG B 186       3.156  31.320   7.366  1.00 93.18 LIG-0.35  N 
ATOM     13 H    ARG B 186       3.953  31.607   7.515  1.00 93.18 LIG 0.16  HD
BRANCH 12 14
ATOM     14  CA  ARG B 186       3.114  30.192   6.437  1.00 93.88 LIG 0.18  C 
BRANCH 14 15
ATOM     15  CB  ARG B 186       4.546  29.882   5.971  1.00 94.11 LIG 0.04  C 
BRANCH 15 16
ATOM     16  CG  ARG B 186       5.006  30.771   4.823  1.00 91.13 LIG 0.02  C 
BRANCH 16 17
ATOM     17  CD  ARG B 186       5.265  29.993   3.544  1.00 90.43 LIG 0.14  C 
BRANCH 17 18
ATOM     18  NE  ARG B 186       4.390  30.447   2.464  1.00 88.65 LIG-0.23  N 
ATOM     19 HE   ARG B 186       4.195  31.284   2.427  1.00 88.65 LIG 0.18  HD
ATOM     20  CZ  ARG B 186       3.878  29.644   1.534  1.00 77.61 LIG 0.67  C 
ATOM     21  NH2 ARG B 186       3.087  30.133   0.587  1.00 64.46 LIG-0.23  N 
ATOM     22  NH1 ARG B 186       4.161  28.350   1.549  1.00 71.89 LIG-0.23  N 
ATOM     23 2HH2 ARG B 186       2.759  29.609  -0.011  1.00 64.46 LIG 0.17  HD
ATOM     24 1HH2 ARG B 186       2.903  30.973   0.572  1.00 64.46 LIG 0.17  HD
ATOM     25 1HH1 ARG B 186       4.676  28.030   2.160  1.00 71.89 LIG 0.17  HD
ATOM     26 2HH1 ARG B 186       3.830  27.830   0.949  1.00 71.89 LIG 0.17  HD
ENDBRANCH 17 18
ENDBRANCH 16 17
ENDBRANCH 15 16
ENDBRANCH 14 15
BRANCH 14 27
ATOM     27  C   ARG B 186       2.444  29.004   7.160  1.00100.48 LIG 0.24  C 
ATOM     28  N   ALA B 187       2.119  27.890   6.489  1.00104.89 LIG-0.35  N 
ATOM     29 H    ALA B 187       1.740  27.225   6.882  1.00104.89 LIG 0.16  HD
ATOM     30 O    ARG B 186       2.197  29.113   8.363  1.00101.56 LIG-0.27  OA
BRANCH 28 31
ATOM     31  CA  ALA B 187       2.341  27.633   5.065  1.00100.92 LIG 0.16  C 
ATOM     32  CB  ALA B 187       3.705  26.961   4.849  1.00 98.55 LIG 0.04  C 
BRANCH 31 33
ATOM     33  C   ALA B 187       1.232  26.762   4.478  1.00 96.24 LIG 0.22  C 
ATOM     34 O    ALA B 187       0.421  26.198   5.214  1.00 95.92 LIG-0.29  OA
ENDBRANCH 31 33
ENDBRANCH 28 31
ENDBRANCH 14 27
ENDBRANCH 12 14
ENDBRANCH 1 10
BRANCH 1 35
ATOM     35  N   LYS B 185       1.985  34.253   8.425  1.00 94.70 LIG-0.35  N 
ATOM     36 H    LYS B 185       1.240  34.255   7.996  1.00 94.70 LIG 0.16  HD
ATOM     37  C   LYS B 184       2.743  35.345   8.577  1.00 95.69 LIG 0.24  C 
ATOM     38 O    LYS B 184       3.845  35.327   9.133  1.00 96.36 LIG-0.27  OA
BRANCH 37 39
ATOM     39  CA  LYS B 184       2.162  36.646   8.028  1.00 89.09 LIG 0.18  C 
BRANCH 39 40
ATOM     40  CB  LYS B 184       2.467  36.783   6.532  1.00 73.03 LIG 0.04  C 
BRANCH 40 41
ATOM     41  CG  LYS B 184       1.483  37.687   5.778  1.00 60.77 LIG 0.00  C 
BRANCH 41 42
ATOM     42  CD  LYS B 184       2.200  38.616   4.814  1.00 63.88 LIG 0.03  C 
BRANCH 42 43
ATOM     43  CE  LYS B 184       1.236  39.486   4.009  1.00 60.38 LIG 0.23  C 
BRANCH 43 44
ATOM     44  NZ  LYS B 184       1.859  40.640   3.269  1.00 53.06 LIG-0.08  N 
ATOM     45 HZ3  LYS B 184       1.223  41.103   2.852  1.00 53.06 LIG 0.27  HD
ATOM     46 HZ2  LYS B 184       2.440  40.330   2.671  1.00 53.06 LIG 0.27  HD
ATOM     47 HZ1  LYS B 184       2.281  41.169   3.847  1.00 53.06 LIG 0.27  HD
ENDBRANCH 43 44
ENDBRANCH 42 43
ENDBRANCH 41 42
ENDBRANCH 40 41
ENDBRANCH 39 40
BRANCH 39 48
ATOM     48  N   LYS B 184       2.686  37.793   8.757  1.00 95.16 LIG-0.35  N 
ATOM     49 H    LYS B 184       3.354  38.181   8.376  1.00 95.16 LIG 0.16  HD
ATOM     50  C   PRO B 183       2.159  38.190   9.914  1.00102.83 LIG 0.24  C 
ATOM     51 O    PRO B 183       1.199  37.615  10.438  1.00 96.65 LIG-0.27  OA
BRANCH 50 52
ATOM     52  CA  PRO B 183       2.814  39.397  10.580  1.00119.60 LIG 0.18  C 
ATOM     53  N   PRO B 183       2.838  39.331  12.048  1.00125.08 LIG-0.34  N 
ATOM     54  CD  PRO B 183       4.096  38.744  12.549  1.00128.64 LIG 0.13  C 
ATOM     55  C   PRO B 182       1.950  40.037  12.770  1.00122.07 LIG 0.26  C 
ATOM     56  CG  PRO B 183       4.978  38.679  11.307  1.00127.59 LIG 0.02  C 
ATOM     57  CB  PRO B 183       4.303  39.494  10.227  1.00124.68 LIG 0.04  C 
ATOM     58 O    PRO B 182       1.100  40.773  12.264  1.00123.88 LIG-0.27  OA
BRANCH 55 59
ATOM     59  CA  PRO B 182       2.031  39.925  14.294  1.00115.83 LIG 0.35  C 
ATOM     60  CB  PRO B 182       1.756  38.483  14.748  1.00111.53 LIG 0.05  C 
ATOM     61  CG  PRO B 182       0.933  38.612  15.994  1.00111.42 LIG 0.04  C 
ATOM     62  CD  PRO B 182       0.109  39.846  15.798  1.00113.66 LIG 0.32  C 
ATOM     63  N   PRO B 182       0.982  40.699  14.971  1.00115.25 LIG 0.32  N 
ENDBRANCH 55 59
ENDBRANCH 50 52
ENDBRANCH 39 48
ENDBRANCH 37 39
ENDBRANCH 1 35
TORSDOF 24
ENDMDL
MODEL 7
USER: ADFR SOLUTION from run 95
USER: SCORE 18.410919 LL:  -2.693 LR: -17.540 RR:   0.000 FEB: -10.381
USER: RMSD 3.824991
USER: SEED 94
USER: STATUS no improvement in best in 7 clusters for 5 generations
USER: GENES 26
USER: genes 0 Translation |==|  0.50804 0.43420 0.59199
USER: genes 1 Rotation |==|  0.49511 0.48315 0.49569 0.99967
USER: genes 2 Torsion [C]-CA--CB-[CG] |==|  0.72826
USER: genes 3 Torsion [CA]-CB--CG-[CD] |==|  0.54750
USER: genes 4 Torsion [CB]-CG--CD-[CE] |==|  0.77121
USER: genes 5 Torsion [CG]-CD--CE-[NZ] |==|  0.77930
USER: genes 6 Torsion [CD]-CE--NZ-[HZ1] |==|  0.35714
USER: genes 7 Torsion [N]-CA--C-[N] |==|  0.25488
USER: genes 8 Torsion [C]-N--CA-[CB] |==|  0.50036
USER: genes 9 Torsion [N]-CA--CB-[CG] |==|  0.81121
USER: genes 10 Torsion [CA]-CB--CG-[CD] |==|  0.51149
USER: genes 11 Torsion [CB]-CG--CD-[NE] |==|  0.33590
USER: genes 12 Torsion [CG]-CD--NE-[CZ] |==|  0.22679
USER: genes 13 Torsion [N]-CA--C-[N] |==|  0.44487
USER: genes 14 Torsion [C]-N--CA-[C] |==|  0.55725
USER: genes 15 Torsion [N]-CA--C-[O] |==|  0.97947
USER: genes 16 Torsion [CB]-CA--N-[C] |==|  0.48954
USER: genes 17 Torsion [N]-C--CA-[N] |==|  0.36617
USER: genes 18 Torsion [C]-CA--CB-[CG] |==|  0.47442
USER: genes 19 Torsion [CA]-CB--CG-[CD] |==|  0.26239
USER: genes 20 Torsion [CB]-CG--CD-[CE] |==|  0.49711
USER: genes 21 Torsion [CG]-CD--CE-[NZ] |==|  0.63482
USER: genes 22 Torsion [CD]-CE--NZ-[HZ3] |==|  0.23903
USER: genes 23 Torsion [C]-CA--N-[C] |==|  0.64455
USER: genes 24 Torsion [N]-C--CA-[N] |==|  0.30615
USER: genes 25 Torsion [N]-C--CA-[CB] |==|  0.57724
ROOT
ATOM      1  CA  LYS B 185       2.498  32.948   8.659  1.00 91.41 LIG 0.18  C 
ENDROOT
BRANCH 1 2
ATOM      2  CB  LYS B 185       1.636  32.543   9.860  1.00 90.53 LIG 0.04  C 
BRANCH 2 3
ATOM      3  CG  LYS B 185       0.284  33.243   9.990  1.00 86.81 LIG 0.00  C 
BRANCH 3 4
ATOM      4  CD  LYS B 185      -0.286  33.086  11.405  1.00 79.71 LIG 0.03  C 
BRANCH 4 5
ATOM      5  CE  LYS B 185      -1.001  31.749  11.610  1.00 72.24 LIG 0.23  C 
BRANCH 5 6
ATOM      6  NZ  LYS B 185      -2.383  31.725  11.047  1.00 67.20 LIG-0.08  N 
ATOM      7 HZ1  LYS B 185      -2.479  31.012  10.524  1.00 67.20 LIG 0.27  HD
ATOM      8 HZ3  LYS B 185      -2.522  32.463  10.570  1.00 67.20 LIG 0.27  HD
ATOM      9 HZ2  LYS B 185      -2.974  31.686  11.712  1.00 67.20 LIG 0.27  HD
ENDBRANCH 5 6
ENDBRANCH 4 5
ENDBRANCH 3 4
ENDBRANCH 2 3
ENDBRANCH 1 2
BRANCH 1 10
ATOM     10  C   LYS B 185       2.320  31.934   7.534  1.00 87.67 LIG 0.24  C 
ATOM     11 O    LYS B 185       1.231  31.380   7.356  1.00 75.85 LIG-0.27  OA
ATOM     12  N   ARG B 186       3.401  31.685   6.798  1.00 93.18 LIG-0.35  N 
ATOM     13 H    ARG B 186       4.139  32.116   6.896  1.00 93.18 LIG 0.16  HD
BRANCH 12 14
ATOM     14  CA  ARG B 186       3.464  30.665   5.753  1.00 93.88 LIG 0.18  C 
BRANCH 14 15
ATOM     15  CB  ARG B 186       4.871  30.676   5.135  1.00 94.11 LIG 0.04  C 
BRANCH 15 16
ATOM     16  CG  ARG B 186       5.165  31.943   4.344  1.00 91.13 LIG 0.02  C 
BRANCH 16 17
ATOM     17  CD  ARG B 186       6.518  31.905   3.653  1.00 90.43 LIG 0.14  C 
BRANCH 17 18
ATOM     18  NE  ARG B 186       6.375  32.056   2.205  1.00 88.65 LIG-0.23  N 
ATOM     19 HE   ARG B 186       6.387  31.345   1.722  1.00 88.65 LIG 0.18  HD
ATOM     20  CZ  ARG B 186       6.228  33.228   1.591  1.00 77.61 LIG 0.67  C 
ATOM     21  NH2 ARG B 186       6.109  33.283   0.271  1.00 64.46 LIG-0.23  N 
ATOM     22  NH1 ARG B 186       6.196  34.347   2.300  1.00 71.89 LIG-0.23  N 
ATOM     23 2HH2 ARG B 186       6.014  34.043  -0.121  1.00 64.46 LIG 0.17  HD
ATOM     24 1HH2 ARG B 186       6.127  32.559  -0.193  1.00 64.46 LIG 0.17  HD
ATOM     25 1HH1 ARG B 186       6.270  34.315   3.156  1.00 71.89 LIG 0.17  HD
ATOM     26 2HH1 ARG B 186       6.101  35.105   1.903  1.00 71.89 LIG 0.17  HD
ENDBRANCH 17 18
ENDBRANCH 16 17
ENDBRANCH 15 16
ENDBRANCH 14 15
BRANCH 14 27
ATOM     27  C   ARG B 186       3.094  29.308   6.389  1.00100.48 LIG 0.24  C 
ATOM     28  N   ALA B 187       2.685  28.283   5.627  1.00104.89 LIG-0.35  N 
ATOM     29 H    ALA B 187       2.472  27.525   5.973  1.00104.89 LIG 0.16  HD
ATOM     30 O    ARG B 186       3.164  29.196   7.615  1.00101.56 LIG-0.27  OA
BRANCH 28 31
ATOM     31  CA  ALA B 187       2.543  28.282   4.170  1.00100.92 LIG 0.16  C 
ATOM     32  CB  ALA B 187       3.917  28.127   3.499  1.00 98.55 LIG 0.04  C 
BRANCH 31 33
ATOM     33  C   ALA B 187       1.606  27.171   3.704  1.00 96.24 LIG 0.22  C 
ATOM     34 O    ALA B 187       1.185  26.330   4.499  1.00 95.92 LIG-0.29  OA
ENDBRANCH 31 33
ENDBRANCH 28 31
ENDBRANCH 14 27
ENDBRANCH 12 14
ENDBRANCH 1 10
BRANCH 1 35
ATOM     35  N   LYS B 185       2.165  34.288   8.177  1.00 94.70 LIG-0.35  N 
ATOM     36 H    LYS B 185       1.503  34.648   8.592  1.00 94.70 LIG 0.16  HD
ATOM     37  C   LYS B 184       2.825  34.897   7.186  1.00 95.69 LIG 0.24  C 
ATOM     38 O    LYS B 184       3.730  34.353   6.546  1.00 96.36 LIG-0.27  OA
BRANCH 37 39
ATOM     39  CA  LYS B 184       2.404  36.333   6.885  1.00 89.09 LIG 0.18  C 
BRANCH 39 40
ATOM     40  CB  LYS B 184       1.588  36.394   5.589  1.00 73.03 LIG 0.04  C 
BRANCH 40 41
ATOM     41  CG  LYS B 184       0.938  37.759   5.328  1.00 60.77 LIG 0.00  C 
BRANCH 41 42
ATOM     42  CD  LYS B 184       1.803  38.634   4.436  1.00 63.88 LIG 0.03  C 
BRANCH 42 43
ATOM     43  CE  LYS B 184       1.164  39.989   4.142  1.00 60.38 LIG 0.23  C 
BRANCH 43 44
ATOM     44  NZ  LYS B 184       1.150  40.405   2.695  1.00 53.06 LIG-0.08  N 
ATOM     45 HZ3  LYS B 184       0.431  40.065   2.296  1.00 53.06 LIG 0.27  HD
ATOM     46 HZ2  LYS B 184       1.883  40.102   2.292  1.00 53.06 LIG 0.27  HD
ATOM     47 HZ1  LYS B 184       1.127  41.293   2.642  1.00 53.06 LIG 0.27  HD
ENDBRANCH 43 44
ENDBRANCH 42 43
ENDBRANCH 41 42
ENDBRANCH 40 41
ENDBRANCH 39 40
BRANCH 39 48
ATOM     48  N   LYS B 184       3.570  37.202   6.788  1.00 95.16 LIG-0.35  N 
ATOM     49 H    LYS B 184       4.179  36.921   6.248  1.00 95.16 LIG 0.16  HD
ATOM     50  C   PRO B 183       3.661  38.333   7.487  1.00102.83 LIG 0.24  C 
ATOM     51 O    PRO B 183       2.770  38.712   8.254  1.00 96.65 LIG-0.27  OA
BRANCH 50 52
ATOM     52  CA  PRO B 183       4.942  39.142   7.304  1.00119.60 LIG 0.18  C 
ATOM     53  N   PRO B 183       4.751  40.408   6.581  1.00125.08 LIG-0.34  N 
ATOM     54  CD  PRO B 183       4.521  41.536   7.504  1.00128.64 LIG 0.13  C 
ATOM     55  C   PRO B 182       5.094  40.503   5.284  1.00122.07 LIG 0.26  C 
ATOM     56  CG  PRO B 183       4.835  40.946   8.874  1.00127.59 LIG 0.02  C 
ATOM     57  CB  PRO B 183       5.508  39.610   8.650  1.00124.68 LIG 0.04  C 
ATOM     58 O    PRO B 182       5.587  39.570   4.646  1.00123.88 LIG-0.27  OA
BRANCH 55 59
ATOM     59  CA  PRO B 182       4.871  41.849   4.591  1.00115.83 LIG 0.35  C 
ATOM     60  CB  PRO B 182       4.636  41.653   3.086  1.00111.53 LIG 0.05  C 
ATOM     61  CG  PRO B 182       5.365  42.783   2.423  1.00111.42 LIG 0.04  C 
ATOM     62  CD  PRO B 182       6.552  43.052   3.293  1.00113.66 LIG 0.32  C 
ATOM     63  N   PRO B 182       6.060  42.709   4.640  1.00115.25 LIG 0.32  N 
ENDBRANCH 55 59
ENDBRANCH 50 52
ENDBRANCH 39 48
ENDBRANCH 37 39
ENDBRANCH 1 35
TORSDOF 24
ENDMDL
MODEL 8
USER: ADFR SOLUTION from run 3
USER: SCORE 18.541456 LL:  -3.101 LR: -17.313 RR:   0.000 FEB: -10.154
USER: RMSD 3.270349
USER: SEED 908725
USER: STATUS no improvement in best in 3 clusters for 5 generations
USER: GENES 26
USER: genes 0 Translation |==|  0.49434 0.43212 0.59402
USER: genes 1 Rotation |==|  0.49941 0.48050 0.47643 0.99906
USER: genes 2 Torsion [C]-CA--CB-[CG] |==|  0.73234
USER: genes 3 Torsion [CA]-CB--CG-[CD] |==|  0.56781
USER: genes 4 Torsion [CB]-CG--CD-[CE] |==|  0.78363
USER: genes 5 Torsion [CG]-CD--CE-[NZ] |==|  0.81640
USER: genes 6 Torsion [CD]-CE--NZ-[HZ1] |==|  0.67395
USER: genes 7 Torsion [N]-CA--C-[N] |==|  0.30210
USER: genes 8 Torsion [C]-N--CA-[CB] |==|  0.49559
USER: genes 9 Torsion [N]-CA--CB-[CG] |==|  0.77251
USER: genes 10 Torsion [CA]-CB--CG-[CD] |==|  0.67959
USER: genes 11 Torsion [CB]-CG--CD-[NE] |==|  0.28927
USER: genes 12 Torsion [CG]-CD--NE-[CZ] |==|  0.62655
USER: genes 13 Torsion [N]-CA--C-[N] |==|  0.49315
USER: genes 14 Torsion [C]-N--CA-[C] |==|  0.58741
USER: genes 15 Torsion [N]-CA--C-[O] |==|  0.98130
USER: genes 16 Torsion [CB]-CA--N-[C] |==|  0.50000
USER: genes 17 Torsion [N]-C--CA-[N] |==|  0.17464
USER: genes 18 Torsion [C]-CA--CB-[CG] |==|  0.36051
USER: genes 19 Torsion [CA]-CB--CG-[CD] |==|  0.23210
USER: genes 20 Torsion [CB]-CG--CD-[CE] |==|  0.50151
USER: genes 21 Torsion [CG]-CD--CE-[NZ] |==|  0.68990
USER: genes 22 Torsion [CD]-CE--NZ-[HZ3] |==|  0.49972
USER: genes 23 Torsion [C]-CA--N-[C] |==|  0.75325
USER: genes 24 Torsion [N]-C--CA-[N] |==|  0.80870
USER: genes 25 Torsion [N]-C--CA-[CB] |==|  0.66147
ROOT
ATOM      1  CA  LYS B 185       2.261  32.892   8.700  1.00 91.41 LIG 0.18  C 
ENDROOT
BRANCH 1 2
ATOM      2  CB  LYS B 185       1.356  32.531   9.883  1.00 90.53 LIG 0.04  C 
BRANCH 2 3
ATOM      3  CG  LYS B 185       0.044  33.305   9.993  1.00 86.81 LIG 0.00  C 
BRANCH 3 4
ATOM      4  CD  LYS B 185      -0.466  33.326  11.438  1.00 79.71 LIG 0.03  C 
BRANCH 4 5
ATOM      5  CE  LYS B 185      -1.134  32.011  11.849  1.00 72.24 LIG 0.23  C 
BRANCH 5 6
ATOM      6  NZ  LYS B 185      -2.398  31.733  11.106  1.00 67.20 LIG-0.08  N 
ATOM      7 HZ1  LYS B 185      -3.080  31.708  11.678  1.00 67.20 LIG 0.27  HD
ATOM      8 HZ3  LYS B 185      -2.331  30.949  10.690  1.00 67.20 LIG 0.27  HD
ATOM      9 HZ2  LYS B 185      -2.537  32.375  10.506  1.00 67.20 LIG 0.27  HD
ENDBRANCH 5 6
ENDBRANCH 4 5
ENDBRANCH 3 4
ENDBRANCH 2 3
ENDBRANCH 1 2
BRANCH 1 10
ATOM     10  C   LYS B 185       2.021  31.916   7.553  1.00 87.67 LIG 0.24  C 
ATOM     11 O    LYS B 185       0.875  31.692   7.151  1.00 75.85 LIG-0.27  OA
ATOM     12  N   ARG B 186       3.105  31.328   7.051  1.00 93.18 LIG-0.35  N 
ATOM     13 H    ARG B 186       3.902  31.533   7.301  1.00 93.18 LIG 0.16  HD
BRANCH 12 14
ATOM     14  CA  ARG B 186       3.071  30.283   6.031  1.00 93.88 LIG 0.18  C 
BRANCH 14 15
ATOM     15  CB  ARG B 186       4.515  29.886   5.682  1.00 94.11 LIG 0.04  C 
BRANCH 15 16
ATOM     16  CG  ARG B 186       5.169  30.832   4.684  1.00 91.13 LIG 0.02  C 
BRANCH 16 17
ATOM     17  CD  ARG B 186       5.497  30.157   3.362  1.00 90.43 LIG 0.14  C 
BRANCH 17 18
ATOM     18  NE  ARG B 186       4.544  30.543   2.322  1.00 88.65 LIG-0.23  N 
ATOM     19 HE   ARG B 186       4.340  31.375   2.249  1.00 88.65 LIG 0.18  HD
ATOM     20  CZ  ARG B 186       3.972  29.683   1.481  1.00 77.61 LIG 0.67  C 
ATOM     21  NH2 ARG B 186       3.112  30.111   0.567  1.00 64.46 LIG-0.23  N 
ATOM     22  NH1 ARG B 186       4.266  28.393   1.554  1.00 71.89 LIG-0.23  N 
ATOM     23 2HH2 ARG B 186       2.746  29.551   0.026  1.00 64.46 LIG 0.17  HD
ATOM     24 1HH2 ARG B 186       2.921  30.948   0.514  1.00 64.46 LIG 0.17  HD
ATOM     25 1HH1 ARG B 186       4.825  28.112   2.144  1.00 71.89 LIG 0.17  HD
ATOM     26 2HH1 ARG B 186       3.897  27.837   1.011  1.00 71.89 LIG 0.17  HD
ENDBRANCH 17 18
ENDBRANCH 16 17
ENDBRANCH 15 16
ENDBRANCH 14 15
BRANCH 14 27
ATOM     27  C   ARG B 186       2.238  29.106   6.583  1.00100.48 LIG 0.24  C 
ATOM     28  N   ALA B 187       2.001  28.022   5.830  1.00104.89 LIG-0.35  N 
ATOM     29 H    ALA B 187       1.534  27.364   6.127  1.00104.89 LIG 0.16  HD
ATOM     30 O    ARG B 186       1.780  29.195   7.724  1.00101.56 LIG-0.27  OA
BRANCH 28 31
ATOM     31  CA  ALA B 187       2.470  27.791   4.462  1.00100.92 LIG 0.16  C 
ATOM     32  CB  ALA B 187       3.846  27.110   4.476  1.00 98.55 LIG 0.04  C 
BRANCH 31 33
ATOM     33  C   ALA B 187       1.477  26.944   3.670  1.00 96.24 LIG 0.22  C 
ATOM     34 O    ALA B 187       0.498  26.441   4.225  1.00 95.92 LIG-0.29  OA
ENDBRANCH 31 33
ENDBRANCH 28 31
ENDBRANCH 14 27
ENDBRANCH 12 14
ENDBRANCH 1 10
BRANCH 1 35
ATOM     35  N   LYS B 185       2.037  34.262   8.242  1.00 94.70 LIG-0.35  N 
ATOM     36 H    LYS B 185       1.435  34.681   8.690  1.00 94.70 LIG 0.16  HD
ATOM     37  C   LYS B 184       2.704  34.814   7.222  1.00 95.69 LIG 0.24  C 
ATOM     38 O    LYS B 184       3.519  34.190   6.535  1.00 96.36 LIG-0.27  OA
BRANCH 37 39
ATOM     39  CA  LYS B 184       2.412  36.287   6.948  1.00 89.09 LIG 0.18  C 
BRANCH 39 40
ATOM     40  CB  LYS B 184       3.137  36.754   5.681  1.00 73.03 LIG 0.04  C 
BRANCH 40 41
ATOM     41  CG  LYS B 184       2.232  37.485   4.681  1.00 60.77 LIG 0.00  C 
BRANCH 41 42
ATOM     42  CD  LYS B 184       2.076  38.954   5.033  1.00 63.88 LIG 0.03  C 
BRANCH 42 43
ATOM     43  CE  LYS B 184       1.168  39.700   4.058  1.00 60.38 LIG 0.23  C 
BRANCH 43 44
ATOM     44  NZ  LYS B 184       1.846  40.719   3.182  1.00 53.06 LIG-0.08  N 
ATOM     45 HZ3  LYS B 184       1.245  41.100   2.649  1.00 53.06 LIG 0.27  HD
ATOM     46 HZ2  LYS B 184       2.469  40.319   2.687  1.00 53.06 LIG 0.27  HD
ATOM     47 HZ1  LYS B 184       2.228  41.342   3.691  1.00 53.06 LIG 0.27  HD
ENDBRANCH 43 44
ENDBRANCH 42 43
ENDBRANCH 41 42
ENDBRANCH 40 41
ENDBRANCH 39 40
BRANCH 39 48
ATOM     48  N   LYS B 184       2.802  37.110   8.085  1.00 95.16 LIG-0.35  N 
ATOM     49 H    LYS B 184       3.608  37.409   8.047  1.00 95.16 LIG 0.16  HD
ATOM     50  C   PRO B 183       1.963  37.365   9.088  1.00102.83 LIG 0.24  C 
ATOM     51 O    PRO B 183       0.809  36.923   9.116  1.00 96.65 LIG-0.27  OA
BRANCH 50 52
ATOM     52  CA  PRO B 183       2.505  38.230  10.223  1.00119.60 LIG 0.18  C 
ATOM     53  N   PRO B 183       3.540  37.572  11.034  1.00125.08 LIG-0.34  N 
ATOM     54  CD  PRO B 183       4.897  37.884  10.545  1.00128.64 LIG 0.13  C 
ATOM     55  C   PRO B 182       3.230  37.058  12.237  1.00122.07 LIG 0.26  C 
ATOM     56  CG  PRO B 183       4.663  38.992   9.524  1.00127.59 LIG 0.02  C 
ATOM     57  CB  PRO B 183       3.236  39.465   9.687  1.00124.68 LIG 0.04  C 
ATOM     58 O    PRO B 182       2.099  37.117  12.725  1.00123.88 LIG-0.27  OA
BRANCH 55 59
ATOM     59  CA  PRO B 182       4.354  36.390  13.030  1.00115.83 LIG 0.35  C 
ATOM     60  CB  PRO B 182       4.002  34.928  13.347  1.00111.53 LIG 0.05  C 
ATOM     61  CG  PRO B 182       4.496  34.698  14.744  1.00111.42 LIG 0.04  C 
ATOM     62  CD  PRO B 182       4.336  36.011  15.442  1.00113.66 LIG 0.32  C 
ATOM     63  N   PRO B 182       4.539  36.989  14.358  1.00115.25 LIG 0.32  N 
ENDBRANCH 55 59
ENDBRANCH 50 52
ENDBRANCH 39 48
ENDBRANCH 37 39
ENDBRANCH 1 35
TORSDOF 24
ENDMDL
MODEL 9
USER: ADFR SOLUTION from run 124
USER: SCORE 17.548361 LL:  -3.383 LR: -17.139 RR:   0.000 FEB:  -9.980
USER: RMSD 2.724516
USER: SEED 123
USER: STATUS no improvement in best in 6 clusters for 5 generations
USER: GENES 26
USER: genes 0 Translation |==|  0.49494 0.41825 0.61381
USER: genes 1 Rotation |==|  0.49068 0.54196 0.47217 0.99737
USER: genes 2 Torsion [C]-CA--CB-[CG] |==|  0.62877
USER: genes 3 Torsion [CA]-CB--CG-[CD] |==|  0.30913
USER: genes 4 Torsion [CB]-CG--CD-[CE] |==|  0.95681
USER: genes 5 Torsion [CG]-CD--CE-[NZ] |==|  0.41635
USER: genes 6 Torsion [CD]-CE--NZ-[HZ1] |==|  0.52928
USER: genes 7 Torsion [N]-CA--C-[N] |==|  0.44747
USER: genes 8 Torsion [C]-N--CA-[CB] |==|  0.23642
USER: genes 9 Torsion [N]-CA--CB-[CG] |==|  0.47691
USER: genes 10 Torsion [CA]-CB--CG-[CD] |==|  0.39413
USER: genes 11 Torsion [CB]-CG--CD-[NE] |==|  0.28703
USER: genes 12 Torsion [CG]-CD--NE-[CZ] |==|  0.67696
USER: genes 13 Torsion [N]-CA--C-[N] |==|  0.23948
USER: genes 14 Torsion [C]-N--CA-[C] |==|  0.75209
USER: genes 15 Torsion [N]-CA--C-[O] |==|  0.54248
USER: genes 16 Torsion [CB]-CA--N-[C] |==|  0.34993
USER: genes 17 Torsion [N]-C--CA-[N] |==|  0.32781
USER: genes 18 Torsion [C]-CA--CB-[CG] |==|  0.37639
USER: genes 19 Torsion [CA]-CB--CG-[CD] |==|  0.45087
USER: genes 20 Torsion [CB]-CG--CD-[CE] |==|  0.66840
USER: genes 21 Torsion [CG]-CD--CE-[NZ] |==|  0.49219
USER: genes 22 Torsion [CD]-CE--NZ-[HZ3] |==|  0.49890
USER: genes 23 Torsion [C]-CA--N-[C] |==|  0.74496
USER: genes 24 Torsion [N]-C--CA-[N] |==|  0.41234
USER: genes 25 Torsion [N]-C--CA-[CB] |==|  0.65725
ROOT
ATOM      1  CA  LYS B 185       2.272  32.518   9.101  1.00 91.41 LIG 0.18  C 
ENDROOT
BRANCH 1 2
ATOM      2  CB  LYS B 185       1.679  32.200  10.478  1.00 90.53 LIG 0.04  C 
BRANCH 2 3
ATOM      3  CG  LYS B 185       1.133  33.387  11.270  1.00 86.81 LIG 0.00  C 
BRANCH 3 4
ATOM      4  CD  LYS B 185      -0.394  33.318  11.387  1.00 79.71 LIG 0.03  C 
BRANCH 4 5
ATOM      5  CE  LYS B 185      -1.020  32.333  10.396  1.00 72.24 LIG 0.23  C 
BRANCH 5 6
ATOM      6  NZ  LYS B 185      -2.280  31.710  10.896  1.00 67.20 LIG-0.08  N 
ATOM      7 HZ1  LYS B 185      -2.516  31.042  10.357  1.00 67.20 LIG 0.27  HD
ATOM      8 HZ3  LYS B 185      -2.927  32.321  10.912  1.00 67.20 LIG 0.27  HD
ATOM      9 HZ2  LYS B 185      -2.149  31.395  11.718  1.00 67.20 LIG 0.27  HD
ENDBRANCH 5 6
ENDBRANCH 4 5
ENDBRANCH 3 4
ENDBRANCH 2 3
ENDBRANCH 1 2
BRANCH 1 10
ATOM     10  C   LYS B 185       1.742  31.524   8.072  1.00 87.67 LIG 0.24  C 
ATOM     11 O    LYS B 185       0.859  31.858   7.275  1.00 75.85 LIG-0.27  OA
ATOM     12  N   ARG B 186       2.273  30.304   8.113  1.00 93.18 LIG-0.35  N 
ATOM     13 H    ARG B 186       2.925  30.099   8.634  1.00 93.18 LIG 0.16  HD
BRANCH 12 14
ATOM     14  CA  ARG B 186       1.819  29.186   7.290  1.00 93.88 LIG 0.18  C 
BRANCH 14 15
ATOM     15  CB  ARG B 186       2.524  29.256   5.926  1.00 94.11 LIG 0.04  C 
BRANCH 15 16
ATOM     16  CG  ARG B 186       2.277  28.027   5.062  1.00 91.13 LIG 0.02  C 
BRANCH 16 17
ATOM     17  CD  ARG B 186       2.110  28.365   3.590  1.00 90.43 LIG 0.14  C 
BRANCH 17 18
ATOM     18  NE  ARG B 186       3.319  28.041   2.834  1.00 88.65 LIG-0.23  N 
ATOM     19 HE   ARG B 186       3.560  27.217   2.790  1.00 88.65 LIG 0.18  HD
ATOM     20  CZ  ARG B 186       4.070  28.945   2.209  1.00 77.61 LIG 0.67  C 
ATOM     21  NH2 ARG B 186       5.157  28.572   1.546  1.00 64.46 LIG-0.23  N 
ATOM     22  NH1 ARG B 186       3.730  30.225   2.244  1.00 71.89 LIG-0.23  N 
ATOM     23 2HH2 ARG B 186       5.638  29.160   1.144  1.00 64.46 LIG 0.17  HD
ATOM     24 1HH2 ARG B 186       5.380  27.742   1.519  1.00 64.46 LIG 0.17  HD
ATOM     25 1HH1 ARG B 186       3.025  30.471   2.670  1.00 71.89 LIG 0.17  HD
ATOM     26 2HH1 ARG B 186       4.215  30.810   1.840  1.00 71.89 LIG 0.17  HD
ENDBRANCH 17 18
ENDBRANCH 16 17
ENDBRANCH 15 16
ENDBRANCH 14 15
BRANCH 14 27
ATOM     27  C   ARG B 186       2.116  27.879   8.056  1.00100.48 LIG 0.24  C 
ATOM     28  N   ALA B 187       1.241  27.395   8.950  1.00104.89 LIG-0.35  N 
ATOM     29 H    ALA B 187       1.400  26.671   9.385  1.00104.89 LIG 0.16  HD
ATOM     30 O    ARG B 186       3.184  27.302   7.841  1.00101.56 LIG-0.27  OA
BRANCH 28 31
ATOM     31  CA  ALA B 187      -0.051  27.981   9.311  1.00100.92 LIG 0.16  C 
ATOM     32  CB  ALA B 187      -1.051  26.879   9.691  1.00 98.55 LIG 0.04  C 
BRANCH 31 33
ATOM     33  C   ALA B 187       0.092  28.974  10.462  1.00 96.24 LIG 0.22  C 
ATOM     34 O    ALA B 187      -0.898  29.356  11.089  1.00 95.92 LIG-0.29  OA
ENDBRANCH 31 33
ENDBRANCH 28 31
ENDBRANCH 14 27
ENDBRANCH 12 14
ENDBRANCH 1 10
BRANCH 1 35
ATOM     35  N   LYS B 185       1.964  33.883   8.678  1.00 94.70 LIG-0.35  N 
ATOM     36 H    LYS B 185       1.124  34.068   8.694  1.00 94.70 LIG 0.16  HD
ATOM     37  C   LYS B 184       2.898  34.762   8.300  1.00 95.69 LIG 0.24  C 
ATOM     38 O    LYS B 184       4.096  34.475   8.211  1.00 96.36 LIG-0.27  OA
BRANCH 37 39
ATOM     39  CA  LYS B 184       2.404  36.172   7.988  1.00 89.09 LIG 0.18  C 
BRANCH 39 40
ATOM     40  CB  LYS B 184       2.715  36.543   6.533  1.00 73.03 LIG 0.04  C 
BRANCH 40 41
ATOM     41  CG  LYS B 184       1.550  37.223   5.803  1.00 60.77 LIG 0.00  C 
BRANCH 41 42
ATOM     42  CD  LYS B 184       2.016  37.947   4.551  1.00 63.88 LIG 0.03  C 
BRANCH 42 43
ATOM     43  CE  LYS B 184       1.730  39.446   4.598  1.00 60.38 LIG 0.23  C 
BRANCH 43 44
ATOM     44  NZ  LYS B 184       2.224  40.242   3.419  1.00 53.06 LIG-0.08  N 
ATOM     45 HZ3  LYS B 184       2.009  41.099   3.529  1.00 53.06 LIG 0.27  HD
ATOM     46 HZ2  LYS B 184       1.846  39.935   2.674  1.00 53.06 LIG 0.27  HD
ATOM     47 HZ1  LYS B 184       3.108  40.164   3.357  1.00 53.06 LIG 0.27  HD
ENDBRANCH 43 44
ENDBRANCH 42 43
ENDBRANCH 41 42
ENDBRANCH 40 41
ENDBRANCH 39 40
BRANCH 39 48
ATOM     48  N   LYS B 184       3.005  37.142   8.894  1.00 95.16 LIG-0.35  N 
ATOM     49 H    LYS B 184       3.759  37.459   8.627  1.00 95.16 LIG 0.16  HD
ATOM     50  C   PRO B 183       2.415  37.493  10.036  1.00102.83 LIG 0.24  C 
ATOM     51 O    PRO B 183       1.330  37.023  10.395  1.00 96.65 LIG-0.27  OA
BRANCH 50 52
ATOM     52  CA  PRO B 183       3.159  38.508  10.900  1.00119.60 LIG 0.18  C 
ATOM     53  N   PRO B 183       2.278  39.389  11.681  1.00125.08 LIG-0.34  N 
ATOM     54  CD  PRO B 183       2.033  38.858  13.035  1.00128.64 LIG 0.13  C 
ATOM     55  C   PRO B 182       2.048  40.649  11.270  1.00122.07 LIG 0.26  C 
ATOM     56  CG  PRO B 183       3.027  37.707  13.152  1.00127.59 LIG 0.02  C 
ATOM     57  CB  PRO B 183       3.988  37.817  11.989  1.00124.68 LIG 0.04  C 
ATOM     58 O    PRO B 182       2.558  41.132  10.256  1.00123.88 LIG-0.27  OA
BRANCH 55 59
ATOM     59  CA  PRO B 182       1.123  41.514  12.129  1.00115.83 LIG 0.35  C 
ATOM     60  CB  PRO B 182      -0.053  42.044  11.296  1.00111.53 LIG 0.05  C 
ATOM     61  CG  PRO B 182      -0.266  43.452  11.766  1.00111.42 LIG 0.04  C 
ATOM     62  CD  PRO B 182       1.094  43.955  12.136  1.00113.66 LIG 0.32  C 
ATOM     63  N   PRO B 182       1.780  42.738  12.605  1.00115.25 LIG 0.32  N 
ENDBRANCH 55 59
ENDBRANCH 50 52
ENDBRANCH 39 48
ENDBRANCH 37 39
ENDBRANCH 1 35
TORSDOF 24
ENDMDL
MODEL 10
USER: ADFR SOLUTION from run 193
USER: SCORE 18.152658 LL:  -2.442 LR: -16.997 RR:   0.000 FEB:  -9.838
USER: RMSD 4.283435
USER: SEED 192
USER: STATUS no improvement in best in 5 clusters for 5 generations
USER: GENES 26
USER: genes 0 Translation |==|  0.47909 0.45451 0.65721
USER: genes 1 Rotation |==|  0.45715 0.51149 0.48341 0.99775
USER: genes 2 Torsion [C]-CA--CB-[CG] |==|  0.68396
USER: genes 3 Torsion [CA]-CB--CG-[CD] |==|  0.31127
USER: genes 4 Torsion [CB]-CG--CD-[CE] |==|  0.00676
USER: genes 5 Torsion [CG]-CD--CE-[NZ] |==|  0.54821
USER: genes 6 Torsion [CD]-CE--NZ-[HZ1] |==|  0.47439
USER: genes 7 Torsion [N]-CA--C-[N] |==|  0.33315
USER: genes 8 Torsion [C]-N--CA-[CB] |==|  0.83602
USER: genes 9 Torsion [N]-CA--CB-[CG] |==|  0.82676
USER: genes 10 Torsion [CA]-CB--CG-[CD] |==|  0.55999
USER: genes 11 Torsion [CB]-CG--CD-[NE] |==|  0.94356
USER: genes 12 Torsion [CG]-CD--NE-[CZ] |==|  0.66856
USER: genes 13 Torsion [N]-CA--C-[N] |==|  0.40977
USER: genes 14 Torsion [C]-N--CA-[C] |==|  0.54050
USER: genes 15 Torsion [N]-CA--C-[O] |==|  0.88663
USER: genes 16 Torsion [CB]-CA--N-[C] |==|  0.27576
USER: genes 17 Torsion [N]-C--CA-[N] |==|  0.43036
USER: genes 18 Torsion [C]-CA--CB-[CG] |==|  0.40844
USER: genes 19 Torsion [CA]-CB--CG-[CD] |==|  0.45960
USER: genes 20 Torsion [CB]-CG--CD-[CE] |==|  0.59029
USER: genes 21 Torsion [CG]-CD--CE-[NZ] |==|  0.72793
USER: genes 22 Torsion [CD]-CE--NZ-[HZ3] |==|  0.64690
USER: genes 23 Torsion [C]-CA--N-[C] |==|  0.78969
USER: genes 24 Torsion [N]-C--CA-[N] |==|  0.35129
USER: genes 25 Torsion [N]-C--CA-[CB] |==|  0.77130
ROOT
ATOM      1  CA  LYS B 185       1.998  33.497   9.980  1.00 91.41 LIG 0.18  C 
ENDROOT
BRANCH 1 2
ATOM      2  CB  LYS B 185       1.266  33.326  11.315  1.00 90.53 LIG 0.04  C 
BRANCH 2 3
ATOM      3  CG  LYS B 185       0.206  34.375  11.644  1.00 86.81 LIG 0.00  C 
BRANCH 3 4
ATOM      4  CD  LYS B 185      -1.201  33.764  11.628  1.00 79.71 LIG 0.03  C 
BRANCH 4 5
ATOM      5  CE  LYS B 185      -1.188  32.259  11.349  1.00 72.24 LIG 0.23  C 
BRANCH 5 6
ATOM      6  NZ  LYS B 185      -2.516  31.725  10.926  1.00 67.20 LIG-0.08  N 
ATOM      7 HZ1  LYS B 185      -2.424  30.884  10.649  1.00 67.20 LIG 0.27  HD
ATOM      8 HZ3  LYS B 185      -2.837  32.221  10.260  1.00 67.20 LIG 0.27  HD
ATOM      9 HZ2  LYS B 185      -3.080  31.751  11.614  1.00 67.20 LIG 0.27  HD
ENDBRANCH 5 6
ENDBRANCH 4 5
ENDBRANCH 3 4
ENDBRANCH 2 3
ENDBRANCH 1 2
BRANCH 1 10
ATOM     10  C   LYS B 185       1.643  32.343   9.047  1.00 87.67 LIG 0.24  C 
ATOM     11 O    LYS B 185       0.476  32.172   8.679  1.00 75.85 LIG-0.27  OA
ATOM     12  N   ARG B 186       2.651  31.549   8.692  1.00 93.18 LIG-0.35  N 
ATOM     13 H    ARG B 186       3.467  31.710   8.909  1.00 93.18 LIG 0.16  HD
BRANCH 12 14
ATOM     14  CA  ARG B 186       2.494  30.330   7.902  1.00 93.88 LIG 0.18  C 
BRANCH 14 15
ATOM     15  CB  ARG B 186       1.552  29.374   8.650  1.00 94.11 LIG 0.04  C 
BRANCH 15 16
ATOM     16  CG  ARG B 186       2.098  28.935  10.002  1.00 91.13 LIG 0.02  C 
BRANCH 16 17
ATOM     17  CD  ARG B 186       1.473  27.641  10.498  1.00 90.43 LIG 0.14  C 
BRANCH 17 18
ATOM     18  NE  ARG B 186       0.198  27.382   9.832  1.00 88.65 LIG-0.23  N 
ATOM     19 HE   ARG B 186       0.200  27.289   8.977  1.00 88.65 LIG 0.18  HD
ATOM     20  CZ  ARG B 186      -0.967  27.281  10.468  1.00 77.61 LIG 0.67  C 
ATOM     21  NH2 ARG B 186      -2.083  27.049   9.791  1.00 64.46 LIG-0.23  N 
ATOM     22  NH1 ARG B 186      -1.013  27.409  11.786  1.00 71.89 LIG-0.23  N 
ATOM     23 2HH2 ARG B 186      -2.833  26.984  10.207  1.00 64.46 LIG 0.17  HD
ATOM     24 1HH2 ARG B 186      -2.058  26.962   8.935  1.00 64.46 LIG 0.17  HD
ATOM     25 1HH1 ARG B 186      -0.291  27.557  12.229  1.00 71.89 LIG 0.17  HD
ATOM     26 2HH1 ARG B 186      -1.766  27.344  12.198  1.00 71.89 LIG 0.17  HD
ENDBRANCH 17 18
ENDBRANCH 16 17
ENDBRANCH 15 16
ENDBRANCH 14 15
BRANCH 14 27
ATOM     27  C   ARG B 186       1.965  30.731   6.508  1.00100.48 LIG 0.24  C 
ATOM     28  N   ALA B 187       2.310  30.031   5.417  1.00104.89 LIG-0.35  N 
ATOM     29 H    ALA B 187       2.025  30.250   4.636  1.00104.89 LIG 0.16  HD
ATOM     30 O    ARG B 186       1.234  31.720   6.420  1.00101.56 LIG-0.27  OA
BRANCH 28 31
ATOM     31  CA  ALA B 187       3.176  28.851   5.376  1.00100.92 LIG 0.16  C 
ATOM     32  CB  ALA B 187       2.450  27.635   5.971  1.00 98.55 LIG 0.04  C 
BRANCH 31 33
ATOM     33  C   ALA B 187       3.627  28.543   3.951  1.00 96.24 LIG 0.22  C 
ATOM     34 O    ALA B 187       2.841  28.643   3.007  1.00 95.92 LIG-0.29  OA
ENDBRANCH 31 33
ENDBRANCH 28 31
ENDBRANCH 14 27
ENDBRANCH 12 14
ENDBRANCH 1 10
BRANCH 1 35
ATOM     35  N   LYS B 185       1.674  34.770   9.340  1.00 94.70 LIG-0.35  N 
ATOM     36 H    LYS B 185       0.925  34.763   8.916  1.00 94.70 LIG 0.16  HD
ATOM     37  C   LYS B 184       2.464  35.847   9.406  1.00 95.69 LIG 0.24  C 
ATOM     38 O    LYS B 184       3.570  35.838   9.955  1.00 96.36 LIG-0.27  OA
BRANCH 37 39
ATOM     39  CA  LYS B 184       1.918  37.120   8.763  1.00 89.09 LIG 0.18  C 
BRANCH 39 40
ATOM     40  CB  LYS B 184       2.172  37.113   7.252  1.00 73.03 LIG 0.04  C 
BRANCH 40 41
ATOM     41  CG  LYS B 184       1.080  37.815   6.435  1.00 60.77 LIG 0.00  C 
BRANCH 41 42
ATOM     42  CD  LYS B 184       1.533  38.095   5.013  1.00 63.88 LIG 0.03  C 
BRANCH 42 43
ATOM     43  CE  LYS B 184       0.926  39.375   4.443  1.00 60.38 LIG 0.23  C 
BRANCH 43 44
ATOM     44  NZ  LYS B 184      -0.285  39.191   3.567  1.00 53.06 LIG-0.08  N 
ATOM     45 HZ3  LYS B 184      -0.154  39.604   2.790  1.00 53.06 LIG 0.27  HD
ATOM     46 HZ2  LYS B 184      -0.999  39.536   3.970  1.00 53.06 LIG 0.27  HD
ATOM     47 HZ1  LYS B 184      -0.417  38.322   3.422  1.00 53.06 LIG 0.27  HD
ENDBRANCH 43 44
ENDBRANCH 42 43
ENDBRANCH 41 42
ENDBRANCH 40 41
ENDBRANCH 39 40
BRANCH 39 48
ATOM     48  N   LYS B 184       2.517  38.302   9.370  1.00 95.16 LIG-0.35  N 
ATOM     49 H    LYS B 184       3.117  38.683   8.886  1.00 95.16 LIG 0.16  HD
ATOM     50  C   PRO B 183       2.148  38.735  10.574  1.00102.83 LIG 0.24  C 
ATOM     51 O    PRO B 183       1.281  38.168  11.247  1.00 96.65 LIG-0.27  OA
BRANCH 50 52
ATOM     52  CA  PRO B 183       2.866  39.976  11.098  1.00119.60 LIG 0.18  C 
ATOM     53  N   PRO B 183       1.962  41.058  11.517  1.00125.08 LIG-0.34  N 
ATOM     54  CD  PRO B 183       1.657  40.988  12.959  1.00128.64 LIG 0.13  C 
ATOM     55  C   PRO B 182       1.763  42.118  10.715  1.00122.07 LIG 0.26  C 
ATOM     56  CG  PRO B 183       2.633  39.939  13.480  1.00127.59 LIG 0.02  C 
ATOM     57  CB  PRO B 183       3.642  39.674  12.385  1.00124.68 LIG 0.04  C 
ATOM     58 O    PRO B 182       2.318  42.254   9.622  1.00123.88 LIG-0.27  OA
BRANCH 55 59
ATOM     59  CA  PRO B 182       0.812  43.209  11.212  1.00115.83 LIG 0.35  C 
ATOM     60  CB  PRO B 182      -0.649  42.826  10.933  1.00111.53 LIG 0.05  C 
ATOM     61  CG  PRO B 182      -1.319  44.100  10.512  1.00111.42 LIG 0.04  C 
ATOM     62  CD  PRO B 182      -0.264  44.883   9.796  1.00113.66 LIG 0.32  C 
ATOM     63  N   PRO B 182       0.975  44.473  10.481  1.00115.25 LIG 0.32  N 
ENDBRANCH 55 59
ENDBRANCH 50 52
ENDBRANCH 39 48
ENDBRANCH 37 39
ENDBRANCH 1 35
TORSDOF 24
ENDMDL
MODEL 11
USER: ADFR SOLUTION from run 57
USER: SCORE 17.987070 LL:  -2.980 LR: -16.825 RR:   0.000 FEB:  -9.665
USER: RMSD 2.960296
USER: SEED 56
USER: STATUS no improvement in best in 6 clusters for 5 generations
USER: GENES 26
USER: genes 0 Translation |==|  0.50981 0.42727 0.59246
USER: genes 1 Rotation |==|  0.51399 0.51678 0.51146 0.99939
USER: genes 2 Torsion [C]-CA--CB-[CG] |==|  0.82620
USER: genes 3 Torsion [CA]-CB--CG-[CD] |==|  0.72228
USER: genes 4 Torsion [CB]-CG--CD-[CE] |==|  0.63982
USER: genes 5 Torsion [CG]-CD--CE-[NZ] |==|  0.82530
USER: genes 6 Torsion [CD]-CE--NZ-[HZ1] |==|  0.31723
USER: genes 7 Torsion [N]-CA--C-[N] |==|  0.33505
USER: genes 8 Torsion [C]-N--CA-[CB] |==|  0.50000
USER: genes 9 Torsion [N]-CA--CB-[CG] |==|  0.77028
USER: genes 10 Torsion [CA]-CB--CG-[CD] |==|  0.68859
USER: genes 11 Torsion [CB]-CG--CD-[NE] |==|  0.28204
USER: genes 12 Torsion [CG]-CD--NE-[CZ] |==|  0.62501
USER: genes 13 Torsion [N]-CA--C-[N] |==|  0.49334
USER: genes 14 Torsion [C]-N--CA-[C] |==|  0.59303
USER: genes 15 Torsion [N]-CA--C-[O] |==|  0.96407
USER: genes 16 Torsion [CB]-CA--N-[C] |==|  0.28207
USER: genes 17 Torsion [N]-C--CA-[N] |==|  0.41064
USER: genes 18 Torsion [C]-CA--CB-[CG] |==|  0.47366
USER: genes 19 Torsion [CA]-CB--CG-[CD] |==|  0.48283
USER: genes 20 Torsion [CB]-CG--CD-[CE] |==|  0.50543
USER: genes 21 Torsion [CG]-CD--CE-[NZ] |==|  0.43404
USER: genes 22 Torsion [CD]-CE--NZ-[HZ3] |==|  0.41676
USER: genes 23 Torsion [C]-CA--N-[C] |==|  0.78117
USER: genes 24 Torsion [N]-C--CA-[N] |==|  0.95651
USER: genes 25 Torsion [N]-C--CA-[CB] |==|  0.80121
ROOT
ATOM      1  CA  LYS B 185       2.528  32.761   8.668  1.00 91.41 LIG 0.18  C 
ENDROOT
BRANCH 1 2
ATOM      2  CB  LYS B 185       1.863  32.215   9.937  1.00 90.53 LIG 0.04  C 
BRANCH 2 3
ATOM      3  CG  LYS B 185       0.341  32.096   9.906  1.00 86.81 LIG 0.00  C 
BRANCH 3 4
ATOM      4  CD  LYS B 185      -0.320  33.274  10.631  1.00 79.71 LIG 0.03  C 
BRANCH 4 5
ATOM      5  CE  LYS B 185      -1.364  32.825  11.658  1.00 72.24 LIG 0.23  C 
BRANCH 5 6
ATOM      6  NZ  LYS B 185      -2.517  32.099  11.050  1.00 67.20 LIG-0.08  N 
ATOM      7 HZ1  LYS B 185      -2.516  31.253  11.328  1.00 67.20 LIG 0.27  HD
ATOM      8 HZ3  LYS B 185      -2.446  32.119  10.163  1.00 67.20 LIG 0.27  HD
ATOM      9 HZ2  LYS B 185      -3.277  32.491  11.296  1.00 67.20 LIG 0.27  HD
ENDBRANCH 5 6
ENDBRANCH 4 5
ENDBRANCH 3 4
ENDBRANCH 2 3
ENDBRANCH 1 2
BRANCH 1 10
ATOM     10  C   LYS B 185       2.259  31.818   7.500  1.00 87.67 LIG 0.24  C 
ATOM     11 O    LYS B 185       1.105  31.621   7.107  1.00 75.85 LIG-0.27  OA
ATOM     12  N   ARG B 186       3.328  31.227   6.970  1.00 93.18 LIG-0.35  N 
ATOM     13 H    ARG B 186       4.131  31.414   7.215  1.00 93.18 LIG 0.16  HD
BRANCH 12 14
ATOM     14  CA  ARG B 186       3.266  30.208   5.925  1.00 93.88 LIG 0.18  C 
BRANCH 14 15
ATOM     15  CB  ARG B 186       4.698  29.770   5.576  1.00 94.11 LIG 0.04  C 
BRANCH 15 16
ATOM     16  CG  ARG B 186       5.385  30.706   4.591  1.00 91.13 LIG 0.02  C 
BRANCH 16 17
ATOM     17  CD  ARG B 186       5.626  30.061   3.236  1.00 90.43 LIG 0.14  C 
BRANCH 17 18
ATOM     18  NE  ARG B 186       4.632  30.501   2.258  1.00 88.65 LIG-0.23  N 
ATOM     19 HE   ARG B 186       4.444  31.340   2.223  1.00 88.65 LIG 0.18  HD
ATOM     20  CZ  ARG B 186       4.002  29.684   1.417  1.00 77.61 LIG 0.67  C 
ATOM     21  NH2 ARG B 186       3.109  30.161   0.560  1.00 64.46 LIG-0.23  N 
ATOM     22  NH1 ARG B 186       4.270  28.386   1.432  1.00 71.89 LIG-0.23  N 
ATOM     23 2HH2 ARG B 186       2.705  29.627   0.020  1.00 64.46 LIG 0.17  HD
ATOM     24 1HH2 ARG B 186       2.934  31.002   0.545  1.00 64.46 LIG 0.17  HD
ATOM     25 1HH1 ARG B 186       4.850  28.074   1.985  1.00 71.89 LIG 0.17  HD
ATOM     26 2HH1 ARG B 186       3.863  27.857   0.890  1.00 71.89 LIG 0.17  HD
ENDBRANCH 17 18
ENDBRANCH 16 17
ENDBRANCH 15 16
ENDBRANCH 14 15
BRANCH 14 27
ATOM     27  C   ARG B 186       2.389  29.048   6.442  1.00100.48 LIG 0.24  C 
ATOM     28  N   ALA B 187       2.122  27.991   5.662  1.00104.89 LIG-0.35  N 
ATOM     29 H    ALA B 187       1.630  27.343   5.939  1.00104.89 LIG 0.16  HD
ATOM     30 O    ARG B 186       1.924  29.126   7.582  1.00101.56 LIG-0.27  OA
BRANCH 28 31
ATOM     31  CA  ALA B 187       2.593  27.777   4.292  1.00100.92 LIG 0.16  C 
ATOM     32  CB  ALA B 187       3.921  27.004   4.299  1.00 98.55 LIG 0.04  C 
BRANCH 31 33
ATOM     33  C   ALA B 187       1.558  27.025   3.459  1.00 96.24 LIG 0.22  C 
ATOM     34 O    ALA B 187       0.598  26.474   3.999  1.00 95.92 LIG-0.29  OA
ENDBRANCH 31 33
ENDBRANCH 28 31
ENDBRANCH 14 27
ENDBRANCH 12 14
ENDBRANCH 1 10
BRANCH 1 35
ATOM     35  N   LYS B 185       2.054  34.105   8.341  1.00 94.70 LIG-0.35  N 
ATOM     36 H    LYS B 185       1.282  34.115   7.963  1.00 94.70 LIG 0.16  HD
ATOM     37  C   LYS B 184       2.753  35.214   8.605  1.00 95.69 LIG 0.24  C 
ATOM     38 O    LYS B 184       3.891  35.195   9.085  1.00 96.36 LIG-0.27  OA
BRANCH 37 39
ATOM     39  CA  LYS B 184       2.058  36.536   8.286  1.00 89.09 LIG 0.18  C 
BRANCH 39 40
ATOM     40  CB  LYS B 184       2.355  36.967   6.845  1.00 73.03 LIG 0.04  C 
BRANCH 40 41
ATOM     41  CG  LYS B 184       1.516  38.159   6.368  1.00 60.77 LIG 0.00  C 
BRANCH 41 42
ATOM     42  CD  LYS B 184       1.952  38.641   4.995  1.00 63.88 LIG 0.03  C 
BRANCH 42 43
ATOM     43  CE  LYS B 184       1.161  39.858   4.520  1.00 60.38 LIG 0.23  C 
BRANCH 43 44
ATOM     44  NZ  LYS B 184       1.846  40.722   3.494  1.00 53.06 LIG-0.08  N 
ATOM     45 HZ3  LYS B 184       1.234  41.104   2.973  1.00 53.06 LIG 0.27  HD
ATOM     46 HZ2  LYS B 184       2.387  40.220   2.997  1.00 53.06 LIG 0.27  HD
ATOM     47 HZ1  LYS B 184       2.320  41.352   3.906  1.00 53.06 LIG 0.27  HD
ENDBRANCH 43 44
ENDBRANCH 42 43
ENDBRANCH 41 42
ENDBRANCH 40 41
ENDBRANCH 39 40
BRANCH 39 48
ATOM     48  N   LYS B 184       2.474  37.575   9.219  1.00 95.16 LIG-0.35  N 
ATOM     49 H    LYS B 184       3.062  38.119   8.906  1.00 95.16 LIG 0.16  HD
ATOM     50  C   PRO B 183       1.970  37.655  10.449  1.00102.83 LIG 0.24  C 
ATOM     51 O    PRO B 183       1.124  36.860  10.873  1.00 96.65 LIG-0.27  OA
BRANCH 50 52
ATOM     52  CA  PRO B 183       2.502  38.783  11.329  1.00119.60 LIG 0.18  C 
ATOM     53  N   PRO B 183       3.744  39.394  10.832  1.00125.08 LIG-0.34  N 
ATOM     54  CD  PRO B 183       3.473  40.575   9.991  1.00128.64 LIG 0.13  C 
ATOM     55  C   PRO B 182       4.924  39.070  11.388  1.00122.07 LIG 0.26  C 
ATOM     56  CG  PRO B 183       1.984  40.828  10.197  1.00127.59 LIG 0.02  C 
ATOM     57  CB  PRO B 183       1.536  39.973  11.362  1.00124.68 LIG 0.04  C 
ATOM     58 O    PRO B 182       5.034  38.280  12.328  1.00123.88 LIG-0.27  OA
BRANCH 55 59
ATOM     59  CA  PRO B 182       6.178  39.743  10.825  1.00115.83 LIG 0.35  C 
ATOM     60  CB  PRO B 182       6.511  39.193   9.430  1.00111.53 LIG 0.05  C 
ATOM     61  CG  PRO B 182       8.005  39.081   9.397  1.00111.42 LIG 0.04  C 
ATOM     62  CD  PRO B 182       8.409  38.753  10.799  1.00113.66 LIG 0.32  C 
ATOM     63  N   PRO B 182       7.381  39.433  11.608  1.00115.25 LIG 0.32  N 
ENDBRANCH 55 59
ENDBRANCH 50 52
ENDBRANCH 39 48
ENDBRANCH 37 39
ENDBRANCH 1 35
TORSDOF 24
ENDMDL
