MODEL 1
USER: ADFR SOLUTION from run 78
USER: SCORE 23.490856 LL:  -3.562 LR: -21.815 RR:   0.000 FEB: -12.568
USER: RMSD 3.266486
USER: SEED 77
USER: STATUS no improvement in best in 3 clusters for 5 generations
USER: GENES 33
USER: genes 0 Translation |==|  0.48264 0.52163 0.44809
USER: genes 1 Rotation |==|  0.52286 0.47959 0.51959 0.99868
USER: genes 2 Torsion [N]-C--CA-[N] |==|  0.40571
USER: genes 3 Torsion [C]-CA--CB-[CG] |==|  0.54588
USER: genes 4 Torsion [CA]-CB--CG-[CD] |==|  0.77479
USER: genes 5 Torsion [CB]-CG--CD-[CE] |==|  0.47026
USER: genes 6 Torsion [CG]-CD--CE-[NZ] |==|  0.25110
USER: genes 7 Torsion [CD]-CE--NZ-[HZ3] |==|  0.89416
USER: genes 8 Torsion [C]-CA--N-[C] |==|  0.80502
USER: genes 9 Torsion [N]-C--CA-[N] |==|  0.06355
USER: genes 10 Torsion [C]-CA--N-[C] |==|  0.13889
USER: genes 11 Torsion [N]-C--CA-[N] |==|  0.38280
USER: genes 12 Torsion [C]-CA--CB-[CG2] |==|  0.39307
USER: genes 13 Torsion [CA]-CB--OG1-[HG1] |==|  0.17259
USER: genes 14 Torsion [C]-CA--N-[C] |==|  0.80521
USER: genes 15 Torsion [N]-C--CA-[N] |==|  0.12696
USER: genes 16 Torsion [C]-CA--CB-[CG] |==|  0.58938
USER: genes 17 Torsion [CA]-CB--CG-[CD] |==|  0.43105
USER: genes 18 Torsion [CB]-CG--CD-[NE] |==|  0.71920
USER: genes 19 Torsion [CG]-CD--NE-[CZ] |==|  0.47312
USER: genes 20 Torsion [C]-N--CA-[CB] |==|  0.29861
USER: genes 21 Torsion [N]-CA--CB-[CG] |==|  0.89877
USER: genes 22 Torsion [CA]-CB--CG-[CD] |==|  0.41416
USER: genes 23 Torsion [CB]-CG--CD-[NE] |==|  0.10680
USER: genes 24 Torsion [CG]-CD--NE-[HE] |==|  0.09452
USER: genes 25 Torsion [N]-CA--C-[N] |==|  0.28560
USER: genes 26 Torsion [N]-CA--C-[N] |==|  0.45690
USER: genes 27 Torsion [C]-N--CA-[C] |==|  0.74238
USER: genes 28 Torsion [N]-CA--CB-[CG] |==|  0.47183
USER: genes 29 Torsion [CA]-CB--CG-[CD] |==|  0.56327
USER: genes 30 Torsion [CB]-CG--CD-[NE] |==|  0.93985
USER: genes 31 Torsion [CG]-CD--NE-[HE] |==|  0.28329
USER: genes 32 Torsion [N]-CA--C-[O] |==|  0.03415
ROOT
ATOM      1  C   LYS B 823       3.707  35.875   7.374  1.00 58.46 LIG 0.24  C 
ATOM      2 O    LYS B 823       4.821  35.890   7.897  1.00 54.34 LIG-0.27  OA
ATOM      3  N   ARG B 824       2.975  34.767   7.287  1.00 54.22 LIG-0.35  N 
ATOM      4 H    ARG B 824       2.187  34.735   6.941  1.00 54.22 LIG 0.16  HD
ENDROOT
BRANCH 1 5
ATOM      5  CA  LYS B 823       3.082  37.154   6.838  1.00 55.50 LIG 0.18  C 
BRANCH 5 6
ATOM      6  CB  LYS B 823       3.486  37.340   5.370  1.00 54.97 LIG 0.04  C 
BRANCH 6 7
ATOM      7  CG  LYS B 823       3.285  38.737   4.784  1.00 56.27 LIG 0.00  C 
BRANCH 7 8
ATOM      8  CD  LYS B 823       1.864  38.961   4.368  1.00 52.63 LIG 0.03  C 
BRANCH 8 9
ATOM      9  CE  LYS B 823       1.567  40.427   4.022  1.00 52.00 LIG 0.23  C 
BRANCH 9 10
ATOM     10  NZ  LYS B 823       1.786  40.740   2.600  1.00 59.54 LIG-0.08  N 
ATOM     11 HZ3  LYS B 823       2.503  40.302   2.306  1.00 59.54 LIG 0.27  HD
ATOM     12 HZ2  LYS B 823       1.915  41.615   2.505  1.00 59.54 LIG 0.27  HD
ATOM     13 HZ1  LYS B 823       1.073  40.492   2.128  1.00 59.54 LIG 0.27  HD
ENDBRANCH 9 10
ENDBRANCH 8 9
ENDBRANCH 7 8
ENDBRANCH 6 7
ENDBRANCH 5 6
BRANCH 5 14
ATOM     14  N   LYS B 823       3.519  38.292   7.642  1.00 58.26 LIG-0.35  N 
ATOM     15 H    LYS B 823       4.058  38.827   7.240  1.00 58.26 LIG 0.16  HD
ATOM     16  C   ARG B 822       3.096  38.459   8.901  1.00 61.99 LIG 0.24  C 
ATOM     17 O    ARG B 822       2.170  37.797   9.385  1.00 62.30 LIG-0.27  OA
BRANCH 16 18
ATOM     18  CA  ARG B 822       3.769  39.528   9.757  1.00 69.11 LIG 0.18  C 
BRANCH 18 19
ATOM     19  N   ARG B 822       4.409  40.567   8.966  1.00 79.36 LIG-0.35  N 
ATOM     20 H    ARG B 822       5.222  40.732   9.194  1.00 79.36 LIG 0.16  HD
ATOM     21  C   THR B 821       3.780  41.200   7.981  1.00 84.58 LIG 0.24  C 
ATOM     22 O    THR B 821       2.705  40.813   7.510  1.00 84.15 LIG-0.27  OA
BRANCH 21 23
ATOM     23  CA  THR B 821       4.494  42.424   7.422  1.00 89.83 LIG 0.20  C 
BRANCH 23 24
ATOM     24  CB  THR B 821       3.903  43.693   8.046  1.00 88.11 LIG 0.15  C 
ATOM     25  CG2 THR B 821       4.988  44.725   8.332  1.00 89.90 LIG 0.04  C 
BRANCH 24 26
ATOM     26 OG1  THR B 821       2.945  44.270   7.149  1.00 82.62 LIG-0.39  OA
ATOM     27 HG1  THR B 821       2.314  43.729   7.028  1.00 82.62 LIG 0.21  HD
ENDBRANCH 24 26
ENDBRANCH 23 24
BRANCH 23 28
ATOM     28  N   THR B 821       4.410  42.461   5.968  1.00 98.89 LIG-0.34  N 
ATOM     29 H    THR B 821       3.903  43.084   5.659  1.00 98.89 LIG 0.16  HD
ATOM     30  C   ALA B 820       5.071  41.596   5.198  1.00104.93 LIG 0.26  C 
ATOM     31 O    ALA B 820       5.733  40.658   5.652  1.00110.84 LIG-0.27  OA
BRANCH 30 32
ATOM     32  CA  ALA B 820       4.966  41.817   3.692  1.00100.65 LIG 0.40  C 
ATOM     33  N   ALA B 820       5.160  43.225   3.368  1.00102.47 LIG 0.61  N 
ATOM     34  CB  ALA B 820       5.979  40.955   2.951  1.00 93.61 LIG 0.06  C 
ENDBRANCH 30 32
ENDBRANCH 23 28
ENDBRANCH 21 23
ENDBRANCH 18 19
BRANCH 18 35
ATOM     35  CB  ARG B 822       2.781  40.156  10.740  1.00 74.55 LIG 0.04  C 
BRANCH 35 36
ATOM     36  CG  ARG B 822       3.130  41.607  10.989  1.00 89.07 LIG 0.02  C 
BRANCH 36 37
ATOM     37  CD  ARG B 822       1.962  42.450  11.430  1.00 95.35 LIG 0.14  C 
BRANCH 37 38
ATOM     38  NE  ARG B 822       1.453  43.230  10.303  1.00111.05 LIG-0.23  N 
ATOM     39  CZ  ARG B 822       0.319  43.926  10.324  1.00116.06 LIG 0.67  C 
ATOM     40  NH1 ARG B 822      -0.425  43.950  11.423  1.00115.06 LIG-0.23  N 
ATOM     41  NH2 ARG B 822      -0.061  44.617   9.254  1.00119.10 LIG-0.23  N 
ATOM     42 2HH1 ARG B 822      -1.157  44.399  11.437  1.00115.06 LIG 0.17  HD
ATOM     43 1HH1 ARG B 822      -0.174  43.515  12.121  1.00115.06 LIG 0.17  HD
ATOM     44 1HH2 ARG B 822       0.427  44.615   8.546  1.00119.10 LIG 0.17  HD
ATOM     45 2HH2 ARG B 822      -0.794  45.066   9.270  1.00119.10 LIG 0.17  HD
ATOM     46 HE   ARG B 822       1.917  43.239   9.579  1.00111.05 LIG 0.18  HD
ENDBRANCH 37 38
ENDBRANCH 36 37
ENDBRANCH 35 36
ENDBRANCH 18 35
ENDBRANCH 16 18
ENDBRANCH 5 14
ENDBRANCH 1 5
BRANCH 3 47
ATOM     47  CA  ARG B 824       3.472  33.489   7.789  1.00 54.21 LIG 0.18  C 
BRANCH 47 48
ATOM     48  CB  ARG B 824       2.753  33.076   9.073  1.00 52.82 LIG 0.04  C 
BRANCH 48 49
ATOM     49  CG  ARG B 824       2.434  34.265   9.969  1.00 57.86 LIG 0.02  C 
BRANCH 49 50
ATOM     50  CD  ARG B 824       1.179  34.058  10.775  1.00 56.10 LIG 0.14  C 
BRANCH 50 51
ATOM     51  NE  ARG B 824       1.070  32.684  11.236  1.00 65.02 LIG-0.23  N 
ATOM     52  CZ  ARG B 824      -0.071  32.029  11.371  1.00 62.89 LIG 0.67  C 
ATOM     53  NH1 ARG B 824      -1.216  32.620  11.060  1.00 60.33 LIG-0.23  N 
ATOM     54  NH2 ARG B 824      -0.063  30.778  11.795  1.00 55.39 LIG-0.23  N 
ATOM     55 1HH1 ARG B 824      -1.217  33.429  10.769  1.00 60.33 LIG 0.17  HD
ATOM     56 2HH1 ARG B 824      -1.958  32.193  11.148  1.00 60.33 LIG 0.17  HD
ATOM     57 2HH2 ARG B 824      -0.803  30.350  11.884  1.00 55.39 LIG 0.17  HD
ATOM     58 1HH2 ARG B 824       0.683  30.392  11.981  1.00 55.39 LIG 0.17  HD
ATOM     59 HE   ARG B 824       1.797  32.269  11.434  1.00 65.02 LIG 0.18  HD
ENDBRANCH 50 51
ENDBRANCH 49 50
ENDBRANCH 48 49
ENDBRANCH 47 48
BRANCH 47 60
ATOM     60  C   ARG B 824       3.354  32.404   6.726  1.00 52.05 LIG 0.24  C 
ATOM     61  N   PRO B 825       4.446  32.036   6.068  1.00 68.51 LIG-0.34  N 
ATOM     62  CA  PRO B 825       4.366  31.087   4.957  1.00 67.77 LIG 0.18  C 
ATOM     63  CD  PRO B 825       5.839  32.229   6.519  1.00 70.13 LIG 0.13  C 
ATOM     64  CB  PRO B 825       5.783  31.113   4.386  1.00 68.40 LIG 0.04  C 
ATOM     65  CG  PRO B 825       6.633  31.308   5.603  1.00 73.68 LIG 0.02  C 
ATOM     66 O    ARG B 824       2.249  31.877   6.504  1.00 51.39 LIG-0.27  OA
BRANCH 62 67
ATOM     67  C   PRO B 825       3.991  29.699   5.445  1.00 71.49 LIG 0.24  C 
ATOM     68  N   ARG B 826       3.585  28.868   4.493  1.00 70.87 LIG-0.35  N 
ATOM     69 H    ARG B 826       3.436  29.104   3.680  1.00 70.87 LIG 0.16  HD
ATOM     70 O    PRO B 825       4.029  29.390   6.636  1.00 73.63 LIG-0.27  OA
BRANCH 68 71
ATOM     71  CA  ARG B 826       3.355  27.460   4.759  1.00 67.47 LIG 0.16  C 
BRANCH 71 72
ATOM     72  CB  ARG B 826       2.190  26.936   3.922  1.00 70.42 LIG 0.04  C 
BRANCH 72 73
ATOM     73  CG  ARG B 826       2.071  25.430   3.981  1.00 69.62 LIG 0.02  C 
BRANCH 73 74
ATOM     74  CD  ARG B 826       1.336  24.812   2.807  1.00 58.43 LIG 0.14  C 
BRANCH 74 75
ATOM     75  NE  ARG B 826       0.447  25.718   2.079  1.00 52.00 LIG-0.23  N 
ATOM     76 HE   ARG B 826       0.724  26.039   1.330  1.00 52.00 LIG 0.18  HD
ATOM     77  CZ  ARG B 826      -0.759  26.076   2.500  1.00 51.94 LIG 0.67  C 
ATOM     78  NH1 ARG B 826      -1.181  25.656   3.685  1.00 56.61 LIG-0.23  N 
ATOM     79  NH2 ARG B 826      -1.516  26.872   1.761  1.00 47.30 LIG-0.23  N 
ATOM     80 2HH1 ARG B 826      -1.961  25.882   3.969  1.00 56.61 LIG 0.17  HD
ATOM     81 1HH1 ARG B 826      -0.675  25.157   4.170  1.00 56.61 LIG 0.17  HD
ATOM     82 1HH2 ARG B 826      -1.227  27.160   1.004  1.00 47.30 LIG 0.17  HD
ATOM     83 2HH2 ARG B 826      -2.297  27.101   2.039  1.00 47.30 LIG 0.17  HD
ENDBRANCH 74 75
ENDBRANCH 73 74
ENDBRANCH 72 73
ENDBRANCH 71 72
BRANCH 71 84
ATOM     84  C   ARG B 826       4.613  26.655   4.459  1.00 71.98 LIG 0.22  C 
ATOM     85 O    ARG B 826       5.689  27.220   4.271  1.00 86.43 LIG-0.29  OA
ENDBRANCH 71 84
ENDBRANCH 68 71
ENDBRANCH 62 67
ENDBRANCH 47 60
ENDBRANCH 3 47
TORSDOF 31
ENDMDL
MODEL 2
USER: ADFR SOLUTION from run 135
USER: SCORE 24.033210 LL:  -4.138 LR: -21.619 RR:   0.000 FEB: -12.371
USER: RMSD 3.062091
USER: SEED 134
USER: STATUS no improvement in best in 6 clusters for 5 generations
USER: GENES 33
USER: genes 0 Translation |==|  0.47656 0.53324 0.42509
USER: genes 1 Rotation |==|  0.52972 0.55130 0.57088 0.99139
USER: genes 2 Torsion [N]-C--CA-[N] |==|  0.40974
USER: genes 3 Torsion [C]-CA--CB-[CG] |==|  0.62011
USER: genes 4 Torsion [CA]-CB--CG-[CD] |==|  0.68271
USER: genes 5 Torsion [CB]-CG--CD-[CE] |==|  0.50864
USER: genes 6 Torsion [CG]-CD--CE-[NZ] |==|  0.09387
USER: genes 7 Torsion [CD]-CE--NZ-[HZ3] |==|  0.06288
USER: genes 8 Torsion [C]-CA--N-[C] |==|  0.80995
USER: genes 9 Torsion [N]-C--CA-[N] |==|  0.11772
USER: genes 10 Torsion [C]-CA--N-[C] |==|  0.64171
USER: genes 11 Torsion [N]-C--CA-[N] |==|  0.39853
USER: genes 12 Torsion [C]-CA--CB-[CG2] |==|  0.97427
USER: genes 13 Torsion [CA]-CB--OG1-[HG1] |==|  0.27392
USER: genes 14 Torsion [C]-CA--N-[C] |==|  0.71409
USER: genes 15 Torsion [N]-C--CA-[N] |==|  0.28461
USER: genes 16 Torsion [C]-CA--CB-[CG] |==|  0.58124
USER: genes 17 Torsion [CA]-CB--CG-[CD] |==|  0.30754
USER: genes 18 Torsion [CB]-CG--CD-[NE] |==|  0.70402
USER: genes 19 Torsion [CG]-CD--NE-[CZ] |==|  0.54543
USER: genes 20 Torsion [C]-N--CA-[CB] |==|  0.28177
USER: genes 21 Torsion [N]-CA--CB-[CG] |==|  0.12361
USER: genes 22 Torsion [CA]-CB--CG-[CD] |==|  0.54893
USER: genes 23 Torsion [CB]-CG--CD-[NE] |==|  0.56462
USER: genes 24 Torsion [CG]-CD--NE-[HE] |==|  0.32972
USER: genes 25 Torsion [N]-CA--C-[N] |==|  0.34120
USER: genes 26 Torsion [N]-CA--C-[N] |==|  0.46583
USER: genes 27 Torsion [C]-N--CA-[C] |==|  0.74987
USER: genes 28 Torsion [N]-CA--CB-[CG] |==|  0.39730
USER: genes 29 Torsion [CA]-CB--CG-[CD] |==|  0.51808
USER: genes 30 Torsion [CB]-CG--CD-[NE] |==|  0.03959
USER: genes 31 Torsion [CG]-CD--NE-[HE] |==|  0.22413
USER: genes 32 Torsion [N]-CA--C-[O] |==|  0.05325
ROOT
ATOM      1  C   LYS B 823       3.580  36.214   6.874  1.00 58.46 LIG 0.24  C 
ATOM      2 O    LYS B 823       4.763  36.483   7.075  1.00 54.34 LIG-0.27  OA
ATOM      3  N   ARG B 824       3.107  34.972   6.945  1.00 54.22 LIG-0.35  N 
ATOM      4 H    ARG B 824       2.282  34.762   6.825  1.00 54.22 LIG 0.16  HD
ENDROOT
BRANCH 1 5
ATOM      5  CA  LYS B 823       2.571  37.315   6.578  1.00 55.50 LIG 0.18  C 
BRANCH 5 6
ATOM      6  CB  LYS B 823       2.482  37.527   5.062  1.00 54.97 LIG 0.04  C 
BRANCH 6 7
ATOM      7  CG  LYS B 823       2.447  38.978   4.582  1.00 56.27 LIG 0.00  C 
BRANCH 7 8
ATOM      8  CD  LYS B 823       1.135  39.315   3.941  1.00 52.63 LIG 0.03  C 
BRANCH 8 9
ATOM      9  CE  LYS B 823       1.094  40.743   3.380  1.00 52.00 LIG 0.23  C 
BRANCH 9 10
ATOM     10  NZ  LYS B 823       2.394  41.196   2.857  1.00 59.54 LIG-0.08  N 
ATOM     11 HZ3  LYS B 823       2.894  40.489   2.651  1.00 59.54 LIG 0.27  HD
ATOM     12 HZ2  LYS B 823       2.809  41.682   3.475  1.00 59.54 LIG 0.27  HD
ATOM     13 HZ1  LYS B 823       2.264  41.691   2.128  1.00 59.54 LIG 0.27  HD
ENDBRANCH 9 10
ENDBRANCH 8 9
ENDBRANCH 7 8
ENDBRANCH 6 7
ENDBRANCH 5 6
BRANCH 5 14
ATOM     14  N   LYS B 823       2.974  38.547   7.250  1.00 58.26 LIG-0.35  N 
ATOM     15 H    LYS B 823       3.226  39.177   6.721  1.00 58.26 LIG 0.16  HD
ATOM     16  C   ARG B 822       2.944  38.656   8.584  1.00 61.99 LIG 0.24  C 
ATOM     17 O    ARG B 822       2.390  37.819   9.307  1.00 62.30 LIG-0.27  OA
BRANCH 16 18
ATOM     18  CA  ARG B 822       3.597  39.875   9.227  1.00 69.11 LIG 0.18  C 
BRANCH 18 19
ATOM     19  N   ARG B 822       3.312  41.112   8.517  1.00 79.36 LIG-0.35  N 
ATOM     20 H    ARG B 822       2.477  41.245   8.362  1.00 79.36 LIG 0.16  HD
ATOM     21  C   THR B 821       4.271  41.955   8.147  1.00 84.58 LIG 0.24  C 
ATOM     22 O    THR B 821       5.432  41.881   8.563  1.00 84.15 LIG-0.27  OA
BRANCH 21 23
ATOM     23  CA  THR B 821       3.840  43.068   7.200  1.00 89.83 LIG 0.20  C 
BRANCH 23 24
ATOM     24  CB  THR B 821       4.073  42.629   5.750  1.00 88.11 LIG 0.15  C 
ATOM     25  CG2 THR B 821       4.864  41.328   5.688  1.00 89.90 LIG 0.04  C 
BRANCH 24 26
ATOM     26 OG1  THR B 821       2.812  42.431   5.098  1.00 82.62 LIG-0.39  OA
ATOM     27 HG1  THR B 821       2.621  43.111   4.644  1.00 82.62 LIG 0.21  HD
ENDBRANCH 24 26
ENDBRANCH 23 24
BRANCH 23 28
ATOM     28  N   THR B 821       4.543  44.310   7.496  1.00 98.89 LIG-0.34  N 
ATOM     29 H    THR B 821       5.355  44.332   7.212  1.00 98.89 LIG 0.16  HD
ATOM     30  C   ALA B 820       3.960  45.314   8.152  1.00104.93 LIG 0.26  C 
ATOM     31 O    ALA B 820       2.822  45.242   8.624  1.00110.84 LIG-0.27  OA
BRANCH 30 32
ATOM     32  CA  ALA B 820       4.787  46.589   8.304  1.00100.65 LIG 0.40  C 
ATOM     33  N   ALA B 820       4.342  47.602   7.354  1.00102.47 LIG 0.61  N 
ATOM     34  CB  ALA B 820       4.698  47.119   9.729  1.00 93.61 LIG 0.06  C 
ENDBRANCH 30 32
ENDBRANCH 23 28
ENDBRANCH 21 23
ENDBRANCH 18 19
BRANCH 18 35
ATOM     35  CB  ARG B 822       3.191  40.013  10.695  1.00 74.55 LIG 0.04  C 
BRANCH 35 36
ATOM     36  CG  ARG B 822       3.204  41.467  11.116  1.00 89.07 LIG 0.02  C 
BRANCH 36 37
ATOM     37  CD  ARG B 822       1.836  42.038  11.382  1.00 95.35 LIG 0.14  C 
BRANCH 37 38
ATOM     38  NE  ARG B 822       1.450  42.940  10.298  1.00111.05 LIG-0.23  N 
ATOM     39  CZ  ARG B 822       0.461  43.828  10.378  1.00116.06 LIG 0.67  C 
ATOM     40  NH1 ARG B 822      -0.238  43.943  11.500  1.00115.06 LIG-0.23  N 
ATOM     41  NH2 ARG B 822       0.187  44.617   9.344  1.00119.10 LIG-0.23  N 
ATOM     42 2HH1 ARG B 822      -0.876  44.517  11.551  1.00115.06 LIG 0.17  HD
ATOM     43 1HH1 ARG B 822      -0.053  43.444  12.175  1.00115.06 LIG 0.17  HD
ATOM     44 1HH2 ARG B 822       0.649  44.554   8.621  1.00119.10 LIG 0.17  HD
ATOM     45 2HH2 ARG B 822      -0.452  45.189   9.398  1.00119.10 LIG 0.17  HD
ATOM     46 HE   ARG B 822       1.890  42.892   9.560  1.00111.05 LIG 0.18  HD
ENDBRANCH 37 38
ENDBRANCH 36 37
ENDBRANCH 35 36
ENDBRANCH 18 35
ENDBRANCH 16 18
ENDBRANCH 5 14
ENDBRANCH 1 5
BRANCH 3 47
ATOM     47  CA  ARG B 824       3.986  33.844   7.242  1.00 54.21 LIG 0.18  C 
BRANCH 47 48
ATOM     48  CB  ARG B 824       3.859  33.408   8.702  1.00 52.82 LIG 0.04  C 
BRANCH 48 49
ATOM     49  CG  ARG B 824       2.411  33.336   9.164  1.00 57.86 LIG 0.02  C 
BRANCH 49 50
ATOM     50  CD  ARG B 824       2.284  33.328  10.665  1.00 56.10 LIG 0.14  C 
BRANCH 50 51
ATOM     51  NE  ARG B 824       1.028  32.730  11.084  1.00 65.02 LIG-0.23  N 
ATOM     52  CZ  ARG B 824      -0.167  33.201  10.768  1.00 62.89 LIG 0.67  C 
ATOM     53  NH1 ARG B 824      -0.274  34.278  10.003  1.00 60.33 LIG-0.23  N 
ATOM     54  NH2 ARG B 824      -1.250  32.580  11.196  1.00 55.39 LIG-0.23  N 
ATOM     55 1HH1 ARG B 824       0.434  34.671   9.712  1.00 60.33 LIG 0.17  HD
ATOM     56 2HH1 ARG B 824      -1.051  34.584   9.798  1.00 60.33 LIG 0.17  HD
ATOM     57 2HH2 ARG B 824      -2.029  32.884  10.993  1.00 55.39 LIG 0.17  HD
ATOM     58 1HH2 ARG B 824      -1.178  31.872  11.680  1.00 55.39 LIG 0.17  HD
ATOM     59 HE   ARG B 824       1.064  32.022  11.571  1.00 65.02 LIG 0.18  HD
ENDBRANCH 50 51
ENDBRANCH 49 50
ENDBRANCH 48 49
ENDBRANCH 47 48
BRANCH 47 60
ATOM     60  C   ARG B 824       3.713  32.679   6.300  1.00 52.05 LIG 0.24  C 
ATOM     61  N   PRO B 825       4.713  32.206   5.566  1.00 68.51 LIG-0.34  N 
ATOM     62  CA  PRO B 825       4.477  31.170   4.559  1.00 67.77 LIG 0.18  C 
ATOM     63  CD  PRO B 825       6.152  32.374   5.848  1.00 70.13 LIG 0.13  C 
ATOM     64  CB  PRO B 825       5.823  31.083   3.842  1.00 68.40 LIG 0.04  C 
ATOM     65  CG  PRO B 825       6.808  31.342   4.939  1.00 73.68 LIG 0.02  C 
ATOM     66 O    ARG B 824       2.572  32.186   6.245  1.00 51.39 LIG-0.27  OA
BRANCH 62 67
ATOM     67  C   PRO B 825       4.108  29.847   5.208  1.00 71.49 LIG 0.24  C 
ATOM     68  N   ARG B 826       3.633  28.934   4.370  1.00 70.87 LIG-0.35  N 
ATOM     69 H    ARG B 826       3.440  29.090   3.547  1.00 70.87 LIG 0.16  HD
ATOM     70 O    PRO B 825       4.211  29.660   6.420  1.00 73.63 LIG-0.27  OA
BRANCH 68 71
ATOM     71  CA  ARG B 826       3.395  27.566   4.792  1.00 67.47 LIG 0.16  C 
BRANCH 71 72
ATOM     72  CB  ARG B 826       2.216  26.964   4.032  1.00 70.42 LIG 0.04  C 
BRANCH 72 73
ATOM     73  CG  ARG B 826       2.425  25.503   3.706  1.00 69.62 LIG 0.02  C 
BRANCH 73 74
ATOM     74  CD  ARG B 826       1.355  24.897   2.818  1.00 58.43 LIG 0.14  C 
BRANCH 74 75
ATOM     75  NE  ARG B 826       0.478  25.861   2.151  1.00 52.00 LIG-0.23  N 
ATOM     76 HE   ARG B 826       0.768  26.242   1.437  1.00 52.00 LIG 0.18  HD
ATOM     77  CZ  ARG B 826      -0.736  26.182   2.577  1.00 51.94 LIG 0.67  C 
ATOM     78  NH1 ARG B 826      -1.180  25.665   3.716  1.00 56.61 LIG-0.23  N 
ATOM     79  NH2 ARG B 826      -1.481  27.036   1.893  1.00 47.30 LIG-0.23  N 
ATOM     80 2HH1 ARG B 826      -1.965  25.866   4.003  1.00 56.61 LIG 0.17  HD
ATOM     81 1HH1 ARG B 826      -0.681  25.128   4.167  1.00 56.61 LIG 0.17  HD
ATOM     82 1HH2 ARG B 826      -1.179  27.386   1.168  1.00 47.30 LIG 0.17  HD
ATOM     83 2HH2 ARG B 826      -2.267  27.241   2.174  1.00 47.30 LIG 0.17  HD
ENDBRANCH 74 75
ENDBRANCH 73 74
ENDBRANCH 72 73
ENDBRANCH 71 72
BRANCH 71 84
ATOM     84  C   ARG B 826       4.643  26.722   4.566  1.00 71.98 LIG 0.22  C 
ATOM     85 O    ARG B 826       5.743  27.252   4.428  1.00 86.43 LIG-0.29  OA
ENDBRANCH 71 84
ENDBRANCH 68 71
ENDBRANCH 62 67
ENDBRANCH 47 60
ENDBRANCH 3 47
TORSDOF 31
ENDMDL
MODEL 3
USER: ADFR SOLUTION from run 177
USER: SCORE 23.074645 LL:  -3.203 LR: -21.549 RR:   0.000 FEB: -12.301
USER: RMSD 3.166368
USER: SEED 176
USER: STATUS searching
USER: GENES 33
USER: genes 0 Translation |==|  0.47381 0.53295 0.50667
USER: genes 1 Rotation |==|  0.50413 0.43244 0.54693 0.99317
USER: genes 2 Torsion [N]-C--CA-[N] |==|  0.41934
USER: genes 3 Torsion [C]-CA--CB-[CG] |==|  0.52763
USER: genes 4 Torsion [CA]-CB--CG-[CD] |==|  0.79824
USER: genes 5 Torsion [CB]-CG--CD-[CE] |==|  0.58513
USER: genes 6 Torsion [CG]-CD--CE-[NZ] |==|  0.47915
USER: genes 7 Torsion [CD]-CE--NZ-[HZ3] |==|  0.19433
USER: genes 8 Torsion [C]-CA--N-[C] |==|  0.82776
USER: genes 9 Torsion [N]-C--CA-[N] |==|  0.10798
USER: genes 10 Torsion [C]-CA--N-[C] |==|  0.64718
USER: genes 11 Torsion [N]-C--CA-[N] |==|  0.90599
USER: genes 12 Torsion [C]-CA--CB-[CG2] |==|  0.43029
USER: genes 13 Torsion [CA]-CB--OG1-[HG1] |==|  0.88769
USER: genes 14 Torsion [C]-CA--N-[C] |==|  0.71667
USER: genes 15 Torsion [N]-C--CA-[N] |==|  0.09068
USER: genes 16 Torsion [C]-CA--CB-[CG] |==|  0.73518
USER: genes 17 Torsion [CA]-CB--CG-[CD] |==|  0.69364
USER: genes 18 Torsion [CB]-CG--CD-[NE] |==|  0.36806
USER: genes 19 Torsion [CG]-CD--NE-[CZ] |==|  0.18466
USER: genes 20 Torsion [C]-N--CA-[CB] |==|  0.24957
USER: genes 21 Torsion [N]-CA--CB-[CG] |==|  0.04394
USER: genes 22 Torsion [CA]-CB--CG-[CD] |==|  0.48196
USER: genes 23 Torsion [CB]-CG--CD-[NE] |==|  0.87520
USER: genes 24 Torsion [CG]-CD--NE-[HE] |==|  0.25174
USER: genes 25 Torsion [N]-CA--C-[N] |==|  0.39945
USER: genes 26 Torsion [N]-CA--C-[N] |==|  0.47938
USER: genes 27 Torsion [C]-N--CA-[C] |==|  0.76135
USER: genes 28 Torsion [N]-CA--CB-[CG] |==|  0.53022
USER: genes 29 Torsion [CA]-CB--CG-[CD] |==|  0.54925
USER: genes 30 Torsion [CB]-CG--CD-[NE] |==|  0.78900
USER: genes 31 Torsion [CG]-CD--NE-[HE] |==|  0.76584
USER: genes 32 Torsion [N]-CA--C-[O] |==|  0.99190
ROOT
ATOM      1  C   LYS B 823       3.522  36.206   8.648  1.00 58.46 LIG 0.24  C 
ATOM      2 O    LYS B 823       4.503  36.369   9.372  1.00 54.34 LIG-0.27  OA
ATOM      3  N   ARG B 824       2.925  35.025   8.511  1.00 54.22 LIG-0.35  N 
ATOM      4 H    ARG B 824       2.228  34.889   8.024  1.00 54.22 LIG 0.16  HD
ENDROOT
BRANCH 1 5
ATOM      5  CA  LYS B 823       2.902  37.378   7.901  1.00 55.50 LIG 0.18  C 
BRANCH 5 6
ATOM      6  CB  LYS B 823       3.484  37.440   6.484  1.00 54.97 LIG 0.04  C 
BRANCH 6 7
ATOM      7  CG  LYS B 823       3.153  38.691   5.670  1.00 56.27 LIG 0.00  C 
BRANCH 7 8
ATOM      8  CD  LYS B 823       1.723  38.695   5.223  1.00 52.63 LIG 0.03  C 
BRANCH 8 9
ATOM      9  CE  LYS B 823       1.518  39.422   3.887  1.00 52.00 LIG 0.23  C 
BRANCH 9 10
ATOM     10  NZ  LYS B 823       0.152  39.279   3.355  1.00 59.54 LIG-0.08  N 
ATOM     11 HZ3  LYS B 823      -0.415  39.741   3.864  1.00 59.54 LIG 0.27  HD
ATOM     12 HZ2  LYS B 823      -0.079  38.420   3.359  1.00 59.54 LIG 0.27  HD
ATOM     13 HZ1  LYS B 823       0.124  39.591   2.522  1.00 59.54 LIG 0.27  HD
ENDBRANCH 9 10
ENDBRANCH 8 9
ENDBRANCH 7 8
ENDBRANCH 6 7
ENDBRANCH 5 6
BRANCH 5 14
ATOM     14  N   LYS B 823       3.167  38.619   8.624  1.00 58.26 LIG-0.35  N 
ATOM     15 H    LYS B 823       3.635  39.194   8.187  1.00 58.26 LIG 0.16  HD
ATOM     16  C   ARG B 822       2.704  38.815   9.864  1.00 61.99 LIG 0.24  C 
ATOM     17 O    ARG B 822       1.870  38.069  10.389  1.00 62.30 LIG-0.27  OA
BRANCH 16 18
ATOM     18  CA  ARG B 822       3.212  40.024  10.645  1.00 69.11 LIG 0.18  C 
BRANCH 18 19
ATOM     19  N   ARG B 822       3.368  41.210   9.817  1.00 79.36 LIG-0.35  N 
ATOM     20 H    ARG B 822       2.666  41.419   9.367  1.00 79.36 LIG 0.16  HD
ATOM     21  C   THR B 821       4.504  41.899   9.770  1.00 84.58 LIG 0.24  C 
ATOM     22 O    THR B 821       5.425  41.735  10.576  1.00 84.15 LIG-0.27  OA
BRANCH 21 23
ATOM     23  CA  THR B 821       4.589  42.955   8.675  1.00 89.83 LIG 0.20  C 
BRANCH 23 24
ATOM     24  CB  THR B 821       4.050  44.289   9.205  1.00 88.11 LIG 0.15  C 
ATOM     25  CG2 THR B 821       4.645  45.467   8.444  1.00 89.90 LIG 0.04  C 
BRANCH 24 26
ATOM     26 OG1  THR B 821       2.624  44.323   9.062  1.00 82.62 LIG-0.39  OA
ATOM     27 HG1  THR B 821       2.408  43.985   8.324  1.00 82.62 LIG 0.21  HD
ENDBRANCH 24 26
ENDBRANCH 23 24
BRANCH 23 28
ATOM     28  N   THR B 821       3.870  42.531   7.480  1.00 98.89 LIG-0.34  N 
ATOM     29 H    THR B 821       3.016  42.618   7.533  1.00 98.89 LIG 0.16  HD
ATOM     30  C   ALA B 820       4.501  42.053   6.407  1.00104.93 LIG 0.26  C 
ATOM     31 O    ALA B 820       5.720  41.859   6.372  1.00110.84 LIG-0.27  OA
BRANCH 30 32
ATOM     32  CA  ALA B 820       3.627  41.741   5.195  1.00100.65 LIG 0.40  C 
ATOM     33  N   ALA B 820       2.504  42.668   5.124  1.00102.47 LIG 0.61  N 
ATOM     34  CB  ALA B 820       4.448  41.799   3.914  1.00 93.61 LIG 0.06  C 
ENDBRANCH 30 32
ENDBRANCH 23 28
ENDBRANCH 21 23
ENDBRANCH 18 19
BRANCH 18 35
ATOM     35  CB  ARG B 822       2.305  40.337  11.835  1.00 74.55 LIG 0.04  C 
BRANCH 35 36
ATOM     36  CG  ARG B 822       1.292  41.399  11.466  1.00 89.07 LIG 0.02  C 
BRANCH 36 37
ATOM     37  CD  ARG B 822       1.522  42.725  12.143  1.00 95.35 LIG 0.14  C 
BRANCH 37 38
ATOM     38  NE  ARG B 822       1.442  43.808  11.164  1.00111.05 LIG-0.23  N 
ATOM     39  CZ  ARG B 822       0.331  44.154  10.517  1.00116.06 LIG 0.67  C 
ATOM     40  NH1 ARG B 822      -0.803  43.506  10.753  1.00115.06 LIG-0.23  N 
ATOM     41  NH2 ARG B 822       0.349  45.161   9.650  1.00119.10 LIG-0.23  N 
ATOM     42 2HH1 ARG B 822      -1.521  43.729  10.336  1.00115.06 LIG 0.17  HD
ATOM     43 1HH1 ARG B 822      -0.820  42.864  11.324  1.00115.06 LIG 0.17  HD
ATOM     44 1HH2 ARG B 822       1.080  45.591   9.507  1.00119.10 LIG 0.17  HD
ATOM     45 2HH2 ARG B 822      -0.369  45.382   9.234  1.00119.10 LIG 0.17  HD
ATOM     46 HE   ARG B 822       2.160  44.249  10.995  1.00111.05 LIG 0.18  HD
ENDBRANCH 37 38
ENDBRANCH 36 37
ENDBRANCH 35 36
ENDBRANCH 18 35
ENDBRANCH 16 18
ENDBRANCH 5 14
ENDBRANCH 1 5
BRANCH 3 47
ATOM     47  CA  ARG B 824       3.426  33.838   9.199  1.00 54.21 LIG 0.18  C 
BRANCH 47 48
ATOM     48  CB  ARG B 824       2.784  33.680  10.578  1.00 52.82 LIG 0.04  C 
BRANCH 48 49
ATOM     49  CG  ARG B 824       1.537  34.537  10.740  1.00 57.86 LIG 0.02  C 
BRANCH 49 50
ATOM     50  CD  ARG B 824       0.817  34.267  12.035  1.00 56.10 LIG 0.14  C 
BRANCH 50 51
ATOM     51  NE  ARG B 824       0.705  32.840  12.288  1.00 65.02 LIG-0.23  N 
ATOM     52  CZ  ARG B 824      -0.298  32.084  11.874  1.00 62.89 LIG 0.67  C 
ATOM     53  NH1 ARG B 824      -1.281  32.617  11.162  1.00 60.33 LIG-0.23  N 
ATOM     54  NH2 ARG B 824      -0.304  30.793  12.152  1.00 55.39 LIG-0.23  N 
ATOM     55 1HH1 ARG B 824      -1.266  33.455  10.969  1.00 60.33 LIG 0.17  HD
ATOM     56 2HH1 ARG B 824      -1.933  32.124  10.894  1.00 60.33 LIG 0.17  HD
ATOM     57 2HH2 ARG B 824      -0.955  30.299  11.885  1.00 55.39 LIG 0.17  HD
ATOM     58 1HH2 ARG B 824       0.344  30.447  12.602  1.00 55.39 LIG 0.17  HD
ATOM     59 HE   ARG B 824       1.334  32.462  12.736  1.00 65.02 LIG 0.18  HD
ENDBRANCH 50 51
ENDBRANCH 49 50
ENDBRANCH 48 49
ENDBRANCH 47 48
BRANCH 47 60
ATOM     60  C   ARG B 824       3.215  32.589   8.354  1.00 52.05 LIG 0.24  C 
ATOM     61  N   PRO B 825       4.139  31.636   8.384  1.00 68.51 LIG-0.34  N 
ATOM     62  CA  PRO B 825       4.043  30.473   7.502  1.00 67.77 LIG 0.18  C 
ATOM     63  CD  PRO B 825       5.139  31.429   9.451  1.00 70.13 LIG 0.13  C 
ATOM     64  CB  PRO B 825       5.380  29.767   7.725  1.00 68.40 LIG 0.04  C 
ATOM     65  CG  PRO B 825       5.659  30.025   9.173  1.00 73.68 LIG 0.02  C 
ATOM     66 O    ARG B 824       2.184  32.477   7.668  1.00 51.39 LIG-0.27  OA
BRANCH 62 67
ATOM     67  C   PRO B 825       2.875  29.583   7.889  1.00 71.49 LIG 0.24  C 
ATOM     68  N   ARG B 826       2.630  28.591   7.042  1.00 70.87 LIG-0.35  N 
ATOM     69 H    ARG B 826       3.016  28.504   6.278  1.00 70.87 LIG 0.16  HD
ATOM     70 O    PRO B 825       2.194  29.795   8.892  1.00 73.63 LIG-0.27  OA
BRANCH 68 71
ATOM     71  CA  ARG B 826       1.666  27.551   7.347  1.00 67.47 LIG 0.16  C 
BRANCH 71 72
ATOM     72  CB  ARG B 826       1.070  26.974   6.065  1.00 70.42 LIG 0.04  C 
BRANCH 72 73
ATOM     73  CG  ARG B 826      -0.120  26.081   6.334  1.00 69.62 LIG 0.02  C 
BRANCH 73 74
ATOM     74  CD  ARG B 826      -0.487  25.160   5.185  1.00 58.43 LIG 0.14  C 
BRANCH 74 75
ATOM     75  NE  ARG B 826      -1.178  25.802   4.066  1.00 52.00 LIG-0.23  N 
ATOM     76 HE   ARG B 826      -2.031  25.900   4.122  1.00 52.00 LIG 0.18  HD
ATOM     77  CZ  ARG B 826      -0.573  26.241   2.970  1.00 51.94 LIG 0.67  C 
ATOM     78  NH1 ARG B 826       0.730  26.037   2.825  1.00 56.61 LIG-0.23  N 
ATOM     79  NH2 ARG B 826      -1.268  26.845   2.020  1.00 47.30 LIG-0.23  N 
ATOM     80 2HH1 ARG B 826       1.133  26.317   2.118  1.00 56.61 LIG 0.17  HD
ATOM     81 1HH1 ARG B 826       1.171  25.623   3.436  1.00 56.61 LIG 0.17  HD
ATOM     82 1HH2 ARG B 826      -2.116  26.954   2.109  1.00 47.30 LIG 0.17  HD
ATOM     83 2HH2 ARG B 826      -0.871  27.128   1.312  1.00 47.30 LIG 0.17  HD
ENDBRANCH 74 75
ENDBRANCH 73 74
ENDBRANCH 72 73
ENDBRANCH 71 72
BRANCH 71 84
ATOM     84  C   ARG B 826       2.325  26.443   8.157  1.00 71.98 LIG 0.22  C 
ATOM     85 O    ARG B 826       3.527  26.484   8.415  1.00 86.43 LIG-0.29  OA
ENDBRANCH 71 84
ENDBRANCH 68 71
ENDBRANCH 62 67
ENDBRANCH 47 60
ENDBRANCH 3 47
TORSDOF 31
ENDMDL
MODEL 4
USER: ADFR SOLUTION from run 116
USER: SCORE 22.617713 LL:  -3.257 LR: -20.956 RR:   0.000 FEB: -11.709
USER: RMSD 3.676713
USER: SEED 115
USER: STATUS no improvement in best in 9 clusters for 5 generations
USER: GENES 33
USER: genes 0 Translation |==|  0.46933 0.51890 0.42978
USER: genes 1 Rotation |==|  0.44446 0.73792 0.43474 0.93133
USER: genes 2 Torsion [N]-C--CA-[N] |==|  0.34011
USER: genes 3 Torsion [C]-CA--CB-[CG] |==|  0.66293
USER: genes 4 Torsion [CA]-CB--CG-[CD] |==|  0.76899
USER: genes 5 Torsion [CB]-CG--CD-[CE] |==|  0.62577
USER: genes 6 Torsion [CG]-CD--CE-[NZ] |==|  0.73780
USER: genes 7 Torsion [CD]-CE--NZ-[HZ3] |==|  0.23918
USER: genes 8 Torsion [C]-CA--N-[C] |==|  0.83046
USER: genes 9 Torsion [N]-C--CA-[N] |==|  0.94103
USER: genes 10 Torsion [C]-CA--N-[C] |==|  0.75354
USER: genes 11 Torsion [N]-C--CA-[N] |==|  0.27783
USER: genes 12 Torsion [C]-CA--CB-[CG2] |==|  0.08064
USER: genes 13 Torsion [CA]-CB--OG1-[HG1] |==|  0.66478
USER: genes 14 Torsion [C]-CA--N-[C] |==|  0.78365
USER: genes 15 Torsion [N]-C--CA-[N] |==|  0.31103
USER: genes 16 Torsion [C]-CA--CB-[CG] |==|  0.74559
USER: genes 17 Torsion [CA]-CB--CG-[CD] |==|  0.44786
USER: genes 18 Torsion [CB]-CG--CD-[NE] |==|  0.40910
USER: genes 19 Torsion [CG]-CD--NE-[CZ] |==|  0.23920
USER: genes 20 Torsion [C]-N--CA-[CB] |==|  0.49069
USER: genes 21 Torsion [N]-CA--CB-[CG] |==|  0.88971
USER: genes 22 Torsion [CA]-CB--CG-[CD] |==|  0.36957
USER: genes 23 Torsion [CB]-CG--CD-[NE] |==|  0.15840
USER: genes 24 Torsion [CG]-CD--NE-[HE] |==|  0.06868
USER: genes 25 Torsion [N]-CA--C-[N] |==|  0.28363
USER: genes 26 Torsion [N]-CA--C-[N] |==|  0.48331
USER: genes 27 Torsion [C]-N--CA-[C] |==|  0.70346
USER: genes 28 Torsion [N]-CA--CB-[CG] |==|  0.55439
USER: genes 29 Torsion [CA]-CB--CG-[CD] |==|  0.58131
USER: genes 30 Torsion [CB]-CG--CD-[NE] |==|  0.88848
USER: genes 31 Torsion [CG]-CD--NE-[HE] |==|  0.25699
USER: genes 32 Torsion [N]-CA--C-[O] |==|  0.05192
ROOT
ATOM      1  C   LYS B 823       3.428  35.795   6.976  1.00 58.46 LIG 0.24  C 
ATOM      2 O    LYS B 823       4.382  35.414   6.298  1.00 54.34 LIG-0.27  OA
ATOM      3  N   ARG B 824       2.947  35.085   7.993  1.00 54.22 LIG-0.35  N 
ATOM      4 H    ARG B 824       2.292  35.337   8.492  1.00 54.22 LIG 0.16  HD
ENDROOT
BRANCH 1 5
ATOM      5  CA  LYS B 823       2.773  37.142   6.711  1.00 55.50 LIG 0.18  C 
BRANCH 5 6
ATOM      6  CB  LYS B 823       2.097  37.116   5.334  1.00 54.97 LIG 0.04  C 
BRANCH 6 7
ATOM      7  CG  LYS B 823       2.573  38.161   4.325  1.00 56.27 LIG 0.00  C 
BRANCH 7 8
ATOM      8  CD  LYS B 823       1.887  39.477   4.531  1.00 52.63 LIG 0.03  C 
BRANCH 8 9
ATOM      9  CE  LYS B 823       1.399  40.107   3.219  1.00 52.00 LIG 0.23  C 
BRANCH 9 10
ATOM     10  NZ  LYS B 823       2.361  41.062   2.644  1.00 59.54 LIG-0.08  N 
ATOM     11 HZ3  LYS B 823       2.950  40.624   2.139  1.00 59.54 LIG 0.27  HD
ATOM     12 HZ2  LYS B 823       2.789  41.483   3.300  1.00 59.54 LIG 0.27  HD
ATOM     13 HZ1  LYS B 823       1.926  41.656   2.144  1.00 59.54 LIG 0.27  HD
ENDBRANCH 9 10
ENDBRANCH 8 9
ENDBRANCH 7 8
ENDBRANCH 6 7
ENDBRANCH 5 6
BRANCH 5 14
ATOM     14  N   LYS B 823       3.778  38.200   6.772  1.00 58.26 LIG-0.35  N 
ATOM     15 H    LYS B 823       3.877  38.643   6.041  1.00 58.26 LIG 0.16  HD
ATOM     16  C   ARG B 822       4.474  38.436   7.891  1.00 61.99 LIG 0.24  C 
ATOM     17 O    ARG B 822       4.176  37.930   8.979  1.00 62.30 LIG-0.27  OA
BRANCH 16 18
ATOM     18  CA  ARG B 822       5.664  39.388   7.817  1.00 69.11 LIG 0.18  C 
BRANCH 18 19
ATOM     19  N   ARG B 822       6.188  39.540   6.469  1.00 79.36 LIG-0.35  N 
ATOM     20 H    ARG B 822       5.837  40.189   6.027  1.00 79.36 LIG 0.16  HD
ATOM     21  C   THR B 821       7.125  38.737   5.976  1.00 84.58 LIG 0.24  C 
ATOM     22 O    THR B 821       7.783  37.960   6.676  1.00 84.15 LIG-0.27  OA
BRANCH 21 23
ATOM     23  CA  THR B 821       7.383  38.865   4.480  1.00 89.83 LIG 0.20  C 
BRANCH 23 24
ATOM     24  CB  THR B 821       7.518  37.469   3.860  1.00 88.11 LIG 0.15  C 
ATOM     25  CG2 THR B 821       6.704  36.440   4.636  1.00 89.90 LIG 0.04  C 
BRANCH 24 26
ATOM     26 OG1  THR B 821       7.053  37.497   2.505  1.00 82.62 LIG-0.39  OA
ATOM     27 HG1  THR B 821       6.418  36.954   2.415  1.00 82.62 LIG 0.21  HD
ENDBRANCH 24 26
ENDBRANCH 23 24
BRANCH 23 28
ATOM     28  N   THR B 821       8.565  39.677   4.218  1.00 98.89 LIG-0.34  N 
ATOM     29 H    THR B 821       9.266  39.223   4.015  1.00 98.89 LIG 0.16  HD
ATOM     30  C   ALA B 820       8.540  41.008   4.294  1.00104.93 LIG 0.26  C 
ATOM     31 O    ALA B 820       7.549  41.645   4.664  1.00110.84 LIG-0.27  OA
BRANCH 30 32
ATOM     32  CA  ALA B 820       9.826  41.729   3.899  1.00100.65 LIG 0.40  C 
ATOM     33  N   ALA B 820       9.632  42.480   2.664  1.00102.47 LIG 0.61  N 
ATOM     34  CB  ALA B 820      10.288  42.652   5.017  1.00 93.61 LIG 0.06  C 
ENDBRANCH 30 32
ENDBRANCH 23 28
ENDBRANCH 21 23
ENDBRANCH 18 19
BRANCH 18 35
ATOM     35  CB  ARG B 822       5.315  40.759   8.397  1.00 74.55 LIG 0.04  C 
BRANCH 35 36
ATOM     36  CG  ARG B 822       4.804  41.681   7.310  1.00 89.07 LIG 0.02  C 
BRANCH 36 37
ATOM     37  CD  ARG B 822       4.031  42.865   7.827  1.00 95.35 LIG 0.14  C 
BRANCH 37 38
ATOM     38  NE  ARG B 822       4.239  44.019   6.953  1.00111.05 LIG-0.23  N 
ATOM     39  CZ  ARG B 822       3.525  44.268   5.857  1.00116.06 LIG 0.67  C 
ATOM     40  NH1 ARG B 822       2.545  43.447   5.503  1.00115.06 LIG-0.23  N 
ATOM     41  NH2 ARG B 822       3.777  45.350   5.128  1.00119.10 LIG-0.23  N 
ATOM     42 2HH1 ARG B 822       2.084  43.608   4.795  1.00115.06 LIG 0.17  HD
ATOM     43 1HH1 ARG B 822       2.370  42.754   5.981  1.00115.06 LIG 0.17  HD
ATOM     44 1HH2 ARG B 822       4.402  45.892   5.364  1.00119.10 LIG 0.17  HD
ATOM     45 2HH2 ARG B 822       3.315  45.509   4.421  1.00119.10 LIG 0.17  HD
ATOM     46 HE   ARG B 822       4.863  44.573   7.161  1.00111.05 LIG 0.18  HD
ENDBRANCH 37 38
ENDBRANCH 36 37
ENDBRANCH 35 36
ENDBRANCH 18 35
ENDBRANCH 16 18
ENDBRANCH 5 14
ENDBRANCH 1 5
BRANCH 3 47
ATOM     47  CA  ARG B 824       3.515  33.786   8.346  1.00 54.21 LIG 0.18  C 
BRANCH 47 48
ATOM     48  CB  ARG B 824       2.850  33.207   9.595  1.00 52.82 LIG 0.04  C 
BRANCH 48 49
ATOM     49  CG  ARG B 824       2.573  34.268  10.651  1.00 57.86 LIG 0.02  C 
BRANCH 49 50
ATOM     50  CD  ARG B 824       1.177  34.175  11.208  1.00 56.10 LIG 0.14  C 
BRANCH 50 51
ATOM     51  NE  ARG B 824       0.921  32.859  11.771  1.00 65.02 LIG-0.23  N 
ATOM     52  CZ  ARG B 824      -0.281  32.321  11.899  1.00 62.89 LIG 0.67  C 
ATOM     53  NH1 ARG B 824      -1.351  32.983  11.482  1.00 60.33 LIG-0.23  N 
ATOM     54  NH2 ARG B 824      -0.406  31.115  12.419  1.00 55.39 LIG-0.23  N 
ATOM     55 1HH1 ARG B 824      -1.264  33.762  11.129  1.00 60.33 LIG 0.17  HD
ATOM     56 2HH1 ARG B 824      -2.132  32.632  11.566  1.00 60.33 LIG 0.17  HD
ATOM     57 2HH2 ARG B 824      -1.186  30.762  12.504  1.00 55.39 LIG 0.17  HD
ATOM     58 1HH2 ARG B 824       0.292  30.681  12.674  1.00 55.39 LIG 0.17  HD
ATOM     59 HE   ARG B 824       1.597  32.399  12.038  1.00 65.02 LIG 0.18  HD
ENDBRANCH 50 51
ENDBRANCH 49 50
ENDBRANCH 48 49
ENDBRANCH 47 48
BRANCH 47 60
ATOM     60  C   ARG B 824       3.418  32.814   7.178  1.00 52.05 LIG 0.24  C 
ATOM     61  N   PRO B 825       4.505  32.581   6.452  1.00 68.51 LIG-0.34  N 
ATOM     62  CA  PRO B 825       4.437  31.751   5.249  1.00 67.77 LIG 0.18  C 
ATOM     63  CD  PRO B 825       5.900  32.806   6.881  1.00 70.13 LIG 0.13  C 
ATOM     64  CB  PRO B 825       5.830  31.919   4.643  1.00 68.40 LIG 0.04  C 
ATOM     65  CG  PRO B 825       6.710  32.033   5.848  1.00 73.68 LIG 0.02  C 
ATOM     66 O    ARG B 824       2.337  32.251   6.933  1.00 51.39 LIG-0.27  OA
BRANCH 62 67
ATOM     67  C   PRO B 825       4.155  30.300   5.596  1.00 71.49 LIG 0.24  C 
ATOM     68  N   ARG B 826       3.955  29.508   4.549  1.00 70.87 LIG-0.35  N 
ATOM     69 H    ARG B 826       3.880  29.790   3.741  1.00 70.87 LIG 0.16  HD
ATOM     70 O    PRO B 825       4.084  29.907   6.761  1.00 73.63 LIG-0.27  OA
BRANCH 68 71
ATOM     71  CA  ARG B 826       3.845  28.069   4.695  1.00 67.47 LIG 0.16  C 
BRANCH 71 72
ATOM     72  CB  ARG B 826       2.622  27.543   3.946  1.00 70.42 LIG 0.04  C 
BRANCH 72 73
ATOM     73  CG  ARG B 826       2.191  26.178   4.433  1.00 69.62 LIG 0.02  C 
BRANCH 73 74
ATOM     74  CD  ARG B 826       1.515  25.321   3.381  1.00 58.43 LIG 0.14  C 
BRANCH 74 75
ATOM     75  NE  ARG B 826       0.590  26.031   2.496  1.00 52.00 LIG-0.23  N 
ATOM     76 HE   ARG B 826       0.899  26.339   1.754  1.00 52.00 LIG 0.18  HD
ATOM     77  CZ  ARG B 826      -0.693  26.228   2.764  1.00 51.94 LIG 0.67  C 
ATOM     78  NH1 ARG B 826      -1.179  25.827   3.932  1.00 56.61 LIG-0.23  N 
ATOM     79  NH2 ARG B 826      -1.472  26.848   1.891  1.00 47.30 LIG-0.23  N 
ATOM     80 2HH1 ARG B 826      -2.010  25.950   4.118  1.00 56.61 LIG 0.17  HD
ATOM     81 1HH1 ARG B 826      -0.663  25.446   4.504  1.00 56.61 LIG 0.17  HD
ATOM     82 1HH2 ARG B 826      -1.146  27.125   1.145  1.00 47.30 LIG 0.17  HD
ATOM     83 2HH2 ARG B 826      -2.303  26.973   2.070  1.00 47.30 LIG 0.17  HD
ENDBRANCH 74 75
ENDBRANCH 73 74
ENDBRANCH 72 73
ENDBRANCH 71 72
BRANCH 71 84
ATOM     84  C   ARG B 826       5.104  27.390   4.173  1.00 71.98 LIG 0.22  C 
ATOM     85 O    ARG B 826       6.148  28.024   4.033  1.00 86.43 LIG-0.29  OA
ENDBRANCH 71 84
ENDBRANCH 68 71
ENDBRANCH 62 67
ENDBRANCH 47 60
ENDBRANCH 3 47
TORSDOF 31
ENDMDL
MODEL 5
USER: ADFR SOLUTION from run 76
USER: SCORE 22.677827 LL:  -3.541 LR: -20.944 RR:   0.000 FEB: -11.697
USER: RMSD 3.271495
USER: SEED 75
USER: STATUS no improvement in best in 6 clusters for 5 generations
USER: GENES 33
USER: genes 0 Translation |==|  0.47694 0.53408 0.43983
USER: genes 1 Rotation |==|  0.47319 0.53331 0.55077 0.99557
USER: genes 2 Torsion [N]-C--CA-[N] |==|  0.42986
USER: genes 3 Torsion [C]-CA--CB-[CG] |==|  0.59869
USER: genes 4 Torsion [CA]-CB--CG-[CD] |==|  0.82807
USER: genes 5 Torsion [CB]-CG--CD-[CE] |==|  0.43577
USER: genes 6 Torsion [CG]-CD--CE-[NZ] |==|  0.15964
USER: genes 7 Torsion [CD]-CE--NZ-[HZ3] |==|  0.19459
USER: genes 8 Torsion [C]-CA--N-[C] |==|  0.81187
USER: genes 9 Torsion [N]-C--CA-[N] |==|  0.12013
USER: genes 10 Torsion [C]-CA--N-[C] |==|  0.75380
USER: genes 11 Torsion [N]-C--CA-[N] |==|  0.22615
USER: genes 12 Torsion [C]-CA--CB-[CG2] |==|  0.77979
USER: genes 13 Torsion [CA]-CB--OG1-[HG1] |==|  0.37536
USER: genes 14 Torsion [C]-CA--N-[C] |==|  0.76591
USER: genes 15 Torsion [N]-C--CA-[N] |==|  0.17666
USER: genes 16 Torsion [C]-CA--CB-[CG] |==|  0.58773
USER: genes 17 Torsion [CA]-CB--CG-[CD] |==|  0.41857
USER: genes 18 Torsion [CB]-CG--CD-[NE] |==|  0.72901
USER: genes 19 Torsion [CG]-CD--NE-[CZ] |==|  0.43218
USER: genes 20 Torsion [C]-N--CA-[CB] |==|  0.27213
USER: genes 21 Torsion [N]-CA--CB-[CG] |==|  0.99273
USER: genes 22 Torsion [CA]-CB--CG-[CD] |==|  0.44616
USER: genes 23 Torsion [CB]-CG--CD-[NE] |==|  0.81483
USER: genes 24 Torsion [CG]-CD--NE-[HE] |==|  0.31013
USER: genes 25 Torsion [N]-CA--C-[N] |==|  0.41803
USER: genes 26 Torsion [N]-CA--C-[N] |==|  0.51355
USER: genes 27 Torsion [C]-N--CA-[C] |==|  0.77303
USER: genes 28 Torsion [N]-CA--CB-[CG] |==|  0.69150
USER: genes 29 Torsion [CA]-CB--CG-[CD] |==|  0.50836
USER: genes 30 Torsion [CB]-CG--CD-[NE] |==|  0.66322
USER: genes 31 Torsion [CG]-CD--NE-[HE] |==|  0.74019
USER: genes 32 Torsion [N]-CA--C-[O] |==|  0.95469
ROOT
ATOM      1  C   LYS B 823       3.588  36.239   7.194  1.00 58.46 LIG 0.24  C 
ATOM      2 O    LYS B 823       4.764  36.485   7.457  1.00 54.34 LIG-0.27  OA
ATOM      3  N   ARG B 824       3.021  35.070   7.482  1.00 54.22 LIG-0.35  N 
ATOM      4 H    ARG B 824       2.197  34.880   7.323  1.00 54.22 LIG 0.16  HD
ENDROOT
BRANCH 1 5
ATOM      5  CA  LYS B 823       2.694  37.296   6.563  1.00 55.50 LIG 0.18  C 
BRANCH 5 6
ATOM      6  CB  LYS B 823       2.617  37.057   5.050  1.00 54.97 LIG 0.04  C 
BRANCH 6 7
ATOM      7  CG  LYS B 823       2.542  38.305   4.170  1.00 56.27 LIG 0.00  C 
BRANCH 7 8
ATOM      8  CD  LYS B 823       1.308  39.106   4.455  1.00 52.63 LIG 0.03  C 
BRANCH 8 9
ATOM      9  CE  LYS B 823       1.447  40.580   4.051  1.00 52.00 LIG 0.23  C 
BRANCH 9 10
ATOM     10  NZ  LYS B 823       1.778  40.761   2.627  1.00 59.54 LIG-0.08  N 
ATOM     11 HZ3  LYS B 823       1.075  40.538   2.128  1.00 59.54 LIG 0.27  HD
ATOM     12 HZ2  LYS B 823       2.468  40.242   2.415  1.00 59.54 LIG 0.27  HD
ATOM     13 HZ1  LYS B 823       1.989  41.612   2.478  1.00 59.54 LIG 0.27  HD
ENDBRANCH 9 10
ENDBRANCH 8 9
ENDBRANCH 7 8
ENDBRANCH 6 7
ENDBRANCH 5 6
BRANCH 5 14
ATOM     14  N   LYS B 823       3.224  38.626   6.850  1.00 58.26 LIG-0.35  N 
ATOM     15 H    LYS B 823       3.526  39.046   6.163  1.00 58.26 LIG 0.16  HD
ATOM     16  C   ARG B 822       3.225  39.123   8.093  1.00 61.99 LIG 0.24  C 
ATOM     17 O    ARG B 822       2.606  38.591   9.022  1.00 62.30 LIG-0.27  OA
BRANCH 16 18
ATOM     18  CA  ARG B 822       4.002  40.408   8.359  1.00 69.11 LIG 0.18  C 
BRANCH 18 19
ATOM     19  N   ARG B 822       3.810  41.413   7.325  1.00 79.36 LIG-0.35  N 
ATOM     20 H    ARG B 822       3.162  41.956   7.479  1.00 79.36 LIG 0.16  HD
ATOM     21  C   THR B 821       4.578  41.472   6.242  1.00 84.58 LIG 0.24  C 
ATOM     22 O    THR B 821       5.637  40.846   6.131  1.00 84.15 LIG-0.27  OA
BRANCH 21 23
ATOM     23  CA  THR B 821       4.095  42.411   5.143  1.00 89.83 LIG 0.20  C 
BRANCH 23 24
ATOM     24  CB  THR B 821       4.656  41.952   3.792  1.00 88.11 LIG 0.15  C 
ATOM     25  CG2 THR B 821       6.106  42.390   3.619  1.00 89.90 LIG 0.04  C 
BRANCH 24 26
ATOM     26 OG1  THR B 821       4.595  40.523   3.706  1.00 82.62 LIG-0.39  OA
ATOM     27 HG1  THR B 821       4.299  40.300   2.952  1.00 82.62 LIG 0.21  HD
ENDBRANCH 24 26
ENDBRANCH 23 24
BRANCH 23 28
ATOM     28  N   THR B 821       4.468  43.791   5.430  1.00 98.89 LIG-0.34  N 
ATOM     29 H    THR B 821       5.197  44.045   5.050  1.00 98.89 LIG 0.16  HD
ATOM     30  C   ALA B 820       3.730  44.574   6.216  1.00104.93 LIG 0.26  C 
ATOM     31 O    ALA B 820       2.730  44.175   6.819  1.00110.84 LIG-0.27  OA
BRANCH 30 32
ATOM     32  CA  ALA B 820       4.192  46.023   6.348  1.00100.65 LIG 0.40  C 
ATOM     33  N   ALA B 820       4.117  46.701   5.059  1.00102.47 LIG 0.61  N 
ATOM     34  CB  ALA B 820       3.358  46.760   7.387  1.00 93.61 LIG 0.06  C 
ENDBRANCH 30 32
ENDBRANCH 23 28
ENDBRANCH 21 23
ENDBRANCH 18 19
BRANCH 18 35
ATOM     35  CB  ARG B 822       3.650  40.995   9.726  1.00 74.55 LIG 0.04  C 
BRANCH 35 36
ATOM     36  CG  ARG B 822       3.750  42.506   9.697  1.00 89.07 LIG 0.02  C 
BRANCH 36 37
ATOM     37  CD  ARG B 822       2.818  43.198  10.657  1.00 95.35 LIG 0.14  C 
BRANCH 37 38
ATOM     38  NE  ARG B 822       1.610  43.633   9.957  1.00111.05 LIG-0.23  N 
ATOM     39  CZ  ARG B 822       0.435  43.839  10.547  1.00116.06 LIG 0.67  C 
ATOM     40  NH1 ARG B 822       0.309  43.660  11.856  1.00115.06 LIG-0.23  N 
ATOM     41  NH2 ARG B 822      -0.609  44.246   9.833  1.00119.10 LIG-0.23  N 
ATOM     42 2HH1 ARG B 822      -0.450  43.793  12.237  1.00115.06 LIG 0.17  HD
ATOM     43 1HH1 ARG B 822       0.987  43.410  12.323  1.00115.06 LIG 0.17  HD
ATOM     44 1HH2 ARG B 822      -0.526  44.378   8.987  1.00119.10 LIG 0.17  HD
ATOM     45 2HH2 ARG B 822      -1.367  44.379  10.216  1.00119.10 LIG 0.17  HD
ATOM     46 HE   ARG B 822       1.663  43.764   9.109  1.00111.05 LIG 0.18  HD
ENDBRANCH 37 38
ENDBRANCH 36 37
ENDBRANCH 35 36
ENDBRANCH 18 35
ENDBRANCH 16 18
ENDBRANCH 5 14
ENDBRANCH 1 5
BRANCH 3 47
ATOM     47  CA  ARG B 824       3.784  33.992   8.108  1.00 54.21 LIG 0.18  C 
BRANCH 47 48
ATOM     48  CB  ARG B 824       3.557  33.954   9.619  1.00 52.82 LIG 0.04  C 
BRANCH 48 49
ATOM     49  CG  ARG B 824       2.651  35.078  10.100  1.00 57.86 LIG 0.02  C 
BRANCH 49 50
ATOM     50  CD  ARG B 824       2.051  34.795  11.454  1.00 56.10 LIG 0.14  C 
BRANCH 50 51
ATOM     51  NE  ARG B 824       1.127  33.675  11.396  1.00 65.02 LIG-0.23  N 
ATOM     52  CZ  ARG B 824      -0.037  33.698  10.769  1.00 62.89 LIG 0.67  C 
ATOM     53  NH1 ARG B 824      -0.419  34.788  10.119  1.00 60.33 LIG-0.23  N 
ATOM     54  NH2 ARG B 824      -0.804  32.623  10.772  1.00 55.39 LIG-0.23  N 
ATOM     55 1HH1 ARG B 824       0.090  35.481  10.106  1.00 60.33 LIG 0.17  HD
ATOM     56 2HH1 ARG B 824      -1.177  34.802   9.712  1.00 60.33 LIG 0.17  HD
ATOM     57 2HH2 ARG B 824      -1.562  32.634  10.365  1.00 55.39 LIG 0.17  HD
ATOM     58 1HH2 ARG B 824      -0.546  31.911  11.182  1.00 55.39 LIG 0.17  HD
ATOM     59 HE   ARG B 824       1.353  32.948  11.798  1.00 65.02 LIG 0.18  HD
ENDBRANCH 50 51
ENDBRANCH 49 50
ENDBRANCH 48 49
ENDBRANCH 47 48
BRANCH 47 60
ATOM     60  C   ARG B 824       3.450  32.649   7.473  1.00 52.05 LIG 0.24  C 
ATOM     61  N   PRO B 825       4.384  31.705   7.451  1.00 68.51 LIG-0.34  N 
ATOM     62  CA  PRO B 825       4.155  30.443   6.748  1.00 67.77 LIG 0.18  C 
ATOM     63  CD  PRO B 825       5.562  31.629   8.338  1.00 70.13 LIG 0.13  C 
ATOM     64  CB  PRO B 825       5.523  29.767   6.811  1.00 68.40 LIG 0.04  C 
ATOM     65  CG  PRO B 825       6.052  30.201   8.143  1.00 73.68 LIG 0.02  C 
ATOM     66 O    ARG B 824       2.315  32.456   7.002  1.00 51.39 LIG-0.27  OA
BRANCH 62 67
ATOM     67  C   PRO B 825       3.093  29.610   7.445  1.00 71.49 LIG 0.24  C 
ATOM     68  N   ARG B 826       2.903  28.404   6.922  1.00 70.87 LIG-0.35  N 
ATOM     69 H    ARG B 826       3.261  28.137   6.187  1.00 70.87 LIG 0.16  HD
ATOM     70 O    PRO B 825       2.440  30.041   8.395  1.00 73.63 LIG-0.27  OA
BRANCH 68 71
ATOM     71  CA  ARG B 826       2.055  27.421   7.567  1.00 67.47 LIG 0.16  C 
BRANCH 71 72
ATOM     72  CB  ARG B 826       1.542  26.402   6.552  1.00 70.42 LIG 0.04  C 
BRANCH 72 73
ATOM     73  CG  ARG B 826       0.055  26.530   6.306  1.00 69.62 LIG 0.02  C 
BRANCH 73 74
ATOM     74  CD  ARG B 826      -0.517  25.493   5.359  1.00 58.43 LIG 0.14  C 
BRANCH 74 75
ATOM     75  NE  ARG B 826      -1.172  26.030   4.166  1.00 52.00 LIG-0.23  N 
ATOM     76 HE   ARG B 826      -2.023  26.158   4.197  1.00 52.00 LIG 0.18  HD
ATOM     77  CZ  ARG B 826      -0.539  26.332   3.041  1.00 51.94 LIG 0.67  C 
ATOM     78  NH1 ARG B 826       0.759  26.077   2.940  1.00 56.61 LIG-0.23  N 
ATOM     79  NH2 ARG B 826      -1.202  26.850   2.019  1.00 47.30 LIG-0.23  N 
ATOM     80 2HH1 ARG B 826       1.181  26.268   2.215  1.00 56.61 LIG 0.17  HD
ATOM     81 1HH1 ARG B 826       1.179  25.719   3.601  1.00 56.61 LIG 0.17  HD
ATOM     82 1HH2 ARG B 826      -2.047  26.993   2.082  1.00 47.30 LIG 0.17  HD
ATOM     83 2HH2 ARG B 826      -0.786  27.045   1.292  1.00 47.30 LIG 0.17  HD
ENDBRANCH 74 75
ENDBRANCH 73 74
ENDBRANCH 72 73
ENDBRANCH 71 72
BRANCH 71 84
ATOM     84  C   ARG B 826       2.821  26.709   8.674  1.00 71.98 LIG 0.22  C 
ATOM     85 O    ARG B 826       4.048  26.769   8.726  1.00 86.43 LIG-0.29  OA
ENDBRANCH 71 84
ENDBRANCH 68 71
ENDBRANCH 62 67
ENDBRANCH 47 60
ENDBRANCH 3 47
TORSDOF 31
ENDMDL
MODEL 6
USER: ADFR SOLUTION from run 140
USER: SCORE 21.279508 LL:  -3.194 LR: -20.920 RR:   0.000 FEB: -11.672
USER: RMSD 3.148415
USER: SEED 139
USER: STATUS searching
USER: GENES 33
USER: genes 0 Translation |==|  0.47237 0.53046 0.48963
USER: genes 1 Rotation |==|  0.51275 0.58970 0.49703 0.99171
USER: genes 2 Torsion [N]-C--CA-[N] |==|  0.31272
USER: genes 3 Torsion [C]-CA--CB-[CG] |==|  0.44127
USER: genes 4 Torsion [CA]-CB--CG-[CD] |==|  0.53484
USER: genes 5 Torsion [CB]-CG--CD-[CE] |==|  0.50270
USER: genes 6 Torsion [CG]-CD--CE-[NZ] |==|  0.38801
USER: genes 7 Torsion [CD]-CE--NZ-[HZ3] |==|  0.82555
USER: genes 8 Torsion [C]-CA--N-[C] |==|  0.80449
USER: genes 9 Torsion [N]-C--CA-[N] |==|  0.17683
USER: genes 10 Torsion [C]-CA--N-[C] |==|  0.61397
USER: genes 11 Torsion [N]-C--CA-[N] |==|  0.83890
USER: genes 12 Torsion [C]-CA--CB-[CG2] |==|  0.74198
USER: genes 13 Torsion [CA]-CB--OG1-[HG1] |==|  0.36191
USER: genes 14 Torsion [C]-CA--N-[C] |==|  0.74654
USER: genes 15 Torsion [N]-C--CA-[N] |==|  0.36787
USER: genes 16 Torsion [C]-CA--CB-[CG] |==|  0.48781
USER: genes 17 Torsion [CA]-CB--CG-[CD] |==|  0.53461
USER: genes 18 Torsion [CB]-CG--CD-[NE] |==|  0.59681
USER: genes 19 Torsion [CG]-CD--NE-[CZ] |==|  0.20633
USER: genes 20 Torsion [C]-N--CA-[CB] |==|  0.35310
USER: genes 21 Torsion [N]-CA--CB-[CG] |==|  0.92527
USER: genes 22 Torsion [CA]-CB--CG-[CD] |==|  0.35543
USER: genes 23 Torsion [CB]-CG--CD-[NE] |==|  0.11954
USER: genes 24 Torsion [CG]-CD--NE-[HE] |==|  0.13052
USER: genes 25 Torsion [N]-CA--C-[N] |==|  0.28816
USER: genes 26 Torsion [N]-CA--C-[N] |==|  0.50787
USER: genes 27 Torsion [C]-N--CA-[C] |==|  0.71681
USER: genes 28 Torsion [N]-CA--CB-[CG] |==|  0.36467
USER: genes 29 Torsion [CA]-CB--CG-[CD] |==|  0.45490
USER: genes 30 Torsion [CB]-CG--CD-[NE] |==|  0.16001
USER: genes 31 Torsion [CG]-CD--NE-[HE] |==|  0.17918
USER: genes 32 Torsion [N]-CA--C-[O] |==|  0.96284
ROOT
ATOM      1  C   LYS B 823       3.492  36.133   8.277  1.00 58.46 LIG 0.24  C 
ATOM      2 O    LYS B 823       4.721  36.078   8.272  1.00 54.34 LIG-0.27  OA
ATOM      3  N   ARG B 824       2.731  35.086   8.586  1.00 54.22 LIG-0.35  N 
ATOM      4 H    ARG B 824       1.871  35.104   8.613  1.00 54.22 LIG 0.16  HD
ENDROOT
BRANCH 1 5
ATOM      5  CA  LYS B 823       2.770  37.438   7.976  1.00 55.50 LIG 0.18  C 
BRANCH 5 6
ATOM      6  CB  LYS B 823       3.217  37.960   6.605  1.00 54.97 LIG 0.04  C 
BRANCH 6 7
ATOM      7  CG  LYS B 823       2.276  38.948   5.916  1.00 56.27 LIG 0.00  C 
BRANCH 7 8
ATOM      8  CD  LYS B 823       2.650  39.156   4.481  1.00 52.63 LIG 0.03  C 
BRANCH 8 9
ATOM      9  CE  LYS B 823       1.737  40.161   3.766  1.00 52.00 LIG 0.23  C 
BRANCH 9 10
ATOM     10  NZ  LYS B 823       2.468  41.063   2.859  1.00 59.54 LIG-0.08  N 
ATOM     11 HZ3  LYS B 823       3.041  41.556   3.329  1.00 59.54 LIG 0.27  HD
ATOM     12 HZ2  LYS B 823       1.891  41.596   2.442  1.00 59.54 LIG 0.27  HD
ATOM     13 HZ1  LYS B 823       2.915  40.581   2.259  1.00 59.54 LIG 0.27  HD
ENDBRANCH 9 10
ENDBRANCH 8 9
ENDBRANCH 7 8
ENDBRANCH 6 7
ENDBRANCH 5 6
BRANCH 5 14
ATOM     14  N   LYS B 823       3.061  38.416   9.021  1.00 58.26 LIG-0.35  N 
ATOM     15 H    LYS B 823       3.566  39.066   8.772  1.00 58.26 LIG 0.16  HD
ATOM     16  C   ARG B 822       2.567  38.282  10.258  1.00 61.99 LIG 0.24  C 
ATOM     17 O    ARG B 822       1.686  37.460  10.537  1.00 62.30 LIG-0.27  OA
BRANCH 16 18
ATOM     18  CA  ARG B 822       3.098  39.201  11.354  1.00 69.11 LIG 0.18  C 
BRANCH 18 19
ATOM     19  N   ARG B 822       2.799  40.604  11.113  1.00 79.36 LIG-0.35  N 
ATOM     20 H    ARG B 822       2.008  40.747  10.809  1.00 79.36 LIG 0.16  HD
ATOM     21  C   THR B 821       3.683  41.568  11.349  1.00 84.58 LIG 0.24  C 
ATOM     22 O    THR B 821       4.722  41.388  11.992  1.00 84.15 LIG-0.27  OA
BRANCH 21 23
ATOM     23  CA  THR B 821       3.313  42.946  10.813  1.00 89.83 LIG 0.20  C 
BRANCH 23 24
ATOM     24  CB  THR B 821       2.069  43.465  11.545  1.00 88.11 LIG 0.15  C 
ATOM     25  CG2 THR B 821       0.795  43.107  10.789  1.00 89.90 LIG 0.04  C 
BRANCH 24 26
ATOM     26 OG1  THR B 821       2.005  42.886  12.854  1.00 82.62 LIG-0.39  OA
ATOM     27 HG1  THR B 821       1.881  43.492  13.423  1.00 82.62 LIG 0.21  HD
ENDBRANCH 24 26
ENDBRANCH 23 24
BRANCH 23 28
ATOM     28  N   THR B 821       3.102  42.909   9.371  1.00 98.89 LIG-0.34  N 
ATOM     29 H    THR B 821       2.294  42.724   9.138  1.00 98.89 LIG 0.16  HD
ATOM     30  C   ALA B 820       4.088  43.144   8.505  1.00104.93 LIG 0.26  C 
ATOM     31 O    ALA B 820       5.258  43.330   8.850  1.00110.84 LIG-0.27  OA
BRANCH 30 32
ATOM     32  CA  ALA B 820       3.697  43.166   7.030  1.00100.65 LIG 0.40  C 
ATOM     33  N   ALA B 820       4.261  44.338   6.371  1.00102.47 LIG 0.61  N 
ATOM     34  CB  ALA B 820       4.155  41.892   6.335  1.00 93.61 LIG 0.06  C 
ENDBRANCH 30 32
ENDBRANCH 23 28
ENDBRANCH 21 23
ENDBRANCH 18 19
BRANCH 18 35
ATOM     35  CB  ARG B 822       2.572  38.785  12.729  1.00 74.55 LIG 0.04  C 
BRANCH 35 36
ATOM     36  CG  ARG B 822       3.192  39.639  13.815  1.00 89.07 LIG 0.02  C 
BRANCH 36 37
ATOM     37  CD  ARG B 822       2.965  39.115  15.208  1.00 95.35 LIG 0.14  C 
BRANCH 37 38
ATOM     38  NE  ARG B 822       2.807  40.228  16.143  1.00111.05 LIG-0.23  N 
ATOM     39  CZ  ARG B 822       1.717  40.988  16.226  1.00116.06 LIG 0.67  C 
ATOM     40  NH1 ARG B 822       0.679  40.749  15.434  1.00115.06 LIG-0.23  N 
ATOM     41  NH2 ARG B 822       1.658  41.974  17.115  1.00119.10 LIG-0.23  N 
ATOM     42 2HH1 ARG B 822      -0.024  41.241  15.488  1.00115.06 LIG 0.17  HD
ATOM     43 1HH1 ARG B 822       0.710  40.103  14.868  1.00115.06 LIG 0.17  HD
ATOM     44 1HH2 ARG B 822       2.323  42.121  17.639  1.00119.10 LIG 0.17  HD
ATOM     45 2HH2 ARG B 822       0.953  42.464  17.167  1.00119.10 LIG 0.17  HD
ATOM     46 HE   ARG B 822       3.461  40.402  16.673  1.00111.05 LIG 0.18  HD
ENDBRANCH 37 38
ENDBRANCH 36 37
ENDBRANCH 35 36
ENDBRANCH 18 35
ENDBRANCH 16 18
ENDBRANCH 5 14
ENDBRANCH 1 5
BRANCH 3 47
ATOM     47  CA  ARG B 824       3.323  33.790   8.911  1.00 54.21 LIG 0.18  C 
BRANCH 47 48
ATOM     48  CB  ARG B 824       2.804  33.260  10.248  1.00 52.82 LIG 0.04  C 
BRANCH 48 49
ATOM     49  CG  ARG B 824       2.372  34.376  11.188  1.00 57.86 LIG 0.02  C 
BRANCH 49 50
ATOM     50  CD  ARG B 824       0.979  34.172  11.723  1.00 56.10 LIG 0.14  C 
BRANCH 50 51
ATOM     51  NE  ARG B 824       0.761  32.789  12.111  1.00 65.02 LIG-0.23  N 
ATOM     52  CZ  ARG B 824      -0.304  32.078  11.780  1.00 62.89 LIG 0.67  C 
ATOM     53  NH1 ARG B 824      -1.254  32.617  11.030  1.00 60.33 LIG-0.23  N 
ATOM     54  NH2 ARG B 824      -0.404  30.823  12.180  1.00 55.39 LIG-0.23  N 
ATOM     55 1HH1 ARG B 824      -1.178  33.430  10.758  1.00 60.33 LIG 0.17  HD
ATOM     56 2HH1 ARG B 824      -1.947  32.154  10.816  1.00 60.33 LIG 0.17  HD
ATOM     57 2HH2 ARG B 824      -1.096  30.358  11.967  1.00 55.39 LIG 0.17  HD
ATOM     58 1HH2 ARG B 824       0.222  30.471  12.654  1.00 55.39 LIG 0.17  HD
ATOM     59 HE   ARG B 824       1.367  32.406  12.588  1.00 65.02 LIG 0.18  HD
ENDBRANCH 50 51
ENDBRANCH 49 50
ENDBRANCH 48 49
ENDBRANCH 47 48
BRANCH 47 60
ATOM     60  C   ARG B 824       3.076  32.784   7.794  1.00 52.05 LIG 0.24  C 
ATOM     61  N   PRO B 825       4.077  32.487   6.973  1.00 68.51 LIG-0.34  N 
ATOM     62  CA  PRO B 825       3.860  31.621   5.814  1.00 67.77 LIG 0.18  C 
ATOM     63  CD  PRO B 825       5.514  32.675   7.252  1.00 70.13 LIG 0.13  C 
ATOM     64  CB  PRO B 825       5.189  31.718   5.067  1.00 68.40 LIG 0.04  C 
ATOM     65  CG  PRO B 825       6.190  31.840   6.173  1.00 73.68 LIG 0.02  C 
ATOM     66 O    ARG B 824       1.958  32.253   7.680  1.00 51.39 LIG-0.27  OA
BRANCH 62 67
ATOM     67  C   PRO B 825       3.567  30.194   6.241  1.00 71.49 LIG 0.24  C 
ATOM     68  N   ARG B 826       3.418  29.335   5.239  1.00 70.87 LIG-0.35  N 
ATOM     69 H    ARG B 826       3.379  29.564   4.411  1.00 70.87 LIG 0.16  HD
ATOM     70 O    PRO B 825       3.444  29.875   7.423  1.00 73.63 LIG-0.27  OA
BRANCH 68 71
ATOM     71  CA  ARG B 826       3.306  27.908   5.471  1.00 67.47 LIG 0.16  C 
BRANCH 71 72
ATOM     72  CB  ARG B 826       2.196  27.307   4.612  1.00 70.42 LIG 0.04  C 
BRANCH 72 73
ATOM     73  CG  ARG B 826       2.647  26.067   3.872  1.00 69.62 LIG 0.02  C 
BRANCH 73 74
ATOM     74  CD  ARG B 826       1.517  25.218   3.323  1.00 58.43 LIG 0.14  C 
BRANCH 74 75
ATOM     75  NE  ARG B 826       0.606  25.905   2.406  1.00 52.00 LIG-0.23  N 
ATOM     76 HE   ARG B 826       0.925  26.186   1.658  1.00 52.00 LIG 0.18  HD
ATOM     77  CZ  ARG B 826      -0.678  26.122   2.655  1.00 51.94 LIG 0.67  C 
ATOM     78  NH1 ARG B 826      -1.178  25.765   3.832  1.00 56.61 LIG-0.23  N 
ATOM     79  NH2 ARG B 826      -1.442  26.719   1.755  1.00 47.30 LIG-0.23  N 
ATOM     80 2HH1 ARG B 826      -2.010  25.901   4.005  1.00 56.61 LIG 0.17  HD
ATOM     81 1HH1 ARG B 826      -0.670  25.398   4.421  1.00 56.61 LIG 0.17  HD
ATOM     82 1HH2 ARG B 826      -1.107  26.969   1.003  1.00 47.30 LIG 0.17  HD
ATOM     83 2HH2 ARG B 826      -2.274  26.857   1.921  1.00 47.30 LIG 0.17  HD
ENDBRANCH 74 75
ENDBRANCH 73 74
ENDBRANCH 72 73
ENDBRANCH 71 72
BRANCH 71 84
ATOM     84  C   ARG B 826       4.630  27.219   5.165  1.00 71.98 LIG 0.22  C 
ATOM     85 O    ARG B 826       5.518  27.810   4.554  1.00 86.43 LIG-0.29  OA
ENDBRANCH 71 84
ENDBRANCH 68 71
ENDBRANCH 62 67
ENDBRANCH 47 60
ENDBRANCH 3 47
TORSDOF 31
ENDMDL
MODEL 7
USER: ADFR SOLUTION from run 26
USER: SCORE 23.711533 LL:  -3.874 LR: -20.761 RR:   0.000 FEB: -11.514
USER: RMSD 3.070994
USER: SEED 25
USER: STATUS searching
USER: GENES 33
USER: genes 0 Translation |==|  0.46684 0.52226 0.43697
USER: genes 1 Rotation |==|  0.48750 0.72917 0.48921 0.94408
USER: genes 2 Torsion [N]-C--CA-[N] |==|  0.35343
USER: genes 3 Torsion [C]-CA--CB-[CG] |==|  0.56925
USER: genes 4 Torsion [CA]-CB--CG-[CD] |==|  0.38823
USER: genes 5 Torsion [CB]-CG--CD-[CE] |==|  0.49850
USER: genes 6 Torsion [CG]-CD--CE-[NZ] |==|  0.36633
USER: genes 7 Torsion [CD]-CE--NZ-[HZ3] |==|  0.39712
USER: genes 8 Torsion [C]-CA--N-[C] |==|  0.79479
USER: genes 9 Torsion [N]-C--CA-[N] |==|  0.00531
USER: genes 10 Torsion [C]-CA--N-[C] |==|  0.76308
USER: genes 11 Torsion [N]-C--CA-[N] |==|  0.35916
USER: genes 12 Torsion [C]-CA--CB-[CG2] |==|  0.99272
USER: genes 13 Torsion [CA]-CB--OG1-[HG1] |==|  0.52197
USER: genes 14 Torsion [C]-CA--N-[C] |==|  0.80596
USER: genes 15 Torsion [N]-C--CA-[N] |==|  0.51493
USER: genes 16 Torsion [C]-CA--CB-[CG] |==|  0.84091
USER: genes 17 Torsion [CA]-CB--CG-[CD] |==|  0.52032
USER: genes 18 Torsion [CB]-CG--CD-[NE] |==|  0.54970
USER: genes 19 Torsion [CG]-CD--NE-[CZ] |==|  0.44201
USER: genes 20 Torsion [C]-N--CA-[CB] |==|  0.50795
USER: genes 21 Torsion [N]-CA--CB-[CG] |==|  0.77068
USER: genes 22 Torsion [CA]-CB--CG-[CD] |==|  0.26367
USER: genes 23 Torsion [CB]-CG--CD-[NE] |==|  0.20866
USER: genes 24 Torsion [CG]-CD--NE-[HE] |==|  0.17164
USER: genes 25 Torsion [N]-CA--C-[N] |==|  0.32862
USER: genes 26 Torsion [N]-CA--C-[N] |==|  0.42322
USER: genes 27 Torsion [C]-N--CA-[C] |==|  0.56902
USER: genes 28 Torsion [N]-CA--CB-[CG] |==|  0.63678
USER: genes 29 Torsion [CA]-CB--CG-[CD] |==|  0.65613
USER: genes 30 Torsion [CB]-CG--CD-[NE] |==|  0.64897
USER: genes 31 Torsion [CG]-CD--NE-[HE] |==|  0.84891
USER: genes 32 Torsion [N]-CA--C-[O] |==|  0.05793
ROOT
ATOM      1  C   LYS B 823       3.376  35.893   7.132  1.00 58.46 LIG 0.24  C 
ATOM      2 O    LYS B 823       4.393  35.803   6.447  1.00 54.34 LIG-0.27  OA
ATOM      3  N   ARG B 824       2.947  34.900   7.908  1.00 54.22 LIG-0.35  N 
ATOM      4 H    ARG B 824       2.248  34.945   8.408  1.00 54.22 LIG 0.16  HD
ENDROOT
BRANCH 1 5
ATOM      5  CA  LYS B 823       2.572  37.184   7.166  1.00 55.50 LIG 0.18  C 
BRANCH 5 6
ATOM      6  CB  LYS B 823       1.858  37.373   5.821  1.00 54.97 LIG 0.04  C 
BRANCH 6 7
ATOM      7  CG  LYS B 823       1.507  38.810   5.437  1.00 56.27 LIG 0.00  C 
BRANCH 7 8
ATOM      8  CD  LYS B 823       1.746  39.064   3.980  1.00 52.63 LIG 0.03  C 
BRANCH 8 9
ATOM      9  CE  LYS B 823       1.390  40.496   3.558  1.00 52.00 LIG 0.23  C 
BRANCH 9 10
ATOM     10  NZ  LYS B 823       2.443  41.141   2.755  1.00 59.54 LIG-0.08  N 
ATOM     11 HZ3  LYS B 823       2.069  41.648   2.126  1.00 59.54 LIG 0.27  HD
ATOM     12 HZ2  LYS B 823       2.947  40.517   2.371  1.00 59.54 LIG 0.27  HD
ATOM     13 HZ1  LYS B 823       2.949  41.648   3.283  1.00 59.54 LIG 0.27  HD
ENDBRANCH 9 10
ENDBRANCH 8 9
ENDBRANCH 7 8
ENDBRANCH 6 7
ENDBRANCH 5 6
BRANCH 5 14
ATOM     14  N   LYS B 823       3.459  38.311   7.443  1.00 58.26 LIG-0.35  N 
ATOM     15 H    LYS B 823       3.621  38.813   6.764  1.00 58.26 LIG 0.16  HD
ATOM     16  C   ARG B 822       3.962  38.518   8.666  1.00 61.99 LIG 0.24  C 
ATOM     17 O    ARG B 822       3.556  37.910   9.663  1.00 62.30 LIG-0.27  OA
BRANCH 16 18
ATOM     18  CA  ARG B 822       5.060  39.564   8.831  1.00 69.11 LIG 0.18  C 
BRANCH 18 19
ATOM     19  N   ARG B 822       5.386  40.245   7.588  1.00 79.36 LIG-0.35  N 
ATOM     20 H    ARG B 822       4.968  40.988   7.474  1.00 79.36 LIG 0.16  HD
ATOM     21  C   THR B 821       6.256  39.750   6.714  1.00 84.58 LIG 0.24  C 
ATOM     22 O    THR B 821       7.016  38.812   6.977  1.00 84.15 LIG-0.27  OA
BRANCH 21 23
ATOM     23  CA  THR B 821       6.299  40.448   5.360  1.00 89.83 LIG 0.20  C 
BRANCH 23 24
ATOM     24  CB  THR B 821       5.653  39.549   4.299  1.00 88.11 LIG 0.15  C 
ATOM     25  CG2 THR B 821       5.223  38.214   4.894  1.00 89.90 LIG 0.04  C 
BRANCH 24 26
ATOM     26 OG1  THR B 821       4.499  40.202   3.753  1.00 82.62 LIG-0.39  OA
ATOM     27 HG1  THR B 821       4.086  39.669   3.253  1.00 82.62 LIG 0.21  HD
ENDBRANCH 24 26
ENDBRANCH 23 24
BRANCH 23 28
ATOM     28  N   THR B 821       7.665  40.800   4.994  1.00 98.89 LIG-0.34  N 
ATOM     29 H    THR B 821       7.985  40.341   4.341  1.00 98.89 LIG 0.16  HD
ATOM     30  C   ALA B 820       8.344  41.756   5.630  1.00104.93 LIG 0.26  C 
ATOM     31 O    ALA B 820       7.904  42.354   6.616  1.00110.84 LIG-0.27  OA
BRANCH 30 32
ATOM     32  CA  ALA B 820       9.728  42.082   5.075  1.00100.65 LIG 0.40  C 
ATOM     33  N   ALA B 820      10.407  43.047   5.931  1.00102.47 LIG 0.61  N 
ATOM     34  CB  ALA B 820      10.561  40.816   4.933  1.00 93.61 LIG 0.06  C 
ENDBRANCH 30 32
ENDBRANCH 23 28
ENDBRANCH 21 23
ENDBRANCH 18 19
BRANCH 18 35
ATOM     35  CB  ARG B 822       4.693  40.588   9.905  1.00 74.55 LIG 0.04  C 
BRANCH 35 36
ATOM     36  CG  ARG B 822       3.378  41.261   9.571  1.00 89.07 LIG 0.02  C 
BRANCH 36 37
ATOM     37  CD  ARG B 822       3.028  42.406  10.484  1.00 95.35 LIG 0.14  C 
BRANCH 37 38
ATOM     38  NE  ARG B 822       1.603  42.713  10.378  1.00111.05 LIG-0.23  N 
ATOM     39  CZ  ARG B 822       0.907  43.370  11.303  1.00116.06 LIG 0.67  C 
ATOM     40  NH1 ARG B 822       1.508  43.800  12.405  1.00115.06 LIG-0.23  N 
ATOM     41  NH2 ARG B 822      -0.386  43.616  11.117  1.00119.10 LIG-0.23  N 
ATOM     42 2HH1 ARG B 822       1.059  44.225  13.003  1.00115.06 LIG 0.17  HD
ATOM     43 1HH1 ARG B 822       2.348  43.655  12.521  1.00115.06 LIG 0.17  HD
ATOM     44 1HH2 ARG B 822      -0.775  43.351  10.397  1.00119.10 LIG 0.17  HD
ATOM     45 2HH2 ARG B 822      -0.834  44.040  11.716  1.00119.10 LIG 0.17  HD
ATOM     46 HE   ARG B 822       1.187  42.453   9.672  1.00111.05 LIG 0.18  HD
ENDBRANCH 37 38
ENDBRANCH 36 37
ENDBRANCH 35 36
ENDBRANCH 18 35
ENDBRANCH 16 18
ENDBRANCH 5 14
ENDBRANCH 1 5
BRANCH 3 47
ATOM     47  CA  ARG B 824       3.656  33.624   7.965  1.00 54.21 LIG 0.18  C 
BRANCH 47 48
ATOM     48  CB  ARG B 824       2.934  32.625   8.869  1.00 52.82 LIG 0.04  C 
BRANCH 48 49
ATOM     49  CG  ARG B 824       3.264  32.827  10.341  1.00 57.86 LIG 0.02  C 
BRANCH 49 50
ATOM     50  CD  ARG B 824       2.251  33.691  11.046  1.00 56.10 LIG 0.14  C 
BRANCH 50 51
ATOM     51  NE  ARG B 824       1.021  32.961  11.298  1.00 65.02 LIG-0.23  N 
ATOM     52  CZ  ARG B 824      -0.160  33.291  10.802  1.00 62.89 LIG 0.67  C 
ATOM     53  NH1 ARG B 824      -0.273  34.341  10.001  1.00 60.33 LIG-0.23  N 
ATOM     54  NH2 ARG B 824      -1.220  32.557  11.089  1.00 55.39 LIG-0.23  N 
ATOM     55 1HH1 ARG B 824       0.423  34.807   9.803  1.00 60.33 LIG 0.17  HD
ATOM     56 2HH1 ARG B 824      -1.041  34.555   9.679  1.00 60.33 LIG 0.17  HD
ATOM     57 2HH2 ARG B 824      -1.989  32.769  10.768  1.00 55.39 LIG 0.17  HD
ATOM     58 1HH2 ARG B 824      -1.141  31.867  11.597  1.00 55.39 LIG 0.17  HD
ATOM     59 HE   ARG B 824       1.064  32.267  11.804  1.00 65.02 LIG 0.18  HD
ENDBRANCH 50 51
ENDBRANCH 49 50
ENDBRANCH 48 49
ENDBRANCH 47 48
BRANCH 47 60
ATOM     60  C   ARG B 824       3.856  33.050   6.569  1.00 52.05 LIG 0.24  C 
ATOM     61  N   PRO B 825       5.095  32.867   6.127  1.00 68.51 LIG-0.34  N 
ATOM     62  CA  PRO B 825       5.342  32.433   4.752  1.00 67.77 LIG 0.18  C 
ATOM     63  CD  PRO B 825       6.306  32.745   6.963  1.00 70.13 LIG 0.13  C 
ATOM     64  CB  PRO B 825       6.860  32.550   4.628  1.00 68.40 LIG 0.04  C 
ATOM     65  CG  PRO B 825       7.340  32.182   5.998  1.00 73.68 LIG 0.02  C 
ATOM     66 O    ARG B 824       2.866  32.751   5.878  1.00 51.39 LIG-0.27  OA
BRANCH 62 67
ATOM     67  C   PRO B 825       4.877  31.004   4.535  1.00 71.49 LIG 0.24  C 
ATOM     68  N   ARG B 826       4.523  30.720   3.287  1.00 70.87 LIG-0.35  N 
ATOM     69 H    ARG B 826       4.452  31.307   2.662  1.00 70.87 LIG 0.16  HD
ATOM     70 O    PRO B 825       4.803  30.191   5.456  1.00 73.63 LIG-0.27  OA
BRANCH 68 71
ATOM     71  CA  ARG B 826       4.220  29.364   2.873  1.00 67.47 LIG 0.16  C 
BRANCH 71 72
ATOM     72  CB  ARG B 826       2.778  29.002   3.220  1.00 70.42 LIG 0.04  C 
BRANCH 72 73
ATOM     73  CG  ARG B 826       2.673  27.676   3.938  1.00 69.62 LIG 0.02  C 
BRANCH 73 74
ATOM     74  CD  ARG B 826       1.758  26.669   3.267  1.00 58.43 LIG 0.14  C 
BRANCH 74 75
ATOM     75  NE  ARG B 826       0.713  26.106   4.123  1.00 52.00 LIG-0.23  N 
ATOM     76 HE   ARG B 826       0.953  25.738   4.863  1.00 52.00 LIG 0.18  HD
ATOM     77  CZ  ARG B 826      -0.580  26.126   3.831  1.00 51.94 LIG 0.67  C 
ATOM     78  NH1 ARG B 826      -0.972  26.620   2.663  1.00 56.61 LIG-0.23  N 
ATOM     79  NH2 ARG B 826      -1.466  25.628   4.679  1.00 47.30 LIG-0.23  N 
ATOM     80 2HH1 ARG B 826      -1.808  26.639   2.462  1.00 56.61 LIG 0.17  HD
ATOM     81 1HH1 ARG B 826      -0.389  26.922   2.107  1.00 56.61 LIG 0.17  HD
ATOM     82 1HH2 ARG B 826      -1.204  25.288   5.424  1.00 47.30 LIG 0.17  HD
ATOM     83 2HH2 ARG B 826      -2.303  25.644   4.484  1.00 47.30 LIG 0.17  HD
ENDBRANCH 74 75
ENDBRANCH 73 74
ENDBRANCH 72 73
ENDBRANCH 71 72
BRANCH 71 84
ATOM     84  C   ARG B 826       4.447  29.208   1.374  1.00 71.98 LIG 0.22  C 
ATOM     85 O    ARG B 826       5.172  29.992   0.764  1.00 86.43 LIG-0.29  OA
ENDBRANCH 71 84
ENDBRANCH 68 71
ENDBRANCH 62 67
ENDBRANCH 47 60
ENDBRANCH 3 47
TORSDOF 31
ENDMDL
MODEL 8
USER: ADFR SOLUTION from run 26
USER: SCORE 23.868818 LL:  -4.424 LR: -20.585 RR:   0.000 FEB: -11.338
USER: RMSD 3.203767
USER: SEED 25
USER: STATUS searching
USER: GENES 33
USER: genes 0 Translation |==|  0.46735 0.52057 0.44644
USER: genes 1 Rotation |==|  0.49700 0.72535 0.49469 0.94629
USER: genes 2 Torsion [N]-C--CA-[N] |==|  0.24141
USER: genes 3 Torsion [C]-CA--CB-[CG] |==|  0.45164
USER: genes 4 Torsion [CA]-CB--CG-[CD] |==|  0.57408
USER: genes 5 Torsion [CB]-CG--CD-[CE] |==|  0.66468
USER: genes 6 Torsion [CG]-CD--CE-[NZ] |==|  0.47712
USER: genes 7 Torsion [CD]-CE--NZ-[HZ3] |==|  0.46575
USER: genes 8 Torsion [C]-CA--N-[C] |==|  0.75610
USER: genes 9 Torsion [N]-C--CA-[N] |==|  0.93234
USER: genes 10 Torsion [C]-CA--N-[C] |==|  0.83250
USER: genes 11 Torsion [N]-C--CA-[N] |==|  0.89254
USER: genes 12 Torsion [C]-CA--CB-[CG2] |==|  0.09510
USER: genes 13 Torsion [CA]-CB--OG1-[HG1] |==|  0.55390
USER: genes 14 Torsion [C]-CA--N-[C] |==|  0.81806
USER: genes 15 Torsion [N]-C--CA-[N] |==|  0.31217
USER: genes 16 Torsion [C]-CA--CB-[CG] |==|  0.76399
USER: genes 17 Torsion [CA]-CB--CG-[CD] |==|  0.54764
USER: genes 18 Torsion [CB]-CG--CD-[NE] |==|  0.74155
USER: genes 19 Torsion [CG]-CD--NE-[CZ] |==|  0.37520
USER: genes 20 Torsion [C]-N--CA-[CB] |==|  0.50000
USER: genes 21 Torsion [N]-CA--CB-[CG] |==|  0.77588
USER: genes 22 Torsion [CA]-CB--CG-[CD] |==|  0.25746
USER: genes 23 Torsion [CB]-CG--CD-[NE] |==|  0.20526
USER: genes 24 Torsion [CG]-CD--NE-[HE] |==|  0.17829
USER: genes 25 Torsion [N]-CA--C-[N] |==|  0.32829
USER: genes 26 Torsion [N]-CA--C-[N] |==|  0.43476
USER: genes 27 Torsion [C]-N--CA-[C] |==|  0.56187
USER: genes 28 Torsion [N]-CA--CB-[CG] |==|  0.63610
USER: genes 29 Torsion [CA]-CB--CG-[CD] |==|  0.65609
USER: genes 30 Torsion [CB]-CG--CD-[NE] |==|  0.64799
USER: genes 31 Torsion [CG]-CD--NE-[HE] |==|  0.84597
USER: genes 32 Torsion [N]-CA--C-[O] |==|  0.05940
ROOT
ATOM      1  C   LYS B 823       3.386  35.844   7.338  1.00 58.46 LIG 0.24  C 
ATOM      2 O    LYS B 823       4.416  35.786   6.668  1.00 54.34 LIG-0.27  OA
ATOM      3  N   ARG B 824       2.947  34.817   8.062  1.00 54.22 LIG-0.35  N 
ATOM      4 H    ARG B 824       2.239  34.839   8.551  1.00 54.22 LIG 0.16  HD
ENDROOT
BRANCH 1 5
ATOM      5  CA  LYS B 823       2.578  37.131   7.414  1.00 55.50 LIG 0.18  C 
BRANCH 5 6
ATOM      6  CB  LYS B 823       2.734  37.905   6.099  1.00 54.97 LIG 0.04  C 
BRANCH 6 7
ATOM      7  CG  LYS B 823       1.694  38.992   5.827  1.00 56.27 LIG 0.00  C 
BRANCH 7 8
ATOM      8  CD  LYS B 823       1.516  39.228   4.358  1.00 52.63 LIG 0.03  C 
BRANCH 8 9
ATOM      9  CE  LYS B 823       1.826  40.674   3.944  1.00 52.00 LIG 0.23  C 
BRANCH 9 10
ATOM     10  NZ  LYS B 823       1.841  40.866   2.484  1.00 59.54 LIG-0.08  N 
ATOM     11 HZ3  LYS B 823       1.845  41.737   2.300  1.00 59.54 LIG 0.27  HD
ATOM     12 HZ2  LYS B 823       1.118  40.491   2.128  1.00 59.54 LIG 0.27  HD
ATOM     13 HZ1  LYS B 823       2.571  40.487   2.143  1.00 59.54 LIG 0.27  HD
ENDBRANCH 9 10
ENDBRANCH 8 9
ENDBRANCH 7 8
ENDBRANCH 6 7
ENDBRANCH 5 6
BRANCH 5 14
ATOM     14  N   LYS B 823       3.035  37.935   8.544  1.00 58.26 LIG-0.35  N 
ATOM     15 H    LYS B 823       3.647  38.507   8.352  1.00 58.26 LIG 0.16  HD
ATOM     16  C   ARG B 822       2.521  37.770   9.769  1.00 61.99 LIG 0.24  C 
ATOM     17 O    ARG B 822       1.507  37.093   9.980  1.00 62.30 LIG-0.27  OA
BRANCH 16 18
ATOM     18  CA  ARG B 822       3.202  38.469  10.942  1.00 69.11 LIG 0.18  C 
BRANCH 18 19
ATOM     19  N   ARG B 822       4.605  38.760  10.691  1.00 79.36 LIG-0.35  N 
ATOM     20 H    ARG B 822       4.802  39.596  10.723  1.00 79.36 LIG 0.16  HD
ATOM     21  C   THR B 821       5.494  37.805  10.438  1.00 84.58 LIG 0.24  C 
ATOM     22 O    THR B 821       5.263  36.604  10.615  1.00 84.15 LIG-0.27  OA
BRANCH 21 23
ATOM     23  CA  THR B 821       6.856  38.285   9.952  1.00 89.83 LIG 0.20  C 
BRANCH 23 24
ATOM     24  CB  THR B 821       7.735  38.640  11.157  1.00 88.11 LIG 0.15  C 
ATOM     25  CG2 THR B 821       7.450  37.722  12.338  1.00 89.90 LIG 0.04  C 
BRANCH 24 26
ATOM     26 OG1  THR B 821       9.117  38.513  10.799  1.00 82.62 LIG-0.39  OA
ATOM     27 HG1  THR B 821       9.582  38.444  11.495  1.00 82.62 LIG 0.21  HD
ENDBRANCH 24 26
ENDBRANCH 23 24
BRANCH 23 28
ATOM     28  N   THR B 821       6.721  39.416   9.043  1.00 98.89 LIG-0.34  N 
ATOM     29 H    THR B 821       7.050  40.151   9.344  1.00 98.89 LIG 0.16  HD
ATOM     30  C   ALA B 820       6.133  39.301   7.852  1.00104.93 LIG 0.26  C 
ATOM     31 O    ALA B 820       5.593  38.261   7.464  1.00110.84 LIG-0.27  OA
BRANCH 30 32
ATOM     32  CA  ALA B 820       6.150  40.546   6.969  1.00100.65 LIG 0.40  C 
ATOM     33  N   ALA B 820       6.993  40.330   5.800  1.00102.47 LIG 0.61  N 
ATOM     34  CB  ALA B 820       4.737  40.922   6.545  1.00 93.61 LIG 0.06  C 
ENDBRANCH 30 32
ENDBRANCH 23 28
ENDBRANCH 21 23
ENDBRANCH 18 19
BRANCH 18 35
ATOM     35  CB  ARG B 822       2.466  39.752  11.327  1.00 74.55 LIG 0.04  C 
BRANCH 35 36
ATOM     36  CG  ARG B 822       2.929  40.909  10.468  1.00 89.07 LIG 0.02  C 
BRANCH 36 37
ATOM     37  CD  ARG B 822       2.578  42.263  11.025  1.00 95.35 LIG 0.14  C 
BRANCH 37 38
ATOM     38  NE  ARG B 822       1.303  42.717  10.473  1.00111.05 LIG-0.23  N 
ATOM     39  CZ  ARG B 822       0.328  43.267  11.194  1.00116.06 LIG 0.67  C 
ATOM     40  NH1 ARG B 822       0.486  43.443  12.500  1.00115.06 LIG-0.23  N 
ATOM     41  NH2 ARG B 822      -0.796  43.662  10.605  1.00119.10 LIG-0.23  N 
ATOM     42 2HH1 ARG B 822      -0.144  43.798  12.965  1.00115.06 LIG 0.17  HD
ATOM     43 1HH1 ARG B 822       1.218  43.201  12.881  1.00115.06 LIG 0.17  HD
ATOM     44 1HH2 ARG B 822      -0.895  43.563   9.756  1.00119.10 LIG 0.17  HD
ATOM     45 2HH2 ARG B 822      -1.425  44.017  11.072  1.00119.10 LIG 0.17  HD
ATOM     46 HE   ARG B 822       1.175  42.622   9.628  1.00111.05 LIG 0.18  HD
ENDBRANCH 37 38
ENDBRANCH 36 37
ENDBRANCH 35 36
ENDBRANCH 18 35
ENDBRANCH 16 18
ENDBRANCH 5 14
ENDBRANCH 1 5
BRANCH 3 47
ATOM     47  CA  ARG B 824       3.659  33.541   8.076  1.00 54.21 LIG 0.18  C 
BRANCH 47 48
ATOM     48  CB  ARG B 824       2.961  32.524   8.979  1.00 52.82 LIG 0.04  C 
BRANCH 48 49
ATOM     49  CG  ARG B 824       3.294  32.726  10.450  1.00 57.86 LIG 0.02  C 
BRANCH 49 50
ATOM     50  CD  ARG B 824       2.295  33.611  11.150  1.00 56.10 LIG 0.14  C 
BRANCH 50 51
ATOM     51  NE  ARG B 824       1.042  32.912  11.379  1.00 65.02 LIG-0.23  N 
ATOM     52  CZ  ARG B 824      -0.114  33.252  10.835  1.00 62.89 LIG 0.67  C 
ATOM     53  NH1 ARG B 824      -0.179  34.282  10.004  1.00 60.33 LIG-0.23  N 
ATOM     54  NH2 ARG B 824      -1.198  32.547  11.104  1.00 55.39 LIG-0.23  N 
ATOM     55 1HH1 ARG B 824       0.532  34.730   9.818  1.00 60.33 LIG 0.17  HD
ATOM     56 2HH1 ARG B 824      -0.931  34.503   9.650  1.00 60.33 LIG 0.17  HD
ATOM     57 2HH2 ARG B 824      -1.952  32.766  10.752  1.00 55.39 LIG 0.17  HD
ATOM     58 1HH2 ARG B 824      -1.150  31.869  11.631  1.00 55.39 LIG 0.17  HD
ATOM     59 HE   ARG B 824       1.053  32.230  11.904  1.00 65.02 LIG 0.18  HD
ENDBRANCH 50 51
ENDBRANCH 49 50
ENDBRANCH 48 49
ENDBRANCH 47 48
BRANCH 47 60
ATOM     60  C   ARG B 824       3.824  32.995   6.664  1.00 52.05 LIG 0.24  C 
ATOM     61  N   PRO B 825       5.051  32.825   6.187  1.00 68.51 LIG-0.34  N 
ATOM     62  CA  PRO B 825       5.263  32.418   4.798  1.00 67.77 LIG 0.18  C 
ATOM     63  CD  PRO B 825       6.284  32.691   6.988  1.00 70.13 LIG 0.13  C 
ATOM     64  CB  PRO B 825       6.777  32.542   4.636  1.00 68.40 LIG 0.04  C 
ATOM     65  CG  PRO B 825       7.294  32.150   5.985  1.00 73.68 LIG 0.02  C 
ATOM     66 O    ARG B 824       2.816  32.706   5.995  1.00 51.39 LIG-0.27  OA
BRANCH 62 67
ATOM     67  C   PRO B 825       4.796  30.992   4.565  1.00 71.49 LIG 0.24  C 
ATOM     68  N   ARG B 826       4.492  30.707   3.305  1.00 70.87 LIG-0.35  N 
ATOM     69 H    ARG B 826       4.452  31.291   2.676  1.00 70.87 LIG 0.16  HD
ATOM     70 O    PRO B 825       4.678  30.182   5.485  1.00 73.63 LIG-0.27  OA
BRANCH 68 71
ATOM     71  CA  ARG B 826       4.197  29.351   2.882  1.00 67.47 LIG 0.16  C 
BRANCH 71 72
ATOM     72  CB  ARG B 826       2.756  28.979   3.227  1.00 70.42 LIG 0.04  C 
BRANCH 72 73
ATOM     73  CG  ARG B 826       2.658  27.645   3.932  1.00 69.62 LIG 0.02  C 
BRANCH 73 74
ATOM     74  CD  ARG B 826       1.747  26.641   3.252  1.00 58.43 LIG 0.14  C 
BRANCH 74 75
ATOM     75  NE  ARG B 826       0.711  26.059   4.106  1.00 52.00 LIG-0.23  N 
ATOM     76 HE   ARG B 826       0.959  25.670   4.833  1.00 52.00 LIG 0.18  HD
ATOM     77  CZ  ARG B 826      -0.586  26.091   3.831  1.00 51.94 LIG 0.67  C 
ATOM     78  NH1 ARG B 826      -0.990  26.618   2.683  1.00 56.61 LIG-0.23  N 
ATOM     79  NH2 ARG B 826      -1.462  25.573   4.677  1.00 47.30 LIG-0.23  N 
ATOM     80 2HH1 ARG B 826      -1.829  26.645   2.493  1.00 56.61 LIG 0.17  HD
ATOM     81 1HH1 ARG B 826      -0.414  26.933   2.127  1.00 56.61 LIG 0.17  HD
ATOM     82 1HH2 ARG B 826      -1.192  25.212   5.409  1.00 47.30 LIG 0.17  HD
ATOM     83 2HH2 ARG B 826      -2.302  25.597   4.494  1.00 47.30 LIG 0.17  HD
ENDBRANCH 74 75
ENDBRANCH 73 74
ENDBRANCH 72 73
ENDBRANCH 71 72
BRANCH 71 84
ATOM     84  C   ARG B 826       4.424  29.205   1.383  1.00 71.98 LIG 0.22  C 
ATOM     85 O    ARG B 826       5.152  29.991   0.779  1.00 86.43 LIG-0.29  OA
ENDBRANCH 71 84
ENDBRANCH 68 71
ENDBRANCH 62 67
ENDBRANCH 47 60
ENDBRANCH 3 47
TORSDOF 31
ENDMDL
MODEL 9
USER: ADFR SOLUTION from run 176
USER: SCORE 22.049654 LL:  -2.847 LR: -20.538 RR:   0.000 FEB: -11.290
USER: RMSD 3.614617
USER: SEED 175
USER: STATUS no improvement in best in 5 clusters for 5 generations
USER: GENES 33
USER: genes 0 Translation |==|  0.48365 0.52791 0.47362
USER: genes 1 Rotation |==|  0.47474 0.48299 0.51943 0.99869
USER: genes 2 Torsion [N]-C--CA-[N] |==|  0.46433
USER: genes 3 Torsion [C]-CA--CB-[CG] |==|  0.55017
USER: genes 4 Torsion [CA]-CB--CG-[CD] |==|  0.82082
USER: genes 5 Torsion [CB]-CG--CD-[CE] |==|  0.54425
USER: genes 6 Torsion [CG]-CD--CE-[NZ] |==|  0.36427
USER: genes 7 Torsion [CD]-CE--NZ-[HZ3] |==|  0.20895
USER: genes 8 Torsion [C]-CA--N-[C] |==|  0.79149
USER: genes 9 Torsion [N]-C--CA-[N] |==|  0.00835
USER: genes 10 Torsion [C]-CA--N-[C] |==|  0.77728
USER: genes 11 Torsion [N]-C--CA-[N] |==|  0.96984
USER: genes 12 Torsion [C]-CA--CB-[CG2] |==|  0.48358
USER: genes 13 Torsion [CA]-CB--OG1-[HG1] |==|  0.77114
USER: genes 14 Torsion [C]-CA--N-[C] |==|  0.75023
USER: genes 15 Torsion [N]-C--CA-[N] |==|  0.73159
USER: genes 16 Torsion [C]-CA--CB-[CG] |==|  0.72414
USER: genes 17 Torsion [CA]-CB--CG-[CD] |==|  0.49613
USER: genes 18 Torsion [CB]-CG--CD-[NE] |==|  0.43239
USER: genes 19 Torsion [CG]-CD--NE-[CZ] |==|  0.21725
USER: genes 20 Torsion [C]-N--CA-[CB] |==|  0.28283
USER: genes 21 Torsion [N]-CA--CB-[CG] |==|  0.05578
USER: genes 22 Torsion [CA]-CB--CG-[CD] |==|  0.48353
USER: genes 23 Torsion [CB]-CG--CD-[NE] |==|  0.87049
USER: genes 24 Torsion [CG]-CD--NE-[HE] |==|  0.24782
USER: genes 25 Torsion [N]-CA--C-[N] |==|  0.38576
USER: genes 26 Torsion [N]-CA--C-[N] |==|  0.50785
USER: genes 27 Torsion [C]-N--CA-[C] |==|  0.78414
USER: genes 28 Torsion [N]-CA--CB-[CG] |==|  0.67604
USER: genes 29 Torsion [CA]-CB--CG-[CD] |==|  0.51440
USER: genes 30 Torsion [CB]-CG--CD-[NE] |==|  0.64433
USER: genes 31 Torsion [CG]-CD--NE-[HE] |==|  0.76581
USER: genes 32 Torsion [N]-CA--C-[O] |==|  0.07808
ROOT
ATOM      1  C   LYS B 823       3.729  36.059   7.929  1.00 58.46 LIG 0.24  C 
ATOM      2 O    LYS B 823       4.846  36.164   8.434  1.00 54.34 LIG-0.27  OA
ATOM      3  N   ARG B 824       2.987  34.961   8.060  1.00 54.22 LIG-0.35  N 
ATOM      4 H    ARG B 824       2.197  34.870   7.730  1.00 54.22 LIG 0.16  HD
ENDROOT
BRANCH 1 5
ATOM      5  CA  LYS B 823       3.109  37.217   7.161  1.00 55.50 LIG 0.18  C 
BRANCH 5 6
ATOM      6  CB  LYS B 823       3.040  36.858   5.672  1.00 54.97 LIG 0.04  C 
BRANCH 6 7
ATOM      7  CG  LYS B 823       2.853  38.025   4.702  1.00 56.27 LIG 0.00  C 
BRANCH 7 8
ATOM      8  CD  LYS B 823       1.532  38.702   4.902  1.00 52.63 LIG 0.03  C 
BRANCH 8 9
ATOM      9  CE  LYS B 823       1.139  39.605   3.725  1.00 52.00 LIG 0.23  C 
BRANCH 9 10
ATOM     10  NZ  LYS B 823      -0.236  39.373   3.253  1.00 59.54 LIG-0.08  N 
ATOM     11 HZ3  LYS B 823      -0.812  39.735   3.827  1.00 59.54 LIG 0.27  HD
ATOM     12 HZ2  LYS B 823      -0.387  38.499   3.194  1.00 59.54 LIG 0.27  HD
ATOM     13 HZ1  LYS B 823      -0.342  39.747   2.452  1.00 59.54 LIG 0.27  HD
ENDBRANCH 9 10
ENDBRANCH 8 9
ENDBRANCH 7 8
ENDBRANCH 6 7
ENDBRANCH 5 6
BRANCH 5 14
ATOM     14  N   LYS B 823       3.902  38.426   7.366  1.00 58.26 LIG-0.35  N 
ATOM     15 H    LYS B 823       4.391  38.650   6.695  1.00 58.26 LIG 0.16  HD
ATOM     16  C   ARG B 822       3.850  39.107   8.517  1.00 61.99 LIG 0.24  C 
ATOM     17 O    ARG B 822       2.995  38.885   9.383  1.00 62.30 LIG-0.27  OA
BRANCH 16 18
ATOM     18  CA  ARG B 822       4.872  40.215   8.751  1.00 69.11 LIG 0.18  C 
BRANCH 18 19
ATOM     19  N   ARG B 822       5.752  40.425   7.612  1.00 79.36 LIG-0.35  N 
ATOM     20 H    ARG B 822       5.531  41.092   7.116  1.00 79.36 LIG 0.16  HD
ATOM     21  C   THR B 821       6.802  39.646   7.372  1.00 84.58 LIG 0.24  C 
ATOM     22 O    THR B 821       7.246  38.841   8.197  1.00 84.15 LIG-0.27  OA
BRANCH 21 23
ATOM     23  CA  THR B 821       7.468  39.838   6.016  1.00 89.83 LIG 0.20  C 
BRANCH 23 24
ATOM     24  CB  THR B 821       8.868  40.433   6.211  1.00 88.11 LIG 0.15  C 
ATOM     25  CG2 THR B 821       9.625  40.506   4.891  1.00 89.90 LIG 0.04  C 
BRANCH 24 26
ATOM     26 OG1  THR B 821       8.758  41.756   6.752  1.00 82.62 LIG-0.39  OA
ATOM     27 HG1  THR B 821       8.608  42.301   6.131  1.00 82.62 LIG 0.21  HD
ENDBRANCH 24 26
ENDBRANCH 23 24
BRANCH 23 28
ATOM     28  N   THR B 821       6.654  40.676   5.145  1.00 98.89 LIG-0.34  N 
ATOM     29 H    THR B 821       6.825  41.517   5.204  1.00 98.89 LIG 0.16  HD
ATOM     30  C   ALA B 820       5.729  40.164   4.332  1.00104.93 LIG 0.26  C 
ATOM     31 O    ALA B 820       5.438  38.965   4.313  1.00110.84 LIG-0.27  OA
BRANCH 30 32
ATOM     32  CA  ALA B 820       5.022  41.152   3.409  1.00100.65 LIG 0.40  C 
ATOM     33  N   ALA B 820       3.752  41.573   3.988  1.00102.47 LIG 0.61  N 
ATOM     34  CB  ALA B 820       5.910  42.359   3.135  1.00 93.61 LIG 0.06  C 
ENDBRANCH 30 32
ENDBRANCH 23 28
ENDBRANCH 21 23
ENDBRANCH 18 19
BRANCH 18 35
ATOM     35  CB  ARG B 822       4.189  41.529   9.130  1.00 74.55 LIG 0.04  C 
BRANCH 35 36
ATOM     36  CG  ARG B 822       4.084  42.440   7.926  1.00 89.07 LIG 0.02  C 
BRANCH 36 37
ATOM     37  CD  ARG B 822       3.390  43.747   8.207  1.00 95.35 LIG 0.14  C 
BRANCH 37 38
ATOM     38  NE  ARG B 822       3.817  44.758   7.241  1.00111.05 LIG-0.23  N 
ATOM     39  CZ  ARG B 822       3.365  44.839   5.991  1.00116.06 LIG 0.67  C 
ATOM     40  NH1 ARG B 822       2.460  43.972   5.555  1.00115.06 LIG-0.23  N 
ATOM     41  NH2 ARG B 822       3.802  45.801   5.185  1.00119.10 LIG-0.23  N 
ATOM     42 2HH1 ARG B 822       2.168  44.025   4.748  1.00115.06 LIG 0.17  HD
ATOM     43 1HH1 ARG B 822       2.166  43.358   6.080  1.00115.06 LIG 0.17  HD
ATOM     44 1HH2 ARG B 822       4.377  46.373   5.470  1.00119.10 LIG 0.17  HD
ATOM     45 2HH2 ARG B 822       3.509  45.852   4.378  1.00119.10 LIG 0.17  HD
ATOM     46 HE   ARG B 822       4.398  45.338   7.497  1.00111.05 LIG 0.18  HD
ENDBRANCH 37 38
ENDBRANCH 36 37
ENDBRANCH 35 36
ENDBRANCH 18 35
ENDBRANCH 16 18
ENDBRANCH 5 14
ENDBRANCH 1 5
BRANCH 3 47
ATOM     47  CA  ARG B 824       3.479  33.798   8.795  1.00 54.21 LIG 0.18  C 
BRANCH 47 48
ATOM     48  CB  ARG B 824       2.868  33.724  10.194  1.00 52.82 LIG 0.04  C 
BRANCH 48 49
ATOM     49  CG  ARG B 824       1.587  34.536  10.313  1.00 57.86 LIG 0.02  C 
BRANCH 49 50
ATOM     50  CD  ARG B 824       0.909  34.351  11.646  1.00 56.10 LIG 0.14  C 
BRANCH 50 51
ATOM     51  NE  ARG B 824       0.834  32.945  12.007  1.00 65.02 LIG-0.23  N 
ATOM     52  CZ  ARG B 824      -0.177  32.148  11.704  1.00 62.89 LIG 0.67  C 
ATOM     53  NH1 ARG B 824      -1.205  32.616  11.008  1.00 60.33 LIG-0.23  N 
ATOM     54  NH2 ARG B 824      -0.148  30.882  12.075  1.00 55.39 LIG-0.23  N 
ATOM     55 1HH1 ARG B 824      -1.213  33.438  10.754  1.00 60.33 LIG 0.17  HD
ATOM     56 2HH1 ARG B 824      -1.862  32.097  10.812  1.00 60.33 LIG 0.17  HD
ATOM     57 2HH2 ARG B 824      -0.804  30.361  11.879  1.00 55.39 LIG 0.17  HD
ATOM     58 1HH2 ARG B 824       0.528  30.577  12.513  1.00 55.39 LIG 0.17  HD
ATOM     59 HE   ARG B 824       1.491  32.609  12.448  1.00 65.02 LIG 0.18  HD
ENDBRANCH 50 51
ENDBRANCH 49 50
ENDBRANCH 48 49
ENDBRANCH 47 48
BRANCH 47 60
ATOM     60  C   ARG B 824       3.218  32.514   8.018  1.00 52.05 LIG 0.24  C 
ATOM     61  N   PRO B 825       4.163  31.582   7.993  1.00 68.51 LIG-0.34  N 
ATOM     62  CA  PRO B 825       4.012  30.386   7.165  1.00 67.77 LIG 0.18  C 
ATOM     63  CD  PRO B 825       5.265  31.437   8.965  1.00 70.13 LIG 0.13  C 
ATOM     64  CB  PRO B 825       5.380  29.717   7.283  1.00 68.40 LIG 0.04  C 
ATOM     65  CG  PRO B 825       5.790  30.034   8.687  1.00 73.68 LIG 0.02  C 
ATOM     66 O    ARG B 824       2.129  32.355   7.439  1.00 51.39 LIG-0.27  OA
BRANCH 62 67
ATOM     67  C   PRO B 825       2.908  29.487   7.694  1.00 71.49 LIG 0.24  C 
ATOM     68  N   ARG B 826       2.751  28.350   7.026  1.00 70.87 LIG-0.35  N 
ATOM     69 H    ARG B 826       3.155  28.165   6.290  1.00 70.87 LIG 0.16  HD
ATOM     70 O    PRO B 825       2.197  29.812   8.644  1.00 73.63 LIG-0.27  OA
BRANCH 68 71
ATOM     71  CA  ARG B 826       1.864  27.306   7.501  1.00 67.47 LIG 0.16  C 
BRANCH 71 72
ATOM     72  CB  ARG B 826       1.494  26.354   6.366  1.00 70.42 LIG 0.04  C 
BRANCH 72 73
ATOM     73  CG  ARG B 826       0.015  26.374   6.055  1.00 69.62 LIG 0.02  C 
BRANCH 73 74
ATOM     74  CD  ARG B 826      -0.423  25.356   5.019  1.00 58.43 LIG 0.14  C 
BRANCH 74 75
ATOM     75  NE  ARG B 826      -1.205  25.894   3.905  1.00 52.00 LIG-0.23  N 
ATOM     76 HE   ARG B 826      -2.053  25.990   4.017  1.00 52.00 LIG 0.18  HD
ATOM     77  CZ  ARG B 826      -0.690  26.244   2.734  1.00 51.94 LIG 0.67  C 
ATOM     78  NH1 ARG B 826       0.601  26.038   2.508  1.00 56.61 LIG-0.23  N 
ATOM     79  NH2 ARG B 826      -1.462  26.759   1.791  1.00 47.30 LIG-0.23  N 
ATOM     80 2HH1 ARG B 826       0.947  26.260   1.752  1.00 56.61 LIG 0.17  HD
ATOM     81 1HH1 ARG B 826       1.093  25.681   3.118  1.00 56.61 LIG 0.17  HD
ATOM     82 1HH2 ARG B 826      -2.303  26.869   1.935  1.00 47.30 LIG 0.17  HD
ATOM     83 2HH2 ARG B 826      -1.123  26.984   1.034  1.00 47.30 LIG 0.17  HD
ENDBRANCH 74 75
ENDBRANCH 73 74
ENDBRANCH 72 73
ENDBRANCH 71 72
BRANCH 71 84
ATOM     84  C   ARG B 826       2.522  26.530   8.635  1.00 71.98 LIG 0.22  C 
ATOM     85 O    ARG B 826       3.354  27.067   9.363  1.00 86.43 LIG-0.29  OA
ENDBRANCH 71 84
ENDBRANCH 68 71
ENDBRANCH 62 67
ENDBRANCH 47 60
ENDBRANCH 3 47
TORSDOF 31
ENDMDL
MODEL 10
USER: ADFR SOLUTION from run 26
USER: SCORE 23.679690 LL:  -4.204 LR: -20.419 RR:   0.000 FEB: -11.171
USER: RMSD 3.781448
USER: SEED 25
USER: STATUS searching
USER: GENES 33
USER: genes 0 Translation |==|  0.46728 0.52193 0.43675
USER: genes 1 Rotation |==|  0.48812 0.73171 0.48436 0.94263
USER: genes 2 Torsion [N]-C--CA-[N] |==|  0.35812
USER: genes 3 Torsion [C]-CA--CB-[CG] |==|  0.56871
USER: genes 4 Torsion [CA]-CB--CG-[CD] |==|  0.36771
USER: genes 5 Torsion [CB]-CG--CD-[CE] |==|  0.48733
USER: genes 6 Torsion [CG]-CD--CE-[NZ] |==|  0.38892
USER: genes 7 Torsion [CD]-CE--NZ-[HZ3] |==|  0.40078
USER: genes 8 Torsion [C]-CA--N-[C] |==|  0.73338
USER: genes 9 Torsion [N]-C--CA-[N] |==|  0.93772
USER: genes 10 Torsion [C]-CA--N-[C] |==|  0.83592
USER: genes 11 Torsion [N]-C--CA-[N] |==|  0.36302
USER: genes 12 Torsion [C]-CA--CB-[CG2] |==|  0.78103
USER: genes 13 Torsion [CA]-CB--OG1-[HG1] |==|  0.63359
USER: genes 14 Torsion [C]-CA--N-[C] |==|  0.80468
USER: genes 15 Torsion [N]-C--CA-[N] |==|  0.58563
USER: genes 16 Torsion [C]-CA--CB-[CG] |==|  0.77767
USER: genes 17 Torsion [CA]-CB--CG-[CD] |==|  0.60253
USER: genes 18 Torsion [CB]-CG--CD-[NE] |==|  0.64197
USER: genes 19 Torsion [CG]-CD--NE-[CZ] |==|  0.65037
USER: genes 20 Torsion [C]-N--CA-[CB] |==|  0.51170
USER: genes 21 Torsion [N]-CA--CB-[CG] |==|  0.76986
USER: genes 22 Torsion [CA]-CB--CG-[CD] |==|  0.26555
USER: genes 23 Torsion [CB]-CG--CD-[NE] |==|  0.21152
USER: genes 24 Torsion [CG]-CD--NE-[HE] |==|  0.17504
USER: genes 25 Torsion [N]-CA--C-[N] |==|  0.32493
USER: genes 26 Torsion [N]-CA--C-[N] |==|  0.42441
USER: genes 27 Torsion [C]-N--CA-[C] |==|  0.56837
USER: genes 28 Torsion [N]-CA--CB-[CG] |==|  0.63735
USER: genes 29 Torsion [CA]-CB--CG-[CD] |==|  0.65581
USER: genes 30 Torsion [CB]-CG--CD-[NE] |==|  0.65011
USER: genes 31 Torsion [CG]-CD--NE-[HE] |==|  0.84748
USER: genes 32 Torsion [N]-CA--C-[O] |==|  0.05881
ROOT
ATOM      1  C   LYS B 823       3.385  35.884   7.127  1.00 58.46 LIG 0.24  C 
ATOM      2 O    LYS B 823       4.393  35.770   6.431  1.00 54.34 LIG-0.27  OA
ATOM      3  N   ARG B 824       2.946  34.904   7.914  1.00 54.22 LIG-0.35  N 
ATOM      4 H    ARG B 824       2.254  34.965   8.422  1.00 54.22 LIG 0.16  HD
ENDROOT
BRANCH 1 5
ATOM      5  CA  LYS B 823       2.606  37.190   7.161  1.00 55.50 LIG 0.18  C 
BRANCH 5 6
ATOM      6  CB  LYS B 823       1.847  37.363   5.840  1.00 54.97 LIG 0.04  C 
BRANCH 6 7
ATOM      7  CG  LYS B 823       1.503  38.797   5.438  1.00 56.27 LIG 0.00  C 
BRANCH 7 8
ATOM      8  CD  LYS B 823       1.860  39.069   4.009  1.00 52.63 LIG 0.03  C 
BRANCH 8 9
ATOM      9  CE  LYS B 823       1.427  40.465   3.541  1.00 52.00 LIG 0.23  C 
BRANCH 9 10
ATOM     10  NZ  LYS B 823       2.423  41.121   2.677  1.00 59.54 LIG-0.08  N 
ATOM     11 HZ3  LYS B 823       2.006  41.599   2.053  1.00 59.54 LIG 0.27  HD
ATOM     12 HZ2  LYS B 823       2.930  40.503   2.287  1.00 59.54 LIG 0.27  HD
ATOM     13 HZ1  LYS B 823       2.935  41.657   3.169  1.00 59.54 LIG 0.27  HD
ENDBRANCH 9 10
ENDBRANCH 8 9
ENDBRANCH 7 8
ENDBRANCH 6 7
ENDBRANCH 5 6
BRANCH 5 14
ATOM     14  N   LYS B 823       3.522  38.306   7.381  1.00 58.26 LIG-0.35  N 
ATOM     15 H    LYS B 823       3.902  38.602   6.668  1.00 58.26 LIG 0.16  HD
ATOM     16  C   ARG B 822       3.732  38.804   8.605  1.00 61.99 LIG 0.24  C 
ATOM     17 O    ARG B 822       3.029  38.502   9.576  1.00 62.30 LIG-0.27  OA
BRANCH 16 18
ATOM     18  CA  ARG B 822       4.870  39.803   8.796  1.00 69.11 LIG 0.18  C 
BRANCH 18 19
ATOM     19  N   ARG B 822       5.891  39.704   7.765  1.00 79.36 LIG-0.35  N 
ATOM     20 H    ARG B 822       6.011  40.429   7.319  1.00 79.36 LIG 0.16  HD
ATOM     21  C   THR B 821       6.570  38.583   7.544  1.00 84.58 LIG 0.24  C 
ATOM     22 O    THR B 821       6.560  37.624   8.323  1.00 84.15 LIG-0.27  OA
BRANCH 21 23
ATOM     23  CA  THR B 821       7.417  38.565   6.277  1.00 89.83 LIG 0.20  C 
BRANCH 23 24
ATOM     24  CB  THR B 821       6.744  37.678   5.223  1.00 88.11 LIG 0.15  C 
ATOM     25  CG2 THR B 821       6.996  36.201   5.502  1.00 89.90 LIG 0.04  C 
BRANCH 24 26
ATOM     26 OG1  THR B 821       5.330  37.912   5.228  1.00 82.62 LIG-0.39  OA
ATOM     27 HG1  THR B 821       4.924  37.176   5.244  1.00 82.62 LIG 0.21  HD
ENDBRANCH 24 26
ENDBRANCH 23 24
BRANCH 23 28
ATOM     28  N   THR B 821       8.774  38.115   6.559  1.00 98.89 LIG-0.34  N 
ATOM     29 H    THR B 821       8.960  37.336   6.245  1.00 98.89 LIG 0.16  HD
ATOM     30  C   ALA B 820       9.639  38.862   7.246  1.00104.93 LIG 0.26  C 
ATOM     31 O    ALA B 820       9.338  39.943   7.759  1.00110.84 LIG-0.27  OA
BRANCH 30 32
ATOM     32  CA  ALA B 820      11.053  38.304   7.380  1.00100.65 LIG 0.40  C 
ATOM     33  N   ALA B 820      11.654  38.732   8.638  1.00102.47 LIG 0.61  N 
ATOM     34  CB  ALA B 820      11.040  36.784   7.286  1.00 93.61 LIG 0.06  C 
ENDBRANCH 30 32
ENDBRANCH 23 28
ENDBRANCH 21 23
ENDBRANCH 18 19
BRANCH 18 35
ATOM     35  CB  ARG B 822       4.343  41.236   8.870  1.00 74.55 LIG 0.04  C 
BRANCH 35 36
ATOM     36  CG  ARG B 822       4.059  41.770   7.482  1.00 89.07 LIG 0.02  C 
BRANCH 36 37
ATOM     37  CD  ARG B 822       4.390  43.229   7.309  1.00 95.35 LIG 0.14  C 
BRANCH 37 38
ATOM     38  NE  ARG B 822       3.248  43.937   6.734  1.00111.05 LIG-0.23  N 
ATOM     39  CZ  ARG B 822       3.306  44.684   5.633  1.00116.06 LIG 0.67  C 
ATOM     40  NH1 ARG B 822       4.453  44.813   4.978  1.00115.06 LIG-0.23  N 
ATOM     41  NH2 ARG B 822       2.212  45.284   5.175  1.00119.10 LIG-0.23  N 
ATOM     42 2HH1 ARG B 822       4.490  45.295   4.267  1.00115.06 LIG 0.17  HD
ATOM     43 1HH1 ARG B 822       5.158  44.414   5.264  1.00115.06 LIG 0.17  HD
ATOM     44 1HH2 ARG B 822       1.464  45.190   5.589  1.00119.10 LIG 0.17  HD
ATOM     45 2HH2 ARG B 822       2.251  45.766   4.464  1.00119.10 LIG 0.17  HD
ATOM     46 HE   ARG B 822       2.489  43.867   7.133  1.00111.05 LIG 0.18  HD
ENDBRANCH 37 38
ENDBRANCH 36 37
ENDBRANCH 35 36
ENDBRANCH 18 35
ENDBRANCH 16 18
ENDBRANCH 5 14
ENDBRANCH 1 5
BRANCH 3 47
ATOM     47  CA  ARG B 824       3.632  33.615   7.973  1.00 54.21 LIG 0.18  C 
BRANCH 47 48
ATOM     48  CB  ARG B 824       2.883  32.625   8.864  1.00 52.82 LIG 0.04  C 
BRANCH 48 49
ATOM     49  CG  ARG B 824       3.209  32.809  10.340  1.00 57.86 LIG 0.02  C 
BRANCH 49 50
ATOM     50  CD  ARG B 824       2.201  33.677  11.048  1.00 56.10 LIG 0.14  C 
BRANCH 50 51
ATOM     51  NE  ARG B 824       0.971  32.948  11.309  1.00 65.02 LIG-0.23  N 
ATOM     52  CZ  ARG B 824      -0.208  33.265  10.801  1.00 62.89 LIG 0.67  C 
ATOM     53  NH1 ARG B 824      -0.320  34.298   9.978  1.00 60.33 LIG-0.23  N 
ATOM     54  NH2 ARG B 824      -1.267  32.534  11.097  1.00 55.39 LIG-0.23  N 
ATOM     55 1HH1 ARG B 824       0.375  34.762   9.774  1.00 60.33 LIG 0.17  HD
ATOM     56 2HH1 ARG B 824      -1.087  34.503   9.647  1.00 60.33 LIG 0.17  HD
ATOM     57 2HH2 ARG B 824      -2.036  32.737  10.768  1.00 55.39 LIG 0.17  HD
ATOM     58 1HH2 ARG B 824      -1.189  31.855  11.620  1.00 55.39 LIG 0.17  HD
ATOM     59 HE   ARG B 824       1.013  32.264  11.830  1.00 65.02 LIG 0.18  HD
ENDBRANCH 50 51
ENDBRANCH 49 50
ENDBRANCH 48 49
ENDBRANCH 47 48
BRANCH 47 60
ATOM     60  C   ARG B 824       3.835  33.044   6.575  1.00 52.05 LIG 0.24  C 
ATOM     61  N   PRO B 825       5.075  32.866   6.135  1.00 68.51 LIG-0.34  N 
ATOM     62  CA  PRO B 825       5.325  32.435   4.759  1.00 67.77 LIG 0.18  C 
ATOM     63  CD  PRO B 825       6.286  32.747   6.972  1.00 70.13 LIG 0.13  C 
ATOM     64  CB  PRO B 825       6.843  32.557   4.637  1.00 68.40 LIG 0.04  C 
ATOM     65  CG  PRO B 825       7.323  32.188   6.006  1.00 73.68 LIG 0.02  C 
ATOM     66 O    ARG B 824       2.847  32.743   5.883  1.00 51.39 LIG-0.27  OA
BRANCH 62 67
ATOM     67  C   PRO B 825       4.865  31.005   4.539  1.00 71.49 LIG 0.24  C 
ATOM     68  N   ARG B 826       4.521  30.719   3.289  1.00 70.87 LIG-0.35  N 
ATOM     69 H    ARG B 826       4.454  31.305   2.663  1.00 70.87 LIG 0.16  HD
ATOM     70 O    PRO B 825       4.786  30.193   5.461  1.00 73.63 LIG-0.27  OA
BRANCH 68 71
ATOM     71  CA  ARG B 826       4.225  29.362   2.873  1.00 67.47 LIG 0.16  C 
BRANCH 71 72
ATOM     72  CB  ARG B 826       2.782  28.995   3.214  1.00 70.42 LIG 0.04  C 
BRANCH 72 73
ATOM     73  CG  ARG B 826       2.679  27.671   3.936  1.00 69.62 LIG 0.02  C 
BRANCH 73 74
ATOM     74  CD  ARG B 826       1.771  26.659   3.265  1.00 58.43 LIG 0.14  C 
BRANCH 74 75
ATOM     75  NE  ARG B 826       0.718  26.102   4.117  1.00 52.00 LIG-0.23  N 
ATOM     76 HE   ARG B 826       0.953  25.734   4.858  1.00 52.00 LIG 0.18  HD
ATOM     77  CZ  ARG B 826      -0.573  26.128   3.819  1.00 51.94 LIG 0.67  C 
ATOM     78  NH1 ARG B 826      -0.957  26.623   2.649  1.00 56.61 LIG-0.23  N 
ATOM     79  NH2 ARG B 826      -1.465  25.635   4.663  1.00 47.30 LIG-0.23  N 
ATOM     80 2HH1 ARG B 826      -1.792  26.646   2.444  1.00 56.61 LIG 0.17  HD
ATOM     81 1HH1 ARG B 826      -0.370  26.921   2.095  1.00 56.61 LIG 0.17  HD
ATOM     82 1HH2 ARG B 826      -1.208  25.295   5.410  1.00 47.30 LIG 0.17  HD
ATOM     83 2HH2 ARG B 826      -2.301  25.655   4.465  1.00 47.30 LIG 0.17  HD
ENDBRANCH 74 75
ENDBRANCH 73 74
ENDBRANCH 72 73
ENDBRANCH 71 72
BRANCH 71 84
ATOM     84  C   ARG B 826       4.459  29.207   1.376  1.00 71.98 LIG 0.22  C 
ATOM     85 O    ARG B 826       5.188  29.990   0.770  1.00 86.43 LIG-0.29  OA
ENDBRANCH 71 84
ENDBRANCH 68 71
ENDBRANCH 62 67
ENDBRANCH 47 60
ENDBRANCH 3 47
TORSDOF 31
ENDMDL
MODEL 11
USER: ADFR SOLUTION from run 48
USER: SCORE 21.845800 LL:  -3.542 LR: -20.265 RR:   0.000 FEB: -11.017
USER: RMSD 2.880184
USER: SEED 47
USER: STATUS searching
USER: GENES 33
USER: genes 0 Translation |==|  0.46969 0.53469 0.47373
USER: genes 1 Rotation |==|  0.50683 0.62815 0.52699 0.98249
USER: genes 2 Torsion [N]-C--CA-[N] |==|  0.39355
USER: genes 3 Torsion [C]-CA--CB-[CG] |==|  0.67650
USER: genes 4 Torsion [CA]-CB--CG-[CD] |==|  0.56080
USER: genes 5 Torsion [CB]-CG--CD-[CE] |==|  0.42648
USER: genes 6 Torsion [CG]-CD--CE-[NZ] |==|  0.38218
USER: genes 7 Torsion [CD]-CE--NZ-[HZ3] |==|  0.18180
USER: genes 8 Torsion [C]-CA--N-[C] |==|  0.77222
USER: genes 9 Torsion [N]-C--CA-[N] |==|  0.02123
USER: genes 10 Torsion [C]-CA--N-[C] |==|  0.75932
USER: genes 11 Torsion [N]-C--CA-[N] |==|  0.06765
USER: genes 12 Torsion [C]-CA--CB-[CG2] |==|  0.31543
USER: genes 13 Torsion [CA]-CB--OG1-[HG1] |==|  0.52299
USER: genes 14 Torsion [C]-CA--N-[C] |==|  0.70225
USER: genes 15 Torsion [N]-C--CA-[N] |==|  0.26951
USER: genes 16 Torsion [C]-CA--CB-[CG] |==|  0.56783
USER: genes 17 Torsion [CA]-CB--CG-[CD] |==|  0.29961
USER: genes 18 Torsion [CB]-CG--CD-[NE] |==|  0.09807
USER: genes 19 Torsion [CG]-CD--NE-[CZ] |==|  0.20857
USER: genes 20 Torsion [C]-N--CA-[CB] |==|  0.39508
USER: genes 21 Torsion [N]-CA--CB-[CG] |==|  0.94113
USER: genes 22 Torsion [CA]-CB--CG-[CD] |==|  0.46990
USER: genes 23 Torsion [CB]-CG--CD-[NE] |==|  0.64770
USER: genes 24 Torsion [CG]-CD--NE-[HE] |==|  0.86251
USER: genes 25 Torsion [N]-CA--C-[N] |==|  0.28698
USER: genes 26 Torsion [N]-CA--C-[N] |==|  0.44101
USER: genes 27 Torsion [C]-N--CA-[C] |==|  0.70873
USER: genes 28 Torsion [N]-CA--CB-[CG] |==|  0.50539
USER: genes 29 Torsion [CA]-CB--CG-[CD] |==|  0.44660
USER: genes 30 Torsion [CB]-CG--CD-[NE] |==|  0.15276
USER: genes 31 Torsion [CG]-CD--NE-[HE] |==|  0.06575
USER: genes 32 Torsion [N]-CA--C-[O] |==|  0.22649
ROOT
ATOM      1  C   LYS B 823       3.436  36.257   7.932  1.00 58.46 LIG 0.24  C 
ATOM      2 O    LYS B 823       4.646  36.355   7.736  1.00 54.34 LIG-0.27  OA
ATOM      3  N   ARG B 824       2.869  35.125   8.344  1.00 54.22 LIG-0.35  N 
ATOM      4 H    ARG B 824       2.028  35.036   8.503  1.00 54.22 LIG 0.16  HD
ENDROOT
BRANCH 1 5
ATOM      5  CA  LYS B 823       2.519  37.458   7.758  1.00 55.50 LIG 0.18  C 
BRANCH 5 6
ATOM      6  CB  LYS B 823       2.107  37.574   6.285  1.00 54.97 LIG 0.04  C 
BRANCH 6 7
ATOM      7  CG  LYS B 823       2.568  38.833   5.550  1.00 56.27 LIG 0.00  C 
BRANCH 7 8
ATOM      8  CD  LYS B 823       1.718  39.111   4.349  1.00 52.63 LIG 0.03  C 
BRANCH 8 9
ATOM      9  CE  LYS B 823       1.687  40.599   3.972  1.00 52.00 LIG 0.23  C 
BRANCH 9 10
ATOM     10  NZ  LYS B 823       1.793  40.829   2.521  1.00 59.54 LIG-0.08  N 
ATOM     11 HZ3  LYS B 823       1.072  40.500   2.114  1.00 59.54 LIG 0.27  HD
ATOM     12 HZ2  LYS B 823       2.520  40.424   2.209  1.00 59.54 LIG 0.27  HD
ATOM     13 HZ1  LYS B 823       1.849  41.704   2.363  1.00 59.54 LIG 0.27  HD
ENDBRANCH 9 10
ENDBRANCH 8 9
ENDBRANCH 7 8
ENDBRANCH 6 7
ENDBRANCH 5 6
BRANCH 5 14
ATOM     14  N   LYS B 823       3.204  38.670   8.200  1.00 58.26 LIG-0.35  N 
ATOM     15 H    LYS B 823       3.558  39.131   7.567  1.00 58.26 LIG 0.16  HD
ATOM     16  C   ARG B 822       3.258  39.007   9.494  1.00 61.99 LIG 0.24  C 
ATOM     17 O    ARG B 822       2.574  38.445  10.357  1.00 62.30 LIG-0.27  OA
BRANCH 16 18
ATOM     18  CA  ARG B 822       4.183  40.148   9.908  1.00 69.11 LIG 0.18  C 
BRANCH 18 19
ATOM     19  N   ARG B 822       4.768  40.844   8.774  1.00 79.36 LIG-0.35  N 
ATOM     20 H    ARG B 822       4.325  41.536   8.520  1.00 79.36 LIG 0.16  HD
ATOM     21  C   THR B 821       5.891  40.435   8.191  1.00 84.58 LIG 0.24  C 
ATOM     22 O    THR B 821       6.639  39.588   8.690  1.00 84.15 LIG-0.27  OA
BRANCH 21 23
ATOM     23  CA  THR B 821       6.234  41.116   6.872  1.00 89.83 LIG 0.20  C 
BRANCH 23 24
ATOM     24  CB  THR B 821       7.757  41.207   6.722  1.00 88.11 LIG 0.15  C 
ATOM     25  CG2 THR B 821       8.251  40.338   5.571  1.00 89.90 LIG 0.04  C 
BRANCH 24 26
ATOM     26 OG1  THR B 821       8.136  42.566   6.467  1.00 82.62 LIG-0.39  OA
ATOM     27 HG1  THR B 821       8.952  42.597   6.274  1.00 82.62 LIG 0.21  HD
ENDBRANCH 24 26
ENDBRANCH 23 24
BRANCH 23 28
ATOM     28  N   THR B 821       5.614  42.431   6.783  1.00 98.89 LIG-0.34  N 
ATOM     29 H    THR B 821       5.976  43.026   7.287  1.00 98.89 LIG 0.16  HD
ATOM     30  C   ALA B 820       4.575  42.671   5.982  1.00104.93 LIG 0.26  C 
ATOM     31 O    ALA B 820       4.014  41.792   5.322  1.00110.84 LIG-0.27  OA
BRANCH 30 32
ATOM     32  CA  ALA B 820       4.093  44.118   5.920  1.00100.65 LIG 0.40  C 
ATOM     33  N   ALA B 820       4.661  44.797   4.762  1.00102.47 LIG 0.61  N 
ATOM     34  CB  ALA B 820       2.572  44.175   5.878  1.00 93.61 LIG 0.06  C 
ENDBRANCH 30 32
ENDBRANCH 23 28
ENDBRANCH 21 23
ENDBRANCH 18 19
BRANCH 18 35
ATOM     35  CB  ARG B 822       3.462  41.145  10.816  1.00 74.55 LIG 0.04  C 
BRANCH 35 36
ATOM     36  CG  ARG B 822       4.121  42.506  10.739  1.00 89.07 LIG 0.02  C 
BRANCH 36 37
ATOM     37  CD  ARG B 822       3.313  43.534   9.993  1.00 95.35 LIG 0.14  C 
BRANCH 37 38
ATOM     38  NE  ARG B 822       1.886  43.325  10.238  1.00111.05 LIG-0.23  N 
ATOM     39  CZ  ARG B 822       1.266  43.646  11.372  1.00116.06 LIG 0.67  C 
ATOM     40  NH1 ARG B 822       1.946  44.202  12.366  1.00115.06 LIG-0.23  N 
ATOM     41  NH2 ARG B 822      -0.038  43.430  11.503  1.00119.10 LIG-0.23  N 
ATOM     42 2HH1 ARG B 822       1.546  44.409  13.098  1.00115.06 LIG 0.17  HD
ATOM     43 1HH1 ARG B 822       2.787  44.356  12.278  1.00115.06 LIG 0.17  HD
ATOM     44 1HH2 ARG B 822      -0.484  43.082  10.855  1.00119.10 LIG 0.17  HD
ATOM     45 2HH2 ARG B 822      -0.437  43.637  12.236  1.00119.10 LIG 0.17  HD
ATOM     46 HE   ARG B 822       1.418  42.972   9.609  1.00111.05 LIG 0.18  HD
ENDBRANCH 37 38
ENDBRANCH 36 37
ENDBRANCH 35 36
ENDBRANCH 18 35
ENDBRANCH 16 18
ENDBRANCH 5 14
ENDBRANCH 1 5
BRANCH 3 47
ATOM     47  CA  ARG B 824       3.661  33.917   8.561  1.00 54.21 LIG 0.18  C 
BRANCH 47 48
ATOM     48  CB  ARG B 824       3.165  33.137   9.779  1.00 52.82 LIG 0.04  C 
BRANCH 48 49
ATOM     49  CG  ARG B 824       2.365  34.005  10.739  1.00 57.86 LIG 0.02  C 
BRANCH 49 50
ATOM     50  CD  ARG B 824       1.660  33.195  11.796  1.00 56.10 LIG 0.14  C 
BRANCH 50 51
ATOM     51  NE  ARG B 824       0.242  33.508  11.840  1.00 65.02 LIG-0.23  N 
ATOM     52  CZ  ARG B 824      -0.724  32.604  11.831  1.00 62.89 LIG 0.67  C 
ATOM     53  NH1 ARG B 824      -0.424  31.313  11.800  1.00 60.33 LIG-0.23  N 
ATOM     54  NH2 ARG B 824      -1.985  32.992  11.878  1.00 55.39 LIG-0.23  N 
ATOM     55 1HH1 ARG B 824       0.399  31.063  11.786  1.00 60.33 LIG 0.17  HD
ATOM     56 2HH1 ARG B 824      -1.052  30.726  11.794  1.00 60.33 LIG 0.17  HD
ATOM     57 2HH2 ARG B 824      -2.615  32.407  11.872  1.00 55.39 LIG 0.17  HD
ATOM     58 1HH2 ARG B 824      -2.177  33.830  11.914  1.00 55.39 LIG 0.17  HD
ATOM     59 HE   ARG B 824       0.015  34.337  11.873  1.00 65.02 LIG 0.18  HD
ENDBRANCH 50 51
ENDBRANCH 49 50
ENDBRANCH 48 49
ENDBRANCH 47 48
BRANCH 47 60
ATOM     60  C   ARG B 824       3.665  33.039   7.317  1.00 52.05 LIG 0.24  C 
ATOM     61  N   PRO B 825       4.747  33.032   6.546  1.00 68.51 LIG-0.34  N 
ATOM     62  CA  PRO B 825       4.758  32.301   5.279  1.00 67.77 LIG 0.18  C 
ATOM     63  CD  PRO B 825       6.108  33.430   6.957  1.00 70.13 LIG 0.13  C 
ATOM     64  CB  PRO B 825       6.085  32.725   4.655  1.00 68.40 LIG 0.04  C 
ATOM     65  CG  PRO B 825       6.984  32.874   5.842  1.00 73.68 LIG 0.02  C 
ATOM     66 O    ARG B 824       2.671  32.339   7.053  1.00 51.39 LIG-0.27  OA
BRANCH 62 67
ATOM     67  C   PRO B 825       4.708  30.800   5.509  1.00 71.49 LIG 0.24  C 
ATOM     68  N   ARG B 826       4.277  30.094   4.471  1.00 70.87 LIG-0.35  N 
ATOM     69 H    ARG B 826       3.946  30.442   3.757  1.00 70.87 LIG 0.16  HD
ATOM     70 O    PRO B 825       5.012  30.292   6.589  1.00 73.63 LIG-0.27  OA
BRANCH 68 71
ATOM     71  CA  ARG B 826       4.331  28.645   4.461  1.00 67.47 LIG 0.16  C 
BRANCH 71 72
ATOM     72  CB  ARG B 826       3.005  28.058   3.982  1.00 70.42 LIG 0.04  C 
BRANCH 72 73
ATOM     73  CG  ARG B 826       3.003  26.546   4.002  1.00 69.62 LIG 0.02  C 
BRANCH 73 74
ATOM     74  CD  ARG B 826       1.622  25.920   3.986  1.00 58.43 LIG 0.14  C 
BRANCH 74 75
ATOM     75  NE  ARG B 826       0.758  26.339   2.882  1.00 52.00 LIG-0.23  N 
ATOM     76 HE   ARG B 826       1.133  26.636   2.167  1.00 52.00 LIG 0.18  HD
ATOM     77  CZ  ARG B 826      -0.567  26.289   2.913  1.00 51.94 LIG 0.67  C 
ATOM     78  NH1 ARG B 826      -1.174  25.904   4.029  1.00 56.61 LIG-0.23  N 
ATOM     79  NH2 ARG B 826      -1.275  26.652   1.856  1.00 47.30 LIG-0.23  N 
ATOM     80 2HH1 ARG B 826      -2.033  25.868   4.061  1.00 56.61 LIG 0.17  HD
ATOM     81 1HH1 ARG B 826      -0.708  25.691   4.720  1.00 56.61 LIG 0.17  HD
ATOM     82 1HH2 ARG B 826      -0.877  26.922   1.143  1.00 47.30 LIG 0.17  HD
ATOM     83 2HH2 ARG B 826      -2.134  26.617   1.881  1.00 47.30 LIG 0.17  HD
ENDBRANCH 74 75
ENDBRANCH 73 74
ENDBRANCH 72 73
ENDBRANCH 71 72
BRANCH 71 84
ATOM     84  C   ARG B 826       5.465  28.166   3.563  1.00 71.98 LIG 0.22  C 
ATOM     85 O    ARG B 826       6.623  28.136   3.976  1.00 86.43 LIG-0.29  OA
ENDBRANCH 71 84
ENDBRANCH 68 71
ENDBRANCH 62 67
ENDBRANCH 47 60
ENDBRANCH 3 47
TORSDOF 31
ENDMDL
MODEL 12
USER: ADFR SOLUTION from run 134
USER: SCORE 21.718310 LL:  -3.332 LR: -20.236 RR:   0.000 FEB: -10.988
USER: RMSD 3.596509
USER: SEED 133
USER: STATUS no improvement in best in 9 clusters for 5 generations
USER: GENES 33
USER: genes 0 Translation |==|  0.48245 0.51758 0.45118
USER: genes 1 Rotation |==|  0.49725 0.63150 0.48576 0.98218
USER: genes 2 Torsion [N]-C--CA-[N] |==|  0.37268
USER: genes 3 Torsion [C]-CA--CB-[CG] |==|  0.47297
USER: genes 4 Torsion [CA]-CB--CG-[CD] |==|  0.40554
USER: genes 5 Torsion [CB]-CG--CD-[CE] |==|  0.52312
USER: genes 6 Torsion [CG]-CD--CE-[NZ] |==|  0.42852
USER: genes 7 Torsion [CD]-CE--NZ-[HZ3] |==|  0.44989
USER: genes 8 Torsion [C]-CA--N-[C] |==|  0.75796
USER: genes 9 Torsion [N]-C--CA-[N] |==|  0.93161
USER: genes 10 Torsion [C]-CA--N-[C] |==|  0.82736
USER: genes 11 Torsion [N]-C--CA-[N] |==|  0.89136
USER: genes 12 Torsion [C]-CA--CB-[CG2] |==|  0.79595
USER: genes 13 Torsion [CA]-CB--OG1-[HG1] |==|  0.76890
USER: genes 14 Torsion [C]-CA--N-[C] |==|  0.80707
USER: genes 15 Torsion [N]-C--CA-[N] |==|  0.41322
USER: genes 16 Torsion [C]-CA--CB-[CG] |==|  0.78340
USER: genes 17 Torsion [CA]-CB--CG-[CD] |==|  0.51438
USER: genes 18 Torsion [CB]-CG--CD-[NE] |==|  0.41508
USER: genes 19 Torsion [CG]-CD--NE-[CZ] |==|  0.28929
USER: genes 20 Torsion [C]-N--CA-[CB] |==|  0.37980
USER: genes 21 Torsion [N]-CA--CB-[CG] |==|  0.95719
USER: genes 22 Torsion [CA]-CB--CG-[CD] |==|  0.32032
USER: genes 23 Torsion [CB]-CG--CD-[NE] |==|  0.17989
USER: genes 24 Torsion [CG]-CD--NE-[HE] |==|  0.00057
USER: genes 25 Torsion [N]-CA--C-[N] |==|  0.29390
USER: genes 26 Torsion [N]-CA--C-[N] |==|  0.47434
USER: genes 27 Torsion [C]-N--CA-[C] |==|  0.77692
USER: genes 28 Torsion [N]-CA--CB-[CG] |==|  0.44971
USER: genes 29 Torsion [CA]-CB--CG-[CD] |==|  0.48763
USER: genes 30 Torsion [CB]-CG--CD-[NE] |==|  0.00522
USER: genes 31 Torsion [CG]-CD--NE-[HE] |==|  0.23152
USER: genes 32 Torsion [N]-CA--C-[O] |==|  0.90062
ROOT
ATOM      1  C   LYS B 823       3.704  35.756   7.441  1.00 58.46 LIG 0.24  C 
ATOM      2 O    LYS B 823       4.912  35.658   7.229  1.00 54.34 LIG-0.27  OA
ATOM      3  N   ARG B 824       2.984  34.758   7.947  1.00 54.22 LIG-0.35  N 
ATOM      4 H    ARG B 824       2.142  34.808   8.119  1.00 54.22 LIG 0.16  HD
ENDROOT
BRANCH 1 5
ATOM      5  CA  LYS B 823       2.971  37.064   7.178  1.00 55.50 LIG 0.18  C 
BRANCH 5 6
ATOM      6  CB  LYS B 823       2.719  37.210   5.672  1.00 54.97 LIG 0.04  C 
BRANCH 6 7
ATOM      7  CG  LYS B 823       1.794  38.350   5.248  1.00 56.27 LIG 0.00  C 
BRANCH 7 8
ATOM      8  CD  LYS B 823       2.208  38.935   3.932  1.00 52.63 LIG 0.03  C 
BRANCH 8 9
ATOM      9  CE  LYS B 823       1.430  40.208   3.573  1.00 52.00 LIG 0.23  C 
BRANCH 9 10
ATOM     10  NZ  LYS B 823       2.171  41.103   2.668  1.00 59.54 LIG-0.08  N 
ATOM     11 HZ3  LYS B 823       1.605  41.675   2.287  1.00 59.54 LIG 0.27  HD
ATOM     12 HZ2  LYS B 823       2.573  40.620   2.039  1.00 59.54 LIG 0.27  HD
ATOM     13 HZ1  LYS B 823       2.782  41.554   3.132  1.00 59.54 LIG 0.27  HD
ENDBRANCH 9 10
ENDBRANCH 8 9
ENDBRANCH 7 8
ENDBRANCH 6 7
ENDBRANCH 5 6
BRANCH 5 14
ATOM     14  N   LYS B 823       3.764  38.183   7.680  1.00 58.26 LIG-0.35  N 
ATOM     15 H    LYS B 823       4.285  38.541   7.098  1.00 58.26 LIG 0.16  HD
ATOM     16  C   ARG B 822       3.663  38.594   8.950  1.00 61.99 LIG 0.24  C 
ATOM     17 O    ARG B 822       2.766  38.202   9.707  1.00 62.30 LIG-0.27  OA
BRANCH 16 18
ATOM     18  CA  ARG B 822       4.682  39.604   9.469  1.00 69.11 LIG 0.18  C 
BRANCH 18 19
ATOM     19  N   ARG B 822       5.937  39.573   8.734  1.00 79.36 LIG-0.35  N 
ATOM     20 H    ARG B 822       6.125  40.308   8.329  1.00 79.36 LIG 0.16  HD
ATOM     21  C   THR B 821       6.713  38.495   8.701  1.00 84.58 LIG 0.24  C 
ATOM     22 O    THR B 821       6.560  37.530   9.457  1.00 84.15 LIG-0.27  OA
BRANCH 21 23
ATOM     23  CA  THR B 821       7.855  38.537   7.692  1.00 89.83 LIG 0.20  C 
BRANCH 23 24
ATOM     24  CB  THR B 821       9.055  39.269   8.305  1.00 88.11 LIG 0.15  C 
ATOM     25  CG2 THR B 821       8.806  40.770   8.380  1.00 89.90 LIG 0.04  C 
BRANCH 24 26
ATOM     26 OG1  THR B 821       9.296  38.775   9.629  1.00 82.62 LIG-0.39  OA
ATOM     27 HG1  THR B 821       8.787  39.168  10.170  1.00 82.62 LIG 0.21  HD
ENDBRANCH 24 26
ENDBRANCH 23 24
BRANCH 23 28
ATOM     28  N   THR B 821       7.432  39.164   6.446  1.00 98.89 LIG-0.34  N 
ATOM     29 H    THR B 821       7.788  39.933   6.301  1.00 98.89 LIG 0.16  HD
ATOM     30  C   ALA B 820       6.568  38.578   5.617  1.00104.93 LIG 0.26  C 
ATOM     31 O    ALA B 820       6.004  37.510   5.874  1.00110.84 LIG-0.27  OA
BRANCH 30 32
ATOM     32  CA  ALA B 820       6.293  39.308   4.305  1.00100.65 LIG 0.40  C 
ATOM     33  N   ALA B 820       5.994  38.354   3.244  1.00102.47 LIG 0.61  N 
ATOM     34  CB  ALA B 820       5.148  40.297   4.471  1.00 93.61 LIG 0.06  C 
ENDBRANCH 30 32
ENDBRANCH 23 28
ENDBRANCH 21 23
ENDBRANCH 18 19
BRANCH 18 35
ATOM     35  CB  ARG B 822       4.110  41.022   9.462  1.00 74.55 LIG 0.04  C 
BRANCH 35 36
ATOM     36  CG  ARG B 822       4.130  41.596   8.061  1.00 89.07 LIG 0.02  C 
BRANCH 36 37
ATOM     37  CD  ARG B 822       3.697  43.037   7.985  1.00 95.35 LIG 0.14  C 
BRANCH 37 38
ATOM     38  NE  ARG B 822       4.383  43.708   6.882  1.00111.05 LIG-0.23  N 
ATOM     39  CZ  ARG B 822       3.813  44.008   5.716  1.00116.06 LIG 0.67  C 
ATOM     40  NH1 ARG B 822       2.539  43.704   5.503  1.00115.06 LIG-0.23  N 
ATOM     41  NH2 ARG B 822       4.511  44.630   4.772  1.00119.10 LIG-0.23  N 
ATOM     42 2HH1 ARG B 822       2.171  43.897   4.750  1.00115.06 LIG 0.17  HD
ATOM     43 1HH1 ARG B 822       2.081  43.314   6.118  1.00115.06 LIG 0.17  HD
ATOM     44 1HH2 ARG B 822       5.333  44.841   4.914  1.00119.10 LIG 0.17  HD
ATOM     45 2HH2 ARG B 822       4.141  44.823   4.020  1.00119.10 LIG 0.17  HD
ATOM     46 HE   ARG B 822       5.208  43.923   6.993  1.00111.05 LIG 0.18  HD
ENDBRANCH 37 38
ENDBRANCH 36 37
ENDBRANCH 35 36
ENDBRANCH 18 35
ENDBRANCH 16 18
ENDBRANCH 5 14
ENDBRANCH 1 5
BRANCH 3 47
ATOM     47  CA  ARG B 824       3.592  33.466   8.255  1.00 54.21 LIG 0.18  C 
BRANCH 47 48
ATOM     48  CB  ARG B 824       3.110  32.930   9.604  1.00 52.82 LIG 0.04  C 
BRANCH 48 49
ATOM     49  CG  ARG B 824       2.437  34.002  10.448  1.00 57.86 LIG 0.02  C 
BRANCH 49 50
ATOM     50  CD  ARG B 824       0.977  33.715  10.686  1.00 56.10 LIG 0.14  C 
BRANCH 50 51
ATOM     51  NE  ARG B 824       0.799  32.509  11.476  1.00 65.02 LIG-0.23  N 
ATOM     52  CZ  ARG B 824      -0.374  32.015  11.834  1.00 62.89 LIG 0.67  C 
ATOM     53  NH1 ARG B 824      -1.492  32.617  11.452  1.00 60.33 LIG-0.23  N 
ATOM     54  NH2 ARG B 824      -0.428  30.907  12.551  1.00 55.39 LIG-0.23  N 
ATOM     55 1HH1 ARG B 824      -1.453  33.329  10.971  1.00 60.33 LIG 0.17  HD
ATOM     56 2HH1 ARG B 824      -2.254  32.295  11.685  1.00 60.33 LIG 0.17  HD
ATOM     57 2HH2 ARG B 824      -1.190  30.583  12.785  1.00 55.39 LIG 0.17  HD
ATOM     58 1HH2 ARG B 824       0.299  30.510  12.784  1.00 55.39 LIG 0.17  HD
ATOM     59 HE   ARG B 824       1.506  32.088  11.729  1.00 65.02 LIG 0.18  HD
ENDBRANCH 50 51
ENDBRANCH 49 50
ENDBRANCH 48 49
ENDBRANCH 47 48
BRANCH 47 60
ATOM     60  C   ARG B 824       3.326  32.460   7.143  1.00 52.05 LIG 0.24  C 
ATOM     61  N   PRO B 825       4.319  32.141   6.322  1.00 68.51 LIG-0.34  N 
ATOM     62  CA  PRO B 825       4.086  31.274   5.167  1.00 67.77 LIG 0.18  C 
ATOM     63  CD  PRO B 825       5.761  32.302   6.600  1.00 70.13 LIG 0.13  C 
ATOM     64  CB  PRO B 825       5.416  31.342   4.419  1.00 68.40 LIG 0.04  C 
ATOM     65  CG  PRO B 825       6.420  31.449   5.524  1.00 73.68 LIG 0.02  C 
ATOM     66 O    ARG B 824       2.197  31.950   7.032  1.00 51.39 LIG-0.27  OA
BRANCH 62 67
ATOM     67  C   PRO B 825       3.766  29.854   5.600  1.00 71.49 LIG 0.24  C 
ATOM     68  N   ARG B 826       3.354  29.056   4.623  1.00 70.87 LIG-0.35  N 
ATOM     69 H    ARG B 826       3.173  29.325   3.826  1.00 70.87 LIG 0.16  HD
ATOM     70 O    PRO B 825       3.850  29.492   6.774  1.00 73.63 LIG-0.27  OA
BRANCH 68 71
ATOM     71  CA  ARG B 826       3.173  27.632   4.830  1.00 67.47 LIG 0.16  C 
BRANCH 71 72
ATOM     72  CB  ARG B 826       2.215  27.053   3.791  1.00 70.42 LIG 0.04  C 
BRANCH 72 73
ATOM     73  CG  ARG B 826       2.326  25.549   3.678  1.00 69.62 LIG 0.02  C 
BRANCH 73 74
ATOM     74  CD  ARG B 826       1.321  24.914   2.736  1.00 58.43 LIG 0.14  C 
BRANCH 74 75
ATOM     75  NE  ARG B 826       0.429  25.850   2.050  1.00 52.00 LIG-0.23  N 
ATOM     76 HE   ARG B 826       0.719  26.231   1.335  1.00 52.00 LIG 0.18  HD
ATOM     77  CZ  ARG B 826      -0.796  26.148   2.459  1.00 51.94 LIG 0.67  C 
ATOM     78  NH1 ARG B 826      -1.241  25.631   3.598  1.00 56.61 LIG-0.23  N 
ATOM     79  NH2 ARG B 826      -1.553  26.977   1.758  1.00 47.30 LIG-0.23  N 
ATOM     80 2HH1 ARG B 826      -2.035  25.817   3.874  1.00 56.61 LIG 0.17  HD
ATOM     81 1HH1 ARG B 826      -0.736  25.111   4.060  1.00 56.61 LIG 0.17  HD
ATOM     82 1HH2 ARG B 826      -1.251  27.326   1.033  1.00 47.30 LIG 0.17  HD
ATOM     83 2HH2 ARG B 826      -2.347  27.166   2.028  1.00 47.30 LIG 0.17  HD
ENDBRANCH 74 75
ENDBRANCH 73 74
ENDBRANCH 72 73
ENDBRANCH 71 72
BRANCH 71 84
ATOM     84  C   ARG B 826       4.514  26.914   4.754  1.00 71.98 LIG 0.22  C 
ATOM     85 O    ARG B 826       5.383  27.288   3.969  1.00 86.43 LIG-0.29  OA
ENDBRANCH 71 84
ENDBRANCH 68 71
ENDBRANCH 62 67
ENDBRANCH 47 60
ENDBRANCH 3 47
TORSDOF 31
ENDMDL
MODEL 13
USER: ADFR SOLUTION from run 26
USER: SCORE 23.531528 LL:  -4.485 LR: -20.185 RR:   0.000 FEB: -10.938
USER: RMSD 3.093268
USER: SEED 25
USER: STATUS searching
USER: GENES 33
USER: genes 0 Translation |==|  0.46760 0.52059 0.44687
USER: genes 1 Rotation |==|  0.49652 0.72256 0.49545 0.94770
USER: genes 2 Torsion [N]-C--CA-[N] |==|  0.24719
USER: genes 3 Torsion [C]-CA--CB-[CG] |==|  0.45726
USER: genes 4 Torsion [CA]-CB--CG-[CD] |==|  0.56960
USER: genes 5 Torsion [CB]-CG--CD-[CE] |==|  0.66613
USER: genes 6 Torsion [CG]-CD--CE-[NZ] |==|  0.47464
USER: genes 7 Torsion [CD]-CE--NZ-[HZ3] |==|  0.46427
USER: genes 8 Torsion [C]-CA--N-[C] |==|  0.75705
USER: genes 9 Torsion [N]-C--CA-[N] |==|  0.93448
USER: genes 10 Torsion [C]-CA--N-[C] |==|  0.82778
USER: genes 11 Torsion [N]-C--CA-[N] |==|  0.35854
USER: genes 12 Torsion [C]-CA--CB-[CG2] |==|  0.78056
USER: genes 13 Torsion [CA]-CB--OG1-[HG1] |==|  0.63608
USER: genes 14 Torsion [C]-CA--N-[C] |==|  0.80061
USER: genes 15 Torsion [N]-C--CA-[N] |==|  0.31192
USER: genes 16 Torsion [C]-CA--CB-[CG] |==|  0.76261
USER: genes 17 Torsion [CA]-CB--CG-[CD] |==|  0.55029
USER: genes 18 Torsion [CB]-CG--CD-[NE] |==|  0.74124
USER: genes 19 Torsion [CG]-CD--NE-[CZ] |==|  0.37528
USER: genes 20 Torsion [C]-N--CA-[CB] |==|  0.50024
USER: genes 21 Torsion [N]-CA--CB-[CG] |==|  0.77614
USER: genes 22 Torsion [CA]-CB--CG-[CD] |==|  0.25599
USER: genes 23 Torsion [CB]-CG--CD-[NE] |==|  0.20860
USER: genes 24 Torsion [CG]-CD--NE-[HE] |==|  0.17560
USER: genes 25 Torsion [N]-CA--C-[N] |==|  0.32783
USER: genes 26 Torsion [N]-CA--C-[N] |==|  0.42567
USER: genes 27 Torsion [C]-N--CA-[C] |==|  0.57086
USER: genes 28 Torsion [N]-CA--CB-[CG] |==|  0.63809
USER: genes 29 Torsion [CA]-CB--CG-[CD] |==|  0.65613
USER: genes 30 Torsion [CB]-CG--CD-[NE] |==|  0.64852
USER: genes 31 Torsion [CG]-CD--NE-[HE] |==|  0.84690
USER: genes 32 Torsion [N]-CA--C-[O] |==|  0.05886
ROOT
ATOM      1  C   LYS B 823       3.391  35.844   7.347  1.00 58.46 LIG 0.24  C 
ATOM      2 O    LYS B 823       4.430  35.790   6.690  1.00 54.34 LIG-0.27  OA
ATOM      3  N   ARG B 824       2.947  34.816   8.066  1.00 54.22 LIG-0.35  N 
ATOM      4 H    ARG B 824       2.233  34.835   8.546  1.00 54.22 LIG 0.16  HD
ENDROOT
BRANCH 1 5
ATOM      5  CA  LYS B 823       2.578  37.128   7.412  1.00 55.50 LIG 0.18  C 
BRANCH 5 6
ATOM      6  CB  LYS B 823       2.705  37.878   6.080  1.00 54.97 LIG 0.04  C 
BRANCH 6 7
ATOM      7  CG  LYS B 823       1.683  38.986   5.826  1.00 56.27 LIG 0.00  C 
BRANCH 7 8
ATOM      8  CD  LYS B 823       1.488  39.230   4.361  1.00 52.63 LIG 0.03  C 
BRANCH 8 9
ATOM      9  CE  LYS B 823       1.832  40.666   3.944  1.00 52.00 LIG 0.23  C 
BRANCH 9 10
ATOM     10  NZ  LYS B 823       1.849  40.855   2.483  1.00 59.54 LIG-0.08  N 
ATOM     11 HZ3  LYS B 823       1.867  41.726   2.297  1.00 59.54 LIG 0.27  HD
ATOM     12 HZ2  LYS B 823       1.119  40.491   2.129  1.00 59.54 LIG 0.27  HD
ATOM     13 HZ1  LYS B 823       2.572  40.464   2.142  1.00 59.54 LIG 0.27  HD
ENDBRANCH 9 10
ENDBRANCH 8 9
ENDBRANCH 7 8
ENDBRANCH 6 7
ENDBRANCH 5 6
BRANCH 5 14
ATOM     14  N   LYS B 823       3.050  37.957   8.518  1.00 58.26 LIG-0.35  N 
ATOM     15 H    LYS B 823       3.653  38.531   8.303  1.00 58.26 LIG 0.16  HD
ATOM     16  C   ARG B 822       2.564  37.809   9.757  1.00 61.99 LIG 0.24  C 
ATOM     17 O    ARG B 822       1.563  37.126  10.001  1.00 62.30 LIG-0.27  OA
BRANCH 16 18
ATOM     18  CA  ARG B 822       3.264  38.535  10.902  1.00 69.11 LIG 0.18  C 
BRANCH 18 19
ATOM     19  N   ARG B 822       4.653  38.851  10.609  1.00 79.36 LIG-0.35  N 
ATOM     20 H    ARG B 822       4.828  39.693  10.602  1.00 79.36 LIG 0.16  HD
ATOM     21  C   THR B 821       5.561  37.910  10.374  1.00 84.58 LIG 0.24  C 
ATOM     22 O    THR B 821       5.365  36.712  10.604  1.00 84.15 LIG-0.27  OA
BRANCH 21 23
ATOM     23  CA  THR B 821       6.899  38.404   9.839  1.00 89.83 LIG 0.20  C 
BRANCH 23 24
ATOM     24  CB  THR B 821       7.030  38.033   8.357  1.00 88.11 LIG 0.15  C 
ATOM     25  CG2 THR B 821       7.422  36.570   8.188  1.00 89.90 LIG 0.04  C 
BRANCH 24 26
ATOM     26 OG1  THR B 821       5.778  38.253   7.694  1.00 82.62 LIG-0.39  OA
ATOM     27 HG1  THR B 821       5.577  37.574   7.243  1.00 82.62 LIG 0.21  HD
ENDBRANCH 24 26
ENDBRANCH 23 24
BRANCH 23 28
ATOM     28  N   THR B 821       8.007  37.866  10.619  1.00 98.89 LIG-0.34  N 
ATOM     29 H    THR B 821       8.469  37.268  10.209  1.00 98.89 LIG 0.16  HD
ATOM     30  C   ALA B 820       8.265  38.280  11.860  1.00104.93 LIG 0.26  C 
ATOM     31 O    ALA B 820       7.549  39.081  12.467  1.00110.84 LIG-0.27  OA
BRANCH 30 32
ATOM     32  CA  ALA B 820       9.514  37.698  12.517  1.00100.65 LIG 0.40  C 
ATOM     33  N   ALA B 820      10.522  38.735  12.704  1.00102.47 LIG 0.61  N 
ATOM     34  CB  ALA B 820       9.166  37.048  13.849  1.00 93.61 LIG 0.06  C 
ENDBRANCH 30 32
ENDBRANCH 23 28
ENDBRANCH 21 23
ENDBRANCH 18 19
BRANCH 18 35
ATOM     35  CB  ARG B 822       2.512  39.808  11.292  1.00 74.55 LIG 0.04  C 
BRANCH 35 36
ATOM     36  CG  ARG B 822       2.937  40.967  10.415  1.00 89.07 LIG 0.02  C 
BRANCH 36 37
ATOM     37  CD  ARG B 822       2.593  42.319  10.981  1.00 95.35 LIG 0.14  C 
BRANCH 37 38
ATOM     38  NE  ARG B 822       1.298  42.762  10.469  1.00111.05 LIG-0.23  N 
ATOM     39  CZ  ARG B 822       0.342  43.308  11.218  1.00116.06 LIG 0.67  C 
ATOM     40  NH1 ARG B 822       0.540  43.488  12.518  1.00115.06 LIG-0.23  N 
ATOM     41  NH2 ARG B 822      -0.803  43.692  10.664  1.00119.10 LIG-0.23  N 
ATOM     42 2HH1 ARG B 822      -0.078  43.839  13.002  1.00115.06 LIG 0.17  HD
ATOM     43 1HH1 ARG B 822       1.285  43.253  12.876  1.00115.06 LIG 0.17  HD
ATOM     44 1HH2 ARG B 822      -0.928  43.590   9.819  1.00119.10 LIG 0.17  HD
ATOM     45 2HH2 ARG B 822      -1.419  44.044  11.150  1.00119.10 LIG 0.17  HD
ATOM     46 HE   ARG B 822       1.143  42.664   9.628  1.00111.05 LIG 0.18  HD
ENDBRANCH 37 38
ENDBRANCH 36 37
ENDBRANCH 35 36
ENDBRANCH 18 35
ENDBRANCH 16 18
ENDBRANCH 5 14
ENDBRANCH 1 5
BRANCH 3 47
ATOM     47  CA  ARG B 824       3.663  33.543   8.090  1.00 54.21 LIG 0.18  C 
BRANCH 47 48
ATOM     48  CB  ARG B 824       2.957  32.523   8.982  1.00 52.82 LIG 0.04  C 
BRANCH 48 49
ATOM     49  CG  ARG B 824       3.267  32.727  10.458  1.00 57.86 LIG 0.02  C 
BRANCH 49 50
ATOM     50  CD  ARG B 824       2.261  33.618  11.140  1.00 56.10 LIG 0.14  C 
BRANCH 50 51
ATOM     51  NE  ARG B 824       1.010  32.916  11.375  1.00 65.02 LIG-0.23  N 
ATOM     52  CZ  ARG B 824      -0.149  33.252  10.836  1.00 62.89 LIG 0.67  C 
ATOM     53  NH1 ARG B 824      -0.220  34.281  10.003  1.00 60.33 LIG-0.23  N 
ATOM     54  NH2 ARG B 824      -1.230  32.544  11.111  1.00 55.39 LIG-0.23  N 
ATOM     55 1HH1 ARG B 824       0.489  34.730   9.813  1.00 60.33 LIG 0.17  HD
ATOM     56 2HH1 ARG B 824      -0.974  34.499   9.653  1.00 60.33 LIG 0.17  HD
ATOM     57 2HH2 ARG B 824      -1.986  32.760  10.761  1.00 55.39 LIG 0.17  HD
ATOM     58 1HH2 ARG B 824      -1.178  31.867  11.639  1.00 55.39 LIG 0.17  HD
ATOM     59 HE   ARG B 824       1.026  32.235  11.901  1.00 65.02 LIG 0.18  HD
ENDBRANCH 50 51
ENDBRANCH 49 50
ENDBRANCH 48 49
ENDBRANCH 47 48
BRANCH 47 60
ATOM     60  C   ARG B 824       3.850  32.998   6.680  1.00 52.05 LIG 0.24  C 
ATOM     61  N   PRO B 825       5.084  32.836   6.218  1.00 68.51 LIG-0.34  N 
ATOM     62  CA  PRO B 825       5.316  32.430   4.832  1.00 67.77 LIG 0.18  C 
ATOM     63  CD  PRO B 825       6.307  32.710   7.035  1.00 70.13 LIG 0.13  C 
ATOM     64  CB  PRO B 825       6.831  32.564   4.689  1.00 68.40 LIG 0.04  C 
ATOM     65  CG  PRO B 825       7.333  32.175   6.045  1.00 73.68 LIG 0.02  C 
ATOM     66 O    ARG B 824       2.853  32.702   5.998  1.00 51.39 LIG-0.27  OA
BRANCH 62 67
ATOM     67  C   PRO B 825       4.862  31.001   4.594  1.00 71.49 LIG 0.24  C 
ATOM     68  N   ARG B 826       4.511  30.733   3.342  1.00 70.87 LIG-0.35  N 
ATOM     69 H    ARG B 826       4.436  31.328   2.725  1.00 70.87 LIG 0.16  HD
ATOM     70 O    PRO B 825       4.793  30.175   5.503  1.00 73.63 LIG-0.27  OA
BRANCH 68 71
ATOM     71  CA  ARG B 826       4.219  29.380   2.907  1.00 67.47 LIG 0.16  C 
BRANCH 71 72
ATOM     72  CB  ARG B 826       2.773  29.009   3.234  1.00 70.42 LIG 0.04  C 
BRANCH 72 73
ATOM     73  CG  ARG B 826       2.667  27.678   3.945  1.00 69.62 LIG 0.02  C 
BRANCH 73 74
ATOM     74  CD  ARG B 826       1.767  26.669   3.257  1.00 58.43 LIG 0.14  C 
BRANCH 74 75
ATOM     75  NE  ARG B 826       0.716  26.093   4.098  1.00 52.00 LIG-0.23  N 
ATOM     76 HE   ARG B 826       0.951  25.715   4.833  1.00 52.00 LIG 0.18  HD
ATOM     77  CZ  ARG B 826      -0.575  26.118   3.797  1.00 51.94 LIG 0.67  C 
ATOM     78  NH1 ARG B 826      -0.959  26.630   2.634  1.00 56.61 LIG-0.23  N 
ATOM     79  NH2 ARG B 826      -1.466  25.607   4.631  1.00 47.30 LIG-0.23  N 
ATOM     80 2HH1 ARG B 826      -1.794  26.652   2.428  1.00 56.61 LIG 0.17  HD
ATOM     81 1HH1 ARG B 826      -0.372  26.940   2.086  1.00 56.61 LIG 0.17  HD
ATOM     82 1HH2 ARG B 826      -1.209  25.257   5.373  1.00 47.30 LIG 0.17  HD
ATOM     83 2HH2 ARG B 826      -2.302  25.627   4.432  1.00 47.30 LIG 0.17  HD
ENDBRANCH 74 75
ENDBRANCH 73 74
ENDBRANCH 72 73
ENDBRANCH 71 72
BRANCH 71 84
ATOM     84  C   ARG B 826       4.463  29.243   1.410  1.00 71.98 LIG 0.22  C 
ATOM     85 O    ARG B 826       5.196  30.034   0.819  1.00 86.43 LIG-0.29  OA
ENDBRANCH 71 84
ENDBRANCH 68 71
ENDBRANCH 62 67
ENDBRANCH 47 60
ENDBRANCH 3 47
TORSDOF 31
ENDMDL
MODEL 14
USER: ADFR SOLUTION from run 49
USER: SCORE 22.776935 LL:  -4.861 LR: -20.056 RR:   0.000 FEB: -10.809
USER: RMSD 3.626840
USER: SEED 48
USER: STATUS no improvement in best in 11 clusters for 5 generations
USER: GENES 33
USER: genes 0 Translation |==|  0.48365 0.54215 0.43978
USER: genes 1 Rotation |==|  0.47237 0.55943 0.53183 0.99466
USER: genes 2 Torsion [N]-C--CA-[N] |==|  0.35687
USER: genes 3 Torsion [C]-CA--CB-[CG] |==|  0.57375
USER: genes 4 Torsion [CA]-CB--CG-[CD] |==|  0.78808
USER: genes 5 Torsion [CB]-CG--CD-[CE] |==|  0.55522
USER: genes 6 Torsion [CG]-CD--CE-[NZ] |==|  0.98886
USER: genes 7 Torsion [CD]-CE--NZ-[HZ3] |==|  0.47407
USER: genes 8 Torsion [C]-CA--N-[C] |==|  0.84860
USER: genes 9 Torsion [N]-C--CA-[N] |==|  0.11000
USER: genes 10 Torsion [C]-CA--N-[C] |==|  0.67492
USER: genes 11 Torsion [N]-C--CA-[N] |==|  0.37871
USER: genes 12 Torsion [C]-CA--CB-[CG2] |==|  0.95494
USER: genes 13 Torsion [CA]-CB--OG1-[HG1] |==|  0.33281
USER: genes 14 Torsion [C]-CA--N-[C] |==|  0.77723
USER: genes 15 Torsion [N]-C--CA-[N] |==|  0.05516
USER: genes 16 Torsion [C]-CA--CB-[CG] |==|  0.54689
USER: genes 17 Torsion [CA]-CB--CG-[CD] |==|  0.32122
USER: genes 18 Torsion [CB]-CG--CD-[NE] |==|  0.73710
USER: genes 19 Torsion [CG]-CD--NE-[CZ] |==|  0.48765
USER: genes 20 Torsion [C]-N--CA-[CB] |==|  0.34871
USER: genes 21 Torsion [N]-CA--CB-[CG] |==|  0.06324
USER: genes 22 Torsion [CA]-CB--CG-[CD] |==|  0.51772
USER: genes 23 Torsion [CB]-CG--CD-[NE] |==|  0.80388
USER: genes 24 Torsion [CG]-CD--NE-[HE] |==|  0.20725
USER: genes 25 Torsion [N]-CA--C-[N] |==|  0.23891
USER: genes 26 Torsion [N]-CA--C-[N] |==|  0.49533
USER: genes 27 Torsion [C]-N--CA-[C] |==|  0.71900
USER: genes 28 Torsion [N]-CA--CB-[CG] |==|  0.97524
USER: genes 29 Torsion [CA]-CB--CG-[CD] |==|  0.27637
USER: genes 30 Torsion [CB]-CG--CD-[NE] |==|  0.85120
USER: genes 31 Torsion [CG]-CD--NE-[HE] |==|  0.17104
USER: genes 32 Torsion [N]-CA--C-[O] |==|  0.89429
ROOT
ATOM      1  C   LYS B 823       3.729  36.475   7.193  1.00 58.46 LIG 0.24  C 
ATOM      2 O    LYS B 823       4.941  36.629   7.333  1.00 54.34 LIG-0.27  OA
ATOM      3  N   ARG B 824       3.103  35.360   7.562  1.00 54.22 LIG-0.35  N 
ATOM      4 H    ARG B 824       2.255  35.235   7.490  1.00 54.22 LIG 0.16  HD
ENDROOT
BRANCH 1 5
ATOM      5  CA  LYS B 823       2.862  37.591   6.628  1.00 55.50 LIG 0.18  C 
BRANCH 5 6
ATOM      6  CB  LYS B 823       3.138  37.737   5.127  1.00 54.97 LIG 0.04  C 
BRANCH 6 7
ATOM      7  CG  LYS B 823       2.887  39.118   4.523  1.00 56.27 LIG 0.00  C 
BRANCH 7 8
ATOM      8  CD  LYS B 823       1.424  39.378   4.332  1.00 52.63 LIG 0.03  C 
BRANCH 8 9
ATOM      9  CE  LYS B 823       1.143  40.494   3.316  1.00 52.00 LIG 0.23  C 
BRANCH 9 10
ATOM     10  NZ  LYS B 823       2.368  41.139   2.813  1.00 59.54 LIG-0.08  N 
ATOM     11 HZ3  LYS B 823       2.162  41.678   2.135  1.00 59.54 LIG 0.27  HD
ATOM     12 HZ2  LYS B 823       2.938  40.516   2.533  1.00 59.54 LIG 0.27  HD
ATOM     13 HZ1  LYS B 823       2.743  41.613   3.466  1.00 59.54 LIG 0.27  HD
ENDBRANCH 9 10
ENDBRANCH 8 9
ENDBRANCH 7 8
ENDBRANCH 6 7
ENDBRANCH 5 6
BRANCH 5 14
ATOM     14  N   LYS B 823       3.147  38.840   7.330  1.00 58.26 LIG-0.35  N 
ATOM     15 H    LYS B 823       3.364  39.496   6.818  1.00 58.26 LIG 0.16  HD
ATOM     16  C   ARG B 822       3.069  38.924   8.663  1.00 61.99 LIG 0.24  C 
ATOM     17 O    ARG B 822       2.562  38.035   9.357  1.00 62.30 LIG-0.27  OA
BRANCH 16 18
ATOM     18  CA  ARG B 822       3.605  40.180   9.344  1.00 69.11 LIG 0.18  C 
BRANCH 18 19
ATOM     19  N   ARG B 822       3.300  41.398   8.609  1.00 79.36 LIG-0.35  N 
ATOM     20 H    ARG B 822       2.459  41.563   8.537  1.00 79.36 LIG 0.16  HD
ATOM     21  C   THR B 821       4.249  42.176   8.100  1.00 84.58 LIG 0.24  C 
ATOM     22 O    THR B 821       5.443  42.064   8.394  1.00 84.15 LIG-0.27  OA
BRANCH 21 23
ATOM     23  CA  THR B 821       3.767  43.267   7.151  1.00 89.83 LIG 0.20  C 
BRANCH 23 24
ATOM     24  CB  THR B 821       3.990  42.822   5.701  1.00 88.11 LIG 0.15  C 
ATOM     25  CG2 THR B 821       4.959  41.649   5.626  1.00 89.90 LIG 0.04  C 
BRANCH 24 26
ATOM     26 OG1  THR B 821       2.740  42.424   5.122  1.00 82.62 LIG-0.39  OA
ATOM     27 HG1  THR B 821       2.573  42.908   4.456  1.00 82.62 LIG 0.21  HD
ENDBRANCH 24 26
ENDBRANCH 23 24
BRANCH 23 28
ATOM     28  N   THR B 821       4.435  44.533   7.425  1.00 98.89 LIG-0.34  N 
ATOM     29 H    THR B 821       5.088  44.710   6.892  1.00 98.89 LIG 0.16  HD
ATOM     30  C   ALA B 820       4.053  45.335   8.419  1.00104.93 LIG 0.26  C 
ATOM     31 O    ALA B 820       3.168  45.035   9.225  1.00110.84 LIG-0.27  OA
BRANCH 30 32
ATOM     32  CA  ALA B 820       4.782  46.671   8.525  1.00100.65 LIG 0.40  C 
ATOM     33  N   ALA B 820       5.422  47.005   7.258  1.00102.47 LIG 0.61  N 
ATOM     34  CB  ALA B 820       3.821  47.775   8.944  1.00 93.61 LIG 0.06  C 
ENDBRANCH 30 32
ENDBRANCH 23 28
ENDBRANCH 21 23
ENDBRANCH 18 19
BRANCH 18 35
ATOM     35  CB  ARG B 822       3.090  40.296  10.779  1.00 74.55 LIG 0.04  C 
BRANCH 35 36
ATOM     36  CG  ARG B 822       3.274  41.707  11.297  1.00 89.07 LIG 0.02  C 
BRANCH 36 37
ATOM     37  CD  ARG B 822       1.983  42.420  11.599  1.00 95.35 LIG 0.14  C 
BRANCH 37 38
ATOM     38  NE  ARG B 822       1.573  43.223  10.448  1.00111.05 LIG-0.23  N 
ATOM     39  CZ  ARG B 822       0.429  43.902  10.377  1.00116.06 LIG 0.67  C 
ATOM     40  NH1 ARG B 822      -0.418  43.883  11.398  1.00115.06 LIG-0.23  N 
ATOM     41  NH2 ARG B 822       0.144  44.616   9.294  1.00119.10 LIG-0.23  N 
ATOM     42 2HH1 ARG B 822      -1.156  44.321  11.352  1.00115.06 LIG 0.17  HD
ATOM     43 1HH1 ARG B 822      -0.229  43.433  12.106  1.00115.06 LIG 0.17  HD
ATOM     44 1HH2 ARG B 822       0.698  44.641   8.637  1.00119.10 LIG 0.17  HD
ATOM     45 2HH2 ARG B 822      -0.595  45.053   9.249  1.00119.10 LIG 0.17  HD
ATOM     46 HE   ARG B 822       2.105  43.259   9.774  1.00111.05 LIG 0.18  HD
ENDBRANCH 37 38
ENDBRANCH 36 37
ENDBRANCH 35 36
ENDBRANCH 18 35
ENDBRANCH 16 18
ENDBRANCH 5 14
ENDBRANCH 1 5
BRANCH 3 47
ATOM     47  CA  ARG B 824       3.837  34.234   8.135  1.00 54.21 LIG 0.18  C 
BRANCH 47 48
ATOM     48  CB  ARG B 824       3.256  33.818   9.486  1.00 52.82 LIG 0.04  C 
BRANCH 48 49
ATOM     49  CG  ARG B 824       1.806  34.249   9.652  1.00 57.86 LIG 0.02  C 
BRANCH 49 50
ATOM     50  CD  ARG B 824       1.279  33.977  11.038  1.00 56.10 LIG 0.14  C 
BRANCH 50 51
ATOM     51  NE  ARG B 824       1.108  32.552  11.265  1.00 65.02 LIG-0.23  N 
ATOM     52  CZ  ARG B 824      -0.061  31.934  11.288  1.00 62.89 LIG 0.67  C 
ATOM     53  NH1 ARG B 824      -1.177  32.617  11.075  1.00 60.33 LIG-0.23  N 
ATOM     54  NH2 ARG B 824      -0.110  30.631  11.499  1.00 55.39 LIG-0.23  N 
ATOM     55 1HH1 ARG B 824      -1.141  33.463  10.921  1.00 60.33 LIG 0.17  HD
ATOM     56 2HH1 ARG B 824      -1.937  32.214  11.090  1.00 60.33 LIG 0.17  HD
ATOM     57 2HH2 ARG B 824      -0.869  30.226  11.514  1.00 55.39 LIG 0.17  HD
ATOM     58 1HH2 ARG B 824       0.617  30.188  11.621  1.00 55.39 LIG 0.17  HD
ATOM     59 HE   ARG B 824       1.814  32.079  11.394  1.00 65.02 LIG 0.18  HD
ENDBRANCH 50 51
ENDBRANCH 49 50
ENDBRANCH 48 49
ENDBRANCH 47 48
BRANCH 47 60
ATOM     60  C   ARG B 824       3.866  33.057   7.169  1.00 52.05 LIG 0.24  C 
ATOM     61  N   PRO B 825       4.820  33.013   6.247  1.00 68.51 LIG-0.34  N 
ATOM     62  CA  PRO B 825       4.822  31.970   5.221  1.00 67.77 LIG 0.18  C 
ATOM     63  CD  PRO B 825       6.110  33.730   6.297  1.00 70.13 LIG 0.13  C 
ATOM     64  CB  PRO B 825       5.944  32.417   4.286  1.00 68.40 LIG 0.04  C 
ATOM     65  CG  PRO B 825       6.935  33.038   5.220  1.00 73.68 LIG 0.02  C 
ATOM     66 O    ARG B 824       3.013  32.157   7.269  1.00 51.39 LIG-0.27  OA
BRANCH 62 67
ATOM     67  C   PRO B 825       5.113  30.607   5.824  1.00 71.49 LIG 0.24  C 
ATOM     68  N   ARG B 826       5.097  29.602   4.956  1.00 70.87 LIG-0.35  N 
ATOM     69 H    ARG B 826       4.840  29.677   4.139  1.00 70.87 LIG 0.16  HD
ATOM     70 O    PRO B 825       5.311  30.452   7.029  1.00 73.63 LIG-0.27  OA
BRANCH 68 71
ATOM     71  CA  ARG B 826       5.521  28.267   5.331  1.00 67.47 LIG 0.16  C 
BRANCH 71 72
ATOM     72  CB  ARG B 826       4.564  27.218   4.768  1.00 70.42 LIG 0.04  C 
BRANCH 72 73
ATOM     73  CG  ARG B 826       3.324  27.836   4.161  1.00 69.62 LIG 0.02  C 
BRANCH 73 74
ATOM     74  CD  ARG B 826       3.359  27.960   2.650  1.00 58.43 LIG 0.14  C 
BRANCH 74 75
ATOM     75  NE  ARG B 826       4.528  28.655   2.107  1.00 52.00 LIG-0.23  N 
ATOM     76 HE   ARG B 826       5.303  28.312   2.253  1.00 52.00 LIG 0.18  HD
ATOM     77  CZ  ARG B 826       4.467  29.778   1.405  1.00 51.94 LIG 0.67  C 
ATOM     78  NH1 ARG B 826       3.291  30.367   1.228  1.00 56.61 LIG-0.23  N 
ATOM     79  NH2 ARG B 826       5.570  30.322   0.916  1.00 47.30 LIG-0.23  N 
ATOM     80 2HH1 ARG B 826       3.239  31.096   0.774  1.00 56.61 LIG 0.17  HD
ATOM     81 1HH1 ARG B 826       2.581  30.020   1.568  1.00 56.61 LIG 0.17  HD
ATOM     82 1HH2 ARG B 826       6.332  29.948   1.054  1.00 47.30 LIG 0.17  HD
ATOM     83 2HH2 ARG B 826       5.524  31.050   0.462  1.00 47.30 LIG 0.17  HD
ENDBRANCH 74 75
ENDBRANCH 73 74
ENDBRANCH 72 73
ENDBRANCH 71 72
BRANCH 71 84
ATOM     84  C   ARG B 826       6.934  28.003   4.827  1.00 71.98 LIG 0.22  C 
ATOM     85 O    ARG B 826       7.299  28.424   3.731  1.00 86.43 LIG-0.29  OA
ENDBRANCH 71 84
ENDBRANCH 68 71
ENDBRANCH 62 67
ENDBRANCH 47 60
ENDBRANCH 3 47
TORSDOF 31
ENDMDL
MODEL 15
USER: ADFR SOLUTION from run 183
USER: SCORE 22.463747 LL:  -4.696 LR: -20.009 RR:   0.000 FEB: -10.762
USER: RMSD 3.796472
USER: SEED 182
USER: STATUS no improvement in best in 10 clusters for 5 generations
USER: GENES 33
USER: genes 0 Translation |==|  0.49294 0.52492 0.46494
USER: genes 1 Rotation |==|  0.48883 0.52846 0.47826 0.99859
USER: genes 2 Torsion [N]-C--CA-[N] |==|  0.35376
USER: genes 3 Torsion [C]-CA--CB-[CG] |==|  0.50832
USER: genes 4 Torsion [CA]-CB--CG-[CD] |==|  0.89137
USER: genes 5 Torsion [CB]-CG--CD-[CE] |==|  0.56391
USER: genes 6 Torsion [CG]-CD--CE-[NZ] |==|  0.16972
USER: genes 7 Torsion [CD]-CE--NZ-[HZ3] |==|  0.39502
USER: genes 8 Torsion [C]-CA--N-[C] |==|  0.80093
USER: genes 9 Torsion [N]-C--CA-[N] |==|  0.08127
USER: genes 10 Torsion [C]-CA--N-[C] |==|  0.13078
USER: genes 11 Torsion [N]-C--CA-[N] |==|  0.41659
USER: genes 12 Torsion [C]-CA--CB-[CG2] |==|  0.45040
USER: genes 13 Torsion [CA]-CB--OG1-[HG1] |==|  0.11986
USER: genes 14 Torsion [C]-CA--N-[C] |==|  0.78987
USER: genes 15 Torsion [N]-C--CA-[N] |==|  0.16898
USER: genes 16 Torsion [C]-CA--CB-[CG] |==|  0.58870
USER: genes 17 Torsion [CA]-CB--CG-[CD] |==|  0.41747
USER: genes 18 Torsion [CB]-CG--CD-[NE] |==|  0.72378
USER: genes 19 Torsion [CG]-CD--NE-[CZ] |==|  0.45735
USER: genes 20 Torsion [C]-N--CA-[CB] |==|  0.35522
USER: genes 21 Torsion [N]-CA--CB-[CG] |==|  0.97444
USER: genes 22 Torsion [CA]-CB--CG-[CD] |==|  0.52679
USER: genes 23 Torsion [CB]-CG--CD-[NE] |==|  0.93884
USER: genes 24 Torsion [CG]-CD--NE-[HE] |==|  0.21855
USER: genes 25 Torsion [N]-CA--C-[N] |==|  0.21143
USER: genes 26 Torsion [N]-CA--C-[N] |==|  0.51510
USER: genes 27 Torsion [C]-N--CA-[C] |==|  0.74890
USER: genes 28 Torsion [N]-CA--CB-[CG] |==|  0.94932
USER: genes 29 Torsion [CA]-CB--CG-[CD] |==|  0.22831
USER: genes 30 Torsion [CB]-CG--CD-[NE] |==|  0.98805
USER: genes 31 Torsion [CG]-CD--NE-[HE] |==|  0.12146
USER: genes 32 Torsion [N]-CA--C-[O] |==|  0.85553
ROOT
ATOM      1  C   LYS B 823       3.924  35.971   7.740  1.00 58.46 LIG 0.24  C 
ATOM      2 O    LYS B 823       5.111  35.855   8.041  1.00 54.34 LIG-0.27  OA
ATOM      3  N   ARG B 824       3.035  35.005   7.958  1.00 54.22 LIG-0.35  N 
ATOM      4 H    ARG B 824       2.197  35.068   7.772  1.00 54.22 LIG 0.16  HD
ENDROOT
BRANCH 1 5
ATOM      5  CA  LYS B 823       3.395  37.266   7.142  1.00 55.50 LIG 0.18  C 
BRANCH 5 6
ATOM      6  CB  LYS B 823       3.920  37.413   5.708  1.00 54.97 LIG 0.04  C 
BRANCH 6 7
ATOM      7  CG  LYS B 823       3.542  38.701   4.977  1.00 56.27 LIG 0.00  C 
BRANCH 7 8
ATOM      8  CD  LYS B 823       2.133  39.113   5.279  1.00 52.63 LIG 0.03  C 
BRANCH 8 9
ATOM      9  CE  LYS B 823       1.531  40.018   4.196  1.00 52.00 LIG 0.23  C 
BRANCH 9 10
ATOM     10  NZ  LYS B 823       1.461  39.370   2.875  1.00 59.54 LIG-0.08  N 
ATOM     11 HZ3  LYS B 823       0.708  39.611   2.465  1.00 59.54 LIG 0.27  HD
ATOM     12 HZ2  LYS B 823       1.473  38.487   2.976  1.00 59.54 LIG 0.27  HD
ATOM     13 HZ1  LYS B 823       2.159  39.623   2.384  1.00 59.54 LIG 0.27  HD
ENDBRANCH 9 10
ENDBRANCH 8 9
ENDBRANCH 7 8
ENDBRANCH 6 7
ENDBRANCH 5 6
BRANCH 5 14
ATOM     14  N   LYS B 823       3.814  38.398   7.964  1.00 58.26 LIG-0.35  N 
ATOM     15 H    LYS B 823       4.420  38.894   7.608  1.00 58.26 LIG 0.16  HD
ATOM     16  C   ARG B 822       3.280  38.617   9.172  1.00 61.99 LIG 0.24  C 
ATOM     17 O    ARG B 822       2.275  38.017   9.573  1.00 62.30 LIG-0.27  OA
BRANCH 16 18
ATOM     18  CA  ARG B 822       3.925  39.668  10.070  1.00 69.11 LIG 0.18  C 
BRANCH 18 19
ATOM     19  N   ARG B 822       4.572  40.734   9.322  1.00 79.36 LIG-0.35  N 
ATOM     20 H    ARG B 822       5.363  40.926   9.598  1.00 79.36 LIG 0.16  HD
ATOM     21  C   THR B 821       3.978  41.349   8.305  1.00 84.58 LIG 0.24  C 
ATOM     22 O    THR B 821       2.947  40.926   7.770  1.00 84.15 LIG-0.27  OA
BRANCH 21 23
ATOM     23  CA  THR B 821       4.679  42.601   7.792  1.00 89.83 LIG 0.20  C 
BRANCH 23 24
ATOM     24  CB  THR B 821       4.218  43.817   8.605  1.00 88.11 LIG 0.15  C 
ATOM     25  CG2 THR B 821       5.181  44.986   8.443  1.00 89.90 LIG 0.04  C 
BRANCH 24 26
ATOM     26 OG1  THR B 821       2.918  44.227   8.163  1.00 82.62 LIG-0.39  OA
ATOM     27 HG1  THR B 821       2.433  43.550   8.052  1.00 82.62 LIG 0.21  HD
ENDBRANCH 24 26
ENDBRANCH 23 24
BRANCH 23 28
ATOM     28  N   THR B 821       4.435  42.794   6.369  1.00 98.89 LIG-0.34  N 
ATOM     29 H    THR B 821       3.866  43.414   6.189  1.00 98.89 LIG 0.16  HD
ATOM     30  C   ALA B 820       5.051  42.062   5.440  1.00104.93 LIG 0.26  C 
ATOM     31 O    ALA B 820       5.805  41.123   5.711  1.00110.84 LIG-0.27  OA
BRANCH 30 32
ATOM     32  CA  ALA B 820       4.770  42.441   3.988  1.00100.65 LIG 0.40  C 
ATOM     33  N   ALA B 820       5.197  43.810   3.726  1.00102.47 LIG 0.61  N 
ATOM     34  CB  ALA B 820       5.464  41.475   3.038  1.00 93.61 LIG 0.06  C 
ENDBRANCH 30 32
ENDBRANCH 23 28
ENDBRANCH 21 23
ENDBRANCH 18 19
BRANCH 18 35
ATOM     35  CB  ARG B 822       2.910  40.260  11.048  1.00 74.55 LIG 0.04  C 
BRANCH 35 36
ATOM     36  CG  ARG B 822       3.244  41.705  11.350  1.00 89.07 LIG 0.02  C 
BRANCH 36 37
ATOM     37  CD  ARG B 822       2.043  42.554  11.675  1.00 95.35 LIG 0.14  C 
BRANCH 37 38
ATOM     38  NE  ARG B 822       1.638  43.321  10.498  1.00111.05 LIG-0.23  N 
ATOM     39  CZ  ARG B 822       0.461  43.931  10.369  1.00116.06 LIG 0.67  C 
ATOM     40  NH1 ARG B 822      -0.428  43.872  11.352  1.00115.06 LIG-0.23  N 
ATOM     41  NH2 ARG B 822       0.182  44.617   9.266  1.00119.10 LIG-0.23  N 
ATOM     42 2HH1 ARG B 822      -1.188  44.265  11.269  1.00115.06 LIG 0.17  HD
ATOM     43 1HH1 ARG B 822      -0.244  43.440  12.073  1.00115.06 LIG 0.17  HD
ATOM     44 1HH2 ARG B 822       0.763  44.669   8.633  1.00119.10 LIG 0.17  HD
ATOM     45 2HH2 ARG B 822      -0.578  45.009   9.184  1.00119.10 LIG 0.17  HD
ATOM     46 HE   ARG B 822       2.196  43.383   9.847  1.00111.05 LIG 0.18  HD
ENDBRANCH 37 38
ENDBRANCH 36 37
ENDBRANCH 35 36
ENDBRANCH 18 35
ENDBRANCH 16 18
ENDBRANCH 5 14
ENDBRANCH 1 5
BRANCH 3 47
ATOM     47  CA  ARG B 824       3.433  33.728   8.547  1.00 54.21 LIG 0.18  C 
BRANCH 47 48
ATOM     48  CB  ARG B 824       2.561  33.375   9.752  1.00 52.82 LIG 0.04  C 
BRANCH 48 49
ATOM     49  CG  ARG B 824       1.656  34.524  10.173  1.00 57.86 LIG 0.02  C 
BRANCH 49 50
ATOM     50  CD  ARG B 824       0.971  34.265  11.489  1.00 56.10 LIG 0.14  C 
BRANCH 50 51
ATOM     51  NE  ARG B 824       0.913  32.843  11.782  1.00 65.02 LIG-0.23  N 
ATOM     52  CZ  ARG B 824      -0.159  32.088  11.613  1.00 62.89 LIG 0.67  C 
ATOM     53  NH1 ARG B 824      -1.274  32.617  11.129  1.00 60.33 LIG-0.23  N 
ATOM     54  NH2 ARG B 824      -0.107  30.801  11.905  1.00 55.39 LIG-0.23  N 
ATOM     55 1HH1 ARG B 824      -1.300  33.452  10.924  1.00 60.33 LIG 0.17  HD
ATOM     56 2HH1 ARG B 824      -1.971  32.125  11.019  1.00 60.33 LIG 0.17  HD
ATOM     57 2HH2 ARG B 824      -0.803  30.307  11.796  1.00 55.39 LIG 0.17  HD
ATOM     58 1HH2 ARG B 824       0.622  30.457  12.205  1.00 55.39 LIG 0.17  HD
ATOM     59 HE   ARG B 824       1.625  32.467  12.085  1.00 65.02 LIG 0.18  HD
ENDBRANCH 50 51
ENDBRANCH 49 50
ENDBRANCH 48 49
ENDBRANCH 47 48
BRANCH 47 60
ATOM     60  C   ARG B 824       3.401  32.616   7.507  1.00 52.05 LIG 0.24  C 
ATOM     61  N   PRO B 825       4.384  32.550   6.616  1.00 68.51 LIG-0.34  N 
ATOM     62  CA  PRO B 825       4.339  31.578   5.524  1.00 67.77 LIG 0.18  C 
ATOM     63  CD  PRO B 825       5.726  33.149   6.757  1.00 70.13 LIG 0.13  C 
ATOM     64  CB  PRO B 825       5.530  31.985   4.659  1.00 68.40 LIG 0.04  C 
ATOM     65  CG  PRO B 825       6.532  32.459   5.665  1.00 73.68 LIG 0.02  C 
ATOM     66 O    ARG B 824       2.473  31.789   7.518  1.00 51.39 LIG-0.27  OA
BRANCH 62 67
ATOM     67  C   PRO B 825       4.492  30.159   6.044  1.00 71.49 LIG 0.24  C 
ATOM     68  N   ARG B 826       4.575  29.229   5.101  1.00 70.87 LIG-0.35  N 
ATOM     69 H    ARG B 826       4.447  29.380   4.264  1.00 70.87 LIG 0.16  HD
ATOM     70 O    PRO B 825       4.500  29.900   7.248  1.00 73.63 LIG-0.27  OA
BRANCH 68 71
ATOM     71  CA  ARG B 826       4.895  27.850   5.419  1.00 67.47 LIG 0.16  C 
BRANCH 71 72
ATOM     72  CB  ARG B 826       4.198  26.897   4.451  1.00 70.42 LIG 0.04  C 
BRANCH 72 73
ATOM     73  CG  ARG B 826       3.046  27.554   3.724  1.00 69.62 LIG 0.02  C 
BRANCH 73 74
ATOM     74  CD  ARG B 826       3.454  28.377   2.516  1.00 58.43 LIG 0.14  C 
BRANCH 74 75
ATOM     75  NE  ARG B 826       4.896  28.492   2.296  1.00 52.00 LIG-0.23  N 
ATOM     76 HE   ARG B 826       5.374  27.782   2.381  1.00 52.00 LIG 0.18  HD
ATOM     77  CZ  ARG B 826       5.512  29.621   1.972  1.00 51.94 LIG 0.67  C 
ATOM     78  NH1 ARG B 826       4.810  30.745   1.906  1.00 56.61 LIG-0.23  N 
ATOM     79  NH2 ARG B 826       6.817  29.631   1.753  1.00 47.30 LIG-0.23  N 
ATOM     80 2HH1 ARG B 826       5.199  31.484   1.698  1.00 56.61 LIG 0.17  HD
ATOM     81 1HH1 ARG B 826       3.966  30.735   2.073  1.00 56.61 LIG 0.17  HD
ATOM     82 1HH2 ARG B 826       7.271  28.904   1.820  1.00 47.30 LIG 0.17  HD
ATOM     83 2HH2 ARG B 826       7.212  30.366   1.543  1.00 47.30 LIG 0.17  HD
ENDBRANCH 74 75
ENDBRANCH 73 74
ENDBRANCH 72 73
ENDBRANCH 71 72
BRANCH 71 84
ATOM     84  C   ARG B 826       6.402  27.634   5.364  1.00 71.98 LIG 0.22  C 
ATOM     85 O    ARG B 826       7.049  27.970   4.374  1.00 86.43 LIG-0.29  OA
ENDBRANCH 71 84
ENDBRANCH 68 71
ENDBRANCH 62 67
ENDBRANCH 47 60
ENDBRANCH 3 47
TORSDOF 31
ENDMDL
MODEL 16
USER: ADFR SOLUTION from run 193
USER: SCORE 21.845268 LL:  -3.799 LR: -19.872 RR:   0.000 FEB: -10.624
USER: RMSD 2.043019
USER: SEED 192
USER: STATUS no improvement in best in 3 clusters for 5 generations
USER: GENES 33
USER: genes 0 Translation |==|  0.47450 0.53234 0.49874
USER: genes 1 Rotation |==|  0.56716 0.45318 0.54518 0.99118
USER: genes 2 Torsion [N]-C--CA-[N] |==|  0.43575
USER: genes 3 Torsion [C]-CA--CB-[CG] |==|  0.50642
USER: genes 4 Torsion [CA]-CB--CG-[CD] |==|  0.56371
USER: genes 5 Torsion [CB]-CG--CD-[CE] |==|  0.48595
USER: genes 6 Torsion [CG]-CD--CE-[NZ] |==|  0.35890
USER: genes 7 Torsion [CD]-CE--NZ-[HZ3] |==|  0.41497
USER: genes 8 Torsion [C]-CA--N-[C] |==|  0.78640
USER: genes 9 Torsion [N]-C--CA-[N] |==|  0.07752
USER: genes 10 Torsion [C]-CA--N-[C] |==|  0.74272
USER: genes 11 Torsion [N]-C--CA-[N] |==|  0.48591
USER: genes 12 Torsion [C]-CA--CB-[CG2] |==|  0.82644
USER: genes 13 Torsion [CA]-CB--OG1-[HG1] |==|  0.35211
USER: genes 14 Torsion [C]-CA--N-[C] |==|  0.77568
USER: genes 15 Torsion [N]-C--CA-[N] |==|  0.25563
USER: genes 16 Torsion [C]-CA--CB-[CG] |==|  0.79600
USER: genes 17 Torsion [CA]-CB--CG-[CD] |==|  0.75098
USER: genes 18 Torsion [CB]-CG--CD-[NE] |==|  0.40259
USER: genes 19 Torsion [CG]-CD--NE-[CZ] |==|  0.27030
USER: genes 20 Torsion [C]-N--CA-[CB] |==|  0.27473
USER: genes 21 Torsion [N]-CA--CB-[CG] |==|  0.89739
USER: genes 22 Torsion [CA]-CB--CG-[CD] |==|  0.37792
USER: genes 23 Torsion [CB]-CG--CD-[NE] |==|  0.12650
USER: genes 24 Torsion [CG]-CD--NE-[HE] |==|  0.09406
USER: genes 25 Torsion [N]-CA--C-[N] |==|  0.28084
USER: genes 26 Torsion [N]-CA--C-[N] |==|  0.46582
USER: genes 27 Torsion [C]-N--CA-[C] |==|  0.71471
USER: genes 28 Torsion [N]-CA--CB-[CG] |==|  0.56217
USER: genes 29 Torsion [CA]-CB--CG-[CD] |==|  0.59704
USER: genes 30 Torsion [CB]-CG--CD-[NE] |==|  0.88280
USER: genes 31 Torsion [CG]-CD--NE-[HE] |==|  0.25899
USER: genes 32 Torsion [N]-CA--C-[O] |==|  0.00673
ROOT
ATOM      1  C   LYS B 823       3.537  36.188   8.476  1.00 58.46 LIG 0.24  C 
ATOM      2 O    LYS B 823       4.587  36.214   9.116  1.00 54.34 LIG-0.27  OA
ATOM      3  N   ARG B 824       2.946  35.050   8.118  1.00 54.22 LIG-0.35  N 
ATOM      4 H    ARG B 824       2.204  35.006   7.685  1.00 54.22 LIG 0.16  HD
ENDROOT
BRANCH 1 5
ATOM      5  CA  LYS B 823       2.822  37.478   8.100  1.00 55.50 LIG 0.18  C 
BRANCH 5 6
ATOM      6  CB  LYS B 823       3.132  37.821   6.637  1.00 54.97 LIG 0.04  C 
BRANCH 6 7
ATOM      7  CG  LYS B 823       2.535  39.124   6.106  1.00 56.27 LIG 0.00  C 
BRANCH 7 8
ATOM      8  CD  LYS B 823       2.411  39.106   4.614  1.00 52.63 LIG 0.03  C 
BRANCH 8 9
ATOM      9  CE  LYS B 823       1.702  40.348   4.058  1.00 52.00 LIG 0.23  C 
BRANCH 9 10
ATOM     10  NZ  LYS B 823       2.449  41.002   2.971  1.00 59.54 LIG-0.08  N 
ATOM     11 HZ3  LYS B 823       1.877  41.389   2.408  1.00 59.54 LIG 0.27  HD
ATOM     12 HZ2  LYS B 823       2.929  40.395   2.533  1.00 59.54 LIG 0.27  HD
ATOM     13 HZ1  LYS B 823       2.992  41.619   3.313  1.00 59.54 LIG 0.27  HD
ENDBRANCH 9 10
ENDBRANCH 8 9
ENDBRANCH 7 8
ENDBRANCH 6 7
ENDBRANCH 5 6
BRANCH 5 14
ATOM     14  N   LYS B 823       3.251  38.556   8.986  1.00 58.26 LIG-0.35  N 
ATOM     15 H    LYS B 823       3.814  39.105   8.635  1.00 58.26 LIG 0.16  HD
ATOM     16  C   ARG B 822       2.789  38.655  10.238  1.00 61.99 LIG 0.24  C 
ATOM     17 O    ARG B 822       1.836  37.984  10.650  1.00 62.30 LIG-0.27  OA
BRANCH 16 18
ATOM     18  CA  ARG B 822       3.451  39.657  11.179  1.00 69.11 LIG 0.18  C 
BRANCH 18 19
ATOM     19  N   ARG B 822       4.036  40.791  10.480  1.00 79.36 LIG-0.35  N 
ATOM     20 H    ARG B 822       3.488  41.440  10.344  1.00 79.36 LIG 0.16  HD
ATOM     21  C   THR B 821       5.307  40.808  10.093  1.00 84.58 LIG 0.24  C 
ATOM     22 O    THR B 821       6.142  39.985  10.483  1.00 84.15 LIG-0.27  OA
BRANCH 21 23
ATOM     23  CA  THR B 821       5.696  41.949   9.160  1.00 89.83 LIG 0.20  C 
BRANCH 23 24
ATOM     24  CB  THR B 821       4.887  41.849   7.862  1.00 88.11 LIG 0.15  C 
ATOM     25  CG2 THR B 821       5.196  40.556   7.117  1.00 89.90 LIG 0.04  C 
BRANCH 24 26
ATOM     26 OG1  THR B 821       3.486  41.883   8.163  1.00 82.62 LIG-0.39  OA
ATOM     27 HG1  THR B 821       3.117  42.485   7.709  1.00 82.62 LIG 0.21  HD
ENDBRANCH 24 26
ENDBRANCH 23 24
BRANCH 23 28
ATOM     28  N   THR B 821       7.129  41.943   8.894  1.00 98.89 LIG-0.34  N 
ATOM     29 H    THR B 821       7.346  41.582   8.144  1.00 98.89 LIG 0.16  HD
ATOM     30  C   ALA B 820       8.011  42.457   9.751  1.00104.93 LIG 0.26  C 
ATOM     31 O    ALA B 820       7.695  42.901  10.859  1.00110.84 LIG-0.27  OA
BRANCH 30 32
ATOM     32  CA  ALA B 820       9.467  42.468   9.294  1.00100.65 LIG 0.40  C 
ATOM     33  N   ALA B 820       9.784  43.727   8.630  1.00102.47 LIG 0.61  N 
ATOM     34  CB  ALA B 820      10.401  42.238  10.475  1.00 93.61 LIG 0.06  C 
ENDBRANCH 30 32
ENDBRANCH 23 28
ENDBRANCH 21 23
ENDBRANCH 18 19
BRANCH 18 35
ATOM     35  CB  ARG B 822       2.471  40.150  12.243  1.00 74.55 LIG 0.04  C 
BRANCH 35 36
ATOM     36  CG  ARG B 822       1.465  41.106  11.637  1.00 89.07 LIG 0.02  C 
BRANCH 36 37
ATOM     37  CD  ARG B 822       1.898  42.548  11.664  1.00 95.35 LIG 0.14  C 
BRANCH 37 38
ATOM     38  NE  ARG B 822       1.422  43.236  10.465  1.00111.05 LIG-0.23  N 
ATOM     39  CZ  ARG B 822       0.316  43.975  10.415  1.00116.06 LIG 0.67  C 
ATOM     40  NH1 ARG B 822      -0.428  44.131  11.503  1.00115.06 LIG-0.23  N 
ATOM     41  NH2 ARG B 822      -0.035  44.576   9.283  1.00119.10 LIG-0.23  N 
ATOM     42 2HH1 ARG B 822      -1.143  44.608  11.470  1.00115.06 LIG 0.17  HD
ATOM     43 1HH1 ARG B 822      -0.195  43.756  12.240  1.00115.06 LIG 0.17  HD
ATOM     44 1HH2 ARG B 822       0.453  44.488   8.580  1.00119.10 LIG 0.17  HD
ATOM     45 2HH2 ARG B 822      -0.750  45.052   9.252  1.00119.10 LIG 0.17  HD
ATOM     46 HE   ARG B 822       1.888  43.159   9.746  1.00111.05 LIG 0.18  HD
ENDBRANCH 37 38
ENDBRANCH 36 37
ENDBRANCH 35 36
ENDBRANCH 18 35
ENDBRANCH 16 18
ENDBRANCH 5 14
ENDBRANCH 1 5
BRANCH 3 47
ATOM     47  CA  ARG B 824       3.537  33.755   8.446  1.00 54.21 LIG 0.18  C 
BRANCH 47 48
ATOM     48  CB  ARG B 824       2.887  33.144   9.687  1.00 52.82 LIG 0.04  C 
BRANCH 48 49
ATOM     49  CG  ARG B 824       2.535  34.191  10.735  1.00 57.86 LIG 0.02  C 
BRANCH 49 50
ATOM     50  CD  ARG B 824       1.165  33.978  11.324  1.00 56.10 LIG 0.14  C 
BRANCH 50 51
ATOM     51  NE  ARG B 824       0.949  32.582  11.665  1.00 65.02 LIG-0.23  N 
ATOM     52  CZ  ARG B 824      -0.217  31.964  11.581  1.00 62.89 LIG 0.67  C 
ATOM     53  NH1 ARG B 824      -1.285  32.617  11.144  1.00 60.33 LIG-0.23  N 
ATOM     54  NH2 ARG B 824      -0.308  30.689  11.911  1.00 55.39 LIG-0.23  N 
ATOM     55 1HH1 ARG B 824      -1.219  33.444  10.914  1.00 60.33 LIG 0.17  HD
ATOM     56 2HH1 ARG B 824      -2.043  32.214  11.090  1.00 60.33 LIG 0.17  HD
ATOM     57 2HH2 ARG B 824      -1.065  30.283  11.858  1.00 55.39 LIG 0.17  HD
ATOM     58 1HH2 ARG B 824       0.390  30.263  12.180  1.00 55.39 LIG 0.17  HD
ATOM     59 HE   ARG B 824       1.625  32.128  11.939  1.00 65.02 LIG 0.18  HD
ENDBRANCH 50 51
ENDBRANCH 49 50
ENDBRANCH 48 49
ENDBRANCH 47 48
BRANCH 47 60
ATOM     60  C   ARG B 824       3.452  32.802   7.261  1.00 52.05 LIG 0.24  C 
ATOM     61  N   PRO B 825       4.534  32.614   6.515  1.00 68.51 LIG-0.34  N 
ATOM     62  CA  PRO B 825       4.473  31.805   5.298  1.00 67.77 LIG 0.18  C 
ATOM     63  CD  PRO B 825       5.928  32.873   6.928  1.00 70.13 LIG 0.13  C 
ATOM     64  CB  PRO B 825       5.850  32.026   4.675  1.00 68.40 LIG 0.04  C 
ATOM     65  CG  PRO B 825       6.745  32.144   5.870  1.00 73.68 LIG 0.02  C 
ATOM     66 O    ARG B 824       2.384  32.211   7.022  1.00 51.39 LIG-0.27  OA
BRANCH 62 67
ATOM     67  C   PRO B 825       4.240  30.340   5.623  1.00 71.49 LIG 0.24  C 
ATOM     68  N   ARG B 826       3.918  29.586   4.579  1.00 70.87 LIG-0.35  N 
ATOM     69 H    ARG B 826       3.745  29.897   3.796  1.00 70.87 LIG 0.16  HD
ATOM     70 O    PRO B 825       4.310  29.904   6.772  1.00 73.63 LIG-0.27  OA
BRANCH 68 71
ATOM     71  CA  ARG B 826       3.831  28.142   4.683  1.00 67.47 LIG 0.16  C 
BRANCH 71 72
ATOM     72  CB  ARG B 826       2.578  27.625   3.979  1.00 70.42 LIG 0.04  C 
BRANCH 72 73
ATOM     73  CG  ARG B 826       2.147  26.268   4.491  1.00 69.62 LIG 0.02  C 
BRANCH 73 74
ATOM     74  CD  ARG B 826       1.548  25.360   3.434  1.00 58.43 LIG 0.14  C 
BRANCH 74 75
ATOM     75  NE  ARG B 826       0.624  26.008   2.503  1.00 52.00 LIG-0.23  N 
ATOM     76 HE   ARG B 826       0.942  26.308   1.762  1.00 52.00 LIG 0.18  HD
ATOM     77  CZ  ARG B 826      -0.674  26.163   2.729  1.00 51.94 LIG 0.67  C 
ATOM     78  NH1 ARG B 826      -1.178  25.777   3.894  1.00 56.61 LIG-0.23  N 
ATOM     79  NH2 ARG B 826      -1.448  26.728   1.817  1.00 47.30 LIG-0.23  N 
ATOM     80 2HH1 ARG B 826      -2.018  25.873   4.052  1.00 56.61 LIG 0.17  HD
ATOM     81 1HH1 ARG B 826      -0.664  25.432   4.492  1.00 56.61 LIG 0.17  HD
ATOM     82 1HH2 ARG B 826      -1.112  26.997   1.073  1.00 47.30 LIG 0.17  HD
ATOM     83 2HH2 ARG B 826      -2.289  26.826   1.968  1.00 47.30 LIG 0.17  HD
ENDBRANCH 74 75
ENDBRANCH 73 74
ENDBRANCH 72 73
ENDBRANCH 71 72
BRANCH 71 84
ATOM     84  C   ARG B 826       5.070  27.494   4.077  1.00 71.98 LIG 0.22  C 
ATOM     85 O    ARG B 826       5.984  28.185   3.632  1.00 86.43 LIG-0.29  OA
ENDBRANCH 71 84
ENDBRANCH 68 71
ENDBRANCH 62 67
ENDBRANCH 47 60
ENDBRANCH 3 47
TORSDOF 31
ENDMDL
