MODEL 1
USER: ADFR SOLUTION from run 26
USER: SCORE 13.173288 LL:  -2.468 LR: -12.264 RR:   0.000 FEB:  -7.193
USER: RMSD 1.452938
USER: SEED 25
USER: STATUS no improvement in best in 7 clusters for 5 generations
USER: GENES 19
USER: genes 0 Translation |==|  0.44106 0.48496 0.50009
USER: genes 1 Rotation |==|  0.42798 0.42020 0.67382 0.95632
USER: genes 2 Torsion [N]-C--CA-[N] |==|  0.19211
USER: genes 3 Torsion [C]-CA--CB-[CG] |==|  0.22272
USER: genes 4 Torsion [CA]-CB--CG-[OD2] |==|  0.45573
USER: genes 5 Torsion [C]-CA--N-[C] |==|  0.64907
USER: genes 6 Torsion [N]-C--CA-[N] |==|  0.54714
USER: genes 7 Torsion [C]-CA--N-[H3] |==|  0.26958
USER: genes 8 Torsion [C]-CA--CB-[CG] |==|  0.79604
USER: genes 9 Torsion [CA]-CB--CG-[OD2] |==|  0.87436
USER: genes 10 Torsion [C]-N--CA-[CB] |==|  0.53914
USER: genes 11 Torsion [N]-CA--C-[N] |==|  0.88392
USER: genes 12 Torsion [C]-N--CA-[C] |==|  0.68892
USER: genes 13 Torsion [N]-CA--C-[O] |==|  0.74604
USER: genes 14 Torsion [N]-CA--CB-[CG] |==|  0.52609
USER: genes 15 Torsion [CA]-CB--CG-[SD] |==|  0.57404
USER: genes 16 Torsion [CB]-CG--SD-[CE] |==|  0.67884
USER: genes 17 Torsion [N]-CA--CB-[CG] |==|  0.81939
USER: genes 18 Torsion [CA]-CB--CG-[OD1] |==|  0.93587
ROOT
ATOM      1  C   ASP D   0     -19.813 -18.437 -23.351  1.00 50.85 LIG 0.24  C 
ATOM      2 O    ASP D   0     -20.025 -19.078 -24.385  1.00 49.73 LIG-0.27  OA
ATOM      3  N   ASP D   1     -19.325 -17.191 -23.353  1.00 47.66 LIG-0.34  N 
ATOM      4 H    ASP D   1     -19.242 -16.711 -22.644  1.00 47.66 LIG 0.16  HD
ENDROOT
BRANCH 1 5
ATOM      5  CA  ASP D   0     -20.096 -19.076 -21.988  1.00 50.32 LIG 0.19  C 
BRANCH 5 6
ATOM      6  CB  ASP D   0     -20.380 -20.571 -22.175  1.00 50.50 LIG 0.15  C 
BRANCH 6 7
ATOM      7  CG  ASP D   0     -19.121 -21.394 -22.332  1.00 42.38 LIG 0.17  C 
ATOM      8 OD2  ASP D   0     -19.198 -22.634 -22.188  1.00 47.85 LIG-0.65  OA
ATOM      9 OD1  ASP D   0     -18.057 -20.803 -22.603  1.00 32.99 LIG-0.65  OA
ENDBRANCH 6 7
ENDBRANCH 5 6
BRANCH 5 10
ATOM     10  N   ASP D   0     -21.221 -18.456 -21.292  1.00 53.06 LIG-0.34  N 
ATOM     11 H    ASP D   0     -21.945 -18.424 -21.757  1.00 53.06 LIG 0.16  HD
ATOM     12  C   ASP D  -1     -21.125 -17.985 -20.050  1.00 52.15 LIG 0.25  C 
ATOM     13 O    ASP D  -1     -20.048 -17.811 -19.466  1.00 47.49 LIG-0.27  OA
BRANCH 12 14
ATOM     14  CA  ASP D  -1     -22.449 -17.650 -19.366  1.00 59.57 LIG 0.28  C 
BRANCH 14 15
ATOM     15  N   ASP D  -1     -22.210 -16.790 -18.210  1.00 50.06 LIG-0.07  N 
ATOM     16 H3   ASP D  -1     -22.342 -15.940 -18.439  1.00 50.06 LIG 0.28  HD
ATOM     17 H2   ASP D  -1     -21.371 -16.894 -17.930  1.00 50.06 LIG 0.28  HD
ATOM     18 H1   ASP D  -1     -22.770 -17.011 -17.555  1.00 50.06 LIG 0.28  HD
ENDBRANCH 14 15
BRANCH 14 19
ATOM     19  CB  ASP D  -1     -23.416 -16.981 -20.344  1.00 60.46 LIG 0.15  C 
BRANCH 19 20
ATOM     20  CG  ASP D  -1     -23.032 -15.552 -20.662  1.00 56.39 LIG 0.17  C 
ATOM     21 OD1  ASP D  -1     -23.075 -15.178 -21.856  1.00 65.47 LIG-0.65  OA
ATOM     22 OD2  ASP D  -1     -22.700 -14.800 -19.718  1.00 48.71 LIG-0.65  OA
ENDBRANCH 19 20
ENDBRANCH 14 19
ENDBRANCH 12 14
ENDBRANCH 5 10
ENDBRANCH 1 5
BRANCH 3 23
ATOM     23  CA  ASP D   1     -18.880 -16.522 -24.590  1.00 46.44 LIG 0.19  C 
BRANCH 23 24
ATOM     24  C   ASP D   1     -18.026 -17.444 -25.445  1.00 38.24 LIG 0.24  C 
ATOM     25 O    ASP D   1     -18.148 -17.452 -26.666  1.00 48.73 LIG-0.27  OA
ATOM     26  N   MET D   2     -17.133 -18.191 -24.806  1.00 47.06 LIG-0.35  N 
ATOM     27 H    MET D   2     -17.102 -18.286 -23.952  1.00 47.06 LIG 0.16  HD
BRANCH 26 28
ATOM     28  CA  MET D   2     -16.106 -18.927 -25.543  1.00 48.57 LIG 0.16  C 
BRANCH 28 29
ATOM     29  C   MET D   2     -16.304 -20.436 -25.469  1.00 49.60 LIG 0.22  C 
ATOM     30 O    MET D   2     -15.762 -21.094 -24.580  1.00 49.04 LIG-0.29  OA
ENDBRANCH 28 29
BRANCH 28 31
ATOM     31  CB  MET D   2     -14.714 -18.553 -25.017  1.00 43.71 LIG 0.04  C 
BRANCH 31 32
ATOM     32  CG  MET D   2     -13.562 -19.078 -25.846  1.00 45.96 LIG 0.08  C 
BRANCH 32 33
ATOM     33 SD   MET D   2     -12.069 -19.297 -24.853  1.00 73.43 LIG-0.17  SA
ATOM     34  CE  MET D   2     -10.981 -18.095 -25.619  1.00 57.46 LIG 0.09  C 
ENDBRANCH 32 33
ENDBRANCH 31 32
ENDBRANCH 28 31
ENDBRANCH 26 28
ENDBRANCH 23 24
BRANCH 23 35
ATOM     35  CB  ASP D   1     -18.053 -15.258 -24.300  1.00 44.28 LIG 0.15  C 
BRANCH 35 36
ATOM     36  CG  ASP D   1     -18.846 -14.161 -23.615  1.00 47.95 LIG 0.17  C 
ATOM     37 OD1  ASP D   1     -20.093 -14.142 -23.728  1.00 49.71 LIG-0.65  OA
ATOM     38 OD2  ASP D   1     -18.200 -13.303 -22.964  1.00 42.29 LIG-0.65  OA
ENDBRANCH 35 36
ENDBRANCH 23 35
ENDBRANCH 3 23
TORSDOF 17
ENDMDL
MODEL 2
USER: ADFR SOLUTION from run 76
USER: SCORE 11.611939 LL:  -1.912 LR: -11.882 RR:   0.000 FEB:  -6.810
USER: RMSD 4.011018
USER: SEED 75
USER: STATUS no improvement in best in 4 clusters for 5 generations
USER: GENES 19
USER: genes 0 Translation |==|  0.37772 0.53669 0.52265
USER: genes 1 Rotation |==|  0.49403 0.49032 0.49062 0.99978
USER: genes 2 Torsion [N]-C--CA-[N] |==|  0.77223
USER: genes 3 Torsion [C]-CA--CB-[CG] |==|  0.22189
USER: genes 4 Torsion [CA]-CB--CG-[OD2] |==|  0.35933
USER: genes 5 Torsion [C]-CA--N-[C] |==|  0.56330
USER: genes 6 Torsion [N]-C--CA-[N] |==|  0.46958
USER: genes 7 Torsion [C]-CA--N-[H3] |==|  0.27993
USER: genes 8 Torsion [C]-CA--CB-[CG] |==|  0.24404
USER: genes 9 Torsion [CA]-CB--CG-[OD2] |==|  0.54161
USER: genes 10 Torsion [C]-N--CA-[CB] |==|  0.42987
USER: genes 11 Torsion [N]-CA--C-[N] |==|  0.87251
USER: genes 12 Torsion [C]-N--CA-[C] |==|  0.63439
USER: genes 13 Torsion [N]-CA--C-[O] |==|  0.51356
USER: genes 14 Torsion [N]-CA--CB-[CG] |==|  0.47980
USER: genes 15 Torsion [CA]-CB--CG-[SD] |==|  0.50829
USER: genes 16 Torsion [CB]-CG--SD-[CE] |==|  0.41583
USER: genes 17 Torsion [N]-CA--CB-[CG] |==|  0.76233
USER: genes 18 Torsion [CA]-CB--CG-[OD1] |==|  0.97720
ROOT
ATOM      1  C   ASP D   0     -21.143 -17.545 -22.945  1.00 50.85 LIG 0.24  C 
ATOM      2 O    ASP D   0     -21.887 -17.488 -23.928  1.00 49.73 LIG-0.27  OA
ATOM      3  N   ASP D   1     -19.928 -16.983 -22.916  1.00 47.66 LIG-0.34  N 
ATOM      4 H    ASP D   1     -19.433 -16.956 -22.213  1.00 47.66 LIG 0.16  HD
ENDROOT
BRANCH 1 5
ATOM      5  CA  ASP D   0     -21.595 -18.301 -21.692  1.00 50.32 LIG 0.19  C 
BRANCH 5 6
ATOM      6  CB  ASP D   0     -21.149 -17.529 -20.444  1.00 50.50 LIG 0.15  C 
BRANCH 6 7
ATOM      7  CG  ASP D   0     -22.060 -16.367 -20.116  1.00 42.38 LIG 0.17  C 
ATOM      8 OD2  ASP D   0     -22.498 -16.265 -18.948  1.00 47.85 LIG-0.65  OA
ATOM      9 OD1  ASP D   0     -22.334 -15.554 -21.021  1.00 32.99 LIG-0.65  OA
ENDBRANCH 6 7
ENDBRANCH 5 6
BRANCH 5 10
ATOM     10  N   ASP D   0     -21.068 -19.663 -21.628  1.00 53.06 LIG-0.34  N 
ATOM     11 H    ASP D   0     -20.355 -19.784 -22.094  1.00 53.06 LIG 0.16  HD
ATOM     12  C   ASP D  -1     -21.648 -20.623 -20.911  1.00 52.15 LIG 0.25  C 
ATOM     13 O    ASP D  -1     -22.786 -20.528 -20.435  1.00 47.49 LIG-0.27  OA
BRANCH 12 14
ATOM     14  CA  ASP D  -1     -20.818 -21.889 -20.707  1.00 59.57 LIG 0.28  C 
BRANCH 14 15
ATOM     15  N   ASP D  -1     -21.447 -22.743 -19.703  1.00 50.06 LIG-0.07  N 
ATOM     16 H3   ASP D  -1     -21.891 -23.399 -20.108  1.00 50.06 LIG 0.28  HD
ATOM     17 H2   ASP D  -1     -22.014 -22.259 -19.215  1.00 50.06 LIG 0.28  HD
ATOM     18 H1   ASP D  -1     -20.822 -23.090 -19.175  1.00 50.06 LIG 0.28  HD
ENDBRANCH 14 15
BRANCH 14 19
ATOM     19  CB  ASP D  -1     -20.642 -22.645 -22.025  1.00 60.46 LIG 0.15  C 
BRANCH 19 20
ATOM     20  CG  ASP D  -1     -19.438 -22.176 -22.813  1.00 56.39 LIG 0.17  C 
ATOM     21 OD1  ASP D  -1     -18.575 -21.487 -22.224  1.00 65.47 LIG-0.65  OA
ATOM     22 OD2  ASP D  -1     -19.349 -22.507 -24.017  1.00 48.71 LIG-0.65  OA
ENDBRANCH 19 20
ENDBRANCH 14 19
ENDBRANCH 12 14
ENDBRANCH 5 10
ENDBRANCH 1 5
BRANCH 3 23
ATOM     23  CA  ASP D   1     -19.325 -16.353 -24.104  1.00 46.44 LIG 0.19  C 
BRANCH 23 24
ATOM     24  C   ASP D   1     -18.627 -17.378 -24.984  1.00 38.24 LIG 0.24  C 
ATOM     25 O    ASP D   1     -18.766 -17.351 -26.203  1.00 48.73 LIG-0.27  OA
ATOM     26  N   MET D   2     -17.843 -18.255 -24.369  1.00 47.06 LIG-0.35  N 
ATOM     27 H    MET D   2     -17.814 -18.366 -23.517  1.00 47.06 LIG 0.16  HD
BRANCH 26 28
ATOM     28  CA  MET D   2     -16.946 -19.123 -25.131  1.00 48.57 LIG 0.16  C 
BRANCH 28 29
ATOM     29  C   MET D   2     -17.048 -20.583 -24.707  1.00 49.60 LIG 0.22  C 
ATOM     30 O    MET D   2     -16.292 -21.428 -25.191  1.00 49.04 LIG-0.29  OA
ENDBRANCH 28 29
BRANCH 28 31
ATOM     31  CB  MET D   2     -15.499 -18.635 -24.988  1.00 43.71 LIG 0.04  C 
BRANCH 31 32
ATOM     32  CG  MET D   2     -14.458 -19.553 -25.592  1.00 45.96 LIG 0.08  C 
BRANCH 32 33
ATOM     33 SD   MET D   2     -12.782 -18.946 -25.303  1.00 73.43 LIG-0.17  SA
ATOM     34  CE  MET D   2     -11.874 -20.491 -25.240  1.00 57.46 LIG 0.09  C 
ENDBRANCH 32 33
ENDBRANCH 31 32
ENDBRANCH 28 31
ENDBRANCH 26 28
ENDBRANCH 23 24
BRANCH 23 35
ATOM     35  CB  ASP D   1     -18.287 -15.280 -23.728  1.00 44.28 LIG 0.15  C 
BRANCH 35 36
ATOM     36  CG  ASP D   1     -18.897 -13.915 -23.472  1.00 47.95 LIG 0.17  C 
ATOM     37 OD1  ASP D   1     -20.108 -13.725 -23.728  1.00 49.71 LIG-0.65  OA
ATOM     38 OD2  ASP D   1     -18.140 -13.021 -23.019  1.00 42.29 LIG-0.65  OA
ENDBRANCH 35 36
ENDBRANCH 23 35
ENDBRANCH 3 23
TORSDOF 17
ENDMDL
MODEL 3
USER: ADFR SOLUTION from run 166
USER: SCORE 11.816018 LL:  -1.785 LR: -11.596 RR:   0.000 FEB:  -6.525
USER: RMSD 2.034237
USER: SEED 165
USER: STATUS 1 or 2 clusters left
USER: GENES 19
USER: genes 0 Translation |==|  0.43972 0.47962 0.50038
USER: genes 1 Rotation |==|  0.40955 0.40388 0.66952 0.95149
USER: genes 2 Torsion [N]-C--CA-[N] |==|  0.19438
USER: genes 3 Torsion [C]-CA--CB-[CG] |==|  0.20076
USER: genes 4 Torsion [CA]-CB--CG-[OD2] |==|  0.46924
USER: genes 5 Torsion [C]-CA--N-[C] |==|  0.63900
USER: genes 6 Torsion [N]-C--CA-[N] |==|  0.26343
USER: genes 7 Torsion [C]-CA--N-[H3] |==|  0.12465
USER: genes 8 Torsion [C]-CA--CB-[CG] |==|  0.21501
USER: genes 9 Torsion [CA]-CB--CG-[OD2] |==|  0.50382
USER: genes 10 Torsion [C]-N--CA-[CB] |==|  0.53559
USER: genes 11 Torsion [N]-CA--C-[N] |==|  0.88889
USER: genes 12 Torsion [C]-N--CA-[C] |==|  0.11677
USER: genes 13 Torsion [N]-CA--C-[O] |==|  0.34443
USER: genes 14 Torsion [N]-CA--CB-[CG] |==|  0.56606
USER: genes 15 Torsion [CA]-CB--CG-[SD] |==|  0.70511
USER: genes 16 Torsion [CB]-CG--SD-[CE] |==|  0.69931
USER: genes 17 Torsion [N]-CA--CB-[CG] |==|  0.83772
USER: genes 18 Torsion [CA]-CB--CG-[OD1] |==|  0.93137
ROOT
ATOM      1  C   ASP D   0     -19.841 -18.530 -23.346  1.00 50.85 LIG 0.24  C 
ATOM      2 O    ASP D   0     -19.968 -19.214 -24.365  1.00 49.73 LIG-0.27  OA
ATOM      3  N   ASP D   1     -19.338 -17.289 -23.358  1.00 47.66 LIG-0.34  N 
ATOM      4 H    ASP D   1     -19.313 -16.778 -22.666  1.00 47.66 LIG 0.16  HD
ENDROOT
BRANCH 1 5
ATOM      5  CA  ASP D   0     -20.254 -19.103 -21.987  1.00 50.32 LIG 0.19  C 
BRANCH 5 6
ATOM      6  CB  ASP D   0     -20.521 -20.606 -22.129  1.00 50.50 LIG 0.15  C 
BRANCH 6 7
ATOM      7  CG  ASP D   0     -19.255 -21.413 -22.316  1.00 42.38 LIG 0.17  C 
ATOM      8 OD2  ASP D   0     -19.325 -22.659 -22.232  1.00 47.85 LIG-0.65  OA
ATOM      9 OD1  ASP D   0     -18.193 -20.803 -22.550  1.00 32.99 LIG-0.65  OA
ENDBRANCH 6 7
ENDBRANCH 5 6
BRANCH 5 10
ATOM     10  N   ASP D   0     -21.441 -18.454 -21.434  1.00 53.06 LIG-0.34  N 
ATOM     11 H    ASP D   0     -22.101 -18.404 -21.984  1.00 53.06 LIG 0.16  HD
ATOM     12  C   ASP D  -1     -21.488 -17.987 -20.187  1.00 52.15 LIG 0.25  C 
ATOM     13 O    ASP D  -1     -20.487 -17.841 -19.474  1.00 47.49 LIG-0.27  OA
BRANCH 12 14
ATOM     14  CA  ASP D  -1     -22.877 -17.619 -19.671  1.00 59.57 LIG 0.28  C 
BRANCH 14 15
ATOM     15  N   ASP D  -1     -23.447 -18.740 -18.929  1.00 50.06 LIG-0.07  N 
ATOM     16 H3   ASP D  -1     -22.831 -19.079 -18.383  1.00 50.06 LIG 0.28  HD
ATOM     17 H2   ASP D  -1     -23.715 -19.369 -19.500  1.00 50.06 LIG 0.28  HD
ATOM     18 H1   ASP D  -1     -24.142 -18.457 -18.452  1.00 50.06 LIG 0.28  HD
ENDBRANCH 14 15
BRANCH 14 19
ATOM     19  CB  ASP D  -1     -22.820 -16.366 -18.795  1.00 60.46 LIG 0.15  C 
BRANCH 19 20
ATOM     20  CG  ASP D  -1     -22.700 -15.092 -19.603  1.00 56.39 LIG 0.17  C 
ATOM     21 OD1  ASP D  -1     -22.701 -15.179 -20.851  1.00 65.47 LIG-0.65  OA
ATOM     22 OD2  ASP D  -1     -22.619 -14.004 -18.990  1.00 48.71 LIG-0.65  OA
ENDBRANCH 19 20
ENDBRANCH 14 19
ENDBRANCH 12 14
ENDBRANCH 5 10
ENDBRANCH 1 5
BRANCH 3 23
ATOM     23  CA  ASP D   1     -18.775 -16.681 -24.578  1.00 46.44 LIG 0.19  C 
BRANCH 23 24
ATOM     24  C   ASP D   1     -17.835 -17.637 -25.293  1.00 38.24 LIG 0.24  C 
ATOM     25 O    ASP D   1     -17.810 -17.686 -26.520  1.00 48.73 LIG-0.27  OA
ATOM     26  N   MET D   2     -17.033 -18.368 -24.528  1.00 47.06 LIG-0.35  N 
ATOM     27 H    MET D   2     -17.105 -18.434 -23.674  1.00 47.06 LIG 0.16  HD
BRANCH 26 28
ATOM     28  CA  MET D   2     -15.933 -19.136 -25.112  1.00 48.57 LIG 0.16  C 
BRANCH 28 29
ATOM     29  C   MET D   2     -15.188 -18.358 -26.191  1.00 49.60 LIG 0.22  C 
ATOM     30 O    MET D   2     -13.972 -18.181 -26.106  1.00 49.04 LIG-0.29  OA
ENDBRANCH 28 29
BRANCH 28 31
ATOM     31  CB  MET D   2     -16.463 -20.455 -25.689  1.00 43.71 LIG 0.04  C 
BRANCH 31 32
ATOM     32  CG  MET D   2     -15.432 -21.556 -25.801  1.00 45.96 LIG 0.08  C 
BRANCH 32 33
ATOM     33 SD   MET D   2     -14.928 -21.829 -27.514  1.00 73.43 LIG-0.17  SA
ATOM     34  CE  MET D   2     -15.716 -23.406 -27.845  1.00 57.46 LIG 0.09  C 
ENDBRANCH 32 33
ENDBRANCH 31 32
ENDBRANCH 28 31
ENDBRANCH 26 28
ENDBRANCH 23 24
BRANCH 23 35
ATOM     35  CB  ASP D   1     -17.986 -15.395 -24.274  1.00 44.28 LIG 0.15  C 
BRANCH 35 36
ATOM     36  CG  ASP D   1     -18.815 -14.328 -23.583  1.00 47.95 LIG 0.17  C 
ATOM     37 OD1  ASP D   1     -20.059 -14.327 -23.728  1.00 49.71 LIG-0.65  OA
ATOM     38 OD2  ASP D   1     -18.200 -13.475 -22.897  1.00 42.29 LIG-0.65  OA
ENDBRANCH 35 36
ENDBRANCH 23 35
ENDBRANCH 3 23
TORSDOF 17
ENDMDL
MODEL 4
USER: ADFR SOLUTION from run 84
USER: SCORE 11.772011 LL:  -1.383 LR: -11.147 RR:   0.000 FEB:  -6.076
USER: RMSD 2.328264
USER: SEED 83
USER: STATUS no improvement in best in 3 clusters for 5 generations
USER: GENES 19
USER: genes 0 Translation |==|  0.46207 0.47218 0.46702
USER: genes 1 Rotation |==|  0.41999 0.34737 0.66516 0.93935
USER: genes 2 Torsion [N]-C--CA-[N] |==|  0.16445
USER: genes 3 Torsion [C]-CA--CB-[CG] |==|  0.29294
USER: genes 4 Torsion [CA]-CB--CG-[OD2] |==|  0.51404
USER: genes 5 Torsion [C]-CA--N-[C] |==|  0.62966
USER: genes 6 Torsion [N]-C--CA-[N] |==|  0.28794
USER: genes 7 Torsion [C]-CA--N-[H3] |==|  0.07057
USER: genes 8 Torsion [C]-CA--CB-[CG] |==|  0.24698
USER: genes 9 Torsion [CA]-CB--CG-[OD2] |==|  0.49357
USER: genes 10 Torsion [C]-N--CA-[CB] |==|  0.53333
USER: genes 11 Torsion [N]-CA--C-[N] |==|  0.42891
USER: genes 12 Torsion [C]-N--CA-[C] |==|  0.88034
USER: genes 13 Torsion [N]-CA--C-[O] |==|  0.74522
USER: genes 14 Torsion [N]-CA--CB-[CG] |==|  0.01401
USER: genes 15 Torsion [CA]-CB--CG-[SD] |==|  0.42999
USER: genes 16 Torsion [CB]-CG--SD-[CE] |==|  0.77102
USER: genes 17 Torsion [N]-CA--CB-[CG] |==|  0.83561
USER: genes 18 Torsion [CA]-CB--CG-[OD1] |==|  0.98265
ROOT
ATOM      1  C   ASP D   0     -19.372 -18.658 -23.947  1.00 50.85 LIG 0.24  C 
ATOM      2 O    ASP D   0     -19.252 -19.227 -25.035  1.00 49.73 LIG-0.27  OA
ATOM      3  N   ASP D   1     -18.952 -17.406 -23.728  1.00 47.66 LIG-0.34  N 
ATOM      4 H    ASP D   1     -19.096 -16.976 -22.997  1.00 47.66 LIG 0.16  HD
ENDROOT
BRANCH 1 5
ATOM      5  CA  ASP D   0     -20.011 -19.397 -22.767  1.00 50.32 LIG 0.19  C 
BRANCH 5 6
ATOM      6  CB  ASP D   0     -20.399 -20.814 -23.205  1.00 50.50 LIG 0.15  C 
BRANCH 6 7
ATOM      7  CG  ASP D   0     -19.470 -21.874 -22.657  1.00 42.38 LIG 0.17  C 
ATOM      8 OD2  ASP D   0     -19.633 -23.058 -23.026  1.00 47.85 LIG-0.65  OA
ATOM      9 OD1  ASP D   0     -18.575 -21.524 -21.862  1.00 32.99 LIG-0.65  OA
ENDBRANCH 6 7
ENDBRANCH 5 6
BRANCH 5 10
ATOM     10  N   ASP D   0     -21.192 -18.715 -22.242  1.00 53.06 LIG-0.34  N 
ATOM     11 H    ASP D   0     -21.745 -18.456 -22.848  1.00 53.06 LIG 0.16  HD
ATOM     12  C   ASP D  -1     -21.385 -18.517 -20.939  1.00 52.15 LIG 0.25  C 
ATOM     13 O    ASP D  -1     -20.502 -18.669 -20.086  1.00 47.49 LIG-0.27  OA
BRANCH 12 14
ATOM     14  CA  ASP D  -1     -22.790 -18.070 -20.540  1.00 59.57 LIG 0.28  C 
BRANCH 14 15
ATOM     15  N   ASP D  -1     -23.525 -19.191 -19.959  1.00 50.06 LIG-0.07  N 
ATOM     16 H3   ASP D  -1     -22.950 -19.776 -19.615  1.00 50.06 LIG 0.28  HD
ATOM     17 H2   ASP D  -1     -24.010 -19.587 -20.591  1.00 50.06 LIG 0.28  HD
ATOM     18 H1   ASP D  -1     -24.063 -18.891 -19.316  1.00 50.06 LIG 0.28  HD
ENDBRANCH 14 15
BRANCH 14 19
ATOM     19  CB  ASP D  -1     -22.733 -16.897 -19.560  1.00 60.46 LIG 0.15  C 
BRANCH 19 20
ATOM     20  CG  ASP D  -1     -22.703 -15.553 -20.256  1.00 56.39 LIG 0.17  C 
ATOM     21 OD1  ASP D  -1     -22.696 -15.533 -21.507  1.00 65.47 LIG-0.65  OA
ATOM     22 OD2  ASP D  -1     -22.700 -14.518 -19.552  1.00 48.71 LIG-0.65  OA
ENDBRANCH 19 20
ENDBRANCH 14 19
ENDBRANCH 12 14
ENDBRANCH 5 10
ENDBRANCH 1 5
BRANCH 3 23
ATOM     23  CA  ASP D   1     -18.196 -16.642 -24.738  1.00 46.44 LIG 0.19  C 
BRANCH 23 24
ATOM     24  C   ASP D   1     -17.064 -17.468 -25.327  1.00 38.24 LIG 0.24  C 
ATOM     25 O    ASP D   1     -16.589 -18.412 -24.701  1.00 48.73 LIG-0.27  OA
ATOM     26  N   MET D   2     -16.659 -17.139 -26.548  1.00 47.06 LIG-0.35  N 
ATOM     27 H    MET D   2     -16.895 -16.423 -26.961  1.00 47.06 LIG 0.16  HD
BRANCH 26 28
ATOM     28  CA  MET D   2     -15.753 -18.009 -27.297  1.00 48.57 LIG 0.16  C 
BRANCH 28 29
ATOM     29  C   MET D   2     -14.621 -18.553 -26.434  1.00 49.60 LIG 0.22  C 
ATOM     30 O    MET D   2     -13.548 -17.952 -26.358  1.00 49.04 LIG-0.29  OA
ENDBRANCH 28 29
BRANCH 28 31
ATOM     31  CB  MET D   2     -15.177 -17.252 -28.501  1.00 43.71 LIG 0.04  C 
BRANCH 31 32
ATOM     32  CG  MET D   2     -15.563 -15.791 -28.574  1.00 45.96 LIG 0.08  C 
BRANCH 32 33
ATOM     33 SD   MET D   2     -14.351 -14.824 -29.500  1.00 73.43 LIG-0.17  SA
ATOM     34  CE  MET D   2     -13.119 -14.530 -28.230  1.00 57.46 LIG 0.09  C 
ENDBRANCH 32 33
ENDBRANCH 31 32
ENDBRANCH 28 31
ENDBRANCH 26 28
ENDBRANCH 23 24
BRANCH 23 35
ATOM     35  CB  ASP D   1     -17.579 -15.359 -24.153  1.00 44.28 LIG 0.15  C 
BRANCH 35 36
ATOM     36  CG  ASP D   1     -18.606 -14.407 -23.571  1.00 47.95 LIG 0.17  C 
ATOM     37 OD1  ASP D   1     -19.825 -14.659 -23.709  1.00 49.71 LIG-0.65  OA
ATOM     38 OD2  ASP D   1     -18.176 -13.388 -22.977  1.00 42.29 LIG-0.65  OA
ENDBRANCH 35 36
ENDBRANCH 23 35
ENDBRANCH 3 23
TORSDOF 17
ENDMDL
MODEL 5
USER: ADFR SOLUTION from run 183
USER: SCORE 11.797179 LL:  -2.620 LR: -10.974 RR:   0.000 FEB:  -5.903
USER: RMSD 4.622759
USER: SEED 182
USER: STATUS no improvement in best in 4 clusters for 5 generations
USER: GENES 19
USER: genes 0 Translation |==|  0.37798 0.54170 0.51768
USER: genes 1 Rotation |==|  0.49956 0.48762 0.46107 0.99833
USER: genes 2 Torsion [N]-C--CA-[N] |==|  0.81953
USER: genes 3 Torsion [C]-CA--CB-[CG] |==|  0.24963
USER: genes 4 Torsion [CA]-CB--CG-[OD2] |==|  0.72946
USER: genes 5 Torsion [C]-CA--N-[C] |==|  0.61688
USER: genes 6 Torsion [N]-C--CA-[N] |==|  0.39881
USER: genes 7 Torsion [C]-CA--N-[H3] |==|  0.20513
USER: genes 8 Torsion [C]-CA--CB-[CG] |==|  0.21362
USER: genes 9 Torsion [CA]-CB--CG-[OD2] |==|  0.56976
USER: genes 10 Torsion [C]-N--CA-[CB] |==|  0.40411
USER: genes 11 Torsion [N]-CA--C-[N] |==|  0.89242
USER: genes 12 Torsion [C]-N--CA-[C] |==|  0.11500
USER: genes 13 Torsion [N]-CA--C-[O] |==|  0.25401
USER: genes 14 Torsion [N]-CA--CB-[CG] |==|  0.25301
USER: genes 15 Torsion [CA]-CB--CG-[SD] |==|  0.68167
USER: genes 16 Torsion [CB]-CG--SD-[CE] |==|  0.02049
USER: genes 17 Torsion [N]-CA--CB-[CG] |==|  0.77796
USER: genes 18 Torsion [CA]-CB--CG-[OD1] |==|  0.47547
ROOT
ATOM      1  C   ASP D   0     -21.137 -17.459 -23.035  1.00 50.85 LIG 0.24  C 
ATOM      2 O    ASP D   0     -21.856 -17.291 -24.024  1.00 49.73 LIG-0.27  OA
ATOM      3  N   ASP D   1     -19.866 -17.044 -22.977  1.00 47.66 LIG-0.34  N 
ATOM      4 H    ASP D   1     -19.381 -17.092 -22.268  1.00 47.66 LIG 0.16  HD
ENDROOT
BRANCH 1 5
ATOM      5  CA  ASP D   0     -21.692 -18.185 -21.805  1.00 50.32 LIG 0.19  C 
BRANCH 5 6
ATOM      6  CB  ASP D   0     -21.546 -17.285 -20.573  1.00 50.50 LIG 0.15  C 
BRANCH 6 7
ATOM      7  CG  ASP D   0     -22.747 -16.394 -20.349  1.00 42.38 LIG 0.17  C 
ATOM      8 OD2  ASP D   0     -22.700 -15.215 -20.766  1.00 47.85 LIG-0.65  OA
ATOM      9 OD1  ASP D   0     -23.738 -16.871 -19.763  1.00 32.99 LIG-0.65  OA
ENDBRANCH 6 7
ENDBRANCH 5 6
BRANCH 5 10
ATOM     10  N   ASP D   0     -21.027 -19.461 -21.551  1.00 53.06 LIG-0.34  N 
ATOM     11 H    ASP D   0     -20.173 -19.436 -21.651  1.00 53.06 LIG 0.16  HD
ATOM     12  C   ASP D  -1     -21.693 -20.559 -21.196  1.00 52.15 LIG 0.25  C 
ATOM     13 O    ASP D  -1     -22.923 -20.669 -21.278  1.00 47.49 LIG-0.27  OA
BRANCH 12 14
ATOM     14  CA  ASP D  -1     -20.837 -21.713 -20.678  1.00 59.57 LIG 0.28  C 
BRANCH 14 15
ATOM     15  N   ASP D  -1     -21.538 -22.410 -19.603  1.00 50.06 LIG-0.07  N 
ATOM     16 H3   ASP D  -1     -22.199 -22.898 -19.947  1.00 50.06 LIG 0.28  HD
ATOM     17 H2   ASP D  -1     -21.875 -21.815 -19.033  1.00 50.06 LIG 0.28  HD
ATOM     18 H1   ASP D  -1     -20.969 -22.943 -19.174  1.00 50.06 LIG 0.28  HD
ENDBRANCH 14 15
BRANCH 14 19
ATOM     19  CB  ASP D  -1     -20.483 -22.681 -21.808  1.00 60.46 LIG 0.15  C 
BRANCH 19 20
ATOM     20  CG  ASP D  -1     -19.384 -22.155 -22.706  1.00 56.39 LIG 0.17  C 
ATOM     21 OD1  ASP D  -1     -18.571 -21.331 -22.229  1.00 65.47 LIG-0.65  OA
ATOM     22 OD2  ASP D  -1     -19.325 -22.576 -23.883  1.00 48.71 LIG-0.65  OA
ENDBRANCH 19 20
ENDBRANCH 14 19
ENDBRANCH 12 14
ENDBRANCH 5 10
ENDBRANCH 1 5
BRANCH 3 23
ATOM     23  CA  ASP D   1     -19.176 -16.462 -24.143  1.00 46.44 LIG 0.19  C 
BRANCH 23 24
ATOM     24  C   ASP D   1     -18.400 -17.517 -24.915  1.00 38.24 LIG 0.24  C 
ATOM     25 O    ASP D   1     -18.335 -17.471 -26.140  1.00 48.73 LIG-0.27  OA
ATOM     26  N   MET D   2     -17.778 -18.444 -24.196  1.00 47.06 LIG-0.35  N 
ATOM     27 H    MET D   2     -17.896 -18.564 -23.353  1.00 47.06 LIG 0.16  HD
BRANCH 26 28
ATOM     28  CA  MET D   2     -16.817 -19.354 -24.817  1.00 48.57 LIG 0.16  C 
BRANCH 28 29
ATOM     29  C   MET D   2     -15.908 -18.649 -25.817  1.00 49.60 LIG 0.22  C 
ATOM     30 O    MET D   2     -14.828 -18.178 -25.456  1.00 49.04 LIG-0.29  OA
ENDBRANCH 28 29
BRANCH 28 31
ATOM     31  CB  MET D   2     -17.557 -20.509 -25.505  1.00 43.71 LIG 0.04  C 
BRANCH 31 32
ATOM     32  CG  MET D   2     -17.899 -20.265 -26.958  1.00 45.96 LIG 0.08  C 
BRANCH 32 33
ATOM     33 SD   MET D   2     -19.684 -20.180 -27.220  1.00 73.43 LIG-0.17  SA
ATOM     34  CE  MET D   2     -20.271 -20.211 -25.525  1.00 57.46 LIG 0.09  C 
ENDBRANCH 32 33
ENDBRANCH 31 32
ENDBRANCH 28 31
ENDBRANCH 26 28
ENDBRANCH 23 24
BRANCH 23 35
ATOM     35  CB  ASP D   1     -18.182 -15.359 -23.738  1.00 44.28 LIG 0.15  C 
BRANCH 35 36
ATOM     36  CG  ASP D   1     -18.843 -14.021 -23.464  1.00 47.95 LIG 0.17  C 
ATOM     37 OD1  ASP D   1     -18.167 -13.092 -22.966  1.00 49.71 LIG-0.65  OA
ATOM     38 OD2  ASP D   1     -20.062 -13.913 -23.744  1.00 42.29 LIG-0.65  OA
ENDBRANCH 35 36
ENDBRANCH 23 35
ENDBRANCH 3 23
TORSDOF 17
ENDMDL
MODEL 6
USER: ADFR SOLUTION from run 26
USER: SCORE 12.399339 LL:  -2.549 LR: -10.872 RR:   0.000 FEB:  -5.801
USER: RMSD 2.141448
USER: SEED 25
USER: STATUS no improvement in best in 7 clusters for 5 generations
USER: GENES 19
USER: genes 0 Translation |==|  0.44023 0.48551 0.50127
USER: genes 1 Rotation |==|  0.42831 0.41983 0.68134 0.95337
USER: genes 2 Torsion [N]-C--CA-[N] |==|  0.18624
USER: genes 3 Torsion [C]-CA--CB-[CG] |==|  0.22477
USER: genes 4 Torsion [CA]-CB--CG-[OD2] |==|  0.45323
USER: genes 5 Torsion [C]-CA--N-[C] |==|  0.64902
USER: genes 6 Torsion [N]-C--CA-[N] |==|  0.54870
USER: genes 7 Torsion [C]-CA--N-[H3] |==|  0.26926
USER: genes 8 Torsion [C]-CA--CB-[CG] |==|  0.79377
USER: genes 9 Torsion [CA]-CB--CG-[OD2] |==|  0.87264
USER: genes 10 Torsion [C]-N--CA-[CB] |==|  0.55000
USER: genes 11 Torsion [N]-CA--C-[N] |==|  0.29456
USER: genes 12 Torsion [C]-N--CA-[C] |==|  0.49564
USER: genes 13 Torsion [N]-CA--C-[O] |==|  0.06218
USER: genes 14 Torsion [N]-CA--CB-[CG] |==|  0.65075
USER: genes 15 Torsion [CA]-CB--CG-[SD] |==|  0.35170
USER: genes 16 Torsion [CB]-CG--SD-[CE] |==|  0.54636
USER: genes 17 Torsion [N]-CA--CB-[CG] |==|  0.81272
USER: genes 18 Torsion [CA]-CB--CG-[OD1] |==|  0.93586
ROOT
ATOM      1  C   ASP D   0     -19.830 -18.428 -23.330  1.00 50.85 LIG 0.24  C 
ATOM      2 O    ASP D   0     -20.024 -19.080 -24.360  1.00 49.73 LIG-0.27  OA
ATOM      3  N   ASP D   1     -19.383 -17.166 -23.339  1.00 47.66 LIG-0.34  N 
ATOM      4 H    ASP D   1     -19.314 -16.681 -22.632  1.00 47.66 LIG 0.16  HD
ENDROOT
BRANCH 1 5
ATOM      5  CA  ASP D   0     -20.090 -19.069 -21.963  1.00 50.32 LIG 0.19  C 
BRANCH 5 6
ATOM      6  CB  ASP D   0     -20.379 -20.563 -22.148  1.00 50.50 LIG 0.15  C 
BRANCH 6 7
ATOM      7  CG  ASP D   0     -19.123 -21.389 -22.310  1.00 42.38 LIG 0.17  C 
ATOM      8 OD2  ASP D   0     -19.199 -22.627 -22.148  1.00 47.85 LIG-0.65  OA
ATOM      9 OD1  ASP D   0     -18.062 -20.803 -22.603  1.00 32.99 LIG-0.65  OA
ENDBRANCH 6 7
ENDBRANCH 5 6
BRANCH 5 10
ATOM     10  N   ASP D   0     -21.204 -18.448 -21.248  1.00 53.06 LIG-0.34  N 
ATOM     11 H    ASP D   0     -21.935 -18.415 -21.700  1.00 53.06 LIG 0.16  HD
ATOM     12  C   ASP D  -1     -21.086 -17.980 -20.006  1.00 52.15 LIG 0.25  C 
ATOM     13 O    ASP D  -1     -19.999 -17.809 -19.440  1.00 47.49 LIG-0.27  OA
BRANCH 12 14
ATOM     14  CA  ASP D  -1     -22.398 -17.645 -19.299  1.00 59.57 LIG 0.28  C 
BRANCH 14 15
ATOM     15  N   ASP D  -1     -22.140 -16.777 -18.153  1.00 50.06 LIG-0.07  N 
ATOM     16 H3   ASP D  -1     -22.278 -15.929 -18.386  1.00 50.06 LIG 0.28  HD
ATOM     17 H2   ASP D  -1     -21.296 -16.878 -17.888  1.00 50.06 LIG 0.28  HD
ATOM     18 H1   ASP D  -1     -22.688 -16.994 -17.487  1.00 50.06 LIG 0.28  HD
ENDBRANCH 14 15
BRANCH 14 19
ATOM     19  CB  ASP D  -1     -23.386 -16.986 -20.263  1.00 60.46 LIG 0.15  C 
BRANCH 19 20
ATOM     20  CG  ASP D  -1     -23.023 -15.551 -20.582  1.00 56.39 LIG 0.17  C 
ATOM     21 OD1  ASP D  -1     -23.075 -15.178 -21.776  1.00 65.47 LIG-0.65  OA
ATOM     22 OD2  ASP D  -1     -22.700 -14.795 -19.639  1.00 48.71 LIG-0.65  OA
ENDBRANCH 19 20
ENDBRANCH 14 19
ENDBRANCH 12 14
ENDBRANCH 5 10
ENDBRANCH 1 5
BRANCH 3 23
ATOM     23  CA  ASP D   1     -18.961 -16.490 -24.579  1.00 46.44 LIG 0.19  C 
BRANCH 23 24
ATOM     24  C   ASP D   1     -18.159 -17.419 -25.475  1.00 38.24 LIG 0.24  C 
ATOM     25 O    ASP D   1     -17.014 -17.742 -25.173  1.00 48.73 LIG-0.27  OA
ATOM     26  N   MET D   2     -18.774 -17.881 -26.558  1.00 47.06 LIG-0.35  N 
ATOM     27 H    MET D   2     -19.527 -17.588 -26.850  1.00 47.06 LIG 0.16  HD
BRANCH 26 28
ATOM     28  CA  MET D   2     -18.185 -18.959 -27.352  1.00 48.57 LIG 0.16  C 
BRANCH 28 29
ATOM     29  C   MET D   2     -19.067 -19.365 -28.527  1.00 49.60 LIG 0.22  C 
ATOM     30 O    MET D   2     -19.906 -18.584 -28.978  1.00 49.04 LIG-0.29  OA
ENDBRANCH 28 29
BRANCH 28 31
ATOM     31  CB  MET D   2     -17.907 -20.175 -26.460  1.00 43.71 LIG 0.04  C 
BRANCH 31 32
ATOM     32  CG  MET D   2     -16.481 -20.681 -26.505  1.00 45.96 LIG 0.08  C 
BRANCH 32 33
ATOM     33 SD   MET D   2     -15.762 -20.803 -24.853  1.00 73.43 LIG-0.17  SA
ATOM     34  CE  MET D   2     -14.017 -20.911 -25.256  1.00 57.46 LIG 0.09  C 
ENDBRANCH 32 33
ENDBRANCH 31 32
ENDBRANCH 28 31
ENDBRANCH 26 28
ENDBRANCH 23 24
BRANCH 23 35
ATOM     35  CB  ASP D   1     -18.092 -15.251 -24.298  1.00 44.28 LIG 0.15  C 
BRANCH 35 36
ATOM     36  CG  ASP D   1     -18.850 -14.124 -23.623  1.00 47.95 LIG 0.17  C 
ATOM     37 OD1  ASP D   1     -20.095 -14.064 -23.738  1.00 49.71 LIG-0.65  OA
ATOM     38 OD2  ASP D   1     -18.177 -13.282 -22.978  1.00 42.29 LIG-0.65  OA
ENDBRANCH 35 36
ENDBRANCH 23 35
ENDBRANCH 3 23
TORSDOF 17
ENDMDL
MODEL 7
USER: ADFR SOLUTION from run 189
USER: SCORE 12.183778 LL:  -2.449 LR: -10.684 RR:   0.000 FEB:  -5.613
USER: RMSD 2.917768
USER: SEED 188
USER: STATUS no improvement in best in 3 clusters for 5 generations
USER: GENES 19
USER: genes 0 Translation |==|  0.46048 0.47945 0.46226
USER: genes 1 Rotation |==|  0.45307 0.36747 0.66277 0.95137
USER: genes 2 Torsion [N]-C--CA-[N] |==|  0.17702
USER: genes 3 Torsion [C]-CA--CB-[CG] |==|  0.33214
USER: genes 4 Torsion [CA]-CB--CG-[OD2] |==|  0.99829
USER: genes 5 Torsion [C]-CA--N-[C] |==|  0.65722
USER: genes 6 Torsion [N]-C--CA-[N] |==|  0.53321
USER: genes 7 Torsion [C]-CA--N-[H3] |==|  0.93701
USER: genes 8 Torsion [C]-CA--CB-[CG] |==|  0.79133
USER: genes 9 Torsion [CA]-CB--CG-[OD2] |==|  0.90557
USER: genes 10 Torsion [C]-N--CA-[CB] |==|  0.53333
USER: genes 11 Torsion [N]-CA--C-[N] |==|  0.38919
USER: genes 12 Torsion [C]-N--CA-[C] |==|  0.81207
USER: genes 13 Torsion [N]-CA--C-[O] |==|  0.21298
USER: genes 14 Torsion [N]-CA--CB-[CG] |==|  0.87661
USER: genes 15 Torsion [CA]-CB--CG-[SD] |==|  0.87506
USER: genes 16 Torsion [CB]-CG--SD-[CE] |==|  0.34076
USER: genes 17 Torsion [N]-CA--CB-[CG] |==|  0.81423
USER: genes 18 Torsion [CA]-CB--CG-[OD1] |==|  0.98465
ROOT
ATOM      1  C   ASP D   0     -19.405 -18.532 -24.032  1.00 50.85 LIG 0.24  C 
ATOM      2 O    ASP D   0     -19.427 -18.989 -25.179  1.00 49.73 LIG-0.27  OA
ATOM      3  N   ASP D   1     -18.957 -17.304 -23.744  1.00 47.66 LIG-0.34  N 
ATOM      4 H    ASP D   1     -19.005 -16.951 -22.961  1.00 47.66 LIG 0.16  HD
ENDROOT
BRANCH 1 5
ATOM      5  CA  ASP D   0     -19.891 -19.392 -22.861  1.00 50.32 LIG 0.19  C 
BRANCH 5 6
ATOM      6  CB  ASP D   0     -20.230 -20.798 -23.368  1.00 50.50 LIG 0.15  C 
BRANCH 6 7
ATOM      7  CG  ASP D   0     -19.398 -21.877 -22.710  1.00 42.38 LIG 0.17  C 
ATOM      8 OD2  ASP D   0     -18.544 -21.536 -21.863  1.00 47.85 LIG-0.65  OA
ATOM      9 OD1  ASP D   0     -19.602 -23.063 -23.035  1.00 32.99 LIG-0.65  OA
ENDBRANCH 6 7
ENDBRANCH 5 6
BRANCH 5 10
ATOM     10  N   ASP D   0     -21.061 -18.828 -22.190  1.00 53.06 LIG-0.34  N 
ATOM     11 H    ASP D   0     -21.731 -18.691 -22.711  1.00 53.06 LIG 0.16  HD
ATOM     12  C   ASP D  -1     -21.077 -18.554 -20.886  1.00 52.15 LIG 0.25  C 
ATOM     13 O    ASP D  -1     -20.060 -18.524 -20.182  1.00 47.49 LIG-0.27  OA
BRANCH 12 14
ATOM     14  CA  ASP D  -1     -22.451 -18.261 -20.289  1.00 59.57 LIG 0.28  C 
BRANCH 14 15
ATOM     15  N   ASP D  -1     -22.304 -17.707 -18.946  1.00 50.06 LIG-0.07  N 
ATOM     16 H3   ASP D  -1     -21.514 -17.944 -18.612  1.00 50.06 LIG 0.28  HD
ATOM     17 H2   ASP D  -1     -22.953 -18.019 -18.423  1.00 50.06 LIG 0.28  HD
ATOM     18 H1   ASP D  -1     -22.355 -16.819 -18.984  1.00 50.06 LIG 0.28  HD
ENDBRANCH 14 15
BRANCH 14 19
ATOM     19  CB  ASP D  -1     -23.243 -17.305 -21.183  1.00 60.46 LIG 0.15  C 
BRANCH 19 20
ATOM     20  CG  ASP D  -1     -22.756 -15.875 -21.086  1.00 56.39 LIG 0.17  C 
ATOM     21 OD1  ASP D  -1     -22.819 -15.157 -22.109  1.00 65.47 LIG-0.65  OA
ATOM     22 OD2  ASP D  -1     -22.325 -15.466 -19.984  1.00 48.71 LIG-0.65  OA
ENDBRANCH 19 20
ENDBRANCH 14 19
ENDBRANCH 12 14
ENDBRANCH 5 10
ENDBRANCH 1 5
BRANCH 3 23
ATOM     23  CA  ASP D   1     -18.333 -16.437 -24.760  1.00 46.44 LIG 0.19  C 
BRANCH 23 24
ATOM     24  C   ASP D   1     -17.288 -17.189 -25.568  1.00 38.24 LIG 0.24  C 
ATOM     25 O    ASP D   1     -16.557 -18.013 -25.028  1.00 48.73 LIG-0.27  OA
ATOM     26  N   MET D   2     -17.245 -16.934 -26.871  1.00 47.06 LIG-0.35  N 
ATOM     27 H    MET D   2     -17.665 -16.289 -27.253  1.00 47.06 LIG 0.16  HD
BRANCH 26 28
ATOM     28  CA  MET D   2     -16.451 -17.768 -27.772  1.00 48.57 LIG 0.16  C 
BRANCH 28 29
ATOM     29  C   MET D   2     -14.953 -17.624 -27.531  1.00 49.60 LIG 0.22  C 
ATOM     30 O    MET D   2     -14.419 -18.178 -26.568  1.00 49.04 LIG-0.29  OA
ENDBRANCH 28 29
BRANCH 28 31
ATOM     31  CB  MET D   2     -16.782 -17.427 -29.230  1.00 43.71 LIG 0.04  C 
BRANCH 31 32
ATOM     32  CG  MET D   2     -18.259 -17.276 -29.525  1.00 45.96 LIG 0.08  C 
BRANCH 32 33
ATOM     33 SD   MET D   2     -19.229 -18.602 -28.775  1.00 73.43 LIG-0.17  SA
ATOM     34  CE  MET D   2     -20.366 -17.652 -27.765  1.00 57.46 LIG 0.09  C 
ENDBRANCH 32 33
ENDBRANCH 31 32
ENDBRANCH 28 31
ENDBRANCH 26 28
ENDBRANCH 23 24
BRANCH 23 35
ATOM     35  CB  ASP D   1     -17.643 -15.213 -24.133  1.00 44.28 LIG 0.15  C 
BRANCH 35 36
ATOM     36  CG  ASP D   1     -18.611 -14.237 -23.490  1.00 47.95 LIG 0.17  C 
ATOM     37 OD1  ASP D   1     -19.843 -14.430 -23.604  1.00 49.71 LIG-0.65  OA
ATOM     38 OD2  ASP D   1     -18.120 -13.260 -22.874  1.00 42.29 LIG-0.65  OA
ENDBRANCH 35 36
ENDBRANCH 23 35
ENDBRANCH 3 23
TORSDOF 17
ENDMDL
MODEL 8
USER: ADFR SOLUTION from run 181
USER: SCORE 11.700917 LL:  -2.589 LR: -10.569 RR:   0.000 FEB:  -5.498
USER: RMSD 3.834100
USER: SEED 180
USER: STATUS searching
USER: GENES 19
USER: genes 0 Translation |==|  0.42918 0.47941 0.46636
USER: genes 1 Rotation |==|  0.45664 0.38461 0.62390 0.96846
USER: genes 2 Torsion [N]-C--CA-[N] |==|  0.49963
USER: genes 3 Torsion [C]-CA--CB-[CG] |==|  0.76578
USER: genes 4 Torsion [CA]-CB--CG-[OD2] |==|  0.14540
USER: genes 5 Torsion [C]-CA--N-[C] |==|  0.54447
USER: genes 6 Torsion [N]-C--CA-[N] |==|  0.92978
USER: genes 7 Torsion [C]-CA--N-[H3] |==|  0.22039
USER: genes 8 Torsion [C]-CA--CB-[CG] |==|  0.72939
USER: genes 9 Torsion [CA]-CB--CG-[OD2] |==|  0.55708
USER: genes 10 Torsion [C]-N--CA-[CB] |==|  0.51667
USER: genes 11 Torsion [N]-CA--C-[N] |==|  0.88102
USER: genes 12 Torsion [C]-N--CA-[C] |==|  0.65558
USER: genes 13 Torsion [N]-CA--C-[O] |==|  0.66391
USER: genes 14 Torsion [N]-CA--CB-[CG] |==|  0.54077
USER: genes 15 Torsion [CA]-CB--CG-[SD] |==|  0.51297
USER: genes 16 Torsion [CB]-CG--SD-[CE] |==|  0.58756
USER: genes 17 Torsion [N]-CA--CB-[CG] |==|  0.81037
USER: genes 18 Torsion [CA]-CB--CG-[OD1] |==|  0.00235
ROOT
ATOM      1  C   ASP D   0     -20.062 -18.533 -23.959  1.00 50.85 LIG 0.24  C 
ATOM      2 O    ASP D   0     -20.236 -18.930 -25.115  1.00 49.73 LIG-0.27  OA
ATOM      3  N   ASP D   1     -19.399 -17.408 -23.665  1.00 47.66 LIG-0.34  N 
ATOM      4 H    ASP D   1     -19.335 -17.087 -22.869  1.00 47.66 LIG 0.16  HD
ENDROOT
BRANCH 1 5
ATOM      5  CA  ASP D   0     -20.605 -19.352 -22.784  1.00 50.32 LIG 0.19  C 
BRANCH 5 6
ATOM      6  CB  ASP D   0     -19.447 -19.749 -21.861  1.00 50.50 LIG 0.15  C 
BRANCH 6 7
ATOM      7  CG  ASP D   0     -18.733 -21.001 -22.319  1.00 42.38 LIG 0.17  C 
ATOM      8 OD2  ASP D   0     -18.324 -21.055 -23.500  1.00 47.85 LIG-0.65  OA
ATOM      9 OD1  ASP D   0     -18.576 -21.927 -21.499  1.00 32.99 LIG-0.65  OA
ENDBRANCH 6 7
ENDBRANCH 5 6
BRANCH 5 10
ATOM     10  N   ASP D   0     -21.314 -20.557 -23.210  1.00 53.06 LIG-0.34  N 
ATOM     11 H    ASP D   0     -21.162 -20.781 -24.027  1.00 53.06 LIG 0.16  HD
ATOM     12  C   ASP D  -1     -22.122 -21.239 -22.399  1.00 52.15 LIG 0.25  C 
ATOM     13 O    ASP D  -1     -22.529 -20.803 -21.315  1.00 47.49 LIG-0.27  OA
BRANCH 12 14
ATOM     14  CA  ASP D  -1     -22.540 -22.622 -22.893  1.00 59.57 LIG 0.28  C 
BRANCH 14 15
ATOM     15  N   ASP D  -1     -22.472 -22.673 -24.352  1.00 50.06 LIG-0.07  N 
ATOM     16 H3   ASP D  -1     -21.626 -22.788 -24.606  1.00 50.06 LIG 0.28  HD
ATOM     17 H2   ASP D  -1     -22.781 -21.909 -24.691  1.00 50.06 LIG 0.28  HD
ATOM     18 H1   ASP D  -1     -22.966 -23.351 -24.649  1.00 50.06 LIG 0.28  HD
ENDBRANCH 14 15
BRANCH 14 19
ATOM     19  CB  ASP D  -1     -21.663 -23.712 -22.275  1.00 60.46 LIG 0.15  C 
BRANCH 19 20
ATOM     20  CG  ASP D  -1     -20.535 -24.144 -23.188  1.00 56.39 LIG 0.17  C 
ATOM     21 OD1  ASP D  -1     -20.174 -23.362 -24.096  1.00 65.47 LIG-0.65  OA
ATOM     22 OD2  ASP D  -1     -20.001 -25.258 -22.988  1.00 48.71 LIG-0.65  OA
ENDBRANCH 19 20
ENDBRANCH 14 19
ENDBRANCH 12 14
ENDBRANCH 5 10
ENDBRANCH 1 5
BRANCH 3 23
ATOM     23  CA  ASP D   1     -18.709 -16.611 -24.695  1.00 46.44 LIG 0.19  C 
BRANCH 23 24
ATOM     24  C   ASP D   1     -17.747 -17.463 -25.507  1.00 38.24 LIG 0.24  C 
ATOM     25 O    ASP D   1     -17.655 -17.314 -26.722  1.00 48.73 LIG-0.27  OA
ATOM     26  N   MET D   2     -17.001 -18.328 -24.831  1.00 47.06 LIG-0.35  N 
ATOM     27 H    MET D   2     -17.121 -18.530 -24.004  1.00 47.06 LIG 0.16  HD
BRANCH 26 28
ATOM     28  CA  MET D   2     -15.884 -19.020 -25.475  1.00 48.57 LIG 0.16  C 
BRANCH 28 29
ATOM     29  C   MET D   2     -16.001 -20.536 -25.373  1.00 49.60 LIG 0.22  C 
ATOM     30 O    MET D   2     -15.117 -21.195 -24.823  1.00 49.04 LIG-0.29  OA
ENDBRANCH 28 29
BRANCH 28 31
ATOM     31  CB  MET D   2     -14.557 -18.553 -24.864  1.00 43.71 LIG 0.04  C 
BRANCH 31 32
ATOM     32  CG  MET D   2     -13.327 -18.922 -25.665  1.00 45.96 LIG 0.08  C 
BRANCH 32 33
ATOM     33 SD   MET D   2     -11.807 -18.455 -24.809  1.00 73.43 LIG-0.17  SA
ATOM     34  CE  MET D   2     -10.737 -18.095 -26.203  1.00 57.46 LIG 0.09  C 
ENDBRANCH 32 33
ENDBRANCH 31 32
ENDBRANCH 28 31
ENDBRANCH 26 28
ENDBRANCH 23 24
BRANCH 23 35
ATOM     35  CB  ASP D   1     -17.901 -15.451 -24.086  1.00 44.28 LIG 0.15  C 
BRANCH 35 36
ATOM     36  CG  ASP D   1     -18.768 -14.368 -23.472  1.00 47.95 LIG 0.17  C 
ATOM     37 OD1  ASP D   1     -20.013 -14.497 -23.488  1.00 49.71 LIG-0.65  OA
ATOM     38 OD2  ASP D   1     -18.184 -13.373 -22.978  1.00 42.29 LIG-0.65  OA
ENDBRANCH 35 36
ENDBRANCH 23 35
ENDBRANCH 3 23
TORSDOF 17
ENDMDL
MODEL 9
USER: ADFR SOLUTION from run 14
USER: SCORE 11.667266 LL:  -2.751 LR: -10.494 RR:   0.000 FEB:  -5.423
USER: RMSD 2.956588
USER: SEED 958930
USER: STATUS no improvement in best in 5 clusters for 5 generations
USER: GENES 19
USER: genes 0 Translation |==|  0.43386 0.48586 0.50487
USER: genes 1 Rotation |==|  0.42473 0.46077 0.67100 0.96212
USER: genes 2 Torsion [N]-C--CA-[N] |==|  0.19365
USER: genes 3 Torsion [C]-CA--CB-[CG] |==|  0.22178
USER: genes 4 Torsion [CA]-CB--CG-[OD2] |==|  0.45965
USER: genes 5 Torsion [C]-CA--N-[C] |==|  0.62787
USER: genes 6 Torsion [N]-C--CA-[N] |==|  0.19183
USER: genes 7 Torsion [C]-CA--N-[H3] |==|  0.44150
USER: genes 8 Torsion [C]-CA--CB-[CG] |==|  0.64636
USER: genes 9 Torsion [CA]-CB--CG-[OD2] |==|  0.38157
USER: genes 10 Torsion [C]-N--CA-[CB] |==|  0.52597
USER: genes 11 Torsion [N]-CA--C-[N] |==|  0.77858
USER: genes 12 Torsion [C]-N--CA-[C] |==|  0.57635
USER: genes 13 Torsion [N]-CA--C-[O] |==|  0.81203
USER: genes 14 Torsion [N]-CA--CB-[CG] |==|  0.75935
USER: genes 15 Torsion [CA]-CB--CG-[SD] |==|  0.28181
USER: genes 16 Torsion [CB]-CG--SD-[CE] |==|  0.08523
USER: genes 17 Torsion [N]-CA--CB-[CG] |==|  0.85506
USER: genes 18 Torsion [CA]-CB--CG-[OD1] |==|  0.88466
ROOT
ATOM      1  C   ASP D   0     -19.964 -18.422 -23.265  1.00 50.85 LIG 0.24  C 
ATOM      2 O    ASP D   0     -20.350 -19.112 -24.213  1.00 49.73 LIG-0.27  OA
ATOM      3  N   ASP D   1     -19.433 -17.203 -23.419  1.00 47.66 LIG-0.34  N 
ATOM      4 H    ASP D   1     -19.228 -16.686 -22.763  1.00 47.66 LIG 0.16  HD
ENDROOT
BRANCH 1 5
ATOM      5  CA  ASP D   0     -20.069 -18.964 -21.836  1.00 50.32 LIG 0.19  C 
BRANCH 5 6
ATOM      6  CB  ASP D   0     -20.422 -20.455 -21.882  1.00 50.50 LIG 0.15  C 
BRANCH 6 7
ATOM      7  CG  ASP D   0     -19.225 -21.334 -22.166  1.00 42.38 LIG 0.17  C 
ATOM      8 OD2  ASP D   0     -19.326 -22.563 -21.958  1.00 47.85 LIG-0.65  OA
ATOM      9 OD1  ASP D   0     -18.187 -20.799 -22.603  1.00 32.99 LIG-0.65  OA
ENDBRANCH 6 7
ENDBRANCH 5 6
BRANCH 5 10
ATOM     10  N   ASP D   0     -21.064 -18.257 -21.033  1.00 53.06 LIG-0.34  N 
ATOM     11 H    ASP D   0     -21.815 -18.135 -21.434  1.00 53.06 LIG 0.16  HD
ATOM     12  C   ASP D  -1     -20.821 -17.844 -19.790  1.00 52.15 LIG 0.25  C 
ATOM     13 O    ASP D  -1     -19.688 -17.803 -19.293  1.00 47.49 LIG-0.27  OA
BRANCH 12 14
ATOM     14  CA  ASP D  -1     -22.044 -17.402 -18.989  1.00 59.57 LIG 0.28  C 
BRANCH 14 15
ATOM     15  N   ASP D  -1     -22.885 -18.556 -18.683  1.00 50.06 LIG-0.07  N 
ATOM     16 H3   ASP D  -1     -23.406 -18.368 -17.987  1.00 50.06 LIG 0.28  HD
ATOM     17 H2   ASP D  -1     -22.370 -19.256 -18.487  1.00 50.06 LIG 0.28  HD
ATOM     18 H1   ASP D  -1     -23.391 -18.750 -19.389  1.00 50.06 LIG 0.28  HD
ENDBRANCH 14 15
BRANCH 14 19
ATOM     19  CB  ASP D  -1     -21.626 -16.684 -17.704  1.00 60.46 LIG 0.15  C 
BRANCH 19 20
ATOM     20  CG  ASP D  -1     -22.277 -17.269 -16.469  1.00 56.39 LIG 0.17  C 
ATOM     21 OD1  ASP D  -1     -23.487 -17.582 -16.528  1.00 65.47 LIG-0.65  OA
ATOM     22 OD2  ASP D  -1     -21.575 -17.428 -15.445  1.00 48.71 LIG-0.65  OA
ENDBRANCH 19 20
ENDBRANCH 14 19
ENDBRANCH 12 14
ENDBRANCH 5 10
ENDBRANCH 1 5
BRANCH 3 23
ATOM     23  CA  ASP D   1     -19.149 -16.631 -24.749  1.00 46.44 LIG 0.19  C 
BRANCH 23 24
ATOM     24  C   ASP D   1     -18.363 -17.602 -25.615  1.00 38.24 LIG 0.24  C 
ATOM     25 O    ASP D   1     -18.925 -18.246 -26.497  1.00 48.73 LIG-0.27  OA
ATOM     26  N   MET D   2     -17.057 -17.677 -25.392  1.00 47.06 LIG-0.35  N 
ATOM     27 H    MET D   2     -16.659 -17.325 -24.715  1.00 47.06 LIG 0.16  HD
BRANCH 26 28
ATOM     28  CA  MET D   2     -16.177 -18.391 -26.317  1.00 48.57 LIG 0.16  C 
BRANCH 28 29
ATOM     29  C   MET D   2     -14.933 -18.942 -25.631  1.00 49.60 LIG 0.22  C 
ATOM     30 O    MET D   2     -14.072 -18.178 -25.190  1.00 49.04 LIG-0.29  OA
ENDBRANCH 28 29
BRANCH 28 31
ATOM     31  CB  MET D   2     -15.774 -17.468 -27.474  1.00 43.71 LIG 0.04  C 
BRANCH 31 32
ATOM     32  CG  MET D   2     -16.744 -17.446 -28.635  1.00 45.96 LIG 0.08  C 
BRANCH 32 33
ATOM     33 SD   MET D   2     -17.794 -15.977 -28.601  1.00 73.43 LIG-0.17  SA
ATOM     34  CE  MET D   2     -16.688 -14.795 -27.829  1.00 57.46 LIG 0.09  C 
ENDBRANCH 32 33
ENDBRANCH 31 32
ENDBRANCH 28 31
ENDBRANCH 26 28
ENDBRANCH 23 24
BRANCH 23 35
ATOM     35  CB  ASP D   1     -18.336 -15.328 -24.658  1.00 44.28 LIG 0.15  C 
BRANCH 35 36
ATOM     36  CG  ASP D   1     -18.946 -14.300 -23.723  1.00 47.95 LIG 0.17  C 
ATOM     37 OD1  ASP D   1     -20.186 -14.124 -23.728  1.00 49.71 LIG-0.65  OA
ATOM     38 OD2  ASP D   1     -18.162 -13.657 -22.983  1.00 42.29 LIG-0.65  OA
ENDBRANCH 35 36
ENDBRANCH 23 35
ENDBRANCH 3 23
TORSDOF 17
ENDMDL
MODEL 10
USER: ADFR SOLUTION from run 130
USER: SCORE 12.204454 LL:  -2.419 LR: -10.317 RR:   0.000 FEB:  -5.246
USER: RMSD 2.628872
USER: SEED 129
USER: STATUS no improvement in best in 8 clusters for 5 generations
USER: GENES 19
USER: genes 0 Translation |==|  0.46799 0.47604 0.47061
USER: genes 1 Rotation |==|  0.40003 0.32877 0.68331 0.92082
USER: genes 2 Torsion [N]-C--CA-[N] |==|  0.13133
USER: genes 3 Torsion [C]-CA--CB-[CG] |==|  0.26644
USER: genes 4 Torsion [CA]-CB--CG-[OD2] |==|  0.53756
USER: genes 5 Torsion [C]-CA--N-[C] |==|  0.15276
USER: genes 6 Torsion [N]-C--CA-[N] |==|  0.60804
USER: genes 7 Torsion [C]-CA--N-[H3] |==|  0.14874
USER: genes 8 Torsion [C]-CA--CB-[CG] |==|  0.36766
USER: genes 9 Torsion [CA]-CB--CG-[OD2] |==|  0.55430
USER: genes 10 Torsion [C]-N--CA-[CB] |==|  0.55027
USER: genes 11 Torsion [N]-CA--C-[N] |==|  0.32503
USER: genes 12 Torsion [C]-N--CA-[C] |==|  0.72664
USER: genes 13 Torsion [N]-CA--C-[O] |==|  0.25047
USER: genes 14 Torsion [N]-CA--CB-[CG] |==|  0.81099
USER: genes 15 Torsion [CA]-CB--CG-[SD] |==|  0.79244
USER: genes 16 Torsion [CB]-CG--SD-[CE] |==|  0.21162
USER: genes 17 Torsion [N]-CA--CB-[CG] |==|  0.85443
USER: genes 18 Torsion [CA]-CB--CG-[OD1] |==|  0.99738
ROOT
ATOM      1  C   ASP D   0     -19.247 -18.591 -23.882  1.00 50.85 LIG 0.24  C 
ATOM      2 O    ASP D   0     -18.973 -19.230 -24.902  1.00 49.73 LIG-0.27  OA
ATOM      3  N   ASP D   1     -18.944 -17.297 -23.728  1.00 47.66 LIG-0.34  N 
ATOM      4 H    ASP D   1     -19.194 -16.826 -23.053  1.00 47.66 LIG 0.16  HD
ENDROOT
BRANCH 1 5
ATOM      5  CA  ASP D   0     -19.953 -19.288 -22.715  1.00 50.32 LIG 0.19  C 
BRANCH 5 6
ATOM      6  CB  ASP D   0     -20.456 -20.662 -23.171  1.00 50.50 LIG 0.15  C 
BRANCH 6 7
ATOM      7  CG  ASP D   0     -19.499 -21.782 -22.827  1.00 42.38 LIG 0.17  C 
ATOM      8 OD2  ASP D   0     -19.670 -22.899 -23.366  1.00 47.85 LIG-0.65  OA
ATOM      9 OD1  ASP D   0     -18.575 -21.547 -22.024  1.00 32.99 LIG-0.65  OA
ENDBRANCH 6 7
ENDBRANCH 5 6
BRANCH 5 10
ATOM     10  N   ASP D   0     -21.076 -18.516 -22.187  1.00 53.06 LIG-0.34  N 
ATOM     11 H    ASP D   0     -21.027 -18.361 -21.342  1.00 53.06 LIG 0.16  HD
ATOM     12  C   ASP D  -1     -22.080 -18.094 -22.954  1.00 52.15 LIG 0.25  C 
ATOM     13 O    ASP D  -1     -22.280 -18.504 -24.105  1.00 47.49 LIG-0.27  OA
BRANCH 12 14
ATOM     14  CA  ASP D  -1     -23.004 -17.056 -22.322  1.00 59.57 LIG 0.28  C 
BRANCH 14 15
ATOM     15  N   ASP D  -1     -24.389 -17.322 -22.704  1.00 50.06 LIG-0.07  N 
ATOM     16 H3   ASP D  -1     -24.594 -18.165 -22.507  1.00 50.06 LIG 0.28  HD
ATOM     17 H2   ASP D  -1     -24.486 -17.189 -23.579  1.00 50.06 LIG 0.28  HD
ATOM     18 H1   ASP D  -1     -24.930 -16.773 -22.259  1.00 50.06 LIG 0.28  HD
ENDBRANCH 14 15
BRANCH 14 19
ATOM     19  CB  ASP D  -1     -22.857 -17.049 -20.799  1.00 60.46 LIG 0.15  C 
BRANCH 19 20
ATOM     20  CG  ASP D  -1     -22.700 -15.653 -20.233  1.00 56.39 LIG 0.17  C 
ATOM     21 OD1  ASP D  -1     -23.080 -14.685 -20.928  1.00 65.47 LIG-0.65  OA
ATOM     22 OD2  ASP D  -1     -22.210 -15.527 -19.088  1.00 48.71 LIG-0.65  OA
ENDBRANCH 19 20
ENDBRANCH 14 19
ENDBRANCH 12 14
ENDBRANCH 5 10
ENDBRANCH 1 5
BRANCH 3 23
ATOM     23  CA  ASP D   1     -18.142 -16.554 -24.718  1.00 46.44 LIG 0.19  C 
BRANCH 23 24
ATOM     24  C   ASP D   1     -16.980 -17.389 -25.232  1.00 38.24 LIG 0.24  C 
ATOM     25 O    ASP D   1     -16.113 -17.792 -24.462  1.00 48.73 LIG-0.27  OA
ATOM     26  N   MET D   2     -16.984 -17.681 -26.527  1.00 47.06 LIG-0.35  N 
ATOM     27 H    MET D   2     -17.512 -17.324 -27.103  1.00 47.06 LIG 0.16  HD
BRANCH 26 28
ATOM     28  CA  MET D   2     -16.054 -18.668 -27.075  1.00 48.57 LIG 0.16  C 
BRANCH 28 29
ATOM     29  C   MET D   2     -14.829 -18.023 -27.712  1.00 49.60 LIG 0.22  C 
ATOM     30 O    MET D   2     -13.819 -17.803 -27.042  1.00 49.04 LIG-0.29  OA
ENDBRANCH 28 29
BRANCH 28 31
ATOM     31  CB  MET D   2     -16.774 -19.553 -28.101  1.00 43.71 LIG 0.04  C 
BRANCH 31 32
ATOM     32  CG  MET D   2     -17.825 -20.472 -27.517  1.00 45.96 LIG 0.08  C 
BRANCH 32 33
ATOM     33 SD   MET D   2     -17.082 -21.871 -26.649  1.00 73.43 LIG-0.17  SA
ATOM     34  CE  MET D   2     -16.548 -21.077 -25.132  1.00 57.46 LIG 0.09  C 
ENDBRANCH 32 33
ENDBRANCH 31 32
ENDBRANCH 28 31
ENDBRANCH 26 28
ENDBRANCH 23 24
BRANCH 23 35
ATOM     35  CB  ASP D   1     -17.558 -15.255 -24.134  1.00 44.28 LIG 0.15  C 
BRANCH 35 36
ATOM     36  CG  ASP D   1     -18.598 -14.367 -23.478  1.00 47.95 LIG 0.17  C 
ATOM     37 OD1  ASP D   1     -19.798 -14.726 -23.474  1.00 49.71 LIG-0.65  OA
ATOM     38 OD2  ASP D   1     -18.200 -13.290 -22.971  1.00 42.29 LIG-0.65  OA
ENDBRANCH 35 36
ENDBRANCH 23 35
ENDBRANCH 3 23
TORSDOF 17
ENDMDL
MODEL 11
USER: ADFR SOLUTION from run 54
USER: SCORE 10.959319 LL:  -2.787 LR: -10.291 RR:   0.000 FEB:  -5.220
USER: RMSD 4.404881
USER: SEED 53
USER: STATUS no improvement in best in 4 clusters for 5 generations
USER: GENES 19
USER: genes 0 Translation |==|  0.48576 0.47805 0.42848
USER: genes 1 Rotation |==|  0.63389 0.50277 0.62634 0.96487
USER: genes 2 Torsion [N]-C--CA-[N] |==|  0.31490
USER: genes 3 Torsion [C]-CA--CB-[CG] |==|  0.25016
USER: genes 4 Torsion [CA]-CB--CG-[OD2] |==|  0.12678
USER: genes 5 Torsion [C]-CA--N-[C] |==|  0.57380
USER: genes 6 Torsion [N]-C--CA-[N] |==|  0.04466
USER: genes 7 Torsion [C]-CA--N-[H3] |==|  0.16321
USER: genes 8 Torsion [C]-CA--CB-[CG] |==|  0.86188
USER: genes 9 Torsion [CA]-CB--CG-[OD2] |==|  0.89591
USER: genes 10 Torsion [C]-N--CA-[CB] |==|  0.44963
USER: genes 11 Torsion [N]-CA--C-[N] |==|  0.02809
USER: genes 12 Torsion [C]-N--CA-[C] |==|  0.73942
USER: genes 13 Torsion [N]-CA--C-[O] |==|  0.09795
USER: genes 14 Torsion [N]-CA--CB-[CG] |==|  0.71880
USER: genes 15 Torsion [CA]-CB--CG-[SD] |==|  0.28007
USER: genes 16 Torsion [CB]-CG--SD-[CE] |==|  0.48726
USER: genes 17 Torsion [N]-CA--CB-[CG] |==|  0.69060
USER: genes 18 Torsion [CA]-CB--CG-[OD1] |==|  0.06048
ROOT
ATOM      1  C   ASP D   0     -18.874 -18.557 -24.640  1.00 50.85 LIG 0.24  C 
ATOM      2 O    ASP D   0     -19.721 -18.418 -25.528  1.00 49.73 LIG-0.27  OA
ATOM      3  N   ASP D   1     -18.117 -17.549 -24.190  1.00 47.66 LIG-0.34  N 
ATOM      4 H    ASP D   1     -17.577 -17.619 -23.524  1.00 47.66 LIG 0.16  HD
ENDROOT
BRANCH 1 5
ATOM      5  CA  ASP D   0     -18.644 -19.937 -24.017  1.00 50.32 LIG 0.19  C 
BRANCH 5 6
ATOM      6  CB  ASP D   0     -18.342 -20.952 -25.125  1.00 50.50 LIG 0.15  C 
BRANCH 6 7
ATOM      7  CG  ASP D   0     -16.866 -21.064 -25.433  1.00 42.38 LIG 0.17  C 
ATOM      8 OD2  ASP D   0     -16.062 -21.147 -24.478  1.00 47.85 LIG-0.65  OA
ATOM      9 OD1  ASP D   0     -16.509 -21.074 -26.628  1.00 32.99 LIG-0.65  OA
ENDBRANCH 6 7
ENDBRANCH 5 6
BRANCH 5 10
ATOM     10  N   ASP D   0     -19.787 -20.404 -23.234  1.00 53.06 LIG-0.34  N 
ATOM     11 H    ASP D   0     -20.541 -20.075 -23.486  1.00 53.06 LIG 0.16  HD
ATOM     12  C   ASP D  -1     -19.661 -21.263 -22.223  1.00 52.15 LIG 0.25  C 
ATOM     13 O    ASP D  -1     -18.575 -21.555 -21.706  1.00 47.49 LIG-0.27  OA
BRANCH 12 14
ATOM     14  CA  ASP D  -1     -20.962 -21.878 -21.713  1.00 59.57 LIG 0.28  C 
BRANCH 14 15
ATOM     15  N   ASP D  -1     -22.027 -21.677 -22.692  1.00 50.06 LIG-0.07  N 
ATOM     16 H3   ASP D  -1     -21.793 -22.050 -23.466  1.00 50.06 LIG 0.28  HD
ATOM     17 H2   ASP D  -1     -22.160 -20.805 -22.812  1.00 50.06 LIG 0.28  HD
ATOM     18 H1   ASP D  -1     -22.777 -22.054 -22.397  1.00 50.06 LIG 0.28  HD
ENDBRANCH 14 15
BRANCH 14 19
ATOM     19  CB  ASP D  -1     -20.781 -23.366 -21.411  1.00 60.46 LIG 0.15  C 
BRANCH 19 20
ATOM     20  CG  ASP D  -1     -20.128 -24.120 -22.549  1.00 56.39 LIG 0.17  C 
ATOM     21 OD1  ASP D  -1     -19.325 -25.038 -22.270  1.00 65.47 LIG-0.65  OA
ATOM     22 OD2  ASP D  -1     -20.428 -23.803 -23.723  1.00 48.71 LIG-0.65  OA
ENDBRANCH 19 20
ENDBRANCH 14 19
ENDBRANCH 12 14
ENDBRANCH 5 10
ENDBRANCH 1 5
BRANCH 3 23
ATOM     23  CA  ASP D   1     -18.144 -16.209 -24.806  1.00 46.44 LIG 0.19  C 
BRANCH 23 24
ATOM     24  C   ASP D   1     -17.350 -16.177 -26.102  1.00 38.24 LIG 0.24  C 
ATOM     25 O    ASP D   1     -17.075 -15.108 -26.638  1.00 48.73 LIG-0.27  OA
ATOM     26  N   MET D   2     -16.948 -17.347 -26.584  1.00 47.06 LIG-0.35  N 
ATOM     27 H    MET D   2     -17.217 -18.110 -26.293  1.00 47.06 LIG 0.16  HD
BRANCH 26 28
ATOM     28  CA  MET D   2     -15.984 -17.415 -27.681  1.00 48.57 LIG 0.16  C 
BRANCH 28 29
ATOM     29  C   MET D   2     -16.659 -17.516 -29.044  1.00 49.60 LIG 0.22  C 
ATOM     30 O    MET D   2     -17.719 -16.927 -29.262  1.00 49.04 LIG-0.29  OA
ENDBRANCH 28 29
BRANCH 28 31
ATOM     31  CB  MET D   2     -15.037 -18.604 -27.475  1.00 43.71 LIG 0.04  C 
BRANCH 31 32
ATOM     32  CG  MET D   2     -13.675 -18.240 -26.925  1.00 45.96 LIG 0.08  C 
BRANCH 32 33
ATOM     33 SD   MET D   2     -13.559 -18.570 -25.153  1.00 73.43 LIG-0.17  SA
ATOM     34  CE  MET D   2     -11.835 -18.179 -24.853  1.00 57.46 LIG 0.09  C 
ENDBRANCH 32 33
ENDBRANCH 31 32
ENDBRANCH 28 31
ENDBRANCH 26 28
ENDBRANCH 23 24
BRANCH 23 35
ATOM     35  CB  ASP D   1     -17.559 -15.131 -23.877  1.00 44.28 LIG 0.15  C 
BRANCH 35 36
ATOM     36  CG  ASP D   1     -18.596 -14.148 -23.365  1.00 47.95 LIG 0.17  C 
ATOM     37 OD1  ASP D   1     -19.804 -14.478 -23.358  1.00 49.71 LIG-0.65  OA
ATOM     38 OD2  ASP D   1     -18.185 -13.027 -22.978  1.00 42.29 LIG-0.65  OA
ENDBRANCH 35 36
ENDBRANCH 23 35
ENDBRANCH 3 23
TORSDOF 17
ENDMDL
