MODEL 1
USER: ADFR SOLUTION from run 47
USER: SCORE 21.586281 LL:  -3.972 LR: -20.144 RR:   0.000 FEB: -13.880
USER: RMSD 2.422580
USER: SEED 46
USER: STATUS no improvement in best in 8 clusters for 5 generations
USER: GENES 23
USER: genes 0 Translation |==|  0.38225 0.55408 0.58570
USER: genes 1 Rotation |==|  0.52238 0.51574 0.41289 0.99159
USER: genes 2 Torsion [C]-N--CA-[CB] |==|  0.48340
USER: genes 3 Torsion [N]-CA--CB-[CG] |==|  0.71164
USER: genes 4 Torsion [CA]-CB--CG-[CD1] |==|  0.63040
USER: genes 5 Torsion [N]-CA--C-[N] |==|  0.57729
USER: genes 6 Torsion [C]-N--CA-[CB] |==|  0.84967
USER: genes 7 Torsion [N]-CA--C-[N] |==|  0.53171
USER: genes 8 Torsion [C]-N--CA-[C] |==|  0.76516
USER: genes 9 Torsion [N]-CA--C-[N] |==|  0.46627
USER: genes 10 Torsion [N]-CA--CB-[CG] |==|  0.20624
USER: genes 11 Torsion [CA]-CB--CG-[CD2] |==|  0.42036
USER: genes 12 Torsion [N]-C--CA-[N] |==|  0.41826
USER: genes 13 Torsion [C]-CA--N-[C] |==|  0.55556
USER: genes 14 Torsion [N]-C--CA-[N] |==|  0.45241
USER: genes 15 Torsion [C]-CA--CB-[CG] |==|  0.84485
USER: genes 16 Torsion [CA]-CB--CG-[CD] |==|  0.44113
USER: genes 17 Torsion [CB]-CG--CD-[OE1] |==|  0.37919
USER: genes 18 Torsion [C]-CA--N-[C] |==|  0.60685
USER: genes 19 Torsion [N]-C--CA-[N] |==|  0.53696
USER: genes 20 Torsion [C]-CA--N-[C] |==|  0.21242
USER: genes 21 Torsion [N]-C--CA-[N] |==|  0.97780
USER: genes 22 Torsion [C]-CA--N-[C] |==|  0.72778
ROOT
ATOM      1  C   ALA B   4     -13.620 -13.769  18.239  1.00 18.54 LIG 0.24  C 
ATOM      2 O    ALA B   4     -12.971 -13.022  18.999  1.00 17.25 LIG-0.27  OA
ATOM      3  N   LEU B   5     -14.595 -14.596  18.636  1.00 18.87 LIG-0.35  N 
ATOM      4 H    LEU B   5     -15.126 -15.014  18.103  1.00 18.87 LIG 0.16  HD
ENDROOT
BRANCH 3 5
ATOM      5  CA  LEU B   5     -14.829 -14.853  20.071  1.00 18.34 LIG 0.18  C 
BRANCH 5 6
ATOM      6  CB  LEU B   5     -16.075 -15.701  20.240  1.00 23.26 LIG 0.04  C 
BRANCH 6 7
ATOM      7  CG  LEU B   5     -17.311 -14.952  20.715  1.00 28.17 LIG-0.02  C 
ATOM      8  CD1 LEU B   5     -17.956 -15.752  21.851  1.00 29.22 LIG 0.01  C 
ATOM      9  CD2 LEU B   5     -16.982 -13.541  21.175  1.00 30.00 LIG 0.01  C 
ENDBRANCH 6 7
ENDBRANCH 5 6
BRANCH 5 10
ATOM     10  C   LEU B   5     -13.639 -15.583  20.671  1.00 16.86 LIG 0.24  C 
ATOM     11 O    LEU B   5     -12.557 -15.489  20.175  1.00 19.60 LIG-0.27  OA
ATOM     12  N   ALA B   6     -13.878 -16.368  21.718  1.00 16.13 LIG-0.35  N 
ATOM     13 H    ALA B   6     -14.652 -16.437  22.085  1.00 16.13 LIG 0.16  HD
BRANCH 12 14
ATOM     14  CA  ALA B   6     -12.850 -17.198  22.356  1.00 17.44 LIG 0.17  C 
ATOM     15  CB  ALA B   6     -12.199 -18.074  21.293  1.00 18.99 LIG 0.04  C 
BRANCH 14 16
ATOM     16  C   ALA B   6     -11.776 -16.332  23.019  1.00 24.46 LIG 0.24  C 
ATOM     17 O    ALA B   6     -11.932 -15.117  23.078  1.00 27.52 LIG-0.27  OA
ATOM     18  N   TRP B   7     -10.650 -16.909  23.445  1.00 32.31 LIG-0.35  N 
ATOM     19 H    TRP B   7     -10.522 -17.757  23.516  1.00 32.31 LIG 0.16  HD
BRANCH 18 20
ATOM     20  CA  TRP B   7      -9.485 -16.033  23.846  1.00 35.59 LIG 0.18  C 
BRANCH 20 21
ATOM     21  C   TRP B   7      -8.551 -15.557  22.736  1.00 36.87 LIG 0.25  C 
ATOM     22 N    NH2 B   8      -7.618 -14.530  23.050  1.00 48.35 LIG-0.06  NA
ATOM     23 O    TRP B   7      -8.582 -16.060  21.624  1.00 43.64 LIG-0.28  OA
ENDBRANCH 20 21
BRANCH 20 24
ATOM     24  CB  TRP B   7      -8.652 -16.702  24.925  1.00 36.27 LIG 0.07  C 
BRANCH 24 25
ATOM     25  CG  TRP B   7      -7.806 -17.826  24.427  1.00 35.16 LIG-0.03  A 
ATOM     26  CD2 TRP B   7      -6.563 -18.268  24.970  1.00 33.00 LIG-0.00  A 
ATOM     27  CE3 TRP B   7      -5.758 -17.840  26.036  1.00 33.14 LIG 0.01  A 
ATOM     28  CE2 TRP B   7      -6.131 -19.358  24.183  1.00 37.76 LIG 0.04  A 
ATOM     29  CZ3 TRP B   7      -4.569 -18.522  26.289  1.00 39.74 LIG 0.00  A 
ATOM     30  CH2 TRP B   7      -4.165 -19.611  25.485  1.00 37.98 LIG 0.00  A 
ATOM     31  CZ2 TRP B   7      -4.917 -20.034  24.425  1.00 35.74 LIG 0.03  A 
ATOM     32  NE1 TRP B   7      -7.079 -19.559  23.213  1.00 36.87 LIG-0.36  N 
ATOM     33  CD1 TRP B   7      -8.074 -18.628  23.363  1.00 32.46 LIG 0.10  A 
ATOM     34 HE1  TRP B   7      -7.054 -20.169  22.609  1.00 36.87 LIG 0.17  HD
ENDBRANCH 24 25
ENDBRANCH 20 24
ENDBRANCH 18 20
ENDBRANCH 14 16
ENDBRANCH 12 14
ENDBRANCH 5 10
ENDBRANCH 3 5
BRANCH 1 35
ATOM     35  CA  ALA B   4     -13.351 -13.779  16.763  1.00 18.93 LIG 0.17  C 
ATOM     36  CB  ALA B   4     -12.361 -14.875  16.436  1.00 20.14 LIG 0.04  C 
BRANCH 35 37
ATOM     37  N   ALA B   4     -12.858 -12.493  16.320  1.00 16.93 LIG-0.35  N 
ATOM     38  C   GLU B   3     -12.919 -12.129  15.045  1.00 16.00 LIG 0.24  C 
ATOM     39 O    GLU B   3     -13.456 -12.808  14.186  1.00 18.04 LIG-0.27  OA
ATOM     40 H    ALA B   4     -12.529 -12.002  16.945  1.00 16.93 LIG 0.16  HD
BRANCH 38 41
ATOM     41  CA  GLU B   3     -12.293 -10.781  14.695  1.00 15.64 LIG 0.18  C 
BRANCH 41 42
ATOM     42  CB  GLU B   3     -13.164  -9.599  15.174  1.00 16.94 LIG 0.04  C 
BRANCH 42 43
ATOM     43  CG  GLU B   3     -14.581  -9.642  14.645  1.00 17.50 LIG 0.12  C 
BRANCH 43 44
ATOM     44  CD  GLU B   3     -15.594  -8.844  15.438  1.00 19.64 LIG 0.17  C 
ATOM     45 OE1  GLU B   3     -16.416  -8.153  14.800  1.00 22.12 LIG-0.65  OA
ATOM     46 OE2  GLU B   3     -15.575  -8.899  16.680  1.00 20.68 LIG-0.65  OA
ENDBRANCH 43 44
ENDBRANCH 42 43
ENDBRANCH 41 42
BRANCH 41 47
ATOM     47  N   GLU B   3     -12.082 -10.732  13.238  1.00 14.76 LIG-0.35  N 
ATOM     48 H    GLU B   3     -12.719 -11.096  12.789  1.00 14.76 LIG 0.16  HD
ATOM     49  C   GLY B   2     -11.023 -10.186  12.665  1.00 15.24 LIG 0.24  C 
ATOM     50 O    GLY B   2     -10.120  -9.655  13.298  1.00 16.96 LIG-0.27  OA
BRANCH 49 51
ATOM     51  CA  GLY B   2     -10.984 -10.237  11.136  1.00 16.40 LIG 0.23  C 
BRANCH 51 52
ATOM     52  N   GLY B   2      -9.666  -9.905  10.551  1.00 16.09 LIG-0.35  N 
ATOM     53 H    GLY B   2      -9.621  -9.115  10.214  1.00 16.09 LIG 0.16  HD
ATOM     54  C   GLY B   1      -8.653 -10.757  10.553  1.00 19.38 LIG 0.23  C 
ATOM     55 O    GLY B   1      -8.860 -11.906  11.050  1.00 21.51 LIG-0.27  OA
BRANCH 54 56
ATOM     56  CA  GLY B   1      -7.390 -10.754   9.896  1.00 21.19 LIG 0.23  C 
BRANCH 56 57
ATOM     57  N   GLY B   1      -7.786  -9.603   9.134  1.00 20.21 LIG-0.35  N 
ATOM     58  C   ACE B   0      -8.258  -9.698   7.880  1.00 20.42 LIG 0.21  C 
ATOM     59 O    ACE B   0      -8.707 -10.728   7.474  1.00 26.00 LIG-0.27  OA
ATOM     60  CH3 ACE B   0      -8.286  -8.496   6.974  1.00 26.85 LIG 0.12  C 
ATOM     61 H    GLY B   1      -7.693  -8.857   9.551  1.00 20.21 LIG 0.16  HD
ENDBRANCH 56 57
ENDBRANCH 54 56
ENDBRANCH 51 52
ENDBRANCH 49 51
ENDBRANCH 41 47
ENDBRANCH 38 41
ENDBRANCH 35 37
ENDBRANCH 1 35
TORSDOF 21
ENDMDL
MODEL 2
USER: ADFR SOLUTION from run 66
USER: SCORE 22.859778 LL:  -4.765 LR: -19.833 RR:   0.000 FEB: -13.569
USER: RMSD 3.299810
USER: SEED 65
USER: STATUS searching
USER: GENES 23
USER: genes 0 Translation |==|  0.37886 0.55446 0.58321
USER: genes 1 Rotation |==|  0.52556 0.51216 0.41226 0.99143
USER: genes 2 Torsion [C]-N--CA-[CB] |==|  0.50301
USER: genes 3 Torsion [N]-CA--CB-[CG] |==|  0.71178
USER: genes 4 Torsion [CA]-CB--CG-[CD1] |==|  0.61532
USER: genes 5 Torsion [N]-CA--C-[N] |==|  0.34455
USER: genes 6 Torsion [C]-N--CA-[CB] |==|  0.84314
USER: genes 7 Torsion [N]-CA--C-[N] |==|  0.98331
USER: genes 8 Torsion [C]-N--CA-[C] |==|  0.64726
USER: genes 9 Torsion [N]-CA--C-[N] |==|  0.06880
USER: genes 10 Torsion [N]-CA--CB-[CG] |==|  0.73819
USER: genes 11 Torsion [CA]-CB--CG-[CD2] |==|  0.64756
USER: genes 12 Torsion [N]-C--CA-[N] |==|  0.41502
USER: genes 13 Torsion [C]-CA--N-[C] |==|  0.54081
USER: genes 14 Torsion [N]-C--CA-[N] |==|  0.47099
USER: genes 15 Torsion [C]-CA--CB-[CG] |==|  0.84611
USER: genes 16 Torsion [CA]-CB--CG-[CD] |==|  0.44849
USER: genes 17 Torsion [CB]-CG--CD-[OE1] |==|  0.37305
USER: genes 18 Torsion [C]-CA--N-[C] |==|  0.61408
USER: genes 19 Torsion [N]-C--CA-[N] |==|  0.54180
USER: genes 20 Torsion [C]-CA--N-[C] |==|  0.20609
USER: genes 21 Torsion [N]-C--CA-[N] |==|  0.98910
USER: genes 22 Torsion [C]-CA--N-[C] |==|  0.73333
ROOT
ATOM      1  C   ALA B   4     -13.691 -13.761  18.172  1.00 18.54 LIG 0.24  C 
ATOM      2 O    ALA B   4     -13.052 -13.024  18.949  1.00 17.25 LIG-0.27  OA
ATOM      3  N   LEU B   5     -14.676 -14.589  18.544  1.00 18.87 LIG-0.35  N 
ATOM      4 H    LEU B   5     -15.199 -14.999  17.999  1.00 18.87 LIG 0.16  HD
ENDROOT
BRANCH 3 5
ATOM      5  CA  LEU B   5     -14.933 -14.859  19.973  1.00 18.34 LIG 0.18  C 
BRANCH 5 6
ATOM      6  CB  LEU B   5     -16.079 -15.844  20.106  1.00 23.26 LIG 0.04  C 
BRANCH 6 7
ATOM      7  CG  LEU B   5     -17.411 -15.238  20.524  1.00 28.17 LIG-0.02  C 
ATOM      8  CD1 LEU B   5     -18.067 -16.171  21.547  1.00 29.22 LIG 0.01  C 
ATOM      9  CD2 LEU B   5     -17.248 -13.842  21.100  1.00 30.00 LIG 0.01  C 
ENDBRANCH 6 7
ENDBRANCH 5 6
BRANCH 5 10
ATOM     10  C   LEU B   5     -13.691 -15.441  20.626  1.00 16.86 LIG 0.24  C 
ATOM     11 O    LEU B   5     -13.214 -16.458  20.223  1.00 19.60 LIG-0.27  OA
ATOM     12  N   ALA B   6     -13.213 -14.803  21.691  1.00 16.13 LIG-0.35  N 
ATOM     13 H    ALA B   6     -13.547 -14.066  21.985  1.00 16.13 LIG 0.16  HD
BRANCH 12 14
ATOM     14  CA  ALA B   6     -12.072 -15.284  22.477  1.00 17.44 LIG 0.17  C 
ATOM     15  CB  ALA B   6     -12.374 -16.696  22.963  1.00 18.99 LIG 0.04  C 
BRANCH 14 16
ATOM     16  C   ALA B   6     -10.794 -15.307  21.634  1.00 24.46 LIG 0.24  C 
ATOM     17 O    ALA B   6      -9.714 -15.503  22.182  1.00 27.52 LIG-0.27  OA
ATOM     18  N   TRP B   7     -10.872 -15.030  20.331  1.00 32.31 LIG-0.35  N 
ATOM     19 H    TRP B   7     -11.600 -14.976  19.877  1.00 32.31 LIG 0.16  HD
BRANCH 18 20
ATOM     20  CA  TRP B   7      -9.596 -14.783  19.558  1.00 35.59 LIG 0.18  C 
BRANCH 20 21
ATOM     21  C   TRP B   7      -9.505 -13.492  18.749  1.00 36.87 LIG 0.25  C 
ATOM     22 N    NH2 B   8     -10.310 -12.394  19.161  1.00 48.35 LIG-0.06  NA
ATOM     23 O    TRP B   7      -8.743 -13.392  17.799  1.00 43.64 LIG-0.28  OA
ENDBRANCH 20 21
BRANCH 20 24
ATOM     24  CB  TRP B   7      -9.287 -15.953  18.640  1.00 36.27 LIG 0.07  C 
BRANCH 24 25
ATOM     25  CG  TRP B   7      -8.364 -16.963  19.236  1.00 35.16 LIG-0.03  A 
ATOM     26  CD2 TRP B   7      -7.155 -17.459  18.666  1.00 33.00 LIG-0.00  A 
ATOM     27  CE3 TRP B   7      -6.478 -17.226  17.459  1.00 33.14 LIG 0.01  A 
ATOM     28  CE2 TRP B   7      -6.613 -18.387  19.583  1.00 37.76 LIG 0.04  A 
ATOM     29  CZ3 TRP B   7      -5.286 -17.907  17.220  1.00 39.74 LIG 0.00  A 
ATOM     30  CH2 TRP B   7      -4.769 -18.829  18.159  1.00 37.98 LIG 0.00  A 
ATOM     31  CZ2 TRP B   7      -5.419 -19.094  19.331  1.00 35.74 LIG 0.03  A 
ATOM     32  NE1 TRP B   7      -7.465 -18.439  20.656  1.00 36.87 LIG-0.36  N 
ATOM     33  CD1 TRP B   7      -8.516 -17.588  20.433  1.00 32.46 LIG 0.10  A 
ATOM     34 HE1  TRP B   7      -7.357 -18.927  21.356  1.00 36.87 LIG 0.17  HD
ENDBRANCH 24 25
ENDBRANCH 20 24
ENDBRANCH 18 20
ENDBRANCH 14 16
ENDBRANCH 12 14
ENDBRANCH 5 10
ENDBRANCH 3 5
BRANCH 1 35
ATOM     35  CA  ALA B   4     -13.399 -13.757  16.700  1.00 18.93 LIG 0.17  C 
ATOM     36  CB  ALA B   4     -12.386 -14.835  16.382  1.00 20.14 LIG 0.04  C 
BRANCH 35 37
ATOM     37  N   ALA B   4     -12.919 -12.461  16.273  1.00 16.93 LIG-0.35  N 
ATOM     38  C   GLU B   3     -12.870 -12.129  14.988  1.00 16.00 LIG 0.24  C 
ATOM     39 O    GLU B   3     -13.290 -12.852  14.100  1.00 18.04 LIG-0.27  OA
ATOM     40 H    ALA B   4     -12.676 -11.941  16.914  1.00 16.93 LIG 0.16  HD
BRANCH 38 41
ATOM     41  CA  GLU B   3     -12.270 -10.762  14.665  1.00 15.64 LIG 0.18  C 
BRANCH 41 42
ATOM     42  CB  GLU B   3     -13.161  -9.608  15.174  1.00 16.94 LIG 0.04  C 
BRANCH 42 43
ATOM     43  CG  GLU B   3     -14.583  -9.672  14.659  1.00 17.50 LIG 0.12  C 
BRANCH 43 44
ATOM     44  CD  GLU B   3     -15.592  -8.858  15.441  1.00 19.64 LIG 0.17  C 
ATOM     45 OE1  GLU B   3     -16.397  -8.156  14.793  1.00 22.12 LIG-0.65  OA
ATOM     46 OE2  GLU B   3     -15.588  -8.913  16.683  1.00 20.68 LIG-0.65  OA
ENDBRANCH 43 44
ENDBRANCH 42 43
ENDBRANCH 41 42
BRANCH 41 47
ATOM     47  N   GLU B   3     -12.068 -10.677  13.209  1.00 14.76 LIG-0.35  N 
ATOM     48 H    GLU B   3     -12.718 -11.012  12.755  1.00 14.76 LIG 0.16  HD
ATOM     49  C   GLY B   2     -10.999 -10.144  12.643  1.00 15.24 LIG 0.24  C 
ATOM     50 O    GLY B   2     -10.078  -9.655  13.284  1.00 16.96 LIG-0.27  OA
BRANCH 49 51
ATOM     51  CA  GLY B   2     -10.971 -10.153  11.114  1.00 16.40 LIG 0.23  C 
BRANCH 51 52
ATOM     52  N   GLY B   2      -9.640  -9.879  10.529  1.00 16.09 LIG-0.35  N 
ATOM     53 H    GLY B   2      -9.562  -9.094  10.186  1.00 16.09 LIG 0.16  HD
ATOM     54  C   GLY B   1      -8.663 -10.772  10.537  1.00 19.38 LIG 0.23  C 
ATOM     55 O    GLY B   1      -8.918 -11.907  11.042  1.00 21.51 LIG-0.27  OA
BRANCH 54 56
ATOM     56  CA  GLY B   1      -7.399 -10.825   9.883  1.00 21.19 LIG 0.23  C 
BRANCH 56 57
ATOM     57  N   GLY B   1      -7.706  -9.607   9.187  1.00 20.21 LIG-0.35  N 
ATOM     58  C   ACE B   0      -8.214  -9.597   7.944  1.00 20.42 LIG 0.21  C 
ATOM     59 O    ACE B   0      -8.766 -10.562   7.503  1.00 26.00 LIG-0.27  OA
ATOM     60  CH3 ACE B   0      -8.153  -8.355   7.095  1.00 26.85 LIG 0.12  C 
ATOM     61 H    GLY B   1      -7.535  -8.894   9.635  1.00 20.21 LIG 0.16  HD
ENDBRANCH 56 57
ENDBRANCH 54 56
ENDBRANCH 51 52
ENDBRANCH 49 51
ENDBRANCH 41 47
ENDBRANCH 38 41
ENDBRANCH 35 37
ENDBRANCH 1 35
TORSDOF 21
ENDMDL
MODEL 3
USER: ADFR SOLUTION from run 11
USER: SCORE 21.846998 LL:  -4.262 LR: -19.765 RR:   0.000 FEB: -13.501
USER: RMSD 3.190928
USER: SEED 899943
USER: STATUS no improvement in best in 5 clusters for 5 generations
USER: GENES 23
USER: genes 0 Translation |==|  0.38396 0.55802 0.58296
USER: genes 1 Rotation |==|  0.50991 0.46286 0.44332 0.99529
USER: genes 2 Torsion [C]-N--CA-[CB] |==|  0.36873
USER: genes 3 Torsion [N]-CA--CB-[CG] |==|  0.51136
USER: genes 4 Torsion [CA]-CB--CG-[CD1] |==|  0.30686
USER: genes 5 Torsion [N]-CA--C-[N] |==|  0.90234
USER: genes 6 Torsion [C]-N--CA-[CB] |==|  0.56642
USER: genes 7 Torsion [N]-CA--C-[N] |==|  0.37230
USER: genes 8 Torsion [C]-N--CA-[C] |==|  0.66250
USER: genes 9 Torsion [N]-CA--C-[N] |==|  0.35088
USER: genes 10 Torsion [N]-CA--CB-[CG] |==|  0.75892
USER: genes 11 Torsion [CA]-CB--CG-[CD2] |==|  0.81568
USER: genes 12 Torsion [N]-C--CA-[N] |==|  0.41653
USER: genes 13 Torsion [C]-CA--N-[C] |==|  0.61310
USER: genes 14 Torsion [N]-C--CA-[N] |==|  0.43333
USER: genes 15 Torsion [C]-CA--CB-[CG] |==|  0.84983
USER: genes 16 Torsion [CA]-CB--CG-[CD] |==|  0.44665
USER: genes 17 Torsion [CB]-CG--CD-[OE1] |==|  0.36133
USER: genes 18 Torsion [C]-CA--N-[C] |==|  0.61873
USER: genes 19 Torsion [N]-C--CA-[N] |==|  0.53257
USER: genes 20 Torsion [C]-CA--N-[C] |==|  0.21228
USER: genes 21 Torsion [N]-C--CA-[N] |==|  0.98477
USER: genes 22 Torsion [C]-CA--N-[C] |==|  0.73342
ROOT
ATOM      1  C   ALA B   4     -13.584 -13.687  18.165  1.00 18.54 LIG 0.24  C 
ATOM      2 O    ALA B   4     -13.190 -12.815  18.965  1.00 17.25 LIG-0.27  OA
ATOM      3  N   LEU B   5     -14.528 -14.597  18.435  1.00 18.87 LIG-0.35  N 
ATOM      4 H    LEU B   5     -14.889 -15.112  17.849  1.00 18.87 LIG 0.16  HD
ENDROOT
BRANCH 3 5
ATOM      5  CA  LEU B   5     -15.027 -14.778  19.813  1.00 18.34 LIG 0.18  C 
BRANCH 5 6
ATOM      6  CB  LEU B   5     -16.544 -14.817  19.804  1.00 23.26 LIG 0.04  C 
BRANCH 6 7
ATOM      7  CG  LEU B   5     -17.199 -14.903  21.174  1.00 28.17 LIG-0.02  C 
ATOM      8  CD1 LEU B   5     -17.901 -13.571  21.460  1.00 29.22 LIG 0.01  C 
ATOM      9  CD2 LEU B   5     -18.184 -16.057  21.266  1.00 30.00 LIG 0.01  C 
ENDBRANCH 6 7
ENDBRANCH 5 6
BRANCH 5 10
ATOM     10  C   LEU B   5     -14.495 -16.078  20.394  1.00 16.86 LIG 0.24  C 
ATOM     11 O    LEU B   5     -14.167 -16.140  21.540  1.00 19.60 LIG-0.27  OA
ATOM     12  N   ALA B   6     -14.357 -17.102  19.555  1.00 16.13 LIG-0.35  N 
ATOM     13 H    ALA B   6     -14.597 -17.067  18.730  1.00 16.13 LIG 0.16  HD
BRANCH 12 14
ATOM     14  CA  ALA B   6     -13.783 -18.394  19.947  1.00 17.44 LIG 0.17  C 
ATOM     15  CB  ALA B   6     -13.235 -19.082  18.703  1.00 18.99 LIG 0.04  C 
BRANCH 14 16
ATOM     16  C   ALA B   6     -12.649 -18.209  20.959  1.00 24.46 LIG 0.24  C 
ATOM     17 O    ALA B   6     -11.754 -17.405  20.722  1.00 27.52 LIG-0.27  OA
ATOM     18  N   TRP B   7     -12.613 -18.989  22.041  1.00 32.31 LIG-0.35  N 
ATOM     19 H    TRP B   7     -13.252 -19.500  22.307  1.00 32.31 LIG 0.16  HD
BRANCH 18 20
ATOM     20  CA  TRP B   7     -11.364 -19.001  22.893  1.00 35.59 LIG 0.18  C 
BRANCH 20 21
ATOM     21  C   TRP B   7     -10.660 -20.342  23.087  1.00 36.87 LIG 0.25  C 
ATOM     22 N    NH2 B   8      -9.274 -20.414  22.771  1.00 48.35 LIG-0.06  NA
ATOM     23 O    TRP B   7     -11.256 -21.312  23.528  1.00 43.64 LIG-0.28  OA
ENDBRANCH 20 21
BRANCH 20 24
ATOM     24  CB  TRP B   7     -11.637 -18.395  24.259  1.00 36.27 LIG 0.07  C 
BRANCH 24 25
ATOM     25  CG  TRP B   7     -11.480 -16.912  24.306  1.00 35.16 LIG-0.03  A 
ATOM     26  CD2 TRP B   7     -10.272 -16.173  24.141  1.00 33.00 LIG-0.00  A 
ATOM     27  CE3 TRP B   7      -8.933 -16.529  23.924  1.00 33.14 LIG 0.01  A 
ATOM     28  CE2 TRP B   7     -10.604 -14.805  24.255  1.00 37.76 LIG 0.04  A 
ATOM     29  CZ3 TRP B   7      -7.983 -15.516  23.811  1.00 39.74 LIG 0.00  A 
ATOM     30  CH2 TRP B   7      -8.347 -14.155  23.928  1.00 37.98 LIG 0.00  A 
ATOM     31  CZ2 TRP B   7      -9.639 -13.780  24.164  1.00 35.74 LIG 0.03  A 
ATOM     32  NE1 TRP B   7     -11.955 -14.733  24.477  1.00 36.87 LIG-0.36  N 
ATOM     33  CD1 TRP B   7     -12.469 -16.003  24.515  1.00 32.46 LIG 0.10  A 
ATOM     34 HE1  TRP B   7     -12.407 -14.008  24.576  1.00 36.87 LIG 0.17  HD
ENDBRANCH 24 25
ENDBRANCH 20 24
ENDBRANCH 18 20
ENDBRANCH 14 16
ENDBRANCH 12 14
ENDBRANCH 5 10
ENDBRANCH 3 5
BRANCH 1 35
ATOM     35  CA  ALA B   4     -13.015 -13.767  16.779  1.00 18.93 LIG 0.17  C 
ATOM     36  CB  ALA B   4     -11.858 -14.743  16.763  1.00 20.14 LIG 0.04  C 
BRANCH 35 37
ATOM     37  N   ALA B   4     -12.590 -12.463  16.319  1.00 16.93 LIG-0.35  N 
ATOM     38  C   GLU B   3     -12.806 -12.064  15.071  1.00 16.00 LIG 0.24  C 
ATOM     39 O    GLU B   3     -13.434 -12.727  14.262  1.00 18.04 LIG-0.27  OA
ATOM     40 H    ALA B   4     -12.196 -11.985  16.915  1.00 16.93 LIG 0.16  HD
BRANCH 38 41
ATOM     41  CA  GLU B   3     -12.240 -10.698  14.690  1.00 15.64 LIG 0.18  C 
BRANCH 41 42
ATOM     42  CB  GLU B   3     -13.154  -9.545  15.158  1.00 16.94 LIG 0.04  C 
BRANCH 42 43
ATOM     43  CG  GLU B   3     -14.585  -9.678  14.683  1.00 17.50 LIG 0.12  C 
BRANCH 43 44
ATOM     44  CD  GLU B   3     -15.602  -8.866  15.455  1.00 19.64 LIG 0.17  C 
ATOM     45 OE1  GLU B   3     -16.395  -8.156  14.800  1.00 22.12 LIG-0.65  OA
ATOM     46 OE2  GLU B   3     -15.617  -8.929  16.696  1.00 20.68 LIG-0.65  OA
ENDBRANCH 43 44
ENDBRANCH 42 43
ENDBRANCH 41 42
BRANCH 41 47
ATOM     47  N   GLU B   3     -12.049 -10.667  13.230  1.00 14.76 LIG-0.35  N 
ATOM     48 H    GLU B   3     -12.704 -11.014  12.793  1.00 14.76 LIG 0.16  HD
ATOM     49  C   GLY B   2     -10.981 -10.161  12.637  1.00 15.24 LIG 0.24  C 
ATOM     50 O    GLY B   2     -10.051  -9.655  13.253  1.00 16.96 LIG-0.27  OA
BRANCH 49 51
ATOM     51  CA  GLY B   2     -10.964 -10.225  11.109  1.00 16.40 LIG 0.23  C 
BRANCH 51 52
ATOM     52  N   GLY B   2      -9.654  -9.905  10.501  1.00 16.09 LIG-0.35  N 
ATOM     53 H    GLY B   2      -9.610  -9.118  10.156  1.00 16.09 LIG 0.16  HD
ATOM     54  C   GLY B   1      -8.645 -10.762  10.495  1.00 19.38 LIG 0.23  C 
ATOM     55 O    GLY B   1      -8.851 -11.905  11.006  1.00 21.51 LIG-0.27  OA
BRANCH 54 56
ATOM     56  CA  GLY B   1      -7.392 -10.771   9.820  1.00 21.19 LIG 0.23  C 
BRANCH 56 57
ATOM     57  N   GLY B   1      -7.769  -9.589   9.098  1.00 20.21 LIG-0.35  N 
ATOM     58  C   ACE B   0      -8.299  -9.637   7.865  1.00 20.42 LIG 0.21  C 
ATOM     59 O    ACE B   0      -8.810 -10.638   7.460  1.00 26.00 LIG-0.27  OA
ATOM     60  CH3 ACE B   0      -8.313  -8.416   6.983  1.00 26.85 LIG 0.12  C 
ATOM     61 H    GLY B   1      -7.626  -8.856   9.525  1.00 20.21 LIG 0.16  HD
ENDBRANCH 56 57
ENDBRANCH 54 56
ENDBRANCH 51 52
ENDBRANCH 49 51
ENDBRANCH 41 47
ENDBRANCH 38 41
ENDBRANCH 35 37
ENDBRANCH 1 35
TORSDOF 21
ENDMDL
MODEL 4
USER: ADFR SOLUTION from run 2
USER: SCORE 21.106747 LL:  -4.783 LR: -19.070 RR:   0.000 FEB: -12.805
USER: RMSD 3.017895
USER: SEED 21706
USER: STATUS no improvement in best in 8 clusters for 5 generations
USER: GENES 23
USER: genes 0 Translation |==|  0.38379 0.55465 0.58629
USER: genes 1 Rotation |==|  0.52312 0.52294 0.41333 0.99135
USER: genes 2 Torsion [C]-N--CA-[CB] |==|  0.48963
USER: genes 3 Torsion [N]-CA--CB-[CG] |==|  0.74717
USER: genes 4 Torsion [CA]-CB--CG-[CD1] |==|  0.57827
USER: genes 5 Torsion [N]-CA--C-[N] |==|  0.54821
USER: genes 6 Torsion [C]-N--CA-[CB] |==|  0.84656
USER: genes 7 Torsion [N]-CA--C-[N] |==|  0.46513
USER: genes 8 Torsion [C]-N--CA-[C] |==|  0.13360
USER: genes 9 Torsion [N]-CA--C-[N] |==|  0.55559
USER: genes 10 Torsion [N]-CA--CB-[CG] |==|  0.97360
USER: genes 11 Torsion [CA]-CB--CG-[CD2] |==|  0.31317
USER: genes 12 Torsion [N]-C--CA-[N] |==|  0.41803
USER: genes 13 Torsion [C]-CA--N-[C] |==|  0.54068
USER: genes 14 Torsion [N]-C--CA-[N] |==|  0.46243
USER: genes 15 Torsion [C]-CA--CB-[CG] |==|  0.84812
USER: genes 16 Torsion [CA]-CB--CG-[CD] |==|  0.44937
USER: genes 17 Torsion [CB]-CG--CD-[OE1] |==|  0.86557
USER: genes 18 Torsion [C]-CA--N-[C] |==|  0.61146
USER: genes 19 Torsion [N]-C--CA-[N] |==|  0.53704
USER: genes 20 Torsion [C]-CA--N-[C] |==|  0.21146
USER: genes 21 Torsion [N]-C--CA-[N] |==|  0.98363
USER: genes 22 Torsion [C]-CA--N-[C] |==|  0.73333
ROOT
ATOM      1  C   ALA B   4     -13.587 -13.757  18.255  1.00 18.54 LIG 0.24  C 
ATOM      2 O    ALA B   4     -12.920 -13.015  19.002  1.00 17.25 LIG-0.27  OA
ATOM      3  N   LEU B   5     -14.549 -14.591  18.672  1.00 18.87 LIG-0.35  N 
ATOM      4 H    LEU B   5     -15.093 -15.006  18.150  1.00 18.87 LIG 0.16  HD
ENDROOT
BRANCH 3 5
ATOM      5  CA  LEU B   5     -14.742 -14.859  20.111  1.00 18.34 LIG 0.18  C 
BRANCH 5 6
ATOM      6  CB  LEU B   5     -15.949 -15.758  20.303  1.00 23.26 LIG 0.04  C 
BRANCH 6 7
ATOM      7  CG  LEU B   5     -17.272 -15.034  20.508  1.00 28.17 LIG-0.02  C 
ATOM      8  CD1 LEU B   5     -18.188 -15.928  21.350  1.00 29.22 LIG 0.01  C 
ATOM      9  CD2 LEU B   5     -17.086 -13.681  21.175  1.00 30.00 LIG 0.01  C 
ENDBRANCH 6 7
ENDBRANCH 5 6
BRANCH 5 10
ATOM     10  C   LEU B   5     -13.511 -15.541  20.684  1.00 16.86 LIG 0.24  C 
ATOM     11 O    LEU B   5     -12.487 -15.558  20.071  1.00 19.60 LIG-0.27  OA
ATOM     12  N   ALA B   6     -13.654 -16.162  21.852  1.00 16.13 LIG-0.35  N 
ATOM     13 H    ALA B   6     -14.386 -16.149  22.303  1.00 16.13 LIG 0.16  HD
BRANCH 12 14
ATOM     14  CA  ALA B   6     -12.582 -16.931  22.494  1.00 17.44 LIG 0.17  C 
ATOM     15  CB  ALA B   6     -12.087 -17.989  21.516  1.00 18.99 LIG 0.04  C 
BRANCH 14 16
ATOM     16  C   ALA B   6     -11.412 -16.025  22.886  1.00 24.46 LIG 0.24  C 
ATOM     17 O    ALA B   6     -11.321 -14.908  22.388  1.00 27.52 LIG-0.27  OA
ATOM     18  N   TRP B   7     -10.468 -16.502  23.700  1.00 32.31 LIG-0.35  N 
ATOM     19 H    TRP B   7     -10.522 -17.233  24.149  1.00 32.31 LIG 0.16  HD
BRANCH 18 20
ATOM     20  CA  TRP B   7      -9.185 -15.719  23.870  1.00 35.59 LIG 0.18  C 
BRANCH 20 21
ATOM     21  C   TRP B   7      -9.308 -14.223  24.146  1.00 36.87 LIG 0.25  C 
ATOM     22 N    NH2 B   8      -8.174 -13.405  23.882  1.00 48.35 LIG-0.06  NA
ATOM     23 O    TRP B   7     -10.353 -13.737  24.550  1.00 43.64 LIG-0.28  OA
ENDBRANCH 20 21
BRANCH 20 24
ATOM     24  CB  TRP B   7      -8.269 -15.918  22.676  1.00 36.27 LIG 0.07  C 
BRANCH 24 25
ATOM     25  CG  TRP B   7      -8.721 -16.985  21.737  1.00 35.16 LIG-0.03  A 
ATOM     26  CD2 TRP B   7      -9.183 -16.810  20.399  1.00 33.00 LIG-0.00  A 
ATOM     27  CE3 TRP B   7      -9.385 -15.692  19.576  1.00 33.14 LIG 0.01  A 
ATOM     28  CE2 TRP B   7      -9.494 -18.093  19.895  1.00 37.76 LIG 0.04  A 
ATOM     29  CZ3 TRP B   7      -9.867 -15.893  18.284  1.00 39.74 LIG 0.00  A 
ATOM     30  CH2 TRP B   7     -10.166 -17.190  17.808  1.00 37.98 LIG 0.00  A 
ATOM     31  CZ2 TRP B   7     -10.003 -18.294  18.596  1.00 35.74 LIG 0.03  A 
ATOM     32  NE1 TRP B   7      -9.224 -18.995  20.892  1.00 36.87 LIG-0.36  N 
ATOM     33  CD1 TRP B   7      -8.770 -18.319  21.995  1.00 32.46 LIG 0.10  A 
ATOM     34 HE1  TRP B   7      -9.323 -19.847  20.835  1.00 36.87 LIG 0.17  HD
ENDBRANCH 24 25
ENDBRANCH 20 24
ENDBRANCH 18 20
ENDBRANCH 14 16
ENDBRANCH 12 14
ENDBRANCH 5 10
ENDBRANCH 3 5
BRANCH 1 35
ATOM     35  CA  ALA B   4     -13.360 -13.754  16.772  1.00 18.93 LIG 0.17  C 
ATOM     36  CB  ALA B   4     -12.375 -14.844  16.409  1.00 20.14 LIG 0.04  C 
BRANCH 35 37
ATOM     37  N   ALA B   4     -12.884 -12.463  16.325  1.00 16.93 LIG-0.35  N 
ATOM     38  C   GLU B   3     -12.886 -12.130  15.040  1.00 16.00 LIG 0.24  C 
ATOM     39 O    GLU B   3     -13.353 -12.847  14.170  1.00 18.04 LIG-0.27  OA
ATOM     40 H    ALA B   4     -12.607 -11.947  16.956  1.00 16.93 LIG 0.16  HD
BRANCH 38 41
ATOM     41  CA  GLU B   3     -12.285 -10.770  14.693  1.00 15.64 LIG 0.18  C 
BRANCH 41 42
ATOM     42  CB  GLU B   3     -13.178  -9.606  15.174  1.00 16.94 LIG 0.04  C 
BRANCH 42 43
ATOM     43  CG  GLU B   3     -14.602  -9.689  14.668  1.00 17.50 LIG 0.12  C 
BRANCH 43 44
ATOM     44  CD  GLU B   3     -15.610  -8.853  15.428  1.00 19.64 LIG 0.17  C 
ATOM     45 OE1  GLU B   3     -15.606  -8.932  16.675  1.00 22.12 LIG-0.65  OA
ATOM     46 OE2  GLU B   3     -16.397  -8.127  14.798  1.00 20.68 LIG-0.65  OA
ENDBRANCH 43 44
ENDBRANCH 42 43
ENDBRANCH 41 42
BRANCH 41 47
ATOM     47  N   GLU B   3     -12.076 -10.715  13.236  1.00 14.76 LIG-0.35  N 
ATOM     48 H    GLU B   3     -12.718 -11.070  12.786  1.00 14.76 LIG 0.16  HD
ATOM     49  C   GLY B   2     -11.013 -10.176  12.664  1.00 15.24 LIG 0.24  C 
ATOM     50 O    GLY B   2     -10.103  -9.658  13.299  1.00 16.96 LIG-0.27  OA
BRANCH 49 51
ATOM     51  CA  GLY B   2     -10.975 -10.219  11.136  1.00 16.40 LIG 0.23  C 
BRANCH 51 52
ATOM     52  N   GLY B   2      -9.655  -9.897  10.551  1.00 16.09 LIG-0.35  N 
ATOM     53 H    GLY B   2      -9.604  -9.107  10.214  1.00 16.09 LIG 0.16  HD
ATOM     54  C   GLY B   1      -8.649 -10.757  10.551  1.00 19.38 LIG 0.23  C 
ATOM     55 O    GLY B   1      -8.866 -11.904  11.048  1.00 21.51 LIG-0.27  OA
BRANCH 54 56
ATOM     56  CA  GLY B   1      -7.386 -10.764   9.895  1.00 21.19 LIG 0.23  C 
BRANCH 56 57
ATOM     57  N   GLY B   1      -7.753  -9.579   9.171  1.00 20.21 LIG-0.35  N 
ATOM     58  C   ACE B   0      -8.263  -9.623   7.930  1.00 20.42 LIG 0.21  C 
ATOM     59 O    ACE B   0      -8.768 -10.623   7.513  1.00 26.00 LIG-0.27  OA
ATOM     60  CH3 ACE B   0      -8.264  -8.399   7.052  1.00 26.85 LIG 0.12  C 
ATOM     61 H    GLY B   1      -7.616  -8.848   9.603  1.00 20.21 LIG 0.16  HD
ENDBRANCH 56 57
ENDBRANCH 54 56
ENDBRANCH 51 52
ENDBRANCH 49 51
ENDBRANCH 41 47
ENDBRANCH 38 41
ENDBRANCH 35 37
ENDBRANCH 1 35
TORSDOF 21
ENDMDL
MODEL 5
USER: ADFR SOLUTION from run 47
USER: SCORE 21.142679 LL:  -4.312 LR: -19.047 RR:   0.000 FEB: -12.783
USER: RMSD 3.143947
USER: SEED 46
USER: STATUS no improvement in best in 8 clusters for 5 generations
USER: GENES 23
USER: genes 0 Translation |==|  0.37984 0.55474 0.57621
USER: genes 1 Rotation |==|  0.52829 0.52556 0.41323 0.99094
USER: genes 2 Torsion [C]-N--CA-[CB] |==|  0.48570
USER: genes 3 Torsion [N]-CA--CB-[CG] |==|  0.75866
USER: genes 4 Torsion [CA]-CB--CG-[CD1] |==|  0.53956
USER: genes 5 Torsion [N]-CA--C-[N] |==|  0.79664
USER: genes 6 Torsion [C]-N--CA-[CB] |==|  0.84585
USER: genes 7 Torsion [N]-CA--C-[N] |==|  0.84446
USER: genes 8 Torsion [C]-N--CA-[C] |==|  0.55036
USER: genes 9 Torsion [N]-CA--C-[N] |==|  0.46590
USER: genes 10 Torsion [N]-CA--CB-[CG] |==|  0.10885
USER: genes 11 Torsion [CA]-CB--CG-[CD2] |==|  0.15314
USER: genes 12 Torsion [N]-C--CA-[N] |==|  0.42452
USER: genes 13 Torsion [C]-CA--N-[C] |==|  0.53211
USER: genes 14 Torsion [N]-C--CA-[N] |==|  0.47446
USER: genes 15 Torsion [C]-CA--CB-[CG] |==|  0.86225
USER: genes 16 Torsion [CA]-CB--CG-[CD] |==|  0.43180
USER: genes 17 Torsion [CB]-CG--CD-[OE1] |==|  0.38688
USER: genes 18 Torsion [C]-CA--N-[C] |==|  0.61046
USER: genes 19 Torsion [N]-C--CA-[N] |==|  0.52841
USER: genes 20 Torsion [C]-CA--N-[C] |==|  0.21119
USER: genes 21 Torsion [N]-C--CA-[N] |==|  0.97887
USER: genes 22 Torsion [C]-CA--N-[C] |==|  0.72778
ROOT
ATOM      1  C   ALA B   4     -13.670 -13.755  17.983  1.00 18.54 LIG 0.24  C 
ATOM      2 O    ALA B   4     -12.997 -13.030  18.742  1.00 17.25 LIG-0.27  OA
ATOM      3  N   LEU B   5     -14.630 -14.597  18.388  1.00 18.87 LIG-0.35  N 
ATOM      4 H    LEU B   5     -15.178 -14.999  17.861  1.00 18.87 LIG 0.16  HD
ENDROOT
BRANCH 3 5
ATOM      5  CA  LEU B   5     -14.814 -14.897  19.821  1.00 18.34 LIG 0.18  C 
BRANCH 5 6
ATOM      6  CB  LEU B   5     -16.040 -15.770  20.006  1.00 23.26 LIG 0.04  C 
BRANCH 6 7
ATOM      7  CG  LEU B   5     -17.357 -15.019  20.146  1.00 28.17 LIG-0.02  C 
ATOM      8  CD1 LEU B   5     -18.416 -15.992  20.673  1.00 29.22 LIG 0.01  C 
ATOM      9  CD2 LEU B   5     -17.233 -13.815  21.065  1.00 30.00 LIG 0.01  C 
ENDBRANCH 6 7
ENDBRANCH 5 6
BRANCH 5 10
ATOM     10  C   LEU B   5     -13.594 -15.624  20.363  1.00 16.86 LIG 0.24  C 
ATOM     11 O    LEU B   5     -12.793 -15.047  21.035  1.00 19.60 LIG-0.27  OA
ATOM     12  N   ALA B   6     -13.437 -16.894  19.999  1.00 16.13 LIG-0.35  N 
ATOM     13 H    ALA B   6     -14.012 -17.319  19.521  1.00 16.13 LIG 0.16  HD
BRANCH 12 14
ATOM     14  CA  ALA B   6     -12.273 -17.704  20.373  1.00 17.44 LIG 0.17  C 
ATOM     15  CB  ALA B   6     -11.010 -16.984  19.916  1.00 18.99 LIG 0.04  C 
BRANCH 14 16
ATOM     16  C   ALA B   6     -12.210 -17.911  21.889  1.00 24.46 LIG 0.24  C 
ATOM     17 O    ALA B   6     -12.249 -19.050  22.344  1.00 27.52 LIG-0.27  OA
ATOM     18  N   TRP B   7     -12.198 -16.843  22.689  1.00 32.31 LIG-0.35  N 
ATOM     19 H    TRP B   7     -12.077 -16.031  22.433  1.00 32.31 LIG 0.16  HD
BRANCH 18 20
ATOM     20  CA  TRP B   7     -12.411 -17.039  24.173  1.00 35.59 LIG 0.18  C 
BRANCH 20 21
ATOM     21  C   TRP B   7     -12.813 -15.814  24.992  1.00 36.87 LIG 0.25  C 
ATOM     22 N    NH2 B   8     -13.273 -16.028  26.321  1.00 48.35 LIG-0.06  NA
ATOM     23 O    TRP B   7     -12.713 -14.687  24.534  1.00 43.64 LIG-0.28  OA
ENDBRANCH 20 21
BRANCH 20 24
ATOM     24  CB  TRP B   7     -11.189 -17.671  24.816  1.00 36.27 LIG 0.07  C 
BRANCH 24 25
ATOM     25  CG  TRP B   7      -9.892 -17.161  24.282  1.00 35.16 LIG-0.03  A 
ATOM     26  CD2 TRP B   7      -9.467 -15.801  24.222  1.00 33.00 LIG-0.00  A 
ATOM     27  CE3 TRP B   7     -10.055 -14.578  24.579  1.00 33.14 LIG 0.01  A 
ATOM     28  CE2 TRP B   7      -8.175 -15.795  23.650  1.00 37.76 LIG 0.04  A 
ATOM     29  CZ3 TRP B   7      -9.333 -13.405  24.373  1.00 39.74 LIG 0.00  A 
ATOM     30  CH2 TRP B   7      -8.041 -13.432  23.800  1.00 37.98 LIG 0.00  A 
ATOM     31  CZ2 TRP B   7      -7.454 -14.605  23.419  1.00 35.74 LIG 0.03  A 
ATOM     32  NE1 TRP B   7      -7.845 -17.098  23.383  1.00 36.87 LIG-0.36  N 
ATOM     33  CD1 TRP B   7      -8.886 -17.908  23.756  1.00 32.46 LIG 0.10  A 
ATOM     34 HE1  TRP B   7      -7.105 -17.365  23.036  1.00 36.87 LIG 0.17  HD
ENDBRANCH 24 25
ENDBRANCH 20 24
ENDBRANCH 18 20
ENDBRANCH 14 16
ENDBRANCH 12 14
ENDBRANCH 5 10
ENDBRANCH 3 5
BRANCH 1 35
ATOM     35  CA  ALA B   4     -13.453 -13.720  16.499  1.00 18.93 LIG 0.17  C 
ATOM     36  CB  ALA B   4     -12.516 -14.838  16.097  1.00 20.14 LIG 0.04  C 
BRANCH 35 37
ATOM     37  N   ALA B   4     -12.927 -12.437  16.085  1.00 16.93 LIG-0.35  N 
ATOM     38  C   GLU B   3     -12.868 -12.092  14.804  1.00 16.00 LIG 0.24  C 
ATOM     39 O    GLU B   3     -13.317 -12.789  13.909  1.00 18.04 LIG-0.27  OA
ATOM     40 H    ALA B   4     -12.663 -11.934  16.731  1.00 16.93 LIG 0.16  HD
BRANCH 38 41
ATOM     41  CA  GLU B   3     -12.219 -10.745  14.495  1.00 15.64 LIG 0.18  C 
BRANCH 41 42
ATOM     42  CB  GLU B   3     -13.050  -9.566  15.047  1.00 16.94 LIG 0.04  C 
BRANCH 42 43
ATOM     43  CG  GLU B   3     -14.516  -9.636  14.677  1.00 17.50 LIG 0.12  C 
BRANCH 43 44
ATOM     44  CD  GLU B   3     -15.455  -8.901  15.609  1.00 19.64 LIG 0.17  C 
ATOM     45 OE1  GLU B   3     -16.396  -8.258  15.096  1.00 22.12 LIG-0.65  OA
ATOM     46 OE2  GLU B   3     -15.264  -8.959  16.836  1.00 20.68 LIG-0.65  OA
ENDBRANCH 43 44
ENDBRANCH 42 43
ENDBRANCH 41 42
BRANCH 41 47
ATOM     47  N   GLU B   3     -12.046 -10.639  13.036  1.00 14.76 LIG-0.35  N 
ATOM     48 H    GLU B   3     -12.711 -10.953  12.590  1.00 14.76 LIG 0.16  HD
ATOM     49  C   GLY B   2     -10.978 -10.115  12.458  1.00 15.24 LIG 0.24  C 
ATOM     50 O    GLY B   2     -10.035  -9.655  13.088  1.00 16.96 LIG-0.27  OA
BRANCH 49 51
ATOM     51  CA  GLY B   2     -10.982 -10.098  10.928  1.00 16.40 LIG 0.23  C 
BRANCH 51 52
ATOM     52  N   GLY B   2      -9.684  -9.728  10.322  1.00 16.09 LIG-0.35  N 
ATOM     53 H    GLY B   2      -9.656  -8.925  10.014  1.00 16.09 LIG 0.16  HD
ATOM     54  C   GLY B   1      -8.662 -10.567  10.264  1.00 19.38 LIG 0.23  C 
ATOM     55 O    GLY B   1      -8.844 -11.736  10.722  1.00 21.51 LIG-0.27  OA
BRANCH 54 56
ATOM     56  CA  GLY B   1      -7.417 -10.525   9.575  1.00 21.19 LIG 0.23  C 
BRANCH 56 57
ATOM     57  N   GLY B   1      -7.842  -9.345   8.875  1.00 20.21 LIG-0.35  N 
ATOM     58  C   ACE B   0      -8.346  -9.389   7.631  1.00 20.42 LIG 0.21  C 
ATOM     59 O    ACE B   0      -8.799 -10.404   7.193  1.00 26.00 LIG-0.27  OA
ATOM     60  CH3 ACE B   0      -8.408  -8.149   6.780  1.00 26.85 LIG 0.12  C 
ATOM     61 H    GLY B   1      -7.744  -8.617   9.322  1.00 20.21 LIG 0.16  HD
ENDBRANCH 56 57
ENDBRANCH 54 56
ENDBRANCH 51 52
ENDBRANCH 49 51
ENDBRANCH 41 47
ENDBRANCH 38 41
ENDBRANCH 35 37
ENDBRANCH 1 35
TORSDOF 21
ENDMDL
MODEL 6
USER: ADFR SOLUTION from run 23
USER: SCORE 21.025325 LL:  -4.052 LR: -19.017 RR:   0.000 FEB: -12.753
USER: RMSD 2.403157
USER: SEED 22
USER: STATUS no improvement in best in 3 clusters for 5 generations
USER: GENES 23
USER: genes 0 Translation |==|  0.39104 0.56007 0.58960
USER: genes 1 Rotation |==|  0.49487 0.50450 0.49207 0.99989
USER: genes 2 Torsion [C]-N--CA-[CB] |==|  0.48903
USER: genes 3 Torsion [N]-CA--CB-[CG] |==|  0.74900
USER: genes 4 Torsion [CA]-CB--CG-[CD1] |==|  0.61800
USER: genes 5 Torsion [N]-CA--C-[N] |==|  0.47929
USER: genes 6 Torsion [C]-N--CA-[CB] |==|  0.51534
USER: genes 7 Torsion [N]-CA--C-[N] |==|  0.34749
USER: genes 8 Torsion [C]-N--CA-[C] |==|  0.62479
USER: genes 9 Torsion [N]-CA--C-[N] |==|  0.11708
USER: genes 10 Torsion [N]-CA--CB-[CG] |==|  0.13664
USER: genes 11 Torsion [CA]-CB--CG-[CD2] |==|  0.41168
USER: genes 12 Torsion [N]-C--CA-[N] |==|  0.46102
USER: genes 13 Torsion [C]-CA--N-[C] |==|  0.57542
USER: genes 14 Torsion [N]-C--CA-[N] |==|  0.44416
USER: genes 15 Torsion [C]-CA--CB-[CG] |==|  0.84276
USER: genes 16 Torsion [CA]-CB--CG-[CD] |==|  0.44306
USER: genes 17 Torsion [CB]-CG--CD-[OE1] |==|  0.87539
USER: genes 18 Torsion [C]-CA--N-[C] |==|  0.61235
USER: genes 19 Torsion [N]-C--CA-[N] |==|  0.53277
USER: genes 20 Torsion [C]-CA--N-[C] |==|  0.21185
USER: genes 21 Torsion [N]-C--CA-[N] |==|  0.98892
USER: genes 22 Torsion [C]-CA--N-[C] |==|  0.72778
ROOT
ATOM      1  C   ALA B   4     -13.435 -13.644  18.344  1.00 18.54 LIG 0.24  C 
ATOM      2 O    ALA B   4     -13.096 -12.658  19.029  1.00 17.25 LIG-0.27  OA
ATOM      3  N   LEU B   5     -14.125 -14.693  18.809  1.00 18.87 LIG-0.35  N 
ATOM      4 H    LEU B   5     -14.468 -15.308  18.315  1.00 18.87 LIG 0.16  HD
ENDROOT
BRANCH 3 5
ATOM      5  CA  LEU B   5     -14.348 -14.866  20.258  1.00 18.34 LIG 0.18  C 
BRANCH 5 6
ATOM      6  CB  LEU B   5     -15.234 -16.074  20.496  1.00 23.26 LIG 0.04  C 
BRANCH 6 7
ATOM      7  CG  LEU B   5     -16.728 -15.786  20.531  1.00 28.17 LIG-0.02  C 
ATOM      8  CD1 LEU B   5     -17.349 -16.581  21.684  1.00 29.22 LIG 0.01  C 
ATOM      9  CD2 LEU B   5     -17.021 -14.302  20.686  1.00 30.00 LIG 0.01  C 
ENDBRANCH 6 7
ENDBRANCH 5 6
BRANCH 5 10
ATOM     10  C   LEU B   5     -13.021 -15.069  20.970  1.00 16.86 LIG 0.24  C 
ATOM     11 O    LEU B   5     -12.021 -15.260  20.346  1.00 19.60 LIG-0.27  OA
ATOM     12  N   ALA B   6     -13.045 -15.087  22.300  1.00 16.13 LIG-0.35  N 
ATOM     13 H    ALA B   6     -13.760 -14.943  22.758  1.00 16.13 LIG 0.16  HD
BRANCH 12 14
ATOM     14  CA  ALA B   6     -11.862 -15.351  23.127  1.00 17.44 LIG 0.17  C 
ATOM     15  CB  ALA B   6     -12.293 -15.428  24.586  1.00 18.99 LIG 0.04  C 
BRANCH 14 16
ATOM     16  C   ALA B   6     -11.198 -16.672  22.730  1.00 24.46 LIG 0.24  C 
ATOM     17 O    ALA B   6     -11.841 -17.714  22.794  1.00 27.52 LIG-0.27  OA
ATOM     18  N   TRP B   7      -9.904 -16.673  22.403  1.00 32.31 LIG-0.35  N 
ATOM     19 H    TRP B   7      -9.429 -15.973  22.251  1.00 32.31 LIG 0.16  HD
BRANCH 18 20
ATOM     20  CA  TRP B   7      -9.182 -17.997  22.278  1.00 35.59 LIG 0.18  C 
BRANCH 20 21
ATOM     21  C   TRP B   7      -7.802 -18.106  22.922  1.00 36.87 LIG 0.25  C 
ATOM     22 N    NH2 B   8      -7.626 -17.531  24.211  1.00 48.35 LIG-0.06  NA
ATOM     23 O    TRP B   7      -6.889 -18.694  22.365  1.00 43.64 LIG-0.28  OA
ENDBRANCH 20 21
BRANCH 20 24
ATOM     24  CB  TRP B   7      -9.072 -18.417  20.823  1.00 36.27 LIG 0.07  C 
BRANCH 24 25
ATOM     25  CG  TRP B   7      -8.558 -17.345  19.921  1.00 35.16 LIG-0.03  A 
ATOM     26  CD2 TRP B   7      -7.773 -17.521  18.744  1.00 33.00 LIG-0.00  A 
ATOM     27  CE3 TRP B   7      -7.232 -18.638  18.089  1.00 33.14 LIG 0.01  A 
ATOM     28  CE2 TRP B   7      -7.527 -16.235  18.212  1.00 37.76 LIG 0.04  A 
ATOM     29  CZ3 TRP B   7      -6.490 -18.436  16.928  1.00 39.74 LIG 0.00  A 
ATOM     30  CH2 TRP B   7      -6.264 -17.137  16.420  1.00 37.98 LIG 0.00  A 
ATOM     31  CZ2 TRP B   7      -6.756 -16.029  17.050  1.00 35.74 LIG 0.03  A 
ATOM     32  NE1 TRP B   7      -8.145 -15.332  19.039  1.00 36.87 LIG-0.36  N 
ATOM     33  CD1 TRP B   7      -8.752 -16.007  20.065  1.00 32.46 LIG 0.10  A 
ATOM     34 HE1  TRP B   7      -8.150 -14.479  18.930  1.00 36.87 LIG 0.17  HD
ENDBRANCH 24 25
ENDBRANCH 20 24
ENDBRANCH 18 20
ENDBRANCH 14 16
ENDBRANCH 12 14
ENDBRANCH 5 10
ENDBRANCH 3 5
BRANCH 1 35
ATOM     35  CA  ALA B   4     -13.094 -13.715  16.885  1.00 18.93 LIG 0.17  C 
ATOM     36  CB  ALA B   4     -12.029 -14.767  16.665  1.00 20.14 LIG 0.04  C 
BRANCH 35 37
ATOM     37  N   ALA B   4     -12.651 -12.428  16.395  1.00 16.93 LIG-0.35  N 
ATOM     38  C   GLU B   3     -12.799 -12.082  15.122  1.00 16.00 LIG 0.24  C 
ATOM     39 O    GLU B   3     -13.377 -12.782  14.308  1.00 18.04 LIG-0.27  OA
ATOM     40 H    ALA B   4     -12.293 -11.923  16.992  1.00 16.93 LIG 0.16  HD
BRANCH 38 41
ATOM     41  CA  GLU B   3     -12.219 -10.729  14.716  1.00 15.64 LIG 0.18  C 
BRANCH 41 42
ATOM     42  CB  GLU B   3     -13.118  -9.558  15.170  1.00 16.94 LIG 0.04  C 
BRANCH 42 43
ATOM     43  CG  GLU B   3     -14.537  -9.651  14.653  1.00 17.50 LIG 0.12  C 
BRANCH 43 44
ATOM     44  CD  GLU B   3     -15.561  -8.845  15.423  1.00 19.64 LIG 0.17  C 
ATOM     45 OE1  GLU B   3     -15.521  -8.898  16.671  1.00 22.12 LIG-0.65  OA
ATOM     46 OE2  GLU B   3     -16.397  -8.169  14.800  1.00 20.68 LIG-0.65  OA
ENDBRANCH 43 44
ENDBRANCH 42 43
ENDBRANCH 41 42
BRANCH 41 47
ATOM     47  N   GLU B   3     -12.034 -10.724  13.255  1.00 14.76 LIG-0.35  N 
ATOM     48 H    GLU B   3     -12.681 -11.097  12.828  1.00 14.76 LIG 0.16  HD
ATOM     49  C   GLY B   2     -10.983 -10.200  12.647  1.00 15.24 LIG 0.24  C 
ATOM     50 O    GLY B   2     -10.066  -9.655  13.248  1.00 16.96 LIG-0.27  OA
BRANCH 49 51
ATOM     51  CA  GLY B   2     -10.971 -10.296  11.120  1.00 16.40 LIG 0.23  C 
BRANCH 51 52
ATOM     52  N   GLY B   2      -9.672  -9.953  10.500  1.00 16.09 LIG-0.35  N 
ATOM     53 H    GLY B   2      -9.652  -9.174  10.137  1.00 16.09 LIG 0.16  HD
ATOM     54  C   GLY B   1      -8.640 -10.781  10.511  1.00 19.38 LIG 0.23  C 
ATOM     55 O    GLY B   1      -8.811 -11.917  11.049  1.00 21.51 LIG-0.27  OA
BRANCH 54 56
ATOM     56  CA  GLY B   1      -7.389 -10.771   9.831  1.00 21.19 LIG 0.23  C 
BRANCH 56 57
ATOM     57  N   GLY B   1      -7.787  -9.595   9.110  1.00 20.21 LIG-0.35  N 
ATOM     58  C   ACE B   0      -8.284  -9.649   7.863  1.00 20.42 LIG 0.21  C 
ATOM     59 O    ACE B   0      -8.750 -10.663   7.436  1.00 26.00 LIG-0.27  OA
ATOM     60  CH3 ACE B   0      -8.316  -8.422   6.992  1.00 26.85 LIG 0.12  C 
ATOM     61 H    GLY B   1      -7.680  -8.862   9.546  1.00 20.21 LIG 0.16  HD
ENDBRANCH 56 57
ENDBRANCH 54 56
ENDBRANCH 51 52
ENDBRANCH 49 51
ENDBRANCH 41 47
ENDBRANCH 38 41
ENDBRANCH 35 37
ENDBRANCH 1 35
TORSDOF 21
ENDMDL
MODEL 7
USER: ADFR SOLUTION from run 85
USER: SCORE 21.207564 LL:  -4.074 LR: -19.008 RR:   0.000 FEB: -12.743
USER: RMSD 1.942631
USER: SEED 84
USER: STATUS 1 or 2 clusters left
USER: GENES 23
USER: genes 0 Translation |==|  0.39412 0.55747 0.58573
USER: genes 1 Rotation |==|  0.50122 0.50390 0.47880 0.99953
USER: genes 2 Torsion [C]-N--CA-[CB] |==|  0.48438
USER: genes 3 Torsion [N]-CA--CB-[CG] |==|  0.72415
USER: genes 4 Torsion [CA]-CB--CG-[CD1] |==|  0.63262
USER: genes 5 Torsion [N]-CA--C-[N] |==|  0.46396
USER: genes 6 Torsion [C]-N--CA-[CB] |==|  0.49372
USER: genes 7 Torsion [N]-CA--C-[N] |==|  0.43906
USER: genes 8 Torsion [C]-N--CA-[C] |==|  0.80556
USER: genes 9 Torsion [N]-CA--C-[N] |==|  0.49021
USER: genes 10 Torsion [N]-CA--CB-[CG] |==|  0.17085
USER: genes 11 Torsion [CA]-CB--CG-[CD2] |==|  0.49021
USER: genes 12 Torsion [N]-C--CA-[N] |==|  0.44989
USER: genes 13 Torsion [C]-CA--N-[C] |==|  0.56514
USER: genes 14 Torsion [N]-C--CA-[N] |==|  0.45741
USER: genes 15 Torsion [C]-CA--CB-[CG] |==|  0.85300
USER: genes 16 Torsion [CA]-CB--CG-[CD] |==|  0.45365
USER: genes 17 Torsion [CB]-CG--CD-[OE1] |==|  0.85393
USER: genes 18 Torsion [C]-CA--N-[C] |==|  0.61521
USER: genes 19 Torsion [N]-C--CA-[N] |==|  0.52922
USER: genes 20 Torsion [C]-CA--N-[C] |==|  0.22577
USER: genes 21 Torsion [N]-C--CA-[N] |==|  0.96585
USER: genes 22 Torsion [C]-CA--N-[C] |==|  0.73031
ROOT
ATOM      1  C   ALA B   4     -13.371 -13.698  18.240  1.00 18.54 LIG 0.24  C 
ATOM      2 O    ALA B   4     -12.983 -12.750  18.950  1.00 17.25 LIG-0.27  OA
ATOM      3  N   LEU B   5     -14.117 -14.720  18.677  1.00 18.87 LIG-0.35  N 
ATOM      4 H    LEU B   5     -14.490 -15.304  18.166  1.00 18.87 LIG 0.16  HD
ENDROOT
BRANCH 3 5
ATOM      5  CA  LEU B   5     -14.355 -14.917  20.120  1.00 18.34 LIG 0.18  C 
BRANCH 5 6
ATOM      6  CB  LEU B   5     -15.337 -16.055  20.324  1.00 23.26 LIG 0.04  C 
BRANCH 6 7
ATOM      7  CG  LEU B   5     -16.776 -15.632  20.582  1.00 28.17 LIG-0.02  C 
ATOM      8  CD1 LEU B   5     -17.303 -16.415  21.789  1.00 29.22 LIG 0.01  C 
ATOM      9  CD2 LEU B   5     -16.898 -14.135  20.822  1.00 30.00 LIG 0.01  C 
ENDBRANCH 6 7
ENDBRANCH 5 6
BRANCH 5 10
ATOM     10  C   LEU B   5     -13.049 -15.249  20.824  1.00 16.86 LIG 0.24  C 
ATOM     11 O    LEU B   5     -12.095 -15.598  20.197  1.00 19.60 LIG-0.27  OA
ATOM     12  N   ALA B   6     -13.048 -15.193  22.153  1.00 16.13 LIG-0.35  N 
ATOM     13 H    ALA B   6     -13.729 -14.936  22.612  1.00 16.13 LIG 0.16  HD
BRANCH 12 14
ATOM     14  CA  ALA B   6     -11.891 -15.562  22.976  1.00 17.44 LIG 0.17  C 
ATOM     15  CB  ALA B   6     -12.236 -15.319  24.441  1.00 18.99 LIG 0.04  C 
BRANCH 14 16
ATOM     16  C   ALA B   6     -11.526 -17.036  22.785  1.00 24.46 LIG 0.24  C 
ATOM     17 O    ALA B   6     -12.392 -17.832  22.438  1.00 27.52 LIG-0.27  OA
ATOM     18  N   TRP B   7     -10.288 -17.440  23.080  1.00 32.31 LIG-0.35  N 
ATOM     19 H    TRP B   7      -9.620 -16.922  23.236  1.00 32.31 LIG 0.16  HD
BRANCH 18 20
ATOM     20  CA  TRP B   7     -10.001 -18.923  23.154  1.00 35.59 LIG 0.18  C 
BRANCH 20 21
ATOM     21  C   TRP B   7     -10.605 -19.696  24.324  1.00 36.87 LIG 0.25  C 
ATOM     22 N    NH2 B   8     -10.405 -21.104  24.361  1.00 48.35 LIG-0.06  NA
ATOM     23 O    TRP B   7     -11.212 -19.123  25.215  1.00 43.64 LIG-0.28  OA
ENDBRANCH 20 21
BRANCH 20 24
ATOM     24  CB  TRP B   7      -8.506 -19.186  23.120  1.00 36.27 LIG 0.07  C 
BRANCH 24 25
ATOM     25  CG  TRP B   7      -7.759 -18.583  24.262  1.00 35.16 LIG-0.03  A 
ATOM     26  CD2 TRP B   7      -6.367 -18.716  24.539  1.00 33.00 LIG-0.00  A 
ATOM     27  CE3 TRP B   7      -5.311 -19.405  23.924  1.00 33.14 LIG 0.01  A 
ATOM     28  CE2 TRP B   7      -6.104 -17.972  25.711  1.00 37.76 LIG 0.04  A 
ATOM     29  CZ3 TRP B   7      -4.038 -19.313  24.484  1.00 39.74 LIG 0.00  A 
ATOM     30  CH2 TRP B   7      -3.807 -18.559  25.657  1.00 37.98 LIG 0.00  A 
ATOM     31  CZ2 TRP B   7      -4.821 -17.898  26.291  1.00 35.74 LIG 0.03  A 
ATOM     32  NE1 TRP B   7      -7.292 -17.417  26.113  1.00 36.87 LIG-0.36  N 
ATOM     33  CD1 TRP B   7      -8.279 -17.798  25.242  1.00 32.46 LIG 0.10  A 
ATOM     34 HE1  TRP B   7      -7.400 -16.912  26.800  1.00 36.87 LIG 0.17  HD
ENDBRANCH 24 25
ENDBRANCH 20 24
ENDBRANCH 18 20
ENDBRANCH 14 16
ENDBRANCH 12 14
ENDBRANCH 5 10
ENDBRANCH 3 5
BRANCH 1 35
ATOM     35  CA  ALA B   4     -13.028 -13.751  16.780  1.00 18.93 LIG 0.17  C 
ATOM     36  CB  ALA B   4     -11.947 -14.786  16.551  1.00 20.14 LIG 0.04  C 
BRANCH 35 37
ATOM     37  N   ALA B   4     -12.604 -12.453  16.302  1.00 16.93 LIG-0.35  N 
ATOM     38  C   GLU B   3     -12.690 -12.125  15.018  1.00 16.00 LIG 0.24  C 
ATOM     39 O    GLU B   3     -13.194 -12.854  14.180  1.00 18.04 LIG-0.27  OA
ATOM     40 H    ALA B   4     -12.299 -11.930  16.913  1.00 16.93 LIG 0.16  HD
BRANCH 38 41
ATOM     41  CA  GLU B   3     -12.136 -10.755  14.632  1.00 15.64 LIG 0.18  C 
BRANCH 41 42
ATOM     42  CB  GLU B   3     -13.044  -9.608  15.124  1.00 16.94 LIG 0.04  C 
BRANCH 42 43
ATOM     43  CG  GLU B   3     -14.489  -9.758  14.701  1.00 17.50 LIG 0.12  C 
BRANCH 43 44
ATOM     44  CD  GLU B   3     -15.480  -8.905  15.464  1.00 19.64 LIG 0.17  C 
ATOM     45 OE1  GLU B   3     -15.462  -8.971  16.711  1.00 22.12 LIG-0.65  OA
ATOM     46 OE2  GLU B   3     -16.268  -8.178  14.835  1.00 20.68 LIG-0.65  OA
ENDBRANCH 43 44
ENDBRANCH 42 43
ENDBRANCH 41 42
BRANCH 41 47
ATOM     47  N   GLU B   3     -11.975 -10.718  13.168  1.00 14.76 LIG-0.35  N 
ATOM     48 H    GLU B   3     -12.630 -11.080  12.744  1.00 14.76 LIG 0.16  HD
ATOM     49  C   GLY B   2     -10.933 -10.183  12.555  1.00 15.24 LIG 0.24  C 
ATOM     50 O    GLY B   2     -10.004  -9.655  13.153  1.00 16.96 LIG-0.27  OA
BRANCH 49 51
ATOM     51  CA  GLY B   2     -10.946 -10.245  11.027  1.00 16.40 LIG 0.23  C 
BRANCH 51 52
ATOM     52  N   GLY B   2      -9.664  -9.863  10.392  1.00 16.09 LIG-0.35  N 
ATOM     53 H    GLY B   2      -9.643  -9.052  10.107  1.00 16.09 LIG 0.16  HD
ATOM     54  C   GLY B   1      -8.649 -10.705  10.280  1.00 19.38 LIG 0.23  C 
ATOM     55 O    GLY B   1      -8.822 -11.886  10.710  1.00 21.51 LIG-0.27  OA
BRANCH 54 56
ATOM     56  CA  GLY B   1      -7.425 -10.647   9.555  1.00 21.19 LIG 0.23  C 
BRANCH 56 57
ATOM     57  N   GLY B   1      -7.911  -9.515   8.819  1.00 20.21 LIG-0.35  N 
ATOM     58  C   ACE B   0      -8.463  -9.632   7.600  1.00 20.42 LIG 0.21  C 
ATOM     59 O    ACE B   0      -8.902 -10.680   7.228  1.00 26.00 LIG-0.27  OA
ATOM     60  CH3 ACE B   0      -8.593  -8.437   6.694  1.00 26.85 LIG 0.12  C 
ATOM     61 H    GLY B   1      -7.817  -8.764   9.227  1.00 20.21 LIG 0.16  HD
ENDBRANCH 56 57
ENDBRANCH 54 56
ENDBRANCH 51 52
ENDBRANCH 49 51
ENDBRANCH 41 47
ENDBRANCH 38 41
ENDBRANCH 35 37
ENDBRANCH 1 35
TORSDOF 21
ENDMDL
MODEL 8
USER: ADFR SOLUTION from run 168
USER: SCORE 21.701053 LL:  -4.803 LR: -18.995 RR:   0.000 FEB: -12.731
USER: RMSD 3.094998
USER: SEED 167
USER: STATUS no improvement in best in 5 clusters for 5 generations
USER: GENES 23
USER: genes 0 Translation |==|  0.38286 0.55731 0.58387
USER: genes 1 Rotation |==|  0.51823 0.49631 0.42999 0.99472
USER: genes 2 Torsion [C]-N--CA-[CB] |==|  0.48961
USER: genes 3 Torsion [N]-CA--CB-[CG] |==|  0.69506
USER: genes 4 Torsion [CA]-CB--CG-[CD1] |==|  0.62201
USER: genes 5 Torsion [N]-CA--C-[N] |==|  0.37575
USER: genes 6 Torsion [C]-N--CA-[CB] |==|  0.85707
USER: genes 7 Torsion [N]-CA--C-[N] |==|  0.83889
USER: genes 8 Torsion [C]-N--CA-[C] |==|  0.69513
USER: genes 9 Torsion [N]-CA--C-[N] |==|  0.53847
USER: genes 10 Torsion [N]-CA--CB-[CG] |==|  0.90601
USER: genes 11 Torsion [CA]-CB--CG-[CD2] |==|  0.86695
USER: genes 12 Torsion [N]-C--CA-[N] |==|  0.41897
USER: genes 13 Torsion [C]-CA--N-[C] |==|  0.56199
USER: genes 14 Torsion [N]-C--CA-[N] |==|  0.46281
USER: genes 15 Torsion [C]-CA--CB-[CG] |==|  0.84586
USER: genes 16 Torsion [CA]-CB--CG-[CD] |==|  0.45061
USER: genes 17 Torsion [CB]-CG--CD-[OE1] |==|  0.37439
USER: genes 18 Torsion [C]-CA--N-[C] |==|  0.62031
USER: genes 19 Torsion [N]-C--CA-[N] |==|  0.53695
USER: genes 20 Torsion [C]-CA--N-[C] |==|  0.20274
USER: genes 21 Torsion [N]-C--CA-[N] |==|  0.98660
USER: genes 22 Torsion [C]-CA--N-[C] |==|  0.72778
ROOT
ATOM      1  C   ALA B   4     -13.607 -13.702  18.189  1.00 18.54 LIG 0.24  C 
ATOM      2 O    ALA B   4     -13.070 -12.893  18.973  1.00 17.25 LIG-0.27  OA
ATOM      3  N   LEU B   5     -14.554 -14.582  18.536  1.00 18.87 LIG-0.35  N 
ATOM      4 H    LEU B   5     -15.013 -15.048  17.978  1.00 18.87 LIG 0.16  HD
ENDROOT
BRANCH 3 5
ATOM      5  CA  LEU B   5     -14.881 -14.817  19.957  1.00 18.34 LIG 0.18  C 
BRANCH 5 6
ATOM      6  CB  LEU B   5     -16.044 -15.786  20.057  1.00 23.26 LIG 0.04  C 
BRANCH 6 7
ATOM      7  CG  LEU B   5     -17.354 -15.180  20.538  1.00 28.17 LIG-0.02  C 
ATOM      8  CD1 LEU B   5     -17.979 -16.130  21.566  1.00 29.22 LIG 0.01  C 
ATOM      9  CD2 LEU B   5     -17.159 -13.797  21.137  1.00 30.00 LIG 0.01  C 
ENDBRANCH 6 7
ENDBRANCH 5 6
BRANCH 5 10
ATOM     10  C   LEU B   5     -13.678 -15.399  20.680  1.00 16.86 LIG 0.24  C 
ATOM     11 O    LEU B   5     -13.073 -16.315  20.211  1.00 19.60 LIG-0.27  OA
ATOM     12  N   ALA B   6     -13.383 -14.884  21.871  1.00 16.13 LIG-0.35  N 
ATOM     13 H    ALA B   6     -13.810 -14.220  22.213  1.00 16.13 LIG 0.16  HD
BRANCH 12 14
ATOM     14  CA  ALA B   6     -12.303 -15.391  22.725  1.00 17.44 LIG 0.17  C 
ATOM     15  CB  ALA B   6     -12.469 -16.898  22.879  1.00 18.99 LIG 0.04  C 
BRANCH 14 16
ATOM     16  C   ALA B   6     -10.932 -15.098  22.112  1.00 24.46 LIG 0.24  C 
ATOM     17 O    ALA B   6     -10.143 -14.378  22.715  1.00 27.52 LIG-0.27  OA
ATOM     18  N   TRP B   7     -10.654 -15.564  20.893  1.00 32.31 LIG-0.35  N 
ATOM     19 H    TRP B   7     -11.122 -16.144  20.463  1.00 32.31 LIG 0.16  HD
BRANCH 18 20
ATOM     20  CA  TRP B   7      -9.423 -15.055  20.177  1.00 35.59 LIG 0.18  C 
BRANCH 20 21
ATOM     21  C   TRP B   7      -9.640 -14.146  18.969  1.00 36.87 LIG 0.25  C 
ATOM     22 N    NH2 B   8      -8.530 -13.906  18.113  1.00 48.35 LIG-0.06  NA
ATOM     23 O    TRP B   7     -10.737 -13.667  18.726  1.00 43.64 LIG-0.28  OA
ENDBRANCH 20 21
BRANCH 20 24
ATOM     24  CB  TRP B   7      -8.525 -16.206  19.761  1.00 36.27 LIG 0.07  C 
BRANCH 24 25
ATOM     25  CG  TRP B   7      -8.531 -17.353  20.715  1.00 35.16 LIG-0.03  A 
ATOM     26  CD2 TRP B   7      -8.388 -17.290  22.132  1.00 33.00 LIG-0.00  A 
ATOM     27  CE3 TRP B   7      -8.185 -16.245  23.046  1.00 33.14 LIG 0.01  A 
ATOM     28  CE2 TRP B   7      -8.463 -18.614  22.617  1.00 37.76 LIG 0.04  A 
ATOM     29  CZ3 TRP B   7      -8.085 -16.553  24.401  1.00 39.74 LIG 0.00  A 
ATOM     30  CH2 TRP B   7      -8.166 -17.889  24.855  1.00 37.98 LIG 0.00  A 
ATOM     31  CZ2 TRP B   7      -8.338 -18.929  23.986  1.00 35.74 LIG 0.03  A 
ATOM     32  NE1 TRP B   7      -8.647 -19.432  21.532  1.00 36.87 LIG-0.36  N 
ATOM     33  CD1 TRP B   7      -8.676 -18.667  20.396  1.00 32.46 LIG 0.10  A 
ATOM     34 HE1  TRP B   7      -8.729 -20.288  21.561  1.00 36.87 LIG 0.17  HD
ENDBRANCH 24 25
ENDBRANCH 20 24
ENDBRANCH 18 20
ENDBRANCH 14 16
ENDBRANCH 12 14
ENDBRANCH 5 10
ENDBRANCH 3 5
BRANCH 1 35
ATOM     35  CA  ALA B   4     -13.225 -13.731  16.739  1.00 18.93 LIG 0.17  C 
ATOM     36  CB  ALA B   4     -12.147 -14.770  16.521  1.00 20.14 LIG 0.04  C 
BRANCH 35 37
ATOM     37  N   ALA B   4     -12.777 -12.428  16.297  1.00 16.93 LIG-0.35  N 
ATOM     38  C   GLU B   3     -12.804 -12.084  15.015  1.00 16.00 LIG 0.24  C 
ATOM     39 O    GLU B   3     -13.271 -12.801  14.146  1.00 18.04 LIG-0.27  OA
ATOM     40 H    ALA B   4     -12.500 -11.913  16.927  1.00 16.93 LIG 0.16  HD
BRANCH 38 41
ATOM     41  CA  GLU B   3     -12.231 -10.711  14.671  1.00 15.64 LIG 0.18  C 
BRANCH 41 42
ATOM     42  CB  GLU B   3     -13.135  -9.566  15.178  1.00 16.94 LIG 0.04  C 
BRANCH 42 43
ATOM     43  CG  GLU B   3     -14.561  -9.658  14.680  1.00 17.50 LIG 0.12  C 
BRANCH 43 44
ATOM     44  CD  GLU B   3     -15.572  -8.839  15.454  1.00 19.64 LIG 0.17  C 
ATOM     45 OE1  GLU B   3     -16.397  -8.167  14.800  1.00 22.12 LIG-0.65  OA
ATOM     46 OE2  GLU B   3     -15.549  -8.859  16.697  1.00 20.68 LIG-0.65  OA
ENDBRANCH 43 44
ENDBRANCH 42 43
ENDBRANCH 41 42
BRANCH 41 47
ATOM     47  N   GLU B   3     -12.048 -10.638  13.211  1.00 14.76 LIG-0.35  N 
ATOM     48 H    GLU B   3     -12.711 -10.961  12.768  1.00 14.76 LIG 0.16  HD
ATOM     49  C   GLY B   2     -10.976 -10.131  12.627  1.00 15.24 LIG 0.24  C 
ATOM     50 O    GLY B   2     -10.034  -9.660  13.253  1.00 16.96 LIG-0.27  OA
BRANCH 49 51
ATOM     51  CA  GLY B   2     -10.970 -10.149  11.098  1.00 16.40 LIG 0.23  C 
BRANCH 51 52
ATOM     52  N   GLY B   2      -9.649  -9.867  10.492  1.00 16.09 LIG-0.35  N 
ATOM     53 H    GLY B   2      -9.588  -9.089  10.130  1.00 16.09 LIG 0.16  HD
ATOM     54  C   GLY B   1      -8.657 -10.743  10.512  1.00 19.38 LIG 0.23  C 
ATOM     55 O    GLY B   1      -8.888 -11.870  11.047  1.00 21.51 LIG-0.27  OA
BRANCH 54 56
ATOM     56  CA  GLY B   1      -7.400 -10.791   9.846  1.00 21.19 LIG 0.23  C 
BRANCH 56 57
ATOM     57  N   GLY B   1      -7.743  -9.609   9.107  1.00 20.21 LIG-0.35  N 
ATOM     58  C   ACE B   0      -8.228  -9.658   7.855  1.00 20.42 LIG 0.21  C 
ATOM     59 O    ACE B   0      -8.731 -10.657   7.435  1.00 26.00 LIG-0.27  OA
ATOM     60  CH3 ACE B   0      -8.202  -8.440   6.970  1.00 26.85 LIG 0.12  C 
ATOM     61 H    GLY B   1      -7.611  -8.876   9.536  1.00 20.21 LIG 0.16  HD
ENDBRANCH 56 57
ENDBRANCH 54 56
ENDBRANCH 51 52
ENDBRANCH 49 51
ENDBRANCH 41 47
ENDBRANCH 38 41
ENDBRANCH 35 37
ENDBRANCH 1 35
TORSDOF 21
ENDMDL
MODEL 9
USER: ADFR SOLUTION from run 57
USER: SCORE 21.383376 LL:  -4.955 LR: -18.867 RR:   0.000 FEB: -12.603
USER: RMSD 3.568752
USER: SEED 56
USER: STATUS no improvement in best in 9 clusters for 5 generations
USER: GENES 23
USER: genes 0 Translation |==|  0.39011 0.55564 0.58360
USER: genes 1 Rotation |==|  0.52813 0.48890 0.39962 0.98889
USER: genes 2 Torsion [C]-N--CA-[CB] |==|  0.45598
USER: genes 3 Torsion [N]-CA--CB-[CG] |==|  0.57213
USER: genes 4 Torsion [CA]-CB--CG-[CD1] |==|  0.27534
USER: genes 5 Torsion [N]-CA--C-[N] |==|  0.87547
USER: genes 6 Torsion [C]-N--CA-[CB] |==|  0.48376
USER: genes 7 Torsion [N]-CA--C-[N] |==|  0.49707
USER: genes 8 Torsion [C]-N--CA-[C] |==|  0.64545
USER: genes 9 Torsion [N]-CA--C-[N] |==|  0.41153
USER: genes 10 Torsion [N]-CA--CB-[CG] |==|  0.83410
USER: genes 11 Torsion [CA]-CB--CG-[CD2] |==|  0.21481
USER: genes 12 Torsion [N]-C--CA-[N] |==|  0.39134
USER: genes 13 Torsion [C]-CA--N-[C] |==|  0.58073
USER: genes 14 Torsion [N]-C--CA-[N] |==|  0.44840
USER: genes 15 Torsion [C]-CA--CB-[CG] |==|  0.84692
USER: genes 16 Torsion [CA]-CB--CG-[CD] |==|  0.45438
USER: genes 17 Torsion [CB]-CG--CD-[OE1] |==|  0.85927
USER: genes 18 Torsion [C]-CA--N-[C] |==|  0.62588
USER: genes 19 Torsion [N]-C--CA-[N] |==|  0.53628
USER: genes 20 Torsion [C]-CA--N-[C] |==|  0.20675
USER: genes 21 Torsion [N]-C--CA-[N] |==|  0.98987
USER: genes 22 Torsion [C]-CA--N-[C] |==|  0.73354
ROOT
ATOM      1  C   ALA B   4     -13.455 -13.736  18.182  1.00 18.54 LIG 0.24  C 
ATOM      2 O    ALA B   4     -12.848 -13.029  19.011  1.00 17.25 LIG-0.27  OA
ATOM      3  N   LEU B   5     -14.514 -14.504  18.468  1.00 18.87 LIG-0.35  N 
ATOM      4 H    LEU B   5     -15.009 -14.889  17.879  1.00 18.87 LIG 0.16  HD
ENDROOT
BRANCH 3 5
ATOM      5  CA  LEU B   5     -14.914 -14.745  19.868  1.00 18.34 LIG 0.18  C 
BRANCH 5 6
ATOM      6  CB  LEU B   5     -16.327 -15.297  19.906  1.00 23.26 LIG 0.04  C 
BRANCH 6 7
ATOM      7  CG  LEU B   5     -17.095 -15.027  21.192  1.00 28.17 LIG-0.02  C 
ATOM      8  CD1 LEU B   5     -18.017 -13.824  20.962  1.00 29.22 LIG 0.01  C 
ATOM      9  CD2 LEU B   5     -17.898 -16.236  21.643  1.00 30.00 LIG 0.01  C 
ENDBRANCH 6 7
ENDBRANCH 5 6
BRANCH 5 10
ATOM     10  C   LEU B   5     -13.968 -15.742  20.517  1.00 16.86 LIG 0.24  C 
ATOM     11 O    LEU B   5     -13.497 -15.520  21.591  1.00 19.60 LIG-0.27  OA
ATOM     12  N   ALA B   6     -13.650 -16.822  19.808  1.00 16.13 LIG-0.35  N 
ATOM     13 H    ALA B   6     -13.990 -16.993  19.036  1.00 16.13 LIG 0.16  HD
BRANCH 12 14
ATOM     14  CA  ALA B   6     -12.690 -17.833  20.263  1.00 17.44 LIG 0.17  C 
ATOM     15  CB  ALA B   6     -12.688 -18.988  19.269  1.00 18.99 LIG 0.04  C 
BRANCH 14 16
ATOM     16  C   ALA B   6     -11.278 -17.250  20.357  1.00 24.46 LIG 0.24  C 
ATOM     17 O    ALA B   6     -11.073 -16.103  19.974  1.00 27.52 LIG-0.27  OA
ATOM     18  N   TRP B   7     -10.281 -18.031  20.778  1.00 32.31 LIG-0.35  N 
ATOM     19 H    TRP B   7     -10.375 -18.803  21.144  1.00 32.31 LIG 0.16  HD
BRANCH 18 20
ATOM     20  CA  TRP B   7      -8.856 -17.550  20.614  1.00 35.59 LIG 0.18  C 
BRANCH 20 21
ATOM     21  C   TRP B   7      -7.875 -18.490  19.919  1.00 36.87 LIG 0.25  C 
ATOM     22 N    NH2 B   8      -6.828 -17.906  19.152  1.00 48.35 LIG-0.06  NA
ATOM     23 O    TRP B   7      -7.964 -19.702  20.041  1.00 43.64 LIG-0.28  OA
ENDBRANCH 20 21
BRANCH 20 24
ATOM     24  CB  TRP B   7      -8.268 -17.140  21.953  1.00 36.27 LIG 0.07  C 
BRANCH 24 25
ATOM     25  CG  TRP B   7      -9.015 -16.040  22.631  1.00 35.16 LIG-0.03  A 
ATOM     26  CD2 TRP B   7     -10.246 -16.152  23.341  1.00 33.00 LIG-0.00  A 
ATOM     27  CE3 TRP B   7     -11.123 -17.214  23.611  1.00 33.14 LIG 0.01  A 
ATOM     28  CE2 TRP B   7     -10.570 -14.862  23.816  1.00 37.76 LIG 0.04  A 
ATOM     29  CZ3 TRP B   7     -12.272 -16.957  24.356  1.00 39.74 LIG 0.00  A 
ATOM     30  CH2 TRP B   7     -12.568 -15.655  24.819  1.00 37.98 LIG 0.00  A 
ATOM     31  CZ2 TRP B   7     -11.745 -14.597  24.550  1.00 35.74 LIG 0.03  A 
ATOM     32  NE1 TRP B   7      -9.571 -14.018  23.407  1.00 36.87 LIG-0.36  N 
ATOM     33  CD1 TRP B   7      -8.648 -14.732  22.689  1.00 32.46 LIG 0.10  A 
ATOM     34 HE1  TRP B   7      -9.530 -13.175  23.575  1.00 36.87 LIG 0.17  HD
ENDBRANCH 24 25
ENDBRANCH 20 24
ENDBRANCH 18 20
ENDBRANCH 14 16
ENDBRANCH 12 14
ENDBRANCH 5 10
ENDBRANCH 3 5
BRANCH 1 35
ATOM     35  CA  ALA B   4     -13.032 -13.763  16.743  1.00 18.93 LIG 0.17  C 
ATOM     36  CB  ALA B   4     -11.905 -14.757  16.565  1.00 20.14 LIG 0.04  C 
BRANCH 35 37
ATOM     37  N   ALA B   4     -12.628 -12.446  16.300  1.00 16.93 LIG-0.35  N 
ATOM     38  C   GLU B   3     -12.758 -12.071  15.033  1.00 16.00 LIG 0.24  C 
ATOM     39 O    GLU B   3     -13.289 -12.770  14.186  1.00 18.04 LIG-0.27  OA
ATOM     40 H    ALA B   4     -12.305 -11.944  16.919  1.00 16.93 LIG 0.16  HD
BRANCH 38 41
ATOM     41  CA  GLU B   3     -12.223 -10.685  14.679  1.00 15.64 LIG 0.18  C 
BRANCH 41 42
ATOM     42  CB  GLU B   3     -13.159  -9.562  15.175  1.00 16.94 LIG 0.04  C 
BRANCH 42 43
ATOM     43  CG  GLU B   3     -14.583  -9.702  14.682  1.00 17.50 LIG 0.12  C 
BRANCH 43 44
ATOM     44  CD  GLU B   3     -15.611  -8.879  15.428  1.00 19.64 LIG 0.17  C 
ATOM     45 OE1  GLU B   3     -15.625  -8.961  16.675  1.00 22.12 LIG-0.65  OA
ATOM     46 OE2  GLU B   3     -16.397  -8.160  14.788  1.00 20.68 LIG-0.65  OA
ENDBRANCH 43 44
ENDBRANCH 42 43
ENDBRANCH 41 42
BRANCH 41 47
ATOM     47  N   GLU B   3     -12.038 -10.619  13.219  1.00 14.76 LIG-0.35  N 
ATOM     48 H    GLU B   3     -12.703 -10.938  12.777  1.00 14.76 LIG 0.16  HD
ATOM     49  C   GLY B   2     -10.961 -10.122  12.635  1.00 15.24 LIG 0.24  C 
ATOM     50 O    GLY B   2     -10.017  -9.655  13.259  1.00 16.96 LIG-0.27  OA
BRANCH 49 51
ATOM     51  CA  GLY B   2     -10.953 -10.145  11.105  1.00 16.40 LIG 0.23  C 
BRANCH 51 52
ATOM     52  N   GLY B   2      -9.632  -9.870  10.500  1.00 16.09 LIG-0.35  N 
ATOM     53 H    GLY B   2      -9.562  -9.086  10.152  1.00 16.09 LIG 0.16  HD
ATOM     54  C   GLY B   1      -8.651 -10.759  10.500  1.00 19.38 LIG 0.23  C 
ATOM     55 O    GLY B   1      -8.895 -11.893  11.014  1.00 21.51 LIG-0.27  OA
BRANCH 54 56
ATOM     56  CA  GLY B   1      -7.397 -10.811   9.828  1.00 21.19 LIG 0.23  C 
BRANCH 56 57
ATOM     57  N   GLY B   1      -7.716  -9.595   9.134  1.00 20.21 LIG-0.35  N 
ATOM     58  C   ACE B   0      -8.243  -9.588   7.899  1.00 20.42 LIG 0.21  C 
ATOM     59 O    ACE B   0      -8.800 -10.553   7.469  1.00 26.00 LIG-0.27  OA
ATOM     60  CH3 ACE B   0      -8.195  -8.347   7.047  1.00 26.85 LIG 0.12  C 
ATOM     61 H    GLY B   1      -7.539  -8.881   9.579  1.00 20.21 LIG 0.16  HD
ENDBRANCH 56 57
ENDBRANCH 54 56
ENDBRANCH 51 52
ENDBRANCH 49 51
ENDBRANCH 41 47
ENDBRANCH 38 41
ENDBRANCH 35 37
ENDBRANCH 1 35
TORSDOF 21
ENDMDL
MODEL 10
USER: ADFR SOLUTION from run 106
USER: SCORE 20.401335 LL:  -4.428 LR: -18.668 RR:   0.000 FEB: -12.404
USER: RMSD 2.947119
USER: SEED 105
USER: STATUS no improvement in best in 4 clusters for 5 generations
USER: GENES 23
USER: genes 0 Translation |==|  0.38524 0.55498 0.58660
USER: genes 1 Rotation |==|  0.50939 0.51488 0.46854 0.99870
USER: genes 2 Torsion [C]-N--CA-[CB] |==|  0.44137
USER: genes 3 Torsion [N]-CA--CB-[CG] |==|  0.77599
USER: genes 4 Torsion [CA]-CB--CG-[CD1] |==|  0.53274
USER: genes 5 Torsion [N]-CA--C-[N] |==|  0.09872
USER: genes 6 Torsion [C]-N--CA-[CB] |==|  0.49462
USER: genes 7 Torsion [N]-CA--C-[N] |==|  0.49712
USER: genes 8 Torsion [C]-N--CA-[C] |==|  0.77984
USER: genes 9 Torsion [N]-CA--C-[N] |==|  0.35513
USER: genes 10 Torsion [N]-CA--CB-[CG] |==|  0.95399
USER: genes 11 Torsion [CA]-CB--CG-[CD2] |==|  0.85223
USER: genes 12 Torsion [N]-C--CA-[N] |==|  0.45095
USER: genes 13 Torsion [C]-CA--N-[C] |==|  0.55476
USER: genes 14 Torsion [N]-C--CA-[N] |==|  0.45512
USER: genes 15 Torsion [C]-CA--CB-[CG] |==|  0.84634
USER: genes 16 Torsion [CA]-CB--CG-[CD] |==|  0.44717
USER: genes 17 Torsion [CB]-CG--CD-[OE1] |==|  0.36979
USER: genes 18 Torsion [C]-CA--N-[C] |==|  0.61167
USER: genes 19 Torsion [N]-C--CA-[N] |==|  0.53454
USER: genes 20 Torsion [C]-CA--N-[C] |==|  0.21403
USER: genes 21 Torsion [N]-C--CA-[N] |==|  0.97236
USER: genes 22 Torsion [C]-CA--N-[C] |==|  0.73333
ROOT
ATOM      1  C   ALA B   4     -13.557 -13.750  18.263  1.00 18.54 LIG 0.24  C 
ATOM      2 O    ALA B   4     -13.100 -12.844  18.987  1.00 17.25 LIG-0.27  OA
ATOM      3  N   LEU B   5     -14.327 -14.756  18.698  1.00 18.87 LIG-0.35  N 
ATOM      4 H    LEU B   5     -14.745 -15.306  18.185  1.00 18.87 LIG 0.16  HD
ENDROOT
BRANCH 3 5
ATOM      5  CA  LEU B   5     -14.512 -14.994  20.143  1.00 18.34 LIG 0.18  C 
BRANCH 5 6
ATOM      6  CB  LEU B   5     -15.777 -15.800  20.368  1.00 23.26 LIG 0.04  C 
BRANCH 6 7
ATOM      7  CG  LEU B   5     -17.071 -15.000  20.341  1.00 28.17 LIG-0.02  C 
ATOM      8  CD1 LEU B   5     -18.201 -15.888  20.870  1.00 29.22 LIG 0.01  C 
ATOM      9  CD2 LEU B   5     -16.969 -13.721  21.157  1.00 30.00 LIG 0.01  C 
ENDBRANCH 6 7
ENDBRANCH 5 6
BRANCH 5 10
ATOM     10  C   LEU B   5     -13.323 -15.757  20.703  1.00 16.86 LIG 0.24  C 
ATOM     11 O    LEU B   5     -13.467 -16.527  21.604  1.00 19.60 LIG-0.27  OA
ATOM     12  N   ALA B   6     -12.128 -15.476  20.188  1.00 16.13 LIG-0.35  N 
ATOM     13 H    ALA B   6     -12.017 -14.927  19.535  1.00 16.13 LIG 0.16  HD
BRANCH 12 14
ATOM     14  CA  ALA B   6     -10.879 -16.069  20.678  1.00 17.44 LIG 0.17  C 
ATOM     15  CB  ALA B   6      -9.727 -15.554  19.823  1.00 18.99 LIG 0.04  C 
BRANCH 14 16
ATOM     16  C   ALA B   6     -10.626 -15.693  22.140  1.00 24.46 LIG 0.24  C 
ATOM     17 O    ALA B   6     -11.381 -14.905  22.700  1.00 27.52 LIG-0.27  OA
ATOM     18  N   TRP B   7      -9.539 -16.167  22.751  1.00 32.31 LIG-0.35  N 
ATOM     19 H    TRP B   7      -9.028 -16.789  22.447  1.00 32.31 LIG 0.16  HD
BRANCH 18 20
ATOM     20  CA  TRP B   7      -9.142 -15.588  24.091  1.00 35.59 LIG 0.18  C 
BRANCH 20 21
ATOM     21  C   TRP B   7      -8.410 -14.248  24.086  1.00 36.87 LIG 0.25  C 
ATOM     22 N    NH2 B   8      -8.927 -13.208  24.908  1.00 48.35 LIG-0.06  NA
ATOM     23 O    TRP B   7      -7.397 -14.082  23.425  1.00 43.64 LIG-0.28  OA
ENDBRANCH 20 21
BRANCH 20 24
ATOM     24  CB  TRP B   7      -8.320 -16.586  24.888  1.00 36.27 LIG 0.07  C 
BRANCH 24 25
ATOM     25  CG  TRP B   7      -8.417 -17.988  24.387  1.00 35.16 LIG-0.03  A 
ATOM     26  CD2 TRP B   7      -9.609 -18.734  24.154  1.00 33.00 LIG-0.00  A 
ATOM     27  CE3 TRP B   7     -10.976 -18.463  24.318  1.00 33.14 LIG 0.01  A 
ATOM     28  CE2 TRP B   7      -9.218 -20.004  23.677  1.00 37.76 LIG 0.04  A 
ATOM     29  CZ3 TRP B   7     -11.897 -19.454  23.985  1.00 39.74 LIG 0.00  A 
ATOM     30  CH2 TRP B   7     -11.474 -20.716  23.507  1.00 37.98 LIG 0.00  A 
ATOM     31  CZ2 TRP B   7     -10.149 -21.016  23.361  1.00 35.74 LIG 0.03  A 
ATOM     32  NE1 TRP B   7      -7.848 -20.012  23.625  1.00 36.87 LIG-0.36  N 
ATOM     33  CD1 TRP B   7      -7.378 -18.802  24.061  1.00 32.46 LIG 0.10  A 
ATOM     34 HE1  TRP B   7      -7.362 -20.671  23.360  1.00 36.87 LIG 0.17  HD
ENDBRANCH 24 25
ENDBRANCH 20 24
ENDBRANCH 18 20
ENDBRANCH 14 16
ENDBRANCH 12 14
ENDBRANCH 5 10
ENDBRANCH 3 5
BRANCH 1 35
ATOM     35  CA  ALA B   4     -13.278 -13.766  16.789  1.00 18.93 LIG 0.17  C 
ATOM     36  CB  ALA B   4     -12.260 -14.841  16.478  1.00 20.14 LIG 0.04  C 
BRANCH 35 37
ATOM     37  N   ALA B   4     -12.812 -12.473  16.338  1.00 16.93 LIG-0.35  N 
ATOM     38  C   GLU B   3     -12.868 -12.123  15.059  1.00 16.00 LIG 0.24  C 
ATOM     39 O    GLU B   3     -13.378 -12.825  14.201  1.00 18.04 LIG-0.27  OA
ATOM     40 H    ALA B   4     -12.503 -11.967  16.962  1.00 16.93 LIG 0.16  HD
BRANCH 38 41
ATOM     41  CA  GLU B   3     -12.272 -10.763  14.702  1.00 15.64 LIG 0.18  C 
BRANCH 41 42
ATOM     42  CB  GLU B   3     -13.167  -9.599  15.180  1.00 16.94 LIG 0.04  C 
BRANCH 42 43
ATOM     43  CG  GLU B   3     -14.588  -9.681  14.667  1.00 17.50 LIG 0.12  C 
BRANCH 43 44
ATOM     44  CD  GLU B   3     -15.602  -8.860  15.434  1.00 19.64 LIG 0.17  C 
ATOM     45 OE1  GLU B   3     -16.397  -8.157  14.774  1.00 22.12 LIG-0.65  OA
ATOM     46 OE2  GLU B   3     -15.613  -8.909  16.675  1.00 20.68 LIG-0.65  OA
ENDBRANCH 43 44
ENDBRANCH 42 43
ENDBRANCH 41 42
BRANCH 41 47
ATOM     47  N   GLU B   3     -12.068 -10.715  13.244  1.00 14.76 LIG-0.35  N 
ATOM     48 H    GLU B   3     -12.710 -11.073  12.798  1.00 14.76 LIG 0.16  HD
ATOM     49  C   GLY B   2     -11.007 -10.178  12.666  1.00 15.24 LIG 0.24  C 
ATOM     50 O    GLY B   2     -10.096  -9.655  13.296  1.00 16.96 LIG-0.27  OA
BRANCH 49 51
ATOM     51  CA  GLY B   2     -10.975 -10.228  11.138  1.00 16.40 LIG 0.23  C 
BRANCH 51 52
ATOM     52  N   GLY B   2      -9.662  -9.887  10.546  1.00 16.09 LIG-0.35  N 
ATOM     53 H    GLY B   2      -9.622  -9.094  10.216  1.00 16.09 LIG 0.16  HD
ATOM     54  C   GLY B   1      -8.647 -10.736  10.532  1.00 19.38 LIG 0.23  C 
ATOM     55 O    GLY B   1      -8.848 -11.890  11.020  1.00 21.51 LIG-0.27  OA
BRANCH 54 56
ATOM     56  CA  GLY B   1      -7.389 -10.724   9.865  1.00 21.19 LIG 0.23  C 
BRANCH 56 57
ATOM     57  N   GLY B   1      -7.812  -9.596   9.083  1.00 20.21 LIG-0.35  N 
ATOM     58  C   ACE B   0      -8.328  -9.729   7.850  1.00 20.42 LIG 0.21  C 
ATOM     59 O    ACE B   0      -8.791 -10.771   7.492  1.00 26.00 LIG-0.27  OA
ATOM     60  CH3 ACE B   0      -8.388  -8.556   6.908  1.00 26.85 LIG 0.12  C 
ATOM     61 H    GLY B   1      -7.705  -8.838   9.473  1.00 20.21 LIG 0.16  HD
ENDBRANCH 56 57
ENDBRANCH 54 56
ENDBRANCH 51 52
ENDBRANCH 49 51
ENDBRANCH 41 47
ENDBRANCH 38 41
ENDBRANCH 35 37
ENDBRANCH 1 35
TORSDOF 21
ENDMDL
MODEL 11
USER: ADFR SOLUTION from run 171
USER: SCORE 22.087813 LL:  -5.343 LR: -18.430 RR:   0.000 FEB: -12.166
USER: RMSD 3.960585
USER: SEED 170
USER: STATUS no improvement in best in 6 clusters for 5 generations
USER: GENES 23
USER: genes 0 Translation |==|  0.38036 0.55395 0.58361
USER: genes 1 Rotation |==|  0.52382 0.50742 0.41486 0.99207
USER: genes 2 Torsion [C]-N--CA-[CB] |==|  0.49449
USER: genes 3 Torsion [N]-CA--CB-[CG] |==|  0.69188
USER: genes 4 Torsion [CA]-CB--CG-[CD1] |==|  0.63873
USER: genes 5 Torsion [N]-CA--C-[N] |==|  0.36667
USER: genes 6 Torsion [C]-N--CA-[CB] |==|  0.86050
USER: genes 7 Torsion [N]-CA--C-[N] |==|  0.93878
USER: genes 8 Torsion [C]-N--CA-[C] |==|  0.57681
USER: genes 9 Torsion [N]-CA--C-[N] |==|  0.51607
USER: genes 10 Torsion [N]-CA--CB-[CG] |==|  0.25385
USER: genes 11 Torsion [CA]-CB--CG-[CD2] |==|  0.82537
USER: genes 12 Torsion [N]-C--CA-[N] |==|  0.41612
USER: genes 13 Torsion [C]-CA--N-[C] |==|  0.55758
USER: genes 14 Torsion [N]-C--CA-[N] |==|  0.45667
USER: genes 15 Torsion [C]-CA--CB-[CG] |==|  0.84694
USER: genes 16 Torsion [CA]-CB--CG-[CD] |==|  0.44573
USER: genes 17 Torsion [CB]-CG--CD-[OE1] |==|  0.37269
USER: genes 18 Torsion [C]-CA--N-[C] |==|  0.61158
USER: genes 19 Torsion [N]-C--CA-[N] |==|  0.53959
USER: genes 20 Torsion [C]-CA--N-[C] |==|  0.20794
USER: genes 21 Torsion [N]-C--CA-[N] |==|  0.98386
USER: genes 22 Torsion [C]-CA--N-[C] |==|  0.73889
ROOT
ATOM      1  C   ALA B   4     -13.659 -13.772  18.183  1.00 18.54 LIG 0.24  C 
ATOM      2 O    ALA B   4     -13.042 -13.021  18.964  1.00 17.25 LIG-0.27  OA
ATOM      3  N   LEU B   5     -14.642 -14.605  18.546  1.00 18.87 LIG-0.35  N 
ATOM      4 H    LEU B   5     -15.152 -15.027  17.995  1.00 18.87 LIG 0.16  HD
ENDROOT
BRANCH 3 5
ATOM      5  CA  LEU B   5     -14.923 -14.864  19.972  1.00 18.34 LIG 0.18  C 
BRANCH 5 6
ATOM      6  CB  LEU B   5     -16.110 -15.800  20.095  1.00 23.26 LIG 0.04  C 
BRANCH 6 7
ATOM      7  CG  LEU B   5     -17.375 -15.174  20.665  1.00 28.17 LIG-0.02  C 
ATOM      8  CD1 LEU B   5     -17.895 -16.071  21.792  1.00 29.22 LIG 0.01  C 
ATOM      9  CD2 LEU B   5     -17.135 -13.762  21.173  1.00 30.00 LIG 0.01  C 
ENDBRANCH 6 7
ENDBRANCH 5 6
BRANCH 5 10
ATOM     10  C   LEU B   5     -13.712 -15.497  20.636  1.00 16.86 LIG 0.24  C 
ATOM     11 O    LEU B   5     -13.188 -16.456  20.154  1.00 19.60 LIG-0.27  OA
ATOM     12  N   ALA B   6     -13.316 -14.975  21.794  1.00 16.13 LIG-0.35  N 
ATOM     13 H    ALA B   6     -13.684 -14.281  22.145  1.00 16.13 LIG 0.16  HD
BRANCH 12 14
ATOM     14  CA  ALA B   6     -12.216 -15.525  22.594  1.00 17.44 LIG 0.17  C 
ATOM     15  CB  ALA B   6     -12.439 -17.022  22.768  1.00 18.99 LIG 0.04  C 
BRANCH 14 16
ATOM     16  C   ALA B   6     -10.868 -15.296  21.907  1.00 24.46 LIG 0.24  C 
ATOM     17 O    ALA B   6      -9.848 -15.234  22.585  1.00 27.52 LIG-0.27  OA
ATOM     18  N   TRP B   7     -10.840 -15.085  20.589  1.00 32.31 LIG-0.35  N 
ATOM     19 H    TRP B   7     -11.500 -15.207  20.052  1.00 32.31 LIG 0.16  HD
BRANCH 18 20
ATOM     20  CA  TRP B   7      -9.559 -14.591  19.954  1.00 35.59 LIG 0.18  C 
BRANCH 20 21
ATOM     21  C   TRP B   7      -9.682 -13.767  18.675  1.00 36.87 LIG 0.25  C 
ATOM     22 N    NH2 B   8      -8.483 -13.405  18.002  1.00 48.35 LIG-0.06  NA
ATOM     23 O    TRP B   7     -10.774 -13.456  18.226  1.00 43.64 LIG-0.28  OA
ENDBRANCH 20 21
BRANCH 20 24
ATOM     24  CB  TRP B   7      -8.604 -15.744  19.698  1.00 36.27 LIG 0.07  C 
BRANCH 24 25
ATOM     25  CG  TRP B   7      -8.747 -16.359  18.346  1.00 35.16 LIG-0.03  A 
ATOM     26  CD2 TRP B   7      -9.895 -17.025  17.825  1.00 33.00 LIG-0.00  A 
ATOM     27  CE3 TRP B   7     -11.161 -17.336  18.343  1.00 33.14 LIG 0.01  A 
ATOM     28  CE2 TRP B   7      -9.578 -17.434  16.511  1.00 37.76 LIG 0.04  A 
ATOM     29  CZ3 TRP B   7     -12.064 -18.020  17.533  1.00 39.74 LIG 0.00  A 
ATOM     30  CH2 TRP B   7     -11.717 -18.414  16.221  1.00 37.98 LIG 0.00  A 
ATOM     31  CZ2 TRP B   7     -10.483 -18.148  15.699  1.00 35.74 LIG 0.03  A 
ATOM     32  NE1 TRP B   7      -8.293 -17.026  16.259  1.00 36.87 LIG-0.36  N 
ATOM     33  CD1 TRP B   7      -7.801 -16.390  17.369  1.00 32.46 LIG 0.10  A 
ATOM     34 HE1  TRP B   7      -7.865 -17.148  15.524  1.00 36.87 LIG 0.17  HD
ENDBRANCH 24 25
ENDBRANCH 20 24
ENDBRANCH 18 20
ENDBRANCH 14 16
ENDBRANCH 12 14
ENDBRANCH 5 10
ENDBRANCH 3 5
BRANCH 1 35
ATOM     35  CA  ALA B   4     -13.341 -13.780  16.716  1.00 18.93 LIG 0.17  C 
ATOM     36  CB  ALA B   4     -12.319 -14.857  16.426  1.00 20.14 LIG 0.04  C 
BRANCH 35 37
ATOM     37  N   ALA B   4     -12.858 -12.486  16.287  1.00 16.93 LIG-0.35  N 
ATOM     38  C   GLU B   3     -12.896 -12.120  15.011  1.00 16.00 LIG 0.24  C 
ATOM     39 O    GLU B   3     -13.403 -12.806  14.139  1.00 18.04 LIG-0.27  OA
ATOM     40 H    ALA B   4     -12.551 -11.991  16.920  1.00 16.93 LIG 0.16  HD
BRANCH 38 41
ATOM     41  CA  GLU B   3     -12.283 -10.761  14.678  1.00 15.64 LIG 0.18  C 
BRANCH 41 42
ATOM     42  CB  GLU B   3     -13.166  -9.595  15.172  1.00 16.94 LIG 0.04  C 
BRANCH 42 43
ATOM     43  CG  GLU B   3     -14.588  -9.655  14.659  1.00 17.50 LIG 0.12  C 
BRANCH 43 44
ATOM     44  CD  GLU B   3     -15.596  -8.843  15.444  1.00 19.64 LIG 0.17  C 
ATOM     45 OE1  GLU B   3     -16.399  -8.135  14.800  1.00 22.12 LIG-0.65  OA
ATOM     46 OE2  GLU B   3     -15.593  -8.905  16.685  1.00 20.68 LIG-0.65  OA
ENDBRANCH 43 44
ENDBRANCH 42 43
ENDBRANCH 41 42
BRANCH 41 47
ATOM     47  N   GLU B   3     -12.075 -10.692  13.221  1.00 14.76 LIG-0.35  N 
ATOM     48 H    GLU B   3     -12.720 -11.036  12.768  1.00 14.76 LIG 0.16  HD
ATOM     49  C   GLY B   2     -11.007 -10.157  12.654  1.00 15.24 LIG 0.24  C 
ATOM     50 O    GLY B   2     -10.091  -9.655  13.294  1.00 16.96 LIG-0.27  OA
BRANCH 49 51
ATOM     51  CA  GLY B   2     -10.971 -10.184  11.126  1.00 16.40 LIG 0.23  C 
BRANCH 51 52
ATOM     52  N   GLY B   2      -9.643  -9.889  10.543  1.00 16.09 LIG-0.35  N 
ATOM     53 H    GLY B   2      -9.577  -9.103  10.200  1.00 16.09 LIG 0.16  HD
ATOM     54  C   GLY B   1      -8.652 -10.766  10.556  1.00 19.38 LIG 0.23  C 
ATOM     55 O    GLY B   1      -8.890 -11.905  11.061  1.00 21.51 LIG-0.27  OA
BRANCH 54 56
ATOM     56  CA  GLY B   1      -7.386 -10.800   9.904  1.00 21.19 LIG 0.23  C 
BRANCH 56 57
ATOM     57  N   GLY B   1      -7.729  -9.614   9.171  1.00 20.21 LIG-0.35  N 
ATOM     58  C   ACE B   0      -8.272  -9.659   7.943  1.00 20.42 LIG 0.21  C 
ATOM     59 O    ACE B   0      -8.821 -10.647   7.556  1.00 26.00 LIG-0.27  OA
ATOM     60  CH3 ACE B   0      -8.252  -8.450   7.046  1.00 26.85 LIG 0.12  C 
ATOM     61 H    GLY B   1      -7.556  -8.882   9.587  1.00 20.21 LIG 0.16  HD
ENDBRANCH 56 57
ENDBRANCH 54 56
ENDBRANCH 51 52
ENDBRANCH 49 51
ENDBRANCH 41 47
ENDBRANCH 38 41
ENDBRANCH 35 37
ENDBRANCH 1 35
TORSDOF 21
ENDMDL
MODEL 12
USER: ADFR SOLUTION from run 139
USER: SCORE 20.541014 LL:  -4.266 LR: -18.182 RR:   0.000 FEB: -11.918
USER: RMSD 2.515726
USER: SEED 138
USER: STATUS no improvement in best in 6 clusters for 5 generations
USER: GENES 23
USER: genes 0 Translation |==|  0.38210 0.55616 0.58330
USER: genes 1 Rotation |==|  0.51949 0.50928 0.43125 0.99478
USER: genes 2 Torsion [C]-N--CA-[CB] |==|  0.51741
USER: genes 3 Torsion [N]-CA--CB-[CG] |==|  0.69655
USER: genes 4 Torsion [CA]-CB--CG-[CD1] |==|  0.66339
USER: genes 5 Torsion [N]-CA--C-[N] |==|  0.39152
USER: genes 6 Torsion [C]-N--CA-[CB] |==|  0.57604
USER: genes 7 Torsion [N]-CA--C-[N] |==|  0.77345
USER: genes 8 Torsion [C]-N--CA-[C] |==|  0.74336
USER: genes 9 Torsion [N]-CA--C-[N] |==|  0.37900
USER: genes 10 Torsion [N]-CA--CB-[CG] |==|  0.73920
USER: genes 11 Torsion [CA]-CB--CG-[CD2] |==|  0.12269
USER: genes 12 Torsion [N]-C--CA-[N] |==|  0.42703
USER: genes 13 Torsion [C]-CA--N-[C] |==|  0.55522
USER: genes 14 Torsion [N]-C--CA-[N] |==|  0.45515
USER: genes 15 Torsion [C]-CA--CB-[CG] |==|  0.85600
USER: genes 16 Torsion [CA]-CB--CG-[CD] |==|  0.44543
USER: genes 17 Torsion [CB]-CG--CD-[OE1] |==|  0.36489
USER: genes 18 Torsion [C]-CA--N-[C] |==|  0.61466
USER: genes 19 Torsion [N]-C--CA-[N] |==|  0.53589
USER: genes 20 Torsion [C]-CA--N-[C] |==|  0.21139
USER: genes 21 Torsion [N]-C--CA-[N] |==|  0.97779
USER: genes 22 Torsion [C]-CA--N-[C] |==|  0.73912
ROOT
ATOM      1  C   ALA B   4     -13.623 -13.726  18.174  1.00 18.54 LIG 0.24  C 
ATOM      2 O    ALA B   4     -13.052 -12.923  18.939  1.00 17.25 LIG-0.27  OA
ATOM      3  N   LEU B   5     -14.546 -14.617  18.557  1.00 18.87 LIG-0.35  N 
ATOM      4 H    LEU B   5     -15.029 -15.080  18.017  1.00 18.87 LIG 0.16  HD
ENDROOT
BRANCH 3 5
ATOM      5  CA  LEU B   5     -14.799 -14.871  19.989  1.00 18.34 LIG 0.18  C 
BRANCH 5 6
ATOM      6  CB  LEU B   5     -15.772 -16.026  20.137  1.00 23.26 LIG 0.04  C 
BRANCH 6 7
ATOM      7  CG  LEU B   5     -17.163 -15.645  20.623  1.00 28.17 LIG-0.02  C 
ATOM      8  CD1 LEU B   5     -17.447 -16.406  21.922  1.00 29.22 LIG 0.01  C 
ATOM      9  CD2 LEU B   5     -17.303 -14.147  20.839  1.00 30.00 LIG 0.01  C 
ENDBRANCH 6 7
ENDBRANCH 5 6
BRANCH 5 10
ATOM     10  C   LEU B   5     -13.499 -15.216  20.696  1.00 16.86 LIG 0.24  C 
ATOM     11 O    LEU B   5     -12.706 -15.947  20.184  1.00 19.60 LIG-0.27  OA
ATOM     12  N   ALA B   6     -13.327 -14.722  21.920  1.00 16.13 LIG-0.35  N 
ATOM     13 H    ALA B   6     -13.891 -14.190  22.293  1.00 16.13 LIG 0.16  HD
BRANCH 12 14
ATOM     14  CA  ALA B   6     -12.164 -15.030  22.759  1.00 17.44 LIG 0.17  C 
ATOM     15  CB  ALA B   6     -12.571 -14.906  24.222  1.00 18.99 LIG 0.04  C 
BRANCH 14 16
ATOM     16  C   ALA B   6     -11.657 -16.450  22.499  1.00 24.46 LIG 0.24  C 
ATOM     17 O    ALA B   6     -10.753 -16.629  21.690  1.00 27.52 LIG-0.27  OA
ATOM     18  N   TRP B   7     -12.267 -17.476  23.096  1.00 32.31 LIG-0.35  N 
ATOM     19 H    TRP B   7     -12.838 -17.410  23.736  1.00 32.31 LIG 0.16  HD
BRANCH 18 20
ATOM     20  CA  TRP B   7     -11.954 -18.882  22.637  1.00 35.59 LIG 0.18  C 
BRANCH 20 21
ATOM     21  C   TRP B   7     -12.850 -19.484  21.558  1.00 36.87 LIG 0.25  C 
ATOM     22 N    NH2 B   8     -12.224 -20.197  20.498  1.00 48.35 LIG-0.06  NA
ATOM     23 O    TRP B   7     -14.066 -19.385  21.617  1.00 43.64 LIG-0.28  OA
ENDBRANCH 20 21
BRANCH 20 24
ATOM     24  CB  TRP B   7     -11.908 -19.838  23.817  1.00 36.27 LIG 0.07  C 
BRANCH 24 25
ATOM     25  CG  TRP B   7     -10.541 -20.041  24.379  1.00 35.16 LIG-0.03  A 
ATOM     26  CD2 TRP B   7      -9.565 -19.035  24.640  1.00 33.00 LIG-0.00  A 
ATOM     27  CE3 TRP B   7      -9.525 -17.644  24.461  1.00 33.14 LIG 0.01  A 
ATOM     28  CE2 TRP B   7      -8.430 -19.685  25.174  1.00 37.76 LIG 0.04  A 
ATOM     29  CZ3 TRP B   7      -8.373 -16.955  24.835  1.00 39.74 LIG 0.00  A 
ATOM     30  CH2 TRP B   7      -7.255 -17.635  25.368  1.00 37.98 LIG 0.00  A 
ATOM     31  CZ2 TRP B   7      -7.255 -18.992  25.530  1.00 35.74 LIG 0.03  A 
ATOM     32  NE1 TRP B   7      -8.721 -21.024  25.230  1.00 36.87 LIG-0.36  N 
ATOM     33  CD1 TRP B   7      -9.985 -21.227  24.742  1.00 32.46 LIG 0.10  A 
ATOM     34 HE1  TRP B   7      -8.195 -21.637  25.524  1.00 36.87 LIG 0.17  HD
ENDBRANCH 24 25
ENDBRANCH 20 24
ENDBRANCH 18 20
ENDBRANCH 14 16
ENDBRANCH 12 14
ENDBRANCH 5 10
ENDBRANCH 3 5
BRANCH 1 35
ATOM     35  CA  ALA B   4     -13.314 -13.735  16.706  1.00 18.93 LIG 0.17  C 
ATOM     36  CB  ALA B   4     -12.294 -14.813  16.410  1.00 20.14 LIG 0.04  C 
BRANCH 35 37
ATOM     37  N   ALA B   4     -12.834 -12.441  16.272  1.00 16.93 LIG-0.35  N 
ATOM     38  C   GLU B   3     -12.865 -12.083  14.993  1.00 16.00 LIG 0.24  C 
ATOM     39 O    GLU B   3     -13.363 -12.777  14.123  1.00 18.04 LIG-0.27  OA
ATOM     40 H    ALA B   4     -12.534 -11.941  16.904  1.00 16.93 LIG 0.16  HD
BRANCH 38 41
ATOM     41  CA  GLU B   3     -12.256 -10.724  14.656  1.00 15.64 LIG 0.18  C 
BRANCH 41 42
ATOM     42  CB  GLU B   3     -13.154  -9.558  15.126  1.00 16.94 LIG 0.04  C 
BRANCH 42 43
ATOM     43  CG  GLU B   3     -14.587  -9.674  14.656  1.00 17.50 LIG 0.12  C 
BRANCH 43 44
ATOM     44  CD  GLU B   3     -15.593  -8.856  15.437  1.00 19.64 LIG 0.17  C 
ATOM     45 OE1  GLU B   3     -16.397  -8.152  14.788  1.00 22.12 LIG-0.65  OA
ATOM     46 OE2  GLU B   3     -15.588  -8.907  16.678  1.00 20.68 LIG-0.65  OA
ENDBRANCH 43 44
ENDBRANCH 42 43
ENDBRANCH 41 42
BRANCH 41 47
ATOM     47  N   GLU B   3     -12.026 -10.667  13.203  1.00 14.76 LIG-0.35  N 
ATOM     48 H    GLU B   3     -12.669 -11.006  12.743  1.00 14.76 LIG 0.16  HD
ATOM     49  C   GLY B   2     -10.943 -10.150  12.648  1.00 15.24 LIG 0.24  C 
ATOM     50 O    GLY B   2     -10.031  -9.655  13.297  1.00 16.96 LIG-0.27  OA
BRANCH 49 51
ATOM     51  CA  GLY B   2     -10.886 -10.188  11.120  1.00 16.40 LIG 0.23  C 
BRANCH 51 52
ATOM     52  N   GLY B   2      -9.553  -9.884  10.554  1.00 16.09 LIG-0.35  N 
ATOM     53 H    GLY B   2      -9.486  -9.093  10.220  1.00 16.09 LIG 0.16  HD
ATOM     54  C   GLY B   1      -8.560 -10.758  10.565  1.00 19.38 LIG 0.23  C 
ATOM     55 O    GLY B   1      -8.801 -11.904  11.054  1.00 21.51 LIG-0.27  OA
BRANCH 54 56
ATOM     56  CA  GLY B   1      -7.289 -10.782   9.925  1.00 21.19 LIG 0.23  C 
BRANCH 56 57
ATOM     57  N   GLY B   1      -7.648  -9.619   9.162  1.00 20.21 LIG-0.35  N 
ATOM     58  C   ACE B   0      -8.180  -9.702   7.932  1.00 20.42 LIG 0.21  C 
ATOM     59 O    ACE B   0      -8.708 -10.708   7.563  1.00 26.00 LIG-0.27  OA
ATOM     60  CH3 ACE B   0      -8.176  -8.513   7.009  1.00 26.85 LIG 0.12  C 
ATOM     61 H    GLY B   1      -7.492  -8.875   9.563  1.00 20.21 LIG 0.16  HD
ENDBRANCH 56 57
ENDBRANCH 54 56
ENDBRANCH 51 52
ENDBRANCH 49 51
ENDBRANCH 41 47
ENDBRANCH 38 41
ENDBRANCH 35 37
ENDBRANCH 1 35
TORSDOF 21
ENDMDL
