MODEL 1
USER: ADFR SOLUTION from run 168
USER: SCORE 16.620757 LL:  -2.989 LR: -14.839 RR:   0.000 FEB:  -7.381
USER: RMSD 3.553854
USER: SEED 167
USER: STATUS no improvement in best in 9 clusters for 5 generations
USER: GENES 27
USER: genes 0 Translation |==|  0.43484 0.40972 0.50641
USER: genes 1 Rotation |==|  0.48293 0.47827 0.46587 0.99807
USER: genes 2 Torsion [C]-N--CA-[CB] |==|  0.59020
USER: genes 3 Torsion [N]-CA--C-[N] |==|  0.83952
USER: genes 4 Torsion [C]-N--CA-[C] |==|  0.84846
USER: genes 5 Torsion [N]-CA--CB-[OG] |==|  0.97902
USER: genes 6 Torsion [CA]-CB--OG-[HG] |==|  0.24978
USER: genes 7 Torsion [N]-CA--C-[N] |==|  0.33357
USER: genes 8 Torsion [C]-N--CA-[CB] |==|  0.37604
USER: genes 9 Torsion [N]-CA--C-[O] |==|  0.13019
USER: genes 10 Torsion [N]-CA--CB-[CG] |==|  0.90582
USER: genes 11 Torsion [CA]-CB--CG-[CD] |==|  0.53103
USER: genes 12 Torsion [CB]-CG--CD-[NE2] |==|  0.49428
USER: genes 13 Torsion [N]-CA--CB-[CG] |==|  0.51718
USER: genes 14 Torsion [CA]-CB--CG-[OD1] |==|  0.88580
USER: genes 15 Torsion [N]-C--CA-[N] |==|  0.44418
USER: genes 16 Torsion [C]-CA--N-[C] |==|  0.78297
USER: genes 17 Torsion [N]-C--CA-[N] |==|  0.18655
USER: genes 18 Torsion [C]-CA--CB-[OG] |==|  0.57090
USER: genes 19 Torsion [CA]-CB--OG-[HG] |==|  0.19202
USER: genes 20 Torsion [C]-CA--N-[C] |==|  0.77095
USER: genes 21 Torsion [N]-C--CA-[N] |==|  0.93701
USER: genes 22 Torsion [C]-CA--CB-[CG] |==|  0.29224
USER: genes 23 Torsion [CA]-CB--CG-[CD] |==|  0.86123
USER: genes 24 Torsion [CB]-CG--CD-[OE1] |==|  0.23500
USER: genes 25 Torsion [C]-CA--CB-[OG] |==|  0.32991
USER: genes 26 Torsion [CA]-CB--OG-[HG] |==|  0.90807
ROOT
ATOM      1  C   SER C 503      78.147  24.462 -14.424  1.00 42.27 LIG 0.24  C 
ATOM      2 O    SER C 503      79.323  24.807 -14.328  1.00 46.84 LIG-0.27  OA
ATOM      3  N   ASP C 504      77.767  23.295 -14.927  1.00 51.15 LIG-0.34  N 
ATOM      4 H    ASP C 504      76.955  23.013 -14.905  1.00 51.15 LIG 0.16  HD
ENDROOT
BRANCH 3 5
ATOM      5  CA  ASP C 504      78.698  22.370 -15.571  1.00 56.79 LIG 0.19  C 
BRANCH 5 6
ATOM      6  C   ASP C 504      79.908  23.135 -16.126  1.00 67.42 LIG 0.24  C 
ATOM      7  N   SER C 505      79.640  24.099 -17.002  1.00 81.52 LIG-0.34  N 
ATOM      8 H    SER C 505      78.846  24.296 -17.268  1.00 81.52 LIG 0.16  HD
ATOM      9 O    ASP C 504      81.054  22.860 -15.764  1.00 66.01 LIG-0.27  OA
BRANCH 7 10
ATOM     10  CA  SER C 505      80.692  24.919 -17.598  1.00 90.64 LIG 0.20  C 
BRANCH 10 11
ATOM     11  CB  SER C 505      80.092  25.989 -18.504  1.00 89.01 LIG 0.20  C 
BRANCH 11 12
ATOM     12 OG   SER C 505      78.701  25.783 -18.654  1.00 87.22 LIG-0.40  OA
ATOM     13 HG   SER C 505      78.290  26.200 -18.052  1.00 87.22 LIG 0.21  HD
ENDBRANCH 11 12
ENDBRANCH 10 11
BRANCH 10 14
ATOM     14  C   SER C 505      81.543  25.564 -16.508  1.00 98.93 LIG 0.24  C 
ATOM     15  N   GLN C 506      82.838  25.261 -16.516  1.00110.12 LIG-0.35  N 
ATOM     16 H    GLN C 506      83.234  24.859 -17.165  1.00110.12 LIG 0.16  HD
ATOM     17 O    SER C 505      81.038  26.331 -15.686  1.00 94.47 LIG-0.27  OA
BRANCH 15 18
ATOM     18  CA  GLN C 506      83.707  25.596 -15.394  1.00115.19 LIG 0.16  C 
BRANCH 18 19
ATOM     19  C   GLN C 506      84.554  26.838 -15.670  1.00118.66 LIG 0.22  C 
ATOM     20 O    GLN C 506      84.047  27.858 -16.141  1.00117.46 LIG-0.29  OA
ENDBRANCH 18 19
BRANCH 18 21
ATOM     21  CB  GLN C 506      84.603  24.398 -15.064  1.00118.15 LIG 0.04  C 
BRANCH 21 22
ATOM     22  CG  GLN C 506      83.924  23.039 -15.295  1.00119.48 LIG 0.10  C 
BRANCH 22 23
ATOM     23  CD  GLN C 506      84.701  21.855 -14.720  1.00116.76 LIG 0.21  C 
ATOM     24  NE2 GLN C 506      84.142  20.656 -14.852  1.00111.94 LIG-0.37  N 
ATOM     25 21HE GLN C 506      83.380  20.578 -15.243  1.00111.94 LIG 0.16  HD
ATOM     26 22HE GLN C 506      84.542  19.959 -14.547  1.00111.94 LIG 0.16  HD
ATOM     27 OE1  GLN C 506      85.790  22.019 -14.169  1.00116.06 LIG-0.27  OA
ENDBRANCH 22 23
ENDBRANCH 21 22
ENDBRANCH 18 21
ENDBRANCH 15 18
ENDBRANCH 10 14
ENDBRANCH 7 10
ENDBRANCH 5 6
BRANCH 5 28
ATOM     28  CB  ASP C 504      77.976  21.600 -16.691  1.00 57.84 LIG 0.15  C 
BRANCH 28 29
ATOM     29  CG  ASP C 504      78.831  20.505 -17.319  1.00 60.92 LIG 0.17  C 
ATOM     30 OD2  ASP C 504      78.284  19.408 -17.588  1.00 60.43 LIG-0.65  OA
ATOM     31 OD1  ASP C 504      80.038  20.733 -17.546  1.00 59.69 LIG-0.65  OA
ENDBRANCH 28 29
ENDBRANCH 5 28
ENDBRANCH 3 5
BRANCH 1 32
ATOM     32  CA  SER C 503      77.032  25.372 -13.940  1.00 44.19 LIG 0.20  C 
BRANCH 32 33
ATOM     33  N   SER C 503      77.549  26.373 -13.004  1.00 47.77 LIG-0.34  N 
ATOM     34 H    SER C 503      77.662  27.155 -13.343  1.00 47.77 LIG 0.16  HD
ATOM     35  C   SER C 502      77.810  26.063 -11.735  1.00 50.79 LIG 0.24  C 
ATOM     36 O    SER C 502      77.382  25.055 -11.192  1.00 48.58 LIG-0.27  OA
BRANCH 35 37
ATOM     37  CA  SER C 502      78.696  27.028 -10.968  1.00 60.54 LIG 0.20  C 
BRANCH 37 38
ATOM     38  CB  SER C 502      79.124  26.427  -9.641  1.00 53.64 LIG 0.20  C 
BRANCH 38 39
ATOM     39 OG   SER C 502      79.425  27.426  -8.694  1.00 59.09 LIG-0.40  OA
ATOM     40 HG   SER C 502      78.719  27.821  -8.470  1.00 59.09 LIG 0.21  HD
ENDBRANCH 38 39
ENDBRANCH 37 38
BRANCH 37 41
ATOM     41  N   SER C 502      77.969  28.281 -10.802  1.00 72.56 LIG-0.34  N 
ATOM     42 H    SER C 502      77.573  28.375 -10.045  1.00 72.56 LIG 0.16  HD
ATOM     43  C   GLU C 501      77.952  29.179 -11.782  1.00101.90 LIG 0.26  C 
ATOM     44 O    GLU C 501      78.794  29.188 -12.681  1.00103.22 LIG-0.27  OA
BRANCH 43 45
ATOM     45  CA  GLU C 501      76.843  30.239 -11.744  1.00101.55 LIG 0.40  C 
ATOM     46  N   GLU C 501      75.713  29.763 -10.953  1.00100.94 LIG 0.61  N 
BRANCH 45 47
ATOM     47  CB  GLU C 501      77.374  31.555 -11.169  1.00104.94 LIG 0.06  C 
BRANCH 47 48
ATOM     48  CG  GLU C 501      77.602  32.640 -12.207  1.00111.45 LIG 0.12  C 
BRANCH 48 49
ATOM     49  CD  GLU C 501      78.413  32.151 -13.390  1.00115.68 LIG 0.17  C 
ATOM     50 OE1  GLU C 501      77.819  31.569 -14.325  1.00117.56 LIG-0.65  OA
ATOM     51 OE2  GLU C 501      79.646  32.349 -13.382  1.00122.11 LIG-0.65  OA
ENDBRANCH 48 49
ENDBRANCH 47 48
ENDBRANCH 45 47
ENDBRANCH 43 45
ENDBRANCH 37 41
ENDBRANCH 35 37
ENDBRANCH 32 33
BRANCH 32 52
ATOM     52  CB  SER C 503      76.367  26.035 -15.139  1.00 49.05 LIG 0.20  C 
BRANCH 52 53
ATOM     53 OG   SER C 503      74.999  25.674 -15.208  1.00 54.59 LIG-0.40  OA
ATOM     54 HG   SER C 503      74.901  24.890 -14.922  1.00 54.59 LIG 0.21  HD
ENDBRANCH 52 53
ENDBRANCH 32 52
ENDBRANCH 1 32
TORSDOF 25
ENDMDL
MODEL 2
USER: ADFR SOLUTION from run 177
USER: SCORE 17.873533 LL:  -4.102 LR: -14.722 RR:   0.000 FEB:  -7.264
USER: RMSD 3.729119
USER: SEED 176
USER: STATUS searching
USER: GENES 27
USER: genes 0 Translation |==|  0.42365 0.41806 0.50953
USER: genes 1 Rotation |==|  0.53934 0.44039 0.51002 0.99477
USER: genes 2 Torsion [C]-N--CA-[CB] |==|  0.57919
USER: genes 3 Torsion [N]-CA--C-[N] |==|  0.38048
USER: genes 4 Torsion [C]-N--CA-[C] |==|  0.79193
USER: genes 5 Torsion [N]-CA--CB-[OG] |==|  0.28904
USER: genes 6 Torsion [CA]-CB--OG-[HG] |==|  0.23349
USER: genes 7 Torsion [N]-CA--C-[N] |==|  0.48333
USER: genes 8 Torsion [C]-N--CA-[CB] |==|  0.47700
USER: genes 9 Torsion [N]-CA--C-[O] |==|  0.25914
USER: genes 10 Torsion [N]-CA--CB-[CG] |==|  0.91436
USER: genes 11 Torsion [CA]-CB--CG-[CD] |==|  0.26048
USER: genes 12 Torsion [CB]-CG--CD-[NE2] |==|  0.23322
USER: genes 13 Torsion [N]-CA--CB-[CG] |==|  0.59449
USER: genes 14 Torsion [CA]-CB--CG-[OD1] |==|  0.34427
USER: genes 15 Torsion [N]-C--CA-[N] |==|  0.47656
USER: genes 16 Torsion [C]-CA--N-[C] |==|  0.79261
USER: genes 17 Torsion [N]-C--CA-[N] |==|  0.83989
USER: genes 18 Torsion [C]-CA--CB-[OG] |==|  0.67483
USER: genes 19 Torsion [CA]-CB--OG-[HG] |==|  0.72564
USER: genes 20 Torsion [C]-CA--N-[C] |==|  0.71217
USER: genes 21 Torsion [N]-C--CA-[N] |==|  0.74873
USER: genes 22 Torsion [C]-CA--CB-[CG] |==|  0.45188
USER: genes 23 Torsion [CA]-CB--CG-[CD] |==|  0.23466
USER: genes 24 Torsion [CB]-CG--CD-[OE1] |==|  0.35967
USER: genes 25 Torsion [C]-CA--CB-[OG] |==|  0.41134
USER: genes 26 Torsion [CA]-CB--OG-[HG] |==|  0.88196
ROOT
ATOM      1  C   SER C 503      77.954  24.637 -14.365  1.00 42.27 LIG 0.24  C 
ATOM      2 O    SER C 503      79.009  25.148 -13.999  1.00 46.84 LIG-0.27  OA
ATOM      3  N   ASP C 504      77.894  23.561 -15.139  1.00 51.15 LIG-0.34  N 
ATOM      4 H    ASP C 504      77.161  23.147 -15.316  1.00 51.15 LIG 0.16  HD
ENDROOT
BRANCH 3 5
ATOM      5  CA  ASP C 504      79.074  22.973 -15.769  1.00 56.79 LIG 0.19  C 
BRANCH 5 6
ATOM      6  C   ASP C 504      80.130  24.056 -16.035  1.00 67.42 LIG 0.24  C 
ATOM      7  N   SER C 505      81.387  23.732 -15.747  1.00 81.52 LIG-0.34  N 
ATOM      8 H    SER C 505      81.622  22.972 -15.421  1.00 81.52 LIG 0.16  HD
ATOM      9 O    ASP C 504      79.811  25.154 -16.496  1.00 66.01 LIG-0.27  OA
BRANCH 7 10
ATOM     10  CA  SER C 505      82.495  24.658 -15.967  1.00 90.64 LIG 0.20  C 
BRANCH 10 11
ATOM     11  CB  SER C 505      83.726  24.221 -15.179  1.00 89.01 LIG 0.20  C 
BRANCH 11 12
ATOM     12 OG   SER C 505      84.677  23.627 -16.042  1.00 87.22 LIG-0.40  OA
ATOM     13 HG   SER C 505      85.144  24.226 -16.399  1.00 87.22 LIG 0.21  HD
ENDBRANCH 11 12
ENDBRANCH 10 11
BRANCH 10 14
ATOM     14  C   SER C 505      82.823  24.750 -17.455  1.00 98.93 LIG 0.24  C 
ATOM     15  N   GLN C 506      83.734  25.654 -17.802  1.00110.12 LIG-0.35  N 
ATOM     16 H    GLN C 506      84.239  26.068 -17.242  1.00110.12 LIG 0.16  HD
ATOM     17 O    SER C 505      82.271  24.006 -18.268  1.00 94.47 LIG-0.27  OA
BRANCH 15 18
ATOM     18  CA  GLN C 506      83.951  26.022 -19.196  1.00115.19 LIG 0.16  C 
BRANCH 18 19
ATOM     19  C   GLN C 506      84.495  24.858 -20.023  1.00118.66 LIG 0.22  C 
ATOM     20 O    GLN C 506      83.734  24.115 -20.647  1.00117.46 LIG-0.29  OA
ENDBRANCH 18 19
BRANCH 18 21
ATOM     21  CB  GLN C 506      84.903  27.221 -19.267  1.00118.15 LIG 0.04  C 
BRANCH 21 22
ATOM     22  CG  GLN C 506      84.797  28.164 -18.059  1.00119.48 LIG 0.10  C 
BRANCH 22 23
ATOM     23  CD  GLN C 506      85.800  27.857 -16.947  1.00116.76 LIG 0.21  C 
ATOM     24  NE2 GLN C 506      87.017  28.375 -17.084  1.00111.94 LIG-0.37  N 
ATOM     25 21HE GLN C 506      87.205  28.853 -17.775  1.00111.94 LIG 0.16  HD
ATOM     26 22HE GLN C 506      87.615  28.233 -16.484  1.00111.94 LIG 0.16  HD
ATOM     27 OE1  GLN C 506      85.481  27.168 -15.978  1.00116.06 LIG-0.27  OA
ENDBRANCH 22 23
ENDBRANCH 21 22
ENDBRANCH 18 21
ENDBRANCH 15 18
ENDBRANCH 10 14
ENDBRANCH 7 10
ENDBRANCH 5 6
BRANCH 5 28
ATOM     28  CB  ASP C 504      78.670  22.268 -17.076  1.00 57.84 LIG 0.15  C 
BRANCH 28 29
ATOM     29  CG  ASP C 504      79.497  21.021 -17.370  1.00 60.92 LIG 0.17  C 
ATOM     30 OD2  ASP C 504      80.745  21.137 -17.424  1.00 60.43 LIG-0.65  OA
ATOM     31 OD1  ASP C 504      78.910  19.931 -17.544  1.00 59.69 LIG-0.65  OA
ENDBRANCH 28 29
ENDBRANCH 5 28
ENDBRANCH 3 5
BRANCH 1 32
ATOM     32  CA  SER C 503      76.621  25.215 -13.926  1.00 44.19 LIG 0.20  C 
BRANCH 32 33
ATOM     33  N   SER C 503      76.815  26.266 -12.925  1.00 47.77 LIG-0.34  N 
ATOM     34 H    SER C 503      76.700  27.066 -13.220  1.00 47.77 LIG 0.16  HD
ATOM     35  C   SER C 502      77.144  25.973 -11.668  1.00 50.79 LIG 0.24  C 
ATOM     36 O    SER C 502      77.021  24.854 -11.189  1.00 48.58 LIG-0.27  OA
BRANCH 35 37
ATOM     37  CA  SER C 502      77.704  27.107 -10.828  1.00 60.54 LIG 0.20  C 
BRANCH 37 38
ATOM     38  CB  SER C 502      76.648  28.175 -10.595  1.00 53.64 LIG 0.20  C 
BRANCH 38 39
ATOM     39 OG   SER C 502      77.024  29.405 -11.169  1.00 59.09 LIG-0.40  OA
ATOM     40 HG   SER C 502      77.349  29.903 -10.576  1.00 59.09 LIG 0.21  HD
ENDBRANCH 38 39
ENDBRANCH 37 38
BRANCH 37 41
ATOM     41  N   SER C 502      78.886  27.632 -11.500  1.00 72.56 LIG-0.34  N 
ATOM     42 H    SER C 502      78.727  28.134 -12.180  1.00 72.56 LIG 0.16  HD
ATOM     43  C   GLU C 501      80.100  27.326 -11.053  1.00101.90 LIG 0.26  C 
ATOM     44 O    GLU C 501      80.296  26.923  -9.906  1.00103.22 LIG-0.27  OA
BRANCH 43 45
ATOM     45  CA  GLU C 501      81.275  27.517 -12.021  1.00101.55 LIG 0.40  C 
ATOM     46  N   GLU C 501      81.511  26.293 -12.780  1.00100.94 LIG 0.61  N 
BRANCH 45 47
ATOM     47  CB  GLU C 501      81.004  28.686 -12.973  1.00104.94 LIG 0.06  C 
BRANCH 47 48
ATOM     48  CG  GLU C 501      82.243  29.215 -13.674  1.00111.45 LIG 0.12  C 
BRANCH 48 49
ATOM     49  CD  GLU C 501      82.585  28.428 -14.922  1.00115.68 LIG 0.17  C 
ATOM     50 OE1  GLU C 501      82.788  29.051 -15.988  1.00117.56 LIG-0.65  OA
ATOM     51 OE2  GLU C 501      82.651  27.183 -14.835  1.00122.11 LIG-0.65  OA
ENDBRANCH 48 49
ENDBRANCH 47 48
ENDBRANCH 45 47
ENDBRANCH 43 45
ENDBRANCH 37 41
ENDBRANCH 35 37
ENDBRANCH 32 33
BRANCH 32 52
ATOM     52  CB  SER C 503      75.877  25.748 -15.143  1.00 49.05 LIG 0.20  C 
BRANCH 52 53
ATOM     53 OG   SER C 503      74.478  25.610 -14.967  1.00 54.59 LIG-0.40  OA
ATOM     54 HG   SER C 503      74.311  24.858 -14.632  1.00 54.59 LIG 0.21  HD
ENDBRANCH 52 53
ENDBRANCH 32 52
ENDBRANCH 1 32
TORSDOF 25
ENDMDL
MODEL 3
USER: ADFR SOLUTION from run 144
USER: SCORE 17.768039 LL:  -3.985 LR: -14.638 RR:   0.000 FEB:  -7.181
USER: RMSD 3.655087
USER: SEED 143
USER: STATUS no improvement in best in 5 clusters for 5 generations
USER: GENES 27
USER: genes 0 Translation |==|  0.45503 0.40720 0.48977
USER: genes 1 Rotation |==|  0.48951 0.45973 0.46519 0.99705
USER: genes 2 Torsion [C]-N--CA-[CB] |==|  0.60054
USER: genes 3 Torsion [N]-CA--C-[N] |==|  0.82621
USER: genes 4 Torsion [C]-N--CA-[C] |==|  0.86597
USER: genes 5 Torsion [N]-CA--CB-[OG] |==|  0.91062
USER: genes 6 Torsion [CA]-CB--OG-[HG] |==|  0.43332
USER: genes 7 Torsion [N]-CA--C-[N] |==|  0.35015
USER: genes 8 Torsion [C]-N--CA-[CB] |==|  0.34537
USER: genes 9 Torsion [N]-CA--C-[O] |==|  0.64593
USER: genes 10 Torsion [N]-CA--CB-[CG] |==|  0.90739
USER: genes 11 Torsion [CA]-CB--CG-[CD] |==|  0.50427
USER: genes 12 Torsion [CB]-CG--CD-[NE2] |==|  0.49609
USER: genes 13 Torsion [N]-CA--CB-[CG] |==|  0.52100
USER: genes 14 Torsion [CA]-CB--CG-[OD1] |==|  0.36007
USER: genes 15 Torsion [N]-C--CA-[N] |==|  0.42921
USER: genes 16 Torsion [C]-CA--N-[C] |==|  0.76111
USER: genes 17 Torsion [N]-C--CA-[N] |==|  0.01056
USER: genes 18 Torsion [C]-CA--CB-[OG] |==|  0.77637
USER: genes 19 Torsion [CA]-CB--OG-[HG] |==|  0.61842
USER: genes 20 Torsion [C]-CA--N-[C] |==|  0.73804
USER: genes 21 Torsion [N]-C--CA-[N] |==|  0.53736
USER: genes 22 Torsion [C]-CA--CB-[CG] |==|  0.35484
USER: genes 23 Torsion [CA]-CB--CG-[CD] |==|  0.02548
USER: genes 24 Torsion [CB]-CG--CD-[OE1] |==|  0.16583
USER: genes 25 Torsion [C]-CA--CB-[OG] |==|  0.29652
USER: genes 26 Torsion [CA]-CB--OG-[HG] |==|  0.98561
ROOT
ATOM      1  C   SER C 503      78.495  24.409 -14.736  1.00 42.27 LIG 0.24  C 
ATOM      2 O    SER C 503      79.660  24.752 -14.544  1.00 46.84 LIG-0.27  OA
ATOM      3  N   ASP C 504      78.156  23.253 -15.291  1.00 51.15 LIG-0.34  N 
ATOM      4 H    ASP C 504      77.345  22.971 -15.337  1.00 51.15 LIG 0.16  HD
ENDROOT
BRANCH 3 5
ATOM      5  CA  ASP C 504      79.134  22.342 -15.882  1.00 56.79 LIG 0.19  C 
BRANCH 5 6
ATOM      6  C   ASP C 504      80.419  23.103 -16.243  1.00 67.42 LIG 0.24  C 
ATOM      7  N   SER C 505      80.294  24.063 -17.154  1.00 81.52 LIG-0.34  N 
ATOM      8 H    SER C 505      79.553  24.260 -17.542  1.00 81.52 LIG 0.16  HD
ATOM      9 O    ASP C 504      81.493  22.828 -15.703  1.00 66.01 LIG-0.27  OA
BRANCH 7 10
ATOM     10  CA  SER C 505      81.429  24.879 -17.580  1.00 90.64 LIG 0.20  C 
BRANCH 10 11
ATOM     11  CB  SER C 505      80.960  26.039 -18.451  1.00 89.01 LIG 0.20  C 
BRANCH 11 12
ATOM     12 OG   SER C 505      79.820  25.663 -19.200  1.00 87.22 LIG-0.40  OA
ATOM     13 HG   SER C 505      79.383  26.349 -19.408  1.00 87.22 LIG 0.21  HD
ENDBRANCH 11 12
ENDBRANCH 10 11
BRANCH 10 14
ATOM     14  C   SER C 505      82.192  25.401 -16.367  1.00 98.93 LIG 0.24  C 
ATOM     15  N   GLN C 506      83.497  25.146 -16.338  1.00110.12 LIG-0.35  N 
ATOM     16 H    GLN C 506      83.944  24.849 -17.009  1.00110.12 LIG 0.16  HD
ATOM     17 O    SER C 505      81.612  26.033 -15.482  1.00 94.47 LIG-0.27  OA
BRANCH 15 18
ATOM     18  CA  GLN C 506      84.289  25.359 -15.132  1.00115.19 LIG 0.16  C 
BRANCH 18 19
ATOM     19  C   GLN C 506      85.295  26.498 -15.294  1.00118.66 LIG 0.22  C 
ATOM     20 O    GLN C 506      86.489  26.329 -15.039  1.00117.46 LIG-0.29  OA
ENDBRANCH 18 19
BRANCH 18 21
ATOM     21  CB  GLN C 506      85.008  24.058 -14.756  1.00118.15 LIG 0.04  C 
BRANCH 21 22
ATOM     22  CG  GLN C 506      84.209  22.792 -15.099  1.00119.48 LIG 0.10  C 
BRANCH 22 23
ATOM     23  CD  GLN C 506      84.906  21.493 -14.692  1.00116.76 LIG 0.21  C 
ATOM     24  NE2 GLN C 506      84.249  20.364 -14.938  1.00111.94 LIG-0.37  N 
ATOM     25 21HE GLN C 506      83.472  20.390 -15.306  1.00111.94 LIG 0.16  HD
ATOM     26 22HE GLN C 506      84.601  19.608 -14.729  1.00111.94 LIG 0.16  HD
ATOM     27 OE1  GLN C 506      86.020  21.509 -14.168  1.00116.06 LIG-0.27  OA
ENDBRANCH 22 23
ENDBRANCH 21 22
ENDBRANCH 18 21
ENDBRANCH 15 18
ENDBRANCH 10 14
ENDBRANCH 7 10
ENDBRANCH 5 6
BRANCH 5 28
ATOM     28  CB  ASP C 504      78.531  21.664 -17.125  1.00 57.84 LIG 0.15  C 
BRANCH 28 29
ATOM     29  CG  ASP C 504      79.414  20.562 -17.700  1.00 60.92 LIG 0.17  C 
ATOM     30 OD2  ASP C 504      80.622  20.822 -17.914  1.00 60.43 LIG-0.65  OA
ATOM     31 OD1  ASP C 504      78.911  19.443 -17.936  1.00 59.69 LIG-0.65  OA
ENDBRANCH 28 29
ENDBRANCH 5 28
ENDBRANCH 3 5
BRANCH 1 32
ATOM     32  CA  SER C 503      77.346  25.308 -14.319  1.00 44.19 LIG 0.20  C 
BRANCH 32 33
ATOM     33  N   SER C 503      77.754  26.204 -13.235  1.00 47.77 LIG-0.34  N 
ATOM     34 H    SER C 503      78.030  26.977 -13.494  1.00 47.77 LIG 0.16  HD
ATOM     35  C   SER C 502      77.691  25.822 -11.960  1.00 50.79 LIG 0.24  C 
ATOM     36 O    SER C 502      77.039  24.858 -11.584  1.00 48.58 LIG-0.27  OA
BRANCH 35 37
ATOM     37  CA  SER C 502      78.490  26.641 -10.964  1.00 60.54 LIG 0.20  C 
BRANCH 37 38
ATOM     38  CB  SER C 502      77.610  27.095  -9.812  1.00 53.64 LIG 0.20  C 
BRANCH 38 39
ATOM     39 OG   SER C 502      76.847  28.227 -10.160  1.00 59.09 LIG-0.40  OA
ATOM     40 HG   SER C 502      76.850  28.774  -9.523  1.00 59.09 LIG 0.21  HD
ENDBRANCH 38 39
ENDBRANCH 37 38
BRANCH 37 41
ATOM     41  N   SER C 502      79.096  27.761 -11.675  1.00 72.56 LIG-0.34  N 
ATOM     42 H    SER C 502      78.596  28.455 -11.755  1.00 72.56 LIG 0.16  HD
ATOM     43  C   GLU C 501      80.336  27.662 -12.145  1.00101.90 LIG 0.26  C 
ATOM     44 O    GLU C 501      81.137  26.829 -11.717  1.00103.22 LIG-0.27  OA
BRANCH 43 45
ATOM     45  CA  GLU C 501      80.754  28.653 -13.239  1.00101.55 LIG 0.40  C 
ATOM     46  N   GLU C 501      82.001  28.222 -13.863  1.00100.94 LIG 0.61  N 
BRANCH 45 47
ATOM     47  CB  GLU C 501      79.653  28.787 -14.295  1.00104.94 LIG 0.06  C 
BRANCH 47 48
ATOM     48  CG  GLU C 501      79.235  30.219 -14.578  1.00111.45 LIG 0.12  C 
BRANCH 48 49
ATOM     49  CD  GLU C 501      80.147  31.232 -13.917  1.00115.68 LIG 0.17  C 
ATOM     50 OE1  GLU C 501      81.362  31.229 -14.215  1.00117.56 LIG-0.65  OA
ATOM     51 OE2  GLU C 501      79.646  32.031 -13.098  1.00122.11 LIG-0.65  OA
ENDBRANCH 48 49
ENDBRANCH 47 48
ENDBRANCH 45 47
ENDBRANCH 43 45
ENDBRANCH 37 41
ENDBRANCH 35 37
ENDBRANCH 32 33
BRANCH 32 52
ATOM     52  CB  SER C 503      76.860  26.098 -15.527  1.00 49.05 LIG 0.20  C 
BRANCH 52 53
ATOM     53 OG   SER C 503      75.613  25.597 -15.976  1.00 54.59 LIG-0.40  OA
ATOM     54 HG   SER C 503      75.410  24.912 -15.533  1.00 54.59 LIG 0.21  HD
ENDBRANCH 52 53
ENDBRANCH 32 52
ENDBRANCH 1 32
TORSDOF 25
ENDMDL
MODEL 4
USER: ADFR SOLUTION from run 95
USER: SCORE 17.359657 LL:  -4.436 LR: -14.102 RR:   0.000 FEB:  -6.644
USER: RMSD 2.822370
USER: SEED 94
USER: STATUS no improvement in best in 8 clusters for 5 generations
USER: GENES 27
USER: genes 0 Translation |==|  0.46832 0.42425 0.49956
USER: genes 1 Rotation |==|  0.53673 0.46574 0.49731 0.99746
USER: genes 2 Torsion [C]-N--CA-[CB] |==|  0.57954
USER: genes 3 Torsion [N]-CA--C-[N] |==|  0.34456
USER: genes 4 Torsion [C]-N--CA-[C] |==|  0.17290
USER: genes 5 Torsion [N]-CA--CB-[OG] |==|  0.93692
USER: genes 6 Torsion [CA]-CB--OG-[HG] |==|  0.36589
USER: genes 7 Torsion [N]-CA--C-[N] |==|  0.61673
USER: genes 8 Torsion [C]-N--CA-[CB] |==|  0.30900
USER: genes 9 Torsion [N]-CA--C-[O] |==|  0.23909
USER: genes 10 Torsion [N]-CA--CB-[CG] |==|  0.97814
USER: genes 11 Torsion [CA]-CB--CG-[CD] |==|  0.71968
USER: genes 12 Torsion [CB]-CG--CD-[NE2] |==|  0.83189
USER: genes 13 Torsion [N]-CA--CB-[CG] |==|  0.62885
USER: genes 14 Torsion [CA]-CB--CG-[OD1] |==|  0.79390
USER: genes 15 Torsion [N]-C--CA-[N] |==|  0.45196
USER: genes 16 Torsion [C]-CA--N-[C] |==|  0.73740
USER: genes 17 Torsion [N]-C--CA-[N] |==|  0.01545
USER: genes 18 Torsion [C]-CA--CB-[OG] |==|  0.36726
USER: genes 19 Torsion [CA]-CB--OG-[HG] |==|  0.36270
USER: genes 20 Torsion [C]-CA--N-[C] |==|  0.71603
USER: genes 21 Torsion [N]-C--CA-[N] |==|  0.54244
USER: genes 22 Torsion [C]-CA--CB-[CG] |==|  0.38175
USER: genes 23 Torsion [CA]-CB--CG-[CD] |==|  0.04242
USER: genes 24 Torsion [CB]-CG--CD-[OE1] |==|  0.17448
USER: genes 25 Torsion [C]-CA--CB-[OG] |==|  0.32550
USER: genes 26 Torsion [CA]-CB--OG-[HG] |==|  0.97020
ROOT
ATOM      1  C   SER C 503      78.725  24.767 -14.552  1.00 42.27 LIG 0.24  C 
ATOM      2 O    SER C 503      79.834  25.233 -14.303  1.00 46.84 LIG-0.27  OA
ATOM      3  N   ASP C 504      78.536  23.691 -15.305  1.00 51.15 LIG-0.34  N 
ATOM      4 H    ASP C 504      77.772  23.309 -15.400  1.00 51.15 LIG 0.16  HD
ENDROOT
BRANCH 3 5
ATOM      5  CA  ASP C 504      79.617  23.048 -16.050  1.00 56.79 LIG 0.19  C 
BRANCH 5 6
ATOM      6  C   ASP C 504      80.686  24.082 -16.434  1.00 67.42 LIG 0.24  C 
ATOM      7  N   SER C 505      81.927  23.817 -16.034  1.00 81.52 LIG-0.34  N 
ATOM      8 H    SER C 505      82.144  23.122 -15.578  1.00 81.52 LIG 0.16  HD
ATOM      9 O    ASP C 504      80.393  25.089 -17.080  1.00 66.01 LIG-0.27  OA
BRANCH 7 10
ATOM     10  CA  SER C 505      83.046  24.704 -16.343  1.00 90.64 LIG 0.20  C 
BRANCH 10 11
ATOM     11  CB  SER C 505      83.223  24.841 -17.851  1.00 89.01 LIG 0.20  C 
BRANCH 11 12
ATOM     12 OG   SER C 505      82.649  23.733 -18.517  1.00 87.22 LIG-0.40  OA
ATOM     13 HG   SER C 505      82.165  24.005 -19.147  1.00 87.22 LIG 0.21  HD
ENDBRANCH 11 12
ENDBRANCH 10 11
BRANCH 10 14
ATOM     14  C   SER C 505      82.830  26.074 -15.707  1.00 98.93 LIG 0.24  C 
ATOM     15  N   GLN C 506      83.139  27.127 -16.458  1.00110.12 LIG-0.35  N 
ATOM     16 H    GLN C 506      83.304  27.085 -17.301  1.00110.12 LIG 0.16  HD
ATOM     17 O    SER C 505      82.378  26.173 -14.565  1.00 94.47 LIG-0.27  OA
BRANCH 15 18
ATOM     18  CA  GLN C 506      83.225  28.468 -15.893  1.00115.19 LIG 0.16  C 
BRANCH 18 19
ATOM     19  C   GLN C 506      82.340  29.467 -16.637  1.00118.66 LIG 0.22  C 
ATOM     20 O    GLN C 506      81.152  29.604 -16.339  1.00117.46 LIG-0.29  OA
ENDBRANCH 18 19
BRANCH 18 21
ATOM     21  CB  GLN C 506      84.684  28.935 -15.900  1.00118.15 LIG 0.04  C 
BRANCH 21 22
ATOM     22  CG  GLN C 506      85.680  27.837 -16.303  1.00119.48 LIG 0.10  C 
BRANCH 22 23
ATOM     23  CD  GLN C 506      86.405  27.197 -15.119  1.00116.76 LIG 0.21  C 
ATOM     24  NE2 GLN C 506      87.146  28.005 -14.368  1.00111.94 LIG-0.37  N 
ATOM     25 21HE GLN C 506      87.200  28.842 -14.561  1.00111.94 LIG 0.16  HD
ATOM     26 22HE GLN C 506      87.571  27.692 -13.689  1.00111.94 LIG 0.16  HD
ATOM     27 OE1  GLN C 506      86.296  25.993 -14.885  1.00116.06 LIG-0.27  OA
ENDBRANCH 22 23
ENDBRANCH 21 22
ENDBRANCH 18 21
ENDBRANCH 15 18
ENDBRANCH 10 14
ENDBRANCH 7 10
ENDBRANCH 5 6
BRANCH 5 28
ATOM     28  CB  ASP C 504      79.048  22.358 -17.303  1.00 57.84 LIG 0.15  C 
BRANCH 28 29
ATOM     29  CG  ASP C 504      79.573  20.941 -17.502  1.00 60.92 LIG 0.17  C 
ATOM     30 OD2  ASP C 504      78.800  19.983 -17.255  1.00 60.43 LIG-0.65  OA
ATOM     31 OD1  ASP C 504      80.745  20.778 -17.905  1.00 59.69 LIG-0.65  OA
ENDBRANCH 28 29
ENDBRANCH 5 28
ENDBRANCH 3 5
BRANCH 1 32
ATOM     32  CA  SER C 503      77.471  25.405 -13.981  1.00 44.19 LIG 0.20  C 
BRANCH 32 33
ATOM     33  N   SER C 503      77.805  26.299 -12.870  1.00 47.77 LIG-0.34  N 
ATOM     34 H    SER C 503      78.020  27.098 -13.106  1.00 47.77 LIG 0.16  HD
ATOM     35  C   SER C 502      77.767  25.877 -11.607  1.00 50.79 LIG 0.24  C 
ATOM     36 O    SER C 502      77.191  24.856 -11.261  1.00 48.58 LIG-0.27  OA
BRANCH 35 37
ATOM     37  CA  SER C 502      78.496  26.729 -10.583  1.00 60.54 LIG 0.20  C 
BRANCH 37 38
ATOM     38  CB  SER C 502      77.592  27.044  -9.404  1.00 53.64 LIG 0.20  C 
BRANCH 38 39
ATOM     39 OG   SER C 502      78.243  26.806  -8.177  1.00 59.09 LIG-0.40  OA
ATOM     40 HG   SER C 502      78.151  27.474  -7.677  1.00 59.09 LIG 0.21  HD
ENDBRANCH 38 39
ENDBRANCH 37 38
BRANCH 37 41
ATOM     41  N   SER C 502      78.979  27.932 -11.251  1.00 72.56 LIG-0.34  N 
ATOM     42 H    SER C 502      78.383  28.535 -11.390  1.00 72.56 LIG 0.16  HD
ATOM     43  C   GLU C 501      80.259  28.036 -11.596  1.00101.90 LIG 0.26  C 
ATOM     44 O    GLU C 501      81.138  27.346 -11.079  1.00103.22 LIG-0.27  OA
BRANCH 43 45
ATOM     45  CA  GLU C 501      80.615  29.082 -12.661  1.00101.55 LIG 0.40  C 
ATOM     46  N   GLU C 501      81.955  28.834 -13.185  1.00100.94 LIG 0.61  N 
BRANCH 45 47
ATOM     47  CB  GLU C 501      79.591  29.065 -13.799  1.00104.94 LIG 0.06  C 
BRANCH 47 48
ATOM     48  CG  GLU C 501      79.171  30.443 -14.278  1.00111.45 LIG 0.12  C 
BRANCH 48 49
ATOM     49  CD  GLU C 501      80.107  31.534 -13.798  1.00115.68 LIG 0.17  C 
ATOM     50 OE1  GLU C 501      81.299  31.510 -14.175  1.00117.56 LIG-0.65  OA
ATOM     51 OE2  GLU C 501      79.646  32.417 -13.044  1.00122.11 LIG-0.65  OA
ENDBRANCH 48 49
ENDBRANCH 47 48
ENDBRANCH 45 47
ENDBRANCH 43 45
ENDBRANCH 37 41
ENDBRANCH 35 37
ENDBRANCH 32 33
BRANCH 32 52
ATOM     52  CB  SER C 503      76.738  26.154 -15.085  1.00 49.05 LIG 0.20  C 
BRANCH 52 53
ATOM     53 OG   SER C 503      75.459  25.587 -15.303  1.00 54.59 LIG-0.40  OA
ATOM     54 HG   SER C 503      75.401  24.858 -14.888  1.00 54.59 LIG 0.21  HD
ENDBRANCH 52 53
ENDBRANCH 32 52
ENDBRANCH 1 32
TORSDOF 25
ENDMDL
MODEL 5
USER: ADFR SOLUTION from run 179
USER: SCORE 15.845781 LL:  -3.463 LR: -13.848 RR:   0.000 FEB:  -6.391
USER: RMSD 4.158569
USER: SEED 178
USER: STATUS no improvement in best in 4 clusters for 5 generations
USER: GENES 27
USER: genes 0 Translation |==|  0.41354 0.41235 0.51427
USER: genes 1 Rotation |==|  0.49958 0.46386 0.46967 0.99777
USER: genes 2 Torsion [C]-N--CA-[CB] |==|  0.57606
USER: genes 3 Torsion [N]-CA--C-[N] |==|  0.86494
USER: genes 4 Torsion [C]-N--CA-[C] |==|  0.84966
USER: genes 5 Torsion [N]-CA--CB-[OG] |==|  0.91957
USER: genes 6 Torsion [CA]-CB--OG-[HG] |==|  0.20485
USER: genes 7 Torsion [N]-CA--C-[N] |==|  0.36571
USER: genes 8 Torsion [C]-N--CA-[CB] |==|  0.34921
USER: genes 9 Torsion [N]-CA--C-[O] |==|  0.59556
USER: genes 10 Torsion [N]-CA--CB-[CG] |==|  0.85943
USER: genes 11 Torsion [CA]-CB--CG-[CD] |==|  0.55702
USER: genes 12 Torsion [CB]-CG--CD-[NE2] |==|  0.54835
USER: genes 13 Torsion [N]-CA--CB-[CG] |==|  0.52763
USER: genes 14 Torsion [CA]-CB--CG-[OD1] |==|  0.92901
USER: genes 15 Torsion [N]-C--CA-[N] |==|  0.44945
USER: genes 16 Torsion [C]-CA--N-[C] |==|  0.81703
USER: genes 17 Torsion [N]-C--CA-[N] |==|  0.18457
USER: genes 18 Torsion [C]-CA--CB-[OG] |==|  0.53254
USER: genes 19 Torsion [CA]-CB--OG-[HG] |==|  0.23815
USER: genes 20 Torsion [C]-CA--N-[C] |==|  0.80457
USER: genes 21 Torsion [N]-C--CA-[N] |==|  0.27941
USER: genes 22 Torsion [C]-CA--CB-[CG] |==|  0.41482
USER: genes 23 Torsion [CA]-CB--CG-[CD] |==|  0.19008
USER: genes 24 Torsion [CB]-CG--CD-[OE1] |==|  0.05739
USER: genes 25 Torsion [C]-CA--CB-[OG] |==|  0.33468
USER: genes 26 Torsion [CA]-CB--OG-[HG] |==|  0.92720
ROOT
ATOM      1  C   SER C 503      77.780  24.517 -14.276  1.00 42.27 LIG 0.24  C 
ATOM      2 O    SER C 503      78.939  24.876 -14.087  1.00 46.84 LIG-0.27  OA
ATOM      3  N   ASP C 504      77.456  23.377 -14.872  1.00 51.15 LIG-0.34  N 
ATOM      4 H    ASP C 504      76.651  23.080 -14.919  1.00 51.15 LIG 0.16  HD
ENDROOT
BRANCH 3 5
ATOM      5  CA  ASP C 504      78.444  22.511 -15.513  1.00 56.79 LIG 0.19  C 
BRANCH 5 6
ATOM      6  C   ASP C 504      79.611  23.348 -16.057  1.00 67.42 LIG 0.24  C 
ATOM      7  N   SER C 505      79.280  24.413 -16.781  1.00 81.52 LIG-0.34  N 
ATOM      8 H    SER C 505      78.470  24.637 -16.958  1.00 81.52 LIG 0.16  HD
ATOM      9 O    ASP C 504      80.781  23.037 -15.821  1.00 66.01 LIG-0.27  OA
BRANCH 7 10
ATOM     10  CA  SER C 505      80.287  25.309 -17.346  1.00 90.64 LIG 0.20  C 
BRANCH 10 11
ATOM     11  CB  SER C 505      79.623  26.486 -18.053  1.00 89.01 LIG 0.20  C 
BRANCH 11 12
ATOM     12 OG   SER C 505      78.354  26.109 -18.552  1.00 87.22 LIG-0.40  OA
ATOM     13 HG   SER C 505      77.811  26.043 -17.915  1.00 87.22 LIG 0.21  HD
ENDBRANCH 11 12
ENDBRANCH 10 11
BRANCH 10 14
ATOM     14  C   SER C 505      81.227  25.808 -16.253  1.00 98.93 LIG 0.24  C 
ATOM     15  N   GLN C 506      82.528  25.727 -16.514  1.00110.12 LIG-0.35  N 
ATOM     16 H    GLN C 506      82.853  25.558 -17.292  1.00110.12 LIG 0.16  HD
ATOM     17 O    SER C 505      80.780  26.269 -15.201  1.00 94.47 LIG-0.27  OA
BRANCH 15 18
ATOM     18  CA  GLN C 506      83.529  25.925 -15.472  1.00115.19 LIG 0.16  C 
BRANCH 18 19
ATOM     19  C   GLN C 506      84.323  27.216 -15.671  1.00118.66 LIG 0.22  C 
ATOM     20 O    GLN C 506      85.515  27.279 -15.362  1.00117.46 LIG-0.29  OA
ENDBRANCH 18 19
BRANCH 18 21
ATOM     21  CB  GLN C 506      84.471  24.717 -15.430  1.00118.15 LIG 0.04  C 
BRANCH 21 22
ATOM     22  CG  GLN C 506      83.739  23.368 -15.361  1.00119.48 LIG 0.10  C 
BRANCH 22 23
ATOM     23  CD  GLN C 506      84.602  22.224 -14.830  1.00116.76 LIG 0.21  C 
ATOM     24  NE2 GLN C 506      84.170  20.991 -15.072  1.00111.94 LIG-0.37  N 
ATOM     25 21HE GLN C 506      83.437  20.870 -15.506  1.00111.94 LIG 0.16  HD
ATOM     26 22HE GLN C 506      84.622  20.314 -14.796  1.00111.94 LIG 0.16  HD
ATOM     27 OE1  GLN C 506      85.644  22.449 -14.214  1.00116.06 LIG-0.27  OA
ENDBRANCH 22 23
ENDBRANCH 21 22
ENDBRANCH 18 21
ENDBRANCH 15 18
ENDBRANCH 10 14
ENDBRANCH 7 10
ENDBRANCH 5 6
BRANCH 5 28
ATOM     28  CB  ASP C 504      77.777  21.703 -16.640  1.00 57.84 LIG 0.15  C 
BRANCH 28 29
ATOM     29  CG  ASP C 504      78.669  20.602 -17.204  1.00 60.92 LIG 0.17  C 
ATOM     30 OD2  ASP C 504      78.118  19.611 -17.740  1.00 60.43 LIG-0.65  OA
ATOM     31 OD1  ASP C 504      79.910  20.723 -17.117  1.00 59.69 LIG-0.65  OA
ENDBRANCH 28 29
ENDBRANCH 5 28
ENDBRANCH 3 5
BRANCH 1 32
ATOM     32  CA  SER C 503      76.618  25.375 -13.809  1.00 44.19 LIG 0.20  C 
BRANCH 32 33
ATOM     33  N   SER C 503      77.063  26.355 -12.815  1.00 47.77 LIG-0.34  N 
ATOM     34 H    SER C 503      77.009  27.174 -13.072  1.00 47.77 LIG 0.16  HD
ATOM     35  C   SER C 502      77.512  25.974 -11.620  1.00 50.79 LIG 0.24  C 
ATOM     36 O    SER C 502      77.318  24.858 -11.159  1.00 48.58 LIG-0.27  OA
BRANCH 35 37
ATOM     37  CA  SER C 502      78.306  27.000 -10.833  1.00 60.54 LIG 0.20  C 
BRANCH 37 38
ATOM     38  CB  SER C 502      78.958  26.360  -9.619  1.00 53.64 LIG 0.20  C 
BRANCH 38 39
ATOM     39 OG   SER C 502      79.473  27.331  -8.738  1.00 59.09 LIG-0.40  OA
ATOM     40 HG   SER C 502      78.866  27.587  -8.217  1.00 59.09 LIG 0.21  HD
ENDBRANCH 38 39
ENDBRANCH 37 38
BRANCH 37 41
ATOM     41  N   SER C 502      77.410  28.092 -10.472  1.00 72.56 LIG-0.34  N 
ATOM     42 H    SER C 502      77.212  28.141  -9.636  1.00 72.56 LIG 0.16  HD
ATOM     43  C   GLU C 501      76.959  28.924 -11.406  1.00101.90 LIG 0.26  C 
ATOM     44 O    GLU C 501      77.521  29.057 -12.494  1.00103.22 LIG-0.27  OA
BRANCH 43 45
ATOM     45  CA  GLU C 501      75.709  29.746 -11.070  1.00101.55 LIG 0.40  C 
ATOM     46  N   GLU C 501      76.083  31.105 -10.690  1.00100.94 LIG 0.61  N 
BRANCH 45 47
ATOM     47  CB  GLU C 501      74.747  29.777 -12.261  1.00104.94 LIG 0.06  C 
BRANCH 47 48
ATOM     48  CG  GLU C 501      73.282  29.881 -11.875  1.00111.45 LIG 0.12  C 
BRANCH 48 49
ATOM     49  CD  GLU C 501      72.937  31.223 -11.262  1.00115.68 LIG 0.17  C 
ATOM     50 OE1  GLU C 501      73.693  32.195 -11.483  1.00117.56 LIG-0.65  OA
ATOM     51 OE2  GLU C 501      71.907  31.303 -10.560  1.00122.11 LIG-0.65  OA
ENDBRANCH 48 49
ENDBRANCH 47 48
ENDBRANCH 45 47
ENDBRANCH 43 45
ENDBRANCH 37 41
ENDBRANCH 35 37
ENDBRANCH 32 33
BRANCH 32 52
ATOM     52  CB  SER C 503      75.983  26.063 -15.009  1.00 49.05 LIG 0.20  C 
BRANCH 52 53
ATOM     53 OG   SER C 503      74.621  25.695 -15.127  1.00 54.59 LIG-0.40  OA
ATOM     54 HG   SER C 503      74.503  24.940 -14.776  1.00 54.59 LIG 0.21  HD
ENDBRANCH 52 53
ENDBRANCH 32 52
ENDBRANCH 1 32
TORSDOF 25
ENDMDL
MODEL 6
USER: ADFR SOLUTION from run 180
USER: SCORE 16.812247 LL:  -4.045 LR: -13.796 RR:   0.000 FEB:  -6.338
USER: RMSD 3.925262
USER: SEED 179
USER: STATUS no improvement in best in 8 clusters for 5 generations
USER: GENES 27
USER: genes 0 Translation |==|  0.42143 0.41424 0.50737
USER: genes 1 Rotation |==|  0.52630 0.45393 0.51929 0.99680
USER: genes 2 Torsion [C]-N--CA-[CB] |==|  0.57805
USER: genes 3 Torsion [N]-CA--C-[N] |==|  0.36387
USER: genes 4 Torsion [C]-N--CA-[C] |==|  0.78653
USER: genes 5 Torsion [N]-CA--CB-[OG] |==|  0.25462
USER: genes 6 Torsion [CA]-CB--OG-[HG] |==|  0.21155
USER: genes 7 Torsion [N]-CA--C-[N] |==|  0.49444
USER: genes 8 Torsion [C]-N--CA-[CB] |==|  0.13236
USER: genes 9 Torsion [N]-CA--C-[O] |==|  0.46887
USER: genes 10 Torsion [N]-CA--CB-[CG] |==|  0.61950
USER: genes 11 Torsion [CA]-CB--CG-[CD] |==|  0.28972
USER: genes 12 Torsion [CB]-CG--CD-[NE2] |==|  0.26988
USER: genes 13 Torsion [N]-CA--CB-[CG] |==|  0.57723
USER: genes 14 Torsion [CA]-CB--CG-[OD1] |==|  0.86083
USER: genes 15 Torsion [N]-C--CA-[N] |==|  0.47125
USER: genes 16 Torsion [C]-CA--N-[C] |==|  0.78703
USER: genes 17 Torsion [N]-C--CA-[N] |==|  0.84414
USER: genes 18 Torsion [C]-CA--CB-[OG] |==|  0.65852
USER: genes 19 Torsion [CA]-CB--OG-[HG] |==|  0.75393
USER: genes 20 Torsion [C]-CA--N-[C] |==|  0.75073
USER: genes 21 Torsion [N]-C--CA-[N] |==|  0.69226
USER: genes 22 Torsion [C]-CA--CB-[CG] |==|  0.40253
USER: genes 23 Torsion [CA]-CB--CG-[CD] |==|  0.15100
USER: genes 24 Torsion [CB]-CG--CD-[OE1] |==|  0.05788
USER: genes 25 Torsion [C]-CA--CB-[OG] |==|  0.43460
USER: genes 26 Torsion [CA]-CB--OG-[HG] |==|  0.85374
ROOT
ATOM      1  C   SER C 503      77.916  24.557 -14.406  1.00 42.27 LIG 0.24  C 
ATOM      2 O    SER C 503      78.969  25.123 -14.124  1.00 46.84 LIG-0.27  OA
ATOM      3  N   ASP C 504      77.856  23.436 -15.113  1.00 51.15 LIG-0.34  N 
ATOM      4 H    ASP C 504      77.131  22.988 -15.228  1.00 51.15 LIG 0.16  HD
ENDROOT
BRANCH 3 5
ATOM      5  CA  ASP C 504      79.024  22.851 -15.769  1.00 56.79 LIG 0.19  C 
BRANCH 5 6
ATOM      6  C   ASP C 504      80.021  23.952 -16.159  1.00 67.42 LIG 0.24  C 
ATOM      7  N   SER C 505      81.287  23.746 -15.810  1.00 81.52 LIG-0.34  N 
ATOM      8 H    SER C 505      81.558  23.053 -15.381  1.00 81.52 LIG 0.16  HD
ATOM      9 O    ASP C 504      79.650  24.958 -16.767  1.00 66.01 LIG-0.27  OA
BRANCH 7 10
ATOM     10  CA  SER C 505      82.345  24.701 -16.132  1.00 90.64 LIG 0.20  C 
BRANCH 10 11
ATOM     11  CB  SER C 505      83.561  24.480 -15.240  1.00 89.01 LIG 0.20  C 
BRANCH 11 12
ATOM     12 OG   SER C 505      84.468  23.587 -15.857  1.00 87.22 LIG-0.40  OA
ATOM     13 HG   SER C 505      84.887  23.988 -16.464  1.00 87.22 LIG 0.21  HD
ENDBRANCH 11 12
ENDBRANCH 10 11
BRANCH 10 14
ATOM     14  C   SER C 505      82.737  24.582 -17.602  1.00 98.93 LIG 0.24  C 
ATOM     15  N   GLN C 506      83.666  25.430 -18.034  1.00110.12 LIG-0.35  N 
ATOM     16 H    GLN C 506      84.148  25.920 -17.517  1.00110.12 LIG 0.16  HD
ATOM     17 O    SER C 505      82.217  23.730 -18.326  1.00 94.47 LIG-0.27  OA
BRANCH 15 18
ATOM     18  CA  GLN C 506      83.945  25.597 -19.456  1.00115.19 LIG 0.16  C 
BRANCH 18 19
ATOM     19  C   GLN C 506      84.881  26.774 -19.727  1.00118.66 LIG 0.22  C 
ATOM     20 O    GLN C 506      85.386  26.939 -20.839  1.00117.46 LIG-0.29  OA
ENDBRANCH 18 19
BRANCH 18 21
ATOM     21  CB  GLN C 506      82.628  25.772 -20.219  1.00118.15 LIG 0.04  C 
BRANCH 21 22
ATOM     22  CG  GLN C 506      82.567  24.974 -21.531  1.00119.48 LIG 0.10  C 
BRANCH 22 23
ATOM     23  CD  GLN C 506      81.698  23.719 -21.451  1.00116.76 LIG 0.21  C 
ATOM     24  NE2 GLN C 506      80.452  23.829 -21.899  1.00111.94 LIG-0.37  N 
ATOM     25 21HE GLN C 506      80.172  24.580 -22.212  1.00111.94 LIG 0.16  HD
ATOM     26 22HE GLN C 506      79.925  23.150 -21.878  1.00111.94 LIG 0.16  HD
ATOM     27 OE1  GLN C 506      82.145  22.667 -20.995  1.00116.06 LIG-0.27  OA
ENDBRANCH 22 23
ENDBRANCH 21 22
ENDBRANCH 18 21
ENDBRANCH 15 18
ENDBRANCH 10 14
ENDBRANCH 7 10
ENDBRANCH 5 6
BRANCH 5 28
ATOM     28  CB  ASP C 504      78.581  22.049 -17.005  1.00 57.84 LIG 0.15  C 
BRANCH 28 29
ATOM     29  CG  ASP C 504      79.526  20.905 -17.354  1.00 60.92 LIG 0.17  C 
ATOM     30 OD2  ASP C 504      79.033  19.767 -17.545  1.00 60.43 LIG-0.65  OA
ATOM     31 OD1  ASP C 504      80.751  21.135 -17.441  1.00 59.69 LIG-0.65  OA
ENDBRANCH 28 29
ENDBRANCH 5 28
ENDBRANCH 3 5
BRANCH 1 32
ATOM     32  CA  SER C 503      76.586  25.115 -13.932  1.00 44.19 LIG 0.20  C 
BRANCH 32 33
ATOM     33  N   SER C 503      76.792  26.199 -12.969  1.00 47.77 LIG-0.34  N 
ATOM     34 H    SER C 503      76.672  26.989 -13.289  1.00 47.77 LIG 0.16  HD
ATOM     35  C   SER C 502      77.137  25.948 -11.707  1.00 50.79 LIG 0.24  C 
ATOM     36 O    SER C 502      77.022  24.846 -11.190  1.00 48.58 LIG-0.27  OA
BRANCH 35 37
ATOM     37  CA  SER C 502      77.705  27.110 -10.913  1.00 60.54 LIG 0.20  C 
BRANCH 37 38
ATOM     38  CB  SER C 502      76.641  28.167 -10.670  1.00 53.64 LIG 0.20  C 
BRANCH 38 39
ATOM     39 OG   SER C 502      77.038  29.423 -11.169  1.00 59.09 LIG-0.40  OA
ATOM     40 HG   SER C 502      77.465  29.838 -10.576  1.00 59.09 LIG 0.21  HD
ENDBRANCH 38 39
ENDBRANCH 37 38
BRANCH 37 41
ATOM     41  N   SER C 502      78.857  27.636 -11.636  1.00 72.56 LIG-0.34  N 
ATOM     42 H    SER C 502      78.680  28.262 -12.198  1.00 72.56 LIG 0.16  HD
ATOM     43  C   GLU C 501      80.072  27.149 -11.402  1.00101.90 LIG 0.26  C 
ATOM     44 O    GLU C 501      80.348  26.536 -10.371  1.00103.22 LIG-0.27  OA
BRANCH 43 45
ATOM     45  CA  GLU C 501      81.146  27.402 -12.468  1.00101.55 LIG 0.40  C 
ATOM     46  N   GLU C 501      81.500  26.154 -13.136  1.00100.94 LIG 0.61  N 
BRANCH 45 47
ATOM     47  CB  GLU C 501      80.659  28.430 -13.493  1.00104.94 LIG 0.06  C 
BRANCH 47 48
ATOM     48  CG  GLU C 501      81.749  29.347 -14.019  1.00111.45 LIG 0.12  C 
BRANCH 48 49
ATOM     49  CD  GLU C 501      82.926  28.582 -14.589  1.00115.68 LIG 0.17  C 
ATOM     50 OE1  GLU C 501      82.755  27.394 -14.942  1.00117.56 LIG-0.65  OA
ATOM     51 OE2  GLU C 501      84.023  29.173 -14.684  1.00122.11 LIG-0.65  OA
ENDBRANCH 48 49
ENDBRANCH 47 48
ENDBRANCH 45 47
ENDBRANCH 43 45
ENDBRANCH 37 41
ENDBRANCH 35 37
ENDBRANCH 32 33
BRANCH 32 52
ATOM     52  CB  SER C 503      75.784  25.595 -15.133  1.00 49.05 LIG 0.20  C 
BRANCH 52 53
ATOM     53 OG   SER C 503      74.400  25.609 -14.830  1.00 54.59 LIG-0.40  OA
ATOM     54 HG   SER C 503      74.171  24.858 -14.531  1.00 54.59 LIG 0.21  HD
ENDBRANCH 52 53
ENDBRANCH 32 52
ENDBRANCH 1 32
TORSDOF 25
ENDMDL
MODEL 7
USER: ADFR SOLUTION from run 35
USER: SCORE 16.735455 LL:  -3.444 LR: -13.789 RR:   0.000 FEB:  -6.332
USER: RMSD 3.206634
USER: SEED 34
USER: STATUS no improvement in best in 8 clusters for 5 generations
USER: GENES 27
USER: genes 0 Translation |==|  0.41481 0.42913 0.53269
USER: genes 1 Rotation |==|  0.51192 0.47897 0.50154 0.99941
USER: genes 2 Torsion [C]-N--CA-[CB] |==|  0.55795
USER: genes 3 Torsion [N]-CA--C-[N] |==|  0.33676
USER: genes 4 Torsion [C]-N--CA-[C] |==|  0.81264
USER: genes 5 Torsion [N]-CA--CB-[OG] |==|  0.28662
USER: genes 6 Torsion [CA]-CB--OG-[HG] |==|  0.27833
USER: genes 7 Torsion [N]-CA--C-[N] |==|  0.41221
USER: genes 8 Torsion [C]-N--CA-[CB] |==|  0.81806
USER: genes 9 Torsion [N]-CA--C-[O] |==|  0.09635
USER: genes 10 Torsion [N]-CA--CB-[CG] |==|  0.76497
USER: genes 11 Torsion [CA]-CB--CG-[CD] |==|  0.00039
USER: genes 12 Torsion [CB]-CG--CD-[NE2] |==|  0.22396
USER: genes 13 Torsion [N]-CA--CB-[CG] |==|  0.54842
USER: genes 14 Torsion [CA]-CB--CG-[OD1] |==|  0.94291
USER: genes 15 Torsion [N]-C--CA-[N] |==|  0.43115
USER: genes 16 Torsion [C]-CA--N-[C] |==|  0.82221
USER: genes 17 Torsion [N]-C--CA-[N] |==|  0.96586
USER: genes 18 Torsion [C]-CA--CB-[OG] |==|  0.98982
USER: genes 19 Torsion [CA]-CB--OG-[HG] |==|  0.72834
USER: genes 20 Torsion [C]-CA--N-[C] |==|  0.78140
USER: genes 21 Torsion [N]-C--CA-[N] |==|  0.08427
USER: genes 22 Torsion [C]-CA--CB-[CG] |==|  0.44942
USER: genes 23 Torsion [CA]-CB--CG-[CD] |==|  0.16998
USER: genes 24 Torsion [CB]-CG--CD-[OE1] |==|  0.07604
USER: genes 25 Torsion [C]-CA--CB-[OG] |==|  0.29960
USER: genes 26 Torsion [CA]-CB--OG-[HG] |==|  0.93335
ROOT
ATOM      1  C   SER C 503      77.801  24.870 -13.931  1.00 42.27 LIG 0.24  C 
ATOM      2 O    SER C 503      78.914  25.371 -13.789  1.00 46.84 LIG-0.27  OA
ATOM      3  N   ASP C 504      77.592  23.722 -14.561  1.00 51.15 LIG-0.34  N 
ATOM      4 H    ASP C 504      76.831  23.323 -14.577  1.00 51.15 LIG 0.16  HD
ENDROOT
BRANCH 3 5
ATOM      5  CA  ASP C 504      78.644  23.019 -15.295  1.00 56.79 LIG 0.19  C 
BRANCH 5 6
ATOM      6  C   ASP C 504      79.565  24.027 -15.998  1.00 67.42 LIG 0.24  C 
ATOM      7  N   SER C 505      80.852  23.975 -15.666  1.00 81.52 LIG-0.34  N 
ATOM      8 H    SER C 505      81.174  23.427 -15.087  1.00 81.52 LIG 0.16  HD
ATOM      9 O    ASP C 504      79.120  24.826 -16.824  1.00 66.01 LIG-0.27  OA
BRANCH 7 10
ATOM     10  CA  SER C 505      81.844  24.862 -16.268  1.00 90.64 LIG 0.20  C 
BRANCH 10 11
ATOM     11  CB  SER C 505      83.177  24.754 -15.536  1.00 89.01 LIG 0.20  C 
BRANCH 11 12
ATOM     12 OG   SER C 505      84.090  23.975 -16.287  1.00 87.22 LIG-0.40  OA
ATOM     13 HG   SER C 505      84.618  24.482 -16.698  1.00 87.22 LIG 0.21  HD
ENDBRANCH 11 12
ENDBRANCH 10 11
BRANCH 10 14
ATOM     14  C   SER C 505      82.023  24.531 -17.747  1.00 98.93 LIG 0.24  C 
ATOM     15  N   GLN C 506      82.332  25.549 -18.545  1.00110.12 LIG-0.35  N 
ATOM     16 H    GLN C 506      82.576  26.325 -18.263  1.00110.12 LIG 0.16  HD
ATOM     17 O    SER C 505      81.896  23.375 -18.154  1.00 94.47 LIG-0.27  OA
BRANCH 15 18
ATOM     18  CA  GLN C 506      82.279  25.425 -19.996  1.00115.19 LIG 0.16  C 
BRANCH 18 19
ATOM     19  C   GLN C 506      80.893  25.011 -20.491  1.00118.66 LIG 0.22  C 
ATOM     20 O    GLN C 506      79.874  25.402 -19.919  1.00117.46 LIG-0.29  OA
ENDBRANCH 18 19
BRANCH 18 21
ATOM     21  CB  GLN C 506      83.338  24.421 -20.464  1.00118.15 LIG 0.04  C 
BRANCH 21 22
ATOM     22  CG  GLN C 506      84.732  25.039 -20.650  1.00119.48 LIG 0.10  C 
BRANCH 22 23
ATOM     23  CD  GLN C 506      84.793  26.533 -20.329  1.00116.76 LIG 0.21  C 
ATOM     24  NE2 GLN C 506      84.887  26.862 -19.045  1.00111.94 LIG-0.37  N 
ATOM     25 21HE GLN C 506      84.909  26.247 -18.444  1.00111.94 LIG 0.16  HD
ATOM     26 22HE GLN C 506      84.927  27.689 -18.815  1.00111.94 LIG 0.16  HD
ATOM     27 OE1  GLN C 506      84.759  27.376 -21.226  1.00116.06 LIG-0.27  OA
ENDBRANCH 22 23
ENDBRANCH 21 22
ENDBRANCH 18 21
ENDBRANCH 15 18
ENDBRANCH 10 14
ENDBRANCH 7 10
ENDBRANCH 5 6
BRANCH 5 28
ATOM     28  CB  ASP C 504      78.013  22.052 -16.313  1.00 57.84 LIG 0.15  C 
BRANCH 28 29
ATOM     29  CG  ASP C 504      78.982  20.989 -16.818  1.00 60.92 LIG 0.17  C 
ATOM     30 OD2  ASP C 504      78.505  19.946 -17.324  1.00 60.43 LIG-0.65  OA
ATOM     31 OD1  ASP C 504      80.211  21.191 -16.714  1.00 59.69 LIG-0.65  OA
ENDBRANCH 28 29
ENDBRANCH 5 28
ENDBRANCH 3 5
BRANCH 1 32
ATOM     32  CA  SER C 503      76.569  25.548 -13.360  1.00 44.19 LIG 0.20  C 
BRANCH 32 33
ATOM     33  N   SER C 503      76.929  26.422 -12.242  1.00 47.77 LIG-0.34  N 
ATOM     34 H    SER C 503      76.775  27.257 -12.377  1.00 47.77 LIG 0.16  HD
ATOM     35  C   SER C 502      77.451  25.930 -11.119  1.00 50.79 LIG 0.24  C 
ATOM     36 O    SER C 502      77.398  24.745 -10.821  1.00 48.58 LIG-0.27  OA
BRANCH 35 37
ATOM     37  CA  SER C 502      78.147  26.920 -10.202  1.00 60.54 LIG 0.20  C 
BRANCH 37 38
ATOM     38  CB  SER C 502      77.358  27.108  -8.917  1.00 53.64 LIG 0.20  C 
BRANCH 38 39
ATOM     39 OG   SER C 502      76.149  26.384  -8.943  1.00 59.09 LIG-0.40  OA
ATOM     40 HG   SER C 502      75.521  26.896  -9.164  1.00 59.09 LIG 0.21  HD
ENDBRANCH 38 39
ENDBRANCH 37 38
BRANCH 37 41
ATOM     41  N   SER C 502      78.328  28.169 -10.931  1.00 72.56 LIG-0.34  N 
ATOM     42 H    SER C 502      77.762  28.788 -10.741  1.00 72.56 LIG 0.16  HD
ATOM     43  C   GLU C 501      79.313  28.289 -11.816  1.00101.90 LIG 0.26  C 
ATOM     44 O    GLU C 501      80.298  27.550 -11.808  1.00103.22 LIG-0.27  OA
BRANCH 43 45
ATOM     45  CA  GLU C 501      79.193  29.416 -12.851  1.00101.55 LIG 0.40  C 
ATOM     46  N   GLU C 501      78.454  30.543 -12.290  1.00100.94 LIG 0.61  N 
BRANCH 45 47
ATOM     47  CB  GLU C 501      80.580  29.872 -13.315  1.00104.94 LIG 0.06  C 
BRANCH 47 48
ATOM     48  CG  GLU C 501      80.573  30.648 -14.620  1.00111.45 LIG 0.12  C 
BRANCH 48 49
ATOM     49  CD  GLU C 501      79.765  31.927 -14.531  1.00115.68 LIG 0.17  C 
ATOM     50 OE1  GLU C 501      79.647  32.485 -13.418  1.00117.56 LIG-0.65  OA
ATOM     51 OE2  GLU C 501      79.249  32.372 -15.578  1.00122.11 LIG-0.65  OA
ENDBRANCH 48 49
ENDBRANCH 47 48
ENDBRANCH 45 47
ENDBRANCH 43 45
ENDBRANCH 37 41
ENDBRANCH 35 37
ENDBRANCH 32 33
BRANCH 32 52
ATOM     52  CB  SER C 503      75.868  26.330 -14.462  1.00 49.05 LIG 0.20  C 
BRANCH 52 53
ATOM     53 OG   SER C 503      74.664  25.684 -14.837  1.00 54.59 LIG-0.40  OA
ATOM     54 HG   SER C 503      74.713  24.867 -14.646  1.00 54.59 LIG 0.21  HD
ENDBRANCH 52 53
ENDBRANCH 32 52
ENDBRANCH 1 32
TORSDOF 25
ENDMDL
MODEL 8
USER: ADFR SOLUTION from run 36
USER: SCORE 16.247583 LL:  -3.513 LR: -13.728 RR:   0.000 FEB:  -6.270
USER: RMSD 4.137887
USER: SEED 35
USER: STATUS no improvement in best in 10 clusters for 5 generations
USER: GENES 27
USER: genes 0 Translation |==|  0.41625 0.41477 0.51561
USER: genes 1 Rotation |==|  0.51419 0.49096 0.50184 0.99971
USER: genes 2 Torsion [C]-N--CA-[CB] |==|  0.56770
USER: genes 3 Torsion [N]-CA--C-[N] |==|  0.29617
USER: genes 4 Torsion [C]-N--CA-[C] |==|  0.84793
USER: genes 5 Torsion [N]-CA--CB-[OG] |==|  0.29093
USER: genes 6 Torsion [CA]-CB--OG-[HG] |==|  0.27095
USER: genes 7 Torsion [N]-CA--C-[N] |==|  0.40387
USER: genes 8 Torsion [C]-N--CA-[CB] |==|  0.81965
USER: genes 9 Torsion [N]-CA--C-[O] |==|  0.22044
USER: genes 10 Torsion [N]-CA--CB-[CG] |==|  0.80001
USER: genes 11 Torsion [CA]-CB--CG-[CD] |==|  0.95314
USER: genes 12 Torsion [CB]-CG--CD-[NE2] |==|  0.29323
USER: genes 13 Torsion [N]-CA--CB-[CG] |==|  0.55833
USER: genes 14 Torsion [CA]-CB--CG-[OD1] |==|  0.90532
USER: genes 15 Torsion [N]-C--CA-[N] |==|  0.45777
USER: genes 16 Torsion [C]-CA--N-[C] |==|  0.79212
USER: genes 17 Torsion [N]-C--CA-[N] |==|  0.18072
USER: genes 18 Torsion [C]-CA--CB-[OG] |==|  0.56627
USER: genes 19 Torsion [CA]-CB--OG-[HG] |==|  0.13932
USER: genes 20 Torsion [C]-CA--N-[C] |==|  0.79444
USER: genes 21 Torsion [N]-C--CA-[N] |==|  0.29406
USER: genes 22 Torsion [C]-CA--CB-[CG] |==|  0.43116
USER: genes 23 Torsion [CA]-CB--CG-[CD] |==|  0.18519
USER: genes 24 Torsion [CB]-CG--CD-[OE1] |==|  0.56058
USER: genes 25 Torsion [C]-CA--CB-[OG] |==|  0.38829
USER: genes 26 Torsion [CA]-CB--OG-[HG] |==|  0.88813
ROOT
ATOM      1  C   SER C 503      77.826  24.568 -14.251  1.00 42.27 LIG 0.24  C 
ATOM      2 O    SER C 503      78.943  25.071 -14.158  1.00 46.84 LIG-0.27  OA
ATOM      3  N   ASP C 504      77.590  23.425 -14.881  1.00 51.15 LIG-0.34  N 
ATOM      4 H    ASP C 504      76.830  23.024 -14.864  1.00 51.15 LIG 0.16  HD
ENDROOT
BRANCH 3 5
ATOM      5  CA  ASP C 504      78.607  22.732 -15.671  1.00 56.79 LIG 0.19  C 
BRANCH 5 6
ATOM      6  C   ASP C 504      79.545  23.748 -16.338  1.00 67.42 LIG 0.24  C 
ATOM      7  N   SER C 505      80.766  23.846 -15.820  1.00 81.52 LIG-0.34  N 
ATOM      8 H    SER C 505      81.037  23.388 -15.146  1.00 81.52 LIG 0.16  HD
ATOM      9 O    ASP C 504      79.171  24.421 -17.301  1.00 66.01 LIG-0.27  OA
BRANCH 7 10
ATOM     10  CA  SER C 505      81.768  24.759 -16.366  1.00 90.64 LIG 0.20  C 
BRANCH 10 11
ATOM     11  CB  SER C 505      83.092  24.611 -15.623  1.00 89.01 LIG 0.20  C 
BRANCH 11 12
ATOM     12 OG   SER C 505      84.023  23.899 -16.414  1.00 87.22 LIG-0.40  OA
ATOM     13 HG   SER C 505      84.529  24.441 -16.808  1.00 87.22 LIG 0.21  HD
ENDBRANCH 11 12
ENDBRANCH 10 11
BRANCH 10 14
ATOM     14  C   SER C 505      81.965  24.501 -17.857  1.00 98.93 LIG 0.24  C 
ATOM     15  N   GLN C 506      82.226  25.566 -18.609  1.00110.12 LIG-0.35  N 
ATOM     16 H    GLN C 506      82.432  26.339 -18.294  1.00110.12 LIG 0.16  HD
ATOM     17 O    SER C 505      81.895  23.358 -18.313  1.00 94.47 LIG-0.27  OA
BRANCH 15 18
ATOM     18  CA  GLN C 506      82.181  25.501 -20.065  1.00115.19 LIG 0.16  C 
BRANCH 18 19
ATOM     19  C   GLN C 506      80.814  25.055 -20.582  1.00118.66 LIG 0.22  C 
ATOM     20 O    GLN C 506      79.872  25.848 -20.647  1.00117.46 LIG-0.29  OA
ENDBRANCH 18 19
BRANCH 18 21
ATOM     21  CB  GLN C 506      83.279  24.560 -20.570  1.00118.15 LIG 0.04  C 
BRANCH 21 22
ATOM     22  CG  GLN C 506      84.696  25.138 -20.435  1.00119.48 LIG 0.10  C 
BRANCH 22 23
ATOM     23  CD  GLN C 506      84.727  26.651 -20.218  1.00116.76 LIG 0.21  C 
ATOM     24  NE2 GLN C 506      85.016  27.070 -18.990  1.00111.94 LIG-0.37  N 
ATOM     25 21HE GLN C 506      85.171  26.498 -18.367  1.00111.94 LIG 0.16  HD
ATOM     26 22HE GLN C 506      85.048  27.912 -18.820  1.00111.94 LIG 0.16  HD
ATOM     27 OE1  GLN C 506      84.499  27.429 -21.145  1.00116.06 LIG-0.27  OA
ENDBRANCH 22 23
ENDBRANCH 21 22
ENDBRANCH 18 21
ENDBRANCH 15 18
ENDBRANCH 10 14
ENDBRANCH 7 10
ENDBRANCH 5 6
BRANCH 5 28
ATOM     28  CB  ASP C 504      77.929  21.838 -16.725  1.00 57.84 LIG 0.15  C 
BRANCH 28 29
ATOM     29  CG  ASP C 504      78.831  20.722 -17.240  1.00 60.92 LIG 0.17  C 
ATOM     30 OD2  ASP C 504      78.301  19.626 -17.542  1.00 60.43 LIG-0.65  OA
ATOM     31 OD1  ASP C 504      80.058  20.933 -17.346  1.00 59.69 LIG-0.65  OA
ENDBRANCH 28 29
ENDBRANCH 5 28
ENDBRANCH 3 5
BRANCH 1 32
ATOM     32  CA  SER C 503      76.621  25.237 -13.616  1.00 44.19 LIG 0.20  C 
BRANCH 32 33
ATOM     33  N   SER C 503      77.042  26.269 -12.665  1.00 47.77 LIG-0.34  N 
ATOM     34 H    SER C 503      76.941  27.076 -12.946  1.00 47.77 LIG 0.16  HD
ATOM     35  C   SER C 502      77.536  25.949 -11.470  1.00 50.79 LIG 0.24  C 
ATOM     36 O    SER C 502      77.407  24.841 -10.969  1.00 48.58 LIG-0.27  OA
BRANCH 35 37
ATOM     37  CA  SER C 502      78.297  27.037 -10.735  1.00 60.54 LIG 0.20  C 
BRANCH 37 38
ATOM     38  CB  SER C 502      78.979  26.475  -9.500  1.00 53.64 LIG 0.20  C 
BRANCH 38 39
ATOM     39 OG   SER C 502      79.218  27.480  -8.541  1.00 59.09 LIG-0.40  OA
ATOM     40 HG   SER C 502      78.512  27.914  -8.408  1.00 59.09 LIG 0.21  HD
ENDBRANCH 38 39
ENDBRANCH 37 38
BRANCH 37 41
ATOM     41  N   SER C 502      77.364  28.111 -10.416  1.00 72.56 LIG-0.34  N 
ATOM     42 H    SER C 502      77.133  28.159  -9.589  1.00 72.56 LIG 0.16  HD
ATOM     43  C   GLU C 501      76.935  28.929 -11.372  1.00101.90 LIG 0.26  C 
ATOM     44 O    GLU C 501      77.537  29.070 -12.437  1.00103.22 LIG-0.27  OA
BRANCH 43 45
ATOM     45  CA  GLU C 501      75.655  29.727 -11.090  1.00101.55 LIG 0.40  C 
ATOM     46  N   GLU C 501      75.977  31.125 -10.823  1.00100.94 LIG 0.61  N 
BRANCH 45 47
ATOM     47  CB  GLU C 501      74.684  29.624 -12.270  1.00104.94 LIG 0.06  C 
BRANCH 47 48
ATOM     48  CG  GLU C 501      73.228  29.842 -11.898  1.00111.45 LIG 0.12  C 
BRANCH 48 49
ATOM     49  CD  GLU C 501      72.951  31.261 -11.445  1.00115.68 LIG 0.17  C 
ATOM     50 OE1  GLU C 501      71.943  31.478 -10.736  1.00117.56 LIG-0.65  OA
ATOM     51 OE2  GLU C 501      73.744  32.158 -11.799  1.00122.11 LIG-0.65  OA
ENDBRANCH 48 49
ENDBRANCH 47 48
ENDBRANCH 45 47
ENDBRANCH 43 45
ENDBRANCH 37 41
ENDBRANCH 35 37
ENDBRANCH 32 33
BRANCH 32 52
ATOM     52  CB  SER C 503      75.738  25.826 -14.707  1.00 49.05 LIG 0.20  C 
BRANCH 52 53
ATOM     53 OG   SER C 503      74.370  25.616 -14.404  1.00 54.59 LIG-0.40  OA
ATOM     54 HG   SER C 503      74.269  24.845 -14.085  1.00 54.59 LIG 0.21  HD
ENDBRANCH 52 53
ENDBRANCH 32 52
ENDBRANCH 1 32
TORSDOF 25
ENDMDL
MODEL 9
USER: ADFR SOLUTION from run 180
USER: SCORE 16.127601 LL:  -3.283 LR: -13.708 RR:   0.000 FEB:  -6.250
USER: RMSD 3.863874
USER: SEED 179
USER: STATUS no improvement in best in 8 clusters for 5 generations
USER: GENES 27
USER: genes 0 Translation |==|  0.43524 0.42890 0.52564
USER: genes 1 Rotation |==|  0.52455 0.48643 0.48873 0.99909
USER: genes 2 Torsion [C]-N--CA-[CB] |==|  0.56632
USER: genes 3 Torsion [N]-CA--C-[N] |==|  0.33345
USER: genes 4 Torsion [C]-N--CA-[C] |==|  0.78614
USER: genes 5 Torsion [N]-CA--CB-[OG] |==|  0.26502
USER: genes 6 Torsion [CA]-CB--OG-[HG] |==|  0.21745
USER: genes 7 Torsion [N]-CA--C-[N] |==|  0.51006
USER: genes 8 Torsion [C]-N--CA-[CB] |==|  0.13039
USER: genes 9 Torsion [N]-CA--C-[O] |==|  0.47177
USER: genes 10 Torsion [N]-CA--CB-[CG] |==|  0.61526
USER: genes 11 Torsion [CA]-CB--CG-[CD] |==|  0.29012
USER: genes 12 Torsion [CB]-CG--CD-[NE2] |==|  0.26492
USER: genes 13 Torsion [N]-CA--CB-[CG] |==|  0.57783
USER: genes 14 Torsion [CA]-CB--CG-[OD1] |==|  0.86803
USER: genes 15 Torsion [N]-C--CA-[N] |==|  0.44811
USER: genes 16 Torsion [C]-CA--N-[C] |==|  0.80342
USER: genes 17 Torsion [N]-C--CA-[N] |==|  0.02684
USER: genes 18 Torsion [C]-CA--CB-[OG] |==|  0.84785
USER: genes 19 Torsion [CA]-CB--OG-[HG] |==|  0.67433
USER: genes 20 Torsion [C]-CA--N-[C] |==|  0.75905
USER: genes 21 Torsion [N]-C--CA-[N] |==|  0.69168
USER: genes 22 Torsion [C]-CA--CB-[CG] |==|  0.39905
USER: genes 23 Torsion [CA]-CB--CG-[CD] |==|  0.07142
USER: genes 24 Torsion [CB]-CG--CD-[OE1] |==|  0.76659
USER: genes 25 Torsion [C]-CA--CB-[OG] |==|  0.29717
USER: genes 26 Torsion [CA]-CB--OG-[HG] |==|  0.94224
ROOT
ATOM      1  C   SER C 503      78.154  24.865 -14.063  1.00 42.27 LIG 0.24  C 
ATOM      2 O    SER C 503      79.294  25.304 -13.932  1.00 46.84 LIG-0.27  OA
ATOM      3  N   ASP C 504      77.870  23.763 -14.745  1.00 51.15 LIG-0.34  N 
ATOM      4 H    ASP C 504      77.090  23.402 -14.757  1.00 51.15 LIG 0.16  HD
ENDROOT
BRANCH 3 5
ATOM      5  CA  ASP C 504      78.863  23.052 -15.548  1.00 56.79 LIG 0.19  C 
BRANCH 5 6
ATOM      6  C   ASP C 504      79.857  24.046 -16.167  1.00 67.42 LIG 0.24  C 
ATOM      7  N   SER C 505      81.134  23.882 -15.832  1.00 81.52 LIG-0.34  N 
ATOM      8 H    SER C 505      81.413  23.271 -15.296  1.00 81.52 LIG 0.16  HD
ATOM      9 O    ASP C 504      79.475  24.934 -16.932  1.00 66.01 LIG-0.27  OA
BRANCH 7 10
ATOM     10  CA  SER C 505      82.190  24.743 -16.360  1.00 90.64 LIG 0.20  C 
BRANCH 10 11
ATOM     11  CB  SER C 505      83.436  24.664 -15.485  1.00 89.01 LIG 0.20  C 
BRANCH 11 12
ATOM     12 OG   SER C 505      84.347  23.719 -16.011  1.00 87.22 LIG-0.40  OA
ATOM     13 HG   SER C 505      84.759  24.057 -16.660  1.00 87.22 LIG 0.21  HD
ENDBRANCH 11 12
ENDBRANCH 10 11
BRANCH 10 14
ATOM     14  C   SER C 505      82.524  24.353 -17.796  1.00 98.93 LIG 0.24  C 
ATOM     15  N   GLN C 506      83.526  25.016 -18.368  1.00110.12 LIG-0.35  N 
ATOM     16 H    GLN C 506      84.072  25.525 -17.941  1.00110.12 LIG 0.16  HD
ATOM     17 O    SER C 505      81.896  23.461 -18.369  1.00 94.47 LIG-0.27  OA
BRANCH 15 18
ATOM     18  CA  GLN C 506      83.780  24.926 -19.801  1.00115.19 LIG 0.16  C 
BRANCH 18 19
ATOM     19  C   GLN C 506      84.815  25.948 -20.269  1.00118.66 LIG 0.22  C 
ATOM     20 O    GLN C 506      85.288  25.895 -21.406  1.00117.46 LIG-0.29  OA
ENDBRANCH 18 19
BRANCH 18 21
ATOM     21  CB  GLN C 506      82.465  25.105 -20.567  1.00118.15 LIG 0.04  C 
BRANCH 21 22
ATOM     22  CG  GLN C 506      82.309  24.144 -21.756  1.00119.48 LIG 0.10  C 
BRANCH 22 23
ATOM     23  CD  GLN C 506      81.339  22.991 -21.494  1.00116.76 LIG 0.21  C 
ATOM     24  NE2 GLN C 506      80.088  23.161 -21.909  1.00111.94 LIG-0.37  N 
ATOM     25 21HE GLN C 506      79.861  23.893 -22.300  1.00111.94 LIG 0.16  HD
ATOM     26 22HE GLN C 506      79.507  22.539 -21.787  1.00111.94 LIG 0.16  HD
ATOM     27 OE1  GLN C 506      81.715  21.963 -20.930  1.00116.06 LIG-0.27  OA
ENDBRANCH 22 23
ENDBRANCH 21 22
ENDBRANCH 18 21
ENDBRANCH 15 18
ENDBRANCH 10 14
ENDBRANCH 7 10
ENDBRANCH 5 6
BRANCH 5 28
ATOM     28  CB  ASP C 504      78.158  22.230 -16.642  1.00 57.84 LIG 0.15  C 
BRANCH 28 29
ATOM     29  CG  ASP C 504      78.941  20.993 -17.067  1.00 60.92 LIG 0.17  C 
ATOM     30 OD2  ASP C 504      78.326  19.902 -17.149  1.00 60.43 LIG-0.65  OA
ATOM     31 OD1  ASP C 504      80.160  21.103 -17.320  1.00 59.69 LIG-0.65  OA
ENDBRANCH 28 29
ENDBRANCH 5 28
ENDBRANCH 3 5
BRANCH 1 32
ATOM     32  CA  SER C 503      76.974  25.569 -13.419  1.00 44.19 LIG 0.20  C 
BRANCH 32 33
ATOM     33  N   SER C 503      77.426  26.476 -12.361  1.00 47.77 LIG-0.34  N 
ATOM     34 H    SER C 503      77.348  27.312 -12.549  1.00 47.77 LIG 0.16  HD
ATOM     35  C   SER C 502      77.912  26.011 -11.211  1.00 50.79 LIG 0.24  C 
ATOM     36 O    SER C 502      77.751  24.858 -10.836  1.00 48.58 LIG-0.27  OA
BRANCH 35 37
ATOM     37  CA  SER C 502      78.706  26.988 -10.364  1.00 60.54 LIG 0.20  C 
BRANCH 37 38
ATOM     38  CB  SER C 502      78.262  26.925  -8.912  1.00 53.64 LIG 0.20  C 
BRANCH 38 39
ATOM     39 OG   SER C 502      76.874  27.131  -8.788  1.00 59.09 LIG-0.40  OA
ATOM     40 HG   SER C 502      76.733  27.827  -8.341  1.00 59.09 LIG 0.21  HD
ENDBRANCH 38 39
ENDBRANCH 37 38
BRANCH 37 41
ATOM     41  N   SER C 502      78.550  28.320 -10.936  1.00 72.56 LIG-0.34  N 
ATOM     42 H    SER C 502      77.913  28.789 -10.599  1.00 72.56 LIG 0.16  HD
ATOM     43  C   GLU C 501      79.362  28.730 -11.905  1.00101.90 LIG 0.26  C 
ATOM     44 O    GLU C 501      80.457  28.206 -12.112  1.00103.22 LIG-0.27  OA
BRANCH 43 45
ATOM     45  CA  GLU C 501      78.894  29.915 -12.759  1.00101.55 LIG 0.40  C 
ATOM     46  N   GLU C 501      78.590  29.473 -14.117  1.00100.94 LIG 0.61  N 
BRANCH 45 47
ATOM     47  CB  GLU C 501      77.665  30.580 -12.132  1.00104.94 LIG 0.06  C 
BRANCH 47 48
ATOM     48  CG  GLU C 501      77.629  32.091 -12.286  1.00111.45 LIG 0.12  C 
BRANCH 48 49
ATOM     49  CD  GLU C 501      78.411  32.570 -13.492  1.00115.68 LIG 0.17  C 
ATOM     50 OE1  GLU C 501      79.646  32.735 -13.379  1.00117.56 LIG-0.65  OA
ATOM     51 OE2  GLU C 501      77.787  32.780 -14.554  1.00122.11 LIG-0.65  OA
ENDBRANCH 48 49
ENDBRANCH 47 48
ENDBRANCH 45 47
ENDBRANCH 43 45
ENDBRANCH 37 41
ENDBRANCH 35 37
ENDBRANCH 32 33
BRANCH 32 52
ATOM     52  CB  SER C 503      76.191  26.320 -14.486  1.00 49.05 LIG 0.20  C 
BRANCH 52 53
ATOM     53 OG   SER C 503      74.967  25.660 -14.758  1.00 54.59 LIG-0.40  OA
ATOM     54 HG   SER C 503      75.020  24.859 -14.510  1.00 54.59 LIG 0.21  HD
ENDBRANCH 52 53
ENDBRANCH 32 52
ENDBRANCH 1 32
TORSDOF 25
ENDMDL
MODEL 10
USER: ADFR SOLUTION from run 62
USER: SCORE 15.570839 LL:  -3.351 LR: -13.603 RR:   0.000 FEB:  -6.145
USER: RMSD 3.442510
USER: SEED 61
USER: STATUS no improvement in best in 20 clusters for 5 generations
USER: GENES 27
USER: genes 0 Translation |==|  0.42901 0.41184 0.51369
USER: genes 1 Rotation |==|  0.51084 0.48897 0.48011 0.99936
USER: genes 2 Torsion [C]-N--CA-[CB] |==|  0.56459
USER: genes 3 Torsion [N]-CA--C-[N] |==|  0.88936
USER: genes 4 Torsion [C]-N--CA-[C] |==|  0.85536
USER: genes 5 Torsion [N]-CA--CB-[OG] |==|  0.80892
USER: genes 6 Torsion [CA]-CB--OG-[HG] |==|  0.17550
USER: genes 7 Torsion [N]-CA--C-[N] |==|  0.35645
USER: genes 8 Torsion [C]-N--CA-[CB] |==|  0.82927
USER: genes 9 Torsion [N]-CA--C-[O] |==|  0.15881
USER: genes 10 Torsion [N]-CA--CB-[CG] |==|  0.67111
USER: genes 11 Torsion [CA]-CB--CG-[CD] |==|  0.73774
USER: genes 12 Torsion [CB]-CG--CD-[NE2] |==|  0.28294
USER: genes 13 Torsion [N]-CA--CB-[CG] |==|  0.54223
USER: genes 14 Torsion [CA]-CB--CG-[OD1] |==|  0.94393
USER: genes 15 Torsion [N]-C--CA-[N] |==|  0.45720
USER: genes 16 Torsion [C]-CA--N-[C] |==|  0.78209
USER: genes 17 Torsion [N]-C--CA-[N] |==|  0.16424
USER: genes 18 Torsion [C]-CA--CB-[OG] |==|  0.53952
USER: genes 19 Torsion [CA]-CB--OG-[HG] |==|  0.23424
USER: genes 20 Torsion [C]-CA--N-[C] |==|  0.75224
USER: genes 21 Torsion [N]-C--CA-[N] |==|  0.99956
USER: genes 22 Torsion [C]-CA--CB-[CG] |==|  0.46645
USER: genes 23 Torsion [CA]-CB--CG-[CD] |==|  0.96431
USER: genes 24 Torsion [CB]-CG--CD-[OE1] |==|  0.23515
USER: genes 25 Torsion [C]-CA--CB-[OG] |==|  0.36043
USER: genes 26 Torsion [CA]-CB--OG-[HG] |==|  0.86242
ROOT
ATOM      1  C   SER C 503      78.046  24.507 -14.287  1.00 42.27 LIG 0.24  C 
ATOM      2 O    SER C 503      79.203  24.911 -14.193  1.00 46.84 LIG-0.27  OA
ATOM      3  N   ASP C 504      77.715  23.381 -14.906  1.00 51.15 LIG-0.34  N 
ATOM      4 H    ASP C 504      76.922  23.048 -14.889  1.00 51.15 LIG 0.16  HD
ENDROOT
BRANCH 3 5
ATOM      5  CA  ASP C 504      78.671  22.592 -15.681  1.00 56.79 LIG 0.19  C 
BRANCH 5 6
ATOM      6  C   ASP C 504      79.681  23.517 -16.377  1.00 67.42 LIG 0.24  C 
ATOM      7  N   SER C 505      79.190  24.642 -16.887  1.00 81.52 LIG-0.34  N 
ATOM      8 H    SER C 505      78.359  24.860 -16.853  1.00 81.52 LIG 0.16  HD
ATOM      9 O    ASP C 504      80.875  23.217 -16.443  1.00 66.01 LIG-0.27  OA
BRANCH 7 10
ATOM     10  CA  SER C 505      80.039  25.623 -17.560  1.00 90.64 LIG 0.20  C 
BRANCH 10 11
ATOM     11  CB  SER C 505      79.238  26.869 -17.922  1.00 89.01 LIG 0.20  C 
BRANCH 11 12
ATOM     12 OG   SER C 505      78.299  26.573 -18.938  1.00 87.22 LIG-0.40  OA
ATOM     13 HG   SER C 505      77.746  26.011 -18.652  1.00 87.22 LIG 0.21  HD
ENDBRANCH 11 12
ENDBRANCH 10 11
BRANCH 10 14
ATOM     14  C   SER C 505      81.226  25.993 -16.677  1.00 98.93 LIG 0.24  C 
ATOM     15  N   GLN C 506      82.428  25.904 -17.239  1.00110.12 LIG-0.35  N 
ATOM     16 H    GLN C 506      82.559  25.801 -18.082  1.00110.12 LIG 0.16  HD
ATOM     17 O    SER C 505      81.054  26.363 -15.514  1.00 94.47 LIG-0.27  OA
BRANCH 15 18
ATOM     18  CA  GLN C 506      83.649  25.978 -16.445  1.00115.19 LIG 0.16  C 
BRANCH 18 19
ATOM     19  C   GLN C 506      83.745  24.844 -15.424  1.00118.66 LIG 0.22  C 
ATOM     20 O    GLN C 506      83.700  23.666 -15.782  1.00117.46 LIG-0.29  OA
ENDBRANCH 18 19
BRANCH 18 21
ATOM     21  CB  GLN C 506      83.723  27.338 -15.743  1.00118.15 LIG 0.04  C 
BRANCH 21 22
ATOM     22  CG  GLN C 506      84.941  28.178 -16.157  1.00119.48 LIG 0.10  C 
BRANCH 22 23
ATOM     23  CD  GLN C 506      86.144  28.023 -15.226  1.00116.76 LIG 0.21  C 
ATOM     24  NE2 GLN C 506      87.127  27.236 -15.651  1.00111.94 LIG-0.37  N 
ATOM     25 21HE GLN C 506      87.064  26.844 -16.414  1.00111.94 LIG 0.16  HD
ATOM     26 22HE GLN C 506      87.825  27.119 -15.164  1.00111.94 LIG 0.16  HD
ATOM     27 OE1  GLN C 506      86.186  28.606 -14.143  1.00116.06 LIG-0.27  OA
ENDBRANCH 22 23
ENDBRANCH 21 22
ENDBRANCH 18 21
ENDBRANCH 15 18
ENDBRANCH 10 14
ENDBRANCH 7 10
ENDBRANCH 5 6
BRANCH 5 28
ATOM     28  CB  ASP C 504      77.921  21.728 -16.710  1.00 57.84 LIG 0.15  C 
BRANCH 28 29
ATOM     29  CG  ASP C 504      78.778  20.616 -17.304  1.00 60.92 LIG 0.17  C 
ATOM     30 OD2  ASP C 504      78.197  19.642 -17.839  1.00 60.43 LIG-0.65  OA
ATOM     31 OD1  ASP C 504      80.023  20.711 -17.242  1.00 59.69 LIG-0.65  OA
ENDBRANCH 28 29
ENDBRANCH 5 28
ENDBRANCH 3 5
BRANCH 1 32
ATOM     32  CA  SER C 503      76.901  25.286 -13.667  1.00 44.19 LIG 0.20  C 
BRANCH 32 33
ATOM     33  N   SER C 503      77.405  26.285 -12.722  1.00 47.77 LIG-0.34  N 
ATOM     34 H    SER C 503      77.424  27.089 -13.028  1.00 47.77 LIG 0.16  HD
ATOM     35  C   SER C 502      77.794  25.942 -11.495  1.00 50.79 LIG 0.24  C 
ATOM     36 O    SER C 502      77.498  24.877 -10.974  1.00 48.58 LIG-0.27  OA
BRANCH 35 37
ATOM     37  CA  SER C 502      78.654  26.947 -10.749  1.00 60.54 LIG 0.20  C 
BRANCH 37 38
ATOM     38  CB  SER C 502      79.076  26.395  -9.398  1.00 53.64 LIG 0.20  C 
BRANCH 38 39
ATOM     39 OG   SER C 502      79.591  27.408  -8.565  1.00 59.09 LIG-0.40  OA
ATOM     40 HG   SER C 502      78.958  27.798  -8.174  1.00 59.09 LIG 0.21  HD
ENDBRANCH 38 39
ENDBRANCH 37 38
BRANCH 37 41
ATOM     41  N   SER C 502      77.903  28.191 -10.631  1.00 72.56 LIG-0.34  N 
ATOM     42 H    SER C 502      77.424  28.263  -9.921  1.00 72.56 LIG 0.16  HD
ATOM     43  C   GLU C 501      77.990  29.116 -11.582  1.00101.90 LIG 0.26  C 
ATOM     44 O    GLU C 501      78.928  29.154 -12.379  1.00103.22 LIG-0.27  OA
BRANCH 43 45
ATOM     45  CA  GLU C 501      76.877  30.171 -11.640  1.00101.55 LIG 0.40  C 
ATOM     46  N   GLU C 501      75.896  29.930 -10.586  1.00100.94 LIG 0.61  N 
BRANCH 45 47
ATOM     47  CB  GLU C 501      77.461  31.580 -11.506  1.00104.94 LIG 0.06  C 
BRANCH 47 48
ATOM     48  CG  GLU C 501      76.482  32.692 -11.838  1.00111.45 LIG 0.12  C 
BRANCH 48 49
ATOM     49  CD  GLU C 501      75.234  32.180 -12.528  1.00115.68 LIG 0.17  C 
ATOM     50 OE1  GLU C 501      74.294  31.748 -11.825  1.00117.56 LIG-0.65  OA
ATOM     51 OE2  GLU C 501      75.196  32.211 -13.776  1.00122.11 LIG-0.65  OA
ENDBRANCH 48 49
ENDBRANCH 47 48
ENDBRANCH 45 47
ENDBRANCH 43 45
ENDBRANCH 37 41
ENDBRANCH 35 37
ENDBRANCH 32 33
BRANCH 32 52
ATOM     52  CB  SER C 503      76.081  25.941 -14.770  1.00 49.05 LIG 0.20  C 
BRANCH 52 53
ATOM     53 OG   SER C 503      74.704  25.658 -14.597  1.00 54.59 LIG-0.40  OA
ATOM     54 HG   SER C 503      74.600  24.832 -14.480  1.00 54.59 LIG 0.21  HD
ENDBRANCH 52 53
ENDBRANCH 32 52
ENDBRANCH 1 32
TORSDOF 25
ENDMDL
MODEL 11
USER: ADFR SOLUTION from run 131
USER: SCORE 16.753918 LL:  -4.454 LR: -13.480 RR:   0.000 FEB:  -6.022
USER: RMSD 2.932936
USER: SEED 130
USER: STATUS no improvement in best in 5 clusters for 5 generations
USER: GENES 27
USER: genes 0 Translation |==|  0.43585 0.40091 0.49360
USER: genes 1 Rotation |==|  0.49405 0.47635 0.48955 0.99930
USER: genes 2 Torsion [C]-N--CA-[CB] |==|  0.58037
USER: genes 3 Torsion [N]-CA--C-[N] |==|  0.85394
USER: genes 4 Torsion [C]-N--CA-[C] |==|  0.87099
USER: genes 5 Torsion [N]-CA--CB-[OG] |==|  0.04648
USER: genes 6 Torsion [CA]-CB--OG-[HG] |==|  0.58231
USER: genes 7 Torsion [N]-CA--C-[N] |==|  0.38617
USER: genes 8 Torsion [C]-N--CA-[CB] |==|  0.81612
USER: genes 9 Torsion [N]-CA--C-[O] |==|  0.38831
USER: genes 10 Torsion [N]-CA--CB-[CG] |==|  0.67764
USER: genes 11 Torsion [CA]-CB--CG-[CD] |==|  0.76284
USER: genes 12 Torsion [CB]-CG--CD-[NE2] |==|  0.29281
USER: genes 13 Torsion [N]-CA--CB-[CG] |==|  0.52336
USER: genes 14 Torsion [CA]-CB--CG-[OD1] |==|  0.89729
USER: genes 15 Torsion [N]-C--CA-[N] |==|  0.44230
USER: genes 16 Torsion [C]-CA--N-[C] |==|  0.76136
USER: genes 17 Torsion [N]-C--CA-[N] |==|  0.94788
USER: genes 18 Torsion [C]-CA--CB-[OG] |==|  0.75576
USER: genes 19 Torsion [CA]-CB--OG-[HG] |==|  0.61675
USER: genes 20 Torsion [C]-CA--N-[C] |==|  0.76111
USER: genes 21 Torsion [N]-C--CA-[N] |==|  0.88313
USER: genes 22 Torsion [C]-CA--CB-[CG] |==|  0.65278
USER: genes 23 Torsion [CA]-CB--CG-[CD] |==|  0.22482
USER: genes 24 Torsion [CB]-CG--CD-[OE1] |==|  0.82992
USER: genes 25 Torsion [C]-CA--CB-[OG] |==|  0.39217
USER: genes 26 Torsion [CA]-CB--OG-[HG] |==|  0.84038
ROOT
ATOM      1  C   SER C 503      78.164  24.277 -14.664  1.00 42.27 LIG 0.24  C 
ATOM      2 O    SER C 503      79.301  24.730 -14.544  1.00 46.84 LIG-0.27  OA
ATOM      3  N   ASP C 504      77.902  23.100 -15.216  1.00 51.15 LIG-0.34  N 
ATOM      4 H    ASP C 504      77.121  22.740 -15.213  1.00 51.15 LIG 0.16  HD
ENDROOT
BRANCH 3 5
ATOM      5  CA  ASP C 504      78.921  22.296 -15.888  1.00 56.79 LIG 0.19  C 
BRANCH 5 6
ATOM      6  C   ASP C 504      80.010  23.204 -16.478  1.00 67.42 LIG 0.24  C 
ATOM      7  N   SER C 505      79.588  24.191 -17.262  1.00 81.52 LIG-0.34  N 
ATOM      8 H    SER C 505      78.761  24.330 -17.452  1.00 81.52 LIG 0.16  HD
ATOM      9 O    ASP C 504      81.202  23.015 -16.224  1.00 66.01 LIG-0.27  OA
BRANCH 7 10
ATOM     10  CA  SER C 505      80.512  25.142 -17.877  1.00 90.64 LIG 0.20  C 
BRANCH 10 11
ATOM     11  CB  SER C 505      79.751  26.313 -18.488  1.00 89.01 LIG 0.20  C 
BRANCH 11 12
ATOM     12 OG   SER C 505      78.433  26.366 -17.975  1.00 87.22 LIG-0.40  OA
ATOM     13 HG   SER C 505      77.922  26.699 -18.551  1.00 87.22 LIG 0.21  HD
ENDBRANCH 11 12
ENDBRANCH 10 11
BRANCH 10 14
ATOM     14  C   SER C 505      81.520  25.643 -16.847  1.00 98.93 LIG 0.24  C 
ATOM     15  N   GLN C 506      82.777  25.764 -17.264  1.00110.12 LIG-0.35  N 
ATOM     16 H    GLN C 506      83.016  25.722 -18.089  1.00110.12 LIG 0.16  HD
ATOM     17 O    SER C 505      81.162  25.927 -15.702  1.00 94.47 LIG-0.27  OA
BRANCH 15 18
ATOM     18  CA  GLN C 506      83.874  25.982 -16.329  1.00115.19 LIG 0.16  C 
BRANCH 18 19
ATOM     19  C   GLN C 506      83.955  24.886 -15.268  1.00118.66 LIG 0.22  C 
ATOM     20 O    GLN C 506      85.044  24.439 -14.902  1.00117.46 LIG-0.29  OA
ENDBRANCH 18 19
BRANCH 18 21
ATOM     21  CB  GLN C 506      83.719  27.357 -15.669  1.00118.15 LIG 0.04  C 
BRANCH 21 22
ATOM     22  CG  GLN C 506      84.858  28.331 -16.003  1.00119.48 LIG 0.10  C 
BRANCH 22 23
ATOM     23  CD  GLN C 506      86.078  28.192 -15.092  1.00116.76 LIG 0.21  C 
ATOM     24  NE2 GLN C 506      87.146  27.598 -15.615  1.00111.94 LIG-0.37  N 
ATOM     25 21HE GLN C 506      87.126  27.313 -16.426  1.00111.94 LIG 0.16  HD
ATOM     26 22HE GLN C 506      87.857  27.499 -15.142  1.00111.94 LIG 0.16  HD
ATOM     27 OE1  GLN C 506      86.058  28.616 -13.937  1.00116.06 LIG-0.27  OA
ENDBRANCH 22 23
ENDBRANCH 21 22
ENDBRANCH 18 21
ENDBRANCH 15 18
ENDBRANCH 10 14
ENDBRANCH 7 10
ENDBRANCH 5 6
BRANCH 5 28
ATOM     28  CB  ASP C 504      78.268  21.438 -16.986  1.00 57.84 LIG 0.15  C 
BRANCH 28 29
ATOM     29  CG  ASP C 504      79.221  20.419 -17.602  1.00 60.92 LIG 0.17  C 
ATOM     30 OD2  ASP C 504      78.761  19.295 -17.919  1.00 60.43 LIG-0.65  OA
ATOM     31 OD1  ASP C 504      80.418  20.733 -17.773  1.00 59.69 LIG-0.65  OA
ENDBRANCH 28 29
ENDBRANCH 5 28
ENDBRANCH 3 5
BRANCH 1 32
ATOM     32  CA  SER C 503      76.964  25.055 -14.155  1.00 44.19 LIG 0.20  C 
BRANCH 32 33
ATOM     33  N   SER C 503      77.374  26.052 -13.164  1.00 47.77 LIG-0.34  N 
ATOM     34 H    SER C 503      77.520  26.836 -13.485  1.00 47.77 LIG 0.16  HD
ATOM     35  C   SER C 502      77.501  25.735 -11.876  1.00 50.79 LIG 0.24  C 
ATOM     36 O    SER C 502      77.021  24.722 -11.387  1.00 48.58 LIG-0.27  OA
BRANCH 35 37
ATOM     37  CA  SER C 502      78.296  26.699 -11.014  1.00 60.54 LIG 0.20  C 
BRANCH 37 38
ATOM     38  CB  SER C 502      77.371  27.521 -10.133  1.00 53.64 LIG 0.20  C 
BRANCH 38 39
ATOM     39 OG   SER C 502      76.935  28.688 -10.792  1.00 59.09 LIG-0.40  OA
ATOM     40 HG   SER C 502      76.952  29.335 -10.257  1.00 59.09 LIG 0.21  HD
ENDBRANCH 38 39
ENDBRANCH 37 38
BRANCH 37 41
ATOM     41  N   SER C 502      79.113  27.529 -11.891  1.00 72.56 LIG-0.34  N 
ATOM     42 H    SER C 502      78.760  28.281 -12.114  1.00 72.56 LIG 0.16  HD
ATOM     43  C   GLU C 501      80.309  27.106 -12.288  1.00101.90 LIG 0.26  C 
ATOM     44 O    GLU C 501      80.928  26.227 -11.687  1.00103.22 LIG-0.27  OA
BRANCH 43 45
ATOM     45  CA  GLU C 501      80.917  27.779 -13.526  1.00101.55 LIG 0.40  C 
ATOM     46  N   GLU C 501      79.896  27.966 -14.552  1.00100.94 LIG 0.61  N 
BRANCH 45 47
ATOM     47  CB  GLU C 501      81.546  29.125 -13.155  1.00104.94 LIG 0.06  C 
BRANCH 47 48
ATOM     48  CG  GLU C 501      81.026  30.299 -13.965  1.00111.45 LIG 0.12  C 
BRANCH 48 49
ATOM     49  CD  GLU C 501      79.700  30.818 -13.449  1.00115.68 LIG 0.17  C 
ATOM     50 OE1  GLU C 501      78.714  30.049 -13.447  1.00117.56 LIG-0.65  OA
ATOM     51 OE2  GLU C 501      79.647  31.999 -13.045  1.00122.11 LIG-0.65  OA
ENDBRANCH 48 49
ENDBRANCH 47 48
ENDBRANCH 45 47
ENDBRANCH 43 45
ENDBRANCH 37 41
ENDBRANCH 35 37
ENDBRANCH 32 33
BRANCH 32 52
ATOM     52  CB  SER C 503      76.254  25.712 -15.331  1.00 49.05 LIG 0.20  C 
BRANCH 52 53
ATOM     53 OG   SER C 503      74.850  25.654 -15.156  1.00 54.59 LIG-0.40  OA
ATOM     54 HG   SER C 503      74.611  24.853 -15.069  1.00 54.59 LIG 0.21  HD
ENDBRANCH 52 53
ENDBRANCH 32 52
ENDBRANCH 1 32
TORSDOF 25
ENDMDL
MODEL 12
USER: ADFR SOLUTION from run 94
USER: SCORE 15.829608 LL:  -4.783 LR: -13.008 RR:   0.000 FEB:  -5.551
USER: RMSD 2.861046
USER: SEED 93
USER: STATUS no improvement in best in 2 clusters for 5 generations
USER: GENES 27
USER: genes 0 Translation |==|  0.40342 0.41220 0.51314
USER: genes 1 Rotation |==|  0.49795 0.49009 0.50569 0.99987
USER: genes 2 Torsion [C]-N--CA-[CB] |==|  0.54028
USER: genes 3 Torsion [N]-CA--C-[N] |==|  0.89839
USER: genes 4 Torsion [C]-N--CA-[C] |==|  0.87602
USER: genes 5 Torsion [N]-CA--CB-[OG] |==|  0.94813
USER: genes 6 Torsion [CA]-CB--OG-[HG] |==|  0.39290
USER: genes 7 Torsion [N]-CA--C-[N] |==|  0.31668
USER: genes 8 Torsion [C]-N--CA-[CB] |==|  0.29495
USER: genes 9 Torsion [N]-CA--C-[O] |==|  0.77531
USER: genes 10 Torsion [N]-CA--CB-[CG] |==|  0.70115
USER: genes 11 Torsion [CA]-CB--CG-[CD] |==|  0.70815
USER: genes 12 Torsion [CB]-CG--CD-[NE2] |==|  0.12699
USER: genes 13 Torsion [N]-CA--CB-[CG] |==|  0.51762
USER: genes 14 Torsion [CA]-CB--CG-[OD1] |==|  0.00399
USER: genes 15 Torsion [N]-C--CA-[N] |==|  0.43647
USER: genes 16 Torsion [C]-CA--N-[C] |==|  0.79530
USER: genes 17 Torsion [N]-C--CA-[N] |==|  0.86381
USER: genes 18 Torsion [C]-CA--CB-[OG] |==|  0.85612
USER: genes 19 Torsion [CA]-CB--OG-[HG] |==|  0.35833
USER: genes 20 Torsion [C]-CA--N-[C] |==|  0.69525
USER: genes 21 Torsion [N]-C--CA-[N] |==|  0.77722
USER: genes 22 Torsion [C]-CA--CB-[CG] |==|  0.43984
USER: genes 23 Torsion [CA]-CB--CG-[CD] |==|  0.18456
USER: genes 24 Torsion [CB]-CG--CD-[OE1] |==|  0.31384
USER: genes 25 Torsion [C]-CA--CB-[OG] |==|  0.37383
USER: genes 26 Torsion [CA]-CB--OG-[HG] |==|  0.87910
ROOT
ATOM      1  C   SER C 503      77.605  24.514 -14.298  1.00 42.27 LIG 0.24  C 
ATOM      2 O    SER C 503      78.715  25.038 -14.234  1.00 46.84 LIG-0.27  OA
ATOM      3  N   ASP C 504      77.388  23.329 -14.852  1.00 51.15 LIG-0.34  N 
ATOM      4 H    ASP C 504      76.633  22.919 -14.812  1.00 51.15 LIG 0.16  HD
ENDROOT
BRANCH 3 5
ATOM      5  CA  ASP C 504      78.418  22.601 -15.592  1.00 56.79 LIG 0.19  C 
BRANCH 5 6
ATOM      6  C   ASP C 504      79.189  23.559 -16.511  1.00 67.42 LIG 0.24  C 
ATOM      7  N   SER C 505      78.476  24.526 -17.080  1.00 81.52 LIG-0.34  N 
ATOM      8 H    SER C 505      77.630  24.626 -16.966  1.00 81.52 LIG 0.16  HD
ATOM      9 O    ASP C 504      80.401  23.425 -16.694  1.00 66.01 LIG-0.27  OA
BRANCH 7 10
ATOM     10  CA  SER C 505      79.083  25.519 -17.964  1.00 90.64 LIG 0.20  C 
BRANCH 10 11
ATOM     11  CB  SER C 505      78.122  26.676 -18.214  1.00 89.01 LIG 0.20  C 
BRANCH 11 12
ATOM     12 OG   SER C 505      76.797  26.292 -17.897  1.00 87.22 LIG-0.40  OA
ATOM     13 HG   SER C 505      76.400  26.935 -17.530  1.00 87.22 LIG 0.21  HD
ENDBRANCH 11 12
ENDBRANCH 10 11
BRANCH 10 14
ATOM     14  C   SER C 505      80.389  26.034 -17.367  1.00 98.93 LIG 0.24  C 
ATOM     15  N   GLN C 506      81.500  25.733 -18.032  1.00110.12 LIG-0.35  N 
ATOM     16 H    GLN C 506      81.511  25.407 -18.828  1.00110.12 LIG 0.16  HD
ATOM     17 O    SER C 505      80.387  26.701 -16.330  1.00 94.47 LIG-0.27  OA
BRANCH 15 18
ATOM     18  CA  GLN C 506      82.819  25.936 -17.447  1.00115.19 LIG 0.16  C 
BRANCH 18 19
ATOM     19  C   GLN C 506      83.761  26.686 -18.389  1.00118.66 LIG 0.22  C 
ATOM     20 O    GLN C 506      84.348  26.096 -19.297  1.00117.46 LIG-0.29  OA
ENDBRANCH 18 19
BRANCH 18 21
ATOM     21  CB  GLN C 506      83.420  24.583 -17.053  1.00118.15 LIG 0.04  C 
BRANCH 21 22
ATOM     22  CG  GLN C 506      83.454  24.343 -15.536  1.00119.48 LIG 0.10  C 
BRANCH 22 23
ATOM     23  CD  GLN C 506      84.847  24.483 -14.920  1.00116.76 LIG 0.21  C 
ATOM     24  NE2 GLN C 506      85.559  25.540 -15.294  1.00111.94 LIG-0.37  N 
ATOM     25 21HE GLN C 506      85.231  26.102 -15.858  1.00111.94 LIG 0.16  HD
ATOM     26 22HE GLN C 506      86.346  25.664 -14.973  1.00111.94 LIG 0.16  HD
ATOM     27 OE1  GLN C 506      85.270  23.652 -14.116  1.00116.06 LIG-0.27  OA
ENDBRANCH 22 23
ENDBRANCH 21 22
ENDBRANCH 18 21
ENDBRANCH 15 18
ENDBRANCH 10 14
ENDBRANCH 7 10
ENDBRANCH 5 6
BRANCH 5 28
ATOM     28  CB  ASP C 504      77.772  21.464 -16.403  1.00 57.84 LIG 0.15  C 
BRANCH 28 29
ATOM     29  CG  ASP C 504      78.788  20.555 -17.085  1.00 60.92 LIG 0.17  C 
ATOM     30 OD2  ASP C 504      78.359  19.615 -17.796  1.00 60.43 LIG-0.65  OA
ATOM     31 OD1  ASP C 504      80.007  20.775 -16.918  1.00 59.69 LIG-0.65  OA
ENDBRANCH 28 29
ENDBRANCH 5 28
ENDBRANCH 3 5
BRANCH 1 32
ATOM     32  CA  SER C 503      76.388  25.206 -13.712  1.00 44.19 LIG 0.20  C 
BRANCH 32 33
ATOM     33  N   SER C 503      76.785  26.181 -12.693  1.00 47.77 LIG-0.34  N 
ATOM     34 H    SER C 503      76.719  27.002 -12.939  1.00 47.77 LIG 0.16  HD
ATOM     35  C   SER C 502      77.209  25.792 -11.492  1.00 50.79 LIG 0.24  C 
ATOM     36 O    SER C 502      77.027  24.665 -11.051  1.00 48.58 LIG-0.27  OA
BRANCH 35 37
ATOM     37  CA  SER C 502      77.959  26.823 -10.668  1.00 60.54 LIG 0.20  C 
BRANCH 37 38
ATOM     38  CB  SER C 502      77.003  27.858 -10.102  1.00 53.64 LIG 0.20  C 
BRANCH 38 39
ATOM     39 OG   SER C 502      76.184  28.409 -11.107  1.00 59.09 LIG-0.40  OA
ATOM     40 HG   SER C 502      75.380  28.366 -10.868  1.00 59.09 LIG 0.21  HD
ENDBRANCH 38 39
ENDBRANCH 37 38
BRANCH 37 41
ATOM     41  N   SER C 502      78.988  27.420 -11.512  1.00 72.56 LIG-0.34  N 
ATOM     42 H    SER C 502      78.695  27.933 -12.137  1.00 72.56 LIG 0.16  HD
ATOM     43  C   GLU C 501      80.272  27.156 -11.287  1.00101.90 LIG 0.26  C 
ATOM     44 O    GLU C 501      80.676  26.731 -10.205  1.00103.22 LIG-0.27  OA
BRANCH 43 45
ATOM     45  CA  GLU C 501      81.255  27.429 -12.433  1.00101.55 LIG 0.40  C 
ATOM     46  N   GLU C 501      81.225  26.333 -13.397  1.00100.94 LIG 0.61  N 
BRANCH 45 47
ATOM     47  CB  GLU C 501      80.923  28.753 -13.126  1.00104.94 LIG 0.06  C 
BRANCH 47 48
ATOM     48  CG  GLU C 501      82.085  29.362 -13.891  1.00111.45 LIG 0.12  C 
BRANCH 48 49
ATOM     49  CD  GLU C 501      82.497  28.524 -15.085  1.00115.68 LIG 0.17  C 
ATOM     50 OE1  GLU C 501      82.316  28.987 -16.233  1.00117.56 LIG-0.65  OA
ATOM     51 OE2  GLU C 501      83.002  27.402 -14.872  1.00122.11 LIG-0.65  OA
ENDBRANCH 48 49
ENDBRANCH 47 48
ENDBRANCH 45 47
ENDBRANCH 43 45
ENDBRANCH 37 41
ENDBRANCH 35 37
ENDBRANCH 32 33
BRANCH 32 52
ATOM     52  CB  SER C 503      75.600  25.874 -14.831  1.00 49.05 LIG 0.20  C 
BRANCH 52 53
ATOM     53 OG   SER C 503      74.217  25.607 -14.689  1.00 54.59 LIG-0.40  OA
ATOM     54 HG   SER C 503      74.106  24.797 -14.496  1.00 54.59 LIG 0.21  HD
ENDBRANCH 52 53
ENDBRANCH 32 52
ENDBRANCH 1 32
TORSDOF 25
ENDMDL
MODEL 13
USER: ADFR SOLUTION from run 86
USER: SCORE 15.965665 LL:  -4.029 LR: -12.901 RR:   0.000 FEB:  -5.443
USER: RMSD 4.529334
USER: SEED 85
USER: STATUS no improvement in best in 5 clusters for 5 generations
USER: GENES 27
USER: genes 0 Translation |==|  0.41573 0.42040 0.51676
USER: genes 1 Rotation |==|  0.51424 0.49544 0.50759 0.99972
USER: genes 2 Torsion [C]-N--CA-[CB] |==|  0.55416
USER: genes 3 Torsion [N]-CA--C-[N] |==|  0.27357
USER: genes 4 Torsion [C]-N--CA-[C] |==|  0.77778
USER: genes 5 Torsion [N]-CA--CB-[OG] |==|  0.92677
USER: genes 6 Torsion [CA]-CB--OG-[HG] |==|  0.56000
USER: genes 7 Torsion [N]-CA--C-[N] |==|  0.40013
USER: genes 8 Torsion [C]-N--CA-[CB] |==|  0.32097
USER: genes 9 Torsion [N]-CA--C-[O] |==|  0.00464
USER: genes 10 Torsion [N]-CA--CB-[CG] |==|  0.82772
USER: genes 11 Torsion [CA]-CB--CG-[CD] |==|  0.86213
USER: genes 12 Torsion [CB]-CG--CD-[NE2] |==|  0.34998
USER: genes 13 Torsion [N]-CA--CB-[CG] |==|  0.55586
USER: genes 14 Torsion [CA]-CB--CG-[OD1] |==|  0.93221
USER: genes 15 Torsion [N]-C--CA-[N] |==|  0.46557
USER: genes 16 Torsion [C]-CA--N-[C] |==|  0.80208
USER: genes 17 Torsion [N]-C--CA-[N] |==|  0.18678
USER: genes 18 Torsion [C]-CA--CB-[OG] |==|  0.71700
USER: genes 19 Torsion [CA]-CB--OG-[HG] |==|  0.87926
USER: genes 20 Torsion [C]-CA--N-[C] |==|  0.77639
USER: genes 21 Torsion [N]-C--CA-[N] |==|  0.28506
USER: genes 22 Torsion [C]-CA--CB-[CG] |==|  0.44165
USER: genes 23 Torsion [CA]-CB--CG-[CD] |==|  0.19476
USER: genes 24 Torsion [CB]-CG--CD-[OE1] |==|  0.05818
USER: genes 25 Torsion [C]-CA--CB-[OG] |==|  0.38126
USER: genes 26 Torsion [CA]-CB--OG-[HG] |==|  0.84732
ROOT
ATOM      1  C   SER C 503      77.817  24.686 -14.230  1.00 42.27 LIG 0.24  C 
ATOM      2 O    SER C 503      78.924  25.216 -14.156  1.00 46.84 LIG-0.27  OA
ATOM      3  N   ASP C 504      77.597  23.538 -14.855  1.00 51.15 LIG-0.34  N 
ATOM      4 H    ASP C 504      76.847  23.119 -14.825  1.00 51.15 LIG 0.16  HD
ENDROOT
BRANCH 3 5
ATOM      5  CA  ASP C 504      78.616  22.869 -15.662  1.00 56.79 LIG 0.19  C 
BRANCH 5 6
ATOM      6  C   ASP C 504      79.442  23.903 -16.441  1.00 67.42 LIG 0.24  C 
ATOM      7  N   SER C 505      80.612  24.240 -15.908  1.00 81.52 LIG-0.34  N 
ATOM      8 H    SER C 505      80.910  23.921 -15.167  1.00 81.52 LIG 0.16  HD
ATOM      9 O    ASP C 504      79.028  24.379 -17.501  1.00 66.01 LIG-0.27  OA
BRANCH 7 10
ATOM     10  CA  SER C 505      81.509  25.199 -16.549  1.00 90.64 LIG 0.20  C 
BRANCH 10 11
ATOM     11  CB  SER C 505      82.463  25.810 -15.529  1.00 89.01 LIG 0.20  C 
BRANCH 11 12
ATOM     12 OG   SER C 505      81.884  25.785 -14.238  1.00 87.22 LIG-0.40  OA
ATOM     13 HG   SER C 505      82.255  26.362 -13.754  1.00 87.22 LIG 0.21  HD
ENDBRANCH 11 12
ENDBRANCH 10 11
BRANCH 10 14
ATOM     14  C   SER C 505      82.294  24.524 -17.671  1.00 98.93 LIG 0.24  C 
ATOM     15  N   GLN C 506      82.539  25.265 -18.747  1.00110.12 LIG-0.35  N 
ATOM     16 H    GLN C 506      82.418  26.116 -18.783  1.00110.12 LIG 0.16  HD
ATOM     17 O    SER C 505      82.680  23.359 -17.556  1.00 94.47 LIG-0.27  OA
BRANCH 15 18
ATOM     18  CA  GLN C 506      83.046  24.676 -19.980  1.00115.19 LIG 0.16  C 
BRANCH 18 19
ATOM     19  C   GLN C 506      84.382  25.284 -20.405  1.00118.66 LIG 0.22  C 
ATOM     20 O    GLN C 506      84.931  26.148 -19.719  1.00117.46 LIG-0.29  OA
ENDBRANCH 18 19
BRANCH 18 21
ATOM     21  CB  GLN C 506      82.004  24.839 -21.092  1.00118.15 LIG 0.04  C 
BRANCH 21 22
ATOM     22  CG  GLN C 506      80.677  24.122 -20.803  1.00119.48 LIG 0.10  C 
BRANCH 22 23
ATOM     23  CD  GLN C 506      80.845  22.665 -20.371  1.00116.76 LIG 0.21  C 
ATOM     24  NE2 GLN C 506      80.267  22.314 -19.227  1.00111.94 LIG-0.37  N 
ATOM     25 21HE GLN C 506      79.828  22.896 -18.770  1.00111.94 LIG 0.16  HD
ATOM     26 22HE GLN C 506      80.330  21.505 -18.943  1.00111.94 LIG 0.16  HD
ATOM     27 OE1  GLN C 506      81.482  21.869 -21.060  1.00116.06 LIG-0.27  OA
ENDBRANCH 22 23
ENDBRANCH 21 22
ENDBRANCH 18 21
ENDBRANCH 15 18
ENDBRANCH 10 14
ENDBRANCH 7 10
ENDBRANCH 5 6
BRANCH 5 28
ATOM     28  CB  ASP C 504      77.947  21.868 -16.621  1.00 57.84 LIG 0.15  C 
BRANCH 28 29
ATOM     29  CG  ASP C 504      78.902  20.798 -17.140  1.00 60.92 LIG 0.17  C 
ATOM     30 OD2  ASP C 504      78.417  19.708 -17.526  1.00 60.43 LIG-0.65  OA
ATOM     31 OD1  ASP C 504      80.128  21.041 -17.168  1.00 59.69 LIG-0.65  OA
ENDBRANCH 28 29
ENDBRANCH 5 28
ENDBRANCH 3 5
BRANCH 1 32
ATOM     32  CA  SER C 503      76.608  25.327 -13.574  1.00 44.19 LIG 0.20  C 
BRANCH 32 33
ATOM     33  N   SER C 503      77.017  26.414 -12.681  1.00 47.77 LIG-0.34  N 
ATOM     34 H    SER C 503      76.826  27.203 -12.966  1.00 47.77 LIG 0.16  HD
ATOM     35  C   SER C 502      77.633  26.165 -11.526  1.00 50.79 LIG 0.24  C 
ATOM     36 O    SER C 502      77.640  25.063 -10.996  1.00 48.58 LIG-0.27  OA
BRANCH 35 37
ATOM     37  CA  SER C 502      78.358  27.331 -10.878  1.00 60.54 LIG 0.20  C 
BRANCH 37 38
ATOM     38  CB  SER C 502      79.227  26.851  -9.728  1.00 53.64 LIG 0.20  C 
BRANCH 38 39
ATOM     39 OG   SER C 502      78.619  27.103  -8.482  1.00 59.09 LIG-0.40  OA
ATOM     40 HG   SER C 502      78.290  27.875  -8.482  1.00 59.09 LIG 0.21  HD
ENDBRANCH 38 39
ENDBRANCH 37 38
BRANCH 37 41
ATOM     41  N   SER C 502      77.363  28.308 -10.453  1.00 72.56 LIG-0.34  N 
ATOM     42 H    SER C 502      77.158  28.280  -9.619  1.00 72.56 LIG 0.16  HD
ATOM     43  C   GLU C 501      76.844  29.159 -11.333  1.00101.90 LIG 0.26  C 
ATOM     44 O    GLU C 501      77.397  29.419 -12.402  1.00103.22 LIG-0.27  OA
BRANCH 43 45
ATOM     45  CA  GLU C 501      75.521  29.838 -10.956  1.00101.55 LIG 0.40  C 
ATOM     46  N   GLU C 501      75.762  31.211 -10.523  1.00100.94 LIG 0.61  N 
BRANCH 45 47
ATOM     47  CB  GLU C 501      74.548  29.820 -12.139  1.00104.94 LIG 0.06  C 
BRANCH 47 48
ATOM     48  CG  GLU C 501      73.091  29.994 -11.748  1.00111.45 LIG 0.12  C 
BRANCH 48 49
ATOM     49  CD  GLU C 501      72.784  31.396 -11.262  1.00115.68 LIG 0.17  C 
ATOM     50 OE1  GLU C 501      73.556  32.326 -11.586  1.00117.56 LIG-0.65  OA
ATOM     51 OE2  GLU C 501      71.769  31.565 -10.555  1.00122.11 LIG-0.65  OA
ENDBRANCH 48 49
ENDBRANCH 47 48
ENDBRANCH 45 47
ENDBRANCH 43 45
ENDBRANCH 37 41
ENDBRANCH 35 37
ENDBRANCH 32 33
BRANCH 32 52
ATOM     52  CB  SER C 503      75.659  25.833 -14.652  1.00 49.05 LIG 0.20  C 
BRANCH 52 53
ATOM     53 OG   SER C 503      74.318  25.524 -14.314  1.00 54.59 LIG-0.40  OA
ATOM     54 HG   SER C 503      74.247  24.698 -14.176  1.00 54.59 LIG 0.21  HD
ENDBRANCH 52 53
ENDBRANCH 32 52
ENDBRANCH 1 32
TORSDOF 25
ENDMDL
