MODEL 1
USER: ADFR SOLUTION from run 33
USER: SCORE 21.461035 LL:  -6.966 LR: -14.836 RR:   0.000 FEB:  -6.483
USER: RMSD 4.733054
USER: SEED 32
USER: STATUS no improvement in best in 4 clusters for 5 generations
USER: GENES 30
USER: genes 0 Translation |==|  0.45281 0.46580 0.49407
USER: genes 1 Rotation |==|  0.50527 0.56575 0.26811 0.93804
USER: genes 2 Torsion [N]-CA--C-[N] |==|  0.95481
USER: genes 3 Torsion [C]-N--CA-[C] |==|  0.78862
USER: genes 4 Torsion [N]-CA--C-[N] |==|  0.94040
USER: genes 5 Torsion [C]-N--CA-[C] |==|  0.83448
USER: genes 6 Torsion [N]-CA--C-[N] |==|  0.87778
USER: genes 7 Torsion [C]-N--CA-[CB] |==|  0.54801
USER: genes 8 Torsion [N]-CA--C-[O] |==|  0.33781
USER: genes 9 Torsion [N]-CA--CB-[CG] |==|  0.56710
USER: genes 10 Torsion [CA]-CB--CG-[OD2] |==|  0.07204
USER: genes 11 Torsion [N]-CA--CB-[CG] |==|  0.51935
USER: genes 12 Torsion [CA]-CB--CG-[CD2] |==|  0.54030
USER: genes 13 Torsion [N]-CA--CB-[CG] |==|  0.78254
USER: genes 14 Torsion [CA]-CB--CG-[CD1] |==|  0.23340
USER: genes 15 Torsion [C]-CA--CB-[CG] |==|  0.90000
USER: genes 16 Torsion [CA]-CB--CG-[CD1] |==|  0.31023
USER: genes 17 Torsion [C]-CA--N-[C] |==|  0.83790
USER: genes 18 Torsion [N]-C--CA-[N] |==|  0.91183
USER: genes 19 Torsion [C]-CA--CB-[CG] |==|  0.42800
USER: genes 20 Torsion [CA]-CB--CG-[CD] |==|  0.18924
USER: genes 21 Torsion [CB]-CG--CD-[NE2] |==|  0.72132
USER: genes 22 Torsion [C]-CA--N-[C] |==|  0.85472
USER: genes 23 Torsion [N]-C--CA-[N] |==|  0.04335
USER: genes 24 Torsion [C]-CA--CB-[CG] |==|  0.92134
USER: genes 25 Torsion [CA]-CB--CG-[CD2] |==|  0.74306
USER: genes 26 Torsion [C]-CA--N-[C] |==|  0.70723
USER: genes 27 Torsion [N]-C--CA-[N] |==|  0.25904
USER: genes 28 Torsion [C]-CA--CB-[OG] |==|  0.81278
USER: genes 29 Torsion [CA]-CB--OG-[HG] |==|  0.74951
ROOT
ATOM      1  CA  PHE G  65     -25.150 -10.412 -17.646  1.00 79.88 LIG 0.18  C 
ENDROOT
BRANCH 1 2
ATOM      2  C   PHE G  65     -25.254  -8.902 -17.247  1.00 81.88 LIG 0.24  C 
ATOM      3 O    PHE G  65     -26.034  -8.124 -17.829  1.00 83.91 LIG-0.27  OA
ATOM      4  N   LEU G  66     -24.505  -8.502 -16.231  1.00 80.12 LIG-0.35  N 
ATOM      5 H    LEU G  66     -23.985  -9.024 -15.787  1.00 80.12 LIG 0.16  HD
BRANCH 4 6
ATOM      6  CA  LEU G  66     -24.499  -7.108 -15.766  1.00 73.95 LIG 0.18  C 
BRANCH 6 7
ATOM      7  C   LEU G  66     -23.678  -6.212 -16.725  1.00 70.37 LIG 0.24  C 
ATOM      8 O    LEU G  66     -23.847  -4.975 -16.770  1.00 65.91 LIG-0.27  OA
ATOM      9  N   LEU G  67     -22.787  -6.852 -17.491  1.00 70.17 LIG-0.35  N 
ATOM     10 H    LEU G  67     -22.609  -7.690 -17.415  1.00 70.17 LIG 0.16  HD
BRANCH 9 11
ATOM     11  CA  LEU G  67     -22.029  -6.172 -18.537  1.00 68.48 LIG 0.18  C 
BRANCH 11 12
ATOM     12  C   LEU G  67     -23.000  -5.570 -19.564  1.00 69.74 LIG 0.24  C 
ATOM     13  N   ASP G  68     -24.025  -6.352 -19.954  1.00 68.02 LIG-0.35  N 
ATOM     14 H    ASP G  68     -23.993  -7.211 -19.922  1.00 68.02 LIG 0.16  HD
ATOM     15 O    LEU G  67     -22.826  -4.407 -19.936  1.00 68.13 LIG-0.27  OA
BRANCH 13 16
ATOM     16  CA  ASP G  68     -25.318  -5.831 -20.481  1.00 74.55 LIG 0.17  C 
BRANCH 16 17
ATOM     17  C   ASP G  68     -25.745  -4.645 -19.559  1.00 77.35 LIG 0.22  C 
ATOM     18 O    ASP G  68     -25.940  -3.498 -19.972  1.00 79.38 LIG-0.29  OA
ENDBRANCH 16 17
BRANCH 16 19
ATOM     19  CB  ASP G  68     -26.426  -6.899 -20.440  1.00 74.32 LIG 0.15  C 
BRANCH 19 20
ATOM     20  CG  ASP G  68     -27.570  -6.654 -21.472  1.00 79.04 LIG 0.17  C 
ATOM     21 OD1  ASP G  68     -28.730  -7.120 -21.223  1.00 79.61 LIG-0.65  OA
ATOM     22 OD2  ASP G  68     -27.331  -6.000 -22.525  1.00 79.33 LIG-0.65  OA
ENDBRANCH 19 20
ENDBRANCH 16 19
ENDBRANCH 13 16
ENDBRANCH 11 12
BRANCH 11 23
ATOM     23  CB  LEU G  67     -20.984  -7.085 -19.171  1.00 63.56 LIG 0.04  C 
BRANCH 23 24
ATOM     24  CG  LEU G  67     -20.103  -6.279 -20.135  1.00 66.22 LIG-0.02  C 
ATOM     25  CD2 LEU G  67     -19.286  -7.195 -21.052  1.00 64.35 LIG 0.01  C 
ATOM     26  CD1 LEU G  67     -19.227  -5.211 -19.405  1.00 61.82 LIG 0.01  C 
ENDBRANCH 23 24
ENDBRANCH 11 23
ENDBRANCH 9 11
ENDBRANCH 6 7
BRANCH 6 27
ATOM     27  CB  LEU G  66     -23.888  -7.086 -14.378  1.00 68.20 LIG 0.04  C 
BRANCH 27 28
ATOM     28  CG  LEU G  66     -24.640  -7.487 -13.133  1.00 70.51 LIG-0.02  C 
ATOM     29  CD1 LEU G  66     -24.671  -8.985 -12.823  1.00 68.17 LIG 0.01  C 
ATOM     30  CD2 LEU G  66     -23.935  -6.686 -12.039  1.00 69.71 LIG 0.01  C 
ENDBRANCH 27 28
ENDBRANCH 6 27
ENDBRANCH 4 6
ENDBRANCH 1 2
BRANCH 1 31
ATOM     31  CB  PHE G  65     -26.505 -11.113 -17.391  1.00 81.70 LIG 0.07  C 
BRANCH 31 32
ATOM     32  CG  PHE G  65     -27.222 -10.585 -16.147  1.00 88.02 LIG-0.06  A 
ATOM     33  CD1 PHE G  65     -28.422  -9.841 -16.255  1.00 90.65 LIG 0.01  A 
ATOM     34  CE1 PHE G  65     -29.102  -9.399 -15.099  1.00 91.87 LIG 0.00  A 
ATOM     35  CZ  PHE G  65     -28.608  -9.710 -13.822  1.00 92.49 LIG 0.00  A 
ATOM     36  CE2 PHE G  65     -27.445 -10.464 -13.704  1.00 89.30 LIG 0.00  A 
ATOM     37  CD2 PHE G  65     -26.764 -10.903 -14.852  1.00 89.13 LIG 0.01  A 
ENDBRANCH 31 32
ENDBRANCH 1 31
BRANCH 1 38
ATOM     38  N   PHE G  65     -23.971 -11.164 -17.114  1.00 74.58 LIG-0.35  N 
ATOM     39  C   GLN G  64     -22.715 -10.761 -17.388  1.00 72.54 LIG 0.24  C 
ATOM     40 O    GLN G  64     -22.461  -9.801 -18.135  1.00 72.49 LIG-0.27  OA
ATOM     41 H    PHE G  65     -24.167 -11.851 -16.635  1.00 74.58 LIG 0.16  HD
BRANCH 39 42
ATOM     42  CA  GLN G  64     -21.533 -11.483 -16.705  1.00 69.04 LIG 0.18  C 
BRANCH 42 43
ATOM     43  CB  GLN G  64     -20.909 -12.586 -17.565  1.00 71.00 LIG 0.04  C 
BRANCH 43 44
ATOM     44  CG  GLN G  64     -19.459 -12.882 -17.256  1.00 72.96 LIG 0.10  C 
BRANCH 44 45
ATOM     45  CD  GLN G  64     -19.230 -13.521 -15.896  1.00 76.87 LIG 0.21  C 
ATOM     46 OE1  GLN G  64     -19.392 -14.736 -15.695  1.00 74.88 LIG-0.27  OA
ATOM     47  NE2 GLN G  64     -18.817 -12.691 -14.948  1.00 81.47 LIG-0.37  N 
ATOM     48 21HE GLN G  64     -18.715 -11.855 -15.123  1.00 81.47 LIG 0.16  HD
ATOM     49 22HE GLN G  64     -18.652 -12.988 -14.158  1.00 81.47 LIG 0.16  HD
ENDBRANCH 44 45
ENDBRANCH 43 44
ENDBRANCH 42 43
BRANCH 42 50
ATOM     50  N   GLN G  64     -21.817 -11.984 -15.388  1.00 68.17 LIG-0.35  N 
ATOM     51  C   LEU G  63     -22.332 -11.209 -14.429  1.00 67.58 LIG 0.24  C 
ATOM     52 O    LEU G  63     -22.737 -10.037 -14.605  1.00 63.10 LIG-0.27  OA
ATOM     53 H    GLN G  64     -21.627 -12.816 -15.279  1.00 68.17 LIG 0.16  HD
BRANCH 51 54
ATOM     54  CA  LEU G  63     -22.452 -11.868 -13.068  1.00 66.76 LIG 0.18  C 
BRANCH 54 55
ATOM     55  CB  LEU G  63     -22.012 -10.870 -11.983  1.00 69.31 LIG 0.04  C 
BRANCH 55 56
ATOM     56  CG  LEU G  63     -20.972  -9.766 -12.320  1.00 73.12 LIG-0.02  C 
ATOM     57  CD2 LEU G  63     -19.508 -10.129 -12.039  1.00 75.26 LIG 0.01  C 
ATOM     58  CD1 LEU G  63     -21.278  -8.446 -11.646  1.00 70.75 LIG 0.01  C 
ENDBRANCH 55 56
ENDBRANCH 54 55
BRANCH 54 59
ATOM     59  N   LEU G  63     -21.640 -13.071 -13.040  1.00 64.77 LIG-0.35  N 
ATOM     60  C   SER G  62     -22.140 -14.326 -13.097  1.00 63.11 LIG 0.26  C 
ATOM     61 O    SER G  62     -23.357 -14.643 -12.972  1.00 57.72 LIG-0.27  OA
ATOM     62 H    LEU G  63     -20.797 -12.910 -12.983  1.00 64.77 LIG 0.16  HD
BRANCH 60 63
ATOM     63  CA  SER G  62     -21.046 -15.375 -13.337  1.00 64.68 LIG 0.42  C 
ATOM     64  N   SER G  62     -20.514 -15.959 -12.068  1.00 67.72 LIG 0.62  N 
BRANCH 63 65
ATOM     65  CB  SER G  62     -21.521 -16.441 -14.343  1.00 62.74 LIG 0.21  C 
BRANCH 65 66
ATOM     66 OG   SER G  62     -22.586 -17.246 -13.797  1.00 60.63 LIG-0.40  OA
ATOM     67 HG   SER G  62     -22.260 -17.913 -13.405  1.00 60.63 LIG 0.21  HD
ENDBRANCH 65 66
ENDBRANCH 63 65
ENDBRANCH 60 63
ENDBRANCH 54 59
ENDBRANCH 51 54
ENDBRANCH 42 50
ENDBRANCH 39 42
ENDBRANCH 1 38
TORSDOF 28
ENDMDL
MODEL 2
USER: ADFR SOLUTION from run 94
USER: SCORE 21.036070 LL:  -7.452 LR: -14.815 RR:   0.000 FEB:  -6.463
USER: RMSD 4.095058
USER: SEED 93
USER: STATUS no improvement in best in 2 clusters for 5 generations
USER: GENES 30
USER: genes 0 Translation |==|  0.42197 0.40779 0.49992
USER: genes 1 Rotation |==|  0.28788 0.44094 0.42267 0.94220
USER: genes 2 Torsion [N]-CA--C-[N] |==|  0.83083
USER: genes 3 Torsion [C]-N--CA-[C] |==|  0.70046
USER: genes 4 Torsion [N]-CA--C-[N] |==|  0.94809
USER: genes 5 Torsion [C]-N--CA-[C] |==|  0.77222
USER: genes 6 Torsion [N]-CA--C-[N] |==|  0.21776
USER: genes 7 Torsion [C]-N--CA-[CB] |==|  0.48706
USER: genes 8 Torsion [N]-CA--C-[O] |==|  0.13907
USER: genes 9 Torsion [N]-CA--CB-[CG] |==|  0.09584
USER: genes 10 Torsion [CA]-CB--CG-[OD2] |==|  0.80047
USER: genes 11 Torsion [N]-CA--CB-[CG] |==|  0.50692
USER: genes 12 Torsion [CA]-CB--CG-[CD2] |==|  0.59758
USER: genes 13 Torsion [N]-CA--CB-[CG] |==|  0.34757
USER: genes 14 Torsion [CA]-CB--CG-[CD1] |==|  0.22698
USER: genes 15 Torsion [C]-CA--CB-[CG] |==|  0.81179
USER: genes 16 Torsion [CA]-CB--CG-[CD1] |==|  0.81490
USER: genes 17 Torsion [C]-CA--N-[C] |==|  0.89977
USER: genes 18 Torsion [N]-C--CA-[N] |==|  0.93275
USER: genes 19 Torsion [C]-CA--CB-[CG] |==|  0.14995
USER: genes 20 Torsion [CA]-CB--CG-[CD] |==|  0.15447
USER: genes 21 Torsion [CB]-CG--CD-[NE2] |==|  0.09181
USER: genes 22 Torsion [C]-CA--N-[C] |==|  0.84254
USER: genes 23 Torsion [N]-C--CA-[N] |==|  0.94177
USER: genes 24 Torsion [C]-CA--CB-[CG] |==|  0.63218
USER: genes 25 Torsion [CA]-CB--CG-[CD2] |==|  0.74049
USER: genes 26 Torsion [C]-CA--N-[C] |==|  0.82674
USER: genes 27 Torsion [N]-C--CA-[N] |==|  0.61269
USER: genes 28 Torsion [C]-CA--CB-[OG] |==|  0.24348
USER: genes 29 Torsion [CA]-CB--OG-[HG] |==|  0.17179
ROOT
ATOM      1  CA  PHE G  65     -25.728 -11.543 -17.532  1.00 79.88 LIG 0.18  C 
ENDROOT
BRANCH 1 2
ATOM      2  C   PHE G  65     -26.735 -10.752 -18.431  1.00 81.88 LIG 0.24  C 
ATOM      3 O    PHE G  65     -26.947 -11.076 -19.616  1.00 83.91 LIG-0.27  OA
ATOM      4  N   LEU G  66     -27.385  -9.751 -17.858  1.00 80.12 LIG-0.35  N 
ATOM      5 H    LEU G  66     -27.287  -9.529 -17.033  1.00 80.12 LIG 0.16  HD
BRANCH 4 6
ATOM      6  CA  LEU G  66     -28.347  -8.920 -18.596  1.00 73.95 LIG 0.18  C 
BRANCH 6 7
ATOM      7  C   LEU G  66     -27.767  -7.510 -18.860  1.00 70.37 LIG 0.24  C 
ATOM      8 O    LEU G  66     -28.240  -6.763 -19.742  1.00 65.91 LIG-0.27  OA
ATOM      9  N   LEU G  67     -26.737  -7.155 -18.084  1.00 70.17 LIG-0.35  N 
ATOM     10 H    LEU G  67     -26.453  -7.629 -17.424  1.00 70.17 LIG 0.16  HD
BRANCH 9 11
ATOM     11  CA  LEU G  67     -25.996  -5.915 -18.292  1.00 68.48 LIG 0.18  C 
BRANCH 11 12
ATOM     12  C   LEU G  67     -24.955  -6.121 -19.402  1.00 69.74 LIG 0.24  C 
ATOM     13  N   ASP G  68     -25.412  -6.094 -20.669  1.00 68.02 LIG-0.35  N 
ATOM     14 H    ASP G  68     -26.226  -6.281 -20.874  1.00 68.02 LIG 0.16  HD
ATOM     15 O    LEU G  67     -23.769  -6.251 -19.088  1.00 68.13 LIG-0.27  OA
BRANCH 13 16
ATOM     16  CA  ASP G  68     -24.573  -5.740 -21.850  1.00 74.55 LIG 0.17  C 
BRANCH 16 17
ATOM     17  C   ASP G  68     -24.178  -4.238 -21.700  1.00 77.35 LIG 0.22  C 
ATOM     18 O    ASP G  68     -23.694  -3.761 -20.669  1.00 79.38 LIG-0.29  OA
ENDBRANCH 16 17
BRANCH 16 19
ATOM     19  CB  ASP G  68     -25.345  -5.909 -23.171  1.00 74.32 LIG 0.15  C 
BRANCH 19 20
ATOM     20  CG  ASP G  68     -26.863  -5.562 -23.058  1.00 79.04 LIG 0.17  C 
ATOM     21 OD1  ASP G  68     -27.290  -4.495 -23.608  1.00 79.61 LIG-0.65  OA
ATOM     22 OD2  ASP G  68     -27.635  -6.340 -22.434  1.00 79.33 LIG-0.65  OA
ENDBRANCH 19 20
ENDBRANCH 16 19
ENDBRANCH 13 16
ENDBRANCH 11 12
BRANCH 11 23
ATOM     23  CB  LEU G  67     -25.387  -5.388 -16.996  1.00 63.56 LIG 0.04  C 
BRANCH 23 24
ATOM     24  CG  LEU G  67     -24.674  -4.055 -17.258  1.00 66.22 LIG-0.02  C 
ATOM     25  CD2 LEU G  67     -23.419  -3.907 -16.392  1.00 64.35 LIG 0.01  C 
ATOM     26  CD1 LEU G  67     -25.633  -2.826 -17.155  1.00 61.82 LIG 0.01  C 
ENDBRANCH 23 24
ENDBRANCH 11 23
ENDBRANCH 9 11
ENDBRANCH 6 7
BRANCH 6 27
ATOM     27  CB  LEU G  66     -29.608  -8.820 -17.760  1.00 68.20 LIG 0.04  C 
BRANCH 27 28
ATOM     28  CG  LEU G  66     -30.231  -7.509 -17.350  1.00 70.51 LIG-0.02  C 
ATOM     29  CD1 LEU G  66     -31.117  -6.832 -18.399  1.00 68.17 LIG 0.01  C 
ATOM     30  CD2 LEU G  66     -31.012  -7.884 -16.090  1.00 69.71 LIG 0.01  C 
ENDBRANCH 27 28
ENDBRANCH 6 27
ENDBRANCH 4 6
ENDBRANCH 1 2
BRANCH 1 31
ATOM     31  CB  PHE G  65     -26.506 -12.376 -16.486  1.00 81.70 LIG 0.07  C 
BRANCH 31 32
ATOM     32  CG  PHE G  65     -27.221 -11.508 -15.448  1.00 88.02 LIG-0.06  A 
ATOM     33  CD1 PHE G  65     -26.492 -10.728 -14.520  1.00 90.65 LIG 0.01  A 
ATOM     34  CE1 PHE G  65     -27.160  -9.893 -13.598  1.00 91.87 LIG 0.00  A 
ATOM     35  CZ  PHE G  65     -28.561  -9.808 -13.603  1.00 92.49 LIG 0.00  A 
ATOM     36  CE2 PHE G  65     -29.287 -10.550 -14.530  1.00 89.30 LIG 0.00  A 
ATOM     37  CD2 PHE G  65     -28.626 -11.383 -15.447  1.00 89.13 LIG 0.01  A 
ENDBRANCH 31 32
ENDBRANCH 1 31
BRANCH 1 38
ATOM     38  N   PHE G  65     -24.590 -10.761 -16.956  1.00 74.58 LIG-0.35  N 
ATOM     39  C   GLN G  64     -24.006  -9.773 -17.662  1.00 72.54 LIG 0.24  C 
ATOM     40 O    GLN G  64     -24.324  -9.498 -18.831  1.00 72.49 LIG-0.27  OA
ATOM     41 H    PHE G  65     -24.355 -10.996 -16.163  1.00 74.58 LIG 0.16  HD
BRANCH 39 42
ATOM     42  CA  GLN G  64     -22.930  -8.902 -16.977  1.00 69.04 LIG 0.18  C 
BRANCH 42 43
ATOM     43  CB  GLN G  64     -21.500  -9.250 -17.400  1.00 71.00 LIG 0.04  C 
BRANCH 43 44
ATOM     44  CG  GLN G  64     -21.262  -9.235 -18.892  1.00 72.96 LIG 0.10  C 
BRANCH 44 45
ATOM     45  CD  GLN G  64     -21.626  -7.924 -19.569  1.00 76.87 LIG 0.21  C 
ATOM     46 OE1  GLN G  64     -22.092  -7.874 -20.719  1.00 74.88 LIG-0.27  OA
ATOM     47  NE2 GLN G  64     -21.434  -6.840 -18.831  1.00 81.47 LIG-0.37  N 
ATOM     48 21HE GLN G  64     -21.109  -6.912 -18.038  1.00 81.47 LIG 0.16  HD
ATOM     49 22HE GLN G  64     -21.634  -6.065 -19.145  1.00 81.47 LIG 0.16  HD
ENDBRANCH 44 45
ENDBRANCH 43 44
ENDBRANCH 42 43
BRANCH 42 50
ATOM     50  N   GLN G  64     -23.023  -8.851 -15.544  1.00 68.17 LIG-0.35  N 
ATOM     51  C   LEU G  63     -24.133  -8.448 -14.918  1.00 67.58 LIG 0.24  C 
ATOM     52 O    LEU G  63     -25.222  -8.208 -15.489  1.00 63.10 LIG-0.27  OA
ATOM     53 H    GLN G  64     -22.309  -9.100 -15.135  1.00 68.17 LIG 0.16  HD
BRANCH 51 54
ATOM     54  CA  LEU G  63     -24.015  -8.338 -13.410  1.00 66.76 LIG 0.18  C 
BRANCH 54 55
ATOM     55  CB  LEU G  63     -23.823  -6.861 -13.023  1.00 69.31 LIG 0.04  C 
BRANCH 55 56
ATOM     56  CG  LEU G  63     -22.706  -6.460 -12.021  1.00 73.12 LIG-0.02  C 
ATOM     57  CD2 LEU G  63     -23.137  -6.370 -10.552  1.00 75.26 LIG 0.01  C 
ATOM     58  CD1 LEU G  63     -22.015  -5.168 -12.399  1.00 70.75 LIG 0.01  C 
ENDBRANCH 55 56
ENDBRANCH 54 55
BRANCH 54 59
ATOM     59  N   LEU G  63     -22.903  -9.152 -12.952  1.00 64.77 LIG-0.35  N 
ATOM     60  C   SER G  62     -22.835 -10.494 -13.098  1.00 63.11 LIG 0.26  C 
ATOM     61 O    SER G  62     -23.785 -11.250 -13.448  1.00 57.72 LIG-0.27  OA
ATOM     62 H    LEU G  63     -22.281  -8.694 -12.573  1.00 64.77 LIG 0.16  HD
BRANCH 60 63
ATOM     63  CA  SER G  62     -21.435 -11.041 -12.783  1.00 64.68 LIG 0.42  C 
ATOM     64  N   SER G  62     -21.003 -12.113 -13.732  1.00 67.72 LIG 0.62  N 
BRANCH 63 65
ATOM     65  CB  SER G  62     -20.415  -9.893 -12.660  1.00 62.74 LIG 0.21  C 
BRANCH 65 66
ATOM     66 OG   SER G  62     -20.365  -9.372 -11.316  1.00 60.63 LIG-0.40  OA
ATOM     67 HG   SER G  62     -20.116  -9.977 -10.789  1.00 60.63 LIG 0.21  HD
ENDBRANCH 65 66
ENDBRANCH 63 65
ENDBRANCH 60 63
ENDBRANCH 54 59
ENDBRANCH 51 54
ENDBRANCH 42 50
ENDBRANCH 39 42
ENDBRANCH 1 38
TORSDOF 28
ENDMDL
MODEL 3
USER: ADFR SOLUTION from run 134
USER: SCORE 20.974116 LL:  -7.379 LR: -14.414 RR:   0.000 FEB:  -6.062
USER: RMSD 4.663489
USER: SEED 133
USER: STATUS no improvement in best in 6 clusters for 5 generations
USER: GENES 30
USER: genes 0 Translation |==|  0.46264 0.49187 0.52764
USER: genes 1 Rotation |==|  0.46498 0.58766 0.32592 0.95911
USER: genes 2 Torsion [N]-CA--C-[N] |==|  0.97138
USER: genes 3 Torsion [C]-N--CA-[C] |==|  0.83059
USER: genes 4 Torsion [N]-CA--C-[N] |==|  0.95781
USER: genes 5 Torsion [C]-N--CA-[C] |==|  0.70426
USER: genes 6 Torsion [N]-CA--C-[N] |==|  0.88725
USER: genes 7 Torsion [C]-N--CA-[CB] |==|  0.20345
USER: genes 8 Torsion [N]-CA--C-[O] |==|  0.76858
USER: genes 9 Torsion [N]-CA--CB-[CG] |==|  0.75236
USER: genes 10 Torsion [CA]-CB--CG-[OD2] |==|  0.82662
USER: genes 11 Torsion [N]-CA--CB-[CG] |==|  0.92423
USER: genes 12 Torsion [CA]-CB--CG-[CD2] |==|  0.79507
USER: genes 13 Torsion [N]-CA--CB-[CG] |==|  0.75228
USER: genes 14 Torsion [CA]-CB--CG-[CD1] |==|  0.13166
USER: genes 15 Torsion [C]-CA--CB-[CG] |==|  0.90133
USER: genes 16 Torsion [CA]-CB--CG-[CD1] |==|  0.84472
USER: genes 17 Torsion [C]-CA--N-[C] |==|  0.83098
USER: genes 18 Torsion [N]-C--CA-[N] |==|  0.92186
USER: genes 19 Torsion [C]-CA--CB-[CG] |==|  0.50456
USER: genes 20 Torsion [CA]-CB--CG-[CD] |==|  0.23128
USER: genes 21 Torsion [CB]-CG--CD-[NE2] |==|  0.65504
USER: genes 22 Torsion [C]-CA--N-[C] |==|  0.85882
USER: genes 23 Torsion [N]-C--CA-[N] |==|  0.91259
USER: genes 24 Torsion [C]-CA--CB-[CG] |==|  0.66500
USER: genes 25 Torsion [CA]-CB--CG-[CD2] |==|  0.67959
USER: genes 26 Torsion [C]-CA--N-[C] |==|  0.83435
USER: genes 27 Torsion [N]-C--CA-[N] |==|  0.27820
USER: genes 28 Torsion [C]-CA--CB-[OG] |==|  0.07573
USER: genes 29 Torsion [CA]-CB--OG-[HG] |==|  0.36732
ROOT
ATOM      1  CA  PHE G  65     -24.965  -9.903 -16.991  1.00 79.88 LIG 0.18  C 
ENDROOT
BRANCH 1 2
ATOM      2  C   PHE G  65     -25.415  -8.441 -16.660  1.00 81.88 LIG 0.24  C 
ATOM      3 O    PHE G  65     -26.497  -7.980 -17.074  1.00 83.91 LIG-0.27  OA
ATOM      4  N   LEU G  66     -24.612  -7.734 -15.882  1.00 80.12 LIG-0.35  N 
ATOM      5 H    LEU G  66     -23.878  -8.037 -15.552  1.00 80.12 LIG 0.16  HD
BRANCH 4 6
ATOM      6  CA  LEU G  66     -24.910  -6.344 -15.509  1.00 73.95 LIG 0.18  C 
BRANCH 6 7
ATOM      7  C   LEU G  66     -24.987  -5.441 -16.764  1.00 70.37 LIG 0.24  C 
ATOM      8 O    LEU G  66     -25.495  -4.301 -16.719  1.00 65.91 LIG-0.27  OA
ATOM      9  N   LEU G  67     -24.474  -5.965 -17.882  1.00 70.17 LIG-0.35  N 
ATOM     10 H    LEU G  67     -24.054  -6.715 -17.908  1.00 70.17 LIG 0.16  HD
BRANCH 9 11
ATOM     11  CA  LEU G  67     -24.585  -5.297 -19.177  1.00 68.48 LIG 0.18  C 
BRANCH 11 12
ATOM     12  C   LEU G  67     -25.616  -6.034 -20.045  1.00 69.74 LIG 0.24  C 
ATOM     13  N   ASP G  68     -25.595  -7.380 -19.994  1.00 68.02 LIG-0.35  N 
ATOM     14 H    ASP G  68     -24.891  -7.827 -19.781  1.00 68.02 LIG 0.16  HD
ATOM     15 O    LEU G  67     -26.427  -5.370 -20.696  1.00 68.13 LIG-0.27  OA
BRANCH 13 16
ATOM     16  CA  ASP G  68     -26.772  -8.243 -20.295  1.00 74.55 LIG 0.17  C 
BRANCH 16 17
ATOM     17  C   ASP G  68     -26.413  -9.689 -19.829  1.00 77.35 LIG 0.22  C 
ATOM     18 O    ASP G  68     -25.763 -10.484 -20.514  1.00 79.38 LIG-0.29  OA
ENDBRANCH 16 17
BRANCH 16 19
ATOM     19  CB  ASP G  68     -27.081  -8.284 -21.803  1.00 74.32 LIG 0.15  C 
BRANCH 19 20
ATOM     20  CG  ASP G  68     -28.055  -7.159 -22.273  1.00 79.04 LIG 0.17  C 
ATOM     21 OD1  ASP G  68     -27.640  -6.302 -23.121  1.00 79.61 LIG-0.65  OA
ATOM     22 OD2  ASP G  68     -29.230  -7.120 -21.814  1.00 79.33 LIG-0.65  OA
ENDBRANCH 19 20
ENDBRANCH 16 19
ENDBRANCH 13 16
ENDBRANCH 11 12
BRANCH 11 23
ATOM     23  CB  LEU G  67     -23.229  -5.147 -19.860  1.00 63.56 LIG 0.04  C 
BRANCH 23 24
ATOM     24  CG  LEU G  67     -22.117  -5.090 -18.805  1.00 66.22 LIG-0.02  C 
ATOM     25  CD2 LEU G  67     -22.102  -3.745 -18.072  1.00 64.35 LIG 0.01  C 
ATOM     26  CD1 LEU G  67     -20.718  -5.486 -19.379  1.00 61.82 LIG 0.01  C 
ENDBRANCH 23 24
ENDBRANCH 11 23
ENDBRANCH 9 11
ENDBRANCH 6 7
BRANCH 6 27
ATOM     27  CB  LEU G  66     -23.806  -5.866 -14.586  1.00 68.20 LIG 0.04  C 
BRANCH 27 28
ATOM     28  CG  LEU G  66     -23.847  -6.027 -13.087  1.00 70.51 LIG-0.02  C 
ATOM     29  CD1 LEU G  66     -24.236  -7.416 -12.574  1.00 68.17 LIG 0.01  C 
ATOM     30  CD2 LEU G  66     -22.433  -5.630 -12.664  1.00 69.71 LIG 0.01  C 
ENDBRANCH 27 28
ENDBRANCH 6 27
ENDBRANCH 4 6
ENDBRANCH 1 2
BRANCH 1 31
ATOM     31  CB  PHE G  65     -26.043 -10.903 -16.506  1.00 81.70 LIG 0.07  C 
BRANCH 31 32
ATOM     32  CG  PHE G  65     -26.718 -10.462 -15.206  1.00 88.02 LIG-0.06  A 
ATOM     33  CD1 PHE G  65     -25.958 -10.186 -14.044  1.00 90.65 LIG 0.01  A 
ATOM     34  CE1 PHE G  65     -26.585  -9.733 -12.862  1.00 91.87 LIG 0.00  A 
ATOM     35  CZ  PHE G  65     -27.973  -9.529 -12.830  1.00 92.49 LIG 0.00  A 
ATOM     36  CE2 PHE G  65     -28.728  -9.771 -13.974  1.00 89.30 LIG 0.00  A 
ATOM     37  CD2 PHE G  65     -28.106 -10.223 -15.150  1.00 89.13 LIG 0.01  A 
ENDBRANCH 31 32
ENDBRANCH 1 31
BRANCH 1 38
ATOM     38  N   PHE G  65     -23.572 -10.279 -16.598  1.00 74.58 LIG-0.35  N 
ATOM     39  C   GLN G  64     -22.511  -9.626 -17.112  1.00 72.54 LIG 0.24  C 
ATOM     40 O    GLN G  64     -22.617  -8.737 -17.973  1.00 72.49 LIG-0.27  OA
ATOM     41 H    PHE G  65     -23.517 -10.926 -16.035  1.00 74.58 LIG 0.16  HD
BRANCH 39 42
ATOM     42  CA  GLN G  64     -21.101  -9.953 -16.574  1.00 69.04 LIG 0.18  C 
BRANCH 42 43
ATOM     43  CB  GLN G  64     -20.308 -10.907 -17.472  1.00 71.00 LIG 0.04  C 
BRANCH 43 44
ATOM     44  CG  GLN G  64     -18.938 -11.274 -16.947  1.00 72.96 LIG 0.10  C 
BRANCH 44 45
ATOM     45  CD  GLN G  64     -18.941 -12.408 -15.935  1.00 76.87 LIG 0.21  C 
ATOM     46 OE1  GLN G  64     -19.415 -13.527 -16.189  1.00 74.88 LIG-0.27  OA
ATOM     47  NE2 GLN G  64     -18.377 -12.121 -14.770  1.00 81.47 LIG-0.37  N 
ATOM     48 21HE GLN G  64     -18.059 -11.335 -14.629  1.00 81.47 LIG 0.16  HD
ATOM     49 22HE GLN G  64     -18.329 -12.722 -14.157  1.00 81.47 LIG 0.16  HD
ENDBRANCH 44 45
ENDBRANCH 43 44
ENDBRANCH 42 43
BRANCH 42 50
ATOM     50  N   GLN G  64     -21.070 -10.414 -15.213  1.00 68.17 LIG-0.35  N 
ATOM     51  C   LEU G  63     -21.681  -9.753 -14.225  1.00 67.58 LIG 0.24  C 
ATOM     52 O    LEU G  63     -22.435  -8.767 -14.391  1.00 63.10 LIG-0.27  OA
ATOM     53 H    GLN G  64     -20.630 -11.144 -15.098  1.00 68.17 LIG 0.16  HD
BRANCH 51 54
ATOM     54  CA  LEU G  63     -21.444 -10.314 -12.836  1.00 66.76 LIG 0.18  C 
BRANCH 54 55
ATOM     55  CB  LEU G  63     -20.209  -9.633 -12.220  1.00 69.31 LIG 0.04  C 
BRANCH 55 56
ATOM     56  CG  LEU G  63     -18.985 -10.488 -11.790  1.00 73.12 LIG-0.02  C 
ATOM     57  CD2 LEU G  63     -18.680 -10.495 -10.287  1.00 75.26 LIG 0.01  C 
ATOM     58  CD1 LEU G  63     -17.721 -10.120 -12.535  1.00 70.75 LIG 0.01  C 
ENDBRANCH 55 56
ENDBRANCH 54 55
BRANCH 54 59
ATOM     59  N   LEU G  63     -21.266 -11.752 -12.919  1.00 64.77 LIG-0.35  N 
ATOM     60  C   SER G  62     -22.194 -12.604 -13.411  1.00 63.11 LIG 0.26  C 
ATOM     61 O    SER G  62     -23.399 -12.319 -13.666  1.00 57.72 LIG-0.27  OA
ATOM     62 H    LEU G  63     -20.504 -12.018 -12.622  1.00 64.77 LIG 0.16  HD
BRANCH 60 63
ATOM     63  CA  SER G  62     -21.625 -14.012 -13.638  1.00 64.68 LIG 0.42  C 
ATOM     64  N   SER G  62     -21.979 -14.965 -12.541  1.00 67.72 LIG 0.62  N 
BRANCH 63 65
ATOM     65  CB  SER G  62     -22.000 -14.533 -15.038  1.00 62.74 LIG 0.21  C 
BRANCH 65 66
ATOM     66 OG   SER G  62     -22.197 -13.451 -15.971  1.00 60.63 LIG-0.40  OA
ATOM     67 HG   SER G  62     -21.778 -13.612 -16.681  1.00 60.63 LIG 0.21  HD
ENDBRANCH 65 66
ENDBRANCH 63 65
ENDBRANCH 60 63
ENDBRANCH 54 59
ENDBRANCH 51 54
ENDBRANCH 42 50
ENDBRANCH 39 42
ENDBRANCH 1 38
TORSDOF 28
ENDMDL
MODEL 4
USER: ADFR SOLUTION from run 87
USER: SCORE 20.135515 LL:  -6.832 LR: -14.320 RR:   0.000 FEB:  -5.968
USER: RMSD 5.389146
USER: SEED 86
USER: STATUS no improvement in best in 6 clusters for 5 generations
USER: GENES 30
USER: genes 0 Translation |==|  0.52551 0.54720 0.46394
USER: genes 1 Rotation |==|  0.56397 0.48963 0.77220 0.91438
USER: genes 2 Torsion [N]-CA--C-[N] |==|  0.96811
USER: genes 3 Torsion [C]-N--CA-[C] |==|  0.80323
USER: genes 4 Torsion [N]-CA--C-[N] |==|  0.93585
USER: genes 5 Torsion [C]-N--CA-[C] |==|  0.65131
USER: genes 6 Torsion [N]-CA--C-[N] |==|  0.02521
USER: genes 7 Torsion [C]-N--CA-[CB] |==|  0.24960
USER: genes 8 Torsion [N]-CA--C-[O] |==|  0.34492
USER: genes 9 Torsion [N]-CA--CB-[CG] |==|  0.73889
USER: genes 10 Torsion [CA]-CB--CG-[OD2] |==|  0.94863
USER: genes 11 Torsion [N]-CA--CB-[CG] |==|  0.79322
USER: genes 12 Torsion [CA]-CB--CG-[CD2] |==|  0.69471
USER: genes 13 Torsion [N]-CA--CB-[CG] |==|  0.30157
USER: genes 14 Torsion [CA]-CB--CG-[CD1] |==|  0.23445
USER: genes 15 Torsion [C]-CA--CB-[CG] |==|  0.47660
USER: genes 16 Torsion [CA]-CB--CG-[CD1] |==|  0.93417
USER: genes 17 Torsion [C]-CA--N-[C] |==|  0.82222
USER: genes 18 Torsion [N]-C--CA-[N] |==|  0.88823
USER: genes 19 Torsion [C]-CA--CB-[CG] |==|  0.12013
USER: genes 20 Torsion [CA]-CB--CG-[CD] |==|  0.17577
USER: genes 21 Torsion [CB]-CG--CD-[NE2] |==|  0.36874
USER: genes 22 Torsion [C]-CA--N-[C] |==|  0.86029
USER: genes 23 Torsion [N]-C--CA-[N] |==|  0.80108
USER: genes 24 Torsion [C]-CA--CB-[CG] |==|  0.69312
USER: genes 25 Torsion [CA]-CB--CG-[CD2] |==|  0.56943
USER: genes 26 Torsion [C]-CA--N-[C] |==|  0.76288
USER: genes 27 Torsion [N]-C--CA-[N] |==|  0.38243
USER: genes 28 Torsion [C]-CA--CB-[OG] |==|  0.09271
USER: genes 29 Torsion [CA]-CB--OG-[HG] |==|  0.47126
ROOT
ATOM      1  CA  PHE G  65     -23.787  -8.825 -18.233  1.00 79.88 LIG 0.18  C 
ENDROOT
BRANCH 1 2
ATOM      2  C   PHE G  65     -24.996  -9.817 -18.188  1.00 81.88 LIG 0.24  C 
ATOM      3 O    PHE G  65     -25.278 -10.548 -19.157  1.00 83.91 LIG-0.27  OA
ATOM      4  N   LEU G  66     -25.675  -9.876 -17.053  1.00 80.12 LIG-0.35  N 
ATOM      5 H    LEU G  66     -25.480  -9.411 -16.356  1.00 80.12 LIG 0.16  HD
BRANCH 4 6
ATOM      6  CA  LEU G  66     -26.840 -10.756 -16.885  1.00 73.95 LIG 0.18  C 
BRANCH 6 7
ATOM      7  C   LEU G  66     -28.045 -10.238 -17.707  1.00 70.37 LIG 0.24  C 
ATOM      8 O    LEU G  66     -28.969 -10.998 -18.063  1.00 65.91 LIG-0.27  OA
ATOM      9  N   LEU G  67     -28.022  -8.934 -18.003  1.00 70.17 LIG-0.35  N 
ATOM     10 H    LEU G  67     -27.432  -8.386 -17.700  1.00 70.17 LIG 0.16  HD
BRANCH 9 11
ATOM     11  CA  LEU G  67     -29.014  -8.317 -18.880  1.00 68.48 LIG 0.18  C 
BRANCH 11 12
ATOM     12  C   LEU G  67     -28.298  -7.578 -20.021  1.00 69.74 LIG 0.24  C 
ATOM     13  N   ASP G  68     -26.970  -7.778 -20.129  1.00 68.02 LIG-0.35  N 
ATOM     14 H    ASP G  68     -26.479  -8.010 -19.462  1.00 68.02 LIG 0.16  HD
ATOM     15 O    LEU G  67     -28.968  -6.892 -20.797  1.00 68.13 LIG-0.27  OA
BRANCH 13 16
ATOM     16  CA  ASP G  68     -26.204  -7.623 -21.398  1.00 74.55 LIG 0.17  C 
BRANCH 16 17
ATOM     17  C   ASP G  68     -24.978  -8.585 -21.315  1.00 77.35 LIG 0.22  C 
ATOM     18 O    ASP G  68     -24.735  -9.453 -22.159  1.00 79.38 LIG-0.29  OA
ENDBRANCH 16 17
BRANCH 16 19
ATOM     19  CB  ASP G  68     -25.681  -6.186 -21.579  1.00 74.32 LIG 0.15  C 
BRANCH 19 20
ATOM     20  CG  ASP G  68     -26.629  -5.276 -22.422  1.00 79.04 LIG 0.17  C 
ATOM     21 OD1  ASP G  68     -26.492  -4.011 -22.346  1.00 79.61 LIG-0.65  OA
ATOM     22 OD2  ASP G  68     -27.505  -5.804 -23.161  1.00 79.33 LIG-0.65  OA
ENDBRANCH 19 20
ENDBRANCH 16 19
ENDBRANCH 13 16
ENDBRANCH 11 12
BRANCH 11 23
ATOM     23  CB  LEU G  67     -29.982  -7.425 -18.110  1.00 63.56 LIG 0.04  C 
BRANCH 23 24
ATOM     24  CG  LEU G  67     -30.976  -8.291 -17.324  1.00 66.22 LIG-0.02  C 
ATOM     25  CD2 LEU G  67     -32.387  -8.207 -17.914  1.00 64.35 LIG 0.01  C 
ATOM     26  CD1 LEU G  67     -30.940  -8.010 -15.788  1.00 61.82 LIG 0.01  C 
ENDBRANCH 23 24
ENDBRANCH 11 23
ENDBRANCH 9 11
ENDBRANCH 6 7
BRANCH 6 27
ATOM     27  CB  LEU G  66     -27.187 -10.785 -15.409  1.00 68.20 LIG 0.04  C 
BRANCH 27 28
ATOM     28  CG  LEU G  66     -28.410 -10.117 -14.829  1.00 70.51 LIG-0.02  C 
ATOM     29  CD1 LEU G  66     -29.707 -10.927 -14.887  1.00 68.17 LIG 0.01  C 
ATOM     30  CD2 LEU G  66     -27.981  -9.814 -13.394  1.00 69.71 LIG 0.01  C 
ENDBRANCH 27 28
ENDBRANCH 6 27
ENDBRANCH 4 6
ENDBRANCH 1 2
BRANCH 1 31
ATOM     31  CB  PHE G  65     -22.481  -9.605 -18.518  1.00 81.70 LIG 0.07  C 
BRANCH 31 32
ATOM     32  CG  PHE G  65     -21.286  -8.687 -18.781  1.00 88.02 LIG-0.06  A 
ATOM     33  CD1 PHE G  65     -21.471  -7.361 -19.241  1.00 90.65 LIG 0.01  A 
ATOM     34  CE1 PHE G  65     -20.364  -6.505 -19.436  1.00 91.87 LIG 0.00  A 
ATOM     35  CZ  PHE G  65     -19.064  -6.951 -19.153  1.00 92.49 LIG 0.00  A 
ATOM     36  CE2 PHE G  65     -18.873  -8.244 -18.674  1.00 89.30 LIG 0.00  A 
ATOM     37  CD2 PHE G  65     -19.972  -9.098 -18.482  1.00 89.13 LIG 0.01  A 
ENDBRANCH 31 32
ENDBRANCH 1 31
BRANCH 1 38
ATOM     38  N   PHE G  65     -23.676  -7.854 -17.100  1.00 74.58 LIG-0.35  N 
ATOM     39  C   GLN G  64     -24.625  -6.920 -16.897  1.00 72.54 LIG 0.24  C 
ATOM     40 O    GLN G  64     -25.595  -6.766 -17.658  1.00 72.49 LIG-0.27  OA
ATOM     41 H    PHE G  65     -22.975  -7.949 -16.611  1.00 74.58 LIG 0.16  HD
BRANCH 39 42
ATOM     42  CA  GLN G  64     -24.541  -6.032 -15.637  1.00 69.04 LIG 0.18  C 
BRANCH 42 43
ATOM     43  CB  GLN G  64     -23.691  -4.773 -15.829  1.00 71.00 LIG 0.04  C 
BRANCH 43 44
ATOM     44  CG  GLN G  64     -23.920  -4.050 -17.137  1.00 72.96 LIG 0.10  C 
BRANCH 44 45
ATOM     45  CD  GLN G  64     -25.326  -3.499 -17.306  1.00 76.87 LIG 0.21  C 
ATOM     46 OE1  GLN G  64     -26.340  -4.167 -17.046  1.00 74.88 LIG-0.27  OA
ATOM     47  NE2 GLN G  64     -25.390  -2.243 -17.727  1.00 81.47 LIG-0.37  N 
ATOM     48 21HE GLN G  64     -24.666  -1.810 -17.897  1.00 81.47 LIG 0.16  HD
ATOM     49 22HE GLN G  64     -26.154  -1.862 -17.829  1.00 81.47 LIG 0.16  HD
ENDBRANCH 44 45
ENDBRANCH 43 44
ENDBRANCH 42 43
BRANCH 42 50
ATOM     50  N   GLN G  64     -24.139  -6.723 -14.442  1.00 68.17 LIG-0.35  N 
ATOM     51  C   LEU G  63     -24.724  -7.857 -14.046  1.00 67.58 LIG 0.24  C 
ATOM     52 O    LEU G  63     -25.566  -8.493 -14.720  1.00 63.10 LIG-0.27  OA
ATOM     53 H    GLN G  64     -23.497  -6.343 -14.015  1.00 68.17 LIG 0.16  HD
BRANCH 51 54
ATOM     54  CA  LEU G  63     -24.259  -8.383 -12.702  1.00 66.76 LIG 0.18  C 
BRANCH 54 55
ATOM     55  CB  LEU G  63     -24.328  -7.249 -11.664  1.00 69.31 LIG 0.04  C 
BRANCH 55 56
ATOM     56  CG  LEU G  63     -23.018  -6.642 -11.090  1.00 73.12 LIG-0.02  C 
ATOM     57  CD2 LEU G  63     -23.140  -5.995  -9.706  1.00 75.26 LIG 0.01  C 
ATOM     58  CD1 LEU G  63     -22.371  -5.648 -12.030  1.00 70.75 LIG 0.01  C 
ENDBRANCH 55 56
ENDBRANCH 54 55
BRANCH 54 59
ATOM     59  N   LEU G  63     -22.909  -8.903 -12.827  1.00 64.77 LIG-0.35  N 
ATOM     60  C   SER G  62     -22.614 -10.159 -13.232  1.00 63.11 LIG 0.26  C 
ATOM     61 O    SER G  62     -23.438 -11.110 -13.353  1.00 57.72 LIG-0.27  OA
ATOM     62 H    LEU G  63     -22.304  -8.329 -12.617  1.00 64.77 LIG 0.16  HD
BRANCH 60 63
ATOM     63  CA  SER G  62     -21.120 -10.332 -13.541  1.00 64.68 LIG 0.42  C 
ATOM     64  N   SER G  62     -20.566 -11.620 -13.023  1.00 67.72 LIG 0.62  N 
BRANCH 63 65
ATOM     65  CB  SER G  62     -20.844 -10.112 -15.041  1.00 62.74 LIG 0.21  C 
BRANCH 65 66
ATOM     66 OG   SER G  62     -21.730  -9.122 -15.602  1.00 60.63 LIG-0.40  OA
ATOM     67 HG   SER G  62     -21.469  -8.919 -16.375  1.00 60.63 LIG 0.21  HD
ENDBRANCH 65 66
ENDBRANCH 63 65
ENDBRANCH 60 63
ENDBRANCH 54 59
ENDBRANCH 51 54
ENDBRANCH 42 50
ENDBRANCH 39 42
ENDBRANCH 1 38
TORSDOF 28
ENDMDL
MODEL 5
USER: ADFR SOLUTION from run 65
USER: SCORE 20.691996 LL:  -6.715 LR: -14.319 RR:   0.000 FEB:  -5.967
USER: RMSD 3.204033
USER: SEED 64
USER: STATUS searching
USER: GENES 30
USER: genes 0 Translation |==|  0.49778 0.37628 0.46647
USER: genes 1 Rotation |==|  0.48383 0.50993 0.45985 0.99802
USER: genes 2 Torsion [N]-CA--C-[N] |==|  0.90746
USER: genes 3 Torsion [C]-N--CA-[C] |==|  0.79478
USER: genes 4 Torsion [N]-CA--C-[N] |==|  0.85702
USER: genes 5 Torsion [C]-N--CA-[C] |==|  0.82185
USER: genes 6 Torsion [N]-CA--C-[N] |==|  0.39374
USER: genes 7 Torsion [C]-N--CA-[CB] |==|  0.24932
USER: genes 8 Torsion [N]-CA--C-[O] |==|  0.96412
USER: genes 9 Torsion [N]-CA--CB-[CG] |==|  0.17266
USER: genes 10 Torsion [CA]-CB--CG-[OD2] |==|  0.75483
USER: genes 11 Torsion [N]-CA--CB-[CG] |==|  0.58798
USER: genes 12 Torsion [CA]-CB--CG-[CD2] |==|  0.08533
USER: genes 13 Torsion [N]-CA--CB-[CG] |==|  0.70131
USER: genes 14 Torsion [CA]-CB--CG-[CD1] |==|  0.47881
USER: genes 15 Torsion [C]-CA--CB-[CG] |==|  0.95140
USER: genes 16 Torsion [CA]-CB--CG-[CD1] |==|  0.28986
USER: genes 17 Torsion [C]-CA--N-[C] |==|  0.83152
USER: genes 18 Torsion [N]-C--CA-[N] |==|  0.91905
USER: genes 19 Torsion [C]-CA--CB-[CG] |==|  0.56843
USER: genes 20 Torsion [CA]-CB--CG-[CD] |==|  0.26739
USER: genes 21 Torsion [CB]-CG--CD-[NE2] |==|  0.53690
USER: genes 22 Torsion [C]-CA--N-[C] |==|  0.83292
USER: genes 23 Torsion [N]-C--CA-[N] |==|  0.88573
USER: genes 24 Torsion [C]-CA--CB-[CG] |==|  0.20423
USER: genes 25 Torsion [CA]-CB--CG-[CD2] |==|  0.04549
USER: genes 26 Torsion [C]-CA--N-[C] |==|  0.83832
USER: genes 27 Torsion [N]-C--CA-[N] |==|  0.89690
USER: genes 28 Torsion [C]-CA--CB-[OG] |==|  0.29701
USER: genes 29 Torsion [CA]-CB--OG-[HG] |==|  0.34762
ROOT
ATOM      1  CA  PHE G  65     -24.307 -12.158 -18.184  1.00 79.88 LIG 0.18  C 
ENDROOT
BRANCH 1 2
ATOM      2  C   PHE G  65     -25.539 -11.204 -18.037  1.00 81.88 LIG 0.24  C 
ATOM      3 O    PHE G  65     -26.332 -11.010 -18.979  1.00 83.91 LIG-0.27  OA
ATOM      4  N   LEU G  66     -25.723 -10.649 -16.849  1.00 80.12 LIG-0.35  N 
ATOM      5 H    LEU G  66     -25.214 -10.793 -16.171  1.00 80.12 LIG 0.16  HD
BRANCH 4 6
ATOM      6  CA  LEU G  66     -26.833  -9.723 -16.583  1.00 73.95 LIG 0.18  C 
BRANCH 6 7
ATOM      7  C   LEU G  66     -26.570  -8.346 -17.239  1.00 70.37 LIG 0.24  C 
ATOM      8 O    LEU G  66     -27.419  -7.799 -17.974  1.00 65.91 LIG-0.27  OA
ATOM      9  N   LEU G  67     -25.384  -7.793 -16.963  1.00 70.17 LIG-0.35  N 
ATOM     10 H    LEU G  67     -24.824  -8.123 -16.399  1.00 70.17 LIG 0.16  HD
BRANCH 9 11
ATOM     11  CA  LEU G  67     -24.930  -6.562 -17.604  1.00 68.48 LIG 0.18  C 
BRANCH 11 12
ATOM     12  C   LEU G  67     -24.761  -6.803 -19.112  1.00 69.74 LIG 0.24  C 
ATOM     13  N   ASP G  68     -25.129  -5.797 -19.928  1.00 68.02 LIG-0.35  N 
ATOM     14 H    ASP G  68     -25.709  -5.203 -19.703  1.00 68.02 LIG 0.16  HD
ATOM     15 O    LEU G  67     -24.263  -7.866 -19.491  1.00 68.13 LIG-0.27  OA
BRANCH 13 16
ATOM     16  CA  ASP G  68     -24.582  -5.594 -21.300  1.00 74.55 LIG 0.17  C 
BRANCH 16 17
ATOM     17  C   ASP G  68     -24.654  -4.065 -21.602  1.00 77.35 LIG 0.22  C 
ATOM     18 O    ASP G  68     -25.296  -3.264 -20.915  1.00 79.38 LIG-0.29  OA
ENDBRANCH 16 17
BRANCH 16 19
ATOM     19  CB  ASP G  68     -25.412  -6.338 -22.362  1.00 74.32 LIG 0.15  C 
BRANCH 19 20
ATOM     20  CG  ASP G  68     -26.890  -5.846 -22.459  1.00 79.04 LIG 0.17  C 
ATOM     21 OD1  ASP G  68     -27.177  -4.923 -23.289  1.00 79.61 LIG-0.65  OA
ATOM     22 OD2  ASP G  68     -27.770  -6.371 -21.722  1.00 79.33 LIG-0.65  OA
ENDBRANCH 19 20
ENDBRANCH 16 19
ENDBRANCH 13 16
ENDBRANCH 11 12
BRANCH 11 23
ATOM     23  CB  LEU G  67     -23.671  -6.005 -16.946  1.00 63.56 LIG 0.04  C 
BRANCH 23 24
ATOM     24  CG  LEU G  67     -23.666  -4.474 -17.042  1.00 66.22 LIG-0.02  C 
ATOM     25  CD2 LEU G  67     -25.088  -3.903 -17.030  1.00 64.35 LIG 0.01  C 
ATOM     26  CD1 LEU G  67     -22.808  -3.945 -18.236  1.00 61.82 LIG 0.01  C 
ENDBRANCH 23 24
ENDBRANCH 11 23
ENDBRANCH 9 11
ENDBRANCH 6 7
BRANCH 6 27
ATOM     27  CB  LEU G  66     -26.958  -9.572 -15.080  1.00 68.20 LIG 0.04  C 
BRANCH 27 28
ATOM     28  CG  LEU G  66     -28.082 -10.175 -14.274  1.00 70.51 LIG-0.02  C 
ATOM     29  CD1 LEU G  66     -27.947 -10.071 -12.753  1.00 68.17 LIG 0.01  C 
ATOM     30  CD2 LEU G  66     -29.311  -9.431 -14.797  1.00 69.71 LIG 0.01  C 
ENDBRANCH 27 28
ENDBRANCH 6 27
ENDBRANCH 4 6
ENDBRANCH 1 2
BRANCH 1 31
ATOM     31  CB  PHE G  65     -24.764 -13.628 -18.028  1.00 81.70 LIG 0.07  C 
BRANCH 31 32
ATOM     32  CG  PHE G  65     -26.138 -13.755 -17.367  1.00 88.02 LIG-0.06  A 
ATOM     33  CD1 PHE G  65     -27.289 -14.068 -18.129  1.00 90.65 LIG 0.01  A 
ATOM     34  CE1 PHE G  65     -28.545 -14.231 -17.504  1.00 91.87 LIG 0.00  A 
ATOM     35  CZ  PHE G  65     -28.665 -14.106 -16.111  1.00 92.49 LIG 0.00  A 
ATOM     36  CE2 PHE G  65     -27.535 -13.825 -15.349  1.00 89.30 LIG 0.00  A 
ATOM     37  CD2 PHE G  65     -26.285 -13.660 -15.969  1.00 89.13 LIG 0.01  A 
ENDBRANCH 31 32
ENDBRANCH 1 31
BRANCH 1 38
ATOM     38  N   PHE G  65     -23.095 -11.812 -17.378  1.00 74.58 LIG-0.35  N 
ATOM     39  C   GLN G  64     -22.460 -10.637 -17.556  1.00 72.54 LIG 0.24  C 
ATOM     40 O    GLN G  64     -22.793  -9.814 -18.424  1.00 72.49 LIG-0.27  OA
ATOM     41 H    PHE G  65     -22.853 -12.414 -16.813  1.00 74.58 LIG 0.16  HD
BRANCH 39 42
ATOM     42  CA  GLN G  64     -21.299 -10.265 -16.607  1.00 69.04 LIG 0.18  C 
BRANCH 42 43
ATOM     43  CB  GLN G  64     -19.913 -10.549 -17.193  1.00 71.00 LIG 0.04  C 
BRANCH 43 44
ATOM     44  CG  GLN G  64     -18.826 -10.763 -16.165  1.00 72.96 LIG 0.10  C 
BRANCH 44 45
ATOM     45  CD  GLN G  64     -18.551 -12.222 -15.843  1.00 76.87 LIG 0.21  C 
ATOM     46 OE1  GLN G  64     -18.966 -13.152 -16.553  1.00 74.88 LIG-0.27  OA
ATOM     47  NE2 GLN G  64     -17.811 -12.428 -14.762  1.00 81.47 LIG-0.37  N 
ATOM     48 21HE GLN G  64     -17.539 -11.760 -14.293  1.00 81.47 LIG 0.16  HD
ATOM     49 22HE GLN G  64     -17.602 -13.230 -14.530  1.00 81.47 LIG 0.16  HD
ENDBRANCH 44 45
ENDBRANCH 43 44
ENDBRANCH 42 43
BRANCH 42 50
ATOM     50  N   GLN G  64     -21.402 -10.822 -15.286  1.00 68.17 LIG-0.35  N 
ATOM     51  C   LEU G  63     -22.434 -10.555 -14.480  1.00 67.58 LIG 0.24  C 
ATOM     52 O    LEU G  63     -23.457  -9.920 -14.825  1.00 63.10 LIG-0.27  OA
ATOM     53 H    GLN G  64     -20.747 -11.336 -15.069  1.00 68.17 LIG 0.16  HD
BRANCH 51 54
ATOM     54  CA  LEU G  63     -22.319 -11.127 -13.080  1.00 66.76 LIG 0.18  C 
BRANCH 54 55
ATOM     55  CB  LEU G  63     -21.425 -10.209 -12.230  1.00 69.31 LIG 0.04  C 
BRANCH 55 56
ATOM     56  CG  LEU G  63     -21.965  -8.837 -11.739  1.00 73.12 LIG-0.02  C 
ATOM     57  CD2 LEU G  63     -23.487  -8.663 -11.811  1.00 75.26 LIG 0.01  C 
ATOM     58  CD1 LEU G  63     -21.313  -7.665 -12.440  1.00 70.75 LIG 0.01  C 
ENDBRANCH 55 56
ENDBRANCH 54 55
BRANCH 54 59
ATOM     59  N   LEU G  63     -21.778 -12.473 -13.151  1.00 64.77 LIG-0.35  N 
ATOM     60  C   SER G  62     -22.346 -13.483 -13.847  1.00 63.11 LIG 0.26  C 
ATOM     61 O    SER G  62     -23.506 -13.476 -14.349  1.00 57.72 LIG-0.27  OA
ATOM     62 H    LEU G  63     -21.050 -12.569 -12.703  1.00 64.77 LIG 0.16  HD
BRANCH 60 63
ATOM     63  CA  SER G  62     -21.412 -14.695 -13.975  1.00 64.68 LIG 0.42  C 
ATOM     64  N   SER G  62     -19.979 -14.307 -14.156  1.00 67.72 LIG 0.62  N 
BRANCH 63 65
ATOM     65  CB  SER G  62     -21.631 -15.679 -12.810  1.00 62.74 LIG 0.21  C 
BRANCH 65 66
ATOM     66 OG   SER G  62     -22.323 -16.867 -13.245  1.00 60.63 LIG-0.40  OA
ATOM     67 HG   SER G  62     -21.874 -17.546 -13.036  1.00 60.63 LIG 0.21  HD
ENDBRANCH 65 66
ENDBRANCH 63 65
ENDBRANCH 60 63
ENDBRANCH 54 59
ENDBRANCH 51 54
ENDBRANCH 42 50
ENDBRANCH 39 42
ENDBRANCH 1 38
TORSDOF 28
ENDMDL
MODEL 6
USER: ADFR SOLUTION from run 20
USER: SCORE 20.237492 LL:  -6.643 LR: -14.216 RR:   0.000 FEB:  -5.863
USER: RMSD 4.371224
USER: SEED 19
USER: STATUS no improvement in best in 7 clusters for 5 generations
USER: GENES 30
USER: genes 0 Translation |==|  0.43230 0.44916 0.45770
USER: genes 1 Rotation |==|  0.36276 0.41664 0.52307 0.97295
USER: genes 2 Torsion [N]-CA--C-[N] |==|  0.92982
USER: genes 3 Torsion [C]-N--CA-[C] |==|  0.74660
USER: genes 4 Torsion [N]-CA--C-[N] |==|  0.95038
USER: genes 5 Torsion [C]-N--CA-[C] |==|  0.84575
USER: genes 6 Torsion [N]-CA--C-[N] |==|  0.37247
USER: genes 7 Torsion [C]-N--CA-[CB] |==|  0.52996
USER: genes 8 Torsion [N]-CA--C-[O] |==|  0.76606
USER: genes 9 Torsion [N]-CA--CB-[CG] |==|  0.89262
USER: genes 10 Torsion [CA]-CB--CG-[OD2] |==|  0.77459
USER: genes 11 Torsion [N]-CA--CB-[CG] |==|  0.60883
USER: genes 12 Torsion [CA]-CB--CG-[CD2] |==|  0.59040
USER: genes 13 Torsion [N]-CA--CB-[CG] |==|  0.63326
USER: genes 14 Torsion [CA]-CB--CG-[CD1] |==|  0.40316
USER: genes 15 Torsion [C]-CA--CB-[CG] |==|  0.81790
USER: genes 16 Torsion [CA]-CB--CG-[CD1] |==|  0.87310
USER: genes 17 Torsion [C]-CA--N-[C] |==|  0.83383
USER: genes 18 Torsion [N]-C--CA-[N] |==|  0.01834
USER: genes 19 Torsion [C]-CA--CB-[CG] |==|  0.25285
USER: genes 20 Torsion [CA]-CB--CG-[CD] |==|  0.23602
USER: genes 21 Torsion [CB]-CG--CD-[NE2] |==|  0.31489
USER: genes 22 Torsion [C]-CA--N-[C] |==|  0.80125
USER: genes 23 Torsion [N]-C--CA-[N] |==|  0.91702
USER: genes 24 Torsion [C]-CA--CB-[CG] |==|  0.64397
USER: genes 25 Torsion [CA]-CB--CG-[CD2] |==|  0.68524
USER: genes 26 Torsion [C]-CA--N-[C] |==|  0.78523
USER: genes 27 Torsion [N]-C--CA-[N] |==|  0.35256
USER: genes 28 Torsion [C]-CA--CB-[OG] |==|  0.15914
USER: genes 29 Torsion [CA]-CB--OG-[HG] |==|  0.12522
ROOT
ATOM      1  CA  PHE G  65     -25.534 -10.736 -18.355  1.00 79.88 LIG 0.18  C 
ENDROOT
BRANCH 1 2
ATOM      2  C   PHE G  65     -26.874 -10.286 -19.027  1.00 81.88 LIG 0.24  C 
ATOM      3 O    PHE G  65     -27.355 -10.898 -20.001  1.00 83.91 LIG-0.27  OA
ATOM      4  N   LEU G  66     -27.495  -9.252 -18.482  1.00 80.12 LIG-0.35  N 
ATOM      5 H    LEU G  66     -27.206  -8.834 -17.788  1.00 80.12 LIG 0.16  HD
BRANCH 4 6
ATOM      6  CA  LEU G  66     -28.753  -8.720 -19.025  1.00 73.95 LIG 0.18  C 
BRANCH 6 7
ATOM      7  C   LEU G  66     -28.477  -7.602 -20.059  1.00 70.37 LIG 0.24  C 
ATOM      8 O    LEU G  66     -29.348  -7.239 -20.877  1.00 65.91 LIG-0.27  OA
ATOM      9  N   LEU G  67     -27.255  -7.061 -20.011  1.00 70.17 LIG-0.35  N 
ATOM     10 H    LEU G  67     -26.674  -7.249 -19.404  1.00 70.17 LIG 0.16  HD
BRANCH 9 11
ATOM     11  CA  LEU G  67     -26.793  -6.090 -20.999  1.00 68.48 LIG 0.18  C 
BRANCH 11 12
ATOM     12  C   LEU G  67     -26.934  -6.687 -22.407  1.00 69.74 LIG 0.24  C 
ATOM     13  N   ASP G  68     -27.482  -5.892 -23.346  1.00 68.02 LIG-0.35  N 
ATOM     14 H    ASP G  68     -28.015  -5.245 -23.155  1.00 68.02 LIG 0.16  HD
ATOM     15 O    LEU G  67     -26.503  -7.823 -22.616  1.00 68.13 LIG-0.27  OA
BRANCH 13 16
ATOM     16  CA  ASP G  68     -27.233  -6.036 -24.809  1.00 74.55 LIG 0.17  C 
BRANCH 16 17
ATOM     17  C   ASP G  68     -25.686  -6.099 -25.008  1.00 77.35 LIG 0.22  C 
ATOM     18 O    ASP G  68     -24.969  -5.097 -25.088  1.00 79.38 LIG-0.29  OA
ENDBRANCH 16 17
BRANCH 16 19
ATOM     19  CB  ASP G  68     -27.776  -4.834 -25.603  1.00 74.32 LIG 0.15  C 
BRANCH 19 20
ATOM     20  CG  ASP G  68     -29.140  -4.295 -25.070  1.00 79.04 LIG 0.17  C 
ATOM     21 OD1  ASP G  68     -29.140  -3.271 -24.311  1.00 79.61 LIG-0.65  OA
ATOM     22 OD2  ASP G  68     -30.211  -4.875 -25.400  1.00 79.33 LIG-0.65  OA
ENDBRANCH 19 20
ENDBRANCH 16 19
ENDBRANCH 13 16
ENDBRANCH 11 12
BRANCH 11 23
ATOM     23  CB  LEU G  67     -25.381  -5.597 -20.700  1.00 63.56 LIG 0.04  C 
BRANCH 23 24
ATOM     24  CG  LEU G  67     -25.278  -4.095 -20.997  1.00 66.22 LIG-0.02  C 
ATOM     25  CD2 LEU G  67     -23.880  -3.712 -21.492  1.00 64.35 LIG 0.01  C 
ATOM     26  CD1 LEU G  67     -25.766  -3.209 -19.806  1.00 61.82 LIG 0.01  C 
ENDBRANCH 23 24
ENDBRANCH 11 23
ENDBRANCH 9 11
ENDBRANCH 6 7
BRANCH 6 27
ATOM     27  CB  LEU G  66     -29.563  -8.174 -17.866  1.00 68.20 LIG 0.04  C 
BRANCH 27 28
ATOM     28  CG  LEU G  66     -31.023  -8.488 -17.650  1.00 70.51 LIG-0.02  C 
ATOM     29  CD1 LEU G  66     -31.473  -8.609 -16.193  1.00 68.17 LIG 0.01  C 
ATOM     30  CD2 LEU G  66     -31.727  -7.343 -18.379  1.00 69.71 LIG 0.01  C 
ENDBRANCH 27 28
ENDBRANCH 6 27
ENDBRANCH 4 6
ENDBRANCH 1 2
BRANCH 1 31
ATOM     31  CB  PHE G  65     -25.762 -12.047 -17.564  1.00 81.70 LIG 0.07  C 
BRANCH 31 32
ATOM     32  CG  PHE G  65     -26.706 -11.865 -16.374  1.00 88.02 LIG-0.06  A 
ATOM     33  CD1 PHE G  65     -26.565 -10.769 -15.489  1.00 90.65 LIG 0.01  A 
ATOM     34  CE1 PHE G  65     -27.471 -10.583 -14.422  1.00 91.87 LIG 0.00  A 
ATOM     35  CZ  PHE G  65     -28.540 -11.473 -14.235  1.00 92.49 LIG 0.00  A 
ATOM     36  CE2 PHE G  65     -28.704 -12.539 -15.115  1.00 89.30 LIG 0.00  A 
ATOM     37  CD2 PHE G  65     -27.804 -12.727 -16.176  1.00 89.13 LIG 0.01  A 
ENDBRANCH 31 32
ENDBRANCH 1 31
BRANCH 1 38
ATOM     38  N   PHE G  65     -24.786  -9.691 -17.590  1.00 74.58 LIG-0.35  N 
ATOM     39  C   GLN G  64     -24.353  -8.569 -18.198  1.00 72.54 LIG 0.24  C 
ATOM     40 O    GLN G  64     -24.487  -8.367 -19.416  1.00 72.49 LIG-0.27  OA
ATOM     41 H    PHE G  65     -24.666  -9.870 -16.758  1.00 74.58 LIG 0.16  HD
BRANCH 39 42
ATOM     42  CA  GLN G  64     -23.709  -7.457 -17.342  1.00 69.04 LIG 0.18  C 
BRANCH 42 43
ATOM     43  CB  GLN G  64     -22.419  -6.891 -17.942  1.00 71.00 LIG 0.04  C 
BRANCH 43 44
ATOM     44  CG  GLN G  64     -22.615  -5.698 -18.849  1.00 72.96 LIG 0.10  C 
BRANCH 44 45
ATOM     45  CD  GLN G  64     -22.683  -4.366 -18.120  1.00 76.87 LIG 0.21  C 
ATOM     46 OE1  GLN G  64     -23.604  -4.080 -17.338  1.00 74.88 LIG-0.27  OA
ATOM     47  NE2 GLN G  64     -21.673  -3.541 -18.362  1.00 81.47 LIG-0.37  N 
ATOM     48 21HE GLN G  64     -21.052  -3.772 -18.911  1.00 81.47 LIG 0.16  HD
ATOM     49 22HE GLN G  64     -21.640  -2.776 -17.971  1.00 81.47 LIG 0.16  HD
ENDBRANCH 44 45
ENDBRANCH 43 44
ENDBRANCH 42 43
BRANCH 42 50
ATOM     50  N   GLN G  64     -23.503  -7.805 -15.963  1.00 68.17 LIG-0.35  N 
ATOM     51  C   LEU G  63     -24.517  -7.923 -15.100  1.00 67.58 LIG 0.24  C 
ATOM     52 O    LEU G  63     -25.727  -7.878 -15.418  1.00 63.10 LIG-0.27  OA
ATOM     53 H    GLN G  64     -22.679  -7.929 -15.750  1.00 68.17 LIG 0.16  HD
BRANCH 51 54
ATOM     54  CA  LEU G  63     -24.108  -8.175 -13.661  1.00 66.76 LIG 0.18  C 
BRANCH 54 55
ATOM     55  CB  LEU G  63     -23.987  -6.829 -12.927  1.00 69.31 LIG 0.04  C 
BRANCH 55 56
ATOM     56  CG  LEU G  63     -22.693  -6.489 -12.138  1.00 73.12 LIG-0.02  C 
ATOM     57  CD2 LEU G  63     -22.855  -6.385 -10.616  1.00 75.26 LIG 0.01  C 
ATOM     58  CD1 LEU G  63     -22.016  -5.231 -12.636  1.00 70.75 LIG 0.01  C 
ENDBRANCH 55 56
ENDBRANCH 54 55
BRANCH 54 59
ATOM     59  N   LEU G  63     -22.853  -8.904 -13.636  1.00 64.77 LIG-0.35  N 
ATOM     60  C   SER G  62     -22.740 -10.230 -13.878  1.00 63.11 LIG 0.26  C 
ATOM     61 O    SER G  62     -23.697 -11.053 -13.950  1.00 57.72 LIG-0.27  OA
ATOM     62 H    LEU G  63     -22.176  -8.408 -13.450  1.00 64.77 LIG 0.16  HD
BRANCH 60 63
ATOM     63  CA  SER G  62     -21.279 -10.663 -14.064  1.00 64.68 LIG 0.42  C 
ATOM     64  N   SER G  62     -20.892 -11.798 -13.172  1.00 67.72 LIG 0.62  N 
BRANCH 63 65
ATOM     65  CB  SER G  62     -20.972 -10.928 -15.550  1.00 62.74 LIG 0.21  C 
BRANCH 65 66
ATOM     66 OG   SER G  62     -21.247  -9.768 -16.362  1.00 60.63 LIG-0.40  OA
ATOM     67 HG   SER G  62     -20.937  -9.083 -15.988  1.00 60.63 LIG 0.21  HD
ENDBRANCH 65 66
ENDBRANCH 63 65
ENDBRANCH 60 63
ENDBRANCH 54 59
ENDBRANCH 51 54
ENDBRANCH 42 50
ENDBRANCH 39 42
ENDBRANCH 1 38
TORSDOF 28
ENDMDL
MODEL 7
USER: ADFR SOLUTION from run 171
USER: SCORE 20.679526 LL:  -7.607 LR: -14.189 RR:   0.000 FEB:  -5.837
USER: RMSD 4.587284
USER: SEED 170
USER: STATUS no improvement in best in 8 clusters for 5 generations
USER: GENES 30
USER: genes 0 Translation |==|  0.42895 0.48728 0.50201
USER: genes 1 Rotation |==|  0.49916 0.60894 0.25020 0.91920
USER: genes 2 Torsion [N]-CA--C-[N] |==|  0.92386
USER: genes 3 Torsion [C]-N--CA-[C] |==|  0.82555
USER: genes 4 Torsion [N]-CA--C-[N] |==|  0.91295
USER: genes 5 Torsion [C]-N--CA-[C] |==|  0.79838
USER: genes 6 Torsion [N]-CA--C-[N] |==|  0.85017
USER: genes 7 Torsion [C]-N--CA-[CB] |==|  0.20846
USER: genes 8 Torsion [N]-CA--C-[O] |==|  0.94568
USER: genes 9 Torsion [N]-CA--CB-[CG] |==|  0.54719
USER: genes 10 Torsion [CA]-CB--CG-[OD2] |==|  0.85817
USER: genes 11 Torsion [N]-CA--CB-[CG] |==|  0.53069
USER: genes 12 Torsion [CA]-CB--CG-[CD2] |==|  0.65733
USER: genes 13 Torsion [N]-CA--CB-[CG] |==|  0.63233
USER: genes 14 Torsion [CA]-CB--CG-[CD1] |==|  0.30893
USER: genes 15 Torsion [C]-CA--CB-[CG] |==|  0.86620
USER: genes 16 Torsion [CA]-CB--CG-[CD1] |==|  0.89655
USER: genes 17 Torsion [C]-CA--N-[C] |==|  0.86667
USER: genes 18 Torsion [N]-C--CA-[N] |==|  0.88514
USER: genes 19 Torsion [C]-CA--CB-[CG] |==|  0.04544
USER: genes 20 Torsion [CA]-CB--CG-[CD] |==|  0.19138
USER: genes 21 Torsion [CB]-CG--CD-[NE2] |==|  0.68932
USER: genes 22 Torsion [C]-CA--N-[C] |==|  0.86839
USER: genes 23 Torsion [N]-C--CA-[N] |==|  0.07732
USER: genes 24 Torsion [C]-CA--CB-[CG] |==|  0.85504
USER: genes 25 Torsion [CA]-CB--CG-[CD2] |==|  0.68663
USER: genes 26 Torsion [C]-CA--N-[C] |==|  0.71606
USER: genes 27 Torsion [N]-C--CA-[N] |==|  0.48151
USER: genes 28 Torsion [C]-CA--CB-[OG] |==|  0.21594
USER: genes 29 Torsion [CA]-CB--OG-[HG] |==|  0.11554
ROOT
ATOM      1  CA  PHE G  65     -25.597  -9.993 -17.491  1.00 79.88 LIG 0.18  C 
ENDROOT
BRANCH 1 2
ATOM      2  C   PHE G  65     -25.486  -8.506 -17.017  1.00 81.88 LIG 0.24  C 
ATOM      3 O    PHE G  65     -26.134  -7.594 -17.567  1.00 83.91 LIG-0.27  OA
ATOM      4  N   LEU G  66     -24.704  -8.270 -15.975  1.00 80.12 LIG-0.35  N 
ATOM      5 H    LEU G  66     -24.274  -8.884 -15.553  1.00 80.12 LIG 0.16  HD
BRANCH 4 6
ATOM      6  CA  LEU G  66     -24.501  -6.916 -15.441  1.00 73.95 LIG 0.18  C 
BRANCH 6 7
ATOM      7  C   LEU G  66     -23.825  -6.005 -16.493  1.00 70.37 LIG 0.24  C 
ATOM      8 O    LEU G  66     -24.054  -4.778 -16.539  1.00 65.91 LIG-0.27  OA
ATOM      9  N   LEU G  67     -22.990  -6.620 -17.337  1.00 70.17 LIG-0.35  N 
ATOM     10 H    LEU G  67     -22.766  -7.448 -17.268  1.00 70.17 LIG 0.16  HD
BRANCH 9 11
ATOM     11  CA  LEU G  67     -22.375  -5.928 -18.467  1.00 68.48 LIG 0.18  C 
BRANCH 11 12
ATOM     12  C   LEU G  67     -23.435  -5.676 -19.551  1.00 69.74 LIG 0.24  C 
ATOM     13  N   ASP G  68     -24.126  -6.750 -19.979  1.00 68.02 LIG-0.35  N 
ATOM     14 H    ASP G  68     -23.817  -7.552 -19.931  1.00 68.02 LIG 0.16  HD
ATOM     15 O    LEU G  67     -23.631  -4.520 -19.932  1.00 68.13 LIG-0.27  OA
BRANCH 13 16
ATOM     16  CA  ASP G  68     -25.489  -6.679 -20.578  1.00 74.55 LIG 0.17  C 
BRANCH 16 17
ATOM     17  C   ASP G  68     -26.054  -8.134 -20.607  1.00 77.35 LIG 0.22  C 
ATOM     18 O    ASP G  68     -25.345  -9.142 -20.530  1.00 79.38 LIG-0.29  OA
ENDBRANCH 16 17
BRANCH 16 19
ATOM     19  CB  ASP G  68     -25.452  -6.145 -22.021  1.00 74.32 LIG 0.15  C 
BRANCH 19 20
ATOM     20  CG  ASP G  68     -26.839  -5.657 -22.544  1.00 79.04 LIG 0.17  C 
ATOM     21 OD1  ASP G  68     -26.924  -4.500 -23.070  1.00 79.61 LIG-0.65  OA
ATOM     22 OD2  ASP G  68     -27.845  -6.414 -22.442  1.00 79.33 LIG-0.65  OA
ENDBRANCH 19 20
ENDBRANCH 16 19
ENDBRANCH 13 16
ENDBRANCH 11 12
BRANCH 11 23
ATOM     23  CB  LEU G  67     -21.150  -6.670 -18.994  1.00 63.56 LIG 0.04  C 
BRANCH 23 24
ATOM     24  CG  LEU G  67     -20.387  -5.780 -19.984  1.00 66.22 LIG-0.02  C 
ATOM     25  CD2 LEU G  67     -20.228  -6.460 -21.347  1.00 64.35 LIG 0.01  C 
ATOM     26  CD1 LEU G  67     -19.034  -5.254 -19.405  1.00 61.82 LIG 0.01  C 
ENDBRANCH 23 24
ENDBRANCH 11 23
ENDBRANCH 9 11
ENDBRANCH 6 7
BRANCH 6 27
ATOM     27  CB  LEU G  66     -23.625  -7.032 -14.209  1.00 68.20 LIG 0.04  C 
BRANCH 27 28
ATOM     28  CG  LEU G  66     -23.937  -6.350 -12.900  1.00 70.51 LIG-0.02  C 
ATOM     29  CD1 LEU G  66     -24.329  -7.271 -11.742  1.00 68.17 LIG 0.01  C 
ATOM     30  CD2 LEU G  66     -22.654  -5.571 -12.609  1.00 69.71 LIG 0.01  C 
ENDBRANCH 27 28
ENDBRANCH 6 27
ENDBRANCH 4 6
ENDBRANCH 1 2
BRANCH 1 31
ATOM     31  CB  PHE G  65     -26.951 -10.586 -17.033  1.00 81.70 LIG 0.07  C 
BRANCH 31 32
ATOM     32  CG  PHE G  65     -27.250 -10.312 -15.558  1.00 88.02 LIG-0.06  A 
ATOM     33  CD1 PHE G  65     -26.220 -10.332 -14.587  1.00 90.65 LIG 0.01  A 
ATOM     34  CE1 PHE G  65     -26.498 -10.031 -13.235  1.00 91.87 LIG 0.00  A 
ATOM     35  CZ  PHE G  65     -27.798  -9.684 -12.838  1.00 92.49 LIG 0.00  A 
ATOM     36  CE2 PHE G  65     -28.813  -9.634 -13.789  1.00 89.30 LIG 0.00  A 
ATOM     37  CD2 PHE G  65     -28.541  -9.936 -15.134  1.00 89.13 LIG 0.01  A 
ENDBRANCH 31 32
ENDBRANCH 1 31
BRANCH 1 38
ATOM     38  N   PHE G  65     -24.423 -10.875 -17.205  1.00 74.58 LIG-0.35  N 
ATOM     39  C   GLN G  64     -23.171 -10.472 -17.495  1.00 72.54 LIG 0.24  C 
ATOM     40 O    GLN G  64     -22.923  -9.396 -18.064  1.00 72.49 LIG-0.27  OA
ATOM     41 H    PHE G  65     -24.620 -11.634 -16.852  1.00 74.58 LIG 0.16  HD
BRANCH 39 42
ATOM     42  CA  GLN G  64     -21.982 -11.354 -17.056  1.00 69.04 LIG 0.18  C 
BRANCH 42 43
ATOM     43  CB  GLN G  64     -21.625 -12.449 -18.066  1.00 71.00 LIG 0.04  C 
BRANCH 43 44
ATOM     44  CG  GLN G  64     -22.206 -12.247 -19.447  1.00 72.96 LIG 0.10  C 
BRANCH 44 45
ATOM     45  CD  GLN G  64     -21.609 -11.077 -20.210  1.00 76.87 LIG 0.21  C 
ATOM     46 OE1  GLN G  64     -20.442 -11.085 -20.635  1.00 74.88 LIG-0.27  OA
ATOM     47  NE2 GLN G  64     -22.433 -10.059 -20.413  1.00 81.47 LIG-0.37  N 
ATOM     48 21HE GLN G  64     -23.236 -10.088 -20.104  1.00 81.47 LIG 0.16  HD
ATOM     49 22HE GLN G  64     -22.166  -9.370 -20.852  1.00 81.47 LIG 0.16  HD
ENDBRANCH 44 45
ENDBRANCH 43 44
ENDBRANCH 42 43
BRANCH 42 50
ATOM     50  N   GLN G  64     -22.107 -11.918 -15.740  1.00 68.17 LIG-0.35  N 
ATOM     51  C   LEU G  63     -22.472 -11.183 -14.684  1.00 67.58 LIG 0.24  C 
ATOM     52 O    LEU G  63     -22.863  -9.995 -14.748  1.00 63.10 LIG-0.27  OA
ATOM     53 H    GLN G  64     -21.929 -12.758 -15.697  1.00 68.17 LIG 0.16  HD
BRANCH 51 54
ATOM     54  CA  LEU G  63     -22.434 -11.910 -13.354  1.00 66.76 LIG 0.18  C 
BRANCH 54 55
ATOM     55  CB  LEU G  63     -22.122 -10.901 -12.235  1.00 69.31 LIG 0.04  C 
BRANCH 55 56
ATOM     56  CG  LEU G  63     -20.889  -9.964 -12.356  1.00 73.12 LIG-0.02  C 
ATOM     57  CD2 LEU G  63     -19.763 -10.220 -11.346  1.00 75.26 LIG 0.01  C 
ATOM     58  CD1 LEU G  63     -21.258  -8.498 -12.303  1.00 70.75 LIG 0.01  C 
ENDBRANCH 55 56
ENDBRANCH 54 55
BRANCH 54 59
ATOM     59  N   LEU G  63     -21.436 -12.964 -13.407  1.00 64.77 LIG-0.35  N 
ATOM     60  C   SER G  62     -21.725 -14.275 -13.572  1.00 63.11 LIG 0.26  C 
ATOM     61 O    SER G  62     -22.874 -14.795 -13.493  1.00 57.72 LIG-0.27  OA
ATOM     62 H    LEU G  63     -20.631 -12.673 -13.323  1.00 64.77 LIG 0.16  HD
BRANCH 60 63
ATOM     63  CA  SER G  62     -20.472 -15.109 -13.875  1.00 64.68 LIG 0.42  C 
ATOM     64  N   SER G  62     -20.748 -16.579 -13.904  1.00 67.72 LIG 0.62  N 
BRANCH 63 65
ATOM     65  CB  SER G  62     -19.770 -14.599 -15.147  1.00 62.74 LIG 0.21  C 
BRANCH 65 66
ATOM     66 OG   SER G  62     -19.007 -13.404 -14.887  1.00 60.63 LIG-0.40  OA
ATOM     67 HG   SER G  62     -18.604 -13.482 -14.154  1.00 60.63 LIG 0.21  HD
ENDBRANCH 65 66
ENDBRANCH 63 65
ENDBRANCH 60 63
ENDBRANCH 54 59
ENDBRANCH 51 54
ENDBRANCH 42 50
ENDBRANCH 39 42
ENDBRANCH 1 38
TORSDOF 28
ENDMDL
MODEL 8
USER: ADFR SOLUTION from run 169
USER: SCORE 19.940122 LL:  -6.868 LR: -13.983 RR:   0.000 FEB:  -5.630
USER: RMSD 5.850415
USER: SEED 168
USER: STATUS no improvement in best in 7 clusters for 5 generations
USER: GENES 30
USER: genes 0 Translation |==|  0.59988 0.55432 0.45453
USER: genes 1 Rotation |==|  0.58209 0.46939 0.84032 0.85567
USER: genes 2 Torsion [N]-CA--C-[N] |==|  0.88690
USER: genes 3 Torsion [C]-N--CA-[C] |==|  0.75167
USER: genes 4 Torsion [N]-CA--C-[N] |==|  0.92040
USER: genes 5 Torsion [C]-N--CA-[C] |==|  0.80567
USER: genes 6 Torsion [N]-CA--C-[N] |==|  0.90659
USER: genes 7 Torsion [C]-N--CA-[CB] |==|  0.40275
USER: genes 8 Torsion [N]-CA--C-[O] |==|  0.31029
USER: genes 9 Torsion [N]-CA--CB-[CG] |==|  0.63371
USER: genes 10 Torsion [CA]-CB--CG-[OD2] |==|  0.08027
USER: genes 11 Torsion [N]-CA--CB-[CG] |==|  0.63307
USER: genes 12 Torsion [CA]-CB--CG-[CD2] |==|  0.13273
USER: genes 13 Torsion [N]-CA--CB-[CG] |==|  0.59169
USER: genes 14 Torsion [CA]-CB--CG-[CD1] |==|  0.39243
USER: genes 15 Torsion [C]-CA--CB-[CG] |==|  0.45654
USER: genes 16 Torsion [CA]-CB--CG-[CD1] |==|  0.94857
USER: genes 17 Torsion [C]-CA--N-[C] |==|  0.83769
USER: genes 18 Torsion [N]-C--CA-[N] |==|  0.88729
USER: genes 19 Torsion [C]-CA--CB-[CG] |==|  0.02739
USER: genes 20 Torsion [CA]-CB--CG-[CD] |==|  0.26247
USER: genes 21 Torsion [CB]-CG--CD-[NE2] |==|  0.39410
USER: genes 22 Torsion [C]-CA--N-[C] |==|  0.83912
USER: genes 23 Torsion [N]-C--CA-[N] |==|  0.62277
USER: genes 24 Torsion [C]-CA--CB-[CG] |==|  0.23898
USER: genes 25 Torsion [CA]-CB--CG-[CD2] |==|  0.02420
USER: genes 26 Torsion [C]-CA--N-[C] |==|  0.14707
USER: genes 27 Torsion [N]-C--CA-[N] |==|  0.15139
USER: genes 28 Torsion [C]-CA--CB-[OG] |==|  0.26154
USER: genes 29 Torsion [CA]-CB--OG-[HG] |==|  0.22282
ROOT
ATOM      1  CA  PHE G  65     -22.392  -8.686 -18.417  1.00 79.88 LIG 0.18  C 
ENDROOT
BRANCH 1 2
ATOM      2  C   PHE G  65     -23.188 -10.022 -18.592  1.00 81.88 LIG 0.24  C 
ATOM      3 O    PHE G  65     -23.616 -10.386 -19.705  1.00 83.91 LIG-0.27  OA
ATOM      4  N   LEU G  66     -23.344 -10.768 -17.510  1.00 80.12 LIG-0.35  N 
ATOM      5 H    LEU G  66     -23.029 -10.560 -16.738  1.00 80.12 LIG 0.16  HD
BRANCH 4 6
ATOM      6  CA  LEU G  66     -24.084 -12.037 -17.537  1.00 73.95 LIG 0.18  C 
BRANCH 6 7
ATOM      7  C   LEU G  66     -25.587 -11.805 -17.251  1.00 70.37 LIG 0.24  C 
ATOM      8 O    LEU G  66     -26.466 -12.563 -17.713  1.00 65.91 LIG-0.27  OA
ATOM      9  N   LEU G  67     -25.872 -10.747 -16.484  1.00 70.17 LIG-0.35  N 
ATOM     10 H    LEU G  67     -25.273 -10.264 -16.098  1.00 70.17 LIG 0.16  HD
BRANCH 9 11
ATOM     11  CA  LEU G  67     -27.243 -10.315 -16.230  1.00 68.48 LIG 0.18  C 
BRANCH 11 12
ATOM     12  C   LEU G  67     -27.841  -9.727 -17.517  1.00 69.74 LIG 0.24  C 
ATOM     13  N   ASP G  68     -26.991  -9.071 -18.331  1.00 68.02 LIG-0.35  N 
ATOM     14 H    ASP G  68     -26.266  -8.704 -18.049  1.00 68.02 LIG 0.16  HD
ATOM     15 O    LEU G  67     -29.034  -9.923 -17.761  1.00 68.13 LIG-0.27  OA
BRANCH 13 16
ATOM     16  CA  ASP G  68     -27.203  -8.906 -19.797  1.00 74.55 LIG 0.17  C 
BRANCH 16 17
ATOM     17  C   ASP G  68     -26.388 -10.031 -20.509  1.00 77.35 LIG 0.22  C 
ATOM     18 O    ASP G  68     -26.912 -10.972 -21.114  1.00 79.38 LIG-0.29  OA
ENDBRANCH 16 17
BRANCH 16 19
ATOM     19  CB  ASP G  68     -26.689  -7.544 -20.300  1.00 74.32 LIG 0.15  C 
BRANCH 19 20
ATOM     20  CG  ASP G  68     -27.709  -6.785 -21.204  1.00 79.04 LIG 0.17  C 
ATOM     21 OD1  ASP G  68     -27.265  -5.994 -22.099  1.00 79.61 LIG-0.65  OA
ATOM     22 OD2  ASP G  68     -28.946  -6.968 -21.038  1.00 79.33 LIG-0.65  OA
ENDBRANCH 19 20
ENDBRANCH 16 19
ENDBRANCH 13 16
ENDBRANCH 11 12
BRANCH 11 23
ATOM     23  CB  LEU G  67     -27.331  -9.360 -15.043  1.00 63.56 LIG 0.04  C 
BRANCH 23 24
ATOM     24  CG  LEU G  67     -28.459  -9.802 -14.101  1.00 66.22 LIG-0.02  C 
ATOM     25  CD2 LEU G  67     -28.387 -11.303 -13.800  1.00 64.35 LIG 0.01  C 
ATOM     26  CD1 LEU G  67     -29.871  -9.347 -14.593  1.00 61.82 LIG 0.01  C 
ENDBRANCH 23 24
ENDBRANCH 11 23
ENDBRANCH 9 11
ENDBRANCH 6 7
BRANCH 6 27
ATOM     27  CB  LEU G  66     -23.485 -12.944 -16.479  1.00 68.20 LIG 0.04  C 
BRANCH 27 28
ATOM     28  CG  LEU G  66     -23.406 -14.444 -16.617  1.00 70.51 LIG-0.02  C 
ATOM     29  CD1 LEU G  66     -22.127 -15.099 -16.090  1.00 68.17 LIG 0.01  C 
ATOM     30  CD2 LEU G  66     -24.650 -14.920 -15.868  1.00 69.71 LIG 0.01  C 
ENDBRANCH 27 28
ENDBRANCH 6 27
ENDBRANCH 4 6
ENDBRANCH 1 2
BRANCH 1 31
ATOM     31  CB  PHE G  65     -20.887  -8.938 -18.672  1.00 81.70 LIG 0.07  C 
BRANCH 31 32
ATOM     32  CG  PHE G  65     -20.099  -7.646 -18.897  1.00 88.02 LIG-0.06  A 
ATOM     33  CD1 PHE G  65     -20.755  -6.441 -19.247  1.00 90.65 LIG 0.01  A 
ATOM     34  CE1 PHE G  65     -20.025  -5.243 -19.406  1.00 91.87 LIG 0.00  A 
ATOM     35  CZ  PHE G  65     -18.637  -5.224 -19.196  1.00 92.49 LIG 0.00  A 
ATOM     36  CE2 PHE G  65     -17.986  -6.397 -18.825  1.00 89.30 LIG 0.00  A 
ATOM     37  CD2 PHE G  65     -18.709  -7.591 -18.669  1.00 89.13 LIG 0.01  A 
ENDBRANCH 31 32
ENDBRANCH 1 31
BRANCH 1 38
ATOM     38  N   PHE G  65     -22.671  -7.901 -17.174  1.00 74.58 LIG-0.35  N 
ATOM     39  C   GLN G  64     -23.917  -7.470 -16.896  1.00 72.54 LIG 0.24  C 
ATOM     40 O    GLN G  64     -24.877  -7.636 -17.667  1.00 72.49 LIG-0.27  OA
ATOM     41 H    PHE G  65     -21.985  -7.757 -16.676  1.00 74.58 LIG 0.16  HD
BRANCH 39 42
ATOM     42  CA  GLN G  64     -24.185  -6.785 -15.538  1.00 69.04 LIG 0.18  C 
BRANCH 42 43
ATOM     43  CB  GLN G  64     -23.923  -5.276 -15.550  1.00 71.00 LIG 0.04  C 
BRANCH 43 44
ATOM     44  CG  GLN G  64     -23.681  -4.689 -16.922  1.00 72.96 LIG 0.10  C 
BRANCH 44 45
ATOM     45  CD  GLN G  64     -24.923  -4.114 -17.581  1.00 76.87 LIG 0.21  C 
ATOM     46 OE1  GLN G  64     -26.044  -4.635 -17.461  1.00 74.88 LIG-0.27  OA
ATOM     47  NE2 GLN G  64     -24.727  -3.000 -18.273  1.00 81.47 LIG-0.37  N 
ATOM     48 21HE GLN G  64     -23.937  -2.666 -18.335  1.00 81.47 LIG 0.16  HD
ATOM     49 22HE GLN G  64     -25.390  -2.611 -18.659  1.00 81.47 LIG 0.16  HD
ENDBRANCH 44 45
ENDBRANCH 43 44
ENDBRANCH 42 43
BRANCH 42 50
ATOM     50  N   GLN G  64     -23.519  -7.394 -14.419  1.00 68.17 LIG-0.35  N 
ATOM     51  C   LEU G  63     -23.706  -8.676 -14.093  1.00 67.58 LIG 0.24  C 
ATOM     52 O    LEU G  63     -24.352  -9.497 -14.784  1.00 63.10 LIG-0.27  OA
ATOM     53 H    GLN G  64     -22.999  -6.862 -13.986  1.00 68.17 LIG 0.16  HD
BRANCH 51 54
ATOM     54  CA  LEU G  63     -23.022  -9.119 -12.813  1.00 66.76 LIG 0.18  C 
BRANCH 54 55
ATOM     55  CB  LEU G  63     -21.999  -8.050 -12.391  1.00 69.31 LIG 0.04  C 
BRANCH 55 56
ATOM     56  CG  LEU G  63     -22.454  -6.838 -11.531  1.00 73.12 LIG-0.02  C 
ATOM     57  CD2 LEU G  63     -23.886  -6.913 -10.988  1.00 75.26 LIG 0.01  C 
ATOM     58  CD1 LEU G  63     -22.279  -5.515 -12.244  1.00 70.75 LIG 0.01  C 
ENDBRANCH 55 56
ENDBRANCH 54 55
BRANCH 54 59
ATOM     59  N   LEU G  63     -22.383 -10.405 -13.026  1.00 64.77 LIG-0.35  N 
ATOM     60  C   SER G  62     -21.519 -10.666 -14.032  1.00 63.11 LIG 0.26  C 
ATOM     61 O    SER G  62     -21.303  -9.925 -15.034  1.00 57.72 LIG-0.27  OA
ATOM     62 H    LEU G  63     -22.609 -10.996 -12.443  1.00 64.77 LIG 0.16  HD
BRANCH 60 63
ATOM     63  CA  SER G  62     -20.792 -12.004 -13.839  1.00 64.68 LIG 0.42  C 
ATOM     64  N   SER G  62     -21.732 -13.152 -13.647  1.00 67.72 LIG 0.62  N 
BRANCH 63 65
ATOM     65  CB  SER G  62     -19.770 -12.239 -14.968  1.00 62.74 LIG 0.21  C 
BRANCH 65 66
ATOM     66 OG   SER G  62     -18.453 -11.790 -14.591  1.00 60.63 LIG-0.40  OA
ATOM     67 HG   SER G  62     -18.086 -12.370 -14.107  1.00 60.63 LIG 0.21  HD
ENDBRANCH 65 66
ENDBRANCH 63 65
ENDBRANCH 60 63
ENDBRANCH 54 59
ENDBRANCH 51 54
ENDBRANCH 42 50
ENDBRANCH 39 42
ENDBRANCH 1 38
TORSDOF 28
ENDMDL
MODEL 9
USER: ADFR SOLUTION from run 65
USER: SCORE 20.084567 LL:  -6.563 LR: -13.894 RR:   0.000 FEB:  -5.542
USER: RMSD 3.369727
USER: SEED 64
USER: STATUS searching
USER: GENES 30
USER: genes 0 Translation |==|  0.50433 0.37688 0.45836
USER: genes 1 Rotation |==|  0.50369 0.50542 0.48713 0.99979
USER: genes 2 Torsion [N]-CA--C-[N] |==|  0.93478
USER: genes 3 Torsion [C]-N--CA-[C] |==|  0.78604
USER: genes 4 Torsion [N]-CA--C-[N] |==|  0.86144
USER: genes 5 Torsion [C]-N--CA-[C] |==|  0.81605
USER: genes 6 Torsion [N]-CA--C-[N] |==|  0.43131
USER: genes 7 Torsion [C]-N--CA-[CB] |==|  0.21796
USER: genes 8 Torsion [N]-CA--C-[O] |==|  0.97026
USER: genes 9 Torsion [N]-CA--CB-[CG] |==|  0.15974
USER: genes 10 Torsion [CA]-CB--CG-[OD2] |==|  0.77796
USER: genes 11 Torsion [N]-CA--CB-[CG] |==|  0.55818
USER: genes 12 Torsion [CA]-CB--CG-[CD2] |==|  0.49476
USER: genes 13 Torsion [N]-CA--CB-[CG] |==|  0.66651
USER: genes 14 Torsion [CA]-CB--CG-[CD1] |==|  0.49756
USER: genes 15 Torsion [C]-CA--CB-[CG] |==|  0.53533
USER: genes 16 Torsion [CA]-CB--CG-[CD1] |==|  0.89995
USER: genes 17 Torsion [C]-CA--N-[C] |==|  0.83191
USER: genes 18 Torsion [N]-C--CA-[N] |==|  0.91075
USER: genes 19 Torsion [C]-CA--CB-[CG] |==|  0.58201
USER: genes 20 Torsion [CA]-CB--CG-[CD] |==|  0.25554
USER: genes 21 Torsion [CB]-CG--CD-[NE2] |==|  0.53831
USER: genes 22 Torsion [C]-CA--N-[C] |==|  0.83056
USER: genes 23 Torsion [N]-C--CA-[N] |==|  0.87849
USER: genes 24 Torsion [C]-CA--CB-[CG] |==|  0.21121
USER: genes 25 Torsion [CA]-CB--CG-[CD2] |==|  0.04240
USER: genes 26 Torsion [C]-CA--N-[C] |==|  0.83153
USER: genes 27 Torsion [N]-C--CA-[N] |==|  0.88711
USER: genes 28 Torsion [C]-CA--CB-[OG] |==|  0.29770
USER: genes 29 Torsion [CA]-CB--OG-[HG] |==|  0.34915
ROOT
ATOM      1  CA  PHE G  65     -24.184 -12.146 -18.342  1.00 79.88 LIG 0.18  C 
ENDROOT
BRANCH 1 2
ATOM      2  C   PHE G  65     -25.515 -11.345 -18.151  1.00 81.88 LIG 0.24  C 
ATOM      3 O    PHE G  65     -26.391 -11.312 -19.037  1.00 83.91 LIG-0.27  OA
ATOM      4  N   LEU G  66     -25.683 -10.741 -16.986  1.00 80.12 LIG-0.35  N 
ATOM      5 H    LEU G  66     -25.113 -10.776 -16.343  1.00 80.12 LIG 0.16  HD
BRANCH 4 6
ATOM      6  CA  LEU G  66     -26.881  -9.944 -16.685  1.00 73.95 LIG 0.18  C 
BRANCH 6 7
ATOM      7  C   LEU G  66     -26.808  -8.559 -17.372  1.00 70.37 LIG 0.24  C 
ATOM      8 O    LEU G  66     -27.757  -8.116 -18.053  1.00 65.91 LIG-0.27  OA
ATOM      9  N   LEU G  67     -25.671  -7.882 -17.184  1.00 70.17 LIG-0.35  N 
ATOM     10 H    LEU G  67     -25.043  -8.142 -16.656  1.00 70.17 LIG 0.16  HD
BRANCH 9 11
ATOM     11  CA  LEU G  67     -25.392  -6.622 -17.869  1.00 68.48 LIG 0.18  C 
BRANCH 11 12
ATOM     12  C   LEU G  67     -25.249  -6.880 -19.376  1.00 69.74 LIG 0.24  C 
ATOM     13  N   ASP G  68     -25.502  -5.839 -20.192  1.00 68.02 LIG-0.35  N 
ATOM     14 H    ASP G  68     -26.013  -5.185 -19.968  1.00 68.02 LIG 0.16  HD
ATOM     15 O    LEU G  67     -24.871  -7.991 -19.755  1.00 68.13 LIG-0.27  OA
BRANCH 13 16
ATOM     16  CA  ASP G  68     -24.934  -5.698 -21.563  1.00 74.55 LIG 0.17  C 
BRANCH 16 17
ATOM     17  C   ASP G  68     -25.103  -4.203 -21.980  1.00 77.35 LIG 0.22  C 
ATOM     18 O    ASP G  68     -25.786  -3.393 -21.346  1.00 79.38 LIG-0.29  OA
ENDBRANCH 16 17
BRANCH 16 19
ATOM     19  CB  ASP G  68     -25.681  -6.574 -22.585  1.00 74.32 LIG 0.15  C 
BRANCH 19 20
ATOM     20  CG  ASP G  68     -27.211  -6.274 -22.666  1.00 79.04 LIG 0.17  C 
ATOM     21 OD1  ASP G  68     -27.644  -5.548 -23.620  1.00 79.61 LIG-0.65  OA
ATOM     22 OD2  ASP G  68     -27.987  -6.757 -21.797  1.00 79.33 LIG-0.65  OA
ENDBRANCH 19 20
ENDBRANCH 16 19
ENDBRANCH 13 16
ENDBRANCH 11 12
BRANCH 11 23
ATOM     23  CB  LEU G  67     -24.187  -5.901 -17.272  1.00 63.56 LIG 0.04  C 
BRANCH 23 24
ATOM     24  CG  LEU G  67     -24.239  -4.411 -17.633  1.00 66.22 LIG-0.02  C 
ATOM     25  CD2 LEU G  67     -23.070  -3.639 -17.013  1.00 64.35 LIG 0.01  C 
ATOM     26  CD1 LEU G  67     -25.627  -3.762 -17.327  1.00 61.82 LIG 0.01  C 
ENDBRANCH 23 24
ENDBRANCH 11 23
ENDBRANCH 9 11
ENDBRANCH 6 7
BRANCH 6 27
ATOM     27  CB  LEU G  66     -26.960  -9.778 -15.180  1.00 68.20 LIG 0.04  C 
BRANCH 27 28
ATOM     28  CG  LEU G  66     -28.123 -10.264 -14.350  1.00 70.51 LIG-0.02  C 
ATOM     29  CD1 LEU G  66     -28.014 -10.025 -12.842  1.00 68.17 LIG 0.01  C 
ATOM     30  CD2 LEU G  66     -29.311  -9.528 -14.967  1.00 69.71 LIG 0.01  C 
ENDBRANCH 27 28
ENDBRANCH 6 27
ENDBRANCH 4 6
ENDBRANCH 1 2
BRANCH 1 31
ATOM     31  CB  PHE G  65     -24.481 -13.664 -18.314  1.00 81.70 LIG 0.07  C 
BRANCH 31 32
ATOM     32  CG  PHE G  65     -23.215 -14.514 -18.183  1.00 88.02 LIG-0.06  A 
ATOM     33  CD1 PHE G  65     -22.008 -14.129 -18.814  1.00 90.65 LIG 0.01  A 
ATOM     34  CE1 PHE G  65     -20.832 -14.894 -18.647  1.00 91.87 LIG 0.00  A 
ATOM     35  CZ  PHE G  65     -20.839 -16.038 -17.834  1.00 92.49 LIG 0.00  A 
ATOM     36  CE2 PHE G  65     -22.013 -16.410 -17.186  1.00 89.30 LIG 0.00  A 
ATOM     37  CD2 PHE G  65     -23.185 -15.652 -17.352  1.00 89.13 LIG 0.01  A 
ENDBRANCH 31 32
ENDBRANCH 1 31
BRANCH 1 38
ATOM     38  N   PHE G  65     -23.030 -11.739 -17.481  1.00 74.58 LIG-0.35  N 
ATOM     39  C   GLN G  64     -22.526 -10.491 -17.548  1.00 72.54 LIG 0.24  C 
ATOM     40 O    GLN G  64     -22.934  -9.640 -18.355  1.00 72.49 LIG-0.27  OA
ATOM     41 H    PHE G  65     -22.733 -12.356 -16.961  1.00 74.58 LIG 0.16  HD
BRANCH 39 42
ATOM     42  CA  GLN G  64     -21.429 -10.075 -16.544  1.00 69.04 LIG 0.18  C 
BRANCH 42 43
ATOM     43  CB  GLN G  64     -20.007 -10.227 -17.092  1.00 71.00 LIG 0.04  C 
BRANCH 43 44
ATOM     44  CG  GLN G  64     -18.956 -10.519 -16.045  1.00 72.96 LIG 0.10  C 
BRANCH 44 45
ATOM     45  CD  GLN G  64     -18.698 -11.999 -15.817  1.00 76.87 LIG 0.21  C 
ATOM     46 OE1  GLN G  64     -19.087 -12.873 -16.608  1.00 74.88 LIG-0.27  OA
ATOM     47  NE2 GLN G  64     -18.005 -12.286 -14.723  1.00 81.47 LIG-0.37  N 
ATOM     48 21HE GLN G  64     -17.752 -11.655 -14.197  1.00 81.47 LIG 0.16  HD
ATOM     49 22HE GLN G  64     -17.809 -13.103 -14.541  1.00 81.47 LIG 0.16  HD
ENDBRANCH 44 45
ENDBRANCH 43 44
ENDBRANCH 42 43
BRANCH 42 50
ATOM     50  N   GLN G  64     -21.530 -10.698 -15.252  1.00 68.17 LIG-0.35  N 
ATOM     51  C   LEU G  63     -22.598 -10.533 -14.465  1.00 67.58 LIG 0.24  C 
ATOM     52 O    LEU G  63     -23.650  -9.948 -14.811  1.00 63.10 LIG-0.27  OA
ATOM     53 H    GLN G  64     -20.850 -11.179 -15.039  1.00 68.17 LIG 0.16  HD
BRANCH 51 54
ATOM     54  CA  LEU G  63     -22.483 -11.160 -13.090  1.00 66.76 LIG 0.18  C 
BRANCH 54 55
ATOM     55  CB  LEU G  63     -21.617 -10.259 -12.193  1.00 69.31 LIG 0.04  C 
BRANCH 55 56
ATOM     56  CG  LEU G  63     -22.211  -8.950 -11.603  1.00 73.12 LIG-0.02  C 
ATOM     57  CD2 LEU G  63     -23.739  -8.832 -11.665  1.00 75.26 LIG 0.01  C 
ATOM     58  CD1 LEU G  63     -21.607  -7.705 -12.214  1.00 70.75 LIG 0.01  C 
ENDBRANCH 55 56
ENDBRANCH 54 55
BRANCH 54 59
ATOM     59  N   LEU G  63     -21.912 -12.490 -13.211  1.00 64.77 LIG-0.35  N 
ATOM     60  C   SER G  62     -22.476 -13.497 -13.915  1.00 63.11 LIG 0.26  C 
ATOM     61 O    SER G  62     -23.650 -13.505 -14.383  1.00 57.72 LIG-0.27  OA
ATOM     62 H    LEU G  63     -21.169 -12.580 -12.787  1.00 64.77 LIG 0.16  HD
BRANCH 60 63
ATOM     63  CA  SER G  62     -21.518 -14.681 -14.101  1.00 64.68 LIG 0.42  C 
ATOM     64  N   SER G  62     -20.116 -14.252 -14.397  1.00 67.72 LIG 0.62  N 
BRANCH 63 65
ATOM     65  CB  SER G  62     -21.615 -15.655 -12.912  1.00 62.74 LIG 0.21  C 
BRANCH 65 66
ATOM     66 OG   SER G  62     -22.296 -16.872 -13.279  1.00 60.63 LIG-0.40  OA
ATOM     67 HG   SER G  62     -21.813 -17.533 -13.090  1.00 60.63 LIG 0.21  HD
ENDBRANCH 65 66
ENDBRANCH 63 65
ENDBRANCH 60 63
ENDBRANCH 54 59
ENDBRANCH 51 54
ENDBRANCH 42 50
ENDBRANCH 39 42
ENDBRANCH 1 38
TORSDOF 28
ENDMDL
MODEL 10
USER: ADFR SOLUTION from run 133
USER: SCORE 21.232764 LL:  -7.556 LR: -13.828 RR:   0.000 FEB:  -5.476
USER: RMSD 4.615382
USER: SEED 132
USER: STATUS no improvement in best in 3 clusters for 5 generations
USER: GENES 30
USER: genes 0 Translation |==|  0.47462 0.46547 0.48976
USER: genes 1 Rotation |==|  0.41237 0.51501 0.29274 0.94625
USER: genes 2 Torsion [N]-CA--C-[N] |==|  0.89370
USER: genes 3 Torsion [C]-N--CA-[C] |==|  0.81113
USER: genes 4 Torsion [N]-CA--C-[N] |==|  0.93184
USER: genes 5 Torsion [C]-N--CA-[C] |==|  0.82309
USER: genes 6 Torsion [N]-CA--C-[N] |==|  0.93883
USER: genes 7 Torsion [C]-N--CA-[CB] |==|  0.91348
USER: genes 8 Torsion [N]-CA--C-[O] |==|  0.12411
USER: genes 9 Torsion [N]-CA--CB-[CG] |==|  0.60796
USER: genes 10 Torsion [CA]-CB--CG-[OD2] |==|  0.02709
USER: genes 11 Torsion [N]-CA--CB-[CG] |==|  0.53624
USER: genes 12 Torsion [CA]-CB--CG-[CD2] |==|  0.57149
USER: genes 13 Torsion [N]-CA--CB-[CG] |==|  0.24865
USER: genes 14 Torsion [CA]-CB--CG-[CD1] |==|  0.22557
USER: genes 15 Torsion [C]-CA--CB-[CG] |==|  0.82069
USER: genes 16 Torsion [CA]-CB--CG-[CD1] |==|  0.87312
USER: genes 17 Torsion [C]-CA--N-[C] |==|  0.85000
USER: genes 18 Torsion [N]-C--CA-[N] |==|  0.96664
USER: genes 19 Torsion [C]-CA--CB-[CG] |==|  0.41492
USER: genes 20 Torsion [CA]-CB--CG-[CD] |==|  0.18685
USER: genes 21 Torsion [CB]-CG--CD-[NE2] |==|  0.26883
USER: genes 22 Torsion [C]-CA--N-[C] |==|  0.82703
USER: genes 23 Torsion [N]-C--CA-[N] |==|  0.97012
USER: genes 24 Torsion [C]-CA--CB-[CG] |==|  0.18619
USER: genes 25 Torsion [CA]-CB--CG-[CD2] |==|  0.07420
USER: genes 26 Torsion [C]-CA--N-[C] |==|  0.78628
USER: genes 27 Torsion [N]-C--CA-[N] |==|  0.43674
USER: genes 28 Torsion [C]-CA--CB-[OG] |==|  0.32716
USER: genes 29 Torsion [CA]-CB--OG-[HG] |==|  0.85805
ROOT
ATOM      1  CA  PHE G  65     -24.741 -10.418 -17.730  1.00 79.88 LIG 0.18  C 
ENDROOT
BRANCH 1 2
ATOM      2  C   PHE G  65     -25.075  -8.907 -17.963  1.00 81.88 LIG 0.24  C 
ATOM      3 O    PHE G  65     -25.602  -8.510 -19.021  1.00 83.91 LIG-0.27  OA
ATOM      4  N   LEU G  66     -24.812  -8.079 -16.964  1.00 80.12 LIG-0.35  N 
ATOM      5 H    LEU G  66     -24.483  -8.330 -16.211  1.00 80.12 LIG 0.16  HD
BRANCH 4 6
ATOM      6  CA  LEU G  66     -25.065  -6.634 -17.061  1.00 73.95 LIG 0.18  C 
BRANCH 6 7
ATOM      7  C   LEU G  66     -24.106  -5.975 -18.081  1.00 70.37 LIG 0.24  C 
ATOM      8 O    LEU G  66     -24.400  -4.907 -18.660  1.00 65.91 LIG-0.27  OA
ATOM      9  N   LEU G  67     -22.956  -6.623 -18.294  1.00 70.17 LIG-0.35  N 
ATOM     10 H    LEU G  67     -22.710  -7.315 -17.847  1.00 70.17 LIG 0.16  HD
BRANCH 9 11
ATOM     11  CA  LEU G  67     -22.004  -6.204 -19.319  1.00 68.48 LIG 0.18  C 
BRANCH 11 12
ATOM     12  C   LEU G  67     -22.651  -6.341 -20.705  1.00 69.74 LIG 0.24  C 
ATOM     13  N   ASP G  68     -23.690  -7.194 -20.803  1.00 68.02 LIG-0.35  N 
ATOM     14 H    ASP G  68     -23.799  -7.858 -20.267  1.00 68.02 LIG 0.16  HD
ATOM     15 O    LEU G  67     -22.229  -5.643 -21.630  1.00 68.13 LIG-0.27  OA
BRANCH 13 16
ATOM     16  CA  ASP G  68     -24.758  -7.089 -21.837  1.00 74.55 LIG 0.17  C 
BRANCH 16 17
ATOM     17  C   ASP G  68     -24.260  -7.870 -23.093  1.00 77.35 LIG 0.22  C 
ATOM     18 O    ASP G  68     -23.726  -8.982 -23.037  1.00 79.38 LIG-0.29  OA
ENDBRANCH 16 17
BRANCH 16 19
ATOM     19  CB  ASP G  68     -25.018  -5.628 -22.246  1.00 74.32 LIG 0.15  C 
BRANCH 19 20
ATOM     20  CG  ASP G  68     -26.526  -5.301 -22.480  1.00 79.04 LIG 0.17  C 
ATOM     21 OD1  ASP G  68     -26.837  -4.183 -23.007  1.00 79.61 LIG-0.65  OA
ATOM     22 OD2  ASP G  68     -27.404  -6.146 -22.152  1.00 79.33 LIG-0.65  OA
ENDBRANCH 19 20
ENDBRANCH 16 19
ENDBRANCH 13 16
ENDBRANCH 11 12
BRANCH 11 23
ATOM     23  CB  LEU G  67     -20.677  -6.949 -19.205  1.00 63.56 LIG 0.04  C 
BRANCH 23 24
ATOM     24  CG  LEU G  67     -19.616  -6.260 -20.074  1.00 66.22 LIG-0.02  C 
ATOM     25  CD2 LEU G  67     -18.520  -7.238 -20.508  1.00 64.35 LIG 0.01  C 
ATOM     26  CD1 LEU G  67     -19.047  -4.961 -19.417  1.00 61.82 LIG 0.01  C 
ENDBRANCH 23 24
ENDBRANCH 11 23
ENDBRANCH 9 11
ENDBRANCH 6 7
BRANCH 6 27
ATOM     27  CB  LEU G  66     -24.856  -6.036 -15.684  1.00 68.20 LIG 0.04  C 
BRANCH 27 28
ATOM     28  CG  LEU G  66     -23.524  -5.523 -15.193  1.00 70.51 LIG-0.02  C 
ATOM     29  CD1 LEU G  66     -23.140  -4.114 -15.651  1.00 68.17 LIG 0.01  C 
ATOM     30  CD2 LEU G  66     -23.662  -5.619 -13.674  1.00 69.71 LIG 0.01  C 
ENDBRANCH 27 28
ENDBRANCH 6 27
ENDBRANCH 4 6
ENDBRANCH 1 2
BRANCH 1 31
ATOM     31  CB  PHE G  65     -25.992 -11.152 -17.190  1.00 81.70 LIG 0.07  C 
BRANCH 31 32
ATOM     32  CG  PHE G  65     -26.425 -10.651 -15.811  1.00 88.02 LIG-0.06  A 
ATOM     33  CD1 PHE G  65     -25.481 -10.452 -14.776  1.00 90.65 LIG 0.01  A 
ATOM     34  CE1 PHE G  65     -25.883  -9.943 -13.521  1.00 91.87 LIG 0.00  A 
ATOM     35  CZ  PHE G  65     -27.226  -9.606 -13.290  1.00 92.49 LIG 0.00  A 
ATOM     36  CE2 PHE G  65     -28.158  -9.772 -14.309  1.00 89.30 LIG 0.00  A 
ATOM     37  CD2 PHE G  65     -27.761 -10.280 -15.558  1.00 89.13 LIG 0.01  A 
ENDBRANCH 31 32
ENDBRANCH 1 31
BRANCH 1 38
ATOM     38  N   PHE G  65     -23.490 -10.715 -16.966  1.00 74.58 LIG-0.35  N 
ATOM     39  C   GLN G  64     -22.306 -10.202 -17.354  1.00 72.54 LIG 0.24  C 
ATOM     40 O    GLN G  64     -22.171  -9.520 -18.383  1.00 72.49 LIG-0.27  OA
ATOM     41 H    PHE G  65     -23.597 -11.226 -16.282  1.00 74.58 LIG 0.16  HD
BRANCH 39 42
ATOM     42  CA  GLN G  64     -21.067 -10.421 -16.458  1.00 69.04 LIG 0.18  C 
BRANCH 42 43
ATOM     43  CB  GLN G  64     -19.973 -11.263 -17.120  1.00 71.00 LIG 0.04  C 
BRANCH 43 44
ATOM     44  CG  GLN G  64     -18.566 -10.926 -16.680  1.00 72.96 LIG 0.10  C 
BRANCH 44 45
ATOM     45  CD  GLN G  64     -18.268 -11.267 -15.230  1.00 76.87 LIG 0.21  C 
ATOM     46 OE1  GLN G  64     -18.590 -10.522 -14.290  1.00 74.88 LIG-0.27  OA
ATOM     47  NE2 GLN G  64     -17.662 -12.431 -15.039  1.00 81.47 LIG-0.37  N 
ATOM     48 21HE GLN G  64     -17.454 -12.923 -15.714  1.00 81.47 LIG 0.16  HD
ATOM     49 22HE GLN G  64     -17.479 -12.695 -14.242  1.00 81.47 LIG 0.16  HD
ENDBRANCH 44 45
ENDBRANCH 43 44
ENDBRANCH 42 43
BRANCH 42 50
ATOM     50  N   GLN G  64     -21.359 -10.932 -15.146  1.00 68.17 LIG-0.35  N 
ATOM     51  C   LEU G  63     -22.101 -10.251 -14.268  1.00 67.58 LIG 0.24  C 
ATOM     52 O    LEU G  63     -22.717  -9.193 -14.529  1.00 63.10 LIG-0.27  OA
ATOM     53 H    GLN G  64     -21.016 -11.703 -14.984  1.00 68.17 LIG 0.16  HD
BRANCH 51 54
ATOM     54  CA  LEU G  63     -22.205 -10.882 -12.892  1.00 66.76 LIG 0.18  C 
BRANCH 54 55
ATOM     55  CB  LEU G  63     -21.449 -10.007 -11.877  1.00 69.31 LIG 0.04  C 
BRANCH 55 56
ATOM     56  CG  LEU G  63     -21.976  -8.587 -11.532  1.00 73.12 LIG-0.02  C 
ATOM     57  CD2 LEU G  63     -23.486  -8.382 -11.707  1.00 75.26 LIG 0.01  C 
ATOM     58  CD1 LEU G  63     -21.252  -7.493 -12.286  1.00 70.75 LIG 0.01  C 
ENDBRANCH 55 56
ENDBRANCH 54 55
BRANCH 54 59
ATOM     59  N   LEU G  63     -21.663 -12.228 -12.935  1.00 64.77 LIG-0.35  N 
ATOM     60  C   SER G  62     -22.316 -13.292 -13.456  1.00 63.11 LIG 0.26  C 
ATOM     61 O    SER G  62     -23.537 -13.325 -13.780  1.00 57.72 LIG-0.27  OA
ATOM     62 H    LEU G  63     -20.876 -12.288 -12.594  1.00 64.77 LIG 0.16  HD
BRANCH 60 63
ATOM     63  CA  SER G  62     -21.396 -14.510 -13.624  1.00 64.68 LIG 0.42  C 
ATOM     64  N   SER G  62     -22.147 -15.803 -13.668  1.00 67.72 LIG 0.62  N 
BRANCH 63 65
ATOM     65  CB  SER G  62     -20.448 -14.318 -14.823  1.00 62.74 LIG 0.21  C 
BRANCH 65 66
ATOM     66 OG   SER G  62     -19.067 -14.305 -14.409  1.00 60.63 LIG-0.40  OA
ATOM     67 HG   SER G  62     -18.967 -13.756 -13.781  1.00 60.63 LIG 0.21  HD
ENDBRANCH 65 66
ENDBRANCH 63 65
ENDBRANCH 60 63
ENDBRANCH 54 59
ENDBRANCH 51 54
ENDBRANCH 42 50
ENDBRANCH 39 42
ENDBRANCH 1 38
TORSDOF 28
ENDMDL
MODEL 11
USER: ADFR SOLUTION from run 87
USER: SCORE 20.121155 LL:  -7.160 LR: -13.722 RR:   0.000 FEB:  -5.370
USER: RMSD 4.607796
USER: SEED 86
USER: STATUS no improvement in best in 6 clusters for 5 generations
USER: GENES 30
USER: genes 0 Translation |==|  0.50423 0.49694 0.46816
USER: genes 1 Rotation |==|  0.52848 0.48958 0.72662 0.94466
USER: genes 2 Torsion [N]-CA--C-[N] |==|  0.93926
USER: genes 3 Torsion [C]-N--CA-[C] |==|  0.80912
USER: genes 4 Torsion [N]-CA--C-[N] |==|  0.95759
USER: genes 5 Torsion [C]-N--CA-[C] |==|  0.61389
USER: genes 6 Torsion [N]-CA--C-[N] |==|  0.03418
USER: genes 7 Torsion [C]-N--CA-[CB] |==|  0.22345
USER: genes 8 Torsion [N]-CA--C-[O] |==|  0.54558
USER: genes 9 Torsion [N]-CA--CB-[CG] |==|  0.76063
USER: genes 10 Torsion [CA]-CB--CG-[OD2] |==|  0.93353
USER: genes 11 Torsion [N]-CA--CB-[CG] |==|  0.68398
USER: genes 12 Torsion [CA]-CB--CG-[CD2] |==|  0.65288
USER: genes 13 Torsion [N]-CA--CB-[CG] |==|  0.22683
USER: genes 14 Torsion [CA]-CB--CG-[CD1] |==|  0.22934
USER: genes 15 Torsion [C]-CA--CB-[CG] |==|  0.89623
USER: genes 16 Torsion [CA]-CB--CG-[CD1] |==|  0.78570
USER: genes 17 Torsion [C]-CA--N-[C] |==|  0.82167
USER: genes 18 Torsion [N]-C--CA-[N] |==|  0.92376
USER: genes 19 Torsion [C]-CA--CB-[CG] |==|  0.16238
USER: genes 20 Torsion [CA]-CB--CG-[CD] |==|  0.21036
USER: genes 21 Torsion [CB]-CG--CD-[NE2] |==|  0.35428
USER: genes 22 Torsion [C]-CA--N-[C] |==|  0.83693
USER: genes 23 Torsion [N]-C--CA-[N] |==|  0.85556
USER: genes 24 Torsion [C]-CA--CB-[CG] |==|  0.68159
USER: genes 25 Torsion [CA]-CB--CG-[CD2] |==|  0.57240
USER: genes 26 Torsion [C]-CA--N-[C] |==|  0.74012
USER: genes 27 Torsion [N]-C--CA-[N] |==|  0.38332
USER: genes 28 Torsion [C]-CA--CB-[OG] |==|  0.09517
USER: genes 29 Torsion [CA]-CB--OG-[HG] |==|  0.47653
ROOT
ATOM      1  CA  PHE G  65     -24.186  -9.805 -18.151  1.00 79.88 LIG 0.18  C 
ENDROOT
BRANCH 1 2
ATOM      2  C   PHE G  65     -25.585 -10.499 -18.063  1.00 81.88 LIG 0.24  C 
ATOM      3 O    PHE G  65     -26.069 -11.120 -19.030  1.00 83.91 LIG-0.27  OA
ATOM      4  N   LEU G  66     -26.210 -10.435 -16.898  1.00 80.12 LIG-0.35  N 
ATOM      5 H    LEU G  66     -25.885 -10.046 -16.203  1.00 80.12 LIG 0.16  HD
BRANCH 4 6
ATOM      6  CA  LEU G  66     -27.536 -11.033 -16.688  1.00 73.95 LIG 0.18  C 
BRANCH 6 7
ATOM      7  C   LEU G  66     -28.618 -10.264 -17.484  1.00 70.37 LIG 0.24  C 
ATOM      8 O    LEU G  66     -29.752 -10.749 -17.681  1.00 65.91 LIG-0.27  OA
ATOM      9  N   LEU G  67     -28.255  -9.060 -17.937  1.00 70.17 LIG-0.35  N 
ATOM     10 H    LEU G  67     -27.506  -8.684 -17.743  1.00 70.17 LIG 0.16  HD
BRANCH 9 11
ATOM     11  CA  LEU G  67     -29.112  -8.266 -18.813  1.00 68.48 LIG 0.18  C 
BRANCH 11 12
ATOM     12  C   LEU G  67     -28.256  -7.605 -19.904  1.00 69.74 LIG 0.24  C 
ATOM     13  N   ASP G  68     -26.990  -8.051 -20.029  1.00 68.02 LIG-0.35  N 
ATOM     14 H    ASP G  68     -26.560  -8.417 -19.381  1.00 68.02 LIG 0.16  HD
ATOM     15 O    LEU G  67     -28.772  -6.752 -20.629  1.00 68.13 LIG-0.27  OA
BRANCH 13 16
ATOM     16  CA  ASP G  68     -26.197  -7.962 -21.288  1.00 74.55 LIG 0.17  C 
BRANCH 16 17
ATOM     17  C   ASP G  68     -25.028  -8.989 -21.167  1.00 77.35 LIG 0.22  C 
ATOM     18 O    ASP G  68     -24.027  -8.970 -21.890  1.00 79.38 LIG-0.29  OA
ENDBRANCH 16 17
BRANCH 16 19
ATOM     19  CB  ASP G  68     -25.592  -6.560 -21.485  1.00 74.32 LIG 0.15  C 
BRANCH 19 20
ATOM     20  CG  ASP G  68     -26.555  -5.556 -22.192  1.00 79.04 LIG 0.17  C 
ATOM     21 OD1  ASP G  68     -26.379  -4.307 -22.012  1.00 79.61 LIG-0.65  OA
ATOM     22 OD2  ASP G  68     -27.480  -5.995 -22.930  1.00 79.33 LIG-0.65  OA
ENDBRANCH 19 20
ENDBRANCH 16 19
ENDBRANCH 13 16
ENDBRANCH 11 12
BRANCH 11 23
ATOM     23  CB  LEU G  67     -29.957  -7.265 -18.032  1.00 63.56 LIG 0.04  C 
BRANCH 23 24
ATOM     24  CG  LEU G  67     -31.442  -7.637 -18.142  1.00 66.22 LIG-0.02  C 
ATOM     25  CD2 LEU G  67     -32.279  -6.469 -18.672  1.00 64.35 LIG 0.01  C 
ATOM     26  CD1 LEU G  67     -32.012  -8.245 -16.821  1.00 61.82 LIG 0.01  C 
ENDBRANCH 23 24
ENDBRANCH 11 23
ENDBRANCH 9 11
ENDBRANCH 6 7
BRANCH 6 27
ATOM     27  CB  LEU G  66     -27.838 -10.976 -15.203  1.00 68.20 LIG 0.04  C 
BRANCH 27 28
ATOM     28  CG  LEU G  66     -28.371  -9.746 -14.510  1.00 70.51 LIG-0.02  C 
ATOM     29  CD1 LEU G  66     -29.883  -9.528 -14.601  1.00 68.17 LIG 0.01  C 
ATOM     30  CD2 LEU G  66     -27.902  -9.940 -13.068  1.00 69.71 LIG 0.01  C 
ENDBRANCH 27 28
ENDBRANCH 6 27
ENDBRANCH 4 6
ENDBRANCH 1 2
BRANCH 1 31
ATOM     31  CB  PHE G  65     -23.076 -10.878 -18.252  1.00 81.70 LIG 0.07  C 
BRANCH 31 32
ATOM     32  CG  PHE G  65     -23.366 -12.113 -17.397  1.00 88.02 LIG-0.06  A 
ATOM     33  CD1 PHE G  65     -23.171 -12.094 -15.995  1.00 90.65 LIG 0.01  A 
ATOM     34  CE1 PHE G  65     -23.487 -13.224 -15.208  1.00 91.87 LIG 0.00  A 
ATOM     35  CZ  PHE G  65     -24.021 -14.377 -15.804  1.00 92.49 LIG 0.00  A 
ATOM     36  CE2 PHE G  65     -24.242 -14.397 -17.178  1.00 89.30 LIG 0.00  A 
ATOM     37  CD2 PHE G  65     -23.926 -13.276 -17.963  1.00 89.13 LIG 0.01  A 
ENDBRANCH 31 32
ENDBRANCH 1 31
BRANCH 1 38
ATOM     38  N   PHE G  65     -23.905  -8.738 -17.140  1.00 74.58 LIG-0.35  N 
ATOM     39  C   GLN G  64     -24.628  -7.601 -17.119  1.00 72.54 LIG 0.24  C 
ATOM     40 O    GLN G  64     -25.508  -7.344 -17.956  1.00 72.49 LIG-0.27  OA
ATOM     41 H    PHE G  65     -23.263  -8.916 -16.597  1.00 74.58 LIG 0.16  HD
BRANCH 39 42
ATOM     42  CA  GLN G  64     -24.397  -6.591 -15.974  1.00 69.04 LIG 0.18  C 
BRANCH 42 43
ATOM     43  CB  GLN G  64     -23.511  -5.407 -16.370  1.00 71.00 LIG 0.04  C 
BRANCH 43 44
ATOM     44  CG  GLN G  64     -24.032  -4.591 -17.532  1.00 72.96 LIG 0.10  C 
BRANCH 44 45
ATOM     45  CD  GLN G  64     -25.190  -3.673 -17.180  1.00 76.87 LIG 0.21  C 
ATOM     46 OE1  GLN G  64     -26.203  -4.075 -16.585  1.00 74.88 LIG-0.27  OA
ATOM     47  NE2 GLN G  64     -25.027  -2.404 -17.531  1.00 81.47 LIG-0.37  N 
ATOM     48 21HE GLN G  64     -24.312  -2.161 -17.942  1.00 81.47 LIG 0.16  HD
ATOM     49 22HE GLN G  64     -25.636  -1.826 -17.347  1.00 81.47 LIG 0.16  HD
ENDBRANCH 44 45
ENDBRANCH 43 44
ENDBRANCH 42 43
BRANCH 42 50
ATOM     50  N   GLN G  64     -23.923  -7.173 -14.747  1.00 68.17 LIG-0.35  N 
ATOM     51  C   LEU G  63     -24.611  -8.117 -14.097  1.00 67.58 LIG 0.24  C 
ATOM     52 O    LEU G  63     -25.641  -8.676 -14.539  1.00 63.10 LIG-0.27  OA
ATOM     53 H    GLN G  64     -23.169  -6.862 -14.477  1.00 68.17 LIG 0.16  HD
BRANCH 51 54
ATOM     54  CA  LEU G  63     -24.027  -8.529 -12.759  1.00 66.76 LIG 0.18  C 
BRANCH 54 55
ATOM     55  CB  LEU G  63     -24.201  -7.377 -11.755  1.00 69.31 LIG 0.04  C 
BRANCH 55 56
ATOM     56  CG  LEU G  63     -22.952  -6.648 -11.186  1.00 73.12 LIG-0.02  C 
ATOM     57  CD2 LEU G  63     -23.137  -5.997  -9.810  1.00 75.26 LIG 0.01  C 
ATOM     58  CD1 LEU G  63     -22.394  -5.612 -12.137  1.00 70.75 LIG 0.01  C 
ENDBRANCH 55 56
ENDBRANCH 54 55
BRANCH 54 59
ATOM     59  N   LEU G  63     -22.626  -8.874 -12.929  1.00 64.77 LIG-0.35  N 
ATOM     60  C   SER G  62     -22.176 -10.129 -13.152  1.00 63.11 LIG 0.26  C 
ATOM     61 O    SER G  62     -22.853 -11.190 -13.038  1.00 57.72 LIG-0.27  OA
ATOM     62 H    LEU G  63     -22.101  -8.195 -12.875  1.00 64.77 LIG 0.16  HD
BRANCH 60 63
ATOM     63  CA  SER G  62     -20.700 -10.148 -13.573  1.00 64.68 LIG 0.42  C 
ATOM     64  N   SER G  62     -19.922 -11.243 -12.915  1.00 67.72 LIG 0.62  N 
BRANCH 63 65
ATOM     65  CB  SER G  62     -20.569 -10.149 -15.108  1.00 62.74 LIG 0.21  C 
BRANCH 65 66
ATOM     66 OG   SER G  62     -21.619  -9.380 -15.729  1.00 60.63 LIG-0.40  OA
ATOM     67 HG   SER G  62     -21.461  -9.300 -16.550  1.00 60.63 LIG 0.21  HD
ENDBRANCH 65 66
ENDBRANCH 63 65
ENDBRANCH 60 63
ENDBRANCH 54 59
ENDBRANCH 51 54
ENDBRANCH 42 50
ENDBRANCH 39 42
ENDBRANCH 1 38
TORSDOF 28
ENDMDL
MODEL 12
USER: ADFR SOLUTION from run 168
USER: SCORE 20.191295 LL:  -7.665 LR: -13.183 RR:   0.000 FEB:  -4.831
USER: RMSD 3.075457
USER: SEED 167
USER: STATUS no improvement in best in 4 clusters for 5 generations
USER: GENES 30
USER: genes 0 Translation |==|  0.50676 0.36411 0.45047
USER: genes 1 Rotation |==|  0.56543 0.53086 0.49805 0.99473
USER: genes 2 Torsion [N]-CA--C-[N] |==|  0.94767
USER: genes 3 Torsion [C]-N--CA-[C] |==|  0.77252
USER: genes 4 Torsion [N]-CA--C-[N] |==|  0.88367
USER: genes 5 Torsion [C]-N--CA-[C] |==|  0.83121
USER: genes 6 Torsion [N]-CA--C-[N] |==|  0.91527
USER: genes 7 Torsion [C]-N--CA-[CB] |==|  0.18227
USER: genes 8 Torsion [N]-CA--C-[O] |==|  0.47403
USER: genes 9 Torsion [N]-CA--CB-[CG] |==|  0.67969
USER: genes 10 Torsion [CA]-CB--CG-[OD2] |==|  0.43952
USER: genes 11 Torsion [N]-CA--CB-[CG] |==|  0.63604
USER: genes 12 Torsion [CA]-CB--CG-[CD2] |==|  0.68451
USER: genes 13 Torsion [N]-CA--CB-[CG] |==|  0.55907
USER: genes 14 Torsion [CA]-CB--CG-[CD1] |==|  0.67331
USER: genes 15 Torsion [C]-CA--CB-[CG] |==|  0.79007
USER: genes 16 Torsion [CA]-CB--CG-[CD1] |==|  0.74693
USER: genes 17 Torsion [C]-CA--N-[C] |==|  0.82593
USER: genes 18 Torsion [N]-C--CA-[N] |==|  0.83991
USER: genes 19 Torsion [C]-CA--CB-[CG] |==|  0.42227
USER: genes 20 Torsion [CA]-CB--CG-[CD] |==|  0.21000
USER: genes 21 Torsion [CB]-CG--CD-[NE2] |==|  0.26127
USER: genes 22 Torsion [C]-CA--N-[C] |==|  0.85300
USER: genes 23 Torsion [N]-C--CA-[N] |==|  0.91821
USER: genes 24 Torsion [C]-CA--CB-[CG] |==|  0.20845
USER: genes 25 Torsion [CA]-CB--CG-[CD2] |==|  0.01490
USER: genes 26 Torsion [C]-CA--N-[C] |==|  0.80707
USER: genes 27 Torsion [N]-C--CA-[N] |==|  0.40890
USER: genes 28 Torsion [C]-CA--CB-[OG] |==|  0.20453
USER: genes 29 Torsion [CA]-CB--OG-[HG] |==|  0.13520
ROOT
ATOM      1  CA  PHE G  65     -24.138 -12.395 -18.496  1.00 79.88 LIG 0.18  C 
ENDROOT
BRANCH 1 2
ATOM      2  C   PHE G  65     -25.466 -11.736 -17.993  1.00 81.88 LIG 0.24  C 
ATOM      3 O    PHE G  65     -26.457 -11.611 -18.739  1.00 83.91 LIG-0.27  OA
ATOM      4  N   LEU G  66     -25.500 -11.361 -16.724  1.00 80.12 LIG-0.35  N 
ATOM      5 H    LEU G  66     -24.846 -11.468 -16.177  1.00 80.12 LIG 0.16  HD
BRANCH 4 6
ATOM      6  CA  LEU G  66     -26.681 -10.717 -16.132  1.00 73.95 LIG 0.18  C 
BRANCH 6 7
ATOM      7  C   LEU G  66     -26.704  -9.203 -16.456  1.00 70.37 LIG 0.24  C 
ATOM      8 O    LEU G  66     -27.759  -8.619 -16.780  1.00 65.91 LIG-0.27  OA
ATOM      9  N   LEU G  67     -25.526  -8.577 -16.364  1.00 70.17 LIG-0.35  N 
ATOM     10 H    LEU G  67     -24.810  -8.950 -16.068  1.00 70.17 LIG 0.16  HD
BRANCH 9 11
ATOM     11  CA  LEU G  67     -25.352  -7.182 -16.761  1.00 68.48 LIG 0.18  C 
BRANCH 11 12
ATOM     12  C   LEU G  67     -25.685  -7.031 -18.253  1.00 69.74 LIG 0.24  C 
ATOM     13  N   ASP G  68     -25.443  -8.100 -19.036  1.00 68.02 LIG-0.35  N 
ATOM     14 H    ASP G  68     -24.858  -8.698 -18.838  1.00 68.02 LIG 0.16  HD
ATOM     15 O    LEU G  67     -26.194  -5.977 -18.644  1.00 68.13 LIG-0.27  OA
BRANCH 13 16
ATOM     16  CA  ASP G  68     -26.149  -8.369 -20.321  1.00 74.55 LIG 0.17  C 
BRANCH 16 17
ATOM     17  C   ASP G  68     -25.645  -9.751 -20.842  1.00 77.35 LIG 0.22  C 
ATOM     18 O    ASP G  68     -26.153 -10.345 -21.798  1.00 79.38 LIG-0.29  OA
ENDBRANCH 16 17
BRANCH 16 19
ATOM     19  CB  ASP G  68     -25.829  -7.303 -21.385  1.00 74.32 LIG 0.15  C 
BRANCH 19 20
ATOM     20  CG  ASP G  68     -27.065  -6.452 -21.811  1.00 79.04 LIG 0.17  C 
ATOM     21 OD1  ASP G  68     -28.232  -6.925 -21.615  1.00 79.61 LIG-0.65  OA
ATOM     22 OD2  ASP G  68     -26.890  -5.317 -22.334  1.00 79.33 LIG-0.65  OA
ENDBRANCH 19 20
ENDBRANCH 16 19
ENDBRANCH 13 16
ENDBRANCH 11 12
BRANCH 11 23
ATOM     23  CB  LEU G  67     -23.966  -6.655 -16.404  1.00 63.56 LIG 0.04  C 
BRANCH 23 24
ATOM     24  CG  LEU G  67     -24.091  -5.308 -15.680  1.00 66.22 LIG-0.02  C 
ATOM     25  CD2 LEU G  67     -23.511  -4.162 -16.515  1.00 64.35 LIG 0.01  C 
ATOM     26  CD1 LEU G  67     -23.522  -5.349 -14.225  1.00 61.82 LIG 0.01  C 
ENDBRANCH 23 24
ENDBRANCH 11 23
ENDBRANCH 9 11
ENDBRANCH 6 7
BRANCH 6 27
ATOM     27  CB  LEU G  66     -26.621 -10.930 -14.632  1.00 68.20 LIG 0.04  C 
BRANCH 27 28
ATOM     28  CG  LEU G  66     -27.828 -10.844 -13.731  1.00 70.51 LIG-0.02  C 
ATOM     29  CD1 LEU G  66     -27.789  -9.746 -12.665  1.00 68.17 LIG 0.01  C 
ATOM     30  CD2 LEU G  66     -28.976 -10.649 -14.720  1.00 69.71 LIG 0.01  C 
ENDBRANCH 27 28
ENDBRANCH 6 27
ENDBRANCH 4 6
ENDBRANCH 1 2
BRANCH 1 31
ATOM     31  CB  PHE G  65     -24.387 -13.887 -18.822  1.00 81.70 LIG 0.07  C 
BRANCH 31 32
ATOM     32  CG  PHE G  65     -24.498 -14.757 -17.568  1.00 88.02 LIG-0.06  A 
ATOM     33  CD1 PHE G  65     -23.358 -15.385 -17.011  1.00 90.65 LIG 0.01  A 
ATOM     34  CE1 PHE G  65     -23.462 -16.147 -15.826  1.00 91.87 LIG 0.00  A 
ATOM     35  CZ  PHE G  65     -24.697 -16.275 -15.171  1.00 92.49 LIG 0.00  A 
ATOM     36  CE2 PHE G  65     -25.819 -15.640 -15.695  1.00 89.30 LIG 0.00  A 
ATOM     37  CD2 PHE G  65     -25.719 -14.883 -16.875  1.00 89.13 LIG 0.01  A 
ENDBRANCH 31 32
ENDBRANCH 1 31
BRANCH 1 38
ATOM     38  N   PHE G  65     -22.917 -12.152 -17.667  1.00 74.58 LIG-0.35  N 
ATOM     39  C   GLN G  64     -22.433 -10.906 -17.500  1.00 72.54 LIG 0.24  C 
ATOM     40 O    GLN G  64     -22.920  -9.911 -18.063  1.00 72.49 LIG-0.27  OA
ATOM     41 H    PHE G  65     -22.568 -12.859 -17.322  1.00 74.58 LIG 0.16  HD
BRANCH 39 42
ATOM     42  CA  GLN G  64     -21.256 -10.686 -16.526  1.00 69.04 LIG 0.18  C 
BRANCH 42 43
ATOM     43  CB  GLN G  64     -19.929 -11.262 -17.027  1.00 71.00 LIG 0.04  C 
BRANCH 43 44
ATOM     44  CG  GLN G  64     -18.698 -10.551 -16.513  1.00 72.96 LIG 0.10  C 
BRANCH 44 45
ATOM     45  CD  GLN G  64     -18.351 -10.870 -15.069  1.00 76.87 LIG 0.21  C 
ATOM     46 OE1  GLN G  64     -18.869 -10.273 -14.111  1.00 74.88 LIG-0.27  OA
ATOM     47  NE2 GLN G  64     -17.474 -11.852 -14.905  1.00 81.47 LIG-0.37  N 
ATOM     48 21HE GLN G  64     -17.136 -12.244 -15.591  1.00 81.47 LIG 0.16  HD
ATOM     49 22HE GLN G  64     -17.245 -12.095 -14.113  1.00 81.47 LIG 0.16  HD
ENDBRANCH 44 45
ENDBRANCH 43 44
ENDBRANCH 42 43
BRANCH 42 50
ATOM     50  N   GLN G  64     -21.504 -11.118 -15.177  1.00 68.17 LIG-0.35  N 
ATOM     51  C   LEU G  63     -22.575 -10.714 -14.488  1.00 67.58 LIG 0.24  C 
ATOM     52 O    LEU G  63     -23.518 -10.045 -14.970  1.00 63.10 LIG-0.27  OA
ATOM     53 H    GLN G  64     -20.908 -11.653 -14.863  1.00 68.17 LIG 0.16  HD
BRANCH 51 54
ATOM     54  CA  LEU G  63     -22.615 -11.169 -13.041  1.00 66.76 LIG 0.18  C 
BRANCH 54 55
ATOM     55  CB  LEU G  63     -21.977 -10.087 -12.153  1.00 69.31 LIG 0.04  C 
BRANCH 55 56
ATOM     56  CG  LEU G  63     -22.757  -8.780 -11.840  1.00 73.12 LIG-0.02  C 
ATOM     57  CD2 LEU G  63     -24.198  -8.730 -12.361  1.00 75.26 LIG 0.01  C 
ATOM     58  CD1 LEU G  63     -22.032  -7.538 -12.311  1.00 70.75 LIG 0.01  C 
ENDBRANCH 55 56
ENDBRANCH 54 55
BRANCH 54 59
ATOM     59  N   LEU G  63     -21.918 -12.436 -12.914  1.00 64.77 LIG-0.35  N 
ATOM     60  C   SER G  62     -22.371 -13.606 -13.418  1.00 63.11 LIG 0.26  C 
ATOM     61 O    SER G  62     -23.531 -13.815 -13.874  1.00 57.72 LIG-0.27  OA
ATOM     62 H    LEU G  63     -21.177 -12.373 -12.481  1.00 64.77 LIG 0.16  HD
BRANCH 60 63
ATOM     63  CA  SER G  62     -21.301 -14.706 -13.381  1.00 64.68 LIG 0.42  C 
ATOM     64  N   SER G  62     -21.877 -16.069 -13.164  1.00 67.72 LIG 0.62  N 
BRANCH 63 65
ATOM     65  CB  SER G  62     -20.389 -14.623 -14.619  1.00 62.74 LIG 0.21  C 
BRANCH 65 66
ATOM     66 OG   SER G  62     -19.481 -13.505 -14.533  1.00 60.63 LIG-0.40  OA
ATOM     67 HG   SER G  62     -19.107 -13.505 -13.780  1.00 60.63 LIG 0.21  HD
ENDBRANCH 65 66
ENDBRANCH 63 65
ENDBRANCH 60 63
ENDBRANCH 54 59
ENDBRANCH 51 54
ENDBRANCH 42 50
ENDBRANCH 39 42
ENDBRANCH 1 38
TORSDOF 28
ENDMDL
MODEL 13
USER: ADFR SOLUTION from run 188
USER: SCORE 19.425102 LL:  -7.445 LR: -13.148 RR:   0.000 FEB:  -4.796
USER: RMSD 3.869117
USER: SEED 187
USER: STATUS no improvement in best in 4 clusters for 5 generations
USER: GENES 30
USER: genes 0 Translation |==|  0.40656 0.39452 0.49801
USER: genes 1 Rotation |==|  0.29963 0.49018 0.39103 0.94484
USER: genes 2 Torsion [N]-CA--C-[N] |==|  0.81795
USER: genes 3 Torsion [C]-N--CA-[C] |==|  0.71539
USER: genes 4 Torsion [N]-CA--C-[N] |==|  0.98111
USER: genes 5 Torsion [C]-N--CA-[C] |==|  0.77222
USER: genes 6 Torsion [N]-CA--C-[N] |==|  0.27230
USER: genes 7 Torsion [C]-N--CA-[CB] |==|  0.35274
USER: genes 8 Torsion [N]-CA--C-[O] |==|  0.46372
USER: genes 9 Torsion [N]-CA--CB-[CG] |==|  0.12362
USER: genes 10 Torsion [CA]-CB--CG-[OD2] |==|  0.75947
USER: genes 11 Torsion [N]-CA--CB-[CG] |==|  0.60918
USER: genes 12 Torsion [CA]-CB--CG-[CD2] |==|  0.80866
USER: genes 13 Torsion [N]-CA--CB-[CG] |==|  0.64695
USER: genes 14 Torsion [CA]-CB--CG-[CD1] |==|  0.42922
USER: genes 15 Torsion [C]-CA--CB-[CG] |==|  0.82734
USER: genes 16 Torsion [CA]-CB--CG-[CD1] |==|  0.82354
USER: genes 17 Torsion [C]-CA--N-[C] |==|  0.87650
USER: genes 18 Torsion [N]-C--CA-[N] |==|  0.97535
USER: genes 19 Torsion [C]-CA--CB-[CG] |==|  0.51260
USER: genes 20 Torsion [CA]-CB--CG-[CD] |==|  0.25485
USER: genes 21 Torsion [CB]-CG--CD-[NE2] |==|  0.24259
USER: genes 22 Torsion [C]-CA--N-[C] |==|  0.81710
USER: genes 23 Torsion [N]-C--CA-[N] |==|  0.92501
USER: genes 24 Torsion [C]-CA--CB-[CG] |==|  0.29441
USER: genes 25 Torsion [CA]-CB--CG-[CD2] |==|  0.95905
USER: genes 26 Torsion [C]-CA--N-[C] |==|  0.83113
USER: genes 27 Torsion [N]-C--CA-[N] |==|  0.30947
USER: genes 28 Torsion [C]-CA--CB-[OG] |==|  0.08871
USER: genes 29 Torsion [CA]-CB--OG-[HG] |==|  0.36998
ROOT
ATOM      1  CA  PHE G  65     -26.017 -11.802 -17.569  1.00 79.88 LIG 0.18  C 
ENDROOT
BRANCH 1 2
ATOM      2  C   PHE G  65     -26.942 -10.754 -18.272  1.00 81.88 LIG 0.24  C 
ATOM      3 O    PHE G  65     -27.266 -10.868 -19.471  1.00 83.91 LIG-0.27  OA
ATOM      4  N   LEU G  66     -27.401  -9.766 -17.520  1.00 80.12 LIG-0.35  N 
ATOM      5 H    LEU G  66     -27.224  -9.682 -16.683  1.00 80.12 LIG 0.16  HD
BRANCH 4 6
ATOM      6  CA  LEU G  66     -28.266  -8.709 -18.062  1.00 73.95 LIG 0.18  C 
BRANCH 6 7
ATOM      7  C   LEU G  66     -27.462  -7.408 -18.301  1.00 70.37 LIG 0.24  C 
ATOM      8 O    LEU G  66     -27.971  -6.421 -18.873  1.00 65.91 LIG-0.27  OA
ATOM      9  N   LEU G  67     -26.202  -7.419 -17.855  1.00 70.17 LIG-0.35  N 
ATOM     10 H    LEU G  67     -25.865  -8.062 -17.393  1.00 70.17 LIG 0.16  HD
BRANCH 9 11
ATOM     11  CA  LEU G  67     -25.273  -6.323 -18.117  1.00 68.48 LIG 0.18  C 
BRANCH 11 12
ATOM     12  C   LEU G  67     -24.669  -6.488 -19.520  1.00 69.74 LIG 0.24  C 
ATOM     13  N   ASP G  68     -25.234  -5.767 -20.508  1.00 68.02 LIG-0.35  N 
ATOM     14 H    ASP G  68     -26.049  -5.493 -20.476  1.00 68.02 LIG 0.16  HD
ATOM     15 O    LEU G  67     -23.687  -7.221 -19.661  1.00 68.13 LIG-0.27  OA
BRANCH 13 16
ATOM     16  CA  ASP G  68     -24.524  -5.364 -21.755  1.00 74.55 LIG 0.17  C 
BRANCH 16 17
ATOM     17  C   ASP G  68     -24.408  -3.808 -21.734  1.00 77.35 LIG 0.22  C 
ATOM     18 O    ASP G  68     -23.676  -3.170 -22.497  1.00 79.38 LIG-0.29  OA
ENDBRANCH 16 17
BRANCH 16 19
ATOM     19  CB  ASP G  68     -25.306  -5.775 -23.016  1.00 74.32 LIG 0.15  C 
BRANCH 19 20
ATOM     20  CG  ASP G  68     -26.834  -5.468 -22.933  1.00 79.04 LIG 0.17  C 
ATOM     21 OD1  ASP G  68     -27.265  -4.366 -23.406  1.00 79.61 LIG-0.65  OA
ATOM     22 OD2  ASP G  68     -27.612  -6.313 -22.409  1.00 79.33 LIG-0.65  OA
ENDBRANCH 19 20
ENDBRANCH 16 19
ENDBRANCH 13 16
ENDBRANCH 11 12
BRANCH 11 23
ATOM     23  CB  LEU G  67     -24.215  -6.196 -17.025  1.00 63.56 LIG 0.04  C 
BRANCH 23 24
ATOM     24  CG  LEU G  67     -23.944  -4.715 -16.730  1.00 66.22 LIG-0.02  C 
ATOM     25  CD2 LEU G  67     -23.237  -4.026 -17.901  1.00 64.35 LIG 0.01  C 
ATOM     26  CD1 LEU G  67     -23.217  -4.494 -15.364  1.00 61.82 LIG 0.01  C 
ENDBRANCH 23 24
ENDBRANCH 11 23
ENDBRANCH 9 11
ENDBRANCH 6 7
BRANCH 6 27
ATOM     27  CB  LEU G  66     -29.376  -8.461 -17.060  1.00 68.20 LIG 0.04  C 
BRANCH 27 28
ATOM     28  CG  LEU G  66     -30.842  -8.487 -17.419  1.00 70.51 LIG-0.02  C 
ATOM     29  CD1 LEU G  66     -31.805  -8.820 -16.277  1.00 68.17 LIG 0.01  C 
ATOM     30  CD2 LEU G  66     -31.077  -7.086 -17.982  1.00 69.71 LIG 0.01  C 
ENDBRANCH 27 28
ENDBRANCH 6 27
ENDBRANCH 4 6
ENDBRANCH 1 2
BRANCH 1 31
ATOM     31  CB  PHE G  65     -26.827 -12.582 -16.506  1.00 81.70 LIG 0.07  C 
BRANCH 31 32
ATOM     32  CG  PHE G  65     -27.365 -11.682 -15.392  1.00 88.02 LIG-0.06  A 
ATOM     33  CD1 PHE G  65     -26.487 -10.986 -14.526  1.00 90.65 LIG 0.01  A 
ATOM     34  CE1 PHE G  65     -26.992 -10.120 -13.531  1.00 91.87 LIG 0.00  A 
ATOM     35  CZ  PHE G  65     -28.375  -9.919 -13.401  1.00 92.49 LIG 0.00  A 
ATOM     36  CE2 PHE G  65     -29.246 -10.576 -14.265  1.00 89.30 LIG 0.00  A 
ATOM     37  CD2 PHE G  65     -28.747 -11.441 -15.253  1.00 89.13 LIG 0.01  A 
ENDBRANCH 31 32
ENDBRANCH 1 31
BRANCH 1 38
ATOM     38  N   PHE G  65     -24.696 -11.302 -17.076  1.00 74.58 LIG-0.35  N 
ATOM     39  C   GLN G  64     -23.933 -10.499 -17.843  1.00 72.54 LIG 0.24  C 
ATOM     40 O    GLN G  64     -24.240 -10.183 -19.005  1.00 72.49 LIG-0.27  OA
ATOM     41 H    PHE G  65     -24.481 -11.568 -16.287  1.00 74.58 LIG 0.16  HD
BRANCH 39 42
ATOM     42  CA  GLN G  64     -22.645  -9.896 -17.242  1.00 69.04 LIG 0.18  C 
BRANCH 42 43
ATOM     43  CB  GLN G  64     -21.369 -10.316 -17.978  1.00 71.00 LIG 0.04  C 
BRANCH 43 44
ATOM     44  CG  GLN G  64     -20.086  -9.827 -17.345  1.00 72.96 LIG 0.10  C 
BRANCH 44 45
ATOM     45  CD  GLN G  64     -19.472 -10.797 -16.350  1.00 76.87 LIG 0.21  C 
ATOM     46 OE1  GLN G  64     -19.734 -10.762 -15.137  1.00 74.88 LIG-0.27  OA
ATOM     47  NE2 GLN G  64     -18.657 -11.701 -16.877  1.00 81.47 LIG-0.37  N 
ATOM     48 21HE GLN G  64     -18.498 -11.696 -17.722  1.00 81.47 LIG 0.16  HD
ATOM     49 22HE GLN G  64     -18.288 -12.292 -16.373  1.00 81.47 LIG 0.16  HD
ENDBRANCH 44 45
ENDBRANCH 43 44
ENDBRANCH 42 43
BRANCH 42 50
ATOM     50  N   GLN G  64     -22.490 -10.102 -15.828  1.00 68.17 LIG-0.35  N 
ATOM     51  C   LEU G  63     -23.315  -9.549 -14.934  1.00 67.58 LIG 0.24  C 
ATOM     52 O    LEU G  63     -24.359  -8.923 -15.226  1.00 63.10 LIG-0.27  OA
ATOM     53 H    GLN G  64     -21.827 -10.608 -15.615  1.00 68.17 LIG 0.16  HD
BRANCH 51 54
ATOM     54  CA  LEU G  63     -22.932  -9.771 -13.484  1.00 66.76 LIG 0.18  C 
BRANCH 54 55
ATOM     55  CB  LEU G  63     -22.118  -8.564 -12.985  1.00 69.31 LIG 0.04  C 
BRANCH 55 56
ATOM     56  CG  LEU G  63     -22.770  -7.534 -12.022  1.00 73.12 LIG-0.02  C 
ATOM     57  CD2 LEU G  63     -24.298  -7.606 -11.912  1.00 75.26 LIG 0.01  C 
ATOM     58  CD1 LEU G  63     -22.378  -6.107 -12.339  1.00 70.75 LIG 0.01  C 
ENDBRANCH 55 56
ENDBRANCH 54 55
BRANCH 54 59
ATOM     59  N   LEU G  63     -22.174 -11.004 -13.367  1.00 64.77 LIG-0.35  N 
ATOM     60  C   SER G  62     -22.652 -12.223 -13.702  1.00 63.11 LIG 0.26  C 
ATOM     61 O    SER G  62     -23.858 -12.501 -13.955  1.00 57.72 LIG-0.27  OA
ATOM     62 H    LEU G  63     -21.379 -10.885 -13.061  1.00 64.77 LIG 0.16  HD
BRANCH 60 63
ATOM     63  CA  SER G  62     -21.545 -13.287 -13.746  1.00 64.68 LIG 0.42  C 
ATOM     64  N   SER G  62     -21.669 -14.298 -12.651  1.00 67.72 LIG 0.62  N 
BRANCH 63 65
ATOM     65  CB  SER G  62     -21.450 -13.919 -15.147  1.00 62.74 LIG 0.21  C 
BRANCH 65 66
ATOM     66 OG   SER G  62     -21.798 -12.973 -16.179  1.00 60.63 LIG-0.40  OA
ATOM     67 HG   SER G  62     -21.226 -13.005 -16.793  1.00 60.63 LIG 0.21  HD
ENDBRANCH 65 66
ENDBRANCH 63 65
ENDBRANCH 60 63
ENDBRANCH 54 59
ENDBRANCH 51 54
ENDBRANCH 42 50
ENDBRANCH 39 42
ENDBRANCH 1 38
TORSDOF 28
ENDMDL
MODEL 14
USER: ADFR SOLUTION from run 15
USER: SCORE 19.917200 LL:  -7.258 LR: -13.090 RR:   0.000 FEB:  -4.737
USER: RMSD 3.378956
USER: SEED 285587
USER: STATUS no improvement in best in 7 clusters for 5 generations
USER: GENES 30
USER: genes 0 Translation |==|  0.45730 0.40974 0.45743
USER: genes 1 Rotation |==|  0.39179 0.46606 0.47811 0.98648
USER: genes 2 Torsion [N]-CA--C-[N] |==|  0.88955
USER: genes 3 Torsion [C]-N--CA-[C] |==|  0.71012
USER: genes 4 Torsion [N]-CA--C-[N] |==|  0.93582
USER: genes 5 Torsion [C]-N--CA-[C] |==|  0.82016
USER: genes 6 Torsion [N]-CA--C-[N] |==|  0.88642
USER: genes 7 Torsion [C]-N--CA-[CB] |==|  0.07454
USER: genes 8 Torsion [N]-CA--C-[O] |==|  0.34007
USER: genes 9 Torsion [N]-CA--CB-[CG] |==|  0.72736
USER: genes 10 Torsion [CA]-CB--CG-[OD2] |==|  0.99147
USER: genes 11 Torsion [N]-CA--CB-[CG] |==|  0.54134
USER: genes 12 Torsion [CA]-CB--CG-[CD2] |==|  0.48681
USER: genes 13 Torsion [N]-CA--CB-[CG] |==|  0.97937
USER: genes 14 Torsion [CA]-CB--CG-[CD1] |==|  0.21163
USER: genes 15 Torsion [C]-CA--CB-[CG] |==|  0.57101
USER: genes 16 Torsion [CA]-CB--CG-[CD1] |==|  0.86527
USER: genes 17 Torsion [C]-CA--N-[C] |==|  0.86077
USER: genes 18 Torsion [N]-C--CA-[N] |==|  0.90751
USER: genes 19 Torsion [C]-CA--CB-[CG] |==|  0.15800
USER: genes 20 Torsion [CA]-CB--CG-[CD] |==|  0.14061
USER: genes 21 Torsion [CB]-CG--CD-[NE2] |==|  0.50620
USER: genes 22 Torsion [C]-CA--N-[C] |==|  0.84187
USER: genes 23 Torsion [N]-C--CA-[N] |==|  0.97304
USER: genes 24 Torsion [C]-CA--CB-[CG] |==|  0.73523
USER: genes 25 Torsion [CA]-CB--CG-[CD2] |==|  0.67949
USER: genes 26 Torsion [C]-CA--N-[C] |==|  0.77542
USER: genes 27 Torsion [N]-C--CA-[N] |==|  0.66123
USER: genes 28 Torsion [C]-CA--CB-[OG] |==|  0.21453
USER: genes 29 Torsion [CA]-CB--OG-[HG] |==|  0.19559
ROOT
ATOM      1  CA  PHE G  65     -25.066 -11.505 -18.360  1.00 79.88 LIG 0.18  C 
ENDROOT
BRANCH 1 2
ATOM      2  C   PHE G  65     -26.355 -10.702 -18.738  1.00 81.88 LIG 0.24  C 
ATOM      3 O    PHE G  65     -26.934 -10.871 -19.828  1.00 83.91 LIG-0.27  OA
ATOM      4  N   LEU G  66     -26.824  -9.867 -17.824  1.00 80.12 LIG-0.35  N 
ATOM      5 H    LEU G  66     -26.467  -9.757 -17.050  1.00 80.12 LIG 0.16  HD
BRANCH 4 6
ATOM      6  CA  LEU G  66     -28.018  -9.043 -18.059  1.00 73.95 LIG 0.18  C 
BRANCH 6 7
ATOM      7  C   LEU G  66     -27.626  -7.572 -18.337  1.00 70.37 LIG 0.24  C 
ATOM      8 O    LEU G  66     -28.383  -6.801 -18.963  1.00 65.91 LIG-0.27  OA
ATOM      9  N   LEU G  67     -26.434  -7.194 -17.863  1.00 70.17 LIG-0.35  N 
ATOM     10 H    LEU G  67     -25.939  -7.692 -17.366  1.00 70.17 LIG 0.16  HD
BRANCH 9 11
ATOM     11  CA  LEU G  67     -25.861  -5.882 -18.153  1.00 68.48 LIG 0.18  C 
BRANCH 11 12
ATOM     12  C   LEU G  67     -25.579  -5.768 -19.658  1.00 69.74 LIG 0.24  C 
ATOM     13  N   ASP G  68     -25.064  -6.858 -20.259  1.00 68.02 LIG-0.35  N 
ATOM     14 H    ASP G  68     -24.613  -7.455 -19.834  1.00 68.02 LIG 0.16  HD
ATOM     15 O    LEU G  67     -25.877  -4.723 -20.241  1.00 68.13 LIG-0.27  OA
BRANCH 13 16
ATOM     16  CA  ASP G  68     -25.213  -7.158 -21.712  1.00 74.55 LIG 0.17  C 
BRANCH 16 17
ATOM     17  C   ASP G  68     -23.896  -7.856 -22.174  1.00 77.35 LIG 0.22  C 
ATOM     18 O    ASP G  68     -23.866  -8.976 -22.694  1.00 79.38 LIG-0.29  OA
ENDBRANCH 16 17
BRANCH 16 19
ATOM     19  CB  ASP G  68     -25.400  -5.875 -22.544  1.00 74.32 LIG 0.15  C 
BRANCH 19 20
ATOM     20  CG  ASP G  68     -26.890  -5.563 -22.887  1.00 79.04 LIG 0.17  C 
ATOM     21 OD1  ASP G  68     -27.161  -4.495 -23.527  1.00 79.61 LIG-0.65  OA
ATOM     22 OD2  ASP G  68     -27.793  -6.370 -22.533  1.00 79.33 LIG-0.65  OA
ENDBRANCH 19 20
ENDBRANCH 16 19
ENDBRANCH 13 16
ENDBRANCH 11 12
BRANCH 11 23
ATOM     23  CB  LEU G  67     -24.634  -5.592 -17.293  1.00 63.56 LIG 0.04  C 
BRANCH 23 24
ATOM     24  CG  LEU G  67     -24.295  -4.097 -17.356  1.00 66.22 LIG-0.02  C 
ATOM     25  CD2 LEU G  67     -23.140  -3.740 -16.415  1.00 64.35 LIG 0.01  C 
ATOM     26  CD1 LEU G  67     -25.547  -3.184 -17.156  1.00 61.82 LIG 0.01  C 
ENDBRANCH 23 24
ENDBRANCH 11 23
ENDBRANCH 9 11
ENDBRANCH 6 7
BRANCH 6 27
ATOM     27  CB  LEU G  66     -28.889  -9.128 -16.821  1.00 68.20 LIG 0.04  C 
BRANCH 27 28
ATOM     28  CG  LEU G  66     -28.608 -10.061 -15.669  1.00 70.51 LIG-0.02  C 
ATOM     29  CD1 LEU G  66     -27.476  -9.640 -14.728  1.00 68.17 LIG 0.01  C 
ATOM     30  CD2 LEU G  66     -29.957 -10.132 -14.953  1.00 69.71 LIG 0.01  C 
ENDBRANCH 27 28
ENDBRANCH 6 27
ENDBRANCH 4 6
ENDBRANCH 1 2
BRANCH 1 31
ATOM     31  CB  PHE G  65     -25.462 -12.855 -17.717  1.00 81.70 LIG 0.07  C 
BRANCH 31 32
ATOM     32  CG  PHE G  65     -24.383 -13.408 -16.784  1.00 88.02 LIG-0.06  A 
ATOM     33  CD1 PHE G  65     -23.029 -13.477 -17.192  1.00 90.65 LIG 0.01  A 
ATOM     34  CE1 PHE G  65     -22.033 -13.943 -16.307  1.00 91.87 LIG 0.00  A 
ATOM     35  CZ  PHE G  65     -22.368 -14.326 -14.999  1.00 92.49 LIG 0.00  A 
ATOM     36  CE2 PHE G  65     -23.692 -14.238 -14.578  1.00 89.30 LIG 0.00  A 
ATOM     37  CD2 PHE G  65     -24.686 -13.776 -15.457  1.00 89.13 LIG 0.01  A 
ENDBRANCH 31 32
ENDBRANCH 1 31
BRANCH 1 38
ATOM     38  N   PHE G  65     -24.013 -10.760 -17.602  1.00 74.58 LIG-0.35  N 
ATOM     39  C   GLN G  64     -23.572  -9.561 -18.031  1.00 72.54 LIG 0.24  C 
ATOM     40 O    GLN G  64     -23.956  -9.041 -19.091  1.00 72.49 LIG-0.27  OA
ATOM     41 H    PHE G  65     -23.728 -11.158 -16.894  1.00 74.58 LIG 0.16  HD
BRANCH 39 42
ATOM     42  CA  GLN G  64     -22.588  -8.767 -17.144  1.00 69.04 LIG 0.18  C 
BRANCH 42 43
ATOM     43  CB  GLN G  64     -21.118  -8.994 -17.505  1.00 71.00 LIG 0.04  C 
BRANCH 43 44
ATOM     44  CG  GLN G  64     -20.764  -8.676 -18.940  1.00 72.96 LIG 0.10  C 
BRANCH 44 45
ATOM     45  CD  GLN G  64     -21.230  -7.307 -19.409  1.00 76.87 LIG 0.21  C 
ATOM     46 OE1  GLN G  64     -21.790  -6.499 -18.651  1.00 74.88 LIG-0.27  OA
ATOM     47  NE2 GLN G  64     -20.969  -7.030 -20.679  1.00 81.47 LIG-0.37  N 
ATOM     48 21HE GLN G  64     -20.579  -7.615 -21.175  1.00 81.47 LIG 0.16  HD
ATOM     49 22HE GLN G  64     -21.190  -6.267 -21.006  1.00 81.47 LIG 0.16  HD
ENDBRANCH 44 45
ENDBRANCH 43 44
ENDBRANCH 42 43
BRANCH 42 50
ATOM     50  N   GLN G  64     -22.783  -8.939 -15.730  1.00 68.17 LIG-0.35  N 
ATOM     51  C   LEU G  63     -23.949  -8.672 -15.135  1.00 67.58 LIG 0.24  C 
ATOM     52 O    LEU G  63     -25.005  -8.384 -15.743  1.00 63.10 LIG-0.27  OA
ATOM     53 H    GLN G  64     -22.088  -9.225 -15.311  1.00 68.17 LIG 0.16  HD
BRANCH 51 54
ATOM     54  CA  LEU G  63     -23.940  -8.792 -13.623  1.00 66.76 LIG 0.18  C 
BRANCH 54 55
ATOM     55  CB  LEU G  63     -24.125  -7.395 -13.005  1.00 69.31 LIG 0.04  C 
BRANCH 55 56
ATOM     56  CG  LEU G  63     -22.883  -6.567 -12.573  1.00 73.12 LIG-0.02  C 
ATOM     57  CD2 LEU G  63     -22.765  -6.288 -11.070  1.00 75.26 LIG 0.01  C 
ATOM     58  CD1 LEU G  63     -22.765  -5.255 -13.317  1.00 70.75 LIG 0.01  C 
ENDBRANCH 55 56
ENDBRANCH 54 55
BRANCH 54 59
ATOM     59  N   LEU G  63     -22.693  -9.398 -13.194  1.00 64.77 LIG-0.35  N 
ATOM     60  C   SER G  62     -22.450 -10.728 -13.215  1.00 63.11 LIG 0.26  C 
ATOM     61 O    SER G  62     -23.310 -11.635 -13.401  1.00 57.72 LIG-0.27  OA
ATOM     62 H    LEU G  63     -22.114  -8.825 -12.920  1.00 64.77 LIG 0.16  HD
BRANCH 60 63
ATOM     63  CA  SER G  62     -20.967 -11.049 -12.980  1.00 64.68 LIG 0.42  C 
ATOM     64  N   SER G  62     -20.357 -11.829 -14.101  1.00 67.72 LIG 0.62  N 
BRANCH 63 65
ATOM     65  CB  SER G  62     -20.180  -9.772 -12.631  1.00 62.74 LIG 0.21  C 
BRANCH 65 66
ATOM     66 OG   SER G  62     -20.402  -9.370 -11.265  1.00 60.63 LIG-0.40  OA
ATOM     67 HG   SER G  62     -20.027  -9.916 -10.747  1.00 60.63 LIG 0.21  HD
ENDBRANCH 65 66
ENDBRANCH 63 65
ENDBRANCH 60 63
ENDBRANCH 54 59
ENDBRANCH 51 54
ENDBRANCH 42 50
ENDBRANCH 39 42
ENDBRANCH 1 38
TORSDOF 28
ENDMDL
MODEL 15
USER: ADFR SOLUTION from run 33
USER: SCORE 20.525607 LL:  -7.828 LR: -13.085 RR:   0.000 FEB:  -4.732
USER: RMSD 2.937170
USER: SEED 32
USER: STATUS no improvement in best in 4 clusters for 5 generations
USER: GENES 30
USER: genes 0 Translation |==|  0.48565 0.38773 0.47377
USER: genes 1 Rotation |==|  0.39990 0.48316 0.47361 0.98888
USER: genes 2 Torsion [N]-CA--C-[N] |==|  0.88099
USER: genes 3 Torsion [C]-N--CA-[C] |==|  0.73928
USER: genes 4 Torsion [N]-CA--C-[N] |==|  0.92387
USER: genes 5 Torsion [C]-N--CA-[C] |==|  0.80783
USER: genes 6 Torsion [N]-CA--C-[N] |==|  0.37122
USER: genes 7 Torsion [C]-N--CA-[CB] |==|  0.23509
USER: genes 8 Torsion [N]-CA--C-[O] |==|  0.30811
USER: genes 9 Torsion [N]-CA--CB-[CG] |==|  0.16609
USER: genes 10 Torsion [CA]-CB--CG-[OD2] |==|  0.73287
USER: genes 11 Torsion [N]-CA--CB-[CG] |==|  0.60450
USER: genes 12 Torsion [CA]-CB--CG-[CD2] |==|  0.04097
USER: genes 13 Torsion [N]-CA--CB-[CG] |==|  0.01461
USER: genes 14 Torsion [CA]-CB--CG-[CD1] |==|  0.20318
USER: genes 15 Torsion [C]-CA--CB-[CG] |==|  0.97190
USER: genes 16 Torsion [CA]-CB--CG-[CD1] |==|  0.24108
USER: genes 17 Torsion [C]-CA--N-[C] |==|  0.85255
USER: genes 18 Torsion [N]-C--CA-[N] |==|  0.91886
USER: genes 19 Torsion [C]-CA--CB-[CG] |==|  0.18674
USER: genes 20 Torsion [CA]-CB--CG-[CD] |==|  0.13213
USER: genes 21 Torsion [CB]-CG--CD-[NE2] |==|  0.76632
USER: genes 22 Torsion [C]-CA--N-[C] |==|  0.78895
USER: genes 23 Torsion [N]-C--CA-[N] |==|  0.91819
USER: genes 24 Torsion [C]-CA--CB-[CG] |==|  0.27586
USER: genes 25 Torsion [CA]-CB--CG-[CD2] |==|  0.01662
USER: genes 26 Torsion [C]-CA--N-[C] |==|  0.84042
USER: genes 27 Torsion [N]-C--CA-[N] |==|  0.36406
USER: genes 28 Torsion [C]-CA--CB-[OG] |==|  0.41874
USER: genes 29 Torsion [CA]-CB--OG-[HG] |==|  0.94024
ROOT
ATOM      1  CA  PHE G  65     -24.534 -11.934 -18.042  1.00 79.88 LIG 0.18  C 
ENDROOT
BRANCH 1 2
ATOM      2  C   PHE G  65     -25.818 -11.081 -18.308  1.00 81.88 LIG 0.24  C 
ATOM      3 O    PHE G  65     -26.437 -11.150 -19.388  1.00 83.91 LIG-0.27  OA
ATOM      4  N   LEU G  66     -26.241 -10.316 -17.314  1.00 80.12 LIG-0.35  N 
ATOM      5 H    LEU G  66     -25.857 -10.276 -16.546  1.00 80.12 LIG 0.16  HD
BRANCH 4 6
ATOM      6  CA  LEU G  66     -27.426  -9.455 -17.440  1.00 73.95 LIG 0.18  C 
BRANCH 6 7
ATOM      7  C   LEU G  66     -27.023  -8.024 -17.870  1.00 70.37 LIG 0.24  C 
ATOM      8 O    LEU G  66     -27.805  -7.288 -18.508  1.00 65.91 LIG-0.27  OA
ATOM      9  N   LEU G  67     -25.793  -7.639 -17.511  1.00 70.17 LIG-0.35  N 
ATOM     10 H    LEU G  67     -25.276  -8.106 -17.007  1.00 70.17 LIG 0.16  HD
BRANCH 9 11
ATOM     11  CA  LEU G  67     -25.214  -6.372 -17.950  1.00 68.48 LIG 0.18  C 
BRANCH 11 12
ATOM     12  C   LEU G  67     -24.931  -6.435 -19.458  1.00 69.74 LIG 0.24  C 
ATOM     13  N   ASP G  68     -25.324  -5.374 -20.190  1.00 68.02 LIG-0.35  N 
ATOM     14 H    ASP G  68     -25.962  -4.852 -19.946  1.00 68.02 LIG 0.16  HD
ATOM     15 O    LEU G  67     -24.328  -7.412 -19.909  1.00 68.13 LIG-0.27  OA
BRANCH 13 16
ATOM     16  CA  ASP G  68     -24.707  -4.985 -21.490  1.00 74.55 LIG 0.17  C 
BRANCH 16 17
ATOM     17  C   ASP G  68     -24.995  -3.465 -21.698  1.00 77.35 LIG 0.22  C 
ATOM     18 O    ASP G  68     -24.120  -2.594 -21.655  1.00 79.38 LIG-0.29  OA
ENDBRANCH 16 17
BRANCH 16 19
ATOM     19  CB  ASP G  68     -25.322  -5.760 -22.670  1.00 74.32 LIG 0.15  C 
BRANCH 19 20
ATOM     20  CG  ASP G  68     -26.858  -5.538 -22.832  1.00 79.04 LIG 0.17  C 
ATOM     21 OD1  ASP G  68     -27.265  -4.516 -23.476  1.00 79.61 LIG-0.65  OA
ATOM     22 OD2  ASP G  68     -27.665  -6.370 -22.333  1.00 79.33 LIG-0.65  OA
ENDBRANCH 19 20
ENDBRANCH 16 19
ENDBRANCH 13 16
ENDBRANCH 11 12
BRANCH 11 23
ATOM     23  CB  LEU G  67     -23.986  -5.990 -17.129  1.00 63.56 LIG 0.04  C 
BRANCH 23 24
ATOM     24  CG  LEU G  67     -23.964  -4.473 -16.899  1.00 66.22 LIG-0.02  C 
ATOM     25  CD2 LEU G  67     -25.319  -3.834 -17.222  1.00 64.35 LIG 0.01  C 
ATOM     26  CD1 LEU G  67     -22.771  -3.769 -17.621  1.00 61.82 LIG 0.01  C 
ENDBRANCH 23 24
ENDBRANCH 11 23
ENDBRANCH 9 11
ENDBRANCH 6 7
BRANCH 6 27
ATOM     27  CB  LEU G  66     -28.118  -9.421 -16.091  1.00 68.20 LIG 0.04  C 
BRANCH 27 28
ATOM     28  CG  LEU G  66     -27.557 -10.074 -14.852  1.00 70.51 LIG-0.02  C 
ATOM     29  CD1 LEU G  66     -26.356  -9.373 -14.212  1.00 68.17 LIG 0.01  C 
ATOM     30  CD2 LEU G  66     -28.764 -10.119 -13.916  1.00 69.71 LIG 0.01  C 
ENDBRANCH 27 28
ENDBRANCH 6 27
ENDBRANCH 4 6
ENDBRANCH 1 2
BRANCH 1 31
ATOM     31  CB  PHE G  65     -24.932 -13.297 -17.425  1.00 81.70 LIG 0.07  C 
BRANCH 31 32
ATOM     32  CG  PHE G  65     -26.405 -13.355 -17.015  1.00 88.02 LIG-0.06  A 
ATOM     33  CD1 PHE G  65     -27.407 -13.732 -17.941  1.00 90.65 LIG 0.01  A 
ATOM     34  CE1 PHE G  65     -28.758 -13.829 -17.541  1.00 91.87 LIG 0.00  A 
ATOM     35  CZ  PHE G  65     -29.124 -13.574 -16.210  1.00 92.49 LIG 0.00  A 
ATOM     36  CE2 PHE G  65     -28.143 -13.229 -15.285  1.00 89.30 LIG 0.00  A 
ATOM     37  CD2 PHE G  65     -26.799 -13.129 -15.681  1.00 89.13 LIG 0.01  A 
ENDBRANCH 31 32
ENDBRANCH 1 31
BRANCH 1 38
ATOM     38  N   PHE G  65     -23.414 -11.250 -17.324  1.00 74.58 LIG-0.35  N 
ATOM     39  C   GLN G  64     -22.925 -10.076 -17.769  1.00 72.54 LIG 0.24  C 
ATOM     40 O    GLN G  64     -23.318  -9.534 -18.815  1.00 72.49 LIG-0.27  OA
ATOM     41 H    PHE G  65     -23.126 -11.664 -16.627  1.00 74.58 LIG 0.16  HD
BRANCH 39 42
ATOM     42  CA  GLN G  64     -21.866  -9.339 -16.920  1.00 69.04 LIG 0.18  C 
BRANCH 42 43
ATOM     43  CB  GLN G  64     -20.429  -9.567 -17.398  1.00 71.00 LIG 0.04  C 
BRANCH 43 44
ATOM     44  CG  GLN G  64     -20.110  -8.965 -18.747  1.00 72.96 LIG 0.10  C 
BRANCH 44 45
ATOM     45  CD  GLN G  64     -20.563  -7.524 -18.910  1.00 76.87 LIG 0.21  C 
ATOM     46 OE1  GLN G  64     -19.798  -6.561 -18.738  1.00 74.88 LIG-0.27  OA
ATOM     47  NE2 GLN G  64     -21.829  -7.371 -19.274  1.00 81.47 LIG-0.37  N 
ATOM     48 21HE GLN G  64     -22.331  -8.061 -19.384  1.00 81.47 LIG 0.16  HD
ATOM     49 22HE GLN G  64     -22.148  -6.583 -19.400  1.00 81.47 LIG 0.16  HD
ENDBRANCH 44 45
ENDBRANCH 43 44
ENDBRANCH 42 43
BRANCH 42 50
ATOM     50  N   GLN G  64     -21.961  -9.576 -15.506  1.00 68.17 LIG-0.35  N 
ATOM     51  C   LEU G  63     -22.900  -8.999 -14.750  1.00 67.58 LIG 0.24  C 
ATOM     52 O    LEU G  63     -23.851  -8.319 -15.197  1.00 63.10 LIG-0.27  OA
ATOM     53 H    GLN G  64     -21.365 -10.115 -15.198  1.00 68.17 LIG 0.16  HD
BRANCH 51 54
ATOM     54  CA  LEU G  63     -22.776  -9.263 -13.261  1.00 66.76 LIG 0.18  C 
BRANCH 54 55
ATOM     55  CB  LEU G  63     -21.953  -8.136 -12.614  1.00 69.31 LIG 0.04  C 
BRANCH 55 56
ATOM     56  CG  LEU G  63     -22.674  -6.973 -11.879  1.00 73.12 LIG-0.02  C 
ATOM     57  CD2 LEU G  63     -24.194  -7.123 -11.735  1.00 75.26 LIG 0.01  C 
ATOM     58  CD1 LEU G  63     -22.380  -5.620 -12.490  1.00 70.75 LIG 0.01  C 
ENDBRANCH 55 56
ENDBRANCH 54 55
BRANCH 54 59
ATOM     59  N   LEU G  63     -22.155 -10.558 -13.050  1.00 64.77 LIG-0.35  N 
ATOM     60  C   SER G  62     -22.642 -11.722 -13.538  1.00 63.11 LIG 0.26  C 
ATOM     61 O    SER G  62     -23.785 -11.889 -14.051  1.00 57.72 LIG-0.27  OA
ATOM     62 H    LEU G  63     -21.437 -10.517 -12.579  1.00 64.77 LIG 0.16  HD
BRANCH 60 63
ATOM     63  CA  SER G  62     -21.635 -12.873 -13.402  1.00 64.68 LIG 0.42  C 
ATOM     64  N   SER G  62     -22.237 -14.102 -12.799  1.00 67.72 LIG 0.62  N 
BRANCH 63 65
ATOM     65  CB  SER G  62     -20.926 -13.140 -14.743  1.00 62.74 LIG 0.21  C 
BRANCH 65 66
ATOM     66 OG   SER G  62     -19.597 -13.664 -14.544  1.00 60.63 LIG-0.40  OA
ATOM     67 HG   SER G  62     -19.330 -13.464 -13.773  1.00 60.63 LIG 0.21  HD
ENDBRANCH 65 66
ENDBRANCH 63 65
ENDBRANCH 60 63
ENDBRANCH 54 59
ENDBRANCH 51 54
ENDBRANCH 42 50
ENDBRANCH 39 42
ENDBRANCH 1 38
TORSDOF 28
ENDMDL
