MODEL 1
USER: ADFR SOLUTION from run 46
USER: SCORE 19.049230 LL:  -3.835 LR: -17.254 RR:   0.000 FEB:  -8.603
USER: RMSD 3.465765
USER: SEED 45
USER: STATUS searching
USER: GENES 31
USER: genes 0 Translation |==|  0.34025 0.50045 0.34119
USER: genes 1 Rotation |==|  0.52764 0.46125 0.49245 0.99767
USER: genes 2 Torsion [C]-N--CA-[CB] |==|  0.25320
USER: genes 3 Torsion [N]-CA--CB-[CG] |==|  0.50611
USER: genes 4 Torsion [CA]-CB--CG-[CD] |==|  0.43659
USER: genes 5 Torsion [CB]-CG--CD-[OE2] |==|  0.48410
USER: genes 6 Torsion [N]-CA--C-[N] |==|  0.40827
USER: genes 7 Torsion [C]-N--CA-[CB] |==|  0.22958
USER: genes 8 Torsion [N]-CA--CB-[CG2] |==|  0.48009
USER: genes 9 Torsion [CA]-CB--OG1-[HG1] |==|  0.22156
USER: genes 10 Torsion [N]-CA--C-[N] |==|  0.40767
USER: genes 11 Torsion [C]-N--CA-[C] |==|  0.81178
USER: genes 12 Torsion [N]-CA--C-[N] |==|  0.41855
USER: genes 13 Torsion [C]-N--CA-[CB] |==|  0.24055
USER: genes 14 Torsion [N]-CA--CB-[CG2] |==|  0.03424
USER: genes 15 Torsion [N]-CA--C-[OXT] |==|  0.36793
USER: genes 16 Torsion [N]-CA--CB-[CG] |==|  0.56281
USER: genes 17 Torsion [CA]-CB--CG-[CD] |==|  0.18918
USER: genes 18 Torsion [CB]-CG--CD-[OE1] |==|  0.31371
USER: genes 19 Torsion [N]-C--CA-[N] |==|  0.44728
USER: genes 20 Torsion [C]-CA--CB-[CG] |==|  0.20997
USER: genes 21 Torsion [CA]-CB--CG-[CD] |==|  0.30985
USER: genes 22 Torsion [CB]-CG--CD-[NE] |==|  0.26474
USER: genes 23 Torsion [CG]-CD--NE-[HE] |==|  0.26945
USER: genes 24 Torsion [C]-CA--N-[C] |==|  0.79286
USER: genes 25 Torsion [N]-C--CA-[N] |==|  0.40901
USER: genes 26 Torsion [C]-CA--N-[H2] |==|  0.31590
USER: genes 27 Torsion [C]-CA--CB-[CG] |==|  0.33563
USER: genes 28 Torsion [CA]-CB--CG-[CD] |==|  0.32138
USER: genes 29 Torsion [CB]-CG--CD-[NE] |==|  0.67414
USER: genes 30 Torsion [CG]-CD--NE-[CZ] |==|  0.31141
ROOT
ATOM      1  C   ARG C   2      19.877  19.595  22.764  1.00 17.64 LIG 0.24  C 
ATOM      2 O    ARG C   2      19.868  20.567  22.002  1.00 18.48 LIG-0.27  OA
ATOM      3  N   GLU C   3      20.808  19.429  23.697  1.00 16.82 LIG-0.35  N 
ATOM      4 H    GLU C   3      20.833  18.763  24.243  1.00 16.82 LIG 0.16  HD
ENDROOT
BRANCH 3 5
ATOM      5  CA  GLU C   3      21.887  20.396  23.867  1.00 17.00 LIG 0.18  C 
BRANCH 5 6
ATOM      6  CB  GLU C   3      21.490  21.473  24.888  1.00 16.91 LIG 0.04  C 
BRANCH 6 7
ATOM      7  CG  GLU C   3      22.559  22.550  25.073  1.00 19.77 LIG 0.12  C 
BRANCH 7 8
ATOM      8  CD  GLU C   3      21.999  23.854  25.612  1.00 23.53 LIG 0.17  C 
ATOM      9 OE2  GLU C   3      22.793  24.768  25.905  1.00 22.35 LIG-0.65  OA
ATOM     10 OE1  GLU C   3      20.765  23.959  25.743  1.00 28.80 LIG-0.65  OA
ENDBRANCH 7 8
ENDBRANCH 6 7
ENDBRANCH 5 6
BRANCH 5 11
ATOM     11  C   GLU C   3      23.127  19.654  24.344  1.00 16.25 LIG 0.24  C 
ATOM     12  N   THR C   4      24.312  20.121  23.939  1.00 14.90 LIG-0.34  N 
ATOM     13 H    THR C   4      24.411  20.831  23.465  1.00 14.90 LIG 0.16  HD
ATOM     14 O    GLU C   3      23.005  18.664  25.069  1.00 19.18 LIG-0.27  OA
BRANCH 12 15
ATOM     15  CA  THR C   4      25.558  19.444  24.279  1.00 14.85 LIG 0.20  C 
BRANCH 15 16
ATOM     16  CB  THR C   4      25.825  18.289  23.311  1.00 16.75 LIG 0.15  C 
ATOM     17  CG2 THR C   4      27.207  17.694  23.552  1.00 16.70 LIG 0.04  C 
BRANCH 16 18
ATOM     18 OG1  THR C   4      24.820  17.286  23.492  1.00 17.36 LIG-0.39  OA
ATOM     19 HG1  THR C   4      24.119  17.516  23.090  1.00 17.36 LIG 0.21  HD
ENDBRANCH 16 18
ENDBRANCH 15 16
BRANCH 15 20
ATOM     20  C   THR C   4      26.721  20.424  24.223  1.00 14.69 LIG 0.24  C 
ATOM     21  N   GLN C   5      27.710  20.224  25.091  1.00 15.36 LIG-0.35  N 
ATOM     22 H    GLN C   5      27.673  19.663  25.742  1.00 15.36 LIG 0.16  HD
ATOM     23 O    THR C   4      26.724  21.342  23.396  1.00 15.54 LIG-0.27  OA
BRANCH 21 24
ATOM     24  CA  GLN C   5      28.962  20.961  25.000  1.00 16.48 LIG 0.18  C 
BRANCH 24 25
ATOM     25  C   GLN C   5      29.715  20.541  23.748  1.00 17.30 LIG 0.24  C 
ATOM     26 O    GLN C   5      29.608  19.389  23.305  1.00 19.53 LIG-0.27  OA
ATOM     27  N   VAL C   6      30.502  21.460  23.197  1.00 16.49 LIG-0.34  N 
ATOM     28 H    VAL C   6      30.579  22.264  23.494  1.00 16.49 LIG 0.16  HD
BRANCH 27 29
ATOM     29  CA  VAL C   6      31.318  21.176  22.019  1.00 18.07 LIG 0.19  C 
BRANCH 29 30
ATOM     30  CB  VAL C   6      30.532  21.400  20.713  1.00 20.19 LIG 0.01  C 
ATOM     31  CG1 VAL C   6      30.253  20.082  20.016  1.00 23.48 LIG 0.01  C 
ATOM     32  CG2 VAL C   6      29.231  22.140  20.993  1.00 21.65 LIG 0.01  C 
ENDBRANCH 29 30
BRANCH 29 33
ATOM     33  C   VAL C   6      32.594  22.008  22.013  1.00 18.86 LIG 0.20  C 
ATOM     34 O    VAL C   6      32.559  23.236  22.219  1.00 20.67 LIG-0.65  OA
ATOM     35 OXT  VAL C   6      33.685  21.460  21.781  1.00 19.38 LIG-0.65  OA
ENDBRANCH 29 33
ENDBRANCH 27 29
ENDBRANCH 24 25
BRANCH 24 36
ATOM     36  CB  GLN C   5      29.831  20.665  26.222  1.00 21.66 LIG 0.04  C 
BRANCH 36 37
ATOM     37  CG  GLN C   5      30.876  21.719  26.541  1.00 28.10 LIG 0.10  C 
BRANCH 37 38
ATOM     38  CD  GLN C   5      30.258  23.028  27.014  1.00 33.44 LIG 0.21  C 
ATOM     39  NE2 GLN C   5      29.554  23.710  26.117  1.00 35.38 LIG-0.37  N 
ATOM     40 21HE GLN C   5      29.466  23.406  25.317  1.00 35.38 LIG 0.16  HD
ATOM     41 22HE GLN C   5      29.186  24.456  26.336  1.00 35.38 LIG 0.16  HD
ATOM     42 OE1  GLN C   5      30.415  23.418  28.172  1.00 34.39 LIG-0.27  OA
ENDBRANCH 37 38
ENDBRANCH 36 37
ENDBRANCH 24 36
ENDBRANCH 21 24
ENDBRANCH 15 20
ENDBRANCH 12 15
ENDBRANCH 5 11
ENDBRANCH 3 5
BRANCH 1 43
ATOM     43  CA  ARG C   2      18.819  18.502  22.645  1.00 18.81 LIG 0.18  C 
BRANCH 43 44
ATOM     44  CB  ARG C   2      19.401  17.304  21.902  1.00 19.04 LIG 0.04  C 
BRANCH 44 45
ATOM     45  CG  ARG C   2      20.340  16.482  22.759  1.00 18.27 LIG 0.02  C 
BRANCH 45 46
ATOM     46  CD  ARG C   2      19.732  15.128  23.061  1.00 20.59 LIG 0.14  C 
BRANCH 46 47
ATOM     47  NE  ARG C   2      20.200  14.121  22.114  1.00 21.96 LIG-0.23  N 
ATOM     48 HE   ARG C   2      20.858  13.620  22.352  1.00 21.96 LIG 0.18  HD
ATOM     49  CZ  ARG C   2      19.677  13.927  20.907  1.00 22.93 LIG 0.67  C 
ATOM     50  NH2 ARG C   2      20.166  12.984  20.117  1.00 24.61 LIG-0.23  N 
ATOM     51  NH1 ARG C   2      18.666  14.678  20.492  1.00 22.65 LIG-0.23  N 
ATOM     52 1HH2 ARG C   2      20.822  12.497  20.385  1.00 24.61 LIG 0.17  HD
ATOM     53 2HH2 ARG C   2      19.827  12.859  19.337  1.00 24.61 LIG 0.17  HD
ATOM     54 1HH1 ARG C   2      18.348  15.292  21.003  1.00 22.65 LIG 0.17  HD
ATOM     55 2HH1 ARG C   2      18.328  14.551  19.711  1.00 22.65 LIG 0.17  HD
ENDBRANCH 46 47
ENDBRANCH 45 46
ENDBRANCH 44 45
ENDBRANCH 43 44
BRANCH 43 56
ATOM     56  N   ARG C   2      17.653  19.011  21.932  1.00 21.07 LIG-0.35  N 
ATOM     57  C   ARG C   1      16.801  19.844  22.524  1.00 27.96 LIG 0.25  C 
ATOM     58 O    ARG C   1      16.912  20.193  23.699  1.00 30.47 LIG-0.27  OA
ATOM     59 H    ARG C   2      17.574  18.731  21.122  1.00 21.07 LIG 0.16  HD
BRANCH 57 60
ATOM     60  CA  ARG C   1      15.652  20.370  21.673  1.00 31.07 LIG 0.27  C 
BRANCH 60 61
ATOM     61  N   ARG C   1      14.454  20.582  22.484  1.00 32.37 LIG-0.07  N 
ATOM     62 H2   ARG C   1      14.268  21.452  22.517  1.00 32.37 LIG 0.28  HD
ATOM     63 H1   ARG C   1      14.595  20.277  23.308  1.00 32.37 LIG 0.28  HD
ATOM     64 H3   ARG C   1      13.768  20.147  22.120  1.00 32.37 LIG 0.28  HD
ENDBRANCH 60 61
BRANCH 60 65
ATOM     65  CB  ARG C   1      16.088  21.664  20.984  1.00 35.21 LIG 0.04  C 
BRANCH 65 66
ATOM     66  CG  ARG C   1      16.019  21.589  19.461  1.00 38.18 LIG 0.02  C 
BRANCH 66 67
ATOM     67  CD  ARG C   1      14.998  22.556  18.882  1.00 40.83 LIG 0.14  C 
BRANCH 67 68
ATOM     68  NE  ARG C   1      13.924  21.859  18.183  1.00 41.61 LIG-0.23  N 
ATOM     69  CZ  ARG C   1      12.663  21.818  18.601  1.00 42.69 LIG 0.67  C 
ATOM     70  NH1 ARG C   1      12.312  22.436  19.723  1.00 43.45 LIG-0.23  N 
ATOM     71  NH2 ARG C   1      11.752  21.162  17.894  1.00 42.77 LIG-0.23  N 
ATOM     72 1HH1 ARG C   1      12.901  22.863  20.181  1.00 43.45 LIG 0.17  HD
ATOM     73 2HH1 ARG C   1      11.495  22.408  19.992  1.00 43.45 LIG 0.17  HD
ATOM     74 1HH2 ARG C   1      11.977  20.763  17.166  1.00 42.77 LIG 0.17  HD
ATOM     75 2HH2 ARG C   1      10.935  21.135  18.164  1.00 42.77 LIG 0.17  HD
ATOM     76 HE   ARG C   1      14.120  21.447  17.454  1.00 41.61 LIG 0.18  HD
ENDBRANCH 67 68
ENDBRANCH 66 67
ENDBRANCH 65 66
ENDBRANCH 60 65
ENDBRANCH 57 60
ENDBRANCH 43 56
ENDBRANCH 1 43
TORSDOF 29
ENDMDL
MODEL 2
USER: ADFR SOLUTION from run 149
USER: SCORE 18.193353 LL:  -3.618 LR: -16.617 RR:   0.000 FEB:  -7.966
USER: RMSD 4.268056
USER: SEED 148
USER: STATUS no improvement in best in 7 clusters for 5 generations
USER: GENES 31
USER: genes 0 Translation |==|  0.33875 0.50253 0.34705
USER: genes 1 Rotation |==|  0.55720 0.48626 0.49362 0.99649
USER: genes 2 Torsion [C]-N--CA-[CB] |==|  0.23033
USER: genes 3 Torsion [N]-CA--CB-[CG] |==|  0.49602
USER: genes 4 Torsion [CA]-CB--CG-[CD] |==|  0.42738
USER: genes 5 Torsion [CB]-CG--CD-[OE2] |==|  0.52176
USER: genes 6 Torsion [N]-CA--C-[N] |==|  0.40960
USER: genes 7 Torsion [C]-N--CA-[CB] |==|  0.22669
USER: genes 8 Torsion [N]-CA--CB-[CG2] |==|  0.48032
USER: genes 9 Torsion [CA]-CB--OG1-[HG1] |==|  0.21227
USER: genes 10 Torsion [N]-CA--C-[N] |==|  0.40037
USER: genes 11 Torsion [C]-N--CA-[C] |==|  0.81472
USER: genes 12 Torsion [N]-CA--C-[N] |==|  0.40756
USER: genes 13 Torsion [C]-N--CA-[CB] |==|  0.24861
USER: genes 14 Torsion [N]-CA--CB-[CG2] |==|  0.03419
USER: genes 15 Torsion [N]-CA--C-[OXT] |==|  0.36224
USER: genes 16 Torsion [N]-CA--CB-[CG] |==|  0.55971
USER: genes 17 Torsion [CA]-CB--CG-[CD] |==|  0.19081
USER: genes 18 Torsion [CB]-CG--CD-[OE1] |==|  0.32299
USER: genes 19 Torsion [N]-C--CA-[N] |==|  0.41678
USER: genes 20 Torsion [C]-CA--CB-[CG] |==|  0.27915
USER: genes 21 Torsion [CA]-CB--CG-[CD] |==|  0.32529
USER: genes 22 Torsion [CB]-CG--CD-[NE] |==|  0.27606
USER: genes 23 Torsion [CG]-CD--NE-[HE] |==|  0.70953
USER: genes 24 Torsion [C]-CA--N-[C] |==|  0.62117
USER: genes 25 Torsion [N]-C--CA-[N] |==|  0.10934
USER: genes 26 Torsion [C]-CA--N-[H2] |==|  0.04466
USER: genes 27 Torsion [C]-CA--CB-[CG] |==|  0.83051
USER: genes 28 Torsion [CA]-CB--CG-[CD] |==|  0.65017
USER: genes 29 Torsion [CB]-CG--CD-[NE] |==|  0.32412
USER: genes 30 Torsion [CG]-CD--NE-[CZ] |==|  0.35840
ROOT
ATOM      1  C   ARG C   2      19.835  19.644  22.874  1.00 17.64 LIG 0.24  C 
ATOM      2 O    ARG C   2      19.738  20.698  22.238  1.00 18.48 LIG-0.27  OA
ATOM      3  N   GLU C   3      20.855  19.391  23.687  1.00 16.82 LIG-0.35  N 
ATOM      4 H    GLU C   3      20.943  18.668  24.144  1.00 16.82 LIG 0.16  HD
ENDROOT
BRANCH 3 5
ATOM      5  CA  GLU C   3      21.933  20.359  23.867  1.00 17.00 LIG 0.18  C 
BRANCH 5 6
ATOM      6  CB  GLU C   3      21.536  21.422  24.903  1.00 16.91 LIG 0.04  C 
BRANCH 6 7
ATOM      7  CG  GLU C   3      22.638  22.449  25.165  1.00 19.77 LIG 0.12  C 
BRANCH 7 8
ATOM      8  CD  GLU C   3      22.100  23.785  25.643  1.00 23.53 LIG 0.17  C 
ATOM      9 OE2  GLU C   3      22.890  24.743  25.747  1.00 22.35 LIG-0.65  OA
ATOM     10 OE1  GLU C   3      20.889  23.872  25.916  1.00 28.80 LIG-0.65  OA
ENDBRANCH 7 8
ENDBRANCH 6 7
ENDBRANCH 5 6
BRANCH 5 11
ATOM     11  C   GLU C   3      23.176  19.614  24.332  1.00 16.25 LIG 0.24  C 
ATOM     12  N   THR C   4      24.359  20.094  23.939  1.00 14.90 LIG-0.34  N 
ATOM     13 H    THR C   4      24.456  20.814  23.479  1.00 14.90 LIG 0.16  HD
ATOM     14 O    GLU C   3      23.056  18.608  25.036  1.00 19.18 LIG-0.27  OA
BRANCH 12 15
ATOM     15  CA  THR C   4      25.608  19.416  24.268  1.00 14.85 LIG 0.20  C 
BRANCH 15 16
ATOM     16  CB  THR C   4      25.868  18.265  23.293  1.00 16.75 LIG 0.15  C 
ATOM     17  CG2 THR C   4      27.252  17.668  23.524  1.00 16.70 LIG 0.04  C 
BRANCH 16 18
ATOM     18 OG1  THR C   4      24.865  17.262  23.475  1.00 17.36 LIG-0.39  OA
ATOM     19 HG1  THR C   4      24.148  17.514  23.117  1.00 17.36 LIG 0.21  HD
ENDBRANCH 16 18
ENDBRANCH 15 16
BRANCH 15 20
ATOM     20  C   THR C   4      26.770  20.396  24.208  1.00 14.69 LIG 0.24  C 
ATOM     21  N   GLN C   5      27.739  20.226  25.105  1.00 15.36 LIG-0.35  N 
ATOM     22 H    GLN C   5      27.688  19.685  25.771  1.00 15.36 LIG 0.16  HD
ATOM     23 O    THR C   4      26.790  21.289  23.354  1.00 15.54 LIG-0.27  OA
BRANCH 21 24
ATOM     24  CA  GLN C   5      28.991  20.963  25.021  1.00 16.48 LIG 0.18  C 
BRANCH 24 25
ATOM     25  C   GLN C   5      29.761  20.526  23.785  1.00 17.30 LIG 0.24  C 
ATOM     26 O    GLN C   5      29.720  19.349  23.400  1.00 19.53 LIG-0.27  OA
ATOM     27  N   VAL C   6      30.492  21.460  23.184  1.00 16.49 LIG-0.34  N 
ATOM     28 H    VAL C   6      30.523  22.281  23.440  1.00 16.49 LIG 0.16  HD
BRANCH 27 29
ATOM     29  CA  VAL C   6      31.318  21.165  22.016  1.00 18.07 LIG 0.19  C 
BRANCH 29 30
ATOM     30  CB  VAL C   6      30.534  21.348  20.702  1.00 20.19 LIG 0.01  C 
ATOM     31  CG1 VAL C   6      30.281  20.012  20.031  1.00 23.48 LIG 0.01  C 
ATOM     32  CG2 VAL C   6      29.219  22.071  20.961  1.00 21.65 LIG 0.01  C 
ENDBRANCH 29 30
BRANCH 29 33
ATOM     33  C   VAL C   6      32.580  22.019  21.997  1.00 18.86 LIG 0.20  C 
ATOM     34 O    VAL C   6      32.519  23.255  22.140  1.00 20.67 LIG-0.65  OA
ATOM     35 OXT  VAL C   6      33.685  21.479  21.820  1.00 19.38 LIG-0.65  OA
ENDBRANCH 29 33
ENDBRANCH 27 29
ENDBRANCH 24 25
BRANCH 24 36
ATOM     36  CB  GLN C   5      29.844  20.686  26.258  1.00 21.66 LIG 0.04  C 
BRANCH 36 37
ATOM     37  CG  GLN C   5      30.901  21.734  26.561  1.00 28.10 LIG 0.10  C 
BRANCH 37 38
ATOM     38  CD  GLN C   5      30.297  23.058  27.007  1.00 33.44 LIG 0.21  C 
ATOM     39  NE2 GLN C   5      29.547  23.699  26.117  1.00 35.38 LIG-0.37  N 
ATOM     40 21HE GLN C   5      29.424  23.361  25.336  1.00 35.38 LIG 0.16  HD
ATOM     41 22HE GLN C   5      29.186  24.452  26.322  1.00 35.38 LIG 0.16  HD
ATOM     42 OE1  GLN C   5      30.507  23.498  28.139  1.00 34.39 LIG-0.27  OA
ENDBRANCH 37 38
ENDBRANCH 36 37
ENDBRANCH 24 36
ENDBRANCH 21 24
ENDBRANCH 15 20
ENDBRANCH 12 15
ENDBRANCH 5 11
ENDBRANCH 3 5
BRANCH 1 43
ATOM     43  CA  ARG C   2      18.785  18.546  22.727  1.00 18.81 LIG 0.18  C 
BRANCH 43 44
ATOM     44  CB  ARG C   2      19.183  17.603  21.595  1.00 19.04 LIG 0.04  C 
BRANCH 44 45
ATOM     45  CG  ARG C   2      19.818  16.323  22.096  1.00 18.27 LIG 0.02  C 
BRANCH 45 46
ATOM     46  CD  ARG C   2      18.968  15.128  21.712  1.00 20.59 LIG 0.14  C 
BRANCH 46 47
ATOM     47  NE  ARG C   2      19.500  14.466  20.525  1.00 21.96 LIG-0.23  N 
ATOM     48 HE   ARG C   2      19.090  14.589  19.779  1.00 21.96 LIG 0.18  HD
ATOM     49  CZ  ARG C   2      20.577  13.687  20.522  1.00 22.93 LIG 0.67  C 
ATOM     50  NH2 ARG C   2      20.989  13.131  19.394  1.00 24.61 LIG-0.23  N 
ATOM     51  NH1 ARG C   2      21.240  13.463  21.648  1.00 22.65 LIG-0.23  N 
ATOM     52 1HH2 ARG C   2      20.560  13.274  18.662  1.00 24.61 LIG 0.17  HD
ATOM     53 2HH2 ARG C   2      21.686  12.627  19.392  1.00 24.61 LIG 0.17  HD
ATOM     54 1HH1 ARG C   2      20.973  13.822  22.383  1.00 22.65 LIG 0.17  HD
ATOM     55 2HH1 ARG C   2      21.936  12.959  21.645  1.00 22.65 LIG 0.17  HD
ENDBRANCH 46 47
ENDBRANCH 45 46
ENDBRANCH 44 45
ENDBRANCH 43 44
BRANCH 43 56
ATOM     56  N   ARG C   2      17.481  19.137  22.446  1.00 21.07 LIG-0.35  N 
ATOM     57  C   ARG C   1      16.387  18.696  23.061  1.00 27.96 LIG 0.25  C 
ATOM     58 O    ARG C   1      16.396  17.754  23.852  1.00 30.47 LIG-0.27  OA
ATOM     59 H    ARG C   2      17.490  19.773  21.867  1.00 21.07 LIG 0.16  HD
BRANCH 57 60
ATOM     60  CA  ARG C   1      15.085  19.423  22.748  1.00 31.07 LIG 0.27  C 
BRANCH 60 61
ATOM     61  N   ARG C   1      15.008  19.770  21.330  1.00 32.37 LIG-0.07  N 
ATOM     62 H2   ARG C   1      15.611  19.299  20.875  1.00 32.37 LIG 0.28  HD
ATOM     63 H1   ARG C   1      15.172  20.639  21.227  1.00 32.37 LIG 0.28  HD
ATOM     64 H3   ARG C   1      14.194  19.585  21.022  1.00 32.37 LIG 0.28  HD
ENDBRANCH 60 61
BRANCH 60 65
ATOM     65  CB  ARG C   1      13.905  18.544  23.165  1.00 35.21 LIG 0.04  C 
BRANCH 65 66
ATOM     66  CG  ARG C   1      13.857  17.209  22.426  1.00 38.18 LIG 0.02  C 
BRANCH 66 67
ATOM     67  CD  ARG C   1      12.515  16.974  21.750  1.00 40.83 LIG 0.14  C 
BRANCH 67 68
ATOM     68  NE  ARG C   1      12.644  16.894  20.299  1.00 41.61 LIG-0.23  N 
ATOM     69  CZ  ARG C   1      12.146  15.909  19.558  1.00 42.69 LIG 0.67  C 
ATOM     70  NH1 ARG C   1      11.485  14.910  20.132  1.00 43.45 LIG-0.23  N 
ATOM     71  NH2 ARG C   1      12.309  15.923  18.241  1.00 42.77 LIG-0.23  N 
ATOM     72 1HH1 ARG C   1      11.377  14.900  20.985  1.00 43.45 LIG 0.17  HD
ATOM     73 2HH1 ARG C   1      11.164  14.274  19.651  1.00 43.45 LIG 0.17  HD
ATOM     74 1HH2 ARG C   1      12.736  16.570  17.867  1.00 42.77 LIG 0.17  HD
ATOM     75 2HH2 ARG C   1      11.987  15.286  17.761  1.00 42.77 LIG 0.17  HD
ATOM     76 HE   ARG C   1      13.069  17.524  19.897  1.00 41.61 LIG 0.18  HD
ENDBRANCH 67 68
ENDBRANCH 66 67
ENDBRANCH 65 66
ENDBRANCH 60 65
ENDBRANCH 57 60
ENDBRANCH 43 56
ENDBRANCH 1 43
TORSDOF 29
ENDMDL
MODEL 3
USER: ADFR SOLUTION from run 160
USER: SCORE 18.235363 LL:  -4.280 LR: -16.069 RR:   0.000 FEB:  -7.418
USER: RMSD 6.067517
USER: SEED 159
USER: STATUS no improvement in best in 6 clusters for 5 generations
USER: GENES 31
USER: genes 0 Translation |==|  0.33819 0.49178 0.32518
USER: genes 1 Rotation |==|  0.52194 0.45047 0.49766 0.99705
USER: genes 2 Torsion [C]-N--CA-[CB] |==|  0.25359
USER: genes 3 Torsion [N]-CA--CB-[CG] |==|  0.48019
USER: genes 4 Torsion [CA]-CB--CG-[CD] |==|  0.44464
USER: genes 5 Torsion [CB]-CG--CD-[OE2] |==|  0.52023
USER: genes 6 Torsion [N]-CA--C-[N] |==|  0.41486
USER: genes 7 Torsion [C]-N--CA-[CB] |==|  0.22112
USER: genes 8 Torsion [N]-CA--CB-[CG2] |==|  0.48382
USER: genes 9 Torsion [CA]-CB--OG1-[HG1] |==|  0.23508
USER: genes 10 Torsion [N]-CA--C-[N] |==|  0.41793
USER: genes 11 Torsion [C]-N--CA-[C] |==|  0.80738
USER: genes 12 Torsion [N]-CA--C-[N] |==|  0.42549
USER: genes 13 Torsion [C]-N--CA-[CB] |==|  0.23684
USER: genes 14 Torsion [N]-CA--CB-[CG2] |==|  0.03705
USER: genes 15 Torsion [N]-CA--C-[OXT] |==|  0.37930
USER: genes 16 Torsion [N]-CA--CB-[CG] |==|  0.54217
USER: genes 17 Torsion [CA]-CB--CG-[CD] |==|  0.20239
USER: genes 18 Torsion [CB]-CG--CD-[OE1] |==|  0.33227
USER: genes 19 Torsion [N]-C--CA-[N] |==|  0.95080
USER: genes 20 Torsion [C]-CA--CB-[CG] |==|  0.08993
USER: genes 21 Torsion [CA]-CB--CG-[CD] |==|  0.22552
USER: genes 22 Torsion [CB]-CG--CD-[NE] |==|  0.61879
USER: genes 23 Torsion [CG]-CD--NE-[HE] |==|  0.09748
USER: genes 24 Torsion [C]-CA--N-[C] |==|  0.71752
USER: genes 25 Torsion [N]-C--CA-[N] |==|  0.09901
USER: genes 26 Torsion [C]-CA--N-[H2] |==|  0.62062
USER: genes 27 Torsion [C]-CA--CB-[CG] |==|  0.22821
USER: genes 28 Torsion [CA]-CB--CG-[CD] |==|  0.54566
USER: genes 29 Torsion [CB]-CG--CD-[NE] |==|  0.11335
USER: genes 30 Torsion [CG]-CD--NE-[CZ] |==|  0.63657
ROOT
ATOM      1  C   ARG C   2      19.820  19.394  22.464  1.00 17.64 LIG 0.24  C 
ATOM      2 O    ARG C   2      19.829  20.346  21.678  1.00 18.48 LIG-0.27  OA
ATOM      3  N   GLU C   3      20.711  19.266  23.441  1.00 16.82 LIG-0.35  N 
ATOM      4 H    GLU C   3      20.723  18.615  24.003  1.00 16.82 LIG 0.16  HD
ENDROOT
BRANCH 3 5
ATOM      5  CA  GLU C   3      21.767  20.255  23.633  1.00 17.00 LIG 0.18  C 
BRANCH 5 6
ATOM      6  CB  GLU C   3      21.309  21.349  24.611  1.00 16.91 LIG 0.04  C 
BRANCH 6 7
ATOM      7  CG  GLU C   3      22.425  22.322  24.991  1.00 19.77 LIG 0.12  C 
BRANCH 7 8
ATOM      8  CD  GLU C   3      21.902  23.636  25.540  1.00 23.53 LIG 0.17  C 
ATOM      9 OE2  GLU C   3      22.713  24.558  25.755  1.00 22.35 LIG-0.65  OA
ATOM     10 OE1  GLU C   3      20.681  23.743  25.758  1.00 28.80 LIG-0.65  OA
ENDBRANCH 7 8
ENDBRANCH 6 7
ENDBRANCH 5 6
BRANCH 5 11
ATOM     11  C   GLU C   3      22.997  19.546  24.180  1.00 16.25 LIG 0.24  C 
ATOM     12  N   THR C   4      24.189  20.053  23.853  1.00 14.90 LIG-0.34  N 
ATOM     13 H    THR C   4      24.296  20.772  23.393  1.00 14.90 LIG 0.16  HD
ATOM     14 O    GLU C   3      22.861  18.544  24.885  1.00 19.18 LIG-0.27  OA
BRANCH 12 15
ATOM     15  CA  THR C   4      25.433  19.411  24.263  1.00 14.85 LIG 0.20  C 
BRANCH 15 16
ATOM     16  CB  THR C   4      25.755  18.228  23.347  1.00 16.75 LIG 0.15  C 
ATOM     17  CG2 THR C   4      27.123  17.645  23.683  1.00 16.70 LIG 0.04  C 
BRANCH 16 18
ATOM     18 OG1  THR C   4      24.744  17.227  23.502  1.00 17.36 LIG-0.39  OA
ATOM     19 HG1  THR C   4      24.092  17.408  23.004  1.00 17.36 LIG 0.21  HD
ENDBRANCH 16 18
ENDBRANCH 15 16
BRANCH 15 20
ATOM     20  C   THR C   4      26.581  20.408  24.217  1.00 14.69 LIG 0.24  C 
ATOM     21  N   GLN C   5      27.576  20.211  25.078  1.00 15.36 LIG-0.35  N 
ATOM     22 H    GLN C   5      27.550  19.640  25.721  1.00 15.36 LIG 0.16  HD
ATOM     23 O    THR C   4      26.567  21.339  23.403  1.00 15.54 LIG-0.27  OA
BRANCH 21 24
ATOM     24  CA  GLN C   5      28.816  20.968  24.993  1.00 16.48 LIG 0.18  C 
BRANCH 24 25
ATOM     25  C   GLN C   5      29.589  20.549  23.752  1.00 17.30 LIG 0.24  C 
ATOM     26 O    GLN C   5      29.471  19.405  23.293  1.00 19.53 LIG-0.27  OA
ATOM     27  N   VAL C   6      30.406  21.459  23.231  1.00 16.49 LIG-0.34  N 
ATOM     28 H    VAL C   6      30.491  22.258  23.539  1.00 16.49 LIG 0.16  HD
BRANCH 27 29
ATOM     29  CA  VAL C   6      31.243  21.174  22.068  1.00 18.07 LIG 0.19  C 
BRANCH 29 30
ATOM     30  CB  VAL C   6      30.480  21.397  20.748  1.00 20.19 LIG 0.01  C 
ATOM     31  CG1 VAL C   6      30.191  20.077  20.059  1.00 23.48 LIG 0.01  C 
ATOM     32  CG2 VAL C   6      29.186  22.160  21.001  1.00 21.65 LIG 0.01  C 
ENDBRANCH 29 30
BRANCH 29 33
ATOM     33  C   VAL C   6      32.519  22.006  22.084  1.00 18.86 LIG 0.20  C 
ATOM     34 O    VAL C   6      32.489  23.220  22.362  1.00 20.67 LIG-0.65  OA
ATOM     35 OXT  VAL C   6      33.604  21.472  21.797  1.00 19.38 LIG-0.65  OA
ENDBRANCH 29 33
ENDBRANCH 27 29
ENDBRANCH 24 25
BRANCH 24 36
ATOM     36  CB  GLN C   5      29.678  20.698  26.226  1.00 21.66 LIG 0.04  C 
BRANCH 36 37
ATOM     37  CG  GLN C   5      30.815  21.679  26.446  1.00 28.10 LIG 0.10  C 
BRANCH 37 38
ATOM     38  CD  GLN C   5      30.327  23.040  26.926  1.00 33.44 LIG 0.21  C 
ATOM     39  NE2 GLN C   5      29.501  23.693  26.117  1.00 35.38 LIG-0.37  N 
ATOM     40 21HE GLN C   5      29.267  23.344  25.366  1.00 35.38 LIG 0.16  HD
ATOM     41 22HE GLN C   5      29.199  24.465  26.344  1.00 35.38 LIG 0.16  HD
ATOM     42 OE1  GLN C   5      30.693  23.494  28.011  1.00 34.39 LIG-0.27  OA
ENDBRANCH 37 38
ENDBRANCH 36 37
ENDBRANCH 24 36
ENDBRANCH 21 24
ENDBRANCH 15 20
ENDBRANCH 12 15
ENDBRANCH 5 11
ENDBRANCH 3 5
BRANCH 1 43
ATOM     43  CA  ARG C   2      18.785  18.280  22.327  1.00 18.81 LIG 0.18  C 
BRANCH 43 44
ATOM     44  CB  ARG C   2      17.448  18.749  22.893  1.00 19.04 LIG 0.04  C 
BRANCH 44 45
ATOM     45  CG  ARG C   2      17.222  20.235  22.706  1.00 18.27 LIG 0.02  C 
BRANCH 45 46
ATOM     46  CD  ARG C   2      16.725  20.520  21.304  1.00 20.59 LIG 0.14  C 
BRANCH 46 47
ATOM     47  NE  ARG C   2      17.388  21.692  20.741  1.00 21.96 LIG-0.23  N 
ATOM     48 HE   ARG C   2      18.212  21.825  20.947  1.00 21.96 LIG 0.18  HD
ATOM     49  CZ  ARG C   2      16.801  22.568  19.930  1.00 22.93 LIG 0.67  C 
ATOM     50  NH2 ARG C   2      17.486  23.601  19.465  1.00 24.61 LIG-0.23  N 
ATOM     51  NH1 ARG C   2      15.530  22.410  19.589  1.00 22.65 LIG-0.23  N 
ATOM     52 1HH2 ARG C   2      18.310  23.705  19.686  1.00 24.61 LIG 0.17  HD
ATOM     53 2HH2 ARG C   2      17.106  24.167  18.941  1.00 24.61 LIG 0.17  HD
ATOM     54 1HH1 ARG C   2      15.084  21.740  19.891  1.00 22.65 LIG 0.17  HD
ATOM     55 2HH1 ARG C   2      15.152  22.977  19.064  1.00 22.65 LIG 0.17  HD
ENDBRANCH 46 47
ENDBRANCH 45 46
ENDBRANCH 44 45
ENDBRANCH 43 44
BRANCH 43 56
ATOM     56  N   ARG C   2      19.236  17.090  23.038  1.00 21.07 LIG-0.35  N 
ATOM     57  C   ARG C   1      19.765  16.061  22.380  1.00 27.96 LIG 0.25  C 
ATOM     58 O    ARG C   1      19.862  16.029  21.154  1.00 30.47 LIG-0.27  OA
ATOM     59 H    ARG C   2      19.130  17.117  23.892  1.00 21.07 LIG 0.16  HD
BRANCH 57 60
ATOM     60  CA  ARG C   1      20.264  14.893  23.221  1.00 31.07 LIG 0.27  C 
BRANCH 60 61
ATOM     61  N   ARG C   1      19.408  14.683  24.387  1.00 32.37 LIG-0.07  N 
ATOM     62 H2   ARG C   1      19.914  14.535  25.104  1.00 32.37 LIG 0.28  HD
ATOM     63 H1   ARG C   1      18.880  13.980  24.246  1.00 32.37 LIG 0.28  HD
ATOM     64 H3   ARG C   1      18.907  15.407  24.522  1.00 32.37 LIG 0.28  HD
ENDBRANCH 60 61
BRANCH 60 65
ATOM     65  CB  ARG C   1      20.327  13.637  22.350  1.00 35.21 LIG 0.04  C 
BRANCH 65 66
ATOM     66  CG  ARG C   1      21.597  13.551  21.508  1.00 38.18 LIG 0.02  C 
BRANCH 66 67
ATOM     67  CD  ARG C   1      21.471  12.540  20.379  1.00 40.83 LIG 0.14  C 
BRANCH 67 68
ATOM     68  NE  ARG C   1      20.160  12.596  19.742  1.00 41.61 LIG-0.23  N 
ATOM     69  CZ  ARG C   1      19.398  11.533  19.505  1.00 42.69 LIG 0.67  C 
ATOM     70  NH1 ARG C   1      19.818  10.321  19.851  1.00 43.45 LIG-0.23  N 
ATOM     71  NH2 ARG C   1      18.214  11.682  18.925  1.00 42.77 LIG-0.23  N 
ATOM     72 1HH1 ARG C   1      20.584  10.223  20.229  1.00 43.45 LIG 0.17  HD
ATOM     73 2HH1 ARG C   1      19.324   9.634  19.697  1.00 43.45 LIG 0.17  HD
ATOM     74 1HH2 ARG C   1      17.940  12.466  18.701  1.00 42.77 LIG 0.17  HD
ATOM     75 2HH2 ARG C   1      17.721  10.994  18.771  1.00 42.77 LIG 0.17  HD
ATOM     76 HE   ARG C   1      19.861  13.367  19.504  1.00 41.61 LIG 0.18  HD
ENDBRANCH 67 68
ENDBRANCH 66 67
ENDBRANCH 65 66
ENDBRANCH 60 65
ENDBRANCH 57 60
ENDBRANCH 43 56
ENDBRANCH 1 43
TORSDOF 29
ENDMDL
MODEL 4
USER: ADFR SOLUTION from run 10
USER: SCORE 19.180798 LL:  -5.763 LR: -15.699 RR:   0.000 FEB:  -7.049
USER: RMSD 3.227069
USER: SEED 799317
USER: STATUS no improvement in best in 8 clusters for 5 generations
USER: GENES 31
USER: genes 0 Translation |==|  0.34670 0.46636 0.34092
USER: genes 1 Rotation |==|  0.50347 0.44531 0.52217 0.99649
USER: genes 2 Torsion [C]-N--CA-[CB] |==|  0.27763
USER: genes 3 Torsion [N]-CA--CB-[CG] |==|  0.84085
USER: genes 4 Torsion [CA]-CB--CG-[CD] |==|  0.25095
USER: genes 5 Torsion [CB]-CG--CD-[OE2] |==|  0.53717
USER: genes 6 Torsion [N]-CA--C-[N] |==|  0.40077
USER: genes 7 Torsion [C]-N--CA-[CB] |==|  0.22049
USER: genes 8 Torsion [N]-CA--CB-[CG2] |==|  0.49568
USER: genes 9 Torsion [CA]-CB--OG1-[HG1] |==|  0.22836
USER: genes 10 Torsion [N]-CA--C-[N] |==|  0.35755
USER: genes 11 Torsion [C]-N--CA-[C] |==|  0.80556
USER: genes 12 Torsion [N]-CA--C-[N] |==|  0.38562
USER: genes 13 Torsion [C]-N--CA-[CB] |==|  0.29998
USER: genes 14 Torsion [N]-CA--CB-[CG2] |==|  0.04968
USER: genes 15 Torsion [N]-CA--C-[OXT] |==|  0.93634
USER: genes 16 Torsion [N]-CA--CB-[CG] |==|  0.61356
USER: genes 17 Torsion [CA]-CB--CG-[CD] |==|  0.70620
USER: genes 18 Torsion [CB]-CG--CD-[OE1] |==|  0.69681
USER: genes 19 Torsion [N]-C--CA-[N] |==|  0.35740
USER: genes 20 Torsion [C]-CA--CB-[CG] |==|  0.40410
USER: genes 21 Torsion [CA]-CB--CG-[CD] |==|  0.64660
USER: genes 22 Torsion [CB]-CG--CD-[NE] |==|  0.72995
USER: genes 23 Torsion [CG]-CD--NE-[HE] |==|  0.09719
USER: genes 24 Torsion [C]-CA--N-[C] |==|  0.74682
USER: genes 25 Torsion [N]-C--CA-[N] |==|  0.61216
USER: genes 26 Torsion [C]-CA--N-[H2] |==|  0.76706
USER: genes 27 Torsion [C]-CA--CB-[CG] |==|  0.81055
USER: genes 28 Torsion [CA]-CB--CG-[CD] |==|  0.55558
USER: genes 29 Torsion [CB]-CG--CD-[NE] |==|  0.54951
USER: genes 30 Torsion [CG]-CD--NE-[CZ] |==|  0.55157
ROOT
ATOM      1  C   ARG C   2      20.056  18.803  22.759  1.00 17.64 LIG 0.24  C 
ATOM      2 O    ARG C   2      20.003  19.684  21.896  1.00 18.48 LIG-0.27  OA
ATOM      3  N   GLU C   3      20.927  18.836  23.762  1.00 16.82 LIG-0.35  N 
ATOM      4 H    GLU C   3      20.980  18.237  24.377  1.00 16.82 LIG 0.16  HD
ENDROOT
BRANCH 3 5
ATOM      5  CA  GLU C   3      21.886  19.929  23.892  1.00 17.00 LIG 0.18  C 
BRANCH 5 6
ATOM      6  CB  GLU C   3      21.399  20.950  24.932  1.00 16.91 LIG 0.04  C 
BRANCH 6 7
ATOM      7  CG  GLU C   3      20.022  21.529  24.608  1.00 19.77 LIG 0.12  C 
BRANCH 7 8
ATOM      8  CD  GLU C   3      18.886  20.729  25.218  1.00 23.53 LIG 0.17  C 
ATOM      9 OE2  GLU C   3      17.724  20.947  24.824  1.00 22.35 LIG-0.65  OA
ATOM     10 OE1  GLU C   3      19.158  19.886  26.093  1.00 28.80 LIG-0.65  OA
ENDBRANCH 7 8
ENDBRANCH 6 7
ENDBRANCH 5 6
BRANCH 5 11
ATOM     11  C   GLU C   3      23.225  19.346  24.318  1.00 16.25 LIG 0.24  C 
ATOM     12  N   THR C   4      24.326  19.920  23.824  1.00 14.90 LIG-0.34  N 
ATOM     13 H    THR C   4      24.318  20.616  23.319  1.00 14.90 LIG 0.16  HD
ATOM     14 O    GLU C   3      23.254  18.379  25.083  1.00 19.18 LIG-0.27  OA
BRANCH 12 15
ATOM     15  CA  THR C   4      25.656  19.397  24.109  1.00 14.85 LIG 0.20  C 
BRANCH 15 16
ATOM     16  CB  THR C   4      25.960  18.186  23.223  1.00 16.75 LIG 0.15  C 
ATOM     17  CG2 THR C   4      27.366  17.661  23.493  1.00 16.70 LIG 0.04  C 
BRANCH 16 18
ATOM     18 OG1  THR C   4      24.995  17.162  23.484  1.00 17.36 LIG-0.39  OA
ATOM     19 HG1  THR C   4      24.295  17.318  23.047  1.00 17.36 LIG 0.21  HD
ENDBRANCH 16 18
ENDBRANCH 15 16
BRANCH 15 20
ATOM     20  C   THR C   4      26.707  20.470  23.868  1.00 14.69 LIG 0.24  C 
ATOM     21  N   GLN C   5      27.572  20.688  24.856  1.00 15.36 LIG-0.35  N 
ATOM     22 H    GLN C   5      27.499  20.352  25.644  1.00 15.36 LIG 0.16  HD
ATOM     23 O    THR C   4      26.737  21.085  22.797  1.00 15.54 LIG-0.27  OA
BRANCH 21 24
ATOM     24  CA  GLN C   5      28.741  21.536  24.669  1.00 16.48 LIG 0.18  C 
BRANCH 24 25
ATOM     25  C   GLN C   5      29.734  20.845  23.749  1.00 17.30 LIG 0.24  C 
ATOM     26 O    GLN C   5      29.980  19.638  23.880  1.00 19.53 LIG-0.27  OA
ATOM     27  N   VAL C   6      30.332  21.613  22.843  1.00 16.49 LIG-0.34  N 
ATOM     28 H    VAL C   6      30.165  22.450  22.741  1.00 16.49 LIG 0.16  HD
BRANCH 27 29
ATOM     29  CA  VAL C   6      31.343  21.088  21.928  1.00 18.07 LIG 0.19  C 
BRANCH 29 30
ATOM     30  CB  VAL C   6      30.806  20.979  20.488  1.00 20.19 LIG 0.01  C 
ATOM     31  CG1 VAL C   6      30.512  19.535  20.127  1.00 23.48 LIG 0.01  C 
ATOM     32  CG2 VAL C   6      29.559  21.835  20.316  1.00 21.65 LIG 0.01  C 
ENDBRANCH 29 30
BRANCH 29 33
ATOM     33  C   VAL C   6      32.609  21.934  21.953  1.00 18.86 LIG 0.20  C 
ATOM     34 O    VAL C   6      33.708  21.454  21.618  1.00 20.67 LIG-0.65  OA
ATOM     35 OXT  VAL C   6      32.550  23.117  22.331  1.00 19.38 LIG-0.65  OA
ENDBRANCH 29 33
ENDBRANCH 27 29
ENDBRANCH 24 25
BRANCH 24 36
ATOM     36  CB  GLN C   5      29.415  21.799  26.016  1.00 21.66 LIG 0.04  C 
BRANCH 36 37
ATOM     37  CG  GLN C   5      29.908  23.220  26.223  1.00 28.10 LIG 0.10  C 
BRANCH 37 38
ATOM     38  CD  GLN C   5      31.423  23.333  26.117  1.00 33.44 LIG 0.21  C 
ATOM     39  NE2 GLN C   5      31.945  23.184  24.905  1.00 35.38 LIG-0.37  N 
ATOM     40 21HE GLN C   5      31.432  23.034  24.231  1.00 35.38 LIG 0.16  HD
ATOM     41 22HE GLN C   5      32.796  23.238  24.794  1.00 35.38 LIG 0.16  HD
ATOM     42 OE1  GLN C   5      32.111  23.548  27.116  1.00 34.39 LIG-0.27  OA
ENDBRANCH 37 38
ENDBRANCH 36 37
ENDBRANCH 24 36
ENDBRANCH 21 24
ENDBRANCH 15 20
ENDBRANCH 12 15
ENDBRANCH 5 11
ENDBRANCH 3 5
BRANCH 1 43
ATOM     43  CA  ARG C   2      19.128  17.593  22.694  1.00 18.81 LIG 0.18  C 
BRANCH 43 44
ATOM     44  CB  ARG C   2      19.504  16.722  21.499  1.00 19.04 LIG 0.04  C 
BRANCH 44 45
ATOM     45  CG  ARG C   2      19.305  15.244  21.766  1.00 18.27 LIG 0.02  C 
BRANCH 45 46
ATOM     46  CD  ARG C   2      20.573  14.477  21.453  1.00 20.59 LIG 0.14  C 
BRANCH 46 47
ATOM     47  NE  ARG C   2      20.515  13.892  20.117  1.00 21.96 LIG-0.23  N 
ATOM     48 HE   ARG C   2      20.108  14.335  19.502  1.00 21.96 LIG 0.18  HD
ATOM     49  CZ  ARG C   2      21.048  12.719  19.789  1.00 22.93 LIG 0.67  C 
ATOM     50  NH2 ARG C   2      20.949  12.270  18.548  1.00 24.61 LIG-0.23  N 
ATOM     51  NH1 ARG C   2      21.679  11.996  20.704  1.00 22.65 LIG-0.23  N 
ATOM     52 1HH2 ARG C   2      20.539  12.737  17.954  1.00 24.61 LIG 0.17  HD
ATOM     53 2HH2 ARG C   2      21.294  11.511  18.336  1.00 24.61 LIG 0.17  HD
ATOM     54 1HH1 ARG C   2      21.744  12.286  21.511  1.00 22.65 LIG 0.17  HD
ATOM     55 2HH1 ARG C   2      22.024  11.238  20.491  1.00 22.65 LIG 0.17  HD
ENDBRANCH 46 47
ENDBRANCH 45 46
ENDBRANCH 44 45
ENDBRANCH 43 44
BRANCH 43 56
ATOM     56  N   ARG C   2      17.742  18.032  22.572  1.00 21.07 LIG-0.35  N 
ATOM     57  C   ARG C   1      16.992  18.228  23.653  1.00 27.96 LIG 0.25  C 
ATOM     58 O    ARG C   1      17.393  18.012  24.796  1.00 30.47 LIG-0.27  OA
ATOM     59 H    ARG C   2      17.470  18.147  21.764  1.00 21.07 LIG 0.16  HD
BRANCH 57 60
ATOM     60  CA  ARG C   1      15.579  18.750  23.422  1.00 31.07 LIG 0.27  C 
BRANCH 60 61
ATOM     61  N   ARG C   1      15.221  19.753  24.424  1.00 32.37 LIG-0.07  N 
ATOM     62 H2   ARG C   1      14.925  19.346  25.159  1.00 32.37 LIG 0.28  HD
ATOM     63 H1   ARG C   1      14.581  20.281  24.100  1.00 32.37 LIG 0.28  HD
ATOM     64 H3   ARG C   1      15.936  20.242  24.624  1.00 32.37 LIG 0.28  HD
ENDBRANCH 60 61
BRANCH 60 65
ATOM     65  CB  ARG C   1      15.481  19.325  22.008  1.00 35.21 LIG 0.04  C 
BRANCH 65 66
ATOM     66  CG  ARG C   1      16.299  20.599  21.817  1.00 38.18 LIG 0.02  C 
BRANCH 66 67
ATOM     67  CD  ARG C   1      15.830  21.410  20.619  1.00 40.83 LIG 0.14  C 
BRANCH 67 68
ATOM     68  NE  ARG C   1      16.837  22.375  20.188  1.00 41.61 LIG-0.23  N 
ATOM     69  CZ  ARG C   1      16.580  23.430  19.422  1.00 42.69 LIG 0.67  C 
ATOM     70  NH1 ARG C   1      15.343  23.660  18.995  1.00 43.45 LIG-0.23  N 
ATOM     71  NH2 ARG C   1      17.560  24.258  19.084  1.00 42.77 LIG-0.23  N 
ATOM     72 1HH1 ARG C   1      14.706  23.125  19.214  1.00 43.45 LIG 0.17  HD
ATOM     73 2HH1 ARG C   1      15.179  24.343  18.499  1.00 43.45 LIG 0.17  HD
ATOM     74 1HH2 ARG C   1      18.362  24.112  19.361  1.00 42.77 LIG 0.17  HD
ATOM     75 2HH2 ARG C   1      17.394  24.941  18.588  1.00 42.77 LIG 0.17  HD
ATOM     76 HE   ARG C   1      17.648  22.252  20.446  1.00 41.61 LIG 0.18  HD
ENDBRANCH 67 68
ENDBRANCH 66 67
ENDBRANCH 65 66
ENDBRANCH 60 65
ENDBRANCH 57 60
ENDBRANCH 43 56
ENDBRANCH 1 43
TORSDOF 29
ENDMDL
MODEL 5
USER: ADFR SOLUTION from run 46
USER: SCORE 18.995996 LL:  -5.465 LR: -15.663 RR:   0.000 FEB:  -7.013
USER: RMSD 2.223188
USER: SEED 45
USER: STATUS searching
USER: GENES 31
USER: genes 0 Translation |==|  0.33945 0.50362 0.33694
USER: genes 1 Rotation |==|  0.54828 0.46080 0.49385 0.99608
USER: genes 2 Torsion [C]-N--CA-[CB] |==|  0.25436
USER: genes 3 Torsion [N]-CA--CB-[CG] |==|  0.53010
USER: genes 4 Torsion [CA]-CB--CG-[CD] |==|  0.43348
USER: genes 5 Torsion [CB]-CG--CD-[OE2] |==|  0.50210
USER: genes 6 Torsion [N]-CA--C-[N] |==|  0.40861
USER: genes 7 Torsion [C]-N--CA-[CB] |==|  0.22843
USER: genes 8 Torsion [N]-CA--CB-[CG2] |==|  0.44634
USER: genes 9 Torsion [CA]-CB--OG1-[HG1] |==|  0.22416
USER: genes 10 Torsion [N]-CA--C-[N] |==|  0.40575
USER: genes 11 Torsion [C]-N--CA-[C] |==|  0.79047
USER: genes 12 Torsion [N]-CA--C-[N] |==|  0.39147
USER: genes 13 Torsion [C]-N--CA-[CB] |==|  0.26751
USER: genes 14 Torsion [N]-CA--CB-[CG2] |==|  0.02887
USER: genes 15 Torsion [N]-CA--C-[OXT] |==|  0.36800
USER: genes 16 Torsion [N]-CA--CB-[CG] |==|  0.54233
USER: genes 17 Torsion [CA]-CB--CG-[CD] |==|  0.20156
USER: genes 18 Torsion [CB]-CG--CD-[OE1] |==|  0.33648
USER: genes 19 Torsion [N]-C--CA-[N] |==|  0.47120
USER: genes 20 Torsion [C]-CA--CB-[CG] |==|  0.20436
USER: genes 21 Torsion [CA]-CB--CG-[CD] |==|  0.31396
USER: genes 22 Torsion [CB]-CG--CD-[NE] |==|  0.25327
USER: genes 23 Torsion [CG]-CD--NE-[HE] |==|  0.26232
USER: genes 24 Torsion [C]-CA--N-[C] |==|  0.75003
USER: genes 25 Torsion [N]-C--CA-[N] |==|  0.33244
USER: genes 26 Torsion [C]-CA--N-[H2] |==|  0.34986
USER: genes 27 Torsion [C]-CA--CB-[CG] |==|  0.11817
USER: genes 28 Torsion [CA]-CB--CG-[CD] |==|  0.65610
USER: genes 29 Torsion [CB]-CG--CD-[NE] |==|  0.24555
USER: genes 30 Torsion [CG]-CD--NE-[CZ] |==|  0.42387
ROOT
ATOM      1  C   ARG C   2      19.855  19.669  22.685  1.00 17.64 LIG 0.24  C 
ATOM      2 O    ARG C   2      19.836  20.700  22.004  1.00 18.48 LIG-0.27  OA
ATOM      3  N   GLU C   3      20.784  19.437  23.605  1.00 16.82 LIG-0.35  N 
ATOM      4 H    GLU C   3      20.816  18.730  24.094  1.00 16.82 LIG 0.16  HD
ENDROOT
BRANCH 3 5
ATOM      5  CA  GLU C   3      21.852  20.399  23.858  1.00 17.00 LIG 0.18  C 
BRANCH 5 6
ATOM      6  CB  GLU C   3      21.442  21.379  24.969  1.00 16.91 LIG 0.04  C 
BRANCH 6 7
ATOM      7  CG  GLU C   3      22.395  22.567  25.105  1.00 19.77 LIG 0.12  C 
BRANCH 7 8
ATOM      8  CD  GLU C   3      21.740  23.780  25.741  1.00 23.53 LIG 0.17  C 
ATOM      9 OE2  GLU C   3      22.418  24.814  25.890  1.00 22.35 LIG-0.65  OA
ATOM     10 OE1  GLU C   3      20.549  23.693  26.093  1.00 28.80 LIG-0.65  OA
ENDBRANCH 7 8
ENDBRANCH 6 7
ENDBRANCH 5 6
BRANCH 5 11
ATOM     11  C   GLU C   3      23.102  19.635  24.268  1.00 16.25 LIG 0.24  C 
ATOM     12  N   THR C   4      24.280  20.152  23.907  1.00 14.90 LIG-0.34  N 
ATOM     13 H    THR C   4      24.369  20.903  23.498  1.00 14.90 LIG 0.16  HD
ATOM     14 O    GLU C   3      22.993  18.582  24.901  1.00 19.18 LIG-0.27  OA
BRANCH 12 15
ATOM     15  CA  THR C   4      25.535  19.465  24.186  1.00 14.85 LIG 0.20  C 
BRANCH 15 16
ATOM     16  CB  THR C   4      25.812  18.397  23.125  1.00 16.75 LIG 0.15  C 
ATOM     17  CG2 THR C   4      27.288  18.015  23.118  1.00 16.70 LIG 0.04  C 
BRANCH 16 18
ATOM     18 OG1  THR C   4      25.009  17.245  23.400  1.00 17.36 LIG-0.39  OA
ATOM     19 HG1  THR C   4      24.229  17.371  23.112  1.00 17.36 LIG 0.21  HD
ENDBRANCH 16 18
ENDBRANCH 15 16
BRANCH 15 20
ATOM     20  C   THR C   4      26.687  20.459  24.208  1.00 14.69 LIG 0.24  C 
ATOM     21  N   GLN C   5      27.674  20.207  25.064  1.00 15.36 LIG-0.35  N 
ATOM     22 H    GLN C   5      27.642  19.600  25.671  1.00 15.36 LIG 0.16  HD
ATOM     23 O    THR C   4      26.682  21.436  23.451  1.00 15.54 LIG-0.27  OA
BRANCH 21 24
ATOM     24  CA  GLN C   5      28.917  20.964  25.034  1.00 16.48 LIG 0.18  C 
BRANCH 24 25
ATOM     25  C   GLN C   5      29.767  20.509  23.858  1.00 17.30 LIG 0.24  C 
ATOM     26 O    GLN C   5      29.851  19.307  23.570  1.00 19.53 LIG-0.27  OA
ATOM     27  N   VAL C   6      30.425  21.460  23.202  1.00 16.49 LIG-0.34  N 
ATOM     28 H    VAL C   6      30.369  22.297  23.392  1.00 16.49 LIG 0.16  HD
BRANCH 27 29
ATOM     29  CA  VAL C   6      31.314  21.157  22.084  1.00 18.07 LIG 0.19  C 
BRANCH 29 30
ATOM     30  CB  VAL C   6      30.602  21.323  20.728  1.00 20.19 LIG 0.01  C 
ATOM     31  CG1 VAL C   6      30.432  19.984  20.037  1.00 23.48 LIG 0.01  C 
ATOM     32  CG2 VAL C   6      29.250  22.001  20.914  1.00 21.65 LIG 0.01  C 
ENDBRANCH 29 30
BRANCH 29 33
ATOM     33  C   VAL C   6      32.571  22.016  22.124  1.00 18.86 LIG 0.20  C 
ATOM     34 O    VAL C   6      32.500  23.249  22.289  1.00 20.67 LIG-0.65  OA
ATOM     35 OXT  VAL C   6      33.684  21.484  21.974  1.00 19.38 LIG-0.65  OA
ENDBRANCH 29 33
ENDBRANCH 27 29
ENDBRANCH 24 25
BRANCH 24 36
ATOM     36  CB  GLN C   5      29.699  20.734  26.327  1.00 21.66 LIG 0.04  C 
BRANCH 36 37
ATOM     37  CG  GLN C   5      30.820  21.725  26.588  1.00 28.10 LIG 0.10  C 
BRANCH 37 38
ATOM     38  CD  GLN C   5      30.301  23.100  26.988  1.00 33.44 LIG 0.21  C 
ATOM     39  NE2 GLN C   5      29.505  23.710  26.117  1.00 35.38 LIG-0.37  N 
ATOM     40 21HE GLN C   5      29.307  23.326  25.373  1.00 35.38 LIG 0.16  HD
ATOM     41 22HE GLN C   5      29.187  24.488  26.297  1.00 35.38 LIG 0.16  HD
ATOM     42 OE1  GLN C   5      30.616  23.603  28.067  1.00 34.39 LIG-0.27  OA
ENDBRANCH 37 38
ENDBRANCH 36 37
ENDBRANCH 24 36
ENDBRANCH 21 24
ENDBRANCH 15 20
ENDBRANCH 12 15
ENDBRANCH 5 11
ENDBRANCH 3 5
BRANCH 1 43
ATOM     43  CA  ARG C   2      18.810  18.577  22.472  1.00 18.81 LIG 0.18  C 
BRANCH 43 44
ATOM     44  CB  ARG C   2      19.464  17.361  21.823  1.00 19.04 LIG 0.04  C 
BRANCH 44 45
ATOM     45  CG  ARG C   2      20.337  16.583  22.785  1.00 18.27 LIG 0.02  C 
BRANCH 45 46
ATOM     46  CD  ARG C   2      19.738  15.218  23.056  1.00 20.59 LIG 0.14  C 
BRANCH 46 47
ATOM     47  NE  ARG C   2      20.250  14.225  22.117  1.00 21.96 LIG-0.23  N 
ATOM     48 HE   ARG C   2      20.928  13.754  22.359  1.00 21.96 LIG 0.18  HD
ATOM     49  CZ  ARG C   2      19.737  14.001  20.910  1.00 22.93 LIG 0.67  C 
ATOM     50  NH2 ARG C   2      20.268  13.075  20.127  1.00 24.61 LIG-0.23  N 
ATOM     51  NH1 ARG C   2      18.697  14.706  20.488  1.00 22.65 LIG-0.23  N 
ATOM     52 1HH2 ARG C   2      20.943  12.618  20.399  1.00 24.61 LIG 0.17  HD
ATOM     53 2HH2 ARG C   2      19.936  12.930  19.347  1.00 24.61 LIG 0.17  HD
ATOM     54 1HH1 ARG C   2      18.352  15.309  20.995  1.00 22.65 LIG 0.17  HD
ATOM     55 2HH1 ARG C   2      18.366  14.560  19.708  1.00 22.65 LIG 0.17  HD
ENDBRANCH 46 47
ENDBRANCH 45 46
ENDBRANCH 44 45
ENDBRANCH 43 44
BRANCH 43 56
ATOM     56  N   ARG C   2      17.734  19.074  21.623  1.00 21.07 LIG-0.35  N 
ATOM     57  C   ARG C   1      16.666  19.667  22.151  1.00 27.96 LIG 0.25  C 
ATOM     58 O    ARG C   1      16.499  19.788  23.364  1.00 30.47 LIG-0.27  OA
ATOM     59 H    ARG C   2      17.853  18.952  20.779  1.00 21.07 LIG 0.16  HD
BRANCH 57 60
ATOM     60  CA  ARG C   1      15.630  20.210  21.176  1.00 31.07 LIG 0.27  C 
BRANCH 60 61
ATOM     61  N   ARG C   1      14.331  19.570  21.382  1.00 32.37 LIG-0.07  N 
ATOM     62 H2   ARG C   1      13.709  20.195  21.506  1.00 32.37 LIG 0.28  HD
ATOM     63 H1   ARG C   1      14.370  19.043  22.099  1.00 32.37 LIG 0.28  HD
ATOM     64 H3   ARG C   1      14.123  19.083  20.667  1.00 32.37 LIG 0.28  HD
ENDBRANCH 60 61
BRANCH 60 65
ATOM     65  CB  ARG C   1      15.529  21.727  21.341  1.00 35.21 LIG 0.04  C 
BRANCH 65 66
ATOM     66  CG  ARG C   1      16.886  22.408  21.491  1.00 38.18 LIG 0.02  C 
BRANCH 66 67
ATOM     67  CD  ARG C   1      16.980  23.230  22.768  1.00 40.83 LIG 0.14  C 
BRANCH 67 68
ATOM     68  NE  ARG C   1      17.447  22.431  23.896  1.00 41.61 LIG-0.23  N 
ATOM     69  CZ  ARG C   1      18.104  22.926  24.941  1.00 42.69 LIG 0.67  C 
ATOM     70  NH1 ARG C   1      18.377  24.224  25.003  1.00 43.45 LIG-0.23  N 
ATOM     71  NH2 ARG C   1      18.486  22.122  25.924  1.00 42.77 LIG-0.23  N 
ATOM     72 1HH1 ARG C   1      18.129  24.747  24.367  1.00 43.45 LIG 0.17  HD
ATOM     73 2HH1 ARG C   1      18.802  24.542  25.679  1.00 43.45 LIG 0.17  HD
ATOM     74 1HH2 ARG C   1      18.309  21.281  25.886  1.00 42.77 LIG 0.17  HD
ATOM     75 2HH2 ARG C   1      18.911  22.442  26.600  1.00 42.77 LIG 0.17  HD
ATOM     76 HE   ARG C   1      17.288  21.586  23.884  1.00 41.61 LIG 0.18  HD
ENDBRANCH 67 68
ENDBRANCH 66 67
ENDBRANCH 65 66
ENDBRANCH 60 65
ENDBRANCH 57 60
ENDBRANCH 43 56
ENDBRANCH 1 43
TORSDOF 29
ENDMDL
