MODEL 1
USER: ADFR SOLUTION from run 113
USER: SCORE 23.255232 LL:  -3.646 LR: -22.363 RR:   0.000 FEB: -14.607
USER: RMSD 1.481602
USER: SEED 112
USER: STATUS no improvement in best in 2 clusters for 5 generations
USER: GENES 28
USER: genes 0 Translation |==|  0.44271 0.43262 0.55217
USER: genes 1 Rotation |==|  0.49100 0.49324 0.49182 0.99981
USER: genes 2 Torsion [N]-C--CA-[N] |==|  0.36633
USER: genes 3 Torsion [C]-CA--N-[C] |==|  0.70033
USER: genes 4 Torsion [N]-C--CA-[N] |==|  0.39170
USER: genes 5 Torsion [C]-CA--N-[C] |==|  0.81603
USER: genes 6 Torsion [N]-C--CA-[N] |==|  0.42382
USER: genes 7 Torsion [C]-CA--N-[H2] |==|  0.65840
USER: genes 8 Torsion [C]-CA--CB-[OG] |==|  0.59651
USER: genes 9 Torsion [CA]-CB--OG-[HG] |==|  0.93514
USER: genes 10 Torsion [C]-CA--CB-[CG] |==|  0.21907
USER: genes 11 Torsion [CA]-CB--CG-[OD2] |==|  0.27682
USER: genes 12 Torsion [C]-CA--CB-[CG] |==|  0.46173
USER: genes 13 Torsion [CA]-CB--CG-[CD] |==|  0.68535
USER: genes 14 Torsion [CB]-CG--CD-[OE2] |==|  0.32919
USER: genes 15 Torsion [C]-N--CA-[CB] |==|  0.45556
USER: genes 16 Torsion [N]-CA--CB-[OG] |==|  0.99087
USER: genes 17 Torsion [CA]-CB--OG-[HG] |==|  0.09215
USER: genes 18 Torsion [N]-CA--C-[N] |==|  0.35597
USER: genes 19 Torsion [C]-N--CA-[CB] |==|  0.46763
USER: genes 20 Torsion [N]-CA--C-[N] |==|  0.90903
USER: genes 21 Torsion [C]-N--CA-[C] |==|  0.82462
USER: genes 22 Torsion [N]-CA--C-[O] |==|  0.87866
USER: genes 23 Torsion [N]-CA--CB-[CG] |==|  0.46508
USER: genes 24 Torsion [CA]-CB--CG-[CD] |==|  0.21830
USER: genes 25 Torsion [CB]-CG--CD-[CE] |==|  0.57432
USER: genes 26 Torsion [CG]-CD--CE-[NZ] |==|  0.46758
USER: genes 27 Torsion [CD]-CE--NZ-[HZ2] |==|  0.06621
ROOT
ATOM      1  C   GLU C   3      43.765  30.726  21.469  1.00 22.71 LIG 0.24  C 
ATOM      2 O    GLU C   3      43.324  31.731  22.027  1.00 20.88 LIG-0.27  OA
ATOM      3  N   SER C   4      44.988  30.248  21.682  1.00 24.79 LIG-0.34  N 
ATOM      4 H    SER C   4      45.274  29.505  21.356  1.00 24.79 LIG 0.16  HD
ENDROOT
BRANCH 1 5
ATOM      5  CA  GLU C   3      42.918  29.983  20.454  1.00 22.43 LIG 0.18  C 
BRANCH 5 6
ATOM      6  N   GLU C   3      41.584  29.717  20.978  1.00 20.46 LIG-0.35  N 
ATOM      7  C   ASP C   2      41.156  28.514  21.344  1.00 20.25 LIG 0.24  C 
ATOM      8 O    ASP C   2      41.874  27.515  21.389  1.00 19.04 LIG-0.27  OA
ATOM      9 H    GLU C   3      41.092  30.420  21.028  1.00 20.46 LIG 0.16  HD
BRANCH 7 10
ATOM     10  CA  ASP C   2      39.685  28.439  21.761  1.00 20.64 LIG 0.19  C 
BRANCH 10 11
ATOM     11  N   ASP C   2      39.048  27.208  21.285  1.00 19.34 LIG-0.34  N 
ATOM     12  C   SER C   1      38.860  26.962  19.988  1.00 18.84 LIG 0.25  C 
ATOM     13 O    SER C   1      39.072  27.786  19.108  1.00 16.35 LIG-0.27  OA
ATOM     14 H    ASP C   2      38.812  26.668  21.912  1.00 19.34 LIG 0.16  HD
BRANCH 12 15
ATOM     15  CA  SER C   1      38.354  25.564  19.626  1.00 19.55 LIG 0.30  C 
BRANCH 15 16
ATOM     16  N   SER C   1      37.583  25.580  18.358  1.00 19.33 LIG-0.06  N 
ATOM     17 H1   SER C   1      37.998  25.080  17.751  1.00 19.33 LIG 0.28  HD
ATOM     18 H2   SER C   1      36.767  25.254  18.502  1.00 19.33 LIG 0.28  HD
ATOM     19 H3   SER C   1      37.519  26.417  18.060  1.00 19.33 LIG 0.28  HD
ENDBRANCH 15 16
BRANCH 15 20
ATOM     20  CB  SER C   1      39.539  24.604  19.497  1.00 20.63 LIG 0.21  C 
BRANCH 20 21
ATOM     21 OG   SER C   1      39.303  23.645  18.481  1.00 22.73 LIG-0.40  OA
ATOM     22 HG   SER C   1      38.476  23.565  18.358  1.00 22.73 LIG 0.21  HD
ENDBRANCH 20 21
ENDBRANCH 15 20
ENDBRANCH 12 15
ENDBRANCH 10 11
BRANCH 10 23
ATOM     23  CB  ASP C   2      39.611  28.557  23.286  1.00 22.15 LIG 0.15  C 
BRANCH 23 24
ATOM     24  CG  ASP C   2      39.749  29.972  23.766  1.00 25.02 LIG 0.17  C 
ATOM     25 OD2  ASP C   2      38.702  30.596  24.068  1.00 28.35 LIG-0.65  OA
ATOM     26 OD1  ASP C   2      40.909  30.442  23.888  1.00 26.75 LIG-0.65  OA
ENDBRANCH 23 24
ENDBRANCH 10 23
ENDBRANCH 7 10
ENDBRANCH 5 6
BRANCH 5 27
ATOM     27  CB  GLU C   3      42.822  30.880  19.217  1.00 23.87 LIG 0.04  C 
BRANCH 27 28
ATOM     28  CG  GLU C   3      42.300  30.218  17.957  1.00 26.88 LIG 0.12  C 
BRANCH 28 29
ATOM     29  CD  GLU C   3      43.351  30.120  16.877  1.00 28.35 LIG 0.17  C 
ATOM     30 OE2  GLU C   3      43.680  28.988  16.486  1.00 30.85 LIG-0.65  OA
ATOM     31 OE1  GLU C   3      43.859  31.168  16.432  1.00 32.46 LIG-0.65  OA
ENDBRANCH 28 29
ENDBRANCH 27 28
ENDBRANCH 5 27
ENDBRANCH 1 5
BRANCH 3 32
ATOM     32  CA  SER C   4      45.960  30.954  22.499  1.00 26.83 LIG 0.20  C 
BRANCH 32 33
ATOM     33  CB  SER C   4      47.120  30.045  22.913  1.00 27.54 LIG 0.20  C 
BRANCH 33 34
ATOM     34 OG   SER C   4      46.923  28.717  22.460  1.00 29.42 LIG-0.40  OA
ATOM     35 HG   SER C   4      46.515  28.728  21.726  1.00 29.42 LIG 0.21  HD
ENDBRANCH 33 34
ENDBRANCH 32 33
BRANCH 32 36
ATOM     36  C   SER C   4      46.493  32.127  21.704  1.00 29.03 LIG 0.24  C 
ATOM     37 O    SER C   4      46.943  31.977  20.566  1.00 28.27 LIG-0.27  OA
ATOM     38  N   LYS C   5      46.442  33.296  22.317  1.00 32.23 LIG-0.35  N 
ATOM     39 H    LYS C   5      46.030  33.432  23.059  1.00 32.23 LIG 0.16  HD
BRANCH 38 40
ATOM     40  CA  LYS C   5      47.090  34.461  21.772  1.00 36.96 LIG 0.18  C 
BRANCH 40 41
ATOM     41  C   LYS C   5      48.590  34.242  21.914  1.00 40.14 LIG 0.24  C 
ATOM     42 O    LYS C   5      49.378  34.720  21.084  1.00 43.61 LIG-0.27  OA
ATOM     43  N   GLY C   6      48.977  33.543  22.979  1.00 41.15 LIG-0.35  N 
ATOM     44 H    GLY C   6      48.445  33.296  23.608  1.00 41.15 LIG 0.16  HD
BRANCH 43 45
ATOM     45  CA  GLY C   6      50.363  33.129  23.171  1.00 42.92 LIG 0.21  C 
BRANCH 45 46
ATOM     46  C   GLY C   6      50.799  32.185  22.069  1.00 41.89 LIG 0.21  C 
ATOM     47 O    GLY C   6      50.060  31.280  21.697  1.00 45.47 LIG-0.29  OA
ENDBRANCH 45 46
ENDBRANCH 43 45
ENDBRANCH 40 41
BRANCH 40 48
ATOM     48  CB  LYS C   5      46.645  35.727  22.507  1.00 37.76 LIG 0.04  C 
BRANCH 48 49
ATOM     49  CG  LYS C   5      47.511  36.928  22.184  1.00 39.35 LIG 0.00  C 
BRANCH 49 50
ATOM     50  CD  LYS C   5      47.179  37.556  20.850  1.00 40.12 LIG 0.03  C 
BRANCH 50 51
ATOM     51  CE  LYS C   5      48.414  38.252  20.308  1.00 40.78 LIG 0.23  C 
BRANCH 51 52
ATOM     52  NZ  LYS C   5      48.226  38.639  18.893  1.00 41.17 LIG-0.08  N 
ATOM     53 HZ3  LYS C   5      48.628  39.418  18.742  1.00 41.17 LIG 0.27  HD
ATOM     54 HZ2  LYS C   5      47.357  38.716  18.719  1.00 41.17 LIG 0.27  HD
ATOM     55 HZ1  LYS C   5      48.579  38.015  18.364  1.00 41.17 LIG 0.27  HD
ENDBRANCH 51 52
ENDBRANCH 50 51
ENDBRANCH 49 50
ENDBRANCH 48 49
ENDBRANCH 40 48
ENDBRANCH 38 40
ENDBRANCH 32 36
ENDBRANCH 3 32
TORSDOF 26
ENDMDL
MODEL 2
USER: ADFR SOLUTION from run 179
USER: SCORE 22.533784 LL:  -2.870 LR: -21.958 RR:   0.000 FEB: -14.202
USER: RMSD 3.203313
USER: SEED 178
USER: STATUS no improvement in best in 2 clusters for 5 generations
USER: GENES 28
USER: genes 0 Translation |==|  0.44763 0.42962 0.56192
USER: genes 1 Rotation |==|  0.55560 0.52908 0.56291 0.99204
USER: genes 2 Torsion [N]-C--CA-[N] |==|  0.45419
USER: genes 3 Torsion [C]-CA--N-[C] |==|  0.72861
USER: genes 4 Torsion [N]-C--CA-[N] |==|  0.38917
USER: genes 5 Torsion [C]-CA--N-[C] |==|  0.77976
USER: genes 6 Torsion [N]-C--CA-[N] |==|  0.45112
USER: genes 7 Torsion [C]-CA--N-[H2] |==|  0.64337
USER: genes 8 Torsion [C]-CA--CB-[OG] |==|  0.09632
USER: genes 9 Torsion [CA]-CB--OG-[HG] |==|  0.15047
USER: genes 10 Torsion [C]-CA--CB-[CG] |==|  0.21419
USER: genes 11 Torsion [CA]-CB--CG-[OD2] |==|  0.25451
USER: genes 12 Torsion [C]-CA--CB-[CG] |==|  0.50014
USER: genes 13 Torsion [CA]-CB--CG-[CD] |==|  0.65010
USER: genes 14 Torsion [CB]-CG--CD-[OE2] |==|  0.30399
USER: genes 15 Torsion [C]-N--CA-[CB] |==|  0.29953
USER: genes 16 Torsion [N]-CA--CB-[OG] |==|  0.54076
USER: genes 17 Torsion [CA]-CB--OG-[HG] |==|  0.15869
USER: genes 18 Torsion [N]-CA--C-[N] |==|  0.52516
USER: genes 19 Torsion [C]-N--CA-[CB] |==|  0.53904
USER: genes 20 Torsion [N]-CA--C-[N] |==|  0.37671
USER: genes 21 Torsion [C]-N--CA-[C] |==|  0.52471
USER: genes 22 Torsion [N]-CA--C-[O] |==|  0.79823
USER: genes 23 Torsion [N]-CA--CB-[CG] |==|  0.98702
USER: genes 24 Torsion [CA]-CB--CG-[CD] |==|  0.27403
USER: genes 25 Torsion [CB]-CG--CD-[CE] |==|  0.48006
USER: genes 26 Torsion [CG]-CD--CE-[NZ] |==|  0.71360
USER: genes 27 Torsion [CD]-CE--NZ-[HZ2] |==|  0.90912
ROOT
ATOM      1  C   GLU C   3      43.891  30.657  21.630  1.00 22.71 LIG 0.24  C 
ATOM      2 O    GLU C   3      43.309  31.328  22.482  1.00 20.88 LIG-0.27  OA
ATOM      3  N   SER C   4      45.214  30.527  21.576  1.00 24.79 LIG-0.34  N 
ATOM      4 H    SER C   4      45.621  29.999  21.033  1.00 24.79 LIG 0.16  HD
ENDROOT
BRANCH 1 5
ATOM      5  CA  GLU C   3      43.101  29.950  20.546  1.00 22.43 LIG 0.18  C 
BRANCH 5 6
ATOM      6  N   GLU C   3      41.694  29.833  20.912  1.00 20.46 LIG-0.35  N 
ATOM      7  C   ASP C   2      41.155  28.744  21.448  1.00 20.25 LIG 0.24  C 
ATOM      8 O    ASP C   2      41.804  27.758  21.798  1.00 19.04 LIG-0.27  OA
ATOM      9 H    GLU C   3      41.240  30.543  20.747  1.00 20.46 LIG 0.16  HD
BRANCH 7 10
ATOM     10  CA  ASP C   2      39.638  28.794  21.652  1.00 20.64 LIG 0.19  C 
BRANCH 10 11
ATOM     11  N   ASP C   2      39.003  27.514  21.327  1.00 19.34 LIG-0.34  N 
ATOM     12  C   SER C   1      38.753  27.146  20.071  1.00 18.84 LIG 0.25  C 
ATOM     13 O    SER C   1      38.902  27.887  19.108  1.00 16.35 LIG-0.27  OA
ATOM     14 H    ASP C   2      38.811  27.032  22.013  1.00 19.34 LIG 0.16  HD
BRANCH 12 15
ATOM     15  CA  SER C   1      38.259  25.712  19.867  1.00 19.55 LIG 0.30  C 
BRANCH 15 16
ATOM     16  N   SER C   1      37.624  25.544  18.535  1.00 19.33 LIG-0.06  N 
ATOM     17 H1   SER C   1      38.133  25.018  18.029  1.00 19.33 LIG 0.28  HD
ATOM     18 H2   SER C   1      36.821  25.174  18.634  1.00 19.33 LIG 0.28  HD
ATOM     19 H3   SER C   1      37.538  26.339  18.145  1.00 19.33 LIG 0.28  HD
ENDBRANCH 15 16
BRANCH 15 20
ATOM     20  CB  SER C   1      39.430  24.737  20.008  1.00 20.63 LIG 0.21  C 
BRANCH 20 21
ATOM     21 OG   SER C   1      40.351  25.194  20.983  1.00 22.73 LIG-0.40  OA
ATOM     22 HG   SER C   1      39.947  25.336  21.705  1.00 22.73 LIG 0.21  HD
ENDBRANCH 20 21
ENDBRANCH 15 20
ENDBRANCH 12 15
ENDBRANCH 10 11
BRANCH 10 23
ATOM     23  CB  ASP C   2      39.363  29.207  23.101  1.00 22.15 LIG 0.15  C 
BRANCH 23 24
ATOM     24  CG  ASP C   2      39.555  30.678  23.333  1.00 25.02 LIG 0.17  C 
ATOM     25 OD2  ASP C   2      38.558  31.430  23.201  1.00 28.35 LIG-0.65  OA
ATOM     26 OD1  ASP C   2      40.692  31.072  23.696  1.00 26.75 LIG-0.65  OA
ENDBRANCH 23 24
ENDBRANCH 10 23
ENDBRANCH 7 10
ENDBRANCH 5 6
BRANCH 5 27
ATOM     27  CB  GLU C   3      43.238  30.795  19.276  1.00 23.87 LIG 0.04  C 
BRANCH 27 28
ATOM     28  CG  GLU C   3      42.517  30.271  18.050  1.00 26.88 LIG 0.12  C 
BRANCH 28 29
ATOM     29  CD  GLU C   3      43.434  30.126  16.858  1.00 28.35 LIG 0.17  C 
ATOM     30 OE2  GLU C   3      43.726  28.978  16.485  1.00 30.85 LIG-0.65  OA
ATOM     31 OE1  GLU C   3      43.874  31.153  16.306  1.00 32.46 LIG-0.65  OA
ENDBRANCH 28 29
ENDBRANCH 27 28
ENDBRANCH 5 27
ENDBRANCH 1 5
BRANCH 3 32
ATOM     32  CA  SER C   4      46.097  31.283  22.448  1.00 26.83 LIG 0.20  C 
BRANCH 32 33
ATOM     33  CB  SER C   4      46.727  30.394  23.524  1.00 27.54 LIG 0.20  C 
BRANCH 33 34
ATOM     34 OG   SER C   4      47.309  31.168  24.558  1.00 29.42 LIG-0.40  OA
ATOM     35 HG   SER C   4      46.727  31.672  24.893  1.00 29.42 LIG 0.21  HD
ENDBRANCH 33 34
ENDBRANCH 32 33
BRANCH 32 36
ATOM     36  C   SER C   4      47.186  31.907  21.603  1.00 29.03 LIG 0.24  C 
ATOM     37 O    SER C   4      47.138  31.875  20.371  1.00 28.27 LIG-0.27  OA
ATOM     38  N   LYS C   5      48.172  32.471  22.277  1.00 32.23 LIG-0.35  N 
ATOM     39 H    LYS C   5      48.162  32.599  23.127  1.00 32.23 LIG 0.16  HD
BRANCH 38 40
ATOM     40  CA  LYS C   5      49.371  32.926  21.621  1.00 36.96 LIG 0.18  C 
BRANCH 40 41
ATOM     41  C   LYS C   5      49.789  31.830  20.650  1.00 40.14 LIG 0.24  C 
ATOM     42 O    LYS C   5      49.755  30.638  20.991  1.00 43.61 LIG-0.27  OA
ATOM     43  N   GLY C   6      50.158  32.239  19.437  1.00 41.15 LIG-0.35  N 
ATOM     44 H    GLY C   6      50.089  33.052  19.165  1.00 41.15 LIG 0.16  HD
BRANCH 43 45
ATOM     45  CA  GLY C   6      50.721  31.324  18.451  1.00 42.92 LIG 0.21  C 
BRANCH 45 46
ATOM     46  C   GLY C   6      51.249  32.085  17.251  1.00 41.89 LIG 0.21  C 
ATOM     47 O    GLY C   6      50.476  32.594  16.448  1.00 45.47 LIG-0.29  OA
ENDBRANCH 45 46
ENDBRANCH 43 45
ENDBRANCH 40 41
BRANCH 40 48
ATOM     48  CB  LYS C   5      50.475  33.213  22.639  1.00 37.76 LIG 0.04  C 
BRANCH 48 49
ATOM     49  CG  LYS C   5      50.007  33.059  24.073  1.00 39.35 LIG 0.00  C 
BRANCH 49 50
ATOM     50  CD  LYS C   5      50.381  31.725  24.677  1.00 40.12 LIG 0.03  C 
BRANCH 50 51
ATOM     51  CE  LYS C   5      50.031  31.735  26.154  1.00 40.78 LIG 0.23  C 
BRANCH 51 52
ATOM     52  NZ  LYS C   5      51.242  31.918  26.984  1.00 41.17 LIG-0.08  N 
ATOM     53 HZ3  LYS C   5      51.402  32.788  27.087  1.00 41.17 LIG 0.27  HD
ATOM     54 HZ2  LYS C   5      51.938  31.535  26.583  1.00 41.17 LIG 0.27  HD
ATOM     55 HZ1  LYS C   5      51.116  31.543  27.781  1.00 41.17 LIG 0.27  HD
ENDBRANCH 51 52
ENDBRANCH 50 51
ENDBRANCH 49 50
ENDBRANCH 48 49
ENDBRANCH 40 48
ENDBRANCH 38 40
ENDBRANCH 32 36
ENDBRANCH 3 32
TORSDOF 26
ENDMDL
MODEL 3
USER: ADFR SOLUTION from run 10
USER: SCORE 22.316533 LL:  -4.179 LR: -20.419 RR:   0.000 FEB: -12.663
USER: RMSD 3.367312
USER: SEED 591281
USER: STATUS searching
USER: GENES 28
USER: genes 0 Translation |==|  0.44955 0.42932 0.54935
USER: genes 1 Rotation |==|  0.52146 0.49904 0.49232 0.99948
USER: genes 2 Torsion [N]-C--CA-[N] |==|  0.38313
USER: genes 3 Torsion [C]-CA--N-[C] |==|  0.74420
USER: genes 4 Torsion [N]-C--CA-[N] |==|  0.37622
USER: genes 5 Torsion [C]-CA--N-[C] |==|  0.79713
USER: genes 6 Torsion [N]-C--CA-[N] |==|  0.37984
USER: genes 7 Torsion [C]-CA--N-[H2] |==|  0.76996
USER: genes 8 Torsion [C]-CA--CB-[OG] |==|  0.54905
USER: genes 9 Torsion [CA]-CB--OG-[HG] |==|  0.16226
USER: genes 10 Torsion [C]-CA--CB-[CG] |==|  0.17668
USER: genes 11 Torsion [CA]-CB--CG-[OD2] |==|  0.25251
USER: genes 12 Torsion [C]-CA--CB-[CG] |==|  0.49088
USER: genes 13 Torsion [CA]-CB--CG-[CD] |==|  0.83759
USER: genes 14 Torsion [CB]-CG--CD-[OE2] |==|  0.23921
USER: genes 15 Torsion [C]-N--CA-[CB] |==|  0.38585
USER: genes 16 Torsion [N]-CA--CB-[OG] |==|  0.09816
USER: genes 17 Torsion [CA]-CB--OG-[HG] |==|  0.96488
USER: genes 18 Torsion [N]-CA--C-[N] |==|  0.53316
USER: genes 19 Torsion [C]-N--CA-[CB] |==|  0.88265
USER: genes 20 Torsion [N]-CA--C-[N] |==|  0.32781
USER: genes 21 Torsion [C]-N--CA-[C] |==|  0.79806
USER: genes 22 Torsion [N]-CA--C-[O] |==|  0.90080
USER: genes 23 Torsion [N]-CA--CB-[CG] |==|  0.82160
USER: genes 24 Torsion [CA]-CB--CG-[CD] |==|  0.30506
USER: genes 25 Torsion [CB]-CG--CD-[CE] |==|  0.45919
USER: genes 26 Torsion [CG]-CD--CE-[NZ] |==|  0.24504
USER: genes 27 Torsion [CD]-CE--NZ-[HZ2] |==|  0.76495
ROOT
ATOM      1  C   GLU C   3      43.939  30.650  21.422  1.00 22.71 LIG 0.24  C 
ATOM      2 O    GLU C   3      43.508  31.577  22.108  1.00 20.88 LIG-0.27  OA
ATOM      3  N   SER C   4      45.167  30.154  21.550  1.00 24.79 LIG-0.34  N 
ATOM      4 H    SER C   4      45.448  29.458  21.130  1.00 24.79 LIG 0.16  HD
ENDROOT
BRANCH 1 5
ATOM      5  CA  GLU C   3      43.073  30.032  20.343  1.00 22.43 LIG 0.18  C 
BRANCH 5 6
ATOM      6  N   GLU C   3      41.709  29.829  20.816  1.00 20.46 LIG-0.35  N 
ATOM      7  C   ASP C   2      41.277  28.705  21.377  1.00 20.25 LIG 0.24  C 
ATOM      8 O    ASP C   2      42.007  27.756  21.661  1.00 19.04 LIG-0.27  OA
ATOM      9 H    GLU C   3      41.202  30.513  20.697  1.00 20.46 LIG 0.16  HD
BRANCH 7 10
ATOM     10  CA  ASP C   2      39.781  28.664  21.700  1.00 20.64 LIG 0.19  C 
BRANCH 10 11
ATOM     11  N   ASP C   2      39.175  27.390  21.305  1.00 19.34 LIG-0.34  N 
ATOM     12  C   SER C   1      38.952  27.075  20.029  1.00 18.84 LIG 0.25  C 
ATOM     13 O    SER C   1      39.104  27.862  19.104  1.00 16.35 LIG-0.27  OA
ATOM     14 H    ASP C   2      38.980  26.874  21.965  1.00 19.34 LIG 0.16  HD
BRANCH 12 15
ATOM     15  CA  SER C   1      38.486  25.644  19.752  1.00 19.55 LIG 0.30  C 
BRANCH 15 16
ATOM     16  N   SER C   1      37.384  25.618  18.758  1.00 19.33 LIG-0.06  N 
ATOM     17 H1   SER C   1      37.353  24.817  18.370  1.00 19.33 LIG 0.28  HD
ATOM     18 H2   SER C   1      36.611  25.779  19.167  1.00 19.33 LIG 0.28  HD
ATOM     19 H3   SER C   1      37.528  26.242  18.139  1.00 19.33 LIG 0.28  HD
ENDBRANCH 15 16
BRANCH 15 20
ATOM     20  CB  SER C   1      39.663  24.809  19.242  1.00 20.63 LIG 0.21  C 
BRANCH 20 21
ATOM     21 OG   SER C   1      39.204  23.629  18.604  1.00 22.73 LIG-0.40  OA
ATOM     22 HG   SER C   1      38.699  23.835  17.966  1.00 22.73 LIG 0.21  HD
ENDBRANCH 20 21
ENDBRANCH 15 20
ENDBRANCH 12 15
ENDBRANCH 10 11
BRANCH 10 23
ATOM     23  CB  ASP C   2      39.605  28.932  23.198  1.00 22.15 LIG 0.15  C 
BRANCH 23 24
ATOM     24  CG  ASP C   2      40.067  30.302  23.601  1.00 25.02 LIG 0.17  C 
ATOM     25 OD2  ASP C   2      39.226  31.234  23.586  1.00 28.35 LIG-0.65  OA
ATOM     26 OD1  ASP C   2      41.258  30.433  23.981  1.00 26.75 LIG-0.65  OA
ENDBRANCH 23 24
ENDBRANCH 10 23
ENDBRANCH 7 10
ENDBRANCH 5 6
BRANCH 5 27
ATOM     27  CB  GLU C   3      43.073  31.008  19.162  1.00 23.87 LIG 0.04  C 
BRANCH 27 28
ATOM     28  CG  GLU C   3      42.323  30.553  17.926  1.00 26.88 LIG 0.12  C 
BRANCH 28 29
ATOM     29  CD  GLU C   3      42.854  29.252  17.374  1.00 28.35 LIG 0.17  C 
ATOM     30 OE2  GLU C   3      42.406  28.194  17.845  1.00 30.85 LIG-0.65  OA
ATOM     31 OE1  GLU C   3      43.726  29.285  16.483  1.00 32.46 LIG-0.65  OA
ENDBRANCH 28 29
ENDBRANCH 27 28
ENDBRANCH 5 27
ENDBRANCH 1 5
BRANCH 3 32
ATOM     32  CA  SER C   4      46.155  30.760  22.426  1.00 26.83 LIG 0.20  C 
BRANCH 32 33
ATOM     33  CB  SER C   4      46.960  29.705  23.188  1.00 27.54 LIG 0.20  C 
BRANCH 33 34
ATOM     34 OG   SER C   4      47.182  28.551  22.396  1.00 29.42 LIG-0.40  OA
ATOM     35 HG   SER C   4      46.690  28.579  21.715  1.00 29.42 LIG 0.21  HD
ENDBRANCH 33 34
ENDBRANCH 32 33
BRANCH 32 36
ATOM     36  C   SER C   4      47.090  31.602  21.585  1.00 29.03 LIG 0.24  C 
ATOM     37 O    SER C   4      46.831  31.866  20.409  1.00 28.27 LIG-0.27  OA
ATOM     38  N   LYS C   5      48.184  32.018  22.199  1.00 32.23 LIG-0.35  N 
ATOM     39 H    LYS C   5      48.321  31.938  23.044  1.00 32.23 LIG 0.16  HD
BRANCH 38 40
ATOM     40  CA  LYS C   5      49.257  32.654  21.479  1.00 36.96 LIG 0.18  C 
BRANCH 40 41
ATOM     41  C   LYS C   5      48.839  34.099  21.242  1.00 40.14 LIG 0.24  C 
ATOM     42 O    LYS C   5      47.820  34.361  20.584  1.00 43.61 LIG-0.27  OA
ATOM     43  N   GLY C   6      49.614  35.027  21.800  1.00 41.15 LIG-0.35  N 
ATOM     44 H    GLY C   6      50.261  34.849  22.337  1.00 41.15 LIG 0.16  HD
BRANCH 43 45
ATOM     45  CA  GLY C   6      49.425  36.450  21.541  1.00 42.92 LIG 0.21  C 
BRANCH 45 46
ATOM     46  C   GLY C   6      49.882  36.806  20.141  1.00 41.89 LIG 0.21  C 
ATOM     47 O    GLY C   6      50.853  36.248  19.643  1.00 45.47 LIG-0.29  OA
ENDBRANCH 45 46
ENDBRANCH 43 45
ENDBRANCH 40 41
BRANCH 40 48
ATOM     48  CB  LYS C   5      49.529  31.935  20.157  1.00 37.76 LIG 0.04  C 
BRANCH 48 49
ATOM     49  CG  LYS C   5      50.021  30.514  20.352  1.00 39.35 LIG 0.00  C 
BRANCH 49 50
ATOM     50  CD  LYS C   5      49.004  29.474  19.941  1.00 40.12 LIG 0.03  C 
BRANCH 50 51
ATOM     51  CE  LYS C   5      49.693  28.127  19.823  1.00 40.78 LIG 0.23  C 
BRANCH 51 52
ATOM     52  NZ  LYS C   5      49.695  27.418  21.122  1.00 41.17 LIG-0.08  N 
ATOM     53 HZ3  LYS C   5      48.939  27.594  21.558  1.00 41.17 LIG 0.27  HD
ATOM     54 HZ2  LYS C   5      50.387  27.692  21.609  1.00 41.17 LIG 0.27  HD
ATOM     55 HZ1  LYS C   5      49.760  26.541  20.982  1.00 41.17 LIG 0.27  HD
ENDBRANCH 51 52
ENDBRANCH 50 51
ENDBRANCH 49 50
ENDBRANCH 48 49
ENDBRANCH 40 48
ENDBRANCH 38 40
ENDBRANCH 32 36
ENDBRANCH 3 32
TORSDOF 26
ENDMDL
