MODEL 1
USER: ADFR SOLUTION from run 126
USER: SCORE 9.743372 LL:  -1.998 LR:  -8.102 RR:   0.000 FEB:  -4.522
USER: RMSD 4.003504
USER: SEED 125
USER: STATUS no improvement in best in 14 clusters for 5 generations
USER: GENES 14
USER: genes 0 Translation |==|  0.60489 0.64419 0.28982
USER: genes 1 Rotation |==|  0.39686 0.37021 0.37798 0.95566
USER: genes 2 Torsion [N]-CA--C-[N] |==|  0.06172
USER: genes 3 Torsion [C]-N--CA-[C] |==|  0.57397
USER: genes 4 Torsion [N]-CA--C-[O] |==|  0.15814
USER: genes 5 Torsion [N]-CA--CB-[CG] |==|  0.75740
USER: genes 6 Torsion [CA]-CB--CG-[CD2] |==|  0.89712
USER: genes 7 Torsion [C]-CA--CB-[CG] |==|  0.48529
USER: genes 8 Torsion [CA]-CB--CG-[CD1] |==|  0.81046
USER: genes 9 Torsion [C]-CA--N-[C] |==|  0.62463
USER: genes 10 Torsion [N]-C--CA-[N] |==|  0.25847
USER: genes 11 Torsion [C]-CA--N-[H2] |==|  0.92745
USER: genes 12 Torsion [C]-CA--CB-[OG] |==|  0.67949
USER: genes 13 Torsion [CA]-CB--OG-[HG] |==|  0.17439
ROOT
ATOM      1  CA  PHE C   1     111.305 175.791  56.141  1.00 43.43 LIG 0.18  C 
ENDROOT
BRANCH 1 2
ATOM      2  C   PHE C   1     110.411 175.521  54.940  1.00 43.95 LIG 0.24  C 
ATOM      3 O    PHE C   1     110.777 174.723  54.071  1.00 42.64 LIG-0.27  OA
ATOM      4  N   LEU C   2     109.253 176.167  54.870  1.00 45.78 LIG-0.35  N 
ATOM      5 H    LEU C   2     108.921 176.636  55.510  1.00 45.78 LIG 0.16  HD
BRANCH 4 6
ATOM      6  CA  LEU C   2     108.442 176.123  53.668  1.00 46.28 LIG 0.16  C 
BRANCH 6 7
ATOM      7  C   LEU C   2     107.599 177.391  53.612  1.00 47.91 LIG 0.22  C 
ATOM      8 O    LEU C   2     108.129 178.503  53.635  1.00 50.38 LIG-0.29  OA
ENDBRANCH 6 7
BRANCH 6 9
ATOM      9  CB  LEU C   2     107.553 174.878  53.668  1.00 44.46 LIG 0.04  C 
BRANCH 9 10
ATOM     10  CG  LEU C   2     108.186 173.617  53.081  1.00 41.86 LIG-0.02  C 
ATOM     11  CD2 LEU C   2     109.066 173.970  51.893  1.00 43.32 LIG 0.01  C 
ATOM     12  CD1 LEU C   2     107.112 172.621  52.679  1.00 39.91 LIG 0.01  C 
ENDBRANCH 9 10
ENDBRANCH 6 9
ENDBRANCH 4 6
ENDBRANCH 1 2
BRANCH 1 13
ATOM     13  CB  PHE C   1     112.115 174.556  56.537  1.00 40.74 LIG 0.07  C 
BRANCH 13 14
ATOM     14  CG  PHE C   1     113.093 174.828  57.634  1.00 40.58 LIG-0.06  A 
ATOM     15  CD1 PHE C   1     114.190 175.642  57.412  1.00 41.26 LIG 0.01  A 
ATOM     16  CE1 PHE C   1     115.105 175.879  58.410  1.00 41.59 LIG 0.00  A 
ATOM     17  CZ  PHE C   1     114.937 175.293  59.647  1.00 39.95 LIG 0.00  A 
ATOM     18  CE2 PHE C   1     113.855 174.466  59.879  1.00 40.65 LIG 0.00  A 
ATOM     19  CD2 PHE C   1     112.944 174.232  58.875  1.00 39.59 LIG 0.01  A 
ENDBRANCH 13 14
ENDBRANCH 1 13
BRANCH 1 20
ATOM     20  N   PHE C   1     110.575 176.313  57.289  1.00 44.33 LIG-0.35  N 
ATOM     21 H    PHE C   1     109.840 175.899  57.454  1.00 44.33 LIG 0.16  HD
ATOM     22  C   SER C   0     111.019 177.341  58.011  1.00 45.23 LIG 0.25  C 
ATOM     23 O    SER C   0     112.042 177.970  57.731  1.00 45.89 LIG-0.27  OA
BRANCH 22 24
ATOM     24  CA  SER C   0     110.183 177.715  59.229  1.00 46.83 LIG 0.30  C 
BRANCH 24 25
ATOM     25  N   SER C   0     110.672 177.044  60.430  1.00 48.27 LIG-0.06  N 
ATOM     26 H2   SER C   0     111.087 176.291  60.202  1.00 48.27 LIG 0.28  HD
ATOM     27 H1   SER C   0     109.986 176.854  60.964  1.00 48.27 LIG 0.28  HD
ATOM     28 H3   SER C   0     111.240 177.579  60.858  1.00 48.27 LIG 0.28  HD
ENDBRANCH 24 25
BRANCH 24 29
ATOM     29  CB  SER C   0     110.189 179.234  59.417  1.00 47.94 LIG 0.21  C 
BRANCH 29 30
ATOM     30 OG   SER C   0     110.828 179.599  60.627  1.00 49.79 LIG-0.40  OA
ATOM     31 HG   SER C   0     111.633 179.361  60.602  1.00 49.79 LIG 0.21  HD
ENDBRANCH 29 30
ENDBRANCH 24 29
ENDBRANCH 22 24
ENDBRANCH 1 20
TORSDOF 12
ENDMDL
MODEL 2
USER: ADFR SOLUTION from run 142
USER: SCORE 9.188562 LL:  -2.057 LR:  -7.419 RR:   0.000 FEB:  -3.840
USER: RMSD 4.389417
USER: SEED 141
USER: STATUS searching
USER: GENES 14
USER: genes 0 Translation |==|  0.59461 0.63943 0.28026
USER: genes 1 Rotation |==|  0.38543 0.39541 0.40470 0.96567
USER: genes 2 Torsion [N]-CA--C-[N] |==|  0.96784
USER: genes 3 Torsion [C]-N--CA-[C] |==|  0.15292
USER: genes 4 Torsion [N]-CA--C-[O] |==|  0.26941
USER: genes 5 Torsion [N]-CA--CB-[CG] |==|  0.87773
USER: genes 6 Torsion [CA]-CB--CG-[CD2] |==|  0.62500
USER: genes 7 Torsion [C]-CA--CB-[CG] |==|  0.49854
USER: genes 8 Torsion [CA]-CB--CG-[CD1] |==|  0.31495
USER: genes 9 Torsion [C]-CA--N-[C] |==|  0.65597
USER: genes 10 Torsion [N]-C--CA-[N] |==|  0.22079
USER: genes 11 Torsion [C]-CA--N-[H2] |==|  0.98096
USER: genes 12 Torsion [C]-CA--CB-[OG] |==|  0.66665
USER: genes 13 Torsion [CA]-CB--OG-[HG] |==|  0.14274
ROOT
ATOM      1  CA  PHE C   1     111.112 175.723  55.983  1.00 43.43 LIG 0.18  C 
ENDROOT
BRANCH 1 2
ATOM      2  C   PHE C   1     110.089 175.340  54.924  1.00 43.95 LIG 0.24  C 
ATOM      3 O    PHE C   1     110.463 175.095  53.772  1.00 42.64 LIG-0.27  OA
ATOM      4  N   LEU C   2     108.812 175.285  55.285  1.00 45.78 LIG-0.35  N 
ATOM      5 H    LEU C   2     108.536 175.336  56.098  1.00 45.78 LIG 0.16  HD
BRANCH 4 6
ATOM      6  CA  LEU C   2     107.761 175.130  54.298  1.00 46.28 LIG 0.16  C 
BRANCH 6 7
ATOM      7  C   LEU C   2     108.061 173.886  53.469  1.00 47.91 LIG 0.22  C 
ATOM      8 O    LEU C   2     107.529 172.807  53.734  1.00 50.38 LIG-0.29  OA
ENDBRANCH 6 7
BRANCH 6 9
ATOM      9  CB  LEU C   2     107.676 176.370  53.406  1.00 44.46 LIG 0.04  C 
BRANCH 9 10
ATOM     10  CG  LEU C   2     107.759 177.711  54.135  1.00 41.86 LIG-0.02  C 
ATOM     11  CD2 LEU C   2     106.697 178.664  53.610  1.00 43.32 LIG 0.01  C 
ATOM     12  CD1 LEU C   2     109.145 178.313  53.984  1.00 39.91 LIG 0.01  C 
ENDBRANCH 9 10
ENDBRANCH 6 9
ENDBRANCH 4 6
ENDBRANCH 1 2
BRANCH 1 13
ATOM     13  CB  PHE C   1     112.061 174.567  56.303  1.00 40.74 LIG 0.07  C 
BRANCH 13 14
ATOM     14  CG  PHE C   1     113.084 174.921  57.333  1.00 40.58 LIG-0.06  A 
ATOM     15  CD1 PHE C   1     113.069 174.315  58.577  1.00 41.26 LIG 0.01  A 
ATOM     16  CE1 PHE C   1     113.995 174.652  59.537  1.00 41.59 LIG 0.00  A 
ATOM     17  CZ  PHE C   1     114.945 175.613  59.264  1.00 39.95 LIG 0.00  A 
ATOM     18  CE2 PHE C   1     114.963 176.239  58.032  1.00 40.65 LIG 0.00  A 
ATOM     19  CD2 PHE C   1     114.034 175.897  57.077  1.00 39.59 LIG 0.01  A 
ENDBRANCH 13 14
ENDBRANCH 1 13
BRANCH 1 20
ATOM     20  N   PHE C   1     110.504 176.239  57.203  1.00 44.33 LIG-0.35  N 
ATOM     21 H    PHE C   1     109.936 175.704  57.564  1.00 44.33 LIG 0.16  HD
ATOM     22  C   SER C   0     110.811 177.434  57.705  1.00 45.23 LIG 0.25  C 
ATOM     23 O    SER C   0     111.579 178.222  57.148  1.00 45.89 LIG-0.27  OA
BRANCH 22 24
ATOM     24  CA  SER C   0     110.152 177.794  59.031  1.00 46.83 LIG 0.30  C 
BRANCH 24 25
ATOM     25  N   SER C   0     110.838 177.157  60.151  1.00 48.27 LIG-0.06  N 
ATOM     26 H2   SER C   0     111.456 176.597  59.841  1.00 48.27 LIG 0.28  HD
ATOM     27 H1   SER C   0     110.249 176.706  60.642  1.00 48.27 LIG 0.28  HD
ATOM     28 H3   SER C   0     111.227 177.780  60.653  1.00 48.27 LIG 0.28  HD
ENDBRANCH 24 25
BRANCH 24 29
ATOM     29  CB  SER C   0     110.129 179.315  59.203  1.00 47.94 LIG 0.21  C 
BRANCH 29 30
ATOM     30 OG   SER C   0     110.839 179.710  60.363  1.00 49.79 LIG-0.40  OA
ATOM     31 HG   SER C   0     111.602 179.361  60.357  1.00 49.79 LIG 0.21  HD
ENDBRANCH 29 30
ENDBRANCH 24 29
ENDBRANCH 22 24
ENDBRANCH 1 20
TORSDOF 12
ENDMDL
MODEL 3
USER: ADFR SOLUTION from run 126
USER: SCORE 8.836468 LL:  -1.889 LR:  -7.331 RR:   0.000 FEB:  -3.752
USER: RMSD 4.735753
USER: SEED 125
USER: STATUS no improvement in best in 14 clusters for 5 generations
USER: GENES 14
USER: genes 0 Translation |==|  0.56993 0.53821 0.37273
USER: genes 1 Rotation |==|  0.40720 0.33956 0.14690 0.80161
USER: genes 2 Torsion [N]-CA--C-[N] |==|  0.85103
USER: genes 3 Torsion [C]-N--CA-[C] |==|  0.70015
USER: genes 4 Torsion [N]-CA--C-[O] |==|  0.44517
USER: genes 5 Torsion [N]-CA--CB-[CG] |==|  0.79502
USER: genes 6 Torsion [CA]-CB--CG-[CD2] |==|  0.84990
USER: genes 7 Torsion [C]-CA--CB-[CG] |==|  0.40023
USER: genes 8 Torsion [CA]-CB--CG-[CD1] |==|  0.12091
USER: genes 9 Torsion [C]-CA--N-[C] |==|  0.70666
USER: genes 10 Torsion [N]-C--CA-[N] |==|  0.39914
USER: genes 11 Torsion [C]-CA--N-[H2] |==|  0.98786
USER: genes 12 Torsion [C]-CA--CB-[OG] |==|  0.62417
USER: genes 13 Torsion [CA]-CB--OG-[HG] |==|  0.22209
ROOT
ATOM      1  CA  PHE C   1     110.649 174.281  57.509  1.00 43.43 LIG 0.18  C 
ENDROOT
BRANCH 1 2
ATOM      2  C   PHE C   1     110.603 174.734  56.058  1.00 43.95 LIG 0.24  C 
ATOM      3 O    PHE C   1     111.611 174.630  55.351  1.00 42.64 LIG-0.27  OA
ATOM      4  N   LEU C   2     109.461 175.232  55.599  1.00 45.78 LIG-0.35  N 
ATOM      5 H    LEU C   2     108.715 175.210  56.028  1.00 45.78 LIG 0.16  HD
BRANCH 4 6
ATOM      6  CA  LEU C   2     109.391 175.871  54.298  1.00 46.28 LIG 0.16  C 
BRANCH 6 7
ATOM      7  C   LEU C   2     109.230 177.372  54.509  1.00 47.91 LIG 0.22  C 
ATOM      8 O    LEU C   2     109.502 178.168  53.609  1.00 50.38 LIG-0.29  OA
ENDBRANCH 6 7
BRANCH 6 9
ATOM      9  CB  LEU C   2     108.222 175.307  53.488  1.00 44.46 LIG 0.04  C 
BRANCH 9 10
ATOM     10  CG  LEU C   2     108.427 173.898  52.931  1.00 41.86 LIG-0.02  C 
ATOM     11  CD2 LEU C   2     109.711 173.830  52.122  1.00 43.32 LIG 0.01  C 
ATOM     12  CD1 LEU C   2     107.235 173.483  52.086  1.00 39.91 LIG 0.01  C 
ENDBRANCH 9 10
ENDBRANCH 6 9
ENDBRANCH 4 6
ENDBRANCH 1 2
BRANCH 1 13
ATOM     13  CB  PHE C   1     109.856 172.991  57.729  1.00 40.74 LIG 0.07  C 
BRANCH 13 14
ATOM     14  CG  PHE C   1     110.486 172.086  58.738  1.00 40.58 LIG-0.06  A 
ATOM     15  CD1 PHE C   1     110.993 172.596  59.921  1.00 41.26 LIG 0.01  A 
ATOM     16  CE1 PHE C   1     111.593 171.771  60.844  1.00 41.59 LIG 0.00  A 
ATOM     17  CZ  PHE C   1     111.701 170.420  60.588  1.00 39.95 LIG 0.00  A 
ATOM     18  CE2 PHE C   1     111.213 169.899  59.404  1.00 40.65 LIG 0.00  A 
ATOM     19  CD2 PHE C   1     110.615 170.730  58.485  1.00 39.59 LIG 0.01  A 
ENDBRANCH 13 14
ENDBRANCH 1 13
BRANCH 1 20
ATOM     20  N   PHE C   1     110.218 175.312  58.443  1.00 44.33 LIG-0.35  N 
ATOM     21 H    PHE C   1     109.368 175.443  58.452  1.00 44.33 LIG 0.16  HD
ATOM     22  C   SER C   0     111.074 175.985  59.211  1.00 45.23 LIG 0.25  C 
ATOM     23 O    SER C   0     112.297 175.837  59.147  1.00 45.89 LIG-0.27  OA
BRANCH 22 24
ATOM     24  CA  SER C   0     110.458 176.973  60.194  1.00 46.83 LIG 0.30  C 
BRANCH 24 25
ATOM     25  N   SER C   0     111.204 177.003  61.449  1.00 48.27 LIG-0.06  N 
ATOM     26 H2   SER C   0     111.847 176.387  61.427  1.00 48.27 LIG 0.28  HD
ATOM     27 H1   SER C   0     110.653 176.831  62.126  1.00 48.27 LIG 0.28  HD
ATOM     28 H3   SER C   0     111.568 177.807  61.559  1.00 48.27 LIG 0.28  HD
ENDBRANCH 24 25
BRANCH 24 29
ATOM     29  CB  SER C   0     110.404 178.368  59.563  1.00 47.94 LIG 0.21  C 
BRANCH 29 30
ATOM     30 OG   SER C   0     110.838 179.360  60.476  1.00 49.79 LIG-0.40  OA
ATOM     31 HG   SER C   0     111.677 179.373  60.497  1.00 49.79 LIG 0.21  HD
ENDBRANCH 29 30
ENDBRANCH 24 29
ENDBRANCH 22 24
ENDBRANCH 1 20
TORSDOF 12
ENDMDL
MODEL 4
USER: ADFR SOLUTION from run 116
USER: SCORE 9.420973 LL:  -2.213 LR:  -7.322 RR:   0.000 FEB:  -3.742
USER: RMSD 5.509555
USER: SEED 115
USER: STATUS no improvement in best in 9 clusters for 5 generations
USER: GENES 14
USER: genes 0 Translation |==|  0.57122 0.50366 0.42465
USER: genes 1 Rotation |==|  0.41100 0.35240 0.13029 0.78916
USER: genes 2 Torsion [N]-CA--C-[N] |==|  0.92258
USER: genes 3 Torsion [C]-N--CA-[C] |==|  0.17710
USER: genes 4 Torsion [N]-CA--C-[O] |==|  0.68806
USER: genes 5 Torsion [N]-CA--CB-[CG] |==|  0.90582
USER: genes 6 Torsion [CA]-CB--CG-[CD2] |==|  0.72658
USER: genes 7 Torsion [C]-CA--CB-[CG] |==|  0.35109
USER: genes 8 Torsion [CA]-CB--CG-[CD1] |==|  0.19539
USER: genes 9 Torsion [C]-CA--N-[C] |==|  0.75845
USER: genes 10 Torsion [N]-C--CA-[N] |==|  0.39939
USER: genes 11 Torsion [C]-CA--N-[H2] |==|  0.68330
USER: genes 12 Torsion [C]-CA--CB-[OG] |==|  0.63066
USER: genes 13 Torsion [CA]-CB--OG-[HG] |==|  0.25693
ROOT
ATOM      1  CA  PHE C   1     110.673 173.788  58.366  1.00 43.43 LIG 0.18  C 
ENDROOT
BRANCH 1 2
ATOM      2  C   PHE C   1     110.678 174.326  56.943  1.00 43.95 LIG 0.24  C 
ATOM      3 O    PHE C   1     111.416 173.811  56.096  1.00 42.64 LIG-0.27  OA
ATOM      4  N   LEU C   2     109.876 175.346  56.661  1.00 45.78 LIG-0.35  N 
ATOM      5 H    LEU C   2     109.271 175.647  57.194  1.00 45.78 LIG 0.16  HD
BRANCH 4 6
ATOM      6  CA  LEU C   2     109.968 176.044  55.393  1.00 46.28 LIG 0.16  C 
BRANCH 6 7
ATOM      7  C   LEU C   2     109.611 175.066  54.280  1.00 47.91 LIG 0.22  C 
ATOM      8 O    LEU C   2     110.463 174.691  53.473  1.00 50.38 LIG-0.29  OA
ENDBRANCH 6 7
BRANCH 6 9
ATOM      9  CB  LEU C   2     111.376 176.606  55.193  1.00 44.46 LIG 0.04  C 
BRANCH 9 10
ATOM     10  CG  LEU C   2     112.086 177.071  56.465  1.00 41.86 LIG-0.02  C 
ATOM     11  CD2 LEU C   2     111.960 178.577  56.621  1.00 43.32 LIG 0.01  C 
ATOM     12  CD1 LEU C   2     113.546 176.653  56.440  1.00 39.91 LIG 0.01  C 
ENDBRANCH 9 10
ENDBRANCH 6 9
ENDBRANCH 4 6
ENDBRANCH 1 2
BRANCH 1 13
ATOM     13  CB  PHE C   1     109.778 172.556  58.507  1.00 40.74 LIG 0.07  C 
BRANCH 13 14
ATOM     14  CG  PHE C   1     110.487 171.387  59.109  1.00 40.58 LIG-0.06  A 
ATOM     15  CD1 PHE C   1     110.848 171.396  60.446  1.00 41.26 LIG 0.01  A 
ATOM     16  CE1 PHE C   1     111.520 170.332  61.001  1.00 41.59 LIG 0.00  A 
ATOM     17  CZ  PHE C   1     111.849 169.245  60.219  1.00 39.95 LIG 0.00  A 
ATOM     18  CE2 PHE C   1     111.509 169.228  58.880  1.00 40.65 LIG 0.00  A 
ATOM     19  CD2 PHE C   1     110.837 170.296  58.330  1.00 39.59 LIG 0.01  A 
ENDBRANCH 13 14
ENDBRANCH 1 13
BRANCH 1 20
ATOM     20  N   PHE C   1     110.316 174.796  59.355  1.00 44.33 LIG-0.35  N 
ATOM     21 H    PHE C   1     109.478 174.815  59.548  1.00 44.33 LIG 0.16  HD
ATOM     22  C   SER C   0     111.217 175.609  59.906  1.00 45.23 LIG 0.25  C 
ATOM     23 O    SER C   0     112.405 175.618  59.578  1.00 45.89 LIG-0.27  OA
BRANCH 22 24
ATOM     24  CA  SER C   0     110.697 176.552  60.985  1.00 46.83 LIG 0.30  C 
BRANCH 24 25
ATOM     25  N   SER C   0     111.685 176.736  62.044  1.00 48.27 LIG-0.06  N 
ATOM     26 H2   SER C   0     111.377 176.387  62.802  1.00 48.27 LIG 0.28  HD
ATOM     27 H1   SER C   0     111.838 177.605  62.159  1.00 48.27 LIG 0.28  HD
ATOM     28 H3   SER C   0     112.444 176.330  61.816  1.00 48.27 LIG 0.28  HD
ENDBRANCH 24 25
BRANCH 24 29
ATOM     29  CB  SER C   0     110.316 177.896  60.359  1.00 47.94 LIG 0.21  C 
BRANCH 29 30
ATOM     30 OG   SER C   0     110.841 178.977  61.109  1.00 49.79 LIG-0.40  OA
ATOM     31 HG   SER C   0     111.589 179.197  60.797  1.00 49.79 LIG 0.21  HD
ENDBRANCH 29 30
ENDBRANCH 24 29
ENDBRANCH 22 24
ENDBRANCH 1 20
TORSDOF 12
ENDMDL
MODEL 5
USER: ADFR SOLUTION from run 100
USER: SCORE 9.138886 LL:  -2.085 LR:  -7.153 RR:   0.000 FEB:  -3.573
USER: RMSD 3.729497
USER: SEED 99
USER: STATUS no improvement in best in 16 clusters for 5 generations
USER: GENES 14
USER: genes 0 Translation |==|  0.55411 0.62119 0.29264
USER: genes 1 Rotation |==|  0.37767 0.44695 0.48180 0.98155
USER: genes 2 Torsion [N]-CA--C-[N] |==|  0.42166
USER: genes 3 Torsion [C]-N--CA-[C] |==|  0.56525
USER: genes 4 Torsion [N]-CA--C-[O] |==|  0.10455
USER: genes 5 Torsion [N]-CA--CB-[CG] |==|  0.56316
USER: genes 6 Torsion [CA]-CB--CG-[CD2] |==|  0.51303
USER: genes 7 Torsion [C]-CA--CB-[CG] |==|  0.48859
USER: genes 8 Torsion [CA]-CB--CG-[CD1] |==|  0.80671
USER: genes 9 Torsion [C]-CA--N-[C] |==|  0.61971
USER: genes 10 Torsion [N]-C--CA-[N] |==|  0.21960
USER: genes 11 Torsion [C]-CA--N-[H2] |==|  0.67365
USER: genes 12 Torsion [C]-CA--CB-[OG] |==|  0.66745
USER: genes 13 Torsion [CA]-CB--OG-[HG] |==|  0.22713
ROOT
ATOM      1  CA  PHE C   1     110.353 175.463  56.188  1.00 43.43 LIG 0.18  C 
ENDROOT
BRANCH 1 2
ATOM      2  C   PHE C   1     109.208 174.774  55.461  1.00 43.95 LIG 0.24  C 
ATOM      3 O    PHE C   1     108.339 174.181  56.110  1.00 42.64 LIG-0.27  OA
ATOM      4  N   LEU C   2     109.187 174.835  54.135  1.00 45.78 LIG-0.35  N 
ATOM      5 H    LEU C   2     109.708 175.334  53.665  1.00 45.78 LIG 0.16  HD
BRANCH 4 6
ATOM      6  CA  LEU C   2     108.252 174.040  53.362  1.00 46.28 LIG 0.16  C 
BRANCH 6 7
ATOM      7  C   LEU C   2     108.821 173.860  51.959  1.00 47.91 LIG 0.22  C 
ATOM      8 O    LEU C   2     110.029 173.698  51.784  1.00 50.38 LIG-0.29  OA
ENDBRANCH 6 7
BRANCH 6 9
ATOM      9  CB  LEU C   2     106.884 174.721  53.311  1.00 44.46 LIG 0.04  C 
BRANCH 9 10
ATOM     10  CG  LEU C   2     105.699 173.799  53.024  1.00 41.86 LIG-0.02  C 
ATOM     11  CD2 LEU C   2     104.420 174.608  52.886  1.00 43.32 LIG 0.01  C 
ATOM     12  CD1 LEU C   2     105.561 172.756  54.120  1.00 39.91 LIG 0.01  C 
ENDBRANCH 9 10
ENDBRANCH 6 9
ENDBRANCH 4 6
ENDBRANCH 1 2
BRANCH 1 13
ATOM     13  CB  PHE C   1     111.607 174.590  56.232  1.00 40.74 LIG 0.07  C 
BRANCH 13 14
ATOM     14  CG  PHE C   1     112.777 175.282  56.855  1.00 40.58 LIG-0.06  A 
ATOM     15  CD1 PHE C   1     113.399 176.334  56.205  1.00 41.26 LIG 0.01  A 
ATOM     16  CE1 PHE C   1     114.488 176.961  56.762  1.00 41.59 LIG 0.00  A 
ATOM     17  CZ  PHE C   1     114.977 176.534  57.979  1.00 39.95 LIG 0.00  A 
ATOM     18  CE2 PHE C   1     114.376 175.475  58.633  1.00 40.65 LIG 0.00  A 
ATOM     19  CD2 PHE C   1     113.286 174.852  58.069  1.00 39.59 LIG 0.01  A 
ENDBRANCH 13 14
ENDBRANCH 1 13
BRANCH 1 20
ATOM     20  N   PHE C   1     109.992 175.910  57.527  1.00 44.33 LIG-0.35  N 
ATOM     21 H    PHE C   1     109.534 175.336  57.975  1.00 44.33 LIG 0.16  HD
ATOM     22  C   SER C   0     110.347 177.102  58.003  1.00 45.23 LIG 0.25  C 
ATOM     23 O    SER C   0     110.949 177.944  57.332  1.00 45.89 LIG-0.27  OA
BRANCH 22 24
ATOM     24  CA  SER C   0     109.964 177.387  59.450  1.00 46.83 LIG 0.30  C 
BRANCH 24 25
ATOM     25  N   SER C   0     110.889 176.740  60.377  1.00 48.27 LIG-0.06  N 
ATOM     26 H2   SER C   0     110.447 176.145  60.870  1.00 48.27 LIG 0.28  HD
ATOM     27 H1   SER C   0     111.253 177.354  60.909  1.00 48.27 LIG 0.28  HD
ATOM     28 H3   SER C   0     111.530 176.328  59.918  1.00 48.27 LIG 0.28  HD
ENDBRANCH 24 25
BRANCH 24 29
ATOM     29  CB  SER C   0     109.925 178.899  59.690  1.00 47.94 LIG 0.21  C 
BRANCH 29 30
ATOM     30 OG   SER C   0     110.851 179.283  60.691  1.00 49.79 LIG-0.40  OA
ATOM     31 HG   SER C   0     111.617 179.352  60.353  1.00 49.79 LIG 0.21  HD
ENDBRANCH 29 30
ENDBRANCH 24 29
ENDBRANCH 22 24
ENDBRANCH 1 20
TORSDOF 12
ENDMDL
MODEL 6
USER: ADFR SOLUTION from run 129
USER: SCORE 8.719630 LL:  -2.132 LR:  -7.075 RR:   0.000 FEB:  -3.495
USER: RMSD 4.148859
USER: SEED 128
USER: STATUS no improvement in best in 7 clusters for 5 generations
USER: GENES 14
USER: genes 0 Translation |==|  0.54785 0.53963 0.32119
USER: genes 1 Rotation |==|  0.64709 0.30035 0.49053 0.93406
USER: genes 2 Torsion [N]-CA--C-[N] |==|  0.16328
USER: genes 3 Torsion [C]-N--CA-[C] |==|  0.67837
USER: genes 4 Torsion [N]-CA--C-[O] |==|  0.26052
USER: genes 5 Torsion [N]-CA--CB-[CG] |==|  0.75673
USER: genes 6 Torsion [CA]-CB--CG-[CD2] |==|  0.29844
USER: genes 7 Torsion [C]-CA--CB-[CG] |==|  0.23521
USER: genes 8 Torsion [CA]-CB--CG-[CD1] |==|  0.83169
USER: genes 9 Torsion [C]-CA--N-[C] |==|  0.61136
USER: genes 10 Torsion [N]-C--CA-[N] |==|  0.48323
USER: genes 11 Torsion [C]-CA--N-[H2] |==|  0.68024
USER: genes 12 Torsion [C]-CA--CB-[OG] |==|  0.64799
USER: genes 13 Torsion [CA]-CB--OG-[HG] |==|  0.49556
ROOT
ATOM      1  CA  PHE C   1     110.235 174.301  56.659  1.00 43.43 LIG 0.18  C 
ENDROOT
BRANCH 1 2
ATOM      2  C   PHE C   1     109.978 174.669  55.205  1.00 43.95 LIG 0.24  C 
ATOM      3 O    PHE C   1     110.838 174.429  54.351  1.00 42.64 LIG-0.27  OA
ATOM      4  N   LEU C   2     108.820 175.246  54.906  1.00 45.78 LIG-0.35  N 
ATOM      5 H    LEU C   2     108.160 175.319  55.453  1.00 45.78 LIG 0.16  HD
BRANCH 4 6
ATOM      6  CA  LEU C   2     108.581 175.809  53.591  1.00 46.28 LIG 0.16  C 
BRANCH 6 7
ATOM      7  C   LEU C   2     108.389 177.314  53.742  1.00 47.91 LIG 0.22  C 
ATOM      8 O    LEU C   2     109.338 178.088  53.609  1.00 50.38 LIG-0.29  OA
ENDBRANCH 6 7
BRANCH 6 9
ATOM      9  CB  LEU C   2     107.351 175.165  52.949  1.00 44.46 LIG 0.04  C 
BRANCH 9 10
ATOM     10  CG  LEU C   2     107.616 173.885  52.157  1.00 41.86 LIG-0.02  C 
ATOM     11  CD2 LEU C   2     107.090 172.677  52.915  1.00 43.32 LIG 0.01  C 
ATOM     12  CD1 LEU C   2     109.100 173.736  51.870  1.00 39.91 LIG 0.01  C 
ENDBRANCH 9 10
ENDBRANCH 6 9
ENDBRANCH 4 6
ENDBRANCH 1 2
BRANCH 1 13
ATOM     13  CB  PHE C   1     111.646 173.747  56.865  1.00 40.74 LIG 0.07  C 
BRANCH 13 14
ATOM     14  CG  PHE C   1     112.669 174.818  57.059  1.00 40.58 LIG-0.06  A 
ATOM     15  CD1 PHE C   1     112.897 175.760  56.071  1.00 41.26 LIG 0.01  A 
ATOM     16  CE1 PHE C   1     113.852 176.736  56.234  1.00 41.59 LIG 0.00  A 
ATOM     17  CZ  PHE C   1     114.603 176.774  57.391  1.00 39.95 LIG 0.00  A 
ATOM     18  CE2 PHE C   1     114.398 175.831  58.379  1.00 40.65 LIG 0.00  A 
ATOM     19  CD2 PHE C   1     113.440 174.857  58.209  1.00 39.59 LIG 0.01  A 
ENDBRANCH 13 14
ENDBRANCH 1 13
BRANCH 1 20
ATOM     20  N   PHE C   1     109.241 173.383  57.199  1.00 44.33 LIG-0.35  N 
ATOM     21 H    PHE C   1     108.999 172.767  56.651  1.00 44.33 LIG 0.16  HD
ATOM     22  C   SER C   0     108.758 173.499  58.435  1.00 45.23 LIG 0.25  C 
ATOM     23 O    SER C   0     109.061 174.423  59.194  1.00 45.89 LIG-0.27  OA
BRANCH 22 24
ATOM     24  CA  SER C   0     107.786 172.412  58.880  1.00 46.83 LIG 0.30  C 
BRANCH 24 25
ATOM     25  N   SER C   0     107.436 172.563  60.289  1.00 48.27 LIG-0.06  N 
ATOM     26 H2   SER C   0     107.739 171.862  60.747  1.00 48.27 LIG 0.28  HD
ATOM     27 H1   SER C   0     106.550 172.609  60.371  1.00 48.27 LIG 0.28  HD
ATOM     28 H3   SER C   0     107.802 173.308  60.608  1.00 48.27 LIG 0.28  HD
ENDBRANCH 24 25
BRANCH 24 29
ATOM     29  CB  SER C   0     106.532 172.447  58.002  1.00 47.94 LIG 0.21  C 
BRANCH 29 30
ATOM     30 OG   SER C   0     105.358 172.533  58.790  1.00 49.79 LIG-0.40  OA
ATOM     31 HG   SER C   0     104.686 172.573  58.288  1.00 49.79 LIG 0.21  HD
ENDBRANCH 29 30
ENDBRANCH 24 29
ENDBRANCH 22 24
ENDBRANCH 1 20
TORSDOF 12
ENDMDL
MODEL 7
USER: ADFR SOLUTION from run 29
USER: SCORE 8.666737 LL:  -1.869 LR:  -7.035 RR:   0.000 FEB:  -3.455
USER: RMSD 4.166575
USER: SEED 28
USER: STATUS no improvement in best in 9 clusters for 5 generations
USER: GENES 14
USER: genes 0 Translation |==|  0.60334 0.56943 0.31922
USER: genes 1 Rotation |==|  0.66530 0.38727 0.54670 0.95584
USER: genes 2 Torsion [N]-CA--C-[N] |==|  0.28680
USER: genes 3 Torsion [C]-N--CA-[C] |==|  0.57645
USER: genes 4 Torsion [N]-CA--C-[O] |==|  0.25017
USER: genes 5 Torsion [N]-CA--CB-[CG] |==|  0.75797
USER: genes 6 Torsion [CA]-CB--CG-[CD2] |==|  0.89642
USER: genes 7 Torsion [C]-CA--CB-[CG] |==|  0.45443
USER: genes 8 Torsion [CA]-CB--CG-[CD1] |==|  0.62625
USER: genes 9 Torsion [C]-CA--N-[C] |==|  0.71260
USER: genes 10 Torsion [N]-C--CA-[N] |==|  0.73849
USER: genes 11 Torsion [C]-CA--N-[H2] |==|  0.97948
USER: genes 12 Torsion [C]-CA--CB-[OG] |==|  0.70029
USER: genes 13 Torsion [CA]-CB--OG-[HG] |==|  0.49575
ROOT
ATOM      1  CA  PHE C   1     111.276 174.725  56.626  1.00 43.43 LIG 0.18  C 
ENDROOT
BRANCH 1 2
ATOM      2  C   PHE C   1     110.550 174.864  55.296  1.00 43.95 LIG 0.24  C 
ATOM      3 O    PHE C   1     110.838 174.111  54.360  1.00 42.64 LIG-0.27  OA
ATOM      4  N   LEU C   2     109.620 175.806  55.191  1.00 45.78 LIG-0.35  N 
ATOM      5 H    LEU C   2     109.318 176.265  55.854  1.00 45.78 LIG 0.16  HD
BRANCH 4 6
ATOM      6  CA  LEU C   2     109.030 176.137  53.908  1.00 46.28 LIG 0.16  C 
BRANCH 6 7
ATOM      7  C   LEU C   2     108.577 177.592  53.950  1.00 47.91 LIG 0.22  C 
ATOM      8 O    LEU C   2     109.336 178.500  53.609  1.00 50.38 LIG-0.29  OA
ENDBRANCH 6 7
BRANCH 6 9
ATOM      9  CB  LEU C   2     107.853 175.209  53.605  1.00 44.46 LIG 0.04  C 
BRANCH 9 10
ATOM     10  CG  LEU C   2     108.213 173.894  52.913  1.00 41.86 LIG-0.02  C 
ATOM     11  CD2 LEU C   2     109.332 174.114  51.908  1.00 43.32 LIG 0.01  C 
ATOM     12  CD1 LEU C   2     106.990 173.299  52.237  1.00 39.91 LIG 0.01  C 
ENDBRANCH 9 10
ENDBRANCH 6 9
ENDBRANCH 4 6
ENDBRANCH 1 2
BRANCH 1 13
ATOM     13  CB  PHE C   1     112.793 174.664  56.444  1.00 40.74 LIG 0.07  C 
BRANCH 13 14
ATOM     14  CG  PHE C   1     113.542 174.919  57.711  1.00 40.58 LIG-0.06  A 
ATOM     15  CD1 PHE C   1     114.631 175.773  57.724  1.00 41.26 LIG 0.01  A 
ATOM     16  CE1 PHE C   1     115.339 175.996  58.883  1.00 41.59 LIG 0.00  A 
ATOM     17  CZ  PHE C   1     114.968 175.354  60.046  1.00 39.95 LIG 0.00  A 
ATOM     18  CE2 PHE C   1     113.892 174.487  60.045  1.00 40.65 LIG 0.00  A 
ATOM     19  CD2 PHE C   1     113.189 174.268  58.883  1.00 39.59 LIG 0.01  A 
ENDBRANCH 13 14
ENDBRANCH 1 13
BRANCH 1 20
ATOM     20  N   PHE C   1     110.809 173.593  57.416  1.00 44.33 LIG-0.35  N 
ATOM     21 H    PHE C   1     111.100 172.832  57.142  1.00 44.33 LIG 0.16  HD
ATOM     22  C   SER C   0     110.003 173.738  58.467  1.00 45.23 LIG 0.25  C 
ATOM     23 O    SER C   0     109.537 174.826  58.814  1.00 45.89 LIG-0.27  OA
BRANCH 22 24
ATOM     24  CA  SER C   0     109.671 172.466  59.237  1.00 46.83 LIG 0.30  C 
BRANCH 24 25
ATOM     25  N   SER C   0     108.422 171.875  58.766  1.00 48.27 LIG-0.06  N 
ATOM     26 H2   SER C   0     108.031 172.428  58.188  1.00 48.27 LIG 0.28  HD
ATOM     27 H1   SER C   0     107.879 171.738  59.458  1.00 48.27 LIG 0.28  HD
ATOM     28 H3   SER C   0     108.593 171.099  58.366  1.00 48.27 LIG 0.28  HD
ENDBRANCH 24 25
BRANCH 24 29
ATOM     29  CB  SER C   0     110.824 171.467  59.111  1.00 47.94 LIG 0.21  C 
BRANCH 29 30
ATOM     30 OG   SER C   0     110.474 170.383  58.269  1.00 49.79 LIG-0.40  OA
ATOM     31 HG   SER C   0     111.127 169.860  58.198  1.00 49.79 LIG 0.21  HD
ENDBRANCH 29 30
ENDBRANCH 24 29
ENDBRANCH 22 24
ENDBRANCH 1 20
TORSDOF 12
ENDMDL
MODEL 8
USER: ADFR SOLUTION from run 50
USER: SCORE 8.701227 LL:  -2.091 LR:  -6.718 RR:   0.000 FEB:  -3.139
USER: RMSD 4.506041
USER: SEED 49
USER: STATUS no improvement in best in 15 clusters for 5 generations
USER: GENES 14
USER: genes 0 Translation |==|  0.63859 0.60973 0.38988
USER: genes 1 Rotation |==|  0.31050 0.40819 0.38329 0.93822
USER: genes 2 Torsion [N]-CA--C-[N] |==|  0.13327
USER: genes 3 Torsion [C]-N--CA-[C] |==|  0.83038
USER: genes 4 Torsion [N]-CA--C-[O] |==|  0.93689
USER: genes 5 Torsion [N]-CA--CB-[CG] |==|  0.23462
USER: genes 6 Torsion [CA]-CB--CG-[CD2] |==|  0.80598
USER: genes 7 Torsion [C]-CA--CB-[CG] |==|  0.50382
USER: genes 8 Torsion [CA]-CB--CG-[CD1] |==|  0.31552
USER: genes 9 Torsion [C]-CA--N-[C] |==|  0.16458
USER: genes 10 Torsion [N]-C--CA-[N] |==|  0.77018
USER: genes 11 Torsion [C]-CA--N-[H2] |==|  0.00861
USER: genes 12 Torsion [C]-CA--CB-[OG] |==|  0.63495
USER: genes 13 Torsion [CA]-CB--OG-[HG] |==|  0.23325
ROOT
ATOM      1  CA  PHE C   1     111.937 175.300  57.792  1.00 43.43 LIG 0.18  C 
ENDROOT
BRANCH 1 2
ATOM      2  C   PHE C   1     110.778 174.840  56.920  1.00 43.95 LIG 0.24  C 
ATOM      3 O    PHE C   1     110.637 173.638  56.673  1.00 42.64 LIG-0.27  OA
ATOM      4  N   LEU C   2     109.950 175.765  56.449  1.00 45.78 LIG-0.35  N 
ATOM      5 H    LEU C   2     109.953 176.589  56.696  1.00 45.78 LIG 0.16  HD
BRANCH 4 6
ATOM      6  CA  LEU C   2     108.949 175.437  55.452  1.00 46.28 LIG 0.16  C 
BRANCH 6 7
ATOM      7  C   LEU C   2     109.663 174.935  54.202  1.00 47.91 LIG 0.22  C 
ATOM      8 O    LEU C   2     110.837 175.236  53.983  1.00 50.38 LIG-0.29  OA
ENDBRANCH 6 7
BRANCH 6 9
ATOM      9  CB  LEU C   2     108.090 176.661  55.133  1.00 44.46 LIG 0.04  C 
BRANCH 9 10
ATOM     10  CG  LEU C   2     108.666 177.616  54.087  1.00 41.86 LIG-0.02  C 
ATOM     11  CD2 LEU C   2     109.878 178.343  54.645  1.00 43.32 LIG 0.01  C 
ATOM     12  CD1 LEU C   2     107.607 178.604  53.631  1.00 39.91 LIG 0.01  C 
ENDBRANCH 9 10
ENDBRANCH 6 9
ENDBRANCH 4 6
ENDBRANCH 1 2
BRANCH 1 13
ATOM     13  CB  PHE C   1     112.707 174.119  58.386  1.00 40.74 LIG 0.07  C 
BRANCH 13 14
ATOM     14  CG  PHE C   1     113.831 174.545  59.274  1.00 40.58 LIG-0.06  A 
ATOM     15  CD1 PHE C   1     113.793 174.279  60.632  1.00 41.26 LIG 0.01  A 
ATOM     16  CE1 PHE C   1     114.814 174.687  61.458  1.00 41.59 LIG 0.00  A 
ATOM     17  CZ  PHE C   1     115.886 175.378  60.933  1.00 39.95 LIG 0.00  A 
ATOM     18  CE2 PHE C   1     115.930 175.664  59.582  1.00 40.65 LIG 0.00  A 
ATOM     19  CD2 PHE C   1     114.905 175.254  58.761  1.00 39.59 LIG 0.01  A 
ENDBRANCH 13 14
ENDBRANCH 1 13
BRANCH 1 20
ATOM     20  N   PHE C   1     111.529 176.224  58.842  1.00 44.33 LIG-0.35  N 
ATOM     21 H    PHE C   1     111.918 176.990  58.804  1.00 44.33 LIG 0.16  HD
ATOM     22  C   SER C   0     110.631 175.900  59.771  1.00 45.23 LIG 0.25  C 
ATOM     23 O    SER C   0     110.125 174.779  59.857  1.00 45.89 LIG-0.27  OA
BRANCH 22 24
ATOM     24  CA  SER C   0     110.251 177.005  60.750  1.00 46.83 LIG 0.30  C 
BRANCH 24 25
ATOM     25  N   SER C   0     111.222 177.106  61.834  1.00 48.27 LIG-0.06  N 
ATOM     26 H2   SER C   0     111.884 176.527  61.695  1.00 48.27 LIG 0.28  HD
ATOM     27 H1   SER C   0     110.824 176.919  62.608  1.00 48.27 LIG 0.28  HD
ATOM     28 H3   SER C   0     111.551 177.932  61.862  1.00 48.27 LIG 0.28  HD
ENDBRANCH 24 25
BRANCH 24 29
ATOM     29  CB  SER C   0     110.128 178.338  60.006  1.00 47.94 LIG 0.21  C 
BRANCH 29 30
ATOM     30 OG   SER C   0     110.839 179.364  60.673  1.00 49.79 LIG-0.40  OA
ATOM     31 HG   SER C   0     111.647 179.339  60.446  1.00 49.79 LIG 0.21  HD
ENDBRANCH 29 30
ENDBRANCH 24 29
ENDBRANCH 22 24
ENDBRANCH 1 20
TORSDOF 12
ENDMDL
MODEL 9
USER: ADFR SOLUTION from run 89
USER: SCORE 8.516069 LL:  -2.376 LR:  -6.640 RR:   0.000 FEB:  -3.061
USER: RMSD 4.732044
USER: SEED 88
USER: STATUS no improvement in best in 13 clusters for 5 generations
USER: GENES 14
USER: genes 0 Translation |==|  0.58841 0.60369 0.31001
USER: genes 1 Rotation |==|  0.40590 0.36837 0.24354 0.89755
USER: genes 2 Torsion [N]-CA--C-[N] |==|  0.94425
USER: genes 3 Torsion [C]-N--CA-[C] |==|  0.60214
USER: genes 4 Torsion [N]-CA--C-[O] |==|  0.29265
USER: genes 5 Torsion [N]-CA--CB-[CG] |==|  0.87533
USER: genes 6 Torsion [CA]-CB--CG-[CD2] |==|  0.76364
USER: genes 7 Torsion [C]-CA--CB-[CG] |==|  0.74148
USER: genes 8 Torsion [CA]-CB--CG-[CD1] |==|  0.18343
USER: genes 9 Torsion [C]-CA--N-[C] |==|  0.62222
USER: genes 10 Torsion [N]-C--CA-[N] |==|  0.37069
USER: genes 11 Torsion [C]-CA--N-[H2] |==|  0.95914
USER: genes 12 Torsion [C]-CA--CB-[OG] |==|  0.64508
USER: genes 13 Torsion [CA]-CB--OG-[HG] |==|  0.22010
ROOT
ATOM      1  CA  PHE C   1     110.996 175.214  56.474  1.00 43.43 LIG 0.18  C 
ENDROOT
BRANCH 1 2
ATOM      2  C   PHE C   1     110.365 175.534  55.127  1.00 43.95 LIG 0.24  C 
ATOM      3 O    PHE C   1     110.981 175.280  54.087  1.00 42.64 LIG-0.27  OA
ATOM      4  N   LEU C   2     109.157 176.085  55.122  1.00 45.78 LIG-0.35  N 
ATOM      5 H    LEU C   2     108.659 176.166  55.819  1.00 45.78 LIG 0.16  HD
BRANCH 4 6
ATOM      6  CA  LEU C   2     108.576 176.605  53.900  1.00 46.28 LIG 0.16  C 
BRANCH 6 7
ATOM      7  C   LEU C   2     107.784 177.862  54.242  1.00 47.91 LIG 0.22  C 
ATOM      8 O    LEU C   2     108.220 178.979  53.959  1.00 50.38 LIG-0.29  OA
ENDBRANCH 6 7
BRANCH 6 9
ATOM      9  CB  LEU C   2     107.675 175.556  53.247  1.00 44.46 LIG 0.04  C 
BRANCH 9 10
ATOM     10  CG  LEU C   2     108.250 174.141  53.185  1.00 41.86 LIG-0.02  C 
ATOM     11  CD2 LEU C   2     109.127 173.981  51.954  1.00 43.32 LIG 0.01  C 
ATOM     12  CD1 LEU C   2     107.131 173.113  53.186  1.00 39.91 LIG 0.01  C 
ENDBRANCH 9 10
ENDBRANCH 6 9
ENDBRANCH 4 6
ENDBRANCH 1 2
BRANCH 1 13
ATOM     13  CB  PHE C   1     110.973 173.713  56.771  1.00 40.74 LIG 0.07  C 
BRANCH 13 14
ATOM     14  CG  PHE C   1     109.772 173.293  57.555  1.00 40.58 LIG-0.06  A 
ATOM     15  CD1 PHE C   1     108.506 173.379  57.002  1.00 41.26 LIG 0.01  A 
ATOM     16  CE1 PHE C   1     107.395 173.014  57.726  1.00 41.59 LIG 0.00  A 
ATOM     17  CZ  PHE C   1     107.538 172.567  59.023  1.00 39.95 LIG 0.00  A 
ATOM     18  CE2 PHE C   1     108.794 172.491  59.594  1.00 40.65 LIG 0.00  A 
ATOM     19  CD2 PHE C   1     109.902 172.858  58.864  1.00 39.59 LIG 0.01  A 
ENDBRANCH 13 14
ENDBRANCH 1 13
BRANCH 1 20
ATOM     20  N   PHE C   1     110.403 175.962  57.575  1.00 44.33 LIG-0.35  N 
ATOM     21 H    PHE C   1     109.544 175.995  57.552  1.00 44.33 LIG 0.16  HD
ATOM     22  C   SER C   0     111.137 176.539  58.525  1.00 45.23 LIG 0.25  C 
ATOM     23 O    SER C   0     112.370 176.542  58.515  1.00 45.89 LIG-0.27  OA
BRANCH 22 24
ATOM     24  CA  SER C   0     110.364 177.214  59.651  1.00 46.83 LIG 0.30  C 
BRANCH 24 25
ATOM     25  N   SER C   0     110.908 176.850  60.956  1.00 48.27 LIG-0.06  N 
ATOM     26 H2   SER C   0     111.444 176.145  60.868  1.00 48.27 LIG 0.28  HD
ATOM     27 H1   SER C   0     110.241 176.647  61.510  1.00 48.27 LIG 0.28  HD
ATOM     28 H3   SER C   0     111.369 177.535  61.287  1.00 48.27 LIG 0.28  HD
ENDBRANCH 24 25
BRANCH 24 29
ATOM     29  CB  SER C   0     110.388 178.733  59.460  1.00 47.94 LIG 0.21  C 
BRANCH 29 30
ATOM     30 OG   SER C   0     110.830 179.391  60.633  1.00 49.79 LIG-0.40  OA
ATOM     31 HG   SER C   0     111.668 179.347  60.680  1.00 49.79 LIG 0.21  HD
ENDBRANCH 29 30
ENDBRANCH 24 29
ENDBRANCH 22 24
ENDBRANCH 1 20
TORSDOF 12
ENDMDL
MODEL 10
USER: ADFR SOLUTION from run 79
USER: SCORE 8.602348 LL:  -2.196 LR:  -6.575 RR:   0.000 FEB:  -2.996
USER: RMSD 4.615214
USER: SEED 78
USER: STATUS no improvement in best in 15 clusters for 5 generations
USER: GENES 14
USER: genes 0 Translation |==|  0.58169 0.59301 0.33278
USER: genes 1 Rotation |==|  0.72951 0.41654 0.69559 0.89001
USER: genes 2 Torsion [N]-CA--C-[N] |==|  0.37270
USER: genes 3 Torsion [C]-N--CA-[C] |==|  0.61312
USER: genes 4 Torsion [N]-CA--C-[O] |==|  0.19773
USER: genes 5 Torsion [N]-CA--CB-[CG] |==|  0.66028
USER: genes 6 Torsion [CA]-CB--CG-[CD2] |==|  0.40047
USER: genes 7 Torsion [C]-CA--CB-[CG] |==|  0.19647
USER: genes 8 Torsion [CA]-CB--CG-[CD1] |==|  0.26631
USER: genes 9 Torsion [C]-CA--N-[C] |==|  0.64413
USER: genes 10 Torsion [N]-C--CA-[N] |==|  0.45778
USER: genes 11 Torsion [C]-CA--N-[H2] |==|  0.69148
USER: genes 12 Torsion [C]-CA--CB-[OG] |==|  0.48939
USER: genes 13 Torsion [CA]-CB--OG-[HG] |==|  0.70790
ROOT
ATOM      1  CA  PHE C   1     110.870 175.061  56.850  1.00 43.43 LIG 0.18  C 
ENDROOT
BRANCH 1 2
ATOM      2  C   PHE C   1     110.301 174.999  55.440  1.00 43.95 LIG 0.24  C 
ATOM      3 O    PHE C   1     110.838 174.275  54.595  1.00 42.64 LIG-0.27  OA
ATOM      4  N   LEU C   2     109.231 175.737  55.169  1.00 45.78 LIG-0.35  N 
ATOM      5 H    LEU C   2     108.770 176.157  55.761  1.00 45.78 LIG 0.16  HD
BRANCH 4 6
ATOM      6  CA  LEU C   2     108.753 175.891  53.808  1.00 46.28 LIG 0.16  C 
BRANCH 6 7
ATOM      7  C   LEU C   2     108.333 177.343  53.609  1.00 47.91 LIG 0.22  C 
ATOM      8 O    LEU C   2     109.174 178.241  53.548  1.00 50.38 LIG-0.29  OA
ENDBRANCH 6 7
BRANCH 6 9
ATOM      9  CB  LEU C   2     107.581 174.944  53.543  1.00 44.46 LIG 0.04  C 
BRANCH 9 10
ATOM     10  CG  LEU C   2     107.774 173.968  52.383  1.00 41.86 LIG-0.02  C 
ATOM     11  CD2 LEU C   2     107.122 172.633  52.702  1.00 43.32 LIG 0.01  C 
ATOM     12  CD1 LEU C   2     109.251 173.788  52.080  1.00 39.91 LIG 0.01  C 
ENDBRANCH 9 10
ENDBRANCH 6 9
ENDBRANCH 4 6
ENDBRANCH 1 2
BRANCH 1 13
ATOM     13  CB  PHE C   1     112.090 175.979  56.931  1.00 40.74 LIG 0.07  C 
BRANCH 13 14
ATOM     14  CG  PHE C   1     111.742 177.425  56.787  1.00 40.58 LIG-0.06  A 
ATOM     15  CD1 PHE C   1     111.555 178.219  57.905  1.00 41.26 LIG 0.01  A 
ATOM     16  CE1 PHE C   1     111.213 179.545  57.779  1.00 41.59 LIG 0.00  A 
ATOM     17  CZ  PHE C   1     111.044 180.093  56.525  1.00 39.95 LIG 0.00  A 
ATOM     18  CE2 PHE C   1     111.213 179.310  55.399  1.00 40.65 LIG 0.00  A 
ATOM     19  CD2 PHE C   1     111.554 177.983  55.533  1.00 39.59 LIG 0.01  A 
ENDBRANCH 13 14
ENDBRANCH 1 13
BRANCH 1 20
ATOM     20  N   PHE C   1     111.180 173.748  57.399  1.00 44.33 LIG-0.35  N 
ATOM     21 H    PHE C   1     111.673 173.263  56.888  1.00 44.33 LIG 0.16  HD
ATOM     22  C   SER C   0     110.733 173.347  58.589  1.00 45.23 LIG 0.25  C 
ATOM     23 O    SER C   0     109.974 174.023  59.287  1.00 45.89 LIG-0.27  OA
BRANCH 22 24
ATOM     24  CA  SER C   0     111.213 171.978  59.058  1.00 46.83 LIG 0.30  C 
BRANCH 24 25
ATOM     25  N   SER C   0     110.968 171.795  60.485  1.00 48.27 LIG-0.06  N 
ATOM     26 H2   SER C   0     111.745 171.783  60.920  1.00 48.27 LIG 0.28  HD
ATOM     27 H1   SER C   0     110.544 171.023  60.617  1.00 48.27 LIG 0.28  HD
ATOM     28 H3   SER C   0     110.467 172.464  60.789  1.00 48.27 LIG 0.28  HD
ENDBRANCH 24 25
BRANCH 24 29
ATOM     29  CB  SER C   0     110.524 170.879  58.244  1.00 47.94 LIG 0.21  C 
BRANCH 29 30
ATOM     30 OG   SER C   0     111.014 169.598  58.596  1.00 49.79 LIG-0.40  OA
ATOM     31 HG   SER C   0     111.524 169.317  57.991  1.00 49.79 LIG 0.21  HD
ENDBRANCH 29 30
ENDBRANCH 24 29
ENDBRANCH 22 24
ENDBRANCH 1 20
TORSDOF 12
ENDMDL
MODEL 11
USER: ADFR SOLUTION from run 140
USER: SCORE 8.140267 LL:  -2.207 LR:  -6.507 RR:   0.000 FEB:  -2.927
USER: RMSD 5.387415
USER: SEED 139
USER: STATUS no improvement in best in 16 clusters for 5 generations
USER: GENES 14
USER: genes 0 Translation |==|  0.59743 0.58722 0.33557
USER: genes 1 Rotation |==|  0.41134 0.35067 0.22596 0.88045
USER: genes 2 Torsion [N]-CA--C-[N] |==|  0.87430
USER: genes 3 Torsion [C]-N--CA-[C] |==|  0.18792
USER: genes 4 Torsion [N]-CA--C-[O] |==|  0.92680
USER: genes 5 Torsion [N]-CA--CB-[CG] |==|  0.86744
USER: genes 6 Torsion [CA]-CB--CG-[CD2] |==|  0.70433
USER: genes 7 Torsion [C]-CA--CB-[CG] |==|  0.70197
USER: genes 8 Torsion [CA]-CB--CG-[CD1] |==|  0.19178
USER: genes 9 Torsion [C]-CA--N-[C] |==|  0.62180
USER: genes 10 Torsion [N]-C--CA-[N] |==|  0.39390
USER: genes 11 Torsion [C]-CA--N-[H2] |==|  0.95726
USER: genes 12 Torsion [C]-CA--CB-[OG] |==|  0.65848
USER: genes 13 Torsion [CA]-CB--OG-[HG] |==|  0.23387
ROOT
ATOM      1  CA  PHE C   1     111.165 174.979  56.896  1.00 43.43 LIG 0.18  C 
ENDROOT
BRANCH 1 2
ATOM      2  C   PHE C   1     110.694 175.321  55.490  1.00 43.95 LIG 0.24  C 
ATOM      3 O    PHE C   1     111.522 175.450  54.582  1.00 42.64 LIG-0.27  OA
ATOM      4  N   LEU C   2     109.390 175.470  55.291  1.00 45.78 LIG-0.35  N 
ATOM      5 H    LEU C   2     108.786 175.274  55.871  1.00 45.78 LIG 0.16  HD
BRANCH 4 6
ATOM      6  CA  LEU C   2     108.879 175.992  54.038  1.00 46.28 LIG 0.16  C 
BRANCH 6 7
ATOM      7  C   LEU C   2     109.156 174.969  52.943  1.00 47.91 LIG 0.22  C 
ATOM      8 O    LEU C   2     110.095 174.178  53.041  1.00 50.38 LIG-0.29  OA
ENDBRANCH 6 7
BRANCH 6 9
ATOM      9  CB  LEU C   2     109.536 177.333  53.709  1.00 44.46 LIG 0.04  C 
BRANCH 9 10
ATOM     10  CG  LEU C   2     109.577 178.345  54.854  1.00 41.86 LIG-0.02  C 
ATOM     11  CD2 LEU C   2     108.569 179.456  54.615  1.00 43.32 LIG 0.01  C 
ATOM     12  CD1 LEU C   2     110.977 178.913  55.011  1.00 39.91 LIG 0.01  C 
ENDBRANCH 9 10
ENDBRANCH 6 9
ENDBRANCH 4 6
ENDBRANCH 1 2
BRANCH 1 13
ATOM     13  CB  PHE C   1     111.004 173.489  57.204  1.00 40.74 LIG 0.07  C 
BRANCH 13 14
ATOM     14  CG  PHE C   1     109.886 173.209  58.156  1.00 40.58 LIG-0.06  A 
ATOM     15  CD1 PHE C   1     108.571 173.392  57.768  1.00 41.26 LIG 0.01  A 
ATOM     16  CE1 PHE C   1     107.538 173.157  58.645  1.00 41.59 LIG 0.00  A 
ATOM     17  CZ  PHE C   1     107.813 172.741  59.932  1.00 39.95 LIG 0.00  A 
ATOM     18  CE2 PHE C   1     109.122 172.569  60.338  1.00 40.65 LIG 0.00  A 
ATOM     19  CD2 PHE C   1     110.151 172.807  59.455  1.00 39.59 LIG 0.01  A 
ENDBRANCH 13 14
ENDBRANCH 1 13
BRANCH 1 20
ATOM     20  N   PHE C   1     110.523 175.786  57.925  1.00 44.33 LIG-0.35  N 
ATOM     21 H    PHE C   1     109.675 175.881  57.816  1.00 44.33 LIG 0.16  HD
ATOM     22  C   SER C   0     111.199 176.323  58.939  1.00 45.23 LIG 0.25  C 
ATOM     23 O    SER C   0     112.424 176.235  59.054  1.00 45.89 LIG-0.27  OA
BRANCH 22 24
ATOM     24  CA  SER C   0     110.371 177.071  59.977  1.00 46.83 LIG 0.30  C 
BRANCH 24 25
ATOM     25  N   SER C   0     110.881 176.840  61.325  1.00 48.27 LIG-0.06  N 
ATOM     26 H2   SER C   0     111.432 176.141  61.318  1.00 48.27 LIG 0.28  HD
ATOM     27 H1   SER C   0     110.201 176.676  61.876  1.00 48.27 LIG 0.28  HD
ATOM     28 H3   SER C   0     111.320 177.562  61.604  1.00 48.27 LIG 0.28  HD
ENDBRANCH 24 25
BRANCH 24 29
ATOM     29  CB  SER C   0     110.358 178.567  59.651  1.00 47.94 LIG 0.21  C 
BRANCH 29 30
ATOM     30 OG   SER C   0     110.847 179.332  60.737  1.00 49.79 LIG-0.40  OA
ATOM     31 HG   SER C   0     111.686 179.360  60.706  1.00 49.79 LIG 0.21  HD
ENDBRANCH 29 30
ENDBRANCH 24 29
ENDBRANCH 22 24
ENDBRANCH 1 20
TORSDOF 12
ENDMDL
MODEL 12
USER: ADFR SOLUTION from run 155
USER: SCORE 8.275498 LL:  -2.041 LR:  -6.506 RR:   0.000 FEB:  -2.926
USER: RMSD 3.714441
USER: SEED 154
USER: STATUS no improvement in best in 17 clusters for 5 generations
USER: GENES 14
USER: genes 0 Translation |==|  0.53892 0.61566 0.29321
USER: genes 1 Rotation |==|  0.34861 0.48984 0.49851 0.97642
USER: genes 2 Torsion [N]-CA--C-[N] |==|  0.30058
USER: genes 3 Torsion [C]-N--CA-[C] |==|  0.18684
USER: genes 4 Torsion [N]-CA--C-[O] |==|  0.73191
USER: genes 5 Torsion [N]-CA--CB-[CG] |==|  0.74352
USER: genes 6 Torsion [CA]-CB--CG-[CD2] |==|  0.21048
USER: genes 7 Torsion [C]-CA--CB-[CG] |==|  0.53134
USER: genes 8 Torsion [CA]-CB--CG-[CD1] |==|  0.29904
USER: genes 9 Torsion [C]-CA--N-[C] |==|  0.67222
USER: genes 10 Torsion [N]-C--CA-[N] |==|  0.12839
USER: genes 11 Torsion [C]-CA--N-[H2] |==|  0.72688
USER: genes 12 Torsion [C]-CA--CB-[OG] |==|  0.57402
USER: genes 13 Torsion [CA]-CB--OG-[HG] |==|  0.21933
ROOT
ATOM      1  CA  PHE C   1     110.068 175.384  56.197  1.00 43.43 LIG 0.18  C 
ENDROOT
BRANCH 1 2
ATOM      2  C   PHE C   1     108.824 174.616  55.777  1.00 43.95 LIG 0.24  C 
ATOM      3 O    PHE C   1     108.558 173.538  56.319  1.00 42.64 LIG-0.27  OA
ATOM      4  N   LEU C   2     108.059 175.142  54.828  1.00 45.78 LIG-0.35  N 
ATOM      5 H    LEU C   2     108.153 175.939  54.517  1.00 45.78 LIG 0.16  HD
BRANCH 4 6
ATOM      6  CA  LEU C   2     106.977 174.384  54.231  1.00 46.28 LIG 0.16  C 
BRANCH 6 7
ATOM      7  C   LEU C   2     105.906 174.159  55.292  1.00 47.91 LIG 0.22  C 
ATOM      8 O    LEU C   2     105.866 173.111  55.937  1.00 50.38 LIG-0.29  OA
ENDBRANCH 6 7
BRANCH 6 9
ATOM      9  CB  LEU C   2     107.493 173.050  53.689  1.00 44.46 LIG 0.04  C 
BRANCH 9 10
ATOM     10  CG  LEU C   2     107.920 173.056  52.221  1.00 41.86 LIG-0.02  C 
ATOM     11  CD2 LEU C   2     109.266 173.742  52.064  1.00 43.32 LIG 0.01  C 
ATOM     12  CD1 LEU C   2     106.865 173.736  51.366  1.00 39.91 LIG 0.01  C 
ENDBRANCH 9 10
ENDBRANCH 6 9
ENDBRANCH 4 6
ENDBRANCH 1 2
BRANCH 1 13
ATOM     13  CB  PHE C   1     111.327 174.520  56.112  1.00 40.74 LIG 0.07  C 
BRANCH 13 14
ATOM     14  CG  PHE C   1     112.512 175.154  56.766  1.00 40.58 LIG-0.06  A 
ATOM     15  CD1 PHE C   1     112.996 174.667  57.968  1.00 41.26 LIG 0.01  A 
ATOM     16  CE1 PHE C   1     114.073 175.258  58.586  1.00 41.59 LIG 0.00  A 
ATOM     17  CZ  PHE C   1     114.676 176.356  58.009  1.00 39.95 LIG 0.00  A 
ATOM     18  CE2 PHE C   1     114.195 176.863  56.817  1.00 40.65 LIG 0.00  A 
ATOM     19  CD2 PHE C   1     113.116 176.267  56.205  1.00 39.59 LIG 0.01  A 
ENDBRANCH 13 14
ENDBRANCH 1 13
BRANCH 1 20
ATOM     20  N   PHE C   1     109.948 175.986  57.519  1.00 44.33 LIG-0.35  N 
ATOM     21 H    PHE C   1     109.839 175.417  58.154  1.00 44.33 LIG 0.16  HD
ATOM     22  C   SER C   0     110.006 177.303  57.713  1.00 45.23 LIG 0.25  C 
ATOM     23 O    SER C   0     110.098 178.117  56.791  1.00 45.89 LIG-0.27  OA
BRANCH 22 24
ATOM     24  CA  SER C   0     109.947 177.770  59.162  1.00 46.83 LIG 0.30  C 
BRANCH 24 25
ATOM     25  N   SER C   0     110.844 176.985  60.005  1.00 48.27 LIG-0.06  N 
ATOM     26 H2   SER C   0     110.380 176.350  60.423  1.00 48.27 LIG 0.28  HD
ATOM     27 H1   SER C   0     111.226 177.517  60.608  1.00 48.27 LIG 0.28  HD
ATOM     28 H3   SER C   0     111.473 176.609  59.500  1.00 48.27 LIG 0.28  HD
ENDBRANCH 24 25
BRANCH 24 29
ATOM     29  CB  SER C   0     110.293 179.259  59.243  1.00 47.94 LIG 0.21  C 
BRANCH 29 30
ATOM     30 OG   SER C   0     110.837 179.592  60.508  1.00 49.79 LIG-0.40  OA
ATOM     31 HG   SER C   0     111.644 179.362  60.535  1.00 49.79 LIG 0.21  HD
ENDBRANCH 29 30
ENDBRANCH 24 29
ENDBRANCH 22 24
ENDBRANCH 1 20
TORSDOF 12
ENDMDL
MODEL 13
USER: ADFR SOLUTION from run 75
USER: SCORE 8.658851 LL:  -2.196 LR:  -6.490 RR:   0.000 FEB:  -2.911
USER: RMSD 4.460440
USER: SEED 74
USER: STATUS no improvement in best in 6 clusters for 5 generations
USER: GENES 14
USER: genes 0 Translation |==|  0.54771 0.55215 0.29626
USER: genes 1 Rotation |==|  0.57088 0.33018 0.48503 0.96466
USER: genes 2 Torsion [N]-CA--C-[N] |==|  0.01167
USER: genes 3 Torsion [C]-N--CA-[C] |==|  0.17306
USER: genes 4 Torsion [N]-CA--C-[O] |==|  0.75299
USER: genes 5 Torsion [N]-CA--CB-[CG] |==|  0.90251
USER: genes 6 Torsion [CA]-CB--CG-[CD2] |==|  0.68062
USER: genes 7 Torsion [C]-CA--CB-[CG] |==|  0.31465
USER: genes 8 Torsion [CA]-CB--CG-[CD1] |==|  0.31210
USER: genes 9 Torsion [C]-CA--N-[C] |==|  0.75262
USER: genes 10 Torsion [N]-C--CA-[N] |==|  0.50486
USER: genes 11 Torsion [C]-CA--N-[H2] |==|  0.67297
USER: genes 12 Torsion [C]-CA--CB-[OG] |==|  0.65300
USER: genes 13 Torsion [CA]-CB--OG-[HG] |==|  0.54556
ROOT
ATOM      1  CA  PHE C   1     110.232 174.479  56.247  1.00 43.43 LIG 0.18  C 
ENDROOT
BRANCH 1 2
ATOM      2  C   PHE C   1     109.752 174.460  54.804  1.00 43.95 LIG 0.24  C 
ATOM      3 O    PHE C   1     110.495 174.868  53.906  1.00 42.64 LIG-0.27  OA
ATOM      4  N   LEU C   2     108.530 174.000  54.562  1.00 45.78 LIG-0.35  N 
ATOM      5 H    LEU C   2     108.037 173.604  55.147  1.00 45.78 LIG 0.16  HD
BRANCH 4 6
ATOM      6  CA  LEU C   2     107.923 174.136  53.252  1.00 46.28 LIG 0.16  C 
BRANCH 6 7
ATOM      7  C   LEU C   2     108.770 173.363  52.248  1.00 47.91 LIG 0.22  C 
ATOM      8 O    LEU C   2     109.713 173.903  51.669  1.00 50.38 LIG-0.29  OA
ENDBRANCH 6 7
BRANCH 6 9
ATOM      9  CB  LEU C   2     107.825 175.611  52.859  1.00 44.46 LIG 0.04  C 
BRANCH 9 10
ATOM     10  CG  LEU C   2     107.543 176.581  54.006  1.00 41.86 LIG-0.02  C 
ATOM     11  CD2 LEU C   2     106.187 177.241  53.820  1.00 43.32 LIG 0.01  C 
ATOM     12  CD1 LEU C   2     108.642 177.625  54.100  1.00 39.91 LIG 0.01  C 
ENDBRANCH 9 10
ENDBRANCH 6 9
ENDBRANCH 4 6
ENDBRANCH 1 2
BRANCH 1 13
ATOM     13  CB  PHE C   1     111.610 173.831  56.398  1.00 40.74 LIG 0.07  C 
BRANCH 13 14
ATOM     14  CG  PHE C   1     112.672 174.806  56.792  1.00 40.58 LIG-0.06  A 
ATOM     15  CD1 PHE C   1     113.268 174.730  58.038  1.00 41.26 LIG 0.01  A 
ATOM     16  CE1 PHE C   1     114.231 175.637  58.415  1.00 41.59 LIG 0.00  A 
ATOM     17  CZ  PHE C   1     114.603 176.642  57.548  1.00 39.95 LIG 0.00  A 
ATOM     18  CE2 PHE C   1     114.005 176.740  56.306  1.00 40.65 LIG 0.00  A 
ATOM     19  CD2 PHE C   1     113.042 175.830  55.935  1.00 39.59 LIG 0.01  A 
ENDBRANCH 13 14
ENDBRANCH 1 13
BRANCH 1 20
ATOM     20  N   PHE C   1     109.281 173.879  57.174  1.00 44.33 LIG-0.35  N 
ATOM     21 H    PHE C   1     109.401 173.038  57.302  1.00 44.33 LIG 0.16  HD
ATOM     22  C   SER C   0     108.316 174.584  57.764  1.00 45.23 LIG 0.25  C 
ATOM     23 O    SER C   0     108.110 175.776  57.526  1.00 45.89 LIG-0.27  OA
BRANCH 22 24
ATOM     24  CA  SER C   0     107.455 173.829  58.769  1.00 46.83 LIG 0.30  C 
BRANCH 24 25
ATOM     25  N   SER C   0     106.410 174.687  59.317  1.00 48.27 LIG-0.06  N 
ATOM     26 H2   SER C   0     106.526 174.773  60.196  1.00 48.27 LIG 0.28  HD
ATOM     27 H1   SER C   0     105.613 174.324  59.158  1.00 48.27 LIG 0.28  HD
ATOM     28 H3   SER C   0     106.452 175.489  58.933  1.00 48.27 LIG 0.28  HD
ENDBRANCH 24 25
BRANCH 24 29
ATOM     29  CB  SER C   0     106.846 172.591  58.104  1.00 47.94 LIG 0.21  C 
BRANCH 29 30
ATOM     30 OG   SER C   0     105.435 172.583  58.231  1.00 49.79 LIG-0.40  OA
ATOM     31 HG   SER C   0     105.143 171.812  58.069  1.00 49.79 LIG 0.21  HD
ENDBRANCH 29 30
ENDBRANCH 24 29
ENDBRANCH 22 24
ENDBRANCH 1 20
TORSDOF 12
ENDMDL
MODEL 14
USER: ADFR SOLUTION from run 20
USER: SCORE 7.977353 LL:  -2.075 LR:  -6.480 RR:   0.000 FEB:  -2.900
USER: RMSD 4.448871
USER: SEED 19
USER: STATUS no improvement in best in 20 clusters for 5 generations
USER: GENES 14
USER: genes 0 Translation |==|  0.57048 0.53283 0.33326
USER: genes 1 Rotation |==|  0.68706 0.50863 0.55011 0.96089
USER: genes 2 Torsion [N]-CA--C-[N] |==|  0.55400
USER: genes 3 Torsion [C]-N--CA-[C] |==|  0.71114
USER: genes 4 Torsion [N]-CA--C-[O] |==|  0.93541
USER: genes 5 Torsion [N]-CA--CB-[CG] |==|  0.98051
USER: genes 6 Torsion [CA]-CB--CG-[CD2] |==|  0.55541
USER: genes 7 Torsion [C]-CA--CB-[CG] |==|  0.40941
USER: genes 8 Torsion [CA]-CB--CG-[CD1] |==|  0.65347
USER: genes 9 Torsion [C]-CA--N-[C] |==|  0.66399
USER: genes 10 Torsion [N]-C--CA-[N] |==|  0.61883
USER: genes 11 Torsion [C]-CA--N-[H2] |==|  0.01876
USER: genes 12 Torsion [C]-CA--CB-[OG] |==|  0.46722
USER: genes 13 Torsion [CA]-CB--OG-[HG] |==|  0.61549
ROOT
ATOM      1  CA  PHE C   1     110.660 174.204  56.858  1.00 43.43 LIG 0.18  C 
ENDROOT
BRANCH 1 2
ATOM      2  C   PHE C   1     109.412 174.176  55.988  1.00 43.95 LIG 0.24  C 
ATOM      3 O    PHE C   1     108.477 173.424  56.282  1.00 42.64 LIG-0.27  OA
ATOM      4  N   LEU C   2     109.376 174.974  54.927  1.00 45.78 LIG-0.35  N 
ATOM      5 H    LEU C   2     109.956 175.588  54.763  1.00 45.78 LIG 0.16  HD
BRANCH 4 6
ATOM      6  CA  LEU C   2     108.320 174.862  53.940  1.00 46.28 LIG 0.16  C 
BRANCH 6 7
ATOM      7  C   LEU C   2     108.886 174.163  52.710  1.00 47.91 LIG 0.22  C 
ATOM      8 O    LEU C   2     110.095 174.175  52.477  1.00 50.38 LIG-0.29  OA
ENDBRANCH 6 7
BRANCH 6 9
ATOM      9  CB  LEU C   2     107.776 176.245  53.578  1.00 44.46 LIG 0.04  C 
BRANCH 9 10
ATOM     10  CG  LEU C   2     108.310 177.404  54.420  1.00 41.86 LIG-0.02  C 
ATOM     11  CD2 LEU C   2     107.380 178.601  54.324  1.00 43.32 LIG 0.01  C 
ATOM     12  CD1 LEU C   2     109.715 177.776  53.979  1.00 39.91 LIG 0.01  C 
ENDBRANCH 9 10
ENDBRANCH 6 9
ENDBRANCH 4 6
ENDBRANCH 1 2
BRANCH 1 13
ATOM     13  CB  PHE C   1     111.926 174.428  56.030  1.00 40.74 LIG 0.07  C 
BRANCH 13 14
ATOM     14  CG  PHE C   1     112.973 175.202  56.766  1.00 40.58 LIG-0.06  A 
ATOM     15  CD1 PHE C   1     113.500 176.361  56.225  1.00 41.26 LIG 0.01  A 
ATOM     16  CE1 PHE C   1     114.479 177.066  56.886  1.00 41.59 LIG 0.00  A 
ATOM     17  CZ  PHE C   1     114.950 176.610  58.100  1.00 39.95 LIG 0.00  A 
ATOM     18  CE2 PHE C   1     114.444 175.445  58.645  1.00 40.65 LIG 0.00  A 
ATOM     19  CD2 PHE C   1     113.465 174.745  57.977  1.00 39.59 LIG 0.01  A 
ENDBRANCH 13 14
ENDBRANCH 1 13
BRANCH 1 20
ATOM     20  N   PHE C   1     110.798 173.019  57.695  1.00 44.33 LIG-0.35  N 
ATOM     21 H    PHE C   1     110.836 172.282  57.253  1.00 44.33 LIG 0.16  HD
ATOM     22  C   SER C   0     110.861 173.086  59.024  1.00 45.23 LIG 0.25  C 
ATOM     23 O    SER C   0     110.741 174.140  59.652  1.00 45.89 LIG-0.27  OA
BRANCH 22 24
ATOM     24  CA  SER C   0     111.089 171.766  59.751  1.00 46.83 LIG 0.30  C 
BRANCH 24 25
ATOM     25  N   SER C   0     110.233 171.657  60.928  1.00 48.27 LIG-0.06  N 
ATOM     26 H2   SER C   0     109.665 172.343  60.947  1.00 48.27 LIG 0.28  HD
ATOM     27 H1   SER C   0     110.735 171.669  61.663  1.00 48.27 LIG 0.28  HD
ATOM     28 H3   SER C   0     109.776 170.894  60.894  1.00 48.27 LIG 0.28  HD
ENDBRANCH 24 25
BRANCH 24 29
ATOM     29  CB  SER C   0     110.844 170.596  58.793  1.00 47.94 LIG 0.21  C 
BRANCH 29 30
ATOM     30 OG   SER C   0     111.303 169.376  59.347  1.00 49.79 LIG-0.40  OA
ATOM     31 HG   SER C   0     111.689 168.926  58.752  1.00 49.79 LIG 0.21  HD
ENDBRANCH 29 30
ENDBRANCH 24 29
ENDBRANCH 22 24
ENDBRANCH 1 20
TORSDOF 12
ENDMDL
MODEL 15
USER: ADFR SOLUTION from run 80
USER: SCORE 8.729506 LL:  -2.307 LR:  -6.424 RR:   0.000 FEB:  -2.844
USER: RMSD 3.826595
USER: SEED 79
USER: STATUS no improvement in best in 15 clusters for 5 generations
USER: GENES 14
USER: genes 0 Translation |==|  0.64303 0.68239 0.31519
USER: genes 1 Rotation |==|  0.32811 0.45152 0.60399 0.95529
USER: genes 2 Torsion [N]-CA--C-[N] |==|  0.94121
USER: genes 3 Torsion [C]-N--CA-[C] |==|  0.78144
USER: genes 4 Torsion [N]-CA--C-[O] |==|  0.95367
USER: genes 5 Torsion [N]-CA--CB-[CG] |==|  0.83253
USER: genes 6 Torsion [CA]-CB--CG-[CD2] |==|  0.70477
USER: genes 7 Torsion [C]-CA--CB-[CG] |==|  0.76838
USER: genes 8 Torsion [CA]-CB--CG-[CD1] |==|  0.10153
USER: genes 9 Torsion [C]-CA--N-[C] |==|  0.81627
USER: genes 10 Torsion [N]-C--CA-[N] |==|  0.90781
USER: genes 11 Torsion [C]-CA--N-[H2] |==|  0.37772
USER: genes 12 Torsion [C]-CA--CB-[OG] |==|  0.61891
USER: genes 13 Torsion [CA]-CB--OG-[HG] |==|  0.19769
ROOT
ATOM      1  CA  PHE C   1     112.020 176.335  56.560  1.00 43.43 LIG 0.18  C 
ENDROOT
BRANCH 1 2
ATOM      2  C   PHE C   1     111.252 175.062  56.238  1.00 43.95 LIG 0.24  C 
ATOM      3 O    PHE C   1     111.213 174.647  55.075  1.00 42.64 LIG-0.27  OA
ATOM      4  N   LEU C   2     110.642 174.435  57.237  1.00 45.78 LIG-0.35  N 
ATOM      5 H    LEU C   2     110.746 174.632  58.068  1.00 45.78 LIG 0.16  HD
BRANCH 4 6
ATOM      6  CA  LEU C   2     109.727 173.338  56.986  1.00 46.28 LIG 0.16  C 
BRANCH 6 7
ATOM      7  C   LEU C   2     108.390 173.920  56.542  1.00 47.91 LIG 0.22  C 
ATOM      8 O    LEU C   2     108.124 175.108  56.733  1.00 50.38 LIG-0.29  OA
ENDBRANCH 6 7
BRANCH 6 9
ATOM      9  CB  LEU C   2     109.557 172.485  58.244  1.00 44.46 LIG 0.04  C 
BRANCH 9 10
ATOM     10  CG  LEU C   2     110.835 171.839  58.779  1.00 41.86 LIG-0.02  C 
ATOM     11  CD2 LEU C   2     110.838 170.348  58.484  1.00 43.32 LIG 0.01  C 
ATOM     12  CD1 LEU C   2     110.974 172.093  60.270  1.00 39.91 LIG 0.01  C 
ENDBRANCH 9 10
ENDBRANCH 6 9
ENDBRANCH 4 6
ENDBRANCH 1 2
BRANCH 1 13
ATOM     13  CB  PHE C   1     113.531 176.102  56.567  1.00 40.74 LIG 0.07  C 
BRANCH 13 14
ATOM     14  CG  PHE C   1     114.030 175.557  57.865  1.00 40.58 LIG-0.06  A 
ATOM     15  CD1 PHE C   1     113.272 174.649  58.585  1.00 41.26 LIG 0.01  A 
ATOM     16  CE1 PHE C   1     113.716 174.159  59.791  1.00 41.59 LIG 0.00  A 
ATOM     17  CZ  PHE C   1     114.926 174.582  60.299  1.00 39.95 LIG 0.00  A 
ATOM     18  CE2 PHE C   1     115.687 175.500  59.600  1.00 40.65 LIG 0.00  A 
ATOM     19  CD2 PHE C   1     115.237 175.986  58.394  1.00 39.59 LIG 0.01  A 
ENDBRANCH 13 14
ENDBRANCH 1 13
BRANCH 1 20
ATOM     20  N   PHE C   1     111.592 176.960  57.805  1.00 44.33 LIG-0.35  N 
ATOM     21 H    PHE C   1     112.192 176.956  58.421  1.00 44.33 LIG 0.16  HD
ATOM     22  C   SER C   0     110.379 177.488  57.960  1.00 45.23 LIG 0.25  C 
ATOM     23 O    SER C   0     109.504 177.432  57.094  1.00 45.89 LIG-0.27  OA
BRANCH 22 24
ATOM     24  CA  SER C   0     110.115 178.177  59.293  1.00 46.83 LIG 0.30  C 
BRANCH 24 25
ATOM     25  N   SER C   0     110.838 177.522  60.379  1.00 48.27 LIG-0.06  N 
ATOM     26 H2   SER C   0     111.213 178.138  60.900  1.00 48.27 LIG 0.28  HD
ATOM     27 H1   SER C   0     111.471 176.996  60.039  1.00 48.27 LIG 0.28  HD
ATOM     28 H3   SER C   0     110.272 177.031  60.859  1.00 48.27 LIG 0.28  HD
ENDBRANCH 24 25
BRANCH 24 29
ATOM     29  CB  SER C   0     110.502 179.656  59.199  1.00 47.94 LIG 0.21  C 
BRANCH 29 30
ATOM     30 OG   SER C   0     111.197 180.078  60.359  1.00 49.79 LIG-0.40  OA
ATOM     31 HG   SER C   0     111.963 179.736  60.367  1.00 49.79 LIG 0.21  HD
ENDBRANCH 29 30
ENDBRANCH 24 29
ENDBRANCH 22 24
ENDBRANCH 1 20
TORSDOF 12
ENDMDL
MODEL 16
USER: ADFR SOLUTION from run 82
USER: SCORE 8.236294 LL:  -2.079 LR:  -6.382 RR:   0.000 FEB:  -2.803
USER: RMSD 4.393296
USER: SEED 81
USER: STATUS no improvement in best in 11 clusters for 5 generations
USER: GENES 14
USER: genes 0 Translation |==|  0.56681 0.62219 0.37552
USER: genes 1 Rotation |==|  0.34742 0.49639 0.77551 0.88833
USER: genes 2 Torsion [N]-CA--C-[N] |==|  0.05338
USER: genes 3 Torsion [C]-N--CA-[C] |==|  0.62694
USER: genes 4 Torsion [N]-CA--C-[O] |==|  0.01937
USER: genes 5 Torsion [N]-CA--CB-[CG] |==|  0.58513
USER: genes 6 Torsion [CA]-CB--CG-[CD2] |==|  0.99323
USER: genes 7 Torsion [C]-CA--CB-[CG] |==|  0.44251
USER: genes 8 Torsion [CA]-CB--CG-[CD1] |==|  0.23373
USER: genes 9 Torsion [C]-CA--N-[C] |==|  0.19425
USER: genes 10 Torsion [N]-C--CA-[N] |==|  0.52816
USER: genes 11 Torsion [C]-CA--N-[H2] |==|  0.63179
USER: genes 12 Torsion [C]-CA--CB-[OG] |==|  0.72978
USER: genes 13 Torsion [CA]-CB--OG-[HG] |==|  0.16282
ROOT
ATOM      1  CA  PHE C   1     110.591 175.477  57.555  1.00 43.43 LIG 0.18  C 
ENDROOT
BRANCH 1 2
ATOM      2  C   PHE C   1     110.699 173.960  57.561  1.00 43.95 LIG 0.24  C 
ATOM      3 O    PHE C   1     111.275 173.383  56.633  1.00 42.64 LIG-0.27  OA
ATOM      4  N   LEU C   2     110.159 173.303  58.581  1.00 45.78 LIG-0.35  N 
ATOM      5 H    LEU C   2     109.856 173.678  59.293  1.00 45.78 LIG 0.16  HD
BRANCH 4 6
ATOM      6  CA  LEU C   2     110.039 171.857  58.561  1.00 46.28 LIG 0.16  C 
BRANCH 6 7
ATOM      7  C   LEU C   2     108.637 171.486  59.029  1.00 47.91 LIG 0.22  C 
ATOM      8 O    LEU C   2     107.785 172.355  59.223  1.00 50.38 LIG-0.29  OA
ENDBRANCH 6 7
BRANCH 6 9
ATOM      9  CB  LEU C   2     111.099 171.221  59.462  1.00 44.46 LIG 0.04  C 
BRANCH 9 10
ATOM     10  CG  LEU C   2     111.588 169.839  59.028  1.00 41.86 LIG-0.02  C 
ATOM     11  CD2 LEU C   2     110.838 169.377  57.790  1.00 43.32 LIG 0.01  C 
ATOM     12  CD1 LEU C   2     111.426 168.839  60.160  1.00 39.91 LIG 0.01  C 
ENDBRANCH 9 10
ENDBRANCH 6 9
ENDBRANCH 4 6
ENDBRANCH 1 2
BRANCH 1 13
ATOM     13  CB  PHE C   1     111.834 176.135  56.955  1.00 40.74 LIG 0.07  C 
BRANCH 13 14
ATOM     14  CG  PHE C   1     111.585 177.531  56.483  1.00 40.58 LIG-0.06  A 
ATOM     15  CD1 PHE C   1     111.648 178.594  57.367  1.00 41.26 LIG 0.01  A 
ATOM     16  CE1 PHE C   1     111.398 179.878  56.944  1.00 41.59 LIG 0.00  A 
ATOM     17  CZ  PHE C   1     111.071 180.114  55.625  1.00 39.95 LIG 0.00  A 
ATOM     18  CE2 PHE C   1     110.988 179.060  54.734  1.00 40.65 LIG 0.00  A 
ATOM     19  CD2 PHE C   1     111.239 177.778  55.164  1.00 39.59 LIG 0.01  A 
ENDBRANCH 13 14
ENDBRANCH 1 13
BRANCH 1 20
ATOM     20  N   PHE C   1     110.302 176.034  58.870  1.00 44.33 LIG-0.35  N 
ATOM     21 H    PHE C   1     109.511 176.364  58.944  1.00 44.33 LIG 0.16  HD
ATOM     22  C   SER C   0     111.192 176.026  59.861  1.00 45.23 LIG 0.25  C 
ATOM     23 O    SER C   0     112.345 175.610  59.729  1.00 45.89 LIG-0.27  OA
BRANCH 22 24
ATOM     24  CA  SER C   0     110.709 176.571  61.200  1.00 46.83 LIG 0.30  C 
BRANCH 24 25
ATOM     25  N   SER C   0     111.819 176.736  62.134  1.00 48.27 LIG-0.06  N 
ATOM     26 H2   SER C   0     111.599 176.386  62.922  1.00 48.27 LIG 0.28  HD
ATOM     27 H1   SER C   0     111.997 177.603  62.234  1.00 48.27 LIG 0.28  HD
ATOM     28 H3   SER C   0     112.539 176.322  61.815  1.00 48.27 LIG 0.28  HD
ENDBRANCH 24 25
BRANCH 24 29
ATOM     29  CB  SER C   0     109.979 177.901  60.986  1.00 47.94 LIG 0.21  C 
BRANCH 29 30
ATOM     30 OG   SER C   0     110.838 179.001  61.225  1.00 49.79 LIG-0.40  OA
ATOM     31 HG   SER C   0     111.500 178.956  60.711  1.00 49.79 LIG 0.21  HD
ENDBRANCH 29 30
ENDBRANCH 24 29
ENDBRANCH 22 24
ENDBRANCH 1 20
TORSDOF 12
ENDMDL
MODEL 17
USER: ADFR SOLUTION from run 92
USER: SCORE 8.229133 LL:  -2.212 LR:  -6.202 RR:   0.000 FEB:  -2.622
USER: RMSD 4.806228
USER: SEED 91
USER: STATUS no improvement in best in 12 clusters for 5 generations
USER: GENES 14
USER: genes 0 Translation |==|  0.62436 0.62638 0.34064
USER: genes 1 Rotation |==|  0.60447 0.35785 0.46395 0.96646
USER: genes 2 Torsion [N]-CA--C-[N] |==|  0.06029
USER: genes 3 Torsion [C]-N--CA-[C] |==|  0.19008
USER: genes 4 Torsion [N]-CA--C-[O] |==|  0.00229
USER: genes 5 Torsion [N]-CA--CB-[CG] |==|  0.86538
USER: genes 6 Torsion [CA]-CB--CG-[CD2] |==|  0.68889
USER: genes 7 Torsion [C]-CA--CB-[CG] |==|  0.45352
USER: genes 8 Torsion [CA]-CB--CG-[CD1] |==|  0.18539
USER: genes 9 Torsion [C]-CA--N-[C] |==|  0.17073
USER: genes 10 Torsion [N]-C--CA-[N] |==|  0.58718
USER: genes 11 Torsion [C]-CA--N-[H2] |==|  0.99903
USER: genes 12 Torsion [C]-CA--CB-[OG] |==|  0.68367
USER: genes 13 Torsion [CA]-CB--OG-[HG] |==|  0.50919
ROOT
ATOM      1  CA  PHE C   1     111.670 175.537  56.980  1.00 43.43 LIG 0.18  C 
ENDROOT
BRANCH 1 2
ATOM      2  C   PHE C   1     111.031 175.747  55.615  1.00 43.95 LIG 0.24  C 
ATOM      3 O    PHE C   1     111.745 175.974  54.633  1.00 42.64 LIG-0.27  OA
ATOM      4  N   LEU C   2     109.707 175.679  55.532  1.00 45.78 LIG-0.35  N 
ATOM      5 H    LEU C   2     109.195 175.410  56.169  1.00 45.78 LIG 0.16  HD
BRANCH 4 6
ATOM      6  CA  LEU C   2     109.012 176.066  54.320  1.00 46.28 LIG 0.16  C 
BRANCH 6 7
ATOM      7  C   LEU C   2     109.341 175.050  53.232  1.00 47.91 LIG 0.22  C 
ATOM      8 O    LEU C   2     110.075 174.090  53.467  1.00 50.38 LIG-0.29  OA
ENDBRANCH 6 7
BRANCH 6 9
ATOM      9  CB  LEU C   2     109.427 177.475  53.892  1.00 44.46 LIG 0.04  C 
BRANCH 9 10
ATOM     10  CG  LEU C   2     109.400 178.533  54.994  1.00 41.86 LIG-0.02  C 
ATOM     11  CD2 LEU C   2     108.300 179.547  54.729  1.00 43.32 LIG 0.01  C 
ATOM     12  CD1 LEU C   2     110.751 179.220  55.104  1.00 39.91 LIG 0.01  C 
ENDBRANCH 9 10
ENDBRANCH 6 9
ENDBRANCH 4 6
ENDBRANCH 1 2
BRANCH 1 13
ATOM     13  CB  PHE C   1     113.038 174.863  56.870  1.00 40.74 LIG 0.07  C 
BRANCH 13 14
ATOM     14  CG  PHE C   1     113.855 174.998  58.114  1.00 40.58 LIG-0.06  A 
ATOM     15  CD1 PHE C   1     113.462 174.373  59.285  1.00 41.26 LIG 0.01  A 
ATOM     16  CE1 PHE C   1     114.198 174.512  60.439  1.00 41.59 LIG 0.00  A 
ATOM     17  CZ  PHE C   1     115.337 175.290  60.436  1.00 39.95 LIG 0.00  A 
ATOM     18  CE2 PHE C   1     115.733 175.932  59.279  1.00 40.65 LIG 0.00  A 
ATOM     19  CD2 PHE C   1     114.992 175.790  58.128  1.00 39.59 LIG 0.01  A 
ENDBRANCH 13 14
ENDBRANCH 1 13
BRANCH 1 20
ATOM     20  N   PHE C   1     110.812 174.807  57.905  1.00 44.33 LIG-0.35  N 
ATOM     21 H    PHE C   1     110.601 175.252  58.610  1.00 44.33 LIG 0.16  HD
ATOM     22  C   SER C   0     110.400 173.563  57.668  1.00 45.23 LIG 0.25  C 
ATOM     23 O    SER C   0     110.759 172.909  56.686  1.00 45.89 LIG-0.27  OA
BRANCH 22 24
ATOM     24  CA  SER C   0     109.441 172.969  58.693  1.00 46.83 LIG 0.30  C 
BRANCH 24 25
ATOM     25  N   SER C   0     109.617 171.524  58.803  1.00 48.27 LIG-0.06  N 
ATOM     26 H2   SER C   0     110.254 171.258  58.241  1.00 48.27 LIG 0.28  HD
ATOM     27 H1   SER C   0     108.853 171.115  58.598  1.00 48.27 LIG 0.28  HD
ATOM     28 H3   SER C   0     109.850 171.316  59.636  1.00 48.27 LIG 0.28  HD
ENDBRANCH 24 25
BRANCH 24 29
ATOM     29  CB  SER C   0     109.648 173.645  60.051  1.00 47.94 LIG 0.21  C 
BRANCH 29 30
ATOM     30 OG   SER C   0     110.159 172.732  61.005  1.00 49.79 LIG-0.40  OA
ATOM     31 HG   SER C   0     110.222 173.112  61.751  1.00 49.79 LIG 0.21  HD
ENDBRANCH 29 30
ENDBRANCH 24 29
ENDBRANCH 22 24
ENDBRANCH 1 20
TORSDOF 12
ENDMDL
MODEL 18
USER: ADFR SOLUTION from run 136
USER: SCORE 8.315976 LL:  -2.169 LR:  -6.173 RR:   0.000 FEB:  -2.594
USER: RMSD 3.985378
USER: SEED 135
USER: STATUS no improvement in best in 11 clusters for 5 generations
USER: GENES 14
USER: genes 0 Translation |==|  0.52749 0.56108 0.40161
USER: genes 1 Rotation |==|  0.68793 0.42133 0.81797 0.82770
USER: genes 2 Torsion [N]-CA--C-[N] |==|  0.38166
USER: genes 3 Torsion [C]-N--CA-[C] |==|  0.81754
USER: genes 4 Torsion [N]-CA--C-[O] |==|  0.24944
USER: genes 5 Torsion [N]-CA--CB-[CG] |==|  0.60907
USER: genes 6 Torsion [CA]-CB--CG-[CD2] |==|  0.24831
USER: genes 7 Torsion [C]-CA--CB-[CG] |==|  0.81887
USER: genes 8 Torsion [CA]-CB--CG-[CD1] |==|  0.77999
USER: genes 9 Torsion [C]-CA--N-[C] |==|  0.80529
USER: genes 10 Torsion [N]-C--CA-[N] |==|  0.34810
USER: genes 11 Torsion [C]-CA--N-[H2] |==|  0.12969
USER: genes 12 Torsion [C]-CA--CB-[OG] |==|  0.60547
USER: genes 13 Torsion [CA]-CB--OG-[HG] |==|  0.52449
ROOT
ATOM      1  CA  PHE C   1     109.853 174.606  57.986  1.00 43.43 LIG 0.18  C 
ENDROOT
BRANCH 1 2
ATOM      2  C   PHE C   1     109.861 174.251  56.506  1.00 43.95 LIG 0.24  C 
ATOM      3 O    PHE C   1     110.881 173.775  55.996  1.00 42.64 LIG-0.27  OA
ATOM      4  N   LEU C   2     108.753 174.472  55.809  1.00 45.78 LIG-0.35  N 
ATOM      5 H    LEU C   2     107.998 174.691  56.157  1.00 45.78 LIG 0.16  HD
BRANCH 4 6
ATOM      6  CA  LEU C   2     108.742 174.354  54.363  1.00 46.28 LIG 0.16  C 
BRANCH 6 7
ATOM      7  C   LEU C   2     109.637 175.444  53.786  1.00 47.91 LIG 0.22  C 
ATOM      8 O    LEU C   2     110.837 175.242  53.597  1.00 50.38 LIG-0.29  OA
ENDBRANCH 6 7
BRANCH 6 9
ATOM      9  CB  LEU C   2     107.315 174.481  53.827  1.00 44.46 LIG 0.04  C 
BRANCH 9 10
ATOM     10  CG  LEU C   2     106.960 173.546  52.671  1.00 41.86 LIG-0.02  C 
ATOM     11  CD2 LEU C   2     106.414 172.231  53.203  1.00 43.32 LIG 0.01  C 
ATOM     12  CD1 LEU C   2     108.174 173.308  51.790  1.00 39.91 LIG 0.01  C 
ENDBRANCH 9 10
ENDBRANCH 6 9
ENDBRANCH 4 6
ENDBRANCH 1 2
BRANCH 1 13
ATOM     13  CB  PHE C   1     110.467 175.983  58.245  1.00 40.74 LIG 0.07  C 
BRANCH 13 14
ATOM     14  CG  PHE C   1     111.922 176.044  57.910  1.00 40.58 LIG-0.06  A 
ATOM     15  CD1 PHE C   1     112.867 175.535  58.784  1.00 41.26 LIG 0.01  A 
ATOM     16  CE1 PHE C   1     114.209 175.607  58.492  1.00 41.59 LIG 0.00  A 
ATOM     17  CZ  PHE C   1     114.624 176.203  57.320  1.00 39.95 LIG 0.00  A 
ATOM     18  CE2 PHE C   1     113.694 176.730  56.445  1.00 40.65 LIG 0.00  A 
ATOM     19  CD2 PHE C   1     112.352 176.654  56.743  1.00 39.59 LIG 0.01  A 
ENDBRANCH 13 14
ENDBRANCH 1 13
BRANCH 1 20
ATOM     20  N   PHE C   1     110.493 173.596  58.818  1.00 44.33 LIG-0.35  N 
ATOM     21 H    PHE C   1     111.243 173.846  59.157  1.00 44.33 LIG 0.16  HD
ATOM     22  C   SER C   0     109.954 172.397  59.029  1.00 45.23 LIG 0.25  C 
ATOM     23 O    SER C   0     108.910 172.023  58.489  1.00 45.89 LIG-0.27  OA
BRANCH 22 24
ATOM     24  CA  SER C   0     110.705 171.484  59.990  1.00 46.83 LIG 0.30  C 
BRANCH 24 25
ATOM     25  N   SER C   0     109.835 171.022  61.068  1.00 48.27 LIG-0.06  N 
ATOM     26 H2   SER C   0     109.062 170.743  60.727  1.00 48.27 LIG 0.28  HD
ATOM     27 H1   SER C   0     109.684 171.691  61.635  1.00 48.27 LIG 0.28  HD
ATOM     28 H3   SER C   0     110.229 170.351  61.500  1.00 48.27 LIG 0.28  HD
ENDBRANCH 24 25
BRANCH 24 29
ATOM     29  CB  SER C   0     111.295 170.296  59.224  1.00 47.94 LIG 0.21  C 
BRANCH 29 30
ATOM     30 OG   SER C   0     111.213 169.104  59.984  1.00 49.79 LIG-0.40  OA
ATOM     31 HG   SER C   0     111.647 168.496  59.600  1.00 49.79 LIG 0.21  HD
ENDBRANCH 29 30
ENDBRANCH 24 29
ENDBRANCH 22 24
ENDBRANCH 1 20
TORSDOF 12
ENDMDL
MODEL 19
USER: ADFR SOLUTION from run 182
USER: SCORE 8.301094 LL:  -2.226 LR:  -6.129 RR:   0.000 FEB:  -2.550
USER: RMSD 3.381543
USER: SEED 181
USER: STATUS no improvement in best in 16 clusters for 5 generations
USER: GENES 14
USER: genes 0 Translation |==|  0.59417 0.71462 0.25524
USER: genes 1 Rotation |==|  0.39065 0.46139 0.60294 0.97535
USER: genes 2 Torsion [N]-CA--C-[N] |==|  0.03889
USER: genes 3 Torsion [C]-N--CA-[C] |==|  0.78411
USER: genes 4 Torsion [N]-CA--C-[O] |==|  0.90224
USER: genes 5 Torsion [N]-CA--CB-[CG] |==|  0.92179
USER: genes 6 Torsion [CA]-CB--CG-[CD2] |==|  0.86756
USER: genes 7 Torsion [C]-CA--CB-[CG] |==|  0.72143
USER: genes 8 Torsion [CA]-CB--CG-[CD1] |==|  0.15168
USER: genes 9 Torsion [C]-CA--N-[C] |==|  0.70023
USER: genes 10 Torsion [N]-C--CA-[N] |==|  0.03843
USER: genes 11 Torsion [C]-CA--N-[H2] |==|  0.73433
USER: genes 12 Torsion [C]-CA--CB-[OG] |==|  0.53925
USER: genes 13 Torsion [CA]-CB--OG-[HG] |==|  0.30442
ROOT
ATOM      1  CA  PHE C   1     111.104 176.794  55.570  1.00 43.43 LIG 0.18  C 
ENDROOT
BRANCH 1 2
ATOM      2  C   PHE C   1     110.282 175.638  55.021  1.00 43.95 LIG 0.24  C 
ATOM      3 O    PHE C   1     110.605 175.111  53.951  1.00 42.64 LIG-0.27  OA
ATOM      4  N   LEU C   2     109.231 175.233  55.724  1.00 45.78 LIG-0.35  N 
ATOM      5 H    LEU C   2     109.050 175.500  56.522  1.00 45.78 LIG 0.16  HD
BRANCH 4 6
ATOM      6  CA  LEU C   2     108.284 174.281  55.176  1.00 46.28 LIG 0.16  C 
BRANCH 6 7
ATOM      7  C   LEU C   2     107.370 175.019  54.205  1.00 47.91 LIG 0.22  C 
ATOM      8 O    LEU C   2     107.028 176.183  54.420  1.00 50.38 LIG-0.29  OA
ENDBRANCH 6 7
BRANCH 6 9
ATOM      9  CB  LEU C   2     107.473 173.628  56.296  1.00 44.46 LIG 0.04  C 
BRANCH 9 10
ATOM     10  CG  LEU C   2     108.177 173.533  57.649  1.00 41.86 LIG-0.02  C 
ATOM     11  CD2 LEU C   2     109.584 172.984  57.477  1.00 43.32 LIG 0.01  C 
ATOM     12  CD1 LEU C   2     107.375 172.667  58.605  1.00 39.91 LIG 0.01  C 
ENDBRANCH 9 10
ENDBRANCH 6 9
ENDBRANCH 4 6
ENDBRANCH 1 2
BRANCH 1 13
ATOM     13  CB  PHE C   1     112.604 176.570  55.377  1.00 40.74 LIG 0.07  C 
BRANCH 13 14
ATOM     14  CG  PHE C   1     113.284 176.084  56.616  1.00 40.58 LIG-0.06  A 
ATOM     15  CD1 PHE C   1     112.830 174.951  57.269  1.00 41.26 LIG 0.01  A 
ATOM     16  CE1 PHE C   1     113.438 174.510  58.421  1.00 41.59 LIG 0.00  A 
ATOM     17  CZ  PHE C   1     114.508 175.208  58.941  1.00 39.95 LIG 0.00  A 
ATOM     18  CE2 PHE C   1     114.963 176.349  58.309  1.00 40.65 LIG 0.00  A 
ATOM     19  CD2 PHE C   1     114.350 176.785  57.157  1.00 39.59 LIG 0.01  A 
ENDBRANCH 13 14
ENDBRANCH 1 13
BRANCH 1 20
ATOM     20  N   PHE C   1     110.807 177.093  56.965  1.00 44.33 LIG-0.35  N 
ATOM     21 H    PHE C   1     111.104 176.507  57.519  1.00 44.33 LIG 0.16  HD
ATOM     22  C   SER C   0     110.134 178.182  57.336  1.00 45.23 LIG 0.25  C 
ATOM     23 O    SER C   0     109.656 178.985  56.532  1.00 45.89 LIG-0.27  OA
BRANCH 22 24
ATOM     24  CA  SER C   0     109.977 178.394  58.837  1.00 46.83 LIG 0.30  C 
BRANCH 24 25
ATOM     25  N   SER C   0     110.876 177.524  59.589  1.00 48.27 LIG-0.06  N 
ATOM     26 H2   SER C   0     110.440 176.787  59.834  1.00 48.27 LIG 0.28  HD
ATOM     27 H1   SER C   0     111.165 177.952  60.314  1.00 48.27 LIG 0.28  HD
ATOM     28 H3   SER C   0     111.570 177.302  59.079  1.00 48.27 LIG 0.28  HD
ENDBRANCH 24 25
BRANCH 24 29
ATOM     29  CB  SER C   0     110.229 179.864  59.183  1.00 47.94 LIG 0.21  C 
BRANCH 29 30
ATOM     30 OG   SER C   0     110.410 180.038  60.577  1.00 49.79 LIG-0.40  OA
ATOM     31 HG   SER C   0     111.213 180.226  60.734  1.00 49.79 LIG 0.21  HD
ENDBRANCH 29 30
ENDBRANCH 24 29
ENDBRANCH 22 24
ENDBRANCH 1 20
TORSDOF 12
ENDMDL
MODEL 20
USER: ADFR SOLUTION from run 50
USER: SCORE 7.901483 LL:  -2.037 LR:  -6.127 RR:   0.000 FEB:  -2.547
USER: RMSD 3.948542
USER: SEED 49
USER: STATUS no improvement in best in 15 clusters for 5 generations
USER: GENES 14
USER: genes 0 Translation |==|  0.55046 0.56762 0.36812
USER: genes 1 Rotation |==|  0.32460 0.58116 0.75633 0.88333
USER: genes 2 Torsion [N]-CA--C-[N] |==|  0.04504
USER: genes 3 Torsion [C]-N--CA-[C] |==|  0.61887
USER: genes 4 Torsion [N]-CA--C-[O] |==|  0.06065
USER: genes 5 Torsion [N]-CA--CB-[CG] |==|  0.71246
USER: genes 6 Torsion [CA]-CB--CG-[CD2] |==|  0.96522
USER: genes 7 Torsion [C]-CA--CB-[CG] |==|  0.74732
USER: genes 8 Torsion [CA]-CB--CG-[CD1] |==|  0.62807
USER: genes 9 Torsion [C]-CA--N-[C] |==|  0.63910
USER: genes 10 Torsion [N]-C--CA-[N] |==|  0.00862
USER: genes 11 Torsion [C]-CA--N-[H2] |==|  0.11125
USER: genes 12 Torsion [C]-CA--CB-[OG] |==|  0.57775
USER: genes 13 Torsion [CA]-CB--OG-[HG] |==|  0.18218
ROOT
ATOM      1  CA  PHE C   1     110.284 174.700  57.433  1.00 43.43 LIG 0.18  C 
ENDROOT
BRANCH 1 2
ATOM      2  C   PHE C   1     110.200 173.235  57.835  1.00 43.95 LIG 0.24  C 
ATOM      3 O    PHE C   1     110.442 172.356  57.002  1.00 42.64 LIG-0.27  OA
ATOM      4  N   LEU C   2     109.863 172.954  59.089  1.00 45.78 LIG-0.35  N 
ATOM      5 H    LEU C   2     109.803 173.538  59.717  1.00 45.78 LIG 0.16  HD
BRANCH 4 6
ATOM      6  CA  LEU C   2     109.563 171.595  59.497  1.00 46.28 LIG 0.16  C 
BRANCH 6 7
ATOM      7  C   LEU C   2     108.336 171.625  60.400  1.00 47.91 LIG 0.22  C 
ATOM      8 O    LEU C   2     107.546 172.570  60.360  1.00 50.38 LIG-0.29  OA
ENDBRANCH 6 7
BRANCH 6 9
ATOM      9  CB  LEU C   2     110.759 170.979  60.226  1.00 44.46 LIG 0.04  C 
BRANCH 9 10
ATOM     10  CG  LEU C   2     111.585 169.984  59.411  1.00 41.86 LIG-0.02  C 
ATOM     11  CD2 LEU C   2     110.846 169.597  58.141  1.00 43.32 LIG 0.01  C 
ATOM     12  CD1 LEU C   2     111.907 168.754  60.243  1.00 39.91 LIG 0.01  C 
ENDBRANCH 9 10
ENDBRANCH 6 9
ENDBRANCH 4 6
ENDBRANCH 1 2
BRANCH 1 13
ATOM     13  CB  PHE C   1     111.449 174.962  56.478  1.00 40.74 LIG 0.07  C 
BRANCH 13 14
ATOM     14  CG  PHE C   1     112.712 175.332  57.187  1.00 40.58 LIG-0.06  A 
ATOM     15  CD1 PHE C   1     113.474 176.403  56.754  1.00 41.26 LIG 0.01  A 
ATOM     16  CE1 PHE C   1     114.648 176.736  57.389  1.00 41.59 LIG 0.00  A 
ATOM     17  CZ  PHE C   1     115.079 175.990  58.466  1.00 39.95 LIG 0.00  A 
ATOM     18  CE2 PHE C   1     114.337 174.908  58.900  1.00 40.65 LIG 0.00  A 
ATOM     19  CD2 PHE C   1     113.164 174.581  58.260  1.00 39.59 LIG 0.01  A 
ENDBRANCH 13 14
ENDBRANCH 1 13
BRANCH 1 20
ATOM     20  N   PHE C   1     110.345 175.603  58.575  1.00 44.33 LIG-0.35  N 
ATOM     21 H    PHE C   1     110.940 175.389  59.158  1.00 44.33 LIG 0.16  HD
ATOM     22  C   SER C   0     109.545 176.662  58.693  1.00 45.23 LIG 0.25  C 
ATOM     23 O    SER C   0     108.652 176.924  57.885  1.00 45.89 LIG-0.27  OA
BRANCH 22 24
ATOM     24  CA  SER C   0     109.789 177.554  59.904  1.00 46.83 LIG 0.30  C 
BRANCH 24 25
ATOM     25  N   SER C   0     110.936 177.089  60.678  1.00 48.27 LIG-0.06  N 
ATOM     26 H2   SER C   0     111.581 176.825  60.124  1.00 48.27 LIG 0.28  HD
ATOM     27 H1   SER C   0     110.690 176.407  61.193  1.00 48.27 LIG 0.28  HD
ATOM     28 H3   SER C   0     111.238 177.753  61.189  1.00 48.27 LIG 0.28  HD
ENDBRANCH 24 25
BRANCH 24 29
ATOM     29  CB  SER C   0     109.993 179.002  59.449  1.00 47.94 LIG 0.21  C 
BRANCH 29 30
ATOM     30 OG   SER C   0     110.813 179.714  60.359  1.00 49.79 LIG-0.40  OA
ATOM     31 HG   SER C   0     111.587 179.388  60.352  1.00 49.79 LIG 0.21  HD
ENDBRANCH 29 30
ENDBRANCH 24 29
ENDBRANCH 22 24
ENDBRANCH 1 20
TORSDOF 12
ENDMDL
