MODEL 1
USER: ADFR SOLUTION from run 21
USER: SCORE 16.247990 LL:  -3.815 LR: -14.154 RR:   0.000 FEB:  -7.890
USER: RMSD 2.801403
USER: SEED 20
USER: STATUS no improvement in best in 9 clusters for 5 generations
USER: GENES 23
USER: genes 0 Translation |==|  0.37153 0.58027 0.43730
USER: genes 1 Rotation |==|  0.48602 0.44059 0.49367 0.99622
USER: genes 2 Torsion [C]-CA--CB-[CG] |==|  0.26114
USER: genes 3 Torsion [CA]-CB--CG-[CD1] |==|  0.26795
USER: genes 4 Torsion [N]-CA--C-[N] |==|  0.42234
USER: genes 5 Torsion [C]-N--CA-[C] |==|  0.55556
USER: genes 6 Torsion [N]-CA--C-[N] |==|  0.32982
USER: genes 7 Torsion [C]-N--CA-[C] |==|  0.65815
USER: genes 8 Torsion [N]-CA--C-[O] |==|  0.21958
USER: genes 9 Torsion [N]-CA--CB-[CG] |==|  0.72335
USER: genes 10 Torsion [CA]-CB--CG-[CD1] |==|  0.41262
USER: genes 11 Torsion [N]-CA--CB-[CG] |==|  0.42264
USER: genes 12 Torsion [CA]-CB--CG-[ND2] |==|  0.22839
USER: genes 13 Torsion [CB]-CA--N-[C] |==|  0.21300
USER: genes 14 Torsion [N]-C--CA-[N] |==|  0.95627
USER: genes 15 Torsion [C]-CA--CB-[CG] |==|  0.49294
USER: genes 16 Torsion [CA]-CB--CG-[CD1] |==|  0.56262
USER: genes 17 Torsion [C]-CA--N-[C] |==|  0.76296
USER: genes 18 Torsion [N]-C--CA-[N] |==|  0.16356
USER: genes 19 Torsion [C]-CA--N-[C] |==|  0.75702
USER: genes 20 Torsion [N]-C--CA-[N] |==|  0.42588
USER: genes 21 Torsion [C]-CA--CB-[CG] |==|  0.79348
USER: genes 22 Torsion [CA]-CB--CG-[OD1] |==|  0.80403
ROOT
ATOM      1  CA  LEU D   5      -8.349 -35.037  15.303  1.00 45.78 LIG 0.18  C 
ENDROOT
BRANCH 1 2
ATOM      2  CB  LEU D   5      -9.249 -34.643  14.136  1.00 44.83 LIG 0.04  C 
BRANCH 2 3
ATOM      3  CG  LEU D   5     -10.694 -34.264  14.438  1.00 46.71 LIG-0.02  C 
ATOM      4  CD1 LEU D   5     -10.796 -32.751  14.536  1.00 43.35 LIG 0.01  C 
ATOM      5  CD2 LEU D   5     -11.646 -34.798  13.367  1.00 50.41 LIG 0.01  C 
ENDBRANCH 2 3
ENDBRANCH 1 2
BRANCH 1 6
ATOM      6  C   LEU D   5      -8.398 -36.550  15.429  1.00 49.70 LIG 0.24  C 
ATOM      7  N   ASN D   6      -9.407 -37.027  16.162  1.00 52.00 LIG-0.35  N 
ATOM      8 H    ASN D   6      -9.948 -36.523  16.601  1.00 52.00 LIG 0.16  HD
ATOM      9 O    LEU D   5      -7.566 -37.262  14.836  1.00 48.20 LIG-0.27  OA
BRANCH 7 10
ATOM     10  CA  ASN D   6      -9.697 -38.455  16.295  1.00 59.27 LIG 0.18  C 
BRANCH 10 11
ATOM     11  C   ASN D   6     -11.149 -38.625  16.759  1.00 60.71 LIG 0.24  C 
ATOM     12  N   LEU D   7     -11.961 -39.290  15.937  1.00 62.75 LIG-0.35  N 
ATOM     13 H    LEU D   7     -11.689 -39.711  15.239  1.00 62.75 LIG 0.16  HD
ATOM     14 O    ASN D   6     -11.519 -38.162  17.841  1.00 63.11 LIG-0.27  OA
BRANCH 12 15
ATOM     15  CA  LEU D   7     -13.412 -39.365  16.152  1.00 66.71 LIG 0.16  C 
BRANCH 15 16
ATOM     16  C   LEU D   7     -13.936 -40.802  16.253  1.00 66.58 LIG 0.22  C 
ATOM     17 O    LEU D   7     -13.815 -41.445  17.291  1.00 70.30 LIG-0.29  OA
ENDBRANCH 15 16
BRANCH 15 18
ATOM     18  CB  LEU D   7     -14.131 -38.614  15.023  1.00 67.13 LIG 0.04  C 
BRANCH 18 19
ATOM     19  CG  LEU D   7     -14.586 -37.193  15.388  1.00 64.50 LIG-0.02  C 
ATOM     20  CD1 LEU D   7     -14.554 -36.287  14.163  1.00 64.54 LIG 0.01  C 
ATOM     21  CD2 LEU D   7     -15.973 -37.204  16.025  1.00 62.99 LIG 0.01  C 
ENDBRANCH 18 19
ENDBRANCH 15 18
ENDBRANCH 12 15
ENDBRANCH 10 11
BRANCH 10 22
ATOM     22  CB  ASN D   6      -8.714 -39.092  17.290  1.00 63.11 LIG 0.14  C 
BRANCH 22 23
ATOM     23  CG  ASN D   6      -9.293 -40.307  17.996  1.00 71.29 LIG 0.22  C 
ATOM     24  ND2 ASN D   6      -9.238 -41.461  17.327  1.00 72.89 LIG-0.37  N 
ATOM     25 21HD ASN D   6      -9.557 -42.177  17.680  1.00 72.89 LIG 0.16  HD
ATOM     26 22HD ASN D   6      -8.885 -41.487  16.543  1.00 72.89 LIG 0.16  HD
ATOM     27 OD1  ASN D   6      -9.790 -40.215  19.126  1.00 74.05 LIG-0.27  OA
ENDBRANCH 22 23
ENDBRANCH 10 22
ENDBRANCH 7 10
ENDBRANCH 1 6
BRANCH 1 28
ATOM     28  N   LEU D   5      -6.970 -34.562  15.098  1.00 43.46 LIG-0.35  N 
ATOM     29 H    LEU D   5      -6.421 -35.177  14.853  1.00 43.46 LIG 0.16  HD
ATOM     30  C   LEU D   4      -6.622 -33.292  15.278  1.00 41.34 LIG 0.24  C 
ATOM     31 O    LEU D   4      -7.395 -32.432  15.671  1.00 44.89 LIG-0.27  OA
BRANCH 30 32
ATOM     32  CA  LEU D   4      -5.221 -32.906  14.902  1.00 41.83 LIG 0.18  C 
BRANCH 32 33
ATOM     33  CB  LEU D   4      -5.273 -32.046  13.626  1.00 37.92 LIG 0.04  C 
BRANCH 33 34
ATOM     34  CG  LEU D   4      -3.932 -31.511  13.132  1.00 37.44 LIG-0.02  C 
ATOM     35  CD1 LEU D   4      -4.161 -30.286  12.265  1.00 34.88 LIG 0.01  C 
ATOM     36  CD2 LEU D   4      -3.019 -31.165  14.310  1.00 37.22 LIG 0.01  C 
ENDBRANCH 33 34
ENDBRANCH 32 33
BRANCH 32 37
ATOM     37  N   LEU D   4      -4.328 -34.055  14.730  1.00 45.71 LIG-0.35  N 
ATOM     38 H    LEU D   4      -4.252 -34.334  13.920  1.00 45.71 LIG 0.16  HD
ATOM     39  C   ASP D   3      -3.698 -34.596  15.771  1.00 59.12 LIG 0.24  C 
ATOM     40 O    ASP D   3      -3.926 -34.277  16.943  1.00 63.71 LIG-0.27  OA
BRANCH 39 41
ATOM     41  CA  ASP D   3      -2.688 -35.700  15.473  1.00 63.74 LIG 0.19  C 
BRANCH 41 42
ATOM     42  N   ASP D   3      -1.616 -35.258  14.590  1.00 62.73 LIG-0.35  N 
ATOM     43 H    ASP D   3      -0.917 -34.963  14.996  1.00 62.73 LIG 0.16  HD
ATOM     44  C   GLY D   2      -1.735 -35.317  13.270  1.00 63.13 LIG 0.25  C 
ATOM     45 O    GLY D   2      -2.767 -35.682  12.702  1.00 65.69 LIG-0.27  OA
BRANCH 44 46
ATOM     46  CA  GLY D   2      -0.518 -34.899  12.472  1.00 64.97 LIG 0.47  C 
ATOM     47  N   GLY D   2      -0.474 -35.560  11.135  1.00 67.04 LIG 0.61  N 
ENDBRANCH 44 46
ENDBRANCH 41 42
BRANCH 41 48
ATOM     48  CB  ASP D   3      -2.125 -36.265  16.783  1.00 68.02 LIG 0.15  C 
BRANCH 48 49
ATOM     49  CG  ASP D   3      -1.141 -35.330  17.445  1.00 72.98 LIG 0.17  C 
ATOM     50 OD1  ASP D   3      -0.022 -35.162  16.912  1.00 76.93 LIG-0.65  OA
ATOM     51 OD2  ASP D   3      -1.484 -34.767  18.508  1.00 81.56 LIG-0.65  OA
ENDBRANCH 48 49
ENDBRANCH 41 48
ENDBRANCH 39 41
ENDBRANCH 32 37
ENDBRANCH 30 32
ENDBRANCH 1 28
TORSDOF 21
ENDMDL
MODEL 2
USER: ADFR SOLUTION from run 73
USER: SCORE 16.390902 LL:  -4.059 LR: -13.875 RR:   0.000 FEB:  -7.610
USER: RMSD 2.896913
USER: SEED 72
USER: STATUS 1 or 2 clusters left
USER: GENES 23
USER: genes 0 Translation |==|  0.36522 0.58071 0.42665
USER: genes 1 Rotation |==|  0.46647 0.41943 0.49051 0.99223
USER: genes 2 Torsion [C]-CA--CB-[CG] |==|  0.24888
USER: genes 3 Torsion [CA]-CB--CG-[CD1] |==|  0.24109
USER: genes 4 Torsion [N]-CA--C-[N] |==|  0.41938
USER: genes 5 Torsion [C]-N--CA-[C] |==|  0.62350
USER: genes 6 Torsion [N]-CA--C-[N] |==|  0.17359
USER: genes 7 Torsion [C]-N--CA-[C] |==|  0.52162
USER: genes 8 Torsion [N]-CA--C-[O] |==|  0.17066
USER: genes 9 Torsion [N]-CA--CB-[CG] |==|  0.67509
USER: genes 10 Torsion [CA]-CB--CG-[CD1] |==|  0.63511
USER: genes 11 Torsion [N]-CA--CB-[CG] |==|  0.13162
USER: genes 12 Torsion [CA]-CB--CG-[ND2] |==|  0.73085
USER: genes 13 Torsion [CB]-CA--N-[C] |==|  0.20579
USER: genes 14 Torsion [N]-C--CA-[N] |==|  0.95058
USER: genes 15 Torsion [C]-CA--CB-[CG] |==|  0.42609
USER: genes 16 Torsion [CA]-CB--CG-[CD1] |==|  0.59447
USER: genes 17 Torsion [C]-CA--N-[C] |==|  0.80571
USER: genes 18 Torsion [N]-C--CA-[N] |==|  0.87222
USER: genes 19 Torsion [C]-CA--N-[C] |==|  0.81150
USER: genes 20 Torsion [N]-C--CA-[N] |==|  0.45505
USER: genes 21 Torsion [C]-CA--CB-[CG] |==|  0.27115
USER: genes 22 Torsion [CA]-CB--CG-[OD1] |==|  0.39200
ROOT
ATOM      1  CA  LEU D   5      -8.486 -35.028  15.120  1.00 45.78 LIG 0.18  C 
ENDROOT
BRANCH 1 2
ATOM      2  CB  LEU D   5      -9.276 -34.712  13.853  1.00 44.83 LIG 0.04  C 
BRANCH 2 3
ATOM      3  CG  LEU D   5     -10.757 -34.387  13.991  1.00 46.71 LIG-0.02  C 
ATOM      4  CD1 LEU D   5     -10.913 -32.900  14.262  1.00 43.35 LIG 0.01  C 
ATOM      5  CD2 LEU D   5     -11.536 -34.788  12.737  1.00 50.41 LIG 0.01  C 
ENDBRANCH 2 3
ENDBRANCH 1 2
BRANCH 1 6
ATOM      6  C   LEU D   5      -8.581 -36.526  15.356  1.00 49.70 LIG 0.24  C 
ATOM      7  N   ASN D   6      -9.647 -36.924  16.053  1.00 52.00 LIG-0.35  N 
ATOM      8 H    ASN D   6     -10.203 -36.378  16.415  1.00 52.00 LIG 0.16  HD
ATOM      9 O    LEU D   5      -7.729 -37.297  14.876  1.00 48.20 LIG-0.27  OA
BRANCH 7 10
ATOM     10  CA  ASN D   6      -9.980 -38.332  16.275  1.00 59.27 LIG 0.18  C 
BRANCH 10 11
ATOM     11  C   ASN D   6     -11.483 -38.529  16.043  1.00 60.71 LIG 0.24  C 
ATOM     12  N   LEU D   7     -11.933 -38.273  14.815  1.00 62.75 LIG-0.35  N 
ATOM     13 H    LEU D   7     -11.419 -38.120  14.143  1.00 62.75 LIG 0.16  HD
ATOM     14 O    ASN D   6     -12.214 -38.905  16.962  1.00 63.11 LIG-0.27  OA
BRANCH 12 15
ATOM     15  CA  LEU D   7     -13.365 -38.230  14.492  1.00 66.71 LIG 0.16  C 
BRANCH 15 16
ATOM     16  C   LEU D   7     -13.645 -38.108  12.991  1.00 66.58 LIG 0.22  C 
ATOM     17 O    LEU D   7     -13.277 -38.978  12.209  1.00 70.30 LIG-0.29  OA
ENDBRANCH 15 16
BRANCH 15 18
ATOM     18  CB  LEU D   7     -14.021 -37.069  15.254  1.00 67.13 LIG 0.04  C 
BRANCH 18 19
ATOM     19  CG  LEU D   7     -15.092 -37.492  16.270  1.00 64.50 LIG-0.02  C 
ATOM     20  CD1 LEU D   7     -16.358 -36.662  16.093  1.00 64.54 LIG 0.01  C 
ATOM     21  CD2 LEU D   7     -15.395 -38.984  16.164  1.00 62.99 LIG 0.01  C 
ENDBRANCH 18 19
ENDBRANCH 15 18
ENDBRANCH 12 15
ENDBRANCH 10 11
BRANCH 10 22
ATOM     22  CB  ASN D   6      -9.575 -38.742  17.700  1.00 63.11 LIG 0.14  C 
BRANCH 22 23
ATOM     23  CG  ASN D   6     -10.033 -37.747  18.753  1.00 71.29 LIG 0.22  C 
ATOM     24  ND2 ASN D   6      -9.130 -36.847  19.146  1.00 72.89 LIG-0.37  N 
ATOM     25 21HD ASN D   6      -9.335 -36.265  19.745  1.00 72.89 LIG 0.16  HD
ATOM     26 22HD ASN D   6      -8.341 -36.849  18.802  1.00 72.89 LIG 0.16  HD
ATOM     27 OD1  ASN D   6     -11.179 -37.787  19.218  1.00 74.05 LIG-0.27  OA
ENDBRANCH 22 23
ENDBRANCH 10 22
ENDBRANCH 7 10
ENDBRANCH 1 6
BRANCH 1 28
ATOM     28  N   LEU D   5      -7.085 -34.593  14.997  1.00 43.46 LIG-0.35  N 
ATOM     29 H    LEU D   5      -6.526 -35.238  14.884  1.00 43.46 LIG 0.16  HD
ATOM     30  C   LEU D   4      -6.729 -33.314  15.059  1.00 41.34 LIG 0.24  C 
ATOM     31 O    LEU D   4      -7.520 -32.406  15.267  1.00 44.89 LIG-0.27  OA
BRANCH 30 32
ATOM     32  CA  LEU D   4      -5.291 -32.988  14.781  1.00 41.83 LIG 0.18  C 
BRANCH 32 33
ATOM     33  CB  LEU D   4      -5.194 -32.334  13.390  1.00 37.92 LIG 0.04  C 
BRANCH 33 34
ATOM     34  CG  LEU D   4      -4.012 -31.393  13.182  1.00 37.44 LIG-0.02  C 
ATOM     35  CD1 LEU D   4      -4.421 -30.258  12.260  1.00 34.88 LIG 0.01  C 
ATOM     36  CD2 LEU D   4      -3.517 -30.838  14.520  1.00 37.22 LIG 0.01  C 
ENDBRANCH 33 34
ENDBRANCH 32 33
BRANCH 32 37
ATOM     37  N   LEU D   4      -4.402 -34.148  14.884  1.00 45.71 LIG-0.35  N 
ATOM     38 H    LEU D   4      -4.079 -34.421  14.135  1.00 45.71 LIG 0.16  HD
ATOM     39  C   ASP D   3      -4.137 -34.708  16.063  1.00 59.12 LIG 0.24  C 
ATOM     40 O    ASP D   3      -4.719 -34.395  17.108  1.00 63.71 LIG-0.27  OA
BRANCH 39 41
ATOM     41  CA  ASP D   3      -3.097 -35.823  16.083  1.00 63.74 LIG 0.19  C 
BRANCH 41 42
ATOM     42  N   ASP D   3      -3.293 -36.795  15.015  1.00 62.73 LIG-0.35  N 
ATOM     43 H    ASP D   3      -2.678 -36.793  14.414  1.00 62.73 LIG 0.16  HD
ATOM     44  C   GLY D   2      -4.344 -37.605  14.998  1.00 63.13 LIG 0.25  C 
ATOM     45 O    GLY D   2      -5.250 -37.552  15.833  1.00 65.69 LIG-0.27  OA
BRANCH 44 46
ATOM     46  CA  GLY D   2      -4.385 -38.618  13.874  1.00 64.97 LIG 0.47  C 
ATOM     47  N   GLY D   2      -5.364 -39.711  14.144  1.00 67.04 LIG 0.61  N 
ENDBRANCH 44 46
ENDBRANCH 41 42
BRANCH 41 48
ATOM     48  CB  ASP D   3      -1.685 -35.225  16.033  1.00 68.02 LIG 0.15  C 
BRANCH 48 49
ATOM     49  CG  ASP D   3      -1.050 -35.117  17.398  1.00 72.98 LIG 0.17  C 
ATOM     50 OD1  ASP D   3       0.169 -35.371  17.514  1.00 76.93 LIG-0.65  OA
ATOM     51 OD2  ASP D   3      -1.775 -34.787  18.363  1.00 81.56 LIG-0.65  OA
ENDBRANCH 48 49
ENDBRANCH 41 48
ENDBRANCH 39 41
ENDBRANCH 32 37
ENDBRANCH 30 32
ENDBRANCH 1 28
TORSDOF 21
ENDMDL
MODEL 3
USER: ADFR SOLUTION from run 34
USER: SCORE 16.003997 LL:  -4.079 LR: -13.756 RR:   0.000 FEB:  -7.492
USER: RMSD 2.791257
USER: SEED 33
USER: STATUS no improvement in best in 3 clusters for 5 generations
USER: GENES 23
USER: genes 0 Translation |==|  0.38593 0.59877 0.45328
USER: genes 1 Rotation |==|  0.50814 0.48860 0.46314 0.99844
USER: genes 2 Torsion [C]-CA--CB-[CG] |==|  0.27471
USER: genes 3 Torsion [CA]-CB--CG-[CD1] |==|  0.06083
USER: genes 4 Torsion [N]-CA--C-[N] |==|  0.38640
USER: genes 5 Torsion [C]-N--CA-[C] |==|  0.71708
USER: genes 6 Torsion [N]-CA--C-[N] |==|  0.16585
USER: genes 7 Torsion [C]-N--CA-[C] |==|  0.81511
USER: genes 8 Torsion [N]-CA--C-[O] |==|  0.22154
USER: genes 9 Torsion [N]-CA--CB-[CG] |==|  0.95832
USER: genes 10 Torsion [CA]-CB--CG-[CD1] |==|  0.28470
USER: genes 11 Torsion [N]-CA--CB-[CG] |==|  0.14899
USER: genes 12 Torsion [CA]-CB--CG-[ND2] |==|  0.72598
USER: genes 13 Torsion [CB]-CA--N-[C] |==|  0.18382
USER: genes 14 Torsion [N]-C--CA-[N] |==|  0.94529
USER: genes 15 Torsion [C]-CA--CB-[CG] |==|  0.41866
USER: genes 16 Torsion [CA]-CB--CG-[CD1] |==|  0.62232
USER: genes 17 Torsion [C]-CA--N-[C] |==|  0.76741
USER: genes 18 Torsion [N]-C--CA-[N] |==|  0.18527
USER: genes 19 Torsion [C]-CA--N-[C] |==|  0.75592
USER: genes 20 Torsion [N]-C--CA-[N] |==|  0.44305
USER: genes 21 Torsion [C]-CA--CB-[CG] |==|  0.80609
USER: genes 22 Torsion [CA]-CB--CG-[OD1] |==|  0.30907
ROOT
ATOM      1  CA  LEU D   5      -8.036 -34.662  15.579  1.00 45.78 LIG 0.18  C 
ENDROOT
BRANCH 1 2
ATOM      2  CB  LEU D   5      -9.075 -34.045  14.648  1.00 44.83 LIG 0.04  C 
BRANCH 2 3
ATOM      3  CG  LEU D   5     -10.333 -33.450  15.268  1.00 46.71 LIG-0.02  C 
ATOM      4  CD1 LEU D   5     -10.056 -33.116  16.724  1.00 43.35 LIG 0.01  C 
ATOM      5  CD2 LEU D   5     -10.794 -32.204  14.510  1.00 50.41 LIG 0.01  C 
ENDBRANCH 2 3
ENDBRANCH 1 2
BRANCH 1 6
ATOM      6  C   LEU D   5      -8.250 -36.166  15.570  1.00 49.70 LIG 0.24  C 
ATOM      7  N   ASN D   6      -8.949 -36.646  16.601  1.00 52.00 LIG-0.35  N 
ATOM      8 H    ASN D   6      -9.196 -36.162  17.267  1.00 52.00 LIG 0.16  HD
ATOM      9 O    LEU D   5      -7.829 -36.860  14.625  1.00 48.20 LIG-0.27  OA
BRANCH 7 10
ATOM     10  CA  ASN D   6      -9.367 -38.045  16.705  1.00 59.27 LIG 0.18  C 
BRANCH 10 11
ATOM     11  C   ASN D   6     -10.849 -38.149  16.327  1.00 60.71 LIG 0.24  C 
ATOM     12  N   LEU D   7     -11.179 -37.747  15.100  1.00 62.75 LIG-0.35  N 
ATOM     13 H    LEU D   7     -10.602 -37.548  14.494  1.00 62.75 LIG 0.16  HD
ATOM     14 O    ASN D   6     -11.673 -38.587  17.135  1.00 63.11 LIG-0.27  OA
BRANCH 12 15
ATOM     15  CA  LEU D   7     -12.575 -37.607  14.664  1.00 66.71 LIG 0.16  C 
BRANCH 15 16
ATOM     16  C   LEU D   7     -13.323 -38.942  14.587  1.00 66.58 LIG 0.22  C 
ATOM     17 O    LEU D   7     -13.774 -39.471  15.597  1.00 70.30 LIG-0.29  OA
ENDBRANCH 15 16
BRANCH 15 18
ATOM     18  CB  LEU D   7     -12.611 -36.896  13.304  1.00 67.13 LIG 0.04  C 
BRANCH 18 19
ATOM     19  CG  LEU D   7     -11.300 -36.198  12.911  1.00 64.50 LIG-0.02  C 
ATOM     20  CD1 LEU D   7     -10.535 -37.028  11.887  1.00 64.54 LIG 0.01  C 
ATOM     21  CD2 LEU D   7     -11.559 -34.787  12.389  1.00 62.99 LIG 0.01  C 
ENDBRANCH 18 19
ENDBRANCH 15 18
ENDBRANCH 12 15
ENDBRANCH 10 11
BRANCH 10 22
ATOM     22  CB  ASN D   6      -9.117 -38.556  18.133  1.00 63.11 LIG 0.14  C 
BRANCH 22 23
ATOM     23  CG  ASN D   6      -9.755 -37.676  19.195  1.00 71.29 LIG 0.22  C 
ATOM     24  ND2 ASN D   6      -8.950 -36.796  19.794  1.00 72.89 LIG-0.37  N 
ATOM     25 21HD ASN D   6      -9.260 -36.278  20.407  1.00 72.89 LIG 0.16  HD
ATOM     26 22HD ASN D   6      -8.122 -36.747  19.568  1.00 72.89 LIG 0.16  HD
ATOM     27 OD1  ASN D   6     -10.953 -37.787  19.484  1.00 74.05 LIG-0.27  OA
ENDBRANCH 22 23
ENDBRANCH 10 22
ENDBRANCH 7 10
ENDBRANCH 1 6
BRANCH 1 28
ATOM     28  N   LEU D   5      -6.668 -34.315  15.158  1.00 43.46 LIG-0.35  N 
ATOM     29 H    LEU D   5      -6.204 -34.986  14.887  1.00 43.46 LIG 0.16  HD
ATOM     30  C   LEU D   4      -6.207 -33.069  15.199  1.00 41.34 LIG 0.24  C 
ATOM     31 O    LEU D   4      -6.855 -32.126  15.628  1.00 44.89 LIG-0.27  OA
BRANCH 30 32
ATOM     32  CA  LEU D   4      -4.848 -32.822  14.612  1.00 41.83 LIG 0.18  C 
BRANCH 32 33
ATOM     33  CB  LEU D   4      -5.019 -32.127  13.249  1.00 37.92 LIG 0.04  C 
BRANCH 33 34
ATOM     34  CG  LEU D   4      -3.880 -31.203  12.829  1.00 37.44 LIG-0.02  C 
ATOM     35  CD1 LEU D   4      -4.452 -29.917  12.260  1.00 34.88 LIG 0.01  C 
ATOM     36  CD2 LEU D   4      -2.963 -30.897  14.016  1.00 37.22 LIG 0.01  C 
ENDBRANCH 33 34
ENDBRANCH 32 33
BRANCH 32 37
ATOM     37  N   LEU D   4      -4.038 -34.036  14.491  1.00 45.71 LIG-0.35  N 
ATOM     38 H    LEU D   4      -4.060 -34.408  13.716  1.00 45.71 LIG 0.16  HD
ATOM     39  C   ASP D   3      -3.334 -34.498  15.524  1.00 59.12 LIG 0.24  C 
ATOM     40 O    ASP D   3      -3.424 -34.037  16.667  1.00 63.71 LIG-0.27  OA
BRANCH 39 41
ATOM     41  CA  ASP D   3      -2.418 -35.689  15.261  1.00 63.74 LIG 0.19  C 
BRANCH 41 42
ATOM     42  N   ASP D   3      -1.311 -35.363  14.370  1.00 62.73 LIG-0.35  N 
ATOM     43 H    ASP D   3      -0.593 -35.110  14.772  1.00 62.73 LIG 0.16  HD
ATOM     44  C   GLY D   2      -1.430 -35.457  13.052  1.00 63.13 LIG 0.25  C 
ATOM     45 O    GLY D   2      -2.485 -35.758  12.490  1.00 65.69 LIG-0.27  OA
BRANCH 44 46
ATOM     46  CA  GLY D   2      -0.180 -35.162  12.249  1.00 64.97 LIG 0.47  C 
ATOM     47  N   GLY D   2      -0.248 -35.747  10.878  1.00 67.04 LIG 0.61  N 
ENDBRANCH 44 46
ENDBRANCH 41 42
BRANCH 41 48
ATOM     48  CB  ASP D   3      -1.907 -36.262  16.589  1.00 68.02 LIG 0.15  C 
BRANCH 48 49
ATOM     49  CG  ASP D   3      -0.931 -35.341  17.282  1.00 72.98 LIG 0.17  C 
ATOM     50 OD1  ASP D   3      -1.282 -34.787  18.347  1.00 76.93 LIG-0.65  OA
ATOM     51 OD2  ASP D   3       0.189 -35.162  16.754  1.00 81.56 LIG-0.65  OA
ENDBRANCH 48 49
ENDBRANCH 41 48
ENDBRANCH 39 41
ENDBRANCH 32 37
ENDBRANCH 30 32
ENDBRANCH 1 28
TORSDOF 21
ENDMDL
MODEL 4
USER: ADFR SOLUTION from run 85
USER: SCORE 16.083219 LL:  -3.797 LR: -13.445 RR:   0.000 FEB:  -7.181
USER: RMSD 3.447392
USER: SEED 84
USER: STATUS no improvement in best in 6 clusters for 5 generations
USER: GENES 23
USER: genes 0 Translation |==|  0.37198 0.60653 0.41265
USER: genes 1 Rotation |==|  0.52571 0.42401 0.43995 0.98986
USER: genes 2 Torsion [C]-CA--CB-[CG] |==|  0.26208
USER: genes 3 Torsion [CA]-CB--CG-[CD1] |==|  0.71814
USER: genes 4 Torsion [N]-CA--C-[N] |==|  0.50563
USER: genes 5 Torsion [C]-N--CA-[C] |==|  0.75692
USER: genes 6 Torsion [N]-CA--C-[N] |==|  0.40538
USER: genes 7 Torsion [C]-N--CA-[C] |==|  0.16193
USER: genes 8 Torsion [N]-CA--C-[O] |==|  0.25903
USER: genes 9 Torsion [N]-CA--CB-[CG] |==|  0.62707
USER: genes 10 Torsion [CA]-CB--CG-[CD1] |==|  0.38340
USER: genes 11 Torsion [N]-CA--CB-[CG] |==|  0.68318
USER: genes 12 Torsion [CA]-CB--CG-[ND2] |==|  0.75926
USER: genes 13 Torsion [CB]-CA--N-[C] |==|  0.15063
USER: genes 14 Torsion [N]-C--CA-[N] |==|  0.95606
USER: genes 15 Torsion [C]-CA--CB-[CG] |==|  0.35107
USER: genes 16 Torsion [CA]-CB--CG-[CD1] |==|  0.63344
USER: genes 17 Torsion [C]-CA--N-[C] |==|  0.75813
USER: genes 18 Torsion [N]-C--CA-[N] |==|  0.90057
USER: genes 19 Torsion [C]-CA--N-[C] |==|  0.82103
USER: genes 20 Torsion [N]-C--CA-[N] |==|  0.48154
USER: genes 21 Torsion [C]-CA--CB-[CG] |==|  0.23657
USER: genes 22 Torsion [CA]-CB--CG-[OD1] |==|  0.94751
ROOT
ATOM      1  CA  LEU D   5      -8.339 -34.505  14.878  1.00 45.78 LIG 0.18  C 
ENDROOT
BRANCH 1 2
ATOM      2  CB  LEU D   5      -9.039 -33.746  13.754  1.00 44.83 LIG 0.04  C 
BRANCH 2 3
ATOM      3  CG  LEU D   5     -10.407 -33.140  14.038  1.00 46.71 LIG-0.02  C 
ATOM      4  CD1 LEU D   5     -11.478 -34.037  13.441  1.00 43.35 LIG 0.01  C 
ATOM      5  CD2 LEU D   5     -10.635 -32.958  15.540  1.00 50.41 LIG 0.01  C 
ENDBRANCH 2 3
ENDBRANCH 1 2
BRANCH 1 6
ATOM      6  C   LEU D   5      -8.678 -35.977  14.715  1.00 49.70 LIG 0.24  C 
ATOM      7  N   ASN D   6      -9.982 -36.261  14.691  1.00 52.00 LIG-0.35  N 
ATOM      8 H    ASN D   6     -10.593 -35.674  14.835  1.00 52.00 LIG 0.16  HD
ATOM      9 O    LEU D   5      -7.774 -36.822  14.570  1.00 48.20 LIG-0.27  OA
BRANCH 7 10
ATOM     10  CA  ASN D   6     -10.507 -37.599  14.415  1.00 59.27 LIG 0.18  C 
BRANCH 10 11
ATOM     11  C   ASN D   6     -10.666 -37.768  12.900  1.00 60.71 LIG 0.24  C 
ATOM     12  N   LEU D   7     -10.444 -38.988  12.411  1.00 62.75 LIG-0.35  N 
ATOM     13 H    LEU D   7     -10.332 -39.683  12.904  1.00 62.75 LIG 0.16  HD
ATOM     14 O    ASN D   6     -10.985 -36.808  12.193  1.00 63.11 LIG-0.27  OA
BRANCH 12 15
ATOM     15  CA  LEU D   7     -10.369 -39.259  10.969  1.00 66.71 LIG 0.16  C 
BRANCH 15 16
ATOM     16  C   LEU D   7      -9.282 -38.449  10.256  1.00 66.58 LIG 0.22  C 
ATOM     17 O    LEU D   7      -8.158 -38.912  10.091  1.00 70.30 LIG-0.29  OA
ENDBRANCH 15 16
BRANCH 15 18
ATOM     18  CB  LEU D   7     -11.740 -38.989  10.332  1.00 67.13 LIG 0.04  C 
BRANCH 18 19
ATOM     19  CG  LEU D   7     -12.219 -40.077   9.360  1.00 64.50 LIG-0.02  C 
ATOM     20  CD1 LEU D   7     -13.702 -40.365   9.565  1.00 64.54 LIG 0.01  C 
ATOM     21  CD2 LEU D   7     -11.931 -39.691   7.912  1.00 62.99 LIG 0.01  C 
ENDBRANCH 18 19
ENDBRANCH 15 18
ENDBRANCH 12 15
ENDBRANCH 10 11
BRANCH 10 22
ATOM     22  CB  ASN D   6     -11.847 -37.789  15.143  1.00 63.11 LIG 0.14  C 
BRANCH 22 23
ATOM     23  CG  ASN D   6     -11.783 -38.844  16.235  1.00 71.29 LIG 0.22  C 
ATOM     24  ND2 ASN D   6     -12.002 -40.103  15.852  1.00 72.89 LIG-0.37  N 
ATOM     25 21HD ASN D   6     -11.983 -40.738  16.431  1.00 72.89 LIG 0.16  HD
ATOM     26 22HD ASN D   6     -12.163 -40.280  15.026  1.00 72.89 LIG 0.16  HD
ATOM     27 OD1  ASN D   6     -11.547 -38.537  17.410  1.00 74.05 LIG-0.27  OA
ENDBRANCH 22 23
ENDBRANCH 10 22
ENDBRANCH 7 10
ENDBRANCH 1 6
BRANCH 1 28
ATOM     28  N   LEU D   5      -6.884 -34.285  14.846  1.00 43.46 LIG-0.35  N 
ATOM     29 H    LEU D   5      -6.420 -35.009  14.822  1.00 43.46 LIG 0.16  HD
ATOM     30  C   LEU D   4      -6.349 -33.068  14.854  1.00 41.34 LIG 0.24  C 
ATOM     31 O    LEU D   4      -7.010 -32.043  14.935  1.00 44.89 LIG-0.27  OA
BRANCH 30 32
ATOM     32  CA  LEU D   4      -4.862 -32.972  14.677  1.00 41.83 LIG 0.18  C 
BRANCH 32 33
ATOM     33  CB  LEU D   4      -4.568 -32.399  13.278  1.00 37.92 LIG 0.04  C 
BRANCH 33 34
ATOM     34  CG  LEU D   4      -3.658 -31.175  13.241  1.00 37.44 LIG-0.02  C 
ATOM     35  CD1 LEU D   4      -4.277 -30.108  12.356  1.00 34.88 LIG 0.01  C 
ATOM     36  CD2 LEU D   4      -3.427 -30.628  14.651  1.00 37.22 LIG 0.01  C 
ENDBRANCH 33 34
ENDBRANCH 32 33
BRANCH 32 37
ATOM     37  N   LEU D   4      -4.168 -34.246  14.885  1.00 45.71 LIG-0.35  N 
ATOM     38 H    LEU D   4      -4.042 -34.707  14.170  1.00 45.71 LIG 0.16  HD
ATOM     39  C   ASP D   3      -3.778 -34.624  16.101  1.00 59.12 LIG 0.24  C 
ATOM     40 O    ASP D   3      -4.092 -34.021  17.133  1.00 63.71 LIG-0.27  OA
BRANCH 39 41
ATOM     41  CA  ASP D   3      -2.947 -35.899  16.196  1.00 63.74 LIG 0.19  C 
BRANCH 41 42
ATOM     42  N   ASP D   3      -3.354 -36.910  15.227  1.00 62.73 LIG-0.35  N 
ATOM     43 H    ASP D   3      -2.755 -37.102  14.639  1.00 62.73 LIG 0.16  HD
ATOM     44  C   GLY D   2      -4.555 -37.472  15.274  1.00 63.13 LIG 0.25  C 
ATOM     45 O    GLY D   2      -5.423 -37.140  16.084  1.00 65.69 LIG-0.27  OA
BRANCH 44 46
ATOM     46  CA  GLY D   2      -4.819 -38.561  14.256  1.00 64.97 LIG 0.47  C 
ATOM     47  N   GLY D   2      -6.129 -39.236  14.489  1.00 67.04 LIG 0.61  N 
ENDBRANCH 44 46
ENDBRANCH 41 42
BRANCH 41 48
ATOM     48  CB  ASP D   3      -1.456 -35.567  16.052  1.00 68.02 LIG 0.15  C 
BRANCH 48 49
ATOM     49  CG  ASP D   3      -0.822 -35.162  17.361  1.00 72.98 LIG 0.17  C 
ATOM     50 OD1  ASP D   3      -1.563 -34.789  18.297  1.00 76.93 LIG-0.65  OA
ATOM     51 OD2  ASP D   3       0.425 -35.207  17.452  1.00 81.56 LIG-0.65  OA
ENDBRANCH 48 49
ENDBRANCH 41 48
ENDBRANCH 39 41
ENDBRANCH 32 37
ENDBRANCH 30 32
ENDBRANCH 1 28
TORSDOF 21
ENDMDL
MODEL 5
USER: ADFR SOLUTION from run 36
USER: SCORE 15.460823 LL:  -3.433 LR: -13.351 RR:   0.000 FEB:  -7.087
USER: RMSD 3.490249
USER: SEED 35
USER: STATUS no improvement in best in 9 clusters for 5 generations
USER: GENES 23
USER: genes 0 Translation |==|  0.38159 0.59908 0.44091
USER: genes 1 Rotation |==|  0.55228 0.48905 0.44898 0.99451
USER: genes 2 Torsion [C]-CA--CB-[CG] |==|  0.37465
USER: genes 3 Torsion [CA]-CB--CG-[CD1] |==|  0.57401
USER: genes 4 Torsion [N]-CA--C-[N] |==|  0.54643
USER: genes 5 Torsion [C]-N--CA-[C] |==|  0.70693
USER: genes 6 Torsion [N]-CA--C-[N] |==|  0.42454
USER: genes 7 Torsion [C]-N--CA-[C] |==|  0.73208
USER: genes 8 Torsion [N]-CA--C-[O] |==|  0.02945
USER: genes 9 Torsion [N]-CA--CB-[CG] |==|  0.65854
USER: genes 10 Torsion [CA]-CB--CG-[CD1] |==|  0.29496
USER: genes 11 Torsion [N]-CA--CB-[CG] |==|  0.80059
USER: genes 12 Torsion [CA]-CB--CG-[ND2] |==|  0.86073
USER: genes 13 Torsion [CB]-CA--N-[C] |==|  0.16504
USER: genes 14 Torsion [N]-C--CA-[N] |==|  0.93704
USER: genes 15 Torsion [C]-CA--CB-[CG] |==|  0.40589
USER: genes 16 Torsion [CA]-CB--CG-[CD1] |==|  0.60290
USER: genes 17 Torsion [C]-CA--N-[C] |==|  0.76857
USER: genes 18 Torsion [N]-C--CA-[N] |==|  0.17697
USER: genes 19 Torsion [C]-CA--N-[C] |==|  0.76461
USER: genes 20 Torsion [N]-C--CA-[N] |==|  0.42373
USER: genes 21 Torsion [C]-CA--CB-[CG] |==|  0.80867
USER: genes 22 Torsion [CA]-CB--CG-[OD1] |==|  0.30681
ROOT
ATOM      1  CA  LEU D   5      -8.130 -34.656  15.366  1.00 45.78 LIG 0.18  C 
ENDROOT
BRANCH 1 2
ATOM      2  CB  LEU D   5      -9.121 -33.828  14.553  1.00 44.83 LIG 0.04  C 
BRANCH 2 3
ATOM      3  CG  LEU D   5      -9.814 -32.658  15.239  1.00 46.71 LIG-0.02  C 
ATOM      4  CD1 LEU D   5     -11.150 -32.408  14.559  1.00 43.35 LIG 0.01  C 
ATOM      5  CD2 LEU D   5     -10.014 -32.925  16.731  1.00 50.41 LIG 0.01  C 
ENDBRANCH 2 3
ENDBRANCH 1 2
BRANCH 1 6
ATOM      6  C   LEU D   5      -8.423 -36.121  15.089  1.00 49.70 LIG 0.24  C 
ATOM      7  N   ASN D   6      -9.718 -36.441  15.036  1.00 52.00 LIG-0.35  N 
ATOM      8 H    ASN D   6     -10.347 -35.885  15.221  1.00 52.00 LIG 0.16  HD
ATOM      9 O    LEU D   5      -7.494 -36.924  14.885  1.00 48.20 LIG-0.27  OA
BRANCH 7 10
ATOM     10  CA  ASN D   6     -10.201 -37.769  14.656  1.00 59.27 LIG 0.18  C 
BRANCH 10 11
ATOM     11  C   ASN D   6     -10.774 -37.702  13.236  1.00 60.71 LIG 0.24  C 
ATOM     12  N   LEU D   7     -10.740 -38.830  12.527  1.00 62.75 LIG-0.35  N 
ATOM     13 H    LEU D   7     -10.525 -39.594  12.859  1.00 62.75 LIG 0.16  HD
ATOM     14 O    ASN D   6     -11.237 -36.646  12.796  1.00 63.11 LIG-0.27  OA
BRANCH 12 15
ATOM     15  CA  LEU D   7     -11.072 -38.875  11.097  1.00 66.71 LIG 0.16  C 
BRANCH 15 16
ATOM     16  C   LEU D   7     -12.522 -39.289  10.823  1.00 66.58 LIG 0.22  C 
ATOM     17 O    LEU D   7     -13.339 -39.360  11.735  1.00 70.30 LIG-0.29  OA
ENDBRANCH 15 16
BRANCH 15 18
ATOM     18  CB  LEU D   7     -10.101 -39.825  10.381  1.00 67.13 LIG 0.04  C 
BRANCH 18 19
ATOM     19  CG  LEU D   7      -9.315 -39.187   9.227  1.00 64.50 LIG-0.02  C 
ATOM     20  CD1 LEU D   7      -7.864 -38.954   9.629  1.00 64.54 LIG 0.01  C 
ATOM     21  CD2 LEU D   7      -9.403 -40.037   7.962  1.00 62.99 LIG 0.01  C 
ENDBRANCH 18 19
ENDBRANCH 15 18
ENDBRANCH 12 15
ENDBRANCH 10 11
BRANCH 10 22
ATOM     22  CB  ASN D   6     -11.260 -38.243  15.664  1.00 63.11 LIG 0.14  C 
BRANCH 22 23
ATOM     23  CG  ASN D   6     -10.667 -38.609  17.015  1.00 71.29 LIG 0.22  C 
ATOM     24  ND2 ASN D   6      -9.623 -39.439  16.996  1.00 72.89 LIG-0.37  N 
ATOM     25 21HD ASN D   6      -9.254 -39.683  17.733  1.00 72.89 LIG 0.16  HD
ATOM     26 22HD ASN D   6      -9.319 -39.731  16.246  1.00 72.89 LIG 0.16  HD
ATOM     27 OD1  ASN D   6     -11.144 -38.162  18.066  1.00 74.05 LIG-0.27  OA
ENDBRANCH 22 23
ENDBRANCH 10 22
ENDBRANCH 7 10
ENDBRANCH 1 6
BRANCH 1 28
ATOM     28  N   LEU D   5      -6.740 -34.314  15.021  1.00 43.46 LIG-0.35  N 
ATOM     29 H    LEU D   5      -6.280 -34.977  14.722  1.00 43.46 LIG 0.16  HD
ATOM     30  C   LEU D   4      -6.254 -33.085  15.163  1.00 41.34 LIG 0.24  C 
ATOM     31 O    LEU D   4      -6.897 -32.158  15.631  1.00 44.89 LIG-0.27  OA
BRANCH 30 32
ATOM     32  CA  LEU D   4      -4.868 -32.833  14.647  1.00 41.83 LIG 0.18  C 
BRANCH 32 33
ATOM     33  CB  LEU D   4      -4.972 -32.111  13.291  1.00 37.92 LIG 0.04  C 
BRANCH 33 34
ATOM     34  CG  LEU D   4      -3.868 -31.101  12.991  1.00 37.44 LIG-0.02  C 
ATOM     35  CD1 LEU D   4      -4.452 -29.912  12.251  1.00 34.88 LIG 0.01  C 
ATOM     36  CD2 LEU D   4      -3.188 -30.641  14.283  1.00 37.22 LIG 0.01  C 
ENDBRANCH 33 34
ENDBRANCH 32 33
BRANCH 32 37
ATOM     37  N   LEU D   4      -4.057 -34.048  14.539  1.00 45.71 LIG-0.35  N 
ATOM     38 H    LEU D   4      -4.040 -34.401  13.755  1.00 45.71 LIG 0.16  HD
ATOM     39  C   ASP D   3      -3.411 -34.538  15.596  1.00 59.12 LIG 0.24  C 
ATOM     40 O    ASP D   3      -3.560 -34.104  16.743  1.00 63.71 LIG-0.27  OA
BRANCH 39 41
ATOM     41  CA  ASP D   3      -2.487 -35.727  15.353  1.00 63.74 LIG 0.19  C 
BRANCH 41 42
ATOM     42  N   ASP D   3      -1.370 -35.403  14.474  1.00 62.73 LIG-0.35  N 
ATOM     43 H    ASP D   3      -0.645 -35.185  14.884  1.00 62.73 LIG 0.16  HD
ATOM     44  C   GLY D   2      -1.490 -35.448  13.154  1.00 63.13 LIG 0.25  C 
ATOM     45 O    GLY D   2      -2.554 -35.699  12.582  1.00 65.69 LIG-0.27  OA
BRANCH 44 46
ATOM     46  CA  GLY D   2      -0.233 -35.162  12.361  1.00 64.97 LIG 0.47  C 
ATOM     47  N   GLY D   2      -0.246 -35.838  11.031  1.00 67.04 LIG 0.61  N 
ENDBRANCH 44 46
ENDBRANCH 41 42
BRANCH 41 48
ATOM     48  CB  ASP D   3      -1.990 -36.288  16.692  1.00 68.02 LIG 0.15  C 
BRANCH 48 49
ATOM     49  CG  ASP D   3      -1.044 -35.348  17.401  1.00 72.98 LIG 0.17  C 
ATOM     50 OD1  ASP D   3      -1.430 -34.787  18.450  1.00 76.93 LIG-0.65  OA
ATOM     51 OD2  ASP D   3       0.088 -35.162  16.902  1.00 81.56 LIG-0.65  OA
ENDBRANCH 48 49
ENDBRANCH 41 48
ENDBRANCH 39 41
ENDBRANCH 32 37
ENDBRANCH 30 32
ENDBRANCH 1 28
TORSDOF 21
ENDMDL
MODEL 6
USER: ADFR SOLUTION from run 7
USER: SCORE 15.865283 LL:  -3.865 LR: -13.317 RR:   0.000 FEB:  -7.053
USER: RMSD 3.306494
USER: SEED 769791
USER: STATUS no improvement in best in 10 clusters for 5 generations
USER: GENES 23
USER: genes 0 Translation |==|  0.40687 0.63331 0.45087
USER: genes 1 Rotation |==|  0.48140 0.50296 0.43323 0.99516
USER: genes 2 Torsion [C]-CA--CB-[CG] |==|  0.29610
USER: genes 3 Torsion [CA]-CB--CG-[CD1] |==|  0.60129
USER: genes 4 Torsion [N]-CA--C-[N] |==|  0.57470
USER: genes 5 Torsion [C]-N--CA-[C] |==|  0.57581
USER: genes 6 Torsion [N]-CA--C-[N] |==|  0.49993
USER: genes 7 Torsion [C]-N--CA-[C] |==|  0.15923
USER: genes 8 Torsion [N]-CA--C-[O] |==|  0.09941
USER: genes 9 Torsion [N]-CA--CB-[CG] |==|  0.83268
USER: genes 10 Torsion [CA]-CB--CG-[CD1] |==|  0.51428
USER: genes 11 Torsion [N]-CA--CB-[CG] |==|  0.58754
USER: genes 12 Torsion [CA]-CB--CG-[ND2] |==|  0.19000
USER: genes 13 Torsion [CB]-CA--N-[C] |==|  0.17518
USER: genes 14 Torsion [N]-C--CA-[N] |==|  0.94902
USER: genes 15 Torsion [C]-CA--CB-[CG] |==|  0.30898
USER: genes 16 Torsion [CA]-CB--CG-[CD1] |==|  0.69627
USER: genes 17 Torsion [C]-CA--N-[C] |==|  0.77333
USER: genes 18 Torsion [N]-C--CA-[N] |==|  0.20254
USER: genes 19 Torsion [C]-CA--N-[C] |==|  0.76667
USER: genes 20 Torsion [N]-C--CA-[N] |==|  0.51160
USER: genes 21 Torsion [C]-CA--CB-[CG] |==|  0.82461
USER: genes 22 Torsion [CA]-CB--CG-[OD1] |==|  0.31546
ROOT
ATOM      1  CA  LEU D   5      -7.581 -33.962  15.537  1.00 45.78 LIG 0.18  C 
ENDROOT
BRANCH 1 2
ATOM      2  CB  LEU D   5      -8.604 -33.312  14.612  1.00 44.83 LIG 0.04  C 
BRANCH 2 3
ATOM      3  CG  LEU D   5      -9.628 -32.365  15.225  1.00 46.71 LIG-0.02  C 
ATOM      4  CD1 LEU D   5     -10.956 -32.541  14.505  1.00 43.35 LIG 0.01  C 
ATOM      5  CD2 LEU D   5      -9.794 -32.617  16.724  1.00 50.41 LIG 0.01  C 
ENDBRANCH 2 3
ENDBRANCH 1 2
BRANCH 1 6
ATOM      6  C   LEU D   5      -7.971 -35.422  15.697  1.00 49.70 LIG 0.24  C 
ATOM      7  N   ASN D   6      -9.280 -35.671  15.625  1.00 52.00 LIG-0.35  N 
ATOM      8 H    ASN D   6      -9.874 -35.051  15.573  1.00 52.00 LIG 0.16  HD
ATOM      9 O    LEU D   5      -7.098 -36.300  15.835  1.00 48.20 LIG-0.27  OA
BRANCH 7 10
ATOM     10  CA  ASN D   6      -9.842 -37.023  15.627  1.00 59.27 LIG 0.18  C 
BRANCH 10 11
ATOM     11  C   ASN D   6     -11.181 -37.005  14.880  1.00 60.71 LIG 0.24  C 
ATOM     12  N   LEU D   7     -11.827 -38.168  14.791  1.00 62.75 LIG-0.35  N 
ATOM     13 H    LEU D   7     -11.590 -38.876  15.217  1.00 62.75 LIG 0.16  HD
ATOM     14 O    ASN D   6     -11.615 -35.956  14.397  1.00 63.11 LIG-0.27  OA
BRANCH 12 15
ATOM     15  CA  LEU D   7     -13.016 -38.347  13.948  1.00 66.71 LIG 0.16  C 
BRANCH 15 16
ATOM     16  C   LEU D   7     -12.769 -38.010  12.473  1.00 66.58 LIG 0.22  C 
ATOM     17 O    LEU D   7     -11.693 -38.261  11.941  1.00 70.30 LIG-0.29  OA
ENDBRANCH 15 16
BRANCH 15 18
ATOM     18  CB  LEU D   7     -14.165 -37.496  14.505  1.00 67.13 LIG 0.04  C 
BRANCH 18 19
ATOM     19  CG  LEU D   7     -14.583 -37.845  15.941  1.00 64.50 LIG-0.02  C 
ATOM     20  CD1 LEU D   7     -15.807 -37.037  16.356  1.00 64.54 LIG 0.01  C 
ATOM     21  CD2 LEU D   7     -14.838 -39.343  16.093  1.00 62.99 LIG 0.01  C 
ENDBRANCH 18 19
ENDBRANCH 15 18
ENDBRANCH 12 15
ENDBRANCH 10 11
BRANCH 10 22
ATOM     22  CB  ASN D   6     -10.015 -37.508  17.075  1.00 63.11 LIG 0.14  C 
BRANCH 22 23
ATOM     23  CG  ASN D   6      -9.845 -39.012  17.218  1.00 71.29 LIG 0.22  C 
ATOM     24  ND2 ASN D   6      -8.614 -39.488  17.019  1.00 72.89 LIG-0.37  N 
ATOM     25 21HD ASN D   6      -8.464 -40.332  17.083  1.00 72.89 LIG 0.16  HD
ATOM     26 22HD ASN D   6      -7.971 -38.950  16.826  1.00 72.89 LIG 0.16  HD
ATOM     27 OD1  ASN D   6     -10.804 -39.742  17.497  1.00 74.05 LIG-0.27  OA
ENDBRANCH 22 23
ENDBRANCH 10 22
ENDBRANCH 7 10
ENDBRANCH 1 6
BRANCH 1 28
ATOM     28  N   LEU D   5      -6.216 -33.830  15.001  1.00 43.46 LIG-0.35  N 
ATOM     29 H    LEU D   5      -5.839 -34.580  14.812  1.00 43.46 LIG 0.16  HD
ATOM     30  C   LEU D   4      -5.632 -32.648  14.828  1.00 41.34 LIG 0.24  C 
ATOM     31 O    LEU D   4      -6.153 -31.589  15.141  1.00 44.89 LIG-0.27  OA
BRANCH 30 32
ATOM     32  CA  LEU D   4      -4.296 -32.638  14.144  1.00 41.83 LIG 0.18  C 
BRANCH 32 33
ATOM     33  CB  LEU D   4      -4.481 -32.104  12.712  1.00 37.92 LIG 0.04  C 
BRANCH 33 34
ATOM     34  CG  LEU D   4      -3.868 -30.735  12.431  1.00 37.44 LIG-0.02  C 
ATOM     35  CD1 LEU D   4      -4.972 -29.708  12.260  1.00 34.88 LIG 0.01  C 
ATOM     36  CD2 LEU D   4      -2.926 -30.319  13.564  1.00 37.22 LIG 0.01  C 
ENDBRANCH 33 34
ENDBRANCH 32 33
BRANCH 32 37
ATOM     37  N   LEU D   4      -3.633 -33.945  14.142  1.00 45.71 LIG-0.35  N 
ATOM     38 H    LEU D   4      -3.725 -34.393  13.413  1.00 45.71 LIG 0.16  HD
ATOM     39  C   ASP D   3      -2.952 -34.371  15.204  1.00 59.12 LIG 0.24  C 
ATOM     40 O    ASP D   3      -2.950 -33.782  16.290  1.00 63.71 LIG-0.27  OA
BRANCH 39 41
ATOM     41  CA  ASP D   3      -2.187 -35.682  15.056  1.00 63.74 LIG 0.19  C 
BRANCH 41 42
ATOM     42  N   ASP D   3      -0.997 -35.549  14.224  1.00 62.73 LIG-0.35  N 
ATOM     43 H    ASP D   3      -0.268 -35.422  14.663  1.00 62.73 LIG 0.16  HD
ATOM     44  C   GLY D   2      -1.063 -35.623  12.902  1.00 63.13 LIG 0.25  C 
ATOM     45 O    GLY D   2      -2.124 -35.742  12.285  1.00 65.69 LIG-0.27  OA
BRANCH 44 46
ATOM     46  CA  GLY D   2       0.257 -35.546  12.164  1.00 64.97 LIG 0.47  C 
ATOM     47  N   GLY D   2       0.070 -35.537  10.684  1.00 67.04 LIG 0.61  N 
ENDBRANCH 44 46
ENDBRANCH 41 42
BRANCH 41 48
ATOM     48  CB  ASP D   3      -1.834 -36.243  16.439  1.00 68.02 LIG 0.15  C 
BRANCH 48 49
ATOM     49  CG  ASP D   3      -0.910 -35.336  17.216  1.00 72.98 LIG 0.17  C 
ATOM     50 OD1  ASP D   3      -1.341 -34.787  18.254  1.00 76.93 LIG-0.65  OA
ATOM     51 OD2  ASP D   3       0.250 -35.162  16.781  1.00 81.56 LIG-0.65  OA
ENDBRANCH 48 49
ENDBRANCH 41 48
ENDBRANCH 39 41
ENDBRANCH 32 37
ENDBRANCH 30 32
ENDBRANCH 1 28
TORSDOF 21
ENDMDL
MODEL 7
USER: ADFR SOLUTION from run 46
USER: SCORE 15.820187 LL:  -4.169 LR: -13.316 RR:   0.000 FEB:  -7.051
USER: RMSD 2.073418
USER: SEED 45
USER: STATUS no improvement in best in 3 clusters for 5 generations
USER: GENES 23
USER: genes 0 Translation |==|  0.37354 0.58352 0.43565
USER: genes 1 Rotation |==|  0.48636 0.43683 0.49600 0.99579
USER: genes 2 Torsion [C]-CA--CB-[CG] |==|  0.25623
USER: genes 3 Torsion [CA]-CB--CG-[CD1] |==|  0.26571
USER: genes 4 Torsion [N]-CA--C-[N] |==|  0.43420
USER: genes 5 Torsion [C]-N--CA-[C] |==|  0.53333
USER: genes 6 Torsion [N]-CA--C-[N] |==|  0.32997
USER: genes 7 Torsion [C]-N--CA-[C] |==|  0.66496
USER: genes 8 Torsion [N]-CA--C-[O] |==|  0.15620
USER: genes 9 Torsion [N]-CA--CB-[CG] |==|  0.73292
USER: genes 10 Torsion [CA]-CB--CG-[CD1] |==|  0.39830
USER: genes 11 Torsion [N]-CA--CB-[CG] |==|  0.64394
USER: genes 12 Torsion [CA]-CB--CG-[ND2] |==|  0.51816
USER: genes 13 Torsion [CB]-CA--N-[C] |==|  0.20636
USER: genes 14 Torsion [N]-C--CA-[N] |==|  0.95817
USER: genes 15 Torsion [C]-CA--CB-[CG] |==|  0.49598
USER: genes 16 Torsion [CA]-CB--CG-[CD1] |==|  0.51521
USER: genes 17 Torsion [C]-CA--N-[C] |==|  0.71760
USER: genes 18 Torsion [N]-C--CA-[N] |==|  0.89031
USER: genes 19 Torsion [C]-CA--N-[C] |==|  0.82293
USER: genes 20 Torsion [N]-C--CA-[N] |==|  0.48951
USER: genes 21 Torsion [C]-CA--CB-[CG] |==|  0.30272
USER: genes 22 Torsion [CA]-CB--CG-[OD1] |==|  0.99380
ROOT
ATOM      1  CA  LEU D   5      -8.305 -34.971  15.275  1.00 45.78 LIG 0.18  C 
ENDROOT
BRANCH 1 2
ATOM      2  CB  LEU D   5      -9.192 -34.587  14.094  1.00 44.83 LIG 0.04  C 
BRANCH 2 3
ATOM      3  CG  LEU D   5     -10.655 -34.261  14.369  1.00 46.71 LIG-0.02  C 
ATOM      4  CD1 LEU D   5     -10.807 -32.756  14.511  1.00 43.35 LIG 0.01  C 
ATOM      5  CD2 LEU D   5     -11.562 -34.790  13.257  1.00 50.41 LIG 0.01  C 
ENDBRANCH 2 3
ENDBRANCH 1 2
BRANCH 1 6
ATOM      6  C   LEU D   5      -8.342 -36.485  15.400  1.00 49.70 LIG 0.24  C 
ATOM      7  N   ASN D   6      -9.404 -36.976  16.042  1.00 52.00 LIG-0.35  N 
ATOM      8 H    ASN D   6      -9.990 -36.480  16.429  1.00 52.00 LIG 0.16  HD
ATOM      9 O    LEU D   5      -7.449 -37.184  14.885  1.00 48.20 LIG-0.27  OA
BRANCH 7 10
ATOM     10  CA  ASN D   6      -9.682 -38.409  16.153  1.00 59.27 LIG 0.18  C 
BRANCH 10 11
ATOM     11  C   ASN D   6     -11.110 -38.598  16.680  1.00 60.71 LIG 0.24  C 
ATOM     12  N   LEU D   7     -11.957 -39.247  15.881  1.00 62.75 LIG-0.35  N 
ATOM     13 H    LEU D   7     -11.716 -39.649  15.161  1.00 62.75 LIG 0.16  HD
ATOM     14 O    ASN D   6     -11.431 -38.163  17.788  1.00 63.11 LIG-0.27  OA
BRANCH 12 15
ATOM     15  CA  LEU D   7     -13.396 -39.335  16.162  1.00 66.71 LIG 0.16  C 
BRANCH 15 16
ATOM     16  C   LEU D   7     -13.897 -40.775  16.312  1.00 66.58 LIG 0.22  C 
ATOM     17 O    LEU D   7     -13.396 -41.534  17.135  1.00 70.30 LIG-0.29  OA
ENDBRANCH 15 16
BRANCH 15 18
ATOM     18  CB  LEU D   7     -14.173 -38.612  15.053  1.00 67.13 LIG 0.04  C 
BRANCH 18 19
ATOM     19  CG  LEU D   7     -14.558 -37.162  15.381  1.00 64.50 LIG-0.02  C 
ATOM     20  CD1 LEU D   7     -14.466 -36.287  14.137  1.00 64.54 LIG 0.01  C 
ATOM     21  CD2 LEU D   7     -15.949 -37.086  16.004  1.00 62.99 LIG 0.01  C 
ENDBRANCH 18 19
ENDBRANCH 15 18
ENDBRANCH 12 15
ENDBRANCH 10 11
BRANCH 10 22
ATOM     22  CB  ASN D   6      -8.651 -39.066  17.083  1.00 63.11 LIG 0.14  C 
BRANCH 22 23
ATOM     23  CG  ASN D   6      -7.982 -40.281  16.460  1.00 71.29 LIG 0.22  C 
ATOM     24  ND2 ASN D   6      -7.175 -40.983  17.257  1.00 72.89 LIG-0.37  N 
ATOM     25 21HD ASN D   6      -6.767 -41.676  16.953  1.00 72.89 LIG 0.16  HD
ATOM     26 22HD ASN D   6      -7.061 -40.742  18.075  1.00 72.89 LIG 0.16  HD
ATOM     27 OD1  ASN D   6      -8.178 -40.584  15.277  1.00 74.05 LIG-0.27  OA
ENDBRANCH 22 23
ENDBRANCH 10 22
ENDBRANCH 7 10
ENDBRANCH 1 6
BRANCH 1 28
ATOM     28  N   LEU D   5      -6.928 -34.483  15.090  1.00 43.46 LIG-0.35  N 
ATOM     29 H    LEU D   5      -6.363 -35.098  14.885  1.00 43.46 LIG 0.16  HD
ATOM     30  C   LEU D   4      -6.604 -33.201  15.230  1.00 41.34 LIG 0.24  C 
ATOM     31 O    LEU D   4      -7.401 -32.339  15.566  1.00 44.89 LIG-0.27  OA
BRANCH 30 32
ATOM     32  CA  LEU D   4      -5.199 -32.808  14.878  1.00 41.83 LIG 0.18  C 
BRANCH 32 33
ATOM     33  CB  LEU D   4      -5.229 -31.984  13.579  1.00 37.92 LIG 0.04  C 
BRANCH 33 34
ATOM     34  CG  LEU D   4      -3.879 -31.468  13.090  1.00 37.44 LIG-0.02  C 
ATOM     35  CD1 LEU D   4      -4.084 -30.568  11.885  1.00 34.88 LIG 0.01  C 
ATOM     36  CD2 LEU D   4      -3.152 -30.709  14.203  1.00 37.22 LIG 0.01  C 
ENDBRANCH 33 34
ENDBRANCH 32 33
BRANCH 32 37
ATOM     37  N   LEU D   4      -4.288 -33.950  14.762  1.00 45.71 LIG-0.35  N 
ATOM     38 H    LEU D   4      -4.352 -34.387  14.024  1.00 45.71 LIG 0.16  HD
ATOM     39  C   ASP D   3      -3.440 -34.254  15.743  1.00 59.12 LIG 0.24  C 
ATOM     40 O    ASP D   3      -3.458 -33.707  16.850  1.00 63.71 LIG-0.27  OA
BRANCH 39 41
ATOM     41  CA  ASP D   3      -2.441 -35.375  15.472  1.00 63.74 LIG 0.19  C 
BRANCH 41 42
ATOM     42  N   ASP D   3      -3.026 -36.482  14.726  1.00 62.73 LIG-0.35  N 
ATOM     43 H    ASP D   3      -2.681 -36.610  13.948  1.00 62.73 LIG 0.16  HD
ATOM     44  C   GLY D   2      -4.008 -37.217  15.231  1.00 63.13 LIG 0.25  C 
ATOM     45 O    GLY D   2      -4.535 -36.981  16.321  1.00 65.69 LIG-0.27  OA
BRANCH 44 46
ATOM     46  CA  GLY D   2      -4.471 -38.383  14.383  1.00 64.97 LIG 0.47  C 
ATOM     47  N   GLY D   2      -5.512 -39.197  15.074  1.00 67.04 LIG 0.61  N 
ENDBRANCH 44 46
ENDBRANCH 41 42
BRANCH 41 48
ATOM     48  CB  ASP D   3      -1.207 -34.816  14.753  1.00 68.02 LIG 0.15  C 
BRANCH 48 49
ATOM     49  CG  ASP D   3       0.018 -34.788  15.636  1.00 72.98 LIG 0.17  C 
ATOM     50 OD1  ASP D   3      -0.090 -35.162  16.824  1.00 76.93 LIG-0.65  OA
ATOM     51 OD2  ASP D   3       1.093 -34.381  15.142  1.00 81.56 LIG-0.65  OA
ENDBRANCH 48 49
ENDBRANCH 41 48
ENDBRANCH 39 41
ENDBRANCH 32 37
ENDBRANCH 30 32
ENDBRANCH 1 28
TORSDOF 21
ENDMDL
MODEL 8
USER: ADFR SOLUTION from run 129
USER: SCORE 15.767687 LL:  -3.933 LR: -13.058 RR:   0.000 FEB:  -6.794
USER: RMSD 4.084687
USER: SEED 128
USER: STATUS no improvement in best in 10 clusters for 5 generations
USER: GENES 23
USER: genes 0 Translation |==|  0.38257 0.60551 0.43871
USER: genes 1 Rotation |==|  0.55673 0.49947 0.44509 0.99373
USER: genes 2 Torsion [C]-CA--CB-[CG] |==|  0.25653
USER: genes 3 Torsion [CA]-CB--CG-[CD1] |==|  0.12700
USER: genes 4 Torsion [N]-CA--C-[N] |==|  0.56439
USER: genes 5 Torsion [C]-N--CA-[C] |==|  0.76067
USER: genes 6 Torsion [N]-CA--C-[N] |==|  0.44726
USER: genes 7 Torsion [C]-N--CA-[C] |==|  0.12679
USER: genes 8 Torsion [N]-CA--C-[O] |==|  0.29391
USER: genes 9 Torsion [N]-CA--CB-[CG] |==|  0.70321
USER: genes 10 Torsion [CA]-CB--CG-[CD1] |==|  0.31679
USER: genes 11 Torsion [N]-CA--CB-[CG] |==|  0.28185
USER: genes 12 Torsion [CA]-CB--CG-[ND2] |==|  0.75530
USER: genes 13 Torsion [CB]-CA--N-[C] |==|  0.15966
USER: genes 14 Torsion [N]-C--CA-[N] |==|  0.93512
USER: genes 15 Torsion [C]-CA--CB-[CG] |==|  0.38586
USER: genes 16 Torsion [CA]-CB--CG-[CD1] |==|  0.62705
USER: genes 17 Torsion [C]-CA--N-[C] |==|  0.77146
USER: genes 18 Torsion [N]-C--CA-[N] |==|  0.17887
USER: genes 19 Torsion [C]-CA--N-[C] |==|  0.75679
USER: genes 20 Torsion [N]-C--CA-[N] |==|  0.10374
USER: genes 21 Torsion [C]-CA--CB-[CG] |==|  0.78826
USER: genes 22 Torsion [CA]-CB--CG-[OD1] |==|  0.82679
ROOT
ATOM      1  CA  LEU D   5      -8.109 -34.525  15.328  1.00 45.78 LIG 0.18  C 
ENDROOT
BRANCH 1 2
ATOM      2  CB  LEU D   5      -9.123 -33.669  14.575  1.00 44.83 LIG 0.04  C 
BRANCH 2 3
ATOM      3  CG  LEU D   5     -10.396 -33.256  15.301  1.00 46.71 LIG-0.02  C 
ATOM      4  CD1 LEU D   5     -10.033 -32.764  16.693  1.00 43.35 LIG 0.01  C 
ATOM      5  CD2 LEU D   5     -11.153 -32.174  14.530  1.00 50.41 LIG 0.01  C 
ENDBRANCH 2 3
ENDBRANCH 1 2
BRANCH 1 6
ATOM      6  C   LEU D   5      -8.430 -35.981  15.031  1.00 49.70 LIG 0.24  C 
ATOM      7  N   ASN D   6      -9.727 -36.259  14.890  1.00 52.00 LIG-0.35  N 
ATOM      8 H    ASN D   6     -10.349 -35.683  15.033  1.00 52.00 LIG 0.16  HD
ATOM      9 O    LEU D   5      -7.515 -36.814  14.889  1.00 48.20 LIG-0.27  OA
BRANCH 7 10
ATOM     10  CA  ASN D   6     -10.227 -37.572  14.477  1.00 59.27 LIG 0.18  C 
BRANCH 10 11
ATOM     11  C   ASN D   6     -10.242 -37.638  12.946  1.00 60.71 LIG 0.24  C 
ATOM     12  N   LEU D   7     -10.289 -38.855  12.404  1.00 62.75 LIG-0.35  N 
ATOM     13 H    LEU D   7     -10.421 -39.573  12.859  1.00 62.75 LIG 0.16  HD
ATOM     14 O    ASN D   6     -10.214 -36.604  12.274  1.00 63.11 LIG-0.27  OA
BRANCH 12 15
ATOM     15  CA  LEU D   7     -10.116 -39.085  10.964  1.00 66.71 LIG 0.16  C 
BRANCH 15 16
ATOM     16  C   LEU D   7      -8.938 -38.310  10.363  1.00 66.58 LIG 0.22  C 
ATOM     17 O    LEU D   7      -7.898 -38.884  10.057  1.00 70.30 LIG-0.29  OA
ENDBRANCH 15 16
BRANCH 15 18
ATOM     18  CB  LEU D   7     -11.418 -38.726  10.234  1.00 67.13 LIG 0.04  C 
BRANCH 18 19
ATOM     19  CG  LEU D   7     -12.221 -39.932   9.726  1.00 64.50 LIG-0.02  C 
ATOM     20  CD1 LEU D   7     -13.551 -40.042  10.463  1.00 64.54 LIG 0.01  C 
ATOM     21  CD2 LEU D   7     -12.435 -39.858   8.216  1.00 62.99 LIG 0.01  C 
ENDBRANCH 18 19
ENDBRANCH 15 18
ENDBRANCH 12 15
ENDBRANCH 10 11
BRANCH 10 22
ATOM     22  CB  ASN D   6     -11.629 -37.799  15.062  1.00 63.11 LIG 0.14  C 
BRANCH 22 23
ATOM     23  CG  ASN D   6     -12.737 -37.573  14.046  1.00 71.29 LIG 0.22  C 
ATOM     24  ND2 ASN D   6     -13.194 -36.324  13.940  1.00 72.89 LIG-0.37  N 
ATOM     25 21HD ASN D   6     -13.825 -36.143  13.384  1.00 72.89 LIG 0.16  HD
ATOM     26 22HD ASN D   6     -12.859 -35.700  14.428  1.00 72.89 LIG 0.16  HD
ATOM     27 OD1  ASN D   6     -13.185 -38.507  13.368  1.00 74.05 LIG-0.27  OA
ENDBRANCH 22 23
ENDBRANCH 10 22
ENDBRANCH 7 10
ENDBRANCH 1 6
BRANCH 1 28
ATOM     28  N   LEU D   5      -6.730 -34.191  14.934  1.00 43.46 LIG-0.35  N 
ATOM     29 H    LEU D   5      -6.282 -34.857  14.626  1.00 43.46 LIG 0.16  HD
ATOM     30  C   LEU D   4      -6.237 -32.962  15.048  1.00 41.34 LIG 0.24  C 
ATOM     31 O    LEU D   4      -6.862 -32.029  15.529  1.00 44.89 LIG-0.27  OA
BRANCH 30 32
ATOM     32  CA  LEU D   4      -4.868 -32.718  14.484  1.00 41.83 LIG 0.18  C 
BRANCH 32 33
ATOM     33  CB  LEU D   4      -5.016 -32.024  13.117  1.00 37.92 LIG 0.04  C 
BRANCH 33 34
ATOM     34  CG  LEU D   4      -4.025 -30.899  12.835  1.00 37.44 LIG-0.02  C 
ATOM     35  CD1 LEU D   4      -4.762 -29.703  12.260  1.00 34.88 LIG 0.01  C 
ATOM     36  CD2 LEU D   4      -3.279 -30.500  14.111  1.00 37.22 LIG 0.01  C 
ENDBRANCH 33 34
ENDBRANCH 32 33
BRANCH 32 37
ATOM     37  N   LEU D   4      -4.058 -33.934  14.376  1.00 45.71 LIG-0.35  N 
ATOM     38 H    LEU D   4      -4.053 -34.295  13.595  1.00 45.71 LIG 0.16  HD
ATOM     39  C   ASP D   3      -3.395 -34.413  15.427  1.00 59.12 LIG 0.24  C 
ATOM     40 O    ASP D   3      -3.525 -33.967  16.572  1.00 63.71 LIG-0.27  OA
BRANCH 39 41
ATOM     41  CA  ASP D   3      -2.474 -35.604  15.181  1.00 63.74 LIG 0.19  C 
BRANCH 41 42
ATOM     42  N   ASP D   3      -1.363 -35.284  14.294  1.00 62.73 LIG-0.35  N 
ATOM     43 H    ASP D   3      -0.646 -35.029  14.697  1.00 62.73 LIG 0.16  HD
ATOM     44  C   GLY D   2      -1.476 -35.386  12.976  1.00 63.13 LIG 0.25  C 
ATOM     45 O    GLY D   2      -2.529 -35.690  12.411  1.00 65.69 LIG-0.27  OA
BRANCH 44 46
ATOM     46  CA  GLY D   2      -0.223 -35.097  12.176  1.00 64.97 LIG 0.47  C 
ATOM     47  N   GLY D   2       1.003 -35.603  12.858  1.00 67.04 LIG 0.61  N 
ENDBRANCH 44 46
ENDBRANCH 41 42
BRANCH 41 48
ATOM     48  CB  ASP D   3      -1.969 -36.161  16.518  1.00 68.02 LIG 0.15  C 
BRANCH 48 49
ATOM     49  CG  ASP D   3      -0.886 -35.307  17.133  1.00 72.98 LIG 0.17  C 
ATOM     50 OD1  ASP D   3       0.190 -35.164  16.512  1.00 76.93 LIG-0.65  OA
ATOM     51 OD2  ASP D   3      -1.108 -34.783  18.247  1.00 81.56 LIG-0.65  OA
ENDBRANCH 48 49
ENDBRANCH 41 48
ENDBRANCH 39 41
ENDBRANCH 32 37
ENDBRANCH 30 32
ENDBRANCH 1 28
TORSDOF 21
ENDMDL
MODEL 9
USER: ADFR SOLUTION from run 179
USER: SCORE 14.656391 LL:  -4.002 LR: -12.876 RR:   0.000 FEB:  -6.612
USER: RMSD 3.165718
USER: SEED 178
USER: STATUS no improvement in best in 6 clusters for 5 generations
USER: GENES 23
USER: genes 0 Translation |==|  0.36313 0.58405 0.41147
USER: genes 1 Rotation |==|  0.45379 0.39432 0.51513 0.98628
USER: genes 2 Torsion [C]-CA--CB-[CG] |==|  0.33361
USER: genes 3 Torsion [CA]-CB--CG-[CD1] |==|  0.68960
USER: genes 4 Torsion [N]-CA--C-[N] |==|  0.40941
USER: genes 5 Torsion [C]-N--CA-[C] |==|  0.62632
USER: genes 6 Torsion [N]-CA--C-[N] |==|  0.14143
USER: genes 7 Torsion [C]-N--CA-[C] |==|  0.56433
USER: genes 8 Torsion [N]-CA--C-[O] |==|  0.93423
USER: genes 9 Torsion [N]-CA--CB-[CG] |==|  0.69384
USER: genes 10 Torsion [CA]-CB--CG-[CD1] |==|  0.60832
USER: genes 11 Torsion [N]-CA--CB-[CG] |==|  0.13717
USER: genes 12 Torsion [CA]-CB--CG-[ND2] |==|  0.74901
USER: genes 13 Torsion [CB]-CA--N-[C] |==|  0.23327
USER: genes 14 Torsion [N]-C--CA-[N] |==|  0.95566
USER: genes 15 Torsion [C]-CA--CB-[CG] |==|  0.51414
USER: genes 16 Torsion [CA]-CB--CG-[CD1] |==|  0.53867
USER: genes 17 Torsion [C]-CA--N-[C] |==|  0.72331
USER: genes 18 Torsion [N]-C--CA-[N] |==|  0.60556
USER: genes 19 Torsion [C]-CA--N-[C] |==|  0.68452
USER: genes 20 Torsion [N]-C--CA-[N] |==|  0.39191
USER: genes 21 Torsion [C]-CA--CB-[CG] |==|  0.26489
USER: genes 22 Torsion [CA]-CB--CG-[OD1] |==|  0.00117
ROOT
ATOM      1  CA  LEU D   5      -8.532 -34.960  14.858  1.00 45.78 LIG 0.18  C 
ENDROOT
BRANCH 1 2
ATOM      2  CB  LEU D   5      -9.219 -34.806  13.504  1.00 44.83 LIG 0.04  C 
BRANCH 2 3
ATOM      3  CG  LEU D   5     -10.483 -33.960  13.431  1.00 46.71 LIG-0.02  C 
ATOM      4  CD1 LEU D   5     -11.667 -34.866  13.137  1.00 43.35 LIG 0.01  C 
ATOM      5  CD2 LEU D   5     -10.710 -33.184  14.729  1.00 50.41 LIG 0.01  C 
ENDBRANCH 2 3
ENDBRANCH 1 2
BRANCH 1 6
ATOM      6  C   LEU D   5      -8.512 -36.442  15.195  1.00 49.70 LIG 0.24  C 
ATOM      7  N   ASN D   6      -9.566 -36.882  15.884  1.00 52.00 LIG-0.35  N 
ATOM      8 H    ASN D   6     -10.178 -36.361  16.190  1.00 52.00 LIG 0.16  HD
ATOM      9 O    LEU D   5      -7.582 -37.168  14.796  1.00 48.20 LIG-0.27  OA
BRANCH 7 10
ATOM     10  CA  ASN D   6      -9.791 -38.295  16.192  1.00 59.27 LIG 0.18  C 
BRANCH 10 11
ATOM     11  C   ASN D   6     -11.257 -38.639  15.904  1.00 60.71 LIG 0.24  C 
ATOM     12  N   LEU D   7     -11.725 -38.287  14.707  1.00 62.75 LIG-0.35  N 
ATOM     13 H    LEU D   7     -11.228 -37.991  14.071  1.00 62.75 LIG 0.16  HD
ATOM     14 O    ASN D   6     -11.944 -39.212  16.753  1.00 63.11 LIG-0.27  OA
BRANCH 12 15
ATOM     15  CA  LEU D   7     -13.150 -38.375  14.360  1.00 66.71 LIG 0.16  C 
BRANCH 15 16
ATOM     16  C   LEU D   7     -13.402 -38.474  12.852  1.00 66.58 LIG 0.22  C 
ATOM     17 O    LEU D   7     -12.575 -38.058  12.047  1.00 70.30 LIG-0.29  OA
ENDBRANCH 15 16
BRANCH 15 18
ATOM     18  CB  LEU D   7     -13.889 -37.163  14.946  1.00 67.13 LIG 0.04  C 
BRANCH 18 19
ATOM     19  CG  LEU D   7     -14.839 -37.492  16.107  1.00 64.50 LIG-0.02  C 
ATOM     20  CD1 LEU D   7     -16.113 -36.662  16.010  1.00 64.54 LIG 0.01  C 
ATOM     21  CD2 LEU D   7     -15.158 -38.984  16.155  1.00 62.99 LIG 0.01  C 
ENDBRANCH 18 19
ENDBRANCH 15 18
ENDBRANCH 12 15
ENDBRANCH 10 11
BRANCH 10 22
ATOM     22  CB  ASN D   6      -9.430 -38.568  17.661  1.00 63.11 LIG 0.14  C 
BRANCH 22 23
ATOM     23  CG  ASN D   6     -10.065 -37.576  18.620  1.00 71.29 LIG 0.22  C 
ATOM     24  ND2 ASN D   6      -9.352 -36.482  18.896  1.00 72.89 LIG-0.37  N 
ATOM     25 21HD ASN D   6      -9.663 -35.891  19.438  1.00 72.89 LIG 0.16  HD
ATOM     26 22HD ASN D   6      -8.580 -36.369  18.533  1.00 72.89 LIG 0.16  HD
ATOM     27 OD1  ASN D   6     -11.179 -37.787  19.117  1.00 74.05 LIG-0.27  OA
ENDBRANCH 22 23
ENDBRANCH 10 22
ENDBRANCH 7 10
ENDBRANCH 1 6
BRANCH 1 28
ATOM     28  N   LEU D   5      -7.171 -34.399  14.833  1.00 43.46 LIG-0.35  N 
ATOM     29 H    LEU D   5      -6.554 -34.980  14.684  1.00 43.46 LIG 0.16  HD
ATOM     30  C   LEU D   4      -6.931 -33.106  15.025  1.00 41.34 LIG 0.24  C 
ATOM     31 O    LEU D   4      -7.805 -32.291  15.283  1.00 44.89 LIG-0.27  OA
BRANCH 30 32
ATOM     32  CA  LEU D   4      -5.519 -32.635  14.836  1.00 41.83 LIG 0.18  C 
BRANCH 32 33
ATOM     33  CB  LEU D   4      -5.445 -31.807  13.540  1.00 37.92 LIG 0.04  C 
BRANCH 33 34
ATOM     34  CG  LEU D   4      -4.050 -31.348  13.127  1.00 37.44 LIG-0.02  C 
ATOM     35  CD1 LEU D   4      -4.163 -30.279  12.055  1.00 34.88 LIG 0.01  C 
ATOM     36  CD2 LEU D   4      -3.276 -30.810  14.333  1.00 37.22 LIG 0.01  C 
ENDBRANCH 33 34
ENDBRANCH 32 33
BRANCH 32 37
ATOM     37  N   LEU D   4      -4.539 -33.724  14.827  1.00 45.71 LIG-0.35  N 
ATOM     38 H    LEU D   4      -4.474 -34.143  14.079  1.00 45.71 LIG 0.16  HD
ATOM     39  C   ASP D   3      -3.823 -34.012  15.913  1.00 59.12 LIG 0.24  C 
ATOM     40 O    ASP D   3      -4.028 -33.498  17.017  1.00 63.71 LIG-0.27  OA
BRANCH 39 41
ATOM     41  CA  ASP D   3      -2.736 -35.072  15.764  1.00 63.74 LIG 0.19  C 
BRANCH 41 42
ATOM     42  N   ASP D   3      -2.626 -35.934  16.935  1.00 62.73 LIG-0.35  N 
ATOM     43 H    ASP D   3      -3.310 -36.437  17.073  1.00 62.73 LIG 0.16  HD
ATOM     44  C   GLY D   2      -1.547 -35.921  17.706  1.00 63.13 LIG 0.25  C 
ATOM     45 O    GLY D   2      -0.602 -35.148  17.532  1.00 65.69 LIG-0.27  OA
BRANCH 44 46
ATOM     46  CA  GLY D   2      -1.531 -36.920  18.845  1.00 64.97 LIG 0.47  C 
ATOM     47  N   GLY D   2      -0.178 -37.514  19.046  1.00 67.04 LIG 0.61  N 
ENDBRANCH 44 46
ENDBRANCH 41 42
BRANCH 41 48
ATOM     48  CB  ASP D   3      -2.977 -35.897  14.493  1.00 68.02 LIG 0.15  C 
BRANCH 48 49
ATOM     49  CG  ASP D   3      -2.190 -35.387  13.310  1.00 72.98 LIG 0.17  C 
ATOM     50 OD1  ASP D   3      -1.445 -34.395  13.468  1.00 76.93 LIG-0.65  OA
ATOM     51 OD2  ASP D   3      -2.324 -35.975  12.214  1.00 81.56 LIG-0.65  OA
ENDBRANCH 48 49
ENDBRANCH 41 48
ENDBRANCH 39 41
ENDBRANCH 32 37
ENDBRANCH 30 32
ENDBRANCH 1 28
TORSDOF 21
ENDMDL
MODEL 10
USER: ADFR SOLUTION from run 176
USER: SCORE 15.905984 LL:  -4.532 LR: -12.603 RR:   0.000 FEB:  -6.339
USER: RMSD 2.651732
USER: SEED 175
USER: STATUS no improvement in best in 5 clusters for 5 generations
USER: GENES 23
USER: genes 0 Translation |==|  0.36220 0.59703 0.40564
USER: genes 1 Rotation |==|  0.45352 0.39664 0.47767 0.98647
USER: genes 2 Torsion [C]-CA--CB-[CG] |==|  0.31060
USER: genes 3 Torsion [CA]-CB--CG-[CD1] |==|  0.71061
USER: genes 4 Torsion [N]-CA--C-[N] |==|  0.38749
USER: genes 5 Torsion [C]-N--CA-[C] |==|  0.68991
USER: genes 6 Torsion [N]-CA--C-[N] |==|  0.03267
USER: genes 7 Torsion [C]-N--CA-[C] |==|  0.12036
USER: genes 8 Torsion [N]-CA--C-[O] |==|  0.33203
USER: genes 9 Torsion [N]-CA--CB-[CG] |==|  0.93339
USER: genes 10 Torsion [CA]-CB--CG-[CD1] |==|  0.47895
USER: genes 11 Torsion [N]-CA--CB-[CG] |==|  0.65708
USER: genes 12 Torsion [CA]-CB--CG-[ND2] |==|  0.14838
USER: genes 13 Torsion [CB]-CA--N-[C] |==|  0.20198
USER: genes 14 Torsion [N]-C--CA-[N] |==|  0.95584
USER: genes 15 Torsion [C]-CA--CB-[CG] |==|  0.38578
USER: genes 16 Torsion [CA]-CB--CG-[CD1] |==|  0.62738
USER: genes 17 Torsion [C]-CA--N-[C] |==|  0.78515
USER: genes 18 Torsion [N]-C--CA-[N] |==|  0.86669
USER: genes 19 Torsion [C]-CA--N-[C] |==|  0.82602
USER: genes 20 Torsion [N]-C--CA-[N] |==|  0.50780
USER: genes 21 Torsion [C]-CA--CB-[CG] |==|  0.28503
USER: genes 22 Torsion [CA]-CB--CG-[OD1] |==|  0.91731
ROOT
ATOM      1  CA  LEU D   5      -8.552 -34.697  14.757  1.00 45.78 LIG 0.18  C 
ENDROOT
BRANCH 1 2
ATOM      2  CB  LEU D   5      -9.200 -34.404  13.407  1.00 44.83 LIG 0.04  C 
BRANCH 2 3
ATOM      3  CG  LEU D   5     -10.446 -33.530  13.382  1.00 46.71 LIG-0.02  C 
ATOM      4  CD1 LEU D   5     -11.664 -34.412  13.160  1.00 43.35 LIG 0.01  C 
ATOM      5  CD2 LEU D   5     -10.593 -32.730  14.677  1.00 50.41 LIG 0.01  C 
ENDBRANCH 2 3
ENDBRANCH 1 2
BRANCH 1 6
ATOM      6  C   LEU D   5      -8.751 -36.175  15.048  1.00 49.70 LIG 0.24  C 
ATOM      7  N   ASN D   6      -9.771 -36.462  15.860  1.00 52.00 LIG-0.35  N 
ATOM      8 H    ASN D   6     -10.239 -35.860  16.257  1.00 52.00 LIG 0.16  HD
ATOM      9 O    LEU D   5      -8.022 -37.030  14.511  1.00 48.20 LIG-0.27  OA
BRANCH 7 10
ATOM     10  CA  ASN D   6     -10.201 -37.829  16.157  1.00 59.27 LIG 0.18  C 
BRANCH 10 11
ATOM     11  C   ASN D   6     -11.578 -38.065  15.525  1.00 60.71 LIG 0.24  C 
ATOM     12  N   LEU D   7     -12.001 -37.142  14.661  1.00 62.75 LIG-0.35  N 
ATOM     13 H    LEU D   7     -11.505 -36.504  14.367  1.00 62.75 LIG 0.16  HD
ATOM     14 O    ASN D   6     -12.239 -39.065  15.817  1.00 63.11 LIG-0.27  OA
BRANCH 12 15
ATOM     15  CA  LEU D   7     -13.369 -37.130  14.126  1.00 66.71 LIG 0.16  C 
BRANCH 15 16
ATOM     16  C   LEU D   7     -14.439 -37.401  15.189  1.00 66.58 LIG 0.22  C 
ATOM     17 O    LEU D   7     -15.307 -36.571  15.435  1.00 70.30 LIG-0.29  OA
ENDBRANCH 15 16
BRANCH 15 18
ATOM     18  CB  LEU D   7     -13.476 -38.155  12.988  1.00 67.13 LIG 0.04  C 
BRANCH 18 19
ATOM     19  CG  LEU D   7     -12.144 -38.492  12.301  1.00 64.50 LIG-0.02  C 
ATOM     20  CD1 LEU D   7     -12.320 -39.645  11.321  1.00 64.54 LIG 0.01  C 
ATOM     21  CD2 LEU D   7     -11.555 -37.267  11.606  1.00 62.99 LIG 0.01  C 
ENDBRANCH 18 19
ENDBRANCH 15 18
ENDBRANCH 12 15
ENDBRANCH 10 11
BRANCH 10 22
ATOM     22  CB  ASN D   6     -10.240 -38.041  17.678  1.00 63.11 LIG 0.14  C 
BRANCH 22 23
ATOM     23  CG  ASN D   6      -9.376 -39.204  18.136  1.00 71.29 LIG 0.22  C 
ATOM     24  ND2 ASN D   6      -8.102 -39.184  17.740  1.00 72.89 LIG-0.37  N 
ATOM     25 21HD ASN D   6      -7.572 -39.822  17.966  1.00 72.89 LIG 0.16  HD
ATOM     26 22HD ASN D   6      -7.812 -38.534  17.257  1.00 72.89 LIG 0.16  HD
ATOM     27 OD1  ASN D   6      -9.844 -40.115  18.830  1.00 74.05 LIG-0.27  OA
ENDBRANCH 22 23
ENDBRANCH 10 22
ENDBRANCH 7 10
ENDBRANCH 1 6
BRANCH 1 28
ATOM     28  N   LEU D   5      -7.123 -34.341  14.753  1.00 43.46 LIG-0.35  N 
ATOM     29 H    LEU D   5      -6.593 -35.019  14.740  1.00 43.46 LIG 0.16  HD
ATOM     30  C   LEU D   4      -6.705 -33.080  14.766  1.00 41.34 LIG 0.24  C 
ATOM     31 O    LEU D   4      -7.461 -32.122  14.830  1.00 44.89 LIG-0.27  OA
BRANCH 30 32
ATOM     32  CA  LEU D   4      -5.231 -32.845  14.618  1.00 41.83 LIG 0.18  C 
BRANCH 32 33
ATOM     33  CB  LEU D   4      -4.964 -32.252  13.222  1.00 37.92 LIG 0.04  C 
BRANCH 33 34
ATOM     34  CG  LEU D   4      -3.935 -31.127  13.165  1.00 37.44 LIG-0.02  C 
ATOM     35  CD1 LEU D   4      -4.469 -29.991  12.312  1.00 34.88 LIG 0.01  C 
ATOM     36  CD2 LEU D   4      -3.603 -30.624  14.572  1.00 37.22 LIG 0.01  C 
ENDBRANCH 33 34
ENDBRANCH 32 33
BRANCH 32 37
ATOM     37  N   LEU D   4      -4.424 -34.047  14.846  1.00 45.71 LIG-0.35  N 
ATOM     38 H    LEU D   4      -4.131 -34.424  14.131  1.00 45.71 LIG 0.16  HD
ATOM     39  C   ASP D   3      -4.186 -34.489  16.080  1.00 59.12 LIG 0.24  C 
ATOM     40 O    ASP D   3      -4.731 -34.022  17.086  1.00 63.71 LIG-0.27  OA
BRANCH 39 41
ATOM     41  CA  ASP D   3      -3.228 -35.667  16.220  1.00 63.74 LIG 0.19  C 
BRANCH 41 42
ATOM     42  N   ASP D   3      -3.534 -36.755  15.299  1.00 62.73 LIG-0.35  N 
ATOM     43 H    ASP D   3      -2.912 -36.926  14.730  1.00 62.73 LIG 0.16  HD
ATOM     44  C   GLY D   2      -4.685 -37.412  15.359  1.00 63.13 LIG 0.25  C 
ATOM     45 O    GLY D   2      -5.592 -37.113  16.140  1.00 65.69 LIG-0.27  OA
BRANCH 44 46
ATOM     46  CA  GLY D   2      -4.842 -38.569  14.395  1.00 64.97 LIG 0.47  C 
ATOM     47  N   GLY D   2      -6.192 -39.197  14.494  1.00 67.04 LIG 0.61  N 
ENDBRANCH 44 46
ENDBRANCH 41 42
BRANCH 41 48
ATOM     48  CB  ASP D   3      -1.780 -35.190  16.048  1.00 68.02 LIG 0.15  C 
BRANCH 48 49
ATOM     49  CG  ASP D   3      -1.048 -35.065  17.362  1.00 72.98 LIG 0.17  C 
ATOM     50 OD1  ASP D   3      -1.704 -34.787  18.390  1.00 76.93 LIG-0.65  OA
ATOM     51 OD2  ASP D   3       0.192 -35.237  17.367  1.00 81.56 LIG-0.65  OA
ENDBRANCH 48 49
ENDBRANCH 41 48
ENDBRANCH 39 41
ENDBRANCH 32 37
ENDBRANCH 30 32
ENDBRANCH 1 28
TORSDOF 21
ENDMDL
MODEL 11
USER: ADFR SOLUTION from run 142
USER: SCORE 15.887389 LL:  -4.264 LR: -12.593 RR:   0.000 FEB:  -6.329
USER: RMSD 2.767566
USER: SEED 141
USER: STATUS no improvement in best in 2 clusters for 5 generations
USER: GENES 23
USER: genes 0 Translation |==|  0.39497 0.64582 0.44778
USER: genes 1 Rotation |==|  0.49971 0.47988 0.38943 0.98721
USER: genes 2 Torsion [C]-CA--CB-[CG] |==|  0.21458
USER: genes 3 Torsion [CA]-CB--CG-[CD1] |==|  0.68805
USER: genes 4 Torsion [N]-CA--C-[N] |==|  0.07515
USER: genes 5 Torsion [C]-N--CA-[C] |==|  0.20704
USER: genes 6 Torsion [N]-CA--C-[N] |==|  0.80184
USER: genes 7 Torsion [C]-N--CA-[C] |==|  0.75603
USER: genes 8 Torsion [N]-CA--C-[O] |==|  0.29607
USER: genes 9 Torsion [N]-CA--CB-[CG] |==|  0.03295
USER: genes 10 Torsion [CA]-CB--CG-[CD1] |==|  0.27888
USER: genes 11 Torsion [N]-CA--CB-[CG] |==|  0.47554
USER: genes 12 Torsion [CA]-CB--CG-[ND2] |==|  0.10122
USER: genes 13 Torsion [CB]-CA--N-[C] |==|  0.17670
USER: genes 14 Torsion [N]-C--CA-[N] |==|  0.91667
USER: genes 15 Torsion [C]-CA--CB-[CG] |==|  0.28722
USER: genes 16 Torsion [CA]-CB--CG-[CD1] |==|  0.69088
USER: genes 17 Torsion [C]-CA--N-[C] |==|  0.79501
USER: genes 18 Torsion [N]-C--CA-[N] |==|  0.92830
USER: genes 19 Torsion [C]-CA--N-[C] |==|  0.78062
USER: genes 20 Torsion [N]-C--CA-[N] |==|  0.31447
USER: genes 21 Torsion [C]-CA--CB-[CG] |==|  0.19626
USER: genes 22 Torsion [CA]-CB--CG-[OD1] |==|  0.99559
ROOT
ATOM      1  CA  LEU D   5      -7.839 -33.709  15.484  1.00 45.78 LIG 0.18  C 
ENDROOT
BRANCH 1 2
ATOM      2  CB  LEU D   5      -8.627 -32.844  14.505  1.00 44.83 LIG 0.04  C 
BRANCH 2 3
ATOM      3  CG  LEU D   5      -9.966 -32.278  14.961  1.00 46.71 LIG-0.02  C 
ATOM      4  CD1 LEU D   5     -11.078 -32.936  14.162  1.00 43.35 LIG 0.01  C 
ATOM      5  CD2 LEU D   5     -10.181 -32.495  16.460  1.00 50.41 LIG 0.01  C 
ENDBRANCH 2 3
ENDBRANCH 1 2
BRANCH 1 6
ATOM      6  C   LEU D   5      -8.489 -35.083  15.504  1.00 49.70 LIG 0.24  C 
ATOM      7  N   ASN D   6      -7.658 -36.100  15.744  1.00 52.00 LIG-0.35  N 
ATOM      8 H    ASN D   6      -6.806 -36.006  15.805  1.00 52.00 LIG 0.16  HD
ATOM      9 O    LEU D   5      -9.719 -35.204  15.351  1.00 48.20 LIG-0.27  OA
BRANCH 7 10
ATOM     10  CA  ASN D   6      -8.111 -37.480  15.929  1.00 59.27 LIG 0.18  C 
BRANCH 10 11
ATOM     11  C   ASN D   6      -8.508 -38.058  14.566  1.00 60.71 LIG 0.24  C 
ATOM     12  N   LEU D   7      -9.629 -37.583  14.023  1.00 62.75 LIG-0.35  N 
ATOM     13 H    LEU D   7     -10.061 -36.910  14.338  1.00 62.75 LIG 0.16  HD
ATOM     14 O    ASN D   6      -7.808 -38.916  14.021  1.00 63.11 LIG-0.27  OA
BRANCH 12 15
ATOM     15  CA  LEU D   7     -10.236 -38.174  12.822  1.00 66.71 LIG 0.16  C 
BRANCH 15 16
ATOM     16  C   LEU D   7      -9.689 -37.588  11.516  1.00 66.58 LIG 0.22  C 
ATOM     17 O    LEU D   7      -8.927 -38.235  10.806  1.00 70.30 LIG-0.29  OA
ENDBRANCH 15 16
BRANCH 15 18
ATOM     18  CB  LEU D   7     -11.760 -38.000  12.888  1.00 67.13 LIG 0.04  C 
BRANCH 18 19
ATOM     19  CG  LEU D   7     -12.248 -37.040  13.983  1.00 64.50 LIG-0.02  C 
ATOM     20  CD1 LEU D   7     -12.580 -35.675  13.393  1.00 64.54 LIG 0.01  C 
ATOM     21  CD2 LEU D   7     -13.446 -37.619  14.732  1.00 62.99 LIG 0.01  C 
ENDBRANCH 18 19
ENDBRANCH 15 18
ENDBRANCH 12 15
ENDBRANCH 10 11
BRANCH 10 22
ATOM     22  CB  ASN D   6      -9.289 -37.510  16.914  1.00 63.11 LIG 0.14  C 
BRANCH 22 23
ATOM     23  CG  ASN D   6      -9.955 -38.874  16.998  1.00 71.29 LIG 0.22  C 
ATOM     24  ND2 ASN D   6      -9.146 -39.932  16.907  1.00 72.89 LIG-0.37  N 
ATOM     25 21HD ASN D   6      -9.473 -40.726  16.943  1.00 72.89 LIG 0.16  HD
ATOM     26 22HD ASN D   6      -8.299 -39.819  16.812  1.00 72.89 LIG 0.16  HD
ATOM     27 OD1  ASN D   6     -11.180 -38.982  17.135  1.00 74.05 LIG-0.27  OA
ENDBRANCH 22 23
ENDBRANCH 10 22
ENDBRANCH 7 10
ENDBRANCH 1 6
BRANCH 1 28
ATOM     28  N   LEU D   5      -6.421 -33.795  15.099  1.00 43.46 LIG-0.35  N 
ATOM     29 H    LEU D   5      -6.160 -34.588  14.893  1.00 43.46 LIG 0.16  HD
ATOM     30  C   LEU D   4      -5.625 -32.730  15.077  1.00 41.34 LIG 0.24  C 
ATOM     31 O    LEU D   4      -5.987 -31.613  15.416  1.00 44.89 LIG-0.27  OA
BRANCH 30 32
ATOM     32  CA  LEU D   4      -4.240 -32.921  14.534  1.00 41.83 LIG 0.18  C 
BRANCH 32 33
ATOM     33  CB  LEU D   4      -4.241 -32.552  13.039  1.00 37.92 LIG 0.04  C 
BRANCH 33 34
ATOM     34  CG  LEU D   4      -3.634 -31.196  12.691  1.00 37.44 LIG-0.02  C 
ATOM     35  CD1 LEU D   4      -4.727 -30.256  12.215  1.00 34.88 LIG 0.01  C 
ATOM     36  CD2 LEU D   4      -2.910 -30.599  13.900  1.00 37.22 LIG 0.01  C 
ENDBRANCH 33 34
ENDBRANCH 32 33
BRANCH 32 37
ATOM     37  N   LEU D   4      -3.713 -34.272  14.746  1.00 45.71 LIG-0.35  N 
ATOM     38 H    LEU D   4      -3.686 -34.762  14.039  1.00 45.71 LIG 0.16  HD
ATOM     39  C   ASP D   3      -3.317 -34.673  15.952  1.00 59.12 LIG 0.24  C 
ATOM     40 O    ASP D   3      -3.495 -34.010  16.980  1.00 63.71 LIG-0.27  OA
BRANCH 39 41
ATOM     41  CA  ASP D   3      -2.660 -36.047  16.045  1.00 63.74 LIG 0.19  C 
BRANCH 41 42
ATOM     42  N   ASP D   3      -3.081 -36.945  14.976  1.00 62.73 LIG-0.35  N 
ATOM     43 H    ASP D   3      -2.514 -37.024  14.334  1.00 62.73 LIG 0.16  HD
ATOM     44  C   GLY D   2      -4.247 -37.576  15.019  1.00 63.13 LIG 0.25  C 
ATOM     45 O    GLY D   2      -5.075 -37.402  15.916  1.00 65.69 LIG-0.27  OA
BRANCH 44 46
ATOM     46  CA  GLY D   2      -4.525 -38.537  13.883  1.00 64.97 LIG 0.47  C 
ATOM     47  N   GLY D   2      -4.579 -39.953  14.351  1.00 67.04 LIG 0.61  N 
ENDBRANCH 44 46
ENDBRANCH 41 42
BRANCH 41 48
ATOM     48  CB  ASP D   3      -1.134 -35.898  16.072  1.00 68.02 LIG 0.15  C 
BRANCH 48 49
ATOM     49  CG  ASP D   3      -0.629 -35.310  17.368  1.00 72.98 LIG 0.17  C 
ATOM     50 OD1  ASP D   3      -1.461 -34.984  18.243  1.00 76.93 LIG-0.65  OA
ATOM     51 OD2  ASP D   3       0.605 -35.162  17.508  1.00 81.56 LIG-0.65  OA
ENDBRANCH 48 49
ENDBRANCH 41 48
ENDBRANCH 39 41
ENDBRANCH 32 37
ENDBRANCH 30 32
ENDBRANCH 1 28
TORSDOF 21
ENDMDL
MODEL 12
USER: ADFR SOLUTION from run 92
USER: SCORE 15.250202 LL:  -3.977 LR: -12.351 RR:   0.000 FEB:  -6.086
USER: RMSD 3.918877
USER: SEED 91
USER: STATUS no improvement in best in 4 clusters for 5 generations
USER: GENES 23
USER: genes 0 Translation |==|  0.39879 0.61870 0.43552
USER: genes 1 Rotation |==|  0.55800 0.47965 0.41001 0.98798
USER: genes 2 Torsion [C]-CA--CB-[CG] |==|  0.33040
USER: genes 3 Torsion [CA]-CB--CG-[CD1] |==|  0.69168
USER: genes 4 Torsion [N]-CA--C-[N] |==|  0.56759
USER: genes 5 Torsion [C]-N--CA-[C] |==|  0.75576
USER: genes 6 Torsion [N]-CA--C-[N] |==|  0.46043
USER: genes 7 Torsion [C]-N--CA-[C] |==|  0.65581
USER: genes 8 Torsion [N]-CA--C-[O] |==|  0.93661
USER: genes 9 Torsion [N]-CA--CB-[CG] |==|  0.59868
USER: genes 10 Torsion [CA]-CB--CG-[CD1] |==|  0.40236
USER: genes 11 Torsion [N]-CA--CB-[CG] |==|  0.28240
USER: genes 12 Torsion [CA]-CB--CG-[ND2] |==|  0.78939
USER: genes 13 Torsion [CB]-CA--N-[C] |==|  0.13408
USER: genes 14 Torsion [N]-C--CA-[N] |==|  0.94401
USER: genes 15 Torsion [C]-CA--CB-[CG] |==|  0.31766
USER: genes 16 Torsion [CA]-CB--CG-[CD1] |==|  0.65986
USER: genes 17 Torsion [C]-CA--N-[C] |==|  0.75425
USER: genes 18 Torsion [N]-C--CA-[N] |==|  0.90324
USER: genes 19 Torsion [C]-CA--N-[C] |==|  0.81878
USER: genes 20 Torsion [N]-C--CA-[N] |==|  0.50857
USER: genes 21 Torsion [C]-CA--CB-[CG] |==|  0.21370
USER: genes 22 Torsion [CA]-CB--CG-[OD1] |==|  0.52564
ROOT
ATOM      1  CA  LEU D   5      -7.756 -34.258  15.273  1.00 45.78 LIG 0.18  C 
ENDROOT
BRANCH 1 2
ATOM      2  CB  LEU D   5      -8.581 -33.264  14.461  1.00 44.83 LIG 0.04  C 
BRANCH 2 3
ATOM      3  CG  LEU D   5      -9.399 -32.224  15.215  1.00 46.71 LIG-0.02  C 
ATOM      4  CD1 LEU D   5     -10.877 -32.537  15.041  1.00 43.35 LIG 0.01  C 
ATOM      5  CD2 LEU D   5      -9.029 -32.190  16.698  1.00 50.41 LIG 0.01  C 
ENDBRANCH 2 3
ENDBRANCH 1 2
BRANCH 1 6
ATOM      6  C   LEU D   5      -8.272 -35.651  14.951  1.00 49.70 LIG 0.24  C 
ATOM      7  N   ASN D   6      -9.581 -35.729  14.704  1.00 52.00 LIG-0.35  N 
ATOM      8 H    ASN D   6     -10.117 -35.063  14.795  1.00 52.00 LIG 0.16  HD
ATOM      9 O    LEU D   5      -7.488 -36.616  14.885  1.00 48.20 LIG-0.27  OA
BRANCH 7 10
ATOM     10  CA  ASN D   6     -10.241 -36.955  14.252  1.00 59.27 LIG 0.18  C 
BRANCH 10 11
ATOM     11  C   ASN D   6     -10.182 -37.015  12.722  1.00 60.71 LIG 0.24  C 
ATOM     12  N   LEU D   7     -10.470 -38.190  12.162  1.00 62.75 LIG-0.35  N 
ATOM     13 H    LEU D   7     -10.787 -38.859  12.599  1.00 62.75 LIG 0.16  HD
ATOM     14 O    ASN D   6      -9.882 -36.014  12.066  1.00 63.11 LIG-0.27  OA
BRANCH 12 15
ATOM     15  CA  LEU D   7     -10.269 -38.453  10.730  1.00 66.71 LIG 0.16  C 
BRANCH 15 16
ATOM     16  C   LEU D   7     -11.541 -38.921  10.016  1.00 66.58 LIG 0.22  C 
ATOM     17 O    LEU D   7     -12.460 -39.441  10.641  1.00 70.30 LIG-0.29  OA
ENDBRANCH 15 16
BRANCH 15 18
ATOM     18  CB  LEU D   7      -9.148 -39.488  10.558  1.00 67.13 LIG 0.04  C 
BRANCH 18 19
ATOM     19  CG  LEU D   7      -8.259 -39.269   9.325  1.00 64.50 LIG-0.02  C 
ATOM     20  CD1 LEU D   7      -6.818 -39.663   9.626  1.00 64.54 LIG 0.01  C 
ATOM     21  CD2 LEU D   7      -8.795 -40.030   8.115  1.00 62.99 LIG 0.01  C 
ENDBRANCH 18 19
ENDBRANCH 15 18
ENDBRANCH 12 15
ENDBRANCH 10 11
BRANCH 10 22
ATOM     22  CB  ASN D   6     -11.692 -36.977  14.757  1.00 63.11 LIG 0.14  C 
BRANCH 22 23
ATOM     23  CG  ASN D   6     -12.698 -36.596  13.683  1.00 71.29 LIG 0.22  C 
ATOM     24  ND2 ASN D   6     -12.779 -35.298  13.385  1.00 72.89 LIG-0.37  N 
ATOM     25 21HD ASN D   6     -13.336 -35.029  12.788  1.00 72.89 LIG 0.16  HD
ATOM     26 22HD ASN D   6     -12.275 -34.731  13.790  1.00 72.89 LIG 0.16  HD
ATOM     27 OD1  ASN D   6     -13.401 -37.452  13.131  1.00 74.05 LIG-0.27  OA
ENDBRANCH 22 23
ENDBRANCH 10 22
ENDBRANCH 7 10
ENDBRANCH 1 6
BRANCH 1 28
ATOM     28  N   LEU D   5      -6.321 -34.136  14.967  1.00 43.46 LIG-0.35  N 
ATOM     29 H    LEU D   5      -5.931 -34.886  14.807  1.00 43.46 LIG 0.16  HD
ATOM     30  C   LEU D   4      -5.697 -32.963  14.944  1.00 41.34 LIG 0.24  C 
ATOM     31 O    LEU D   4      -6.244 -31.905  15.218  1.00 44.89 LIG-0.27  OA
BRANCH 30 32
ATOM     32  CA  LEU D   4      -4.269 -32.955  14.483  1.00 41.83 LIG 0.18  C 
BRANCH 32 33
ATOM     33  CB  LEU D   4      -4.218 -32.399  13.049  1.00 37.92 LIG 0.04  C 
BRANCH 33 34
ATOM     34  CG  LEU D   4      -3.492 -31.068  12.879  1.00 37.44 LIG-0.02  C 
ATOM     35  CD1 LEU D   4      -4.434 -30.050  12.261  1.00 34.88 LIG 0.01  C 
ATOM     36  CD2 LEU D   4      -2.970 -30.559  14.225  1.00 37.22 LIG 0.01  C 
ENDBRANCH 33 34
ENDBRANCH 32 33
BRANCH 32 37
ATOM     37  N   LEU D   4      -3.624 -34.268  14.567  1.00 45.71 LIG-0.35  N 
ATOM     38 H    LEU D   4      -3.682 -34.743  13.852  1.00 45.71 LIG 0.16  HD
ATOM     39  C   ASP D   3      -3.006 -34.660  15.679  1.00 59.12 LIG 0.24  C 
ATOM     40 O    ASP D   3      -3.054 -34.029  16.741  1.00 63.71 LIG-0.27  OA
BRANCH 39 41
ATOM     41  CA  ASP D   3      -2.251 -35.984  15.623  1.00 63.74 LIG 0.19  C 
BRANCH 41 42
ATOM     42  N   ASP D   3      -2.904 -36.968  14.769  1.00 62.73 LIG-0.35  N 
ATOM     43 H    ASP D   3      -2.453 -37.189  14.070  1.00 62.73 LIG 0.16  HD
ATOM     44  C   GLY D   2      -4.096 -37.466  15.069  1.00 63.13 LIG 0.25  C 
ATOM     45 O    GLY D   2      -4.757 -37.092  16.041  1.00 65.69 LIG-0.27  OA
BRANCH 44 46
ATOM     46  CA  GLY D   2      -4.624 -38.536  14.137  1.00 64.97 LIG 0.47  C 
ATOM     47  N   GLY D   2      -5.998 -38.978  14.517  1.00 67.04 LIG 0.61  N 
ENDBRANCH 44 46
ENDBRANCH 41 42
BRANCH 41 48
ATOM     48  CB  ASP D   3      -0.802 -35.744  15.181  1.00 68.02 LIG 0.15  C 
BRANCH 48 49
ATOM     49  CG  ASP D   3       0.060 -35.188  16.289  1.00 72.98 LIG 0.17  C 
ATOM     50 OD1  ASP D   3       1.211 -34.787  16.010  1.00 76.93 LIG-0.65  OA
ATOM     51 OD2  ASP D   3      -0.412 -35.162  17.448  1.00 81.56 LIG-0.65  OA
ENDBRANCH 48 49
ENDBRANCH 41 48
ENDBRANCH 39 41
ENDBRANCH 32 37
ENDBRANCH 30 32
ENDBRANCH 1 28
TORSDOF 21
ENDMDL
MODEL 13
USER: ADFR SOLUTION from run 188
USER: SCORE 15.032009 LL:  -4.237 LR: -12.279 RR:   0.000 FEB:  -6.015
USER: RMSD 3.122869
USER: SEED 187
USER: STATUS no improvement in best in 6 clusters for 5 generations
USER: GENES 23
USER: genes 0 Translation |==|  0.40068 0.58908 0.47043
USER: genes 1 Rotation |==|  0.55279 0.53052 0.45374 0.99411
USER: genes 2 Torsion [C]-CA--CB-[CG] |==|  0.38638
USER: genes 3 Torsion [CA]-CB--CG-[CD1] |==|  0.56194
USER: genes 4 Torsion [N]-CA--C-[N] |==|  0.48343
USER: genes 5 Torsion [C]-N--CA-[C] |==|  0.76661
USER: genes 6 Torsion [N]-CA--C-[N] |==|  0.20357
USER: genes 7 Torsion [C]-N--CA-[C] |==|  0.61420
USER: genes 8 Torsion [N]-CA--C-[O] |==|  0.82292
USER: genes 9 Torsion [N]-CA--CB-[CG] |==|  0.86144
USER: genes 10 Torsion [CA]-CB--CG-[CD1] |==|  0.47559
USER: genes 11 Torsion [N]-CA--CB-[CG] |==|  0.52983
USER: genes 12 Torsion [CA]-CB--CG-[ND2] |==|  0.76920
USER: genes 13 Torsion [CB]-CA--N-[C] |==|  0.17780
USER: genes 14 Torsion [N]-C--CA-[N] |==|  0.92008
USER: genes 15 Torsion [C]-CA--CB-[CG] |==|  0.43597
USER: genes 16 Torsion [CA]-CB--CG-[CD1] |==|  0.60217
USER: genes 17 Torsion [C]-CA--N-[C] |==|  0.77795
USER: genes 18 Torsion [N]-C--CA-[N] |==|  0.17924
USER: genes 19 Torsion [C]-CA--N-[C] |==|  0.75167
USER: genes 20 Torsion [N]-C--CA-[N] |==|  0.39136
USER: genes 21 Torsion [C]-CA--CB-[CG] |==|  0.80373
USER: genes 22 Torsion [CA]-CB--CG-[OD1] |==|  0.80000
ROOT
ATOM      1  CA  LEU D   5      -7.715 -34.858  15.875  1.00 45.78 LIG 0.18  C 
ENDROOT
BRANCH 1 2
ATOM      2  CB  LEU D   5      -8.852 -34.056  15.250  1.00 44.83 LIG 0.04  C 
BRANCH 2 3
ATOM      3  CG  LEU D   5      -9.399 -32.862  16.022  1.00 46.71 LIG-0.02  C 
ATOM      4  CD1 LEU D   5     -10.809 -32.564  15.538  1.00 43.35 LIG 0.01  C 
ATOM      5  CD2 LEU D   5      -9.394 -33.122  17.529  1.00 50.41 LIG 0.01  C 
ENDBRANCH 2 3
ENDBRANCH 1 2
BRANCH 1 6
ATOM      6  C   LEU D   5      -7.998 -36.329  15.617  1.00 49.70 LIG 0.24  C 
ATOM      7  N   ASN D   6      -9.103 -36.804  16.196  1.00 52.00 LIG-0.35  N 
ATOM      8 H    ASN D   6      -9.583 -36.344  16.741  1.00 52.00 LIG 0.16  HD
ATOM      9 O    LEU D   5      -7.254 -36.996  14.874  1.00 48.20 LIG-0.27  OA
BRANCH 7 10
ATOM     10  CA  ASN D   6      -9.612 -38.157  15.965  1.00 59.27 LIG 0.18  C 
BRANCH 10 11
ATOM     11  C   ASN D   6     -10.458 -38.157  14.686  1.00 60.71 LIG 0.24  C 
ATOM     12  N   LEU D   7      -9.794 -38.066  13.534  1.00 62.75 LIG-0.35  N 
ATOM     13 H    LEU D   7      -8.938 -38.122  13.474  1.00 62.75 LIG 0.16  HD
ATOM     14 O    ASN D   6     -11.687 -38.239  14.749  1.00 63.11 LIG-0.27  OA
BRANCH 12 15
ATOM     15  CA  LEU D   7     -10.471 -37.861  12.247  1.00 66.71 LIG 0.16  C 
BRANCH 15 16
ATOM     16  C   LEU D   7      -9.879 -38.702  11.110  1.00 66.58 LIG 0.22  C 
ATOM     17 O    LEU D   7      -8.725 -38.529  10.734  1.00 70.30 LIG-0.29  OA
ENDBRANCH 15 16
BRANCH 15 18
ATOM     18  CB  LEU D   7     -10.429 -36.370  11.885  1.00 67.13 LIG 0.04  C 
BRANCH 18 19
ATOM     19  CG  LEU D   7     -10.889 -35.426  13.006  1.00 64.50 LIG-0.02  C 
ATOM     20  CD1 LEU D   7     -10.609 -33.974  12.635  1.00 64.54 LIG 0.01  C 
ATOM     21  CD2 LEU D   7     -12.366 -35.634  13.333  1.00 62.99 LIG 0.01  C 
ENDBRANCH 18 19
ENDBRANCH 15 18
ENDBRANCH 12 15
ENDBRANCH 10 11
BRANCH 10 22
ATOM     22  CB  ASN D   6     -10.433 -38.616  17.179  1.00 63.11 LIG 0.14  C 
BRANCH 22 23
ATOM     23  CG  ASN D   6     -10.779 -40.095  17.135  1.00 71.29 LIG 0.22  C 
ATOM     24  ND2 ASN D   6     -11.847 -40.430  16.409  1.00 72.89 LIG-0.37  N 
ATOM     25 21HD ASN D   6     -12.089 -41.254  16.355  1.00 72.89 LIG 0.16  HD
ATOM     26 22HD ASN D   6     -12.293 -39.823  15.995  1.00 72.89 LIG 0.16  HD
ATOM     27 OD1  ASN D   6     -10.103 -40.930  17.750  1.00 74.05 LIG-0.27  OA
ENDBRANCH 22 23
ENDBRANCH 10 22
ENDBRANCH 7 10
ENDBRANCH 1 6
BRANCH 1 28
ATOM     28  N   LEU D   5      -6.411 -34.460  15.318  1.00 43.46 LIG-0.35  N 
ATOM     29 H    LEU D   5      -6.011 -35.083  14.881  1.00 43.46 LIG 0.16  HD
ATOM     30  C   LEU D   4      -5.911 -33.239  15.484  1.00 41.34 LIG 0.24  C 
ATOM     31 O    LEU D   4      -6.461 -32.371  16.144  1.00 44.89 LIG-0.27  OA
BRANCH 30 32
ATOM     32  CA  LEU D   4      -4.643 -32.914  14.752  1.00 41.83 LIG 0.18  C 
BRANCH 32 33
ATOM     33  CB  LEU D   4      -5.003 -32.208  13.432  1.00 37.92 LIG 0.04  C 
BRANCH 33 34
ATOM     34  CG  LEU D   4      -3.909 -31.334  12.828  1.00 37.44 LIG-0.02  C 
ATOM     35  CD1 LEU D   4      -4.532 -30.102  12.195  1.00 34.88 LIG 0.01  C 
ATOM     36  CD2 LEU D   4      -2.890 -30.925  13.894  1.00 37.22 LIG 0.01  C 
ENDBRANCH 33 34
ENDBRANCH 32 33
BRANCH 32 37
ATOM     37  N   LEU D   4      -3.792 -34.083  14.513  1.00 45.71 LIG-0.35  N 
ATOM     38 H    LEU D   4      -3.848 -34.412  13.720  1.00 45.71 LIG 0.16  HD
ATOM     39  C   ASP D   3      -3.008 -34.569  15.473  1.00 59.12 LIG 0.24  C 
ATOM     40 O    ASP D   3      -3.045 -34.176  16.644  1.00 63.71 LIG-0.27  OA
BRANCH 39 41
ATOM     41  CA  ASP D   3      -2.063 -35.703  15.087  1.00 63.74 LIG 0.19  C 
BRANCH 41 42
ATOM     42  N   ASP D   3      -1.058 -35.292  14.114  1.00 62.73 LIG-0.35  N 
ATOM     43 H    ASP D   3      -0.327 -34.996  14.459  1.00 62.73 LIG 0.16  HD
ATOM     44  C   GLY D   2      -1.280 -35.379  12.809  1.00 63.13 LIG 0.25  C 
ATOM     45 O    GLY D   2      -2.356 -35.746  12.331  1.00 65.69 LIG-0.27  OA
BRANCH 44 46
ATOM     46  CA  GLY D   2      -0.125 -34.992  11.910  1.00 64.97 LIG 0.47  C 
ATOM     47  N   GLY D   2      -0.017 -35.888  10.722  1.00 67.04 LIG 0.61  N 
ENDBRANCH 44 46
ENDBRANCH 41 42
BRANCH 41 48
ATOM     48  CB  ASP D   3      -1.406 -36.289  16.344  1.00 68.02 LIG 0.15  C 
BRANCH 48 49
ATOM     49  CG  ASP D   3      -0.402 -35.349  16.968  1.00 72.98 LIG 0.17  C 
ATOM     50 OD1  ASP D   3       0.688 -35.162  16.385  1.00 76.93 LIG-0.65  OA
ATOM     51 OD2  ASP D   3      -0.701 -34.801  18.052  1.00 81.56 LIG-0.65  OA
ENDBRANCH 48 49
ENDBRANCH 41 48
ENDBRANCH 39 41
ENDBRANCH 32 37
ENDBRANCH 30 32
ENDBRANCH 1 28
TORSDOF 21
ENDMDL
MODEL 14
USER: ADFR SOLUTION from run 91
USER: SCORE 14.427230 LL:  -4.033 LR: -12.243 RR:   0.000 FEB:  -5.978
USER: RMSD 3.072633
USER: SEED 90
USER: STATUS 1 or 2 clusters left
USER: GENES 23
USER: genes 0 Translation |==|  0.35834 0.57595 0.41635
USER: genes 1 Rotation |==|  0.47348 0.41179 0.50776 0.99138
USER: genes 2 Torsion [C]-CA--CB-[CG] |==|  0.10523
USER: genes 3 Torsion [CA]-CB--CG-[CD1] |==|  0.36957
USER: genes 4 Torsion [N]-CA--C-[N] |==|  0.39621
USER: genes 5 Torsion [C]-N--CA-[C] |==|  0.55337
USER: genes 6 Torsion [N]-CA--C-[N] |==|  0.33733
USER: genes 7 Torsion [C]-N--CA-[C] |==|  0.63933
USER: genes 8 Torsion [N]-CA--C-[O] |==|  0.22778
USER: genes 9 Torsion [N]-CA--CB-[CG] |==|  0.74997
USER: genes 10 Torsion [CA]-CB--CG-[CD1] |==|  0.38438
USER: genes 11 Torsion [N]-CA--CB-[CG] |==|  0.39581
USER: genes 12 Torsion [CA]-CB--CG-[ND2] |==|  0.25031
USER: genes 13 Torsion [CB]-CA--N-[C] |==|  0.23661
USER: genes 14 Torsion [N]-C--CA-[N] |==|  0.93459
USER: genes 15 Torsion [C]-CA--CB-[CG] |==|  0.51119
USER: genes 16 Torsion [CA]-CB--CG-[CD1] |==|  0.51123
USER: genes 17 Torsion [C]-CA--N-[C] |==|  0.78339
USER: genes 18 Torsion [N]-C--CA-[N] |==|  0.50473
USER: genes 19 Torsion [C]-CA--N-[C] |==|  0.68212
USER: genes 20 Torsion [N]-C--CA-[N] |==|  0.21331
USER: genes 21 Torsion [C]-CA--CB-[CG] |==|  0.69089
USER: genes 22 Torsion [CA]-CB--CG-[OD1] |==|  0.70915
ROOT
ATOM      1  CA  LEU D   5      -8.636 -35.124  14.942  1.00 45.78 LIG 0.18  C 
ENDROOT
BRANCH 1 2
ATOM      2  CB  LEU D   5      -9.414 -34.847  13.659  1.00 44.83 LIG 0.04  C 
BRANCH 2 3
ATOM      3  CG  LEU D   5     -10.640 -35.701  13.363  1.00 46.71 LIG-0.02  C 
ATOM      4  CD1 LEU D   5     -11.785 -34.792  12.947  1.00 43.35 LIG 0.01  C 
ATOM      5  CD2 LEU D   5     -10.352 -36.733  12.272  1.00 50.41 LIG 0.01  C 
ENDBRANCH 2 3
ENDBRANCH 1 2
BRANCH 1 6
ATOM      6  C   LEU D   5      -8.625 -36.629  15.154  1.00 49.70 LIG 0.24  C 
ATOM      7  N   ASN D   6      -9.579 -37.096  15.962  1.00 52.00 LIG-0.35  N 
ATOM      8 H    ASN D   6     -10.116 -36.586  16.398  1.00 52.00 LIG 0.16  HD
ATOM      9 O    LEU D   5      -7.796 -37.345  14.561  1.00 48.20 LIG-0.27  OA
BRANCH 7 10
ATOM     10  CA  ASN D   6      -9.811 -38.523  16.188  1.00 59.27 LIG 0.18  C 
BRANCH 10 11
ATOM     11  C   ASN D   6     -11.225 -38.713  16.751  1.00 60.71 LIG 0.24  C 
ATOM     12  N   LEU D   7     -12.045 -39.493  16.046  1.00 62.75 LIG-0.35  N 
ATOM     13 H    LEU D   7     -11.789 -39.968  15.377  1.00 62.75 LIG 0.16  HD
ATOM     14 O    ASN D   6     -11.560 -38.162  17.802  1.00 63.11 LIG-0.27  OA
BRANCH 12 15
ATOM     15  CA  LEU D   7     -13.476 -39.613  16.352  1.00 66.71 LIG 0.16  C 
BRANCH 15 16
ATOM     16  C   LEU D   7     -13.953 -41.065  16.460  1.00 66.58 LIG 0.22  C 
ATOM     17 O    LEU D   7     -13.796 -41.705  17.494  1.00 70.30 LIG-0.29  OA
ENDBRANCH 15 16
BRANCH 15 18
ATOM     18  CB  LEU D   7     -14.287 -38.863  15.285  1.00 67.13 LIG 0.04  C 
BRANCH 18 19
ATOM     19  CG  LEU D   7     -14.559 -37.386  15.609  1.00 64.50 LIG-0.02  C 
ATOM     20  CD1 LEU D   7     -14.383 -36.523  14.365  1.00 64.54 LIG 0.01  C 
ATOM     21  CD2 LEU D   7     -15.947 -37.199  16.214  1.00 62.99 LIG 0.01  C 
ENDBRANCH 18 19
ENDBRANCH 15 18
ENDBRANCH 12 15
ENDBRANCH 10 11
BRANCH 10 22
ATOM     22  CB  ASN D   6      -8.748 -39.074  17.151  1.00 63.11 LIG 0.14  C 
BRANCH 22 23
ATOM     23  CG  ASN D   6      -9.303 -40.106  18.118  1.00 71.29 LIG 0.22  C 
ATOM     24  ND2 ASN D   6      -9.260 -41.377  17.713  1.00 72.89 LIG-0.37  N 
ATOM     25 21HD ASN D   6      -9.567 -42.000  18.220  1.00 72.89 LIG 0.16  HD
ATOM     26 22HD ASN D   6      -8.926 -41.573  16.945  1.00 72.89 LIG 0.16  HD
ATOM     27 OD1  ASN D   6      -9.774 -39.771  19.213  1.00 74.05 LIG-0.27  OA
ENDBRANCH 22 23
ENDBRANCH 10 22
ENDBRANCH 7 10
ENDBRANCH 1 6
BRANCH 1 28
ATOM     28  N   LEU D   5      -7.268 -34.585  14.864  1.00 43.46 LIG-0.35  N 
ATOM     29 H    LEU D   5      -6.679 -35.158  14.608  1.00 43.46 LIG 0.16  HD
ATOM     30  C   LEU D   4      -6.984 -33.322  15.166  1.00 41.34 LIG 0.24  C 
ATOM     31 O    LEU D   4      -7.815 -32.525  15.574  1.00 44.89 LIG-0.27  OA
BRANCH 30 32
ATOM     32  CA  LEU D   4      -5.580 -32.857  14.913  1.00 41.83 LIG 0.18  C 
BRANCH 32 33
ATOM     33  CB  LEU D   4      -5.555 -32.058  13.597  1.00 37.92 LIG 0.04  C 
BRANCH 33 34
ATOM     34  CG  LEU D   4      -4.180 -31.587  13.133  1.00 37.44 LIG-0.02  C 
ATOM     35  CD1 LEU D   4      -4.328 -30.735  11.885  1.00 34.88 LIG 0.01  C 
ATOM     36  CD2 LEU D   4      -3.477 -30.794  14.237  1.00 37.22 LIG 0.01  C 
ENDBRANCH 33 34
ENDBRANCH 32 33
BRANCH 32 37
ATOM     37  N   LEU D   4      -4.601 -33.947  14.890  1.00 45.71 LIG-0.35  N 
ATOM     38 H    LEU D   4      -4.350 -34.188  14.104  1.00 45.71 LIG 0.16  HD
ATOM     39  C   ASP D   3      -4.157 -34.495  16.020  1.00 59.12 LIG 0.24  C 
ATOM     40 O    ASP D   3      -4.632 -34.236  17.132  1.00 63.71 LIG-0.27  OA
BRANCH 39 41
ATOM     41  CA  ASP D   3      -3.042 -35.528  15.898  1.00 63.74 LIG 0.19  C 
BRANCH 41 42
ATOM     42  N   ASP D   3      -2.656 -36.095  17.184  1.00 62.73 LIG-0.35  N 
ATOM     43 H    ASP D   3      -3.269 -36.564  17.566  1.00 62.73 LIG 0.16  HD
ATOM     44  C   GLY D   2      -1.452 -35.889  17.700  1.00 63.13 LIG 0.25  C 
ATOM     45 O    GLY D   2      -0.607 -35.162  17.171  1.00 65.69 LIG-0.27  OA
BRANCH 44 46
ATOM     46  CA  GLY D   2      -1.156 -36.598  19.005  1.00 64.97 LIG 0.47  C 
ATOM     47  N   GLY D   2      -0.862 -38.046  18.798  1.00 67.04 LIG 0.61  N 
ENDBRANCH 44 46
ENDBRANCH 41 42
BRANCH 41 48
ATOM     48  CB  ASP D   3      -3.452 -36.629  14.911  1.00 68.02 LIG 0.15  C 
BRANCH 48 49
ATOM     49  CG  ASP D   3      -3.688 -37.958  15.587  1.00 72.98 LIG 0.17  C 
ATOM     50 OD1  ASP D   3      -2.823 -38.854  15.468  1.00 76.93 LIG-0.65  OA
ATOM     51 OD2  ASP D   3      -4.748 -38.112  16.234  1.00 81.56 LIG-0.65  OA
ENDBRANCH 48 49
ENDBRANCH 41 48
ENDBRANCH 39 41
ENDBRANCH 32 37
ENDBRANCH 30 32
ENDBRANCH 1 28
TORSDOF 21
ENDMDL
