MODEL 1
USER: ADFR SOLUTION from run 129
USER: SCORE 22.546892 LL:  -6.026 LR: -20.509 RR:   0.000 FEB: -11.858
USER: RMSD 4.038606
USER: SEED 128
USER: STATUS no improvement in best in 5 clusters for 5 generations
USER: GENES 31
USER: genes 0 Translation |==|  0.56236 0.64766 0.59273
USER: genes 1 Rotation |==|  0.39439 0.55675 0.49826 0.98541
USER: genes 2 Torsion [CB]-CA--N-[C] |==|  0.24441
USER: genes 3 Torsion [N]-C--CA-[N] |==|  0.88651
USER: genes 4 Torsion [C]-CA--N-[C] |==|  0.83297
USER: genes 5 Torsion [N]-C--CA-[N] |==|  0.80374
USER: genes 6 Torsion [C]-CA--N-[C] |==|  0.69855
USER: genes 7 Torsion [N]-C--CA-[N] |==|  0.81435
USER: genes 8 Torsion [C]-CA--N-[H3] |==|  0.10727
USER: genes 9 Torsion [C]-CA--CB-[CG] |==|  0.22809
USER: genes 10 Torsion [CA]-CB--CG-[CD] |==|  0.67077
USER: genes 11 Torsion [CB]-CG--CD-[OE2] |==|  0.21263
USER: genes 12 Torsion [C]-CA--CB-[CG2] |==|  0.34123
USER: genes 13 Torsion [CA]-CB--OG1-[HG1] |==|  0.21471
USER: genes 14 Torsion [C]-CA--CB-[CG] |==|  0.29077
USER: genes 15 Torsion [CA]-CB--CG-[CD2] |==|  0.33058
USER: genes 16 Torsion [N]-CA--C-[N] |==|  0.38519
USER: genes 17 Torsion [C]-N--CA-[CB] |==|  0.44483
USER: genes 18 Torsion [N]-CA--CB-[CG] |==|  0.44787
USER: genes 19 Torsion [CA]-CB--CG-[OD1] |==|  0.15849
USER: genes 20 Torsion [N]-CA--C-[N] |==|  0.41315
USER: genes 21 Torsion [C]-N--CA-[CB] |==|  0.35000
USER: genes 22 Torsion [N]-CA--CB-[CG] |==|  0.86950
USER: genes 23 Torsion [CA]-CB--CG-[CD2] |==|  0.62295
USER: genes 24 Torsion [N]-CA--C-[N] |==|  0.90934
USER: genes 25 Torsion [C]-N--CA-[CB] |==|  0.42890
USER: genes 26 Torsion [N]-CA--CB-[CG] |==|  0.63586
USER: genes 27 Torsion [CA]-CB--CG-[OD2] |==|  0.42201
USER: genes 28 Torsion [N]-CA--C-[O] |==|  0.36865
USER: genes 29 Torsion [N]-CA--CB-[CG] |==|  0.37170
USER: genes 30 Torsion [CA]-CB--CG-[CD2] |==|  0.73959
ROOT
ATOM      1  CA  LEU E   4      21.033 -17.169  -0.636  1.00 22.51 LIG 0.18  C 
ENDROOT
BRANCH 1 2
ATOM      2  N   LEU E   4      19.708 -16.990  -1.172  1.00 20.57 LIG-0.35  N 
ATOM      3  C   LEU E   3      19.330 -15.936  -1.890  1.00 20.37 LIG 0.24  C 
ATOM      4 O    LEU E   3      20.064 -14.968  -2.137  1.00 19.26 LIG-0.27  OA
ATOM      5 H    LEU E   4      19.175 -17.638  -0.982  1.00 20.57 LIG 0.16  HD
BRANCH 3 6
ATOM      6  CA  LEU E   3      17.875 -15.913  -2.367  1.00 20.55 LIG 0.18  C 
BRANCH 6 7
ATOM      7  N   LEU E   3      17.336 -17.166  -2.838  1.00 20.86 LIG-0.35  N 
ATOM      8  C   THR E   2      17.891 -17.789  -3.874  1.00 24.34 LIG 0.24  C 
ATOM      9 O    THR E   2      18.976 -17.441  -4.360  1.00 23.87 LIG-0.27  OA
ATOM     10 H    LEU E   3      16.653 -17.455  -2.402  1.00 20.86 LIG 0.16  HD
BRANCH 8 11
ATOM     11  CA  THR E   2      17.135 -18.966  -4.433  1.00 25.18 LIG 0.20  C 
BRANCH 11 12
ATOM     12  N   THR E   2      17.211 -20.065  -3.464  1.00 26.55 LIG-0.34  N 
ATOM     13  C   GLU E   1      17.943 -21.152  -3.676  1.00 27.17 LIG 0.25  C 
ATOM     14 O    GLU E   1      18.513 -21.390  -4.748  1.00 25.74 LIG-0.27  OA
ATOM     15 H    THR E   2      16.743 -19.938  -2.754  1.00 26.55 LIG 0.16  HD
BRANCH 13 16
ATOM     16  CA  GLU E   1      18.011 -22.165  -2.533  1.00 31.71 LIG 0.28  C 
BRANCH 16 17
ATOM     17  N   GLU E   1      18.744 -21.526  -1.419  1.00 33.09 LIG-0.07  N 
ATOM     18 H3   GLU E   1      18.511 -20.669  -1.363  1.00 33.09 LIG 0.28  HD
ATOM     19 H2   GLU E   1      19.619 -21.585  -1.566  1.00 33.09 LIG 0.28  HD
ATOM     20 H1   GLU E   1      18.543 -21.937  -0.656  1.00 33.09 LIG 0.28  HD
ENDBRANCH 16 17
BRANCH 16 21
ATOM     21  CB  GLU E   1      16.598 -22.570  -2.092  1.00 32.36 LIG 0.05  C 
BRANCH 21 22
ATOM     22  CG  GLU E   1      15.983 -23.647  -2.972  1.00 32.63 LIG 0.12  C 
BRANCH 22 23
ATOM     23  CD  GLU E   1      14.708 -23.218  -3.687  1.00 33.25 LIG 0.17  C 
ATOM     24 OE2  GLU E   1      14.814 -22.472  -4.688  1.00 34.04 LIG-0.65  OA
ATOM     25 OE1  GLU E   1      13.600 -23.606  -3.264  1.00 33.29 LIG-0.65  OA
ENDBRANCH 22 23
ENDBRANCH 21 22
ENDBRANCH 16 21
ENDBRANCH 13 16
ENDBRANCH 11 12
BRANCH 11 26
ATOM     26  CB  THR E   2      15.676 -18.576  -4.727  1.00 27.29 LIG 0.15  C 
ATOM     27  CG2 THR E   2      15.349 -18.825  -6.155  1.00 26.73 LIG 0.04  C 
BRANCH 26 28
ATOM     28 OG1  THR E   2      14.821 -19.386  -3.908  1.00 28.79 LIG-0.39  OA
ATOM     29 HG1  THR E   2      14.824 -19.091  -3.122  1.00 28.79 LIG 0.21  HD
ENDBRANCH 26 28
ENDBRANCH 11 26
ENDBRANCH 8 11
ENDBRANCH 6 7
BRANCH 6 30
ATOM     30  CB  LEU E   3      16.968 -15.367  -1.245  1.00 20.98 LIG 0.04  C 
BRANCH 30 31
ATOM     31  CG  LEU E   3      16.461 -13.945  -1.410  1.00 22.16 LIG-0.02  C 
ATOM     32  CD2 LEU E   3      14.960 -13.834  -1.479  1.00 24.43 LIG 0.01  C 
ATOM     33  CD1 LEU E   3      17.115 -13.346  -2.641  1.00 21.08 LIG 0.01  C 
ENDBRANCH 30 31
ENDBRANCH 6 30
ENDBRANCH 3 6
ENDBRANCH 1 2
BRANCH 1 34
ATOM     34  C   LEU E   4      21.280 -18.672  -0.520  1.00 22.59 LIG 0.24  C 
ATOM     35 O    LEU E   4      20.386 -19.413  -0.132  1.00 22.01 LIG-0.27  OA
ATOM     36  N   ASP E   5      22.484 -19.102  -0.876  1.00 23.28 LIG-0.35  N 
ATOM     37 H    ASP E   5      23.099 -18.591  -1.193  1.00 23.28 LIG 0.16  HD
BRANCH 36 38
ATOM     38  CA  ASP E   5      22.880 -20.526  -0.756  1.00 26.12 LIG 0.19  C 
BRANCH 38 39
ATOM     39  CB  ASP E   5      24.072 -20.818  -1.658  1.00 27.88 LIG 0.15  C 
BRANCH 39 40
ATOM     40  CG  ASP E   5      24.827 -22.106  -1.269  1.00 30.83 LIG 0.17  C 
ATOM     41 OD1  ASP E   5      24.239 -23.202  -1.217  1.00 34.24 LIG-0.65  OA
ATOM     42 OD2  ASP E   5      26.034 -21.984  -1.023  1.00 35.63 LIG-0.65  OA
ENDBRANCH 39 40
ENDBRANCH 38 39
BRANCH 38 43
ATOM     43  C   ASP E   5      23.230 -20.814   0.691  1.00 25.92 LIG 0.24  C 
ATOM     44 O    ASP E   5      23.679 -19.914   1.415  1.00 27.30 LIG-0.27  OA
ATOM     45  N   LEU E   6      22.985 -22.043   1.118  1.00 28.24 LIG-0.35  N 
ATOM     46 H    LEU E   6      22.653 -22.663   0.622  1.00 28.24 LIG 0.16  HD
BRANCH 45 47
ATOM     47  CA  LEU E   6      23.264 -22.461   2.503  1.00 31.78 LIG 0.18  C 
BRANCH 47 48
ATOM     48  CB  LEU E   6      22.010 -23.069   3.155  1.00 30.53 LIG 0.04  C 
BRANCH 48 49
ATOM     49  CG  LEU E   6      20.735 -22.245   2.950  1.00 30.12 LIG-0.02  C 
ATOM     50  CD1 LEU E   6      19.865 -22.806   1.839  1.00 29.14 LIG 0.01  C 
ATOM     51  CD2 LEU E   6      19.938 -22.134   4.250  1.00 31.89 LIG 0.01  C 
ENDBRANCH 48 49
ENDBRANCH 47 48
BRANCH 47 52
ATOM     52  C   LEU E   6      24.430 -23.443   2.594  1.00 36.88 LIG 0.24  C 
ATOM     53 O    LEU E   6      25.166 -23.415   3.592  1.00 37.54 LIG-0.27  OA
ATOM     54  N   ASP E   7      24.592 -24.282   1.566  1.00 40.21 LIG-0.35  N 
ATOM     55 H    ASP E   7      24.028 -24.347   0.920  1.00 40.21 LIG 0.16  HD
BRANCH 54 56
ATOM     56  CA  ASP E   7      25.745 -25.175   1.431  1.00 48.33 LIG 0.17  C 
BRANCH 56 57
ATOM     57  CB  ASP E   7      25.366 -26.379   0.585  1.00 51.73 LIG 0.15  C 
BRANCH 57 58
ATOM     58  CG  ASP E   7      25.775 -27.692   1.227  1.00 58.06 LIG 0.17  C 
ATOM     59 OD2  ASP E   7      25.102 -28.709   0.959  1.00 65.10 LIG-0.65  OA
ATOM     60 OD1  ASP E   7      26.771 -27.719   1.990  1.00 65.94 LIG-0.65  OA
ENDBRANCH 57 58
ENDBRANCH 56 57
BRANCH 56 61
ATOM     61  C   ASP E   7      26.935 -24.465   0.802  1.00 49.55 LIG 0.22  C 
ATOM     62 O    ASP E   7      28.054 -24.572   1.305  1.00 55.15 LIG-0.29  OA
ENDBRANCH 56 61
ENDBRANCH 54 56
ENDBRANCH 47 52
ENDBRANCH 45 47
ENDBRANCH 38 43
ENDBRANCH 36 38
ENDBRANCH 1 34
BRANCH 1 63
ATOM     63  CB  LEU E   4      21.132 -16.511   0.744  1.00 22.63 LIG 0.04  C 
BRANCH 63 64
ATOM     64  CG  LEU E   4      21.777 -17.256   1.908  1.00 23.40 LIG-0.02  C 
ATOM     65  CD2 LEU E   4      20.697 -17.984   2.708  1.00 23.91 LIG 0.01  C 
ATOM     66  CD1 LEU E   4      22.580 -16.329   2.799  1.00 22.51 LIG 0.01  C 
ENDBRANCH 63 64
ENDBRANCH 1 63
TORSDOF 29
ENDMDL
MODEL 2
USER: ADFR SOLUTION from run 44
USER: SCORE 21.977695 LL:  -5.900 LR: -20.203 RR:   0.000 FEB: -11.552
USER: RMSD 2.793817
USER: SEED 43
USER: STATUS 1 or 2 clusters left
USER: GENES 31
USER: genes 0 Translation |==|  0.56651 0.65580 0.59059
USER: genes 1 Rotation |==|  0.41408 0.55558 0.48571 0.98921
USER: genes 2 Torsion [CB]-CA--N-[C] |==|  0.24654
USER: genes 3 Torsion [N]-C--CA-[N] |==|  0.92909
USER: genes 4 Torsion [C]-CA--N-[C] |==|  0.74444
USER: genes 5 Torsion [N]-C--CA-[N] |==|  0.42894
USER: genes 6 Torsion [C]-CA--N-[C] |==|  0.81835
USER: genes 7 Torsion [N]-C--CA-[N] |==|  0.82328
USER: genes 8 Torsion [C]-CA--N-[H3] |==|  0.06496
USER: genes 9 Torsion [C]-CA--CB-[CG] |==|  0.14176
USER: genes 10 Torsion [CA]-CB--CG-[CD] |==|  0.72845
USER: genes 11 Torsion [CB]-CG--CD-[OE2] |==|  0.27034
USER: genes 12 Torsion [C]-CA--CB-[CG2] |==|  0.98024
USER: genes 13 Torsion [CA]-CB--OG1-[HG1] |==|  0.97510
USER: genes 14 Torsion [C]-CA--CB-[CG] |==|  0.36592
USER: genes 15 Torsion [CA]-CB--CG-[CD2] |==|  0.33109
USER: genes 16 Torsion [N]-CA--C-[N] |==|  0.44247
USER: genes 17 Torsion [C]-N--CA-[CB] |==|  0.36880
USER: genes 18 Torsion [N]-CA--CB-[CG] |==|  0.42490
USER: genes 19 Torsion [CA]-CB--CG-[OD1] |==|  0.16430
USER: genes 20 Torsion [N]-CA--C-[N] |==|  0.39395
USER: genes 21 Torsion [C]-N--CA-[CB] |==|  0.37102
USER: genes 22 Torsion [N]-CA--CB-[CG] |==|  0.84786
USER: genes 23 Torsion [CA]-CB--CG-[CD2] |==|  0.84077
USER: genes 24 Torsion [N]-CA--C-[N] |==|  0.90390
USER: genes 25 Torsion [C]-N--CA-[CB] |==|  0.41820
USER: genes 26 Torsion [N]-CA--CB-[CG] |==|  0.59395
USER: genes 27 Torsion [CA]-CB--CG-[OD2] |==|  0.46695
USER: genes 28 Torsion [N]-CA--C-[O] |==|  0.28396
USER: genes 29 Torsion [N]-CA--CB-[CG] |==|  0.37292
USER: genes 30 Torsion [CA]-CB--CG-[CD2] |==|  0.72659
ROOT
ATOM      1  CA  LEU E   4      21.129 -16.980  -0.680  1.00 22.51 LIG 0.18  C 
ENDROOT
BRANCH 1 2
ATOM      2  N   LEU E   4      19.827 -16.686  -1.221  1.00 20.57 LIG-0.35  N 
ATOM      3  C   LEU E   3      19.526 -15.568  -1.877  1.00 20.37 LIG 0.24  C 
ATOM      4 O    LEU E   3      20.322 -14.635  -2.053  1.00 19.26 LIG-0.27  OA
ATOM      5 H    LEU E   4      19.252 -17.310  -1.079  1.00 20.57 LIG 0.16  HD
BRANCH 3 6
ATOM      6  CA  LEU E   3      18.083 -15.426  -2.370  1.00 20.55 LIG 0.18  C 
BRANCH 6 7
ATOM      7  N   LEU E   3      17.362 -16.655  -2.602  1.00 20.86 LIG-0.35  N 
ATOM      8  C   THR E   2      17.365 -17.217  -3.807  1.00 24.34 LIG 0.24  C 
ATOM      9 O    THR E   2      18.110 -16.838  -4.721  1.00 23.87 LIG-0.27  OA
ATOM     10 H    LEU E   3      16.951 -16.970  -1.916  1.00 20.86 LIG 0.16  HD
BRANCH 8 11
ATOM     11  CA  THR E   2      16.411 -18.366  -4.014  1.00 25.18 LIG 0.20  C 
BRANCH 11 12
ATOM     12  N   THR E   2      16.094 -18.448  -5.444  1.00 26.55 LIG-0.34  N 
ATOM     13  C   GLU E   1      15.428 -17.492  -6.081  1.00 27.17 LIG 0.25  C 
ATOM     14 O    GLU E   1      14.913 -16.524  -5.509  1.00 25.74 LIG-0.27  OA
ATOM     15 H    THR E   2      16.376 -19.165  -5.825  1.00 26.55 LIG 0.16  HD
BRANCH 13 16
ATOM     16  CA  GLU E   1      15.263 -17.663  -7.591  1.00 31.71 LIG 0.28  C 
BRANCH 16 17
ATOM     17  N   GLU E   1      16.614 -17.627  -8.192  1.00 33.09 LIG-0.07  N 
ATOM     18 H3   GLU E   1      17.218 -17.853  -7.579  1.00 33.09 LIG 0.28  HD
ATOM     19 H2   GLU E   1      16.785 -16.805  -8.487  1.00 33.09 LIG 0.28  HD
ATOM     20 H1   GLU E   1      16.652 -18.200  -8.871  1.00 33.09 LIG 0.28  HD
ENDBRANCH 16 17
BRANCH 16 21
ATOM     21  CB  GLU E   1      14.565 -18.994  -7.905  1.00 32.36 LIG 0.05  C 
BRANCH 21 22
ATOM     22  CG  GLU E   1      13.280 -19.195  -7.117  1.00 32.63 LIG 0.12  C 
BRANCH 22 23
ATOM     23  CD  GLU E   1      13.440 -20.055  -5.870  1.00 33.25 LIG 0.17  C 
ATOM     24 OE2  GLU E   1      13.586 -19.477  -4.768  1.00 34.04 LIG-0.65  OA
ATOM     25 OE1  GLU E   1      13.429 -21.299  -5.970  1.00 33.29 LIG-0.65  OA
ENDBRANCH 22 23
ENDBRANCH 21 22
ENDBRANCH 16 21
ENDBRANCH 13 16
ENDBRANCH 11 12
BRANCH 11 26
ATOM     26  CB  THR E   2      17.032 -19.677  -3.500  1.00 27.29 LIG 0.15  C 
ATOM     27  CG2 THR E   2      18.449 -19.462  -3.109  1.00 26.73 LIG 0.04  C 
BRANCH 26 28
ATOM     28 OG1  THR E   2      16.292 -20.103  -2.348  1.00 28.79 LIG-0.39  OA
ATOM     29 HG1  THR E   2      15.759 -19.496  -2.117  1.00 28.79 LIG 0.21  HD
ENDBRANCH 26 28
ENDBRANCH 11 26
ENDBRANCH 8 11
ENDBRANCH 6 7
BRANCH 6 30
ATOM     30  CB  LEU E   3      17.280 -14.552  -1.386  1.00 20.98 LIG 0.04  C 
BRANCH 30 31
ATOM     31  CG  LEU E   3      16.451 -13.433  -1.989  1.00 22.16 LIG-0.02  C 
ATOM     32  CD2 LEU E   3      14.973 -13.551  -1.718  1.00 24.43 LIG 0.01  C 
ATOM     33  CD1 LEU E   3      16.735 -13.379  -3.479  1.00 21.08 LIG 0.01  C 
ENDBRANCH 30 31
ENDBRANCH 6 30
ENDBRANCH 3 6
ENDBRANCH 1 2
BRANCH 1 34
ATOM     34  C   LEU E   4      21.290 -18.499  -0.672  1.00 22.59 LIG 0.24  C 
ATOM     35 O    LEU E   4      20.303 -19.220  -0.730  1.00 22.01 LIG-0.27  OA
ATOM     36  N   ASP E   5      22.532 -18.961  -0.620  1.00 23.28 LIG-0.35  N 
ATOM     37 H    ASP E   5      23.229 -18.458  -0.626  1.00 23.28 LIG 0.16  HD
BRANCH 36 38
ATOM     38  CA  ASP E   5      22.831 -20.412  -0.545  1.00 26.12 LIG 0.19  C 
BRANCH 38 39
ATOM     39  CB  ASP E   5      23.913 -20.779  -1.552  1.00 27.88 LIG 0.15  C 
BRANCH 39 40
ATOM     40  CG  ASP E   5      24.738 -22.013  -1.135  1.00 30.83 LIG 0.17  C 
ATOM     41 OD1  ASP E   5      24.191 -23.115  -0.943  1.00 34.24 LIG-0.65  OA
ATOM     42 OD2  ASP E   5      25.959 -21.844  -1.011  1.00 35.63 LIG-0.65  OA
ENDBRANCH 39 40
ENDBRANCH 38 39
BRANCH 38 43
ATOM     43  C   ASP E   5      23.287 -20.743   0.863  1.00 25.92 LIG 0.24  C 
ATOM     44 O    ASP E   5      23.974 -19.935   1.503  1.00 27.30 LIG-0.27  OA
ATOM     45  N   LEU E   6      22.869 -21.900   1.355  1.00 28.24 LIG-0.35  N 
ATOM     46 H    LEU E   6      22.374 -22.452   0.919  1.00 28.24 LIG 0.16  HD
BRANCH 45 47
ATOM     47  CA  LEU E   6      23.225 -22.346   2.713  1.00 31.78 LIG 0.18  C 
BRANCH 47 48
ATOM     48  CB  LEU E   6      21.987 -22.878   3.456  1.00 30.53 LIG 0.04  C 
BRANCH 48 49
ATOM     49  CG  LEU E   6      20.817 -21.892   3.512  1.00 30.12 LIG-0.02  C 
ATOM     50  CD1 LEU E   6      19.609 -22.477   4.223  1.00 29.14 LIG 0.01  C 
ATOM     51  CD2 LEU E   6      21.238 -20.577   4.166  1.00 31.89 LIG 0.01  C 
ENDBRANCH 48 49
ENDBRANCH 47 48
BRANCH 47 52
ATOM     52  C   LEU E   6      24.329 -23.402   2.712  1.00 36.88 LIG 0.24  C 
ATOM     53 O    LEU E   6      25.160 -23.407   3.633  1.00 37.54 LIG-0.27  OA
ATOM     54  N   ASP E   7      24.335 -24.266   1.692  1.00 40.21 LIG-0.35  N 
ATOM     55 H    ASP E   7      23.706 -24.304   1.106  1.00 40.21 LIG 0.16  HD
BRANCH 54 56
ATOM     56  CA  ASP E   7      25.408 -25.235   1.466  1.00 48.33 LIG 0.17  C 
BRANCH 56 57
ATOM     57  CB  ASP E   7      24.851 -26.467   0.772  1.00 51.73 LIG 0.15  C 
BRANCH 57 58
ATOM     58  CG  ASP E   7      25.553 -27.743   1.201  1.00 58.06 LIG 0.17  C 
ATOM     59 OD2  ASP E   7      25.037 -28.832   0.875  1.00 65.10 LIG-0.65  OA
ATOM     60 OD1  ASP E   7      26.623 -27.667   1.853  1.00 65.94 LIG-0.65  OA
ENDBRANCH 57 58
ENDBRANCH 56 57
BRANCH 56 61
ATOM     61  C   ASP E   7      26.532 -24.644   0.627  1.00 49.55 LIG 0.22  C 
ATOM     62 O    ASP E   7      27.576 -24.275   1.166  1.00 55.15 LIG-0.29  OA
ENDBRANCH 56 61
ENDBRANCH 54 56
ENDBRANCH 47 52
ENDBRANCH 45 47
ENDBRANCH 38 43
ENDBRANCH 36 38
ENDBRANCH 1 34
BRANCH 1 63
ATOM     63  CB  LEU E   4      21.238 -16.431   0.747  1.00 22.63 LIG 0.04  C 
BRANCH 63 64
ATOM     64  CG  LEU E   4      21.828 -17.292   1.860  1.00 23.40 LIG-0.02  C 
ATOM     65  CD2 LEU E   4      20.695 -17.931   2.663  1.00 23.91 LIG 0.01  C 
ATOM     66  CD1 LEU E   4      22.752 -16.498   2.761  1.00 22.51 LIG 0.01  C 
ENDBRANCH 63 64
ENDBRANCH 1 63
TORSDOF 29
ENDMDL
MODEL 3
USER: ADFR SOLUTION from run 76
USER: SCORE 21.966087 LL:  -5.398 LR: -19.512 RR:   0.000 FEB: -10.861
USER: RMSD 3.942698
USER: SEED 75
USER: STATUS no improvement in best in 2 clusters for 5 generations
USER: GENES 31
USER: genes 0 Translation |==|  0.56518 0.64596 0.59045
USER: genes 1 Rotation |==|  0.38083 0.54563 0.49442 0.98341
USER: genes 2 Torsion [CB]-CA--N-[C] |==|  0.22650
USER: genes 3 Torsion [N]-C--CA-[N] |==|  0.95569
USER: genes 4 Torsion [C]-CA--N-[C] |==|  0.77291
USER: genes 5 Torsion [N]-C--CA-[N] |==|  0.37997
USER: genes 6 Torsion [C]-CA--N-[C] |==|  0.69465
USER: genes 7 Torsion [N]-C--CA-[N] |==|  0.87882
USER: genes 8 Torsion [C]-CA--N-[H3] |==|  0.21394
USER: genes 9 Torsion [C]-CA--CB-[CG] |==|  0.24591
USER: genes 10 Torsion [CA]-CB--CG-[CD] |==|  0.80717
USER: genes 11 Torsion [CB]-CG--CD-[OE2] |==|  0.81032
USER: genes 12 Torsion [C]-CA--CB-[CG2] |==|  0.03942
USER: genes 13 Torsion [CA]-CB--OG1-[HG1] |==|  0.60498
USER: genes 14 Torsion [C]-CA--CB-[CG] |==|  0.36287
USER: genes 15 Torsion [CA]-CB--CG-[CD2] |==|  0.74474
USER: genes 16 Torsion [N]-CA--C-[N] |==|  0.40751
USER: genes 17 Torsion [C]-N--CA-[CB] |==|  0.53134
USER: genes 18 Torsion [N]-CA--CB-[CG] |==|  0.58878
USER: genes 19 Torsion [CA]-CB--CG-[OD1] |==|  0.74455
USER: genes 20 Torsion [N]-CA--C-[N] |==|  0.31705
USER: genes 21 Torsion [C]-N--CA-[CB] |==|  0.50660
USER: genes 22 Torsion [N]-CA--CB-[CG] |==|  0.85526
USER: genes 23 Torsion [CA]-CB--CG-[CD2] |==|  0.60494
USER: genes 24 Torsion [N]-CA--C-[N] |==|  0.89818
USER: genes 25 Torsion [C]-N--CA-[CB] |==|  0.53190
USER: genes 26 Torsion [N]-CA--CB-[CG] |==|  0.54668
USER: genes 27 Torsion [CA]-CB--CG-[OD2] |==|  0.33165
USER: genes 28 Torsion [N]-CA--C-[O] |==|  0.73033
USER: genes 29 Torsion [N]-CA--CB-[CG] |==|  0.37887
USER: genes 30 Torsion [CA]-CB--CG-[CD2] |==|  0.73864
ROOT
ATOM      1  CA  LEU E   4      21.098 -17.208  -0.682  1.00 22.51 LIG 0.18  C 
ENDROOT
BRANCH 1 2
ATOM      2  N   LEU E   4      19.799 -17.062  -1.287  1.00 20.57 LIG-0.35  N 
ATOM      3  C   LEU E   3      19.414 -15.993  -1.978  1.00 20.37 LIG 0.24  C 
ATOM      4 O    LEU E   3      20.115 -14.983  -2.138  1.00 19.26 LIG-0.27  OA
ATOM      5 H    LEU E   4      19.287 -17.741  -1.158  1.00 20.57 LIG 0.16  HD
BRANCH 3 6
ATOM      6  CA  LEU E   3      17.989 -16.011  -2.538  1.00 20.55 LIG 0.18  C 
BRANCH 6 7
ATOM      7  N   LEU E   3      17.333 -17.296  -2.578  1.00 20.86 LIG-0.35  N 
ATOM      8  C   THR E   2      17.574 -18.143  -3.575  1.00 24.34 LIG 0.24  C 
ATOM      9 O    THR E   2      18.483 -17.965  -4.398  1.00 23.87 LIG-0.27  OA
ATOM     10 H    LEU E   3      16.797 -17.451  -1.923  1.00 20.86 LIG 0.16  HD
BRANCH 8 11
ATOM     11  CA  THR E   2      16.686 -19.357  -3.654  1.00 25.18 LIG 0.20  C 
BRANCH 11 12
ATOM     12  N   THR E   2      16.311 -19.561  -5.058  1.00 26.55 LIG-0.34  N 
ATOM     13  C   GLU E   1      15.076 -19.355  -5.502  1.00 27.17 LIG 0.25  C 
ATOM     14 O    GLU E   1      14.120 -19.102  -4.761  1.00 25.74 LIG-0.27  OA
ATOM     15 H    THR E   2      16.959 -19.824  -5.559  1.00 26.55 LIG 0.16  HD
BRANCH 13 16
ATOM     16  CA  GLU E   1      14.858 -19.505  -7.008  1.00 31.71 LIG 0.28  C 
BRANCH 16 17
ATOM     17  N   GLU E   1      15.985 -18.831  -7.688  1.00 33.09 LIG-0.07  N 
ATOM     18 H3   GLU E   1      16.707 -19.349  -7.650  1.00 33.09 LIG 0.28  HD
ATOM     19 H2   GLU E   1      16.154 -18.056  -7.285  1.00 33.09 LIG 0.28  HD
ATOM     20 H1   GLU E   1      15.772 -18.683  -8.539  1.00 33.09 LIG 0.28  HD
ENDBRANCH 16 17
BRANCH 16 21
ATOM     21  CB  GLU E   1      14.799 -20.990  -7.394  1.00 32.36 LIG 0.05  C 
BRANCH 21 22
ATOM     22  CG  GLU E   1      13.398 -21.574  -7.310  1.00 32.63 LIG 0.12  C 
BRANCH 22 23
ATOM     23  CD  GLU E   1      12.864 -21.712  -5.889  1.00 33.25 LIG 0.17  C 
ATOM     24 OE2  GLU E   1      13.402 -22.554  -5.135  1.00 34.04 LIG-0.65  OA
ATOM     25 OE1  GLU E   1      11.911 -20.999  -5.514  1.00 33.29 LIG-0.65  OA
ENDBRANCH 22 23
ENDBRANCH 21 22
ENDBRANCH 16 21
ENDBRANCH 13 16
ENDBRANCH 11 12
BRANCH 11 26
ATOM     26  CB  THR E   2      17.407 -20.589  -3.081  1.00 27.29 LIG 0.15  C 
ATOM     27  CG2 THR E   2      18.612 -20.175  -2.314  1.00 26.73 LIG 0.04  C 
BRANCH 26 28
ATOM     28 OG1  THR E   2      16.505 -21.267  -2.196  1.00 28.79 LIG-0.39  OA
ATOM     29 HG1  THR E   2      16.930 -21.562  -1.534  1.00 28.79 LIG 0.21  HD
ENDBRANCH 26 28
ENDBRANCH 11 26
ENDBRANCH 8 11
ENDBRANCH 6 7
BRANCH 6 30
ATOM     30  CB  LEU E   3      17.107 -15.022  -1.750  1.00 20.98 LIG 0.04  C 
BRANCH 30 31
ATOM     31  CG  LEU E   3      16.275 -14.050  -2.567  1.00 22.16 LIG-0.02  C 
ATOM     32  CD2 LEU E   3      16.958 -12.734  -2.836  1.00 24.43 LIG 0.01  C 
ATOM     33  CD1 LEU E   3      14.948 -13.847  -1.859  1.00 21.08 LIG 0.01  C 
ENDBRANCH 30 31
ENDBRANCH 6 30
ENDBRANCH 3 6
ENDBRANCH 1 2
BRANCH 1 34
ATOM     34  C   LEU E   4      21.339 -18.703  -0.471  1.00 22.59 LIG 0.24  C 
ATOM     35 O    LEU E   4      20.399 -19.446  -0.226  1.00 22.01 LIG-0.27  OA
ATOM     36  N   ASP E   5      22.593 -19.121  -0.587  1.00 23.28 LIG-0.35  N 
ATOM     37 H    ASP E   5      23.249 -18.609  -0.805  1.00 23.28 LIG 0.16  HD
BRANCH 36 38
ATOM     38  CA  ASP E   5      22.978 -20.533  -0.348  1.00 26.12 LIG 0.19  C 
BRANCH 38 39
ATOM     39  CB  ASP E   5      24.494 -20.660  -0.280  1.00 27.88 LIG 0.15  C 
BRANCH 39 40
ATOM     40  CG  ASP E   5      25.014 -22.013  -0.806  1.00 30.83 LIG 0.17  C 
ATOM     41 OD1  ASP E   5      25.187 -22.977  -0.037  1.00 34.24 LIG-0.65  OA
ATOM     42 OD2  ASP E   5      25.241 -22.081  -2.022  1.00 35.63 LIG-0.65  OA
ENDBRANCH 39 40
ENDBRANCH 38 39
BRANCH 38 43
ATOM     43  C   ASP E   5      22.351 -20.994   0.954  1.00 25.92 LIG 0.24  C 
ATOM     44 O    ASP E   5      22.675 -20.462   2.025  1.00 27.30 LIG-0.27  OA
ATOM     45  N   LEU E   6      21.431 -21.941   0.855  1.00 28.24 LIG-0.35  N 
ATOM     46 H    LEU E   6      21.190 -22.296   0.110  1.00 28.24 LIG 0.16  HD
BRANCH 45 47
ATOM     47  CA  LEU E   6      20.731 -22.478   2.035  1.00 31.78 LIG 0.18  C 
BRANCH 47 48
ATOM     48  CB  LEU E   6      19.763 -23.604   1.632  1.00 30.53 LIG 0.04  C 
BRANCH 48 49
ATOM     49  CG  LEU E   6      18.796 -23.227   0.506  1.00 30.12 LIG-0.02  C 
ATOM     50  CD1 LEU E   6      19.326 -23.625  -0.860  1.00 29.14 LIG 0.01  C 
ATOM     51  CD2 LEU E   6      17.414 -23.836   0.742  1.00 31.89 LIG 0.01  C 
ENDBRANCH 48 49
ENDBRANCH 47 48
BRANCH 47 52
ATOM     52  C   LEU E   6      21.693 -22.975   3.112  1.00 36.88 LIG 0.24  C 
ATOM     53 O    LEU E   6      21.405 -22.800   4.306  1.00 37.54 LIG-0.27  OA
ATOM     54  N   ASP E   7      22.813 -23.570   2.690  1.00 40.21 LIG-0.35  N 
ATOM     55 H    ASP E   7      22.962 -23.759   1.864  1.00 40.21 LIG 0.16  HD
BRANCH 54 56
ATOM     56  CA  ASP E   7      23.902 -23.962   3.587  1.00 48.33 LIG 0.17  C 
BRANCH 56 57
ATOM     57  CB  ASP E   7      25.126 -24.345   2.772  1.00 51.73 LIG 0.15  C 
BRANCH 57 58
ATOM     58  CG  ASP E   7      26.138 -25.137   3.580  1.00 58.06 LIG 0.17  C 
ATOM     59 OD2  ASP E   7      26.420 -26.291   3.196  1.00 65.10 LIG-0.65  OA
ATOM     60 OD1  ASP E   7      26.663 -24.611   4.592  1.00 65.94 LIG-0.65  OA
ENDBRANCH 57 58
ENDBRANCH 56 57
BRANCH 56 61
ATOM     61  C   ASP E   7      24.264 -22.845   4.555  1.00 49.55 LIG 0.22  C 
ATOM     62 O    ASP E   7      25.208 -22.096   4.308  1.00 55.15 LIG-0.29  OA
ENDBRANCH 56 61
ENDBRANCH 54 56
ENDBRANCH 47 52
ENDBRANCH 45 47
ENDBRANCH 38 43
ENDBRANCH 36 38
ENDBRANCH 1 34
BRANCH 1 63
ATOM     63  CB  LEU E   4      21.135 -16.474   0.662  1.00 22.63 LIG 0.04  C 
BRANCH 63 64
ATOM     64  CG  LEU E   4      21.779 -17.128   1.880  1.00 23.40 LIG-0.02  C 
ATOM     65  CD2 LEU E   4      20.707 -17.849   2.697  1.00 23.91 LIG 0.01  C 
ATOM     66  CD1 LEU E   4      22.528 -16.123   2.733  1.00 22.51 LIG 0.01  C 
ENDBRANCH 63 64
ENDBRANCH 1 63
TORSDOF 29
ENDMDL
MODEL 4
USER: ADFR SOLUTION from run 43
USER: SCORE 21.531467 LL:  -6.093 LR: -19.467 RR:   0.000 FEB: -10.816
USER: RMSD 4.114249
USER: SEED 42
USER: STATUS no improvement in best in 2 clusters for 5 generations
USER: GENES 31
USER: genes 0 Translation |==|  0.56978 0.65278 0.59288
USER: genes 1 Rotation |==|  0.40960 0.53702 0.48462 0.99012
USER: genes 2 Torsion [CB]-CA--N-[C] |==|  0.21826
USER: genes 3 Torsion [N]-C--CA-[N] |==|  0.88961
USER: genes 4 Torsion [C]-CA--N-[C] |==|  0.86067
USER: genes 5 Torsion [N]-C--CA-[N] |==|  0.49910
USER: genes 6 Torsion [C]-CA--N-[C] |==|  0.78207
USER: genes 7 Torsion [N]-C--CA-[N] |==|  0.50739
USER: genes 8 Torsion [C]-CA--N-[H3] |==|  0.26089
USER: genes 9 Torsion [C]-CA--CB-[CG] |==|  0.85346
USER: genes 10 Torsion [CA]-CB--CG-[CD] |==|  0.68252
USER: genes 11 Torsion [CB]-CG--CD-[OE2] |==|  0.30593
USER: genes 12 Torsion [C]-CA--CB-[CG2] |==|  0.90034
USER: genes 13 Torsion [CA]-CB--OG1-[HG1] |==|  0.72918
USER: genes 14 Torsion [C]-CA--CB-[CG] |==|  0.31096
USER: genes 15 Torsion [CA]-CB--CG-[CD2] |==|  0.34798
USER: genes 16 Torsion [N]-CA--C-[N] |==|  0.40206
USER: genes 17 Torsion [C]-N--CA-[CB] |==|  0.41667
USER: genes 18 Torsion [N]-CA--CB-[CG] |==|  0.45361
USER: genes 19 Torsion [CA]-CB--CG-[OD1] |==|  0.14554
USER: genes 20 Torsion [N]-CA--C-[N] |==|  0.42901
USER: genes 21 Torsion [C]-N--CA-[CB] |==|  0.34161
USER: genes 22 Torsion [N]-CA--CB-[CG] |==|  0.87343
USER: genes 23 Torsion [CA]-CB--CG-[CD2] |==|  0.65063
USER: genes 24 Torsion [N]-CA--C-[N] |==|  0.91530
USER: genes 25 Torsion [C]-N--CA-[CB] |==|  0.41282
USER: genes 26 Torsion [N]-CA--CB-[CG] |==|  0.63724
USER: genes 27 Torsion [CA]-CB--CG-[OD2] |==|  0.42140
USER: genes 28 Torsion [N]-CA--C-[O] |==|  0.37224
USER: genes 29 Torsion [N]-CA--CB-[CG] |==|  0.37839
USER: genes 30 Torsion [CA]-CB--CG-[CD2] |==|  0.73907
ROOT
ATOM      1  CA  LEU E   4      21.205 -17.050  -0.633  1.00 22.51 LIG 0.18  C 
ENDROOT
BRANCH 1 2
ATOM      2  N   LEU E   4      19.944 -16.781  -1.274  1.00 20.57 LIG-0.35  N 
ATOM      3  C   LEU E   3      19.610 -15.608  -1.804  1.00 20.37 LIG 0.24  C 
ATOM      4 O    LEU E   3      20.333 -14.601  -1.764  1.00 19.26 LIG-0.27  OA
ATOM      5 H    LEU E   4      19.416 -17.461  -1.282  1.00 20.57 LIG 0.16  HD
BRANCH 3 6
ATOM      6  CA  LEU E   3      18.218 -15.506  -2.434  1.00 20.55 LIG 0.18  C 
BRANCH 6 7
ATOM      7  N   LEU E   3      17.771 -16.654  -3.187  1.00 20.86 LIG-0.35  N 
ATOM      8  C   THR E   2      18.551 -17.191  -4.120  1.00 24.34 LIG 0.24  C 
ATOM      9 O    THR E   2      19.738 -16.868  -4.266  1.00 23.87 LIG-0.27  OA
ATOM     10 H    LEU E   3      16.987 -16.941  -2.980  1.00 20.86 LIG 0.16  HD
BRANCH 8 11
ATOM     11  CA  THR E   2      17.920 -18.236  -5.003  1.00 25.18 LIG 0.20  C 
BRANCH 11 12
ATOM     12  N   THR E   2      18.930 -18.696  -5.963  1.00 26.55 LIG-0.34  N 
ATOM     13  C   GLU E   1      19.256 -17.996  -7.043  1.00 27.17 LIG 0.25  C 
ATOM     14 O    GLU E   1      18.658 -16.973  -7.398  1.00 25.74 LIG-0.27  OA
ATOM     15 H    THR E   2      19.284 -19.454  -5.763  1.00 26.55 LIG 0.16  HD
BRANCH 13 16
ATOM     16  CA  GLU E   1      20.398 -18.547  -7.897  1.00 31.71 LIG 0.28  C 
BRANCH 16 17
ATOM     17  N   GLU E   1      20.633 -17.586  -8.996  1.00 33.09 LIG-0.07  N 
ATOM     18 H3   GLU E   1      21.275 -17.017  -8.762  1.00 33.09 LIG 0.28  HD
ATOM     19 H2   GLU E   1      19.884 -17.136  -9.161  1.00 33.09 LIG 0.28  HD
ATOM     20 H1   GLU E   1      20.881 -18.027  -9.729  1.00 33.09 LIG 0.28  HD
ENDBRANCH 16 17
BRANCH 16 21
ATOM     21  CB  GLU E   1      21.666 -18.720  -7.047  1.00 32.36 LIG 0.05  C 
BRANCH 21 22
ATOM     22  CG  GLU E   1      22.055 -17.459  -6.292  1.00 32.63 LIG 0.12  C 
BRANCH 22 23
ATOM     23  CD  GLU E   1      23.375 -16.844  -6.742  1.00 33.25 LIG 0.17  C 
ATOM     24 OE2  GLU E   1      23.339 -15.754  -7.358  1.00 34.04 LIG-0.65  OA
ATOM     25 OE1  GLU E   1      24.448 -17.433  -6.497  1.00 33.29 LIG-0.65  OA
ENDBRANCH 22 23
ENDBRANCH 21 22
ENDBRANCH 16 21
ENDBRANCH 13 16
ENDBRANCH 11 12
BRANCH 11 26
ATOM     26  CB  THR E   2      17.381 -19.401  -4.154  1.00 27.29 LIG 0.15  C 
ATOM     27  CG2 THR E   2      18.275 -19.655  -2.995  1.00 26.73 LIG 0.04  C 
BRANCH 26 28
ATOM     28 OG1  THR E   2      16.082 -19.036  -3.666  1.00 28.79 LIG-0.39  OA
ATOM     29 HG1  THR E   2      16.149 -18.742  -2.883  1.00 28.79 LIG 0.21  HD
ENDBRANCH 26 28
ENDBRANCH 11 26
ENDBRANCH 8 11
ENDBRANCH 6 7
BRANCH 6 30
ATOM     30  CB  LEU E   3      17.176 -15.184  -1.344  1.00 20.98 LIG 0.04  C 
BRANCH 30 31
ATOM     31  CG  LEU E   3      16.526 -13.813  -1.406  1.00 22.16 LIG-0.02  C 
ATOM     32  CD2 LEU E   3      15.021 -13.850  -1.441  1.00 24.43 LIG 0.01  C 
ATOM     33  CD1 LEU E   3      17.087 -13.074  -2.608  1.00 21.08 LIG 0.01  C 
ENDBRANCH 30 31
ENDBRANCH 6 30
ENDBRANCH 3 6
ENDBRANCH 1 2
BRANCH 1 34
ATOM     34  C   LEU E   4      21.380 -18.567  -0.584  1.00 22.59 LIG 0.24  C 
ATOM     35 O    LEU E   4      20.405 -19.292  -0.431  1.00 22.01 LIG-0.27  OA
ATOM     36  N   ASP E   5      22.617 -19.024  -0.732  1.00 23.28 LIG-0.35  N 
ATOM     37 H    ASP E   5      23.296 -18.520  -0.886  1.00 23.28 LIG 0.16  HD
BRANCH 36 38
ATOM     38  CA  ASP E   5      22.938 -20.470  -0.645  1.00 26.12 LIG 0.19  C 
BRANCH 38 39
ATOM     39  CB  ASP E   5      24.137 -20.796  -1.526  1.00 27.88 LIG 0.15  C 
BRANCH 39 40
ATOM     40  CG  ASP E   5      24.786 -22.154  -1.191  1.00 30.83 LIG 0.17  C 
ATOM     41 OD1  ASP E   5      24.104 -23.194  -1.135  1.00 34.24 LIG-0.65  OA
ATOM     42 OD2  ASP E   5      26.008 -22.146  -0.990  1.00 35.63 LIG-0.65  OA
ENDBRANCH 39 40
ENDBRANCH 38 39
BRANCH 38 43
ATOM     43  C   ASP E   5      23.238 -20.814   0.802  1.00 25.92 LIG 0.24  C 
ATOM     44 O    ASP E   5      23.612 -19.933   1.589  1.00 27.30 LIG-0.27  OA
ATOM     45  N   LEU E   6      23.031 -22.073   1.156  1.00 28.24 LIG-0.35  N 
ATOM     46 H    LEU E   6      22.750 -22.681   0.616  1.00 28.24 LIG 0.16  HD
BRANCH 45 47
ATOM     47  CA  LEU E   6      23.269 -22.548   2.530  1.00 31.78 LIG 0.18  C 
BRANCH 47 48
ATOM     48  CB  LEU E   6      21.994 -23.176   3.121  1.00 30.53 LIG 0.04  C 
BRANCH 48 49
ATOM     49  CG  LEU E   6      20.723 -22.355   2.884  1.00 30.12 LIG-0.02  C 
ATOM     50  CD1 LEU E   6      19.784 -23.029   1.899  1.00 29.14 LIG 0.01  C 
ATOM     51  CD2 LEU E   6      20.001 -22.067   4.200  1.00 31.89 LIG 0.01  C 
ENDBRANCH 48 49
ENDBRANCH 47 48
BRANCH 47 52
ATOM     52  C   LEU E   6      24.428 -23.539   2.616  1.00 36.88 LIG 0.24  C 
ATOM     53 O    LEU E   6      25.111 -23.582   3.651  1.00 37.54 LIG-0.27  OA
ATOM     54  N   ASP E   7      24.645 -24.305   1.542  1.00 40.21 LIG-0.35  N 
ATOM     55 H    ASP E   7      24.115 -24.324   0.864  1.00 40.21 LIG 0.16  HD
BRANCH 54 56
ATOM     56  CA  ASP E   7      25.802 -25.191   1.407  1.00 48.33 LIG 0.17  C 
BRANCH 56 57
ATOM     57  CB  ASP E   7      25.425 -26.407   0.577  1.00 51.73 LIG 0.15  C 
BRANCH 57 58
ATOM     58  CG  ASP E   7      25.839 -27.711   1.235  1.00 58.06 LIG 0.17  C 
ATOM     59 OD2  ASP E   7      25.165 -28.732   0.984  1.00 65.10 LIG-0.65  OA
ATOM     60 OD1  ASP E   7      26.838 -27.726   1.994  1.00 65.94 LIG-0.65  OA
ENDBRANCH 57 58
ENDBRANCH 56 57
BRANCH 56 61
ATOM     61  C   ASP E   7      26.983 -24.480   0.761  1.00 49.55 LIG 0.22  C 
ATOM     62 O    ASP E   7      28.110 -24.593   1.242  1.00 55.15 LIG-0.29  OA
ENDBRANCH 56 61
ENDBRANCH 54 56
ENDBRANCH 47 52
ENDBRANCH 45 47
ENDBRANCH 38 43
ENDBRANCH 36 38
ENDBRANCH 1 34
BRANCH 1 63
ATOM     63  CB  LEU E   4      21.204 -16.473   0.787  1.00 22.63 LIG 0.04  C 
BRANCH 63 64
ATOM     64  CG  LEU E   4      21.760 -17.289   1.950  1.00 23.40 LIG-0.02  C 
ATOM     65  CD2 LEU E   4      20.621 -18.051   2.627  1.00 23.91 LIG 0.01  C 
ATOM     66  CD1 LEU E   4      22.502 -16.420   2.946  1.00 22.51 LIG 0.01  C 
ENDBRANCH 63 64
ENDBRANCH 1 63
TORSDOF 29
ENDMDL
MODEL 5
USER: ADFR SOLUTION from run 93
USER: SCORE 20.318712 LL:  -5.563 LR: -18.690 RR:   0.000 FEB: -10.039
USER: RMSD 2.751998
USER: SEED 92
USER: STATUS 1 or 2 clusters left
USER: GENES 31
USER: genes 0 Translation |==|  0.56181 0.64939 0.58618
USER: genes 1 Rotation |==|  0.41706 0.52838 0.48565 0.99205
USER: genes 2 Torsion [CB]-CA--N-[C] |==|  0.22919
USER: genes 3 Torsion [N]-C--CA-[N] |==|  0.97195
USER: genes 4 Torsion [C]-CA--N-[C] |==|  0.78233
USER: genes 5 Torsion [N]-C--CA-[N] |==|  0.33083
USER: genes 6 Torsion [C]-CA--N-[C] |==|  0.63031
USER: genes 7 Torsion [N]-C--CA-[N] |==|  0.27596
USER: genes 8 Torsion [C]-CA--N-[H3] |==|  0.13470
USER: genes 9 Torsion [C]-CA--CB-[CG] |==|  0.24749
USER: genes 10 Torsion [CA]-CB--CG-[CD] |==|  0.54978
USER: genes 11 Torsion [CB]-CG--CD-[OE2] |==|  0.53704
USER: genes 12 Torsion [C]-CA--CB-[CG2] |==|  0.11807
USER: genes 13 Torsion [CA]-CB--OG1-[HG1] |==|  0.47369
USER: genes 14 Torsion [C]-CA--CB-[CG] |==|  0.50872
USER: genes 15 Torsion [CA]-CB--CG-[CD2] |==|  0.88151
USER: genes 16 Torsion [N]-CA--C-[N] |==|  0.35025
USER: genes 17 Torsion [C]-N--CA-[CB] |==|  0.47779
USER: genes 18 Torsion [N]-CA--CB-[CG] |==|  0.40741
USER: genes 19 Torsion [CA]-CB--CG-[OD1] |==|  0.69201
USER: genes 20 Torsion [N]-CA--C-[N] |==|  0.38571
USER: genes 21 Torsion [C]-N--CA-[CB] |==|  0.34191
USER: genes 22 Torsion [N]-CA--CB-[CG] |==|  0.73636
USER: genes 23 Torsion [CA]-CB--CG-[CD2] |==|  0.90911
USER: genes 24 Torsion [N]-CA--C-[N] |==|  0.21423
USER: genes 25 Torsion [C]-N--CA-[CB] |==|  0.81458
USER: genes 26 Torsion [N]-CA--CB-[CG] |==|  0.80399
USER: genes 27 Torsion [CA]-CB--CG-[OD2] |==|  0.15080
USER: genes 28 Torsion [N]-CA--C-[O] |==|  0.62559
USER: genes 29 Torsion [N]-CA--CB-[CG] |==|  0.41035
USER: genes 30 Torsion [CA]-CB--CG-[CD2] |==|  0.71062
ROOT
ATOM      1  CA  LEU E   4      21.020 -17.129  -0.769  1.00 22.51 LIG 0.18  C 
ENDROOT
BRANCH 1 2
ATOM      2  N   LEU E   4      19.779 -16.851  -1.445  1.00 20.57 LIG-0.35  N 
ATOM      3  C   LEU E   3      19.484 -15.686  -2.017  1.00 20.37 LIG 0.24  C 
ATOM      4 O    LEU E   3      20.229 -14.695  -1.990  1.00 19.26 LIG-0.27  OA
ATOM      5 H    LEU E   4      19.236 -17.518  -1.444  1.00 20.57 LIG 0.16  HD
BRANCH 3 6
ATOM      6  CA  LEU E   3      18.109 -15.572  -2.680  1.00 20.55 LIG 0.18  C 
BRANCH 6 7
ATOM      7  N   LEU E   3      17.360 -16.799  -2.817  1.00 20.86 LIG-0.35  N 
ATOM      8  C   THR E   2      17.655 -17.661  -3.786  1.00 24.34 LIG 0.24  C 
ATOM      9 O    THR E   2      18.671 -17.557  -4.487  1.00 23.87 LIG-0.27  OA
ATOM     10 H    LEU E   3      16.736 -16.910  -2.236  1.00 20.86 LIG 0.16  HD
BRANCH 8 11
ATOM     11  CA  THR E   2      16.687 -18.797  -3.991  1.00 25.18 LIG 0.20  C 
BRANCH 11 12
ATOM     12  N   THR E   2      16.149 -18.702  -5.352  1.00 26.55 LIG-0.34  N 
ATOM     13  C   GLU E   1      14.852 -18.810  -5.614  1.00 27.17 LIG 0.25  C 
ATOM     14 O    GLU E   1      14.010 -19.122  -4.764  1.00 25.74 LIG-0.27  OA
ATOM     15 H    THR E   2      16.747 -18.572  -5.957  1.00 26.55 LIG 0.16  HD
BRANCH 13 16
ATOM     16  CA  GLU E   1      14.425 -18.584  -7.065  1.00 31.71 LIG 0.28  C 
BRANCH 16 17
ATOM     17  N   GLU E   1      14.248 -19.914  -7.686  1.00 33.09 LIG-0.07  N 
ATOM     18 H3   GLU E   1      13.752 -20.427  -7.155  1.00 33.09 LIG 0.28  HD
ATOM     19 H2   GLU E   1      15.044 -20.295  -7.804  1.00 33.09 LIG 0.28  HD
ATOM     20 H1   GLU E   1      13.843 -19.823  -8.473  1.00 33.09 LIG 0.28  HD
ENDBRANCH 16 17
BRANCH 16 21
ATOM     21  CB  GLU E   1      13.118 -17.781  -7.119  1.00 32.36 LIG 0.05  C 
BRANCH 21 22
ATOM     22  CG  GLU E   1      13.341 -16.277  -7.149  1.00 32.63 LIG 0.12  C 
BRANCH 22 23
ATOM     23  CD  GLU E   1      12.114 -15.456  -6.773  1.00 33.25 LIG 0.17  C 
ATOM     24 OE2  GLU E   1      12.129 -14.227  -7.014  1.00 34.04 LIG-0.65  OA
ATOM     25 OE1  GLU E   1      11.136 -16.015  -6.236  1.00 33.29 LIG-0.65  OA
ENDBRANCH 22 23
ENDBRANCH 21 22
ENDBRANCH 16 21
ENDBRANCH 13 16
ENDBRANCH 11 12
BRANCH 11 26
ATOM     26  CB  THR E   2      17.387 -20.147  -3.756  1.00 27.29 LIG 0.15  C 
ATOM     27  CG2 THR E   2      18.266 -20.075  -2.559  1.00 26.73 LIG 0.04  C 
BRANCH 26 28
ATOM     28 OG1  THR E   2      16.379 -21.143  -3.533  1.00 28.79 LIG-0.39  OA
ATOM     29 HG1  THR E   2      16.733 -21.904  -3.532  1.00 28.79 LIG 0.21  HD
ENDBRANCH 26 28
ENDBRANCH 11 26
ENDBRANCH 8 11
ENDBRANCH 6 7
BRANCH 6 30
ATOM     30  CB  LEU E   3      17.249 -14.542  -1.920  1.00 20.98 LIG 0.04  C 
BRANCH 30 31
ATOM     31  CG  LEU E   3      15.821 -14.358  -2.402  1.00 22.16 LIG-0.02  C 
ATOM     32  CD2 LEU E   3      15.683 -14.310  -3.901  1.00 24.43 LIG 0.01  C 
ATOM     33  CD1 LEU E   3      15.259 -13.104  -1.756  1.00 21.08 LIG 0.01  C 
ENDBRANCH 30 31
ENDBRANCH 6 30
ENDBRANCH 3 6
ENDBRANCH 1 2
BRANCH 1 34
ATOM     34  C   LEU E   4      21.206 -18.645  -0.759  1.00 22.59 LIG 0.24  C 
ATOM     35 O    LEU E   4      20.318 -19.369  -0.329  1.00 22.01 LIG-0.27  OA
ATOM     36  N   ASP E   5      22.351 -19.103  -1.249  1.00 23.28 LIG-0.35  N 
ATOM     37 H    ASP E   5      22.957 -18.600  -1.594  1.00 23.28 LIG 0.16  HD
BRANCH 36 38
ATOM     38  CA  ASP E   5      22.689 -20.547  -1.244  1.00 26.12 LIG 0.19  C 
BRANCH 38 39
ATOM     39  CB  ASP E   5      23.963 -20.792  -2.042  1.00 27.88 LIG 0.15  C 
BRANCH 39 40
ATOM     40  CG  ASP E   5      24.818 -21.946  -1.482  1.00 30.83 LIG 0.17  C 
ATOM     41 OD1  ASP E   5      25.918 -21.727  -0.942  1.00 34.24 LIG-0.65  OA
ATOM     42 OD2  ASP E   5      24.347 -23.086  -1.596  1.00 35.63 LIG-0.65  OA
ENDBRANCH 39 40
ENDBRANCH 38 39
BRANCH 38 43
ATOM     43  C   ASP E   5      22.870 -20.999   0.192  1.00 25.92 LIG 0.24  C 
ATOM     44 O    ASP E   5      23.433 -20.261   1.013  1.00 27.30 LIG-0.27  OA
ATOM     45  N   LEU E   6      22.359 -22.181   0.501  1.00 28.24 LIG-0.35  N 
ATOM     46 H    LEU E   6      21.949 -22.685  -0.063  1.00 28.24 LIG 0.16  HD
BRANCH 45 47
ATOM     47  CA  LEU E   6      22.450 -22.742   1.860  1.00 31.78 LIG 0.18  C 
BRANCH 47 48
ATOM     48  CB  LEU E   6      21.051 -23.063   2.415  1.00 30.53 LIG 0.04  C 
BRANCH 48 49
ATOM     49  CG  LEU E   6      20.449 -21.950   3.278  1.00 30.12 LIG-0.02  C 
ATOM     50  CD1 LEU E   6      19.394 -22.477   4.235  1.00 29.14 LIG 0.01  C 
ATOM     51  CD2 LEU E   6      21.538 -21.199   4.044  1.00 31.89 LIG 0.01  C 
ENDBRANCH 48 49
ENDBRANCH 47 48
BRANCH 47 52
ATOM     52  C   LEU E   6      23.335 -23.986   1.922  1.00 36.88 LIG 0.24  C 
ATOM     53 O    LEU E   6      22.803 -25.103   1.997  1.00 37.54 LIG-0.27  OA
ATOM     54  N   ASP E   7      24.656 -23.785   1.900  1.00 40.21 LIG-0.35  N 
ATOM     55 H    ASP E   7      25.012 -23.013   1.764  1.00 40.21 LIG 0.16  HD
BRANCH 54 56
ATOM     56  CA  ASP E   7      25.636 -24.854   2.105  1.00 48.33 LIG 0.17  C 
BRANCH 56 57
ATOM     57  CB  ASP E   7      25.546 -25.367   3.532  1.00 51.73 LIG 0.15  C 
BRANCH 57 58
ATOM     58  CG  ASP E   7      26.067 -24.363   4.545  1.00 58.06 LIG 0.17  C 
ATOM     59 OD2  ASP E   7      25.580 -23.213   4.532  1.00 65.10 LIG-0.65  OA
ATOM     60 OD1  ASP E   7      26.953 -24.716   5.360  1.00 65.94 LIG-0.65  OA
ENDBRANCH 57 58
ENDBRANCH 56 57
BRANCH 56 61
ATOM     61  C   ASP E   7      25.421 -26.007   1.135  1.00 49.55 LIG 0.22  C 
ATOM     62 O    ASP E   7      25.452 -27.168   1.540  1.00 55.15 LIG-0.29  OA
ENDBRANCH 56 61
ENDBRANCH 54 56
ENDBRANCH 47 52
ENDBRANCH 45 47
ENDBRANCH 38 43
ENDBRANCH 36 38
ENDBRANCH 1 34
BRANCH 1 63
ATOM     63  CB  LEU E   4      20.964 -16.595   0.667  1.00 22.63 LIG 0.04  C 
BRANCH 63 64
ATOM     64  CG  LEU E   4      21.715 -17.312   1.785  1.00 23.40 LIG-0.02  C 
ATOM     65  CD2 LEU E   4      20.722 -18.101   2.638  1.00 23.91 LIG 0.01  C 
ATOM     66  CD1 LEU E   4      22.519 -16.349   2.635  1.00 22.51 LIG 0.01  C 
ENDBRANCH 63 64
ENDBRANCH 1 63
TORSDOF 29
ENDMDL
MODEL 6
USER: ADFR SOLUTION from run 49
USER: SCORE 21.884488 LL:  -5.374 LR: -18.610 RR:   0.000 FEB:  -9.959
USER: RMSD 3.949770
USER: SEED 48
USER: STATUS no improvement in best in 2 clusters for 5 generations
USER: GENES 31
USER: genes 0 Translation |==|  0.56922 0.64306 0.59478
USER: genes 1 Rotation |==|  0.40586 0.56575 0.49623 0.98662
USER: genes 2 Torsion [CB]-CA--N-[C] |==|  0.25952
USER: genes 3 Torsion [N]-C--CA-[N] |==|  0.91721
USER: genes 4 Torsion [C]-CA--N-[C] |==|  0.81787
USER: genes 5 Torsion [N]-C--CA-[N] |==|  0.35779
USER: genes 6 Torsion [C]-CA--N-[C] |==|  0.67111
USER: genes 7 Torsion [N]-C--CA-[N] |==|  0.97454
USER: genes 8 Torsion [C]-CA--N-[H3] |==|  0.91155
USER: genes 9 Torsion [C]-CA--CB-[CG] |==|  0.91714
USER: genes 10 Torsion [CA]-CB--CG-[CD] |==|  0.27850
USER: genes 11 Torsion [CB]-CG--CD-[OE2] |==|  0.50891
USER: genes 12 Torsion [C]-CA--CB-[CG2] |==|  0.05407
USER: genes 13 Torsion [CA]-CB--OG1-[HG1] |==|  0.44820
USER: genes 14 Torsion [C]-CA--CB-[CG] |==|  0.32142
USER: genes 15 Torsion [CA]-CB--CG-[CD2] |==|  0.31233
USER: genes 16 Torsion [N]-CA--C-[N] |==|  0.38588
USER: genes 17 Torsion [C]-N--CA-[CB] |==|  0.52380
USER: genes 18 Torsion [N]-CA--CB-[CG] |==|  0.48265
USER: genes 19 Torsion [CA]-CB--CG-[OD1] |==|  0.10163
USER: genes 20 Torsion [N]-CA--C-[N] |==|  0.26114
USER: genes 21 Torsion [C]-N--CA-[CB] |==|  0.16219
USER: genes 22 Torsion [N]-CA--CB-[CG] |==|  0.66441
USER: genes 23 Torsion [CA]-CB--CG-[CD2] |==|  0.31000
USER: genes 24 Torsion [N]-CA--C-[N] |==|  0.08889
USER: genes 25 Torsion [C]-N--CA-[CB] |==|  0.29492
USER: genes 26 Torsion [N]-CA--CB-[CG] |==|  0.51706
USER: genes 27 Torsion [CA]-CB--CG-[OD2] |==|  0.06649
USER: genes 28 Torsion [N]-CA--C-[O] |==|  0.07544
USER: genes 29 Torsion [N]-CA--CB-[CG] |==|  0.34957
USER: genes 30 Torsion [CA]-CB--CG-[CD2] |==|  0.71700
ROOT
ATOM      1  CA  LEU E   4      21.192 -17.276  -0.595  1.00 22.51 LIG 0.18  C 
ENDROOT
BRANCH 1 2
ATOM      2  N   LEU E   4      19.855 -17.046  -1.078  1.00 20.57 LIG-0.35  N 
ATOM      3  C   LEU E   3      19.500 -16.004  -1.824  1.00 20.37 LIG 0.24  C 
ATOM      4 O    LEU E   3      20.272 -15.089  -2.147  1.00 19.26 LIG-0.27  OA
ATOM      5 H    LEU E   4      19.298 -17.656  -0.836  1.00 20.57 LIG 0.16  HD
BRANCH 3 6
ATOM      6  CA  LEU E   3      18.027 -15.921  -2.236  1.00 20.55 LIG 0.18  C 
BRANCH 6 7
ATOM      7  N   LEU E   3      17.333 -17.177  -2.388  1.00 20.86 LIG-0.35  N 
ATOM      8  C   THR E   2      17.686 -18.028  -3.347  1.00 24.34 LIG 0.24  C 
ATOM      9 O    THR E   2      18.714 -17.884  -4.024  1.00 23.87 LIG-0.27  OA
ATOM     10 H    LEU E   3      16.699 -17.313  -1.822  1.00 20.86 LIG 0.16  HD
BRANCH 8 11
ATOM     11  CA  THR E   2      16.770 -19.203  -3.572  1.00 25.18 LIG 0.20  C 
BRANCH 11 12
ATOM     12  N   THR E   2      16.448 -19.267  -5.002  1.00 26.55 LIG-0.34  N 
ATOM     13  C   GLU E   1      15.206 -19.148  -5.457  1.00 27.17 LIG 0.25  C 
ATOM     14 O    GLU E   1      14.213 -19.102  -4.722  1.00 25.74 LIG-0.27  OA
ATOM     15 H    THR E   2      17.131 -19.388  -5.510  1.00 26.55 LIG 0.16  HD
BRANCH 13 16
ATOM     16  CA  GLU E   1      15.033 -19.128  -6.976  1.00 31.71 LIG 0.28  C 
BRANCH 16 17
ATOM     17  N   GLU E   1      16.383 -19.029  -7.573  1.00 33.09 LIG-0.07  N 
ATOM     18 H3   GLU E   1      16.914 -18.563  -7.033  1.00 33.09 LIG 0.28  HD
ATOM     19 H2   GLU E   1      16.329 -18.619  -8.361  1.00 33.09 LIG 0.28  HD
ATOM     20 H1   GLU E   1      16.718 -19.846  -7.686  1.00 33.09 LIG 0.28  HD
ENDBRANCH 16 17
BRANCH 16 21
ATOM     21  CB  GLU E   1      14.321 -20.402  -7.450  1.00 32.36 LIG 0.05  C 
BRANCH 21 22
ATOM     22  CG  GLU E   1      14.596 -21.606  -6.562  1.00 32.63 LIG 0.12  C 
BRANCH 22 23
ATOM     23  CD  GLU E   1      13.480 -21.920  -5.574  1.00 33.25 LIG 0.17  C 
ATOM     24 OE2  GLU E   1      13.655 -22.859  -4.764  1.00 34.04 LIG-0.65  OA
ATOM     25 OE1  GLU E   1      12.427 -21.249  -5.594  1.00 33.29 LIG-0.65  OA
ENDBRANCH 22 23
ENDBRANCH 21 22
ENDBRANCH 16 21
ENDBRANCH 13 16
ENDBRANCH 11 12
BRANCH 11 26
ATOM     26  CB  THR E   2      17.437 -20.503  -3.088  1.00 27.29 LIG 0.15  C 
ATOM     27  CG2 THR E   2      18.541 -20.198  -2.140  1.00 26.73 LIG 0.04  C 
BRANCH 26 28
ATOM     28 OG1  THR E   2      16.447 -21.290  -2.410  1.00 28.79 LIG-0.39  OA
ATOM     29 HG1  THR E   2      16.706 -22.087  -2.364  1.00 28.79 LIG 0.21  HD
ENDBRANCH 26 28
ENDBRANCH 11 26
ENDBRANCH 8 11
ENDBRANCH 6 7
BRANCH 6 30
ATOM     30  CB  LEU E   3      17.256 -15.039  -1.234  1.00 20.98 LIG 0.04  C 
BRANCH 30 31
ATOM     31  CG  LEU E   3      16.664 -13.749  -1.775  1.00 22.16 LIG-0.02  C 
ATOM     32  CD2 LEU E   3      15.158 -13.732  -1.805  1.00 24.43 LIG 0.01  C 
ATOM     33  CD1 LEU E   3      17.246 -13.501  -3.155  1.00 21.08 LIG 0.01  C 
ENDBRANCH 30 31
ENDBRANCH 6 30
ENDBRANCH 3 6
ENDBRANCH 1 2
BRANCH 1 34
ATOM     34  C   LEU E   4      21.411 -18.788  -0.554  1.00 22.59 LIG 0.24  C 
ATOM     35 O    LEU E   4      20.513 -19.527  -0.174  1.00 22.01 LIG-0.27  OA
ATOM     36  N   ASP E   5      22.595 -19.224  -0.964  1.00 23.28 LIG-0.35  N 
ATOM     37 H    ASP E   5      23.211 -18.711  -1.274  1.00 23.28 LIG 0.16  HD
BRANCH 36 38
ATOM     38  CA  ASP E   5      22.964 -20.660  -0.919  1.00 26.12 LIG 0.19  C 
BRANCH 38 39
ATOM     39  CB  ASP E   5      24.441 -20.834  -1.249  1.00 27.88 LIG 0.15  C 
BRANCH 39 40
ATOM     40  CG  ASP E   5      24.935 -22.284  -1.074  1.00 30.83 LIG 0.17  C 
ATOM     41 OD1  ASP E   5      24.206 -23.250  -1.363  1.00 34.24 LIG-0.65  OA
ATOM     42 OD2  ASP E   5      26.087 -22.425  -0.640  1.00 35.63 LIG-0.65  OA
ENDBRANCH 39 40
ENDBRANCH 38 39
BRANCH 38 43
ATOM     43  C   ASP E   5      22.666 -21.196   0.467  1.00 25.92 LIG 0.24  C 
ATOM     44 O    ASP E   5      23.488 -21.051   1.383  1.00 27.30 LIG-0.27  OA
ATOM     45  N   LEU E   6      21.483 -21.770   0.630  1.00 28.24 LIG-0.35  N 
ATOM     46 H    LEU E   6      20.903 -21.852   0.000  1.00 28.24 LIG 0.16  HD
BRANCH 45 47
ATOM     47  CA  LEU E   6      21.054 -22.325   1.925  1.00 31.78 LIG 0.18  C 
BRANCH 47 48
ATOM     48  CB  LEU E   6      21.068 -21.241   3.017  1.00 30.53 LIG 0.04  C 
BRANCH 48 49
ATOM     49  CG  LEU E   6      21.986 -21.557   4.201  1.00 30.12 LIG-0.02  C 
ATOM     50  CD1 LEU E   6      22.454 -23.002   4.193  1.00 29.14 LIG 0.01  C 
ATOM     51  CD2 LEU E   6      23.183 -20.607   4.236  1.00 31.89 LIG 0.01  C 
ENDBRANCH 48 49
ENDBRANCH 47 48
BRANCH 47 52
ATOM     52  C   LEU E   6      19.675 -22.980   1.854  1.00 36.88 LIG 0.24  C 
ATOM     53 O    LEU E   6      18.943 -22.956   2.855  1.00 37.54 LIG-0.27  OA
ATOM     54  N   ASP E   7      19.343 -23.557   0.695  1.00 40.21 LIG-0.35  N 
ATOM     55 H    ASP E   7      19.824 -23.494  -0.016  1.00 40.21 LIG 0.16  HD
BRANCH 54 56
ATOM     56  CA  ASP E   7      18.128 -24.354   0.514  1.00 48.33 LIG 0.17  C 
BRANCH 56 57
ATOM     57  CB  ASP E   7      17.112 -23.566  -0.297  1.00 51.73 LIG 0.15  C 
BRANCH 57 58
ATOM     58  CG  ASP E   7      15.773 -24.274  -0.397  1.00 58.06 LIG 0.17  C 
ATOM     59 OD2  ASP E   7      15.482 -25.101   0.492  1.00 65.10 LIG-0.65  OA
ATOM     60 OD1  ASP E   7      15.005 -24.003  -1.351  1.00 65.94 LIG-0.65  OA
ENDBRANCH 57 58
ENDBRANCH 56 57
BRANCH 56 61
ATOM     61  C   ASP E   7      18.421 -25.675  -0.183  1.00 49.55 LIG 0.22  C 
ATOM     62 O    ASP E   7      19.533 -26.194  -0.080  1.00 55.15 LIG-0.29  OA
ENDBRANCH 56 61
ENDBRANCH 54 56
ENDBRANCH 47 52
ENDBRANCH 45 47
ENDBRANCH 38 43
ENDBRANCH 36 38
ENDBRANCH 1 34
BRANCH 1 63
ATOM     63  CB  LEU E   4      21.349 -16.683   0.810  1.00 22.63 LIG 0.04  C 
BRANCH 63 64
ATOM     64  CG  LEU E   4      21.848 -17.551   1.961  1.00 23.40 LIG-0.02  C 
ATOM     65  CD2 LEU E   4      20.663 -17.971   2.830  1.00 23.91 LIG 0.01  C 
ATOM     66  CD1 LEU E   4      22.904 -16.844   2.786  1.00 22.51 LIG 0.01  C 
ENDBRANCH 63 64
ENDBRANCH 1 63
TORSDOF 29
ENDMDL
MODEL 7
USER: ADFR SOLUTION from run 14
USER: SCORE 21.779066 LL:  -7.299 LR: -18.612 RR:   0.000 FEB:  -9.961
USER: RMSD 4.872577
USER: SEED 640755
USER: STATUS 1 or 2 clusters left
USER: GENES 31
USER: genes 0 Translation |==|  0.56684 0.64472 0.59462
USER: genes 1 Rotation |==|  0.38567 0.54242 0.48604 0.98470
USER: genes 2 Torsion [CB]-CA--N-[C] |==|  0.23483
USER: genes 3 Torsion [N]-C--CA-[N] |==|  0.93023
USER: genes 4 Torsion [C]-CA--N-[C] |==|  0.80691
USER: genes 5 Torsion [N]-C--CA-[N] |==|  0.79337
USER: genes 6 Torsion [C]-CA--N-[C] |==|  0.69357
USER: genes 7 Torsion [N]-C--CA-[N] |==|  0.41439
USER: genes 8 Torsion [C]-CA--N-[H3] |==|  0.14127
USER: genes 9 Torsion [C]-CA--CB-[CG] |==|  0.48061
USER: genes 10 Torsion [CA]-CB--CG-[CD] |==|  0.23538
USER: genes 11 Torsion [CB]-CG--CD-[OE2] |==|  0.35765
USER: genes 12 Torsion [C]-CA--CB-[CG2] |==|  0.14436
USER: genes 13 Torsion [CA]-CB--OG1-[HG1] |==|  0.20983
USER: genes 14 Torsion [C]-CA--CB-[CG] |==|  0.39116
USER: genes 15 Torsion [CA]-CB--CG-[CD2] |==|  0.80713
USER: genes 16 Torsion [N]-CA--C-[N] |==|  0.34532
USER: genes 17 Torsion [C]-N--CA-[CB] |==|  0.45000
USER: genes 18 Torsion [N]-CA--CB-[CG] |==|  0.40089
USER: genes 19 Torsion [CA]-CB--CG-[OD1] |==|  0.21487
USER: genes 20 Torsion [N]-CA--C-[N] |==|  0.38214
USER: genes 21 Torsion [C]-N--CA-[CB] |==|  0.37693
USER: genes 22 Torsion [N]-CA--CB-[CG] |==|  0.88139
USER: genes 23 Torsion [CA]-CB--CG-[CD2] |==|  0.83292
USER: genes 24 Torsion [N]-CA--C-[N] |==|  0.94334
USER: genes 25 Torsion [C]-N--CA-[CB] |==|  0.39461
USER: genes 26 Torsion [N]-CA--CB-[CG] |==|  0.60824
USER: genes 27 Torsion [CA]-CB--CG-[OD2] |==|  0.45688
USER: genes 28 Torsion [N]-CA--C-[O] |==|  0.31743
USER: genes 29 Torsion [N]-CA--CB-[CG] |==|  0.42207
USER: genes 30 Torsion [CA]-CB--CG-[CD2] |==|  0.48598
ROOT
ATOM      1  CA  LEU E   4      21.137 -17.237  -0.598  1.00 22.51 LIG 0.18  C 
ENDROOT
BRANCH 1 2
ATOM      2  N   LEU E   4      19.856 -17.041  -1.227  1.00 20.57 LIG-0.35  N 
ATOM      3  C   LEU E   3      19.538 -15.974  -1.955  1.00 20.37 LIG 0.24  C 
ATOM      4 O    LEU E   3      20.295 -15.008  -2.134  1.00 19.26 LIG-0.27  OA
ATOM      5 H    LEU E   4      19.306 -17.687  -1.086  1.00 20.57 LIG 0.16  HD
BRANCH 3 6
ATOM      6  CA  LEU E   3      18.122 -15.933  -2.537  1.00 20.55 LIG 0.18  C 
BRANCH 6 7
ATOM      7  N   LEU E   3      17.477 -17.208  -2.739  1.00 20.86 LIG-0.35  N 
ATOM      8  C   THR E   2      17.909 -18.038  -3.684  1.00 24.34 LIG 0.24  C 
ATOM      9 O    THR E   2      18.968 -17.856  -4.300  1.00 23.87 LIG-0.27  OA
ATOM     10 H    LEU E   3      16.817 -17.369  -2.211  1.00 20.86 LIG 0.16  HD
BRANCH 8 11
ATOM     11  CA  THR E   2      17.043 -19.238  -3.971  1.00 25.18 LIG 0.20  C 
BRANCH 11 12
ATOM     12  N   THR E   2      17.207 -20.195  -2.871  1.00 26.55 LIG-0.34  N 
ATOM     13  C   GLU E   1      17.835 -21.355  -3.025  1.00 27.17 LIG 0.25  C 
ATOM     14 O    GLU E   1      18.218 -21.782  -4.121  1.00 25.74 LIG-0.27  OA
ATOM     15 H    THR E   2      16.862 -19.937  -2.127  1.00 26.55 LIG 0.16  HD
BRANCH 13 16
ATOM     16  CA  GLU E   1      18.022 -22.204  -1.767  1.00 31.71 LIG 0.28  C 
BRANCH 16 17
ATOM     17  N   GLU E   1      18.010 -23.622  -2.184  1.00 33.09 LIG-0.07  N 
ATOM     18 H3   GLU E   1      18.582 -23.740  -2.855  1.00 33.09 LIG 0.28  HD
ATOM     19 H2   GLU E   1      17.191 -23.846  -2.452  1.00 33.09 LIG 0.28  HD
ATOM     20 H1   GLU E   1      18.248 -24.136  -1.498  1.00 33.09 LIG 0.28  HD
ENDBRANCH 16 17
BRANCH 16 21
ATOM     21  CB  GLU E   1      19.348 -21.852  -1.077  1.00 32.36 LIG 0.05  C 
BRANCH 21 22
ATOM     22  CG  GLU E   1      19.521 -22.536   0.269  1.00 32.63 LIG 0.12  C 
BRANCH 22 23
ATOM     23  CD  GLU E   1      20.088 -23.948   0.184  1.00 33.25 LIG 0.17  C 
ATOM     24 OE2  GLU E   1      21.076 -24.232   0.899  1.00 34.04 LIG-0.65  OA
ATOM     25 OE1  GLU E   1      19.567 -24.779  -0.588  1.00 33.29 LIG-0.65  OA
ENDBRANCH 22 23
ENDBRANCH 21 22
ENDBRANCH 16 21
ENDBRANCH 13 16
ENDBRANCH 11 12
BRANCH 11 26
ATOM     26  CB  THR E   2      15.573 -18.813  -4.132  1.00 27.29 LIG 0.15  C 
ATOM     27  CG2 THR E   2      15.458 -17.710  -5.121  1.00 26.73 LIG 0.04  C 
BRANCH 26 28
ATOM     28 OG1  THR E   2      14.829 -19.943  -4.607  1.00 28.79 LIG-0.39  OA
ATOM     29 HG1  THR E   2      14.708 -20.484  -3.977  1.00 28.79 LIG 0.21  HD
ENDBRANCH 26 28
ENDBRANCH 11 26
ENDBRANCH 8 11
ENDBRANCH 6 7
BRANCH 6 30
ATOM     30  CB  LEU E   3      17.221 -15.048  -1.652  1.00 20.98 LIG 0.04  C 
BRANCH 30 31
ATOM     31  CG  LEU E   3      16.222 -14.159  -2.370  1.00 22.16 LIG-0.02  C 
ATOM     32  CD2 LEU E   3      16.852 -13.025  -3.136  1.00 24.43 LIG 0.01  C 
ATOM     33  CD1 LEU E   3      15.222 -13.646  -1.351  1.00 21.08 LIG 0.01  C 
ENDBRANCH 30 31
ENDBRANCH 6 30
ENDBRANCH 3 6
ENDBRANCH 1 2
BRANCH 1 34
ATOM     34  C   LEU E   4      21.327 -18.741  -0.407  1.00 22.59 LIG 0.24  C 
ATOM     35 O    LEU E   4      20.483 -19.395   0.192  1.00 22.01 LIG-0.27  OA
ATOM     36  N   ASP E   5      22.423 -19.270  -0.936  1.00 23.28 LIG-0.35  N 
ATOM     37 H    ASP E   5      22.994 -18.822  -1.397  1.00 23.28 LIG 0.16  HD
BRANCH 36 38
ATOM     38  CA  ASP E   5      22.764 -20.704  -0.774  1.00 26.12 LIG 0.19  C 
BRANCH 38 39
ATOM     39  CB  ASP E   5      23.791 -21.122  -1.818  1.00 27.88 LIG 0.15  C 
BRANCH 39 40
ATOM     40  CG  ASP E   5      24.807 -22.155  -1.291  1.00 30.83 LIG 0.17  C 
ATOM     41 OD1  ASP E   5      24.497 -23.355  -1.171  1.00 34.24 LIG-0.65  OA
ATOM     42 OD2  ASP E   5      25.933 -21.725  -1.006  1.00 35.63 LIG-0.65  OA
ENDBRANCH 39 40
ENDBRANCH 38 39
BRANCH 38 43
ATOM     43  C   ASP E   5      23.314 -20.919   0.623  1.00 25.92 LIG 0.24  C 
ATOM     44 O    ASP E   5      24.082 -20.087   1.126  1.00 27.30 LIG-0.27  OA
ATOM     45  N   LEU E   6      22.889 -22.000   1.257  1.00 28.24 LIG-0.35  N 
ATOM     46 H    LEU E   6      22.339 -22.568   0.918  1.00 28.24 LIG 0.16  HD
BRANCH 45 47
ATOM     47  CA  LEU E   6      23.331 -22.330   2.624  1.00 31.78 LIG 0.18  C 
BRANCH 47 48
ATOM     48  CB  LEU E   6      22.142 -22.778   3.491  1.00 30.53 LIG 0.04  C 
BRANCH 48 49
ATOM     49  CG  LEU E   6      20.879 -21.929   3.310  1.00 30.12 LIG-0.02  C 
ATOM     50  CD1 LEU E   6      19.706 -22.473   4.107  1.00 29.14 LIG 0.01  C 
ATOM     51  CD2 LEU E   6      21.142 -20.469   3.674  1.00 31.89 LIG 0.01  C 
ENDBRANCH 48 49
ENDBRANCH 47 48
BRANCH 47 52
ATOM     52  C   LEU E   6      24.425 -23.397   2.644  1.00 36.88 LIG 0.24  C 
ATOM     53 O    LEU E   6      25.154 -23.494   3.643  1.00 37.54 LIG-0.27  OA
ATOM     54  N   ASP E   7      24.535 -24.167   1.558  1.00 40.21 LIG-0.35  N 
ATOM     55 H    ASP E   7      23.972 -24.144   0.908  1.00 40.21 LIG 0.16  HD
BRANCH 54 56
ATOM     56  CA  ASP E   7      25.622 -25.126   1.359  1.00 48.33 LIG 0.17  C 
BRANCH 56 57
ATOM     57  CB  ASP E   7      25.086 -26.379   0.686  1.00 51.73 LIG 0.15  C 
BRANCH 57 58
ATOM     58  CG  ASP E   7      25.713 -27.648   1.236  1.00 58.06 LIG 0.17  C 
ATOM     59 OD2  ASP E   7      25.153 -28.734   0.982  1.00 65.10 LIG-0.65  OA
ATOM     60 OD1  ASP E   7      26.767 -27.569   1.912  1.00 65.94 LIG-0.65  OA
ENDBRANCH 57 58
ENDBRANCH 56 57
BRANCH 56 61
ATOM     61  C   ASP E   7      26.746 -24.538   0.518  1.00 49.55 LIG 0.22  C 
ATOM     62 O    ASP E   7      27.856 -24.351   1.015  1.00 55.15 LIG-0.29  OA
ENDBRANCH 56 61
ENDBRANCH 54 56
ENDBRANCH 47 52
ENDBRANCH 45 47
ENDBRANCH 38 43
ENDBRANCH 36 38
ENDBRANCH 1 34
BRANCH 1 63
ATOM     63  CB  LEU E   4      21.167 -16.526   0.759  1.00 22.63 LIG 0.04  C 
BRANCH 63 64
ATOM     64  CG  LEU E   4      22.060 -17.046   1.881  1.00 23.40 LIG-0.02  C 
ATOM     65  CD2 LEU E   4      21.994 -16.088   3.070  1.00 23.91 LIG 0.01  C 
ATOM     66  CD1 LEU E   4      23.491 -17.243   1.421  1.00 22.51 LIG 0.01  C 
ENDBRANCH 63 64
ENDBRANCH 1 63
TORSDOF 29
ENDMDL
MODEL 8
USER: ADFR SOLUTION from run 11
USER: SCORE 21.833813 LL:  -6.685 LR: -18.556 RR:   0.000 FEB:  -9.905
USER: RMSD 4.943563
USER: SEED 139785
USER: STATUS searching
USER: GENES 31
USER: genes 0 Translation |==|  0.55980 0.64865 0.57907
USER: genes 1 Rotation |==|  0.39269 0.55433 0.48777 0.98516
USER: genes 2 Torsion [CB]-CA--N-[C] |==|  0.21990
USER: genes 3 Torsion [N]-C--CA-[N] |==|  0.90092
USER: genes 4 Torsion [C]-CA--N-[C] |==|  0.83901
USER: genes 5 Torsion [N]-C--CA-[N] |==|  0.71247
USER: genes 6 Torsion [C]-CA--N-[C] |==|  0.15115
USER: genes 7 Torsion [N]-C--CA-[N] |==|  0.36856
USER: genes 8 Torsion [C]-CA--N-[H3] |==|  0.09523
USER: genes 9 Torsion [C]-CA--CB-[CG] |==|  0.22654
USER: genes 10 Torsion [CA]-CB--CG-[CD] |==|  0.57329
USER: genes 11 Torsion [CB]-CG--CD-[OE2] |==|  0.38028
USER: genes 12 Torsion [C]-CA--CB-[CG2] |==|  0.24035
USER: genes 13 Torsion [CA]-CB--OG1-[HG1] |==|  0.50253
USER: genes 14 Torsion [C]-CA--CB-[CG] |==|  0.30390
USER: genes 15 Torsion [CA]-CB--CG-[CD2] |==|  0.34368
USER: genes 16 Torsion [N]-CA--C-[N] |==|  0.41400
USER: genes 17 Torsion [C]-N--CA-[CB] |==|  0.53355
USER: genes 18 Torsion [N]-CA--CB-[CG] |==|  0.53303
USER: genes 19 Torsion [CA]-CB--CG-[OD1] |==|  0.87176
USER: genes 20 Torsion [N]-CA--C-[N] |==|  0.36301
USER: genes 21 Torsion [C]-N--CA-[CB] |==|  0.51667
USER: genes 22 Torsion [N]-CA--CB-[CG] |==|  0.78733
USER: genes 23 Torsion [CA]-CB--CG-[CD2] |==|  0.79604
USER: genes 24 Torsion [N]-CA--C-[N] |==|  0.87513
USER: genes 25 Torsion [C]-N--CA-[CB] |==|  0.48489
USER: genes 26 Torsion [N]-CA--CB-[CG] |==|  0.54224
USER: genes 27 Torsion [CA]-CB--CG-[OD2] |==|  0.35685
USER: genes 28 Torsion [N]-CA--C-[O] |==|  0.89365
USER: genes 29 Torsion [N]-CA--CB-[CG] |==|  0.36984
USER: genes 30 Torsion [CA]-CB--CG-[CD2] |==|  0.73977
ROOT
ATOM      1  CA  LEU E   4      20.973 -17.146  -0.913  1.00 22.51 LIG 0.18  C 
ENDROOT
BRANCH 1 2
ATOM      2  N   LEU E   4      19.666 -16.923  -1.475  1.00 20.57 LIG-0.35  N 
ATOM      3  C   LEU E   3      19.291 -15.792  -2.067  1.00 20.37 LIG 0.24  C 
ATOM      4 O    LEU E   3      20.011 -14.787  -2.157  1.00 19.26 LIG-0.27  OA
ATOM      5 H    LEU E   4      19.141 -17.600  -1.392  1.00 20.57 LIG 0.16  HD
BRANCH 3 6
ATOM      6  CA  LEU E   3      17.855 -15.735  -2.595  1.00 20.55 LIG 0.18  C 
BRANCH 6 7
ATOM      7  N   LEU E   3      17.324 -16.961  -3.141  1.00 20.86 LIG-0.35  N 
ATOM      8  C   THR E   2      17.937 -17.567  -4.154  1.00 24.34 LIG 0.24  C 
ATOM      9 O    THR E   2      19.061 -17.230  -4.553  1.00 23.87 LIG-0.27  OA
ATOM     10 H    LEU E   3      16.606 -17.246  -2.762  1.00 20.86 LIG 0.16  HD
BRANCH 8 11
ATOM     11  CA  THR E   2      17.197 -18.709  -4.800  1.00 25.18 LIG 0.20  C 
BRANCH 11 12
ATOM     12  N   THR E   2      17.797 -19.966  -4.337  1.00 26.55 LIG-0.34  N 
ATOM     13  C   GLU E   1      17.931 -20.258  -3.048  1.00 27.17 LIG 0.25  C 
ATOM     14 O    GLU E   1      17.684 -19.457  -2.139  1.00 25.74 LIG-0.27  OA
ATOM     15 H    THR E   2      18.050 -20.488  -4.972  1.00 26.55 LIG 0.16  HD
BRANCH 13 16
ATOM     16  CA  GLU E   1      18.475 -21.647  -2.715  1.00 31.71 LIG 0.28  C 
BRANCH 16 17
ATOM     17  N   GLU E   1      19.537 -21.475  -1.701  1.00 33.09 LIG-0.07  N 
ATOM     18 H3   GLU E   1      19.327 -20.799  -1.162  1.00 33.09 LIG 0.28  HD
ATOM     19 H2   GLU E   1      20.310 -21.301  -2.106  1.00 33.09 LIG 0.28  HD
ATOM     20 H1   GLU E   1      19.615 -22.221  -1.222  1.00 33.09 LIG 0.28  HD
ENDBRANCH 16 17
BRANCH 16 21
ATOM     21  CB  GLU E   1      17.352 -22.547  -2.179  1.00 32.36 LIG 0.05  C 
BRANCH 21 22
ATOM     22  CG  GLU E   1      16.502 -23.162  -3.280  1.00 32.63 LIG 0.12  C 
BRANCH 22 23
ATOM     23  CD  GLU E   1      15.081 -23.506  -2.852  1.00 33.25 LIG 0.17  C 
ATOM     24 OE2  GLU E   1      14.144 -23.226  -3.635  1.00 34.04 LIG-0.65  OA
ATOM     25 OE1  GLU E   1      14.881 -24.046  -1.745  1.00 33.29 LIG-0.65  OA
ENDBRANCH 22 23
ENDBRANCH 21 22
ENDBRANCH 16 21
ENDBRANCH 13 16
ENDBRANCH 11 12
BRANCH 11 26
ATOM     26  CB  THR E   2      15.699 -18.641  -4.455  1.00 27.29 LIG 0.15  C 
ATOM     27  CG2 THR E   2      14.984 -17.766  -5.421  1.00 26.73 LIG 0.04  C 
BRANCH 26 28
ATOM     28 OG1  THR E   2      15.158 -19.967  -4.542  1.00 28.79 LIG-0.39  OA
ATOM     29 HG1  THR E   2      14.337 -19.946  -4.369  1.00 28.79 LIG 0.21  HD
ENDBRANCH 26 28
ENDBRANCH 11 26
ENDBRANCH 8 11
ENDBRANCH 6 7
BRANCH 6 30
ATOM     30  CB  LEU E   3      16.911 -15.229  -1.486  1.00 20.98 LIG 0.04  C 
BRANCH 30 31
ATOM     31  CG  LEU E   3      16.335 -13.836  -1.663  1.00 22.16 LIG-0.02  C 
ATOM     32  CD2 LEU E   3      14.829 -13.788  -1.634  1.00 24.43 LIG 0.01  C 
ATOM     33  CD1 LEU E   3      16.879 -13.256  -2.956  1.00 21.08 LIG 0.01  C 
ENDBRANCH 30 31
ENDBRANCH 6 30
ENDBRANCH 3 6
ENDBRANCH 1 2
BRANCH 1 34
ATOM     34  C   LEU E   4      21.161 -18.656  -0.776  1.00 22.59 LIG 0.24  C 
ATOM     35 O    LEU E   4      20.193 -19.379  -0.582  1.00 22.01 LIG-0.27  OA
ATOM     36  N   ASP E   5      22.402 -19.110  -0.897  1.00 23.28 LIG-0.35  N 
ATOM     37 H    ASP E   5      23.077 -18.610  -1.079  1.00 23.28 LIG 0.16  HD
BRANCH 36 38
ATOM     38  CA  ASP E   5      22.736 -20.545  -0.725  1.00 26.12 LIG 0.19  C 
BRANCH 38 39
ATOM     39  CB  ASP E   5      24.245 -20.725  -0.625  1.00 27.88 LIG 0.15  C 
BRANCH 39 40
ATOM     40  CG  ASP E   5      24.690 -22.197  -0.737  1.00 30.83 LIG 0.17  C 
ATOM     41 OD1  ASP E   5      24.111 -23.093  -0.097  1.00 34.24 LIG-0.65  OA
ATOM     42 OD2  ASP E   5      25.641 -22.429  -1.497  1.00 35.63 LIG-0.65  OA
ENDBRANCH 39 40
ENDBRANCH 38 39
BRANCH 38 43
ATOM     43  C   ASP E   5      22.059 -21.055   0.532  1.00 25.92 LIG 0.24  C 
ATOM     44 O    ASP E   5      22.129 -20.407   1.586  1.00 27.30 LIG-0.27  OA
ATOM     45  N   LEU E   6      21.374 -22.182   0.410  1.00 28.24 LIG-0.35  N 
ATOM     46 H    LEU E   6      21.306 -22.621  -0.326  1.00 28.24 LIG 0.16  HD
BRANCH 45 47
ATOM     47  CA  LEU E   6      20.656 -22.788   1.544  1.00 31.78 LIG 0.18  C 
BRANCH 47 48
ATOM     48  CB  LEU E   6      20.075 -24.159   1.156  1.00 30.53 LIG 0.04  C 
BRANCH 48 49
ATOM     49  CG  LEU E   6      18.812 -24.083   0.293  1.00 30.12 LIG-0.02  C 
ATOM     50  CD1 LEU E   6      18.522 -25.396  -0.412  1.00 29.14 LIG 0.01  C 
ATOM     51  CD2 LEU E   6      17.606 -23.643   1.122  1.00 31.89 LIG 0.01  C 
ENDBRANCH 48 49
ENDBRANCH 47 48
BRANCH 47 52
ATOM     52  C   LEU E   6      21.534 -22.924   2.788  1.00 36.88 LIG 0.24  C 
ATOM     53 O    LEU E   6      21.075 -22.588   3.890  1.00 37.54 LIG-0.27  OA
ATOM     54  N   ASP E   7      22.769 -23.399   2.602  1.00 40.21 LIG-0.35  N 
ATOM     55 H    ASP E   7      23.046 -23.706   1.848  1.00 40.21 LIG 0.16  HD
BRANCH 54 56
ATOM     56  CA  ASP E   7      23.779 -23.446   3.661  1.00 48.33 LIG 0.17  C 
BRANCH 56 57
ATOM     57  CB  ASP E   7      25.021 -24.161   3.155  1.00 51.73 LIG 0.15  C 
BRANCH 57 58
ATOM     58  CG  ASP E   7      25.953 -24.573   4.280  1.00 58.06 LIG 0.17  C 
ATOM     59 OD2  ASP E   7      26.334 -25.761   4.318  1.00 65.10 LIG-0.65  OA
ATOM     60 OD1  ASP E   7      26.318 -23.716   5.121  1.00 65.94 LIG-0.65  OA
ENDBRANCH 57 58
ENDBRANCH 56 57
BRANCH 56 61
ATOM     61  C   ASP E   7      24.155 -22.052   4.142  1.00 49.55 LIG 0.22  C 
ATOM     62 O    ASP E   7      24.246 -21.125   3.338  1.00 55.15 LIG-0.29  OA
ENDBRANCH 56 61
ENDBRANCH 54 56
ENDBRANCH 47 52
ENDBRANCH 45 47
ENDBRANCH 38 43
ENDBRANCH 36 38
ENDBRANCH 1 34
BRANCH 1 63
ATOM     63  CB  LEU E   4      21.072 -16.476   0.462  1.00 22.63 LIG 0.04  C 
BRANCH 63 64
ATOM     64  CG  LEU E   4      21.654 -17.236   1.649  1.00 23.40 LIG-0.02  C 
ATOM     65  CD2 LEU E   4      20.522 -17.902   2.431  1.00 23.91 LIG 0.01  C 
ATOM     66  CD1 LEU E   4      22.479 -16.337   2.548  1.00 22.51 LIG 0.01  C 
ENDBRANCH 63 64
ENDBRANCH 1 63
TORSDOF 29
ENDMDL
MODEL 9
USER: ADFR SOLUTION from run 136
USER: SCORE 22.130277 LL:  -6.205 LR: -18.550 RR:   0.000 FEB:  -9.899
USER: RMSD 3.860951
USER: SEED 135
USER: STATUS searching
USER: GENES 31
USER: genes 0 Translation |==|  0.56516 0.65053 0.59464
USER: genes 1 Rotation |==|  0.38943 0.55553 0.48361 0.98417
USER: genes 2 Torsion [CB]-CA--N-[C] |==|  0.23847
USER: genes 3 Torsion [N]-C--CA-[N] |==|  0.92799
USER: genes 4 Torsion [C]-CA--N-[C] |==|  0.78740
USER: genes 5 Torsion [N]-C--CA-[N] |==|  0.36880
USER: genes 6 Torsion [C]-CA--N-[C] |==|  0.65004
USER: genes 7 Torsion [N]-C--CA-[N] |==|  0.70049
USER: genes 8 Torsion [C]-CA--N-[H3] |==|  0.18838
USER: genes 9 Torsion [C]-CA--CB-[CG] |==|  0.68366
USER: genes 10 Torsion [CA]-CB--CG-[CD] |==|  0.20245
USER: genes 11 Torsion [CB]-CG--CD-[OE2] |==|  0.80572
USER: genes 12 Torsion [C]-CA--CB-[CG2] |==|  0.05337
USER: genes 13 Torsion [CA]-CB--OG1-[HG1] |==|  0.52837
USER: genes 14 Torsion [C]-CA--CB-[CG] |==|  0.32792
USER: genes 15 Torsion [CA]-CB--CG-[CD2] |==|  0.36644
USER: genes 16 Torsion [N]-CA--C-[N] |==|  0.41798
USER: genes 17 Torsion [C]-N--CA-[CB] |==|  0.53169
USER: genes 18 Torsion [N]-CA--CB-[CG] |==|  0.54774
USER: genes 19 Torsion [CA]-CB--CG-[OD1] |==|  0.86718
USER: genes 20 Torsion [N]-CA--C-[N] |==|  0.34026
USER: genes 21 Torsion [C]-N--CA-[CB] |==|  0.56164
USER: genes 22 Torsion [N]-CA--CB-[CG] |==|  0.82787
USER: genes 23 Torsion [CA]-CB--CG-[CD2] |==|  0.76665
USER: genes 24 Torsion [N]-CA--C-[N] |==|  0.84513
USER: genes 25 Torsion [C]-N--CA-[CB] |==|  0.39705
USER: genes 26 Torsion [N]-CA--CB-[CG] |==|  0.33579
USER: genes 27 Torsion [CA]-CB--CG-[OD2] |==|  0.74492
USER: genes 28 Torsion [N]-CA--C-[O] |==|  0.18849
USER: genes 29 Torsion [N]-CA--CB-[CG] |==|  0.37352
USER: genes 30 Torsion [CA]-CB--CG-[CD2] |==|  0.74711
ROOT
ATOM      1  CA  LEU E   4      21.098 -17.102  -0.597  1.00 22.51 LIG 0.18  C 
ENDROOT
BRANCH 1 2
ATOM      2  N   LEU E   4      19.794 -16.867  -1.161  1.00 20.57 LIG-0.35  N 
ATOM      3  C   LEU E   3      19.472 -15.794  -1.879  1.00 20.37 LIG 0.24  C 
ATOM      4 O    LEU E   3      20.250 -14.854  -2.103  1.00 19.26 LIG-0.27  OA
ATOM      5 H    LEU E   4      19.231 -17.495  -0.988  1.00 20.57 LIG 0.16  HD
BRANCH 3 6
ATOM      6  CA  LEU E   3      18.030 -15.711  -2.387  1.00 20.55 LIG 0.18  C 
BRANCH 6 7
ATOM      7  N   LEU E   3      17.340 -16.966  -2.563  1.00 20.86 LIG-0.35  N 
ATOM      8  C   THR E   2      17.605 -17.736  -3.616  1.00 24.34 LIG 0.24  C 
ATOM      9 O    THR E   2      18.556 -17.521  -4.379  1.00 23.87 LIG-0.27  OA
ATOM     10 H    LEU E   3      16.769 -17.157  -1.949  1.00 20.86 LIG 0.16  HD
BRANCH 8 11
ATOM     11  CA  THR E   2      16.686 -18.909  -3.837  1.00 25.18 LIG 0.20  C 
BRANCH 11 12
ATOM     12  N   THR E   2      16.296 -18.927  -5.251  1.00 26.55 LIG-0.34  N 
ATOM     13  C   GLU E   1      15.026 -18.950  -5.639  1.00 27.17 LIG 0.25  C 
ATOM     14 O    GLU E   1      14.078 -19.085  -4.857  1.00 25.74 LIG-0.27  OA
ATOM     15 H    THR E   2      16.960 -18.923  -5.798  1.00 26.55 LIG 0.16  HD
BRANCH 13 16
ATOM     16  CA  GLU E   1      14.768 -18.859  -7.143  1.00 31.71 LIG 0.28  C 
BRANCH 16 17
ATOM     17  N   GLU E   1      14.218 -17.514  -7.417  1.00 33.09 LIG-0.07  N 
ATOM     18 H3   GLU E   1      14.845 -16.900  -7.271  1.00 33.09 LIG 0.28  HD
ATOM     19 H2   GLU E   1      13.524 -17.362  -6.880  1.00 33.09 LIG 0.28  HD
ATOM     20 H1   GLU E   1      13.951 -17.469  -8.265  1.00 33.09 LIG 0.28  HD
ENDBRANCH 16 17
BRANCH 16 21
ATOM     21  CB  GLU E   1      16.072 -19.081  -7.923  1.00 32.36 LIG 0.05  C 
BRANCH 21 22
ATOM     22  CG  GLU E   1      16.534 -17.846  -8.678  1.00 32.63 LIG 0.12  C 
BRANCH 22 23
ATOM     23  CD  GLU E   1      17.101 -16.746  -7.789  1.00 33.25 LIG 0.17  C 
ATOM     24 OE2  GLU E   1      16.310 -16.122  -7.045  1.00 34.04 LIG-0.65  OA
ATOM     25 OE1  GLU E   1      18.321 -16.488  -7.824  1.00 33.29 LIG-0.65  OA
ENDBRANCH 22 23
ENDBRANCH 21 22
ENDBRANCH 16 21
ENDBRANCH 13 16
ENDBRANCH 11 12
BRANCH 11 26
ATOM     26  CB  THR E   2      17.382 -20.220  -3.429  1.00 27.29 LIG 0.15  C 
ATOM     27  CG2 THR E   2      18.532 -19.939  -2.530  1.00 26.73 LIG 0.04  C 
BRANCH 26 28
ATOM     28 OG1  THR E   2      16.432 -21.033  -2.727  1.00 28.79 LIG-0.39  OA
ATOM     29 HG1  THR E   2      16.827 -21.687  -2.377  1.00 28.79 LIG 0.21  HD
ENDBRANCH 26 28
ENDBRANCH 11 26
ENDBRANCH 8 11
ENDBRANCH 6 7
BRANCH 6 30
ATOM     30  CB  LEU E   3      17.200 -14.809  -1.451  1.00 20.98 LIG 0.04  C 
BRANCH 30 31
ATOM     31  CG  LEU E   3      16.606 -13.554  -2.064  1.00 22.16 LIG-0.02  C 
ATOM     32  CD2 LEU E   3      15.148 -13.349  -1.748  1.00 24.43 LIG 0.01  C 
ATOM     33  CD1 LEU E   3      16.845 -13.596  -3.562  1.00 21.08 LIG 0.01  C 
ENDBRANCH 30 31
ENDBRANCH 6 30
ENDBRANCH 3 6
ENDBRANCH 1 2
BRANCH 1 34
ATOM     34  C   LEU E   4      21.262 -18.613  -0.438  1.00 22.59 LIG 0.24  C 
ATOM     35 O    LEU E   4      20.280 -19.321  -0.257  1.00 22.01 LIG-0.27  OA
ATOM     36  N   ASP E   5      22.499 -19.085  -0.525  1.00 23.28 LIG-0.35  N 
ATOM     37 H    ASP E   5      23.185 -18.596  -0.697  1.00 23.28 LIG 0.16  HD
BRANCH 36 38
ATOM     38  CA  ASP E   5      22.810 -20.522  -0.328  1.00 26.12 LIG 0.19  C 
BRANCH 38 39
ATOM     39  CB  ASP E   5      24.315 -20.722  -0.207  1.00 27.88 LIG 0.15  C 
BRANCH 39 40
ATOM     40  CG  ASP E   5      24.752 -22.185  -0.422  1.00 30.83 LIG 0.17  C 
ATOM     41 OD1  ASP E   5      24.170 -23.121   0.158  1.00 34.24 LIG-0.65  OA
ATOM     42 OD2  ASP E   5      25.698 -22.369  -1.200  1.00 35.63 LIG-0.65  OA
ENDBRANCH 39 40
ENDBRANCH 38 39
BRANCH 38 43
ATOM     43  C   ASP E   5      22.111 -21.003   0.929  1.00 25.92 LIG 0.24  C 
ATOM     44 O    ASP E   5      22.300 -20.426   2.008  1.00 27.30 LIG-0.27  OA
ATOM     45  N   LEU E   6      21.278 -22.021   0.779  1.00 28.24 LIG-0.35  N 
ATOM     46 H    LEU E   6      21.129 -22.409   0.026  1.00 28.24 LIG 0.16  HD
BRANCH 45 47
ATOM     47  CA  LEU E   6      20.521 -22.586   1.910  1.00 31.78 LIG 0.18  C 
BRANCH 47 48
ATOM     48  CB  LEU E   6      20.086 -24.031   1.611  1.00 30.53 LIG 0.04  C 
BRANCH 48 49
ATOM     49  CG  LEU E   6      19.148 -24.167   0.408  1.00 30.12 LIG-0.02  C 
ATOM     50  CD1 LEU E   6      19.278 -25.521  -0.268  1.00 29.14 LIG 0.01  C 
ATOM     51  CD2 LEU E   6      17.697 -23.907   0.811  1.00 31.89 LIG 0.01  C 
ENDBRANCH 48 49
ENDBRANCH 47 48
BRANCH 47 52
ATOM     52  C   LEU E   6      21.304 -22.535   3.222  1.00 36.88 LIG 0.24  C 
ATOM     53 O    LEU E   6      20.805 -21.961   4.201  1.00 37.54 LIG-0.27  OA
ATOM     54  N   ASP E   7      22.506 -23.118   3.227  1.00 40.21 LIG-0.35  N 
ATOM     55 H    ASP E   7      22.805 -23.584   2.569  1.00 40.21 LIG 0.16  HD
BRANCH 54 56
ATOM     56  CA  ASP E   7      23.440 -23.025   4.351  1.00 48.33 LIG 0.17  C 
BRANCH 56 57
ATOM     57  CB  ASP E   7      24.172 -24.346   4.522  1.00 51.73 LIG 0.15  C 
BRANCH 57 58
ATOM     58  CG  ASP E   7      25.678 -24.196   4.398  1.00 58.06 LIG 0.17  C 
ATOM     59 OD2  ASP E   7      26.190 -24.352   3.270  1.00 65.10 LIG-0.65  OA
ATOM     60 OD1  ASP E   7      26.353 -23.912   5.417  1.00 65.94 LIG-0.65  OA
ENDBRANCH 57 58
ENDBRANCH 56 57
BRANCH 56 61
ATOM     61  C   ASP E   7      24.450 -21.904   4.153  1.00 49.55 LIG 0.22  C 
ATOM     62 O    ASP E   7      24.081 -20.730   4.174  1.00 55.15 LIG-0.29  OA
ENDBRANCH 56 61
ENDBRANCH 54 56
ENDBRANCH 47 52
ENDBRANCH 45 47
ENDBRANCH 38 43
ENDBRANCH 36 38
ENDBRANCH 1 34
BRANCH 1 63
ATOM     63  CB  LEU E   4      21.210 -16.413   0.767  1.00 22.63 LIG 0.04  C 
BRANCH 63 64
ATOM     64  CG  LEU E   4      21.810 -17.154   1.957  1.00 23.40 LIG-0.02  C 
ATOM     65  CD2 LEU E   4      20.698 -17.869   2.724  1.00 23.91 LIG 0.01  C 
ATOM     66  CD1 LEU E   4      22.589 -16.226   2.868  1.00 22.51 LIG 0.01  C 
ENDBRANCH 63 64
ENDBRANCH 1 63
TORSDOF 29
ENDMDL
