MODEL 1
USER: ADFR SOLUTION from run 62
USER: SCORE 14.880576 LL:  -5.425 LR: -11.226 RR:   0.000 FEB:  -5.856
USER: RMSD 3.176501
USER: SEED 61
USER: STATUS no improvement in best in 9 clusters for 5 generations
USER: GENES 20
USER: genes 0 Translation |==|  0.47107 0.48658 0.47549
USER: genes 1 Rotation |==|  0.45172 0.51443 0.50099 0.99745
USER: genes 2 Torsion [N]-C--CA-[N] |==|  0.44841
USER: genes 3 Torsion [C]-CA--CB-[CG] |==|  0.56534
USER: genes 4 Torsion [CA]-CB--CG-[CD1] |==|  0.45721
USER: genes 5 Torsion [C]-CA--N-[C] |==|  0.78079
USER: genes 6 Torsion [N]-C--CA-[N] |==|  0.37222
USER: genes 7 Torsion [C]-CA--CB-[CG1] |==|  0.47884
USER: genes 8 Torsion [CA]-CB--CG1-[CD1] |==|  0.26102
USER: genes 9 Torsion [C]-CA--N-[C] |==|  0.81494
USER: genes 10 Torsion [N]-C--CA-[N] |==|  0.92013
USER: genes 11 Torsion [C]-CA--CB-[CG] |==|  0.80970
USER: genes 12 Torsion [CA]-CB--CG-[OD1] |==|  0.95214
USER: genes 13 Torsion [C]-N--CA-[CB] |==|  0.35749
USER: genes 14 Torsion [N]-CA--CB-[CG] |==|  0.40878
USER: genes 15 Torsion [CA]-CB--CG-[CD1] |==|  0.71964
USER: genes 16 Torsion [N]-CA--C-[N] |==|  0.37649
USER: genes 17 Torsion [N]-CA--C-[O] |==|  0.98510
USER: genes 18 Torsion [C]-N--CA-[C] |==|  0.77997
USER: genes 19 Torsion [N]-CA--C-[O] |==|  0.01800
ROOT
ATOM      1  C   LEU G   4      39.482   5.809  22.282  1.00 61.38 LIG 0.24  C 
ATOM      2 O    LEU G   4      39.032   5.568  21.156  1.00 52.06 LIG-0.27  OA
ATOM      3  N   PHE G   5      40.391   5.080  22.905  1.00 60.80 LIG-0.35  N 
ATOM      4 H    PHE G   5      40.708   5.286  23.677  1.00 60.80 LIG 0.16  HD
ENDROOT
BRANCH 1 5
ATOM      5  CA  LEU G   4      38.987   6.974  23.086  1.00 58.56 LIG 0.18  C 
BRANCH 5 6
ATOM      6  CB  LEU G   4      38.018   6.436  24.134  1.00 61.47 LIG 0.04  C 
BRANCH 6 7
ATOM      7  CG  LEU G   4      37.025   7.458  24.643  1.00 62.80 LIG-0.02  C 
ATOM      8  CD1 LEU G   4      35.927   6.696  25.354  1.00 63.22 LIG 0.01  C 
ATOM      9  CD2 LEU G   4      37.756   8.431  25.567  1.00 64.86 LIG 0.01  C 
ENDBRANCH 6 7
ENDBRANCH 5 6
BRANCH 5 10
ATOM     10  N   LEU G   4      38.360   7.928  22.192  1.00 59.02 LIG-0.35  N 
ATOM     11 H    LEU G   4      37.500   7.903  22.181  1.00 59.02 LIG 0.16  HD
ATOM     12  C   ILE G   3      39.102   8.759  21.460  1.00 70.10 LIG 0.24  C 
ATOM     13 O    ILE G   3      40.326   8.916  21.665  1.00 64.55 LIG-0.27  OA
BRANCH 12 14
ATOM     14  CA  ILE G   3      38.363   9.531  20.334  1.00 67.83 LIG 0.18  C 
BRANCH 14 15
ATOM     15  CB  ILE G   3      38.661   8.902  18.936  1.00 66.94 LIG 0.01  C 
ATOM     16  CG2 ILE G   3      38.459   7.387  18.976  1.00 67.41 LIG 0.01  C 
BRANCH 15 17
ATOM     17  CG1 ILE G   3      37.791   9.530  17.812  1.00 59.79 LIG 0.00  C 
ATOM     18  CD1 ILE G   3      38.460  10.668  17.087  1.00 60.74 LIG 0.01  C 
ENDBRANCH 15 17
ENDBRANCH 14 15
BRANCH 14 19
ATOM     19  N   ILE G   3      38.744  10.934  20.364  1.00 79.60 LIG-0.34  N 
ATOM     20 H    ILE G   3      39.192  11.184  19.675  1.00 79.60 LIG 0.16  HD
ATOM     21  C   ASP G   2      38.428  11.758  21.367  1.00 93.07 LIG 0.26  C 
ATOM     22 O    ASP G   2      37.707  11.430  22.311  1.00 81.24 LIG-0.27  OA
BRANCH 21 23
ATOM     23  CA  ASP G   2      39.021  13.173  21.323  1.00 93.30 LIG 0.41  C 
ATOM     24  N   ASP G   2      40.320  13.117  20.595  1.00 94.60 LIG 0.61  N 
BRANCH 23 25
ATOM     25  CB  ASP G   2      38.077  14.177  20.645  1.00 96.36 LIG 0.16  C 
BRANCH 25 26
ATOM     26  CG  ASP G   2      37.922  13.920  19.162  1.00103.24 LIG 0.17  C 
ATOM     27 OD1  ASP G   2      38.759  13.202  18.581  1.00112.85 LIG-0.65  OA
ATOM     28 OD2  ASP G   2      36.959  14.431  18.570  1.00105.87 LIG-0.65  OA
ENDBRANCH 25 26
ENDBRANCH 23 25
ENDBRANCH 21 23
ENDBRANCH 14 19
ENDBRANCH 12 14
ENDBRANCH 5 10
ENDBRANCH 1 5
BRANCH 3 29
ATOM     29  CA  PHE G   5      40.944   3.873  22.361  1.00 70.05 LIG 0.18  C 
BRANCH 29 30
ATOM     30  CB  PHE G   5      42.485   3.916  22.395  1.00 73.20 LIG 0.07  C 
BRANCH 30 31
ATOM     31  CG  PHE G   5      43.111   2.546  22.613  1.00 79.36 LIG-0.06  A 
ATOM     32  CD1 PHE G   5      43.584   2.176  23.896  1.00 85.64 LIG 0.01  A 
ATOM     33  CE1 PHE G   5      44.146   0.927  24.124  1.00 88.71 LIG 0.00  A 
ATOM     34  CZ  PHE G   5      44.236   0.018  23.066  1.00 96.11 LIG 0.00  A 
ATOM     35  CE2 PHE G   5      43.758   0.361  21.792  1.00 91.53 LIG 0.00  A 
ATOM     36  CD2 PHE G   5      43.198   1.615  21.568  1.00 81.01 LIG 0.01  A 
ENDBRANCH 30 31
ENDBRANCH 29 30
BRANCH 29 37
ATOM     37  C   PHE G   5      40.334   2.734  23.170  1.00 74.26 LIG 0.24  C 
ATOM     38  N   PRO G   6      39.891   1.661  22.477  1.00 79.01 LIG-0.34  N 
ATOM     39  CD  PRO G   6      39.825   1.588  20.993  1.00 76.17 LIG 0.13  C 
ATOM     40  CA  PRO G   6      39.129   0.578  23.119  1.00 78.34 LIG 0.18  C 
ATOM     41  CG  PRO G   6      39.339   0.205  20.734  1.00 78.03 LIG 0.02  C 
ATOM     42  CB  PRO G   6      38.459  -0.108  21.915  1.00 82.73 LIG 0.04  C 
ATOM     43 O    PHE G   5      40.180   2.863  24.391  1.00 61.78 LIG-0.27  OA
BRANCH 40 44
ATOM     44  C   PRO G   6      39.948  -0.453  23.927  1.00 77.34 LIG 0.24  C 
ATOM     45 O    PRO G   6      41.165  -0.383  23.914  1.00 92.50 LIG-0.27  OA
ATOM     46  N   ALA G   7      39.282  -1.393  24.615  1.00 74.20 LIG-0.35  N 
ATOM     47 H    ALA G   7      38.462  -1.308  24.858  1.00 74.20 LIG 0.16  HD
BRANCH 46 48
ATOM     48  CA  ALA G   7      39.903  -2.681  25.027  1.00 71.75 LIG 0.16  C 
ATOM     49  CB  ALA G   7      39.132  -3.296  26.195  1.00 70.01 LIG 0.04  C 
BRANCH 48 50
ATOM     50  C   ALA G   7      39.933  -3.660  23.831  1.00 69.94 LIG 0.22  C 
ATOM     51 O    ALA G   7      39.584  -3.275  22.686  1.00 56.97 LIG-0.29  OA
ENDBRANCH 48 50
ENDBRANCH 46 48
ENDBRANCH 40 44
ENDBRANCH 29 37
ENDBRANCH 3 29
TORSDOF 18
ENDMDL
MODEL 2
USER: ADFR SOLUTION from run 184
USER: SCORE 15.567307 LL:  -5.163 LR: -11.214 RR:   0.000 FEB:  -5.845
USER: RMSD 4.028267
USER: SEED 183
USER: STATUS searching
USER: GENES 20
USER: genes 0 Translation |==|  0.46263 0.48624 0.54699
USER: genes 1 Rotation |==|  0.43279 0.44805 0.40758 0.98398
USER: genes 2 Torsion [N]-C--CA-[N] |==|  0.52448
USER: genes 3 Torsion [C]-CA--CB-[CG] |==|  0.78780
USER: genes 4 Torsion [CA]-CB--CG-[CD1] |==|  0.40796
USER: genes 5 Torsion [C]-CA--N-[C] |==|  0.77115
USER: genes 6 Torsion [N]-C--CA-[N] |==|  0.35940
USER: genes 7 Torsion [C]-CA--CB-[CG1] |==|  0.47278
USER: genes 8 Torsion [CA]-CB--CG1-[CD1] |==|  0.25447
USER: genes 9 Torsion [C]-CA--N-[C] |==|  0.78677
USER: genes 10 Torsion [N]-C--CA-[N] |==|  0.97196
USER: genes 11 Torsion [C]-CA--CB-[CG] |==|  0.79763
USER: genes 12 Torsion [CA]-CB--CG-[OD1] |==|  0.50879
USER: genes 13 Torsion [C]-N--CA-[CB] |==|  0.14525
USER: genes 14 Torsion [N]-CA--CB-[CG] |==|  0.65084
USER: genes 15 Torsion [CA]-CB--CG-[CD1] |==|  0.86914
USER: genes 16 Torsion [N]-CA--C-[N] |==|  0.17778
USER: genes 17 Torsion [N]-CA--C-[O] |==|  0.42388
USER: genes 18 Torsion [C]-N--CA-[C] |==|  0.67581
USER: genes 19 Torsion [N]-CA--C-[O] |==|  0.97504
ROOT
ATOM      1  C   LEU G   4      39.342   5.799  23.461  1.00 61.38 LIG 0.24  C 
ATOM      2 O    LEU G   4      39.166   5.560  22.262  1.00 52.06 LIG-0.27  OA
ATOM      3  N   PHE G   5      39.732   4.912  24.360  1.00 60.80 LIG-0.35  N 
ATOM      4 H    PHE G   5      39.876   5.111  25.184  1.00 60.80 LIG 0.16  HD
ENDROOT
BRANCH 1 5
ATOM      5  CA  LEU G   4      39.084   7.162  24.032  1.00 58.56 LIG 0.18  C 
BRANCH 5 6
ATOM      6  CB  LEU G   4      38.190   6.990  25.257  1.00 61.47 LIG 0.04  C 
BRANCH 6 7
ATOM      7  CG  LEU G   4      36.738   6.717  24.932  1.00 62.80 LIG-0.02  C 
ATOM      8  CD1 LEU G   4      36.201   5.808  26.017  1.00 63.22 LIG 0.01  C 
ATOM      9  CD2 LEU G   4      35.995   8.051  24.864  1.00 64.86 LIG 0.01  C 
ENDBRANCH 6 7
ENDBRANCH 5 6
BRANCH 5 10
ATOM     10  N   LEU G   4      38.468   7.988  23.011  1.00 59.02 LIG-0.35  N 
ATOM     11 H    LEU G   4      37.611   8.042  23.057  1.00 59.02 LIG 0.16  HD
ATOM     12  C   ILE G   3      39.216   8.597  22.091  1.00 70.10 LIG 0.24  C 
ATOM     13 O    ILE G   3      40.461   8.675  22.188  1.00 64.55 LIG-0.27  OA
BRANCH 12 14
ATOM     14  CA  ILE G   3      38.457   9.212  20.885  1.00 67.83 LIG 0.18  C 
BRANCH 14 15
ATOM     15  CB  ILE G   3      38.692   8.373  19.589  1.00 66.94 LIG 0.01  C 
ATOM     16  CG2 ILE G   3      38.508   6.882  19.876  1.00 67.41 LIG 0.01  C 
BRANCH 15 17
ATOM     17  CG1 ILE G   3      37.761   8.814  18.426  1.00 59.79 LIG 0.00  C 
ATOM     18  CD1 ILE G   3      38.359   9.868  17.532  1.00 60.74 LIG 0.01  C 
ENDBRANCH 15 17
ENDBRANCH 14 15
BRANCH 14 19
ATOM     19  N   ILE G   3      38.873  10.593  20.692  1.00 79.60 LIG-0.34  N 
ATOM     20 H    ILE G   3      39.417  10.700  20.035  1.00 79.60 LIG 0.16  HD
ATOM     21  C   ASP G   2      38.449  11.600  21.460  1.00 93.07 LIG 0.26  C 
ATOM     22 O    ASP G   2      37.599  11.467  22.342  1.00 81.24 LIG-0.27  OA
BRANCH 21 23
ATOM     23  CA  ASP G   2      39.085  12.976  21.222  1.00 93.30 LIG 0.41  C 
ATOM     24  N   ASP G   2      40.248  12.806  20.305  1.00 94.60 LIG 0.61  N 
BRANCH 23 25
ATOM     25  CB  ASP G   2      38.087  13.982  20.631  1.00 96.36 LIG 0.16  C 
BRANCH 25 26
ATOM     26  CG  ASP G   2      37.766  13.699  19.179  1.00103.24 LIG 0.17  C 
ATOM     27 OD1  ASP G   2      37.014  14.478  18.561  1.00112.85 LIG-0.65  OA
ATOM     28 OD2  ASP G   2      38.271  12.699  18.646  1.00105.87 LIG-0.65  OA
ENDBRANCH 25 26
ENDBRANCH 23 25
ENDBRANCH 21 23
ENDBRANCH 14 19
ENDBRANCH 12 14
ENDBRANCH 5 10
ENDBRANCH 1 5
BRANCH 3 29
ATOM     29  CA  PHE G   5      39.957   3.528  24.056  1.00 70.05 LIG 0.18  C 
BRANCH 29 30
ATOM     30  CB  PHE G   5      40.912   3.383  22.853  1.00 73.20 LIG 0.07  C 
BRANCH 30 31
ATOM     31  CG  PHE G   5      40.334   2.524  21.739  1.00 79.36 LIG-0.06  A 
ATOM     32  CD1 PHE G   5      39.730   1.278  22.041  1.00 85.64 LIG 0.01  A 
ATOM     33  CE1 PHE G   5      39.182   0.482  21.044  1.00 88.71 LIG 0.00  A 
ATOM     34  CZ  PHE G   5      39.221   0.927  19.719  1.00 96.11 LIG 0.00  A 
ATOM     35  CE2 PHE G   5      39.800   2.166  19.403  1.00 91.53 LIG 0.00  A 
ATOM     36  CD2 PHE G   5      40.350   2.959  20.406  1.00 81.01 LIG 0.01  A 
ENDBRANCH 30 31
ENDBRANCH 29 30
BRANCH 29 37
ATOM     37  C   PHE G   5      40.476   2.897  25.343  1.00 74.26 LIG 0.24  C 
ATOM     38  N   PRO G   6      39.632   2.883  26.399  1.00 79.01 LIG-0.34  N 
ATOM     39  CD  PRO G   6      38.309   3.564  26.428  1.00 76.17 LIG 0.13  C 
ATOM     40  CA  PRO G   6      40.067   2.464  27.741  1.00 78.34 LIG 0.18  C 
ATOM     41  CG  PRO G   6      37.758   3.198  27.761  1.00 78.03 LIG 0.02  C 
ATOM     42  CB  PRO G   6      38.972   3.062  28.642  1.00 82.73 LIG 0.04  C 
ATOM     43 O    PHE G   5      41.651   2.517  25.410  1.00 61.78 LIG-0.27  OA
BRANCH 40 44
ATOM     44  C   PRO G   6      40.180   0.942  27.983  1.00 77.34 LIG 0.24  C 
ATOM     45 O    PRO G   6      40.969   0.533  28.817  1.00 92.50 LIG-0.27  OA
ATOM     46  N   ALA G   7      39.401   0.125  27.259  1.00 74.20 LIG-0.35  N 
ATOM     47 H    ALA G   7      38.672   0.380  26.880  1.00 74.20 LIG 0.16  HD
BRANCH 46 48
ATOM     48  CA  ALA G   7      39.722  -1.311  27.041  1.00 71.75 LIG 0.16  C 
ATOM     49  CB  ALA G   7      38.591  -2.197  27.562  1.00 70.01 LIG 0.04  C 
BRANCH 48 50
ATOM     50  C   ALA G   7      39.961  -1.578  25.538  1.00 69.94 LIG 0.22  C 
ATOM     51 O    ALA G   7      39.708  -0.687  24.687  1.00 56.97 LIG-0.29  OA
ENDBRANCH 48 50
ENDBRANCH 46 48
ENDBRANCH 40 44
ENDBRANCH 29 37
ENDBRANCH 3 29
TORSDOF 18
ENDMDL
MODEL 3
USER: ADFR SOLUTION from run 37
USER: SCORE 14.753646 LL:  -5.346 LR: -11.179 RR:   0.000 FEB:  -5.810
USER: RMSD 2.538705
USER: SEED 36
USER: STATUS no improvement in best in 11 clusters for 5 generations
USER: GENES 20
USER: genes 0 Translation |==|  0.46710 0.48689 0.46425
USER: genes 1 Rotation |==|  0.46097 0.51195 0.50533 0.99830
USER: genes 2 Torsion [N]-C--CA-[N] |==|  0.45371
USER: genes 3 Torsion [C]-CA--CB-[CG] |==|  0.56346
USER: genes 4 Torsion [CA]-CB--CG-[CD1] |==|  0.46971
USER: genes 5 Torsion [C]-CA--N-[C] |==|  0.80497
USER: genes 6 Torsion [N]-C--CA-[N] |==|  0.38919
USER: genes 7 Torsion [C]-CA--CB-[CG1] |==|  0.94282
USER: genes 8 Torsion [CA]-CB--CG1-[CD1] |==|  0.40065
USER: genes 9 Torsion [C]-CA--N-[C] |==|  0.80566
USER: genes 10 Torsion [N]-C--CA-[N] |==|  0.95977
USER: genes 11 Torsion [C]-CA--CB-[CG] |==|  0.80468
USER: genes 12 Torsion [CA]-CB--CG-[OD1] |==|  0.98311
USER: genes 13 Torsion [C]-N--CA-[CB] |==|  0.34631
USER: genes 14 Torsion [N]-CA--CB-[CG] |==|  0.89684
USER: genes 15 Torsion [CA]-CB--CG-[CD1] |==|  0.82386
USER: genes 16 Torsion [N]-CA--C-[N] |==|  0.36280
USER: genes 17 Torsion [N]-CA--C-[O] |==|  0.94637
USER: genes 18 Torsion [C]-N--CA-[C] |==|  0.79493
USER: genes 19 Torsion [N]-CA--C-[O] |==|  0.06288
ROOT
ATOM      1  C   LEU G   4      39.416   5.817  22.096  1.00 61.38 LIG 0.24  C 
ATOM      2 O    LEU G   4      38.980   5.611  20.958  1.00 52.06 LIG-0.27  OA
ATOM      3  N   PHE G   5      40.333   5.082  22.700  1.00 60.80 LIG-0.35  N 
ATOM      4 H    PHE G   5      40.641   5.264  23.482  1.00 60.80 LIG 0.16  HD
ENDROOT
BRANCH 1 5
ATOM      5  CA  LEU G   4      38.895   6.943  22.940  1.00 58.56 LIG 0.18  C 
BRANCH 5 6
ATOM      6  CB  LEU G   4      37.964   6.344  23.990  1.00 61.47 LIG 0.04  C 
BRANCH 6 7
ATOM      7  CG  LEU G   4      36.955   7.320  24.553  1.00 62.80 LIG-0.02  C 
ATOM      8  CD1 LEU G   4      35.956   6.514  25.357  1.00 63.22 LIG 0.01  C 
ATOM      9  CD2 LEU G   4      37.697   8.350  25.405  1.00 64.86 LIG 0.01  C 
ENDBRANCH 6 7
ENDBRANCH 5 6
BRANCH 5 10
ATOM     10  N   LEU G   4      38.219   7.896  22.082  1.00 59.02 LIG-0.35  N 
ATOM     11 H    LEU G   4      37.364   7.922  22.172  1.00 59.02 LIG 0.16  HD
ATOM     12  C   ILE G   3      38.913   8.654  21.233  1.00 70.10 LIG 0.24  C 
ATOM     13 O    ILE G   3      40.160   8.747  21.287  1.00 64.55 LIG-0.27  OA
BRANCH 12 14
ATOM     14  CA  ILE G   3      38.089   9.424  20.166  1.00 67.83 LIG 0.18  C 
BRANCH 14 15
ATOM     15  CB  ILE G   3      38.059   8.645  18.812  1.00 66.94 LIG 0.01  C 
ATOM     16  CG2 ILE G   3      38.096   9.619  17.634  1.00 67.41 LIG 0.01  C 
BRANCH 15 17
ATOM     17  CG1 ILE G   3      39.223   7.622  18.697  1.00 59.79 LIG 0.00  C 
ATOM     18  CD1 ILE G   3      38.851   6.354  17.975  1.00 60.74 LIG 0.01  C 
ENDBRANCH 15 17
ENDBRANCH 14 15
BRANCH 14 19
ATOM     19  N   ILE G   3      38.638  10.758  19.985  1.00 79.60 LIG-0.34  N 
ATOM     20 H    ILE G   3      39.026  10.871  19.226  1.00 79.60 LIG 0.16  HD
ATOM     21  C   ASP G   2      38.549  11.720  20.908  1.00 93.07 LIG 0.26  C 
ATOM     22 O    ASP G   2      37.913  11.594  21.956  1.00 81.24 LIG-0.27  OA
BRANCH 21 23
ATOM     23  CA  ASP G   2      39.299  13.029  20.630  1.00 93.30 LIG 0.41  C 
ATOM     24  N   ASP G   2      40.263  12.793  19.517  1.00 94.60 LIG 0.61  N 
BRANCH 23 25
ATOM     25  CB  ASP G   2      38.347  14.179  20.271  1.00 96.36 LIG 0.16  C 
BRANCH 25 26
ATOM     26  CG  ASP G   2      37.709  14.003  18.911  1.00103.24 LIG 0.17  C 
ATOM     27 OD1  ASP G   2      38.079  13.058  18.186  1.00112.85 LIG-0.65  OA
ATOM     28 OD2  ASP G   2      36.830  14.805  18.561  1.00105.87 LIG-0.65  OA
ENDBRANCH 25 26
ENDBRANCH 23 25
ENDBRANCH 21 23
ENDBRANCH 14 19
ENDBRANCH 12 14
ENDBRANCH 5 10
ENDBRANCH 1 5
BRANCH 3 29
ATOM     29  CA  PHE G   5      40.911   3.905  22.115  1.00 70.05 LIG 0.18  C 
BRANCH 29 30
ATOM     30  CB  PHE G   5      42.449   4.017  22.073  1.00 73.20 LIG 0.07  C 
BRANCH 30 31
ATOM     31  CG  PHE G   5      42.930   5.427  21.765  1.00 79.36 LIG-0.06  A 
ATOM     32  CD1 PHE G   5      42.622   6.028  20.519  1.00 85.64 LIG 0.01  A 
ATOM     33  CE1 PHE G   5      43.038   7.319  20.220  1.00 88.71 LIG 0.00  A 
ATOM     34  CZ  PHE G   5      43.767   8.038  21.172  1.00 96.11 LIG 0.00  A 
ATOM     35  CE2 PHE G   5      44.067   7.464  22.418  1.00 91.53 LIG 0.00  A 
ATOM     36  CD2 PHE G   5      43.650   6.169  22.712  1.00 81.01 LIG 0.01  A 
ENDBRANCH 30 31
ENDBRANCH 29 30
BRANCH 29 37
ATOM     37  C   PHE G   5      40.394   2.733  22.942  1.00 74.26 LIG 0.24  C 
ATOM     38  N   PRO G   6      39.870   1.689  22.260  1.00 79.01 LIG-0.34  N 
ATOM     39  CD  PRO G   6      39.633   1.678  20.791  1.00 76.17 LIG 0.13  C 
ATOM     40  CA  PRO G   6      39.183   0.580  22.939  1.00 78.34 LIG 0.18  C 
ATOM     41  CG  PRO G   6      39.116   0.307  20.533  1.00 78.03 LIG 0.02  C 
ATOM     42  CB  PRO G   6      38.376  -0.056  21.794  1.00 82.73 LIG 0.04  C 
ATOM     43 O    PHE G   5      40.382   2.810  24.176  1.00 61.78 LIG-0.27  OA
BRANCH 40 44
ATOM     44  C   PRO G   6      40.085  -0.484  23.605  1.00 77.34 LIG 0.24  C 
ATOM     45 O    PRO G   6      41.250  -0.573  23.256  1.00 92.50 LIG-0.27  OA
ATOM     46  N   ALA G   7      39.547  -1.274  24.545  1.00 74.20 LIG-0.35  N 
ATOM     47 H    ALA G   7      38.841  -1.066  24.990  1.00 74.20 LIG 0.16  HD
BRANCH 46 48
ATOM     48  CA  ALA G   7      40.122  -2.596  24.912  1.00 71.75 LIG 0.16  C 
ATOM     49  CB  ALA G   7      39.548  -3.077  26.245  1.00 70.01 LIG 0.04  C 
BRANCH 48 50
ATOM     50  C   ALA G   7      39.829  -3.629  23.800  1.00 69.94 LIG 0.22  C 
ATOM     51 O    ALA G   7      39.584  -3.247  22.627  1.00 56.97 LIG-0.29  OA
ENDBRANCH 48 50
ENDBRANCH 46 48
ENDBRANCH 40 44
ENDBRANCH 29 37
ENDBRANCH 3 29
TORSDOF 18
ENDMDL
MODEL 4
USER: ADFR SOLUTION from run 158
USER: SCORE 15.335658 LL:  -5.309 LR: -10.921 RR:   0.000 FEB:  -5.552
USER: RMSD 4.880219
USER: SEED 157
USER: STATUS no improvement in best in 14 clusters for 5 generations
USER: GENES 20
USER: genes 0 Translation |==|  0.49232 0.50445 0.61217
USER: genes 1 Rotation |==|  0.61550 0.03689 0.60160 0.60895
USER: genes 2 Torsion [N]-C--CA-[N] |==|  0.47496
USER: genes 3 Torsion [C]-CA--CB-[CG] |==|  0.43856
USER: genes 4 Torsion [CA]-CB--CG-[CD1] |==|  0.62064
USER: genes 5 Torsion [C]-CA--N-[C] |==|  0.76002
USER: genes 6 Torsion [N]-C--CA-[N] |==|  0.38182
USER: genes 7 Torsion [C]-CA--CB-[CG1] |==|  0.96896
USER: genes 8 Torsion [CA]-CB--CG1-[CD1] |==|  0.50829
USER: genes 9 Torsion [C]-CA--N-[C] |==|  0.66019
USER: genes 10 Torsion [N]-C--CA-[N] |==|  0.20976
USER: genes 11 Torsion [C]-CA--CB-[CG] |==|  0.49744
USER: genes 12 Torsion [CA]-CB--CG-[OD1] |==|  0.08211
USER: genes 13 Torsion [C]-N--CA-[CB] |==|  0.19378
USER: genes 14 Torsion [N]-CA--CB-[CG] |==|  0.06821
USER: genes 15 Torsion [CA]-CB--CG-[CD1] |==|  0.70352
USER: genes 16 Torsion [N]-CA--C-[N] |==|  0.15655
USER: genes 17 Torsion [N]-CA--C-[O] |==|  0.90799
USER: genes 18 Torsion [C]-N--CA-[C] |==|  0.69475
USER: genes 19 Torsion [N]-CA--C-[O] |==|  0.05164
ROOT
ATOM      1  C   LEU G   4      39.832   6.305  24.537  1.00 61.38 LIG 0.24  C 
ATOM      2 O    LEU G   4      40.510   6.982  25.317  1.00 52.06 LIG-0.27  OA
ATOM      3  N   PHE G   5      39.409   5.075  24.773  1.00 60.80 LIG-0.35  N 
ATOM      4 H    PHE G   5      38.913   4.636  24.225  1.00 60.80 LIG 0.16  HD
ENDROOT
BRANCH 1 5
ATOM      5  CA  LEU G   4      39.447   6.825  23.184  1.00 58.56 LIG 0.18  C 
BRANCH 5 6
ATOM      6  CB  LEU G   4      40.199   6.005  22.140  1.00 61.47 LIG 0.04  C 
BRANCH 6 7
ATOM      7  CG  LEU G   4      39.565   6.018  20.766  1.00 62.80 LIG-0.02  C 
ATOM      8  CD1 LEU G   4      39.605   4.597  20.243  1.00 63.22 LIG 0.01  C 
ATOM      9  CD2 LEU G   4      38.140   6.555  20.893  1.00 64.86 LIG 0.01  C 
ENDBRANCH 6 7
ENDBRANCH 5 6
BRANCH 5 10
ATOM     10  N   LEU G   4      39.771   8.237  23.115  1.00 59.02 LIG-0.35  N 
ATOM     11 H    LEU G   4      40.544   8.415  22.783  1.00 59.02 LIG 0.16  HD
ATOM     12  C   ILE G   3      38.904   9.152  23.548  1.00 70.10 LIG 0.24  C 
ATOM     13 O    ILE G   3      37.715   8.871  23.816  1.00 64.55 LIG-0.27  OA
BRANCH 12 14
ATOM     14  CA  ILE G   3      39.449  10.597  23.702  1.00 67.83 LIG 0.18  C 
BRANCH 14 15
ATOM     15  CB  ILE G   3      39.805  10.906  25.191  1.00 66.94 LIG 0.01  C 
ATOM     16  CG2 ILE G   3      39.269  12.279  25.595  1.00 67.41 LIG 0.01  C 
BRANCH 15 17
ATOM     17  CG1 ILE G   3      39.272   9.815  26.161  1.00 59.79 LIG 0.00  C 
ATOM     18  CD1 ILE G   3      39.533  10.112  27.614  1.00 60.74 LIG 0.01  C 
ENDBRANCH 15 17
ENDBRANCH 14 15
BRANCH 14 19
ATOM     19  N   ILE G   3      38.475  11.550  23.193  1.00 79.60 LIG-0.34  N 
ATOM     20 H    ILE G   3      37.709  11.499  23.579  1.00 79.60 LIG 0.16  HD
ATOM     21  C   ASP G   2      38.744  12.423  22.218  1.00 93.07 LIG 0.26  C 
ATOM     22 O    ASP G   2      39.865  12.565  21.727  1.00 81.24 LIG-0.27  OA
BRANCH 21 23
ATOM     23  CA  ASP G   2      37.574  13.266  21.692  1.00 93.30 LIG 0.41  C 
ATOM     24  N   ASP G   2      37.268  14.326  22.695  1.00 94.60 LIG 0.61  N 
BRANCH 23 25
ATOM     25  CB  ASP G   2      37.884  13.901  20.328  1.00 96.36 LIG 0.16  C 
BRANCH 25 26
ATOM     26  CG  ASP G   2      36.727  14.715  19.790  1.00103.24 LIG 0.17  C 
ATOM     27 OD1  ASP G   2      35.949  15.267  20.593  1.00112.85 LIG-0.65  OA
ATOM     28 OD2  ASP G   2      36.594  14.814  18.561  1.00105.87 LIG-0.65  OA
ENDBRANCH 25 26
ENDBRANCH 23 25
ENDBRANCH 21 23
ENDBRANCH 14 19
ENDBRANCH 12 14
ENDBRANCH 5 10
ENDBRANCH 1 5
BRANCH 3 29
ATOM     29  CA  PHE G   5      39.730   4.347  25.968  1.00 70.05 LIG 0.18  C 
BRANCH 29 30
ATOM     30  CB  PHE G   5      39.010   4.957  27.188  1.00 73.20 LIG 0.07  C 
BRANCH 30 31
ATOM     31  CG  PHE G   5      37.750   5.720  26.810  1.00 79.36 LIG-0.06  A 
ATOM     32  CD1 PHE G   5      37.736   7.137  26.854  1.00 85.64 LIG 0.01  A 
ATOM     33  CE1 PHE G   5      36.603   7.858  26.500  1.00 88.71 LIG 0.00  A 
ATOM     34  CZ  PHE G   5      35.459   7.169  26.085  1.00 96.11 LIG 0.00  A 
ATOM     35  CE2 PHE G   5      35.460   5.766  26.019  1.00 91.53 LIG 0.00  A 
ATOM     36  CD2 PHE G   5      36.597   5.049  26.377  1.00 81.01 LIG 0.01  A 
ENDBRANCH 30 31
ENDBRANCH 29 30
BRANCH 29 37
ATOM     37  C   PHE G   5      39.356   2.896  25.684  1.00 74.26 LIG 0.24  C 
ATOM     38  N   PRO G   6      39.929   2.318  24.605  1.00 79.01 LIG-0.34  N 
ATOM     39  CD  PRO G   6      40.768   3.040  23.611  1.00 76.17 LIG 0.13  C 
ATOM     40  CA  PRO G   6      39.522   0.988  24.124  1.00 78.34 LIG 0.18  C 
ATOM     41  CG  PRO G   6      41.202   1.965  22.676  1.00 78.03 LIG 0.02  C 
ATOM     42  CB  PRO G   6      40.059   0.984  22.682  1.00 82.73 LIG 0.04  C 
ATOM     43 O    PHE G   5      38.492   2.340  26.373  1.00 61.78 LIG-0.27  OA
BRANCH 40 44
ATOM     44  C   PRO G   6      40.080  -0.225  24.901  1.00 77.34 LIG 0.24  C 
ATOM     45 O    PRO G   6      41.193  -0.150  25.394  1.00 92.50 LIG-0.27  OA
ATOM     46  N   ALA G   7      39.314  -1.321  25.002  1.00 74.20 LIG-0.35  N 
ATOM     47 H    ALA G   7      38.459  -1.310  24.910  1.00 74.20 LIG 0.16  HD
BRANCH 46 48
ATOM     48  CA  ALA G   7      39.872  -2.671  25.285  1.00 71.75 LIG 0.16  C 
ATOM     49  CB  ALA G   7      39.140  -3.316  26.462  1.00 70.01 LIG 0.04  C 
BRANCH 48 50
ATOM     50  C   ALA G   7      39.758  -3.565  24.030  1.00 69.94 LIG 0.22  C 
ATOM     51 O    ALA G   7      39.584  -3.049  22.896  1.00 56.97 LIG-0.29  OA
ENDBRANCH 48 50
ENDBRANCH 46 48
ENDBRANCH 40 44
ENDBRANCH 29 37
ENDBRANCH 3 29
TORSDOF 18
ENDMDL
MODEL 5
USER: ADFR SOLUTION from run 64
USER: SCORE 14.819060 LL:  -5.367 LR: -10.775 RR:   0.000 FEB:  -5.405
USER: RMSD 4.614878
USER: SEED 63
USER: STATUS searching
USER: GENES 20
USER: genes 0 Translation |==|  0.46383 0.49140 0.53454
USER: genes 1 Rotation |==|  0.53389 0.39799 0.47235 0.98753
USER: genes 2 Torsion [N]-C--CA-[N] |==|  0.45205
USER: genes 3 Torsion [C]-CA--CB-[CG] |==|  0.42613
USER: genes 4 Torsion [CA]-CB--CG-[CD1] |==|  0.27738
USER: genes 5 Torsion [C]-CA--N-[C] |==|  0.79436
USER: genes 6 Torsion [N]-C--CA-[N] |==|  0.89508
USER: genes 7 Torsion [C]-CA--CB-[CG1] |==|  0.50648
USER: genes 8 Torsion [CA]-CB--CG1-[CD1] |==|  0.47959
USER: genes 9 Torsion [C]-CA--N-[C] |==|  0.80080
USER: genes 10 Torsion [N]-C--CA-[N] |==|  0.26476
USER: genes 11 Torsion [C]-CA--CB-[CG] |==|  0.66438
USER: genes 12 Torsion [CA]-CB--CG-[OD1] |==|  0.65013
USER: genes 13 Torsion [C]-N--CA-[CB] |==|  0.28889
USER: genes 14 Torsion [N]-CA--CB-[CG] |==|  0.40276
USER: genes 15 Torsion [CA]-CB--CG-[CD1] |==|  0.71132
USER: genes 16 Torsion [N]-CA--C-[N] |==|  0.37334
USER: genes 17 Torsion [N]-CA--C-[O] |==|  0.96911
USER: genes 18 Torsion [C]-N--CA-[C] |==|  0.77688
USER: genes 19 Torsion [N]-CA--C-[O] |==|  0.00817
ROOT
ATOM      1  C   LEU G   4      39.362   5.942  23.256  1.00 61.38 LIG 0.24  C 
ATOM      2 O    LEU G   4      39.488   6.107  22.037  1.00 52.06 LIG-0.27  OA
ATOM      3  N   PHE G   5      39.878   4.937  23.941  1.00 60.80 LIG-0.35  N 
ATOM      4 H    PHE G   5      39.799   4.861  24.794  1.00 60.80 LIG 0.16  HD
ENDROOT
BRANCH 1 5
ATOM      5  CA  LEU G   4      38.549   6.887  24.091  1.00 58.56 LIG 0.18  C 
BRANCH 5 6
ATOM      6  CB  LEU G   4      37.217   6.208  24.394  1.00 61.47 LIG 0.04  C 
BRANCH 6 7
ATOM      7  CG  LEU G   4      36.559   6.678  25.674  1.00 62.80 LIG-0.02  C 
ATOM      8  CD1 LEU G   4      35.492   7.679  25.284  1.00 63.22 LIG 0.01  C 
ATOM      9  CD2 LEU G   4      35.984   5.462  26.400  1.00 64.86 LIG 0.01  C 
ENDBRANCH 6 7
ENDBRANCH 5 6
BRANCH 5 10
ATOM     10  N   LEU G   4      38.383   8.130  23.364  1.00 59.02 LIG-0.35  N 
ATOM     11 H    LEU G   4      37.598   8.255  23.034  1.00 59.02 LIG 0.16  HD
ATOM     12  C   ILE G   3      39.399   8.984  23.242  1.00 70.10 LIG 0.24  C 
ATOM     13 O    ILE G   3      40.448   8.874  23.916  1.00 64.55 LIG-0.27  OA
BRANCH 12 14
ATOM     14  CA  ILE G   3      39.213  10.133  22.215  1.00 67.83 LIG 0.18  C 
BRANCH 14 15
ATOM     15  CB  ILE G   3      38.459  11.341  22.856  1.00 66.94 LIG 0.01  C 
ATOM     16  CG2 ILE G   3      39.230  11.873  24.064  1.00 67.41 LIG 0.01  C 
BRANCH 15 17
ATOM     17  CG1 ILE G   3      38.205  12.484  21.835  1.00 59.79 LIG 0.00  C 
ATOM     18  CD1 ILE G   3      37.330  13.590  22.363  1.00 60.74 LIG 0.01  C 
ENDBRANCH 15 17
ENDBRANCH 14 15
BRANCH 14 19
ATOM     19  N   ILE G   3      38.503   9.639  21.045  1.00 79.60 LIG-0.34  N 
ATOM     20 H    ILE G   3      37.695   9.928  20.985  1.00 79.60 LIG 0.16  HD
ATOM     21  C   ASP G   2      39.052   8.817  20.147  1.00 93.07 LIG 0.26  C 
ATOM     22 O    ASP G   2      40.235   8.476  20.176  1.00 81.24 LIG-0.27  OA
BRANCH 21 23
ATOM     23  CA  ASP G   2      38.134   8.271  19.046  1.00 93.30 LIG 0.41  C 
ATOM     24  N   ASP G   2      38.273   9.139  17.842  1.00 94.60 LIG 0.61  N 
BRANCH 23 25
ATOM     25  CB  ASP G   2      38.460   6.813  18.687  1.00 96.36 LIG 0.16  C 
BRANCH 25 26
ATOM     26  CG  ASP G   2      38.834   6.642  17.231  1.00103.24 LIG 0.17  C 
ATOM     27 OD1  ASP G   2      38.218   5.806  16.541  1.00112.85 LIG-0.65  OA
ATOM     28 OD2  ASP G   2      39.742   7.348  16.767  1.00105.87 LIG-0.65  OA
ENDBRANCH 25 26
ENDBRANCH 23 25
ENDBRANCH 21 23
ENDBRANCH 14 19
ENDBRANCH 12 14
ENDBRANCH 5 10
ENDBRANCH 1 5
BRANCH 3 29
ATOM     29  CA  PHE G   5      40.621   3.869  23.335  1.00 70.05 LIG 0.18  C 
BRANCH 29 30
ATOM     30  CB  PHE G   5      42.132   4.042  23.593  1.00 73.20 LIG 0.07  C 
BRANCH 30 31
ATOM     31  CG  PHE G   5      42.856   2.718  23.778  1.00 79.36 LIG-0.06  A 
ATOM     32  CD1 PHE G   5      43.244   2.294  25.074  1.00 85.64 LIG 0.01  A 
ATOM     33  CE1 PHE G   5      43.893   1.082  25.271  1.00 88.71 LIG 0.00  A 
ATOM     34  CZ  PHE G   5      44.161   0.265  24.169  1.00 96.11 LIG 0.00  A 
ATOM     35  CE2 PHE G   5      43.769   0.661  22.880  1.00 91.53 LIG 0.00  A 
ATOM     36  CD2 PHE G   5      43.121   1.878  22.687  1.00 81.01 LIG 0.01  A 
ENDBRANCH 30 31
ENDBRANCH 29 30
BRANCH 29 37
ATOM     37  C   PHE G   5      40.036   2.580  23.902  1.00 74.26 LIG 0.24  C 
ATOM     38  N   PRO G   6      39.780   1.586  23.022  1.00 79.01 LIG-0.34  N 
ATOM     39  CD  PRO G   6      39.892   1.723  21.544  1.00 76.17 LIG 0.13  C 
ATOM     40  CA  PRO G   6      39.058   0.365  23.411  1.00 78.34 LIG 0.18  C 
ATOM     41  CG  PRO G   6      39.574   0.357  21.044  1.00 78.03 LIG 0.02  C 
ATOM     42  CB  PRO G   6      38.599  -0.191  22.052  1.00 82.73 LIG 0.04  C 
ATOM     43 O    PHE G   5      39.732   2.519  25.100  1.00 61.78 LIG-0.27  OA
BRANCH 40 44
ATOM     44  C   PRO G   6      39.875  -0.703  24.173  1.00 77.34 LIG 0.24  C 
ATOM     45 O    PRO G   6      41.088  -0.589  24.231  1.00 92.50 LIG-0.27  OA
ATOM     46  N   ALA G   7      39.214  -1.722  24.740  1.00 74.20 LIG-0.35  N 
ATOM     47 H    ALA G   7      38.379  -1.688  24.945  1.00 74.20 LIG 0.16  HD
BRANCH 46 48
ATOM     48  CA  ALA G   7      39.863  -3.019  25.074  1.00 71.75 LIG 0.16  C 
ATOM     49  CB  ALA G   7      39.074  -3.748  26.161  1.00 70.01 LIG 0.04  C 
BRANCH 48 50
ATOM     50  C   ALA G   7      39.968  -3.899  23.808  1.00 69.94 LIG 0.22  C 
ATOM     51 O    ALA G   7      39.584  -3.459  22.694  1.00 56.97 LIG-0.29  OA
ENDBRANCH 48 50
ENDBRANCH 46 48
ENDBRANCH 40 44
ENDBRANCH 29 37
ENDBRANCH 3 29
TORSDOF 18
ENDMDL
MODEL 6
USER: ADFR SOLUTION from run 34
USER: SCORE 14.922362 LL:  -5.580 LR: -10.751 RR:   0.000 FEB:  -5.382
USER: RMSD 4.144211
USER: SEED 33
USER: STATUS no improvement in best in 15 clusters for 5 generations
USER: GENES 20
USER: genes 0 Translation |==|  0.46077 0.49008 0.52814
USER: genes 1 Rotation |==|  0.52042 0.42331 0.48040 0.99327
USER: genes 2 Torsion [N]-C--CA-[N] |==|  0.43807
USER: genes 3 Torsion [C]-CA--CB-[CG] |==|  0.42857
USER: genes 4 Torsion [CA]-CB--CG-[CD1] |==|  0.29330
USER: genes 5 Torsion [C]-CA--N-[C] |==|  0.78889
USER: genes 6 Torsion [N]-C--CA-[N] |==|  0.89170
USER: genes 7 Torsion [C]-CA--CB-[CG1] |==|  0.51093
USER: genes 8 Torsion [CA]-CB--CG1-[CD1] |==|  0.50767
USER: genes 9 Torsion [C]-CA--N-[C] |==|  0.81094
USER: genes 10 Torsion [N]-C--CA-[N] |==|  0.24756
USER: genes 11 Torsion [C]-CA--CB-[CG] |==|  0.66549
USER: genes 12 Torsion [CA]-CB--CG-[OD1] |==|  0.15069
USER: genes 13 Torsion [C]-N--CA-[CB] |==|  0.29973
USER: genes 14 Torsion [N]-CA--CB-[CG] |==|  0.88496
USER: genes 15 Torsion [CA]-CB--CG-[CD1] |==|  0.80098
USER: genes 16 Torsion [N]-CA--C-[N] |==|  0.36880
USER: genes 17 Torsion [N]-CA--C-[O] |==|  0.96833
USER: genes 18 Torsion [C]-N--CA-[C] |==|  0.78581
USER: genes 19 Torsion [N]-CA--C-[O] |==|  0.00891
ROOT
ATOM      1  C   LEU G   4      39.312   5.906  23.150  1.00 61.38 LIG 0.24  C 
ATOM      2 O    LEU G   4      39.306   6.005  21.918  1.00 52.06 LIG-0.27  OA
ATOM      3  N   PHE G   5      39.926   4.954  23.830  1.00 60.80 LIG-0.35  N 
ATOM      4 H    PHE G   5      39.939   4.924  24.689  1.00 60.80 LIG 0.16  HD
ENDROOT
BRANCH 1 5
ATOM      5  CA  LEU G   4      38.560   6.875  24.014  1.00 58.56 LIG 0.18  C 
BRANCH 5 6
ATOM      6  CB  LEU G   4      37.230   6.228  24.388  1.00 61.47 LIG 0.04  C 
BRANCH 6 7
ATOM      7  CG  LEU G   4      36.634   6.737  25.682  1.00 62.80 LIG-0.02  C 
ATOM      8  CD1 LEU G   4      35.476   7.640  25.314  1.00 63.22 LIG 0.01  C 
ATOM      9  CD2 LEU G   4      36.199   5.538  26.524  1.00 64.86 LIG 0.01  C 
ENDBRANCH 6 7
ENDBRANCH 5 6
BRANCH 5 10
ATOM     10  N   LEU G   4      38.385   8.115  23.284  1.00 59.02 LIG-0.35  N 
ATOM     11 H    LEU G   4      37.595   8.242  22.968  1.00 59.02 LIG 0.16  HD
ATOM     12  C   ILE G   3      39.402   8.965  23.139  1.00 70.10 LIG 0.24  C 
ATOM     13 O    ILE G   3      40.463   8.854  23.793  1.00 64.55 LIG-0.27  OA
BRANCH 12 14
ATOM     14  CA  ILE G   3      39.201  10.108  22.109  1.00 67.83 LIG 0.18  C 
BRANCH 14 15
ATOM     15  CB  ILE G   3      38.437  11.310  22.749  1.00 66.94 LIG 0.01  C 
ATOM     16  CG2 ILE G   3      39.226  11.879  23.929  1.00 67.41 LIG 0.01  C 
BRANCH 15 17
ATOM     17  CG1 ILE G   3      38.134  12.431  21.717  1.00 59.79 LIG 0.00  C 
ATOM     18  CD1 ILE G   3      37.455  13.638  22.309  1.00 60.74 LIG 0.01  C 
ENDBRANCH 15 17
ENDBRANCH 14 15
BRANCH 14 19
ATOM     19  N   ILE G   3      38.492   9.605  20.943  1.00 79.60 LIG-0.34  N 
ATOM     20 H    ILE G   3      37.699   9.923  20.858  1.00 79.60 LIG 0.16  HD
ATOM     21  C   ASP G   2      39.023   8.730  20.083  1.00 93.07 LIG 0.26  C 
ATOM     22 O    ASP G   2      40.191   8.343  20.147  1.00 81.24 LIG-0.27  OA
BRANCH 21 23
ATOM     23  CA  ASP G   2      38.103   8.185  18.983  1.00 93.30 LIG 0.41  C 
ATOM     24  N   ASP G   2      38.186   9.095  17.805  1.00 94.60 LIG 0.61  N 
BRANCH 23 25
ATOM     25  CB  ASP G   2      38.474   6.752  18.573  1.00 96.36 LIG 0.16  C 
BRANCH 25 26
ATOM     26  CG  ASP G   2      38.834   6.642  17.107  1.00103.24 LIG 0.17  C 
ATOM     27 OD1  ASP G   2      39.721   7.385  16.643  1.00112.85 LIG-0.65  OA
ATOM     28 OD2  ASP G   2      38.236   5.806  16.413  1.00105.87 LIG-0.65  OA
ENDBRANCH 25 26
ENDBRANCH 23 25
ENDBRANCH 21 23
ENDBRANCH 14 19
ENDBRANCH 12 14
ENDBRANCH 5 10
ENDBRANCH 1 5
BRANCH 3 29
ATOM     29  CA  PHE G   5      40.636   3.873  23.208  1.00 70.05 LIG 0.18  C 
BRANCH 29 30
ATOM     30  CB  PHE G   5      42.159   4.050  23.381  1.00 73.20 LIG 0.07  C 
BRANCH 30 31
ATOM     31  CG  PHE G   5      42.613   5.489  23.186  1.00 79.36 LIG-0.06  A 
ATOM     32  CD1 PHE G   5      42.613   6.066  21.892  1.00 85.64 LIG 0.01  A 
ATOM     33  CE1 PHE G   5      43.009   7.381  21.689  1.00 88.71 LIG 0.00  A 
ATOM     34  CZ  PHE G   5      43.406   8.149  22.788  1.00 96.11 LIG 0.00  A 
ATOM     35  CE2 PHE G   5      43.396   7.600  24.080  1.00 91.53 LIG 0.00  A 
ATOM     36  CD2 PHE G   5      43.001   6.280  24.277  1.00 81.01 LIG 0.01  A 
ENDBRANCH 30 31
ENDBRANCH 29 30
BRANCH 29 37
ATOM     37  C   PHE G   5      40.082   2.597  23.832  1.00 74.26 LIG 0.24  C 
ATOM     38  N   PRO G   6      39.748   1.598  22.984  1.00 79.01 LIG-0.34  N 
ATOM     39  CD  PRO G   6      39.746   1.719  21.501  1.00 76.17 LIG 0.13  C 
ATOM     40  CA  PRO G   6      39.045   0.389  23.441  1.00 78.34 LIG 0.18  C 
ATOM     41  CG  PRO G   6      39.376   0.353  21.041  1.00 78.03 LIG 0.02  C 
ATOM     42  CB  PRO G   6      38.476  -0.174  22.127  1.00 82.73 LIG 0.04  C 
ATOM     43 O    PHE G   5      39.871   2.551  25.050  1.00 61.78 LIG-0.27  OA
BRANCH 40 44
ATOM     44  C   PRO G   6      39.906  -0.682  24.148  1.00 77.34 LIG 0.24  C 
ATOM     45 O    PRO G   6      41.120  -0.585  24.107  1.00 92.50 LIG-0.27  OA
ATOM     46  N   ALA G   7      39.278  -1.684  24.780  1.00 74.20 LIG-0.35  N 
ATOM     47 H    ALA G   7      38.464  -1.636  25.051  1.00 74.20 LIG 0.16  HD
BRANCH 46 48
ATOM     48  CA  ALA G   7      39.935  -2.986  25.077  1.00 71.75 LIG 0.16  C 
ATOM     49  CB  ALA G   7      39.179  -3.726  26.180  1.00 70.01 LIG 0.04  C 
BRANCH 48 50
ATOM     50  C   ALA G   7      39.997  -3.851  23.798  1.00 69.94 LIG 0.22  C 
ATOM     51 O    ALA G   7      39.584  -3.395  22.702  1.00 56.97 LIG-0.29  OA
ENDBRANCH 48 50
ENDBRANCH 46 48
ENDBRANCH 40 44
ENDBRANCH 29 37
ENDBRANCH 3 29
TORSDOF 18
ENDMDL
MODEL 7
USER: ADFR SOLUTION from run 74
USER: SCORE 14.812241 LL:  -5.537 LR: -10.746 RR:   0.000 FEB:  -5.376
USER: RMSD 2.217814
USER: SEED 73
USER: STATUS no improvement in best in 11 clusters for 5 generations
USER: GENES 20
USER: genes 0 Translation |==|  0.45052 0.49453 0.54453
USER: genes 1 Rotation |==|  0.54202 0.39939 0.48381 0.98770
USER: genes 2 Torsion [N]-C--CA-[N] |==|  0.46613
USER: genes 3 Torsion [C]-CA--CB-[CG] |==|  0.42032
USER: genes 4 Torsion [CA]-CB--CG-[CD1] |==|  0.29249
USER: genes 5 Torsion [C]-CA--N-[C] |==|  0.75828
USER: genes 6 Torsion [N]-C--CA-[N] |==|  0.42024
USER: genes 7 Torsion [C]-CA--CB-[CG1] |==|  0.20221
USER: genes 8 Torsion [CA]-CB--CG1-[CD1] |==|  0.36218
USER: genes 9 Torsion [C]-CA--N-[C] |==|  0.65378
USER: genes 10 Torsion [N]-C--CA-[N] |==|  0.55942
USER: genes 11 Torsion [C]-CA--CB-[CG] |==|  0.80212
USER: genes 12 Torsion [CA]-CB--CG-[OD1] |==|  0.33099
USER: genes 13 Torsion [C]-N--CA-[CB] |==|  0.29409
USER: genes 14 Torsion [N]-CA--CB-[CG] |==|  0.93224
USER: genes 15 Torsion [CA]-CB--CG-[CD1] |==|  0.75735
USER: genes 16 Torsion [N]-CA--C-[N] |==|  0.37692
USER: genes 17 Torsion [N]-CA--C-[O] |==|  0.95559
USER: genes 18 Torsion [C]-N--CA-[C] |==|  0.77964
USER: genes 19 Torsion [N]-CA--C-[O] |==|  0.99367
ROOT
ATOM      1  C   LEU G   4      39.143   6.029  23.421  1.00 61.38 LIG 0.24  C 
ATOM      2 O    LEU G   4      39.259   6.228  22.206  1.00 52.06 LIG-0.27  OA
ATOM      3  N   PHE G   5      39.710   5.036  24.083  1.00 60.80 LIG-0.35  N 
ATOM      4 H    PHE G   5      39.637   4.937  24.934  1.00 60.80 LIG 0.16  HD
ENDROOT
BRANCH 1 5
ATOM      5  CA  LEU G   4      38.283   6.911  24.277  1.00 58.56 LIG 0.18  C 
BRANCH 5 6
ATOM      6  CB  LEU G   4      37.045   6.111  24.671  1.00 61.47 LIG 0.04  C 
BRANCH 6 7
ATOM      7  CG  LEU G   4      36.440   6.516  25.997  1.00 62.80 LIG-0.02  C 
ATOM      8  CD1 LEU G   4      35.182   7.302  25.692  1.00 63.22 LIG 0.01  C 
ATOM      9  CD2 LEU G   4      36.160   5.253  26.811  1.00 64.86 LIG 0.01  C 
ENDBRANCH 6 7
ENDBRANCH 5 6
BRANCH 5 10
ATOM     10  N   LEU G   4      37.952   8.110  23.531  1.00 59.02 LIG-0.35  N 
ATOM     11 H    LEU G   4      37.211   8.073  23.097  1.00 59.02 LIG 0.16  HD
ATOM     12  C   ILE G   3      38.768   9.164  23.547  1.00 70.10 LIG 0.24  C 
ATOM     13 O    ILE G   3      39.715   9.262  24.358  1.00 64.55 LIG-0.27  OA
BRANCH 12 14
ATOM     14  CA  ILE G   3      38.478  10.273  22.501  1.00 67.83 LIG 0.18  C 
BRANCH 14 15
ATOM     15  CB  ILE G   3      39.167   9.951  21.137  1.00 66.94 LIG 0.01  C 
ATOM     16  CG2 ILE G   3      40.644   9.618  21.349  1.00 67.41 LIG 0.01  C 
BRANCH 15 17
ATOM     17  CG1 ILE G   3      38.459   8.793  20.381  1.00 59.79 LIG 0.00  C 
ATOM     18  CD1 ILE G   3      38.149   9.105  18.941  1.00 60.74 LIG 0.01  C 
ENDBRANCH 15 17
ENDBRANCH 14 15
BRANCH 14 19
ATOM     19  N   ILE G   3      38.918  11.562  23.013  1.00 79.60 LIG-0.34  N 
ATOM     20 H    ILE G   3      39.745  11.575  23.248  1.00 79.60 LIG 0.16  HD
ATOM     21  C   ASP G   2      38.116  12.626  23.108  1.00 93.07 LIG 0.26  C 
ATOM     22 O    ASP G   2      36.959  12.641  22.686  1.00 81.24 LIG-0.27  OA
BRANCH 21 23
ATOM     23  CA  ASP G   2      38.686  13.872  23.799  1.00 93.30 LIG 0.41  C 
ATOM     24  N   ASP G   2      37.548  14.714  24.267  1.00 94.60 LIG 0.61  N 
BRANCH 23 25
ATOM     25  CB  ASP G   2      39.601  13.514  24.980  1.00 96.36 LIG 0.16  C 
BRANCH 25 26
ATOM     26  CG  ASP G   2      38.834  12.967  26.164  1.00103.24 LIG 0.17  C 
ATOM     27 OD1  ASP G   2      39.080  11.811  26.564  1.00112.85 LIG-0.65  OA
ATOM     28 OD2  ASP G   2      37.986  13.691  26.705  1.00105.87 LIG-0.65  OA
ENDBRANCH 25 26
ENDBRANCH 23 25
ENDBRANCH 21 23
ENDBRANCH 14 19
ENDBRANCH 12 14
ENDBRANCH 5 10
ENDBRANCH 1 5
BRANCH 3 29
ATOM     29  CA  PHE G   5      40.507   4.022  23.453  1.00 70.05 LIG 0.18  C 
BRANCH 29 30
ATOM     30  CB  PHE G   5      42.004   4.241  23.753  1.00 73.20 LIG 0.07  C 
BRANCH 30 31
ATOM     31  CG  PHE G   5      42.334   5.688  24.088  1.00 79.36 LIG-0.06  A 
ATOM     32  CD1 PHE G   5      42.639   6.606  23.052  1.00 85.64 LIG 0.01  A 
ATOM     33  CE1 PHE G   5      42.930   7.935  23.330  1.00 88.71 LIG 0.00  A 
ATOM     34  CZ  PHE G   5      42.912   8.373  24.658  1.00 96.11 LIG 0.00  A 
ATOM     35  CE2 PHE G   5      42.596   7.481  25.695  1.00 91.53 LIG 0.00  A 
ATOM     36  CD2 PHE G   5      42.308   6.150  25.412  1.00 81.01 LIG 0.01  A 
ENDBRANCH 30 31
ENDBRANCH 29 30
BRANCH 29 37
ATOM     37  C   PHE G   5      39.959   2.691  23.954  1.00 74.26 LIG 0.24  C 
ATOM     38  N   PRO G   6      39.786   1.716  23.034  1.00 79.01 LIG-0.34  N 
ATOM     39  CD  PRO G   6      39.953   1.906  21.567  1.00 76.17 LIG 0.13  C 
ATOM     40  CA  PRO G   6      39.106   0.451  23.354  1.00 78.34 LIG 0.18  C 
ATOM     41  CG  PRO G   6      39.720   0.544  21.012  1.00 78.03 LIG 0.02  C 
ATOM     42  CB  PRO G   6      38.730  -0.080  21.960  1.00 82.73 LIG 0.04  C 
ATOM     43 O    PHE G   5      39.609   2.577  25.135  1.00 61.78 LIG-0.27  OA
BRANCH 40 44
ATOM     44  C   PRO G   6      39.939  -0.604  24.116  1.00 77.34 LIG 0.24  C 
ATOM     45 O    PRO G   6      41.152  -0.485  24.154  1.00 92.50 LIG-0.27  OA
ATOM     46  N   ALA G   7      39.291  -1.617  24.709  1.00 74.20 LIG-0.35  N 
ATOM     47 H    ALA G   7      38.459  -1.584  24.926  1.00 74.20 LIG 0.16  HD
BRANCH 46 48
ATOM     48  CA  ALA G   7      39.950  -2.907  25.049  1.00 71.75 LIG 0.16  C 
ATOM     49  CB  ALA G   7      39.168  -3.635  26.141  1.00 70.01 LIG 0.04  C 
BRANCH 48 50
ATOM     50  C   ALA G   7      40.061  -3.794  23.788  1.00 69.94 LIG 0.22  C 
ATOM     51 O    ALA G   7      39.584  -3.403  22.692  1.00 56.97 LIG-0.29  OA
ENDBRANCH 48 50
ENDBRANCH 46 48
ENDBRANCH 40 44
ENDBRANCH 29 37
ENDBRANCH 3 29
TORSDOF 18
ENDMDL
MODEL 8
USER: ADFR SOLUTION from run 25
USER: SCORE 14.701580 LL:  -5.459 LR: -10.744 RR:   0.000 FEB:  -5.375
USER: RMSD 2.733539
USER: SEED 24
USER: STATUS no improvement in best in 14 clusters for 5 generations
USER: GENES 20
USER: genes 0 Translation |==|  0.45407 0.49274 0.53911
USER: genes 1 Rotation |==|  0.53243 0.41926 0.48087 0.99200
USER: genes 2 Torsion [N]-C--CA-[N] |==|  0.46138
USER: genes 3 Torsion [C]-CA--CB-[CG] |==|  0.46020
USER: genes 4 Torsion [CA]-CB--CG-[CD1] |==|  0.25920
USER: genes 5 Torsion [C]-CA--N-[C] |==|  0.75038
USER: genes 6 Torsion [N]-C--CA-[N] |==|  0.41245
USER: genes 7 Torsion [C]-CA--CB-[CG1] |==|  0.29953
USER: genes 8 Torsion [CA]-CB--CG1-[CD1] |==|  0.74686
USER: genes 9 Torsion [C]-CA--N-[C] |==|  0.66036
USER: genes 10 Torsion [N]-C--CA-[N] |==|  0.55090
USER: genes 11 Torsion [C]-CA--CB-[CG] |==|  0.79843
USER: genes 12 Torsion [CA]-CB--CG-[OD1] |==|  0.82885
USER: genes 13 Torsion [C]-N--CA-[CB] |==|  0.29921
USER: genes 14 Torsion [N]-CA--CB-[CG] |==|  0.40915
USER: genes 15 Torsion [CA]-CB--CG-[CD1] |==|  0.71887
USER: genes 16 Torsion [N]-CA--C-[N] |==|  0.38413
USER: genes 17 Torsion [N]-CA--C-[O] |==|  0.96571
USER: genes 18 Torsion [C]-N--CA-[C] |==|  0.77861
USER: genes 19 Torsion [N]-CA--C-[O] |==|  0.98018
ROOT
ATOM      1  C   LEU G   4      39.201   5.980  23.331  1.00 61.38 LIG 0.24  C 
ATOM      2 O    LEU G   4      39.218   6.136  22.105  1.00 52.06 LIG-0.27  OA
ATOM      3  N   PHE G   5      39.812   5.002  23.978  1.00 60.80 LIG-0.35  N 
ATOM      4 H    PHE G   5      39.809   4.932  24.835  1.00 60.80 LIG 0.16  HD
ENDROOT
BRANCH 1 5
ATOM      5  CA  LEU G   4      38.426   6.901  24.225  1.00 58.56 LIG 0.18  C 
BRANCH 5 6
ATOM      6  CB  LEU G   4      37.193   6.145  24.713  1.00 61.47 LIG 0.04  C 
BRANCH 6 7
ATOM      7  CG  LEU G   4      36.487   6.798  25.881  1.00 62.80 LIG-0.02  C 
ATOM      8  CD1 LEU G   4      35.399   7.680  25.307  1.00 63.22 LIG 0.01  C 
ATOM      9  CD2 LEU G   4      35.934   5.702  26.791  1.00 64.86 LIG 0.01  C 
ENDBRANCH 6 7
ENDBRANCH 5 6
BRANCH 5 10
ATOM     10  N   LEU G   4      38.081   8.096  23.480  1.00 59.02 LIG-0.35  N 
ATOM     11 H    LEU G   4      37.329   8.060  23.064  1.00 59.02 LIG 0.16  HD
ATOM     12  C   ILE G   3      38.901   9.148  23.470  1.00 70.10 LIG 0.24  C 
ATOM     13 O    ILE G   3      39.868   9.247  24.257  1.00 64.55 LIG-0.27  OA
BRANCH 12 14
ATOM     14  CA  ILE G   3      38.590  10.252  22.425  1.00 67.83 LIG 0.18  C 
BRANCH 14 15
ATOM     15  CB  ILE G   3      39.302   9.954  21.067  1.00 66.94 LIG 0.01  C 
ATOM     16  CG2 ILE G   3      40.391   8.898  21.254  1.00 67.41 LIG 0.01  C 
BRANCH 15 17
ATOM     17  CG1 ILE G   3      38.303   9.504  19.965  1.00 59.79 LIG 0.00  C 
ATOM     18  CD1 ILE G   3      38.104   8.013  19.894  1.00 60.74 LIG 0.01  C 
ENDBRANCH 15 17
ENDBRANCH 14 15
BRANCH 14 19
ATOM     19  N   ILE G   3      38.987  11.551  22.945  1.00 79.60 LIG-0.34  N 
ATOM     20 H    ILE G   3      39.818  11.597  23.159  1.00 79.60 LIG 0.16  HD
ATOM     21  C   ASP G   2      38.142  12.577  23.078  1.00 93.07 LIG 0.26  C 
ATOM     22 O    ASP G   2      36.975  12.547  22.686  1.00 81.24 LIG-0.27  OA
BRANCH 21 23
ATOM     23  CA  ASP G   2      38.676  13.837  23.773  1.00 93.30 LIG 0.41  C 
ATOM     24  N   ASP G   2      37.514  14.658  24.218  1.00 94.60 LIG 0.61  N 
BRANCH 23 25
ATOM     25  CB  ASP G   2      39.576  13.501  24.971  1.00 96.36 LIG 0.16  C 
BRANCH 25 26
ATOM     26  CG  ASP G   2      38.796  12.973  26.155  1.00103.24 LIG 0.17  C 
ATOM     27 OD1  ASP G   2      37.939  13.703  26.690  1.00112.85 LIG-0.65  OA
ATOM     28 OD2  ASP G   2      39.032  11.822  26.554  1.00105.87 LIG-0.65  OA
ENDBRANCH 25 26
ENDBRANCH 23 25
ENDBRANCH 21 23
ENDBRANCH 14 19
ENDBRANCH 12 14
ENDBRANCH 5 10
ENDBRANCH 1 5
BRANCH 3 29
ATOM     29  CA  PHE G   5      40.542   3.956  23.319  1.00 70.05 LIG 0.18  C 
BRANCH 29 30
ATOM     30  CB  PHE G   5      42.060   4.140  23.526  1.00 73.20 LIG 0.07  C 
BRANCH 30 31
ATOM     31  CG  PHE G   5      42.811   2.819  23.596  1.00 79.36 LIG-0.06  A 
ATOM     32  CD1 PHE G   5      43.209   2.293  24.850  1.00 85.64 LIG 0.01  A 
ATOM     33  CE1 PHE G   5      43.883   1.082  24.942  1.00 88.71 LIG 0.00  A 
ATOM     34  CZ  PHE G   5      44.165   0.369  23.774  1.00 96.11 LIG 0.00  A 
ATOM     35  CE2 PHE G   5      43.765   0.867  22.524  1.00 91.53 LIG 0.00  A 
ATOM     36  CD2 PHE G   5      43.092   2.082  22.436  1.00 81.01 LIG 0.01  A 
ENDBRANCH 30 31
ENDBRANCH 29 30
BRANCH 29 37
ATOM     37  C   PHE G   5      39.991   2.649  23.876  1.00 74.26 LIG 0.24  C 
ATOM     38  N   PRO G   6      39.789   1.646  22.992  1.00 79.01 LIG-0.34  N 
ATOM     39  CD  PRO G   6      39.926   1.786  21.517  1.00 76.17 LIG 0.13  C 
ATOM     40  CA  PRO G   6      39.103   0.400  23.368  1.00 78.34 LIG 0.18  C 
ATOM     41  CG  PRO G   6      39.668   0.409  21.012  1.00 78.03 LIG 0.02  C 
ATOM     42  CB  PRO G   6      38.692  -0.173  22.001  1.00 82.73 LIG 0.04  C 
ATOM     43 O    PHE G   5      39.665   2.578  25.067  1.00 61.78 LIG-0.27  OA
BRANCH 40 44
ATOM     44  C   PRO G   6      39.941  -0.638  24.148  1.00 77.34 LIG 0.24  C 
ATOM     45 O    PRO G   6      41.149  -0.494  24.213  1.00 92.50 LIG-0.27  OA
ATOM     46  N   ALA G   7      39.301  -1.666  24.724  1.00 74.20 LIG-0.35  N 
ATOM     47 H    ALA G   7      38.464  -1.650  24.923  1.00 74.20 LIG 0.16  HD
BRANCH 46 48
ATOM     48  CA  ALA G   7      39.979  -2.942  25.078  1.00 71.75 LIG 0.16  C 
ATOM     49  CB  ALA G   7      39.193  -3.684  26.158  1.00 70.01 LIG 0.04  C 
BRANCH 48 50
ATOM     50  C   ALA G   7      40.128  -3.829  23.821  1.00 69.94 LIG 0.22  C 
ATOM     51 O    ALA G   7      39.584  -3.492  22.738  1.00 56.97 LIG-0.29  OA
ENDBRANCH 48 50
ENDBRANCH 46 48
ENDBRANCH 40 44
ENDBRANCH 29 37
ENDBRANCH 3 29
TORSDOF 18
ENDMDL
MODEL 9
USER: ADFR SOLUTION from run 119
USER: SCORE 15.143805 LL:  -4.942 LR: -10.685 RR:   0.000 FEB:  -5.316
USER: RMSD 3.810693
USER: SEED 118
USER: STATUS searching
USER: GENES 20
USER: genes 0 Translation |==|  0.46285 0.48815 0.42745
USER: genes 1 Rotation |==|  0.45827 0.58818 0.45755 0.98855
USER: genes 2 Torsion [N]-C--CA-[N] |==|  0.47011
USER: genes 3 Torsion [C]-CA--CB-[CG] |==|  0.65130
USER: genes 4 Torsion [CA]-CB--CG-[CD1] |==|  0.41333
USER: genes 5 Torsion [C]-CA--N-[C] |==|  0.76312
USER: genes 6 Torsion [N]-C--CA-[N] |==|  0.37874
USER: genes 7 Torsion [C]-CA--CB-[CG1] |==|  0.99086
USER: genes 8 Torsion [CA]-CB--CG1-[CD1] |==|  0.64725
USER: genes 9 Torsion [C]-CA--N-[C] |==|  0.77991
USER: genes 10 Torsion [N]-C--CA-[N] |==|  0.93420
USER: genes 11 Torsion [C]-CA--CB-[CG] |==|  0.82091
USER: genes 12 Torsion [CA]-CB--CG-[OD1] |==|  0.95135
USER: genes 13 Torsion [C]-N--CA-[CB] |==|  0.17221
USER: genes 14 Torsion [N]-CA--CB-[CG] |==|  0.73748
USER: genes 15 Torsion [CA]-CB--CG-[CD1] |==|  0.88987
USER: genes 16 Torsion [N]-CA--C-[N] |==|  0.15491
USER: genes 17 Torsion [N]-CA--C-[O] |==|  0.30161
USER: genes 18 Torsion [C]-N--CA-[C] |==|  0.79827
USER: genes 19 Torsion [N]-CA--C-[O] |==|  0.58136
ROOT
ATOM      1  C   LEU G   4      39.346   5.852  21.489  1.00 61.38 LIG 0.24  C 
ATOM      2 O    LEU G   4      38.569   5.755  20.533  1.00 52.06 LIG-0.27  OA
ATOM      3  N   PHE G   5      40.225   4.932  21.846  1.00 60.80 LIG-0.35  N 
ATOM      4 H    PHE G   5      40.775   5.037  22.499  1.00 60.80 LIG 0.16  HD
ENDROOT
BRANCH 1 5
ATOM      5  CA  LEU G   4      39.334   7.055  22.385  1.00 58.56 LIG 0.18  C 
BRANCH 5 6
ATOM      6  CB  LEU G   4      38.776   6.620  23.737  1.00 61.47 LIG 0.04  C 
BRANCH 6 7
ATOM      7  CG  LEU G   4      37.598   7.441  24.215  1.00 62.80 LIG-0.02  C 
ATOM      8  CD1 LEU G   4      36.720   6.522  25.037  1.00 63.22 LIG 0.01  C 
ATOM      9  CD2 LEU G   4      38.126   8.626  25.023  1.00 64.86 LIG 0.01  C 
ENDBRANCH 6 7
ENDBRANCH 5 6
BRANCH 5 10
ATOM     10  N   LEU G   4      38.533   8.093  21.765  1.00 59.02 LIG-0.35  N 
ATOM     11 H    LEU G   4      37.712   8.117  22.019  1.00 59.02 LIG 0.16  HD
ATOM     12  C   ILE G   3      39.074   8.923  20.874  1.00 70.10 LIG 0.24  C 
ATOM     13 O    ILE G   3      40.310   9.000  20.697  1.00 64.55 LIG-0.27  OA
BRANCH 12 14
ATOM     14  CA  ILE G   3      38.084   9.799  20.061  1.00 67.83 LIG 0.18  C 
BRANCH 14 15
ATOM     15  CB  ILE G   3      37.851   9.206  18.635  1.00 66.94 LIG 0.01  C 
ATOM     16  CG2 ILE G   3      38.114  10.265  17.565  1.00 67.41 LIG 0.01  C 
BRANCH 15 17
ATOM     17  CG1 ILE G   3      38.725   7.949  18.372  1.00 59.79 LIG 0.00  C 
ATOM     18  CD1 ILE G   3      39.545   8.030  17.111  1.00 60.74 LIG 0.01  C 
ENDBRANCH 15 17
ENDBRANCH 14 15
BRANCH 14 19
ATOM     19  N   ILE G   3      38.582  11.164  19.980  1.00 79.60 LIG-0.34  N 
ATOM     20 H    ILE G   3      38.960  11.348  19.230  1.00 79.60 LIG 0.16  HD
ATOM     21  C   ASP G   2      38.465  12.048  20.974  1.00 93.07 LIG 0.26  C 
ATOM     22 O    ASP G   2      37.843  11.819  22.013  1.00 81.24 LIG-0.27  OA
BRANCH 21 23
ATOM     23  CA  ASP G   2      39.165  13.401  20.794  1.00 93.30 LIG 0.41  C 
ATOM     24  N   ASP G   2      40.280  13.229  19.819  1.00 94.60 LIG 0.61  N 
BRANCH 23 25
ATOM     25  CB  ASP G   2      38.201  14.493  20.307  1.00 96.36 LIG 0.16  C 
BRANCH 25 26
ATOM     26  CG  ASP G   2      37.651  14.210  18.926  1.00103.24 LIG 0.17  C 
ATOM     27 OD1  ASP G   2      38.231  13.379  18.201  1.00112.85 LIG-0.65  OA
ATOM     28 OD2  ASP G   2      36.630  14.814  18.561  1.00105.87 LIG-0.65  OA
ENDBRANCH 25 26
ENDBRANCH 23 25
ENDBRANCH 21 23
ENDBRANCH 14 19
ENDBRANCH 12 14
ENDBRANCH 5 10
ENDBRANCH 1 5
BRANCH 3 29
ATOM     29  CA  PHE G   5      40.353   3.665  21.185  1.00 70.05 LIG 0.18  C 
BRANCH 29 30
ATOM     30  CB  PHE G   5      40.757   3.861  19.708  1.00 73.20 LIG 0.07  C 
BRANCH 30 31
ATOM     31  CG  PHE G   5      39.562   3.878  18.766  1.00 79.36 LIG-0.06  A 
ATOM     32  CD1 PHE G   5      38.480   2.986  18.972  1.00 85.64 LIG 0.01  A 
ATOM     33  CE1 PHE G   5      37.372   2.992  18.135  1.00 88.71 LIG 0.00  A 
ATOM     34  CZ  PHE G   5      37.324   3.903  17.076  1.00 96.11 LIG 0.00  A 
ATOM     35  CE2 PHE G   5      38.379   4.806  16.867  1.00 91.53 LIG 0.00  A 
ATOM     36  CD2 PHE G   5      39.488   4.794  17.707  1.00 81.01 LIG 0.01  A 
ENDBRANCH 30 31
ENDBRANCH 29 30
BRANCH 29 37
ATOM     37  C   PHE G   5      41.360   2.867  22.005  1.00 74.26 LIG 0.24  C 
ATOM     38  N   PRO G   6      41.084   2.703  23.318  1.00 79.01 LIG-0.34  N 
ATOM     39  CD  PRO G   6      39.959   3.367  24.030  1.00 76.17 LIG 0.13  C 
ATOM     40  CA  PRO G   6      42.053   2.107  24.251  1.00 78.34 LIG 0.18  C 
ATOM     41  CG  PRO G   6      40.049   2.818  25.411  1.00 78.03 LIG 0.02  C 
ATOM     42  CB  PRO G   6      41.520   2.569  25.618  1.00 82.73 LIG 0.04  C 
ATOM     43 O    PHE G   5      42.414   2.487  21.481  1.00 61.78 LIG-0.27  OA
BRANCH 40 44
ATOM     44  C   PRO G   6      42.175   0.566  24.224  1.00 77.34 LIG 0.24  C 
ATOM     45 O    PRO G   6      43.179   0.061  23.752  1.00 92.50 LIG-0.27  OA
ATOM     46  N   ALA G   7      41.163  -0.159  24.722  1.00 74.20 LIG-0.35  N 
ATOM     47 H    ALA G   7      40.592   0.151  25.286  1.00 74.20 LIG 0.16  HD
BRANCH 46 48
ATOM     48  CA  ALA G   7      40.928  -1.579  24.347  1.00 71.75 LIG 0.16  C 
ATOM     49  CB  ALA G   7      39.950  -2.235  25.322  1.00 70.01 LIG 0.04  C 
BRANCH 48 50
ATOM     50  C   ALA G   7      40.380  -1.662  22.904  1.00 69.94 LIG 0.22  C 
ATOM     51 O    ALA G   7      39.622  -2.606  22.566  1.00 56.97 LIG-0.29  OA
ENDBRANCH 48 50
ENDBRANCH 46 48
ENDBRANCH 40 44
ENDBRANCH 29 37
ENDBRANCH 3 29
TORSDOF 18
ENDMDL
MODEL 10
USER: ADFR SOLUTION from run 74
USER: SCORE 14.845298 LL:  -5.174 LR: -10.674 RR:   0.000 FEB:  -5.304
USER: RMSD 3.241462
USER: SEED 73
USER: STATUS no improvement in best in 11 clusters for 5 generations
USER: GENES 20
USER: genes 0 Translation |==|  0.43131 0.50406 0.56983
USER: genes 1 Rotation |==|  0.46912 0.54462 0.46483 0.99580
USER: genes 2 Torsion [N]-C--CA-[N] |==|  0.44492
USER: genes 3 Torsion [C]-CA--CB-[CG] |==|  0.83876
USER: genes 4 Torsion [CA]-CB--CG-[CD1] |==|  0.40690
USER: genes 5 Torsion [C]-CA--N-[C] |==|  0.70957
USER: genes 6 Torsion [N]-C--CA-[N] |==|  0.39665
USER: genes 7 Torsion [C]-CA--CB-[CG1] |==|  0.14478
USER: genes 8 Torsion [CA]-CB--CG1-[CD1] |==|  0.39283
USER: genes 9 Torsion [C]-CA--N-[C] |==|  0.63987
USER: genes 10 Torsion [N]-C--CA-[N] |==|  0.53480
USER: genes 11 Torsion [C]-CA--CB-[CG] |==|  0.82840
USER: genes 12 Torsion [CA]-CB--CG-[OD1] |==|  0.83803
USER: genes 13 Torsion [C]-N--CA-[CB] |==|  0.19933
USER: genes 14 Torsion [N]-CA--CB-[CG] |==|  0.68288
USER: genes 15 Torsion [CA]-CB--CG-[CD1] |==|  0.78434
USER: genes 16 Torsion [N]-CA--C-[N] |==|  0.17220
USER: genes 17 Torsion [N]-CA--C-[O] |==|  0.39263
USER: genes 18 Torsion [C]-N--CA-[C] |==|  0.65203
USER: genes 19 Torsion [N]-CA--C-[O] |==|  0.54722
ROOT
ATOM      1  C   LEU G   4      38.826   6.294  23.838  1.00 61.38 LIG 0.24  C 
ATOM      2 O    LEU G   4      38.232   6.206  22.757  1.00 52.06 LIG-0.27  OA
ATOM      3  N   PHE G   5      39.665   5.392  24.316  1.00 60.80 LIG-0.35  N 
ATOM      4 H    PHE G   5      40.088   5.490  25.058  1.00 60.80 LIG 0.16  HD
ENDROOT
BRANCH 1 5
ATOM      5  CA  LEU G   4      38.608   7.460  24.756  1.00 58.56 LIG 0.18  C 
BRANCH 5 6
ATOM      6  CB  LEU G   4      37.651   7.012  25.856  1.00 61.47 LIG 0.04  C 
BRANCH 6 7
ATOM      7  CG  LEU G   4      36.317   6.508  25.351  1.00 62.80 LIG-0.02  C 
ATOM      8  CD1 LEU G   4      35.869   5.411  26.293  1.00 63.22 LIG 0.01  C 
ATOM      9  CD2 LEU G   4      35.338   7.681  25.309  1.00 64.86 LIG 0.01  C 
ENDBRANCH 6 7
ENDBRANCH 5 6
BRANCH 5 10
ATOM     10  N   LEU G   4      38.082   8.570  23.985  1.00 59.02 LIG-0.35  N 
ATOM     11 H    LEU G   4      37.253   8.500  23.767  1.00 59.02 LIG 0.16  HD
ATOM     12  C   ILE G   3      38.864   9.601  23.664  1.00 70.10 LIG 0.24  C 
ATOM     13 O    ILE G   3      39.989   9.773  24.183  1.00 64.55 LIG-0.27  OA
BRANCH 12 14
ATOM     14  CA  ILE G   3      38.301  10.588  22.606  1.00 67.83 LIG 0.18  C 
BRANCH 14 15
ATOM     15  CB  ILE G   3      38.792  10.212  21.172  1.00 66.94 LIG 0.01  C 
ATOM     16  CG2 ILE G   3      40.281  10.523  21.018  1.00 67.41 LIG 0.01  C 
BRANCH 15 17
ATOM     17  CG1 ILE G   3      38.518   8.721  20.829  1.00 59.79 LIG 0.00  C 
ATOM     18  CD1 ILE G   3      38.086   8.493  19.404  1.00 60.74 LIG 0.01  C 
ENDBRANCH 15 17
ENDBRANCH 14 15
BRANCH 14 19
ATOM     19  N   ILE G   3      38.684  11.949  22.946  1.00 79.60 LIG-0.34  N 
ATOM     20 H    ILE G   3      39.524  12.041  23.106  1.00 79.60 LIG 0.16  HD
ATOM     21  C   ASP G   2      37.816  12.963  23.004  1.00 93.07 LIG 0.26  C 
ATOM     22 O    ASP G   2      36.630  12.857  22.686  1.00 81.24 LIG-0.27  OA
BRANCH 21 23
ATOM     23  CA  ASP G   2      38.346  14.309  23.514  1.00 93.30 LIG 0.41  C 
ATOM     24  N   ASP G   2      37.183  15.200  23.791  1.00 94.60 LIG 0.61  N 
BRANCH 23 25
ATOM     25  CB  ASP G   2      39.206  14.154  24.778  1.00 96.36 LIG 0.16  C 
BRANCH 25 26
ATOM     26  CG  ASP G   2      38.431  13.571  25.940  1.00103.24 LIG 0.17  C 
ATOM     27 OD1  ASP G   2      37.413  14.164  26.347  1.00112.85 LIG-0.65  OA
ATOM     28 OD2  ASP G   2      38.834  12.514  26.449  1.00105.87 LIG-0.65  OA
ENDBRANCH 25 26
ENDBRANCH 23 25
ENDBRANCH 21 23
ENDBRANCH 14 19
ENDBRANCH 12 14
ENDBRANCH 5 10
ENDBRANCH 1 5
BRANCH 3 29
ATOM     29  CA  PHE G   5      39.959   4.156  23.647  1.00 70.05 LIG 0.18  C 
BRANCH 29 30
ATOM     30  CB  PHE G   5      40.820   4.408  22.392  1.00 73.20 LIG 0.07  C 
BRANCH 30 31
ATOM     31  CG  PHE G   5      40.094   4.069  21.099  1.00 79.36 LIG-0.06  A 
ATOM     32  CD1 PHE G   5      39.959   2.718  20.692  1.00 85.64 LIG 0.01  A 
ATOM     33  CE1 PHE G   5      39.289   2.381  19.524  1.00 88.71 LIG 0.00  A 
ATOM     34  CZ  PHE G   5      38.731   3.397  18.742  1.00 96.11 LIG 0.00  A 
ATOM     35  CE2 PHE G   5      38.841   4.739  19.137  1.00 91.53 LIG 0.00  A 
ATOM     36  CD2 PHE G   5      39.516   5.072  20.308  1.00 81.01 LIG 0.01  A 
ENDBRANCH 30 31
ENDBRANCH 29 30
BRANCH 29 37
ATOM     37  C   PHE G   5      40.624   3.266  24.691  1.00 74.26 LIG 0.24  C 
ATOM     38  N   PRO G   6      39.886   2.942  25.776  1.00 79.01 LIG-0.34  N 
ATOM     39  CD  PRO G   6      38.545   3.511  26.082  1.00 76.17 LIG 0.13  C 
ATOM     40  CA  PRO G   6      40.464   2.238  26.932  1.00 78.34 LIG 0.18  C 
ATOM     41  CG  PRO G   6      38.140   2.797  27.323  1.00 78.03 LIG 0.02  C 
ATOM     42  CB  PRO G   6      39.437   2.528  28.040  1.00 82.73 LIG 0.04  C 
ATOM     43 O    PHE G   5      41.814   2.955  24.564  1.00 61.78 LIG-0.27  OA
BRANCH 40 44
ATOM     44  C   PRO G   6      40.661   0.713  26.779  1.00 77.34 LIG 0.24  C 
ATOM     45 O    PRO G   6      41.661   0.196  27.248  1.00 92.50 LIG-0.27  OA
ATOM     46  N   ALA G   7      39.719   0.013  26.130  1.00 74.20 LIG-0.35  N 
ATOM     47 H    ALA G   7      38.910   0.287  26.033  1.00 74.20 LIG 0.16  HD
BRANCH 46 48
ATOM     48  CA  ALA G   7      39.985  -1.313  25.509  1.00 71.75 LIG 0.16  C 
ATOM     49  CB  ALA G   7      39.216  -2.410  26.245  1.00 70.01 LIG 0.04  C 
BRANCH 48 50
ATOM     50  C   ALA G   7      39.584  -1.289  24.017  1.00 69.94 LIG 0.22  C 
ATOM     51 O    ALA G   7      39.422  -2.364  23.386  1.00 56.97 LIG-0.29  OA
ENDBRANCH 48 50
ENDBRANCH 46 48
ENDBRANCH 40 44
ENDBRANCH 29 37
ENDBRANCH 3 29
TORSDOF 18
ENDMDL
MODEL 11
USER: ADFR SOLUTION from run 26
USER: SCORE 14.687611 LL:  -5.435 LR: -10.506 RR:   0.000 FEB:  -5.137
USER: RMSD 4.151905
USER: SEED 25
USER: STATUS no improvement in best in 10 clusters for 5 generations
USER: GENES 20
USER: genes 0 Translation |==|  0.45050 0.47858 0.40923
USER: genes 1 Rotation |==|  0.47622 0.60444 0.45274 0.98610
USER: genes 2 Torsion [N]-C--CA-[N] |==|  0.46195
USER: genes 3 Torsion [C]-CA--CB-[CG] |==|  0.66555
USER: genes 4 Torsion [CA]-CB--CG-[CD1] |==|  0.45121
USER: genes 5 Torsion [C]-CA--N-[C] |==|  0.77676
USER: genes 6 Torsion [N]-C--CA-[N] |==|  0.36517
USER: genes 7 Torsion [C]-CA--CB-[CG1] |==|  0.98995
USER: genes 8 Torsion [CA]-CB--CG1-[CD1] |==|  0.70237
USER: genes 9 Torsion [C]-CA--N-[C] |==|  0.76670
USER: genes 10 Torsion [N]-C--CA-[N] |==|  0.91895
USER: genes 11 Torsion [C]-CA--CB-[CG] |==|  0.83351
USER: genes 12 Torsion [CA]-CB--CG-[OD1] |==|  0.41650
USER: genes 13 Torsion [C]-N--CA-[CB] |==|  0.19161
USER: genes 14 Torsion [N]-CA--CB-[CG] |==|  0.73985
USER: genes 15 Torsion [CA]-CB--CG-[CD1] |==|  0.90222
USER: genes 16 Torsion [N]-CA--C-[N] |==|  0.33717
USER: genes 17 Torsion [N]-CA--C-[O] |==|  0.33318
USER: genes 18 Torsion [C]-N--CA-[C] |==|  0.73630
USER: genes 19 Torsion [N]-CA--C-[O] |==|  0.02197
ROOT
ATOM      1  C   LEU G   4      39.142   5.586  21.188  1.00 61.38 LIG 0.24  C 
ATOM      2 O    LEU G   4      38.309   5.587  20.275  1.00 52.06 LIG-0.27  OA
ATOM      3  N   PHE G   5      40.002   4.612  21.428  1.00 60.80 LIG-0.35  N 
ATOM      4 H    PHE G   5      40.592   4.650  22.052  1.00 60.80 LIG 0.16  HD
ENDROOT
BRANCH 1 5
ATOM      5  CA  LEU G   4      39.229   6.721  22.166  1.00 58.56 LIG 0.18  C 
BRANCH 5 6
ATOM      6  CB  LEU G   4      38.662   6.231  23.496  1.00 61.47 LIG 0.04  C 
BRANCH 6 7
ATOM      7  CG  LEU G   4      37.472   7.023  23.992  1.00 62.80 LIG-0.02  C 
ATOM      8  CD1 LEU G   4      36.779   6.177  25.039  1.00 63.22 LIG 0.01  C 
ATOM      9  CD2 LEU G   4      37.973   8.354  24.552  1.00 64.86 LIG 0.01  C 
ENDBRANCH 6 7
ENDBRANCH 5 6
BRANCH 5 10
ATOM     10  N   LEU G   4      38.493   7.853  21.636  1.00 59.02 LIG-0.35  N 
ATOM     11 H    LEU G   4      37.702   7.954  21.958  1.00 59.02 LIG 0.16  HD
ATOM     12  C   ILE G   3      39.045   8.649  20.720  1.00 70.10 LIG 0.24  C 
ATOM     13 O    ILE G   3      40.264   8.603  20.443  1.00 64.55 LIG-0.27  OA
BRANCH 12 14
ATOM     14  CA  ILE G   3      38.089   9.645  20.010  1.00 67.83 LIG 0.18  C 
BRANCH 14 15
ATOM     15  CB  ILE G   3      37.780   9.181  18.551  1.00 66.94 LIG 0.01  C 
ATOM     16  CG2 ILE G   3      38.071  10.307  17.558  1.00 67.41 LIG 0.01  C 
BRANCH 15 17
ATOM     17  CG1 ILE G   3      38.572   7.903  18.160  1.00 59.79 LIG 0.00  C 
ATOM     18  CD1 ILE G   3      39.697   8.155  17.192  1.00 60.74 LIG 0.01  C 
ENDBRANCH 15 17
ENDBRANCH 14 15
BRANCH 14 19
ATOM     19  N   ILE G   3      38.670  10.978  20.018  1.00 79.60 LIG-0.34  N 
ATOM     20 H    ILE G   3      39.094  11.174  19.296  1.00 79.60 LIG 0.16  HD
ATOM     21  C   ASP G   2      38.558  11.821  21.048  1.00 93.07 LIG 0.26  C 
ATOM     22 O    ASP G   2      37.874  11.583  22.045  1.00 81.24 LIG-0.27  OA
BRANCH 21 23
ATOM     23  CA  ASP G   2      39.344  13.136  20.965  1.00 93.30 LIG 0.41  C 
ATOM     24  N   ASP G   2      40.565  12.904  20.142  1.00 94.60 LIG 0.61  N 
BRANCH 23 25
ATOM     25  CB  ASP G   2      38.508  14.275  20.363  1.00 96.36 LIG 0.16  C 
BRANCH 25 26
ATOM     26  CG  ASP G   2      38.035  13.970  18.958  1.00103.24 LIG 0.17  C 
ATOM     27 OD1  ASP G   2      36.959  14.458  18.561  1.00112.85 LIG-0.65  OA
ATOM     28 OD2  ASP G   2      38.741  13.245  18.241  1.00105.87 LIG-0.65  OA
ENDBRANCH 25 26
ENDBRANCH 23 25
ENDBRANCH 21 23
ENDBRANCH 14 19
ENDBRANCH 12 14
ENDBRANCH 5 10
ENDBRANCH 1 5
BRANCH 3 29
ATOM     29  CA  PHE G   5      40.043   3.393  20.672  1.00 70.05 LIG 0.18  C 
BRANCH 29 30
ATOM     30  CB  PHE G   5      40.539   3.659  19.236  1.00 73.20 LIG 0.07  C 
BRANCH 30 31
ATOM     31  CG  PHE G   5      39.403   3.887  18.251  1.00 79.36 LIG-0.06  A 
ATOM     32  CD1 PHE G   5      38.185   3.177  18.392  1.00 85.64 LIG 0.01  A 
ATOM     33  CE1 PHE G   5      37.127   3.378  17.515  1.00 88.71 LIG 0.00  A 
ATOM     34  CZ  PHE G   5      37.269   4.306  16.479  1.00 96.11 LIG 0.00  A 
ATOM     35  CE2 PHE G   5      38.463   5.031  16.333  1.00 91.53 LIG 0.00  A 
ATOM     36  CD2 PHE G   5      39.520   4.824  17.213  1.00 81.01 LIG 0.01  A 
ENDBRANCH 30 31
ENDBRANCH 29 30
BRANCH 29 37
ATOM     37  C   PHE G   5      40.925   2.438  21.469  1.00 74.26 LIG 0.24  C 
ATOM     38  N   PRO G   6      40.365   1.271  21.858  1.00 79.01 LIG-0.34  N 
ATOM     39  CD  PRO G   6      38.926   0.932  21.690  1.00 76.17 LIG 0.13  C 
ATOM     40  CA  PRO G   6      41.048   0.345  22.775  1.00 78.34 LIG 0.18  C 
ATOM     41  CG  PRO G   6      38.834  -0.461  22.209  1.00 78.03 LIG 0.02  C 
ATOM     42  CB  PRO G   6      39.887  -0.528  23.284  1.00 82.73 LIG 0.04  C 
ATOM     43 O    PHE G   5      42.061   2.791  21.808  1.00 61.78 LIG-0.27  OA
BRANCH 40 44
ATOM     44  C   PRO G   6      42.149  -0.546  22.158  1.00 77.34 LIG 0.24  C 
ATOM     45 O    PRO G   6      43.288  -0.459  22.585  1.00 92.50 LIG-0.27  OA
ATOM     46  N   ALA G   7      41.807  -1.385  21.169  1.00 74.20 LIG-0.35  N 
ATOM     47 H    ALA G   7      41.002  -1.658  21.039  1.00 74.20 LIG 0.16  HD
BRANCH 46 48
ATOM     48  CA  ALA G   7      42.792  -1.926  20.195  1.00 71.75 LIG 0.16  C 
ATOM     49  CB  ALA G   7      42.453  -3.374  19.841  1.00 70.01 LIG 0.04  C 
BRANCH 48 50
ATOM     50  C   ALA G   7      42.809  -1.055  18.919  1.00 69.94 LIG 0.22  C 
ATOM     51 O    ALA G   7      42.170   0.027  18.880  1.00 56.97 LIG-0.29  OA
ENDBRANCH 48 50
ENDBRANCH 46 48
ENDBRANCH 40 44
ENDBRANCH 29 37
ENDBRANCH 3 29
TORSDOF 18
ENDMDL
MODEL 12
USER: ADFR SOLUTION from run 14
USER: SCORE 14.326923 LL:  -5.228 LR: -10.488 RR:   0.000 FEB:  -5.118
USER: RMSD 3.274935
USER: SEED 626708
USER: STATUS no improvement in best in 11 clusters for 5 generations
USER: GENES 20
USER: genes 0 Translation |==|  0.47555 0.49617 0.43348
USER: genes 1 Rotation |==|  0.41310 0.71146 0.51481 0.94442
USER: genes 2 Torsion [N]-C--CA-[N] |==|  0.39952
USER: genes 3 Torsion [C]-CA--CB-[CG] |==|  0.90011
USER: genes 4 Torsion [CA]-CB--CG-[CD1] |==|  0.42601
USER: genes 5 Torsion [C]-CA--N-[C] |==|  0.72447
USER: genes 6 Torsion [N]-C--CA-[N] |==|  0.37916
USER: genes 7 Torsion [C]-CA--CB-[CG1] |==|  0.97893
USER: genes 8 Torsion [CA]-CB--CG1-[CD1] |==|  0.31573
USER: genes 9 Torsion [C]-CA--N-[C] |==|  0.77353
USER: genes 10 Torsion [N]-C--CA-[N] |==|  0.95097
USER: genes 11 Torsion [C]-CA--CB-[CG] |==|  0.82485
USER: genes 12 Torsion [CA]-CB--CG-[OD1] |==|  0.91042
USER: genes 13 Torsion [C]-N--CA-[CB] |==|  0.42787
USER: genes 14 Torsion [N]-CA--CB-[CG] |==|  0.67942
USER: genes 15 Torsion [CA]-CB--CG-[CD1] |==|  0.52033
USER: genes 16 Torsion [N]-CA--C-[N] |==|  0.42347
USER: genes 17 Torsion [N]-CA--C-[O] |==|  0.00768
USER: genes 18 Torsion [C]-N--CA-[C] |==|  0.79838
USER: genes 19 Torsion [N]-CA--C-[O] |==|  0.93179
ROOT
ATOM      1  C   LEU G   4      39.556   6.075  21.588  1.00 61.38 LIG 0.24  C 
ATOM      2 O    LEU G   4      38.442   5.703  21.201  1.00 52.06 LIG-0.27  OA
ATOM      3  N   PHE G   5      40.671   5.377  21.467  1.00 60.80 LIG-0.35  N 
ATOM      4 H    PHE G   5      41.438   5.671  21.719  1.00 60.80 LIG 0.16  HD
ENDROOT
BRANCH 1 5
ATOM      5  CA  LEU G   4      39.740   7.387  22.292  1.00 58.56 LIG 0.18  C 
BRANCH 5 6
ATOM      6  CB  LEU G   4      39.430   7.168  23.770  1.00 61.47 LIG 0.04  C 
BRANCH 6 7
ATOM      7  CG  LEU G   4      38.310   6.184  24.030  1.00 62.80 LIG-0.02  C 
ATOM      8  CD1 LEU G   4      38.554   5.584  25.399  1.00 63.22 LIG 0.01  C 
ATOM      9  CD2 LEU G   4      36.978   6.929  23.945  1.00 64.86 LIG 0.01  C 
ENDBRANCH 6 7
ENDBRANCH 5 6
BRANCH 5 10
ATOM     10  N   LEU G   4      38.864   8.371  21.684  1.00 59.02 LIG-0.35  N 
ATOM     11 H    LEU G   4      38.047   8.342  21.950  1.00 59.02 LIG 0.16  HD
ATOM     12  C   ILE G   3      39.337   9.234  20.786  1.00 70.10 LIG 0.24  C 
ATOM     13 O    ILE G   3      40.563   9.391  20.592  1.00 64.55 LIG-0.27  OA
BRANCH 12 14
ATOM     14  CA  ILE G   3      38.281  10.044  19.988  1.00 67.83 LIG 0.18  C 
BRANCH 14 15
ATOM     15  CB  ILE G   3      38.063   9.434  18.567  1.00 66.94 LIG 0.01  C 
ATOM     16  CG2 ILE G   3      38.137  10.526  17.499  1.00 67.41 LIG 0.01  C 
BRANCH 15 17
ATOM     17  CG1 ILE G   3      39.083   8.305  18.250  1.00 59.79 LIG 0.00  C 
ATOM     18  CD1 ILE G   3      38.459   6.941  18.115  1.00 60.74 LIG 0.01  C 
ENDBRANCH 15 17
ENDBRANCH 14 15
BRANCH 14 19
ATOM     19  N   ILE G   3      38.690  11.437  19.897  1.00 79.60 LIG-0.34  N 
ATOM     20 H    ILE G   3      39.072  11.636  19.153  1.00 79.60 LIG 0.16  HD
ATOM     21  C   ASP G   2      38.493  12.325  20.876  1.00 93.07 LIG 0.26  C 
ATOM     22 O    ASP G   2      37.864  12.069  21.904  1.00 81.24 LIG-0.27  OA
BRANCH 21 23
ATOM     23  CA  ASP G   2      39.107  13.718  20.691  1.00 93.30 LIG 0.41  C 
ATOM     24  N   ASP G   2      40.155  13.635  19.634  1.00 94.60 LIG 0.61  N 
BRANCH 23 25
ATOM     25  CB  ASP G   2      38.054  14.770  20.311  1.00 96.36 LIG 0.16  C 
BRANCH 25 26
ATOM     26  CG  ASP G   2      37.395  14.480  18.979  1.00103.24 LIG 0.17  C 
ATOM     27 OD1  ASP G   2      38.058  13.918  18.085  1.00112.85 LIG-0.65  OA
ATOM     28 OD2  ASP G   2      36.209  14.806  18.822  1.00105.87 LIG-0.65  OA
ENDBRANCH 25 26
ENDBRANCH 23 25
ENDBRANCH 21 23
ENDBRANCH 14 19
ENDBRANCH 12 14
ENDBRANCH 5 10
ENDBRANCH 1 5
BRANCH 3 29
ATOM     29  CA  PHE G   5      40.718   4.058  20.902  1.00 70.05 LIG 0.18  C 
BRANCH 29 30
ATOM     30  CB  PHE G   5      42.112   3.770  20.307  1.00 73.20 LIG 0.07  C 
BRANCH 30 31
ATOM     31  CG  PHE G   5      42.083   3.575  18.799  1.00 79.36 LIG-0.06  A 
ATOM     32  CD1 PHE G   5      43.248   3.151  18.113  1.00 85.64 LIG 0.01  A 
ATOM     33  CE1 PHE G   5      43.244   2.952  16.739  1.00 88.71 LIG 0.00  A 
ATOM     34  CZ  PHE G   5      42.062   3.168  16.024  1.00 96.11 LIG 0.00  A 
ATOM     35  CE2 PHE G   5      40.894   3.572  16.688  1.00 91.53 LIG 0.00  A 
ATOM     36  CD2 PHE G   5      40.904   3.773  18.065  1.00 81.01 LIG 0.01  A 
ENDBRANCH 30 31
ENDBRANCH 29 30
BRANCH 29 37
ATOM     37  C   PHE G   5      40.312   3.109  22.024  1.00 74.26 LIG 0.24  C 
ATOM     38  N   PRO G   6      39.732   1.944  21.659  1.00 79.01 LIG-0.34  N 
ATOM     39  CD  PRO G   6      39.338   1.602  20.265  1.00 76.17 LIG 0.13  C 
ATOM     40  CA  PRO G   6      39.139   1.025  22.643  1.00 78.34 LIG 0.18  C 
ATOM     41  CG  PRO G   6      38.816   0.213  20.383  1.00 78.03 LIG 0.02  C 
ATOM     42  CB  PRO G   6      38.223   0.154  21.766  1.00 82.73 LIG 0.04  C 
ATOM     43 O    PHE G   5      40.432   3.466  23.203  1.00 61.78 LIG-0.27  OA
BRANCH 40 44
ATOM     44  C   PRO G   6      40.124   0.131  23.430  1.00 77.34 LIG 0.24  C 
ATOM     45 O    PRO G   6      41.321   0.263  23.241  1.00 92.50 LIG-0.27  OA
ATOM     46  N   ALA G   7      39.619  -0.761  24.294  1.00 74.20 LIG-0.35  N 
ATOM     47 H    ALA G   7      38.834  -0.694  24.639  1.00 74.20 LIG 0.16  HD
BRANCH 46 48
ATOM     48  CA  ALA G   7      40.372  -1.963  24.743  1.00 71.75 LIG 0.16  C 
ATOM     49  CB  ALA G   7      39.706  -2.583  25.971  1.00 70.01 LIG 0.04  C 
BRANCH 48 50
ATOM     50  C   ALA G   7      40.450  -2.998  23.598  1.00 69.94 LIG 0.22  C 
ATOM     51 O    ALA G   7      39.584  -3.003  22.686  1.00 56.97 LIG-0.29  OA
ENDBRANCH 48 50
ENDBRANCH 46 48
ENDBRANCH 40 44
ENDBRANCH 29 37
ENDBRANCH 3 29
TORSDOF 18
ENDMDL
MODEL 13
USER: ADFR SOLUTION from run 184
USER: SCORE 15.087289 LL:  -5.077 LR: -10.332 RR:   0.000 FEB:  -4.963
USER: RMSD 5.031089
USER: SEED 183
USER: STATUS searching
USER: GENES 20
USER: genes 0 Translation |==|  0.44038 0.49037 0.56032
USER: genes 1 Rotation |==|  0.47501 0.43671 0.44513 0.99230
USER: genes 2 Torsion [N]-C--CA-[N] |==|  0.45077
USER: genes 3 Torsion [C]-CA--CB-[CG] |==|  0.48782
USER: genes 4 Torsion [CA]-CB--CG-[CD1] |==|  0.48427
USER: genes 5 Torsion [C]-CA--N-[C] |==|  0.74068
USER: genes 6 Torsion [N]-C--CA-[N] |==|  0.91556
USER: genes 7 Torsion [C]-CA--CB-[CG1] |==|  0.49149
USER: genes 8 Torsion [CA]-CB--CG1-[CD1] |==|  0.48917
USER: genes 9 Torsion [C]-CA--N-[C] |==|  0.78519
USER: genes 10 Torsion [N]-C--CA-[N] |==|  0.19236
USER: genes 11 Torsion [C]-CA--CB-[CG] |==|  0.66839
USER: genes 12 Torsion [CA]-CB--CG-[OD1] |==|  0.65123
USER: genes 13 Torsion [C]-N--CA-[CB] |==|  0.14341
USER: genes 14 Torsion [N]-CA--CB-[CG] |==|  0.66846
USER: genes 15 Torsion [CA]-CB--CG-[CD1] |==|  0.85260
USER: genes 16 Torsion [N]-CA--C-[N] |==|  0.15000
USER: genes 17 Torsion [N]-CA--C-[O] |==|  0.41216
USER: genes 18 Torsion [C]-N--CA-[C] |==|  0.67224
USER: genes 19 Torsion [N]-CA--C-[O] |==|  0.97691
ROOT
ATOM      1  C   LEU G   4      38.975   5.914  23.681  1.00 61.38 LIG 0.24  C 
ATOM      2 O    LEU G   4      38.890   5.828  22.451  1.00 52.06 LIG-0.27  OA
ATOM      3  N   PHE G   5      39.482   4.984  24.472  1.00 60.80 LIG-0.35  N 
ATOM      4 H    PHE G   5      39.556   5.081  25.323  1.00 60.80 LIG 0.16  HD
ENDROOT
BRANCH 1 5
ATOM      5  CA  LEU G   4      38.457   7.113  24.418  1.00 58.56 LIG 0.18  C 
BRANCH 5 6
ATOM      6  CB  LEU G   4      37.125   6.726  25.055  1.00 61.47 LIG 0.04  C 
BRANCH 6 7
ATOM      7  CG  LEU G   4      36.519   7.804  25.927  1.00 62.80 LIG-0.02  C 
ATOM      8  CD1 LEU G   4      35.153   7.313  26.357  1.00 63.22 LIG 0.01  C 
ATOM      9  CD2 LEU G   4      37.451   8.055  27.111  1.00 64.86 LIG 0.01  C 
ENDBRANCH 6 7
ENDBRANCH 5 6
BRANCH 5 10
ATOM     10  N   LEU G   4      38.322   8.214  23.483  1.00 59.02 LIG-0.35  N 
ATOM     11 H    LEU G   4      37.573   8.242  23.061  1.00 59.02 LIG 0.16  HD
ATOM     12  C   ILE G   3      39.312   9.092  23.324  1.00 70.10 LIG 0.24  C 
ATOM     13 O    ILE G   3      40.286   9.149  24.108  1.00 64.55 LIG-0.27  OA
BRANCH 12 14
ATOM     14  CA  ILE G   3      39.193  10.051  22.109  1.00 67.83 LIG 0.18  C 
BRANCH 14 15
ATOM     15  CB  ILE G   3      38.490  11.385  22.515  1.00 66.94 LIG 0.01  C 
ATOM     16  CG2 ILE G   3      39.195  12.018  23.715  1.00 67.41 LIG 0.01  C 
BRANCH 15 17
ATOM     17  CG1 ILE G   3      38.424  12.396  21.337  1.00 59.79 LIG 0.00  C 
ATOM     18  CD1 ILE G   3      37.671  13.660  21.659  1.00 60.74 LIG 0.01  C 
ENDBRANCH 15 17
ENDBRANCH 14 15
BRANCH 14 19
ATOM     19  N   ILE G   3      38.475   9.392  21.029  1.00 79.60 LIG-0.34  N 
ATOM     20 H    ILE G   3      37.658   9.648  20.953  1.00 79.60 LIG 0.16  HD
ATOM     21  C   ASP G   2      39.030   8.478  20.229  1.00 93.07 LIG 0.26  C 
ATOM     22 O    ASP G   2      40.224   8.176  20.273  1.00 81.24 LIG-0.27  OA
BRANCH 21 23
ATOM     23  CA  ASP G   2      38.106   7.770  19.229  1.00 93.30 LIG 0.41  C 
ATOM     24  N   ASP G   2      37.687   8.758  18.194  1.00 94.60 LIG 0.61  N 
BRANCH 23 25
ATOM     25  CB  ASP G   2      38.786   6.564  18.565  1.00 96.36 LIG 0.16  C 
BRANCH 25 26
ATOM     26  CG  ASP G   2      38.885   6.707  17.062  1.00103.24 LIG 0.17  C 
ATOM     27 OD1  ASP G   2      38.422   5.806  16.335  1.00112.85 LIG-0.65  OA
ATOM     28 OD2  ASP G   2      39.421   7.725  16.599  1.00105.87 LIG-0.65  OA
ENDBRANCH 25 26
ENDBRANCH 23 25
ENDBRANCH 21 23
ENDBRANCH 14 19
ENDBRANCH 12 14
ENDBRANCH 5 10
ENDBRANCH 1 5
BRANCH 3 29
ATOM     29  CA  PHE G   5      39.960   3.718  23.994  1.00 70.05 LIG 0.18  C 
BRANCH 29 30
ATOM     30  CB  PHE G   5      40.959   3.916  22.835  1.00 73.20 LIG 0.07  C 
BRANCH 30 31
ATOM     31  CG  PHE G   5      40.499   3.265  21.539  1.00 79.36 LIG-0.06  A 
ATOM     32  CD1 PHE G   5      40.129   1.897  21.522  1.00 85.64 LIG 0.01  A 
ATOM     33  CE1 PHE G   5      39.692   1.283  20.356  1.00 88.71 LIG 0.00  A 
ATOM     34  CZ  PHE G   5      39.608   2.036  19.181  1.00 96.11 LIG 0.00  A 
ATOM     35  CE2 PHE G   5      39.953   3.397  19.182  1.00 91.53 LIG 0.00  A 
ATOM     36  CD2 PHE G   5      40.394   4.006  20.353  1.00 81.01 LIG 0.01  A 
ENDBRANCH 30 31
ENDBRANCH 29 30
BRANCH 29 37
ATOM     37  C   PHE G   5      40.548   3.009  25.209  1.00 74.26 LIG 0.24  C 
ATOM     38  N   PRO G   6      39.745   2.882  26.289  1.00 79.01 LIG-0.34  N 
ATOM     39  CD  PRO G   6      38.403   3.510  26.417  1.00 76.17 LIG 0.13  C 
ATOM     40  CA  PRO G   6      40.245   2.377  27.577  1.00 78.34 LIG 0.18  C 
ATOM     41  CG  PRO G   6      37.914   3.021  27.735  1.00 78.03 LIG 0.02  C 
ATOM     42  CB  PRO G   6      39.165   2.862  28.560  1.00 82.73 LIG 0.04  C 
ATOM     43 O    PHE G   5      41.737   2.668  25.204  1.00 61.78 LIG-0.27  OA
BRANCH 40 44
ATOM     44  C   PRO G   6      40.418   0.845  27.695  1.00 77.34 LIG 0.24  C 
ATOM     45 O    PRO G   6      41.303   0.404  28.407  1.00 92.50 LIG-0.27  OA
ATOM     46  N   ALA G   7      39.583   0.057  27.002  1.00 74.20 LIG-0.35  N 
ATOM     47 H    ALA G   7      38.812   0.316  26.722  1.00 74.20 LIG 0.16  HD
BRANCH 46 48
ATOM     48  CA  ALA G   7      39.911  -1.349  26.646  1.00 71.75 LIG 0.16  C 
ATOM     49  CB  ALA G   7      38.881  -2.306  27.247  1.00 70.01 LIG 0.04  C 
BRANCH 48 50
ATOM     50  C   ALA G   7      39.958  -1.511  25.110  1.00 69.94 LIG 0.22  C 
ATOM     51 O    ALA G   7      39.584  -0.572  24.361  1.00 56.97 LIG-0.29  OA
ENDBRANCH 48 50
ENDBRANCH 46 48
ENDBRANCH 40 44
ENDBRANCH 29 37
ENDBRANCH 3 29
TORSDOF 18
ENDMDL
MODEL 14
USER: ADFR SOLUTION from run 138
USER: SCORE 14.864128 LL:  -5.225 LR: -10.310 RR:   0.000 FEB:  -4.941
USER: RMSD 4.408168
USER: SEED 137
USER: STATUS searching
USER: GENES 20
USER: genes 0 Translation |==|  0.45421 0.49148 0.59594
USER: genes 1 Rotation |==|  0.41087 0.36165 0.55254 0.96921
USER: genes 2 Torsion [N]-C--CA-[N] |==|  0.44562
USER: genes 3 Torsion [C]-CA--CB-[CG] |==|  0.34597
USER: genes 4 Torsion [CA]-CB--CG-[CD1] |==|  0.28603
USER: genes 5 Torsion [C]-CA--N-[C] |==|  0.79627
USER: genes 6 Torsion [N]-C--CA-[N] |==|  0.39594
USER: genes 7 Torsion [C]-CA--CB-[CG1] |==|  0.32103
USER: genes 8 Torsion [CA]-CB--CG1-[CD1] |==|  0.17492
USER: genes 9 Torsion [C]-CA--N-[C] |==|  0.83039
USER: genes 10 Torsion [N]-C--CA-[N] |==|  0.98857
USER: genes 11 Torsion [C]-CA--CB-[CG] |==|  0.79656
USER: genes 12 Torsion [CA]-CB--CG-[OD1] |==|  0.03763
USER: genes 13 Torsion [C]-N--CA-[CB] |==|  0.52848
USER: genes 14 Torsion [N]-CA--CB-[CG] |==|  0.21396
USER: genes 15 Torsion [CA]-CB--CG-[CD1] |==|  0.80826
USER: genes 16 Torsion [N]-CA--C-[N] |==|  0.30349
USER: genes 17 Torsion [N]-CA--C-[O] |==|  0.58028
USER: genes 18 Torsion [C]-N--CA-[C] |==|  0.88525
USER: genes 19 Torsion [N]-CA--C-[O] |==|  0.34699
ROOT
ATOM      1  C   LEU G   4      39.203   5.945  24.269  1.00 61.38 LIG 0.24  C 
ATOM      2 O    LEU G   4      39.543   5.492  23.170  1.00 52.06 LIG-0.27  OA
ATOM      3  N   PHE G   5      39.715   5.577  25.430  1.00 60.80 LIG-0.35  N 
ATOM      4 H    PHE G   5      39.481   5.929  26.179  1.00 60.80 LIG 0.16  HD
ENDROOT
BRANCH 1 5
ATOM      5  CA  LEU G   4      38.110   6.965  24.388  1.00 58.56 LIG 0.18  C 
BRANCH 5 6
ATOM      6  CB  LEU G   4      36.844   6.239  24.832  1.00 61.47 LIG 0.04  C 
BRANCH 6 7
ATOM      7  CG  LEU G   4      36.219   6.795  26.093  1.00 62.80 LIG-0.02  C 
ATOM      8  CD1 LEU G   4      35.022   7.619  25.670  1.00 63.22 LIG 0.01  C 
ATOM      9  CD2 LEU G   4      35.836   5.629  27.002  1.00 64.86 LIG 0.01  C 
ENDBRANCH 6 7
ENDBRANCH 5 6
BRANCH 5 10
ATOM     10  N   LEU G   4      37.947   7.628  23.109  1.00 59.02 LIG-0.35  N 
ATOM     11 H    LEU G   4      37.240   7.405  22.672  1.00 59.02 LIG 0.16  HD
ATOM     12  C   ILE G   3      38.852   8.510  22.683  1.00 70.10 LIG 0.24  C 
ATOM     13 O    ILE G   3      39.741   8.969  23.434  1.00 64.55 LIG-0.27  OA
BRANCH 12 14
ATOM     14  CA  ILE G   3      38.745   8.942  21.196  1.00 67.83 LIG 0.18  C 
BRANCH 14 15
ATOM     15  CB  ILE G   3      39.678   8.075  20.292  1.00 66.94 LIG 0.01  C 
ATOM     16  CG2 ILE G   3      40.573   7.181  21.150  1.00 67.41 LIG 0.01  C 
BRANCH 15 17
ATOM     17  CG1 ILE G   3      38.877   7.215  19.275  1.00 59.79 LIG 0.00  C 
ATOM     18  CD1 ILE G   3      38.084   8.024  18.283  1.00 60.74 LIG 0.01  C 
ENDBRANCH 15 17
ENDBRANCH 14 15
BRANCH 14 19
ATOM     19  N   ILE G   3      39.064  10.355  21.068  1.00 79.60 LIG-0.34  N 
ATOM     20 H    ILE G   3      39.745  10.510  20.567  1.00 79.60 LIG 0.16  HD
ATOM     21  C   ASP G   2      38.366  11.322  21.670  1.00 93.07 LIG 0.26  C 
ATOM     22 O    ASP G   2      37.335  11.114  22.311  1.00 81.24 LIG-0.27  OA
BRANCH 21 23
ATOM     23  CA  ASP G   2      38.910  12.752  21.554  1.00 93.30 LIG 0.41  C 
ATOM     24  N   ASP G   2      40.215  12.704  20.835  1.00 94.60 LIG 0.61  N 
BRANCH 23 25
ATOM     25  CB  ASP G   2      37.935  13.686  20.821  1.00 96.36 LIG 0.16  C 
BRANCH 25 26
ATOM     26  CG  ASP G   2      37.884  13.421  19.332  1.00103.24 LIG 0.17  C 
ATOM     27 OD1  ASP G   2      38.389  12.371  18.886  1.00112.85 LIG-0.65  OA
ATOM     28 OD2  ASP G   2      37.334  14.258  18.600  1.00105.87 LIG-0.65  OA
ENDBRANCH 25 26
ENDBRANCH 23 25
ENDBRANCH 21 23
ENDBRANCH 14 19
ENDBRANCH 12 14
ENDBRANCH 5 10
ENDBRANCH 1 5
BRANCH 3 29
ATOM     29  CA  PHE G   5      40.714   4.554  25.564  1.00 70.05 LIG 0.18  C 
BRANCH 29 30
ATOM     30  CB  PHE G   5      40.916   4.182  27.047  1.00 73.20 LIG 0.07  C 
BRANCH 30 31
ATOM     31  CG  PHE G   5      39.809   3.292  27.590  1.00 79.36 LIG-0.06  A 
ATOM     32  CD1 PHE G   5      38.501   3.810  27.766  1.00 85.64 LIG 0.01  A 
ATOM     33  CE1 PHE G   5      37.469   3.015  28.247  1.00 88.71 LIG 0.00  A 
ATOM     34  CZ  PHE G   5      37.728   1.675  28.553  1.00 96.11 LIG 0.00  A 
ATOM     35  CE2 PHE G   5      39.013   1.140  28.369  1.00 91.53 LIG 0.00  A 
ATOM     36  CD2 PHE G   5      40.044   1.942  27.890  1.00 81.01 LIG 0.01  A 
ENDBRANCH 30 31
ENDBRANCH 29 30
BRANCH 29 37
ATOM     37  C   PHE G   5      40.244   3.397  24.689  1.00 74.26 LIG 0.24  C 
ATOM     38  N   PRO G   6      40.946   3.163  23.558  1.00 79.01 LIG-0.34  N 
ATOM     39  CD  PRO G   6      42.034   4.040  23.047  1.00 76.17 LIG 0.13  C 
ATOM     40  CA  PRO G   6      40.495   2.195  22.546  1.00 78.34 LIG 0.18  C 
ATOM     41  CG  PRO G   6      42.517   3.324  21.835  1.00 78.03 LIG 0.02  C 
ATOM     42  CB  PRO G   6      41.294   2.624  21.303  1.00 82.73 LIG 0.04  C 
ATOM     43 O    PHE G   5      39.209   2.787  24.983  1.00 61.78 LIG-0.27  OA
BRANCH 40 44
ATOM     44  C   PRO G   6      40.759   0.704  22.856  1.00 77.34 LIG 0.24  C 
ATOM     45 O    PRO G   6      40.919  -0.073  21.931  1.00 92.50 LIG-0.27  OA
ATOM     46  N   ALA G   7      40.799   0.320  24.141  1.00 74.20 LIG-0.35  N 
ATOM     47 H    ALA G   7      40.958   0.861  24.791  1.00 74.20 LIG 0.16  HD
BRANCH 46 48
ATOM     48  CA  ALA G   7      40.571  -1.086  24.570  1.00 71.75 LIG 0.16  C 
ATOM     49  CB  ALA G   7      40.269  -1.145  26.067  1.00 70.01 LIG 0.04  C 
BRANCH 48 50
ATOM     50  C   ALA G   7      39.405  -1.702  23.765  1.00 69.94 LIG 0.22  C 
ATOM     51 O    ALA G   7      39.570  -2.772  23.125  1.00 56.97 LIG-0.29  OA
ENDBRANCH 48 50
ENDBRANCH 46 48
ENDBRANCH 40 44
ENDBRANCH 29 37
ENDBRANCH 3 29
TORSDOF 18
ENDMDL
MODEL 15
USER: ADFR SOLUTION from run 53
USER: SCORE 13.859056 LL:  -5.225 LR: -10.240 RR:   0.000 FEB:  -4.870
USER: RMSD 3.829546
USER: SEED 52
USER: STATUS no improvement in best in 18 clusters for 5 generations
USER: GENES 20
USER: genes 0 Translation |==|  0.44596 0.49740 0.60124
USER: genes 1 Rotation |==|  0.41202 0.34977 0.57478 0.96271
USER: genes 2 Torsion [N]-C--CA-[N] |==|  0.44265
USER: genes 3 Torsion [C]-CA--CB-[CG] |==|  0.33771
USER: genes 4 Torsion [CA]-CB--CG-[CD1] |==|  0.95234
USER: genes 5 Torsion [C]-CA--N-[C] |==|  0.81297
USER: genes 6 Torsion [N]-C--CA-[N] |==|  0.41147
USER: genes 7 Torsion [C]-CA--CB-[CG1] |==|  0.25074
USER: genes 8 Torsion [CA]-CB--CG1-[CD1] |==|  0.34630
USER: genes 9 Torsion [C]-CA--N-[C] |==|  0.83333
USER: genes 10 Torsion [N]-C--CA-[N] |==|  0.98750
USER: genes 11 Torsion [C]-CA--CB-[CG] |==|  0.79562
USER: genes 12 Torsion [CA]-CB--CG-[OD1] |==|  0.00858
USER: genes 13 Torsion [C]-N--CA-[CB] |==|  0.42980
USER: genes 14 Torsion [N]-CA--CB-[CG] |==|  0.94997
USER: genes 15 Torsion [CA]-CB--CG-[CD1] |==|  0.80167
USER: genes 16 Torsion [N]-CA--C-[N] |==|  0.29705
USER: genes 17 Torsion [N]-CA--C-[O] |==|  0.00821
USER: genes 18 Torsion [C]-N--CA-[C] |==|  0.60322
USER: genes 19 Torsion [N]-CA--C-[O] |==|  0.06631
ROOT
ATOM      1  C   LEU G   4      39.067   6.109  24.356  1.00 61.38 LIG 0.24  C 
ATOM      2 O    LEU G   4      39.489   5.671  23.280  1.00 52.06 LIG-0.27  OA
ATOM      3  N   PHE G   5      39.569   5.813  25.542  1.00 60.80 LIG-0.35  N 
ATOM      4 H    PHE G   5      39.276   6.155  26.275  1.00 60.80 LIG 0.16  HD
ENDROOT
BRANCH 1 5
ATOM      5  CA  LEU G   4      37.878   7.022  24.416  1.00 58.56 LIG 0.18  C 
BRANCH 5 6
ATOM      6  CB  LEU G   4      36.667   6.180  24.805  1.00 61.47 LIG 0.04  C 
BRANCH 6 7
ATOM      7  CG  LEU G   4      35.975   6.637  26.071  1.00 62.80 LIG-0.02  C 
ATOM      8  CD1 LEU G   4      36.943   7.540  26.806  1.00 63.22 LIG 0.01  C 
ATOM      9  CD2 LEU G   4      34.681   7.355  25.686  1.00 64.86 LIG 0.01  C 
ENDBRANCH 6 7
ENDBRANCH 5 6
BRANCH 5 10
ATOM     10  N   LEU G   4      37.714   7.661  23.125  1.00 59.02 LIG-0.35  N 
ATOM     11 H    LEU G   4      37.008   7.429  22.692  1.00 59.02 LIG 0.16  HD
ATOM     12  C   ILE G   3      38.618   8.537  22.684  1.00 70.10 LIG 0.24  C 
ATOM     13 O    ILE G   3      39.505   9.012  23.427  1.00 64.55 LIG-0.27  OA
BRANCH 12 14
ATOM     14  CA  ILE G   3      38.510   8.943  21.190  1.00 67.83 LIG 0.18  C 
BRANCH 14 15
ATOM     15  CB  ILE G   3      39.335   7.974  20.285  1.00 66.94 LIG 0.01  C 
ATOM     16  CG2 ILE G   3      40.579   7.480  21.025  1.00 67.41 LIG 0.01  C 
BRANCH 15 17
ATOM     17  CG1 ILE G   3      38.490   6.766  19.793  1.00 59.79 LIG 0.00  C 
ATOM     18  CD1 ILE G   3      38.469   6.606  18.296  1.00 60.74 LIG 0.01  C 
ENDBRANCH 15 17
ENDBRANCH 14 15
BRANCH 14 19
ATOM     19  N   ILE G   3      38.954  10.317  21.017  1.00 79.60 LIG-0.34  N 
ATOM     20 H    ILE G   3      39.623  10.399  20.485  1.00 79.60 LIG 0.16  HD
ATOM     21  C   ASP G   2      38.376  11.356  21.628  1.00 93.07 LIG 0.26  C 
ATOM     22 O    ASP G   2      37.360  11.257  22.317  1.00 81.24 LIG-0.27  OA
BRANCH 21 23
ATOM     23  CA  ASP G   2      39.045  12.727  21.458  1.00 93.30 LIG 0.41  C 
ATOM     24  N   ASP G   2      40.311  12.542  20.693  1.00 94.60 LIG 0.61  N 
BRANCH 23 25
ATOM     25  CB  ASP G   2      38.134  13.732  20.739  1.00 96.36 LIG 0.16  C 
BRANCH 25 26
ATOM     26  CG  ASP G   2      38.008  13.447  19.258  1.00103.24 LIG 0.17  C 
ATOM     27 OD1  ASP G   2      38.572  12.442  18.784  1.00112.85 LIG-0.65  OA
ATOM     28 OD2  ASP G   2      37.338  14.224  18.561  1.00105.87 LIG-0.65  OA
ENDBRANCH 25 26
ENDBRANCH 23 25
ENDBRANCH 21 23
ENDBRANCH 14 19
ENDBRANCH 12 14
ENDBRANCH 5 10
ENDBRANCH 1 5
BRANCH 3 29
ATOM     29  CA  PHE G   5      40.655   4.894  25.732  1.00 70.05 LIG 0.18  C 
BRANCH 29 30
ATOM     30  CB  PHE G   5      41.413   5.209  27.038  1.00 73.20 LIG 0.07  C 
BRANCH 30 31
ATOM     31  CG  PHE G   5      41.137   6.611  27.559  1.00 79.36 LIG-0.06  A 
ATOM     32  CD1 PHE G   5      41.665   7.739  26.881  1.00 85.64 LIG 0.01  A 
ATOM     33  CE1 PHE G   5      41.416   9.030  27.327  1.00 88.71 LIG 0.00  A 
ATOM     34  CZ  PHE G   5      40.621   9.216  28.462  1.00 96.11 LIG 0.00  A 
ATOM     35  CE2 PHE G   5      40.075   8.112  29.137  1.00 91.53 LIG 0.00  A 
ATOM     36  CD2 PHE G   5      40.331   6.820  28.687  1.00 81.01 LIG 0.01  A 
ENDBRANCH 30 31
ENDBRANCH 29 30
BRANCH 29 37
ATOM     37  C   PHE G   5      40.035   3.502  25.692  1.00 74.26 LIG 0.24  C 
ATOM     38  N   PRO G   6      40.268   2.761  24.586  1.00 79.01 LIG-0.34  N 
ATOM     39  CD  PRO G   6      40.953   3.265  23.366  1.00 76.17 LIG 0.13  C 
ATOM     40  CA  PRO G   6      39.587   1.478  24.348  1.00 78.34 LIG 0.18  C 
ATOM     41  CG  PRO G   6      41.017   2.068  22.483  1.00 78.03 LIG 0.02  C 
ATOM     42  CB  PRO G   6      39.783   1.280  22.835  1.00 82.73 LIG 0.04  C 
ATOM     43 O    PHE G   5      39.280   3.141  26.603  1.00 61.78 LIG-0.27  OA
BRANCH 40 44
ATOM     44  C   PRO G   6      40.137   0.256  25.118  1.00 77.34 LIG 0.24  C 
ATOM     45 O    PRO G   6      41.050   0.416  25.909  1.00 92.50 LIG-0.27  OA
ATOM     46  N   ALA G   7      39.584  -0.943  24.881  1.00 74.20 LIG-0.35  N 
ATOM     47 H    ALA G   7      38.795  -1.044  24.553  1.00 74.20 LIG 0.16  HD
BRANCH 46 48
ATOM     48  CA  ALA G   7      40.286  -2.224  25.164  1.00 71.75 LIG 0.16  C 
ATOM     49  CB  ALA G   7      39.888  -2.759  26.540  1.00 70.01 LIG 0.04  C 
BRANCH 48 50
ATOM     50  C   ALA G   7      39.953  -3.264  24.070  1.00 69.94 LIG 0.22  C 
ATOM     51 O    ALA G   7      39.585  -2.888  22.928  1.00 56.97 LIG-0.29  OA
ENDBRANCH 48 50
ENDBRANCH 46 48
ENDBRANCH 40 44
ENDBRANCH 29 37
ENDBRANCH 3 29
TORSDOF 18
ENDMDL
MODEL 16
USER: ADFR SOLUTION from run 32
USER: SCORE 14.594631 LL:  -5.692 LR: -10.214 RR:   0.000 FEB:  -4.844
USER: RMSD 4.535802
USER: SEED 31
USER: STATUS no improvement in best in 7 clusters for 5 generations
USER: GENES 20
USER: genes 0 Translation |==|  0.44139 0.48758 0.61254
USER: genes 1 Rotation |==|  0.60467 0.33495 0.47505 0.95954
USER: genes 2 Torsion [N]-C--CA-[N] |==|  0.38977
USER: genes 3 Torsion [C]-CA--CB-[CG] |==|  0.39537
USER: genes 4 Torsion [CA]-CB--CG-[CD1] |==|  0.90676
USER: genes 5 Torsion [C]-CA--N-[C] |==|  0.75598
USER: genes 6 Torsion [N]-C--CA-[N] |==|  0.44219
USER: genes 7 Torsion [C]-CA--CB-[CG1] |==|  0.19013
USER: genes 8 Torsion [CA]-CB--CG1-[CD1] |==|  0.13165
USER: genes 9 Torsion [C]-CA--N-[C] |==|  0.62042
USER: genes 10 Torsion [N]-C--CA-[N] |==|  0.45071
USER: genes 11 Torsion [C]-CA--CB-[CG] |==|  0.83401
USER: genes 12 Torsion [CA]-CB--CG-[OD1] |==|  0.83919
USER: genes 13 Torsion [C]-N--CA-[CB] |==|  0.27207
USER: genes 14 Torsion [N]-CA--CB-[CG] |==|  0.05224
USER: genes 15 Torsion [CA]-CB--CG-[CD1] |==|  0.68791
USER: genes 16 Torsion [N]-CA--C-[N] |==|  0.36707
USER: genes 17 Torsion [N]-CA--C-[O] |==|  0.89657
USER: genes 18 Torsion [C]-N--CA-[C] |==|  0.77802
USER: genes 19 Torsion [N]-CA--C-[O] |==|  0.08122
ROOT
ATOM      1  C   LEU G   4      38.992   5.836  24.543  1.00 61.38 LIG 0.24  C 
ATOM      2 O    LEU G   4      39.433   6.323  23.496  1.00 52.06 LIG-0.27  OA
ATOM      3  N   PHE G   5      39.381   4.687  25.065  1.00 60.80 LIG-0.35  N 
ATOM      4 H    PHE G   5      39.079   4.384  25.811  1.00 60.80 LIG 0.16  HD
ENDROOT
BRANCH 1 5
ATOM      5  CA  LEU G   4      37.907   6.517  25.324  1.00 58.56 LIG 0.18  C 
BRANCH 5 6
ATOM      6  CB  LEU G   4      36.576   6.180  24.658  1.00 61.47 LIG 0.04  C 
BRANCH 6 7
ATOM      7  CG  LEU G   4      35.436   5.959  25.628  1.00 62.80 LIG-0.02  C 
ATOM      8  CD1 LEU G   4      36.025   5.327  26.872  1.00 63.22 LIG 0.01  C 
ATOM      9  CD2 LEU G   4      34.771   7.305  25.914  1.00 64.86 LIG 0.01  C 
ENDBRANCH 6 7
ENDBRANCH 5 6
BRANCH 5 10
ATOM     10  N   LEU G   4      38.169   7.943  25.345  1.00 59.02 LIG-0.35  N 
ATOM     11 H    LEU G   4      37.794   8.390  24.713  1.00 59.02 LIG 0.16  HD
ATOM     12  C   ILE G   3      38.940   8.476  26.293  1.00 70.10 LIG 0.24  C 
ATOM     13 O    ILE G   3      39.282   7.836  27.312  1.00 64.55 LIG-0.27  OA
BRANCH 12 14
ATOM     14  CA  ILE G   3      39.394   9.943  26.067  1.00 67.83 LIG 0.18  C 
BRANCH 14 15
ATOM     15  CB  ILE G   3      40.563  10.014  25.035  1.00 66.94 LIG 0.01  C 
ATOM     16  CG2 ILE G   3      41.720   9.115  25.473  1.00 67.41 LIG 0.01  C 
BRANCH 15 17
ATOM     17  CG1 ILE G   3      40.105   9.636  23.599  1.00 59.79 LIG 0.00  C 
ATOM     18  CD1 ILE G   3      38.835  10.320  23.165  1.00 60.74 LIG 0.01  C 
ENDBRANCH 15 17
ENDBRANCH 14 15
BRANCH 14 19
ATOM     19  N   ILE G   3      39.782  10.541  27.335  1.00 79.60 LIG-0.34  N 
ATOM     20 H    ILE G   3      40.260  10.023  27.828  1.00 79.60 LIG 0.16  HD
ATOM     21  C   ASP G   2      39.432  11.777  27.700  1.00 93.07 LIG 0.26  C 
ATOM     22 O    ASP G   2      38.828  12.556  26.961  1.00 81.24 LIG-0.27  OA
BRANCH 21 23
ATOM     23  CA  ASP G   2      39.797  12.215  29.125  1.00 93.30 LIG 0.41  C 
ATOM     24  N   ASP G   2      39.727  13.703  29.193  1.00 94.60 LIG 0.61  N 
BRANCH 23 25
ATOM     25  CB  ASP G   2      38.871  11.592  30.179  1.00 96.36 LIG 0.16  C 
BRANCH 25 26
ATOM     26  CG  ASP G   2      37.419  11.966  29.972  1.00103.24 LIG 0.17  C 
ATOM     27 OD1  ASP G   2      37.099  13.171  29.963  1.00112.85 LIG-0.65  OA
ATOM     28 OD2  ASP G   2      36.592  11.056  29.810  1.00105.87 LIG-0.65  OA
ENDBRANCH 25 26
ENDBRANCH 23 25
ENDBRANCH 21 23
ENDBRANCH 14 19
ENDBRANCH 12 14
ENDBRANCH 5 10
ENDBRANCH 1 5
BRANCH 3 29
ATOM     29  CA  PHE G   5      40.347   3.825  24.445  1.00 70.05 LIG 0.18  C 
BRANCH 29 30
ATOM     30  CB  PHE G   5      41.745   4.043  25.060  1.00 73.20 LIG 0.07  C 
BRANCH 30 31
ATOM     31  CG  PHE G   5      41.694   4.729  26.416  1.00 79.36 LIG-0.06  A 
ATOM     32  CD1 PHE G   5      42.202   6.044  26.568  1.00 85.64 LIG 0.01  A 
ATOM     33  CE1 PHE G   5      42.154   6.697  27.793  1.00 88.71 LIG 0.00  A 
ATOM     34  CZ  PHE G   5      41.586   6.045  28.891  1.00 96.11 LIG 0.00  A 
ATOM     35  CE2 PHE G   5      41.063   4.750  28.755  1.00 91.53 LIG 0.00  A 
ATOM     36  CD2 PHE G   5      41.116   4.098  27.527  1.00 81.01 LIG 0.01  A 
ENDBRANCH 30 31
ENDBRANCH 29 30
BRANCH 29 37
ATOM     37  C   PHE G   5      39.808   2.409  24.608  1.00 74.26 LIG 0.24  C 
ATOM     38  N   PRO G   6      39.806   1.625  23.507  1.00 79.01 LIG-0.34  N 
ATOM     39  CD  PRO G   6      40.151   2.098  22.139  1.00 76.17 LIG 0.13  C 
ATOM     40  CA  PRO G   6      39.155   0.306  23.489  1.00 78.34 LIG 0.18  C 
ATOM     41  CG  PRO G   6      40.062   0.863  21.312  1.00 78.03 LIG 0.02  C 
ATOM     42  CB  PRO G   6      38.991   0.043  21.982  1.00 82.73 LIG 0.04  C 
ATOM     43 O    PHE G   5      39.314   2.061  25.688  1.00 61.78 LIG-0.27  OA
BRANCH 40 44
ATOM     44  C   PRO G   6      39.936  -0.855  24.147  1.00 77.34 LIG 0.24  C 
ATOM     45 O    PRO G   6      41.148  -0.896  24.024  1.00 92.50 LIG-0.27  OA
ATOM     46  N   ALA G   7      39.243  -1.778  24.830  1.00 74.20 LIG-0.35  N 
ATOM     47 H    ALA G   7      38.460  -1.637  25.154  1.00 74.20 LIG 0.16  HD
BRANCH 46 48
ATOM     48  CA  ALA G   7      39.767  -3.145  25.095  1.00 71.75 LIG 0.16  C 
ATOM     49  CB  ALA G   7      39.056  -3.766  26.297  1.00 70.01 LIG 0.04  C 
BRANCH 48 50
ATOM     50  C   ALA G   7      39.580  -4.035  23.845  1.00 69.94 LIG 0.22  C 
ATOM     51 O    ALA G   7      39.584  -3.525  22.696  1.00 56.97 LIG-0.29  OA
ENDBRANCH 48 50
ENDBRANCH 46 48
ENDBRANCH 40 44
ENDBRANCH 29 37
ENDBRANCH 3 29
TORSDOF 18
ENDMDL
MODEL 17
USER: ADFR SOLUTION from run 137
USER: SCORE 14.575271 LL:  -4.796 LR: -10.210 RR:   0.000 FEB:  -4.840
USER: RMSD 3.335772
USER: SEED 136
USER: STATUS no improvement in best in 15 clusters for 5 generations
USER: GENES 20
USER: genes 0 Translation |==|  0.42777 0.50062 0.47946
USER: genes 1 Rotation |==|  0.53192 0.57938 0.50437 0.99261
USER: genes 2 Torsion [N]-C--CA-[N] |==|  0.40089
USER: genes 3 Torsion [C]-CA--CB-[CG] |==|  0.59647
USER: genes 4 Torsion [CA]-CB--CG-[CD1] |==|  0.47964
USER: genes 5 Torsion [C]-CA--N-[C] |==|  0.80009
USER: genes 6 Torsion [N]-C--CA-[N] |==|  0.31449
USER: genes 7 Torsion [C]-CA--CB-[CG1] |==|  0.09337
USER: genes 8 Torsion [CA]-CB--CG1-[CD1] |==|  0.28103
USER: genes 9 Torsion [C]-CA--N-[C] |==|  0.62910
USER: genes 10 Torsion [N]-C--CA-[N] |==|  0.55365
USER: genes 11 Torsion [C]-CA--CB-[CG] |==|  0.78588
USER: genes 12 Torsion [CA]-CB--CG-[OD1] |==|  0.79203
USER: genes 13 Torsion [C]-N--CA-[CB] |==|  0.15743
USER: genes 14 Torsion [N]-CA--CB-[CG] |==|  0.67913
USER: genes 15 Torsion [CA]-CB--CG-[CD1] |==|  0.92982
USER: genes 16 Torsion [N]-CA--C-[N] |==|  0.14444
USER: genes 17 Torsion [N]-CA--C-[O] |==|  0.35379
USER: genes 18 Torsion [C]-N--CA-[C] |==|  0.56896
USER: genes 19 Torsion [N]-CA--C-[O] |==|  0.64965
ROOT
ATOM      1  C   LEU G   4      38.767   6.198  22.347  1.00 61.38 LIG 0.24  C 
ATOM      2 O    LEU G   4      38.035   6.313  21.358  1.00 52.06 LIG-0.27  OA
ATOM      3  N   PHE G   5      39.758   5.331  22.459  1.00 60.80 LIG-0.35  N 
ATOM      4 H    PHE G   5      40.272   5.291  23.147  1.00 60.80 LIG 0.16  HD
ENDROOT
BRANCH 1 5
ATOM      5  CA  LEU G   4      38.565   7.043  23.570  1.00 58.56 LIG 0.18  C 
BRANCH 5 6
ATOM      6  CB  LEU G   4      37.509   6.360  24.435  1.00 61.47 LIG 0.04  C 
BRANCH 6 7
ATOM      7  CG  LEU G   4      36.605   7.318  25.181  1.00 62.80 LIG-0.02  C 
ATOM      8  CD1 LEU G   4      35.518   6.488  25.832  1.00 63.22 LIG 0.01  C 
ATOM      9  CD2 LEU G   4      37.445   8.087  26.200  1.00 64.86 LIG 0.01  C 
ENDBRANCH 6 7
ENDBRANCH 5 6
BRANCH 5 10
ATOM     10  N   LEU G   4      38.164   8.374  23.159  1.00 59.02 LIG-0.35  N 
ATOM     11 H    LEU G   4      37.341   8.569  23.311  1.00 59.02 LIG 0.16  HD
ATOM     12  C   ILE G   3      39.044   9.200  22.590  1.00 70.10 LIG 0.24  C 
ATOM     13 O    ILE G   3      40.273   8.966  22.587  1.00 64.55 LIG-0.27  OA
BRANCH 12 14
ATOM     14  CA  ILE G   3      38.460  10.476  21.928  1.00 67.83 LIG 0.18  C 
BRANCH 14 15
ATOM     15  CB  ILE G   3      38.877  10.570  20.426  1.00 66.94 LIG 0.01  C 
ATOM     16  CG2 ILE G   3      40.198  11.327  20.284  1.00 67.41 LIG 0.01  C 
BRANCH 15 17
ATOM     17  CG1 ILE G   3      38.987   9.171  19.758  1.00 59.79 LIG 0.00  C 
ATOM     18  CD1 ILE G   3      37.799   8.806  18.909  1.00 60.74 LIG 0.01  C 
ENDBRANCH 15 17
ENDBRANCH 14 15
BRANCH 14 19
ATOM     19  N   ILE G   3      38.893  11.656  22.662  1.00 79.60 LIG-0.34  N 
ATOM     20 H    ILE G   3      39.733  11.657  22.846  1.00 79.60 LIG 0.16  HD
ATOM     21  C   ASP G   2      38.067  12.643  23.016  1.00 93.07 LIG 0.26  C 
ATOM     22 O    ASP G   2      36.884  12.691  22.675  1.00 81.24 LIG-0.27  OA
BRANCH 21 23
ATOM     23  CA  ASP G   2      38.643  13.751  23.909  1.00 93.30 LIG 0.41  C 
ATOM     24  N   ASP G   2      37.510  14.465  24.564  1.00 94.60 LIG 0.61  N 
BRANCH 23 25
ATOM     25  CB  ASP G   2      39.606  13.199  24.970  1.00 96.36 LIG 0.16  C 
BRANCH 25 26
ATOM     26  CG  ASP G   2      38.882  12.546  26.128  1.00103.24 LIG 0.17  C 
ATOM     27 OD1  ASP G   2      38.316  13.266  26.973  1.00112.85 LIG-0.65  OA
ATOM     28 OD2  ASP G   2      38.870  11.307  26.195  1.00105.87 LIG-0.65  OA
ENDBRANCH 25 26
ENDBRANCH 23 25
ENDBRANCH 21 23
ENDBRANCH 14 19
ENDBRANCH 12 14
ENDBRANCH 5 10
ENDBRANCH 1 5
BRANCH 3 29
ATOM     29  CA  PHE G   5      40.079   4.366  21.446  1.00 70.05 LIG 0.18  C 
BRANCH 29 30
ATOM     30  CB  PHE G   5      40.358   5.064  20.099  1.00 73.20 LIG 0.07  C 
BRANCH 30 31
ATOM     31  CG  PHE G   5      39.343   4.702  19.025  1.00 79.36 LIG-0.06  A 
ATOM     32  CD1 PHE G   5      38.638   3.475  19.096  1.00 85.64 LIG 0.01  A 
ATOM     33  CE1 PHE G   5      37.697   3.128  18.136  1.00 88.71 LIG 0.00  A 
ATOM     34  CZ  PHE G   5      37.436   4.014  17.086  1.00 96.11 LIG 0.00  A 
ATOM     35  CE2 PHE G   5      38.113   5.242  17.009  1.00 91.53 LIG 0.00  A 
ATOM     36  CD2 PHE G   5      39.057   5.583  17.972  1.00 81.01 LIG 0.01  A 
ENDBRANCH 30 31
ENDBRANCH 29 30
BRANCH 29 37
ATOM     37  C   PHE G   5      41.259   3.568  21.990  1.00 74.26 LIG 0.24  C 
ATOM     38  N   PRO G   6      41.119   3.038  23.226  1.00 79.01 LIG-0.34  N 
ATOM     39  CD  PRO G   6      39.969   3.306  24.130  1.00 76.17 LIG 0.13  C 
ATOM     40  CA  PRO G   6      42.241   2.399  23.932  1.00 78.34 LIG 0.18  C 
ATOM     41  CG  PRO G   6      40.253   2.453  25.317  1.00 78.03 LIG 0.02  C 
ATOM     42  CB  PRO G   6      41.757   2.410  25.392  1.00 82.73 LIG 0.04  C 
ATOM     43 O    PHE G   5      42.312   3.512  21.344  1.00 61.78 LIG-0.27  OA
BRANCH 40 44
ATOM     44  C   PRO G   6      42.592   0.957  23.501  1.00 77.34 LIG 0.24  C 
ATOM     45 O    PRO G   6      43.741   0.695  23.193  1.00 92.50 LIG-0.27  OA
ATOM     46  N   ALA G   7      41.609   0.044  23.481  1.00 74.20 LIG-0.35  N 
ATOM     47 H    ALA G   7      40.882   0.122  23.935  1.00 74.20 LIG 0.16  HD
BRANCH 46 48
ATOM     48  CA  ALA G   7      41.681  -1.200  22.669  1.00 71.75 LIG 0.16  C 
ATOM     49  CB  ALA G   7      42.474  -2.277  23.409  1.00 70.01 LIG 0.04  C 
BRANCH 48 50
ATOM     50  C   ALA G   7      40.256  -1.709  22.352  1.00 69.94 LIG 0.22  C 
ATOM     51 O    ALA G   7      39.927  -2.890  22.631  1.00 56.97 LIG-0.29  OA
ENDBRANCH 48 50
ENDBRANCH 46 48
ENDBRANCH 40 44
ENDBRANCH 29 37
ENDBRANCH 3 29
TORSDOF 18
ENDMDL
MODEL 18
USER: ADFR SOLUTION from run 97
USER: SCORE 14.060900 LL:  -5.357 LR: -10.165 RR:   0.000 FEB:  -4.796
USER: RMSD 3.973405
USER: SEED 96
USER: STATUS no improvement in best in 13 clusters for 5 generations
USER: GENES 20
USER: genes 0 Translation |==|  0.42455 0.50763 0.44384
USER: genes 1 Rotation |==|  0.53065 0.65517 0.52060 0.97388
USER: genes 2 Torsion [N]-C--CA-[N] |==|  0.37022
USER: genes 3 Torsion [C]-CA--CB-[CG] |==|  0.62697
USER: genes 4 Torsion [CA]-CB--CG-[CD1] |==|  0.43315
USER: genes 5 Torsion [C]-CA--N-[C] |==|  0.81308
USER: genes 6 Torsion [N]-C--CA-[N] |==|  0.26694
USER: genes 7 Torsion [C]-CA--CB-[CG1] |==|  0.10090
USER: genes 8 Torsion [CA]-CB--CG1-[CD1] |==|  0.16832
USER: genes 9 Torsion [C]-CA--N-[C] |==|  0.65424
USER: genes 10 Torsion [N]-C--CA-[N] |==|  0.51539
USER: genes 11 Torsion [C]-CA--CB-[CG] |==|  0.75894
USER: genes 12 Torsion [CA]-CB--CG-[OD1] |==|  0.30995
USER: genes 13 Torsion [C]-N--CA-[CB] |==|  0.25646
USER: genes 14 Torsion [N]-CA--CB-[CG] |==|  0.65279
USER: genes 15 Torsion [CA]-CB--CG-[CD1] |==|  0.98120
USER: genes 16 Torsion [N]-CA--C-[N] |==|  0.38638
USER: genes 17 Torsion [N]-CA--C-[O] |==|  0.20032
USER: genes 18 Torsion [C]-N--CA-[C] |==|  0.78581
USER: genes 19 Torsion [N]-CA--C-[O] |==|  0.00797
ROOT
ATOM      1  C   LEU G   4      38.714   6.393  21.759  1.00 61.38 LIG 0.24  C 
ATOM      2 O    LEU G   4      37.710   6.439  21.041  1.00 52.06 LIG-0.27  OA
ATOM      3  N   PHE G   5      39.760   5.613  21.549  1.00 60.80 LIG-0.35  N 
ATOM      4 H    PHE G   5      40.460   5.621  22.049  1.00 60.80 LIG 0.16  HD
ENDROOT
BRANCH 1 5
ATOM      5  CA  LEU G   4      38.822   7.224  23.003  1.00 58.56 LIG 0.18  C 
BRANCH 5 6
ATOM      6  CB  LEU G   4      37.910   6.602  24.057  1.00 61.47 LIG 0.04  C 
BRANCH 6 7
ATOM      7  CG  LEU G   4      37.049   7.601  24.799  1.00 62.80 LIG-0.02  C 
ATOM      8  CD1 LEU G   4      35.844   6.849  25.321  1.00 63.22 LIG 0.01  C 
ATOM      9  CD2 LEU G   4      37.882   8.225  25.919  1.00 64.86 LIG 0.01  C 
ENDBRANCH 6 7
ENDBRANCH 5 6
BRANCH 5 10
ATOM     10  N   LEU G   4      38.451   8.590  22.688  1.00 59.02 LIG-0.35  N 
ATOM     11 H    LEU G   4      37.722   8.861  23.054  1.00 59.02 LIG 0.16  HD
ATOM     12  C   ILE G   3      39.215   9.330  21.884  1.00 70.10 LIG 0.24  C 
ATOM     13 O    ILE G   3      40.369   8.980  21.552  1.00 64.55 LIG-0.27  OA
BRANCH 12 14
ATOM     14  CA  ILE G   3      38.594  10.660  21.379  1.00 67.83 LIG 0.18  C 
BRANCH 14 15
ATOM     15  CB  ILE G   3      38.971  10.923  19.886  1.00 66.94 LIG 0.01  C 
ATOM     16  CG2 ILE G   3      40.309  11.657  19.794  1.00 67.41 LIG 0.01  C 
BRANCH 15 17
ATOM     17  CG1 ILE G   3      39.019   9.612  19.053  1.00 59.79 LIG 0.00  C 
ATOM     18  CD1 ILE G   3      37.709   8.871  19.005  1.00 60.74 LIG 0.01  C 
ENDBRANCH 15 17
ENDBRANCH 14 15
BRANCH 14 19
ATOM     19  N   ILE G   3      39.027  11.761  22.225  1.00 79.60 LIG-0.34  N 
ATOM     20 H    ILE G   3      39.882  11.831  22.288  1.00 79.60 LIG 0.16  HD
ATOM     21  C   ASP G   2      38.180  12.586  22.847  1.00 93.07 LIG 0.26  C 
ATOM     22 O    ASP G   2      36.959  12.548  22.686  1.00 81.24 LIG-0.27  OA
BRANCH 21 23
ATOM     23  CA  ASP G   2      38.785  13.609  23.817  1.00 93.30 LIG 0.41  C 
ATOM     24  N   ASP G   2      37.671  14.330  24.497  1.00 94.60 LIG 0.61  N 
BRANCH 23 25
ATOM     25  CB  ASP G   2      39.703  12.950  24.857  1.00 96.36 LIG 0.16  C 
BRANCH 25 26
ATOM     26  CG  ASP G   2      38.947  12.464  26.075  1.00103.24 LIG 0.17  C 
ATOM     27 OD1  ASP G   2      38.847  11.237  26.276  1.00112.85 LIG-0.65  OA
ATOM     28 OD2  ASP G   2      38.454  13.306  26.840  1.00105.87 LIG-0.65  OA
ENDBRANCH 25 26
ENDBRANCH 23 25
ENDBRANCH 21 23
ENDBRANCH 14 19
ENDBRANCH 12 14
ENDBRANCH 5 10
ENDBRANCH 1 5
BRANCH 3 29
ATOM     29  CA  PHE G   5      39.838   4.673  20.467  1.00 70.05 LIG 0.18  C 
BRANCH 29 30
ATOM     30  CB  PHE G   5      40.510   5.316  19.235  1.00 73.20 LIG 0.07  C 
BRANCH 30 31
ATOM     31  CG  PHE G   5      39.655   5.223  17.980  1.00 79.36 LIG-0.06  A 
ATOM     32  CD1 PHE G   5      38.454   4.471  17.991  1.00 85.64 LIG 0.01  A 
ATOM     33  CE1 PHE G   5      37.649   4.382  16.863  1.00 88.71 LIG 0.00  A 
ATOM     34  CZ  PHE G   5      38.032   5.056  15.699  1.00 96.11 LIG 0.00  A 
ATOM     35  CE2 PHE G   5      39.210   5.819  15.675  1.00 91.53 LIG 0.00  A 
ATOM     36  CD2 PHE G   5      40.014   5.903  16.807  1.00 81.01 LIG 0.01  A 
ENDBRANCH 30 31
ENDBRANCH 29 30
BRANCH 29 37
ATOM     37  C   PHE G   5      40.580   3.462  21.020  1.00 74.26 LIG 0.24  C 
ATOM     38  N   PRO G   6      40.116   2.244  20.659  1.00 79.01 LIG-0.34  N 
ATOM     39  CD  PRO G   6      38.861   2.017  19.893  1.00 76.17 LIG 0.13  C 
ATOM     40  CA  PRO G   6      40.631   1.004  21.259  1.00 78.34 LIG 0.18  C 
ATOM     41  CG  PRO G   6      38.835   0.541  19.700  1.00 78.03 LIG 0.02  C 
ATOM     42  CB  PRO G   6      39.520  -0.007  20.924  1.00 82.73 LIG 0.04  C 
ATOM     43 O    PHE G   5      41.497   3.623  21.834  1.00 61.78 LIG-0.27  OA
BRANCH 40 44
ATOM     44  C   PRO G   6      41.989   0.494  20.725  1.00 77.34 LIG 0.24  C 
ATOM     45 O    PRO G   6      43.005   1.096  21.025  1.00 92.50 LIG-0.27  OA
ATOM     46  N   ALA G   7      41.995  -0.598  19.946  1.00 74.20 LIG-0.35  N 
ATOM     47 H    ALA G   7      41.361  -1.179  19.942  1.00 74.20 LIG 0.16  HD
BRANCH 46 48
ATOM     48  CA  ALA G   7      43.106  -0.912  19.008  1.00 71.75 LIG 0.16  C 
ATOM     49  CB  ALA G   7      43.078  -2.391  18.623  1.00 70.01 LIG 0.04  C 
BRANCH 48 50
ATOM     50  C   ALA G   7      42.998  -0.029  17.744  1.00 69.94 LIG 0.22  C 
ATOM     51 O    ALA G   7      42.095   0.842  17.653  1.00 56.97 LIG-0.29  OA
ENDBRANCH 48 50
ENDBRANCH 46 48
ENDBRANCH 40 44
ENDBRANCH 29 37
ENDBRANCH 3 29
TORSDOF 18
ENDMDL
MODEL 19
USER: ADFR SOLUTION from run 108
USER: SCORE 14.669776 LL:  -5.314 LR: -10.085 RR:   0.000 FEB:  -4.716
USER: RMSD 4.111756
USER: SEED 107
USER: STATUS no improvement in best in 16 clusters for 5 generations
USER: GENES 20
USER: genes 0 Translation |==|  0.48504 0.48980 0.50660
USER: genes 1 Rotation |==|  0.45307 0.45938 0.53249 0.99507
USER: genes 2 Torsion [N]-C--CA-[N] |==|  0.45291
USER: genes 3 Torsion [C]-CA--CB-[CG] |==|  0.52097
USER: genes 4 Torsion [CA]-CB--CG-[CD1] |==|  0.52952
USER: genes 5 Torsion [C]-CA--N-[C] |==|  0.79032
USER: genes 6 Torsion [N]-C--CA-[N] |==|  0.39765
USER: genes 7 Torsion [C]-CA--CB-[CG1] |==|  0.49311
USER: genes 8 Torsion [CA]-CB--CG1-[CD1] |==|  0.32627
USER: genes 9 Torsion [C]-CA--N-[C] |==|  0.82742
USER: genes 10 Torsion [N]-C--CA-[N] |==|  0.93552
USER: genes 11 Torsion [C]-CA--CB-[CG] |==|  0.80415
USER: genes 12 Torsion [CA]-CB--CG-[OD1] |==|  0.98668
USER: genes 13 Torsion [C]-N--CA-[CB] |==|  0.52223
USER: genes 14 Torsion [N]-CA--CB-[CG] |==|  0.20749
USER: genes 15 Torsion [CA]-CB--CG-[CD1] |==|  0.80549
USER: genes 16 Torsion [N]-CA--C-[N] |==|  0.29952
USER: genes 17 Torsion [N]-CA--C-[O] |==|  0.54003
USER: genes 18 Torsion [C]-N--CA-[C] |==|  0.70060
USER: genes 19 Torsion [N]-CA--C-[O] |==|  0.41654
ROOT
ATOM      1  C   LEU G   4      39.712   5.898  22.795  1.00 61.38 LIG 0.24  C 
ATOM      2 O    LEU G   4      39.543   5.621  21.602  1.00 52.06 LIG-0.27  OA
ATOM      3  N   PHE G   5      40.571   5.294  23.597  1.00 60.80 LIG-0.35  N 
ATOM      4 H    PHE G   5      40.691   5.526  24.416  1.00 60.80 LIG 0.16  HD
ENDROOT
BRANCH 1 5
ATOM      5  CA  LEU G   4      38.899   6.961  23.473  1.00 58.56 LIG 0.18  C 
BRANCH 5 6
ATOM      6  CB  LEU G   4      37.851   6.263  24.335  1.00 61.47 LIG 0.04  C 
BRANCH 6 7
ATOM      7  CG  LEU G   4      36.831   7.197  24.948  1.00 62.80 LIG-0.02  C 
ATOM      8  CD1 LEU G   4      36.047   6.395  25.965  1.00 63.22 LIG 0.01  C 
ATOM      9  CD2 LEU G   4      37.568   8.379  25.576  1.00 64.86 LIG 0.01  C 
ENDBRANCH 6 7
ENDBRANCH 5 6
BRANCH 5 10
ATOM     10  N   LEU G   4      38.303   7.811  22.460  1.00 59.02 LIG-0.35  N 
ATOM     11 H    LEU G   4      37.464   7.681  22.325  1.00 59.02 LIG 0.16  HD
ATOM     12  C   ILE G   3      39.043   8.713  21.814  1.00 70.10 LIG 0.24  C 
ATOM     13 O    ILE G   3      40.195   9.024  22.189  1.00 64.55 LIG-0.27  OA
BRANCH 12 14
ATOM     14  CA  ILE G   3      38.394   9.365  20.563  1.00 67.83 LIG 0.18  C 
BRANCH 14 15
ATOM     15  CB  ILE G   3      38.794   8.599  19.262  1.00 66.94 LIG 0.01  C 
ATOM     16  CG2 ILE G   3      38.463   7.112  19.393  1.00 67.41 LIG 0.01  C 
BRANCH 15 17
ATOM     17  CG1 ILE G   3      38.110   9.191  17.999  1.00 59.79 LIG 0.00  C 
ATOM     18  CD1 ILE G   3      39.077   9.747  16.986  1.00 60.74 LIG 0.01  C 
ENDBRANCH 15 17
ENDBRANCH 14 15
BRANCH 14 19
ATOM     19  N   ILE G   3      38.779  10.765  20.480  1.00 79.60 LIG-0.34  N 
ATOM     20 H    ILE G   3      39.227  10.958  19.773  1.00 79.60 LIG 0.16  HD
ATOM     21  C   ASP G   2      38.465  11.668  21.414  1.00 93.07 LIG 0.26  C 
ATOM     22 O    ASP G   2      37.744  11.419  22.381  1.00 81.24 LIG-0.27  OA
BRANCH 21 23
ATOM     23  CA  ASP G   2      39.061  13.073  21.256  1.00 93.30 LIG 0.41  C 
ATOM     24  N   ASP G   2      40.290  12.972  20.418  1.00 94.60 LIG 0.61  N 
BRANCH 23 25
ATOM     25  CB  ASP G   2      38.068  14.058  20.622  1.00 96.36 LIG 0.16  C 
BRANCH 25 26
ATOM     26  CG  ASP G   2      37.817  13.769  19.158  1.00103.24 LIG 0.17  C 
ATOM     27 OD1  ASP G   2      38.471  12.868  18.597  1.00112.85 LIG-0.65  OA
ATOM     28 OD2  ASP G   2      36.959  14.437  18.561  1.00105.87 LIG-0.65  OA
ENDBRANCH 25 26
ENDBRANCH 23 25
ENDBRANCH 21 23
ENDBRANCH 14 19
ENDBRANCH 12 14
ENDBRANCH 5 10
ENDBRANCH 1 5
BRANCH 3 29
ATOM     29  CA  PHE G   5      41.394   4.192  23.186  1.00 70.05 LIG 0.18  C 
BRANCH 29 30
ATOM     30  CB  PHE G   5      42.136   3.586  24.395  1.00 73.20 LIG 0.07  C 
BRANCH 30 31
ATOM     31  CG  PHE G   5      41.229   2.755  25.290  1.00 79.36 LIG-0.06  A 
ATOM     32  CD1 PHE G   5      40.233   3.386  26.077  1.00 85.64 LIG 0.01  A 
ATOM     33  CE1 PHE G   5      39.383   2.648  26.891  1.00 88.71 LIG 0.00  A 
ATOM     34  CZ  PHE G   5      39.510   1.256  26.924  1.00 96.11 LIG 0.00  A 
ATOM     35  CE2 PHE G   5      40.480   0.613  26.138  1.00 91.53 LIG 0.00  A 
ATOM     36  CD2 PHE G   5      41.331   1.357  25.326  1.00 81.01 LIG 0.01  A 
ENDBRANCH 30 31
ENDBRANCH 29 30
BRANCH 29 37
ATOM     37  C   PHE G   5      40.461   3.218  22.475  1.00 74.26 LIG 0.24  C 
ATOM     38  N   PRO G   6      40.581   3.129  21.132  1.00 79.01 LIG-0.34  N 
ATOM     39  CD  PRO G   6      41.445   4.013  20.304  1.00 76.17 LIG 0.13  C 
ATOM     40  CA  PRO G   6      39.629   2.362  20.313  1.00 78.34 LIG 0.18  C 
ATOM     41  CG  PRO G   6      41.276   3.473  18.927  1.00 78.03 LIG 0.02  C 
ATOM     42  CB  PRO G   6      39.868   2.938  18.907  1.00 82.73 LIG 0.04  C 
ATOM     43 O    PHE G   5      39.584   2.629  23.119  1.00 61.78 LIG-0.27  OA
BRANCH 40 44
ATOM     44  C   PRO G   6      39.817   0.828  20.296  1.00 77.34 LIG 0.24  C 
ATOM     45 O    PRO G   6      39.243   0.171  19.445  1.00 92.50 LIG-0.27  OA
ATOM     46  N   ALA G   7      40.609   0.275  21.227  1.00 74.20 LIG-0.35  N 
ATOM     47 H    ALA G   7      41.218   0.712  21.649  1.00 74.20 LIG 0.16  HD
BRANCH 46 48
ATOM     48  CA  ALA G   7      40.511  -1.155  21.623  1.00 71.75 LIG 0.16  C 
ATOM     49  CB  ALA G   7      41.891  -1.813  21.598  1.00 70.01 LIG 0.04  C 
BRANCH 48 50
ATOM     50  C   ALA G   7      39.889  -1.273  23.033  1.00 69.94 LIG 0.22  C 
ATOM     51 O    ALA G   7      39.209  -2.284  23.344  1.00 56.97 LIG-0.29  OA
ENDBRANCH 48 50
ENDBRANCH 46 48
ENDBRANCH 40 44
ENDBRANCH 29 37
ENDBRANCH 3 29
TORSDOF 18
ENDMDL
MODEL 20
USER: ADFR SOLUTION from run 31
USER: SCORE 14.638090 LL:  -5.518 LR: -10.011 RR:   0.000 FEB:  -4.642
USER: RMSD 3.787307
USER: SEED 30
USER: STATUS no improvement in best in 11 clusters for 5 generations
USER: GENES 20
USER: genes 0 Translation |==|  0.47677 0.50868 0.55963
USER: genes 1 Rotation |==|  0.35290 0.62495 0.55555 0.95789
USER: genes 2 Torsion [N]-C--CA-[N] |==|  0.37113
USER: genes 3 Torsion [C]-CA--CB-[CG] |==|  0.83661
USER: genes 4 Torsion [CA]-CB--CG-[CD1] |==|  0.38816
USER: genes 5 Torsion [C]-CA--N-[C] |==|  0.75598
USER: genes 6 Torsion [N]-C--CA-[N] |==|  0.39000
USER: genes 7 Torsion [C]-CA--CB-[CG1] |==|  0.46109
USER: genes 8 Torsion [CA]-CB--CG1-[CD1] |==|  0.22741
USER: genes 9 Torsion [C]-CA--N-[C] |==|  0.80579
USER: genes 10 Torsion [N]-C--CA-[N] |==|  0.97826
USER: genes 11 Torsion [C]-CA--CB-[CG] |==|  0.79249
USER: genes 12 Torsion [CA]-CB--CG-[OD1] |==|  0.99787
USER: genes 13 Torsion [C]-N--CA-[CB] |==|  0.48344
USER: genes 14 Torsion [N]-CA--CB-[CG] |==|  0.33773
USER: genes 15 Torsion [CA]-CB--CG-[CD1] |==|  0.76831
USER: genes 16 Torsion [N]-CA--C-[N] |==|  0.41166
USER: genes 17 Torsion [N]-CA--C-[O] |==|  0.86651
USER: genes 18 Torsion [C]-N--CA-[C] |==|  0.51214
USER: genes 19 Torsion [N]-CA--C-[O] |==|  0.98413
ROOT
ATOM      1  C   LEU G   4      39.576   6.422  23.670  1.00 61.38 LIG 0.24  C 
ATOM      2 O    LEU G   4      38.795   5.689  23.053  1.00 52.06 LIG-0.27  OA
ATOM      3  N   PHE G   5      40.819   6.106  23.988  1.00 60.80 LIG-0.35  N 
ATOM      4 H    PHE G   5      41.352   6.646  24.392  1.00 60.80 LIG 0.16  HD
ENDROOT
BRANCH 1 5
ATOM      5  CA  LEU G   4      39.152   7.774  24.164  1.00 58.56 LIG 0.18  C 
BRANCH 5 6
ATOM      6  CB  LEU G   4      38.242   7.562  25.370  1.00 61.47 LIG 0.04  C 
BRANCH 6 7
ATOM      7  CG  LEU G   4      37.008   6.736  25.079  1.00 62.80 LIG-0.02  C 
ATOM      8  CD1 LEU G   4      36.797   5.818  26.264  1.00 63.22 LIG 0.01  C 
ATOM      9  CD2 LEU G   4      35.830   7.683  24.854  1.00 64.86 LIG 0.01  C 
ENDBRANCH 6 7
ENDBRANCH 5 6
BRANCH 5 10
ATOM     10  N   LEU G   4      38.486   8.478  23.086  1.00 59.02 LIG-0.35  N 
ATOM     11 H    LEU G   4      37.632   8.380  23.062  1.00 59.02 LIG 0.16  HD
ATOM     12  C   ILE G   3      39.188   9.211  22.221  1.00 70.10 LIG 0.24  C 
ATOM     13 O    ILE G   3      40.387   9.508  22.416  1.00 64.55 LIG-0.27  OA
BRANCH 12 14
ATOM     14  CA  ILE G   3      38.433   9.683  20.949  1.00 67.83 LIG 0.18  C 
BRANCH 14 15
ATOM     15  CB  ILE G   3      38.707   8.725  19.747  1.00 66.94 LIG 0.01  C 
ATOM     16  CG2 ILE G   3      38.656   7.266  20.203  1.00 67.41 LIG 0.01  C 
BRANCH 15 17
ATOM     17  CG1 ILE G   3      37.715   8.954  18.574  1.00 59.79 LIG 0.00  C 
ATOM     18  CD1 ILE G   3      38.087  10.105  17.676  1.00 60.74 LIG 0.01  C 
ENDBRANCH 15 17
ENDBRANCH 14 15
BRANCH 14 19
ATOM     19  N   ILE G   3      38.819  11.047  20.623  1.00 79.60 LIG-0.34  N 
ATOM     20 H    ILE G   3      39.295  11.110  19.910  1.00 79.60 LIG 0.16  HD
ATOM     21  C   ASP G   2      38.467  12.105  21.360  1.00 93.07 LIG 0.26  C 
ATOM     22 O    ASP G   2      37.708  12.032  22.328  1.00 81.24 LIG-0.27  OA
BRANCH 21 23
ATOM     23  CA  ASP G   2      39.068  13.461  20.969  1.00 93.30 LIG 0.41  C 
ATOM     24  N   ASP G   2      40.097  13.234  19.914  1.00 94.60 LIG 0.61  N 
BRANCH 23 25
ATOM     25  CB  ASP G   2      38.001  14.445  20.465  1.00 96.36 LIG 0.16  C 
BRANCH 25 26
ATOM     26  CG  ASP G   2      37.521  14.116  19.068  1.00103.24 LIG 0.17  C 
ATOM     27 OD1  ASP G   2      38.015  13.139  18.471  1.00112.85 LIG-0.65  OA
ATOM     28 OD2  ASP G   2      36.642  14.830  18.561  1.00105.87 LIG-0.65  OA
ENDBRANCH 25 26
ENDBRANCH 23 25
ENDBRANCH 21 23
ENDBRANCH 14 19
ENDBRANCH 12 14
ENDBRANCH 5 10
ENDBRANCH 1 5
BRANCH 3 29
ATOM     29  CA  PHE G   5      41.409   4.831  23.691  1.00 70.05 LIG 0.18  C 
BRANCH 29 30
ATOM     30  CB  PHE G   5      42.908   4.828  24.055  1.00 73.20 LIG 0.07  C 
BRANCH 30 31
ATOM     31  CG  PHE G   5      43.269   3.751  25.067  1.00 79.36 LIG-0.06  A 
ATOM     32  CD1 PHE G   5      43.085   3.986  26.453  1.00 85.64 LIG 0.01  A 
ATOM     33  CE1 PHE G   5      43.392   3.015  27.396  1.00 88.71 LIG 0.00  A 
ATOM     34  CZ  PHE G   5      43.886   1.780  26.965  1.00 96.11 LIG 0.00  A 
ATOM     35  CE2 PHE G   5      44.059   1.523  25.595  1.00 91.53 LIG 0.00  A 
ATOM     36  CD2 PHE G   5      43.751   2.501  24.655  1.00 81.01 LIG 0.01  A 
ENDBRANCH 30 31
ENDBRANCH 29 30
BRANCH 29 37
ATOM     37  C   PHE G   5      40.581   3.802  24.452  1.00 74.26 LIG 0.24  C 
ATOM     38  N   PRO G   6      40.461   2.578  23.889  1.00 79.01 LIG-0.34  N 
ATOM     39  CD  PRO G   6      40.951   2.228  22.529  1.00 76.17 LIG 0.13  C 
ATOM     40  CA  PRO G   6      39.552   1.556  24.430  1.00 78.34 LIG 0.18  C 
ATOM     41  CG  PRO G   6      40.641   0.776  22.411  1.00 78.03 LIG 0.02  C 
ATOM     42  CB  PRO G   6      39.397   0.593  23.240  1.00 82.73 LIG 0.04  C 
ATOM     43 O    PHE G   5      39.982   4.136  25.482  1.00 61.78 LIG-0.27  OA
BRANCH 40 44
ATOM     44  C   PRO G   6      40.047   0.785  25.674  1.00 77.34 LIG 0.24  C 
ATOM     45 O    PRO G   6      41.174   0.322  25.673  1.00 92.50 LIG-0.27  OA
ATOM     46  N   ALA G   7      39.209   0.654  26.714  1.00 74.20 LIG-0.35  N 
ATOM     47 H    ALA G   7      38.542   1.178  26.852  1.00 74.20 LIG 0.16  HD
BRANCH 46 48
ATOM     48  CA  ALA G   7      39.354  -0.418  27.735  1.00 71.75 LIG 0.16  C 
ATOM     49  CB  ALA G   7      40.682  -0.272  28.478  1.00 70.01 LIG 0.04  C 
BRANCH 48 50
ATOM     50  C   ALA G   7      38.175  -0.363  28.732  1.00 69.94 LIG 0.22  C 
ATOM     51 O    ALA G   7      37.334   0.570  28.670  1.00 56.97 LIG-0.29  OA
ENDBRANCH 48 50
ENDBRANCH 46 48
ENDBRANCH 40 44
ENDBRANCH 29 37
ENDBRANCH 3 29
TORSDOF 18
ENDMDL
MODEL 21
USER: ADFR SOLUTION from run 138
USER: SCORE 14.029004 LL:  -5.908 LR:  -9.902 RR:   0.000 FEB:  -4.533
USER: RMSD 5.422321
USER: SEED 137
USER: STATUS searching
USER: GENES 20
USER: genes 0 Translation |==|  0.44606 0.49263 0.58519
USER: genes 1 Rotation |==|  0.47075 0.35093 0.53236 0.97526
USER: genes 2 Torsion [N]-C--CA-[N] |==|  0.41556
USER: genes 3 Torsion [C]-CA--CB-[CG] |==|  0.33977
USER: genes 4 Torsion [CA]-CB--CG-[CD1] |==|  0.82266
USER: genes 5 Torsion [C]-CA--N-[C] |==|  0.81323
USER: genes 6 Torsion [N]-C--CA-[N] |==|  0.92872
USER: genes 7 Torsion [C]-CA--CB-[CG1] |==|  0.52110
USER: genes 8 Torsion [CA]-CB--CG1-[CD1] |==|  0.89455
USER: genes 9 Torsion [C]-CA--N-[C] |==|  0.77762
USER: genes 10 Torsion [N]-C--CA-[N] |==|  0.18452
USER: genes 11 Torsion [C]-CA--CB-[CG] |==|  0.64457
USER: genes 12 Torsion [CA]-CB--CG-[OD1] |==|  0.66766
USER: genes 13 Torsion [C]-N--CA-[CB] |==|  0.39407
USER: genes 14 Torsion [N]-CA--CB-[CG] |==|  0.23838
USER: genes 15 Torsion [CA]-CB--CG-[CD1] |==|  0.81622
USER: genes 16 Torsion [N]-CA--C-[N] |==|  0.36269
USER: genes 17 Torsion [N]-CA--C-[O] |==|  0.59666
USER: genes 18 Torsion [C]-N--CA-[C] |==|  0.63882
USER: genes 19 Torsion [N]-CA--C-[O] |==|  0.06284
ROOT
ATOM      1  C   LEU G   4      39.069   5.977  24.092  1.00 61.38 LIG 0.24  C 
ATOM      2 O    LEU G   4      39.434   5.815  22.922  1.00 52.06 LIG-0.27  OA
ATOM      3  N   PHE G   5      39.553   5.322  25.133  1.00 60.80 LIG-0.35  N 
ATOM      4 H    PHE G   5      39.303   5.475  25.941  1.00 60.80 LIG 0.16  HD
ENDROOT
BRANCH 1 5
ATOM      5  CA  LEU G   4      37.975   6.941  24.442  1.00 58.56 LIG 0.18  C 
BRANCH 5 6
ATOM      6  CB  LEU G   4      36.653   6.181  24.392  1.00 61.47 LIG 0.04  C 
BRANCH 6 7
ATOM      7  CG  LEU G   4      35.872   6.211  25.687  1.00 62.80 LIG-0.02  C 
ATOM      8  CD1 LEU G   4      36.706   5.493  26.727  1.00 63.22 LIG 0.01  C 
ATOM      9  CD2 LEU G   4      35.599   7.668  26.059  1.00 64.86 LIG 0.01  C 
ENDBRANCH 6 7
ENDBRANCH 5 6
BRANCH 5 10
ATOM     10  N   LEU G   4      38.011   8.049  23.507  1.00 59.02 LIG-0.35  N 
ATOM     11 H    LEU G   4      37.334   8.100  22.979  1.00 59.02 LIG 0.16  HD
ATOM     12  C   ILE G   3      39.037   8.900  23.504  1.00 70.10 LIG 0.24  C 
ATOM     13 O    ILE G   3      39.885   8.925  24.424  1.00 64.55 LIG-0.27  OA
BRANCH 12 14
ATOM     14  CA  ILE G   3      39.127   9.866  22.293  1.00 67.83 LIG 0.18  C 
BRANCH 14 15
ATOM     15  CB  ILE G   3      38.513  11.259  22.641  1.00 66.94 LIG 0.01  C 
ATOM     16  CG2 ILE G   3      39.325  11.940  23.743  1.00 67.41 LIG 0.01  C 
BRANCH 15 17
ATOM     17  CG1 ILE G   3      38.415  12.185  21.397  1.00 59.79 LIG 0.00  C 
ATOM     18  CD1 ILE G   3      39.584  12.068  20.455  1.00 60.74 LIG 0.01  C 
ENDBRANCH 15 17
ENDBRANCH 14 15
BRANCH 14 19
ATOM     19  N   ILE G   3      38.459   9.278  21.141  1.00 79.60 LIG-0.34  N 
ATOM     20 H    ILE G   3      37.666   9.582  21.011  1.00 79.60 LIG 0.16  HD
ATOM     21  C   ASP G   2      39.023   8.354  20.359  1.00 93.07 LIG 0.26  C 
ATOM     22 O    ASP G   2      40.192   7.983  20.484  1.00 81.24 LIG-0.27  OA
BRANCH 21 23
ATOM     23  CA  ASP G   2      38.143   7.727  19.270  1.00 93.30 LIG 0.41  C 
ATOM     24  N   ASP G   2      37.804   8.781  18.273  1.00 94.60 LIG 0.61  N 
BRANCH 23 25
ATOM     25  CB  ASP G   2      38.833   6.543  18.576  1.00 96.36 LIG 0.16  C 
BRANCH 25 26
ATOM     26  CG  ASP G   2      38.835   6.674  17.069  1.00103.24 LIG 0.17  C 
ATOM     27 OD1  ASP G   2      38.270   5.799  16.383  1.00112.85 LIG-0.65  OA
ATOM     28 OD2  ASP G   2      39.396   7.657  16.561  1.00105.87 LIG-0.65  OA
ENDBRANCH 25 26
ENDBRANCH 23 25
ENDBRANCH 21 23
ENDBRANCH 14 19
ENDBRANCH 12 14
ENDBRANCH 5 10
ENDBRANCH 1 5
BRANCH 3 29
ATOM     29  CA  PHE G   5      40.547   4.292  25.024  1.00 70.05 LIG 0.18  C 
BRANCH 29 30
ATOM     30  CB  PHE G   5      41.548   4.376  26.195  1.00 73.20 LIG 0.07  C 
BRANCH 30 31
ATOM     31  CG  PHE G   5      41.074   3.630  27.433  1.00 79.36 LIG-0.06  A 
ATOM     32  CD1 PHE G   5      39.931   4.081  28.141  1.00 85.64 LIG 0.01  A 
ATOM     33  CE1 PHE G   5      39.470   3.410  29.266  1.00 88.71 LIG 0.00  A 
ATOM     34  CZ  PHE G   5      40.143   2.264  29.699  1.00 96.11 LIG 0.00  A 
ATOM     35  CE2 PHE G   5      41.266   1.794  29.001  1.00 91.53 LIG 0.00  A 
ATOM     36  CD2 PHE G   5      41.727   2.471  27.876  1.00 81.01 LIG 0.01  A 
ENDBRANCH 30 31
ENDBRANCH 29 30
BRANCH 29 37
ATOM     37  C   PHE G   5      39.778   2.978  24.954  1.00 74.26 LIG 0.24  C 
ATOM     38  N   PRO G   6      40.116   2.124  23.961  1.00 79.01 LIG-0.34  N 
ATOM     39  CD  PRO G   6      41.068   2.446  22.865  1.00 76.17 LIG 0.13  C 
ATOM     40  CA  PRO G   6      39.338   0.908  23.680  1.00 78.34 LIG 0.18  C 
ATOM     41  CG  PRO G   6      41.144   1.179  22.088  1.00 78.03 LIG 0.02  C 
ATOM     42  CB  PRO G   6      39.779   0.562  22.247  1.00 82.73 LIG 0.04  C 
ATOM     43 O    PHE G   5      38.831   2.779  25.726  1.00 61.78 LIG-0.27  OA
BRANCH 40 44
ATOM     44  C   PRO G   6      39.584  -0.298  24.615  1.00 77.34 LIG 0.24  C 
ATOM     45 O    PRO G   6      39.534  -1.424  24.153  1.00 92.50 LIG-0.27  OA
ATOM     46  N   ALA G   7      39.843  -0.054  25.908  1.00 74.20 LIG-0.35  N 
ATOM     47 H    ALA G   7      40.145   0.698  26.197  1.00 74.20 LIG 0.16  HD
BRANCH 46 48
ATOM     48  CA  ALA G   7      39.632  -1.068  26.977  1.00 71.75 LIG 0.16  C 
ATOM     49  CB  ALA G   7      40.974  -1.587  27.493  1.00 70.01 LIG 0.04  C 
BRANCH 48 50
ATOM     50  C   ALA G   7      38.816  -0.453  28.136  1.00 69.94 LIG 0.22  C 
ATOM     51 O    ALA G   7      38.084   0.550  27.936  1.00 56.97 LIG-0.29  OA
ENDBRANCH 48 50
ENDBRANCH 46 48
ENDBRANCH 40 44
ENDBRANCH 29 37
ENDBRANCH 3 29
TORSDOF 18
ENDMDL
MODEL 22
USER: ADFR SOLUTION from run 98
USER: SCORE 13.926640 LL:  -5.954 LR:  -9.815 RR:   0.000 FEB:  -4.446
USER: RMSD 4.362252
USER: SEED 97
USER: STATUS searching
USER: GENES 20
USER: genes 0 Translation |==|  0.42715 0.48649 0.62108
USER: genes 1 Rotation |==|  0.49354 0.31455 0.53693 0.96282
USER: genes 2 Torsion [N]-C--CA-[N] |==|  0.43889
USER: genes 3 Torsion [C]-CA--CB-[CG] |==|  0.34777
USER: genes 4 Torsion [CA]-CB--CG-[CD1] |==|  0.79938
USER: genes 5 Torsion [C]-CA--N-[C] |==|  0.78808
USER: genes 6 Torsion [N]-C--CA-[N] |==|  0.44398
USER: genes 7 Torsion [C]-CA--CB-[CG1] |==|  0.23290
USER: genes 8 Torsion [CA]-CB--CG1-[CD1] |==|  0.26374
USER: genes 9 Torsion [C]-CA--N-[C] |==|  0.64673
USER: genes 10 Torsion [N]-C--CA-[N] |==|  0.58561
USER: genes 11 Torsion [C]-CA--CB-[CG] |==|  0.79534
USER: genes 12 Torsion [CA]-CB--CG-[OD1] |==|  0.85251
USER: genes 13 Torsion [C]-N--CA-[CB] |==|  0.39482
USER: genes 14 Torsion [N]-CA--CB-[CG] |==|  0.24137
USER: genes 15 Torsion [CA]-CB--CG-[CD1] |==|  0.81147
USER: genes 16 Torsion [N]-CA--C-[N] |==|  0.34585
USER: genes 17 Torsion [N]-CA--C-[O] |==|  0.60245
USER: genes 18 Torsion [C]-N--CA-[C] |==|  0.64144
USER: genes 19 Torsion [N]-CA--C-[O] |==|  0.02135
ROOT
ATOM      1  C   LEU G   4      38.757   5.806  24.684  1.00 61.38 LIG 0.24  C 
ATOM      2 O    LEU G   4      39.295   5.770  23.571  1.00 52.06 LIG-0.27  OA
ATOM      3  N   PHE G   5      39.127   5.084  25.727  1.00 60.80 LIG-0.35  N 
ATOM      4 H    PHE G   5      38.755   5.149  26.499  1.00 60.80 LIG 0.16  HD
ENDROOT
BRANCH 1 5
ATOM      5  CA  LEU G   4      37.566   6.679  24.947  1.00 58.56 LIG 0.18  C 
BRANCH 5 6
ATOM      6  CB  LEU G   4      36.319   5.806  24.845  1.00 61.47 LIG 0.04  C 
BRANCH 6 7
ATOM      7  CG  LEU G   4      35.429   5.849  26.068  1.00 62.80 LIG-0.02  C 
ATOM      8  CD1 LEU G   4      36.143   5.087  27.164  1.00 63.22 LIG 0.01  C 
ATOM      9  CD2 LEU G   4      35.180   7.311  26.437  1.00 64.86 LIG 0.01  C 
ENDBRANCH 6 7
ENDBRANCH 5 6
BRANCH 5 10
ATOM     10  N   LEU G   4      37.560   7.765  23.986  1.00 59.02 LIG-0.35  N 
ATOM     11 H    LEU G   4      36.990   7.682  23.348  1.00 59.02 LIG 0.16  HD
ATOM     12  C   ILE G   3      38.396   8.795  24.124  1.00 70.10 LIG 0.24  C 
ATOM     13 O    ILE G   3      39.048   8.990  25.174  1.00 64.55 LIG-0.27  OA
BRANCH 12 14
ATOM     14  CA  ILE G   3      38.516   9.750  22.907  1.00 67.83 LIG 0.18  C 
BRANCH 14 15
ATOM     15  CB  ILE G   3      39.407   9.122  21.789  1.00 66.94 LIG 0.01  C 
ATOM     16  CG2 ILE G   3      40.601   8.391  22.403  1.00 67.41 LIG 0.01  C 
BRANCH 15 17
ATOM     17  CG1 ILE G   3      38.605   8.160  20.869  1.00 59.79 LIG 0.00  C 
ATOM     18  CD1 ILE G   3      38.084   8.808  19.614  1.00 60.74 LIG 0.01  C 
ENDBRANCH 15 17
ENDBRANCH 14 15
BRANCH 14 19
ATOM     19  N   ILE G   3      39.051  11.033  23.336  1.00 79.60 LIG-0.34  N 
ATOM     20 H    ILE G   3      39.784  10.970  23.780  1.00 79.60 LIG 0.16  HD
ATOM     21  C   ASP G   2      38.460  12.201  23.066  1.00 93.07 LIG 0.26  C 
ATOM     22 O    ASP G   2      37.462  12.305  22.351  1.00 81.24 LIG-0.27  OA
BRANCH 21 23
ATOM     23  CA  ASP G   2      39.067  13.456  23.707  1.00 93.30 LIG 0.41  C 
ATOM     24  N   ASP G   2      37.972  14.440  23.944  1.00 94.60 LIG 0.61  N 
BRANCH 23 25
ATOM     25  CB  ASP G   2      39.792  13.143  25.024  1.00 96.36 LIG 0.16  C 
BRANCH 25 26
ATOM     26  CG  ASP G   2      38.835  12.850  26.159  1.00103.24 LIG 0.17  C 
ATOM     27 OD1  ASP G   2      37.933  13.671  26.418  1.00112.85 LIG-0.65  OA
ATOM     28 OD2  ASP G   2      38.977  11.794  26.795  1.00105.87 LIG-0.65  OA
ENDBRANCH 25 26
ENDBRANCH 23 25
ENDBRANCH 21 23
ENDBRANCH 14 19
ENDBRANCH 12 14
ENDBRANCH 5 10
ENDBRANCH 1 5
BRANCH 3 29
ATOM     29  CA  PHE G   5      40.189   4.119  25.681  1.00 70.05 LIG 0.18  C 
BRANCH 29 30
ATOM     30  CB  PHE G   5      41.001   4.140  26.993  1.00 73.20 LIG 0.07  C 
BRANCH 30 31
ATOM     31  CG  PHE G   5      40.412   3.238  28.067  1.00 79.36 LIG-0.06  A 
ATOM     32  CD1 PHE G   5      39.165   3.557  28.659  1.00 85.64 LIG 0.01  A 
ATOM     33  CE1 PHE G   5      38.600   2.743  29.632  1.00 88.71 LIG 0.00  A 
ATOM     34  CZ  PHE G   5      39.274   1.583  30.025  1.00 96.11 LIG 0.00  A 
ATOM     35  CE2 PHE G   5      40.503   1.242  29.437  1.00 91.53 LIG 0.00  A 
ATOM     36  CD2 PHE G   5      41.066   2.063  28.465  1.00 81.01 LIG 0.01  A 
ENDBRANCH 30 31
ENDBRANCH 29 30
BRANCH 29 37
ATOM     37  C   PHE G   5      39.522   2.781  25.383  1.00 74.26 LIG 0.24  C 
ATOM     38  N   PRO G   6      39.972   2.101  24.304  1.00 79.01 LIG-0.34  N 
ATOM     39  CD  PRO G   6      40.955   2.637  23.323  1.00 76.17 LIG 0.13  C 
ATOM     40  CA  PRO G   6      39.301   0.890  23.808  1.00 78.34 LIG 0.18  C 
ATOM     41  CG  PRO G   6      41.163   1.501  22.384  1.00 78.03 LIG 0.02  C 
ATOM     42  CB  PRO G   6      39.840   0.781  22.372  1.00 82.73 LIG 0.04  C 
ATOM     43 O    PHE G   5      38.553   2.413  26.059  1.00 61.78 LIG-0.27  OA
BRANCH 40 44
ATOM     44  C   PRO G   6      39.585  -0.418  24.581  1.00 77.34 LIG 0.24  C 
ATOM     45 O    PRO G   6      39.678  -1.463  23.960  1.00 92.50 LIG-0.27  OA
ATOM     46  N   ALA G   7      39.715  -0.352  25.914  1.00 74.20 LIG-0.35  N 
ATOM     47 H    ALA G   7      39.920   0.370  26.334  1.00 74.20 LIG 0.16  HD
BRANCH 46 48
ATOM     48  CA  ALA G   7      39.517  -1.528  26.803  1.00 71.75 LIG 0.16  C 
ATOM     49  CB  ALA G   7      40.854  -1.993  27.380  1.00 70.01 LIG 0.04  C 
BRANCH 48 50
ATOM     50  C   ALA G   7      38.537  -1.171  27.944  1.00 69.94 LIG 0.22  C 
ATOM     51 O    ALA G   7      37.927  -0.072  27.936  1.00 56.97 LIG-0.29  OA
ENDBRANCH 48 50
ENDBRANCH 46 48
ENDBRANCH 40 44
ENDBRANCH 29 37
ENDBRANCH 3 29
TORSDOF 18
ENDMDL
MODEL 23
USER: ADFR SOLUTION from run 53
USER: SCORE 14.869172 LL:  -5.962 LR:  -9.821 RR:   0.000 FEB:  -4.451
USER: RMSD 4.492731
USER: SEED 52
USER: STATUS no improvement in best in 18 clusters for 5 generations
USER: GENES 20
USER: genes 0 Translation |==|  0.50776 0.54512 0.51714
USER: genes 1 Rotation |==|  0.49321 0.45635 0.50286 0.99804
USER: genes 2 Torsion [N]-C--CA-[N] |==|  0.50475
USER: genes 3 Torsion [C]-CA--CB-[CG] |==|  0.72002
USER: genes 4 Torsion [CA]-CB--CG-[CD1] |==|  0.20060
USER: genes 5 Torsion [C]-CA--N-[C] |==|  0.78172
USER: genes 6 Torsion [N]-C--CA-[N] |==|  0.39397
USER: genes 7 Torsion [C]-CA--CB-[CG1] |==|  0.19241
USER: genes 8 Torsion [CA]-CB--CG1-[CD1] |==|  0.51705
USER: genes 9 Torsion [C]-CA--N-[C] |==|  0.76534
USER: genes 10 Torsion [N]-C--CA-[N] |==|  0.92580
USER: genes 11 Torsion [C]-CA--CB-[CG] |==|  0.82613
USER: genes 12 Torsion [CA]-CB--CG-[OD1] |==|  0.37711
USER: genes 13 Torsion [C]-N--CA-[CB] |==|  0.54071
USER: genes 14 Torsion [N]-CA--CB-[CG] |==|  0.17122
USER: genes 15 Torsion [CA]-CB--CG-[CD1] |==|  0.79195
USER: genes 16 Torsion [N]-CA--C-[N] |==|  0.30380
USER: genes 17 Torsion [N]-CA--C-[O] |==|  0.61960
USER: genes 18 Torsion [C]-N--CA-[C] |==|  0.58762
USER: genes 19 Torsion [N]-CA--C-[O] |==|  0.93547
ROOT
ATOM      1  C   LEU G   4      40.087   7.433  22.969  1.00 61.38 LIG 0.24  C 
ATOM      2 O    LEU G   4      39.915   7.381  21.746  1.00 52.06 LIG-0.27  OA
ATOM      3  N   PHE G   5      40.863   6.616  23.659  1.00 60.80 LIG-0.35  N 
ATOM      4 H    PHE G   5      40.989   6.692  24.506  1.00 60.80 LIG 0.16  HD
ENDROOT
BRANCH 1 5
ATOM      5  CA  LEU G   4      39.373   8.445  23.815  1.00 58.56 LIG 0.18  C 
BRANCH 5 6
ATOM      6  CB  LEU G   4      38.577   7.686  24.873  1.00 61.47 LIG 0.04  C 
BRANCH 6 7
ATOM      7  CG  LEU G   4      37.103   7.551  24.561  1.00 62.80 LIG-0.02  C 
ATOM      8  CD1 LEU G   4      36.976   6.552  23.430  1.00 63.22 LIG 0.01  C 
ATOM      9  CD2 LEU G   4      36.376   7.098  25.827  1.00 64.86 LIG 0.01  C 
ENDBRANCH 6 7
ENDBRANCH 5 6
BRANCH 5 10
ATOM     10  N   LEU G   4      38.525   9.255  22.962  1.00 59.02 LIG-0.35  N 
ATOM     11 H    LEU G   4      37.692   9.045  22.975  1.00 59.02 LIG 0.16  HD
ATOM     12  C   ILE G   3      39.046  10.240  22.230  1.00 70.10 LIG 0.24  C 
ATOM     13 O    ILE G   3      40.214  10.655  22.403  1.00 64.55 LIG-0.27  OA
BRANCH 12 14
ATOM     14  CA  ILE G   3      38.122  10.852  21.144  1.00 67.83 LIG 0.18  C 
BRANCH 14 15
ATOM     15  CB  ILE G   3      38.370  10.182  19.755  1.00 66.94 LIG 0.01  C 
ATOM     16  CG2 ILE G   3      39.851  10.257  19.382  1.00 67.41 LIG 0.01  C 
BRANCH 15 17
ATOM     17  CG1 ILE G   3      37.881   8.708  19.718  1.00 59.79 LIG 0.00  C 
ATOM     18  CD1 ILE G   3      38.233   7.981  18.446  1.00 60.74 LIG 0.01  C 
ENDBRANCH 15 17
ENDBRANCH 14 15
BRANCH 14 19
ATOM     19  N   ILE G   3      38.329  12.290  21.071  1.00 79.60 LIG-0.34  N 
ATOM     20 H    ILE G   3      38.886  12.527  20.461  1.00 79.60 LIG 0.16  HD
ATOM     21  C   ASP G   2      37.713  13.161  21.874  1.00 93.07 LIG 0.26  C 
ATOM     22 O    ASP G   2      36.845  12.836  22.686  1.00 81.24 LIG-0.27  OA
BRANCH 21 23
ATOM     23  CA  ASP G   2      38.141  14.631  21.772  1.00 93.30 LIG 0.41  C 
ATOM     24  N   ASP G   2      39.551  14.679  21.289  1.00 94.60 LIG 0.61  N 
BRANCH 23 25
ATOM     25  CB  ASP G   2      37.232  15.436  20.832  1.00 96.36 LIG 0.16  C 
BRANCH 25 26
ATOM     26  CG  ASP G   2      37.276  14.931  19.406  1.00103.24 LIG 0.17  C 
ATOM     27 OD1  ASP G   2      36.209  14.806  18.773  1.00112.85 LIG-0.65  OA
ATOM     28 OD2  ASP G   2      38.380  14.662  18.908  1.00105.87 LIG-0.65  OA
ENDBRANCH 25 26
ENDBRANCH 23 25
ENDBRANCH 21 23
ENDBRANCH 14 19
ENDBRANCH 12 14
ENDBRANCH 5 10
ENDBRANCH 1 5
BRANCH 3 29
ATOM     29  CA  PHE G   5      41.577   5.520  23.069  1.00 70.05 LIG 0.18  C 
BRANCH 29 30
ATOM     30  CB  PHE G   5      42.087   4.553  24.157  1.00 73.20 LIG 0.07  C 
BRANCH 30 31
ATOM     31  CG  PHE G   5      40.962   3.927  24.967  1.00 79.36 LIG-0.06  A 
ATOM     32  CD1 PHE G   5      40.276   4.693  25.943  1.00 85.64 LIG 0.01  A 
ATOM     33  CE1 PHE G   5      39.236   4.149  26.685  1.00 88.71 LIG 0.00  A 
ATOM     34  CZ  PHE G   5      38.856   2.823  26.456  1.00 96.11 LIG 0.00  A 
ATOM     35  CE2 PHE G   5      39.513   2.055  25.481  1.00 91.53 LIG 0.00  A 
ATOM     36  CD2 PHE G   5      40.556   2.604  24.742  1.00 81.01 LIG 0.01  A 
ENDBRANCH 30 31
ENDBRANCH 29 30
BRANCH 29 37
ATOM     37  C   PHE G   5      40.614   4.884  22.072  1.00 74.26 LIG 0.24  C 
ATOM     38  N   PRO G   6      40.895   5.051  20.760  1.00 79.01 LIG-0.34  N 
ATOM     39  CD  PRO G   6      41.979   5.925  20.238  1.00 76.17 LIG 0.13  C 
ATOM     40  CA  PRO G   6      39.957   4.640  19.704  1.00 78.34 LIG 0.18  C 
ATOM     41  CG  PRO G   6      41.916   5.714  18.765  1.00 78.03 LIG 0.02  C 
ATOM     42  CB  PRO G   6      40.460   5.441  18.490  1.00 82.73 LIG 0.04  C 
ATOM     43 O    PHE G   5      39.584   4.334  22.481  1.00 61.78 LIG-0.27  OA
BRANCH 40 44
ATOM     44  C   PRO G   6      39.922   3.132  19.365  1.00 77.34 LIG 0.24  C 
ATOM     45 O    PRO G   6      39.882   2.790  18.196  1.00 92.50 LIG-0.27  OA
ATOM     46  N   ALA G   7      39.933   2.254  20.379  1.00 74.20 LIG-0.35  N 
ATOM     47 H    ALA G   7      40.225   2.443  21.165  1.00 74.20 LIG 0.16  HD
BRANCH 46 48
ATOM     48  CA  ALA G   7      39.438   0.857  20.240  1.00 71.75 LIG 0.16  C 
ATOM     49  CB  ALA G   7      40.571  -0.069  19.797  1.00 70.01 LIG 0.04  C 
BRANCH 48 50
ATOM     50  C   ALA G   7      38.844   0.371  21.581  1.00 69.94 LIG 0.22  C 
ATOM     51 O    ALA G   7      39.197   0.905  22.664  1.00 56.97 LIG-0.29  OA
ENDBRANCH 48 50
ENDBRANCH 46 48
ENDBRANCH 40 44
ENDBRANCH 29 37
ENDBRANCH 3 29
TORSDOF 18
ENDMDL
MODEL 24
USER: ADFR SOLUTION from run 6
USER: SCORE 13.506568 LL:  -5.212 LR:  -9.787 RR:   0.000 FEB:  -4.417
USER: RMSD 2.855888
USER: SEED 540705
USER: STATUS no improvement in best in 12 clusters for 5 generations
USER: GENES 20
USER: genes 0 Translation |==|  0.43314 0.51601 0.45081
USER: genes 1 Rotation |==|  0.54052 0.58648 0.47785 0.99029
USER: genes 2 Torsion [N]-C--CA-[N] |==|  0.41089
USER: genes 3 Torsion [C]-CA--CB-[CG] |==|  0.58612
USER: genes 4 Torsion [CA]-CB--CG-[CD1] |==|  0.46205
USER: genes 5 Torsion [C]-CA--N-[C] |==|  0.82136
USER: genes 6 Torsion [N]-C--CA-[N] |==|  0.26327
USER: genes 7 Torsion [C]-CA--CB-[CG1] |==|  0.09952
USER: genes 8 Torsion [CA]-CB--CG1-[CD1] |==|  0.20640
USER: genes 9 Torsion [C]-CA--N-[C] |==|  0.66735
USER: genes 10 Torsion [N]-C--CA-[N] |==|  0.52757
USER: genes 11 Torsion [C]-CA--CB-[CG] |==|  0.76489
USER: genes 12 Torsion [CA]-CB--CG-[OD1] |==|  0.78390
USER: genes 13 Torsion [C]-N--CA-[CB] |==|  0.27721
USER: genes 14 Torsion [N]-CA--CB-[CG] |==|  0.63294
USER: genes 15 Torsion [CA]-CB--CG-[CD1] |==|  0.66745
USER: genes 16 Torsion [N]-CA--C-[N] |==|  0.41441
USER: genes 17 Torsion [N]-CA--C-[O] |==|  0.90619
USER: genes 18 Torsion [C]-N--CA-[C] |==|  0.70842
USER: genes 19 Torsion [N]-CA--C-[O] |==|  0.98948
ROOT
ATOM      1  C   LEU G   4      38.856   6.625  21.874  1.00 61.38 LIG 0.24  C 
ATOM      2 O    LEU G   4      38.105   6.837  20.916  1.00 52.06 LIG-0.27  OA
ATOM      3  N   PHE G   5      39.750   5.654  21.936  1.00 60.80 LIG-0.35  N 
ATOM      4 H    PHE G   5      40.281   5.547  22.603  1.00 60.80 LIG 0.16  HD
ENDROOT
BRANCH 1 5
ATOM      5  CA  LEU G   4      38.789   7.463  23.117  1.00 58.56 LIG 0.18  C 
BRANCH 5 6
ATOM      6  CB  LEU G   4      37.761   6.829  24.049  1.00 61.47 LIG 0.04  C 
BRANCH 6 7
ATOM      7  CG  LEU G   4      37.031   7.818  24.932  1.00 62.80 LIG-0.02  C 
ATOM      8  CD1 LEU G   4      35.842   7.092  25.524  1.00 63.22 LIG 0.01  C 
ATOM      9  CD2 LEU G   4      38.000   8.325  25.999  1.00 64.86 LIG 0.01  C 
ENDBRANCH 6 7
ENDBRANCH 5 6
BRANCH 5 10
ATOM     10  N   LEU G   4      38.437   8.820  22.748  1.00 59.02 LIG-0.35  N 
ATOM     11 H    LEU G   4      37.680   9.094  23.051  1.00 59.02 LIG 0.16  HD
ATOM     12  C   ILE G   3      39.259   9.552  21.994  1.00 70.10 LIG 0.24  C 
ATOM     13 O    ILE G   3      40.437   9.204  21.761  1.00 64.55 LIG-0.27  OA
BRANCH 12 14
ATOM     14  CA  ILE G   3      38.673  10.868  21.418  1.00 67.83 LIG 0.18  C 
BRANCH 14 15
ATOM     15  CB  ILE G   3      39.192  11.124  19.967  1.00 66.94 LIG 0.01  C 
ATOM     16  CG2 ILE G   3      40.517  11.887  20.000  1.00 67.41 LIG 0.01  C 
BRANCH 15 17
ATOM     17  CG1 ILE G   3      39.353   9.807  19.159  1.00 59.79 LIG 0.00  C 
ATOM     18  CD1 ILE G   3      38.047   9.206  18.709  1.00 60.74 LIG 0.01  C 
ENDBRANCH 15 17
ENDBRANCH 14 15
BRANCH 14 19
ATOM     19  N   ILE G   3      39.006  11.982  22.292  1.00 79.60 LIG-0.34  N 
ATOM     20 H    ILE G   3      39.851  12.104  22.387  1.00 79.60 LIG 0.16  HD
ATOM     21  C   ASP G   2      38.087  12.744  22.892  1.00 93.07 LIG 0.26  C 
ATOM     22 O    ASP G   2      36.877  12.633  22.686  1.00 81.24 LIG-0.27  OA
BRANCH 21 23
ATOM     23  CA  ASP G   2      38.591  13.789  23.895  1.00 93.30 LIG 0.41  C 
ATOM     24  N   ASP G   2      37.416  14.353  24.619  1.00 94.60 LIG 0.61  N 
BRANCH 23 25
ATOM     25  CB  ASP G   2      39.595  13.196  24.896  1.00 96.36 LIG 0.16  C 
BRANCH 25 26
ATOM     26  CG  ASP G   2      38.917  12.535  26.076  1.00103.24 LIG 0.17  C 
ATOM     27 OD1  ASP G   2      38.459  13.249  26.990  1.00112.85 LIG-0.65  OA
ATOM     28 OD2  ASP G   2      38.834  11.297  26.094  1.00105.87 LIG-0.65  OA
ENDBRANCH 25 26
ENDBRANCH 23 25
ENDBRANCH 21 23
ENDBRANCH 14 19
ENDBRANCH 12 14
ENDBRANCH 5 10
ENDBRANCH 1 5
BRANCH 3 29
ATOM     29  CA  PHE G   5      39.929   4.680  20.897  1.00 70.05 LIG 0.18  C 
BRANCH 29 30
ATOM     30  CB  PHE G   5      41.135   5.048  20.008  1.00 73.20 LIG 0.07  C 
BRANCH 30 31
ATOM     31  CG  PHE G   5      40.820   4.972  18.522  1.00 79.36 LIG-0.06  A 
ATOM     32  CD1 PHE G   5      41.544   4.086  17.685  1.00 85.64 LIG 0.01  A 
ATOM     33  CE1 PHE G   5      41.266   3.986  16.329  1.00 88.71 LIG 0.00  A 
ATOM     34  CZ  PHE G   5      40.245   4.771  15.784  1.00 96.11 LIG 0.00  A 
ATOM     35  CE2 PHE G   5      39.506   5.642  16.600  1.00 91.53 LIG 0.00  A 
ATOM     36  CD2 PHE G   5      39.791   5.740  17.958  1.00 81.01 LIG 0.01  A 
ENDBRANCH 30 31
ENDBRANCH 29 30
BRANCH 29 37
ATOM     37  C   PHE G   5      40.063   3.337  21.604  1.00 74.26 LIG 0.24  C 
ATOM     38  N   PRO G   6      39.613   2.249  20.939  1.00 79.01 LIG-0.34  N 
ATOM     39  CD  PRO G   6      38.874   2.299  19.649  1.00 76.17 LIG 0.13  C 
ATOM     40  CA  PRO G   6      39.525   0.926  21.576  1.00 78.34 LIG 0.18  C 
ATOM     41  CG  PRO G   6      38.666   0.864  19.311  1.00 78.03 LIG 0.02  C 
ATOM     42  CB  PRO G   6      38.550   0.180  20.648  1.00 82.73 LIG 0.04  C 
ATOM     43 O    PHE G   5      40.478   3.295  22.768  1.00 61.78 LIG-0.27  OA
BRANCH 40 44
ATOM     44  C   PRO G   6      40.847   0.134  21.702  1.00 77.34 LIG 0.24  C 
ATOM     45 O    PRO G   6      41.689   0.247  20.828  1.00 92.50 LIG-0.27  OA
ATOM     46  N   ALA G   7      41.014  -0.654  22.774  1.00 74.20 LIG-0.35  N 
ATOM     47 H    ALA G   7      40.581  -0.550  23.510  1.00 74.20 LIG 0.16  HD
BRANCH 46 48
ATOM     48  CA  ALA G   7      41.972  -1.792  22.796  1.00 71.75 LIG 0.16  C 
ATOM     49  CB  ALA G   7      42.805  -1.765  24.077  1.00 70.01 LIG 0.04  C 
BRANCH 48 50
ATOM     50  C   ALA G   7      41.207  -3.130  22.685  1.00 69.94 LIG 0.22  C 
ATOM     51 O    ALA G   7      39.949  -3.143  22.665  1.00 56.97 LIG-0.29  OA
ENDBRANCH 48 50
ENDBRANCH 46 48
ENDBRANCH 40 44
ENDBRANCH 29 37
ENDBRANCH 3 29
TORSDOF 18
ENDMDL
MODEL 25
USER: ADFR SOLUTION from run 106
USER: SCORE 13.420664 LL:  -5.152 LR:  -9.781 RR:   0.000 FEB:  -4.412
USER: RMSD 1.158226
USER: SEED 105
USER: STATUS no improvement in best in 12 clusters for 5 generations
USER: GENES 20
USER: genes 0 Translation |==|  0.45998 0.49591 0.52056
USER: genes 1 Rotation |==|  0.53455 0.42246 0.47851 0.99227
USER: genes 2 Torsion [N]-C--CA-[N] |==|  0.47389
USER: genes 3 Torsion [C]-CA--CB-[CG] |==|  0.49655
USER: genes 4 Torsion [CA]-CB--CG-[CD1] |==|  0.57991
USER: genes 5 Torsion [C]-CA--N-[C] |==|  0.76230
USER: genes 6 Torsion [N]-C--CA-[N] |==|  0.42007
USER: genes 7 Torsion [C]-CA--CB-[CG1] |==|  0.19702
USER: genes 8 Torsion [CA]-CB--CG1-[CD1] |==|  0.37102
USER: genes 9 Torsion [C]-CA--N-[C] |==|  0.68681
USER: genes 10 Torsion [N]-C--CA-[N] |==|  0.77470
USER: genes 11 Torsion [C]-CA--CB-[CG] |==|  0.76682
USER: genes 12 Torsion [CA]-CB--CG-[OD1] |==|  0.76498
USER: genes 13 Torsion [C]-N--CA-[CB] |==|  0.29584
USER: genes 14 Torsion [N]-CA--CB-[CG] |==|  0.70545
USER: genes 15 Torsion [CA]-CB--CG-[CD1] |==|  0.09408
USER: genes 16 Torsion [N]-CA--C-[N] |==|  0.38346
USER: genes 17 Torsion [N]-CA--C-[O] |==|  0.93375
USER: genes 18 Torsion [C]-N--CA-[C] |==|  0.81321
USER: genes 19 Torsion [N]-CA--C-[O] |==|  0.96311
ROOT
ATOM      1  C   LEU G   4      39.299   6.068  23.025  1.00 61.38 LIG 0.24  C 
ATOM      2 O    LEU G   4      39.300   6.237  21.801  1.00 52.06 LIG-0.27  OA
ATOM      3  N   PHE G   5      39.910   5.079  23.654  1.00 60.80 LIG-0.35  N 
ATOM      4 H    PHE G   5      39.918   5.001  24.510  1.00 60.80 LIG 0.16  HD
ENDROOT
BRANCH 1 5
ATOM      5  CA  LEU G   4      38.541   6.985  23.939  1.00 58.56 LIG 0.18  C 
BRANCH 5 6
ATOM      6  CB  LEU G   4      37.373   6.197  24.523  1.00 61.47 LIG 0.04  C 
BRANCH 6 7
ATOM      7  CG  LEU G   4      36.521   6.981  25.497  1.00 62.80 LIG-0.02  C 
ATOM      8  CD1 LEU G   4      35.932   5.987  26.475  1.00 63.22 LIG 0.01  C 
ATOM      9  CD2 LEU G   4      37.401   8.026  26.182  1.00 64.86 LIG 0.01  C 
ENDBRANCH 6 7
ENDBRANCH 5 6
BRANCH 5 10
ATOM     10  N   LEU G   4      38.103   8.142  23.182  1.00 59.02 LIG-0.35  N 
ATOM     11 H    LEU G   4      37.307   8.086  22.863  1.00 59.02 LIG 0.16  HD
ATOM     12  C   ILE G   3      38.911   9.190  23.020  1.00 70.10 LIG 0.24  C 
ATOM     13 O    ILE G   3      39.966   9.327  23.678  1.00 64.55 LIG-0.27  OA
BRANCH 12 14
ATOM     14  CA  ILE G   3      38.471  10.241  21.966  1.00 67.83 LIG 0.18  C 
BRANCH 14 15
ATOM     15  CB  ILE G   3      38.955   9.839  20.537  1.00 66.94 LIG 0.01  C 
ATOM     16  CG2 ILE G   3      40.457   9.554  20.542  1.00 67.41 LIG 0.01  C 
BRANCH 15 17
ATOM     17  CG1 ILE G   3      38.179   8.615  19.976  1.00 59.79 LIG 0.00  C 
ATOM     18  CD1 ILE G   3      37.709   8.790  18.556  1.00 60.74 LIG 0.01  C 
ENDBRANCH 15 17
ENDBRANCH 14 15
BRANCH 14 19
ATOM     19  N   ILE G   3      38.978  11.554  22.336  1.00 79.60 LIG-0.34  N 
ATOM     20 H    ILE G   3      39.833  11.618  22.290  1.00 79.60 LIG 0.16  HD
ATOM     21  C   ASP G   2      38.190  12.566  22.709  1.00 93.07 LIG 0.26  C 
ATOM     22 O    ASP G   2      36.959  12.509  22.686  1.00 81.24 LIG-0.27  OA
BRANCH 21 23
ATOM     23  CA  ASP G   2      38.880  13.844  23.205  1.00 93.30 LIG 0.41  C 
ATOM     24  N   ASP G   2      39.269  13.647  24.631  1.00 94.60 LIG 0.61  N 
BRANCH 23 25
ATOM     25  CB  ASP G   2      40.114  14.200  22.364  1.00 96.36 LIG 0.16  C 
BRANCH 25 26
ATOM     26  CG  ASP G   2      41.355  13.457  22.808  1.00103.24 LIG 0.17  C 
ATOM     27 OD1  ASP G   2      42.034  13.918  23.747  1.00112.85 LIG-0.65  OA
ATOM     28 OD2  ASP G   2      41.655  12.404  22.225  1.00105.87 LIG-0.65  OA
ENDBRANCH 25 26
ENDBRANCH 23 25
ENDBRANCH 21 23
ENDBRANCH 14 19
ENDBRANCH 12 14
ENDBRANCH 5 10
ENDBRANCH 1 5
BRANCH 3 29
ATOM     29  CA  PHE G   5      40.625   4.035  22.975  1.00 70.05 LIG 0.18  C 
BRANCH 29 30
ATOM     30  CB  PHE G   5      42.148   4.223  23.138  1.00 73.20 LIG 0.07  C 
BRANCH 30 31
ATOM     31  CG  PHE G   5      42.821   4.724  21.869  1.00 79.36 LIG-0.06  A 
ATOM     32  CD1 PHE G   5      42.134   5.610  21.001  1.00 85.64 LIG 0.01  A 
ATOM     33  CE1 PHE G   5      42.732   6.093  19.845  1.00 88.71 LIG 0.00  A 
ATOM     34  CZ  PHE G   5      44.039   5.702  19.539  1.00 96.11 LIG 0.00  A 
ATOM     35  CE2 PHE G   5      44.740   4.838  20.395  1.00 91.53 LIG 0.00  A 
ATOM     36  CD2 PHE G   5      44.136   4.355  21.552  1.00 81.01 LIG 0.01  A 
ENDBRANCH 30 31
ENDBRANCH 29 30
BRANCH 29 37
ATOM     37  C   PHE G   5      40.094   2.726  23.547  1.00 74.26 LIG 0.24  C 
ATOM     38  N   PRO G   6      39.865   1.724  22.669  1.00 79.01 LIG-0.34  N 
ATOM     39  CD  PRO G   6      39.955   1.866  21.191  1.00 76.17 LIG 0.13  C 
ATOM     40  CA  PRO G   6      39.192   0.477  23.066  1.00 78.34 LIG 0.18  C 
ATOM     41  CG  PRO G   6      39.682   0.489  20.693  1.00 78.03 LIG 0.02  C 
ATOM     42  CB  PRO G   6      38.739  -0.095  21.712  1.00 82.73 LIG 0.04  C 
ATOM     43 O    PHE G   5      39.806   2.654  24.748  1.00 61.78 LIG-0.27  OA
BRANCH 40 44
ATOM     44  C   PRO G   6      40.056  -0.561  23.817  1.00 77.34 LIG 0.24  C 
ATOM     45 O    PRO G   6      41.266  -0.540  23.670  1.00 92.50 LIG-0.27  OA
ATOM     46  N   ALA G   7      39.436  -1.452  24.605  1.00 74.20 LIG-0.35  N 
ATOM     47 H    ALA G   7      38.651  -1.327  24.932  1.00 74.20 LIG 0.16  HD
BRANCH 46 48
ATOM     48  CA  ALA G   7      40.050  -2.750  24.992  1.00 71.75 LIG 0.16  C 
ATOM     49  CB  ALA G   7      39.209  -3.440  26.066  1.00 70.01 LIG 0.04  C 
BRANCH 48 50
ATOM     50  C   ALA G   7      40.185  -3.662  23.751  1.00 69.94 LIG 0.22  C 
ATOM     51 O    ALA G   7      39.584  -3.377  22.684  1.00 56.97 LIG-0.29  OA
ENDBRANCH 48 50
ENDBRANCH 46 48
ENDBRANCH 40 44
ENDBRANCH 29 37
ENDBRANCH 3 29
TORSDOF 18
ENDMDL
MODEL 26
USER: ADFR SOLUTION from run 93
USER: SCORE 13.814185 LL:  -5.245 LR:  -9.735 RR:   0.000 FEB:  -4.365
USER: RMSD 3.281521
USER: SEED 92
USER: STATUS no improvement in best in 10 clusters for 5 generations
USER: GENES 20
USER: genes 0 Translation |==|  0.46318 0.50908 0.55016
USER: genes 1 Rotation |==|  0.38024 0.59878 0.52181 0.97479
USER: genes 2 Torsion [N]-C--CA-[N] |==|  0.39164
USER: genes 3 Torsion [C]-CA--CB-[CG] |==|  0.84725
USER: genes 4 Torsion [CA]-CB--CG-[CD1] |==|  0.35049
USER: genes 5 Torsion [C]-CA--N-[C] |==|  0.79458
USER: genes 6 Torsion [N]-C--CA-[N] |==|  0.34107
USER: genes 7 Torsion [C]-CA--CB-[CG1] |==|  0.44965
USER: genes 8 Torsion [CA]-CB--CG1-[CD1] |==|  0.25277
USER: genes 9 Torsion [C]-CA--N-[C] |==|  0.78508
USER: genes 10 Torsion [N]-C--CA-[N] |==|  0.97471
USER: genes 11 Torsion [C]-CA--CB-[CG] |==|  0.81929
USER: genes 12 Torsion [CA]-CB--CG-[OD1] |==|  0.95383
USER: genes 13 Torsion [C]-N--CA-[CB] |==|  0.44485
USER: genes 14 Torsion [N]-CA--CB-[CG] |==|  0.91528
USER: genes 15 Torsion [CA]-CB--CG-[CD1] |==|  0.80699
USER: genes 16 Torsion [N]-CA--C-[N] |==|  0.45414
USER: genes 17 Torsion [N]-CA--C-[O] |==|  0.66709
USER: genes 18 Torsion [C]-N--CA-[C] |==|  0.74760
USER: genes 19 Torsion [N]-CA--C-[O] |==|  0.97132
ROOT
ATOM      1  C   LEU G   4      39.351   6.433  23.514  1.00 61.38 LIG 0.24  C 
ATOM      2 O    LEU G   4      38.586   5.869  22.724  1.00 52.06 LIG-0.27  OA
ATOM      3  N   PHE G   5      40.488   5.926  23.959  1.00 60.80 LIG-0.35  N 
ATOM      4 H    PHE G   5      41.017   6.352  24.486  1.00 60.80 LIG 0.16  HD
ENDROOT
BRANCH 1 5
ATOM      5  CA  LEU G   4      39.026   7.780  24.088  1.00 58.56 LIG 0.18  C 
BRANCH 5 6
ATOM      6  CB  LEU G   4      38.069   7.567  25.257  1.00 61.47 LIG 0.04  C 
BRANCH 6 7
ATOM      7  CG  LEU G   4      36.822   6.786  24.904  1.00 62.80 LIG-0.02  C 
ATOM      8  CD1 LEU G   4      36.732   5.628  25.874  1.00 63.22 LIG 0.01  C 
ATOM      9  CD2 LEU G   4      35.618   7.723  24.996  1.00 64.86 LIG 0.01  C 
ENDBRANCH 6 7
ENDBRANCH 5 6
BRANCH 5 10
ATOM     10  N   LEU G   4      38.448   8.606  23.045  1.00 59.02 LIG-0.35  N 
ATOM     11 H    LEU G   4      37.600   8.731  23.110  1.00 59.02 LIG 0.16  HD
ATOM     12  C   ILE G   3      39.216   9.111  22.079  1.00 70.10 LIG 0.24  C 
ATOM     13 O    ILE G   3      40.465   9.093  22.141  1.00 64.55 LIG-0.27  OA
BRANCH 12 14
ATOM     14  CA  ILE G   3      38.474   9.730  20.864  1.00 67.83 LIG 0.18  C 
BRANCH 14 15
ATOM     15  CB  ILE G   3      38.741   8.907  19.565  1.00 66.94 LIG 0.01  C 
ATOM     16  CG2 ILE G   3      38.770   7.410  19.877  1.00 67.41 LIG 0.01  C 
BRANCH 15 17
ATOM     17  CG1 ILE G   3      37.695   9.203  18.455  1.00 59.79 LIG 0.00  C 
ATOM     18  CD1 ILE G   3      38.091  10.319  17.525  1.00 60.74 LIG 0.01  C 
ENDBRANCH 15 17
ENDBRANCH 14 15
BRANCH 14 19
ATOM     19  N   ILE G   3      38.878  11.117  20.692  1.00 79.60 LIG-0.34  N 
ATOM     20 H    ILE G   3      39.440  11.235  20.053  1.00 79.60 LIG 0.16  HD
ATOM     21  C   ASP G   2      38.421  12.114  21.455  1.00 93.07 LIG 0.26  C 
ATOM     22 O    ASP G   2      37.547  11.966  22.310  1.00 81.24 LIG-0.27  OA
BRANCH 21 23
ATOM     23  CA  ASP G   2      39.048  13.499  21.245  1.00 93.30 LIG 0.41  C 
ATOM     24  N   ASP G   2      40.224  13.352  20.341  1.00 94.60 LIG 0.61  N 
BRANCH 23 25
ATOM     25  CB  ASP G   2      38.048  14.505  20.654  1.00 96.36 LIG 0.16  C 
BRANCH 25 26
ATOM     26  CG  ASP G   2      37.606  14.132  19.256  1.00103.24 LIG 0.17  C 
ATOM     27 OD1  ASP G   2      38.274  13.300  18.610  1.00112.85 LIG-0.65  OA
ATOM     28 OD2  ASP G   2      36.584  14.664  18.797  1.00105.87 LIG-0.65  OA
ENDBRANCH 25 26
ENDBRANCH 23 25
ENDBRANCH 21 23
ENDBRANCH 14 19
ENDBRANCH 12 14
ENDBRANCH 5 10
ENDBRANCH 1 5
BRANCH 3 29
ATOM     29  CA  PHE G   5      40.958   4.616  23.610  1.00 70.05 LIG 0.18  C 
BRANCH 29 30
ATOM     30  CB  PHE G   5      42.476   4.499  23.855  1.00 73.20 LIG 0.07  C 
BRANCH 30 31
ATOM     31  CG  PHE G   5      43.209   5.819  23.671  1.00 79.36 LIG-0.06  A 
ATOM     32  CD1 PHE G   5      43.340   6.386  22.379  1.00 85.64 LIG 0.01  A 
ATOM     33  CE1 PHE G   5      43.991   7.597  22.186  1.00 88.71 LIG 0.00  A 
ATOM     34  CZ  PHE G   5      44.518   8.271  23.291  1.00 96.11 LIG 0.00  A 
ATOM     35  CE2 PHE G   5      44.383   7.733  24.581  1.00 91.53 LIG 0.00  A 
ATOM     36  CD2 PHE G   5      43.732   6.517  24.769  1.00 81.01 LIG 0.01  A 
ENDBRANCH 30 31
ENDBRANCH 29 30
BRANCH 29 37
ATOM     37  C   PHE G   5      40.118   3.641  24.427  1.00 74.26 LIG 0.24  C 
ATOM     38  N   PRO G   6      40.126   2.348  24.032  1.00 79.01 LIG-0.34  N 
ATOM     39  CD  PRO G   6      40.771   1.854  22.786  1.00 76.17 LIG 0.13  C 
ATOM     40  CA  PRO G   6      39.227   1.345  24.624  1.00 78.34 LIG 0.18  C 
ATOM     41  CG  PRO G   6      40.559   0.382  22.844  1.00 78.03 LIG 0.02  C 
ATOM     42  CB  PRO G   6      39.249   0.223  23.572  1.00 82.73 LIG 0.04  C 
ATOM     43 O    PHE G   5      39.399   4.066  25.340  1.00 61.78 LIG-0.27  OA
BRANCH 40 44
ATOM     44  C   PRO G   6      39.637   0.785  26.005  1.00 77.34 LIG 0.24  C 
ATOM     45 O    PRO G   6      39.839  -0.412  26.121  1.00 92.50 LIG-0.27  OA
ATOM     46  N   ALA G   7      39.752   1.643  27.029  1.00 74.20 LIG-0.35  N 
ATOM     47 H    ALA G   7      39.880   2.487  26.927  1.00 74.20 LIG 0.16  HD
BRANCH 46 48
ATOM     48  CA  ALA G   7      39.668   1.215  28.452  1.00 71.75 LIG 0.16  C 
ATOM     49  CB  ALA G   7      40.572   2.086  29.325  1.00 70.01 LIG 0.04  C 
BRANCH 48 50
ATOM     50  C   ALA G   7      38.206   1.300  28.945  1.00 69.94 LIG 0.22  C 
ATOM     51 O    ALA G   7      37.330   1.866  28.242  1.00 56.97 LIG-0.29  OA
ENDBRANCH 48 50
ENDBRANCH 46 48
ENDBRANCH 40 44
ENDBRANCH 29 37
ENDBRANCH 3 29
TORSDOF 18
ENDMDL
MODEL 27
USER: ADFR SOLUTION from run 132
USER: SCORE 13.927815 LL:  -5.334 LR:  -9.705 RR:   0.000 FEB:  -4.336
USER: RMSD 4.428124
USER: SEED 131
USER: STATUS no improvement in best in 9 clusters for 5 generations
USER: GENES 20
USER: genes 0 Translation |==|  0.44489 0.48883 0.59756
USER: genes 1 Rotation |==|  0.60669 0.34013 0.45880 0.95974
USER: genes 2 Torsion [N]-C--CA-[N] |==|  0.41106
USER: genes 3 Torsion [C]-CA--CB-[CG] |==|  0.41184
USER: genes 4 Torsion [CA]-CB--CG-[CD1] |==|  0.86631
USER: genes 5 Torsion [C]-CA--N-[C] |==|  0.80627
USER: genes 6 Torsion [N]-C--CA-[N] |==|  0.94343
USER: genes 7 Torsion [C]-CA--CB-[CG1] |==|  0.38366
USER: genes 8 Torsion [CA]-CB--CG1-[CD1] |==|  0.95177
USER: genes 9 Torsion [C]-CA--N-[C] |==|  0.77917
USER: genes 10 Torsion [N]-C--CA-[N] |==|  0.26514
USER: genes 11 Torsion [C]-CA--CB-[CG] |==|  0.54109
USER: genes 12 Torsion [CA]-CB--CG-[OD1] |==|  0.12648
USER: genes 13 Torsion [C]-N--CA-[CB] |==|  0.25435
USER: genes 14 Torsion [N]-CA--CB-[CG] |==|  0.37782
USER: genes 15 Torsion [CA]-CB--CG-[CD1] |==|  0.74025
USER: genes 16 Torsion [N]-CA--C-[N] |==|  0.37359
USER: genes 17 Torsion [N]-CA--C-[O] |==|  0.90772
USER: genes 18 Torsion [C]-N--CA-[C] |==|  0.79032
USER: genes 19 Torsion [N]-CA--C-[O] |==|  0.05165
ROOT
ATOM      1  C   LEU G   4      39.050   5.871  24.296  1.00 61.38 LIG 0.24  C 
ATOM      2 O    LEU G   4      39.482   6.366  23.249  1.00 52.06 LIG-0.27  OA
ATOM      3  N   PHE G   5      39.394   4.687  24.772  1.00 60.80 LIG-0.35  N 
ATOM      4 H    PHE G   5      39.100   4.378  25.518  1.00 60.80 LIG 0.16  HD
ENDROOT
BRANCH 1 5
ATOM      5  CA  LEU G   4      38.028   6.583  25.132  1.00 58.56 LIG 0.18  C 
BRANCH 5 6
ATOM      6  CB  LEU G   4      36.648   6.182  24.618  1.00 61.47 LIG 0.04  C 
BRANCH 6 7
ATOM      7  CG  LEU G   4      35.576   6.143  25.686  1.00 62.80 LIG-0.02  C 
ATOM      8  CD1 LEU G   4      36.140   5.364  26.855  1.00 63.22 LIG 0.01  C 
ATOM      9  CD2 LEU G   4      35.210   7.579  26.060  1.00 64.86 LIG 0.01  C 
ENDBRANCH 6 7
ENDBRANCH 5 6
BRANCH 5 10
ATOM     10  N   LEU G   4      38.258   8.011  25.037  1.00 59.02 LIG-0.35  N 
ATOM     11 H    LEU G   4      37.659   8.448  24.602  1.00 59.02 LIG 0.16  HD
ATOM     12  C   ILE G   3      39.334   8.562  25.600  1.00 70.10 LIG 0.24  C 
ATOM     13 O    ILE G   3      40.059   7.937  26.406  1.00 64.55 LIG-0.27  OA
BRANCH 12 14
ATOM     14  CA  ILE G   3      39.643  10.030  25.203  1.00 67.83 LIG 0.18  C 
BRANCH 14 15
ATOM     15  CB  ILE G   3      39.209  11.019  26.332  1.00 66.94 LIG 0.01  C 
ATOM     16  CG2 ILE G   3      38.948  10.262  27.634  1.00 67.41 LIG 0.01  C 
BRANCH 15 17
ATOM     17  CG1 ILE G   3      40.259  12.141  26.565  1.00 59.79 LIG 0.00  C 
ATOM     18  CD1 ILE G   3      41.617  11.835  25.990  1.00 60.74 LIG 0.01  C 
ENDBRANCH 15 17
ENDBRANCH 14 15
BRANCH 14 19
ATOM     19  N   ILE G   3      38.981  10.352  23.949  1.00 79.60 LIG-0.34  N 
ATOM     20 H    ILE G   3      38.253  10.799  24.048  1.00 79.60 LIG 0.16  HD
ATOM     21  C   ASP G   2      39.457   9.990  22.754  1.00 93.07 LIG 0.26  C 
ATOM     22 O    ASP G   2      40.545   9.433  22.600  1.00 81.24 LIG-0.27  OA
BRANCH 21 23
ATOM     23  CA  ASP G   2      38.575  10.279  21.532  1.00 93.30 LIG 0.41  C 
ATOM     24  N   ASP G   2      39.005  11.577  20.937  1.00 94.60 LIG 0.61  N 
BRANCH 23 25
ATOM     25  CB  ASP G   2      38.654   9.162  20.482  1.00 96.36 LIG 0.16  C 
BRANCH 25 26
ATOM     26  CG  ASP G   2      38.089   9.582  19.142  1.00103.24 LIG 0.17  C 
ATOM     27 OD1  ASP G   2      38.405  10.694  18.673  1.00112.85 LIG-0.65  OA
ATOM     28 OD2  ASP G   2      37.332   8.800  18.548  1.00105.87 LIG-0.65  OA
ENDBRANCH 25 26
ENDBRANCH 23 25
ENDBRANCH 21 23
ENDBRANCH 14 19
ENDBRANCH 12 14
ENDBRANCH 5 10
ENDBRANCH 1 5
BRANCH 3 29
ATOM     29  CA  PHE G   5      40.292   3.796  24.094  1.00 70.05 LIG 0.18  C 
BRANCH 29 30
ATOM     30  CB  PHE G   5      41.745   4.033  24.556  1.00 73.20 LIG 0.07  C 
BRANCH 30 31
ATOM     31  CG  PHE G   5      42.501   2.739  24.820  1.00 79.36 LIG-0.06  A 
ATOM     32  CD1 PHE G   5      42.542   2.192  26.127  1.00 85.64 LIG 0.01  A 
ATOM     33  CE1 PHE G   5      43.212   1.005  26.390  1.00 88.71 LIG 0.00  A 
ATOM     34  CZ  PHE G   5      43.850   0.337  25.342  1.00 96.11 LIG 0.00  A 
ATOM     35  CE2 PHE G   5      43.806   0.854  24.038  1.00 91.53 LIG 0.00  A 
ATOM     36  CD2 PHE G   5      43.135   2.046  23.779  1.00 81.01 LIG 0.01  A 
ENDBRANCH 30 31
ENDBRANCH 29 30
BRANCH 29 37
ATOM     37  C   PHE G   5      39.772   2.390  24.371  1.00 74.26 LIG 0.24  C 
ATOM     38  N   PRO G   6      39.705   1.545  23.318  1.00 79.01 LIG-0.34  N 
ATOM     39  CD  PRO G   6      39.961   1.940  21.907  1.00 76.17 LIG 0.13  C 
ATOM     40  CA  PRO G   6      39.062   0.225  23.416  1.00 78.34 LIG 0.18  C 
ATOM     41  CG  PRO G   6      39.828   0.660  21.159  1.00 78.03 LIG 0.02  C 
ATOM     42  CB  PRO G   6      38.805  -0.123  21.940  1.00 82.73 LIG 0.04  C 
ATOM     43 O    PHE G   5      39.348   2.104  25.498  1.00 61.78 LIG-0.27  OA
BRANCH 40 44
ATOM     44  C   PRO G   6      39.889  -0.894  24.089  1.00 77.34 LIG 0.24  C 
ATOM     45 O    PRO G   6      41.100  -0.898  23.953  1.00 92.50 LIG-0.27  OA
ATOM     46  N   ALA G   7      39.235  -1.826  24.798  1.00 74.20 LIG-0.35  N 
ATOM     47 H    ALA G   7      38.450  -1.705  25.128  1.00 74.20 LIG 0.16  HD
BRANCH 46 48
ATOM     48  CA  ALA G   7      39.807  -3.169  25.085  1.00 71.75 LIG 0.16  C 
ATOM     49  CB  ALA G   7      39.057  -3.834  26.238  1.00 70.01 LIG 0.04  C 
BRANCH 48 50
ATOM     50  C   ALA G   7      39.738  -4.055  23.820  1.00 69.94 LIG 0.22  C 
ATOM     51 O    ALA G   7      39.584  -3.533  22.687  1.00 56.97 LIG-0.29  OA
ENDBRANCH 48 50
ENDBRANCH 46 48
ENDBRANCH 40 44
ENDBRANCH 29 37
ENDBRANCH 3 29
TORSDOF 18
ENDMDL
MODEL 28
USER: ADFR SOLUTION from run 137
USER: SCORE 13.599115 LL:  -5.122 LR:  -9.702 RR:   0.000 FEB:  -4.332
USER: RMSD 3.889694
USER: SEED 136
USER: STATUS no improvement in best in 15 clusters for 5 generations
USER: GENES 20
USER: genes 0 Translation |==|  0.46593 0.48363 0.46311
USER: genes 1 Rotation |==|  0.46501 0.50890 0.44350 0.99548
USER: genes 2 Torsion [N]-C--CA-[N] |==|  0.50090
USER: genes 3 Torsion [C]-CA--CB-[CG] |==|  0.62449
USER: genes 4 Torsion [CA]-CB--CG-[CD1] |==|  0.43251
USER: genes 5 Torsion [C]-CA--N-[C] |==|  0.76121
USER: genes 6 Torsion [N]-C--CA-[N] |==|  0.41720
USER: genes 7 Torsion [C]-CA--CB-[CG1] |==|  0.95098
USER: genes 8 Torsion [CA]-CB--CG1-[CD1] |==|  0.43297
USER: genes 9 Torsion [C]-CA--N-[C] |==|  0.78939
USER: genes 10 Torsion [N]-C--CA-[N] |==|  0.96491
USER: genes 11 Torsion [C]-CA--CB-[CG] |==|  0.81151
USER: genes 12 Torsion [CA]-CB--CG-[OD1] |==|  0.97096
USER: genes 13 Torsion [C]-N--CA-[CB] |==|  0.25530
USER: genes 14 Torsion [N]-CA--CB-[CG] |==|  0.76678
USER: genes 15 Torsion [CA]-CB--CG-[CD1] |==|  0.78952
USER: genes 16 Torsion [N]-CA--C-[N] |==|  0.84606
USER: genes 17 Torsion [N]-CA--C-[O] |==|  0.25457
USER: genes 18 Torsion [C]-N--CA-[C] |==|  0.17994
USER: genes 19 Torsion [N]-CA--C-[O] |==|  0.77169
ROOT
ATOM      1  C   LEU G   4      39.397   5.727  22.077  1.00 61.38 LIG 0.24  C 
ATOM      2 O    LEU G   4      38.960   5.640  20.924  1.00 52.06 LIG-0.27  OA
ATOM      3  N   PHE G   5      40.087   4.786  22.698  1.00 60.80 LIG-0.35  N 
ATOM      4 H    PHE G   5      40.405   4.884  23.491  1.00 60.80 LIG 0.16  HD
ENDROOT
BRANCH 1 5
ATOM      5  CA  LEU G   4      39.139   6.941  22.920  1.00 58.56 LIG 0.18  C 
BRANCH 5 6
ATOM      6  CB  LEU G   4      38.400   6.486  24.175  1.00 61.47 LIG 0.04  C 
BRANCH 6 7
ATOM      7  CG  LEU G   4      37.224   7.360  24.552  1.00 62.80 LIG-0.02  C 
ATOM      8  CD1 LEU G   4      36.279   6.506  25.371  1.00 63.22 LIG 0.01  C 
ATOM      9  CD2 LEU G   4      37.745   8.569  25.330  1.00 64.86 LIG 0.01  C 
ENDBRANCH 6 7
ENDBRANCH 5 6
BRANCH 5 10
ATOM     10  N   LEU G   4      38.373   7.896  22.143  1.00 59.02 LIG-0.35  N 
ATOM     11 H    LEU G   4      37.521   7.850  22.250  1.00 59.02 LIG 0.16  HD
ATOM     12  C   ILE G   3      38.988   8.761  21.336  1.00 70.10 LIG 0.24  C 
ATOM     13 O    ILE G   3      40.225   8.946  21.375  1.00 64.55 LIG-0.27  OA
BRANCH 12 14
ATOM     14  CA  ILE G   3      38.084   9.536  20.341  1.00 67.83 LIG 0.18  C 
BRANCH 14 15
ATOM     15  CB  ILE G   3      37.877   8.724  19.023  1.00 66.94 LIG 0.01  C 
ATOM     16  CG2 ILE G   3      37.896   9.656  17.811  1.00 67.41 LIG 0.01  C 
BRANCH 15 17
ATOM     17  CG1 ILE G   3      38.938   7.601  18.852  1.00 59.79 LIG 0.00  C 
ATOM     18  CD1 ILE G   3      38.488   6.466  17.970  1.00 60.74 LIG 0.01  C 
ENDBRANCH 15 17
ENDBRANCH 14 15
BRANCH 14 19
ATOM     19  N   ILE G   3      38.662  10.841  20.061  1.00 79.60 LIG-0.34  N 
ATOM     20 H    ILE G   3      39.040  10.892  19.291  1.00 79.60 LIG 0.16  HD
ATOM     21  C   ASP G   2      38.610  11.865  20.917  1.00 93.07 LIG 0.26  C 
ATOM     22 O    ASP G   2      37.989  11.827  21.980  1.00 81.24 LIG-0.27  OA
BRANCH 21 23
ATOM     23  CA  ASP G   2      39.388  13.133  20.539  1.00 93.30 LIG 0.41  C 
ATOM     24  N   ASP G   2      40.294  12.808  19.401  1.00 94.60 LIG 0.61  N 
BRANCH 23 25
ATOM     25  CB  ASP G   2      38.456  14.294  20.160  1.00 96.36 LIG 0.16  C 
BRANCH 25 26
ATOM     26  CG  ASP G   2      37.710  14.042  18.867  1.00103.24 LIG 0.17  C 
ATOM     27 OD1  ASP G   2      38.042  13.074  18.154  1.00112.85 LIG-0.65  OA
ATOM     28 OD2  ASP G   2      36.782  14.806  18.561  1.00105.87 LIG-0.65  OA
ENDBRANCH 25 26
ENDBRANCH 23 25
ENDBRANCH 21 23
ENDBRANCH 14 19
ENDBRANCH 12 14
ENDBRANCH 5 10
ENDBRANCH 1 5
BRANCH 3 29
ATOM     29  CA  PHE G   5      40.379   3.507  22.115  1.00 70.05 LIG 0.18  C 
BRANCH 29 30
ATOM     30  CB  PHE G   5      41.735   3.541  21.381  1.00 73.20 LIG 0.07  C 
BRANCH 30 31
ATOM     31  CG  PHE G   5      41.626   4.083  19.963  1.00 79.36 LIG-0.06  A 
ATOM     32  CD1 PHE G   5      41.086   3.274  18.932  1.00 85.64 LIG 0.01  A 
ATOM     33  CE1 PHE G   5      40.963   3.750  17.633  1.00 88.71 LIG 0.00  A 
ATOM     34  CZ  PHE G   5      41.373   5.055  17.345  1.00 96.11 LIG 0.00  A 
ATOM     35  CE2 PHE G   5      41.895   5.876  18.357  1.00 91.53 LIG 0.00  A 
ATOM     36  CD2 PHE G   5      42.019   5.393  19.656  1.00 81.01 LIG 0.01  A 
ENDBRANCH 30 31
ENDBRANCH 29 30
BRANCH 29 37
ATOM     37  C   PHE G   5      40.315   2.504  23.261  1.00 74.26 LIG 0.24  C 
ATOM     38  N   PRO G   6      41.104   2.747  24.331  1.00 79.01 LIG-0.34  N 
ATOM     39  CD  PRO G   6      42.121   3.831  24.396  1.00 76.17 LIG 0.13  C 
ATOM     40  CA  PRO G   6      41.266   1.771  25.420  1.00 78.34 LIG 0.18  C 
ATOM     41  CG  PRO G   6      42.660   3.720  25.779  1.00 78.03 LIG 0.02  C 
ATOM     42  CB  PRO G   6      42.558   2.252  26.101  1.00 82.73 LIG 0.04  C 
ATOM     43 O    PHE G   5      39.636   1.476  23.139  1.00 61.78 LIG-0.27  OA
BRANCH 40 44
ATOM     44  C   PRO G   6      40.118   1.698  26.453  1.00 77.34 LIG 0.24  C 
ATOM     45 O    PRO G   6      39.209   0.907  26.271  1.00 92.50 LIG-0.27  OA
ATOM     46  N   ALA G   7      40.168   2.515  27.516  1.00 74.20 LIG-0.35  N 
ATOM     47 H    ALA G   7      40.896   2.871  27.804  1.00 74.20 LIG 0.16  HD
BRANCH 46 48
ATOM     48  CA  ALA G   7      38.962   2.888  28.303  1.00 71.75 LIG 0.16  C 
ATOM     49  CB  ALA G   7      37.911   3.531  27.398  1.00 70.01 LIG 0.04  C 
BRANCH 48 50
ATOM     50  C   ALA G   7      38.376   1.637  28.997  1.00 69.94 LIG 0.22  C 
ATOM     51 O    ALA G   7      37.623   0.853  28.364  1.00 56.97 LIG-0.29  OA
ENDBRANCH 48 50
ENDBRANCH 46 48
ENDBRANCH 40 44
ENDBRANCH 29 37
ENDBRANCH 3 29
TORSDOF 18
ENDMDL
MODEL 29
USER: ADFR SOLUTION from run 200
USER: SCORE 14.121203 LL:  -5.067 LR:  -9.640 RR:   0.000 FEB:  -4.270
USER: RMSD 4.531551
USER: SEED 199
USER: STATUS no improvement in best in 10 clusters for 5 generations
USER: GENES 20
USER: genes 0 Translation |==|  0.43724 0.49818 0.46594
USER: genes 1 Rotation |==|  0.49441 0.58867 0.50022 0.99204
USER: genes 2 Torsion [N]-C--CA-[N] |==|  0.36720
USER: genes 3 Torsion [C]-CA--CB-[CG] |==|  0.55236
USER: genes 4 Torsion [CA]-CB--CG-[CD1] |==|  0.46351
USER: genes 5 Torsion [C]-CA--N-[C] |==|  0.71794
USER: genes 6 Torsion [N]-C--CA-[N] |==|  0.86783
USER: genes 7 Torsion [C]-CA--CB-[CG1] |==|  0.53509
USER: genes 8 Torsion [CA]-CB--CG1-[CD1] |==|  0.55223
USER: genes 9 Torsion [C]-CA--N-[C] |==|  0.84993
USER: genes 10 Torsion [N]-C--CA-[N] |==|  0.90065
USER: genes 11 Torsion [C]-CA--CB-[CG] |==|  0.75509
USER: genes 12 Torsion [CA]-CB--CG-[OD1] |==|  0.64073
USER: genes 13 Torsion [C]-N--CA-[CB] |==|  0.17222
USER: genes 14 Torsion [N]-CA--CB-[CG] |==|  0.70405
USER: genes 15 Torsion [CA]-CB--CG-[CD1] |==|  0.89370
USER: genes 16 Torsion [N]-CA--C-[N] |==|  0.15407
USER: genes 17 Torsion [N]-CA--C-[O] |==|  0.38242
USER: genes 18 Torsion [C]-N--CA-[C] |==|  0.55717
USER: genes 19 Torsion [N]-CA--C-[O] |==|  0.74162
ROOT
ATOM      1  C   LEU G   4      38.923   6.131  22.124  1.00 61.38 LIG 0.24  C 
ATOM      2 O    LEU G   4      38.155   6.090  21.157  1.00 52.06 LIG-0.27  OA
ATOM      3  N   PHE G   5      39.928   5.297  22.328  1.00 60.80 LIG-0.35  N 
ATOM      4 H    PHE G   5      40.467   5.365  22.994  1.00 60.80 LIG 0.16  HD
ENDROOT
BRANCH 1 5
ATOM      5  CA  LEU G   4      38.754   7.148  23.213  1.00 58.56 LIG 0.18  C 
BRANCH 5 6
ATOM      6  CB  LEU G   4      37.534   6.746  24.037  1.00 61.47 LIG 0.04  C 
BRANCH 6 7
ATOM      7  CG  LEU G   4      36.956   7.866  24.875  1.00 62.80 LIG-0.02  C 
ATOM      8  CD1 LEU G   4      35.596   7.406  25.355  1.00 63.22 LIG 0.01  C 
ATOM      9  CD2 LEU G   4      37.917   8.158  26.027  1.00 64.86 LIG 0.01  C 
ENDBRANCH 6 7
ENDBRANCH 5 6
BRANCH 5 10
ATOM     10  N   LEU G   4      38.607   8.459  22.611  1.00 59.02 LIG-0.35  N 
ATOM     11 H    LEU G   4      37.826   8.625  22.292  1.00 59.02 LIG 0.16  HD
ATOM     12  C   ILE G   3      39.634   9.308  22.578  1.00 70.10 LIG 0.24  C 
ATOM     13 O    ILE G   3      40.677   9.119  23.242  1.00 64.55 LIG-0.27  OA
BRANCH 12 14
ATOM     14  CA  ILE G   3      39.467  10.554  21.668  1.00 67.83 LIG 0.18  C 
BRANCH 14 15
ATOM     15  CB  ILE G   3      38.517  11.604  22.325  1.00 66.94 LIG 0.01  C 
ATOM     16  CG2 ILE G   3      39.181  12.236  23.548  1.00 67.41 LIG 0.01  C 
BRANCH 15 17
ATOM     17  CG1 ILE G   3      38.079  12.708  21.323  1.00 59.79 LIG 0.00  C 
ATOM     18  CD1 ILE G   3      37.551  13.955  21.982  1.00 60.74 LIG 0.01  C 
ENDBRANCH 15 17
ENDBRANCH 14 15
BRANCH 14 19
ATOM     19  N   ILE G   3      38.970  10.149  20.362  1.00 79.60 LIG-0.34  N 
ATOM     20 H    ILE G   3      38.258  10.565  20.120  1.00 79.60 LIG 0.16  HD
ATOM     21  C   ASP G   2      39.563   9.219  19.607  1.00 93.07 LIG 0.26  C 
ATOM     22 O    ASP G   2      40.634   8.688  19.906  1.00 81.24 LIG-0.27  OA
BRANCH 21 23
ATOM     23  CA  ASP G   2      38.842   8.799  18.320  1.00 93.30 LIG 0.41  C 
ATOM     24  N   ASP G   2      37.373   8.815  18.575  1.00 94.60 LIG 0.61  N 
BRANCH 23 25
ATOM     25  CB  ASP G   2      39.183   9.719  17.137  1.00 96.36 LIG 0.16  C 
BRANCH 25 26
ATOM     26  CG  ASP G   2      38.264  10.917  17.049  1.00103.24 LIG 0.17  C 
ATOM     27 OD1  ASP G   2      37.712  11.179  15.962  1.00112.85 LIG-0.65  OA
ATOM     28 OD2  ASP G   2      38.084  11.601  18.068  1.00105.87 LIG-0.65  OA
ENDBRANCH 25 26
ENDBRANCH 23 25
ENDBRANCH 21 23
ENDBRANCH 14 19
ENDBRANCH 12 14
ENDBRANCH 5 10
ENDBRANCH 1 5
BRANCH 3 29
ATOM     29  CA  PHE G   5      40.225   4.193  21.460  1.00 70.05 LIG 0.18  C 
BRANCH 29 30
ATOM     30  CB  PHE G   5      40.577   4.694  20.043  1.00 73.20 LIG 0.07  C 
BRANCH 30 31
ATOM     31  CG  PHE G   5      39.470   4.434  19.033  1.00 79.36 LIG-0.06  A 
ATOM     32  CD1 PHE G   5      38.726   3.229  19.086  1.00 85.64 LIG 0.01  A 
ATOM     33  CE1 PHE G   5      37.701   2.974  18.184  1.00 88.71 LIG 0.00  A 
ATOM     34  CZ  PHE G   5      37.396   3.931  17.212  1.00 96.11 LIG 0.00  A 
ATOM     35  CE2 PHE G   5      38.112   5.138  17.154  1.00 91.53 LIG 0.00  A 
ATOM     36  CD2 PHE G   5      39.139   5.387  18.059  1.00 81.01 LIG 0.01  A 
ENDBRANCH 30 31
ENDBRANCH 29 30
BRANCH 29 37
ATOM     37  C   PHE G   5      41.346   3.416  22.142  1.00 74.26 LIG 0.24  C 
ATOM     38  N   PRO G   6      41.116   2.998  23.407  1.00 79.01 LIG-0.34  N 
ATOM     39  CD  PRO G   6      39.921   3.370  24.211  1.00 76.17 LIG 0.13  C 
ATOM     40  CA  PRO G   6      42.173   2.394  24.233  1.00 78.34 LIG 0.18  C 
ATOM     41  CG  PRO G   6      40.108   2.615  25.481  1.00 78.03 LIG 0.02  C 
ATOM     42  CB  PRO G   6      41.603   2.542  25.654  1.00 82.73 LIG 0.04  C 
ATOM     43 O    PHE G   5      42.434   3.280  21.570  1.00 61.78 LIG-0.27  OA
BRANCH 40 44
ATOM     44  C   PRO G   6      42.507   0.912  23.948  1.00 77.34 LIG 0.24  C 
ATOM     45 O    PRO G   6      43.674   0.563  23.924  1.00 92.50 LIG-0.27  OA
ATOM     46  N   ALA G   7      41.491   0.063  23.734  1.00 74.20 LIG-0.35  N 
ATOM     47 H    ALA G   7      40.687   0.210  24.004  1.00 74.20 LIG 0.16  HD
BRANCH 46 48
ATOM     48  CA  ALA G   7      41.656  -1.223  23.006  1.00 71.75 LIG 0.16  C 
ATOM     49  CB  ALA G   7      42.276  -2.279  23.920  1.00 70.01 LIG 0.04  C 
BRANCH 48 50
ATOM     50  C   ALA G   7      40.288  -1.712  22.478  1.00 69.94 LIG 0.22  C 
ATOM     51 O    ALA G   7      39.588  -2.502  23.161  1.00 56.97 LIG-0.29  OA
ENDBRANCH 48 50
ENDBRANCH 46 48
ENDBRANCH 40 44
ENDBRANCH 29 37
ENDBRANCH 3 29
TORSDOF 18
ENDMDL
MODEL 30
USER: ADFR SOLUTION from run 98
USER: SCORE 14.266108 LL:  -5.777 LR:  -9.642 RR:   0.000 FEB:  -4.273
USER: RMSD 3.676327
USER: SEED 97
USER: STATUS searching
USER: GENES 20
USER: genes 0 Translation |==|  0.44147 0.48956 0.59705
USER: genes 1 Rotation |==|  0.59480 0.36517 0.47175 0.97121
USER: genes 2 Torsion [N]-C--CA-[N] |==|  0.37246
USER: genes 3 Torsion [C]-CA--CB-[CG] |==|  0.38910
USER: genes 4 Torsion [CA]-CB--CG-[CD1] |==|  0.91256
USER: genes 5 Torsion [C]-CA--N-[C] |==|  0.80598
USER: genes 6 Torsion [N]-C--CA-[N] |==|  0.97690
USER: genes 7 Torsion [C]-CA--CB-[CG1] |==|  0.93740
USER: genes 8 Torsion [CA]-CB--CG1-[CD1] |==|  0.29580
USER: genes 9 Torsion [C]-CA--N-[C] |==|  0.76539
USER: genes 10 Torsion [N]-C--CA-[N] |==|  0.21716
USER: genes 11 Torsion [C]-CA--CB-[CG] |==|  0.68216
USER: genes 12 Torsion [CA]-CB--CG-[OD1] |==|  0.80543
USER: genes 13 Torsion [C]-N--CA-[CB] |==|  0.27201
USER: genes 14 Torsion [N]-CA--CB-[CG] |==|  0.84928
USER: genes 15 Torsion [CA]-CB--CG-[CD1] |==|  0.83216
USER: genes 16 Torsion [N]-CA--C-[N] |==|  0.37786
USER: genes 17 Torsion [N]-CA--C-[O] |==|  0.90621
USER: genes 18 Torsion [C]-N--CA-[C] |==|  0.80592
USER: genes 19 Torsion [N]-CA--C-[O] |==|  0.00691
ROOT
ATOM      1  C   LEU G   4      38.993   5.891  24.287  1.00 61.38 LIG 0.24  C 
ATOM      2 O    LEU G   4      39.291   6.341  23.175  1.00 52.06 LIG-0.27  OA
ATOM      3  N   PHE G   5      39.453   4.761  24.795  1.00 60.80 LIG-0.35  N 
ATOM      4 H    PHE G   5      39.253   4.485  25.584  1.00 60.80 LIG 0.16  HD
ENDROOT
BRANCH 1 5
ATOM      5  CA  LEU G   4      38.017   6.599  25.179  1.00 58.56 LIG 0.18  C 
BRANCH 5 6
ATOM      6  CB  LEU G   4      36.619   6.366  24.613  1.00 61.47 LIG 0.04  C 
BRANCH 6 7
ATOM      7  CG  LEU G   4      35.558   6.117  25.663  1.00 62.80 LIG-0.02  C 
ATOM      8  CD1 LEU G   4      36.235   5.416  26.822  1.00 63.22 LIG 0.01  C 
ATOM      9  CD2 LEU G   4      34.946   7.458  26.065  1.00 64.86 LIG 0.01  C 
ENDBRANCH 6 7
ENDBRANCH 5 6
BRANCH 5 10
ATOM     10  N   LEU G   4      38.364   8.006  25.231  1.00 59.02 LIG-0.35  N 
ATOM     11 H    LEU G   4      37.811   8.531  24.833  1.00 59.02 LIG 0.16  HD
ATOM     12  C   ILE G   3      39.469   8.407  25.860  1.00 70.10 LIG 0.24  C 
ATOM     13 O    ILE G   3      40.124   7.648  26.608  1.00 64.55 LIG-0.27  OA
BRANCH 12 14
ATOM     14  CA  ILE G   3      39.904   9.877  25.615  1.00 67.83 LIG 0.18  C 
BRANCH 14 15
ATOM     15  CB  ILE G   3      39.810  10.715  26.929  1.00 66.94 LIG 0.01  C 
ATOM     16  CG2 ILE G   3      39.404  12.156  26.618  1.00 67.41 LIG 0.01  C 
BRANCH 15 17
ATOM     17  CG1 ILE G   3      38.825  10.090  27.956  1.00 59.79 LIG 0.00  C 
ATOM     18  CD1 ILE G   3      39.503   9.431  29.128  1.00 60.74 LIG 0.01  C 
ENDBRANCH 15 17
ENDBRANCH 14 15
BRANCH 14 19
ATOM     19  N   ILE G   3      39.088  10.466  24.565  1.00 79.60 LIG-0.34  N 
ATOM     20 H    ILE G   3      38.416  10.913  24.861  1.00 79.60 LIG 0.16  HD
ATOM     21  C   ASP G   2      39.355  10.326  23.263  1.00 93.07 LIG 0.26  C 
ATOM     22 O    ASP G   2      40.366   9.766  22.836  1.00 81.24 LIG-0.27  OA
BRANCH 21 23
ATOM     23  CA  ASP G   2      38.323  10.885  22.274  1.00 93.30 LIG 0.41  C 
ATOM     24  N   ASP G   2      38.498  12.363  22.196  1.00 94.60 LIG 0.61  N 
BRANCH 23 25
ATOM     25  CB  ASP G   2      38.461  10.261  20.878  1.00 96.36 LIG 0.16  C 
BRANCH 25 26
ATOM     26  CG  ASP G   2      38.888  11.266  19.831  1.00103.24 LIG 0.17  C 
ATOM     27 OD1  ASP G   2      38.084  12.151  19.477  1.00112.85 LIG-0.65  OA
ATOM     28 OD2  ASP G   2      40.032  11.181  19.360  1.00105.87 LIG-0.65  OA
ENDBRANCH 25 26
ENDBRANCH 23 25
ENDBRANCH 21 23
ENDBRANCH 14 19
ENDBRANCH 12 14
ENDBRANCH 5 10
ENDBRANCH 1 5
BRANCH 3 29
ATOM     29  CA  PHE G   5      40.333   3.878  24.084  1.00 70.05 LIG 0.18  C 
BRANCH 29 30
ATOM     30  CB  PHE G   5      41.799   4.118  24.502  1.00 73.20 LIG 0.07  C 
BRANCH 30 31
ATOM     31  CG  PHE G   5      42.226   5.570  24.353  1.00 79.36 LIG-0.06  A 
ATOM     32  CD1 PHE G   5      42.191   6.195  23.081  1.00 85.64 LIG 0.01  A 
ATOM     33  CE1 PHE G   5      42.562   7.524  22.921  1.00 88.71 LIG 0.00  A 
ATOM     34  CZ  PHE G   5      42.970   8.256  24.039  1.00 96.11 LIG 0.00  A 
ATOM     35  CE2 PHE G   5      42.995   7.659  25.309  1.00 91.53 LIG 0.00  A 
ATOM     36  CD2 PHE G   5      42.625   6.326  25.464  1.00 81.01 LIG 0.01  A 
ENDBRANCH 30 31
ENDBRANCH 29 30
BRANCH 29 37
ATOM     37  C   PHE G   5      39.827   2.468  24.367  1.00 74.26 LIG 0.24  C 
ATOM     38  N   PRO G   6      39.762   1.620  23.316  1.00 79.01 LIG-0.34  N 
ATOM     39  CD  PRO G   6      40.005   2.014  21.902  1.00 76.17 LIG 0.13  C 
ATOM     40  CA  PRO G   6      39.131   0.295  23.421  1.00 78.34 LIG 0.18  C 
ATOM     41  CG  PRO G   6      39.878   0.731  21.157  1.00 78.03 LIG 0.02  C 
ATOM     42  CB  PRO G   6      38.868  -0.059  21.947  1.00 82.73 LIG 0.04  C 
ATOM     43 O    PHE G   5      39.413   2.180  25.497  1.00 61.78 LIG-0.27  OA
BRANCH 40 44
ATOM     44  C   PRO G   6      39.971  -0.815  24.090  1.00 77.34 LIG 0.24  C 
ATOM     45 O    PRO G   6      41.181  -0.814  23.939  1.00 92.50 LIG-0.27  OA
ATOM     46  N   ALA G   7      39.332  -1.745  24.815  1.00 74.20 LIG-0.35  N 
ATOM     47 H    ALA G   7      38.551  -1.625  25.154  1.00 74.20 LIG 0.16  HD
BRANCH 46 48
ATOM     48  CA  ALA G   7      39.914  -3.083  25.104  1.00 71.75 LIG 0.16  C 
ATOM     49  CB  ALA G   7      39.097  -3.802  26.177  1.00 70.01 LIG 0.04  C 
BRANCH 48 50
ATOM     50  C   ALA G   7      39.962  -3.930  23.812  1.00 69.94 LIG 0.22  C 
ATOM     51 O    ALA G   7      39.584  -3.440  22.717  1.00 56.97 LIG-0.29  OA
ENDBRANCH 48 50
ENDBRANCH 46 48
ENDBRANCH 40 44
ENDBRANCH 29 37
ENDBRANCH 3 29
TORSDOF 18
ENDMDL
MODEL 31
USER: ADFR SOLUTION from run 138
USER: SCORE 14.536787 LL:  -5.622 LR:  -9.620 RR:   0.000 FEB:  -4.251
USER: RMSD 5.226375
USER: SEED 137
USER: STATUS searching
USER: GENES 20
USER: genes 0 Translation |==|  0.44980 0.51184 0.60110
USER: genes 1 Rotation |==|  0.41574 0.35949 0.55411 0.96928
USER: genes 2 Torsion [N]-C--CA-[N] |==|  0.39651
USER: genes 3 Torsion [C]-CA--CB-[CG] |==|  0.31502
USER: genes 4 Torsion [CA]-CB--CG-[CD1] |==|  0.62828
USER: genes 5 Torsion [C]-CA--N-[C] |==|  0.76170
USER: genes 6 Torsion [N]-C--CA-[N] |==|  0.93290
USER: genes 7 Torsion [C]-CA--CB-[CG1] |==|  0.51131
USER: genes 8 Torsion [CA]-CB--CG1-[CD1] |==|  0.52493
USER: genes 9 Torsion [C]-CA--N-[C] |==|  0.79776
USER: genes 10 Torsion [N]-C--CA-[N] |==|  0.82333
USER: genes 11 Torsion [C]-CA--CB-[CG] |==|  0.80298
USER: genes 12 Torsion [CA]-CB--CG-[OD1] |==|  0.92310
USER: genes 13 Torsion [C]-N--CA-[CB] |==|  0.53381
USER: genes 14 Torsion [N]-CA--CB-[CG] |==|  0.22639
USER: genes 15 Torsion [CA]-CB--CG-[CD1] |==|  0.80517
USER: genes 16 Torsion [N]-CA--C-[N] |==|  0.29933
USER: genes 17 Torsion [N]-CA--C-[O] |==|  0.59356
USER: genes 18 Torsion [C]-N--CA-[C] |==|  0.88422
USER: genes 19 Torsion [N]-CA--C-[O] |==|  0.41640
ROOT
ATOM      1  C   LEU G   4      39.131   6.510  24.354  1.00 61.38 LIG 0.24  C 
ATOM      2 O    LEU G   4      39.482   6.081  23.249  1.00 52.06 LIG-0.27  OA
ATOM      3  N   PHE G   5      39.642   6.128  25.511  1.00 60.80 LIG-0.35  N 
ATOM      4 H    PHE G   5      39.400   6.464  26.265  1.00 60.80 LIG 0.16  HD
ENDROOT
BRANCH 1 5
ATOM      5  CA  LEU G   4      38.024   7.514  24.486  1.00 58.56 LIG 0.18  C 
BRANCH 5 6
ATOM      6  CB  LEU G   4      36.702   6.752  24.468  1.00 61.47 LIG 0.04  C 
BRANCH 6 7
ATOM      7  CG  LEU G   4      35.940   6.803  25.774  1.00 62.80 LIG-0.02  C 
ATOM      8  CD1 LEU G   4      35.483   5.392  26.079  1.00 63.22 LIG 0.01  C 
ATOM      9  CD2 LEU G   4      36.862   7.367  26.855  1.00 64.86 LIG 0.01  C 
ENDBRANCH 6 7
ENDBRANCH 5 6
BRANCH 5 10
ATOM     10  N   LEU G   4      38.126   8.468  23.398  1.00 59.02 LIG-0.35  N 
ATOM     11 H    LEU G   4      37.646   8.285  22.709  1.00 59.02 LIG 0.16  HD
ATOM     12  C   ILE G   3      38.919   9.534  23.506  1.00 70.10 LIG 0.24  C 
ATOM     13 O    ILE G   3      39.425   9.883  24.596  1.00 64.55 LIG-0.27  OA
BRANCH 12 14
ATOM     14  CA  ILE G   3      39.182  10.330  22.199  1.00 67.83 LIG 0.18  C 
BRANCH 14 15
ATOM     15  CB  ILE G   3      38.260  11.587  22.113  1.00 66.94 LIG 0.01  C 
ATOM     16  CG2 ILE G   3      38.526  12.527  23.289  1.00 67.41 LIG 0.01  C 
BRANCH 15 17
ATOM     17  CG1 ILE G   3      38.428  12.348  20.769  1.00 59.79 LIG 0.00  C 
ATOM     18  CD1 ILE G   3      37.721  13.677  20.728  1.00 60.74 LIG 0.01  C 
ENDBRANCH 15 17
ENDBRANCH 14 15
BRANCH 14 19
ATOM     19  N   ILE G   3      38.989   9.464  21.046  1.00 79.60 LIG-0.34  N 
ATOM     20 H    ILE G   3      38.271   9.633  20.605  1.00 79.60 LIG 0.16  HD
ATOM     21  C   ASP G   2      39.845   8.497  20.703  1.00 93.07 LIG 0.26  C 
ATOM     22 O    ASP G   2      40.921   8.312  21.275  1.00 81.24 LIG-0.27  OA
BRANCH 21 23
ATOM     23  CA  ASP G   2      39.434   7.577  19.547  1.00 93.30 LIG 0.41  C 
ATOM     24  N   ASP G   2      38.211   6.826  19.954  1.00 94.60 LIG 0.61  N 
BRANCH 23 25
ATOM     25  CB  ASP G   2      39.169   8.356  18.250  1.00 96.36 LIG 0.16  C 
BRANCH 25 26
ATOM     26  CG  ASP G   2      37.902   9.180  18.315  1.00103.24 LIG 0.17  C 
ATOM     27 OD1  ASP G   2      36.973   8.806  19.059  1.00112.85 LIG-0.65  OA
ATOM     28 OD2  ASP G   2      37.829  10.209  17.627  1.00105.87 LIG-0.65  OA
ENDBRANCH 25 26
ENDBRANCH 23 25
ENDBRANCH 21 23
ENDBRANCH 14 19
ENDBRANCH 12 14
ENDBRANCH 5 10
ENDBRANCH 1 5
BRANCH 3 29
ATOM     29  CA  PHE G   5      40.652   5.116  25.632  1.00 70.05 LIG 0.18  C 
BRANCH 29 30
ATOM     30  CB  PHE G   5      40.819   4.686  27.104  1.00 73.20 LIG 0.07  C 
BRANCH 30 31
ATOM     31  CG  PHE G   5      39.774   3.674  27.547  1.00 79.36 LIG-0.06  A 
ATOM     32  CD1 PHE G   5      38.422   4.069  27.703  1.00 85.64 LIG 0.01  A 
ATOM     33  CE1 PHE G   5      37.446   3.161  28.092  1.00 88.71 LIG 0.00  A 
ATOM     34  CZ  PHE G   5      37.807   1.831  28.324  1.00 96.11 LIG 0.00  A 
ATOM     35  CE2 PHE G   5      39.138   1.417  28.158  1.00 91.53 LIG 0.00  A 
ATOM     36  CD2 PHE G   5      40.113   2.332  27.771  1.00 81.01 LIG 0.01  A 
ENDBRANCH 30 31
ENDBRANCH 29 30
BRANCH 29 37
ATOM     37  C   PHE G   5      40.227   3.989  24.698  1.00 74.26 LIG 0.24  C 
ATOM     38  N   PRO G   6      40.945   3.832  23.563  1.00 79.01 LIG-0.34  N 
ATOM     39  CD  PRO G   6      42.009   4.767  23.106  1.00 76.17 LIG 0.13  C 
ATOM     40  CA  PRO G   6      40.533   2.901  22.501  1.00 78.34 LIG 0.18  C 
ATOM     41  CG  PRO G   6      42.524   4.126  21.865  1.00 78.03 LIG 0.02  C 
ATOM     42  CB  PRO G   6      41.329   3.415  21.289  1.00 82.73 LIG 0.04  C 
ATOM     43 O    PHE G   5      39.209   3.333  24.952  1.00 61.78 LIG-0.27  OA
BRANCH 40 44
ATOM     44  C   PRO G   6      40.841   1.405  22.741  1.00 77.34 LIG 0.24  C 
ATOM     45 O    PRO G   6      41.120   0.699  21.788  1.00 92.50 LIG-0.27  OA
ATOM     46  N   ALA G   7      40.787   0.940  23.998  1.00 74.20 LIG-0.35  N 
ATOM     47 H    ALA G   7      40.862   1.443  24.692  1.00 74.20 LIG 0.16  HD
BRANCH 46 48
ATOM     48  CA  ALA G   7      40.591  -0.500  24.317  1.00 71.75 LIG 0.16  C 
ATOM     49  CB  ALA G   7      40.171  -0.671  25.777  1.00 70.01 LIG 0.04  C 
BRANCH 48 50
ATOM     50  C   ALA G   7      39.525  -1.109  23.379  1.00 69.94 LIG 0.22  C 
ATOM     51 O    ALA G   7      39.580  -2.324  23.058  1.00 56.97 LIG-0.29  OA
ENDBRANCH 48 50
ENDBRANCH 46 48
ENDBRANCH 40 44
ENDBRANCH 29 37
ENDBRANCH 3 29
TORSDOF 18
ENDMDL
MODEL 32
USER: ADFR SOLUTION from run 190
USER: SCORE 13.946508 LL:  -5.424 LR:  -9.598 RR:   0.000 FEB:  -4.229
USER: RMSD 4.022875
USER: SEED 189
USER: STATUS no improvement in best in 16 clusters for 5 generations
USER: GENES 20
USER: genes 0 Translation |==|  0.44867 0.51042 0.50816
USER: genes 1 Rotation |==|  0.40880 0.58951 0.44590 0.98036
USER: genes 2 Torsion [N]-C--CA-[N] |==|  0.45250
USER: genes 3 Torsion [C]-CA--CB-[CG] |==|  0.89186
USER: genes 4 Torsion [CA]-CB--CG-[CD1] |==|  0.36488
USER: genes 5 Torsion [C]-CA--N-[C] |==|  0.80645
USER: genes 6 Torsion [N]-C--CA-[N] |==|  0.34180
USER: genes 7 Torsion [C]-CA--CB-[CG1] |==|  0.99116
USER: genes 8 Torsion [CA]-CB--CG1-[CD1] |==|  0.61729
USER: genes 9 Torsion [C]-CA--N-[C] |==|  0.77222
USER: genes 10 Torsion [N]-C--CA-[N] |==|  0.97009
USER: genes 11 Torsion [C]-CA--CB-[CG] |==|  0.82496
USER: genes 12 Torsion [CA]-CB--CG-[OD1] |==|  0.91693
USER: genes 13 Torsion [C]-N--CA-[CB] |==|  0.21628
USER: genes 14 Torsion [N]-CA--CB-[CG] |==|  0.69165
USER: genes 15 Torsion [CA]-CB--CG-[CD1] |==|  0.76813
USER: genes 16 Torsion [N]-CA--C-[N] |==|  0.43436
USER: genes 17 Torsion [N]-CA--C-[O] |==|  0.38829
USER: genes 18 Torsion [C]-N--CA-[C] |==|  0.75217
USER: genes 19 Torsion [N]-CA--C-[O] |==|  0.04038
ROOT
ATOM      1  C   LEU G   4      39.112   6.470  22.821  1.00 61.38 LIG 0.24  C 
ATOM      2 O    LEU G   4      38.310   6.194  21.922  1.00 52.06 LIG-0.27  OA
ATOM      3  N   PHE G   5      39.989   5.627  23.338  1.00 60.80 LIG-0.35  N 
ATOM      4 H    PHE G   5      40.557   5.853  23.943  1.00 60.80 LIG 0.16  HD
ENDROOT
BRANCH 1 5
ATOM      5  CA  LEU G   4      39.137   7.830  23.454  1.00 58.56 LIG 0.18  C 
BRANCH 5 6
ATOM      6  CB  LEU G   4      38.462   7.718  24.818  1.00 61.47 LIG 0.04  C 
BRANCH 6 7
ATOM      7  CG  LEU G   4      37.253   6.809  24.839  1.00 62.80 LIG-0.02  C 
ATOM      8  CD1 LEU G   4      37.415   5.879  26.023  1.00 63.22 LIG 0.01  C 
ATOM      9  CD2 LEU G   4      35.996   7.673  24.941  1.00 64.86 LIG 0.01  C 
ENDBRANCH 6 7
ENDBRANCH 5 6
BRANCH 5 10
ATOM     10  N   LEU G   4      38.459   8.766  22.579  1.00 59.02 LIG-0.35  N 
ATOM     11 H    LEU G   4      37.704   9.055  22.872  1.00 59.02 LIG 0.16  HD
ATOM     12  C   ILE G   3      39.006   9.123  21.416  1.00 70.10 LIG 0.24  C 
ATOM     13 O    ILE G   3      40.194   8.858  21.129  1.00 64.55 LIG-0.27  OA
BRANCH 12 14
ATOM     14  CA  ILE G   3      38.086   9.891  20.431  1.00 67.83 LIG 0.18  C 
BRANCH 14 15
ATOM     15  CB  ILE G   3      37.807   9.045  19.148  1.00 66.94 LIG 0.01  C 
ATOM     16  CG2 ILE G   3      38.153   9.846  17.893  1.00 67.41 LIG 0.01  C 
BRANCH 15 17
ATOM     17  CG1 ILE G   3      38.581   7.697  19.154  1.00 59.79 LIG 0.00  C 
ATOM     18  CD1 ILE G   3      39.194   7.341  17.826  1.00 60.74 LIG 0.01  C 
ENDBRANCH 15 17
ENDBRANCH 14 15
BRANCH 14 19
ATOM     19  N   ILE G   3      38.688  11.171  20.088  1.00 79.60 LIG-0.34  N 
ATOM     20 H    ILE G   3      39.110  11.163  19.339  1.00 79.60 LIG 0.16  HD
ATOM     21  C   ASP G   2      38.593  12.256  20.860  1.00 93.07 LIG 0.26  C 
ATOM     22 O    ASP G   2      37.911  12.300  21.886  1.00 81.24 LIG-0.27  OA
BRANCH 21 23
ATOM     23  CA  ASP G   2      39.400  13.490  20.435  1.00 93.30 LIG 0.41  C 
ATOM     24  N   ASP G   2      40.337  13.089  19.347  1.00 94.60 LIG 0.61  N 
BRANCH 23 25
ATOM     25  CB  ASP G   2      38.496  14.638  19.958  1.00 96.36 LIG 0.16  C 
BRANCH 25 26
ATOM     26  CG  ASP G   2      37.699  14.276  18.724  1.00103.24 LIG 0.17  C 
ATOM     27 OD1  ASP G   2      38.176  13.459  17.912  1.00112.85 LIG-0.65  OA
ATOM     28 OD2  ASP G   2      36.587  14.803  18.563  1.00105.87 LIG-0.65  OA
ENDBRANCH 25 26
ENDBRANCH 23 25
ENDBRANCH 21 23
ENDBRANCH 14 19
ENDBRANCH 12 14
ENDBRANCH 5 10
ENDBRANCH 1 5
BRANCH 3 29
ATOM     29  CA  PHE G   5      40.087   4.251  22.944  1.00 70.05 LIG 0.18  C 
BRANCH 29 30
ATOM     30  CB  PHE G   5      40.825   4.121  21.596  1.00 73.20 LIG 0.07  C 
BRANCH 30 31
ATOM     31  CG  PHE G   5      39.914   3.673  20.463  1.00 79.36 LIG-0.06  A 
ATOM     32  CD1 PHE G   5      39.638   2.295  20.274  1.00 85.64 LIG 0.01  A 
ATOM     33  CE1 PHE G   5      38.798   1.862  19.257  1.00 88.71 LIG 0.00  A 
ATOM     34  CZ  PHE G   5      38.210   2.806  18.410  1.00 96.11 LIG 0.00  A 
ATOM     35  CE2 PHE G   5      38.459   4.176  18.592  1.00 91.53 LIG 0.00  A 
ATOM     36  CD2 PHE G   5      39.303   4.605  19.612  1.00 81.01 LIG 0.01  A 
ENDBRANCH 30 31
ENDBRANCH 29 30
BRANCH 29 37
ATOM     37  C   PHE G   5      40.772   3.534  24.101  1.00 74.26 LIG 0.24  C 
ATOM     38  N   PRO G   6      40.553   2.204  24.213  1.00 79.01 LIG-0.34  N 
ATOM     39  CD  PRO G   6      39.584   1.441  23.381  1.00 76.17 LIG 0.13  C 
ATOM     40  CA  PRO G   6      41.011   1.433  25.378  1.00 78.34 LIG 0.18  C 
ATOM     41  CG  PRO G   6      39.764   0.036  23.840  1.00 78.03 LIG 0.02  C 
ATOM     42  CB  PRO G   6      40.144   0.164  25.292  1.00 82.73 LIG 0.04  C 
ATOM     43 O    PHE G   5      41.411   4.187  24.935  1.00 61.78 LIG-0.27  OA
BRANCH 40 44
ATOM     44  C   PRO G   6      42.508   1.050  25.403  1.00 77.34 LIG 0.24  C 
ATOM     45 O    PRO G   6      43.117   1.113  26.458  1.00 92.50 LIG-0.27  OA
ATOM     46  N   ALA G   7      43.084   0.663  24.255  1.00 74.20 LIG-0.35  N 
ATOM     47 H    ALA G   7      42.641   0.357  23.584  1.00 74.20 LIG 0.16  HD
BRANCH 46 48
ATOM     48  CA  ALA G   7      44.553   0.727  24.029  1.00 71.75 LIG 0.16  C 
ATOM     49  CB  ALA G   7      44.997  -0.392  23.087  1.00 70.01 LIG 0.04  C 
BRANCH 48 50
ATOM     50  C   ALA G   7      44.939   2.104  23.444  1.00 69.94 LIG 0.22  C 
ATOM     51 O    ALA G   7      44.125   3.061  23.480  1.00 56.97 LIG-0.29  OA
ENDBRANCH 48 50
ENDBRANCH 46 48
ENDBRANCH 40 44
ENDBRANCH 29 37
ENDBRANCH 3 29
TORSDOF 18
ENDMDL
MODEL 33
USER: ADFR SOLUTION from run 100
USER: SCORE 13.462379 LL:  -5.235 LR:  -9.585 RR:   0.000 FEB:  -4.216
USER: RMSD 3.870587
USER: SEED 99
USER: STATUS no improvement in best in 13 clusters for 5 generations
USER: GENES 20
USER: genes 0 Translation |==|  0.42099 0.50248 0.47562
USER: genes 1 Rotation |==|  0.52877 0.60436 0.50929 0.98805
USER: genes 2 Torsion [N]-C--CA-[N] |==|  0.39022
USER: genes 3 Torsion [C]-CA--CB-[CG] |==|  0.61670
USER: genes 4 Torsion [CA]-CB--CG-[CD1] |==|  0.46282
USER: genes 5 Torsion [C]-CA--N-[C] |==|  0.79766
USER: genes 6 Torsion [N]-C--CA-[N] |==|  0.31421
USER: genes 7 Torsion [C]-CA--CB-[CG1] |==|  0.08414
USER: genes 8 Torsion [CA]-CB--CG1-[CD1] |==|  0.27952
USER: genes 9 Torsion [C]-CA--N-[C] |==|  0.62778
USER: genes 10 Torsion [N]-C--CA-[N] |==|  0.54104
USER: genes 11 Torsion [C]-CA--CB-[CG] |==|  0.79167
USER: genes 12 Torsion [CA]-CB--CG-[OD1] |==|  0.84278
USER: genes 13 Torsion [C]-N--CA-[CB] |==|  0.18776
USER: genes 14 Torsion [N]-CA--CB-[CG] |==|  0.66979
USER: genes 15 Torsion [CA]-CB--CG-[CD1] |==|  0.45288
USER: genes 16 Torsion [N]-CA--C-[N] |==|  0.37950
USER: genes 17 Torsion [N]-CA--C-[O] |==|  0.70677
USER: genes 18 Torsion [C]-N--CA-[C] |==|  0.80133
USER: genes 19 Torsion [N]-CA--C-[O] |==|  0.96165
ROOT
ATOM      1  C   LEU G   4      38.655   6.250  22.284  1.00 61.38 LIG 0.24  C 
ATOM      2 O    LEU G   4      37.825   6.334  21.372  1.00 52.06 LIG-0.27  OA
ATOM      3  N   PHE G   5      39.676   5.411  22.303  1.00 60.80 LIG-0.35  N 
ATOM      4 H    PHE G   5      40.257   5.393  22.936  1.00 60.80 LIG 0.16  HD
ENDROOT
BRANCH 1 5
ATOM      5  CA  LEU G   4      38.552   7.101  23.515  1.00 58.56 LIG 0.18  C 
BRANCH 5 6
ATOM      6  CB  LEU G   4      37.534   6.449  24.445  1.00 61.47 LIG 0.04  C 
BRANCH 6 7
ATOM      7  CG  LEU G   4      36.588   7.424  25.112  1.00 62.80 LIG-0.02  C 
ATOM      8  CD1 LEU G   4      35.462   6.611  25.715  1.00 63.22 LIG 0.01  C 
ATOM      9  CD2 LEU G   4      37.366   8.217  26.161  1.00 64.86 LIG 0.01  C 
ENDBRANCH 6 7
ENDBRANCH 5 6
BRANCH 5 10
ATOM     10  N   LEU G   4      38.163   8.442  23.125  1.00 59.02 LIG-0.35  N 
ATOM     11 H    LEU G   4      37.352   8.655  23.317  1.00 59.02 LIG 0.16  HD
ATOM     12  C   ILE G   3      39.033   9.249  22.515  1.00 70.10 LIG 0.24  C 
ATOM     13 O    ILE G   3      40.254   8.987  22.453  1.00 64.55 LIG-0.27  OA
BRANCH 12 14
ATOM     14  CA  ILE G   3      38.447  10.540  21.884  1.00 67.83 LIG 0.18  C 
BRANCH 14 15
ATOM     15  CB  ILE G   3      38.796  10.630  20.365  1.00 66.94 LIG 0.01  C 
ATOM     16  CG2 ILE G   3      40.082  11.430  20.158  1.00 67.41 LIG 0.01  C 
BRANCH 15 17
ATOM     17  CG1 ILE G   3      38.925   9.227  19.708  1.00 59.79 LIG 0.00  C 
ATOM     18  CD1 ILE G   3      37.709   8.806  18.925  1.00 60.74 LIG 0.01  C 
ENDBRANCH 15 17
ENDBRANCH 14 15
BRANCH 14 19
ATOM     19  N   ILE G   3      38.940  11.707  22.599  1.00 79.60 LIG-0.34  N 
ATOM     20 H    ILE G   3      39.786  11.687  22.750  1.00 79.60 LIG 0.16  HD
ATOM     21  C   ASP G   2      38.154  12.716  22.986  1.00 93.07 LIG 0.26  C 
ATOM     22 O    ASP G   2      36.960  12.795  22.692  1.00 81.24 LIG-0.27  OA
BRANCH 21 23
ATOM     23  CA  ASP G   2      38.794  13.808  23.854  1.00 93.30 LIG 0.41  C 
ATOM     24  N   ASP G   2      37.705  14.622  24.467  1.00 94.60 LIG 0.61  N 
BRANCH 23 25
ATOM     25  CB  ASP G   2      39.698  13.223  24.950  1.00 96.36 LIG 0.16  C 
BRANCH 25 26
ATOM     26  CG  ASP G   2      38.911  12.615  26.090  1.00103.24 LIG 0.17  C 
ATOM     27 OD1  ASP G   2      38.084  13.321  26.700  1.00112.85 LIG-0.65  OA
ATOM     28 OD2  ASP G   2      39.110  11.425  26.379  1.00105.87 LIG-0.65  OA
ENDBRANCH 25 26
ENDBRANCH 23 25
ENDBRANCH 21 23
ENDBRANCH 14 19
ENDBRANCH 12 14
ENDBRANCH 5 10
ENDBRANCH 1 5
BRANCH 3 29
ATOM     29  CA  PHE G   5      39.923   4.445  21.270  1.00 70.05 LIG 0.18  C 
BRANCH 29 30
ATOM     30  CB  PHE G   5      40.314   5.145  19.952  1.00 73.20 LIG 0.07  C 
BRANCH 30 31
ATOM     31  CG  PHE G   5      39.341   4.858  18.818  1.00 79.36 LIG-0.06  A 
ATOM     32  CD1 PHE G   5      39.332   5.680  17.664  1.00 85.64 LIG 0.01  A 
ATOM     33  CE1 PHE G   5      38.464   5.431  16.609  1.00 88.71 LIG 0.00  A 
ATOM     34  CZ  PHE G   5      37.590   4.342  16.689  1.00 96.11 LIG 0.00  A 
ATOM     35  CE2 PHE G   5      37.597   3.507  17.817  1.00 91.53 LIG 0.00  A 
ATOM     36  CD2 PHE G   5      38.467   3.763  18.873  1.00 81.01 LIG 0.01  A 
ENDBRANCH 30 31
ENDBRANCH 29 30
BRANCH 29 37
ATOM     37  C   PHE G   5      40.993   3.510  21.821  1.00 74.26 LIG 0.24  C 
ATOM     38  N   PRO G   6      40.814   2.186  21.612  1.00 79.01 LIG-0.34  N 
ATOM     39  CD  PRO G   6      39.586   1.587  21.022  1.00 76.17 LIG 0.13  C 
ATOM     40  CA  PRO G   6      41.677   1.173  22.239  1.00 78.34 LIG 0.18  C 
ATOM     41  CG  PRO G   6      39.909   0.136  20.947  1.00 78.03 LIG 0.02  C 
ATOM     42  CB  PRO G   6      40.825  -0.102  22.118  1.00 82.73 LIG 0.04  C 
ATOM     43 O    PHE G   5      41.916   3.969  22.505  1.00 61.78 LIG-0.27  OA
BRANCH 40 44
ATOM     44  C   PRO G   6      43.060   0.950  21.587  1.00 77.34 LIG 0.24  C 
ATOM     45 O    PRO G   6      43.246  -0.055  20.924  1.00 92.50 LIG-0.27  OA
ATOM     46  N   ALA G   7      44.009   1.878  21.780  1.00 74.20 LIG-0.35  N 
ATOM     47 H    ALA G   7      43.837   2.692  21.999  1.00 74.20 LIG 0.16  HD
BRANCH 46 48
ATOM     48  CA  ALA G   7      45.461   1.589  21.632  1.00 71.75 LIG 0.16  C 
ATOM     49  CB  ALA G   7      46.263   2.890  21.585  1.00 70.01 LIG 0.04  C 
BRANCH 48 50
ATOM     50  C   ALA G   7      45.947   0.705  22.803  1.00 69.94 LIG 0.22  C 
ATOM     51 O    ALA G   7      45.229   0.552  23.824  1.00 56.97 LIG-0.29  OA
ENDBRANCH 48 50
ENDBRANCH 46 48
ENDBRANCH 40 44
ENDBRANCH 29 37
ENDBRANCH 3 29
TORSDOF 18
ENDMDL
MODEL 34
USER: ADFR SOLUTION from run 142
USER: SCORE 14.345588 LL:  -5.638 LR:  -9.584 RR:   0.000 FEB:  -4.215
USER: RMSD 3.453169
USER: SEED 141
USER: STATUS no improvement in best in 14 clusters for 5 generations
USER: GENES 20
USER: genes 0 Translation |==|  0.44604 0.49638 0.56058
USER: genes 1 Rotation |==|  0.41576 0.49363 0.43160 0.98804
USER: genes 2 Torsion [N]-C--CA-[N] |==|  0.47778
USER: genes 3 Torsion [C]-CA--CB-[CG] |==|  0.82017
USER: genes 4 Torsion [CA]-CB--CG-[CD1] |==|  0.39264
USER: genes 5 Torsion [C]-CA--N-[C] |==|  0.78711
USER: genes 6 Torsion [N]-C--CA-[N] |==|  0.34556
USER: genes 7 Torsion [C]-CA--CB-[CG1] |==|  0.45055
USER: genes 8 Torsion [CA]-CB--CG1-[CD1] |==|  0.26347
USER: genes 9 Torsion [C]-CA--N-[C] |==|  0.77062
USER: genes 10 Torsion [N]-C--CA-[N] |==|  0.97897
USER: genes 11 Torsion [C]-CA--CB-[CG] |==|  0.83081
USER: genes 12 Torsion [CA]-CB--CG-[OD1] |==|  0.95805
USER: genes 13 Torsion [C]-N--CA-[CB] |==|  0.18758
USER: genes 14 Torsion [N]-CA--CB-[CG] |==|  0.05844
USER: genes 15 Torsion [CA]-CB--CG-[CD1] |==|  0.16820
USER: genes 16 Torsion [N]-CA--C-[N] |==|  0.19100
USER: genes 17 Torsion [N]-CA--C-[O] |==|  0.41501
USER: genes 18 Torsion [C]-N--CA-[C] |==|  0.66620
USER: genes 19 Torsion [N]-CA--C-[O] |==|  0.98992
ROOT
ATOM      1  C   LEU G   4      39.069   6.081  23.686  1.00 61.38 LIG 0.24  C 
ATOM      2 O    LEU G   4      38.671   5.776  22.556  1.00 52.06 LIG-0.27  OA
ATOM      3  N   PHE G   5      39.691   5.261  24.515  1.00 60.80 LIG-0.35  N 
ATOM      4 H    PHE G   5      39.984   5.507  25.285  1.00 60.80 LIG 0.16  HD
ENDROOT
BRANCH 1 5
ATOM      5  CA  LEU G   4      38.838   7.450  24.251  1.00 58.56 LIG 0.18  C 
BRANCH 5 6
ATOM      6  CB  LEU G   4      37.861   7.313  25.416  1.00 61.47 LIG 0.04  C 
BRANCH 6 7
ATOM      7  CG  LEU G   4      36.482   6.837  25.016  1.00 62.80 LIG-0.02  C 
ATOM      8  CD1 LEU G   4      36.007   5.888  26.095  1.00 63.22 LIG 0.01  C 
ATOM      9  CD2 LEU G   4      35.572   8.056  24.865  1.00 64.86 LIG 0.01  C 
ENDBRANCH 6 7
ENDBRANCH 5 6
BRANCH 5 10
ATOM     10  N   LEU G   4      38.327   8.311  23.202  1.00 59.02 LIG-0.35  N 
ATOM     11 H    LEU G   4      37.482   8.467  23.240  1.00 59.02 LIG 0.16  HD
ATOM     12  C   ILE G   3      39.145   8.798  22.268  1.00 70.10 LIG 0.24  C 
ATOM     13 O    ILE G   3      40.390   8.731  22.371  1.00 64.55 LIG-0.27  OA
BRANCH 12 14
ATOM     14  CA  ILE G   3      38.467   9.460  21.038  1.00 67.83 LIG 0.18  C 
BRANCH 14 15
ATOM     15  CB  ILE G   3      38.713   8.621  19.745  1.00 66.94 LIG 0.01  C 
ATOM     16  CG2 ILE G   3      38.637   7.125  20.054  1.00 67.41 LIG 0.01  C 
BRANCH 15 17
ATOM     17  CG1 ILE G   3      37.715   8.984  18.610  1.00 59.79 LIG 0.00  C 
ATOM     18  CD1 ILE G   3      38.243  10.007  17.639  1.00 60.74 LIG 0.01  C 
ENDBRANCH 15 17
ENDBRANCH 14 15
BRANCH 14 19
ATOM     19  N   ILE G   3      38.958  10.820  20.876  1.00 79.60 LIG-0.34  N 
ATOM     20 H    ILE G   3      39.590  10.891  20.298  1.00 79.60 LIG 0.16  HD
ATOM     21  C   ASP G   2      38.475  11.861  21.559  1.00 93.07 LIG 0.26  C 
ATOM     22 O    ASP G   2      37.508  11.781  22.319  1.00 81.24 LIG-0.27  OA
BRANCH 21 23
ATOM     23  CA  ASP G   2      39.190  13.206  21.383  1.00 93.30 LIG 0.41  C 
ATOM     24  N   ASP G   2      40.427  12.981  20.583  1.00 94.60 LIG 0.61  N 
BRANCH 23 25
ATOM     25  CB  ASP G   2      38.298  14.252  20.696  1.00 96.36 LIG 0.16  C 
BRANCH 25 26
ATOM     26  CG  ASP G   2      37.872  13.830  19.307  1.00103.24 LIG 0.17  C 
ATOM     27 OD1  ASP G   2      38.469  12.888  18.749  1.00112.85 LIG-0.65  OA
ATOM     28 OD2  ASP G   2      36.932  14.434  18.768  1.00105.87 LIG-0.65  OA
ENDBRANCH 25 26
ENDBRANCH 23 25
ENDBRANCH 21 23
ENDBRANCH 14 19
ENDBRANCH 12 14
ENDBRANCH 5 10
ENDBRANCH 1 5
BRANCH 3 29
ATOM     29  CA  PHE G   5      39.944   3.880  24.218  1.00 70.05 LIG 0.18  C 
BRANCH 29 30
ATOM     30  CB  PHE G   5      40.962   3.749  23.066  1.00 73.20 LIG 0.07  C 
BRANCH 30 31
ATOM     31  CG  PHE G   5      41.808   4.999  22.879  1.00 79.36 LIG-0.06  A 
ATOM     32  CD1 PHE G   5      42.637   5.461  23.932  1.00 85.64 LIG 0.01  A 
ATOM     33  CE1 PHE G   5      43.430   6.591  23.781  1.00 88.71 LIG 0.00  A 
ATOM     34  CZ  PHE G   5      43.413   7.277  22.564  1.00 96.11 LIG 0.00  A 
ATOM     35  CE2 PHE G   5      42.610   6.825  21.504  1.00 91.53 LIG 0.00  A 
ATOM     36  CD2 PHE G   5      41.816   5.693  21.661  1.00 81.01 LIG 0.01  A 
ENDBRANCH 30 31
ENDBRANCH 29 30
BRANCH 29 37
ATOM     37  C   PHE G   5      40.400   3.249  25.528  1.00 74.26 LIG 0.24  C 
ATOM     38  N   PRO G   6      39.473   3.132  26.505  1.00 79.01 LIG-0.34  N 
ATOM     39  CD  PRO G   6      38.102   3.707  26.436  1.00 76.17 LIG 0.13  C 
ATOM     40  CA  PRO G   6      39.825   2.704  27.868  1.00 78.34 LIG 0.18  C 
ATOM     41  CG  PRO G   6      37.471   3.253  27.706  1.00 78.03 LIG 0.02  C 
ATOM     42  CB  PRO G   6      38.613   3.183  28.685  1.00 82.73 LIG 0.04  C 
ATOM     43 O    PHE G   5      41.592   2.959  25.687  1.00 61.78 LIG-0.27  OA
BRANCH 40 44
ATOM     44  C   PRO G   6      40.040   1.188  28.078  1.00 77.34 LIG 0.24  C 
ATOM     45 O    PRO G   6      40.830   0.814  28.927  1.00 92.50 LIG-0.27  OA
ATOM     46  N   ALA G   7      39.344   0.336  27.310  1.00 74.20 LIG-0.35  N 
ATOM     47 H    ALA G   7      38.611   0.549  26.913  1.00 74.20 LIG 0.16  HD
BRANCH 46 48
ATOM     48  CA  ALA G   7      39.775  -1.067  27.068  1.00 71.75 LIG 0.16  C 
ATOM     49  CB  ALA G   7      38.732  -2.046  27.608  1.00 70.01 LIG 0.04  C 
BRANCH 48 50
ATOM     50  C   ALA G   7      39.995  -1.301  25.557  1.00 69.94 LIG 0.22  C 
ATOM     51 O    ALA G   7      39.742  -0.388  24.729  1.00 56.97 LIG-0.29  OA
ENDBRANCH 48 50
ENDBRANCH 46 48
ENDBRANCH 40 44
ENDBRANCH 29 37
ENDBRANCH 3 29
TORSDOF 18
ENDMDL
MODEL 35
USER: ADFR SOLUTION from run 158
USER: SCORE 14.339599 LL:  -5.618 LR:  -9.558 RR:   0.000 FEB:  -4.189
USER: RMSD 4.001338
USER: SEED 157
USER: STATUS no improvement in best in 14 clusters for 5 generations
USER: GENES 20
USER: genes 0 Translation |==|  0.46147 0.54101 0.51131
USER: genes 1 Rotation |==|  0.51365 0.53700 0.58173 0.99170
USER: genes 2 Torsion [N]-C--CA-[N] |==|  0.38355
USER: genes 3 Torsion [C]-CA--CB-[CG] |==|  0.53150
USER: genes 4 Torsion [CA]-CB--CG-[CD1] |==|  0.47607
USER: genes 5 Torsion [C]-CA--N-[C] |==|  0.82404
USER: genes 6 Torsion [N]-C--CA-[N] |==|  0.33365
USER: genes 7 Torsion [C]-CA--CB-[CG1] |==|  0.06679
USER: genes 8 Torsion [CA]-CB--CG1-[CD1] |==|  0.27316
USER: genes 9 Torsion [C]-CA--N-[C] |==|  0.65170
USER: genes 10 Torsion [N]-C--CA-[N] |==|  0.53486
USER: genes 11 Torsion [C]-CA--CB-[CG] |==|  0.80510
USER: genes 12 Torsion [CA]-CB--CG-[OD1] |==|  0.84352
USER: genes 13 Torsion [C]-N--CA-[CB] |==|  0.52778
USER: genes 14 Torsion [N]-CA--CB-[CG] |==|  0.25969
USER: genes 15 Torsion [CA]-CB--CG-[CD1] |==|  0.77861
USER: genes 16 Torsion [N]-CA--C-[N] |==|  0.31634
USER: genes 17 Torsion [N]-CA--C-[O] |==|  0.67471
USER: genes 18 Torsion [C]-N--CA-[C] |==|  0.57120
USER: genes 19 Torsion [N]-CA--C-[O] |==|  0.09268
ROOT
ATOM      1  C   LEU G   4      39.323   7.319  22.873  1.00 61.38 LIG 0.24  C 
ATOM      2 O    LEU G   4      38.788   7.214  21.763  1.00 52.06 LIG-0.27  OA
ATOM      3  N   PHE G   5      40.488   6.791  23.204  1.00 60.80 LIG-0.35  N 
ATOM      4 H    PHE G   5      40.852   6.904  23.975  1.00 60.80 LIG 0.16  HD
ENDROOT
BRANCH 1 5
ATOM      5  CA  LEU G   4      38.653   8.053  23.996  1.00 58.56 LIG 0.18  C 
BRANCH 5 6
ATOM      6  CB  LEU G   4      37.595   7.127  24.589  1.00 61.47 LIG 0.04  C 
BRANCH 6 7
ATOM      7  CG  LEU G   4      36.645   7.806  25.551  1.00 62.80 LIG-0.02  C 
ATOM      8  CD1 LEU G   4      35.548   6.812  25.871  1.00 63.22 LIG 0.01  C 
ATOM      9  CD2 LEU G   4      37.431   8.230  26.792  1.00 64.86 LIG 0.01  C 
ENDBRANCH 6 7
ENDBRANCH 5 6
BRANCH 5 10
ATOM     10  N   LEU G   4      38.083   9.282  23.478  1.00 59.02 LIG-0.35  N 
ATOM     11 H    LEU G   4      37.226   9.335  23.530  1.00 59.02 LIG 0.16  HD
ATOM     12  C   ILE G   3      38.869  10.230  22.968  1.00 70.10 LIG 0.24  C 
ATOM     13 O    ILE G   3      40.112  10.214  23.110  1.00 64.55 LIG-0.27  OA
BRANCH 12 14
ATOM     14  CA  ILE G   3      38.158  11.365  22.185  1.00 67.83 LIG 0.18  C 
BRANCH 14 15
ATOM     15  CB  ILE G   3      38.599  11.373  20.686  1.00 66.94 LIG 0.01  C 
ATOM     16  CG2 ILE G   3      39.669  12.439  20.449  1.00 67.41 LIG 0.01  C 
BRANCH 15 17
ATOM     17  CG1 ILE G   3      39.113   9.984  20.218  1.00 59.79 LIG 0.00  C 
ATOM     18  CD1 ILE G   3      38.084   9.171  19.477  1.00 60.74 LIG 0.01  C 
ENDBRANCH 15 17
ENDBRANCH 14 15
BRANCH 14 19
ATOM     19  N   ILE G   3      38.434  12.648  22.813  1.00 79.60 LIG-0.34  N 
ATOM     20 H    ILE G   3      39.272  12.812  22.908  1.00 79.60 LIG 0.16  HD
ATOM     21  C   ASP G   2      37.476  13.492  23.208  1.00 93.07 LIG 0.26  C 
ATOM     22 O    ASP G   2      36.278  13.305  22.991  1.00 81.24 LIG-0.27  OA
BRANCH 21 23
ATOM     23  CA  ASP G   2      37.920  14.740  23.982  1.00 93.30 LIG 0.41  C 
ATOM     24  N   ASP G   2      36.713  15.374  24.586  1.00 94.60 LIG 0.61  N 
BRANCH 23 25
ATOM     25  CB  ASP G   2      38.947  14.410  25.076  1.00 96.36 LIG 0.16  C 
BRANCH 25 26
ATOM     26  CG  ASP G   2      38.341  13.640  26.229  1.00103.24 LIG 0.17  C 
ATOM     27 OD1  ASP G   2      37.366  14.124  26.836  1.00112.85 LIG-0.65  OA
ATOM     28 OD2  ASP G   2      38.834  12.542  26.531  1.00105.87 LIG-0.65  OA
ENDBRANCH 25 26
ENDBRANCH 23 25
ENDBRANCH 21 23
ENDBRANCH 14 19
ENDBRANCH 12 14
ENDBRANCH 5 10
ENDBRANCH 1 5
BRANCH 3 29
ATOM     29  CA  PHE G   5      41.267   5.977  22.315  1.00 70.05 LIG 0.18  C 
BRANCH 29 30
ATOM     30  CB  PHE G   5      42.438   5.314  23.069  1.00 73.20 LIG 0.07  C 
BRANCH 30 31
ATOM     31  CG  PHE G   5      42.100   3.922  23.581  1.00 79.36 LIG-0.06  A 
ATOM     32  CD1 PHE G   5      41.344   3.766  24.770  1.00 85.64 LIG 0.01  A 
ATOM     33  CE1 PHE G   5      41.010   2.507  25.251  1.00 88.71 LIG 0.00  A 
ATOM     34  CZ  PHE G   5      41.422   1.375  24.541  1.00 96.11 LIG 0.00  A 
ATOM     35  CE2 PHE G   5      42.156   1.511  23.352  1.00 91.53 LIG 0.00  A 
ATOM     36  CD2 PHE G   5      42.491   2.775  22.876  1.00 81.01 LIG 0.01  A 
ENDBRANCH 30 31
ENDBRANCH 29 30
BRANCH 29 37
ATOM     37  C   PHE G   5      40.289   4.988  21.691  1.00 74.26 LIG 0.24  C 
ATOM     38  N   PRO G   6      40.067   5.105  20.362  1.00 79.01 LIG-0.34  N 
ATOM     39  CD  PRO G   6      40.593   6.211  19.516  1.00 76.17 LIG 0.13  C 
ATOM     40  CA  PRO G   6      39.021   4.332  19.675  1.00 78.34 LIG 0.18  C 
ATOM     41  CG  PRO G   6      40.132   5.850  18.148  1.00 78.03 LIG 0.02  C 
ATOM     42  CB  PRO G   6      38.830   5.127  18.371  1.00 82.73 LIG 0.04  C 
ATOM     43 O    PHE G   5      39.673   4.196  22.413  1.00 61.78 LIG-0.27  OA
BRANCH 40 44
ATOM     44  C   PRO G   6      39.357   2.858  19.351  1.00 77.34 LIG 0.24  C 
ATOM     45 O    PRO G   6      39.403   2.504  18.186  1.00 92.50 LIG-0.27  OA
ATOM     46  N   ALA G   7      39.583   2.020  20.374  1.00 74.20 LIG-0.35  N 
ATOM     47 H    ALA G   7      39.820   2.284  21.158  1.00 74.20 LIG 0.16  HD
BRANCH 46 48
ATOM     48  CA  ALA G   7      39.447   0.544  20.251  1.00 71.75 LIG 0.16  C 
ATOM     49  CB  ALA G   7      40.725  -0.065  19.676  1.00 70.01 LIG 0.04  C 
BRANCH 48 50
ATOM     50  C   ALA G   7      39.135  -0.076  21.632  1.00 69.94 LIG 0.22  C 
ATOM     51 O    ALA G   7      38.444   0.557  22.471  1.00 56.97 LIG-0.29  OA
ENDBRANCH 48 50
ENDBRANCH 46 48
ENDBRANCH 40 44
ENDBRANCH 29 37
ENDBRANCH 3 29
TORSDOF 18
ENDMDL
MODEL 36
USER: ADFR SOLUTION from run 98
USER: SCORE 13.574115 LL:  -5.855 LR:  -9.557 RR:   0.000 FEB:  -4.187
USER: RMSD 3.702222
USER: SEED 97
USER: STATUS searching
USER: GENES 20
USER: genes 0 Translation |==|  0.42950 0.49937 0.60360
USER: genes 1 Rotation |==|  0.47545 0.34789 0.55457 0.97253
USER: genes 2 Torsion [N]-C--CA-[N] |==|  0.40206
USER: genes 3 Torsion [C]-CA--CB-[CG] |==|  0.35412
USER: genes 4 Torsion [CA]-CB--CG-[CD1] |==|  0.82303
USER: genes 5 Torsion [C]-CA--N-[C] |==|  0.79698
USER: genes 6 Torsion [N]-C--CA-[N] |==|  0.42858
USER: genes 7 Torsion [C]-CA--CB-[CG1] |==|  0.27100
USER: genes 8 Torsion [CA]-CB--CG1-[CD1] |==|  0.75466
USER: genes 9 Torsion [C]-CA--N-[C] |==|  0.66189
USER: genes 10 Torsion [N]-C--CA-[N] |==|  0.57402
USER: genes 11 Torsion [C]-CA--CB-[CG] |==|  0.80721
USER: genes 12 Torsion [CA]-CB--CG-[OD1] |==|  0.84136
USER: genes 13 Torsion [C]-N--CA-[CB] |==|  0.38267
USER: genes 14 Torsion [N]-CA--CB-[CG] |==|  0.95348
USER: genes 15 Torsion [CA]-CB--CG-[CD1] |==|  0.77501
USER: genes 16 Torsion [N]-CA--C-[N] |==|  0.37682
USER: genes 17 Torsion [N]-CA--C-[O] |==|  0.63320
USER: genes 18 Torsion [C]-N--CA-[C] |==|  0.65530
USER: genes 19 Torsion [N]-CA--C-[O] |==|  0.99317
ROOT
ATOM      1  C   LEU G   4      38.796   6.163  24.395  1.00 61.38 LIG 0.24  C 
ATOM      2 O    LEU G   4      39.184   6.026  23.230  1.00 52.06 LIG-0.27  OA
ATOM      3  N   PHE G   5      39.329   5.565  25.446  1.00 60.80 LIG-0.35  N 
ATOM      4 H    PHE G   5      39.058   5.700  26.251  1.00 60.80 LIG 0.16  HD
ENDROOT
BRANCH 1 5
ATOM      5  CA  LEU G   4      37.615   7.027  24.728  1.00 58.56 LIG 0.18  C 
BRANCH 5 6
ATOM      6  CB  LEU G   4      36.358   6.180  24.556  1.00 61.47 LIG 0.04  C 
BRANCH 6 7
ATOM      7  CG  LEU G   4      35.441   6.179  25.759  1.00 62.80 LIG-0.02  C 
ATOM      8  CD1 LEU G   4      36.203   5.540  26.900  1.00 63.22 LIG 0.01  C 
ATOM      9  CD2 LEU G   4      35.034   7.621  26.062  1.00 64.86 LIG 0.01  C 
ENDBRANCH 6 7
ENDBRANCH 5 6
BRANCH 5 10
ATOM     10  N   LEU G   4      37.623   8.187  23.858  1.00 59.02 LIG-0.35  N 
ATOM     11 H    LEU G   4      37.024   8.181  23.241  1.00 59.02 LIG 0.16  HD
ATOM     12  C   ILE G   3      38.513   9.163  24.039  1.00 70.10 LIG 0.24  C 
ATOM     13 O    ILE G   3      39.216   9.241  25.071  1.00 64.55 LIG-0.27  OA
BRANCH 12 14
ATOM     14  CA  ILE G   3      38.631  10.207  22.897  1.00 67.83 LIG 0.18  C 
BRANCH 14 15
ATOM     15  CB  ILE G   3      39.558   9.685  21.755  1.00 66.94 LIG 0.01  C 
ATOM     16  CG2 ILE G   3      40.560   8.667  22.301  1.00 67.41 LIG 0.01  C 
BRANCH 15 17
ATOM     17  CG1 ILE G   3      38.752   9.066  20.579  1.00 59.79 LIG 0.00  C 
ATOM     18  CD1 ILE G   3      38.459   7.598  20.747  1.00 60.74 LIG 0.01  C 
ENDBRANCH 15 17
ENDBRANCH 14 15
BRANCH 14 19
ATOM     19  N   ILE G   3      39.122  11.469  23.429  1.00 79.60 LIG-0.34  N 
ATOM     20 H    ILE G   3      39.886  11.404  23.819  1.00 79.60 LIG 0.16  HD
ATOM     21  C   ASP G   2      38.452  12.620  23.323  1.00 93.07 LIG 0.26  C 
ATOM     22 O    ASP G   2      37.404  12.737  22.686  1.00 81.24 LIG-0.27  OA
BRANCH 21 23
ATOM     23  CA  ASP G   2      39.032  13.836  24.058  1.00 93.30 LIG 0.41  C 
ATOM     24  N   ASP G   2      37.915  14.771  24.376  1.00 94.60 LIG 0.61  N 
BRANCH 23 25
ATOM     25  CB  ASP G   2      39.773  13.439  25.343  1.00 96.36 LIG 0.16  C 
BRANCH 25 26
ATOM     26  CG  ASP G   2      38.838  12.936  26.422  1.00103.24 LIG 0.17  C 
ATOM     27 OD1  ASP G   2      37.909  13.672  26.810  1.00112.85 LIG-0.65  OA
ATOM     28 OD2  ASP G   2      39.024  11.800  26.883  1.00105.87 LIG-0.65  OA
ENDBRANCH 25 26
ENDBRANCH 23 25
ENDBRANCH 21 23
ENDBRANCH 14 19
ENDBRANCH 12 14
ENDBRANCH 5 10
ENDBRANCH 1 5
BRANCH 3 29
ATOM     29  CA  PHE G   5      40.413   4.628  25.354  1.00 70.05 LIG 0.18  C 
BRANCH 29 30
ATOM     30  CB  PHE G   5      41.445   4.880  26.473  1.00 73.20 LIG 0.07  C 
BRANCH 30 31
ATOM     31  CG  PHE G   5      41.295   6.249  27.120  1.00 79.36 LIG-0.06  A 
ATOM     32  CD1 PHE G   5      41.844   7.395  26.493  1.00 85.64 LIG 0.01  A 
ATOM     33  CE1 PHE G   5      41.709   8.658  27.056  1.00 88.71 LIG 0.00  A 
ATOM     34  CZ  PHE G   5      41.009   8.796  28.258  1.00 96.11 LIG 0.00  A 
ATOM     35  CE2 PHE G   5      40.444   7.674  28.884  1.00 91.53 LIG 0.00  A 
ATOM     36  CD2 PHE G   5      40.584   6.411  28.318  1.00 81.01 LIG 0.01  A 
ENDBRANCH 30 31
ENDBRANCH 29 30
BRANCH 29 37
ATOM     37  C   PHE G   5      39.774   3.245  25.395  1.00 74.26 LIG 0.24  C 
ATOM     38  N   PRO G   6      40.232   2.335  24.507  1.00 79.01 LIG-0.34  N 
ATOM     39  CD  PRO G   6      41.196   2.637  23.415  1.00 76.17 LIG 0.13  C 
ATOM     40  CA  PRO G   6      39.584   1.026  24.326  1.00 78.34 LIG 0.18  C 
ATOM     41  CG  PRO G   6      41.423   1.312  22.775  1.00 78.03 LIG 0.02  C 
ATOM     42  CB  PRO G   6      40.116   0.585  22.952  1.00 82.73 LIG 0.04  C 
ATOM     43 O    PHE G   5      38.818   3.033  26.151  1.00 61.78 LIG-0.27  OA
BRANCH 40 44
ATOM     44  C   PRO G   6      39.901  -0.051  25.388  1.00 77.34 LIG 0.24  C 
ATOM     45 O    PRO G   6      40.214  -1.170  25.020  1.00 92.50 LIG-0.27  OA
ATOM     46  N   ALA G   7      39.816   0.291  26.683  1.00 74.20 LIG-0.35  N 
ATOM     47 H    ALA G   7      39.866   1.103  26.962  1.00 74.20 LIG 0.16  HD
BRANCH 46 48
ATOM     48  CA  ALA G   7      39.627  -0.708  27.768  1.00 71.75 LIG 0.16  C 
ATOM     49  CB  ALA G   7      40.861  -0.759  28.669  1.00 70.01 LIG 0.04  C 
BRANCH 48 50
ATOM     50  C   ALA G   7      38.373  -0.356  28.600  1.00 69.94 LIG 0.22  C 
ATOM     51 O    ALA G   7      37.709   0.680  28.340  1.00 56.97 LIG-0.29  OA
ENDBRANCH 48 50
ENDBRANCH 46 48
ENDBRANCH 40 44
ENDBRANCH 29 37
ENDBRANCH 3 29
TORSDOF 18
ENDMDL
MODEL 37
USER: ADFR SOLUTION from run 138
USER: SCORE 13.787527 LL:  -4.964 LR:  -9.518 RR:   0.000 FEB:  -4.149
USER: RMSD 3.439499
USER: SEED 137
USER: STATUS searching
USER: GENES 20
USER: genes 0 Translation |==|  0.49717 0.50195 0.46538
USER: genes 1 Rotation |==|  0.44203 0.56281 0.56077 0.98888
USER: genes 2 Torsion [N]-C--CA-[N] |==|  0.42453
USER: genes 3 Torsion [C]-CA--CB-[CG] |==|  0.57092
USER: genes 4 Torsion [CA]-CB--CG-[CD1] |==|  0.35161
USER: genes 5 Torsion [C]-CA--N-[C] |==|  0.79183
USER: genes 6 Torsion [N]-C--CA-[N] |==|  0.40694
USER: genes 7 Torsion [C]-CA--CB-[CG1] |==|  0.96821
USER: genes 8 Torsion [CA]-CB--CG1-[CD1] |==|  0.45018
USER: genes 9 Torsion [C]-CA--N-[C] |==|  0.81054
USER: genes 10 Torsion [N]-C--CA-[N] |==|  0.95602
USER: genes 11 Torsion [C]-CA--CB-[CG] |==|  0.78529
USER: genes 12 Torsion [CA]-CB--CG-[OD1] |==|  0.01066
USER: genes 13 Torsion [C]-N--CA-[CB] |==|  0.52528
USER: genes 14 Torsion [N]-CA--CB-[CG] |==|  0.67055
USER: genes 15 Torsion [CA]-CB--CG-[CD1] |==|  0.90815
USER: genes 16 Torsion [N]-CA--C-[N] |==|  0.30871
USER: genes 17 Torsion [N]-CA--C-[O] |==|  0.54458
USER: genes 18 Torsion [C]-N--CA-[C] |==|  0.79356
USER: genes 19 Torsion [N]-CA--C-[O] |==|  0.46525
ROOT
ATOM      1  C   LEU G   4      39.912   6.235  22.115  1.00 61.38 LIG 0.24  C 
ATOM      2 O    LEU G   4      39.301   5.838  21.117  1.00 52.06 LIG-0.27  OA
ATOM      3  N   PHE G   5      41.071   5.756  22.534  1.00 60.80 LIG-0.35  N 
ATOM      4 H    PHE G   5      41.489   6.070  23.216  1.00 60.80 LIG 0.16  HD
ENDROOT
BRANCH 1 5
ATOM      5  CA  LEU G   4      39.352   7.313  22.995  1.00 58.56 LIG 0.18  C 
BRANCH 5 6
ATOM      6  CB  LEU G   4      38.581   6.636  24.124  1.00 61.47 LIG 0.04  C 
BRANCH 6 7
ATOM      7  CG  LEU G   4      37.486   7.489  24.725  1.00 62.80 LIG-0.02  C 
ATOM      8  CD1 LEU G   4      36.210   6.676  24.676  1.00 63.22 LIG 0.01  C 
ATOM      9  CD2 LEU G   4      37.888   7.863  26.152  1.00 64.86 LIG 0.01  C 
ENDBRANCH 6 7
ENDBRANCH 5 6
BRANCH 5 10
ATOM     10  N   LEU G   4      38.510   8.180  22.194  1.00 59.02 LIG-0.35  N 
ATOM     11 H    LEU G   4      37.665   8.075  22.312  1.00 59.02 LIG 0.16  HD
ATOM     12  C   ILE G   3      39.052   9.060  21.351  1.00 70.10 LIG 0.24  C 
ATOM     13 O    ILE G   3      40.272   9.338  21.370  1.00 64.55 LIG-0.27  OA
BRANCH 12 14
ATOM     14  CA  ILE G   3      38.084   9.730  20.340  1.00 67.83 LIG 0.18  C 
BRANCH 14 15
ATOM     15  CB  ILE G   3      38.000   8.907  19.016  1.00 66.94 LIG 0.01  C 
ATOM     16  CG2 ILE G   3      38.089   9.833  17.803  1.00 67.41 LIG 0.01  C 
BRANCH 15 17
ATOM     17  CG1 ILE G   3      39.098   7.810  18.935  1.00 59.79 LIG 0.00  C 
ATOM     18  CD1 ILE G   3      38.812   6.735  17.919  1.00 60.74 LIG 0.01  C 
ENDBRANCH 15 17
ENDBRANCH 14 15
BRANCH 14 19
ATOM     19  N   ILE G   3      38.512  11.095  20.076  1.00 79.60 LIG-0.34  N 
ATOM     20 H    ILE G   3      38.802  11.216  19.276  1.00 79.60 LIG 0.16  HD
ATOM     21  C   ASP G   2      38.459  12.070  20.988  1.00 93.07 LIG 0.26  C 
ATOM     22 O    ASP G   2      37.957  11.926  22.104  1.00 81.24 LIG-0.27  OA
BRANCH 21 23
ATOM     23  CA  ASP G   2      39.077  13.421  20.605  1.00 93.30 LIG 0.41  C 
ATOM     24  N   ASP G   2      39.949  13.219  19.412  1.00 94.60 LIG 0.61  N 
BRANCH 23 25
ATOM     25  CB  ASP G   2      38.010  14.484  20.307  1.00 96.36 LIG 0.16  C 
BRANCH 25 26
ATOM     26  CG  ASP G   2      37.382  14.311  18.941  1.00103.24 LIG 0.17  C 
ATOM     27 OD1  ASP G   2      37.709  13.331  18.243  1.00112.85 LIG-0.65  OA
ATOM     28 OD2  ASP G   2      36.551  15.151  18.561  1.00105.87 LIG-0.65  OA
ENDBRANCH 25 26
ENDBRANCH 23 25
ENDBRANCH 21 23
ENDBRANCH 14 19
ENDBRANCH 12 14
ENDBRANCH 5 10
ENDBRANCH 1 5
BRANCH 3 29
ATOM     29  CA  PHE G   5      41.750   4.665  21.895  1.00 70.05 LIG 0.18  C 
BRANCH 29 30
ATOM     30  CB  PHE G   5      42.949   4.198  22.746  1.00 73.20 LIG 0.07  C 
BRANCH 30 31
ATOM     31  CG  PHE G   5      44.280   4.348  22.025  1.00 79.36 LIG-0.06  A 
ATOM     32  CD1 PHE G   5      44.351   4.181  20.619  1.00 85.64 LIG 0.01  A 
ATOM     33  CE1 PHE G   5      45.551   4.327  19.936  1.00 88.71 LIG 0.00  A 
ATOM     34  CZ  PHE G   5      46.706   4.653  20.651  1.00 96.11 LIG 0.00  A 
ATOM     35  CE2 PHE G   5      46.652   4.839  22.041  1.00 91.53 LIG 0.00  A 
ATOM     36  CD2 PHE G   5      45.448   4.689  22.722  1.00 81.01 LIG 0.01  A 
ENDBRANCH 30 31
ENDBRANCH 29 30
BRANCH 29 37
ATOM     37  C   PHE G   5      40.692   3.591  21.668  1.00 74.26 LIG 0.24  C 
ATOM     38  N   PRO G   6      40.334   3.348  20.387  1.00 79.01 LIG-0.34  N 
ATOM     39  CD  PRO G   6      40.790   4.151  19.220  1.00 76.17 LIG 0.13  C 
ATOM     40  CA  PRO G   6      39.207   2.466  20.046  1.00 78.34 LIG 0.18  C 
ATOM     41  CG  PRO G   6      40.181   3.449  18.057  1.00 78.03 LIG 0.02  C 
ATOM     42  CB  PRO G   6      38.896   2.880  18.597  1.00 82.73 LIG 0.04  C 
ATOM     43 O    PHE G   5      40.140   3.059  22.639  1.00 61.78 LIG-0.27  OA
BRANCH 40 44
ATOM     44  C   PRO G   6      39.477   0.946  20.116  1.00 77.34 LIG 0.24  C 
ATOM     45 O    PRO G   6      38.699   0.182  19.572  1.00 92.50 LIG-0.27  OA
ATOM     46  N   ALA G   7      40.564   0.525  20.780  1.00 74.20 LIG-0.35  N 
ATOM     47 H    ALA G   7      41.248   1.024  20.932  1.00 74.20 LIG 0.16  HD
BRANCH 46 48
ATOM     48  CA  ALA G   7      40.692  -0.854  21.323  1.00 71.75 LIG 0.16  C 
ATOM     49  CB  ALA G   7      42.151  -1.162  21.660  1.00 70.01 LIG 0.04  C 
BRANCH 48 50
ATOM     50  C   ALA G   7      39.808  -1.012  22.582  1.00 69.94 LIG 0.22  C 
ATOM     51 O    ALA G   7      39.584  -2.153  23.061  1.00 56.97 LIG-0.29  OA
ENDBRANCH 48 50
ENDBRANCH 46 48
ENDBRANCH 40 44
ENDBRANCH 29 37
ENDBRANCH 3 29
TORSDOF 18
ENDMDL
MODEL 38
USER: ADFR SOLUTION from run 137
USER: SCORE 14.079478 LL:  -5.616 LR:  -9.519 RR:   0.000 FEB:  -4.150
USER: RMSD 3.682221
USER: SEED 136
USER: STATUS no improvement in best in 15 clusters for 5 generations
USER: GENES 20
USER: genes 0 Translation |==|  0.41323 0.51768 0.55364
USER: genes 1 Rotation |==|  0.51523 0.44456 0.49322 0.99664
USER: genes 2 Torsion [N]-C--CA-[N] |==|  0.41055
USER: genes 3 Torsion [C]-CA--CB-[CG] |==|  0.35120
USER: genes 4 Torsion [CA]-CB--CG-[CD1] |==|  0.66716
USER: genes 5 Torsion [C]-CA--N-[C] |==|  0.83333
USER: genes 6 Torsion [N]-C--CA-[N] |==|  0.31612
USER: genes 7 Torsion [C]-CA--CB-[CG1] |==|  0.12377
USER: genes 8 Torsion [CA]-CB--CG1-[CD1] |==|  0.22300
USER: genes 9 Torsion [C]-CA--N-[C] |==|  0.66930
USER: genes 10 Torsion [N]-C--CA-[N] |==|  0.56800
USER: genes 11 Torsion [C]-CA--CB-[CG] |==|  0.79549
USER: genes 12 Torsion [CA]-CB--CG-[OD1] |==|  0.83064
USER: genes 13 Torsion [C]-N--CA-[CB] |==|  0.23841
USER: genes 14 Torsion [N]-CA--CB-[CG] |==|  0.74746
USER: genes 15 Torsion [CA]-CB--CG-[CD1] |==|  0.89550
USER: genes 16 Torsion [N]-CA--C-[N] |==|  0.85463
USER: genes 17 Torsion [N]-CA--C-[O] |==|  0.19674
USER: genes 18 Torsion [C]-N--CA-[C] |==|  0.21098
USER: genes 19 Torsion [N]-CA--C-[O] |==|  0.81843
ROOT
ATOM      1  C   LEU G   4      38.527   6.672  23.571  1.00 61.38 LIG 0.24  C 
ATOM      2 O    LEU G   4      38.413   6.736  22.342  1.00 52.06 LIG-0.27  OA
ATOM      3  N   PHE G   5      39.246   5.771  24.218  1.00 60.80 LIG-0.35  N 
ATOM      4 H    PHE G   5      39.332   5.766  25.074  1.00 60.80 LIG 0.16  HD
ENDROOT
BRANCH 1 5
ATOM      5  CA  LEU G   4      37.801   7.625  24.473  1.00 58.56 LIG 0.18  C 
BRANCH 5 6
ATOM      6  CB  LEU G   4      36.431   7.026  24.774  1.00 61.47 LIG 0.04  C 
BRANCH 6 7
ATOM      7  CG  LEU G   4      36.114   6.914  26.250  1.00 62.80 LIG-0.02  C 
ATOM      8  CD1 LEU G   4      35.886   5.446  26.546  1.00 63.22 LIG 0.01  C 
ATOM      9  CD2 LEU G   4      37.281   7.498  27.044  1.00 64.86 LIG 0.01  C 
ENDBRANCH 6 7
ENDBRANCH 5 6
BRANCH 5 10
ATOM     10  N   LEU G   4      37.708   8.914  23.814  1.00 59.02 LIG-0.35  N 
ATOM     11 H    LEU G   4      36.906   9.195  23.680  1.00 59.02 LIG 0.16  HD
ATOM     12  C   ILE G   3      38.811   9.575  23.462  1.00 70.10 LIG 0.24  C 
ATOM     13 O    ILE G   3      39.946   9.243  23.868  1.00 64.55 LIG-0.27  OA
BRANCH 12 14
ATOM     14  CA  ILE G   3      38.611  10.789  22.516  1.00 67.83 LIG 0.18  C 
BRANCH 14 15
ATOM     15  CB  ILE G   3      39.455  10.628  21.212  1.00 66.94 LIG 0.01  C 
ATOM     16  CG2 ILE G   3      40.918  10.987  21.474  1.00 67.41 LIG 0.01  C 
BRANCH 15 17
ATOM     17  CG1 ILE G   3      39.353   9.195  20.619  1.00 59.79 LIG 0.00  C 
ATOM     18  CD1 ILE G   3      38.100   8.955  19.819  1.00 60.74 LIG 0.01  C 
ENDBRANCH 15 17
ENDBRANCH 14 15
BRANCH 14 19
ATOM     19  N   ILE G   3      38.959  12.019  23.210  1.00 79.60 LIG-0.34  N 
ATOM     20 H    ILE G   3      39.777  12.048  23.472  1.00 79.60 LIG 0.16  HD
ATOM     21  C   ASP G   2      38.090  13.012  23.422  1.00 93.07 LIG 0.26  C 
ATOM     22 O    ASP G   2      36.945  13.017  22.969  1.00 81.24 LIG-0.27  OA
BRANCH 21 23
ATOM     23  CA  ASP G   2      38.565  14.183  24.292  1.00 93.30 LIG 0.41  C 
ATOM     24  N   ASP G   2      37.370  14.840  24.893  1.00 94.60 LIG 0.61  N 
BRANCH 23 25
ATOM     25  CB  ASP G   2      39.532  13.730  25.397  1.00 96.36 LIG 0.16  C 
BRANCH 25 26
ATOM     26  CG  ASP G   2      38.831  12.993  26.517  1.00103.24 LIG 0.17  C 
ATOM     27 OD1  ASP G   2      37.951  13.583  27.174  1.00112.85 LIG-0.65  OA
ATOM     28 OD2  ASP G   2      39.152  11.816  26.742  1.00105.87 LIG-0.65  OA
ENDBRANCH 25 26
ENDBRANCH 23 25
ENDBRANCH 21 23
ENDBRANCH 14 19
ENDBRANCH 12 14
ENDBRANCH 5 10
ENDBRANCH 1 5
BRANCH 3 29
ATOM     29  CA  PHE G   5      39.957   4.710  23.563  1.00 70.05 LIG 0.18  C 
BRANCH 29 30
ATOM     30  CB  PHE G   5      41.352   5.188  23.110  1.00 73.20 LIG 0.07  C 
BRANCH 30 31
ATOM     31  CG  PHE G   5      41.354   5.751  21.698  1.00 79.36 LIG-0.06  A 
ATOM     32  CD1 PHE G   5      40.549   5.159  20.693  1.00 85.64 LIG 0.01  A 
ATOM     33  CE1 PHE G   5      40.522   5.663  19.400  1.00 88.71 LIG 0.00  A 
ATOM     34  CZ  PHE G   5      41.300   6.782  19.089  1.00 96.11 LIG 0.00  A 
ATOM     35  CE2 PHE G   5      42.092   7.392  20.075  1.00 91.53 LIG 0.00  A 
ATOM     36  CD2 PHE G   5      42.117   6.881  21.369  1.00 81.01 LIG 0.01  A 
ENDBRANCH 30 31
ENDBRANCH 29 30
BRANCH 29 37
ATOM     37  C   PHE G   5      39.986   3.553  24.555  1.00 74.26 LIG 0.24  C 
ATOM     38  N   PRO G   6      40.443   3.826  25.798  1.00 79.01 LIG-0.34  N 
ATOM     39  CD  PRO G   6      41.049   5.123  26.204  1.00 76.17 LIG 0.13  C 
ATOM     40  CA  PRO G   6      40.685   2.767  26.790  1.00 78.34 LIG 0.18  C 
ATOM     41  CG  PRO G   6      41.322   4.938  27.656  1.00 78.03 LIG 0.02  C 
ATOM     42  CB  PRO G   6      41.614   3.467  27.796  1.00 82.73 LIG 0.04  C 
ATOM     43 O    PHE G   5      39.689   2.413  24.177  1.00 61.78 LIG-0.27  OA
BRANCH 40 44
ATOM     44  C   PRO G   6      39.440   2.210  27.518  1.00 77.34 LIG 0.24  C 
ATOM     45 O    PRO G   6      38.652   1.518  26.897  1.00 92.50 LIG-0.27  OA
ATOM     46  N   ALA G   7      39.274   2.514  28.814  1.00 74.20 LIG-0.35  N 
ATOM     47 H    ALA G   7      39.919   2.757  29.329  1.00 74.20 LIG 0.16  HD
BRANCH 46 48
ATOM     48  CA  ALA G   7      37.950   2.462  29.490  1.00 71.75 LIG 0.16  C 
ATOM     49  CB  ALA G   7      36.883   3.136  28.629  1.00 70.01 LIG 0.04  C 
BRANCH 48 50
ATOM     50  C   ALA G   7      37.559   0.994  29.775  1.00 69.94 LIG 0.22  C 
ATOM     51 O    ALA G   7      37.338   0.200  28.825  1.00 56.97 LIG-0.29  OA
ENDBRANCH 48 50
ENDBRANCH 46 48
ENDBRANCH 40 44
ENDBRANCH 29 37
ENDBRANCH 3 29
TORSDOF 18
ENDMDL
MODEL 39
USER: ADFR SOLUTION from run 199
USER: SCORE 13.972799 LL:  -5.362 LR:  -9.454 RR:   0.000 FEB:  -4.085
USER: RMSD 4.286149
USER: SEED 198
USER: STATUS no improvement in best in 18 clusters for 5 generations
USER: GENES 20
USER: genes 0 Translation |==|  0.44758 0.48850 0.42556
USER: genes 1 Rotation |==|  0.44303 0.63027 0.44965 0.97671
USER: genes 2 Torsion [N]-C--CA-[N] |==|  0.45524
USER: genes 3 Torsion [C]-CA--CB-[CG] |==|  0.68246
USER: genes 4 Torsion [CA]-CB--CG-[CD1] |==|  0.35736
USER: genes 5 Torsion [C]-CA--N-[C] |==|  0.75334
USER: genes 6 Torsion [N]-C--CA-[N] |==|  0.37393
USER: genes 7 Torsion [C]-CA--CB-[CG1] |==|  0.99469
USER: genes 8 Torsion [CA]-CB--CG1-[CD1] |==|  0.73202
USER: genes 9 Torsion [C]-CA--N-[C] |==|  0.77088
USER: genes 10 Torsion [N]-C--CA-[N] |==|  0.94086
USER: genes 11 Torsion [C]-CA--CB-[CG] |==|  0.83629
USER: genes 12 Torsion [CA]-CB--CG-[OD1] |==|  0.92874
USER: genes 13 Torsion [C]-N--CA-[CB] |==|  0.22727
USER: genes 14 Torsion [N]-CA--CB-[CG] |==|  0.74319
USER: genes 15 Torsion [CA]-CB--CG-[CD1] |==|  0.87998
USER: genes 16 Torsion [N]-CA--C-[N] |==|  0.85101
USER: genes 17 Torsion [N]-CA--C-[O] |==|  0.45490
USER: genes 18 Torsion [C]-N--CA-[C] |==|  0.81409
USER: genes 19 Torsion [N]-CA--C-[O] |==|  0.92402
ROOT
ATOM      1  C   LEU G   4      39.094   5.862  21.458  1.00 61.38 LIG 0.24  C 
ATOM      2 O    LEU G   4      38.158   5.749  20.659  1.00 52.06 LIG-0.27  OA
ATOM      3  N   PHE G   5      39.991   4.925  21.710  1.00 60.80 LIG-0.35  N 
ATOM      4 H    PHE G   5      40.650   5.039  22.250  1.00 60.80 LIG 0.16  HD
ENDROOT
BRANCH 1 5
ATOM      5  CA  LEU G   4      39.280   7.108  22.271  1.00 58.56 LIG 0.18  C 
BRANCH 5 6
ATOM      6  CB  LEU G   4      38.826   6.804  23.696  1.00 61.47 LIG 0.04  C 
BRANCH 6 7
ATOM      7  CG  LEU G   4      37.603   7.578  24.136  1.00 62.80 LIG-0.02  C 
ATOM      8  CD1 LEU G   4      36.613   6.572  24.684  1.00 63.22 LIG 0.01  C 
ATOM      9  CD2 LEU G   4      38.028   8.610  25.179  1.00 64.86 LIG 0.01  C 
ENDBRANCH 6 7
ENDBRANCH 5 6
BRANCH 5 10
ATOM     10  N   LEU G   4      38.515   8.181  21.666  1.00 59.02 LIG-0.35  N 
ATOM     11 H    LEU G   4      37.712   8.267  21.962  1.00 59.02 LIG 0.16  HD
ATOM     12  C   ILE G   3      39.059   8.951  20.722  1.00 70.10 LIG 0.24  C 
ATOM     13 O    ILE G   3      40.286   8.940  20.478  1.00 64.55 LIG-0.27  OA
BRANCH 12 14
ATOM     14  CA  ILE G   3      38.084   9.870  19.939  1.00 67.83 LIG 0.18  C 
BRANCH 14 15
ATOM     15  CB  ILE G   3      37.768   9.279  18.528  1.00 66.94 LIG 0.01  C 
ATOM     16  CG2 ILE G   3      38.077  10.304  17.437  1.00 67.41 LIG 0.01  C 
BRANCH 15 17
ATOM     17  CG1 ILE G   3      38.543   7.959  18.258  1.00 59.79 LIG 0.00  C 
ATOM     18  CD1 ILE G   3      39.817   8.149  17.479  1.00 60.74 LIG 0.01  C 
ENDBRANCH 15 17
ENDBRANCH 14 15
BRANCH 14 19
ATOM     19  N   ILE G   3      38.647  11.207  19.827  1.00 79.60 LIG-0.34  N 
ATOM     20 H    ILE G   3      39.044  11.352  19.079  1.00 79.60 LIG 0.16  HD
ATOM     21  C   ASP G   2      38.556  12.124  20.794  1.00 93.07 LIG 0.26  C 
ATOM     22 O    ASP G   2      37.909  11.955  21.829  1.00 81.24 LIG-0.27  OA
BRANCH 21 23
ATOM     23  CA  ASP G   2      39.322  13.437  20.586  1.00 93.30 LIG 0.41  C 
ATOM     24  N   ASP G   2      40.405  13.199  19.590  1.00 94.60 LIG 0.61  N 
BRANCH 23 25
ATOM     25  CB  ASP G   2      38.405  14.574  20.110  1.00 96.36 LIG 0.16  C 
BRANCH 25 26
ATOM     26  CG  ASP G   2      37.708  14.251  18.806  1.00103.24 LIG 0.17  C 
ATOM     27 OD1  ASP G   2      38.234  13.437  18.023  1.00112.85 LIG-0.65  OA
ATOM     28 OD2  ASP G   2      36.625  14.806  18.561  1.00105.87 LIG-0.65  OA
ENDBRANCH 25 26
ENDBRANCH 23 25
ENDBRANCH 21 23
ENDBRANCH 14 19
ENDBRANCH 12 14
ENDBRANCH 5 10
ENDBRANCH 1 5
BRANCH 3 29
ATOM     29  CA  PHE G   5      39.959   3.621  21.110  1.00 70.05 LIG 0.18  C 
BRANCH 29 30
ATOM     30  CB  PHE G   5      40.580   3.656  19.698  1.00 73.20 LIG 0.07  C 
BRANCH 30 31
ATOM     31  CG  PHE G   5      39.550   3.893  18.605  1.00 79.36 LIG-0.06  A 
ATOM     32  CD1 PHE G   5      38.307   3.212  18.638  1.00 85.64 LIG 0.01  A 
ATOM     33  CE1 PHE G   5      37.344   3.421  17.660  1.00 88.71 LIG 0.00  A 
ATOM     34  CZ  PHE G   5      37.607   4.328  16.629  1.00 96.11 LIG 0.00  A 
ATOM     35  CE2 PHE G   5      38.826   5.024  16.589  1.00 91.53 LIG 0.00  A 
ATOM     36  CD2 PHE G   5      39.788   4.808  17.570  1.00 81.01 LIG 0.01  A 
ENDBRANCH 30 31
ENDBRANCH 29 30
BRANCH 29 37
ATOM     37  C   PHE G   5      40.679   2.696  22.085  1.00 74.26 LIG 0.24  C 
ATOM     38  N   PRO G   6      41.922   3.063  22.469  1.00 79.01 LIG-0.34  N 
ATOM     39  CD  PRO G   6      42.675   4.211  21.896  1.00 76.17 LIG 0.13  C 
ATOM     40  CA  PRO G   6      42.786   2.176  23.264  1.00 78.34 LIG 0.18  C 
ATOM     41  CG  PRO G   6      43.936   4.229  22.686  1.00 78.03 LIG 0.02  C 
ATOM     42  CB  PRO G   6      44.181   2.784  23.031  1.00 82.73 LIG 0.04  C 
ATOM     43 O    PHE G   5      40.158   1.622  22.410  1.00 61.78 LIG-0.27  OA
BRANCH 40 44
ATOM     44  C   PRO G   6      42.487   2.102  24.779  1.00 77.34 LIG 0.24  C 
ATOM     45 O    PRO G   6      42.955   1.183  25.429  1.00 92.50 LIG-0.27  OA
ATOM     46  N   ALA G   7      41.718   3.057  25.321  1.00 74.20 LIG-0.35  N 
ATOM     47 H    ALA G   7      41.606   3.832  24.966  1.00 74.20 LIG 0.16  HD
BRANCH 46 48
ATOM     48  CA  ALA G   7      40.979   2.868  26.598  1.00 71.75 LIG 0.16  C 
ATOM     49  CB  ALA G   7      40.374   4.191  27.067  1.00 70.01 LIG 0.04  C 
BRANCH 48 50
ATOM     50  C   ALA G   7      39.869   1.808  26.416  1.00 69.94 LIG 0.22  C 
ATOM     51 O    ALA G   7      39.349   1.621  25.286  1.00 56.97 LIG-0.29  OA
ENDBRANCH 48 50
ENDBRANCH 46 48
ENDBRANCH 40 44
ENDBRANCH 29 37
ENDBRANCH 3 29
TORSDOF 18
ENDMDL
MODEL 40
USER: ADFR SOLUTION from run 185
USER: SCORE 13.589399 LL:  -5.143 LR:  -9.433 RR:   0.000 FEB:  -4.064
USER: RMSD 3.729699
USER: SEED 184
USER: STATUS no improvement in best in 11 clusters for 5 generations
USER: GENES 20
USER: genes 0 Translation |==|  0.43140 0.50751 0.41557
USER: genes 1 Rotation |==|  0.56947 0.59231 0.44340 0.98317
USER: genes 2 Torsion [N]-C--CA-[N] |==|  0.44896
USER: genes 3 Torsion [C]-CA--CB-[CG] |==|  0.54833
USER: genes 4 Torsion [CA]-CB--CG-[CD1] |==|  0.38694
USER: genes 5 Torsion [C]-CA--N-[C] |==|  0.79648
USER: genes 6 Torsion [N]-C--CA-[N] |==|  0.29497
USER: genes 7 Torsion [C]-CA--CB-[CG1] |==|  0.07532
USER: genes 8 Torsion [CA]-CB--CG1-[CD1] |==|  0.28640
USER: genes 9 Torsion [C]-CA--N-[C] |==|  0.63157
USER: genes 10 Torsion [N]-C--CA-[N] |==|  0.54855
USER: genes 11 Torsion [C]-CA--CB-[CG] |==|  0.80336
USER: genes 12 Torsion [CA]-CB--CG-[OD1] |==|  0.77603
USER: genes 13 Torsion [C]-N--CA-[CB] |==|  0.19445
USER: genes 14 Torsion [N]-CA--CB-[CG] |==|  0.64903
USER: genes 15 Torsion [CA]-CB--CG-[CD1] |==|  0.98560
USER: genes 16 Torsion [N]-CA--C-[N] |==|  0.84947
USER: genes 17 Torsion [N]-CA--C-[O] |==|  0.49327
USER: genes 18 Torsion [C]-N--CA-[C] |==|  0.79078
USER: genes 19 Torsion [N]-CA--C-[O] |==|  0.92072
ROOT
ATOM      1  C   LEU G   4      38.827   6.389  21.293  1.00 61.38 LIG 0.24  C 
ATOM      2 O    LEU G   4      38.093   6.803  20.389  1.00 52.06 LIG-0.27  OA
ATOM      3  N   PHE G   5      39.561   5.292  21.230  1.00 60.80 LIG-0.35  N 
ATOM      4 H    PHE G   5      40.086   5.042  21.863  1.00 60.80 LIG 0.16  HD
ENDROOT
BRANCH 1 5
ATOM      5  CA  LEU G   4      38.925   7.105  22.608  1.00 58.56 LIG 0.18  C 
BRANCH 5 6
ATOM      6  CB  LEU G   4      38.086   6.331  23.620  1.00 61.47 LIG 0.04  C 
BRANCH 6 7
ATOM      7  CG  LEU G   4      37.736   7.116  24.865  1.00 62.80 LIG-0.02  C 
ATOM      8  CD1 LEU G   4      36.297   6.791  25.208  1.00 63.22 LIG 0.01  C 
ATOM      9  CD2 LEU G   4      38.707   6.723  25.978  1.00 64.86 LIG 0.01  C 
ENDBRANCH 6 7
ENDBRANCH 5 6
BRANCH 5 10
ATOM     10  N   LEU G   4      38.461   8.468  22.434  1.00 59.02 LIG-0.35  N 
ATOM     11 H    LEU G   4      37.690   8.635  22.776  1.00 59.02 LIG 0.16  HD
ATOM     12  C   ILE G   3      39.211   9.360  21.785  1.00 70.10 LIG 0.24  C 
ATOM     13 O    ILE G   3      40.409   9.143  21.500  1.00 64.55 LIG-0.27  OA
BRANCH 12 14
ATOM     14  CA  ILE G   3      38.514  10.693  21.401  1.00 67.83 LIG 0.18  C 
BRANCH 14 15
ATOM     15  CB  ILE G   3      38.760  11.041  19.899  1.00 66.94 LIG 0.01  C 
ATOM     16  CG2 ILE G   3      39.936  12.008  19.759  1.00 67.41 LIG 0.01  C 
BRANCH 15 17
ATOM     17  CG1 ILE G   3      39.003   9.773  19.034  1.00 59.79 LIG 0.00  C 
ATOM     18  CD1 ILE G   3      37.814   9.363  18.205  1.00 60.74 LIG 0.01  C 
ENDBRANCH 15 17
ENDBRANCH 14 15
BRANCH 14 19
ATOM     19  N   ILE G   3      38.987  11.764  22.266  1.00 79.60 LIG-0.34  N 
ATOM     20 H    ILE G   3      39.842  11.787  22.350  1.00 79.60 LIG 0.16  HD
ATOM     21  C   ASP G   2      38.171  12.631  22.872  1.00 93.07 LIG 0.26  C 
ATOM     22 O    ASP G   2      36.954  12.661  22.681  1.00 81.24 LIG-0.27  OA
BRANCH 21 23
ATOM     23  CA  ASP G   2      38.807  13.614  23.863  1.00 93.30 LIG 0.41  C 
ATOM     24  N   ASP G   2      37.729  14.179  24.725  1.00 94.60 LIG 0.61  N 
BRANCH 23 25
ATOM     25  CB  ASP G   2      39.884  12.947  24.732  1.00 96.36 LIG 0.16  C 
BRANCH 25 26
ATOM     26  CG  ASP G   2      39.301  11.983  25.743  1.00103.24 LIG 0.17  C 
ATOM     27 OD1  ASP G   2      38.823  12.433  26.803  1.00112.85 LIG-0.65  OA
ATOM     28 OD2  ASP G   2      39.312  10.771  25.480  1.00105.87 LIG-0.65  OA
ENDBRANCH 25 26
ENDBRANCH 23 25
ENDBRANCH 21 23
ENDBRANCH 14 19
ENDBRANCH 12 14
ENDBRANCH 5 10
ENDBRANCH 1 5
BRANCH 3 29
ATOM     29  CA  PHE G   5      39.559   4.406  20.101  1.00 70.05 LIG 0.18  C 
BRANCH 29 30
ATOM     30  CB  PHE G   5      40.242   5.069  18.887  1.00 73.20 LIG 0.07  C 
BRANCH 30 31
ATOM     31  CG  PHE G   5      39.370   5.062  17.641  1.00 79.36 LIG-0.06  A 
ATOM     32  CD1 PHE G   5      38.123   4.389  17.648  1.00 85.64 LIG 0.01  A 
ATOM     33  CE1 PHE G   5      37.302   4.380  16.528  1.00 88.71 LIG 0.00  A 
ATOM     34  CZ  PHE G   5      37.715   5.056  15.377  1.00 96.11 LIG 0.00  A 
ATOM     35  CE2 PHE G   5      38.939   5.742  15.356  1.00 91.53 LIG 0.00  A 
ATOM     36  CD2 PHE G   5      39.759   5.746  16.480  1.00 81.01 LIG 0.01  A 
ENDBRANCH 30 31
ENDBRANCH 29 30
BRANCH 29 37
ATOM     37  C   PHE G   5      40.236   3.125  20.575  1.00 74.26 LIG 0.24  C 
ATOM     38  N   PRO G   6      41.465   3.252  21.124  1.00 79.01 LIG-0.34  N 
ATOM     39  CD  PRO G   6      42.244   4.520  21.157  1.00 76.17 LIG 0.13  C 
ATOM     40  CA  PRO G   6      42.295   2.084  21.460  1.00 78.34 LIG 0.18  C 
ATOM     41  CG  PRO G   6      43.474   4.152  21.911  1.00 78.03 LIG 0.02  C 
ATOM     42  CB  PRO G   6      43.699   2.702  21.573  1.00 82.73 LIG 0.04  C 
ATOM     43 O    PHE G   5      39.699   2.032  20.362  1.00 61.78 LIG-0.27  OA
BRANCH 40 44
ATOM     44  C   PRO G   6      41.937   1.340  22.766  1.00 77.34 LIG 0.24  C 
ATOM     45 O    PRO G   6      42.564   0.339  23.068  1.00 92.50 LIG-0.27  OA
ATOM     46  N   ALA G   7      40.941   1.827  23.522  1.00 74.20 LIG-0.35  N 
ATOM     47 H    ALA G   7      40.675   2.644  23.484  1.00 74.20 LIG 0.16  HD
BRANCH 46 48
ATOM     48  CA  ALA G   7      40.195   0.996  24.504  1.00 71.75 LIG 0.16  C 
ATOM     49  CB  ALA G   7      39.440   1.885  25.493  1.00 70.01 LIG 0.04  C 
BRANCH 48 50
ATOM     50  C   ALA G   7      39.209   0.061  23.767  1.00 69.94 LIG 0.22  C 
ATOM     51 O    ALA G   7      38.724   0.398  22.657  1.00 56.97 LIG-0.29  OA
ENDBRANCH 48 50
ENDBRANCH 46 48
ENDBRANCH 40 44
ENDBRANCH 29 37
ENDBRANCH 3 29
TORSDOF 18
ENDMDL
MODEL 41
USER: ADFR SOLUTION from run 125
USER: SCORE 13.521253 LL:  -5.656 LR:  -9.415 RR:   0.000 FEB:  -4.046
USER: RMSD 1.969025
USER: SEED 124
USER: STATUS no improvement in best in 13 clusters for 5 generations
USER: GENES 20
USER: genes 0 Translation |==|  0.45495 0.50861 0.47491
USER: genes 1 Rotation |==|  0.53875 0.55312 0.48297 0.99537
USER: genes 2 Torsion [N]-C--CA-[N] |==|  0.45389
USER: genes 3 Torsion [C]-CA--CB-[CG] |==|  0.62907
USER: genes 4 Torsion [CA]-CB--CG-[CD1] |==|  0.41475
USER: genes 5 Torsion [C]-CA--N-[C] |==|  0.74444
USER: genes 6 Torsion [N]-C--CA-[N] |==|  0.38387
USER: genes 7 Torsion [C]-CA--CB-[CG1] |==|  0.08070
USER: genes 8 Torsion [CA]-CB--CG1-[CD1] |==|  0.32389
USER: genes 9 Torsion [C]-CA--N-[C] |==|  0.62018
USER: genes 10 Torsion [N]-C--CA-[N] |==|  0.53108
USER: genes 11 Torsion [C]-CA--CB-[CG] |==|  0.79901
USER: genes 12 Torsion [CA]-CB--CG-[OD1] |==|  0.84776
USER: genes 13 Torsion [C]-N--CA-[CB] |==|  0.29331
USER: genes 14 Torsion [N]-CA--CB-[CG] |==|  0.91434
USER: genes 15 Torsion [CA]-CB--CG-[CD1] |==|  0.77243
USER: genes 16 Torsion [N]-CA--C-[N] |==|  0.39580
USER: genes 17 Torsion [N]-CA--C-[O] |==|  0.89805
USER: genes 18 Torsion [C]-N--CA-[C] |==|  0.77885
USER: genes 19 Torsion [N]-CA--C-[O] |==|  0.92624
ROOT
ATOM      1  C   LEU G   4      39.216   6.420  22.272  1.00 61.38 LIG 0.24  C 
ATOM      2 O    LEU G   4      38.600   6.613  21.218  1.00 52.06 LIG-0.27  OA
ATOM      3  N   PHE G   5      40.104   5.460  22.465  1.00 60.80 LIG-0.35  N 
ATOM      4 H    PHE G   5      40.540   5.366  23.200  1.00 60.80 LIG 0.16  HD
ENDROOT
BRANCH 1 5
ATOM      5  CA  LEU G   4      38.973   7.269  23.484  1.00 58.56 LIG 0.18  C 
BRANCH 5 6
ATOM      6  CB  LEU G   4      38.130   6.453  24.460  1.00 61.47 LIG 0.04  C 
BRANCH 6 7
ATOM      7  CG  LEU G   4      36.959   7.209  25.050  1.00 62.80 LIG-0.02  C 
ATOM      8  CD1 LEU G   4      35.866   6.196  25.320  1.00 63.22 LIG 0.01  C 
ATOM      9  CD2 LEU G   4      37.427   7.919  26.320  1.00 64.86 LIG 0.01  C 
ENDBRANCH 6 7
ENDBRANCH 5 6
BRANCH 5 10
ATOM     10  N   LEU G   4      38.312   8.493  23.074  1.00 59.02 LIG-0.35  N 
ATOM     11 H    LEU G   4      37.454   8.450  23.045  1.00 59.02 LIG 0.16  HD
ATOM     12  C   ILE G   3      39.025   9.579  22.773  1.00 70.10 LIG 0.24  C 
ATOM     13 O    ILE G   3      40.244   9.671  23.038  1.00 64.55 LIG-0.27  OA
BRANCH 12 14
ATOM     14  CA  ILE G   3      38.258  10.733  22.074  1.00 67.83 LIG 0.18  C 
BRANCH 14 15
ATOM     15  CB  ILE G   3      38.488  10.704  20.530  1.00 66.94 LIG 0.01  C 
ATOM     16  CG2 ILE G   3      39.642  11.630  20.143  1.00 67.41 LIG 0.01  C 
BRANCH 15 17
ATOM     17  CG1 ILE G   3      38.755   9.267  20.002  1.00 59.79 LIG 0.00  C 
ATOM     18  CD1 ILE G   3      37.707   8.764  19.045  1.00 60.74 LIG 0.01  C 
ENDBRANCH 15 17
ENDBRANCH 14 15
BRANCH 14 19
ATOM     19  N   ILE G   3      38.669  12.011  22.636  1.00 79.60 LIG-0.34  N 
ATOM     20 H    ILE G   3      39.517  12.078  22.754  1.00 79.60 LIG 0.16  HD
ATOM     21  C   ASP G   2      37.810  12.988  22.940  1.00 93.07 LIG 0.26  C 
ATOM     22 O    ASP G   2      36.605  12.933  22.687  1.00 81.24 LIG-0.27  OA
BRANCH 21 23
ATOM     23  CA  ASP G   2      38.378  14.220  23.657  1.00 93.30 LIG 0.41  C 
ATOM     24  N   ASP G   2      37.238  15.050  24.143  1.00 94.60 LIG 0.61  N 
BRANCH 23 25
ATOM     25  CB  ASP G   2      39.293  13.839  24.830  1.00 96.36 LIG 0.16  C 
BRANCH 25 26
ATOM     26  CG  ASP G   2      38.526  13.291  26.013  1.00103.24 LIG 0.17  C 
ATOM     27 OD1  ASP G   2      37.600  13.968  26.501  1.00112.85 LIG-0.65  OA
ATOM     28 OD2  ASP G   2      38.839  12.176  26.456  1.00105.87 LIG-0.65  OA
ENDBRANCH 25 26
ENDBRANCH 23 25
ENDBRANCH 21 23
ENDBRANCH 14 19
ENDBRANCH 12 14
ENDBRANCH 5 10
ENDBRANCH 1 5
BRANCH 3 29
ATOM     29  CA  PHE G   5      40.432   4.478  21.471  1.00 70.05 LIG 0.18  C 
BRANCH 29 30
ATOM     30  CB  PHE G   5      41.813   4.773  20.851  1.00 73.20 LIG 0.07  C 
BRANCH 30 31
ATOM     31  CG  PHE G   5      42.142   6.258  20.817  1.00 79.36 LIG-0.06  A 
ATOM     32  CD1 PHE G   5      41.632   7.076  19.777  1.00 85.64 LIG 0.01  A 
ATOM     33  CE1 PHE G   5      41.905   8.436  19.732  1.00 88.71 LIG 0.00  A 
ATOM     34  CZ  PHE G   5      42.691   9.007  20.737  1.00 96.11 LIG 0.00  A 
ATOM     35  CE2 PHE G   5      43.191   8.216  21.783  1.00 91.53 LIG 0.00  A 
ATOM     36  CD2 PHE G   5      42.917   6.852  21.823  1.00 81.01 LIG 0.01  A 
ENDBRANCH 30 31
ENDBRANCH 29 30
BRANCH 29 37
ATOM     37  C   PHE G   5      40.340   3.128  22.173  1.00 74.26 LIG 0.24  C 
ATOM     38  N   PRO G   6      39.838   2.099  21.454  1.00 79.01 LIG-0.34  N 
ATOM     39  CD  PRO G   6      39.243   2.234  20.097  1.00 76.17 LIG 0.13  C 
ATOM     40  CA  PRO G   6      39.535   0.795  22.064  1.00 78.34 LIG 0.18  C 
ATOM     41  CG  PRO G   6      38.908   0.832  19.724  1.00 78.03 LIG 0.02  C 
ATOM     42  CB  PRO G   6      38.580   0.166  21.035  1.00 82.73 LIG 0.04  C 
ATOM     43 O    PHE G   5      40.627   3.040  23.373  1.00 61.78 LIG-0.27  OA
BRANCH 40 44
ATOM     44  C   PRO G   6      40.738  -0.143  22.313  1.00 77.34 LIG 0.24  C 
ATOM     45 O    PRO G   6      41.647  -0.167  21.502  1.00 92.50 LIG-0.27  OA
ATOM     46  N   ALA G   7      40.732  -0.901  23.420  1.00 74.20 LIG-0.35  N 
ATOM     47 H    ALA G   7      40.264  -0.716  24.117  1.00 74.20 LIG 0.16  HD
BRANCH 46 48
ATOM     48  CA  ALA G   7      41.540  -2.144  23.549  1.00 71.75 LIG 0.16  C 
ATOM     49  CB  ALA G   7      41.758  -2.489  25.022  1.00 70.01 LIG 0.04  C 
BRANCH 48 50
ATOM     50  C   ALA G   7      40.833  -3.313  22.826  1.00 69.94 LIG 0.22  C 
ATOM     51 O    ALA G   7      39.584  -3.308  22.682  1.00 56.97 LIG-0.29  OA
ENDBRANCH 48 50
ENDBRANCH 46 48
ENDBRANCH 40 44
ENDBRANCH 29 37
ENDBRANCH 3 29
TORSDOF 18
ENDMDL
MODEL 42
USER: ADFR SOLUTION from run 101
USER: SCORE 13.804929 LL:  -5.486 LR:  -9.415 RR:   0.000 FEB:  -4.046
USER: RMSD 3.684528
USER: SEED 100
USER: STATUS searching
USER: GENES 20
USER: genes 0 Translation |==|  0.43061 0.54758 0.46156
USER: genes 1 Rotation |==|  0.51043 0.65486 0.64936 0.95122
USER: genes 2 Torsion [N]-C--CA-[N] |==|  0.29086
USER: genes 3 Torsion [C]-CA--CB-[CG] |==|  0.55203
USER: genes 4 Torsion [CA]-CB--CG-[CD1] |==|  0.46831
USER: genes 5 Torsion [C]-CA--N-[C] |==|  0.77904
USER: genes 6 Torsion [N]-C--CA-[N] |==|  0.32044
USER: genes 7 Torsion [C]-CA--CB-[CG1] |==|  0.07441
USER: genes 8 Torsion [CA]-CB--CG1-[CD1] |==|  0.21224
USER: genes 9 Torsion [C]-CA--N-[C] |==|  0.63882
USER: genes 10 Torsion [N]-C--CA-[N] |==|  0.58239
USER: genes 11 Torsion [C]-CA--CB-[CG] |==|  0.75724
USER: genes 12 Torsion [CA]-CB--CG-[OD1] |==|  0.81299
USER: genes 13 Torsion [C]-N--CA-[CB] |==|  0.51114
USER: genes 14 Torsion [N]-CA--CB-[CG] |==|  0.89887
USER: genes 15 Torsion [CA]-CB--CG-[CD1] |==|  0.29324
USER: genes 16 Torsion [N]-CA--C-[N] |==|  0.38277
USER: genes 17 Torsion [N]-CA--C-[O] |==|  0.79115
USER: genes 18 Torsion [C]-N--CA-[C] |==|  0.52091
USER: genes 19 Torsion [N]-CA--C-[O] |==|  0.04618
ROOT
ATOM      1  C   LEU G   4      38.814   7.501  22.052  1.00 61.38 LIG 0.24  C 
ATOM      2 O    LEU G   4      37.910   7.104  21.309  1.00 52.06 LIG-0.27  OA
ATOM      3  N   PHE G   5      40.106   7.369  21.809  1.00 60.80 LIG-0.35  N 
ATOM      4 H    PHE G   5      40.716   7.681  22.329  1.00 60.80 LIG 0.16  HD
ENDROOT
BRANCH 1 5
ATOM      5  CA  LEU G   4      38.512   8.163  23.364  1.00 58.56 LIG 0.18  C 
BRANCH 5 6
ATOM      6  CB  LEU G   4      37.436   7.337  24.062  1.00 61.47 LIG 0.04  C 
BRANCH 6 7
ATOM      7  CG  LEU G   4      36.702   8.077  25.160  1.00 62.80 LIG-0.02  C 
ATOM      8  CD1 LEU G   4      35.505   7.233  25.542  1.00 63.22 LIG 0.01  C 
ATOM      9  CD2 LEU G   4      37.663   8.294  26.328  1.00 64.86 LIG 0.01  C 
ENDBRANCH 6 7
ENDBRANCH 5 6
BRANCH 5 10
ATOM     10  N   LEU G   4      38.086   9.526  23.113  1.00 59.02 LIG-0.35  N 
ATOM     11 H    LEU G   4      37.236   9.652  23.141  1.00 59.02 LIG 0.16  HD
ATOM     12  C   ILE G   3      38.984  10.480  22.863  1.00 70.10 LIG 0.24  C 
ATOM     13 O    ILE G   3      40.209  10.309  23.049  1.00 64.55 LIG-0.27  OA
BRANCH 12 14
ATOM     14  CA  ILE G   3      38.426  11.826  22.328  1.00 67.83 LIG 0.18  C 
BRANCH 14 15
ATOM     15  CB  ILE G   3      39.050  12.179  20.940  1.00 66.94 LIG 0.01  C 
ATOM     16  CG2 ILE G   3      40.230  13.136  21.112  1.00 67.41 LIG 0.01  C 
BRANCH 15 17
ATOM     17  CG1 ILE G   3      39.496  10.913  20.157  1.00 59.79 LIG 0.00  C 
ATOM     18  CD1 ILE G   3      38.358  10.152  19.529  1.00 60.74 LIG 0.01  C 
ENDBRANCH 15 17
ENDBRANCH 14 15
BRANCH 14 19
ATOM     19  N   ILE G   3      38.676  12.884  23.294  1.00 79.60 LIG-0.34  N 
ATOM     20 H    ILE G   3      39.490  12.917  23.566  1.00 79.60 LIG 0.16  HD
ATOM     21  C   ASP G   2      37.731  13.728  23.718  1.00 93.07 LIG 0.26  C 
ATOM     22 O    ASP G   2      36.586  13.747  23.263  1.00 81.24 LIG-0.27  OA
BRANCH 21 23
ATOM     23  CA  ASP G   2      38.114  14.698  24.843  1.00 93.30 LIG 0.41  C 
ATOM     24  N   ASP G   2      36.892  15.000  25.642  1.00 94.60 LIG 0.61  N 
BRANCH 23 25
ATOM     25  CB  ASP G   2      39.213  14.129  25.752  1.00 96.36 LIG 0.16  C 
BRANCH 25 26
ATOM     26  CG  ASP G   2      38.657  13.292  26.883  1.00103.24 LIG 0.17  C 
ATOM     27 OD1  ASP G   2      37.990  13.848  27.777  1.00112.85 LIG-0.65  OA
ATOM     28 OD2  ASP G   2      38.879  12.071  26.880  1.00105.87 LIG-0.65  OA
ENDBRANCH 25 26
ENDBRANCH 23 25
ENDBRANCH 21 23
ENDBRANCH 14 19
ENDBRANCH 12 14
ENDBRANCH 5 10
ENDBRANCH 1 5
BRANCH 3 29
ATOM     29  CA  PHE G   5      40.627   6.692  20.655  1.00 70.05 LIG 0.18  C 
BRANCH 29 30
ATOM     30  CB  PHE G   5      42.167   6.622  20.714  1.00 73.20 LIG 0.07  C 
BRANCH 30 31
ATOM     31  CG  PHE G   5      42.793   7.870  21.318  1.00 79.36 LIG-0.06  A 
ATOM     32  CD1 PHE G   5      43.322   7.835  22.633  1.00 85.64 LIG 0.01  A 
ATOM     33  CE1 PHE G   5      43.912   8.956  23.202  1.00 88.71 LIG 0.00  A 
ATOM     34  CZ  PHE G   5      43.990  10.136  22.457  1.00 96.11 LIG 0.00  A 
ATOM     35  CE2 PHE G   5      43.486  10.185  21.147  1.00 91.53 LIG 0.00  A 
ATOM     36  CD2 PHE G   5      42.894   9.059  20.583  1.00 81.01 LIG 0.01  A 
ENDBRANCH 30 31
ENDBRANCH 29 30
BRANCH 29 37
ATOM     37  C   PHE G   5      39.941   5.331  20.626  1.00 74.26 LIG 0.24  C 
ATOM     38  N   PRO G   6      39.521   4.885  19.421  1.00 79.01 LIG-0.34  N 
ATOM     39  CD  PRO G   6      39.550   5.690  18.170  1.00 76.17 LIG 0.13  C 
ATOM     40  CA  PRO G   6      38.695   3.675  19.281  1.00 78.34 LIG 0.18  C 
ATOM     41  CG  PRO G   6      39.051   4.742  17.135  1.00 78.03 LIG 0.02  C 
ATOM     42  CB  PRO G   6      38.090   3.852  17.878  1.00 82.73 LIG 0.04  C 
ATOM     43 O    PHE G   5      39.712   4.737  21.686  1.00 61.78 LIG-0.27  OA
BRANCH 40 44
ATOM     44  C   PRO G   6      39.438   2.322  19.371  1.00 77.34 LIG 0.24  C 
ATOM     45 O    PRO G   6      40.107   1.952  18.423  1.00 92.50 LIG-0.27  OA
ATOM     46  N   ALA G   7      39.312   1.603  20.496  1.00 74.20 LIG-0.35  N 
ATOM     47 H    ALA G   7      39.085   1.945  21.252  1.00 74.20 LIG 0.16  HD
BRANCH 46 48
ATOM     48  CA  ALA G   7      39.556   0.137  20.547  1.00 71.75 LIG 0.16  C 
ATOM     49  CB  ALA G   7      41.027  -0.170  20.266  1.00 70.01 LIG 0.04  C 
BRANCH 48 50
ATOM     50  C   ALA G   7      39.148  -0.421  21.929  1.00 69.94 LIG 0.22  C 
ATOM     51 O    ALA G   7      38.411   0.253  22.693  1.00 56.97 LIG-0.29  OA
ENDBRANCH 48 50
ENDBRANCH 46 48
ENDBRANCH 40 44
ENDBRANCH 29 37
ENDBRANCH 3 29
TORSDOF 18
ENDMDL
MODEL 43
USER: ADFR SOLUTION from run 189
USER: SCORE 13.636192 LL:  -5.664 LR:  -9.350 RR:   0.000 FEB:  -3.981
USER: RMSD 2.580956
USER: SEED 188
USER: STATUS no improvement in best in 6 clusters for 5 generations
USER: GENES 20
USER: genes 0 Translation |==|  0.45456 0.49286 0.52448
USER: genes 1 Rotation |==|  0.52646 0.41485 0.48199 0.99166
USER: genes 2 Torsion [N]-C--CA-[N] |==|  0.45139
USER: genes 3 Torsion [C]-CA--CB-[CG] |==|  0.42179
USER: genes 4 Torsion [CA]-CB--CG-[CD1] |==|  0.27954
USER: genes 5 Torsion [C]-CA--N-[C] |==|  0.81058
USER: genes 6 Torsion [N]-C--CA-[N] |==|  0.42147
USER: genes 7 Torsion [C]-CA--CB-[CG1] |==|  0.16451
USER: genes 8 Torsion [CA]-CB--CG1-[CD1] |==|  0.57394
USER: genes 9 Torsion [C]-CA--N-[C] |==|  0.82577
USER: genes 10 Torsion [N]-C--CA-[N] |==|  0.73043
USER: genes 11 Torsion [C]-CA--CB-[CG] |==|  0.76496
USER: genes 12 Torsion [CA]-CB--CG-[OD1] |==|  0.81043
USER: genes 13 Torsion [C]-N--CA-[CB] |==|  0.29863
USER: genes 14 Torsion [N]-CA--CB-[CG] |==|  0.39554
USER: genes 15 Torsion [CA]-CB--CG-[CD1] |==|  0.73359
USER: genes 16 Torsion [N]-CA--C-[N] |==|  0.38333
USER: genes 17 Torsion [N]-CA--C-[O] |==|  0.96031
USER: genes 18 Torsion [C]-N--CA-[C] |==|  0.77758
USER: genes 19 Torsion [N]-CA--C-[O] |==|  0.99568
ROOT
ATOM      1  C   LEU G   4      39.209   5.983  23.090  1.00 61.38 LIG 0.24  C 
ATOM      2 O    LEU G   4      39.247   6.109  21.861  1.00 52.06 LIG-0.27  OA
ATOM      3  N   PHE G   5      39.808   5.021  23.771  1.00 60.80 LIG-0.35  N 
ATOM      4 H    PHE G   5      39.790   4.973  24.629  1.00 60.80 LIG 0.16  HD
ENDROOT
BRANCH 1 5
ATOM      5  CA  LEU G   4      38.419   6.927  23.947  1.00 58.56 LIG 0.18  C 
BRANCH 5 6
ATOM      6  CB  LEU G   4      37.134   6.214  24.359  1.00 61.47 LIG 0.04  C 
BRANCH 6 7
ATOM      7  CG  LEU G   4      36.565   6.677  25.682  1.00 62.80 LIG-0.02  C 
ATOM      8  CD1 LEU G   4      35.430   7.630  25.369  1.00 63.22 LIG 0.01  C 
ATOM      9  CD2 LEU G   4      36.101   5.452  26.468  1.00 64.86 LIG 0.01  C 
ENDBRANCH 6 7
ENDBRANCH 5 6
BRANCH 5 10
ATOM     10  N   LEU G   4      38.161   8.139  23.195  1.00 59.02 LIG-0.35  N 
ATOM     11 H    LEU G   4      37.338   8.265  22.981  1.00 59.02 LIG 0.16  HD
ATOM     12  C   ILE G   3      39.159   8.965  22.880  1.00 70.10 LIG 0.24  C 
ATOM     13 O    ILE G   3      40.296   8.864  23.393  1.00 64.55 LIG-0.27  OA
BRANCH 12 14
ATOM     14  CA  ILE G   3      38.835  10.070  21.839  1.00 67.83 LIG 0.18  C 
BRANCH 14 15
ATOM     15  CB  ILE G   3      39.006   9.534  20.382  1.00 66.94 LIG 0.01  C 
ATOM     16  CG2 ILE G   3      40.466   9.163  20.116  1.00 67.41 LIG 0.01  C 
BRANCH 15 17
ATOM     17  CG1 ILE G   3      38.083   8.318  20.091  1.00 59.79 LIG 0.00  C 
ATOM     18  CD1 ILE G   3      38.608   7.395  19.023  1.00 60.74 LIG 0.01  C 
ENDBRANCH 15 17
ENDBRANCH 14 15
BRANCH 14 19
ATOM     19  N   ILE G   3      39.683  11.229  22.068  1.00 79.60 LIG-0.34  N 
ATOM     20 H    ILE G   3      40.209  11.407  21.412  1.00 79.60 LIG 0.16  HD
ATOM     21  C   ASP G   2      39.649  11.952  23.191  1.00 93.07 LIG 0.26  C 
ATOM     22 O    ASP G   2      38.834  11.760  24.095  1.00 81.24 LIG-0.27  OA
BRANCH 21 23
ATOM     23  CA  ASP G   2      40.702  13.058  23.343  1.00 93.30 LIG 0.41  C 
ATOM     24  N   ASP G   2      41.831  12.526  24.158  1.00 94.60 LIG 0.61  N 
BRANCH 23 25
ATOM     25  CB  ASP G   2      41.218  13.558  21.985  1.00 96.36 LIG 0.16  C 
BRANCH 25 26
ATOM     26  CG  ASP G   2      42.340  12.702  21.439  1.00103.24 LIG 0.17  C 
ATOM     27 OD1  ASP G   2      43.444  12.707  22.020  1.00112.85 LIG-0.65  OA
ATOM     28 OD2  ASP G   2      42.123  12.014  20.430  1.00105.87 LIG-0.65  OA
ENDBRANCH 25 26
ENDBRANCH 23 25
ENDBRANCH 21 23
ENDBRANCH 14 19
ENDBRANCH 12 14
ENDBRANCH 5 10
ENDBRANCH 1 5
BRANCH 3 29
ATOM     29  CA  PHE G   5      40.548   3.960  23.151  1.00 70.05 LIG 0.18  C 
BRANCH 29 30
ATOM     30  CB  PHE G   5      42.063   4.151  23.374  1.00 73.20 LIG 0.07  C 
BRANCH 30 31
ATOM     31  CG  PHE G   5      42.796   2.839  23.608  1.00 79.36 LIG-0.06  A 
ATOM     32  CD1 PHE G   5      43.058   2.396  24.929  1.00 85.64 LIG 0.01  A 
ATOM     33  CE1 PHE G   5      43.713   1.195  25.170  1.00 88.71 LIG 0.00  A 
ATOM     34  CZ  PHE G   5      44.112   0.408  24.086  1.00 96.11 LIG 0.00  A 
ATOM     35  CE2 PHE G   5      43.847   0.822  22.771  1.00 91.53 LIG 0.00  A 
ATOM     36  CD2 PHE G   5      43.192   2.028  22.535  1.00 81.01 LIG 0.01  A 
ENDBRANCH 30 31
ENDBRANCH 29 30
BRANCH 29 37
ATOM     37  C   PHE G   5      39.991   2.667  23.734  1.00 74.26 LIG 0.24  C 
ATOM     38  N   PRO G   6      39.797   1.642  22.873  1.00 79.01 LIG-0.34  N 
ATOM     39  CD  PRO G   6      39.949   1.745  21.397  1.00 76.17 LIG 0.13  C 
ATOM     40  CA  PRO G   6      39.105   0.407  23.274  1.00 78.34 LIG 0.18  C 
ATOM     41  CG  PRO G   6      39.694   0.356  20.924  1.00 78.03 LIG 0.02  C 
ATOM     42  CB  PRO G   6      38.708  -0.200  21.917  1.00 82.73 LIG 0.04  C 
ATOM     43 O    PHE G   5      39.652   2.626  24.923  1.00 61.78 LIG-0.27  OA
BRANCH 40 44
ATOM     44  C   PRO G   6      39.934  -0.612  24.087  1.00 77.34 LIG 0.24  C 
ATOM     45 O    PRO G   6      41.146  -0.488  24.131  1.00 92.50 LIG-0.27  OA
ATOM     46  N   ALA G   7      39.283  -1.603  24.715  1.00 74.20 LIG-0.35  N 
ATOM     47 H    ALA G   7      38.450  -1.563  24.924  1.00 74.20 LIG 0.16  HD
BRANCH 46 48
ATOM     48  CA  ALA G   7      39.944  -2.874  25.115  1.00 71.75 LIG 0.16  C 
ATOM     49  CB  ALA G   7      39.163  -3.550  26.243  1.00 70.01 LIG 0.04  C 
BRANCH 48 50
ATOM     50  C   ALA G   7      40.051  -3.821  23.898  1.00 69.94 LIG 0.22  C 
ATOM     51 O    ALA G   7      39.584  -3.477  22.783  1.00 56.97 LIG-0.29  OA
ENDBRANCH 48 50
ENDBRANCH 46 48
ENDBRANCH 40 44
ENDBRANCH 29 37
ENDBRANCH 3 29
TORSDOF 18
ENDMDL
MODEL 44
USER: ADFR SOLUTION from run 138
USER: SCORE 14.327833 LL:  -5.661 LR:  -9.337 RR:   0.000 FEB:  -3.967
USER: RMSD 4.232602
USER: SEED 137
USER: STATUS searching
USER: GENES 20
USER: genes 0 Translation |==|  0.46539 0.51970 0.60773
USER: genes 1 Rotation |==|  0.50880 0.33299 0.55855 0.96755
USER: genes 2 Torsion [N]-C--CA-[N] |==|  0.44796
USER: genes 3 Torsion [C]-CA--CB-[CG] |==|  0.37233
USER: genes 4 Torsion [CA]-CB--CG-[CD1] |==|  0.28218
USER: genes 5 Torsion [C]-CA--N-[C] |==|  0.79380
USER: genes 6 Torsion [N]-C--CA-[N] |==|  0.42942
USER: genes 7 Torsion [C]-CA--CB-[CG1] |==|  0.27561
USER: genes 8 Torsion [CA]-CB--CG1-[CD1] |==|  0.75907
USER: genes 9 Torsion [C]-CA--N-[C] |==|  0.69221
USER: genes 10 Torsion [N]-C--CA-[N] |==|  0.53367
USER: genes 11 Torsion [C]-CA--CB-[CG] |==|  0.81483
USER: genes 12 Torsion [CA]-CB--CG-[OD1] |==|  0.83518
USER: genes 13 Torsion [C]-N--CA-[CB] |==|  0.51667
USER: genes 14 Torsion [N]-CA--CB-[CG] |==|  0.17739
USER: genes 15 Torsion [CA]-CB--CG-[CD1] |==|  0.77372
USER: genes 16 Torsion [N]-CA--C-[N] |==|  0.40116
USER: genes 17 Torsion [N]-CA--C-[O] |==|  0.60675
USER: genes 18 Torsion [C]-N--CA-[C] |==|  0.72402
USER: genes 19 Torsion [N]-CA--C-[O] |==|  0.21641
ROOT
ATOM      1  C   LEU G   4      39.388   6.728  24.464  1.00 61.38 LIG 0.24  C 
ATOM      2 O    LEU G   4      39.834   6.763  23.311  1.00 52.06 LIG-0.27  OA
ATOM      3  N   PHE G   5      39.912   6.031  25.457  1.00 60.80 LIG-0.35  N 
ATOM      4 H    PHE G   5      39.599   6.047  26.257  1.00 60.80 LIG 0.16  HD
ENDROOT
BRANCH 1 5
ATOM      5  CA  LEU G   4      38.142   7.472  24.841  1.00 58.56 LIG 0.18  C 
BRANCH 5 6
ATOM      6  CB  LEU G   4      36.998   6.464  24.898  1.00 61.47 LIG 0.04  C 
BRANCH 6 7
ATOM      7  CG  LEU G   4      36.119   6.591  26.123  1.00 62.80 LIG-0.02  C 
ATOM      8  CD1 LEU G   4      34.861   7.316  25.694  1.00 63.22 LIG 0.01  C 
ATOM      9  CD2 LEU G   4      35.833   5.191  26.665  1.00 64.86 LIG 0.01  C 
ENDBRANCH 6 7
ENDBRANCH 5 6
BRANCH 5 10
ATOM     10  N   LEU G   4      37.907   8.518  23.865  1.00 59.02 LIG-0.35  N 
ATOM     11 H    LEU G   4      37.265   8.363  23.314  1.00 59.02 LIG 0.16  HD
ATOM     12  C   ILE G   3      38.657   9.621  23.861  1.00 70.10 LIG 0.24  C 
ATOM     13 O    ILE G   3      39.426   9.908  24.805  1.00 64.55 LIG-0.27  OA
BRANCH 12 14
ATOM     14  CA  ILE G   3      38.525  10.538  22.616  1.00 67.83 LIG 0.18  C 
BRANCH 14 15
ATOM     15  CB  ILE G   3      39.413  10.019  21.441  1.00 66.94 LIG 0.01  C 
ATOM     16  CG2 ILE G   3      40.569   9.175  21.977  1.00 67.41 LIG 0.01  C 
BRANCH 15 17
ATOM     17  CG1 ILE G   3      38.594   9.207  20.399  1.00 59.79 LIG 0.00  C 
ATOM     18  CD1 ILE G   3      38.461   7.745  20.734  1.00 60.74 LIG 0.01  C 
ENDBRANCH 15 17
ENDBRANCH 14 15
BRANCH 14 19
ATOM     19  N   ILE G   3      38.877  11.904  22.969  1.00 79.60 LIG-0.34  N 
ATOM     20 H    ILE G   3      39.712  12.011  23.140  1.00 79.60 LIG 0.16  HD
ATOM     21  C   ASP G   2      37.988  12.901  23.021  1.00 93.07 LIG 0.26  C 
ATOM     22 O    ASP G   2      36.809  12.774  22.686  1.00 81.24 LIG-0.27  OA
BRANCH 21 23
ATOM     23  CA  ASP G   2      38.485  14.254  23.546  1.00 93.30 LIG 0.41  C 
ATOM     24  N   ASP G   2      37.301  15.123  23.803  1.00 94.60 LIG 0.61  N 
BRANCH 23 25
ATOM     25  CB  ASP G   2      39.322  14.108  24.826  1.00 96.36 LIG 0.16  C 
BRANCH 25 26
ATOM     26  CG  ASP G   2      38.506  13.620  26.002  1.00103.24 LIG 0.17  C 
ATOM     27 OD1  ASP G   2      37.528  14.293  26.383  1.00112.85 LIG-0.65  OA
ATOM     28 OD2  ASP G   2      38.835  12.556  26.549  1.00105.87 LIG-0.65  OA
ENDBRANCH 25 26
ENDBRANCH 23 25
ENDBRANCH 21 23
ENDBRANCH 14 19
ENDBRANCH 12 14
ENDBRANCH 5 10
ENDBRANCH 1 5
BRANCH 3 29
ATOM     29  CA  PHE G   5      41.057   5.178  25.304  1.00 70.05 LIG 0.18  C 
BRANCH 29 30
ATOM     30  CB  PHE G   5      41.329   4.394  26.605  1.00 73.20 LIG 0.07  C 
BRANCH 30 31
ATOM     31  CG  PHE G   5      40.202   3.439  26.966  1.00 79.36 LIG-0.06  A 
ATOM     32  CD1 PHE G   5      39.044   3.920  27.627  1.00 85.64 LIG 0.01  A 
ATOM     33  CE1 PHE G   5      37.996   3.071  27.955  1.00 88.71 LIG 0.00  A 
ATOM     34  CZ  PHE G   5      38.084   1.718  27.616  1.00 96.11 LIG 0.00  A 
ATOM     35  CE2 PHE G   5      39.216   1.226  26.945  1.00 91.53 LIG 0.00  A 
ATOM     36  CD2 PHE G   5      40.265   2.081  26.622  1.00 81.01 LIG 0.01  A 
ENDBRANCH 30 31
ENDBRANCH 29 30
BRANCH 29 37
ATOM     37  C   PHE G   5      40.762   4.298  24.095  1.00 74.26 LIG 0.24  C 
ATOM     38  N   PRO G   6      41.809   3.976  23.304  1.00 79.01 LIG-0.34  N 
ATOM     39  CD  PRO G   6      43.178   4.541  23.451  1.00 76.17 LIG 0.13  C 
ATOM     40  CA  PRO G   6      41.632   3.282  22.019  1.00 78.34 LIG 0.18  C 
ATOM     41  CG  PRO G   6      43.961   3.832  22.402  1.00 78.03 LIG 0.02  C 
ATOM     42  CB  PRO G   6      42.963   3.574  21.303  1.00 82.73 LIG 0.04  C 
ATOM     43 O    PHE G   5      39.593   3.992  23.830  1.00 61.78 LIG-0.27  OA
BRANCH 40 44
ATOM     44  C   PRO G   6      41.392   1.757  22.088  1.00 77.34 LIG 0.24  C 
ATOM     45 O    PRO G   6      41.906   1.039  21.248  1.00 92.50 LIG-0.27  OA
ATOM     46  N   ALA G   7      40.620   1.281  23.076  1.00 74.20 LIG-0.35  N 
ATOM     47 H    ALA G   7      40.476   1.706  23.810  1.00 74.20 LIG 0.16  HD
BRANCH 46 48
ATOM     48  CA  ALA G   7      39.934  -0.037  22.999  1.00 71.75 LIG 0.16  C 
ATOM     49  CB  ALA G   7      40.024  -0.765  24.340  1.00 70.01 LIG 0.04  C 
BRANCH 48 50
ATOM     50  C   ALA G   7      38.455   0.159  22.596  1.00 69.94 LIG 0.22  C 
ATOM     51 O    ALA G   7      38.147   0.385  21.398  1.00 56.97 LIG-0.29  OA
ENDBRANCH 48 50
ENDBRANCH 46 48
ENDBRANCH 40 44
ENDBRANCH 29 37
ENDBRANCH 3 29
TORSDOF 18
ENDMDL
MODEL 45
USER: ADFR SOLUTION from run 97
USER: SCORE 13.979757 LL:  -6.491 LR:  -9.325 RR:   0.000 FEB:  -3.955
USER: RMSD 2.538020
USER: SEED 96
USER: STATUS no improvement in best in 13 clusters for 5 generations
USER: GENES 20
USER: genes 0 Translation |==|  0.43683 0.49657 0.56309
USER: genes 1 Rotation |==|  0.55289 0.38377 0.50602 0.98338
USER: genes 2 Torsion [N]-C--CA-[N] |==|  0.40878
USER: genes 3 Torsion [C]-CA--CB-[CG] |==|  0.37289
USER: genes 4 Torsion [CA]-CB--CG-[CD1] |==|  0.88961
USER: genes 5 Torsion [C]-CA--N-[C] |==|  0.75004
USER: genes 6 Torsion [N]-C--CA-[N] |==|  0.53208
USER: genes 7 Torsion [C]-CA--CB-[CG1] |==|  0.85152
USER: genes 8 Torsion [CA]-CB--CG1-[CD1] |==|  0.42071
USER: genes 9 Torsion [C]-CA--N-[C] |==|  0.78039
USER: genes 10 Torsion [N]-C--CA-[N] |==|  0.78698
USER: genes 11 Torsion [C]-CA--CB-[CG] |==|  0.74519
USER: genes 12 Torsion [CA]-CB--CG-[OD1] |==|  0.30809
USER: genes 13 Torsion [C]-N--CA-[CB] |==|  0.30000
USER: genes 14 Torsion [N]-CA--CB-[CG] |==|  0.93803
USER: genes 15 Torsion [CA]-CB--CG-[CD1] |==|  0.76857
USER: genes 16 Torsion [N]-CA--C-[N] |==|  0.35785
USER: genes 17 Torsion [N]-CA--C-[O] |==|  0.92816
USER: genes 18 Torsion [C]-N--CA-[C] |==|  0.78581
USER: genes 19 Torsion [N]-CA--C-[O] |==|  0.00695
ROOT
ATOM      1  C   LEU G   4      38.917   6.086  23.727  1.00 61.38 LIG 0.24  C 
ATOM      2 O    LEU G   4      39.101   6.327  22.529  1.00 52.06 LIG-0.27  OA
ATOM      3  N   PHE G   5      39.522   5.129  24.409  1.00 60.80 LIG-0.35  N 
ATOM      4 H    PHE G   5      39.398   5.001  25.250  1.00 60.80 LIG 0.16  HD
ENDROOT
BRANCH 1 5
ATOM      5  CA  LEU G   4      37.922   6.865  24.535  1.00 58.56 LIG 0.18  C 
BRANCH 5 6
ATOM      6  CB  LEU G   4      36.566   6.181  24.385  1.00 61.47 LIG 0.04  C 
BRANCH 6 7
ATOM      7  CG  LEU G   4      35.815   6.001  25.686  1.00 62.80 LIG-0.02  C 
ATOM      8  CD1 LEU G   4      36.832   5.610  26.738  1.00 63.22 LIG 0.01  C 
ATOM      9  CD2 LEU G   4      35.099   7.309  26.021  1.00 64.86 LIG 0.01  C 
ENDBRANCH 6 7
ENDBRANCH 5 6
BRANCH 5 10
ATOM     10  N   LEU G   4      37.904   8.235  24.062  1.00 59.02 LIG-0.35  N 
ATOM     11 H    LEU G   4      37.341   8.394  23.432  1.00 59.02 LIG 0.16  HD
ATOM     12  C   ILE G   3      38.720   9.145  24.595  1.00 70.10 LIG 0.24  C 
ATOM     13 O    ILE G   3      39.361   8.932  25.648  1.00 64.55 LIG-0.27  OA
BRANCH 12 14
ATOM     14  CA  ILE G   3      38.834  10.494  23.836  1.00 67.83 LIG 0.18  C 
BRANCH 14 15
ATOM     15  CB  ILE G   3      39.002  10.261  22.301  1.00 66.94 LIG 0.01  C 
ATOM     16  CG2 ILE G   3      39.191  11.593  21.575  1.00 67.41 LIG 0.01  C 
BRANCH 15 17
ATOM     17  CG1 ILE G   3      40.182   9.303  21.977  1.00 59.79 LIG 0.00  C 
ATOM     18  CD1 ILE G   3      40.001   8.522  20.702  1.00 60.74 LIG 0.01  C 
ENDBRANCH 15 17
ENDBRANCH 14 15
BRANCH 14 19
ATOM     19  N   ILE G   3      39.945  11.269  24.367  1.00 79.60 LIG-0.34  N 
ATOM     20 H    ILE G   3      40.653  11.233  23.882  1.00 79.60 LIG 0.16  HD
ATOM     21  C   ASP G   2      39.873  11.971  25.502  1.00 93.07 LIG 0.26  C 
ATOM     22 O    ASP G   2      38.834  12.102  26.151  1.00 81.24 LIG-0.27  OA
BRANCH 21 23
ATOM     23  CA  ASP G   2      41.168  12.619  26.006  1.00 93.30 LIG 0.41  C 
ATOM     24  N   ASP G   2      42.015  11.561  26.627  1.00 94.60 LIG 0.61  N 
BRANCH 23 25
ATOM     25  CB  ASP G   2      41.941  13.324  24.881  1.00 96.36 LIG 0.16  C 
BRANCH 25 26
ATOM     26  CG  ASP G   2      42.958  12.420  24.219  1.00103.24 LIG 0.17  C 
ATOM     27 OD1  ASP G   2      42.765  12.047  23.045  1.00112.85 LIG-0.65  OA
ATOM     28 OD2  ASP G   2      43.960  12.081  24.868  1.00105.87 LIG-0.65  OA
ENDBRANCH 25 26
ENDBRANCH 23 25
ENDBRANCH 21 23
ENDBRANCH 14 19
ENDBRANCH 12 14
ENDBRANCH 5 10
ENDBRANCH 1 5
BRANCH 3 29
ATOM     29  CA  PHE G   5      40.451   4.207  23.819  1.00 70.05 LIG 0.18  C 
BRANCH 29 30
ATOM     30  CB  PHE G   5      41.891   4.517  24.276  1.00 73.20 LIG 0.07  C 
BRANCH 30 31
ATOM     31  CG  PHE G   5      42.065   5.952  24.751  1.00 79.36 LIG-0.06  A 
ATOM     32  CD1 PHE G   5      42.295   6.989  23.813  1.00 85.64 LIG 0.01  A 
ATOM     33  CE1 PHE G   5      42.442   8.309  24.219  1.00 88.71 LIG 0.00  A 
ATOM     34  CZ  PHE G   5      42.353   8.616  25.580  1.00 96.11 LIG 0.00  A 
ATOM     35  CE2 PHE G   5      42.109   7.604  26.522  1.00 91.53 LIG 0.00  A 
ATOM     36  CD2 PHE G   5      41.964   6.283  26.110  1.00 81.01 LIG 0.01  A 
ENDBRANCH 30 31
ENDBRANCH 29 30
BRANCH 29 37
ATOM     37  C   PHE G   5      39.960   2.817  24.206  1.00 74.26 LIG 0.24  C 
ATOM     38  N   PRO G   6      39.815   1.920  23.205  1.00 79.01 LIG-0.34  N 
ATOM     39  CD  PRO G   6      39.959   2.243  21.760  1.00 76.17 LIG 0.13  C 
ATOM     40  CA  PRO G   6      39.187   0.607  23.418  1.00 78.34 LIG 0.18  C 
ATOM     41  CG  PRO G   6      39.773   0.927  21.089  1.00 78.03 LIG 0.02  C 
ATOM     42  CB  PRO G   6      38.818   0.184  21.986  1.00 82.73 LIG 0.04  C 
ATOM     43 O    PHE G   5      39.626   2.588  25.375  1.00 61.78 LIG-0.27  OA
BRANCH 40 44
ATOM     44  C   PRO G   6      40.069  -0.477  24.080  1.00 77.34 LIG 0.24  C 
ATOM     45 O    PRO G   6      41.280  -0.408  23.962  1.00 92.50 LIG-0.27  OA
ATOM     46  N   ALA G   7      39.461  -1.460  24.761  1.00 74.20 LIG-0.35  N 
ATOM     47 H    ALA G   7      38.666  -1.391  25.082  1.00 74.20 LIG 0.16  HD
BRANCH 46 48
ATOM     48  CA  ALA G   7      40.107  -2.773  25.029  1.00 71.75 LIG 0.16  C 
ATOM     49  CB  ALA G   7      39.406  -3.487  26.185  1.00 70.01 LIG 0.04  C 
BRANCH 48 50
ATOM     50  C   ALA G   7      40.069  -3.651  23.757  1.00 69.94 LIG 0.22  C 
ATOM     51 O    ALA G   7      39.584  -3.200  22.688  1.00 56.97 LIG-0.29  OA
ENDBRANCH 48 50
ENDBRANCH 46 48
ENDBRANCH 40 44
ENDBRANCH 29 37
ENDBRANCH 3 29
TORSDOF 18
ENDMDL
MODEL 46
USER: ADFR SOLUTION from run 35
USER: SCORE 13.384362 LL:  -5.880 LR:  -9.289 RR:   0.000 FEB:  -3.919
USER: RMSD 3.736316
USER: SEED 34
USER: STATUS no improvement in best in 15 clusters for 5 generations
USER: GENES 20
USER: genes 0 Translation |==|  0.47068 0.48699 0.41925
USER: genes 1 Rotation |==|  0.45278 0.61078 0.50897 0.98520
USER: genes 2 Torsion [N]-C--CA-[N] |==|  0.43319
USER: genes 3 Torsion [C]-CA--CB-[CG] |==|  0.66127
USER: genes 4 Torsion [CA]-CB--CG-[CD1] |==|  0.43632
USER: genes 5 Torsion [C]-CA--N-[C] |==|  0.78315
USER: genes 6 Torsion [N]-C--CA-[N] |==|  0.37006
USER: genes 7 Torsion [C]-CA--CB-[CG1] |==|  0.00993
USER: genes 8 Torsion [CA]-CB--CG1-[CD1] |==|  0.70492
USER: genes 9 Torsion [C]-CA--N-[C] |==|  0.80543
USER: genes 10 Torsion [N]-C--CA-[N] |==|  0.92880
USER: genes 11 Torsion [C]-CA--CB-[CG] |==|  0.78848
USER: genes 12 Torsion [CA]-CB--CG-[OD1] |==|  0.01488
USER: genes 13 Torsion [C]-N--CA-[CB] |==|  0.38171
USER: genes 14 Torsion [N]-CA--CB-[CG] |==|  0.45621
USER: genes 15 Torsion [CA]-CB--CG-[CD1] |==|  0.15490
USER: genes 16 Torsion [N]-CA--C-[N] |==|  0.36930
USER: genes 17 Torsion [N]-CA--C-[O] |==|  0.52170
USER: genes 18 Torsion [C]-N--CA-[C] |==|  0.65693
USER: genes 19 Torsion [N]-CA--C-[O] |==|  0.01815
ROOT
ATOM      1  C   LEU G   4      39.475   5.820  21.354  1.00 61.38 LIG 0.24  C 
ATOM      2 O    LEU G   4      38.630   5.582  20.484  1.00 52.06 LIG-0.27  OA
ATOM      3  N   PHE G   5      40.550   5.086  21.585  1.00 60.80 LIG-0.35  N 
ATOM      4 H    PHE G   5      41.138   5.290  22.178  1.00 60.80 LIG 0.16  HD
ENDROOT
BRANCH 1 5
ATOM      5  CA  LEU G   4      39.330   6.987  22.284  1.00 58.56 LIG 0.18  C 
BRANCH 5 6
ATOM      6  CB  LEU G   4      38.701   6.475  23.576  1.00 61.47 LIG 0.04  C 
BRANCH 6 7
ATOM      7  CG  LEU G   4      37.401   7.156  23.945  1.00 62.80 LIG-0.02  C 
ATOM      8  CD1 LEU G   4      36.644   6.209  24.853  1.00 63.22 LIG 0.01  C 
ATOM      9  CD2 LEU G   4      37.724   8.486  24.625  1.00 64.86 LIG 0.01  C 
ENDBRANCH 6 7
ENDBRANCH 5 6
BRANCH 5 10
ATOM     10  N   LEU G   4      38.519   8.002  21.639  1.00 59.02 LIG-0.35  N 
ATOM     11 H    LEU G   4      37.702   8.035  21.905  1.00 59.02 LIG 0.16  HD
ATOM     12  C   ILE G   3      39.046   8.800  20.710  1.00 70.10 LIG 0.24  C 
ATOM     13 O    ILE G   3      40.279   8.870  20.512  1.00 64.55 LIG-0.27  OA
BRANCH 12 14
ATOM     14  CA  ILE G   3      38.042   9.645  19.881  1.00 67.83 LIG 0.18  C 
BRANCH 14 15
ATOM     15  CB  ILE G   3      37.848   9.044  18.453  1.00 66.94 LIG 0.01  C 
ATOM     16  CG2 ILE G   3      38.259  10.057  17.385  1.00 67.41 LIG 0.01  C 
BRANCH 15 17
ATOM     17  CG1 ILE G   3      38.633   7.716  18.263  1.00 59.79 LIG 0.00  C 
ATOM     18  CD1 ILE G   3      39.858   7.851  17.398  1.00 60.74 LIG 0.01  C 
ENDBRANCH 15 17
ENDBRANCH 14 15
BRANCH 14 19
ATOM     19  N   ILE G   3      38.502  11.024  19.805  1.00 79.60 LIG-0.34  N 
ATOM     20 H    ILE G   3      38.771  11.254  19.022  1.00 79.60 LIG 0.16  HD
ATOM     21  C   ASP G   2      38.506  11.854  20.852  1.00 93.07 LIG 0.26  C 
ATOM     22 O    ASP G   2      38.036  11.559  21.952  1.00 81.24 LIG-0.27  OA
BRANCH 21 23
ATOM     23  CA  ASP G   2      39.152  13.231  20.649  1.00 93.30 LIG 0.41  C 
ATOM     24  N   ASP G   2      40.160  13.123  19.557  1.00 94.60 LIG 0.61  N 
BRANCH 23 25
ATOM     25  CB  ASP G   2      38.117  14.313  20.309  1.00 96.36 LIG 0.16  C 
BRANCH 25 26
ATOM     26  CG  ASP G   2      37.636  14.228  18.877  1.00103.24 LIG 0.17  C 
ATOM     27 OD1  ASP G   2      38.017  13.278  18.165  1.00112.85 LIG-0.65  OA
ATOM     28 OD2  ASP G   2      36.868  15.108  18.457  1.00105.87 LIG-0.65  OA
ENDBRANCH 25 26
ENDBRANCH 23 25
ENDBRANCH 21 23
ENDBRANCH 14 19
ENDBRANCH 12 14
ENDBRANCH 5 10
ENDBRANCH 1 5
BRANCH 3 29
ATOM     29  CA  PHE G   5      40.847   3.876  20.873  1.00 70.05 LIG 0.18  C 
BRANCH 29 30
ATOM     30  CB  PHE G   5      42.344   3.814  20.506  1.00 73.20 LIG 0.07  C 
BRANCH 30 31
ATOM     31  CG  PHE G   5      42.797   2.420  20.101  1.00 79.36 LIG-0.06  A 
ATOM     32  CD1 PHE G   5      42.141   1.737  19.047  1.00 85.64 LIG 0.01  A 
ATOM     33  CE1 PHE G   5      42.544   0.469  18.648  1.00 88.71 LIG 0.00  A 
ATOM     34  CZ  PHE G   5      43.624  -0.137  19.297  1.00 96.11 LIG 0.00  A 
ATOM     35  CE2 PHE G   5      44.296   0.531  20.333  1.00 91.53 LIG 0.00  A 
ATOM     36  CD2 PHE G   5      43.887   1.800  20.730  1.00 81.01 LIG 0.01  A 
ENDBRANCH 30 31
ENDBRANCH 29 30
BRANCH 29 37
ATOM     37  C   PHE G   5      40.379   2.738  21.773  1.00 74.26 LIG 0.24  C 
ATOM     38  N   PRO G   6      39.643   1.764  21.192  1.00 79.01 LIG-0.34  N 
ATOM     39  CD  PRO G   6      39.146   1.809  19.790  1.00 76.17 LIG 0.13  C 
ATOM     40  CA  PRO G   6      38.987   0.707  21.978  1.00 78.34 LIG 0.18  C 
ATOM     41  CG  PRO G   6      38.462   0.497  19.622  1.00 78.03 LIG 0.02  C 
ATOM     42  CB  PRO G   6      37.930   0.176  20.994  1.00 82.73 LIG 0.04  C 
ATOM     43 O    PHE G   5      40.597   2.788  22.989  1.00 61.78 LIG-0.27  OA
BRANCH 40 44
ATOM     44  C   PRO G   6      39.890  -0.451  22.462  1.00 77.34 LIG 0.24  C 
ATOM     45 O    PRO G   6      39.374  -1.420  22.991  1.00 92.50 LIG-0.27  OA
ATOM     46  N   ALA G   7      41.214  -0.340  22.281  1.00 74.20 LIG-0.35  N 
ATOM     47 H    ALA G   7      41.570   0.177  21.693  1.00 74.20 LIG 0.16  HD
BRANCH 46 48
ATOM     48  CA  ALA G   7      42.203  -1.107  23.085  1.00 71.75 LIG 0.16  C 
ATOM     49  CB  ALA G   7      42.964  -2.092  22.198  1.00 70.01 LIG 0.04  C 
BRANCH 48 50
ATOM     50  C   ALA G   7      43.190  -0.138  23.775  1.00 69.94 LIG 0.22  C 
ATOM     51 O    ALA G   7      43.008   1.105  23.712  1.00 56.97 LIG-0.29  OA
ENDBRANCH 48 50
ENDBRANCH 46 48
ENDBRANCH 40 44
ENDBRANCH 29 37
ENDBRANCH 3 29
TORSDOF 18
ENDMDL
MODEL 47
USER: ADFR SOLUTION from run 139
USER: SCORE 14.158443 LL:  -5.178 LR:  -9.279 RR:   0.000 FEB:  -3.909
USER: RMSD 2.804287
USER: SEED 138
USER: STATUS searching
USER: GENES 20
USER: genes 0 Translation |==|  0.43557 0.48948 0.56373
USER: genes 1 Rotation |==|  0.51146 0.44466 0.48212 0.99647
USER: genes 2 Torsion [N]-C--CA-[N] |==|  0.44781
USER: genes 3 Torsion [C]-CA--CB-[CG] |==|  0.46701
USER: genes 4 Torsion [CA]-CB--CG-[CD1] |==|  0.95835
USER: genes 5 Torsion [C]-CA--N-[C] |==|  0.75152
USER: genes 6 Torsion [N]-C--CA-[N] |==|  0.41432
USER: genes 7 Torsion [C]-CA--CB-[CG1] |==|  0.15632
USER: genes 8 Torsion [CA]-CB--CG1-[CD1] |==|  0.39530
USER: genes 9 Torsion [C]-CA--N-[C] |==|  0.63942
USER: genes 10 Torsion [N]-C--CA-[N] |==|  0.55258
USER: genes 11 Torsion [C]-CA--CB-[CG] |==|  0.78753
USER: genes 12 Torsion [CA]-CB--CG-[OD1] |==|  0.82537
USER: genes 13 Torsion [C]-N--CA-[CB] |==|  0.16618
USER: genes 14 Torsion [N]-CA--CB-[CG] |==|  0.09898
USER: genes 15 Torsion [CA]-CB--CG-[CD1] |==|  0.63522
USER: genes 16 Torsion [N]-CA--C-[N] |==|  0.13139
USER: genes 17 Torsion [N]-CA--C-[O] |==|  0.37616
USER: genes 18 Torsion [C]-N--CA-[C] |==|  0.64888
USER: genes 19 Torsion [N]-CA--C-[O] |==|  0.56602
ROOT
ATOM      1  C   LEU G   4      38.896   5.889  23.738  1.00 61.38 LIG 0.24  C 
ATOM      2 O    LEU G   4      38.782   5.947  22.508  1.00 52.06 LIG-0.27  OA
ATOM      3  N   PHE G   5      39.574   4.963  24.393  1.00 60.80 LIG-0.35  N 
ATOM      4 H    PHE G   5      39.662   4.963  25.248  1.00 60.80 LIG 0.16  HD
ENDROOT
BRANCH 1 5
ATOM      5  CA  LEU G   4      38.216   6.884  24.631  1.00 58.56 LIG 0.18  C 
BRANCH 5 6
ATOM      6  CB  LEU G   4      36.974   6.214  25.211  1.00 61.47 LIG 0.04  C 
BRANCH 6 7
ATOM      7  CG  LEU G   4      36.331   6.977  26.347  1.00 62.80 LIG-0.02  C 
ATOM      8  CD1 LEU G   4      37.336   8.007  26.817  1.00 63.22 LIG 0.01  C 
ATOM      9  CD2 LEU G   4      35.037   7.611  25.838  1.00 64.86 LIG 0.01  C 
ENDBRANCH 6 7
ENDBRANCH 5 6
BRANCH 5 10
ATOM     10  N   LEU G   4      37.895   8.067  23.856  1.00 59.02 LIG-0.35  N 
ATOM     11 H    LEU G   4      37.119   8.057  23.485  1.00 59.02 LIG 0.16  HD
ATOM     12  C   ILE G   3      38.769   9.068  23.756  1.00 70.10 LIG 0.24  C 
ATOM     13 O    ILE G   3      39.785   9.143  24.483  1.00 64.55 LIG-0.27  OA
BRANCH 12 14
ATOM     14  CA  ILE G   3      38.459  10.146  22.683  1.00 67.83 LIG 0.18  C 
BRANCH 14 15
ATOM     15  CB  ILE G   3      39.059   9.747  21.298  1.00 66.94 LIG 0.01  C 
ATOM     16  CG2 ILE G   3      40.587   9.767  21.350  1.00 67.41 LIG 0.01  C 
BRANCH 15 17
ATOM     17  CG1 ILE G   3      38.557   8.357  20.819  1.00 59.79 LIG 0.00  C 
ATOM     18  CD1 ILE G   3      38.306   8.277  19.336  1.00 60.74 LIG 0.01  C 
ENDBRANCH 15 17
ENDBRANCH 14 15
BRANCH 14 19
ATOM     19  N   ILE G   3      38.970  11.437  23.118  1.00 79.60 LIG-0.34  N 
ATOM     20 H    ILE G   3      39.790  11.414  23.374  1.00 79.60 LIG 0.16  HD
ATOM     21  C   ASP G   2      38.237  12.554  23.119  1.00 93.07 LIG 0.26  C 
ATOM     22 O    ASP G   2      37.093  12.612  22.666  1.00 81.24 LIG-0.27  OA
BRANCH 21 23
ATOM     23  CA  ASP G   2      38.871  13.806  23.739  1.00 93.30 LIG 0.41  C 
ATOM     24  N   ASP G   2      37.784  14.774  24.063  1.00 94.60 LIG 0.61  N 
BRANCH 23 25
ATOM     25  CB  ASP G   2      39.685  13.481  25.000  1.00 96.36 LIG 0.16  C 
BRANCH 25 26
ATOM     26  CG  ASP G   2      38.808  13.227  26.208  1.00103.24 LIG 0.17  C 
ATOM     27 OD1  ASP G   2      38.085  14.147  26.636  1.00112.85 LIG-0.65  OA
ATOM     28 OD2  ASP G   2      38.834  12.102  26.731  1.00105.87 LIG-0.65  OA
ENDBRANCH 25 26
ENDBRANCH 23 25
ENDBRANCH 21 23
ENDBRANCH 14 19
ENDBRANCH 12 14
ENDBRANCH 5 10
ENDBRANCH 1 5
BRANCH 3 29
ATOM     29  CA  PHE G   5      40.234   3.864  23.747  1.00 70.05 LIG 0.18  C 
BRANCH 29 30
ATOM     30  CB  PHE G   5      41.296   4.376  22.752  1.00 73.20 LIG 0.07  C 
BRANCH 30 31
ATOM     31  CG  PHE G   5      42.000   5.635  23.234  1.00 79.36 LIG-0.06  A 
ATOM     32  CD1 PHE G   5      42.137   6.749  22.368  1.00 85.64 LIG 0.01  A 
ATOM     33  CE1 PHE G   5      42.763   7.916  22.789  1.00 88.71 LIG 0.00  A 
ATOM     34  CZ  PHE G   5      43.257   7.990  24.094  1.00 96.11 LIG 0.00  A 
ATOM     35  CE2 PHE G   5      43.116   6.903  24.971  1.00 91.53 LIG 0.00  A 
ATOM     36  CD2 PHE G   5      42.490   5.735  24.543  1.00 81.01 LIG 0.01  A 
ENDBRANCH 30 31
ENDBRANCH 29 30
BRANCH 29 37
ATOM     37  C   PHE G   5      40.797   2.999  24.869  1.00 74.26 LIG 0.24  C 
ATOM     38  N   PRO G   6      39.963   2.707  25.892  1.00 79.01 LIG-0.34  N 
ATOM     39  CD  PRO G   6      38.604   3.289  26.061  1.00 76.17 LIG 0.13  C 
ATOM     40  CA  PRO G   6      40.431   2.031  27.112  1.00 78.34 LIG 0.18  C 
ATOM     41  CG  PRO G   6      38.084   2.610  27.279  1.00 78.03 LIG 0.02  C 
ATOM     42  CB  PRO G   6      39.310   2.355  28.115  1.00 82.73 LIG 0.04  C 
ATOM     43 O    PHE G   5      41.992   2.681  24.857  1.00 61.78 LIG-0.27  OA
BRANCH 40 44
ATOM     44  C   PRO G   6      40.632   0.502  27.017  1.00 77.34 LIG 0.24  C 
ATOM     45 O    PRO G   6      41.638   0.007  27.494  1.00 92.50 LIG-0.27  OA
ATOM     46  N   ALA G   7      39.684  -0.226  26.408  1.00 74.20 LIG-0.35  N 
ATOM     47 H    ALA G   7      38.872   0.042  26.311  1.00 74.20 LIG 0.16  HD
BRANCH 46 48
ATOM     48  CA  ALA G   7      39.946  -1.574  25.837  1.00 71.75 LIG 0.16  C 
ATOM     49  CB  ALA G   7      39.213  -2.647  26.643  1.00 70.01 LIG 0.04  C 
BRANCH 48 50
ATOM     50  C   ALA G   7      39.501  -1.619  24.358  1.00 69.94 LIG 0.22  C 
ATOM     51 O    ALA G   7      39.209  -2.715  23.815  1.00 56.97 LIG-0.29  OA
ENDBRANCH 48 50
ENDBRANCH 46 48
ENDBRANCH 40 44
ENDBRANCH 29 37
ENDBRANCH 3 29
TORSDOF 18
ENDMDL
MODEL 48
USER: ADFR SOLUTION from run 38
USER: SCORE 13.675938 LL:  -6.221 LR:  -9.238 RR:   0.000 FEB:  -3.869
USER: RMSD 2.432102
USER: SEED 37
USER: STATUS no improvement in best in 13 clusters for 5 generations
USER: GENES 20
USER: genes 0 Translation |==|  0.45219 0.49304 0.49113
USER: genes 1 Rotation |==|  0.46895 0.52337 0.51310 0.99831
USER: genes 2 Torsion [N]-C--CA-[N] |==|  0.38464
USER: genes 3 Torsion [C]-CA--CB-[CG] |==|  0.51991
USER: genes 4 Torsion [CA]-CB--CG-[CD1] |==|  0.53191
USER: genes 5 Torsion [C]-CA--N-[C] |==|  0.84095
USER: genes 6 Torsion [N]-C--CA-[N] |==|  0.46667
USER: genes 7 Torsion [C]-CA--CB-[CG1] |==|  0.91384
USER: genes 8 Torsion [CA]-CB--CG1-[CD1] |==|  0.61994
USER: genes 9 Torsion [C]-CA--N-[C] |==|  0.78245
USER: genes 10 Torsion [N]-C--CA-[N] |==|  0.74861
USER: genes 11 Torsion [C]-CA--CB-[CG] |==|  0.75724
USER: genes 12 Torsion [CA]-CB--CG-[OD1] |==|  0.78087
USER: genes 13 Torsion [C]-N--CA-[CB] |==|  0.35045
USER: genes 14 Torsion [N]-CA--CB-[CG] |==|  0.85982
USER: genes 15 Torsion [CA]-CB--CG-[CD1] |==|  0.83637
USER: genes 16 Torsion [N]-CA--C-[N] |==|  0.37768
USER: genes 17 Torsion [N]-CA--C-[O] |==|  0.97084
USER: genes 18 Torsion [C]-N--CA-[C] |==|  0.80882
USER: genes 19 Torsion [N]-CA--C-[O] |==|  0.93807
ROOT
ATOM      1  C   LEU G   4      39.170   5.988  22.540  1.00 61.38 LIG 0.24  C 
ATOM      2 O    LEU G   4      38.685   5.806  21.418  1.00 52.06 LIG-0.27  OA
ATOM      3  N   PHE G   5      40.134   5.259  23.074  1.00 60.80 LIG-0.35  N 
ATOM      4 H    PHE G   5      40.475   5.425  23.846  1.00 60.80 LIG 0.16  HD
ENDROOT
BRANCH 1 5
ATOM      5  CA  LEU G   4      38.662   7.072  23.443  1.00 58.56 LIG 0.18  C 
BRANCH 5 6
ATOM      6  CB  LEU G   4      37.372   6.572  24.087  1.00 61.47 LIG 0.04  C 
BRANCH 6 7
ATOM      7  CG  LEU G   4      36.639   7.617  24.900  1.00 62.80 LIG-0.02  C 
ATOM      8  CD1 LEU G   4      35.565   6.897  25.687  1.00 63.22 LIG 0.01  C 
ATOM      9  CD2 LEU G   4      37.648   8.329  25.800  1.00 64.86 LIG 0.01  C 
ENDBRANCH 6 7
ENDBRANCH 5 6
BRANCH 5 10
ATOM     10  N   LEU G   4      38.459   8.276  22.661  1.00 59.02 LIG-0.35  N 
ATOM     11 H    LEU G   4      37.660   8.595  22.687  1.00 59.02 LIG 0.16  HD
ATOM     12  C   ILE G   3      39.465   8.812  21.970  1.00 70.10 LIG 0.24  C 
ATOM     13 O    ILE G   3      40.652   8.453  22.133  1.00 64.55 LIG-0.27  OA
BRANCH 12 14
ATOM     14  CA  ILE G   3      39.085   9.916  20.947  1.00 67.83 LIG 0.18  C 
BRANCH 14 15
ATOM     15  CB  ILE G   3      38.287   9.316  19.746  1.00 66.94 LIG 0.01  C 
ATOM     16  CG2 ILE G   3      38.459  10.187  18.501  1.00 67.41 LIG 0.01  C 
BRANCH 15 17
ATOM     17  CG1 ILE G   3      38.703   7.851  19.437  1.00 59.79 LIG 0.00  C 
ATOM     18  CD1 ILE G   3      38.863   7.560  17.968  1.00 60.74 LIG 0.01  C 
ENDBRANCH 15 17
ENDBRANCH 14 15
BRANCH 14 19
ATOM     19  N   ILE G   3      40.285  10.596  20.485  1.00 79.60 LIG-0.34  N 
ATOM     20 H    ILE G   3      40.548  10.341  19.707  1.00 79.60 LIG 0.16  HD
ATOM     21  C   ASP G   2      40.921  11.528  21.200  1.00 93.07 LIG 0.26  C 
ATOM     22 O    ASP G   2      40.499  11.964  22.272  1.00 81.24 LIG-0.27  OA
BRANCH 21 23
ATOM     23  CA  ASP G   2      42.251  12.051  20.641  1.00 93.30 LIG 0.41  C 
ATOM     24  N   ASP G   2      43.354  11.208  21.183  1.00 94.60 LIG 0.61  N 
BRANCH 23 25
ATOM     25  CB  ASP G   2      42.281  12.039  19.106  1.00 96.36 LIG 0.16  C 
BRANCH 25 26
ATOM     26  CG  ASP G   2      42.751  10.715  18.543  1.00103.24 LIG 0.17  C 
ATOM     27 OD1  ASP G   2      43.971  10.462  18.530  1.00112.85 LIG-0.65  OA
ATOM     28 OD2  ASP G   2      41.901   9.918  18.118  1.00105.87 LIG-0.65  OA
ENDBRANCH 25 26
ENDBRANCH 23 25
ENDBRANCH 21 23
ENDBRANCH 14 19
ENDBRANCH 12 14
ENDBRANCH 5 10
ENDBRANCH 1 5
BRANCH 3 29
ATOM     29  CA  PHE G   5      40.713   4.117  22.425  1.00 70.05 LIG 0.18  C 
BRANCH 29 30
ATOM     30  CB  PHE G   5      42.247   4.256  22.345  1.00 73.20 LIG 0.07  C 
BRANCH 30 31
ATOM     31  CG  PHE G   5      42.691   5.594  21.774  1.00 79.36 LIG-0.06  A 
ATOM     32  CD1 PHE G   5      42.281   5.984  20.474  1.00 85.64 LIG 0.01  A 
ATOM     33  CE1 PHE G   5      42.661   7.206  19.935  1.00 88.71 LIG 0.00  A 
ATOM     34  CZ  PHE G   5      43.456   8.068  20.696  1.00 96.11 LIG 0.00  A 
ATOM     35  CE2 PHE G   5      43.859   7.705  21.991  1.00 91.53 LIG 0.00  A 
ATOM     36  CD2 PHE G   5      43.477   6.479  22.526  1.00 81.01 LIG 0.01  A 
ENDBRANCH 30 31
ENDBRANCH 29 30
BRANCH 29 37
ATOM     37  C   PHE G   5      40.237   2.903  23.214  1.00 74.26 LIG 0.24  C 
ATOM     38  N   PRO G   6      39.813   1.837  22.498  1.00 79.01 LIG-0.34  N 
ATOM     39  CD  PRO G   6      39.645   1.831  21.019  1.00 76.17 LIG 0.13  C 
ATOM     40  CA  PRO G   6      39.170   0.677  23.133  1.00 78.34 LIG 0.18  C 
ATOM     41  CG  PRO G   6      39.230   0.433  20.723  1.00 78.03 LIG 0.02  C 
ATOM     42  CB  PRO G   6      38.459   0.006  21.944  1.00 82.73 LIG 0.04  C 
ATOM     43 O    PHE G   5      40.164   2.963  24.447  1.00 61.78 LIG-0.27  OA
BRANCH 40 44
ATOM     44  C   PRO G   6      40.108  -0.335  23.828  1.00 77.34 LIG 0.24  C 
ATOM     45 O    PRO G   6      41.311  -0.239  23.657  1.00 92.50 LIG-0.27  OA
ATOM     46  N   ALA G   7      39.558  -1.287  24.596  1.00 74.20 LIG-0.35  N 
ATOM     47 H    ALA G   7      38.774  -1.220  24.943  1.00 74.20 LIG 0.16  HD
BRANCH 46 48
ATOM     48  CA  ALA G   7      40.254  -2.561  24.923  1.00 71.75 LIG 0.16  C 
ATOM     49  CB  ALA G   7      39.499  -3.316  26.016  1.00 70.01 LIG 0.04  C 
BRANCH 48 50
ATOM     50  C   ALA G   7      40.378  -3.437  23.656  1.00 69.94 LIG 0.22  C 
ATOM     51 O    ALA G   7      39.596  -3.266  22.686  1.00 56.97 LIG-0.29  OA
ENDBRANCH 48 50
ENDBRANCH 46 48
ENDBRANCH 40 44
ENDBRANCH 29 37
ENDBRANCH 3 29
TORSDOF 18
ENDMDL
