MODEL 1
USER: ADFR SOLUTION from run 158
USER: SCORE 17.366722 LL:  -4.053 LR: -13.502 RR:   0.000 FEB:  -7.536
USER: RMSD 4.791172
USER: SEED 157
USER: STATUS no improvement in best in 4 clusters for 5 generations
USER: GENES 22
USER: genes 0 Translation |==|  0.42311 0.49976 0.69294
USER: genes 1 Rotation |==|  0.43228 0.44350 0.44013 0.98851
USER: genes 2 Torsion [C]-CA--CB-[CG] |==|  0.06452
USER: genes 3 Torsion [CA]-CB--CG-[CD1] |==|  0.22234
USER: genes 4 Torsion [N]-CA--C-[N] |==|  0.33889
USER: genes 5 Torsion [N]-CA--C-[N] |==|  0.41617
USER: genes 6 Torsion [C]-N--CA-[C] |==|  0.82980
USER: genes 7 Torsion [N]-CA--C-[N] |==|  0.93091
USER: genes 8 Torsion [C]-N--CA-[CB] |==|  0.40705
USER: genes 9 Torsion [N]-CA--CB-[CG] |==|  0.75354
USER: genes 10 Torsion [CA]-CB--CG-[CD2] |==|  0.47086
USER: genes 11 Torsion [N]-CA--C-[O] |==|  0.96700
USER: genes 12 Torsion [N]-CA--CB-[CG] |==|  0.99851
USER: genes 13 Torsion [CA]-CB--CG-[CD2] |==|  0.73533
USER: genes 14 Torsion [CB]-CA--N-[C] |==|  0.82986
USER: genes 15 Torsion [N]-C--CA-[N] |==|  0.46214
USER: genes 16 Torsion [C]-CA--CB-[CG] |==|  0.25438
USER: genes 17 Torsion [CA]-CB--CG-[CD] |==|  0.74251
USER: genes 18 Torsion [CB]-CG--CD-[NE] |==|  0.50497
USER: genes 19 Torsion [CG]-CD--NE-[HE] |==|  0.66437
USER: genes 20 Torsion [C]-CA--N-[C] |==|  0.75636
USER: genes 21 Torsion [N]-C--CA-[CB] |==|  0.60881
ROOT
ATOM      1  CA  LEU G   4      38.604   4.664  27.180  1.00 72.45 LIG 0.18  C 
ENDROOT
BRANCH 1 2
ATOM      2  CB  LEU G   4      39.890   5.208  27.855  1.00 74.60 LIG 0.04  C 
BRANCH 2 3
ATOM      3  CG  LEU G   4      40.313   6.641  27.389  1.00 80.94 LIG-0.02  C 
ATOM      4  CD2 LEU G   4      41.822   6.920  27.515  1.00 76.26 LIG 0.01  C 
ATOM      5  CD1 LEU G   4      39.496   7.731  28.095  1.00 74.38 LIG 0.01  C 
ENDBRANCH 2 3
ENDBRANCH 1 2
BRANCH 1 6
ATOM      6  C   LEU G   4      38.291   5.329  25.809  1.00 69.99 LIG 0.24  C 
ATOM      7 O    LEU G   4      38.942   5.035  24.763  1.00 62.75 LIG-0.27  OA
ATOM      8  N   PRO G   5      37.233   6.180  25.798  1.00 68.53 LIG-0.34  N 
ATOM      9  CA  PRO G   5      36.956   6.889  24.564  1.00 66.41 LIG 0.18  C 
ATOM     10  CD  PRO G   5      36.171   6.414  26.807  1.00 67.94 LIG 0.13  C 
ATOM     11  CB  PRO G   5      35.657   7.671  24.887  1.00 68.06 LIG 0.04  C 
ATOM     12  CG  PRO G   5      35.000   6.877  25.974  1.00 67.97 LIG 0.02  C 
BRANCH 9 13
ATOM     13  C   PRO G   5      38.144   7.793  24.219  1.00 65.16 LIG 0.24  C 
ATOM     14  N   LEU G   6      38.373   8.023  22.931  1.00 58.40 LIG-0.35  N 
ATOM     15 H    LEU G   6      37.827   7.823  22.298  1.00 58.40 LIG 0.16  HD
ATOM     16 O    PRO G   5      38.851   8.270  25.124  1.00 57.12 LIG-0.27  OA
BRANCH 14 17
ATOM     17  CA  LEU G   6      39.614   8.656  22.492  1.00 60.31 LIG 0.18  C 
BRANCH 17 18
ATOM     18  C   LEU G   6      39.842  10.064  23.036  1.00 60.34 LIG 0.24  C 
ATOM     19 O    LEU G   6      40.989  10.459  23.147  1.00 72.64 LIG-0.27  OA
ATOM     20  N   LEU G   7      38.787  10.803  23.405  1.00 65.91 LIG-0.35  N 
ATOM     21 H    LEU G   7      37.983  10.501  23.448  1.00 65.91 LIG 0.16  HD
BRANCH 20 22
ATOM     22  CA  LEU G   7      38.923  12.254  23.783  1.00 66.14 LIG 0.16  C 
BRANCH 22 23
ATOM     23  CB  LEU G   7      37.666  13.039  23.362  1.00 64.61 LIG 0.04  C 
BRANCH 23 24
ATOM     24  CG  LEU G   7      37.612  13.651  21.948  1.00 68.76 LIG-0.02  C 
ATOM     25  CD2 LEU G   7      36.196  14.167  21.613  1.00 64.31 LIG 0.01  C 
ATOM     26  CD1 LEU G   7      38.159  12.694  20.883  1.00 66.72 LIG 0.01  C 
ENDBRANCH 23 24
ENDBRANCH 22 23
BRANCH 22 27
ATOM     27  C   LEU G   7      39.229  12.492  25.267  1.00 59.22 LIG 0.22  C 
ATOM     28 O    LEU G   7      39.125  11.563  26.055  1.00 55.72 LIG-0.29  OA
ENDBRANCH 22 27
ENDBRANCH 20 22
ENDBRANCH 17 18
BRANCH 17 29
ATOM     29  CB  LEU G   6      39.740   8.610  20.949  1.00 54.67 LIG 0.04  C 
BRANCH 29 30
ATOM     30  CG  LEU G   6      38.499   7.888  20.376  1.00 53.09 LIG-0.02  C 
ATOM     31  CD1 LEU G   6      38.016   8.607  19.144  1.00 49.97 LIG 0.01  C 
ATOM     32  CD2 LEU G   6      38.742   6.397  20.127  1.00 51.63 LIG 0.01  C 
ENDBRANCH 29 30
ENDBRANCH 17 29
ENDBRANCH 14 17
ENDBRANCH 9 13
ENDBRANCH 1 6
BRANCH 1 33
ATOM     33  N   LEU G   4      38.571   3.194  27.124  1.00 70.21 LIG-0.35  N 
ATOM     34  C   ARG G   3      39.510   2.519  26.452  1.00 75.48 LIG 0.24  C 
ATOM     35 O    ARG G   3      40.404   3.114  25.788  1.00 65.52 LIG-0.27  OA
ATOM     36 H    LEU G   4      37.917   2.830  27.548  1.00 70.21 LIG 0.16  HD
BRANCH 34 37
ATOM     37  CA  ARG G   3      39.425   0.947  26.495  1.00 78.48 LIG 0.18  C 
BRANCH 37 38
ATOM     38  CB  ARG G   3      39.741   0.392  27.901  1.00 76.51 LIG 0.04  C 
BRANCH 38 39
ATOM     39  CG  ARG G   3      38.535   0.206  28.808  1.00 78.92 LIG 0.02  C 
BRANCH 39 40
ATOM     40  CD  ARG G   3      38.276   1.433  29.687  1.00 76.70 LIG 0.14  C 
BRANCH 40 41
ATOM     41  NE  ARG G   3      37.133   1.294  30.626  1.00 80.12 LIG-0.23  N 
ATOM     42 HE   ARG G   3      36.496   1.866  30.545  1.00 80.12 LIG 0.18  HD
ATOM     43  CZ  ARG G   3      36.992   0.363  31.593  1.00 82.69 LIG 0.67  C 
ATOM     44  NH1 ARG G   3      37.926  -0.563  31.865  1.00 73.81 LIG-0.23  N 
ATOM     45  NH2 ARG G   3      35.889   0.373  32.334  1.00 84.58 LIG-0.23  N 
ATOM     46 1HH1 ARG G   3      38.658  -0.581  31.414  1.00 73.81 LIG 0.17  HD
ATOM     47 2HH1 ARG G   3      37.793  -1.138  32.491  1.00 73.81 LIG 0.17  HD
ATOM     48 2HH2 ARG G   3      35.783  -0.213  32.955  1.00 84.58 LIG 0.17  HD
ATOM     49 1HH2 ARG G   3      35.282   0.965  32.194  1.00 84.58 LIG 0.17  HD
ENDBRANCH 40 41
ENDBRANCH 39 40
ENDBRANCH 38 39
ENDBRANCH 37 38
BRANCH 37 50
ATOM     50  N   ARG G   3      40.295   0.294  25.474  1.00 95.22 LIG-0.35  N 
ATOM     51  C   PRO G   2      39.895   0.037  24.217  1.00105.18 LIG 0.25  C 
ATOM     52 O    PRO G   2      38.737   0.241  23.833  1.00111.30 LIG-0.27  OA
ATOM     53 H    ARG G   3      41.080   0.097  25.767  1.00 95.22 LIG 0.16  HD
BRANCH 51 54
ATOM     54  CA  PRO G   2      40.946  -0.551  23.223  1.00104.44 LIG 0.35  C 
ATOM     55  N   PRO G   2      40.800  -1.990  22.968  1.00103.34 LIG 0.32  N 
ATOM     56  CD  PRO G   2      41.167  -2.348  21.578  1.00102.42 LIG 0.32  C 
ATOM     57  CG  PRO G   2      41.284  -1.011  20.869  1.00 98.38 LIG 0.04  C 
ATOM     58  CB  PRO G   2      40.792   0.058  21.814  1.00102.80 LIG 0.05  C 
ENDBRANCH 51 54
ENDBRANCH 37 50
ENDBRANCH 34 37
ENDBRANCH 1 33
TORSDOF 20
ENDMDL
MODEL 2
USER: ADFR SOLUTION from run 197
USER: SCORE 17.416564 LL:  -4.195 LR: -13.289 RR:   0.000 FEB:  -7.323
USER: RMSD 2.555736
USER: SEED 196
USER: STATUS no improvement in best in 7 clusters for 5 generations
USER: GENES 22
USER: genes 0 Translation |==|  0.43086 0.49723 0.68421
USER: genes 1 Rotation |==|  0.45175 0.43640 0.46231 0.99215
USER: genes 2 Torsion [C]-CA--CB-[CG] |==|  0.05909
USER: genes 3 Torsion [CA]-CB--CG-[CD1] |==|  0.23874
USER: genes 4 Torsion [N]-CA--C-[N] |==|  0.35626
USER: genes 5 Torsion [N]-CA--C-[N] |==|  0.41654
USER: genes 6 Torsion [C]-N--CA-[C] |==|  0.82478
USER: genes 7 Torsion [N]-CA--C-[N] |==|  0.92425
USER: genes 8 Torsion [C]-N--CA-[CB] |==|  0.41906
USER: genes 9 Torsion [N]-CA--CB-[CG] |==|  0.74870
USER: genes 10 Torsion [CA]-CB--CG-[CD2] |==|  0.46943
USER: genes 11 Torsion [N]-CA--C-[O] |==|  0.95565
USER: genes 12 Torsion [N]-CA--CB-[CG] |==|  0.99718
USER: genes 13 Torsion [CA]-CB--CG-[CD2] |==|  0.72696
USER: genes 14 Torsion [CB]-CA--N-[C] |==|  0.82589
USER: genes 15 Torsion [N]-C--CA-[N] |==|  0.95069
USER: genes 16 Torsion [C]-CA--CB-[CG] |==|  0.16391
USER: genes 17 Torsion [CA]-CB--CG-[CD] |==|  0.52497
USER: genes 18 Torsion [CB]-CG--CD-[NE] |==|  0.59741
USER: genes 19 Torsion [CG]-CD--NE-[HE] |==|  0.02599
USER: genes 20 Torsion [C]-CA--N-[C] |==|  0.82778
USER: genes 21 Torsion [N]-C--CA-[CB] |==|  0.70695
ROOT
ATOM      1  CA  LEU G   4      38.732   4.592  27.010  1.00 72.45 LIG 0.18  C 
ENDROOT
BRANCH 1 2
ATOM      2  CB  LEU G   4      39.942   5.216  27.752  1.00 74.60 LIG 0.04  C 
BRANCH 2 3
ATOM      3  CG  LEU G   4      40.256   6.698  27.353  1.00 80.94 LIG-0.02  C 
ATOM      4  CD2 LEU G   4      41.752   7.056  27.409  1.00 76.26 LIG 0.01  C 
ATOM      5  CD1 LEU G   4      39.425   7.693  28.173  1.00 74.38 LIG 0.01  C 
ENDBRANCH 2 3
ENDBRANCH 1 2
BRANCH 1 6
ATOM      6  C   LEU G   4      38.380   5.311  25.676  1.00 69.99 LIG 0.24  C 
ATOM      7 O    LEU G   4      39.006   5.065  24.602  1.00 62.75 LIG-0.27  OA
ATOM      8  N   PRO G   5      37.318   6.154  25.727  1.00 68.53 LIG-0.34  N 
ATOM      9  CA  PRO G   5      37.006   6.912  24.530  1.00 66.41 LIG 0.18  C 
ATOM     10  CD  PRO G   5      36.281   6.339  26.770  1.00 67.94 LIG 0.13  C 
ATOM     11  CB  PRO G   5      35.710   7.671  24.918  1.00 68.06 LIG 0.04  C 
ATOM     12  CG  PRO G   5      35.086   6.828  25.987  1.00 67.97 LIG 0.02  C 
BRANCH 9 13
ATOM     13  C   PRO G   5      38.180   7.837  24.193  1.00 65.16 LIG 0.24  C 
ATOM     14  N   LEU G   6      38.373   8.124  22.911  1.00 58.40 LIG-0.35  N 
ATOM     15 H    LEU G   6      37.812   7.948  22.284  1.00 58.40 LIG 0.16  HD
ATOM     16 O    PRO G   5      38.908   8.280  25.099  1.00 57.12 LIG-0.27  OA
BRANCH 14 17
ATOM     17  CA  LEU G   6      39.599   8.783  22.467  1.00 60.31 LIG 0.18  C 
BRANCH 17 18
ATOM     18  C   LEU G   6      39.812  10.185  23.031  1.00 60.34 LIG 0.24  C 
ATOM     19 O    LEU G   6      40.956  10.579  23.177  1.00 72.64 LIG-0.27  OA
ATOM     20  N   LEU G   7      38.748  10.921  23.381  1.00 65.91 LIG-0.35  N 
ATOM     21 H    LEU G   7      37.943  10.618  23.400  1.00 65.91 LIG 0.16  HD
BRANCH 20 22
ATOM     22  CA  LEU G   7      38.873  12.368  23.777  1.00 66.14 LIG 0.16  C 
BRANCH 22 23
ATOM     23  CB  LEU G   7      37.583  13.134  23.429  1.00 64.61 LIG 0.04  C 
BRANCH 23 24
ATOM     24  CG  LEU G   7      37.469  13.803  22.045  1.00 68.76 LIG-0.02  C 
ATOM     25  CD2 LEU G   7      36.026  14.281  21.770  1.00 64.31 LIG 0.01  C 
ATOM     26  CD1 LEU G   7      38.018  12.912  20.925  1.00 66.72 LIG 0.01  C 
ENDBRANCH 23 24
ENDBRANCH 22 23
BRANCH 22 27
ATOM     27  C   LEU G   7      39.245  12.586  25.249  1.00 59.22 LIG 0.22  C 
ATOM     28 O    LEU G   7      39.123  11.663  26.040  1.00 55.72 LIG-0.29  OA
ENDBRANCH 22 27
ENDBRANCH 20 22
ENDBRANCH 17 18
BRANCH 17 29
ATOM     29  CB  LEU G   6      39.705   8.764  20.922  1.00 54.67 LIG 0.04  C 
BRANCH 29 30
ATOM     30  CG  LEU G   6      38.474   8.022  20.353  1.00 53.09 LIG-0.02  C 
ATOM     31  CD1 LEU G   6      37.915   8.789  19.183  1.00 49.97 LIG 0.01  C 
ATOM     32  CD2 LEU G   6      38.770   6.561  20.008  1.00 51.63 LIG 0.01  C 
ENDBRANCH 29 30
ENDBRANCH 17 29
ENDBRANCH 14 17
ENDBRANCH 9 13
ENDBRANCH 1 6
BRANCH 1 33
ATOM     33  N   LEU G   4      38.849   3.133  26.860  1.00 70.21 LIG-0.35  N 
ATOM     34  C   ARG G   3      39.850   2.602  26.148  1.00 75.48 LIG 0.24  C 
ATOM     35 O    ARG G   3      40.675   3.327  25.525  1.00 65.52 LIG-0.27  OA
ATOM     36 H    LEU G   4      38.239   2.677  27.258  1.00 70.21 LIG 0.16  HD
BRANCH 34 37
ATOM     37  CA  ARG G   3      39.926   1.030  26.090  1.00 78.48 LIG 0.18  C 
BRANCH 37 38
ATOM     38  CB  ARG G   3      39.504   0.484  24.709  1.00 76.51 LIG 0.04  C 
BRANCH 38 39
ATOM     39  CG  ARG G   3      40.333   0.986  23.536  1.00 78.92 LIG 0.02  C 
BRANCH 39 40
ATOM     40  CD  ARG G   3      39.731   0.585  22.186  1.00 76.70 LIG 0.14  C 
BRANCH 40 41
ATOM     41  NE  ARG G   3      40.727   0.278  21.129  1.00 80.12 LIG-0.23  N 
ATOM     42 HE   ARG G   3      41.548   0.225  21.376  1.00 80.12 LIG 0.18  HD
ATOM     43  CZ  ARG G   3      40.476   0.074  19.818  1.00 82.69 LIG 0.67  C 
ATOM     44  NH1 ARG G   3      39.248   0.171  19.280  1.00 73.81 LIG-0.23  N 
ATOM     45  NH2 ARG G   3      41.490  -0.211  19.009  1.00 84.58 LIG-0.23  N 
ATOM     46 1HH1 ARG G   3      38.576   0.372  19.777  1.00 73.81 LIG 0.17  HD
ATOM     47 2HH1 ARG G   3      39.135   0.032  18.439  1.00 73.81 LIG 0.17  HD
ATOM     48 2HH2 ARG G   3      41.348  -0.343  18.171  1.00 84.58 LIG 0.17  HD
ATOM     49 1HH2 ARG G   3      42.289  -0.262  19.323  1.00 84.58 LIG 0.17  HD
ENDBRANCH 40 41
ENDBRANCH 39 40
ENDBRANCH 38 39
ENDBRANCH 37 38
BRANCH 37 50
ATOM     50  N   ARG G   3      39.130   0.374  27.169  1.00 95.22 LIG-0.35  N 
ATOM     51  C   PRO G   2      39.384   0.540  28.479  1.00105.18 LIG 0.25  C 
ATOM     52 O    PRO G   2      40.358   1.180  28.892  1.00111.30 LIG-0.27  OA
ATOM     53 H    ARG G   3      38.492  -0.121  26.873  1.00 95.22 LIG 0.16  HD
BRANCH 51 54
ATOM     54  CA  PRO G   2      38.404  -0.119  29.500  1.00104.44 LIG 0.35  C 
ATOM     55  N   PRO G   2      39.062  -0.744  30.654  1.00103.34 LIG 0.32  N 
ATOM     56  CD  PRO G   2      38.250  -0.625  31.888  1.00102.42 LIG 0.32  C 
ATOM     57  CG  PRO G   2      37.160   0.365  31.522  1.00 98.38 LIG 0.04  C 
ATOM     58  CB  PRO G   2      37.490   0.933  30.162  1.00102.80 LIG 0.05  C 
ENDBRANCH 51 54
ENDBRANCH 37 50
ENDBRANCH 34 37
ENDBRANCH 1 33
TORSDOF 20
ENDMDL
MODEL 3
USER: ADFR SOLUTION from run 161
USER: SCORE 17.006743 LL:  -4.007 LR: -13.068 RR:   0.000 FEB:  -7.102
USER: RMSD 3.737255
USER: SEED 160
USER: STATUS no improvement in best in 5 clusters for 5 generations
USER: GENES 22
USER: genes 0 Translation |==|  0.42693 0.50143 0.69251
USER: genes 1 Rotation |==|  0.44050 0.43330 0.45950 0.99028
USER: genes 2 Torsion [C]-CA--CB-[CG] |==|  0.06375
USER: genes 3 Torsion [CA]-CB--CG-[CD1] |==|  0.23019
USER: genes 4 Torsion [N]-CA--C-[N] |==|  0.35098
USER: genes 5 Torsion [N]-CA--C-[N] |==|  0.41614
USER: genes 6 Torsion [C]-N--CA-[C] |==|  0.83253
USER: genes 7 Torsion [N]-CA--C-[N] |==|  0.91997
USER: genes 8 Torsion [C]-N--CA-[CB] |==|  0.42225
USER: genes 9 Torsion [N]-CA--CB-[CG] |==|  0.74858
USER: genes 10 Torsion [CA]-CB--CG-[CD2] |==|  0.46887
USER: genes 11 Torsion [N]-CA--C-[O] |==|  0.95929
USER: genes 12 Torsion [N]-CA--CB-[CG] |==|  0.99849
USER: genes 13 Torsion [CA]-CB--CG-[CD2] |==|  0.72030
USER: genes 14 Torsion [CB]-CA--N-[C] |==|  0.83585
USER: genes 15 Torsion [N]-C--CA-[N] |==|  0.95352
USER: genes 16 Torsion [C]-CA--CB-[CG] |==|  0.33600
USER: genes 17 Torsion [CA]-CB--CG-[CD] |==|  0.28703
USER: genes 18 Torsion [CB]-CG--CD-[NE] |==|  0.97202
USER: genes 19 Torsion [CG]-CD--NE-[HE] |==|  0.15674
USER: genes 20 Torsion [C]-CA--N-[C] |==|  0.81946
USER: genes 21 Torsion [N]-C--CA-[CB] |==|  0.68003
ROOT
ATOM      1  CA  LEU G   4      38.667   4.712  27.172  1.00 72.45 LIG 0.18  C 
ENDROOT
BRANCH 1 2
ATOM      2  CB  LEU G   4      39.879   5.349  27.899  1.00 74.60 LIG 0.04  C 
BRANCH 2 3
ATOM      3  CG  LEU G   4      40.197   6.821  27.468  1.00 80.94 LIG-0.02  C 
ATOM      4  CD2 LEU G   4      41.684   7.200  27.586  1.00 76.26 LIG 0.01  C 
ATOM      5  CD1 LEU G   4      39.314   7.831  28.212  1.00 74.38 LIG 0.01  C 
ENDBRANCH 2 3
ENDBRANCH 1 2
BRANCH 1 6
ATOM      6  C   LEU G   4      38.341   5.375  25.803  1.00 69.99 LIG 0.24  C 
ATOM      7 O    LEU G   4      38.998   5.098  24.756  1.00 62.75 LIG-0.27  OA
ATOM      8  N   PRO G   5      37.267   6.207  25.795  1.00 68.53 LIG-0.34  N 
ATOM      9  CA  PRO G   5      36.978   6.915  24.564  1.00 66.41 LIG 0.18  C 
ATOM     10  CD  PRO G   5      36.202   6.417  26.805  1.00 67.94 LIG 0.13  C 
ATOM     11  CB  PRO G   5      35.663   7.671  24.890  1.00 68.06 LIG 0.04  C 
ATOM     12  CG  PRO G   5      35.022   6.860  25.974  1.00 67.97 LIG 0.02  C 
BRANCH 9 13
ATOM     13  C   PRO G   5      38.148   7.843  24.222  1.00 65.16 LIG 0.24  C 
ATOM     14  N   LEU G   6      38.373   8.082  22.936  1.00 58.40 LIG-0.35  N 
ATOM     15 H    LEU G   6      37.831   7.873  22.301  1.00 58.40 LIG 0.16  HD
ATOM     16 O    PRO G   5      38.846   8.330  25.129  1.00 57.12 LIG-0.27  OA
BRANCH 14 17
ATOM     17  CA  LEU G   6      39.602   8.739  22.499  1.00 60.31 LIG 0.18  C 
BRANCH 17 18
ATOM     18  C   LEU G   6      39.814  10.140  23.067  1.00 60.34 LIG 0.24  C 
ATOM     19 O    LEU G   6      40.958  10.521  23.245  1.00 72.64 LIG-0.27  OA
ATOM     20  N   LEU G   7      38.749  10.889  23.383  1.00 65.91 LIG-0.35  N 
ATOM     21 H    LEU G   7      37.940  10.595  23.379  1.00 65.91 LIG 0.16  HD
BRANCH 20 22
ATOM     22  CA  LEU G   7      38.879  12.335  23.780  1.00 66.14 LIG 0.16  C 
BRANCH 22 23
ATOM     23  CB  LEU G   7      37.597  13.109  23.418  1.00 64.61 LIG 0.04  C 
BRANCH 23 24
ATOM     24  CG  LEU G   7      37.502  13.779  22.033  1.00 68.76 LIG-0.02  C 
ATOM     25  CD2 LEU G   7      36.064  14.262  21.740  1.00 64.31 LIG 0.01  C 
ATOM     26  CD1 LEU G   7      38.062  12.887  20.920  1.00 66.72 LIG 0.01  C 
ENDBRANCH 23 24
ENDBRANCH 22 23
BRANCH 22 27
ATOM     27  C   LEU G   7      39.236  12.552  25.256  1.00 59.22 LIG 0.22  C 
ATOM     28 O    LEU G   7      39.123  11.623  26.041  1.00 55.72 LIG-0.29  OA
ENDBRANCH 22 27
ENDBRANCH 20 22
ENDBRANCH 17 18
BRANCH 17 29
ATOM     29  CB  LEU G   6      39.716   8.723  20.954  1.00 54.67 LIG 0.04  C 
BRANCH 29 30
ATOM     30  CG  LEU G   6      38.481   7.995  20.377  1.00 53.09 LIG-0.02  C 
ATOM     31  CD1 LEU G   6      37.900   8.798  19.244  1.00 49.97 LIG 0.01  C 
ATOM     32  CD2 LEU G   6      38.780   6.548  19.976  1.00 51.63 LIG 0.01  C 
ENDBRANCH 29 30
ENDBRANCH 17 29
ENDBRANCH 14 17
ENDBRANCH 9 13
ENDBRANCH 1 6
BRANCH 1 33
ATOM     33  N   LEU G   4      38.762   3.246  27.088  1.00 70.21 LIG-0.35  N 
ATOM     34  C   ARG G   3      39.800   2.667  26.473  1.00 75.48 LIG 0.24  C 
ATOM     35 O    ARG G   3      40.684   3.349  25.884  1.00 65.52 LIG-0.27  OA
ATOM     36 H    LEU G   4      38.114   2.819  27.458  1.00 70.21 LIG 0.16  HD
BRANCH 34 37
ATOM     37  CA  ARG G   3      39.844   1.092  26.483  1.00 78.48 LIG 0.18  C 
BRANCH 37 38
ATOM     38  CB  ARG G   3      39.536   0.500  25.090  1.00 76.51 LIG 0.04  C 
BRANCH 38 39
ATOM     39  CG  ARG G   3      40.636  -0.371  24.502  1.00 78.92 LIG 0.02  C 
BRANCH 39 40
ATOM     40  CD  ARG G   3      40.313  -1.864  24.608  1.00 76.70 LIG 0.14  C 
BRANCH 40 41
ATOM     41  NE  ARG G   3      39.136  -2.186  25.454  1.00 80.12 LIG-0.23  N 
ATOM     42 HE   ARG G   3      38.393  -1.811  25.241  1.00 80.12 LIG 0.18  HD
ATOM     43  CZ  ARG G   3      39.112  -3.009  26.524  1.00 82.69 LIG 0.67  C 
ATOM     44  NH1 ARG G   3      40.205  -3.628  27.001  1.00 73.81 LIG-0.23  N 
ATOM     45  NH2 ARG G   3      37.960  -3.200  27.158  1.00 84.58 LIG-0.23  N 
ATOM     46 1HH1 ARG G   3      40.967  -3.508  26.621  1.00 73.81 LIG 0.17  HD
ATOM     47 2HH1 ARG G   3      40.142  -4.144  27.686  1.00 73.81 LIG 0.17  HD
ATOM     48 2HH2 ARG G   3      37.928  -3.721  27.842  1.00 84.58 LIG 0.17  HD
ATOM     49 1HH2 ARG G   3      37.248  -2.803  26.886  1.00 84.58 LIG 0.17  HD
ENDBRANCH 40 41
ENDBRANCH 39 40
ENDBRANCH 38 39
ENDBRANCH 37 38
BRANCH 37 50
ATOM     50  N   ARG G   3      38.939   0.496  27.509  1.00 95.22 LIG-0.35  N 
ATOM     51  C   PRO G   2      39.112   0.662  28.832  1.00105.18 LIG 0.25  C 
ATOM     52 O    PRO G   2      40.091   1.250  29.306  1.00111.30 LIG-0.27  OA
ATOM     53 H    ARG G   3      38.295   0.036  27.173  1.00 95.22 LIG 0.16  HD
BRANCH 51 54
ATOM     54  CA  PRO G   2      38.027   0.073  29.787  1.00104.44 LIG 0.35  C 
ATOM     55  N   PRO G   2      38.562  -0.766  30.867  1.00103.34 LIG 0.32  N 
ATOM     56  CD  PRO G   2      37.770  -0.641  32.113  1.00102.42 LIG 0.32  C 
ATOM     57  CG  PRO G   2      36.860   0.546  31.857  1.00 98.38 LIG 0.04  C 
ATOM     58  CB  PRO G   2      37.292   1.187  30.560  1.00102.80 LIG 0.05  C 
ENDBRANCH 51 54
ENDBRANCH 37 50
ENDBRANCH 34 37
ENDBRANCH 1 33
TORSDOF 20
ENDMDL
MODEL 4
USER: ADFR SOLUTION from run 31
USER: SCORE 15.148340 LL:  -3.927 LR: -12.974 RR:   0.000 FEB:  -7.008
USER: RMSD 1.312419
USER: SEED 30
USER: STATUS no improvement in best in 6 clusters for 5 generations
USER: GENES 22
USER: genes 0 Translation |==|  0.52423 0.47196 0.58316
USER: genes 1 Rotation |==|  0.54349 0.51902 0.47407 0.99707
USER: genes 2 Torsion [C]-CA--CB-[CG] |==|  0.30899
USER: genes 3 Torsion [CA]-CB--CG-[CD1] |==|  0.67886
USER: genes 4 Torsion [N]-CA--C-[N] |==|  0.37195
USER: genes 5 Torsion [N]-CA--C-[N] |==|  0.42685
USER: genes 6 Torsion [C]-N--CA-[C] |==|  0.74812
USER: genes 7 Torsion [N]-CA--C-[N] |==|  0.96357
USER: genes 8 Torsion [C]-N--CA-[CB] |==|  0.36788
USER: genes 9 Torsion [N]-CA--CB-[CG] |==|  0.74518
USER: genes 10 Torsion [CA]-CB--CG-[CD2] |==|  0.46349
USER: genes 11 Torsion [N]-CA--C-[O] |==|  0.92558
USER: genes 12 Torsion [N]-CA--CB-[CG] |==|  0.98232
USER: genes 13 Torsion [CA]-CB--CG-[CD2] |==|  0.76615
USER: genes 14 Torsion [CB]-CA--N-[C] |==|  0.29287
USER: genes 15 Torsion [N]-C--CA-[N] |==|  0.48972
USER: genes 16 Torsion [C]-CA--CB-[CG] |==|  0.35294
USER: genes 17 Torsion [CA]-CB--CG-[CD] |==|  0.56958
USER: genes 18 Torsion [CB]-CG--CD-[NE] |==|  0.50911
USER: genes 19 Torsion [CG]-CD--NE-[HE] |==|  0.32341
USER: genes 20 Torsion [C]-CA--N-[C] |==|  0.51667
USER: genes 21 Torsion [N]-C--CA-[CB] |==|  0.98296
ROOT
ATOM      1  CA  LEU G   4      40.273   3.872  25.040  1.00 72.45 LIG 0.18  C 
ENDROOT
BRANCH 1 2
ATOM      2  CB  LEU G   4      41.650   4.326  25.587  1.00 74.60 LIG 0.04  C 
BRANCH 2 3
ATOM      3  CG  LEU G   4      41.717   4.469  27.145  1.00 80.94 LIG-0.02  C 
ATOM      4  CD2 LEU G   4      40.498   3.884  27.880  1.00 76.26 LIG 0.01  C 
ATOM      5  CD1 LEU G   4      41.965   5.922  27.570  1.00 74.38 LIG 0.01  C 
ENDBRANCH 2 3
ENDBRANCH 1 2
BRANCH 1 6
ATOM      6  C   LEU G   4      39.526   4.976  24.237  1.00 69.99 LIG 0.24  C 
ATOM      7 O    LEU G   4      39.717   5.141  22.996  1.00 62.75 LIG-0.27  OA
ATOM      8  N   PRO G   5      38.611   5.693  24.938  1.00 68.53 LIG-0.34  N 
ATOM      9  CA  PRO G   5      37.953   6.790  24.255  1.00 66.41 LIG 0.18  C 
ATOM     10  CD  PRO G   5      38.022   5.459  26.279  1.00 67.94 LIG 0.13  C 
ATOM     11  CB  PRO G   5      36.932   7.301  25.305  1.00 68.06 LIG 0.04  C 
ATOM     12  CG  PRO G   5      36.665   6.115  26.180  1.00 67.97 LIG 0.02  C 
BRANCH 9 13
ATOM     13  C   PRO G   5      38.995   7.839  23.854  1.00 65.16 LIG 0.24  C 
ATOM     14  N   LEU G   6      38.711   8.601  22.805  1.00 58.40 LIG-0.35  N 
ATOM     15 H    LEU G   6      37.938   8.645  22.432  1.00 58.40 LIG 0.16  HD
ATOM     16 O    PRO G   5      40.056   7.944  24.495  1.00 57.12 LIG-0.27  OA
BRANCH 14 17
ATOM     17  CA  LEU G   6      39.734   9.448  22.195  1.00 60.31 LIG 0.18  C 
BRANCH 17 18
ATOM     18  C   LEU G   6      39.819  10.860  22.766  1.00 60.34 LIG 0.24  C 
ATOM     19 O    LEU G   6      40.809  11.524  22.512  1.00 72.64 LIG-0.27  OA
ATOM     20  N   LEU G   7      38.833  11.312  23.552  1.00 65.91 LIG-0.35  N 
ATOM     21 H    LEU G   7      38.189  10.820  23.841  1.00 65.91 LIG 0.16  HD
BRANCH 20 22
ATOM     22  CA  LEU G   7      38.766  12.746  24.005  1.00 66.14 LIG 0.16  C 
BRANCH 22 23
ATOM     23  CB  LEU G   7      37.348  13.310  23.795  1.00 64.61 LIG 0.04  C 
BRANCH 23 24
ATOM     24  CG  LEU G   7      37.023  14.026  22.469  1.00 68.76 LIG-0.02  C 
ATOM     25  CD2 LEU G   7      35.502  14.230  22.299  1.00 64.31 LIG 0.01  C 
ATOM     26  CD1 LEU G   7      37.663  13.327  21.264  1.00 66.72 LIG 0.01  C 
ENDBRANCH 23 24
ENDBRANCH 22 23
BRANCH 22 27
ATOM     27  C   LEU G   7      39.222  12.970  25.452  1.00 59.22 LIG 0.22  C 
ATOM     28 O    LEU G   7      39.123  12.057  26.258  1.00 55.72 LIG-0.29  OA
ENDBRANCH 22 27
ENDBRANCH 20 22
ENDBRANCH 17 18
BRANCH 17 29
ATOM     29  CB  LEU G   6      39.588   9.461  20.653  1.00 54.67 LIG 0.04  C 
BRANCH 29 30
ATOM     30  CG  LEU G   6      38.500   8.439  20.252  1.00 53.09 LIG-0.02  C 
ATOM     31  CD1 LEU G   6      37.809   8.899  18.995  1.00 49.97 LIG 0.01  C 
ATOM     32  CD2 LEU G   6      39.040   7.012  20.136  1.00 51.63 LIG 0.01  C 
ENDBRANCH 29 30
ENDBRANCH 17 29
ENDBRANCH 14 17
ENDBRANCH 9 13
ENDBRANCH 1 6
BRANCH 1 33
ATOM     33  N   LEU G   4      40.342   2.591  24.320  1.00 70.21 LIG-0.35  N 
ATOM     34  C   ARG G   3      39.874   1.470  24.883  1.00 75.48 LIG 0.24  C 
ATOM     35 O    ARG G   3      39.431   1.459  26.065  1.00 65.52 LIG-0.27  OA
ATOM     36 H    LEU G   4      40.696   2.632  23.538  1.00 70.21 LIG 0.16  HD
BRANCH 34 37
ATOM     37  CA  ARG G   3      39.939   0.157  24.015  1.00 78.48 LIG 0.18  C 
BRANCH 37 38
ATOM     38  CB  ARG G   3      39.154   0.302  22.693  1.00 76.51 LIG 0.04  C 
BRANCH 38 39
ATOM     39  CG  ARG G   3      39.938  -0.041  21.436  1.00 78.92 LIG 0.02  C 
BRANCH 39 40
ATOM     40  CD  ARG G   3      39.386   0.668  20.196  1.00 76.70 LIG 0.14  C 
BRANCH 40 41
ATOM     41  NE  ARG G   3      40.064   0.313  18.924  1.00 80.12 LIG-0.23  N 
ATOM     42 HE   ARG G   3      39.586  -0.082  18.329  1.00 80.12 LIG 0.18  HD
ATOM     43  CZ  ARG G   3      41.355   0.546  18.605  1.00 82.69 LIG 0.67  C 
ATOM     44  NH1 ARG G   3      42.231   1.111  19.452  1.00 73.81 LIG-0.23  N 
ATOM     45  NH2 ARG G   3      41.795   0.177  17.407  1.00 84.58 LIG-0.23  N 
ATOM     46 1HH1 ARG G   3      41.979   1.344  20.241  1.00 73.81 LIG 0.17  HD
ATOM     47 2HH1 ARG G   3      43.046   1.241  19.206  1.00 73.81 LIG 0.17  HD
ATOM     48 2HH2 ARG G   3      42.615   0.317  17.188  1.00 84.58 LIG 0.17  HD
ATOM     49 1HH2 ARG G   3      41.261  -0.204  16.851  1.00 84.58 LIG 0.17  HD
ENDBRANCH 40 41
ENDBRANCH 39 40
ENDBRANCH 38 39
ENDBRANCH 37 38
BRANCH 37 50
ATOM     50  N   ARG G   3      39.477  -1.050  24.760  1.00 95.22 LIG-0.35  N 
ATOM     51  C   PRO G   2      39.553  -2.298  24.266  1.00105.18 LIG 0.25  C 
ATOM     52 O    PRO G   2      39.931  -2.534  23.112  1.00111.30 LIG-0.27  OA
ATOM     53 H    ARG G   3      39.156  -0.872  25.539  1.00 95.22 LIG 0.16  HD
BRANCH 51 54
ATOM     54  CA  PRO G   2      39.133  -3.478  25.198  1.00104.44 LIG 0.35  C 
ATOM     55  N   PRO G   2      40.185  -4.479  25.418  1.00103.34 LIG 0.32  N 
ATOM     56  CD  PRO G   2      40.126  -5.056  26.781  1.00102.42 LIG 0.32  C 
ATOM     57  CG  PRO G   2      39.151  -4.160  27.522  1.00 98.38 LIG 0.04  C 
ATOM     58  CB  PRO G   2      38.832  -2.986  26.629  1.00102.80 LIG 0.05  C 
ENDBRANCH 51 54
ENDBRANCH 37 50
ENDBRANCH 34 37
ENDBRANCH 1 33
TORSDOF 20
ENDMDL
MODEL 5
USER: ADFR SOLUTION from run 29
USER: SCORE 15.972343 LL:  -3.778 LR: -12.869 RR:   0.000 FEB:  -6.903
USER: RMSD 4.956168
USER: SEED 28
USER: STATUS no improvement in best in 10 clusters for 5 generations
USER: GENES 22
USER: genes 0 Translation |==|  0.52662 0.48683 0.59619
USER: genes 1 Rotation |==|  0.34730 0.72800 0.28618 0.85914
USER: genes 2 Torsion [C]-CA--CB-[CG] |==|  0.83186
USER: genes 3 Torsion [CA]-CB--CG-[CD1] |==|  0.33557
USER: genes 4 Torsion [N]-CA--C-[N] |==|  0.13310
USER: genes 5 Torsion [N]-CA--C-[N] |==|  0.38454
USER: genes 6 Torsion [C]-N--CA-[C] |==|  0.80437
USER: genes 7 Torsion [N]-CA--C-[N] |==|  0.95743
USER: genes 8 Torsion [C]-N--CA-[CB] |==|  0.36411
USER: genes 9 Torsion [N]-CA--CB-[CG] |==|  0.77149
USER: genes 10 Torsion [CA]-CB--CG-[CD2] |==|  0.44359
USER: genes 11 Torsion [N]-CA--C-[O] |==|  0.92971
USER: genes 12 Torsion [N]-CA--CB-[CG] |==|  0.94225
USER: genes 13 Torsion [CA]-CB--CG-[CD2] |==|  0.80309
USER: genes 14 Torsion [CB]-CA--N-[C] |==|  0.17439
USER: genes 15 Torsion [N]-C--CA-[N] |==|  0.34226
USER: genes 16 Torsion [C]-CA--CB-[CG] |==|  0.38229
USER: genes 17 Torsion [CA]-CB--CG-[CD] |==|  0.41418
USER: genes 18 Torsion [CB]-CG--CD-[NE] |==|  0.79040
USER: genes 19 Torsion [CG]-CD--NE-[HE] |==|  0.22268
USER: genes 20 Torsion [C]-CA--N-[C] |==|  0.55722
USER: genes 21 Torsion [N]-C--CA-[CB] |==|  0.86464
ROOT
ATOM      1  CA  LEU G   4      40.312   4.296  25.294  1.00 72.45 LIG 0.18  C 
ENDROOT
BRANCH 1 2
ATOM      2  CB  LEU G   4      41.325   3.491  24.439  1.00 74.60 LIG 0.04  C 
BRANCH 2 3
ATOM      3  CG  LEU G   4      40.680   2.639  23.295  1.00 80.94 LIG-0.02  C 
ATOM      4  CD2 LEU G   4      40.799   1.119  23.504  1.00 76.26 LIG 0.01  C 
ATOM      5  CD1 LEU G   4      41.215   3.045  21.916  1.00 74.38 LIG 0.01  C 
ENDBRANCH 2 3
ENDBRANCH 1 2
BRANCH 1 6
ATOM      6  C   LEU G   4      39.486   5.328  24.474  1.00 69.99 LIG 0.24  C 
ATOM      7 O    LEU G   4      39.633   5.454  23.222  1.00 62.75 LIG-0.27  OA
ATOM      8  N   PRO G   5      38.554   6.022  25.175  1.00 68.53 LIG-0.34  N 
ATOM      9  CA  PRO G   5      37.819   7.056  24.472  1.00 66.41 LIG 0.18  C 
ATOM     10  CD  PRO G   5      38.016   5.809  26.541  1.00 67.94 LIG 0.13  C 
ATOM     11  CB  PRO G   5      36.803   7.554  25.532  1.00 68.06 LIG 0.04  C 
ATOM     12  CG  PRO G   5      36.624   6.390  26.458  1.00 67.97 LIG 0.02  C 
BRANCH 9 13
ATOM     13  C   PRO G   5      38.793   8.142  24.001  1.00 65.16 LIG 0.24  C 
ATOM     14  N   LEU G   6      38.607   8.631  22.781  1.00 58.40 LIG-0.35  N 
ATOM     15 H    LEU G   6      37.907   8.488  22.302  1.00 58.40 LIG 0.16  HD
ATOM     16 O    PRO G   5      39.713   8.523  24.746  1.00 57.12 LIG-0.27  OA
BRANCH 14 17
ATOM     17  CA  LEU G   6      39.618   9.476  22.150  1.00 60.31 LIG 0.18  C 
BRANCH 17 18
ATOM     18  C   LEU G   6      39.763  10.866  22.762  1.00 60.34 LIG 0.24  C 
ATOM     19 O    LEU G   6      40.774  11.501  22.515  1.00 72.64 LIG-0.27  OA
ATOM     20  N   LEU G   7      38.803  11.329  23.574  1.00 65.91 LIG-0.35  N 
ATOM     21 H    LEU G   7      38.145  10.853  23.857  1.00 65.91 LIG 0.16  HD
BRANCH 20 22
ATOM     22  CA  LEU G   7      38.795  12.750  24.071  1.00 66.14 LIG 0.16  C 
BRANCH 22 23
ATOM     23  CB  LEU G   7      37.406  13.384  23.866  1.00 64.61 LIG 0.04  C 
BRANCH 23 24
ATOM     24  CG  LEU G   7      37.051  13.960  22.481  1.00 68.76 LIG-0.02  C 
ATOM     25  CD2 LEU G   7      35.522  14.081  22.299  1.00 64.31 LIG 0.01  C 
ATOM     26  CD1 LEU G   7      37.720  13.181  21.343  1.00 66.72 LIG 0.01  C 
ENDBRANCH 23 24
ENDBRANCH 22 23
BRANCH 22 27
ATOM     27  C   LEU G   7      39.246  12.909  25.529  1.00 59.22 LIG 0.22  C 
ATOM     28 O    LEU G   7      39.123  11.968  26.298  1.00 55.72 LIG-0.29  OA
ENDBRANCH 22 27
ENDBRANCH 20 22
ENDBRANCH 17 18
BRANCH 17 29
ATOM     29  CB  LEU G   6      39.400   9.544  20.618  1.00 54.67 LIG 0.04  C 
BRANCH 29 30
ATOM     30  CG  LEU G   6      38.550   8.327  20.187  1.00 53.09 LIG-0.02  C 
ATOM     31  CD1 LEU G   6      37.970   8.570  18.818  1.00 49.97 LIG 0.01  C 
ATOM     32  CD2 LEU G   6      39.320   7.006  20.271  1.00 51.63 LIG 0.01  C 
ENDBRANCH 29 30
ENDBRANCH 17 29
ENDBRANCH 14 17
ENDBRANCH 9 13
ENDBRANCH 1 6
BRANCH 1 33
ATOM     33  N   LEU G   4      39.473   3.434  26.140  1.00 70.21 LIG-0.35  N 
ATOM     34  C   ARG G   3      40.023   2.677  27.097  1.00 75.48 LIG 0.24  C 
ATOM     35 O    ARG G   3      41.274   2.621  27.256  1.00 65.52 LIG-0.27  OA
ATOM     36 H    LEU G   4      38.631   3.463  25.966  1.00 70.21 LIG 0.16  HD
BRANCH 34 37
ATOM     37  CA  ARG G   3      39.040   1.831  27.989  1.00 78.48 LIG 0.18  C 
BRANCH 37 38
ATOM     38  CB  ARG G   3      39.000   2.342  29.446  1.00 76.51 LIG 0.04  C 
BRANCH 38 39
ATOM     39  CG  ARG G   3      37.614   2.405  30.069  1.00 78.92 LIG 0.02  C 
BRANCH 39 40
ATOM     40  CD  ARG G   3      37.647   2.168  31.582  1.00 76.70 LIG 0.14  C 
BRANCH 40 41
ATOM     41  NE  ARG G   3      37.849   0.753  31.984  1.00 80.12 LIG-0.23  N 
ATOM     42 HE   ARG G   3      38.656   0.457  31.963  1.00 80.12 LIG 0.18  HD
ATOM     43  CZ  ARG G   3      36.897  -0.117  32.380  1.00 82.69 LIG 0.67  C 
ATOM     44  NH1 ARG G   3      35.589   0.190  32.418  1.00 73.81 LIG-0.23  N 
ATOM     45  NH2 ARG G   3      37.257  -1.348  32.726  1.00 84.58 LIG-0.23  N 
ATOM     46 1HH1 ARG G   3      35.324   0.974  32.182  1.00 73.81 LIG 0.17  HD
ATOM     47 2HH1 ARG G   3      35.016  -0.397  32.678  1.00 73.81 LIG 0.17  HD
ATOM     48 2HH2 ARG G   3      36.663  -1.916  32.980  1.00 84.58 LIG 0.17  HD
ATOM     49 1HH2 ARG G   3      38.086  -1.578  32.694  1.00 84.58 LIG 0.17  HD
ENDBRANCH 40 41
ENDBRANCH 39 40
ENDBRANCH 38 39
ENDBRANCH 37 38
BRANCH 37 50
ATOM     50  N   ARG G   3      39.349   0.371  27.962  1.00 95.22 LIG-0.35  N 
ATOM     51  C   PRO G   2      38.458  -0.580  28.293  1.00105.18 LIG 0.25  C 
ATOM     52 O    PRO G   2      37.334  -0.313  28.734  1.00111.30 LIG-0.27  OA
ATOM     53 H    ARG G   3      40.154   0.195  27.715  1.00 95.22 LIG 0.16  HD
BRANCH 51 54
ATOM     54  CA  PRO G   2      38.884  -2.071  28.115  1.00104.44 LIG 0.35  C 
ATOM     55  N   PRO G   2      37.769  -3.027  28.148  1.00103.34 LIG 0.32  N 
ATOM     56  CD  PRO G   2      37.998  -4.179  27.245  1.00102.42 LIG 0.32  C 
ATOM     57  CG  PRO G   2      39.198  -3.766  26.413  1.00 98.38 LIG 0.04  C 
ATOM     58  CB  PRO G   2      39.498  -2.319  26.722  1.00102.80 LIG 0.05  C 
ENDBRANCH 51 54
ENDBRANCH 37 50
ENDBRANCH 34 37
ENDBRANCH 1 33
TORSDOF 20
ENDMDL
MODEL 6
USER: ADFR SOLUTION from run 44
USER: SCORE 16.381583 LL:  -4.062 LR: -12.588 RR:   0.000 FEB:  -6.622
USER: RMSD 3.965953
USER: SEED 43
USER: STATUS no improvement in best in 7 clusters for 5 generations
USER: GENES 22
USER: genes 0 Translation |==|  0.44928 0.47898 0.66806
USER: genes 1 Rotation |==|  0.49041 0.46571 0.43164 0.99402
USER: genes 2 Torsion [C]-CA--CB-[CG] |==|  0.05967
USER: genes 3 Torsion [CA]-CB--CG-[CD1] |==|  0.24354
USER: genes 4 Torsion [N]-CA--C-[N] |==|  0.34665
USER: genes 5 Torsion [N]-CA--C-[N] |==|  0.44294
USER: genes 6 Torsion [C]-N--CA-[C] |==|  0.78360
USER: genes 7 Torsion [N]-CA--C-[N] |==|  0.90969
USER: genes 8 Torsion [C]-N--CA-[CB] |==|  0.40264
USER: genes 9 Torsion [N]-CA--CB-[CG] |==|  0.96114
USER: genes 10 Torsion [CA]-CB--CG-[CD2] |==|  0.77919
USER: genes 11 Torsion [N]-CA--C-[O] |==|  0.95949
USER: genes 12 Torsion [N]-CA--CB-[CG] |==|  0.96859
USER: genes 13 Torsion [CA]-CB--CG-[CD2] |==|  0.75668
USER: genes 14 Torsion [CB]-CA--N-[C] |==|  0.83776
USER: genes 15 Torsion [N]-C--CA-[N] |==|  0.39715
USER: genes 16 Torsion [C]-CA--CB-[CG] |==|  0.44786
USER: genes 17 Torsion [CA]-CB--CG-[CD] |==|  0.18677
USER: genes 18 Torsion [CB]-CG--CD-[NE] |==|  0.55977
USER: genes 19 Torsion [CG]-CD--NE-[HE] |==|  0.94585
USER: genes 20 Torsion [C]-CA--N-[C] |==|  0.72818
USER: genes 21 Torsion [N]-C--CA-[CB] |==|  0.89379
ROOT
ATOM      1  CA  LEU G   4      39.036   4.072  26.695  1.00 72.45 LIG 0.18  C 
ENDROOT
BRANCH 1 2
ATOM      2  CB  LEU G   4      40.369   4.423  27.405  1.00 74.60 LIG 0.04  C 
BRANCH 2 3
ATOM      3  CG  LEU G   4      40.821   5.913  27.240  1.00 80.94 LIG-0.02  C 
ATOM      4  CD2 LEU G   4      42.347   6.099  27.161  1.00 76.26 LIG 0.01  C 
ATOM      5  CD1 LEU G   4      40.218   6.812  28.327  1.00 74.38 LIG 0.01  C 
ENDBRANCH 2 3
ENDBRANCH 1 2
BRANCH 1 6
ATOM      6  C   LEU G   4      38.664   5.053  25.547  1.00 69.99 LIG 0.24  C 
ATOM      7 O    LEU G   4      39.214   4.983  24.407  1.00 62.75 LIG-0.27  OA
ATOM      8  N   PRO G   5      37.666   5.931  25.825  1.00 68.53 LIG-0.34  N 
ATOM      9  CA  PRO G   5      37.344   6.921  24.816  1.00 66.41 LIG 0.18  C 
ATOM     10  CD  PRO G   5      36.701   5.971  26.951  1.00 67.94 LIG 0.13  C 
ATOM     11  CB  PRO G   5      36.126   7.665  25.424  1.00 68.06 LIG 0.04  C 
ATOM     12  CG  PRO G   5      35.503   6.669  26.354  1.00 67.97 LIG 0.02  C 
BRANCH 9 13
ATOM     13  C   PRO G   5      38.559   7.825  24.584  1.00 65.16 LIG 0.24  C 
ATOM     14  N   LEU G   6      38.602   8.495  23.438  1.00 58.40 LIG-0.35  N 
ATOM     15 H    LEU G   6      37.941   8.567  22.893  1.00 58.40 LIG 0.16  HD
ATOM     16 O    PRO G   5      39.455   7.903  25.443  1.00 57.12 LIG-0.27  OA
BRANCH 14 17
ATOM     17  CA  LEU G   6      39.822   9.178  23.015  1.00 60.31 LIG 0.18  C 
BRANCH 17 18
ATOM     18  C   LEU G   6      40.084  10.510  23.712  1.00 60.34 LIG 0.24  C 
ATOM     19 O    LEU G   6      41.240  10.824  23.938  1.00 72.64 LIG-0.27  OA
ATOM     20  N   LEU G   7      39.047  11.271  24.086  1.00 65.91 LIG-0.35  N 
ATOM     21 H    LEU G   7      38.227  11.014  24.046  1.00 65.91 LIG 0.16  HD
BRANCH 20 22
ATOM     22  CA  LEU G   7      39.231  12.667  24.618  1.00 66.14 LIG 0.16  C 
BRANCH 22 23
ATOM     23  CB  LEU G   7      38.070  13.572  24.164  1.00 64.61 LIG 0.04  C 
BRANCH 23 24
ATOM     24  CG  LEU G   7      37.139  13.078  23.040  1.00 68.76 LIG-0.02  C 
ATOM     25  CD2 LEU G   7      37.782  13.277  21.650  1.00 64.31 LIG 0.01  C 
ATOM     26  CD1 LEU G   7      35.739  13.696  23.136  1.00 66.72 LIG 0.01  C 
ENDBRANCH 23 24
ENDBRANCH 22 23
BRANCH 22 27
ATOM     27  C   LEU G   7      39.406  12.743  26.139  1.00 59.22 LIG 0.22  C 
ATOM     28 O    LEU G   7      39.123  11.770  26.822  1.00 55.72 LIG-0.29  OA
ENDBRANCH 22 27
ENDBRANCH 20 22
ENDBRANCH 17 18
BRANCH 17 29
ATOM     29  CB  LEU G   6      39.867   9.320  21.473  1.00 54.67 LIG 0.04  C 
BRANCH 29 30
ATOM     30  CG  LEU G   6      38.748   8.443  20.866  1.00 53.09 LIG-0.02  C 
ATOM     31  CD1 LEU G   6      38.201   9.103  19.627  1.00 49.97 LIG 0.01  C 
ATOM     32  CD2 LEU G   6      39.196   7.001  20.613  1.00 51.63 LIG 0.01  C 
ENDBRANCH 29 30
ENDBRANCH 17 29
ENDBRANCH 14 17
ENDBRANCH 9 13
ENDBRANCH 1 6
BRANCH 1 33
ATOM     33  N   LEU G   4      38.966   2.661  26.287  1.00 70.21 LIG-0.35  N 
ATOM     34  C   ARG G   3      39.885   2.145  25.461  1.00 75.48 LIG 0.24  C 
ATOM     35 O    ARG G   3      40.790   2.863  24.951  1.00 65.52 LIG-0.27  OA
ATOM     36 H    LEU G   4      38.305   2.220  26.617  1.00 70.21 LIG 0.16  HD
BRANCH 34 37
ATOM     37  CA  ARG G   3      39.760   0.612  25.125  1.00 78.48 LIG 0.18  C 
BRANCH 37 38
ATOM     38  CB  ARG G   3      40.590  -0.259  26.094  1.00 76.51 LIG 0.04  C 
BRANCH 38 39
ATOM     39  CG  ARG G   3      40.195  -1.726  26.141  1.00 78.92 LIG 0.02  C 
BRANCH 39 40
ATOM     40  CD  ARG G   3      40.500  -2.453  24.828  1.00 76.70 LIG 0.14  C 
BRANCH 40 41
ATOM     41  NE  ARG G   3      39.718  -3.696  24.610  1.00 80.12 LIG-0.23  N 
ATOM     42 HE   ARG G   3      39.364  -4.056  25.306  1.00 80.12 LIG 0.18  HD
ATOM     43  CZ  ARG G   3      39.506  -4.320  23.432  1.00 82.69 LIG 0.67  C 
ATOM     44  NH1 ARG G   3      40.035  -3.900  22.271  1.00 73.81 LIG-0.23  N 
ATOM     45  NH2 ARG G   3      38.761  -5.420  23.415  1.00 84.58 LIG-0.23  N 
ATOM     46 1HH1 ARG G   3      40.537  -3.201  22.255  1.00 73.81 LIG 0.17  HD
ATOM     47 2HH1 ARG G   3      39.873  -4.329  21.543  1.00 73.81 LIG 0.17  HD
ATOM     48 2HH2 ARG G   3      38.617  -5.830  22.673  1.00 84.58 LIG 0.17  HD
ATOM     49 1HH2 ARG G   3      38.424  -5.722  24.146  1.00 84.58 LIG 0.17  HD
ENDBRANCH 40 41
ENDBRANCH 39 40
ENDBRANCH 38 39
ENDBRANCH 37 38
BRANCH 37 50
ATOM     50  N   ARG G   3      40.123   0.301  23.712  1.00 95.22 LIG-0.35  N 
ATOM     51  C   PRO G   2      39.214   0.151  22.731  1.00105.18 LIG 0.25  C 
ATOM     52 O    PRO G   2      37.996   0.171  22.945  1.00111.30 LIG-0.27  OA
ATOM     53 H    ARG G   3      40.970   0.226  23.582  1.00 95.22 LIG 0.16  HD
BRANCH 51 54
ATOM     54  CA  PRO G   2      39.741  -0.065  21.277  1.00104.44 LIG 0.35  C 
ATOM     55  N   PRO G   2      38.811   0.368  20.226  1.00103.34 LIG 0.32  N 
ATOM     56  CD  PRO G   2      39.521   0.909  19.044  1.00102.42 LIG 0.32  C 
ATOM     57  CG  PRO G   2      40.957   1.062  19.511  1.00 98.38 LIG 0.04  C 
ATOM     58  CB  PRO G   2      40.990   0.796  20.997  1.00102.80 LIG 0.05  C 
ENDBRANCH 51 54
ENDBRANCH 37 50
ENDBRANCH 34 37
ENDBRANCH 1 33
TORSDOF 20
ENDMDL
MODEL 7
USER: ADFR SOLUTION from run 84
USER: SCORE 15.486407 LL:  -4.276 LR: -12.589 RR:   0.000 FEB:  -6.623
USER: RMSD 2.574206
USER: SEED 83
USER: STATUS no improvement in best in 4 clusters for 5 generations
USER: GENES 22
USER: genes 0 Translation |==|  0.44164 0.49049 0.65635
USER: genes 1 Rotation |==|  0.53359 0.38134 0.54252 0.98268
USER: genes 2 Torsion [C]-CA--CB-[CG] |==|  0.98386
USER: genes 3 Torsion [CA]-CB--CG-[CD1] |==|  0.31141
USER: genes 4 Torsion [N]-CA--C-[N] |==|  0.42388
USER: genes 5 Torsion [N]-CA--C-[N] |==|  0.38987
USER: genes 6 Torsion [C]-N--CA-[C] |==|  0.83506
USER: genes 7 Torsion [N]-CA--C-[N] |==|  0.89950
USER: genes 8 Torsion [C]-N--CA-[CB] |==|  0.48032
USER: genes 9 Torsion [N]-CA--CB-[CG] |==|  0.75572
USER: genes 10 Torsion [CA]-CB--CG-[CD2] |==|  0.42875
USER: genes 11 Torsion [N]-CA--C-[O] |==|  0.89449
USER: genes 12 Torsion [N]-CA--CB-[CG] |==|  0.11942
USER: genes 13 Torsion [CA]-CB--CG-[CD2] |==|  0.69377
USER: genes 14 Torsion [CB]-CA--N-[C] |==|  0.27778
USER: genes 15 Torsion [N]-C--CA-[N] |==|  0.49108
USER: genes 16 Torsion [C]-CA--CB-[CG] |==|  0.67937
USER: genes 17 Torsion [CA]-CB--CG-[CD] |==|  0.64768
USER: genes 18 Torsion [CB]-CG--CD-[NE] |==|  0.25724
USER: genes 19 Torsion [CG]-CD--NE-[HE] |==|  0.83397
USER: genes 20 Torsion [C]-CA--N-[C] |==|  0.57643
USER: genes 21 Torsion [N]-C--CA-[CB] |==|  0.31297
ROOT
ATOM      1  CA  LEU G   4      38.910   4.400  26.467  1.00 72.45 LIG 0.18  C 
ENDROOT
BRANCH 1 2
ATOM      2  CB  LEU G   4      39.644   5.147  27.610  1.00 74.60 LIG 0.04  C 
BRANCH 2 3
ATOM      3  CG  LEU G   4      39.986   6.643  27.295  1.00 80.94 LIG-0.02  C 
ATOM      4  CD2 LEU G   4      41.489   6.970  27.372  1.00 76.26 LIG 0.01  C 
ATOM      5  CD1 LEU G   4      39.173   7.606  28.169  1.00 74.38 LIG 0.01  C 
ENDBRANCH 2 3
ENDBRANCH 1 2
BRANCH 1 6
ATOM      6  C   LEU G   4      38.522   5.316  25.271  1.00 69.99 LIG 0.24  C 
ATOM      7 O    LEU G   4      39.145   5.272  24.169  1.00 62.75 LIG-0.27  OA
ATOM      8  N   PRO G   5      37.434   6.105  25.465  1.00 68.53 LIG-0.34  N 
ATOM      9  CA  PRO G   5      37.086   7.038  24.411  1.00 66.41 LIG 0.18  C 
ATOM     10  CD  PRO G   5      36.402   6.081  26.529  1.00 67.94 LIG 0.13  C 
ATOM     11  CB  PRO G   5      35.771   7.680  24.924  1.00 68.06 LIG 0.04  C 
ATOM     12  CG  PRO G   5      35.184   6.652  25.843  1.00 67.97 LIG 0.02  C 
BRANCH 9 13
ATOM     13  C   PRO G   5      38.226   8.045  24.226  1.00 65.16 LIG 0.24  C 
ATOM     14  N   LEU G   6      38.525   8.396  22.981  1.00 58.40 LIG-0.35  N 
ATOM     15 H    LEU G   6      38.040   8.213  22.295  1.00 58.40 LIG 0.16  HD
ATOM     16 O    PRO G   5      38.834   8.491  25.215  1.00 57.12 LIG-0.27  OA
BRANCH 14 17
ATOM     17  CA  LEU G   6      39.744   9.144  22.685  1.00 60.31 LIG 0.18  C 
BRANCH 17 18
ATOM     18  C   LEU G   6      39.852  10.494  23.388  1.00 60.34 LIG 0.24  C 
ATOM     19 O    LEU G   6      40.946  10.845  23.795  1.00 72.64 LIG-0.27  OA
ATOM     20  N   LEU G   7      38.748  11.231  23.567  1.00 65.91 LIG-0.35  N 
ATOM     21 H    LEU G   7      37.953  10.950  23.397  1.00 65.91 LIG 0.16  HD
BRANCH 20 22
ATOM     22  CA  LEU G   7      38.806  12.641  24.092  1.00 66.14 LIG 0.16  C 
BRANCH 22 23
ATOM     23  CB  LEU G   7      37.413  13.296  24.027  1.00 64.61 LIG 0.04  C 
BRANCH 23 24
ATOM     24  CG  LEU G   7      36.994  14.023  22.734  1.00 68.76 LIG-0.02  C 
ATOM     25  CD2 LEU G   7      35.458  14.050  22.577  1.00 64.31 LIG 0.01  C 
ATOM     26  CD1 LEU G   7      37.703  13.457  21.498  1.00 66.72 LIG 0.01  C 
ENDBRANCH 23 24
ENDBRANCH 22 23
BRANCH 22 27
ATOM     27  C   LEU G   7      39.388  12.763  25.505  1.00 59.22 LIG 0.22  C 
ATOM     28 O    LEU G   7      39.123  11.907  26.337  1.00 55.72 LIG-0.29  OA
ENDBRANCH 22 27
ENDBRANCH 20 22
ENDBRANCH 17 18
BRANCH 17 29
ATOM     29  CB  LEU G   6      39.952   9.276  21.155  1.00 54.67 LIG 0.04  C 
BRANCH 29 30
ATOM     30  CG  LEU G   6      38.593   9.617  20.502  1.00 53.09 LIG-0.02  C 
ATOM     31  CD1 LEU G   6      38.715  10.894  19.714  1.00 49.97 LIG 0.01  C 
ATOM     32  CD2 LEU G   6      38.031   8.464  19.666  1.00 51.63 LIG 0.01  C 
ENDBRANCH 29 30
ENDBRANCH 17 29
ENDBRANCH 14 17
ENDBRANCH 9 13
ENDBRANCH 1 6
BRANCH 1 33
ATOM     33  N   LEU G   4      39.611   3.177  26.046  1.00 70.21 LIG-0.35  N 
ATOM     34  C   ARG G   3      39.208   1.978  26.483  1.00 75.48 LIG 0.24  C 
ATOM     35 O    ARG G   3      38.270   1.862  27.320  1.00 65.52 LIG-0.27  OA
ATOM     36 H    LEU G   4      40.276   3.304  25.515  1.00 70.21 LIG 0.16  HD
BRANCH 34 37
ATOM     37  CA  ARG G   3      39.985   0.723  25.934  1.00 78.48 LIG 0.18  C 
BRANCH 37 38
ATOM     38  CB  ARG G   3      39.928   0.640  24.393  1.00 76.51 LIG 0.04  C 
BRANCH 38 39
ATOM     39  CG  ARG G   3      39.187  -0.567  23.839  1.00 78.92 LIG 0.02  C 
BRANCH 39 40
ATOM     40  CD  ARG G   3      40.031  -1.355  22.833  1.00 76.70 LIG 0.14  C 
BRANCH 40 41
ATOM     41  NE  ARG G   3      40.812  -2.473  23.420  1.00 80.12 LIG-0.23  N 
ATOM     42 HE   ARG G   3      41.384  -2.267  24.027  1.00 80.12 LIG 0.18  HD
ATOM     43  CZ  ARG G   3      40.717  -3.780  23.098  1.00 82.69 LIG 0.67  C 
ATOM     44  NH1 ARG G   3      39.901  -4.244  22.136  1.00 73.81 LIG-0.23  N 
ATOM     45  NH2 ARG G   3      41.483  -4.655  23.740  1.00 84.58 LIG-0.23  N 
ATOM     46 1HH1 ARG G   3      39.407  -3.698  21.691  1.00 73.81 LIG 0.17  HD
ATOM     47 2HH1 ARG G   3      39.873  -5.086  21.964  1.00 73.81 LIG 0.17  HD
ATOM     48 2HH2 ARG G   3      41.435  -5.492  23.546  1.00 84.58 LIG 0.17  HD
ATOM     49 1HH2 ARG G   3      42.028  -4.385  24.348  1.00 84.58 LIG 0.17  HD
ENDBRANCH 40 41
ENDBRANCH 39 40
ENDBRANCH 38 39
ENDBRANCH 37 38
BRANCH 37 50
ATOM     50  N   ARG G   3      39.511  -0.557  26.538  1.00 95.22 LIG-0.35  N 
ATOM     51  C   PRO G   2      40.291  -1.644  26.672  1.00105.18 LIG 0.25  C 
ATOM     52 O    PRO G   2      41.441  -1.697  26.222  1.00111.30 LIG-0.27  OA
ATOM     53 H    ARG G   3      38.689  -0.534  26.793  1.00 95.22 LIG 0.16  HD
BRANCH 51 54
ATOM     54  CA  PRO G   2      39.696  -2.878  27.421  1.00104.44 LIG 0.35  C 
ATOM     55  N   PRO G   2      38.347  -2.667  27.961  1.00103.34 LIG 0.32  N 
ATOM     56  CD  PRO G   2      37.531  -3.902  27.916  1.00102.42 LIG 0.32  C 
ATOM     57  CG  PRO G   2      38.340  -4.851  27.052  1.00 98.38 LIG 0.04  C 
ATOM     58  CB  PRO G   2      39.494  -4.073  26.467  1.00102.80 LIG 0.05  C 
ENDBRANCH 51 54
ENDBRANCH 37 50
ENDBRANCH 34 37
ENDBRANCH 1 33
TORSDOF 20
ENDMDL
MODEL 8
USER: ADFR SOLUTION from run 123
USER: SCORE 15.035634 LL:  -3.994 LR: -12.476 RR:   0.000 FEB:  -6.510
USER: RMSD 3.430773
USER: SEED 122
USER: STATUS no improvement in best in 12 clusters for 5 generations
USER: GENES 22
USER: genes 0 Translation |==|  0.50404 0.52356 0.67545
USER: genes 1 Rotation |==|  0.41860 0.47272 0.49969 0.99257
USER: genes 2 Torsion [C]-CA--CB-[CG] |==|  0.30146
USER: genes 3 Torsion [CA]-CB--CG-[CD1] |==|  0.83582
USER: genes 4 Torsion [N]-CA--C-[N] |==|  0.33417
USER: genes 5 Torsion [N]-CA--C-[N] |==|  0.38836
USER: genes 6 Torsion [C]-N--CA-[C] |==|  0.81223
USER: genes 7 Torsion [N]-CA--C-[N] |==|  0.92234
USER: genes 8 Torsion [C]-N--CA-[CB] |==|  0.78772
USER: genes 9 Torsion [N]-CA--CB-[CG] |==|  0.60751
USER: genes 10 Torsion [CA]-CB--CG-[CD2] |==|  0.41049
USER: genes 11 Torsion [N]-CA--C-[O] |==|  0.17067
USER: genes 12 Torsion [N]-CA--CB-[CG] |==|  0.11433
USER: genes 13 Torsion [CA]-CB--CG-[CD2] |==|  0.64430
USER: genes 14 Torsion [CB]-CA--N-[C] |==|  0.45571
USER: genes 15 Torsion [N]-C--CA-[N] |==|  0.36966
USER: genes 16 Torsion [C]-CA--CB-[CG] |==|  0.46331
USER: genes 17 Torsion [CA]-CB--CG-[CD] |==|  0.56175
USER: genes 18 Torsion [CB]-CG--CD-[NE] |==|  0.64586
USER: genes 19 Torsion [CG]-CD--NE-[HE] |==|  0.09354
USER: genes 20 Torsion [C]-CA--N-[C] |==|  0.82992
USER: genes 21 Torsion [N]-C--CA-[CB] |==|  0.63379
ROOT
ATOM      1  CA  LEU G   4      39.940   5.342  26.839  1.00 72.45 LIG 0.18  C 
ENDROOT
BRANCH 1 2
ATOM      2  CB  LEU G   4      41.162   6.191  27.273  1.00 74.60 LIG 0.04  C 
BRANCH 2 3
ATOM      3  CG  LEU G   4      40.908   7.114  28.512  1.00 80.94 LIG-0.02  C 
ATOM      4  CD2 LEU G   4      40.684   6.346  29.828  1.00 76.26 LIG 0.01  C 
ATOM      5  CD1 LEU G   4      39.765   8.105  28.256  1.00 74.38 LIG 0.01  C 
ENDBRANCH 2 3
ENDBRANCH 1 2
BRANCH 1 6
ATOM      6  C   LEU G   4      39.292   5.816  25.506  1.00 69.99 LIG 0.24  C 
ATOM      7 O    LEU G   4      39.847   5.608  24.386  1.00 62.75 LIG-0.27  OA
ATOM      8  N   PRO G   5      38.070   6.396  25.621  1.00 68.53 LIG-0.34  N 
ATOM      9  CA  PRO G   5      37.466   6.931  24.416  1.00 66.41 LIG 0.18  C 
ATOM     10  CD  PRO G   5      37.130   6.448  26.767  1.00 67.94 LIG 0.13  C 
ATOM     11  CB  PRO G   5      36.073   7.411  24.900  1.00 68.06 LIG 0.04  C 
ATOM     12  CG  PRO G   5      35.780   6.566  26.101  1.00 67.97 LIG 0.02  C 
BRANCH 9 13
ATOM     13  C   PRO G   5      38.344   8.059  23.865  1.00 65.16 LIG 0.24  C 
ATOM     14  N   LEU G   6      38.496   8.116  22.547  1.00 58.40 LIG-0.35  N 
ATOM     15 H    LEU G   6      38.031   7.662  21.984  1.00 58.40 LIG 0.16  HD
ATOM     16 O    PRO G   5      38.885   8.867  24.640  1.00 57.12 LIG-0.27  OA
BRANCH 14 17
ATOM     17  CA  LEU G   6      39.503   8.987  21.946  1.00 60.31 LIG 0.18  C 
BRANCH 17 18
ATOM     18  C   LEU G   6      39.234  10.480  22.105  1.00 60.34 LIG 0.24  C 
ATOM     19 O    LEU G   6      40.190  11.235  22.156  1.00 72.64 LIG-0.27  OA
ATOM     20  N   LEU G   7      37.971  10.912  22.221  1.00 65.91 LIG-0.35  N 
ATOM     21 H    LEU G   7      37.294  10.388  22.310  1.00 65.91 LIG 0.16  HD
BRANCH 20 22
ATOM     22  CA  LEU G   7      37.623  12.376  22.206  1.00 66.14 LIG 0.16  C 
BRANCH 22 23
ATOM     23  CB  LEU G   7      37.971  13.025  23.559  1.00 64.61 LIG 0.04  C 
BRANCH 23 24
ATOM     24  CG  LEU G   7      37.016  14.086  24.141  1.00 68.76 LIG-0.02  C 
ATOM     25  CD2 LEU G   7      37.006  14.046  25.685  1.00 64.31 LIG 0.01  C 
ATOM     26  CD1 LEU G   7      35.609  13.988  23.540  1.00 66.72 LIG 0.01  C 
ENDBRANCH 23 24
ENDBRANCH 22 23
BRANCH 22 27
ATOM     27  C   LEU G   7      38.262  13.163  21.055  1.00 59.22 LIG 0.22  C 
ATOM     28 O    LEU G   7      37.991  12.861  19.902  1.00 55.72 LIG-0.29  OA
ENDBRANCH 22 27
ENDBRANCH 20 22
ENDBRANCH 17 18
BRANCH 17 29
ATOM     29  CB  LEU G   6      39.749   8.603  20.465  1.00 54.67 LIG 0.04  C 
BRANCH 29 30
ATOM     30  CG  LEU G   6      38.387   8.287  19.806  1.00 53.09 LIG-0.02  C 
ATOM     31  CD1 LEU G   6      37.986   9.419  18.898  1.00 49.97 LIG 0.01  C 
ATOM     32  CD2 LEU G   6      38.373   6.932  19.094  1.00 51.63 LIG 0.01  C 
ENDBRANCH 29 30
ENDBRANCH 17 29
ENDBRANCH 14 17
ENDBRANCH 9 13
ENDBRANCH 1 6
BRANCH 1 33
ATOM     33  N   LEU G   4      40.216   3.898  26.859  1.00 70.21 LIG-0.35  N 
ATOM     34  C   ARG G   3      39.212   3.013  26.827  1.00 75.48 LIG 0.24  C 
ATOM     35 O    ARG G   3      38.005   3.383  26.855  1.00 65.52 LIG-0.27  OA
ATOM     36 H    LEU G   4      41.049   3.688  26.891  1.00 70.21 LIG 0.16  HD
BRANCH 34 37
ATOM     37  CA  ARG G   3      39.607   1.489  26.794  1.00 78.48 LIG 0.18  C 
BRANCH 37 38
ATOM     38  CB  ARG G   3      39.476   0.892  25.376  1.00 76.51 LIG 0.04  C 
BRANCH 38 39
ATOM     39  CG  ARG G   3      40.128  -0.469  25.187  1.00 78.92 LIG 0.02  C 
BRANCH 39 40
ATOM     40  CD  ARG G   3      40.449  -0.760  23.718  1.00 76.70 LIG 0.14  C 
BRANCH 40 41
ATOM     41  NE  ARG G   3      39.923  -2.053  23.211  1.00 80.12 LIG-0.23  N 
ATOM     42 HE   ARG G   3      39.174  -2.319  23.538  1.00 80.12 LIG 0.18  HD
ATOM     43  CZ  ARG G   3      40.501  -2.855  22.292  1.00 82.69 LIG 0.67  C 
ATOM     44  NH1 ARG G   3      41.693  -2.591  21.731  1.00 73.81 LIG-0.23  N 
ATOM     45  NH2 ARG G   3      39.879  -3.974  21.938  1.00 84.58 LIG-0.23  N 
ATOM     46 1HH1 ARG G   3      42.127  -1.883  21.955  1.00 73.81 LIG 0.17  HD
ATOM     47 2HH1 ARG G   3      42.023  -3.131  21.148  1.00 73.81 LIG 0.17  HD
ATOM     48 2HH2 ARG G   3      40.234  -4.496  21.353  1.00 84.58 LIG 0.17  HD
ATOM     49 1HH2 ARG G   3      39.123  -4.177  22.293  1.00 84.58 LIG 0.17  HD
ENDBRANCH 40 41
ENDBRANCH 39 40
ENDBRANCH 38 39
ENDBRANCH 37 38
BRANCH 37 50
ATOM     50  N   ARG G   3      38.831   0.672  27.772  1.00 95.22 LIG-0.35  N 
ATOM     51  C   PRO G   2      38.871   0.874  29.100  1.00105.18 LIG 0.25  C 
ATOM     52 O    PRO G   2      39.628   1.699  29.625  1.00111.30 LIG-0.27  OA
ATOM     53 H    ARG G   3      38.353   0.057  27.404  1.00 95.22 LIG 0.16  HD
BRANCH 51 54
ATOM     54  CA  PRO G   2      37.924   0.015  29.997  1.00104.44 LIG 0.35  C 
ATOM     55  N   PRO G   2      38.618  -0.946  30.864  1.00103.34 LIG 0.32  N 
ATOM     56  CD  PRO G   2      37.923  -1.129  32.159  1.00102.42 LIG 0.32  C 
ATOM     57  CG  PRO G   2      36.894  -0.013  32.189  1.00 98.38 LIG 0.04  C 
ATOM     58  CB  PRO G   2      37.159   0.891  31.010  1.00102.80 LIG 0.05  C 
ENDBRANCH 51 54
ENDBRANCH 37 50
ENDBRANCH 34 37
ENDBRANCH 1 33
TORSDOF 20
ENDMDL
MODEL 9
USER: ADFR SOLUTION from run 151
USER: SCORE 15.539430 LL:  -4.470 LR: -12.231 RR:   0.000 FEB:  -6.265
USER: RMSD 4.400170
USER: SEED 150
USER: STATUS no improvement in best in 7 clusters for 5 generations
USER: GENES 22
USER: genes 0 Translation |==|  0.50256 0.48001 0.60932
USER: genes 1 Rotation |==|  0.53240 0.46958 0.48659 0.99784
USER: genes 2 Torsion [C]-CA--CB-[CG] |==|  0.28655
USER: genes 3 Torsion [CA]-CB--CG-[CD1] |==|  0.76513
USER: genes 4 Torsion [N]-CA--C-[N] |==|  0.37851
USER: genes 5 Torsion [N]-CA--C-[N] |==|  0.43347
USER: genes 6 Torsion [C]-N--CA-[C] |==|  0.75561
USER: genes 7 Torsion [N]-CA--C-[N] |==|  0.98669
USER: genes 8 Torsion [C]-N--CA-[CB] |==|  0.35838
USER: genes 9 Torsion [N]-CA--CB-[CG] |==|  0.74796
USER: genes 10 Torsion [CA]-CB--CG-[CD2] |==|  0.46727
USER: genes 11 Torsion [N]-CA--C-[O] |==|  0.93902
USER: genes 12 Torsion [N]-CA--CB-[CG] |==|  0.00781
USER: genes 13 Torsion [CA]-CB--CG-[CD2] |==|  0.73113
USER: genes 14 Torsion [CB]-CA--N-[C] |==|  0.24918
USER: genes 15 Torsion [N]-C--CA-[N] |==|  0.97233
USER: genes 16 Torsion [C]-CA--CB-[CG] |==|  0.39783
USER: genes 17 Torsion [CA]-CB--CG-[CD] |==|  0.75227
USER: genes 18 Torsion [CB]-CG--CD-[NE] |==|  0.11690
USER: genes 19 Torsion [CG]-CD--NE-[HE] |==|  0.19041
USER: genes 20 Torsion [C]-CA--N-[C] |==|  0.71804
USER: genes 21 Torsion [N]-C--CA-[CB] |==|  0.83878
ROOT
ATOM      1  CA  LEU G   4      39.915   4.101  25.550  1.00 72.45 LIG 0.18  C 
ENDROOT
BRANCH 1 2
ATOM      2  CB  LEU G   4      41.143   4.635  26.331  1.00 74.60 LIG 0.04  C 
BRANCH 2 3
ATOM      3  CG  LEU G   4      40.844   5.045  27.813  1.00 80.94 LIG-0.02  C 
ATOM      4  CD2 LEU G   4      39.924   4.063  28.560  1.00 76.26 LIG 0.01  C 
ATOM      5  CD1 LEU G   4      40.303   6.478  27.906  1.00 74.38 LIG 0.01  C 
ENDBRANCH 2 3
ENDBRANCH 1 2
BRANCH 1 6
ATOM      6  C   LEU G   4      39.311   5.135  24.556  1.00 69.99 LIG 0.24  C 
ATOM      7 O    LEU G   4      39.710   5.216  23.356  1.00 62.75 LIG-0.27  OA
ATOM      8  N   PRO G   5      38.286   5.883  25.039  1.00 68.53 LIG-0.34  N 
ATOM      9  CA  PRO G   5      37.750   6.919  24.177  1.00 66.41 LIG 0.18  C 
ATOM     10  CD  PRO G   5      37.479   5.733  26.273  1.00 67.94 LIG 0.13  C 
ATOM     11  CB  PRO G   5      36.563   7.485  25.000  1.00 68.06 LIG 0.04  C 
ATOM     12  CG  PRO G   5      36.156   6.358  25.899  1.00 67.97 LIG 0.02  C 
BRANCH 9 13
ATOM     13  C   PRO G   5      38.841   7.955  23.885  1.00 65.16 LIG 0.24  C 
ATOM     14  N   LEU G   6      38.709   8.672  22.776  1.00 58.40 LIG-0.35  N 
ATOM     15 H    LEU G   6      37.997   8.697  22.295  1.00 58.40 LIG 0.16  HD
ATOM     16 O    PRO G   5      39.799   8.091  24.665  1.00 57.12 LIG-0.27  OA
BRANCH 14 17
ATOM     17  CA  LEU G   6      39.810   9.496  22.282  1.00 60.31 LIG 0.18  C 
BRANCH 17 18
ATOM     18  C   LEU G   6      39.853  10.912  22.850  1.00 60.34 LIG 0.24  C 
ATOM     19 O    LEU G   6      40.812  11.612  22.576  1.00 72.64 LIG-0.27  OA
ATOM     20  N   LEU G   7      38.865  11.328  23.654  1.00 65.91 LIG-0.35  N 
ATOM     21 H    LEU G   7      38.246  10.812  23.955  1.00 65.91 LIG 0.16  HD
BRANCH 20 22
ATOM     22  CA  LEU G   7      38.753  12.759  24.107  1.00 66.14 LIG 0.16  C 
BRANCH 22 23
ATOM     23  CB  LEU G   7      37.334  13.296  23.844  1.00 64.61 LIG 0.04  C 
BRANCH 23 24
ATOM     24  CG  LEU G   7      37.039  13.988  22.498  1.00 68.76 LIG-0.02  C 
ATOM     25  CD2 LEU G   7      35.522  14.194  22.293  1.00 64.31 LIG 0.01  C 
ATOM     26  CD1 LEU G   7      37.701  13.264  21.320  1.00 66.72 LIG 0.01  C 
ENDBRANCH 23 24
ENDBRANCH 22 23
BRANCH 22 27
ATOM     27  C   LEU G   7      39.150  12.988  25.570  1.00 59.22 LIG 0.22  C 
ATOM     28 O    LEU G   7      39.123  12.049  26.351  1.00 55.72 LIG-0.29  OA
ENDBRANCH 22 27
ENDBRANCH 20 22
ENDBRANCH 17 18
BRANCH 17 29
ATOM     29  CB  LEU G   6      39.844   9.499  20.733  1.00 54.67 LIG 0.04  C 
BRANCH 29 30
ATOM     30  CG  LEU G   6      38.644   8.674  20.213  1.00 53.09 LIG-0.02  C 
ATOM     31  CD1 LEU G   6      37.998   9.390  19.056  1.00 49.97 LIG 0.01  C 
ATOM     32  CD2 LEU G   6      39.020   7.230  19.872  1.00 51.63 LIG 0.01  C 
ENDBRANCH 29 30
ENDBRANCH 17 29
ENDBRANCH 14 17
ENDBRANCH 9 13
ENDBRANCH 1 6
BRANCH 1 33
ATOM     33  N   LEU G   4      40.163   2.790  24.931  1.00 70.21 LIG-0.35  N 
ATOM     34  C   ARG G   3      39.902   1.662  25.602  1.00 75.48 LIG 0.24  C 
ATOM     35 O    ARG G   3      39.510   1.683  26.802  1.00 65.52 LIG-0.27  OA
ATOM     36 H    LEU G   4      40.477   2.820  24.131  1.00 70.21 LIG 0.16  HD
BRANCH 34 37
ATOM     37  CA  ARG G   3      40.146   0.307  24.838  1.00 78.48 LIG 0.18  C 
BRANCH 37 38
ATOM     38  CB  ARG G   3      41.280  -0.521  25.481  1.00 76.51 LIG 0.04  C 
BRANCH 38 39
ATOM     39  CG  ARG G   3      41.063  -2.026  25.477  1.00 78.92 LIG 0.02  C 
BRANCH 39 40
ATOM     40  CD  ARG G   3      40.315  -2.508  26.723  1.00 76.70 LIG 0.14  C 
BRANCH 40 41
ATOM     41  NE  ARG G   3      39.178  -1.647  27.137  1.00 80.12 LIG-0.23  N 
ATOM     42 HE   ARG G   3      38.494  -1.634  26.616  1.00 80.12 LIG 0.18  HD
ATOM     43  CZ  ARG G   3      39.107  -0.882  28.246  1.00 82.69 LIG 0.67  C 
ATOM     44  NH1 ARG G   3      40.115  -0.767  29.127  1.00 73.81 LIG-0.23  N 
ATOM     45  NH2 ARG G   3      37.999  -0.184  28.474  1.00 84.58 LIG-0.23  N 
ATOM     46 1HH1 ARG G   3      40.851  -1.192  28.996  1.00 73.81 LIG 0.17  HD
ATOM     47 2HH1 ARG G   3      40.025  -0.267  29.822  1.00 73.81 LIG 0.17  HD
ATOM     48 2HH2 ARG G   3      37.937   0.308  29.176  1.00 84.58 LIG 0.17  HD
ATOM     49 1HH2 ARG G   3      37.344  -0.225  27.918  1.00 84.58 LIG 0.17  HD
ENDBRANCH 40 41
ENDBRANCH 39 40
ENDBRANCH 38 39
ENDBRANCH 37 38
BRANCH 37 50
ATOM     50  N   ARG G   3      40.413   0.505  23.383  1.00 95.22 LIG-0.35  N 
ATOM     51  C   PRO G   2      39.487   0.305  22.428  1.00105.18 LIG 0.25  C 
ATOM     52 O    PRO G   2      38.363  -0.147  22.676  1.00111.30 LIG-0.27  OA
ATOM     53 H    ARG G   3      41.216   0.760  23.213  1.00 95.22 LIG 0.16  HD
BRANCH 51 54
ATOM     54  CA  PRO G   2      39.872   0.657  20.957  1.00104.44 LIG 0.35  C 
ATOM     55  N   PRO G   2      38.765   0.546  19.998  1.00103.34 LIG 0.32  N 
ATOM     56  CD  PRO G   2      38.859   1.560  18.922  1.00102.42 LIG 0.32  C 
ATOM     57  CG  PRO G   2      39.937   2.513  19.402  1.00 98.38 LIG 0.04  C 
ATOM     58  CB  PRO G   2      40.289   2.136  20.821  1.00102.80 LIG 0.05  C 
ENDBRANCH 51 54
ENDBRANCH 37 50
ENDBRANCH 34 37
ENDBRANCH 1 33
TORSDOF 20
ENDMDL
MODEL 10
USER: ADFR SOLUTION from run 101
USER: SCORE 15.000815 LL:  -3.867 LR: -11.959 RR:   0.000 FEB:  -5.993
USER: RMSD 4.037336
USER: SEED 100
USER: STATUS no improvement in best in 10 clusters for 5 generations
USER: GENES 22
USER: genes 0 Translation |==|  0.51726 0.50996 0.66482
USER: genes 1 Rotation |==|  0.37929 0.51225 0.50101 0.98505
USER: genes 2 Torsion [C]-CA--CB-[CG] |==|  0.36589
USER: genes 3 Torsion [CA]-CB--CG-[CD1] |==|  0.54776
USER: genes 4 Torsion [N]-CA--C-[N] |==|  0.38122
USER: genes 5 Torsion [N]-CA--C-[N] |==|  0.42493
USER: genes 6 Torsion [C]-N--CA-[C] |==|  0.81607
USER: genes 7 Torsion [N]-CA--C-[N] |==|  0.91195
USER: genes 8 Torsion [C]-N--CA-[CB] |==|  0.24699
USER: genes 9 Torsion [N]-CA--CB-[CG] |==|  0.85220
USER: genes 10 Torsion [CA]-CB--CG-[CD2] |==|  0.61991
USER: genes 11 Torsion [N]-CA--C-[O] |==|  0.91704
USER: genes 12 Torsion [N]-CA--CB-[CG] |==|  0.80412
USER: genes 13 Torsion [CA]-CB--CG-[CD2] |==|  0.91205
USER: genes 14 Torsion [CB]-CA--N-[C] |==|  0.49024
USER: genes 15 Torsion [N]-C--CA-[N] |==|  0.37825
USER: genes 16 Torsion [C]-CA--CB-[CG] |==|  0.50286
USER: genes 17 Torsion [CA]-CB--CG-[CD] |==|  0.50391
USER: genes 18 Torsion [CB]-CG--CD-[NE] |==|  0.60697
USER: genes 19 Torsion [CG]-CD--NE-[HE] |==|  0.00322
USER: genes 20 Torsion [C]-CA--N-[C] |==|  0.81168
USER: genes 21 Torsion [N]-C--CA-[CB] |==|  0.64178
ROOT
ATOM      1  CA  LEU G   4      40.158   4.955  26.632  1.00 72.45 LIG 0.18  C 
ENDROOT
BRANCH 1 2
ATOM      2  CB  LEU G   4      41.447   5.810  26.732  1.00 74.60 LIG 0.04  C 
BRANCH 2 3
ATOM      3  CG  LEU G   4      41.663   6.503  28.120  1.00 80.94 LIG-0.02  C 
ATOM      4  CD2 LEU G   4      40.363   6.986  28.786  1.00 76.26 LIG 0.01  C 
ATOM      5  CD1 LEU G   4      42.688   7.641  28.031  1.00 74.38 LIG 0.01  C 
ENDBRANCH 2 3
ENDBRANCH 1 2
BRANCH 1 6
ATOM      6  C   LEU G   4      39.318   5.240  25.354  1.00 69.99 LIG 0.24  C 
ATOM      7 O    LEU G   4      39.498   4.591  24.281  1.00 62.75 LIG-0.27  OA
ATOM      8  N   PRO G   5      38.340   6.172  25.491  1.00 68.53 LIG-0.34  N 
ATOM      9  CA  PRO G   5      37.589   6.534  24.304  1.00 66.41 LIG 0.18  C 
ATOM     10  CD  PRO G   5      37.770   6.802  26.706  1.00 67.94 LIG 0.13  C 
ATOM     11  CB  PRO G   5      36.523   7.522  24.846  1.00 68.06 LIG 0.04  C 
ATOM     12  CG  PRO G   5      36.360   7.147  26.287  1.00 67.97 LIG 0.02  C 
BRANCH 9 13
ATOM     13  C   PRO G   5      38.534   7.159  23.274  1.00 65.16 LIG 0.24  C 
ATOM     14  N   LEU G   6      38.194   7.046  21.996  1.00 58.40 LIG-0.35  N 
ATOM     15 H    LEU G   6      37.424   6.779  21.720  1.00 58.40 LIG 0.16  HD
ATOM     16 O    PRO G   5      39.573   7.735  23.645  1.00 57.12 LIG-0.27  OA
BRANCH 14 17
ATOM     17  CA  LEU G   6      39.141   7.381  20.935  1.00 60.31 LIG 0.18  C 
BRANCH 17 18
ATOM     18  C   LEU G   6      39.522   8.857  20.860  1.00 60.34 LIG 0.24  C 
ATOM     19 O    LEU G   6      40.653   9.142  20.509  1.00 72.64 LIG-0.27  OA
ATOM     20  N   LEU G   7      38.624   9.786  21.215  1.00 65.91 LIG-0.35  N 
ATOM     21 H    LEU G   7      37.866   9.603  21.580  1.00 65.91 LIG 0.16  HD
BRANCH 20 22
ATOM     22  CA  LEU G   7      38.868  11.256  21.002  1.00 66.14 LIG 0.16  C 
BRANCH 22 23
ATOM     23  CB  LEU G   7      38.373  11.687  19.609  1.00 64.61 LIG 0.04  C 
BRANCH 23 24
ATOM     24  CG  LEU G   7      38.871  10.914  18.372  1.00 68.76 LIG-0.02  C 
ATOM     25  CD2 LEU G   7      39.243  11.874  17.221  1.00 64.31 LIG 0.01  C 
ATOM     26  CD1 LEU G   7      37.883   9.825  17.936  1.00 66.72 LIG 0.01  C 
ENDBRANCH 23 24
ENDBRANCH 22 23
BRANCH 22 27
ATOM     27  C   LEU G   7      38.266  12.158  22.087  1.00 59.22 LIG 0.22  C 
ATOM     28 O    LEU G   7      37.253  11.798  22.668  1.00 55.72 LIG-0.29  OA
ENDBRANCH 22 27
ENDBRANCH 20 22
ENDBRANCH 17 18
BRANCH 17 29
ATOM     29  CB  LEU G   6      38.647   6.847  19.567  1.00 54.67 LIG 0.04  C 
BRANCH 29 30
ATOM     30  CG  LEU G   6      38.762   5.305  19.571  1.00 53.09 LIG-0.02  C 
ATOM     31  CD1 LEU G   6      38.820   4.797  18.155  1.00 49.97 LIG 0.01  C 
ATOM     32  CD2 LEU G   6      39.928   4.799  20.424  1.00 51.63 LIG 0.01  C 
ENDBRANCH 29 30
ENDBRANCH 17 29
ENDBRANCH 14 17
ENDBRANCH 9 13
ENDBRANCH 1 6
BRANCH 1 33
ATOM     33  N   LEU G   4      40.410   3.521  26.842  1.00 70.21 LIG-0.35  N 
ATOM     34  C   ARG G   3      39.396   2.648  26.859  1.00 75.48 LIG 0.24  C 
ATOM     35 O    ARG G   3      38.195   3.029  26.771  1.00 65.52 LIG-0.27  OA
ATOM     36 H    LEU G   4      41.237   3.309  26.947  1.00 70.21 LIG 0.16  HD
BRANCH 34 37
ATOM     37  CA  ARG G   3      39.767   1.128  27.033  1.00 78.48 LIG 0.18  C 
BRANCH 37 38
ATOM     38  CB  ARG G   3      39.783   0.381  25.682  1.00 76.51 LIG 0.04  C 
BRANCH 38 39
ATOM     39  CG  ARG G   3      40.110  -1.102  25.768  1.00 78.92 LIG 0.02  C 
BRANCH 39 40
ATOM     40  CD  ARG G   3      40.141  -1.771  24.390  1.00 76.70 LIG 0.14  C 
BRANCH 40 41
ATOM     41  NE  ARG G   3      39.572  -3.142  24.353  1.00 80.12 LIG-0.23  N 
ATOM     42 HE   ARG G   3      39.258  -3.449  25.091  1.00 80.12 LIG 0.18  HD
ATOM     43  CZ  ARG G   3      39.498  -3.955  23.278  1.00 82.69 LIG 0.67  C 
ATOM     44  NH1 ARG G   3      39.990  -3.627  22.072  1.00 73.81 LIG-0.23  N 
ATOM     45  NH2 ARG G   3      38.936  -5.151  23.418  1.00 84.58 LIG-0.23  N 
ATOM     46 1HH1 ARG G   3      40.376  -2.867  21.956  1.00 73.81 LIG 0.17  HD
ATOM     47 2HH1 ARG G   3      39.920  -4.178  21.414  1.00 73.81 LIG 0.17  HD
ATOM     48 2HH2 ARG G   3      38.881  -5.682  22.744  1.00 84.58 LIG 0.17  HD
ATOM     49 1HH2 ARG G   3      38.628  -5.394  24.183  1.00 84.58 LIG 0.17  HD
ENDBRANCH 40 41
ENDBRANCH 39 40
ENDBRANCH 38 39
ENDBRANCH 37 38
BRANCH 37 50
ATOM     50  N   ARG G   3      38.877   0.424  28.002  1.00 95.22 LIG-0.35  N 
ATOM     51  C   PRO G   2      38.869   0.683  29.321  1.00105.18 LIG 0.25  C 
ATOM     52 O    PRO G   2      39.667   1.466  29.850  1.00111.30 LIG-0.27  OA
ATOM     53 H    ARG G   3      38.367  -0.165  27.636  1.00 95.22 LIG 0.16  HD
BRANCH 51 54
ATOM     54  CA  PRO G   2      37.808  -0.051  30.201  1.00104.44 LIG 0.35  C 
ATOM     55  N   PRO G   2      38.378  -0.976  31.189  1.00103.34 LIG 0.32  N 
ATOM     56  CD  PRO G   2      37.578  -1.019  32.436  1.00102.42 LIG 0.32  C 
ATOM     57  CG  PRO G   2      36.618   0.148  32.301  1.00 98.38 LIG 0.04  C 
ATOM     58  CB  PRO G   2      37.023   0.942  31.083  1.00102.80 LIG 0.05  C 
ENDBRANCH 51 54
ENDBRANCH 37 50
ENDBRANCH 34 37
ENDBRANCH 1 33
TORSDOF 20
ENDMDL
MODEL 11
USER: ADFR SOLUTION from run 121
USER: SCORE 14.153871 LL:  -4.378 LR: -11.860 RR:   0.000 FEB:  -5.894
USER: RMSD 4.096522
USER: SEED 120
USER: STATUS no improvement in best in 2 clusters for 5 generations
USER: GENES 22
USER: genes 0 Translation |==|  0.52446 0.47613 0.58102
USER: genes 1 Rotation |==|  0.53382 0.53716 0.48248 0.99716
USER: genes 2 Torsion [C]-CA--CB-[CG] |==|  0.25468
USER: genes 3 Torsion [CA]-CB--CG-[CD1] |==|  0.76145
USER: genes 4 Torsion [N]-CA--C-[N] |==|  0.37742
USER: genes 5 Torsion [N]-CA--C-[N] |==|  0.54955
USER: genes 6 Torsion [C]-N--CA-[C] |==|  0.18835
USER: genes 7 Torsion [N]-CA--C-[N] |==|  0.03943
USER: genes 8 Torsion [C]-N--CA-[CB] |==|  0.45037
USER: genes 9 Torsion [N]-CA--CB-[CG] |==|  0.66191
USER: genes 10 Torsion [CA]-CB--CG-[CD2] |==|  0.55834
USER: genes 11 Torsion [N]-CA--C-[O] |==|  0.88991
USER: genes 12 Torsion [N]-CA--CB-[CG] |==|  0.83525
USER: genes 13 Torsion [CA]-CB--CG-[CD2] |==|  0.68061
USER: genes 14 Torsion [CB]-CA--N-[C] |==|  0.30759
USER: genes 15 Torsion [N]-C--CA-[N] |==|  0.48614
USER: genes 16 Torsion [C]-CA--CB-[CG] |==|  0.26400
USER: genes 17 Torsion [CA]-CB--CG-[CD] |==|  0.49541
USER: genes 18 Torsion [CB]-CG--CD-[NE] |==|  0.58648
USER: genes 19 Torsion [CG]-CD--NE-[HE] |==|  0.35188
USER: genes 20 Torsion [C]-CA--N-[C] |==|  0.51111
USER: genes 21 Torsion [N]-C--CA-[CB] |==|  0.99798
ROOT
ATOM      1  CA  LEU G   4      40.277   3.991  24.998  1.00 72.45 LIG 0.18  C 
ENDROOT
BRANCH 1 2
ATOM      2  CB  LEU G   4      41.669   4.518  25.430  1.00 74.60 LIG 0.04  C 
BRANCH 2 3
ATOM      3  CG  LEU G   4      41.706   5.167  26.854  1.00 80.94 LIG-0.02  C 
ATOM      4  CD2 LEU G   4      40.875   4.413  27.908  1.00 76.26 LIG 0.01  C 
ATOM      5  CD1 LEU G   4      41.316   6.651  26.811  1.00 74.38 LIG 0.01  C 
ENDBRANCH 2 3
ENDBRANCH 1 2
BRANCH 1 6
ATOM      6  C   LEU G   4      39.429   5.035  24.216  1.00 69.99 LIG 0.24  C 
ATOM      7 O    LEU G   4      39.498   5.139  22.956  1.00 62.75 LIG-0.27  OA
ATOM      8  N   PRO G   5      38.565   5.768  24.965  1.00 68.53 LIG-0.34  N 
ATOM      9  CA  PRO G   5      37.818   6.814  24.294  1.00 66.41 LIG 0.18  C 
ATOM     10  CD  PRO G   5      38.112   5.592  26.366  1.00 67.94 LIG 0.13  C 
ATOM     11  CB  PRO G   5      36.888   7.358  25.409  1.00 68.06 LIG 0.04  C 
ATOM     12  CG  PRO G   5      36.735   6.213  26.363  1.00 67.97 LIG 0.02  C 
BRANCH 9 13
ATOM     13  C   PRO G   5      38.790   7.862  23.743  1.00 65.16 LIG 0.24  C 
ATOM     14  N   LEU G   6      38.284   9.048  23.428  1.00 58.40 LIG-0.35  N 
ATOM     15 H    LEU G   6      37.493   9.311  23.641  1.00 58.40 LIG 0.16  HD
ATOM     16 O    PRO G   5      39.994   7.586  23.601  1.00 57.12 LIG-0.27  OA
BRANCH 14 17
ATOM     17  CA  LEU G   6      39.067  10.020  22.669  1.00 60.31 LIG 0.18  C 
BRANCH 17 18
ATOM     18  C   LEU G   6      39.353   9.622  21.223  1.00 60.34 LIG 0.24  C 
ATOM     19 O    LEU G   6      40.184  10.263  20.604  1.00 72.64 LIG-0.27  OA
ATOM     20  N   LEU G   7      38.664   8.614  20.671  1.00 65.91 LIG-0.35  N 
ATOM     21 H    LEU G   7      37.992   8.231  21.049  1.00 65.91 LIG 0.16  HD
BRANCH 20 22
ATOM     22  CA  LEU G   7      39.012   8.057  19.317  1.00 66.14 LIG 0.16  C 
BRANCH 22 23
ATOM     23  CB  LEU G   7      38.377   6.666  19.129  1.00 64.61 LIG 0.04  C 
BRANCH 23 24
ATOM     24  CG  LEU G   7      39.296   5.464  18.832  1.00 68.76 LIG-0.02  C 
ATOM     25  CD2 LEU G   7      38.513   4.307  18.174  1.00 64.31 LIG 0.01  C 
ATOM     26  CD1 LEU G   7      40.079   5.017  20.072  1.00 66.72 LIG 0.01  C 
ENDBRANCH 23 24
ENDBRANCH 22 23
BRANCH 22 27
ATOM     27  C   LEU G   7      38.644   8.975  18.145  1.00 59.22 LIG 0.22  C 
ATOM     28 O    LEU G   7      37.591   9.595  18.179  1.00 55.72 LIG-0.29  OA
ENDBRANCH 22 27
ENDBRANCH 20 22
ENDBRANCH 17 18
BRANCH 17 29
ATOM     29  CB  LEU G   6      40.365  10.394  23.427  1.00 54.67 LIG 0.04  C 
BRANCH 29 30
ATOM     30  CG  LEU G   6      39.977  10.990  24.800  1.00 53.09 LIG-0.02  C 
ATOM     31  CD1 LEU G   6      40.544  10.136  25.903  1.00 49.97 LIG 0.01  C 
ATOM     32  CD2 LEU G   6      40.371  12.463  24.939  1.00 51.63 LIG 0.01  C 
ENDBRANCH 29 30
ENDBRANCH 17 29
ENDBRANCH 14 17
ENDBRANCH 9 13
ENDBRANCH 1 6
BRANCH 1 33
ATOM     33  N   LEU G   4      40.349   2.689  24.317  1.00 70.21 LIG-0.35  N 
ATOM     34  C   ARG G   3      39.872   1.586  24.907  1.00 75.48 LIG 0.24  C 
ATOM     35 O    ARG G   3      39.418   1.611  26.084  1.00 65.52 LIG-0.27  OA
ATOM     36 H    LEU G   4      40.712   2.706  23.537  1.00 70.21 LIG 0.16  HD
BRANCH 34 37
ATOM     37  CA  ARG G   3      39.942   0.249  24.078  1.00 78.48 LIG 0.18  C 
BRANCH 37 38
ATOM     38  CB  ARG G   3      39.144   0.346  22.760  1.00 76.51 LIG 0.04  C 
BRANCH 38 39
ATOM     39  CG  ARG G   3      39.963   0.731  21.537  1.00 78.92 LIG 0.02  C 
BRANCH 39 40
ATOM     40  CD  ARG G   3      39.117   0.770  20.261  1.00 76.70 LIG 0.14  C 
BRANCH 40 41
ATOM     41  NE  ARG G   3      39.851   0.417  19.019  1.00 80.12 LIG-0.23  N 
ATOM     42 HE   ARG G   3      39.510  -0.204  18.533  1.00 80.12 LIG 0.18  HD
ATOM     43  CZ  ARG G   3      40.998   0.971  18.575  1.00 82.69 LIG 0.67  C 
ATOM     44  NH1 ARG G   3      41.669   1.918  19.252  1.00 73.81 LIG-0.23  N 
ATOM     45  NH2 ARG G   3      41.512   0.546  17.425  1.00 84.58 LIG-0.23  N 
ATOM     46 1HH1 ARG G   3      41.370   2.200  20.008  1.00 73.81 LIG 0.17  HD
ATOM     47 2HH1 ARG G   3      42.397   2.244  18.930  1.00 73.81 LIG 0.17  HD
ATOM     48 2HH2 ARG G   3      42.243   0.888  17.128  1.00 84.58 LIG 0.17  HD
ATOM     49 1HH2 ARG G   3      41.113  -0.072  16.979  1.00 84.58 LIG 0.17  HD
ENDBRANCH 40 41
ENDBRANCH 39 40
ENDBRANCH 38 39
ENDBRANCH 37 38
BRANCH 37 50
ATOM     50  N   ARG G   3      39.498  -0.940  24.863  1.00 95.22 LIG-0.35  N 
ATOM     51  C   PRO G   2      39.545  -2.198  24.391  1.00105.18 LIG 0.25  C 
ATOM     52 O    PRO G   2      39.878  -2.459  23.229  1.00111.30 LIG-0.27  OA
ATOM     53 H    ARG G   3      39.208  -0.744  25.650  1.00 95.22 LIG 0.16  HD
BRANCH 51 54
ATOM     54  CA  PRO G   2      39.151  -3.356  25.361  1.00104.44 LIG 0.35  C 
ATOM     55  N   PRO G   2      40.241  -4.293  25.660  1.00103.34 LIG 0.32  N 
ATOM     56  CD  PRO G   2      40.163  -4.813  27.045  1.00102.42 LIG 0.32  C 
ATOM     57  CG  PRO G   2      39.121  -3.935  27.713  1.00 98.38 LIG 0.04  C 
ATOM     58  CB  PRO G   2      38.777  -2.818  26.758  1.00102.80 LIG 0.05  C 
ENDBRANCH 51 54
ENDBRANCH 37 50
ENDBRANCH 34 37
ENDBRANCH 1 33
TORSDOF 20
ENDMDL
MODEL 12
USER: ADFR SOLUTION from run 9
USER: SCORE 16.652637 LL:  -4.959 LR: -11.797 RR:   0.000 FEB:  -5.831
USER: RMSD 3.330124
USER: SEED 421624
USER: STATUS no improvement in best in 6 clusters for 5 generations
USER: GENES 22
USER: genes 0 Translation |==|  0.42508 0.50160 0.69162
USER: genes 1 Rotation |==|  0.44008 0.43149 0.46026 0.99004
USER: genes 2 Torsion [C]-CA--CB-[CG] |==|  0.04766
USER: genes 3 Torsion [CA]-CB--CG-[CD1] |==|  0.26386
USER: genes 4 Torsion [N]-CA--C-[N] |==|  0.35185
USER: genes 5 Torsion [N]-CA--C-[N] |==|  0.41451
USER: genes 6 Torsion [C]-N--CA-[C] |==|  0.83616
USER: genes 7 Torsion [N]-CA--C-[N] |==|  0.92448
USER: genes 8 Torsion [C]-N--CA-[CB] |==|  0.41475
USER: genes 9 Torsion [N]-CA--CB-[CG] |==|  0.75778
USER: genes 10 Torsion [CA]-CB--CG-[CD2] |==|  0.46509
USER: genes 11 Torsion [N]-CA--C-[O] |==|  0.96400
USER: genes 12 Torsion [N]-CA--CB-[CG] |==|  0.00327
USER: genes 13 Torsion [CA]-CB--CG-[CD2] |==|  0.73478
USER: genes 14 Torsion [CB]-CA--N-[C] |==|  0.83883
USER: genes 15 Torsion [N]-C--CA-[N] |==|  0.94543
USER: genes 16 Torsion [C]-CA--CB-[CG] |==|  0.17174
USER: genes 17 Torsion [CA]-CB--CG-[CD] |==|  0.14189
USER: genes 18 Torsion [CB]-CG--CD-[NE] |==|  0.74788
USER: genes 19 Torsion [CG]-CD--NE-[HE] |==|  0.04536
USER: genes 20 Torsion [C]-CA--N-[C] |==|  0.83316
USER: genes 21 Torsion [N]-C--CA-[CB] |==|  0.67802
ROOT
ATOM      1  CA  LEU G   4      38.637   4.717  27.155  1.00 72.45 LIG 0.18  C 
ENDROOT
BRANCH 1 2
ATOM      2  CB  LEU G   4      39.842   5.360  27.888  1.00 74.60 LIG 0.04  C 
BRANCH 2 3
ATOM      3  CG  LEU G   4      40.246   6.777  27.357  1.00 80.94 LIG-0.02  C 
ATOM      4  CD2 LEU G   4      41.766   6.992  27.243  1.00 76.26 LIG 0.01  C 
ATOM      5  CD1 LEU G   4      39.596   7.897  28.179  1.00 74.38 LIG 0.01  C 
ENDBRANCH 2 3
ENDBRANCH 1 2
BRANCH 1 6
ATOM      6  C   LEU G   4      38.318   5.375  25.782  1.00 69.99 LIG 0.24  C 
ATOM      7 O    LEU G   4      38.979   5.093  24.738  1.00 62.75 LIG-0.27  OA
ATOM      8  N   PRO G   5      37.245   6.208  25.766  1.00 68.53 LIG-0.34  N 
ATOM      9  CA  PRO G   5      36.962   6.912  24.530  1.00 66.41 LIG 0.18  C 
ATOM     10  CD  PRO G   5      36.175   6.423  26.770  1.00 67.94 LIG 0.13  C 
ATOM     11  CB  PRO G   5      35.647   7.671  24.848  1.00 68.06 LIG 0.04  C 
ATOM     12  CG  PRO G   5      34.999   6.865  25.932  1.00 67.97 LIG 0.02  C 
BRANCH 9 13
ATOM     13  C   PRO G   5      38.135   7.837  24.190  1.00 65.16 LIG 0.24  C 
ATOM     14  N   LEU G   6      38.373   8.061  22.904  1.00 58.40 LIG-0.35  N 
ATOM     15 H    LEU G   6      37.838   7.845  22.266  1.00 58.40 LIG 0.16  HD
ATOM     16 O    PRO G   5      38.823   8.335  25.099  1.00 57.12 LIG-0.27  OA
BRANCH 14 17
ATOM     17  CA  LEU G   6      39.606   8.715  22.473  1.00 60.31 LIG 0.18  C 
BRANCH 17 18
ATOM     18  C   LEU G   6      39.826  10.110  23.050  1.00 60.34 LIG 0.24  C 
ATOM     19 O    LEU G   6      40.972  10.495  23.204  1.00 72.64 LIG-0.27  OA
ATOM     20  N   LEU G   7      38.766  10.850  23.402  1.00 65.91 LIG-0.35  N 
ATOM     21 H    LEU G   7      37.959  10.552  23.416  1.00 65.91 LIG 0.16  HD
BRANCH 20 22
ATOM     22  CA  LEU G   7      38.899  12.292  23.813  1.00 66.14 LIG 0.16  C 
BRANCH 22 23
ATOM     23  CB  LEU G   7      37.631  13.079  23.431  1.00 64.61 LIG 0.04  C 
BRANCH 23 24
ATOM     24  CG  LEU G   7      37.536  13.695  22.021  1.00 68.76 LIG-0.02  C 
ATOM     25  CD2 LEU G   7      36.098  14.166  21.710  1.00 64.31 LIG 0.01  C 
ATOM     26  CD1 LEU G   7      38.097  12.759  20.944  1.00 66.72 LIG 0.01  C 
ENDBRANCH 23 24
ENDBRANCH 22 23
BRANCH 22 27
ATOM     27  C   LEU G   7      39.229  12.496  25.297  1.00 59.22 LIG 0.22  C 
ATOM     28 O    LEU G   7      39.123  11.553  26.067  1.00 55.72 LIG-0.29  OA
ENDBRANCH 22 27
ENDBRANCH 20 22
ENDBRANCH 17 18
BRANCH 17 29
ATOM     29  CB  LEU G   6      39.721   8.710  20.928  1.00 54.67 LIG 0.04  C 
BRANCH 29 30
ATOM     30  CG  LEU G   6      38.461   8.031  20.343  1.00 53.09 LIG-0.02  C 
ATOM     31  CD1 LEU G   6      37.984   8.797  19.137  1.00 49.97 LIG 0.01  C 
ATOM     32  CD2 LEU G   6      38.672   6.544  20.046  1.00 51.63 LIG 0.01  C 
ENDBRANCH 29 30
ENDBRANCH 17 29
ENDBRANCH 14 17
ENDBRANCH 9 13
ENDBRANCH 1 6
BRANCH 1 33
ATOM     33  N   LEU G   4      38.737   3.251  27.076  1.00 70.21 LIG-0.35  N 
ATOM     34  C   ARG G   3      39.792   2.673  26.487  1.00 75.48 LIG 0.24  C 
ATOM     35 O    ARG G   3      40.689   3.358  25.920  1.00 65.52 LIG-0.27  OA
ATOM     36 H    LEU G   4      38.081   2.823  27.429  1.00 70.21 LIG 0.16  HD
BRANCH 34 37
ATOM     37  CA  ARG G   3      39.840   1.099  26.501  1.00 78.48 LIG 0.18  C 
BRANCH 37 38
ATOM     38  CB  ARG G   3      39.498   0.502  25.118  1.00 76.51 LIG 0.04  C 
BRANCH 38 39
ATOM     39  CG  ARG G   3      40.450   0.885  23.997  1.00 78.92 LIG 0.02  C 
BRANCH 39 40
ATOM     40  CD  ARG G   3      41.915   0.635  24.368  1.00 76.70 LIG 0.14  C 
BRANCH 40 41
ATOM     41  NE  ARG G   3      42.600   1.790  25.002  1.00 80.12 LIG-0.23  N 
ATOM     42 HE   ARG G   3      42.097   2.415  25.310  1.00 80.12 LIG 0.18  HD
ATOM     43  CZ  ARG G   3      43.931   1.958  25.146  1.00 82.69 LIG 0.67  C 
ATOM     44  NH1 ARG G   3      44.839   1.087  24.674  1.00 73.81 LIG-0.23  N 
ATOM     45  NH2 ARG G   3      44.376   3.050  25.760  1.00 84.58 LIG-0.23  N 
ATOM     46 1HH1 ARG G   3      44.581   0.381  24.256  1.00 73.81 LIG 0.17  HD
ATOM     47 2HH1 ARG G   3      45.679   1.236  24.789  1.00 73.81 LIG 0.17  HD
ATOM     48 2HH2 ARG G   3      45.221   3.173  25.860  1.00 84.58 LIG 0.17  HD
ATOM     49 1HH2 ARG G   3      43.818   3.633  26.057  1.00 84.58 LIG 0.17  HD
ENDBRANCH 40 41
ENDBRANCH 39 40
ENDBRANCH 38 39
ENDBRANCH 37 38
BRANCH 37 50
ATOM     50  N   ARG G   3      38.963   0.505  27.551  1.00 95.22 LIG-0.35  N 
ATOM     51  C   PRO G   2      39.111   0.752  28.865  1.00105.18 LIG 0.25  C 
ATOM     52 O    PRO G   2      40.047   1.424  29.313  1.00111.30 LIG-0.27  OA
ATOM     53 H    ARG G   3      38.351  -0.013  27.237  1.00 95.22 LIG 0.16  HD
BRANCH 51 54
ATOM     54  CA  PRO G   2      38.054   0.149  29.843  1.00104.44 LIG 0.35  C 
ATOM     55  N   PRO G   2      38.628  -0.610  30.962  1.00103.34 LIG 0.32  N 
ATOM     56  CD  PRO G   2      37.823  -0.471  32.198  1.00102.42 LIG 0.32  C 
ATOM     57  CG  PRO G   2      36.852   0.652  31.885  1.00 98.38 LIG 0.04  C 
ATOM     58  CB  PRO G   2      37.255   1.256  30.562  1.00102.80 LIG 0.05  C 
ENDBRANCH 51 54
ENDBRANCH 37 50
ENDBRANCH 34 37
ENDBRANCH 1 33
TORSDOF 20
ENDMDL
MODEL 13
USER: ADFR SOLUTION from run 29
USER: SCORE 14.568970 LL:  -4.233 LR: -11.804 RR:   0.000 FEB:  -5.838
USER: RMSD 2.950500
USER: SEED 28
USER: STATUS no improvement in best in 10 clusters for 5 generations
USER: GENES 22
USER: genes 0 Translation |==|  0.56343 0.48966 0.54909
USER: genes 1 Rotation |==|  0.41990 0.69599 0.37044 0.93404
USER: genes 2 Torsion [C]-CA--CB-[CG] |==|  0.73988
USER: genes 3 Torsion [CA]-CB--CG-[CD1] |==|  0.23112
USER: genes 4 Torsion [N]-CA--C-[N] |==|  0.21667
USER: genes 5 Torsion [N]-CA--C-[N] |==|  0.41311
USER: genes 6 Torsion [C]-N--CA-[C] |==|  0.77280
USER: genes 7 Torsion [N]-CA--C-[N] |==|  0.93984
USER: genes 8 Torsion [C]-N--CA-[CB] |==|  0.38082
USER: genes 9 Torsion [N]-CA--CB-[CG] |==|  0.77877
USER: genes 10 Torsion [CA]-CB--CG-[CD2] |==|  0.42067
USER: genes 11 Torsion [N]-CA--C-[O] |==|  0.89355
USER: genes 12 Torsion [N]-CA--CB-[CG] |==|  0.93293
USER: genes 13 Torsion [CA]-CB--CG-[CD2] |==|  0.81288
USER: genes 14 Torsion [CB]-CA--N-[C] |==|  0.17632
USER: genes 15 Torsion [N]-C--CA-[N] |==|  0.77398
USER: genes 16 Torsion [C]-CA--CB-[CG] |==|  0.23179
USER: genes 17 Torsion [CA]-CB--CG-[CD] |==|  0.71513
USER: genes 18 Torsion [CB]-CG--CD-[NE] |==|  0.78355
USER: genes 19 Torsion [CG]-CD--NE-[HE] |==|  0.15329
USER: genes 20 Torsion [C]-CA--N-[C] |==|  0.72449
USER: genes 21 Torsion [N]-C--CA-[CB] |==|  0.75675
ROOT
ATOM      1  CA  LEU G   4      40.920   4.376  24.375  1.00 72.45 LIG 0.18  C 
ENDROOT
BRANCH 1 2
ATOM      2  CB  LEU G   4      42.274   4.243  23.634  1.00 74.60 LIG 0.04  C 
BRANCH 2 3
ATOM      3  CG  LEU G   4      42.304   3.139  22.525  1.00 80.94 LIG-0.02  C 
ATOM      4  CD2 LEU G   4      43.691   2.507  22.307  1.00 76.26 LIG 0.01  C 
ATOM      5  CD1 LEU G   4      41.724   3.650  21.200  1.00 74.38 LIG 0.01  C 
ENDBRANCH 2 3
ENDBRANCH 1 2
BRANCH 1 6
ATOM      6  C   LEU G   4      39.976   5.451  23.762  1.00 69.99 LIG 0.24  C 
ATOM      7 O    LEU G   4      39.983   5.713  22.523  1.00 62.75 LIG-0.27  OA
ATOM      8  N   PRO G   5      39.103   6.027  24.628  1.00 68.53 LIG-0.34  N 
ATOM      9  CA  PRO G   5      38.263   7.095  24.121  1.00 66.41 LIG 0.18  C 
ATOM     10  CD  PRO G   5      38.723   5.649  26.011  1.00 67.94 LIG 0.13  C 
ATOM     11  CB  PRO G   5      37.352   7.434  25.329  1.00 68.06 LIG 0.04  C 
ATOM     12  CG  PRO G   5      37.312   6.173  26.136  1.00 67.97 LIG 0.02  C 
BRANCH 9 13
ATOM     13  C   PRO G   5      39.144   8.266  23.672  1.00 65.16 LIG 0.24  C 
ATOM     14  N   LEU G   6      38.699   9.002  22.661  1.00 58.40 LIG-0.35  N 
ATOM     15 H    LEU G   6      37.902   8.958  22.342  1.00 58.40 LIG 0.16  HD
ATOM     16 O    PRO G   5      40.227   8.488  24.241  1.00 57.12 LIG-0.27  OA
BRANCH 14 17
ATOM     17  CA  LEU G   6      39.570   9.972  22.000  1.00 60.31 LIG 0.18  C 
BRANCH 17 18
ATOM     18  C   LEU G   6      39.692  11.314  22.717  1.00 60.34 LIG 0.24  C 
ATOM     19 O    LEU G   6      40.683  11.991  22.504  1.00 72.64 LIG-0.27  OA
ATOM     20  N   LEU G   7      38.736  11.689  23.577  1.00 65.91 LIG-0.35  N 
ATOM     21 H    LEU G   7      38.094  11.175  23.832  1.00 65.91 LIG 0.16  HD
BRANCH 20 22
ATOM     22  CA  LEU G   7      38.702  13.066  24.183  1.00 66.14 LIG 0.16  C 
BRANCH 22 23
ATOM     23  CB  LEU G   7      37.264  13.618  24.185  1.00 64.61 LIG 0.04  C 
BRANCH 23 24
ATOM     24  CG  LEU G   7      36.696  14.212  22.881  1.00 68.76 LIG-0.02  C 
ATOM     25  CD2 LEU G   7      35.161  14.057  22.815  1.00 64.31 LIG 0.01  C 
ATOM     26  CD1 LEU G   7      37.398  13.654  21.638  1.00 66.72 LIG 0.01  C 
ENDBRANCH 23 24
ENDBRANCH 22 23
BRANCH 22 27
ATOM     27  C   LEU G   7      39.309  13.149  25.589  1.00 59.22 LIG 0.22  C 
ATOM     28 O    LEU G   7      39.122  12.233  26.376  1.00 55.72 LIG-0.29  OA
ENDBRANCH 22 27
ENDBRANCH 20 22
ENDBRANCH 17 18
BRANCH 17 29
ATOM     29  CB  LEU G   6      39.168  10.150  20.515  1.00 54.67 LIG 0.04  C 
BRANCH 29 30
ATOM     30  CG  LEU G   6      38.431   8.873  20.048  1.00 53.09 LIG-0.02  C 
ATOM     31  CD1 LEU G   6      37.741   9.136  18.736  1.00 49.97 LIG 0.01  C 
ATOM     32  CD2 LEU G   6      39.345   7.647  19.994  1.00 51.63 LIG 0.01  C 
ENDBRANCH 29 30
ENDBRANCH 17 29
ENDBRANCH 14 17
ENDBRANCH 9 13
ENDBRANCH 1 6
BRANCH 1 33
ATOM     33  N   LEU G   4      40.254   3.080  24.578  1.00 70.21 LIG-0.35  N 
ATOM     34  C   ARG G   3      40.822   2.137  25.339  1.00 75.48 LIG 0.24  C 
ATOM     35 O    ARG G   3      41.969   2.296  25.842  1.00 65.52 LIG-0.27  OA
ATOM     36 H    LEU G   4      39.498   2.993  24.178  1.00 70.21 LIG 0.16  HD
BRANCH 34 37
ATOM     37  CA  ARG G   3      40.009   0.804  25.545  1.00 78.48 LIG 0.18  C 
BRANCH 37 38
ATOM     38  CB  ARG G   3      39.378   0.306  24.226  1.00 76.51 LIG 0.04  C 
BRANCH 38 39
ATOM     39  CG  ARG G   3      40.303  -0.507  23.334  1.00 78.92 LIG 0.02  C 
BRANCH 39 40
ATOM     40  CD  ARG G   3      40.838   0.310  22.155  1.00 76.70 LIG 0.14  C 
BRANCH 40 41
ATOM     41  NE  ARG G   3      39.876   0.490  21.037  1.00 80.12 LIG-0.23  N 
ATOM     42 HE   ARG G   3      39.113   0.832  21.237  1.00 80.12 LIG 0.18  HD
ATOM     43  CZ  ARG G   3      40.076   0.172  19.741  1.00 82.69 LIG 0.67  C 
ATOM     44  NH1 ARG G   3      41.200  -0.411  19.292  1.00 73.81 LIG-0.23  N 
ATOM     45  NH2 ARG G   3      39.110   0.420  18.864  1.00 84.58 LIG-0.23  N 
ATOM     46 1HH1 ARG G   3      41.836  -0.600  19.840  1.00 73.81 LIG 0.17  HD
ATOM     47 2HH1 ARG G   3      41.285  -0.596  18.456  1.00 73.81 LIG 0.17  HD
ATOM     48 2HH2 ARG G   3      39.221   0.223  18.034  1.00 84.58 LIG 0.17  HD
ATOM     49 1HH2 ARG G   3      38.372   0.777  19.127  1.00 84.58 LIG 0.17  HD
ENDBRANCH 40 41
ENDBRANCH 39 40
ENDBRANCH 38 39
ENDBRANCH 37 38
BRANCH 37 50
ATOM     50  N   ARG G   3      38.966   0.922  26.604  1.00 95.22 LIG-0.35  N 
ATOM     51  C   PRO G   2      39.136   0.480  27.863  1.00105.18 LIG 0.25  C 
ATOM     52 O    PRO G   2      40.143  -0.144  28.217  1.00111.30 LIG-0.27  OA
ATOM     53 H    ARG G   3      38.242   1.302  26.334  1.00 95.22 LIG 0.16  HD
BRANCH 51 54
ATOM     54  CA  PRO G   2      38.002   0.768  28.896  1.00104.44 LIG 0.35  C 
ATOM     55  N   PRO G   2      37.975  -0.155  30.038  1.00103.34 LIG 0.32  N 
ATOM     56  CD  PRO G   2      37.538   0.516  31.285  1.00102.42 LIG 0.32  C 
ATOM     57  CG  PRO G   2      37.560   1.994  30.938  1.00 98.38 LIG 0.04  C 
ATOM     58  CB  PRO G   2      38.194   2.139  29.576  1.00102.80 LIG 0.05  C 
ENDBRANCH 51 54
ENDBRANCH 37 50
ENDBRANCH 34 37
ENDBRANCH 1 33
TORSDOF 20
ENDMDL
MODEL 14
USER: ADFR SOLUTION from run 50
USER: SCORE 16.760687 LL:  -5.020 LR: -11.767 RR:   0.000 FEB:  -5.801
USER: RMSD 3.381432
USER: SEED 49
USER: STATUS searching
USER: GENES 22
USER: genes 0 Translation |==|  0.42152 0.49381 0.68276
USER: genes 1 Rotation |==|  0.46318 0.42670 0.46467 0.99196
USER: genes 2 Torsion [C]-CA--CB-[CG] |==|  0.03240
USER: genes 3 Torsion [CA]-CB--CG-[CD1] |==|  0.25502
USER: genes 4 Torsion [N]-CA--C-[N] |==|  0.36145
USER: genes 5 Torsion [N]-CA--C-[N] |==|  0.30577
USER: genes 6 Torsion [C]-N--CA-[C] |==|  0.76109
USER: genes 7 Torsion [N]-CA--C-[N] |==|  0.99213
USER: genes 8 Torsion [C]-N--CA-[CB] |==|  0.32285
USER: genes 9 Torsion [N]-CA--CB-[CG] |==|  0.89912
USER: genes 10 Torsion [CA]-CB--CG-[CD2] |==|  0.59041
USER: genes 11 Torsion [N]-CA--C-[O] |==|  0.96163
USER: genes 12 Torsion [N]-CA--CB-[CG] |==|  0.97737
USER: genes 13 Torsion [CA]-CB--CG-[CD2] |==|  0.62734
USER: genes 14 Torsion [CB]-CA--N-[C] |==|  0.83211
USER: genes 15 Torsion [N]-C--CA-[N] |==|  0.93179
USER: genes 16 Torsion [C]-CA--CB-[CG] |==|  0.17281
USER: genes 17 Torsion [CA]-CB--CG-[CD] |==|  0.51332
USER: genes 18 Torsion [CB]-CG--CD-[NE] |==|  0.59456
USER: genes 19 Torsion [CG]-CD--NE-[HE] |==|  0.03897
USER: genes 20 Torsion [C]-CA--N-[C] |==|  0.83319
USER: genes 21 Torsion [N]-C--CA-[CB] |==|  0.71338
ROOT
ATOM      1  CA  LEU G   4      38.578   4.495  26.982  1.00 72.45 LIG 0.18  C 
ENDROOT
BRANCH 1 2
ATOM      2  CB  LEU G   4      39.744   5.109  27.797  1.00 74.60 LIG 0.04  C 
BRANCH 2 3
ATOM      3  CG  LEU G   4      40.202   6.527  27.313  1.00 80.94 LIG-0.02  C 
ATOM      4  CD2 LEU G   4      41.724   6.746  27.370  1.00 76.26 LIG 0.01  C 
ATOM      5  CD1 LEU G   4      39.460   7.646  28.056  1.00 74.38 LIG 0.01  C 
ENDBRANCH 2 3
ENDBRANCH 1 2
BRANCH 1 6
ATOM      6  C   LEU G   4      38.266   5.261  25.664  1.00 69.99 LIG 0.24  C 
ATOM      7 O    LEU G   4      38.918   5.046  24.599  1.00 62.75 LIG-0.27  OA
ATOM      8  N   PRO G   5      37.210   6.113  25.717  1.00 68.53 LIG-0.34  N 
ATOM      9  CA  PRO G   5      36.935   6.913  24.539  1.00 66.41 LIG 0.18  C 
ATOM     10  CD  PRO G   5      36.148   6.272  26.740  1.00 67.94 LIG 0.13  C 
ATOM     11  CB  PRO G   5      35.637   7.671  24.920  1.00 68.06 LIG 0.04  C 
ATOM     12  CG  PRO G   5      34.978   6.799  25.944  1.00 67.97 LIG 0.02  C 
BRANCH 9 13
ATOM     13  C   PRO G   5      38.125   7.838  24.263  1.00 65.16 LIG 0.24  C 
ATOM     14  N   LEU G   6      38.862   7.571  23.192  1.00 58.40 LIG-0.35  N 
ATOM     15 H    LEU G   6      38.638   7.015  22.575  1.00 58.40 LIG 0.16  HD
ATOM     16 O    PRO G   5      38.372   8.786  25.031  1.00 57.12 LIG-0.27  OA
BRANCH 14 17
ATOM     17  CA  LEU G   6      40.149   8.229  22.984  1.00 60.31 LIG 0.18  C 
BRANCH 17 18
ATOM     18  C   LEU G   6      40.069   9.584  22.287  1.00 60.34 LIG 0.24  C 
ATOM     19 O    LEU G   6      41.097  10.227  22.159  1.00 72.64 LIG-0.27  OA
ATOM     20  N   LEU G   7      38.879  10.041  21.872  1.00 65.91 LIG-0.35  N 
ATOM     21 H    LEU G   7      38.130   9.661  22.060  1.00 65.91 LIG 0.16  HD
BRANCH 20 22
ATOM     22  CA  LEU G   7      38.749  11.280  21.028  1.00 66.14 LIG 0.16  C 
BRANCH 22 23
ATOM     23  CB  LEU G   7      38.166  10.930  19.646  1.00 64.61 LIG 0.04  C 
BRANCH 23 24
ATOM     24  CG  LEU G   7      38.571   9.597  18.985  1.00 68.76 LIG-0.02  C 
ATOM     25  CD2 LEU G   7      38.619   9.725  17.447  1.00 64.31 LIG 0.01  C 
ATOM     26  CD1 LEU G   7      37.695   8.431  19.453  1.00 66.72 LIG 0.01  C 
ENDBRANCH 23 24
ENDBRANCH 22 23
BRANCH 22 27
ATOM     27  C   LEU G   7      37.938  12.404  21.682  1.00 59.22 LIG 0.22  C 
ATOM     28 O    LEU G   7      37.260  12.157  22.668  1.00 55.72 LIG-0.29  OA
ENDBRANCH 22 27
ENDBRANCH 20 22
ENDBRANCH 17 18
BRANCH 17 29
ATOM     29  CB  LEU G   6      41.146   7.278  22.275  1.00 54.67 LIG 0.04  C 
BRANCH 29 30
ATOM     30  CG  LEU G   6      40.514   5.869  22.203  1.00 53.09 LIG-0.02  C 
ATOM     31  CD1 LEU G   6      39.926   5.644  20.835  1.00 49.97 LIG 0.01  C 
ATOM     32  CD2 LEU G   6      41.489   4.761  22.611  1.00 51.63 LIG 0.01  C 
ENDBRANCH 29 30
ENDBRANCH 17 29
ENDBRANCH 14 17
ENDBRANCH 9 13
ENDBRANCH 1 6
BRANCH 1 33
ATOM     33  N   LEU G   4      38.730   3.046  26.778  1.00 70.21 LIG-0.35  N 
ATOM     34  C   ARG G   3      39.792   2.559  26.125  1.00 75.48 LIG 0.24  C 
ATOM     35 O    ARG G   3      40.652   3.322  25.602  1.00 65.52 LIG-0.27  OA
ATOM     36 H    LEU G   4      38.097   2.565  27.106  1.00 70.21 LIG 0.16  HD
BRANCH 34 37
ATOM     37  CA  ARG G   3      39.897   0.992  26.005  1.00 78.48 LIG 0.18  C 
BRANCH 37 38
ATOM     38  CB  ARG G   3      39.433   0.489  24.621  1.00 76.51 LIG 0.04  C 
BRANCH 38 39
ATOM     39  CG  ARG G   3      40.253   0.992  23.443  1.00 78.92 LIG 0.02  C 
BRANCH 39 40
ATOM     40  CD  ARG G   3      39.668   0.550  22.098  1.00 76.70 LIG 0.14  C 
BRANCH 40 41
ATOM     41  NE  ARG G   3      40.676   0.275  21.043  1.00 80.12 LIG-0.23  N 
ATOM     42 HE   ARG G   3      41.493   0.199  21.301  1.00 80.12 LIG 0.18  HD
ATOM     43  CZ  ARG G   3      40.443   0.132  19.722  1.00 82.69 LIG 0.67  C 
ATOM     44  NH1 ARG G   3      39.225   0.271  19.170  1.00 73.81 LIG-0.23  N 
ATOM     45  NH2 ARG G   3      41.465  -0.133  18.916  1.00 84.58 LIG-0.23  N 
ATOM     46 1HH1 ARG G   3      38.548   0.461  19.665  1.00 73.81 LIG 0.17  HD
ATOM     47 2HH1 ARG G   3      39.123   0.171  18.322  1.00 73.81 LIG 0.17  HD
ATOM     48 2HH2 ARG G   3      41.334  -0.227  18.071  1.00 84.58 LIG 0.17  HD
ATOM     49 1HH2 ARG G   3      42.258  -0.210  19.239  1.00 84.58 LIG 0.17  HD
ENDBRANCH 40 41
ENDBRANCH 39 40
ENDBRANCH 38 39
ENDBRANCH 37 38
BRANCH 37 50
ATOM     50  N   ARG G   3      39.158   0.280  27.088  1.00 95.22 LIG-0.35  N 
ATOM     51  C   PRO G   2      39.435   0.432  28.395  1.00105.18 LIG 0.25  C 
ATOM     52 O    PRO G   2      40.389   1.108  28.799  1.00111.30 LIG-0.27  OA
ATOM     53 H    ARG G   3      38.535  -0.237  26.797  1.00 95.22 LIG 0.16  HD
BRANCH 51 54
ATOM     54  CA  PRO G   2      38.509  -0.291  29.424  1.00104.44 LIG 0.35  C 
ATOM     55  N   PRO G   2      39.217  -0.861  30.578  1.00103.34 LIG 0.32  N 
ATOM     56  CD  PRO G   2      38.406  -0.795  31.816  1.00102.42 LIG 0.32  C 
ATOM     57  CG  PRO G   2      37.245   0.112  31.451  1.00 98.38 LIG 0.04  C 
ATOM     58  CB  PRO G   2      37.526   0.695  30.087  1.00102.80 LIG 0.05  C 
ENDBRANCH 51 54
ENDBRANCH 37 50
ENDBRANCH 34 37
ENDBRANCH 1 33
TORSDOF 20
ENDMDL
MODEL 15
USER: ADFR SOLUTION from run 104
USER: SCORE 16.382634 LL:  -4.864 LR: -11.710 RR:   0.000 FEB:  -5.744
USER: RMSD 5.408303
USER: SEED 103
USER: STATUS no improvement in best in 13 clusters for 5 generations
USER: GENES 22
USER: genes 0 Translation |==|  0.41262 0.49764 0.68975
USER: genes 1 Rotation |==|  0.44426 0.43591 0.44555 0.98971
USER: genes 2 Torsion [C]-CA--CB-[CG] |==|  0.02572
USER: genes 3 Torsion [CA]-CB--CG-[CD1] |==|  0.24569
USER: genes 4 Torsion [N]-CA--C-[N] |==|  0.34882
USER: genes 5 Torsion [N]-CA--C-[N] |==|  0.30905
USER: genes 6 Torsion [C]-N--CA-[C] |==|  0.77151
USER: genes 7 Torsion [N]-CA--C-[N] |==|  0.97924
USER: genes 8 Torsion [C]-N--CA-[CB] |==|  0.33444
USER: genes 9 Torsion [N]-CA--CB-[CG] |==|  0.88931
USER: genes 10 Torsion [CA]-CB--CG-[CD2] |==|  0.59646
USER: genes 11 Torsion [N]-CA--C-[O] |==|  0.94527
USER: genes 12 Torsion [N]-CA--CB-[CG] |==|  0.95700
USER: genes 13 Torsion [CA]-CB--CG-[CD2] |==|  0.66328
USER: genes 14 Torsion [CB]-CA--N-[C] |==|  0.83241
USER: genes 15 Torsion [N]-C--CA-[N] |==|  0.43512
USER: genes 16 Torsion [C]-CA--CB-[CG] |==|  0.27841
USER: genes 17 Torsion [CA]-CB--CG-[CD] |==|  0.57505
USER: genes 18 Torsion [CB]-CG--CD-[NE] |==|  0.51274
USER: genes 19 Torsion [CG]-CD--NE-[HE] |==|  0.27341
USER: genes 20 Torsion [C]-CA--N-[C] |==|  0.74339
USER: genes 21 Torsion [N]-C--CA-[CB] |==|  0.86225
ROOT
ATOM      1  CA  LEU G   4      38.431   4.604  27.118  1.00 72.45 LIG 0.18  C 
ENDROOT
BRANCH 1 2
ATOM      2  CB  LEU G   4      39.677   5.158  27.856  1.00 74.60 LIG 0.04  C 
BRANCH 2 3
ATOM      3  CG  LEU G   4      40.275   6.464  27.233  1.00 80.94 LIG-0.02  C 
ATOM      4  CD2 LEU G   4      41.809   6.555  27.322  1.00 76.26 LIG 0.01  C 
ATOM      5  CD1 LEU G   4      39.619   7.722  27.818  1.00 74.38 LIG 0.01  C 
ENDBRANCH 2 3
ENDBRANCH 1 2
BRANCH 1 6
ATOM      6  C   LEU G   4      38.140   5.315  25.766  1.00 69.99 LIG 0.24  C 
ATOM      7 O    LEU G   4      38.789   5.037  24.714  1.00 62.75 LIG-0.27  OA
ATOM      8  N   PRO G   5      37.102   6.191  25.775  1.00 68.53 LIG-0.34  N 
ATOM      9  CA  PRO G   5      36.848   6.942  24.561  1.00 66.41 LIG 0.18  C 
ATOM     10  CD  PRO G   5      36.041   6.420  26.786  1.00 67.94 LIG 0.13  C 
ATOM     11  CB  PRO G   5      35.565   7.745  24.902  1.00 68.06 LIG 0.04  C 
ATOM     12  CG  PRO G   5      34.885   6.935  25.963  1.00 67.97 LIG 0.02  C 
BRANCH 9 13
ATOM     13  C   PRO G   5      38.058   7.828  24.247  1.00 65.16 LIG 0.24  C 
ATOM     14  N   LEU G   6      38.777   7.510  23.178  1.00 58.40 LIG-0.35  N 
ATOM     15 H    LEU G   6      38.533   6.941  22.580  1.00 58.40 LIG 0.16  HD
ATOM     16 O    PRO G   5      38.336   8.791  24.984  1.00 57.12 LIG-0.27  OA
BRANCH 14 17
ATOM     17  CA  LEU G   6      40.079   8.128  22.939  1.00 60.31 LIG 0.18  C 
BRANCH 17 18
ATOM     18  C   LEU G   6      40.022   9.505  22.283  1.00 60.34 LIG 0.24  C 
ATOM     19 O    LEU G   6      41.053  10.151  22.212  1.00 72.64 LIG-0.27  OA
ATOM     20  N   LEU G   7      38.847   9.975  21.842  1.00 65.91 LIG-0.35  N 
ATOM     21 H    LEU G   7      38.092   9.589  21.992  1.00 65.91 LIG 0.16  HD
BRANCH 20 22
ATOM     22  CA  LEU G   7      38.745  11.240  21.034  1.00 66.14 LIG 0.16  C 
BRANCH 22 23
ATOM     23  CB  LEU G   7      38.114  10.950  19.659  1.00 64.61 LIG 0.04  C 
BRANCH 23 24
ATOM     24  CG  LEU G   7      38.512   9.660  18.916  1.00 68.76 LIG-0.02  C 
ATOM     25  CD2 LEU G   7      38.550   9.880  17.388  1.00 64.31 LIG 0.01  C 
ATOM     26  CD1 LEU G   7      37.636   8.468  19.319  1.00 66.72 LIG 0.01  C 
ENDBRANCH 23 24
ENDBRANCH 22 23
BRANCH 22 27
ATOM     27  C   LEU G   7      37.996  12.378  21.738  1.00 59.22 LIG 0.22  C 
ATOM     28 O    LEU G   7      37.248  12.115  22.668  1.00 55.72 LIG-0.29  OA
ENDBRANCH 22 27
ENDBRANCH 20 22
ENDBRANCH 17 18
BRANCH 17 29
ATOM     29  CB  LEU G   6      41.013   7.164  22.167  1.00 54.67 LIG 0.04  C 
BRANCH 29 30
ATOM     30  CG  LEU G   6      40.418   5.739  22.240  1.00 53.09 LIG-0.02  C 
ATOM     31  CD1 LEU G   6      39.962   5.307  20.871  1.00 49.97 LIG 0.01  C 
ATOM     32  CD2 LEU G   6      41.372   4.730  22.885  1.00 51.63 LIG 0.01  C 
ENDBRANCH 29 30
ENDBRANCH 17 29
ENDBRANCH 14 17
ENDBRANCH 9 13
ENDBRANCH 1 6
BRANCH 1 33
ATOM     33  N   LEU G   4      38.446   3.138  27.001  1.00 70.21 LIG-0.35  N 
ATOM     34  C   ARG G   3      39.437   2.518  26.348  1.00 75.48 LIG 0.24  C 
ATOM     35 O    ARG G   3      40.342   3.167  25.753  1.00 65.52 LIG-0.27  OA
ATOM     36 H    LEU G   4      37.785   2.736  27.377  1.00 70.21 LIG 0.16  HD
BRANCH 34 37
ATOM     37  CA  ARG G   3      39.399   0.944  26.323  1.00 78.48 LIG 0.18  C 
BRANCH 37 38
ATOM     38  CB  ARG G   3      39.899   0.335  27.651  1.00 76.51 LIG 0.04  C 
BRANCH 38 39
ATOM     39  CG  ARG G   3      38.805  -0.120  28.605  1.00 78.92 LIG 0.02  C 
BRANCH 39 40
ATOM     40  CD  ARG G   3      39.257  -0.083  30.067  1.00 76.70 LIG 0.14  C 
BRANCH 40 41
ATOM     41  NE  ARG G   3      38.268  -0.618  31.037  1.00 80.12 LIG-0.23  N 
ATOM     42 HE   ARG G   3      38.384  -1.429  31.298  1.00 80.12 LIG 0.18  HD
ATOM     43  CZ  ARG G   3      37.206   0.037  31.551  1.00 82.69 LIG 0.67  C 
ATOM     44  NH1 ARG G   3      36.874   1.291  31.200  1.00 73.81 LIG-0.23  N 
ATOM     45  NH2 ARG G   3      36.429  -0.591  32.427  1.00 84.58 LIG-0.23  N 
ATOM     46 1HH1 ARG G   3      37.348   1.715  30.621  1.00 73.81 LIG 0.17  HD
ATOM     47 2HH1 ARG G   3      36.188   1.670  31.554  1.00 73.81 LIG 0.17  HD
ATOM     48 2HH2 ARG G   3      35.748  -0.188  32.764  1.00 84.58 LIG 0.17  HD
ATOM     49 1HH2 ARG G   3      36.608  -1.400  32.657  1.00 84.58 LIG 0.17  HD
ENDBRANCH 40 41
ENDBRANCH 39 40
ENDBRANCH 38 39
ENDBRANCH 37 38
BRANCH 37 50
ATOM     50  N   ARG G   3      40.155   0.367  25.174  1.00 95.22 LIG-0.35  N 
ATOM     51  C   PRO G   2      39.589   0.071  23.990  1.00105.18 LIG 0.25  C 
ATOM     52 O    PRO G   2      38.373   0.171  23.792  1.00111.30 LIG-0.27  OA
ATOM     53 H    ARG G   3      40.990   0.242  25.340  1.00 95.22 LIG 0.16  HD
BRANCH 51 54
ATOM     54  CA  PRO G   2      40.522  -0.424  22.841  1.00104.44 LIG 0.35  C 
ATOM     55  N   PRO G   2      39.905  -0.402  21.508  1.00103.34 LIG 0.32  N 
ATOM     56  CD  PRO G   2      40.886  -0.080  20.446  1.00102.42 LIG 0.32  C 
ATOM     57  CG  PRO G   2      42.115   0.385  21.205  1.00 98.38 LIG 0.04  C 
ATOM     58  CB  PRO G   2      41.740   0.505  22.663  1.00102.80 LIG 0.05  C 
ENDBRANCH 51 54
ENDBRANCH 37 50
ENDBRANCH 34 37
ENDBRANCH 1 33
TORSDOF 20
ENDMDL
MODEL 16
USER: ADFR SOLUTION from run 58
USER: SCORE 15.655818 LL:  -4.177 LR: -11.632 RR:   0.000 FEB:  -5.666
USER: RMSD 2.616149
USER: SEED 57
USER: STATUS no improvement in best in 10 clusters for 5 generations
USER: GENES 22
USER: genes 0 Translation |==|  0.53202 0.48637 0.54171
USER: genes 1 Rotation |==|  0.54951 0.58292 0.46331 0.98921
USER: genes 2 Torsion [C]-CA--CB-[CG] |==|  0.24824
USER: genes 3 Torsion [CA]-CB--CG-[CD1] |==|  0.76465
USER: genes 4 Torsion [N]-CA--C-[N] |==|  0.34686
USER: genes 5 Torsion [N]-CA--C-[N] |==|  0.33465
USER: genes 6 Torsion [C]-N--CA-[C] |==|  0.77195
USER: genes 7 Torsion [N]-CA--C-[N] |==|  0.01470
USER: genes 8 Torsion [C]-N--CA-[CB] |==|  0.31747
USER: genes 9 Torsion [N]-CA--CB-[CG] |==|  0.48099
USER: genes 10 Torsion [CA]-CB--CG-[CD2] |==|  0.61290
USER: genes 11 Torsion [N]-CA--C-[O] |==|  0.00463
USER: genes 12 Torsion [N]-CA--CB-[CG] |==|  0.13204
USER: genes 13 Torsion [CA]-CB--CG-[CD2] |==|  0.69008
USER: genes 14 Torsion [CB]-CA--N-[C] |==|  0.84177
USER: genes 15 Torsion [N]-C--CA-[N] |==|  0.99220
USER: genes 16 Torsion [C]-CA--CB-[CG] |==|  0.14092
USER: genes 17 Torsion [CA]-CB--CG-[CD] |==|  0.72665
USER: genes 18 Torsion [CB]-CG--CD-[NE] |==|  0.79276
USER: genes 19 Torsion [CG]-CD--NE-[HE] |==|  0.29691
USER: genes 20 Torsion [C]-CA--N-[C] |==|  0.75159
USER: genes 21 Torsion [N]-C--CA-[CB] |==|  0.65065
ROOT
ATOM      1  CA  LEU G   4      40.401   4.283  24.231  1.00 72.45 LIG 0.18  C 
ENDROOT
BRANCH 1 2
ATOM      2  CB  LEU G   4      41.885   4.689  24.423  1.00 74.60 LIG 0.04  C 
BRANCH 2 3
ATOM      3  CG  LEU G   4      42.220   5.284  25.832  1.00 80.94 LIG-0.02  C 
ATOM      4  CD2 LEU G   4      41.549   4.542  27.002  1.00 76.26 LIG 0.01  C 
ATOM      5  CD1 LEU G   4      41.922   6.788  25.897  1.00 74.38 LIG 0.01  C 
ENDBRANCH 2 3
ENDBRANCH 1 2
BRANCH 1 6
ATOM      6  C   LEU G   4      39.506   5.432  23.686  1.00 69.99 LIG 0.24  C 
ATOM      7 O    LEU G   4      39.507   5.753  22.460  1.00 62.75 LIG-0.27  OA
ATOM      8  N   PRO G   5      38.677   6.010  24.593  1.00 68.53 LIG-0.34  N 
ATOM      9  CA  PRO G   5      37.886   7.143  24.151  1.00 66.41 LIG 0.18  C 
ATOM     10  CD  PRO G   5      38.298   5.587  25.963  1.00 67.94 LIG 0.13  C 
ATOM     11  CB  PRO G   5      37.012   7.470  25.389  1.00 68.06 LIG 0.04  C 
ATOM     12  CG  PRO G   5      36.919   6.176  26.137  1.00 67.97 LIG 0.02  C 
BRANCH 9 13
ATOM     13  C   PRO G   5      38.820   8.287  23.742  1.00 65.16 LIG 0.24  C 
ATOM     14  N   LEU G   6      38.733   8.718  22.489  1.00 58.40 LIG-0.35  N 
ATOM     15 H    LEU G   6      38.103   8.504  21.945  1.00 58.40 LIG 0.16  HD
ATOM     16 O    PRO G   5      39.621   8.766  24.565  1.00 57.12 LIG-0.27  OA
BRANCH 14 17
ATOM     17  CA  LEU G   6      39.740   9.620  21.935  1.00 60.31 LIG 0.18  C 
BRANCH 17 18
ATOM     18  C   LEU G   6      39.541  11.092  22.282  1.00 60.34 LIG 0.24  C 
ATOM     19 O    LEU G   6      40.309  11.906  21.799  1.00 72.64 LIG-0.27  OA
ATOM     20  N   LEU G   7      38.562  11.441  23.127  1.00 65.91 LIG-0.35  N 
ATOM     21 H    LEU G   7      38.089  10.875  23.571  1.00 65.91 LIG 0.16  HD
BRANCH 20 22
ATOM     22  CA  LEU G   7      38.197  12.880  23.377  1.00 66.14 LIG 0.16  C 
BRANCH 22 23
ATOM     23  CB  LEU G   7      36.776  13.172  22.860  1.00 64.61 LIG 0.04  C 
BRANCH 23 24
ATOM     24  CG  LEU G   7      36.145  14.546  23.159  1.00 68.76 LIG-0.02  C 
ATOM     25  CD2 LEU G   7      34.652  14.410  23.530  1.00 64.31 LIG 0.01  C 
ATOM     26  CD1 LEU G   7      36.382  15.550  22.024  1.00 66.72 LIG 0.01  C 
ENDBRANCH 23 24
ENDBRANCH 22 23
BRANCH 22 27
ATOM     27  C   LEU G   7      38.335  13.319  24.840  1.00 59.22 LIG 0.22  C 
ATOM     28 O    LEU G   7      38.744  12.519  25.668  1.00 55.72 LIG-0.29  OA
ENDBRANCH 22 27
ENDBRANCH 20 22
ENDBRANCH 17 18
BRANCH 17 29
ATOM     29  CB  LEU G   6      39.890   9.405  20.408  1.00 54.67 LIG 0.04  C 
BRANCH 29 30
ATOM     30  CG  LEU G   6      38.481   9.376  19.775  1.00 53.09 LIG-0.02  C 
ATOM     31  CD1 LEU G   6      38.373  10.450  18.724  1.00 49.97 LIG 0.01  C 
ATOM     32  CD2 LEU G   6      38.099   7.993  19.241  1.00 51.63 LIG 0.01  C 
ENDBRANCH 29 30
ENDBRANCH 17 29
ENDBRANCH 14 17
ENDBRANCH 9 13
ENDBRANCH 1 6
BRANCH 1 33
ATOM     33  N   LEU G   4      40.249   3.031  23.474  1.00 70.21 LIG-0.35  N 
ATOM     34  C   ARG G   3      40.773   2.910  22.248  1.00 75.48 LIG 0.24  C 
ATOM     35 O    ARG G   3      41.344   3.880  21.676  1.00 65.52 LIG-0.27  OA
ATOM     36 H    LEU G   4      39.810   2.412  23.879  1.00 70.21 LIG 0.16  HD
BRANCH 34 37
ATOM     37  CA  ARG G   3      40.607   1.515  21.538  1.00 78.48 LIG 0.18  C 
BRANCH 37 38
ATOM     38  CB  ARG G   3      39.872   1.641  20.186  1.00 76.51 LIG 0.04  C 
BRANCH 38 39
ATOM     39  CG  ARG G   3      40.431   2.696  19.244  1.00 78.92 LIG 0.02  C 
BRANCH 39 40
ATOM     40  CD  ARG G   3      39.637   4.004  19.302  1.00 76.70 LIG 0.14  C 
BRANCH 40 41
ATOM     41  NE  ARG G   3      38.316   3.960  18.625  1.00 80.12 LIG-0.23  N 
ATOM     42 HE   ARG G   3      37.623   3.943  19.132  1.00 80.12 LIG 0.18  HD
ATOM     43  CZ  ARG G   3      38.092   3.944  17.294  1.00 82.69 LIG 0.67  C 
ATOM     44  NH1 ARG G   3      39.078   3.921  16.382  1.00 73.81 LIG-0.23  N 
ATOM     45  NH2 ARG G   3      36.838   3.924  16.856  1.00 84.58 LIG-0.23  N 
ATOM     46 1HH1 ARG G   3      39.900   3.915  16.636  1.00 73.81 LIG 0.17  HD
ATOM     47 2HH1 ARG G   3      38.888   3.912  15.542  1.00 73.81 LIG 0.17  HD
ATOM     48 2HH2 ARG G   3      36.677   3.913  16.011  1.00 84.58 LIG 0.17  HD
ATOM     49 1HH2 ARG G   3      36.186   3.921  17.418  1.00 84.58 LIG 0.17  HD
ENDBRANCH 40 41
ENDBRANCH 39 40
ENDBRANCH 38 39
ENDBRANCH 37 38
BRANCH 37 50
ATOM     50  N   ARG G   3      39.929   0.505  22.402  1.00 95.22 LIG-0.35  N 
ATOM     51  C   PRO G   2      40.589  -0.312  23.242  1.00105.18 LIG 0.25  C 
ATOM     52 O    PRO G   2      41.824  -0.351  23.298  1.00111.30 LIG-0.27  OA
ATOM     53 H    ARG G   3      39.074   0.494  22.312  1.00 95.22 LIG 0.16  HD
BRANCH 51 54
ATOM     54  CA  PRO G   2      39.744  -1.244  24.166  1.00104.44 LIG 0.35  C 
ATOM     55  N   PRO G   2      39.970  -2.679  23.949  1.00103.34 LIG 0.32  N 
ATOM     56  CD  PRO G   2      39.862  -3.455  25.206  1.00102.42 LIG 0.32  C 
ATOM     57  CG  PRO G   2      39.835  -2.397  26.294  1.00 98.38 LIG 0.04  C 
ATOM     58  CB  PRO G   2      40.125  -1.064  25.650  1.00102.80 LIG 0.05  C 
ENDBRANCH 51 54
ENDBRANCH 37 50
ENDBRANCH 34 37
ENDBRANCH 1 33
TORSDOF 20
ENDMDL
MODEL 17
USER: ADFR SOLUTION from run 128
USER: SCORE 14.663474 LL:  -4.266 LR: -11.605 RR:   0.000 FEB:  -5.639
USER: RMSD 3.834419
USER: SEED 127
USER: STATUS no improvement in best in 4 clusters for 5 generations
USER: GENES 22
USER: genes 0 Translation |==|  0.54304 0.48465 0.49119
USER: genes 1 Rotation |==|  0.64387 0.54235 0.50832 0.97691
USER: genes 2 Torsion [C]-CA--CB-[CG] |==|  0.74895
USER: genes 3 Torsion [CA]-CB--CG-[CD1] |==|  0.23663
USER: genes 4 Torsion [N]-CA--C-[N] |==|  0.42677
USER: genes 5 Torsion [N]-CA--C-[N] |==|  0.41214
USER: genes 6 Torsion [C]-N--CA-[C] |==|  0.73353
USER: genes 7 Torsion [N]-CA--C-[N] |==|  0.98150
USER: genes 8 Torsion [C]-N--CA-[CB] |==|  0.31293
USER: genes 9 Torsion [N]-CA--CB-[CG] |==|  0.90287
USER: genes 10 Torsion [CA]-CB--CG-[CD2] |==|  0.82885
USER: genes 11 Torsion [N]-CA--C-[O] |==|  0.94405
USER: genes 12 Torsion [N]-CA--CB-[CG] |==|  0.90155
USER: genes 13 Torsion [CA]-CB--CG-[CD2] |==|  0.80181
USER: genes 14 Torsion [CB]-CA--N-[C] |==|  0.26526
USER: genes 15 Torsion [N]-C--CA-[N] |==|  0.45201
USER: genes 16 Torsion [C]-CA--CB-[CG] |==|  0.27489
USER: genes 17 Torsion [CA]-CB--CG-[CD] |==|  0.69330
USER: genes 18 Torsion [CB]-CG--CD-[NE] |==|  0.66160
USER: genes 19 Torsion [CG]-CD--NE-[HE] |==|  0.34235
USER: genes 20 Torsion [C]-CA--N-[C] |==|  0.60584
USER: genes 21 Torsion [N]-C--CA-[CB] |==|  0.60057
ROOT
ATOM      1  CA  LEU G   4      40.583   4.234  23.246  1.00 72.45 LIG 0.18  C 
ENDROOT
BRANCH 1 2
ATOM      2  CB  LEU G   4      41.946   4.610  23.882  1.00 74.60 LIG 0.04  C 
BRANCH 2 3
ATOM      3  CG  LEU G   4      43.083   4.919  22.851  1.00 80.94 LIG-0.02  C 
ATOM      4  CD2 LEU G   4      44.492   4.540  23.341  1.00 76.26 LIG 0.01  C 
ATOM      5  CD1 LEU G   4      43.042   6.379  22.383  1.00 74.38 LIG 0.01  C 
ENDBRANCH 2 3
ENDBRANCH 1 2
BRANCH 1 6
ATOM      6  C   LEU G   4      39.654   5.455  22.994  1.00 69.99 LIG 0.24  C 
ATOM      7 O    LEU G   4      39.442   5.901  21.827  1.00 62.75 LIG-0.27  OA
ATOM      8  N   PRO G   5      39.034   5.957  24.093  1.00 68.53 LIG-0.34  N 
ATOM      9  CA  PRO G   5      38.226   7.149  23.921  1.00 66.41 LIG 0.18  C 
ATOM     10  CD  PRO G   5      38.898   5.404  25.462  1.00 67.94 LIG 0.13  C 
ATOM     11  CB  PRO G   5      37.612   7.369  25.328  1.00 68.06 LIG 0.04  C 
ATOM     12  CG  PRO G   5      37.602   6.006  25.951  1.00 67.97 LIG 0.02  C 
BRANCH 9 13
ATOM     13  C   PRO G   5      39.117   8.306  23.456  1.00 65.16 LIG 0.24  C 
ATOM     14  N   LEU G   6      38.562   9.214  22.662  1.00 58.40 LIG-0.35  N 
ATOM     15 H    LEU G   6      37.718   9.276  22.512  1.00 58.40 LIG 0.16  HD
ATOM     16 O    PRO G   5      40.307   8.362  23.814  1.00 57.12 LIG-0.27  OA
BRANCH 14 17
ATOM     17  CA  LEU G   6      39.382  10.204  21.968  1.00 60.31 LIG 0.18  C 
BRANCH 17 18
ATOM     18  C   LEU G   6      39.495  11.551  22.677  1.00 60.34 LIG 0.24  C 
ATOM     19 O    LEU G   6      40.286  12.367  22.237  1.00 72.64 LIG-0.27  OA
ATOM     20  N   LEU G   7      38.757  11.781  23.771  1.00 65.91 LIG-0.35  N 
ATOM     21 H    LEU G   7      38.286  11.179  24.165  1.00 65.91 LIG 0.16  HD
BRANCH 20 22
ATOM     22  CA  LEU G   7      38.687  13.140  24.415  1.00 66.14 LIG 0.16  C 
BRANCH 22 23
ATOM     23  CB  LEU G   7      37.274  13.735  24.263  1.00 64.61 LIG 0.04  C 
BRANCH 23 24
ATOM     24  CG  LEU G   7      36.480  13.443  22.975  1.00 68.76 LIG-0.02  C 
ATOM     25  CD2 LEU G   7      37.206  13.997  21.730  1.00 64.31 LIG 0.01  C 
ATOM     26  CD1 LEU G   7      35.027  13.920  23.071  1.00 66.72 LIG 0.01  C 
ENDBRANCH 23 24
ENDBRANCH 22 23
BRANCH 22 27
ATOM     27  C   LEU G   7      39.121  13.162  25.886  1.00 59.22 LIG 0.22  C 
ATOM     28 O    LEU G   7      39.123  12.120  26.524  1.00 55.72 LIG-0.29  OA
ENDBRANCH 22 27
ENDBRANCH 20 22
ENDBRANCH 17 18
BRANCH 17 29
ATOM     29  CB  LEU G   6      38.921  10.367  20.498  1.00 54.67 LIG 0.04  C 
BRANCH 29 30
ATOM     30  CG  LEU G   6      38.463   8.988  19.971  1.00 53.09 LIG-0.02  C 
ATOM     31  CD1 LEU G   6      37.623   9.170  18.734  1.00 49.97 LIG 0.01  C 
ATOM     32  CD2 LEU G   6      39.628   8.019  19.751  1.00 51.63 LIG 0.01  C 
ENDBRANCH 29 30
ENDBRANCH 17 29
ENDBRANCH 14 17
ENDBRANCH 9 13
ENDBRANCH 1 6
BRANCH 1 33
ATOM     33  N   LEU G   4      40.728   3.372  22.063  1.00 70.21 LIG-0.35  N 
ATOM     34  C   ARG G   3      40.629   2.042  22.175  1.00 75.48 LIG 0.24  C 
ATOM     35 O    ARG G   3      40.485   1.483  23.298  1.00 65.52 LIG-0.27  OA
ATOM     36 H    LEU G   4      40.875   3.789  21.326  1.00 70.21 LIG 0.16  HD
BRANCH 34 37
ATOM     37  CA  ARG G   3      40.741   1.205  20.846  1.00 78.48 LIG 0.18  C 
BRANCH 37 38
ATOM     38  CB  ARG G   3      39.481   1.352  19.965  1.00 76.51 LIG 0.04  C 
BRANCH 38 39
ATOM     39  CG  ARG G   3      39.604   2.352  18.826  1.00 78.92 LIG 0.02  C 
BRANCH 39 40
ATOM     40  CD  ARG G   3      38.741   3.597  19.051  1.00 76.70 LIG 0.14  C 
BRANCH 40 41
ATOM     41  NE  ARG G   3      37.743   3.863  17.984  1.00 80.12 LIG-0.23  N 
ATOM     42 HE   ARG G   3      36.921   3.918  18.230  1.00 80.12 LIG 0.18  HD
ATOM     43  CZ  ARG G   3      37.993   4.026  16.668  1.00 82.69 LIG 0.67  C 
ATOM     44  NH1 ARG G   3      39.221   3.921  16.133  1.00 73.81 LIG-0.23  N 
ATOM     45  NH2 ARG G   3      36.977   4.278  15.850  1.00 84.58 LIG-0.23  N 
ATOM     46 1HH1 ARG G   3      39.895   3.741  16.636  1.00 73.81 LIG 0.17  HD
ATOM     47 2HH1 ARG G   3      39.334   4.034  15.288  1.00 73.81 LIG 0.17  HD
ATOM     48 2HH2 ARG G   3      37.118   4.385  15.008  1.00 84.58 LIG 0.17  HD
ATOM     49 1HH2 ARG G   3      36.177   4.334  16.162  1.00 84.58 LIG 0.17  HD
ENDBRANCH 40 41
ENDBRANCH 39 40
ENDBRANCH 38 39
ENDBRANCH 37 38
BRANCH 37 50
ATOM     50  N   ARG G   3      41.031  -0.237  21.095  1.00 95.22 LIG-0.35  N 
ATOM     51  C   PRO G   2      41.851  -0.971  20.322  1.00105.18 LIG 0.25  C 
ATOM     52 O    PRO G   2      42.361  -0.528  19.286  1.00111.30 LIG-0.27  OA
ATOM     53 H    ARG G   3      40.623  -0.556  21.782  1.00 95.22 LIG 0.16  HD
BRANCH 51 54
ATOM     54  CA  PRO G   2      42.148  -2.439  20.764  1.00104.44 LIG 0.35  C 
ATOM     55  N   PRO G   2      41.373  -3.457  20.043  1.00103.34 LIG 0.32  N 
ATOM     56  CD  PRO G   2      42.144  -4.706  19.846  1.00102.42 LIG 0.32  C 
ATOM     57  CG  PRO G   2      43.563  -4.332  20.232  1.00 98.38 LIG 0.04  C 
ATOM     58  CB  PRO G   2      43.604  -2.838  20.447  1.00102.80 LIG 0.05  C 
ENDBRANCH 51 54
ENDBRANCH 37 50
ENDBRANCH 34 37
ENDBRANCH 1 33
TORSDOF 20
ENDMDL
