MODEL 1
USER: ADFR SOLUTION from run 159
USER: SCORE 15.281834 LL:  -2.533 LR: -13.227 RR:   0.000 FEB:  -7.858
USER: RMSD 3.987202
USER: SEED 158
USER: STATUS no improvement in best in 4 clusters for 5 generations
USER: GENES 20
USER: genes 0 Translation |==|  0.39529 0.59609 0.52437
USER: genes 1 Rotation |==|  0.52512 0.53131 0.50028 0.99839
USER: genes 2 Torsion [C]-CA--N-[C] |==|  0.56251
USER: genes 3 Torsion [N]-C--CA-[N] |==|  0.40138
USER: genes 4 Torsion [C]-CA--CB-[CG] |==|  0.67691
USER: genes 5 Torsion [CA]-CB--CG-[CD1] |==|  0.36934
USER: genes 6 Torsion [C]-CA--N-[C] |==|  0.56341
USER: genes 7 Torsion [N]-C--CA-[N] |==|  0.19941
USER: genes 8 Torsion [C]-CA--CB-[CG] |==|  0.26898
USER: genes 9 Torsion [CA]-CB--CG-[CD] |==|  0.34808
USER: genes 10 Torsion [CB]-CG--CD-[OE1] |==|  0.29104
USER: genes 11 Torsion [N]-CA--C-[N] |==|  0.42361
USER: genes 12 Torsion [C]-N--CA-[CB] |==|  0.40400
USER: genes 13 Torsion [N]-CA--CB-[CG] |==|  0.58116
USER: genes 14 Torsion [CA]-CB--CG-[CD2] |==|  0.96052
USER: genes 15 Torsion [N]-CA--C-[O] |==|  0.32330
USER: genes 16 Torsion [N]-CA--CB-[CG] |==|  0.57656
USER: genes 17 Torsion [CA]-CB--CG-[CD] |==|  0.06988
USER: genes 18 Torsion [CB]-CG--CD-[NE] |==|  0.60904
USER: genes 19 Torsion [CG]-CD--NE-[HE] |==|  0.96384
ROOT
ATOM      1  CA  ARG G  10      25.886 -44.391  58.312  1.00109.03 LIG 0.18  C 
ENDROOT
BRANCH 1 2
ATOM      2  N   ARG G  10      25.397 -44.414  56.924  1.00109.38 LIG-0.35  N 
ATOM      3 H    ARG G  10      24.662 -43.983  56.812  1.00109.38 LIG 0.16  HD
ATOM      4  C   LEU G   9      26.043 -45.054  55.912  1.00112.90 LIG 0.24  C 
ATOM      5 O    LEU G   9      27.093 -45.686  56.077  1.00112.50 LIG-0.27  OA
BRANCH 4 6
ATOM      6  CA  LEU G   9      25.427 -44.957  54.506  1.00108.81 LIG 0.18  C 
BRANCH 6 7
ATOM      7  CB  LEU G   9      24.436 -46.120  54.249  1.00108.47 LIG 0.04  C 
BRANCH 7 8
ATOM      8  CG  LEU G   9      24.776 -47.126  53.130  1.00112.27 LIG-0.02  C 
ATOM      9  CD1 LEU G   9      24.599 -48.547  53.599  1.00111.85 LIG 0.01  C 
ATOM     10  CD2 LEU G   9      23.971 -46.865  51.876  1.00114.30 LIG 0.01  C 
ENDBRANCH 7 8
ENDBRANCH 6 7
BRANCH 6 11
ATOM     11  N   LEU G   9      26.442 -44.894  53.443  1.00109.55 LIG-0.35  N 
ATOM     12 H    LEU G   9      27.198 -45.222  53.688  1.00109.55 LIG 0.16  HD
ATOM     13  C   GLU G   8      26.252 -44.383  52.207  1.00113.88 LIG 0.26  C 
ATOM     14 O    GLU G   8      25.186 -43.879  51.840  1.00113.76 LIG-0.27  OA
BRANCH 13 15
ATOM     15  CA  GLU G   8      27.437 -44.476  51.233  1.00110.25 LIG 0.40  C 
ATOM     16  N   GLU G   8      27.687 -45.837  50.762  1.00110.33 LIG 0.61  N 
BRANCH 15 17
ATOM     17  CB  GLU G   8      27.289 -43.496  50.056  1.00111.70 LIG 0.06  C 
BRANCH 17 18
ATOM     18  CG  GLU G   8      28.051 -42.195  50.267  1.00121.64 LIG 0.12  C 
BRANCH 18 19
ATOM     19  CD  GLU G   8      29.041 -41.785  49.189  1.00138.36 LIG 0.17  C 
ATOM     20 OE1  GLU G   8      28.732 -40.860  48.402  1.00130.99 LIG-0.65  OA
ATOM     21 OE2  GLU G   8      30.147 -42.371  49.157  1.00129.20 LIG-0.65  OA
ENDBRANCH 18 19
ENDBRANCH 17 18
ENDBRANCH 15 17
ENDBRANCH 13 15
ENDBRANCH 6 11
ENDBRANCH 4 6
ENDBRANCH 1 2
BRANCH 1 22
ATOM     22  C   ARG G  10      24.803 -44.111  59.377  1.00112.09 LIG 0.24  C 
ATOM     23 O    ARG G  10      23.813 -43.436  59.089  1.00111.78 LIG-0.27  OA
ATOM     24  N   LEU G  11      25.018 -44.621  60.615  1.00107.87 LIG-0.35  N 
ATOM     25 H    LEU G  11      25.711 -45.098  60.799  1.00107.87 LIG 0.16  HD
BRANCH 24 26
ATOM     26  CA  LEU G  11      24.133 -44.439  61.774  1.00123.94 LIG 0.16  C 
BRANCH 26 27
ATOM     27  CB  LEU G  11      24.133 -45.711  62.667  1.00123.74 LIG 0.04  C 
BRANCH 27 28
ATOM     28  CG  LEU G  11      22.874 -46.063  63.497  1.00127.90 LIG-0.02  C 
ATOM     29  CD2 LEU G  11      21.928 -44.885  63.560  1.00129.89 LIG 0.01  C 
ATOM     30  CD1 LEU G  11      23.223 -46.494  64.907  1.00127.81 LIG 0.01  C 
ENDBRANCH 27 28
ENDBRANCH 26 27
BRANCH 26 31
ATOM     31  C   LEU G  11      24.562 -43.197  62.569  1.00152.65 LIG 0.22  C 
ATOM     32 O    LEU G  11      23.803 -42.232  62.669  1.00110.84 LIG-0.29  OA
ENDBRANCH 26 31
ENDBRANCH 24 26
ENDBRANCH 1 22
BRANCH 1 33
ATOM     33  CB  ARG G  10      27.044 -43.386  58.450  1.00110.06 LIG 0.04  C 
BRANCH 33 34
ATOM     34  CG  ARG G  10      28.019 -43.734  59.566  1.00122.67 LIG 0.02  C 
BRANCH 34 35
ATOM     35  CD  ARG G  10      28.020 -45.220  59.879  1.00133.32 LIG 0.14  C 
BRANCH 35 36
ATOM     36  NE  ARG G  10      28.125 -45.477  61.318  1.00140.65 LIG-0.23  N 
ATOM     37 HE   ARG G  10      28.347 -44.820  61.827  1.00140.65 LIG 0.18  HD
ATOM     38  CZ  ARG G  10      27.903 -46.656  61.892  1.00153.40 LIG 0.67  C 
ATOM     39  NH2 ARG G  10      28.026 -46.795  63.206  1.00139.74 LIG-0.23  N 
ATOM     40  NH1 ARG G  10      27.557 -47.707  61.157  1.00139.37 LIG-0.23  N 
ATOM     41 2HH2 ARG G  10      27.881 -47.559  63.573  1.00139.74 LIG 0.17  HD
ATOM     42 1HH2 ARG G  10      28.250 -46.121  63.690  1.00139.74 LIG 0.17  HD
ATOM     43 1HH1 ARG G  10      27.476 -47.627  60.305  1.00139.37 LIG 0.17  HD
ATOM     44 2HH1 ARG G  10      27.414 -48.467  61.533  1.00139.37 LIG 0.17  HD
ENDBRANCH 35 36
ENDBRANCH 34 35
ENDBRANCH 33 34
ENDBRANCH 1 33
TORSDOF 18
ENDMDL
MODEL 2
USER: ADFR SOLUTION from run 138
USER: SCORE 14.643486 LL:  -2.641 LR: -12.654 RR:   0.000 FEB:  -7.285
USER: RMSD 4.667184
USER: SEED 137
USER: STATUS no improvement in best in 2 clusters for 5 generations
USER: GENES 20
USER: genes 0 Translation |==|  0.39727 0.60881 0.48628
USER: genes 1 Rotation |==|  0.49944 0.53986 0.47055 0.99754
USER: genes 2 Torsion [C]-CA--N-[C] |==|  0.57573
USER: genes 3 Torsion [N]-C--CA-[N] |==|  0.36155
USER: genes 4 Torsion [C]-CA--CB-[CG] |==|  0.72997
USER: genes 5 Torsion [CA]-CB--CG-[CD1] |==|  0.36453
USER: genes 6 Torsion [C]-CA--N-[C] |==|  0.55732
USER: genes 7 Torsion [N]-C--CA-[N] |==|  0.32364
USER: genes 8 Torsion [C]-CA--CB-[CG] |==|  0.19298
USER: genes 9 Torsion [CA]-CB--CG-[CD] |==|  0.50336
USER: genes 10 Torsion [CB]-CG--CD-[OE1] |==|  0.88108
USER: genes 11 Torsion [N]-CA--C-[N] |==|  0.38455
USER: genes 12 Torsion [C]-N--CA-[CB] |==|  0.40870
USER: genes 13 Torsion [N]-CA--CB-[CG] |==|  0.42165
USER: genes 14 Torsion [CA]-CB--CG-[CD2] |==|  0.56637
USER: genes 15 Torsion [N]-CA--C-[O] |==|  0.41054
USER: genes 16 Torsion [N]-CA--CB-[CG] |==|  0.13050
USER: genes 17 Torsion [CA]-CB--CG-[CD] |==|  0.27517
USER: genes 18 Torsion [CB]-CG--CD-[NE] |==|  0.72483
USER: genes 19 Torsion [CG]-CD--NE-[HE] |==|  0.95488
ROOT
ATOM      1  CA  ARG G  10      25.925 -44.162  57.484  1.00109.03 LIG 0.18  C 
ENDROOT
BRANCH 1 2
ATOM      2  N   ARG G  10      25.373 -44.278  56.124  1.00109.38 LIG-0.35  N 
ATOM      3 H    ARG G  10      24.725 -43.735  55.969  1.00109.38 LIG 0.16  HD
ATOM      4  C   LEU G   9      25.840 -45.159  55.199  1.00112.90 LIG 0.24  C 
ATOM      5 O    LEU G   9      26.762 -45.950  55.427  1.00112.50 LIG-0.27  OA
BRANCH 4 6
ATOM      6  CA  LEU G   9      25.184 -45.138  53.807  1.00108.81 LIG 0.18  C 
BRANCH 6 7
ATOM      7  CB  LEU G   9      24.234 -46.347  53.619  1.00108.47 LIG 0.04  C 
BRANCH 7 8
ATOM      8  CG  LEU G   9      24.778 -47.586  52.879  1.00112.27 LIG-0.02  C 
ATOM      9  CD1 LEU G   9      24.487 -48.852  53.642  1.00111.85 LIG 0.01  C 
ATOM     10  CD2 LEU G   9      24.251 -47.673  51.464  1.00114.30 LIG 0.01  C 
ENDBRANCH 7 8
ENDBRANCH 6 7
BRANCH 6 11
ATOM     11  N   LEU G   9      26.168 -45.073  52.715  1.00109.55 LIG-0.35  N 
ATOM     12 H    LEU G   9      26.950 -45.334  52.959  1.00109.55 LIG 0.16  HD
ATOM     13  C   GLU G   8      25.914 -44.654  51.455  1.00113.88 LIG 0.26  C 
ATOM     14 O    GLU G   8      24.808 -44.246  51.088  1.00113.76 LIG-0.27  OA
BRANCH 13 15
ATOM     15  CA  GLU G   8      27.081 -44.728  50.457  1.00110.25 LIG 0.40  C 
ATOM     16  N   GLU G   8      26.830 -45.650  49.351  1.00110.33 LIG 0.61  N 
BRANCH 15 17
ATOM     17  CB  GLU G   8      27.484 -43.335  49.944  1.00111.70 LIG 0.06  C 
BRANCH 17 18
ATOM     18  CG  GLU G   8      28.144 -42.477  51.014  1.00121.64 LIG 0.12  C 
BRANCH 18 19
ATOM     19  CD  GLU G   8      28.557 -41.068  50.620  1.00138.36 LIG 0.17  C 
ATOM     20 OE1  GLU G   8      29.111 -40.885  49.511  1.00130.99 LIG-0.65  OA
ATOM     21 OE2  GLU G   8      28.290 -40.137  51.414  1.00129.20 LIG-0.65  OA
ENDBRANCH 18 19
ENDBRANCH 17 18
ENDBRANCH 15 17
ENDBRANCH 13 15
ENDBRANCH 6 11
ENDBRANCH 4 6
ENDBRANCH 1 2
BRANCH 1 22
ATOM     22  C   ARG G  10      24.929 -43.650  58.547  1.00112.09 LIG 0.24  C 
ATOM     23 O    ARG G  10      24.171 -42.714  58.284  1.00111.78 LIG-0.27  OA
ATOM     24  N   LEU G  11      24.957 -44.264  59.756  1.00107.87 LIG-0.35  N 
ATOM     25 H    LEU G  11      25.485 -44.923  59.921  1.00107.87 LIG 0.16  HD
BRANCH 24 26
ATOM     26  CA  LEU G  11      24.120 -43.906  60.910  1.00123.94 LIG 0.16  C 
BRANCH 26 27
ATOM     27  CB  LEU G  11      23.779 -45.167  61.750  1.00123.74 LIG 0.04  C 
BRANCH 27 28
ATOM     28  CG  LEU G  11      23.510 -45.025  63.268  1.00127.90 LIG-0.02  C 
ATOM     29  CD2 LEU G  11      23.775 -46.332  63.983  1.00129.89 LIG 0.01  C 
ATOM     30  CD1 LEU G  11      22.090 -44.583  63.558  1.00127.81 LIG 0.01  C 
ENDBRANCH 27 28
ENDBRANCH 26 27
BRANCH 26 31
ATOM     31  C   LEU G  11      24.832 -42.843  61.761  1.00152.65 LIG 0.22  C 
ATOM     32 O    LEU G  11      24.178 -41.996  62.370  1.00110.84 LIG-0.29  OA
ENDBRANCH 26 31
ENDBRANCH 24 26
ENDBRANCH 1 22
BRANCH 1 33
ATOM     33  CB  ARG G  10      27.189 -43.285  57.469  1.00110.06 LIG 0.04  C 
BRANCH 33 34
ATOM     34  CG  ARG G  10      27.020 -41.991  56.685  1.00122.67 LIG 0.02  C 
BRANCH 34 35
ATOM     35  CD  ARG G  10      26.732 -40.808  57.592  1.00133.32 LIG 0.14  C 
BRANCH 35 36
ATOM     36  NE  ARG G  10      25.303 -40.489  57.642  1.00140.65 LIG-0.23  N 
ATOM     37 HE   ARG G  10      24.798 -40.819  57.030  1.00140.65 LIG 0.18  HD
ATOM     38  CZ  ARG G  10      24.733 -39.724  58.569  1.00153.40 LIG 0.67  C 
ATOM     39  NH2 ARG G  10      23.428 -39.488  58.532  1.00139.74 LIG-0.23  N 
ATOM     40  NH1 ARG G  10      25.463 -39.187  59.540  1.00139.37 LIG-0.23  N 
ATOM     41 2HH2 ARG G  10      23.063 -38.993  59.133  1.00139.74 LIG 0.17  HD
ATOM     42 1HH2 ARG G  10      22.947 -39.830  57.907  1.00139.74 LIG 0.17  HD
ATOM     43 1HH1 ARG G  10      26.310 -39.333  59.571  1.00139.37 LIG 0.17  HD
ATOM     44 2HH1 ARG G  10      25.090 -38.693  60.137  1.00139.37 LIG 0.17  HD
ENDBRANCH 35 36
ENDBRANCH 34 35
ENDBRANCH 33 34
ENDBRANCH 1 33
TORSDOF 18
ENDMDL
MODEL 3
USER: ADFR SOLUTION from run 166
USER: SCORE 14.331039 LL:  -2.443 LR: -12.282 RR:   0.000 FEB:  -6.913
USER: RMSD 4.669535
USER: SEED 165
USER: STATUS no improvement in best in 4 clusters for 5 generations
USER: GENES 20
USER: genes 0 Translation |==|  0.37759 0.59492 0.58347
USER: genes 1 Rotation |==|  0.63582 0.45459 0.36684 0.96017
USER: genes 2 Torsion [C]-CA--N-[C] |==|  0.53050
USER: genes 3 Torsion [N]-C--CA-[N] |==|  0.41240
USER: genes 4 Torsion [C]-CA--CB-[CG] |==|  0.72180
USER: genes 5 Torsion [CA]-CB--CG-[CD1] |==|  0.24499
USER: genes 6 Torsion [C]-CA--N-[C] |==|  0.66090
USER: genes 7 Torsion [N]-C--CA-[N] |==|  0.87167
USER: genes 8 Torsion [C]-CA--CB-[CG] |==|  0.30891
USER: genes 9 Torsion [CA]-CB--CG-[CD] |==|  0.67506
USER: genes 10 Torsion [CB]-CG--CD-[OE1] |==|  0.16205
USER: genes 11 Torsion [N]-CA--C-[N] |==|  0.46792
USER: genes 12 Torsion [C]-N--CA-[CB] |==|  0.45536
USER: genes 13 Torsion [N]-CA--CB-[CG] |==|  0.12222
USER: genes 14 Torsion [CA]-CB--CG-[CD2] |==|  0.41898
USER: genes 15 Torsion [N]-CA--C-[O] |==|  0.18230
USER: genes 16 Torsion [N]-CA--CB-[CG] |==|  0.59172
USER: genes 17 Torsion [CA]-CB--CG-[CD] |==|  0.24330
USER: genes 18 Torsion [CB]-CG--CD-[NE] |==|  0.51162
USER: genes 19 Torsion [CG]-CD--NE-[HE] |==|  0.94732
ROOT
ATOM      1  CA  ARG G  10      25.541 -44.412  59.597  1.00109.03 LIG 0.18  C 
ENDROOT
BRANCH 1 2
ATOM      2  N   ARG G  10      25.652 -43.715  58.306  1.00109.38 LIG-0.35  N 
ATOM      3 H    ARG G  10      25.180 -42.998  58.261  1.00109.38 LIG 0.16  HD
ATOM      4  C   LEU G   9      26.425 -44.159  57.279  1.00112.90 LIG 0.24  C 
ATOM      5 O    LEU G   9      27.092 -45.198  57.339  1.00112.50 LIG-0.27  OA
BRANCH 4 6
ATOM      6  CA  LEU G   9      26.467 -43.302  56.002  1.00108.81 LIG 0.18  C 
BRANCH 6 7
ATOM      7  CB  LEU G   9      25.303 -43.666  55.047  1.00108.47 LIG 0.04  C 
BRANCH 7 8
ATOM      8  CG  LEU G   9      25.611 -44.591  53.851  1.00112.27 LIG-0.02  C 
ATOM      9  CD1 LEU G   9      25.464 -46.042  54.230  1.00111.85 LIG 0.01  C 
ATOM     10  CD2 LEU G   9      24.759 -44.256  52.647  1.00114.30 LIG 0.01  C 
ENDBRANCH 7 8
ENDBRANCH 6 7
BRANCH 6 11
ATOM     11  N   LEU G   9      27.759 -43.383  55.304  1.00109.55 LIG-0.35  N 
ATOM     12 H    LEU G   9      27.967 -44.188  55.085  1.00109.55 LIG 0.16  HD
ATOM     13  C   GLU G   8      28.563 -42.335  55.019  1.00113.88 LIG 0.26  C 
ATOM     14 O    GLU G   8      28.303 -41.174  55.348  1.00113.76 LIG-0.27  OA
BRANCH 13 15
ATOM     15  CA  GLU G   8      29.842 -42.645  54.225  1.00110.25 LIG 0.40  C 
ATOM     16  N   GLU G   8      30.569 -43.804  54.738  1.00110.33 LIG 0.61  N 
BRANCH 15 17
ATOM     17  CB  GLU G   8      29.561 -42.783  52.718  1.00111.70 LIG 0.06  C 
BRANCH 17 18
ATOM     18  CG  GLU G   8      30.157 -41.648  51.897  1.00121.64 LIG 0.12  C 
BRANCH 18 19
ATOM     19  CD  GLU G   8      29.188 -40.752  51.141  1.00138.36 LIG 0.17  C 
ATOM     20 OE1  GLU G   8      28.304 -40.138  51.782  1.00130.99 LIG-0.65  OA
ATOM     21 OE2  GLU G   8      29.341 -40.639  49.904  1.00129.20 LIG-0.65  OA
ENDBRANCH 18 19
ENDBRANCH 17 18
ENDBRANCH 15 17
ENDBRANCH 13 15
ENDBRANCH 6 11
ENDBRANCH 4 6
ENDBRANCH 1 2
BRANCH 1 22
ATOM     22  C   ARG G  10      24.417 -43.893  60.521  1.00112.09 LIG 0.24  C 
ATOM     23 O    ARG G  10      23.851 -42.828  60.267  1.00111.78 LIG-0.27  OA
ATOM     24  N   LEU G  11      24.120 -44.651  61.606  1.00107.87 LIG-0.35  N 
ATOM     25 H    LEU G  11      24.518 -45.397  61.765  1.00107.87 LIG 0.16  HD
BRANCH 24 26
ATOM     26  CA  LEU G  11      23.114 -44.318  62.624  1.00123.94 LIG 0.16  C 
BRANCH 26 27
ATOM     27  CB  LEU G  11      22.761 -45.570  63.474  1.00123.74 LIG 0.04  C 
BRANCH 27 28
ATOM     28  CG  LEU G  11      23.895 -46.496  63.977  1.00127.90 LIG-0.02  C 
ATOM     29  CD2 LEU G  11      23.504 -47.165  65.276  1.00129.89 LIG 0.01  C 
ATOM     30  CD1 LEU G  11      25.197 -45.746  64.181  1.00127.81 LIG 0.01  C 
ENDBRANCH 27 28
ENDBRANCH 26 27
BRANCH 26 31
ATOM     31  C   LEU G  11      23.624 -43.168  63.506  1.00152.65 LIG 0.22  C 
ATOM     32 O    LEU G  11      23.801 -42.049  63.024  1.00110.84 LIG-0.29  OA
ENDBRANCH 26 31
ENDBRANCH 24 26
ENDBRANCH 1 22
BRANCH 1 33
ATOM     33  CB  ARG G  10      26.893 -44.384  60.333  1.00110.06 LIG 0.04  C 
BRANCH 33 34
ATOM     34  CG  ARG G  10      27.151 -45.625  61.175  1.00122.67 LIG 0.02  C 
BRANCH 34 35
ATOM     35  CD  ARG G  10      27.808 -46.733  60.372  1.00133.32 LIG 0.14  C 
BRANCH 35 36
ATOM     36  NE  ARG G  10      27.967 -47.960  61.157  1.00140.65 LIG-0.23  N 
ATOM     37 HE   ARG G  10      27.928 -47.895  62.013  1.00140.65 LIG 0.18  HD
ATOM     38  CZ  ARG G  10      28.166 -49.168  60.637  1.00153.40 LIG 0.67  C 
ATOM     39  NH2 ARG G  10      28.301 -50.224  61.428  1.00139.74 LIG-0.23  N 
ATOM     40  NH1 ARG G  10      28.234 -49.330  59.320  1.00139.37 LIG-0.23  N 
ATOM     41 2HH2 ARG G  10      28.430 -51.003  61.088  1.00139.74 LIG 0.17  HD
ATOM     42 1HH2 ARG G  10      28.260 -50.129  62.282  1.00139.74 LIG 0.17  HD
ATOM     43 1HH1 ARG G  10      28.149 -48.651  58.799  1.00139.37 LIG 0.17  HD
ATOM     44 2HH1 ARG G  10      28.363 -50.113  58.989  1.00139.37 LIG 0.17  HD
ENDBRANCH 35 36
ENDBRANCH 34 35
ENDBRANCH 33 34
ENDBRANCH 1 33
TORSDOF 18
ENDMDL
MODEL 4
USER: ADFR SOLUTION from run 181
USER: SCORE 14.146348 LL:  -2.757 LR: -11.993 RR:   0.000 FEB:  -6.624
USER: RMSD 4.333889
USER: SEED 180
USER: STATUS no improvement in best in 5 clusters for 5 generations
USER: GENES 20
USER: genes 0 Translation |==|  0.41679 0.57377 0.49576
USER: genes 1 Rotation |==|  0.51073 0.55391 0.41404 0.98948
USER: genes 2 Torsion [C]-CA--N-[C] |==|  0.54090
USER: genes 3 Torsion [N]-C--CA-[N] |==|  0.36333
USER: genes 4 Torsion [C]-CA--CB-[CG] |==|  0.74569
USER: genes 5 Torsion [CA]-CB--CG-[CD1] |==|  0.35748
USER: genes 6 Torsion [C]-CA--N-[C] |==|  0.54507
USER: genes 7 Torsion [N]-C--CA-[N] |==|  0.48077
USER: genes 8 Torsion [C]-CA--CB-[CG] |==|  0.73954
USER: genes 9 Torsion [CA]-CB--CG-[CD] |==|  0.69869
USER: genes 10 Torsion [CB]-CG--CD-[OE1] |==|  0.88880
USER: genes 11 Torsion [N]-CA--C-[N] |==|  0.46637
USER: genes 12 Torsion [C]-N--CA-[CB] |==|  0.82741
USER: genes 13 Torsion [N]-CA--CB-[CG] |==|  0.58516
USER: genes 14 Torsion [CA]-CB--CG-[CD2] |==|  0.71274
USER: genes 15 Torsion [N]-CA--C-[O] |==|  0.56850
USER: genes 16 Torsion [N]-CA--CB-[CG] |==|  0.66610
USER: genes 17 Torsion [CA]-CB--CG-[CD] |==|  0.82106
USER: genes 18 Torsion [CB]-CG--CD-[NE] |==|  0.31905
USER: genes 19 Torsion [CG]-CD--NE-[HE] |==|  0.03550
ROOT
ATOM      1  CA  ARG G  10      26.305 -44.793  57.690  1.00109.03 LIG 0.18  C 
ENDROOT
BRANCH 1 2
ATOM      2  N   ARG G  10      25.672 -44.731  56.363  1.00109.38 LIG-0.35  N 
ATOM      3 H    ARG G  10      25.035 -44.156  56.313  1.00109.38 LIG 0.16  HD
ATOM      4  C   LEU G   9      26.054 -45.507  55.313  1.00112.90 LIG 0.24  C 
ATOM      5 O    LEU G   9      26.960 -46.344  55.390  1.00112.50 LIG-0.27  OA
BRANCH 4 6
ATOM      6  CA  LEU G   9      25.320 -45.301  53.976  1.00108.81 LIG 0.18  C 
BRANCH 6 7
ATOM      7  CB  LEU G   9      24.308 -46.444  53.714  1.00108.47 LIG 0.04  C 
BRANCH 7 8
ATOM      8  CG  LEU G   9      24.796 -47.673  52.918  1.00112.27 LIG-0.02  C 
ATOM      9  CD1 LEU G   9      24.478 -48.956  53.641  1.00111.85 LIG 0.01  C 
ATOM     10  CD2 LEU G   9      24.236 -47.690  51.512  1.00114.30 LIG 0.01  C 
ENDBRANCH 7 8
ENDBRANCH 6 7
BRANCH 6 11
ATOM     11  N   LEU G   9      26.240 -45.148  52.839  1.00109.55 LIG-0.35  N 
ATOM     12 H    LEU G   9      27.039 -45.410  53.023  1.00109.55 LIG 0.16  HD
ATOM     13  C   GLU G   8      25.911 -44.655  51.625  1.00113.88 LIG 0.26  C 
ATOM     14 O    GLU G   8      24.780 -44.246  51.345  1.00113.76 LIG-0.27  OA
BRANCH 13 15
ATOM     15  CA  GLU G   8      27.021 -44.643  50.562  1.00110.25 LIG 0.40  C 
ATOM     16  N   GLU G   8      26.543 -44.248  49.239  1.00110.33 LIG 0.61  N 
BRANCH 15 17
ATOM     17  CB  GLU G   8      28.223 -43.789  51.000  1.00111.70 LIG 0.06  C 
BRANCH 17 18
ATOM     18  CG  GLU G   8      28.148 -42.355  50.495  1.00121.64 LIG 0.12  C 
BRANCH 18 19
ATOM     19  CD  GLU G   8      29.116 -41.953  49.394  1.00138.36 LIG 0.17  C 
ATOM     20 OE1  GLU G   8      30.296 -42.371  49.440  1.00130.99 LIG-0.65  OA
ATOM     21 OE2  GLU G   8      28.676 -41.243  48.461  1.00129.20 LIG-0.65  OA
ENDBRANCH 18 19
ENDBRANCH 17 18
ENDBRANCH 15 17
ENDBRANCH 13 15
ENDBRANCH 6 11
ENDBRANCH 4 6
ENDBRANCH 1 2
BRANCH 1 22
ATOM     22  C   ARG G  10      25.510 -44.106  58.822  1.00112.09 LIG 0.24  C 
ATOM     23 O    ARG G  10      24.567 -43.361  58.550  1.00111.78 LIG-0.27  OA
ATOM     24  N   LEU G  11      25.919 -44.352  60.091  1.00107.87 LIG-0.35  N 
ATOM     25 H    LEU G  11      26.574 -44.882  60.266  1.00107.87 LIG 0.16  HD
BRANCH 24 26
ATOM     26  CA  LEU G  11      25.323 -43.771  61.303  1.00123.94 LIG 0.16  C 
BRANCH 26 27
ATOM     27  CB  LEU G  11      25.474 -42.225  61.299  1.00123.74 LIG 0.04  C 
BRANCH 27 28
ATOM     28  CG  LEU G  11      25.608 -41.466  62.641  1.00127.90 LIG-0.02  C 
ATOM     29  CD2 LEU G  11      24.306 -40.785  63.003  1.00129.89 LIG 0.01  C 
ATOM     30  CD1 LEU G  11      26.713 -40.430  62.603  1.00127.81 LIG 0.01  C 
ENDBRANCH 27 28
ENDBRANCH 26 27
BRANCH 26 31
ATOM     31  C   LEU G  11      23.849 -44.189  61.412  1.00152.65 LIG 0.22  C 
ATOM     32 O    LEU G  11      23.054 -43.496  62.048  1.00110.84 LIG-0.29  OA
ENDBRANCH 26 31
ENDBRANCH 24 26
ENDBRANCH 1 22
BRANCH 1 33
ATOM     33  CB  ARG G  10      27.735 -44.227  57.622  1.00110.06 LIG 0.04  C 
BRANCH 33 34
ATOM     34  CG  ARG G  10      28.805 -45.231  58.027  1.00122.67 LIG 0.02  C 
BRANCH 34 35
ATOM     35  CD  ARG G  10      28.680 -45.640  59.484  1.00133.32 LIG 0.14  C 
BRANCH 35 36
ATOM     36  NE  ARG G  10      28.340 -47.058  59.629  1.00140.65 LIG-0.23  N 
ATOM     37 HE   ARG G  10      28.407 -47.559  58.933  1.00140.65 LIG 0.18  HD
ATOM     38  CZ  ARG G  10      27.935 -47.625  60.762  1.00153.40 LIG 0.67  C 
ATOM     39  NH2 ARG G  10      27.647 -48.919  60.797  1.00139.74 LIG-0.23  N 
ATOM     40  NH1 ARG G  10      27.814 -46.902  61.870  1.00139.37 LIG-0.23  N 
ATOM     41 2HH2 ARG G  10      27.385 -49.282  61.532  1.00139.74 LIG 0.17  HD
ATOM     42 1HH2 ARG G  10      27.721 -49.396  60.085  1.00139.74 LIG 0.17  HD
ATOM     43 1HH1 ARG G  10      27.998 -46.062  61.856  1.00139.37 LIG 0.17  HD
ATOM     44 2HH1 ARG G  10      27.552 -47.273  62.600  1.00139.37 LIG 0.17  HD
ENDBRANCH 35 36
ENDBRANCH 34 35
ENDBRANCH 33 34
ENDBRANCH 1 33
TORSDOF 18
ENDMDL
MODEL 5
USER: ADFR SOLUTION from run 54
USER: SCORE 15.029100 LL:  -3.179 LR: -11.974 RR:   0.000 FEB:  -6.605
USER: RMSD 4.609286
USER: SEED 53
USER: STATUS searching
USER: GENES 20
USER: genes 0 Translation |==|  0.38210 0.60875 0.54787
USER: genes 1 Rotation |==|  0.55397 0.50143 0.52744 0.99632
USER: genes 2 Torsion [C]-CA--N-[C] |==|  0.60003
USER: genes 3 Torsion [N]-C--CA-[N] |==|  0.36280
USER: genes 4 Torsion [C]-CA--CB-[CG] |==|  0.58208
USER: genes 5 Torsion [CA]-CB--CG-[CD1] |==|  0.47013
USER: genes 6 Torsion [C]-CA--N-[C] |==|  0.83514
USER: genes 7 Torsion [N]-C--CA-[N] |==|  0.73240
USER: genes 8 Torsion [C]-CA--CB-[CG] |==|  0.30419
USER: genes 9 Torsion [CA]-CB--CG-[CD] |==|  0.07599
USER: genes 10 Torsion [CB]-CG--CD-[OE1] |==|  0.27106
USER: genes 11 Torsion [N]-CA--C-[N] |==|  0.43060
USER: genes 12 Torsion [C]-N--CA-[CB] |==|  0.41699
USER: genes 13 Torsion [N]-CA--CB-[CG] |==|  0.38738
USER: genes 14 Torsion [CA]-CB--CG-[CD2] |==|  0.66789
USER: genes 15 Torsion [N]-CA--C-[O] |==|  0.11712
USER: genes 16 Torsion [N]-CA--CB-[CG] |==|  0.33688
USER: genes 17 Torsion [CA]-CB--CG-[CD] |==|  0.62162
USER: genes 18 Torsion [CB]-CG--CD-[NE] |==|  0.31168
USER: genes 19 Torsion [CG]-CD--NE-[HE] |==|  0.31409
ROOT
ATOM      1  CA  ARG G  10      25.629 -44.164  58.823  1.00109.03 LIG 0.18  C 
ENDROOT
BRANCH 1 2
ATOM      2  N   ARG G  10      25.312 -44.051  57.390  1.00109.38 LIG-0.35  N 
ATOM      3 H    ARG G  10      24.656 -43.520  57.224  1.00109.38 LIG 0.16  HD
ATOM      4  C   LEU G   9      25.988 -44.721  56.419  1.00112.90 LIG 0.24  C 
ATOM      5 O    LEU G   9      26.921 -45.496  56.659  1.00112.50 LIG-0.27  OA
BRANCH 4 6
ATOM      6  CA  LEU G   9      25.562 -44.473  54.961  1.00108.81 LIG 0.18  C 
BRANCH 6 7
ATOM      7  CB  LEU G   9      24.742 -45.665  54.408  1.00108.47 LIG 0.04  C 
BRANCH 7 8
ATOM      8  CG  LEU G   9      24.818 -45.954  52.894  1.00112.27 LIG-0.02  C 
ATOM      9  CD1 LEU G   9      24.186 -47.281  52.558  1.00111.85 LIG 0.01  C 
ATOM     10  CD2 LEU G   9      24.204 -44.839  52.077  1.00114.30 LIG 0.01  C 
ENDBRANCH 7 8
ENDBRANCH 6 7
BRANCH 6 11
ATOM     11  N   LEU G   9      26.701 -44.170  54.079  1.00109.55 LIG-0.35  N 
ATOM     12 H    LEU G   9      26.777 -44.732  53.433  1.00109.55 LIG 0.16  HD
ATOM     13  C   GLU G   8      27.556 -43.135  54.232  1.00113.88 LIG 0.26  C 
ATOM     14 O    GLU G   8      27.486 -42.331  55.167  1.00113.76 LIG-0.27  OA
BRANCH 13 15
ATOM     15  CA  GLU G   8      28.640 -42.973  53.154  1.00110.25 LIG 0.40  C 
ATOM     16  N   GLU G   8      29.917 -43.576  53.531  1.00110.33 LIG 0.61  N 
BRANCH 15 17
ATOM     17  CB  GLU G   8      28.163 -43.482  51.783  1.00111.70 LIG 0.06  C 
BRANCH 17 18
ATOM     18  CG  GLU G   8      27.929 -42.360  50.782  1.00121.64 LIG 0.12  C 
BRANCH 18 19
ATOM     19  CD  GLU G   8      28.736 -41.085  50.963  1.00138.36 LIG 0.17  C 
ATOM     20 OE1  GLU G   8      29.776 -40.923  50.282  1.00130.99 LIG-0.65  OA
ATOM     21 OE2  GLU G   8      28.303 -40.228  51.766  1.00129.20 LIG-0.65  OA
ENDBRANCH 18 19
ENDBRANCH 17 18
ENDBRANCH 15 17
ENDBRANCH 13 15
ENDBRANCH 6 11
ENDBRANCH 4 6
ENDBRANCH 1 2
BRANCH 1 22
ATOM     22  C   ARG G  10      24.406 -44.117  59.765  1.00112.09 LIG 0.24  C 
ATOM     23 O    ARG G  10      23.375 -43.539  59.412  1.00111.78 LIG-0.27  OA
ATOM     24  N   LEU G  11      24.543 -44.715  60.974  1.00107.87 LIG-0.35  N 
ATOM     25 H    LEU G  11      25.265 -45.122  61.203  1.00107.87 LIG 0.16  HD
BRANCH 24 26
ATOM     26  CA  LEU G  11      23.516 -44.751  62.025  1.00123.94 LIG 0.16  C 
BRANCH 26 27
ATOM     27  CB  LEU G  11      23.654 -46.041  62.879  1.00123.74 LIG 0.04  C 
BRANCH 27 28
ATOM     28  CG  LEU G  11      23.466 -45.966  64.414  1.00127.90 LIG-0.02  C 
ATOM     29  CD2 LEU G  11      24.723 -46.406  65.130  1.00129.89 LIG 0.01  C 
ATOM     30  CD1 LEU G  11      22.304 -46.815  64.889  1.00127.81 LIG 0.01  C 
ENDBRANCH 27 28
ENDBRANCH 26 27
BRANCH 26 31
ATOM     31  C   LEU G  11      23.615 -43.490  62.896  1.00152.65 LIG 0.22  C 
ATOM     32 O    LEU G  11      23.803 -42.390  62.375  1.00110.84 LIG-0.29  OA
ENDBRANCH 26 31
ENDBRANCH 24 26
ENDBRANCH 1 22
BRANCH 1 33
ATOM     33  CB  ARG G  10      26.654 -43.087  59.225  1.00110.06 LIG 0.04  C 
BRANCH 33 34
ATOM     34  CG  ARG G  10      26.156 -42.156  60.322  1.00122.67 LIG 0.02  C 
BRANCH 34 35
ATOM     35  CD  ARG G  10      26.486 -40.703  60.029  1.00133.32 LIG 0.14  C 
BRANCH 35 36
ATOM     36  NE  ARG G  10      25.283 -39.911  59.758  1.00140.65 LIG-0.23  N 
ATOM     37 HE   ARG G  10      25.068 -39.302  60.326  1.00140.65 LIG 0.18  HD
ATOM     38  CZ  ARG G  10      24.500 -40.068  58.694  1.00153.40 LIG 0.67  C 
ATOM     39  NH2 ARG G  10      23.428 -39.304  58.533  1.00139.74 LIG-0.23  N 
ATOM     40  NH1 ARG G  10      24.783 -40.992  57.782  1.00139.37 LIG-0.23  N 
ATOM     41 2HH2 ARG G  10      22.925 -39.408  57.844  1.00139.74 LIG 0.17  HD
ATOM     42 1HH2 ARG G  10      23.236 -38.704  59.119  1.00139.74 LIG 0.17  HD
ATOM     43 1HH1 ARG G  10      25.475 -41.492  57.878  1.00139.37 LIG 0.17  HD
ATOM     44 2HH1 ARG G  10      24.274 -41.089  57.096  1.00139.37 LIG 0.17  HD
ENDBRANCH 35 36
ENDBRANCH 34 35
ENDBRANCH 33 34
ENDBRANCH 1 33
TORSDOF 18
ENDMDL
MODEL 6
USER: ADFR SOLUTION from run 9
USER: SCORE 14.106739 LL:  -2.840 LR: -11.630 RR:   0.000 FEB:  -6.261
USER: RMSD 4.094929
USER: SEED 499987
USER: STATUS no improvement in best in 7 clusters for 5 generations
USER: GENES 20
USER: genes 0 Translation |==|  0.38822 0.60716 0.53051
USER: genes 1 Rotation |==|  0.52866 0.51818 0.53602 0.99755
USER: genes 2 Torsion [C]-CA--N-[C] |==|  0.56730
USER: genes 3 Torsion [N]-C--CA-[N] |==|  0.42787
USER: genes 4 Torsion [C]-CA--CB-[CG] |==|  0.65920
USER: genes 5 Torsion [CA]-CB--CG-[CD1] |==|  0.37559
USER: genes 6 Torsion [C]-CA--N-[C] |==|  0.55657
USER: genes 7 Torsion [N]-C--CA-[N] |==|  0.17116
USER: genes 8 Torsion [C]-CA--CB-[CG] |==|  0.22327
USER: genes 9 Torsion [CA]-CB--CG-[CD] |==|  0.31531
USER: genes 10 Torsion [CB]-CG--CD-[OE1] |==|  0.85739
USER: genes 11 Torsion [N]-CA--C-[N] |==|  0.43337
USER: genes 12 Torsion [C]-N--CA-[CB] |==|  0.36240
USER: genes 13 Torsion [N]-CA--CB-[CG] |==|  0.41947
USER: genes 14 Torsion [CA]-CB--CG-[CD2] |==|  0.68265
USER: genes 15 Torsion [N]-CA--C-[O] |==|  0.24690
USER: genes 16 Torsion [N]-CA--CB-[CG] |==|  0.30985
USER: genes 17 Torsion [CA]-CB--CG-[CD] |==|  0.34529
USER: genes 18 Torsion [CB]-CG--CD-[NE] |==|  0.58533
USER: genes 19 Torsion [CG]-CD--NE-[HE] |==|  0.11525
ROOT
ATOM      1  CA  ARG G  10      25.748 -44.192  58.446  1.00109.03 LIG 0.18  C 
ENDROOT
BRANCH 1 2
ATOM      2  N   ARG G  10      25.348 -44.244  57.030  1.00109.38 LIG-0.35  N 
ATOM      3 H    ARG G  10      24.578 -43.894  56.878  1.00109.38 LIG 0.16  HD
ATOM      4  C   LEU G   9      26.120 -44.791  56.053  1.00112.90 LIG 0.24  C 
ATOM      5 O    LEU G   9      27.221 -45.307  56.275  1.00112.50 LIG-0.27  OA
BRANCH 4 6
ATOM      6  CA  LEU G   9      25.581 -44.739  54.613  1.00108.81 LIG 0.18  C 
BRANCH 6 7
ATOM      7  CB  LEU G   9      24.553 -45.869  54.359  1.00108.47 LIG 0.04  C 
BRANCH 7 8
ATOM      8  CG  LEU G   9      24.833 -46.856  53.206  1.00112.27 LIG-0.02  C 
ATOM      9  CD1 LEU G   9      24.582 -48.280  53.631  1.00111.85 LIG 0.01  C 
ATOM     10  CD2 LEU G   9      24.039 -46.511  51.966  1.00114.30 LIG 0.01  C 
ENDBRANCH 7 8
ENDBRANCH 6 7
BRANCH 6 11
ATOM     11  N   LEU G   9      26.651 -44.770  53.603  1.00109.55 LIG-0.35  N 
ATOM     12 H    LEU G   9      27.388 -45.087  53.913  1.00109.55 LIG 0.16  HD
ATOM     13  C   GLU G   8      26.533 -44.357  52.322  1.00113.88 LIG 0.26  C 
ATOM     14 O    GLU G   8      25.495 -43.871  51.861  1.00113.76 LIG-0.27  OA
BRANCH 13 15
ATOM     15  CA  GLU G   8      27.766 -44.540  51.423  1.00110.25 LIG 0.40  C 
ATOM     16  N   GLU G   8      28.159 -45.939  51.268  1.00110.33 LIG 0.61  N 
BRANCH 15 17
ATOM     17  CB  GLU G   8      27.585 -43.855  50.058  1.00111.70 LIG 0.06  C 
BRANCH 17 18
ATOM     18  CG  GLU G   8      27.846 -42.356  50.106  1.00121.64 LIG 0.12  C 
BRANCH 18 19
ATOM     19  CD  GLU G   8      29.053 -41.834  49.342  1.00138.36 LIG 0.17  C 
ATOM     20 OE1  GLU G   8      30.169 -42.371  49.531  1.00130.99 LIG-0.65  OA
ATOM     21 OE2  GLU G   8      28.869 -40.906  48.523  1.00129.20 LIG-0.65  OA
ENDBRANCH 18 19
ENDBRANCH 17 18
ENDBRANCH 15 17
ENDBRANCH 13 15
ENDBRANCH 6 11
ENDBRANCH 4 6
ENDBRANCH 1 2
BRANCH 1 22
ATOM     22  C   ARG G  10      24.578 -44.093  59.448  1.00112.09 LIG 0.24  C 
ATOM     23 O    ARG G  10      23.499 -43.612  59.094  1.00111.78 LIG-0.27  OA
ATOM     24  N   LEU G  11      24.814 -44.535  60.708  1.00107.87 LIG-0.35  N 
ATOM     25 H    LEU G  11      25.569 -44.876  60.938  1.00107.87 LIG 0.16  HD
BRANCH 24 26
ATOM     26  CA  LEU G  11      23.850 -44.496  61.817  1.00123.94 LIG 0.16  C 
BRANCH 26 27
ATOM     27  CB  LEU G  11      23.764 -45.880  62.516  1.00123.74 LIG 0.04  C 
BRANCH 27 28
ATOM     28  CG  LEU G  11      23.398 -45.957  64.018  1.00127.90 LIG-0.02  C 
ATOM     29  CD2 LEU G  11      24.562 -46.485  64.827  1.00129.89 LIG 0.01  C 
ATOM     30  CD1 LEU G  11      22.187 -46.835  64.266  1.00127.81 LIG 0.01  C 
ENDBRANCH 27 28
ENDBRANCH 26 27
BRANCH 26 31
ATOM     31  C   LEU G  11      24.240 -43.391  62.810  1.00152.65 LIG 0.22  C 
ATOM     32 O    LEU G  11      23.820 -42.243  62.657  1.00110.84 LIG-0.29  OA
ENDBRANCH 26 31
ENDBRANCH 24 26
ENDBRANCH 1 22
BRANCH 1 33
ATOM     33  CB  ARG G  10      26.745 -43.041  58.673  1.00110.06 LIG 0.04  C 
BRANCH 33 34
ATOM     34  CG  ARG G  10      26.177 -41.904  59.509  1.00122.67 LIG 0.02  C 
BRANCH 34 35
ATOM     35  CD  ARG G  10      27.033 -41.609  60.728  1.00133.32 LIG 0.14  C 
BRANCH 35 36
ATOM     36  NE  ARG G  10      26.236 -41.109  61.852  1.00140.65 LIG-0.23  N 
ATOM     37 HE   ARG G  10      25.478 -41.486  62.003  1.00140.65 LIG 0.18  HD
ATOM     38  CZ  ARG G  10      26.603 -40.113  62.654  1.00153.40 LIG 0.67  C 
ATOM     39  NH2 ARG G  10      25.812 -39.727  63.646  1.00139.74 LIG-0.23  N 
ATOM     40  NH1 ARG G  10      27.763 -39.494  62.468  1.00139.37 LIG-0.23  N 
ATOM     41 2HH2 ARG G  10      26.053 -39.083  64.162  1.00139.74 LIG 0.17  HD
ATOM     42 1HH2 ARG G  10      25.058 -40.121  63.773  1.00139.74 LIG 0.17  HD
ATOM     43 1HH1 ARG G  10      28.282 -39.737  61.826  1.00139.37 LIG 0.17  HD
ATOM     44 2HH1 ARG G  10      27.996 -38.851  62.989  1.00139.37 LIG 0.17  HD
ENDBRANCH 35 36
ENDBRANCH 34 35
ENDBRANCH 33 34
ENDBRANCH 1 33
TORSDOF 18
ENDMDL
MODEL 7
USER: ADFR SOLUTION from run 147
USER: SCORE 14.909486 LL:  -3.680 LR: -11.484 RR:   0.000 FEB:  -6.115
USER: RMSD 2.653563
USER: SEED 146
USER: STATUS no improvement in best in 6 clusters for 5 generations
USER: GENES 20
USER: genes 0 Translation |==|  0.40401 0.60194 0.53235
USER: genes 1 Rotation |==|  0.52902 0.50366 0.52456 0.99854
USER: genes 2 Torsion [C]-CA--N-[C] |==|  0.61350
USER: genes 3 Torsion [N]-C--CA-[N] |==|  0.43529
USER: genes 4 Torsion [C]-CA--CB-[CG] |==|  0.63808
USER: genes 5 Torsion [CA]-CB--CG-[CD1] |==|  0.36667
USER: genes 6 Torsion [C]-CA--N-[C] |==|  0.58479
USER: genes 7 Torsion [N]-C--CA-[N] |==|  0.89427
USER: genes 8 Torsion [C]-CA--CB-[CG] |==|  0.83712
USER: genes 9 Torsion [CA]-CB--CG-[CD] |==|  0.84463
USER: genes 10 Torsion [CB]-CG--CD-[OE1] |==|  0.74122
USER: genes 11 Torsion [N]-CA--C-[N] |==|  0.43000
USER: genes 12 Torsion [C]-N--CA-[CB] |==|  0.37028
USER: genes 13 Torsion [N]-CA--CB-[CG] |==|  0.40332
USER: genes 14 Torsion [CA]-CB--CG-[CD2] |==|  0.69059
USER: genes 15 Torsion [N]-CA--C-[O] |==|  0.27197
USER: genes 16 Torsion [N]-CA--CB-[CG] |==|  0.63080
USER: genes 17 Torsion [CA]-CB--CG-[CD] |==|  0.01460
USER: genes 18 Torsion [CB]-CG--CD-[NE] |==|  0.65038
USER: genes 19 Torsion [CG]-CD--NE-[HE] |==|  0.96369
ROOT
ATOM      1  CA  ARG G  10      26.056 -44.286  58.486  1.00109.03 LIG 0.18  C 
ENDROOT
BRANCH 1 2
ATOM      2  N   ARG G  10      25.733 -44.315  57.050  1.00109.38 LIG-0.35  N 
ATOM      3 H    ARG G  10      25.127 -43.748  56.823  1.00109.38 LIG 0.16  HD
ATOM      4  C   LEU G   9      26.331 -45.155  56.164  1.00112.90 LIG 0.24  C 
ATOM      5 O    LEU G   9      27.192 -45.979  56.493  1.00112.50 LIG-0.27  OA
BRANCH 4 6
ATOM      6  CA  LEU G   9      25.913 -45.042  54.687  1.00108.81 LIG 0.18  C 
BRANCH 6 7
ATOM      7  CB  LEU G   9      24.553 -45.741  54.438  1.00108.47 LIG 0.04  C 
BRANCH 7 8
ATOM      8  CG  LEU G   9      24.456 -46.734  53.261  1.00112.27 LIG-0.02  C 
ATOM      9  CD1 LEU G   9      23.803 -48.024  53.686  1.00111.85 LIG 0.01  C 
ATOM     10  CD2 LEU G   9      23.740 -46.129  52.073  1.00114.30 LIG 0.01  C 
ENDBRANCH 7 8
ENDBRANCH 6 7
BRANCH 6 11
ATOM     11  N   LEU G   9      26.938 -45.552  53.764  1.00109.55 LIG-0.35  N 
ATOM     12 H    LEU G   9      27.406 -46.188  54.108  1.00109.55 LIG 0.16  HD
ATOM     13  C   GLU G   8      27.158 -45.102  52.509  1.00113.88 LIG 0.26  C 
ATOM     14 O    GLU G   8      26.521 -44.172  52.004  1.00113.76 LIG-0.27  OA
BRANCH 13 15
ATOM     15  CA  GLU G   8      28.244 -45.825  51.698  1.00110.25 LIG 0.40  C 
ATOM     16  N   GLU G   8      29.401 -46.209  52.505  1.00110.33 LIG 0.61  N 
BRANCH 15 17
ATOM     17  CB  GLU G   8      27.677 -47.029  50.926  1.00111.70 LIG 0.06  C 
BRANCH 17 18
ATOM     18  CG  GLU G   8      27.022 -48.061  51.834  1.00121.64 LIG 0.12  C 
BRANCH 18 19
ATOM     19  CD  GLU G   8      27.869 -48.637  52.958  1.00138.36 LIG 0.17  C 
ATOM     20 OE1  GLU G   8      28.499 -49.701  52.759  1.00130.99 LIG-0.65  OA
ATOM     21 OE2  GLU G   8      27.929 -47.996  54.032  1.00129.20 LIG-0.65  OA
ENDBRANCH 18 19
ENDBRANCH 17 18
ENDBRANCH 15 17
ENDBRANCH 13 15
ENDBRANCH 6 11
ENDBRANCH 4 6
ENDBRANCH 1 2
BRANCH 1 22
ATOM     22  C   ARG G  10      24.838 -44.132  59.423  1.00112.09 LIG 0.24  C 
ATOM     23 O    ARG G  10      23.814 -43.578  59.019  1.00111.78 LIG-0.27  OA
ATOM     24  N   LEU G  11      24.974 -44.611  60.684  1.00107.87 LIG-0.35  N 
ATOM     25 H    LEU G  11      25.692 -45.003  60.949  1.00107.87 LIG 0.16  HD
BRANCH 24 26
ATOM     26  CA  LEU G  11      23.951 -44.531  61.737  1.00123.94 LIG 0.16  C 
BRANCH 26 27
ATOM     27  CB  LEU G  11      23.791 -45.903  62.448  1.00123.74 LIG 0.04  C 
BRANCH 27 28
ATOM     28  CG  LEU G  11      23.474 -45.947  63.963  1.00127.90 LIG-0.02  C 
ATOM     29  CD2 LEU G  11      24.652 -46.489  64.741  1.00129.89 LIG 0.01  C 
ATOM     30  CD1 LEU G  11      22.251 -46.791  64.265  1.00127.81 LIG 0.01  C 
ENDBRANCH 27 28
ENDBRANCH 26 27
BRANCH 26 31
ATOM     31  C   LEU G  11      24.317 -43.423  62.736  1.00152.65 LIG 0.22  C 
ATOM     32 O    LEU G  11      23.803 -42.307  62.640  1.00110.84 LIG-0.29  OA
ENDBRANCH 26 31
ENDBRANCH 24 26
ENDBRANCH 1 22
BRANCH 1 33
ATOM     33  CB  ARG G  10      27.094 -43.186  58.773  1.00110.06 LIG 0.04  C 
BRANCH 33 34
ATOM     34  CG  ARG G  10      28.245 -43.654  59.652  1.00122.67 LIG 0.02  C 
BRANCH 34 35
ATOM     35  CD  ARG G  10      28.173 -45.143  59.942  1.00133.32 LIG 0.14  C 
BRANCH 35 36
ATOM     36  NE  ARG G  10      28.208 -45.425  61.380  1.00140.65 LIG-0.23  N 
ATOM     37 HE   ARG G  10      28.436 -44.784  61.907  1.00140.65 LIG 0.18  HD
ATOM     38  CZ  ARG G  10      27.914 -46.601  61.926  1.00153.40 LIG 0.67  C 
ATOM     39  NH2 ARG G  10      27.977 -46.763  63.241  1.00139.74 LIG-0.23  N 
ATOM     40  NH1 ARG G  10      27.555 -47.626  61.161  1.00139.37 LIG-0.23  N 
ATOM     41 2HH2 ARG G  10      27.785 -47.525  63.590  1.00139.74 LIG 0.17  HD
ATOM     42 1HH2 ARG G  10      28.209 -46.106  63.744  1.00139.74 LIG 0.17  HD
ATOM     43 1HH1 ARG G  10      27.512 -47.531  60.307  1.00139.37 LIG 0.17  HD
ATOM     44 2HH1 ARG G  10      27.365 -48.384  61.518  1.00139.37 LIG 0.17  HD
ENDBRANCH 35 36
ENDBRANCH 34 35
ENDBRANCH 33 34
ENDBRANCH 1 33
TORSDOF 18
ENDMDL
MODEL 8
USER: ADFR SOLUTION from run 166
USER: SCORE 14.288831 LL:  -3.171 LR: -11.339 RR:   0.000 FEB:  -5.969
USER: RMSD 3.563456
USER: SEED 165
USER: STATUS no improvement in best in 4 clusters for 5 generations
USER: GENES 20
USER: genes 0 Translation |==|  0.38169 0.58339 0.59573
USER: genes 1 Rotation |==|  0.60717 0.43622 0.36862 0.96603
USER: genes 2 Torsion [C]-CA--N-[C] |==|  0.55591
USER: genes 3 Torsion [N]-C--CA-[N] |==|  0.41939
USER: genes 4 Torsion [C]-CA--CB-[CG] |==|  0.67651
USER: genes 5 Torsion [CA]-CB--CG-[CD1] |==|  0.32383
USER: genes 6 Torsion [C]-CA--N-[C] |==|  0.62386
USER: genes 7 Torsion [N]-C--CA-[N] |==|  0.61192
USER: genes 8 Torsion [C]-CA--CB-[CG] |==|  0.25716
USER: genes 9 Torsion [CA]-CB--CG-[CD] |==|  0.66704
USER: genes 10 Torsion [CB]-CG--CD-[OE1] |==|  0.07747
USER: genes 11 Torsion [N]-CA--C-[N] |==|  0.45008
USER: genes 12 Torsion [C]-N--CA-[CB] |==|  0.45516
USER: genes 13 Torsion [N]-CA--CB-[CG] |==|  0.10857
USER: genes 14 Torsion [CA]-CB--CG-[CD2] |==|  0.44683
USER: genes 15 Torsion [N]-CA--C-[O] |==|  0.18547
USER: genes 16 Torsion [N]-CA--CB-[CG] |==|  0.62724
USER: genes 17 Torsion [CA]-CB--CG-[CD] |==|  0.21220
USER: genes 18 Torsion [CB]-CG--CD-[NE] |==|  0.52480
USER: genes 19 Torsion [CG]-CD--NE-[HE] |==|  0.95980
ROOT
ATOM      1  CA  ARG G  10      25.621 -44.620  59.864  1.00109.03 LIG 0.18  C 
ENDROOT
BRANCH 1 2
ATOM      2  N   ARG G  10      25.791 -44.101  58.497  1.00109.38 LIG-0.35  N 
ATOM      3 H    ARG G  10      25.439 -43.327  58.377  1.00109.38 LIG 0.16  HD
ATOM      4  C   LEU G   9      26.444 -44.779  57.515  1.00112.90 LIG 0.24  C 
ATOM      5 O    LEU G   9      26.939 -45.899  57.684  1.00112.50 LIG-0.27  OA
BRANCH 4 6
ATOM      6  CA  LEU G   9      26.573 -44.090  56.145  1.00108.81 LIG 0.18  C 
BRANCH 6 7
ATOM      7  CB  LEU G   9      25.303 -44.313  55.286  1.00108.47 LIG 0.04  C 
BRANCH 7 8
ATOM      8  CG  LEU G   9      25.449 -45.107  53.972  1.00112.27 LIG-0.02  C 
ATOM      9  CD1 LEU G   9      24.656 -46.388  54.014  1.00111.85 LIG 0.01  C 
ATOM     10  CD2 LEU G   9      25.071 -44.275  52.767  1.00114.30 LIG 0.01  C 
ENDBRANCH 7 8
ENDBRANCH 6 7
BRANCH 6 11
ATOM     11  N   LEU G   9      27.778 -44.504  55.410  1.00109.55 LIG-0.35  N 
ATOM     12 H    LEU G   9      27.906 -45.354  55.438  1.00109.55 LIG 0.16  HD
ATOM     13  C   GLU G   8      28.619 -43.676  54.754  1.00113.88 LIG 0.26  C 
ATOM     14 O    GLU G   8      28.475 -42.449  54.724  1.00113.76 LIG-0.27  OA
BRANCH 13 15
ATOM     15  CA  GLU G   8      29.786 -44.334  54.000  1.00110.25 LIG 0.40  C 
ATOM     16  N   GLU G   8      31.040 -43.593  54.126  1.00110.33 LIG 0.61  N 
BRANCH 15 17
ATOM     17  CB  GLU G   8      29.966 -45.809  54.400  1.00111.70 LIG 0.06  C 
BRANCH 17 18
ATOM     18  CG  GLU G   8      29.207 -46.766  53.492  1.00121.64 LIG 0.12  C 
BRANCH 18 19
ATOM     19  CD  GLU G   8      28.151 -47.650  54.138  1.00138.36 LIG 0.17  C 
ATOM     20 OE1  GLU G   8      27.572 -47.246  55.173  1.00130.99 LIG-0.65  OA
ATOM     21 OE2  GLU G   8      27.879 -48.737  53.581  1.00129.20 LIG-0.65  OA
ENDBRANCH 18 19
ENDBRANCH 17 18
ENDBRANCH 15 17
ENDBRANCH 13 15
ENDBRANCH 6 11
ENDBRANCH 4 6
ENDBRANCH 1 2
BRANCH 1 22
ATOM     22  C   ARG G  10      24.476 -43.966  60.668  1.00112.09 LIG 0.24  C 
ATOM     23 O    ARG G  10      24.020 -42.875  60.320  1.00111.78 LIG-0.27  OA
ATOM     24  N   LEU G  11      24.034 -44.640  61.759  1.00107.87 LIG-0.35  N 
ATOM     25 H    LEU G  11      24.356 -45.405  61.985  1.00107.87 LIG 0.16  HD
BRANCH 24 26
ATOM     26  CA  LEU G  11      22.982 -44.176  62.676  1.00123.94 LIG 0.16  C 
BRANCH 26 27
ATOM     27  CB  LEU G  11      22.463 -45.351  63.550  1.00123.74 LIG 0.04  C 
BRANCH 27 28
ATOM     28  CG  LEU G  11      23.462 -46.402  64.091  1.00127.90 LIG-0.02  C 
ATOM     29  CD2 LEU G  11      22.866 -47.156  65.259  1.00129.89 LIG 0.01  C 
ATOM     30  CD1 LEU G  11      24.772 -45.773  64.525  1.00127.81 LIG 0.01  C 
ENDBRANCH 27 28
ENDBRANCH 26 27
BRANCH 26 31
ATOM     31  C   LEU G  11      23.516 -43.026  63.543  1.00152.65 LIG 0.22  C 
ATOM     32 O    LEU G  11      23.803 -41.944  63.030  1.00110.84 LIG-0.29  OA
ENDBRANCH 26 31
ENDBRANCH 24 26
ENDBRANCH 1 22
BRANCH 1 33
ATOM     33  CB  ARG G  10      26.946 -44.515  60.640  1.00110.06 LIG 0.04  C 
BRANCH 33 34
ATOM     34  CG  ARG G  10      27.298 -45.778  61.413  1.00122.67 LIG 0.02  C 
BRANCH 34 35
ATOM     35  CD  ARG G  10      27.827 -46.873  60.505  1.00133.32 LIG 0.14  C 
BRANCH 35 36
ATOM     36  NE  ARG G  10      27.967 -48.151  61.210  1.00140.65 LIG-0.23  N 
ATOM     37 HE   ARG G  10      27.935 -48.139  62.069  1.00140.65 LIG 0.18  HD
ATOM     38  CZ  ARG G  10      28.141 -49.327  60.613  1.00153.40 LIG 0.67  C 
ATOM     39  NH2 ARG G  10      28.260 -50.433  61.335  1.00139.74 LIG-0.23  N 
ATOM     40  NH1 ARG G  10      28.198 -49.406  59.288  1.00139.37 LIG-0.23  N 
ATOM     41 2HH2 ARG G  10      28.372 -51.191  60.945  1.00139.74 LIG 0.17  HD
ATOM     42 1HH2 ARG G  10      28.226 -50.391  62.193  1.00139.74 LIG 0.17  HD
ATOM     43 1HH1 ARG G  10      28.122 -48.694  58.812  1.00139.37 LIG 0.17  HD
ATOM     44 2HH1 ARG G  10      28.310 -50.168  58.907  1.00139.37 LIG 0.17  HD
ENDBRANCH 35 36
ENDBRANCH 34 35
ENDBRANCH 33 34
ENDBRANCH 1 33
TORSDOF 18
ENDMDL
