MODEL 1
USER: ADFR SOLUTION from run 87
USER: SCORE 18.118854 LL:  -4.542 LR: -13.668 RR:   0.000 FEB:  -8.895
USER: RMSD 1.610788
USER: SEED 86
USER: STATUS no improvement in best in 3 clusters for 5 generations
USER: GENES 18
USER: genes 0 Translation |==|  0.50797 0.45023 0.43707
USER: genes 1 Rotation |==|  0.53409 0.48537 0.50966 0.99853
USER: genes 2 Torsion [N]-C--CA-[N] |==|  0.36224
USER: genes 3 Torsion [C]-CA--N-[C] |==|  0.76667
USER: genes 4 Torsion [N]-C--CA-[N] |==|  0.40634
USER: genes 5 Torsion [N]-C--CA-[N] |==|  0.46773
USER: genes 6 Torsion [N]-C--CA-[N] |==|  0.39952
USER: genes 7 Torsion [C]-CA--N-[C] |==|  0.79780
USER: genes 8 Torsion [C]-CA--CB-[CG] |==|  0.29624
USER: genes 9 Torsion [CA]-CB--CG-[CD1] |==|  0.12137
USER: genes 10 Torsion [N]-CA--C-[N] |==|  0.46470
USER: genes 11 Torsion [N]-CA--C-[N] |==|  0.33087
USER: genes 12 Torsion [C]-N--CA-[C] |==|  0.84667
USER: genes 13 Torsion [N]-CA--C-[O] |==|  0.29680
USER: genes 14 Torsion [N]-CA--CB-[CG] |==|  0.61484
USER: genes 15 Torsion [CA]-CB--CG-[CD] |==|  0.63927
USER: genes 16 Torsion [CB]-CG--CD-[NE] |==|  0.50831
USER: genes 17 Torsion [CG]-CD--NE-[HE] |==|  0.07565
ROOT
ATOM      1  C   LEU B   4      78.690 -20.450  48.605  1.00 11.33 LIG 0.24  C 
ATOM      2 O    LEU B   4      79.668 -20.665  47.875  1.00 12.90 LIG-0.27  OA
ATOM      3  N   PRO B   5      77.473 -20.331  48.108  1.00 11.12 LIG-0.34  N 
ATOM      4  CA  PRO B   5      77.251 -20.488  46.693  1.00 12.55 LIG 0.18  C 
ATOM      5  CB  PRO B   5      75.742 -20.752  46.615  1.00 13.89 LIG 0.04  C 
ATOM      6  CG  PRO B   5      75.187 -20.003  47.764  1.00 12.43 LIG 0.02  C 
ATOM      7  CD  PRO B   5      76.228 -20.048  48.837  1.00 11.21 LIG 0.13  C 
ENDROOT
BRANCH 1 8
ATOM      8  CA  LEU B   4      78.856 -20.339  50.115  1.00 11.65 LIG 0.18  C 
BRANCH 8 9
ATOM      9  N   LEU B   4      79.642 -21.457  50.586  1.00 12.22 LIG-0.35  N 
ATOM     10  C   PRO B   3      79.050 -22.613  50.837  1.00 12.52 LIG 0.24  C 
ATOM     11 O    PRO B   3      77.825 -22.763  50.793  1.00 13.02 LIG-0.27  OA
ATOM     12 H    LEU B   4      80.482 -21.302  50.681  1.00 12.22 LIG 0.16  HD
BRANCH 10 13
ATOM     13  CA  PRO B   3      79.975 -23.764  51.197  1.00 15.46 LIG 0.18  C 
ATOM     14  N   PRO B   3      79.325 -24.651  52.165  1.00 15.16 LIG-0.34  N 
ATOM     15  CD  PRO B   3      79.079 -25.990  51.609  1.00 18.06 LIG 0.13  C 
ATOM     16  C   PRO B   2      78.952 -24.169  53.345  1.00 13.99 LIG 0.24  C 
ATOM     17  CG  PRO B   3      79.240 -25.776  50.144  1.00 19.92 LIG 0.02  C 
ATOM     18  CB  PRO B   3      80.233 -24.678  49.995  1.00 18.17 LIG 0.04  C 
ATOM     19 O    PRO B   2      79.221 -23.008  53.676  1.00 12.71 LIG-0.27  OA
BRANCH 16 20
ATOM     20  CA  PRO B   2      78.134 -25.065  54.256  1.00 15.85 LIG 0.18  C 
ATOM     21  CB  PRO B   2      76.670 -25.106  53.789  1.00 19.12 LIG 0.04  C 
ATOM     22  CG  PRO B   2      75.834 -24.868  54.978  1.00 19.63 LIG 0.02  C 
ATOM     23  CD  PRO B   2      76.669 -24.092  55.923  1.00 18.19 LIG 0.13  C 
ATOM     24  N   PRO B   2      78.045 -24.501  55.591  1.00 15.71 LIG-0.34  N 
ATOM     25  C   ALA B   1      79.135 -24.376  56.337  1.00 13.25 LIG 0.24  C 
ATOM     26 O    ALA B   1      80.255 -24.676  55.926  1.00 13.75 LIG-0.27  OA
BRANCH 25 27
ATOM     27  CA  ALA B   1      78.944 -23.801  57.730  1.00 12.47 LIG 0.17  C 
ATOM     28  CB  ALA B   1      79.183 -22.314  57.711  1.00 12.30 LIG 0.04  C 
BRANCH 27 29
ATOM     29  N   ALA B   1      79.846 -24.444  58.667  1.00 12.31 LIG-0.35  N 
ATOM     30 H    ALA B   1      80.504 -23.953  58.926  1.00 12.31 LIG 0.16  HD
ATOM     31  C   ACE B   0      79.642 -25.687  59.067  1.00 14.04 LIG 0.21  C 
ATOM     32  CH3 ACE B   0      80.632 -26.249  60.041  1.00 14.78 LIG 0.12  C 
ATOM     33 O    ACE B   0      78.687 -26.338  58.642  1.00 15.52 LIG-0.27  OA
ENDBRANCH 27 29
ENDBRANCH 25 27
ENDBRANCH 16 20
ENDBRANCH 10 13
ENDBRANCH 8 9
BRANCH 8 34
ATOM     34  CB  LEU B   4      79.511 -19.005  50.466  1.00 12.59 LIG 0.04  C 
BRANCH 34 35
ATOM     35  CG  LEU B   4      78.573 -17.974  51.090  1.00 12.74 LIG-0.02  C 
ATOM     36  CD1 LEU B   4      77.695 -18.644  52.130  1.00 14.33 LIG 0.01  C 
ATOM     37  CD2 LEU B   4      79.328 -16.806  51.712  1.00 11.50 LIG 0.01  C 
ENDBRANCH 34 35
ENDBRANCH 8 34
ENDBRANCH 1 8
BRANCH 4 38
ATOM     38  C   PRO B   5      77.635 -19.222  45.952  1.00 12.26 LIG 0.24  C 
ATOM     39  N   PRO B   6      77.735 -19.289  44.629  1.00 14.33 LIG-0.34  N 
ATOM     40  CD  PRO B   6      77.548 -20.464  43.766  1.00 16.43 LIG 0.13  C 
ATOM     41  CA  PRO B   6      78.045 -18.082  43.860  1.00 15.63 LIG 0.18  C 
ATOM     42  CG  PRO B   6      78.228 -20.062  42.499  1.00 18.90 LIG 0.02  C 
ATOM     43  CB  PRO B   6      78.141 -18.589  42.415  1.00 17.20 LIG 0.04  C 
ATOM     44 O    PRO B   5      77.820 -18.155  46.558  1.00 12.24 LIG-0.27  OA
BRANCH 41 45
ATOM     45  C   PRO B   6      76.944 -17.041  43.985  1.00 14.54 LIG 0.24  C 
ATOM     46 O    PRO B   6      75.794 -17.263  43.599  1.00 15.72 LIG-0.27  OA
ATOM     47  N   ARG B   7      77.317 -15.887  44.518  1.00 15.59 LIG-0.35  N 
ATOM     48 H    ARG B   7      78.111 -15.724  44.805  1.00 15.59 LIG 0.16  HD
BRANCH 47 49
ATOM     49  CA  ARG B   7      76.383 -14.771  44.663  1.00 17.66 LIG 0.16  C 
BRANCH 49 50
ATOM     50  C   ARG B   7      75.725 -14.381  43.343  1.00 19.45 LIG 0.22  C 
ATOM     51 O    ARG B   7      74.549 -14.654  43.128  1.00 22.19 LIG-0.29  OA
ENDBRANCH 49 50
BRANCH 49 52
ATOM     52  CB  ARG B   7      77.100 -13.578  45.286  1.00 18.48 LIG 0.04  C 
BRANCH 52 53
ATOM     53  CG  ARG B   7      76.246 -12.878  46.319  1.00 19.62 LIG 0.02  C 
BRANCH 53 54
ATOM     54  CD  ARG B   7      76.181 -11.386  46.095  1.00 19.05 LIG 0.14  C 
BRANCH 54 55
ATOM     55  NE  ARG B   7      75.408 -10.746  47.151  1.00 16.94 LIG-0.23  N 
ATOM     56  CZ  ARG B   7      74.734  -9.606  47.022  1.00 14.04 LIG 0.67  C 
ATOM     57  NH1 ARG B   7      74.731  -8.936  45.880  1.00 13.87 LIG-0.23  N 
ATOM     58  NH2 ARG B   7      74.066  -9.126  48.056  1.00 14.07 LIG-0.23  N 
ATOM     59 2HH1 ARG B   7      74.289  -8.201  45.813  1.00 13.87 LIG 0.17  HD
ATOM     60 1HH1 ARG B   7      75.170  -9.237  45.204  1.00 13.87 LIG 0.17  HD
ATOM     61 1HH2 ARG B   7      74.070  -9.549  48.804  1.00 14.07 LIG 0.17  HD
ATOM     62 2HH2 ARG B   7      73.628  -8.390  47.981  1.00 14.07 LIG 0.17  HD
ATOM     63 HE   ARG B   7      75.386 -11.135  47.918  1.00 16.94 LIG 0.18  HD
ENDBRANCH 54 55
ENDBRANCH 53 54
ENDBRANCH 52 53
ENDBRANCH 49 52
ENDBRANCH 47 49
ENDBRANCH 41 45
ENDBRANCH 4 38
TORSDOF 16
ENDMDL
MODEL 2
USER: ADFR SOLUTION from run 154
USER: SCORE 16.493120 LL:  -3.962 LR: -12.986 RR:   0.000 FEB:  -8.213
USER: RMSD 3.247235
USER: SEED 153
USER: STATUS no improvement in best in 4 clusters for 5 generations
USER: GENES 18
USER: genes 0 Translation |==|  0.48436 0.43220 0.45821
USER: genes 1 Rotation |==|  0.53697 0.48122 0.45863 0.99656
USER: genes 2 Torsion [N]-C--CA-[N] |==|  0.40041
USER: genes 3 Torsion [C]-CA--N-[C] |==|  0.70639
USER: genes 4 Torsion [N]-C--CA-[N] |==|  0.41342
USER: genes 5 Torsion [N]-C--CA-[N] |==|  0.91400
USER: genes 6 Torsion [N]-C--CA-[N] |==|  0.35369
USER: genes 7 Torsion [C]-CA--N-[C] |==|  0.67778
USER: genes 8 Torsion [C]-CA--CB-[CG] |==|  0.36901
USER: genes 9 Torsion [CA]-CB--CG-[CD1] |==|  0.38801
USER: genes 10 Torsion [N]-CA--C-[N] |==|  0.44242
USER: genes 11 Torsion [N]-CA--C-[N] |==|  0.32669
USER: genes 12 Torsion [C]-N--CA-[C] |==|  0.80103
USER: genes 13 Torsion [N]-CA--C-[O] |==|  0.90315
USER: genes 14 Torsion [N]-CA--CB-[CG] |==|  0.60119
USER: genes 15 Torsion [CA]-CB--CG-[CD] |==|  0.70377
USER: genes 16 Torsion [CB]-CG--CD-[NE] |==|  0.53366
USER: genes 17 Torsion [CG]-CD--NE-[HE] |==|  0.05719
ROOT
ATOM      1  C   LEU B   4      78.335 -20.883  49.176  1.00 11.33 LIG 0.24  C 
ATOM      2 O    LEU B   4      79.253 -21.278  48.443  1.00 12.90 LIG-0.27  OA
ATOM      3  N   PRO B   5      77.171 -20.510  48.680  1.00 11.12 LIG-0.34  N 
ATOM      4  CA  PRO B   5      76.928 -20.594  47.263  1.00 12.55 LIG 0.18  C 
ATOM      5  CB  PRO B   5      75.397 -20.544  47.179  1.00 13.89 LIG 0.04  C 
ATOM      6  CG  PRO B   5      75.000 -19.718  48.340  1.00 12.43 LIG 0.02  C 
ATOM      7  CD  PRO B   5      76.006 -19.994  49.414  1.00 11.21 LIG 0.13  C 
ENDROOT
BRANCH 1 8
ATOM      8  CA  LEU B   4      78.514 -20.835  50.688  1.00 11.65 LIG 0.18  C 
BRANCH 8 9
ATOM      9  N   LEU B   4      79.342 -21.946  51.100  1.00 12.22 LIG-0.35  N 
ATOM     10  C   PRO B   3      78.789 -22.982  51.710  1.00 12.52 LIG 0.24  C 
ATOM     11 O    PRO B   3      77.603 -23.006  52.048  1.00 13.02 LIG-0.27  OA
ATOM     12 H    LEU B   4      80.179 -21.869  50.919  1.00 12.22 LIG 0.16  HD
BRANCH 10 13
ATOM     13  CA  PRO B   3      79.714 -24.157  51.983  1.00 15.46 LIG 0.18  C 
ATOM     14  N   PRO B   3      79.302 -24.851  53.205  1.00 15.16 LIG-0.34  N 
ATOM     15  CD  PRO B   3      78.843 -26.222  52.934  1.00 18.06 LIG 0.13  C 
ATOM     16  C   PRO B   2      79.285 -24.192  54.358  1.00 13.99 LIG 0.24  C 
ATOM     17  CG  PRO B   3      78.616 -26.212  51.462  1.00 19.92 LIG 0.02  C 
ATOM     18  CB  PRO B   3      79.590 -25.236  50.902  1.00 18.17 LIG 0.04  C 
ATOM     19 O    PRO B   2      79.695 -23.027  54.434  1.00 12.71 LIG-0.27  OA
BRANCH 16 20
ATOM     20  CA  PRO B   2      78.695 -24.887  55.570  1.00 15.85 LIG 0.18  C 
ATOM     21  CB  PRO B   2      79.741 -25.809  56.218  1.00 19.12 LIG 0.04  C 
ATOM     22  CG  PRO B   2      79.090 -27.111  56.434  1.00 19.63 LIG 0.02  C 
ATOM     23  CD  PRO B   2      78.010 -27.208  55.426  1.00 18.19 LIG 0.13  C 
ATOM     24  N   PRO B   2      77.640 -25.804  55.176  1.00 15.71 LIG-0.34  N 
ATOM     25  C   ALA B   1      76.523 -25.341  54.630  1.00 13.25 LIG 0.24  C 
ATOM     26 O    ALA B   1      76.351 -24.147  54.389  1.00 13.75 LIG-0.27  OA
BRANCH 25 27
ATOM     27  CA  ALA B   1      75.462 -26.369  54.274  1.00 12.47 LIG 0.17  C 
ATOM     28  CB  ALA B   1      75.338 -26.483  52.777  1.00 12.30 LIG 0.04  C 
BRANCH 27 29
ATOM     29  N   ALA B   1      74.187 -25.997  54.858  1.00 12.31 LIG-0.35  N 
ATOM     30 H    ALA B   1      73.856 -25.261  54.560  1.00 12.31 LIG 0.16  HD
ATOM     31  C   ACE B   0      73.609 -26.756  55.773  1.00 14.04 LIG 0.21  C 
ATOM     32  CH3 ACE B   0      72.291 -26.281  56.303  1.00 14.78 LIG 0.12  C 
ATOM     33 O    ACE B   0      74.147 -27.791  56.166  1.00 15.52 LIG-0.27  OA
ENDBRANCH 27 29
ENDBRANCH 25 27
ENDBRANCH 16 20
ENDBRANCH 10 13
ENDBRANCH 8 9
BRANCH 8 34
ATOM     34  CB  LEU B   4      79.128 -19.497  51.094  1.00 12.59 LIG 0.04  C 
BRANCH 34 35
ATOM     35  CG  LEU B   4      78.437 -18.803  52.265  1.00 12.74 LIG-0.02  C 
ATOM     36  CD1 LEU B   4      79.478 -18.186  53.180  1.00 14.33 LIG 0.01  C 
ATOM     37  CD2 LEU B   4      77.445 -17.742  51.806  1.00 11.50 LIG 0.01  C 
ENDBRANCH 34 35
ENDBRANCH 8 34
ENDBRANCH 1 8
BRANCH 4 38
ATOM     38  C   PRO B   5      77.565 -19.419  46.545  1.00 12.26 LIG 0.24  C 
ATOM     39  N   PRO B   6      77.804 -19.548  45.245  1.00 14.33 LIG-0.34  N 
ATOM     40  CD  PRO B   6      77.556 -20.717  44.390  1.00 16.43 LIG 0.13  C 
ATOM     41  CA  PRO B   6      78.362 -18.423  44.492  1.00 15.63 LIG 0.18  C 
ATOM     42  CG  PRO B   6      78.423 -20.458  43.204  1.00 18.90 LIG 0.02  C 
ATOM     43  CB  PRO B   6      78.551 -18.990  43.080  1.00 17.20 LIG 0.04  C 
ATOM     44 O    PRO B   5      77.825 -18.365  47.146  1.00 12.24 LIG-0.27  OA
BRANCH 41 45
ATOM     45  C   PRO B   6      77.408 -17.239  44.466  1.00 14.54 LIG 0.24  C 
ATOM     46 O    PRO B   6      76.301 -17.310  43.927  1.00 15.72 LIG-0.27  OA
ATOM     47  N   ARG B   7      77.862 -16.135  45.042  1.00 15.59 LIG-0.35  N 
ATOM     48 H    ARG B   7      78.625 -16.076  45.433  1.00 15.59 LIG 0.16  HD
BRANCH 47 49
ATOM     49  CA  ARG B   7      77.079 -14.900  45.057  1.00 17.66 LIG 0.16  C 
BRANCH 49 50
ATOM     50  C   ARG B   7      77.003 -14.237  43.686  1.00 19.45 LIG 0.22  C 
ATOM     51 O    ARG B   7      77.956 -14.286  42.915  1.00 22.19 LIG-0.29  OA
ENDBRANCH 49 50
BRANCH 49 52
ATOM     52  CB  ARG B   7      77.654 -13.940  46.093  1.00 18.48 LIG 0.04  C 
BRANCH 52 53
ATOM     53  CG  ARG B   7      76.573 -13.150  46.797  1.00 19.62 LIG 0.02  C 
BRANCH 53 54
ATOM     54  CD  ARG B   7      76.532 -11.709  46.348  1.00 19.05 LIG 0.14  C 
BRANCH 54 55
ATOM     55  NE  ARG B   7      75.687 -10.923  47.238  1.00 16.94 LIG-0.23  N 
ATOM     56  CZ  ARG B   7      75.130  -9.754  46.930  1.00 14.04 LIG 0.67  C 
ATOM     57  NH1 ARG B   7      75.326  -9.192  45.747  1.00 13.87 LIG-0.23  N 
ATOM     58  NH2 ARG B   7      74.380  -9.137  47.824  1.00 14.07 LIG-0.23  N 
ATOM     59 2HH1 ARG B   7      74.958  -8.436  45.564  1.00 13.87 LIG 0.17  HD
ATOM     60 1HH1 ARG B   7      75.820  -9.583  45.162  1.00 13.87 LIG 0.17  HD
ATOM     61 1HH2 ARG B   7      74.255  -9.491  48.598  1.00 14.07 LIG 0.17  HD
ATOM     62 2HH2 ARG B   7      74.016  -8.382  47.633  1.00 14.07 LIG 0.17  HD
ATOM     63 HE   ARG B   7      75.537 -11.239  48.024  1.00 16.94 LIG 0.18  HD
ENDBRANCH 54 55
ENDBRANCH 53 54
ENDBRANCH 52 53
ENDBRANCH 49 52
ENDBRANCH 47 49
ENDBRANCH 41 45
ENDBRANCH 4 38
TORSDOF 16
ENDMDL
MODEL 3
USER: ADFR SOLUTION from run 182
USER: SCORE 17.359948 LL:  -4.488 LR: -12.916 RR:   0.000 FEB:  -8.143
USER: RMSD 3.106497
USER: SEED 181
USER: STATUS no improvement in best in 5 clusters for 5 generations
USER: GENES 18
USER: genes 0 Translation |==|  0.46268 0.46512 0.47098
USER: genes 1 Rotation |==|  0.50842 0.40253 0.54614 0.98816
USER: genes 2 Torsion [N]-C--CA-[N] |==|  0.39420
USER: genes 3 Torsion [C]-CA--N-[C] |==|  0.83769
USER: genes 4 Torsion [N]-C--CA-[N] |==|  0.47918
USER: genes 5 Torsion [N]-C--CA-[N] |==|  0.48693
USER: genes 6 Torsion [N]-C--CA-[N] |==|  0.39825
USER: genes 7 Torsion [C]-CA--N-[C] |==|  0.79384
USER: genes 8 Torsion [C]-CA--CB-[CG] |==|  0.74699
USER: genes 9 Torsion [CA]-CB--CG-[CD1] |==|  0.38690
USER: genes 10 Torsion [N]-CA--C-[N] |==|  0.49810
USER: genes 11 Torsion [N]-CA--C-[N] |==|  0.35022
USER: genes 12 Torsion [C]-N--CA-[C] |==|  0.76790
USER: genes 13 Torsion [N]-CA--C-[O] |==|  0.83661
USER: genes 14 Torsion [N]-CA--CB-[CG] |==|  0.55647
USER: genes 15 Torsion [CA]-CB--CG-[CD] |==|  0.62286
USER: genes 16 Torsion [CB]-CG--CD-[NE] |==|  0.59533
USER: genes 17 Torsion [CG]-CD--NE-[HE] |==|  0.13317
ROOT
ATOM      1  C   LEU B   4      78.010 -20.093  49.520  1.00 11.33 LIG 0.24  C 
ATOM      2 O    LEU B   4      79.196 -20.227  49.186  1.00 12.90 LIG-0.27  OA
ATOM      3  N   PRO B   5      77.032 -20.177  48.638  1.00 11.12 LIG-0.34  N 
ATOM      4  CA  PRO B   5      77.327 -20.468  47.258  1.00 12.55 LIG 0.18  C 
ATOM      5  CB  PRO B   5      75.972 -20.938  46.716  1.00 13.89 LIG 0.04  C 
ATOM      6  CG  PRO B   5      74.983 -20.187  47.520  1.00 12.43 LIG 0.02  C 
ATOM      7  CD  PRO B   5      75.591 -20.011  48.876  1.00 11.21 LIG 0.13  C 
ENDROOT
BRANCH 1 8
ATOM      8  CA  LEU B   4      77.636 -19.847  50.977  1.00 11.65 LIG 0.18  C 
BRANCH 8 9
ATOM      9  N   LEU B   4      78.516 -20.618  51.826  1.00 12.22 LIG-0.35  N 
ATOM     10  C   PRO B   3      78.571 -21.932  51.689  1.00 12.52 LIG 0.24  C 
ATOM     11 O    PRO B   3      77.820 -22.560  50.937  1.00 13.02 LIG-0.27  OA
ATOM     12 H    LEU B   4      78.972 -20.161  52.394  1.00 12.22 LIG 0.16  HD
BRANCH 10 13
ATOM     13  CA  PRO B   3      79.621 -22.640  52.530  1.00 15.46 LIG 0.18  C 
ATOM     14  N   PRO B   3      79.460 -24.092  52.423  1.00 15.16 LIG-0.34  N 
ATOM     15  CD  PRO B   3      80.613 -24.729  51.770  1.00 18.06 LIG 0.13  C 
ATOM     16  C   PRO B   2      78.319 -24.654  52.810  1.00 13.99 LIG 0.24  C 
ATOM     17  CG  PRO B   3      81.308 -23.580  51.127  1.00 19.92 LIG 0.02  C 
ATOM     18  CB  PRO B   3      81.034 -22.399  51.989  1.00 18.17 LIG 0.04  C 
ATOM     19 O    PRO B   2      77.424 -23.984  53.339  1.00 12.71 LIG-0.27  OA
BRANCH 16 20
ATOM     20  CA  PRO B   2      78.121 -26.131  52.531  1.00 15.85 LIG 0.18  C 
ATOM     21  CB  PRO B   2      77.920 -26.367  51.025  1.00 19.12 LIG 0.04  C 
ATOM     22  CG  PRO B   2      76.737 -27.232  50.881  1.00 19.63 LIG 0.02  C 
ATOM     23  CD  PRO B   2      75.902 -26.996  52.081  1.00 18.19 LIG 0.13  C 
ATOM     24  N   PRO B   2      76.878 -26.604  53.113  1.00 15.71 LIG-0.34  N 
ATOM     25  C   ALA B   1      76.718 -26.612  54.430  1.00 13.25 LIG 0.24  C 
ATOM     26 O    ALA B   1      77.574 -26.182  55.202  1.00 13.75 LIG-0.27  OA
BRANCH 25 27
ATOM     27  CA  ALA B   1      75.396 -27.148  54.953  1.00 12.47 LIG 0.17  C 
ATOM     28  CB  ALA B   1      74.434 -26.012  55.181  1.00 12.30 LIG 0.04  C 
BRANCH 27 29
ATOM     29  N   ALA B   1      75.605 -27.886  56.184  1.00 12.31 LIG-0.35  N 
ATOM     30 H    ALA B   1      75.349 -27.477  56.896  1.00 12.31 LIG 0.16  HD
ATOM     31  C   ACE B   0      76.150 -29.090  56.173  1.00 14.04 LIG 0.21  C 
ATOM     32  CH3 ACE B   0      76.312 -29.764  57.502  1.00 14.78 LIG 0.12  C 
ATOM     33 O    ACE B   0      76.509 -29.611  55.117  1.00 15.52 LIG-0.27  OA
ENDBRANCH 27 29
ENDBRANCH 25 27
ENDBRANCH 16 20
ENDBRANCH 10 13
ENDBRANCH 8 9
BRANCH 8 34
ATOM     34  CB  LEU B   4      77.721 -18.355  51.288  1.00 12.59 LIG 0.04  C 
BRANCH 34 35
ATOM     35  CG  LEU B   4      79.077 -17.885  51.810  1.00 12.74 LIG-0.02  C 
ATOM     36  CD1 LEU B   4      79.431 -16.549  51.184  1.00 14.33 LIG 0.01  C 
ATOM     37  CD2 LEU B   4      79.106 -17.777  53.330  1.00 11.50 LIG 0.01  C 
ENDBRANCH 34 35
ENDBRANCH 8 34
ENDBRANCH 1 8
BRANCH 4 38
ATOM     38  C   PRO B   5      77.811 -19.221  46.545  1.00 12.26 LIG 0.24  C 
ATOM     39  N   PRO B   6      78.138 -19.333  45.262  1.00 14.33 LIG-0.34  N 
ATOM     40  CD  PRO B   6      78.121 -20.542  44.426  1.00 16.43 LIG 0.13  C 
ATOM     41  CA  PRO B   6      78.554 -18.148  44.509  1.00 15.63 LIG 0.18  C 
ATOM     42  CG  PRO B   6      79.001 -20.171  43.279  1.00 18.90 LIG 0.02  C 
ATOM     43  CB  PRO B   6      78.905 -18.703  43.124  1.00 17.20 LIG 0.04  C 
ATOM     44 O    PRO B   5      77.872 -18.129  47.131  1.00 12.24 LIG-0.27  OA
BRANCH 41 45
ATOM     45  C   PRO B   6      77.431 -17.128  44.404  1.00 14.54 LIG 0.24  C 
ATOM     46 O    PRO B   6      76.324 -17.428  43.950  1.00 15.72 LIG-0.27  OA
ATOM     47  N   ARG B   7      77.736 -15.907  44.816  1.00 15.59 LIG-0.35  N 
ATOM     48 H    ARG B   7      78.499 -15.688  45.149  1.00 15.59 LIG 0.16  HD
BRANCH 47 49
ATOM     49  CA  ARG B   7      76.776 -14.807  44.735  1.00 17.66 LIG 0.16  C 
BRANCH 49 50
ATOM     50  C   ARG B   7      76.752 -14.149  43.359  1.00 19.45 LIG 0.22  C 
ATOM     51 O    ARG B   7      77.768 -13.649  42.890  1.00 22.19 LIG-0.29  OA
ENDBRANCH 49 50
BRANCH 49 52
ATOM     52  CB  ARG B   7      77.078 -13.781  45.823  1.00 18.48 LIG 0.04  C 
BRANCH 52 53
ATOM     53  CG  ARG B   7      75.883 -12.902  46.120  1.00 19.62 LIG 0.02  C 
BRANCH 53 54
ATOM     54  CD  ARG B   7      76.260 -11.445  46.244  1.00 19.05 LIG 0.14  C 
BRANCH 54 55
ATOM     55  NE  ARG B   7      75.427 -10.787  47.243  1.00 16.94 LIG-0.23  N 
ATOM     56  CZ  ARG B   7      74.801  -9.625  47.071  1.00 14.04 LIG 0.67  C 
ATOM     57  NH1 ARG B   7      74.908  -8.949  45.938  1.00 13.87 LIG-0.23  N 
ATOM     58  NH2 ARG B   7      74.070  -9.131  48.054  1.00 14.07 LIG-0.23  N 
ATOM     59 2HH1 ARG B   7      74.497  -8.199  45.844  1.00 13.87 LIG 0.17  HD
ATOM     60 1HH1 ARG B   7      75.389  -9.259  45.297  1.00 13.87 LIG 0.17  HD
ATOM     61 1HH2 ARG B   7      74.002  -9.559  48.797  1.00 14.07 LIG 0.17  HD
ATOM     62 2HH2 ARG B   7      73.662  -8.381  47.952  1.00 14.07 LIG 0.17  HD
ATOM     63 HE   ARG B   7      75.333 -11.180  48.002  1.00 16.94 LIG 0.18  HD
ENDBRANCH 54 55
ENDBRANCH 53 54
ENDBRANCH 52 53
ENDBRANCH 49 52
ENDBRANCH 47 49
ENDBRANCH 41 45
ENDBRANCH 4 38
TORSDOF 16
ENDMDL
MODEL 4
USER: ADFR SOLUTION from run 133
USER: SCORE 17.645740 LL:  -4.797 LR: -12.855 RR:   0.000 FEB:  -8.082
USER: RMSD 4.303356
USER: SEED 132
USER: STATUS no improvement in best in 3 clusters for 5 generations
USER: GENES 18
USER: genes 0 Translation |==|  0.47217 0.43143 0.44098
USER: genes 1 Rotation |==|  0.46380 0.53004 0.43752 0.99385
USER: genes 2 Torsion [N]-C--CA-[N] |==|  0.40152
USER: genes 3 Torsion [C]-CA--N-[C] |==|  0.82760
USER: genes 4 Torsion [N]-C--CA-[N] |==|  0.39747
USER: genes 5 Torsion [N]-C--CA-[N] |==|  0.47002
USER: genes 6 Torsion [N]-C--CA-[N] |==|  0.39552
USER: genes 7 Torsion [C]-CA--N-[C] |==|  0.82109
USER: genes 8 Torsion [C]-CA--CB-[CG] |==|  0.40048
USER: genes 9 Torsion [CA]-CB--CG-[CD1] |==|  0.58284
USER: genes 10 Torsion [N]-CA--C-[N] |==|  0.40923
USER: genes 11 Torsion [N]-CA--C-[N] |==|  0.78000
USER: genes 12 Torsion [C]-N--CA-[C] |==|  0.82367
USER: genes 13 Torsion [N]-CA--C-[O] |==|  0.50529
USER: genes 14 Torsion [N]-CA--CB-[CG] |==|  0.89613
USER: genes 15 Torsion [CA]-CB--CG-[CD] |==|  0.37724
USER: genes 16 Torsion [CB]-CG--CD-[NE] |==|  0.77521
USER: genes 17 Torsion [CG]-CD--NE-[HE] |==|  0.04020
ROOT
ATOM      1  C   LEU B   4      78.153 -20.902  48.711  1.00 11.33 LIG 0.24  C 
ATOM      2 O    LEU B   4      78.855 -21.571  47.939  1.00 12.90 LIG-0.27  OA
ATOM      3  N   PRO B   5      76.925 -20.542  48.387  1.00 11.12 LIG-0.34  N 
ATOM      4  CA  PRO B   5      76.357 -20.960  47.131  1.00 12.55 LIG 0.18  C 
ATOM      5  CB  PRO B   5      74.853 -20.765  47.358  1.00 13.89 LIG 0.04  C 
ATOM      6  CG  PRO B   5      74.777 -19.630  48.304  1.00 12.43 LIG 0.02  C 
ATOM      7  CD  PRO B   5      75.989 -19.730  49.177  1.00 11.21 LIG 0.13  C 
ENDROOT
BRANCH 1 8
ATOM      8  CA  LEU B   4      78.679 -20.486  50.079  1.00 11.65 LIG 0.18  C 
BRANCH 8 9
ATOM      9  N   LEU B   4      79.530 -21.534  50.594  1.00 12.22 LIG-0.35  N 
ATOM     10  C   PRO B   3      79.024 -22.735  50.823  1.00 12.52 LIG 0.24  C 
ATOM     11 O    PRO B   3      77.820 -22.986  50.721  1.00 13.02 LIG-0.27  OA
ATOM     12 H    LEU B   4      80.350 -21.311  50.728  1.00 12.22 LIG 0.16  HD
BRANCH 10 13
ATOM     13  CA  PRO B   3      80.023 -23.805  51.234  1.00 15.46 LIG 0.18  C 
ATOM     14  N   PRO B   3      79.427 -24.696  52.232  1.00 15.16 LIG-0.34  N 
ATOM     15  CD  PRO B   3      79.278 -26.069  51.728  1.00 18.06 LIG 0.13  C 
ATOM     16  C   PRO B   2      79.011 -24.195  53.390  1.00 13.99 LIG 0.24  C 
ATOM     17  CG  PRO B   3      79.437 -25.902  50.256  1.00 19.92 LIG 0.02  C 
ATOM     18  CB  PRO B   3      80.354 -24.745  50.071  1.00 18.17 LIG 0.04  C 
ATOM     19 O    PRO B   2      79.196 -23.006  53.676  1.00 12.71 LIG-0.27  OA
BRANCH 16 20
ATOM     20  CA  PRO B   2      78.248 -25.109  54.330  1.00 15.85 LIG 0.18  C 
ATOM     21  CB  PRO B   2      76.800 -25.285  53.845  1.00 19.12 LIG 0.04  C 
ATOM     22  CG  PRO B   2      75.927 -25.059  55.009  1.00 19.63 LIG 0.02  C 
ATOM     23  CD  PRO B   2      76.683 -24.177  55.928  1.00 18.19 LIG 0.13  C 
ATOM     24  N   PRO B   2      78.091 -24.493  55.635  1.00 15.71 LIG-0.34  N 
ATOM     25  C   ALA B   1      79.155 -24.249  56.390  1.00 13.25 LIG 0.24  C 
ATOM     26 O    ALA B   1      80.302 -24.480  56.010  1.00 13.75 LIG-0.27  OA
BRANCH 25 27
ATOM     27  CA  ALA B   1      78.895 -23.627  57.752  1.00 12.47 LIG 0.17  C 
ATOM     28  CB  ALA B   1      79.054 -22.131  57.673  1.00 12.30 LIG 0.04  C 
BRANCH 27 29
ATOM     29  N   ALA B   1      79.805 -24.179  58.738  1.00 12.31 LIG-0.35  N 
ATOM     30 H    ALA B   1      80.356 -23.611  59.076  1.00 12.31 LIG 0.16  HD
ATOM     31  C   ACE B   0      79.761 -25.459  59.066  1.00 14.04 LIG 0.21  C 
ATOM     32  CH3 ACE B   0      80.742 -25.920  60.100  1.00 14.78 LIG 0.12  C 
ATOM     33 O    ACE B   0      78.955 -26.220  58.531  1.00 15.52 LIG-0.27  OA
ENDBRANCH 27 29
ENDBRANCH 25 27
ENDBRANCH 16 20
ENDBRANCH 10 13
ENDBRANCH 8 9
BRANCH 8 34
ATOM     34  CB  LEU B   4      79.427 -19.161  49.965  1.00 12.59 LIG 0.04  C 
BRANCH 34 35
ATOM     35  CG  LEU B   4      79.265 -18.228  51.163  1.00 12.74 LIG-0.02  C 
ATOM     36  CD1 LEU B   4      79.372 -16.785  50.706  1.00 14.33 LIG 0.01  C 
ATOM     37  CD2 LEU B   4      77.949 -18.450  51.897  1.00 11.50 LIG 0.01  C 
ENDBRANCH 34 35
ENDBRANCH 8 34
ENDBRANCH 1 8
BRANCH 4 38
ATOM     38  C   PRO B   5      76.868 -20.087  46.001  1.00 12.26 LIG 0.24  C 
ATOM     39  N   PRO B   6      77.021 -20.650  44.808  1.00 14.33 LIG-0.34  N 
ATOM     40  CD  PRO B   6      76.784 -22.051  44.431  1.00 16.43 LIG 0.13  C 
ATOM     41  CA  PRO B   6      77.454 -19.839  43.668  1.00 15.63 LIG 0.18  C 
ATOM     42  CG  PRO B   6      77.548 -22.191  43.156  1.00 18.90 LIG 0.02  C 
ATOM     43  CB  PRO B   6      77.576 -20.854  42.526  1.00 17.20 LIG 0.04  C 
ATOM     44 O    PRO B   5      77.106 -18.882  46.179  1.00 12.24 LIG-0.27  OA
BRANCH 41 45
ATOM     45  C   PRO B   6      76.431 -18.769  43.322  1.00 14.54 LIG 0.24  C 
ATOM     46 O    PRO B   6      76.568 -17.598  43.686  1.00 15.72 LIG-0.27  OA
ATOM     47  N   ARG B   7      75.386 -19.191  42.625  1.00 15.59 LIG-0.35  N 
ATOM     48 H    ARG B   7      75.285 -20.000  42.353  1.00 15.59 LIG 0.16  HD
BRANCH 47 49
ATOM     49  CA  ARG B   7      74.295 -18.290  42.256  1.00 17.66 LIG 0.16  C 
BRANCH 49 50
ATOM     50  C   ARG B   7      73.552 -17.740  43.470  1.00 19.45 LIG 0.22  C 
ATOM     51 O    ARG B   7      72.587 -16.997  43.326  1.00 22.19 LIG-0.29  OA
ENDBRANCH 49 50
BRANCH 49 52
ATOM     52  CB  ARG B   7      73.336 -19.005  41.310  1.00 18.48 LIG 0.04  C 
BRANCH 52 53
ATOM     53  CG  ARG B   7      74.064 -19.913  40.343  1.00 19.62 LIG 0.02  C 
BRANCH 53 54
ATOM     54  CD  ARG B   7      73.389 -21.256  40.198  1.00 19.05 LIG 0.14  C 
BRANCH 54 55
ATOM     55  NE  ARG B   7      73.756 -22.131  41.304  1.00 16.94 LIG-0.23  N 
ATOM     56  CZ  ARG B   7      73.560 -23.447  41.335  1.00 14.04 LIG 0.67  C 
ATOM     57  NH1 ARG B   7      72.978 -24.078  40.327  1.00 13.87 LIG-0.23  N 
ATOM     58  NH2 ARG B   7      73.939 -24.134  42.397  1.00 14.07 LIG-0.23  N 
ATOM     59 2HH1 ARG B   7      72.859 -24.929  40.363  1.00 13.87 LIG 0.17  HD
ATOM     60 1HH1 ARG B   7      72.720 -23.636  39.636  1.00 13.87 LIG 0.17  HD
ATOM     61 1HH2 ARG B   7      74.310 -23.731  43.060  1.00 14.07 LIG 0.17  HD
ATOM     62 2HH2 ARG B   7      73.816 -24.984  42.425  1.00 14.07 LIG 0.17  HD
ATOM     63 HE   ARG B   7      74.128 -21.769  41.990  1.00 16.94 LIG 0.18  HD
ENDBRANCH 54 55
ENDBRANCH 53 54
ENDBRANCH 52 53
ENDBRANCH 49 52
ENDBRANCH 47 49
ENDBRANCH 41 45
ENDBRANCH 4 38
TORSDOF 16
ENDMDL
MODEL 5
USER: ADFR SOLUTION from run 6
USER: SCORE 17.315804 LL:  -4.665 LR: -12.667 RR:   0.000 FEB:  -7.894
USER: RMSD 2.698169
USER: SEED 178255
USER: STATUS no improvement in best in 6 clusters for 5 generations
USER: GENES 18
USER: genes 0 Translation |==|  0.48405 0.43548 0.44380
USER: genes 1 Rotation |==|  0.48749 0.51271 0.46858 0.99869
USER: genes 2 Torsion [N]-C--CA-[N] |==|  0.38109
USER: genes 3 Torsion [C]-CA--N-[C] |==|  0.84052
USER: genes 4 Torsion [N]-C--CA-[N] |==|  0.36922
USER: genes 5 Torsion [N]-C--CA-[N] |==|  0.45768
USER: genes 6 Torsion [N]-C--CA-[N] |==|  0.39762
USER: genes 7 Torsion [C]-CA--N-[C] |==|  0.80606
USER: genes 8 Torsion [C]-CA--CB-[CG] |==|  0.41169
USER: genes 9 Torsion [CA]-CB--CG-[CD1] |==|  0.55081
USER: genes 10 Torsion [N]-CA--C-[N] |==|  0.44723
USER: genes 11 Torsion [N]-CA--C-[N] |==|  0.78122
USER: genes 12 Torsion [C]-N--CA-[C] |==|  0.49186
USER: genes 13 Torsion [N]-CA--C-[O] |==|  0.06416
USER: genes 14 Torsion [N]-CA--CB-[CG] |==|  0.64587
USER: genes 15 Torsion [CA]-CB--CG-[CD] |==|  0.86209
USER: genes 16 Torsion [CB]-CG--CD-[NE] |==|  0.83162
USER: genes 17 Torsion [CG]-CD--NE-[HE] |==|  0.29025
ROOT
ATOM      1  C   LEU B   4      78.331 -20.805  48.787  1.00 11.33 LIG 0.24  C 
ATOM      2 O    LEU B   4      79.162 -21.305  48.016  1.00 12.90 LIG-0.27  OA
ATOM      3  N   PRO B   5      77.091 -20.566  48.401  1.00 11.12 LIG-0.34  N 
ATOM      4  CA  PRO B   5      76.666 -20.924  47.073  1.00 12.55 LIG 0.18  C 
ATOM      5  CB  PRO B   5      75.137 -20.935  47.199  1.00 13.89 LIG 0.04  C 
ATOM      6  CG  PRO B   5      74.855 -19.916  48.233  1.00 12.43 LIG 0.02  C 
ATOM      7  CD  PRO B   5      76.009 -19.954  49.185  1.00 11.21 LIG 0.13  C 
ENDROOT
BRANCH 1 8
ATOM      8  CA  LEU B   4      78.708 -20.465  50.223  1.00 11.65 LIG 0.18  C 
BRANCH 8 9
ATOM      9  N   LEU B   4      79.511 -21.537  50.766  1.00 12.22 LIG-0.35  N 
ATOM     10  C   PRO B   3      79.027 -22.769  50.788  1.00 12.52 LIG 0.24  C 
ATOM     11 O    PRO B   3      77.868 -23.040  50.465  1.00 13.02 LIG-0.27  OA
ATOM     12 H    LEU B   4      80.287 -21.307  51.054  1.00 12.22 LIG 0.16  HD
BRANCH 10 13
ATOM     13  CA  PRO B   3      79.993 -23.848  51.251  1.00 15.46 LIG 0.18  C 
ATOM     14  N   PRO B   3      79.345 -24.717  52.236  1.00 15.16 LIG-0.34  N 
ATOM     15  CD  PRO B   3      79.195 -26.095  51.743  1.00 18.06 LIG 0.13  C 
ATOM     16  C   PRO B   2      78.892 -24.196  53.371  1.00 13.99 LIG 0.24  C 
ATOM     17  CG  PRO B   3      79.413 -25.949  50.277  1.00 19.92 LIG 0.02  C 
ATOM     18  CB  PRO B   3      80.354 -24.808  50.113  1.00 18.17 LIG 0.04  C 
ATOM     19 O    PRO B   2      79.085 -23.006  53.650  1.00 12.71 LIG-0.27  OA
BRANCH 16 20
ATOM     20  CA  PRO B   2      78.080 -25.087  54.291  1.00 15.85 LIG 0.18  C 
ATOM     21  CB  PRO B   2      76.620 -25.158  53.813  1.00 19.12 LIG 0.04  C 
ATOM     22  CG  PRO B   2      75.772 -24.910  54.990  1.00 19.63 LIG 0.02  C 
ATOM     23  CD  PRO B   2      76.587 -24.104  55.928  1.00 18.19 LIG 0.13  C 
ATOM     24  N   PRO B   2      77.971 -24.499  55.614  1.00 15.71 LIG-0.34  N 
ATOM     25  C   ALA B   1      79.053 -24.343  56.367  1.00 13.25 LIG 0.24  C 
ATOM     26 O    ALA B   1      80.180 -24.634  55.971  1.00 13.75 LIG-0.27  OA
BRANCH 25 27
ATOM     27  CA  ALA B   1      78.841 -23.744  57.747  1.00 12.47 LIG 0.17  C 
ATOM     28  CB  ALA B   1      79.075 -22.257  57.705  1.00 12.30 LIG 0.04  C 
BRANCH 27 29
ATOM     29  N   ALA B   1      79.734 -24.367  58.707  1.00 12.31 LIG-0.35  N 
ATOM     30 H    ALA B   1      80.363 -23.856  58.997  1.00 12.31 LIG 0.16  HD
ATOM     31  C   ACE B   0      79.563 -25.623  59.082  1.00 14.04 LIG 0.21  C 
ATOM     32  CH3 ACE B   0      80.538 -26.162  60.083  1.00 14.78 LIG 0.12  C 
ATOM     33 O    ACE B   0      78.649 -26.303  58.614  1.00 15.52 LIG-0.27  OA
ENDBRANCH 27 29
ENDBRANCH 25 27
ENDBRANCH 16 20
ENDBRANCH 10 13
ENDBRANCH 8 9
BRANCH 8 34
ATOM     34  CB  LEU B   4      79.452 -19.133  50.262  1.00 12.59 LIG 0.04  C 
BRANCH 34 35
ATOM     35  CG  LEU B   4      79.233 -18.312  51.531  1.00 12.74 LIG-0.02  C 
ATOM     36  CD1 LEU B   4      79.626 -16.868  51.281  1.00 14.33 LIG 0.01  C 
ATOM     37  CD2 LEU B   4      77.794 -18.386  52.028  1.00 11.50 LIG 0.01  C 
ENDBRANCH 34 35
ENDBRANCH 8 34
ENDBRANCH 1 8
BRANCH 4 38
ATOM     38  C   PRO B   5      77.135 -19.889  46.068  1.00 12.26 LIG 0.24  C 
ATOM     39  N   PRO B   6      77.171 -20.244  44.789  1.00 14.33 LIG-0.34  N 
ATOM     40  CD  PRO B   6      76.838 -21.550  44.202  1.00 16.43 LIG 0.13  C 
ATOM     41  CA  PRO B   6      77.560 -19.266  43.771  1.00 15.63 LIG 0.18  C 
ATOM     42  CG  PRO B   6      77.497 -21.497  42.864  1.00 18.90 LIG 0.02  C 
ATOM     43  CB  PRO B   6      77.546 -20.073  42.468  1.00 17.20 LIG 0.04  C 
ATOM     44 O    PRO B   5      77.446 -18.742  46.427  1.00 12.24 LIG-0.27  OA
BRANCH 41 45
ATOM     45  C   PRO B   6      76.568 -18.115  43.695  1.00 14.54 LIG 0.24  C 
ATOM     46 O    PRO B   6      76.794 -17.028  44.231  1.00 15.72 LIG-0.27  OA
ATOM     47  N   ARG B   7      75.451 -18.375  43.032  1.00 15.59 LIG-0.35  N 
ATOM     48 H    ARG B   7      75.288 -19.123  42.640  1.00 15.59 LIG 0.16  HD
BRANCH 47 49
ATOM     49  CA  ARG B   7      74.383 -17.385  42.911  1.00 17.66 LIG 0.16  C 
BRANCH 49 50
ATOM     50  C   ARG B   7      73.224 -17.874  42.047  1.00 19.45 LIG 0.22  C 
ATOM     51 O    ARG B   7      73.029 -19.074  41.888  1.00 22.19 LIG-0.29  OA
ENDBRANCH 49 50
BRANCH 49 52
ATOM     52  CB  ARG B   7      74.952 -16.078  42.367  1.00 18.48 LIG 0.04  C 
BRANCH 52 53
ATOM     53  CG  ARG B   7      74.589 -14.895  43.236  1.00 19.62 LIG 0.02  C 
BRANCH 53 54
ATOM     54  CD  ARG B   7      73.114 -14.847  43.554  1.00 19.05 LIG 0.14  C 
BRANCH 54 55
ATOM     55  NE  ARG B   7      72.333 -14.731  42.329  1.00 16.94 LIG-0.23  N 
ATOM     56  CZ  ARG B   7      72.201 -13.620  41.608  1.00 14.04 LIG 0.67  C 
ATOM     57  NH1 ARG B   7      72.783 -12.490  41.978  1.00 13.87 LIG-0.23  N 
ATOM     58  NH2 ARG B   7      71.466 -13.642  40.512  1.00 14.07 LIG-0.23  N 
ATOM     59 2HH1 ARG B   7      72.688 -11.781  41.500  1.00 13.87 LIG 0.17  HD
ATOM     60 1HH1 ARG B   7      73.256 -12.465  42.695  1.00 13.87 LIG 0.17  HD
ATOM     61 1HH2 ARG B   7      71.077 -14.370  40.269  1.00 14.07 LIG 0.17  HD
ATOM     62 2HH2 ARG B   7      71.376 -12.929  40.040  1.00 14.07 LIG 0.17  HD
ATOM     63 HE   ARG B   7      71.925 -15.435  42.051  1.00 16.94 LIG 0.18  HD
ENDBRANCH 54 55
ENDBRANCH 53 54
ENDBRANCH 52 53
ENDBRANCH 49 52
ENDBRANCH 47 49
ENDBRANCH 41 45
ENDBRANCH 4 38
TORSDOF 16
ENDMDL
MODEL 6
USER: ADFR SOLUTION from run 175
USER: SCORE 17.094304 LL:  -4.660 LR: -12.594 RR:   0.000 FEB:  -7.821
USER: RMSD 1.474122
USER: SEED 174
USER: STATUS no improvement in best in 7 clusters for 5 generations
USER: GENES 18
USER: genes 0 Translation |==|  0.48451 0.44357 0.44413
USER: genes 1 Rotation |==|  0.49497 0.50758 0.47745 0.99941
USER: genes 2 Torsion [N]-C--CA-[N] |==|  0.38042
USER: genes 3 Torsion [C]-CA--N-[C] |==|  0.82456
USER: genes 4 Torsion [N]-C--CA-[N] |==|  0.39169
USER: genes 5 Torsion [N]-C--CA-[N] |==|  0.39070
USER: genes 6 Torsion [N]-C--CA-[N] |==|  0.86612
USER: genes 7 Torsion [C]-CA--N-[C] |==|  0.82942
USER: genes 8 Torsion [C]-CA--CB-[CG] |==|  0.32257
USER: genes 9 Torsion [CA]-CB--CG-[CD1] |==|  0.16036
USER: genes 10 Torsion [N]-CA--C-[N] |==|  0.46189
USER: genes 11 Torsion [N]-CA--C-[N] |==|  0.34617
USER: genes 12 Torsion [C]-N--CA-[C] |==|  0.82767
USER: genes 13 Torsion [N]-CA--C-[O] |==|  0.88892
USER: genes 14 Torsion [N]-CA--CB-[CG] |==|  0.77557
USER: genes 15 Torsion [CA]-CB--CG-[CD] |==|  0.42021
USER: genes 16 Torsion [CB]-CG--CD-[NE] |==|  0.51663
USER: genes 17 Torsion [CG]-CD--NE-[HE] |==|  0.29232
ROOT
ATOM      1  C   LEU B   4      78.338 -20.610  48.795  1.00 11.33 LIG 0.24  C 
ATOM      2 O    LEU B   4      79.203 -21.058  48.029  1.00 12.90 LIG-0.27  OA
ATOM      3  N   PRO B   5      77.099 -20.404  48.390  1.00 11.12 LIG-0.34  N 
ATOM      4  CA  PRO B   5      76.714 -20.737  47.042  1.00 12.55 LIG 0.18  C 
ATOM      5  CB  PRO B   5      75.185 -20.805  47.134  1.00 13.89 LIG 0.04  C 
ATOM      6  CG  PRO B   5      74.845 -19.827  48.191  1.00 12.43 LIG 0.02  C 
ATOM      7  CD  PRO B   5      75.979 -19.853  49.167  1.00 11.21 LIG 0.13  C 
ENDROOT
BRANCH 1 8
ATOM      8  CA  LEU B   4      78.672 -20.301  50.249  1.00 11.65 LIG 0.18  C 
BRANCH 8 9
ATOM      9  N   LEU B   4      79.496 -21.363  50.779  1.00 12.22 LIG-0.35  N 
ATOM     10  C   PRO B   3      79.009 -22.590  50.862  1.00 12.52 LIG 0.24  C 
ATOM     11 O    PRO B   3      77.832 -22.863  50.606  1.00 13.02 LIG-0.27  OA
ATOM     12 H    LEU B   4      80.288 -21.129  51.021  1.00 12.22 LIG 0.16  HD
BRANCH 10 13
ATOM     13  CA  PRO B   3      79.991 -23.662  51.304  1.00 15.46 LIG 0.18  C 
ATOM     14  N   PRO B   3      79.331 -24.614  52.200  1.00 15.16 LIG-0.34  N 
ATOM     15  CD  PRO B   3      79.256 -25.962  51.616  1.00 18.06 LIG 0.13  C 
ATOM     16  C   PRO B   2      78.806 -24.182  53.341  1.00 13.99 LIG 0.24  C 
ATOM     17  CG  PRO B   3      79.538 -25.716  50.175  1.00 19.92 LIG 0.02  C 
ATOM     18  CB  PRO B   3      80.441 -24.535  50.128  1.00 18.17 LIG 0.04  C 
ATOM     19 O    PRO B   2      78.940 -23.006  53.702  1.00 12.71 LIG-0.27  OA
BRANCH 16 20
ATOM     20  CA  PRO B   2      77.985 -25.157  54.164  1.00 15.85 LIG 0.18  C 
ATOM     21  CB  PRO B   2      76.488 -24.830  54.040  1.00 19.12 LIG 0.04  C 
ATOM     22  CG  PRO B   2      75.940 -24.808  55.406  1.00 19.63 LIG 0.02  C 
ATOM     23  CD  PRO B   2      77.071 -24.474  56.302  1.00 18.19 LIG 0.13  C 
ATOM     24  N   PRO B   2      78.249 -24.986  55.581  1.00 15.71 LIG-0.34  N 
ATOM     25  C   ALA B   1      79.453 -25.251  56.073  1.00 13.25 LIG 0.24  C 
ATOM     26 O    ALA B   1      80.395 -25.598  55.362  1.00 13.75 LIG-0.27  OA
BRANCH 25 27
ATOM     27  CA  ALA B   1      79.632 -25.070  57.571  1.00 12.47 LIG 0.17  C 
ATOM     28  CB  ALA B   1      78.945 -26.188  58.311  1.00 12.30 LIG 0.04  C 
BRANCH 27 29
ATOM     29  N   ALA B   1      79.098 -23.787  57.988  1.00 12.31 LIG-0.35  N 
ATOM     30 H    ALA B   1      78.451 -23.834  58.553  1.00 12.31 LIG 0.16  HD
ATOM     31  C   ACE B   0      79.593 -22.656  57.516  1.00 14.04 LIG 0.21  C 
ATOM     32  CH3 ACE B   0      78.971 -21.390  58.021  1.00 14.78 LIG 0.12  C 
ATOM     33 O    ACE B   0      80.511 -22.662  56.696  1.00 15.52 LIG-0.27  OA
ENDBRANCH 27 29
ENDBRANCH 25 27
ENDBRANCH 16 20
ENDBRANCH 10 13
ENDBRANCH 8 9
BRANCH 8 34
ATOM     34  CB  LEU B   4      79.372 -18.948  50.342  1.00 12.59 LIG 0.04  C 
BRANCH 34 35
ATOM     35  CG  LEU B   4      78.606 -17.880  51.121  1.00 12.74 LIG-0.02  C 
ATOM     36  CD1 LEU B   4      78.331 -18.373  52.529  1.00 14.33 LIG 0.01  C 
ATOM     37  CD2 LEU B   4      79.349 -16.551  51.165  1.00 11.50 LIG 0.01  C 
ENDBRANCH 34 35
ENDBRANCH 8 34
ENDBRANCH 1 8
BRANCH 4 38
ATOM     38  C   PRO B   5      77.168 -19.656  46.079  1.00 12.26 LIG 0.24  C 
ATOM     39  N   PRO B   6      77.141 -19.937  44.781  1.00 14.33 LIG-0.34  N 
ATOM     40  CD  PRO B   6      76.749 -21.199  44.136  1.00 16.43 LIG 0.13  C 
ATOM     41  CA  PRO B   6      77.511 -18.910  43.805  1.00 15.63 LIG 0.18  C 
ATOM     42  CG  PRO B   6      77.353 -21.083  42.776  1.00 18.90 LIG 0.02  C 
ATOM     43  CB  PRO B   6      77.422 -19.641  42.459  1.00 17.20 LIG 0.04  C 
ATOM     44 O    PRO B   5      77.523 -18.540  46.489  1.00 12.24 LIG-0.27  OA
BRANCH 41 45
ATOM     45  C   PRO B   6      76.547 -17.735  43.837  1.00 14.54 LIG 0.24  C 
ATOM     46 O    PRO B   6      75.334 -17.886  43.673  1.00 15.72 LIG-0.27  OA
ATOM     47  N   ARG B   7      77.107 -16.550  44.034  1.00 15.59 LIG-0.35  N 
ATOM     48 H    ARG B   7      77.949 -16.433  44.165  1.00 15.59 LIG 0.16  HD
BRANCH 47 49
ATOM     49  CA  ARG B   7      76.318 -15.320  44.045  1.00 17.66 LIG 0.16  C 
BRANCH 49 50
ATOM     50  C   ARG B   7      75.626 -15.055  42.711  1.00 19.45 LIG 0.22  C 
ATOM     51 O    ARG B   7      76.205 -15.277  41.654  1.00 22.19 LIG-0.29  OA
ENDBRANCH 49 50
BRANCH 49 52
ATOM     52  CB  ARG B   7      77.204 -14.144  44.439  1.00 18.48 LIG 0.04  C 
BRANCH 52 53
ATOM     53  CG  ARG B   7      77.398 -14.056  45.937  1.00 19.62 LIG 0.02  C 
BRANCH 53 54
ATOM     54  CD  ARG B   7      78.719 -13.425  46.309  1.00 19.05 LIG 0.14  C 
BRANCH 54 55
ATOM     55  NE  ARG B   7      78.926 -13.488  47.750  1.00 16.94 LIG-0.23  N 
ATOM     56  CZ  ARG B   7      78.307 -12.724  48.646  1.00 14.04 LIG 0.67  C 
ATOM     57  NH1 ARG B   7      77.434 -11.801  48.274  1.00 13.87 LIG-0.23  N 
ATOM     58  NH2 ARG B   7      78.579 -12.879  49.929  1.00 14.07 LIG-0.23  N 
ATOM     59 2HH1 ARG B   7      77.043 -11.315  48.866  1.00 13.87 LIG 0.17  HD
ATOM     60 1HH1 ARG B   7      77.258 -11.687  47.440  1.00 13.87 LIG 0.17  HD
ATOM     61 1HH2 ARG B   7      79.152 -13.470  50.179  1.00 14.07 LIG 0.17  HD
ATOM     62 2HH2 ARG B   7      78.184 -12.389  50.515  1.00 14.07 LIG 0.17  HD
ATOM     63 HE   ARG B   7      79.492 -14.065  48.044  1.00 16.94 LIG 0.18  HD
ENDBRANCH 54 55
ENDBRANCH 53 54
ENDBRANCH 52 53
ENDBRANCH 49 52
ENDBRANCH 47 49
ENDBRANCH 41 45
ENDBRANCH 4 38
TORSDOF 16
ENDMDL
MODEL 7
USER: ADFR SOLUTION from run 48
USER: SCORE 16.578739 LL:  -4.746 LR: -12.142 RR:   0.000 FEB:  -7.370
USER: RMSD 4.255030
USER: SEED 47
USER: STATUS no improvement in best in 4 clusters for 5 generations
USER: GENES 18
USER: genes 0 Translation |==|  0.50597 0.44827 0.44563
USER: genes 1 Rotation |==|  0.52923 0.49767 0.48026 0.99875
USER: genes 2 Torsion [N]-C--CA-[N] |==|  0.43579
USER: genes 3 Torsion [C]-CA--N-[C] |==|  0.62228
USER: genes 4 Torsion [N]-C--CA-[N] |==|  0.26846
USER: genes 5 Torsion [N]-C--CA-[N] |==|  0.87245
USER: genes 6 Torsion [N]-C--CA-[N] |==|  0.48129
USER: genes 7 Torsion [C]-CA--N-[C] |==|  0.73889
USER: genes 8 Torsion [C]-CA--CB-[CG] |==|  0.44355
USER: genes 9 Torsion [CA]-CB--CG-[CD1] |==|  0.43954
USER: genes 10 Torsion [N]-CA--C-[N] |==|  0.45761
USER: genes 11 Torsion [N]-CA--C-[N] |==|  0.32603
USER: genes 12 Torsion [C]-N--CA-[C] |==|  0.79045
USER: genes 13 Torsion [N]-CA--C-[O] |==|  0.84819
USER: genes 14 Torsion [N]-CA--CB-[CG] |==|  0.60293
USER: genes 15 Torsion [CA]-CB--CG-[CD] |==|  0.72523
USER: genes 16 Torsion [CB]-CG--CD-[NE] |==|  0.54475
USER: genes 17 Torsion [CG]-CD--NE-[HE] |==|  0.03792
ROOT
ATOM      1  C   LEU B   4      78.660 -20.498  48.836  1.00 11.33 LIG 0.24  C 
ATOM      2 O    LEU B   4      79.564 -20.833  48.057  1.00 12.90 LIG-0.27  OA
ATOM      3  N   PRO B   5      77.438 -20.246  48.405  1.00 11.12 LIG-0.34  N 
ATOM      4  CA  PRO B   5      77.118 -20.396  47.009  1.00 12.55 LIG 0.18  C 
ATOM      5  CB  PRO B   5      75.587 -20.486  47.020  1.00 13.89 LIG 0.04  C 
ATOM      6  CG  PRO B   5      75.188 -19.662  48.182  1.00 12.43 LIG 0.02  C 
ATOM      7  CD  PRO B   5      76.278 -19.813  49.197  1.00 11.21 LIG 0.13  C 
ENDROOT
BRANCH 1 8
ATOM      8  CA  LEU B   4      78.924 -20.385  50.332  1.00 11.65 LIG 0.18  C 
BRANCH 8 9
ATOM      9  N   LEU B   4      80.079 -21.188  50.668  1.00 12.22 LIG-0.35  N 
ATOM     10  C   PRO B   3      80.050 -21.957  51.744  1.00 12.52 LIG 0.24  C 
ATOM     11 O    PRO B   3      79.116 -21.946  52.551  1.00 13.02 LIG-0.27  OA
ATOM     12 H    LEU B   4      80.745 -21.118  50.129  1.00 12.22 LIG 0.16  HD
BRANCH 10 13
ATOM     13  CA  PRO B   3      81.254 -22.863  51.940  1.00 15.46 LIG 0.18  C 
ATOM     14  N   PRO B   3      82.212 -22.240  52.857  1.00 15.16 LIG-0.34  N 
ATOM     15  CD  PRO B   3      82.358 -23.003  54.105  1.00 18.06 LIG 0.13  C 
ATOM     16  C   PRO B   2      82.751 -21.067  52.542  1.00 13.99 LIG 0.24  C 
ATOM     17  CG  PRO B   3      81.169 -23.899  54.089  1.00 19.92 LIG 0.02  C 
ATOM     18  CB  PRO B   3      80.873 -24.163  52.655  1.00 18.17 LIG 0.04  C 
ATOM     19 O    PRO B   2      82.526 -20.533  51.449  1.00 12.71 LIG-0.27  OA
BRANCH 16 20
ATOM     20  CA  PRO B   2      83.605 -20.371  53.584  1.00 15.85 LIG 0.18  C 
ATOM     21  CB  PRO B   2      84.902 -21.161  53.825  1.00 19.12 LIG 0.04  C 
ATOM     22  CG  PRO B   2      85.054 -21.301  55.282  1.00 19.63 LIG 0.02  C 
ATOM     23  CD  PRO B   2      83.690 -21.222  55.852  1.00 18.19 LIG 0.13  C 
ATOM     24  N   PRO B   2      82.955 -20.392  54.882  1.00 15.71 LIG-0.34  N 
ATOM     25  C   ALA B   1      81.815 -19.738  55.068  1.00 13.25 LIG 0.24  C 
ATOM     26 O    ALA B   1      81.241 -19.140  54.160  1.00 13.75 LIG-0.27  OA
BRANCH 25 27
ATOM     27  CA  ALA B   1      81.219 -19.792  56.465  1.00 12.47 LIG 0.17  C 
ATOM     28  CB  ALA B   1      80.820 -21.205  56.800  1.00 12.30 LIG 0.04  C 
BRANCH 27 29
ATOM     29  N   ALA B   1      80.071 -18.910  56.556  1.00 12.31 LIG-0.35  N 
ATOM     30 H    ALA B   1      79.327 -19.261  56.304  1.00 12.31 LIG 0.16  HD
ATOM     31  C   ACE B   0      80.197 -17.670  56.995  1.00 14.04 LIG 0.21  C 
ATOM     32  CH3 ACE B   0      78.945 -16.849  57.054  1.00 14.78 LIG 0.12  C 
ATOM     33 O    ACE B   0      81.297 -17.226  57.325  1.00 15.52 LIG-0.27  OA
ENDBRANCH 27 29
ENDBRANCH 25 27
ENDBRANCH 16 20
ENDBRANCH 10 13
ENDBRANCH 8 9
BRANCH 8 34
ATOM     34  CB  LEU B   4      79.129 -18.921  50.713  1.00 12.59 LIG 0.04  C 
BRANCH 34 35
ATOM     35  CG  LEU B   4      78.920 -18.608  52.193  1.00 12.74 LIG-0.02  C 
ATOM     36  CD1 LEU B   4      79.643 -17.323  52.550  1.00 14.33 LIG 0.01  C 
ATOM     37  CD2 LEU B   4      77.445 -18.500  52.559  1.00 11.50 LIG 0.01  C 
ENDBRANCH 34 35
ENDBRANCH 8 34
ENDBRANCH 1 8
BRANCH 4 38
ATOM     38  C   PRO B   5      77.601 -19.193  46.222  1.00 12.26 LIG 0.24  C 
ATOM     39  N   PRO B   6      77.666 -19.307  44.900  1.00 14.33 LIG-0.34  N 
ATOM     40  CD  PRO B   6      77.353 -20.483  44.076  1.00 16.43 LIG 0.13  C 
ATOM     41  CA  PRO B   6      78.068 -18.156  44.088  1.00 15.63 LIG 0.18  C 
ATOM     42  CG  PRO B   6      78.039 -20.183  42.785  1.00 18.90 LIG 0.02  C 
ATOM     43  CB  PRO B   6      78.086 -18.711  42.658  1.00 17.20 LIG 0.04  C 
ATOM     44 O    PRO B   5      77.896 -18.131  46.791  1.00 12.24 LIG-0.27  OA
BRANCH 41 45
ATOM     45  C   PRO B   6      77.070 -17.015  44.203  1.00 14.54 LIG 0.24  C 
ATOM     46 O    PRO B   6      75.904 -17.130  43.816  1.00 15.72 LIG-0.27  OA
ATOM     47  N   ARG B   7      77.549 -15.896  44.726  1.00 15.59 LIG-0.35  N 
ATOM     48 H    ARG B   7      78.355 -15.806  45.013  1.00 15.59 LIG 0.16  HD
BRANCH 47 49
ATOM     49  CA  ARG B   7      76.725 -14.696  44.860  1.00 17.66 LIG 0.16  C 
BRANCH 49 50
ATOM     50  C   ARG B   7      76.516 -13.977  43.531  1.00 19.45 LIG 0.22  C 
ATOM     51 O    ARG B   7      77.476 -13.636  42.849  1.00 22.19 LIG-0.29  OA
ENDBRANCH 49 50
BRANCH 49 52
ATOM     52  CB  ARG B   7      77.343 -13.760  45.892  1.00 18.48 LIG 0.04  C 
BRANCH 52 53
ATOM     53  CG  ARG B   7      76.293 -13.058  46.724  1.00 19.62 LIG 0.02  C 
BRANCH 53 54
ATOM     54  CD  ARG B   7      76.015 -11.657  46.234  1.00 19.05 LIG 0.14  C 
BRANCH 54 55
ATOM     55  NE  ARG B   7      75.306 -10.892  47.253  1.00 16.94 LIG-0.23  N 
ATOM     56  CZ  ARG B   7      74.694  -9.729  47.048  1.00 14.04 LIG 0.67  C 
ATOM     57  NH1 ARG B   7      74.700  -9.151  45.856  1.00 13.87 LIG-0.23  N 
ATOM     58  NH2 ARG B   7      74.081  -9.132  48.054  1.00 14.07 LIG-0.23  N 
ATOM     59 2HH1 ARG B   7      74.299  -8.399  45.741  1.00 13.87 LIG 0.17  HD
ATOM     60 1HH1 ARG B   7      75.104  -9.528  45.198  1.00 13.87 LIG 0.17  HD
ATOM     61 1HH2 ARG B   7      74.080  -9.496  48.834  1.00 14.07 LIG 0.17  HD
ATOM     62 2HH2 ARG B   7      73.683  -8.381  47.930  1.00 14.07 LIG 0.17  HD
ATOM     63 HE   ARG B   7      75.282 -11.219  48.048  1.00 16.94 LIG 0.18  HD
ENDBRANCH 54 55
ENDBRANCH 53 54
ENDBRANCH 52 53
ENDBRANCH 49 52
ENDBRANCH 47 49
ENDBRANCH 41 45
ENDBRANCH 4 38
TORSDOF 16
ENDMDL
MODEL 8
USER: ADFR SOLUTION from run 147
USER: SCORE 16.091743 LL:  -4.455 LR: -12.115 RR:   0.000 FEB:  -7.342
USER: RMSD 3.089027
USER: SEED 146
USER: STATUS no improvement in best in 3 clusters for 5 generations
USER: GENES 18
USER: genes 0 Translation |==|  0.47932 0.42118 0.45623
USER: genes 1 Rotation |==|  0.48818 0.51151 0.46198 0.99828
USER: genes 2 Torsion [N]-C--CA-[N] |==|  0.39312
USER: genes 3 Torsion [C]-CA--N-[C] |==|  0.81736
USER: genes 4 Torsion [N]-C--CA-[N] |==|  0.35812
USER: genes 5 Torsion [N]-C--CA-[N] |==|  0.88656
USER: genes 6 Torsion [N]-C--CA-[N] |==|  0.85710
USER: genes 7 Torsion [C]-CA--N-[C] |==|  0.70000
USER: genes 8 Torsion [C]-CA--CB-[CG] |==|  0.28990
USER: genes 9 Torsion [CA]-CB--CG-[CD1] |==|  0.08391
USER: genes 10 Torsion [N]-CA--C-[N] |==|  0.44855
USER: genes 11 Torsion [N]-CA--C-[N] |==|  0.38299
USER: genes 12 Torsion [C]-N--CA-[C] |==|  0.79402
USER: genes 13 Torsion [N]-CA--C-[O] |==|  0.95825
USER: genes 14 Torsion [N]-CA--CB-[CG] |==|  0.78132
USER: genes 15 Torsion [CA]-CB--CG-[CD] |==|  0.53562
USER: genes 16 Torsion [CB]-CG--CD-[NE] |==|  0.53143
USER: genes 17 Torsion [CG]-CD--NE-[HE] |==|  0.20239
ROOT
ATOM      1  C   LEU B   4      78.260 -21.148  49.122  1.00 11.33 LIG 0.24  C 
ATOM      2 O    LEU B   4      79.082 -21.669  48.356  1.00 12.90 LIG-0.27  OA
ATOM      3  N   PRO B   5      77.029 -20.876  48.730  1.00 11.12 LIG-0.34  N 
ATOM      4  CA  PRO B   5      76.602 -21.220  47.399  1.00 12.55 LIG 0.18  C 
ATOM      5  CB  PRO B   5      75.073 -21.191  47.516  1.00 13.89 LIG 0.04  C 
ATOM      6  CG  PRO B   5      74.812 -20.166  48.551  1.00 12.43 LIG 0.02  C 
ATOM      7  CD  PRO B   5      75.959 -20.236  49.509  1.00 11.21 LIG 0.13  C 
ENDROOT
BRANCH 1 8
ATOM      8  CA  LEU B   4      78.637 -20.821  50.562  1.00 11.65 LIG 0.18  C 
BRANCH 8 9
ATOM      9  N   LEU B   4      79.494 -21.866  51.073  1.00 12.22 LIG-0.35  N 
ATOM     10  C   PRO B   3      79.011 -23.088  51.230  1.00 12.52 LIG 0.24  C 
ATOM     11 O    PRO B   3      77.820 -23.366  51.063  1.00 13.02 LIG-0.27  OA
ATOM     12 H    LEU B   4      80.300 -21.627  51.254  1.00 12.22 LIG 0.16  HD
BRANCH 10 13
ATOM     13  CA  PRO B   3      80.020 -24.148  51.644  1.00 15.46 LIG 0.18  C 
ATOM     14  N   PRO B   3      79.529 -24.884  52.812  1.00 15.16 LIG-0.34  N 
ATOM     15  CD  PRO B   3      79.272 -26.299  52.505  1.00 18.06 LIG 0.13  C 
ATOM     16  C   PRO B   2      79.282 -24.229  53.941  1.00 13.99 LIG 0.24  C 
ATOM     17  CG  PRO B   3      79.245 -26.316  51.016  1.00 19.92 LIG 0.02  C 
ATOM     18  CB  PRO B   3      80.167 -25.235  50.575  1.00 18.17 LIG 0.04  C 
ATOM     19 O    PRO B   2      79.541 -23.025  54.052  1.00 12.71 LIG-0.27  OA
BRANCH 16 20
ATOM     20  CA  PRO B   2      78.618 -24.987  55.075  1.00 15.85 LIG 0.18  C 
ATOM     21  CB  PRO B   2      79.614 -25.967  55.717  1.00 19.12 LIG 0.04  C 
ATOM     22  CG  PRO B   2      78.932 -27.268  55.817  1.00 19.63 LIG 0.02  C 
ATOM     23  CD  PRO B   2      77.905 -27.281  54.750  1.00 18.19 LIG 0.13  C 
ATOM     24  N   PRO B   2      77.571 -25.858  54.570  1.00 15.71 LIG-0.34  N 
ATOM     25  C   ALA B   1      76.491 -25.340  53.998  1.00 13.25 LIG 0.24  C 
ATOM     26 O    ALA B   1      76.351 -24.131  53.824  1.00 13.75 LIG-0.27  OA
BRANCH 25 27
ATOM     27  CA  ALA B   1      75.435 -26.324  53.523  1.00 12.47 LIG 0.17  C 
ATOM     28  CB  ALA B   1      74.745 -26.950  54.707  1.00 12.30 LIG 0.04  C 
BRANCH 27 29
ATOM     29  N   ALA B   1      76.040 -27.349  52.693  1.00 12.31 LIG-0.35  N 
ATOM     30 H    ALA B   1      76.525 -27.917  53.120  1.00 12.31 LIG 0.16  HD
ATOM     31  C   ACE B   0      75.840 -27.375  51.387  1.00 14.04 LIG 0.21  C 
ATOM     32  CH3 ACE B   0      76.507 -28.481  50.629  1.00 14.78 LIG 0.12  C 
ATOM     33 O    ACE B   0      75.146 -26.519  50.838  1.00 15.52 LIG-0.27  OA
ENDBRANCH 27 29
ENDBRANCH 25 27
ENDBRANCH 16 20
ENDBRANCH 10 13
ENDBRANCH 8 9
BRANCH 8 34
ATOM     34  CB  LEU B   4      79.321 -19.457  50.620  1.00 12.59 LIG 0.04  C 
BRANCH 34 35
ATOM     35  CG  LEU B   4      78.452 -18.326  51.163  1.00 12.74 LIG-0.02  C 
ATOM     36  CD1 LEU B   4      77.455 -18.881  52.163  1.00 14.33 LIG 0.01  C 
ATOM     37  CD2 LEU B   4      79.278 -17.218  51.806  1.00 11.50 LIG 0.01  C 
ENDBRANCH 34 35
ENDBRANCH 8 34
ENDBRANCH 1 8
BRANCH 4 38
ATOM     38  C   PRO B   5      77.104 -20.197  46.399  1.00 12.26 LIG 0.24  C 
ATOM     39  N   PRO B   6      77.129 -20.547  45.118  1.00 14.33 LIG-0.34  N 
ATOM     40  CD  PRO B   6      76.754 -21.839  44.525  1.00 16.43 LIG 0.13  C 
ATOM     41  CA  PRO B   6      77.548 -19.577  44.104  1.00 15.63 LIG 0.18  C 
ATOM     42  CG  PRO B   6      77.414 -21.801  43.188  1.00 18.90 LIG 0.02  C 
ATOM     43  CB  PRO B   6      77.508 -20.378  42.797  1.00 17.20 LIG 0.04  C 
ATOM     44 O    PRO B   5      77.451 -19.062  46.762  1.00 12.24 LIG-0.27  OA
BRANCH 41 45
ATOM     45  C   PRO B   6      76.594 -18.395  44.033  1.00 14.54 LIG 0.24  C 
ATOM     46 O    PRO B   6      75.371 -18.546  44.068  1.00 15.72 LIG-0.27  OA
ATOM     47  N   ARG B   7      77.172 -17.209  43.913  1.00 15.59 LIG-0.35  N 
ATOM     48 H    ARG B   7      78.024 -17.088  43.903  1.00 15.59 LIG 0.16  HD
BRANCH 47 49
ATOM     49  CA  ARG B   7      76.387 -15.982  43.787  1.00 17.66 LIG 0.16  C 
BRANCH 49 50
ATOM     50  C   ARG B   7      75.750 -15.832  42.409  1.00 19.45 LIG 0.22  C 
ATOM     51 O    ARG B   7      76.128 -16.523  41.469  1.00 22.19 LIG-0.29  OA
ENDBRANCH 49 50
BRANCH 49 52
ATOM     52  CB  ARG B   7      77.262 -14.776  44.115  1.00 18.48 LIG 0.04  C 
BRANCH 52 53
ATOM     53  CG  ARG B   7      77.437 -14.590  45.606  1.00 19.62 LIG 0.02  C 
BRANCH 53 54
ATOM     54  CD  ARG B   7      78.030 -13.245  45.950  1.00 19.05 LIG 0.14  C 
BRANCH 54 55
ATOM     55  NE  ARG B   7      78.427 -13.208  47.352  1.00 16.94 LIG-0.23  N 
ATOM     56  CZ  ARG B   7      77.793 -12.536  48.309  1.00 14.04 LIG 0.67  C 
ATOM     57  NH1 ARG B   7      76.719 -11.810  48.041  1.00 13.87 LIG-0.23  N 
ATOM     58  NH2 ARG B   7      78.251 -12.583  49.547  1.00 14.07 LIG-0.23  N 
ATOM     59 2HH1 ARG B   7      76.321 -11.381  48.672  1.00 13.87 LIG 0.17  HD
ATOM     60 1HH1 ARG B   7      76.420 -11.766  47.236  1.00 13.87 LIG 0.17  HD
ATOM     61 1HH2 ARG B   7      78.954 -13.045  49.729  1.00 14.07 LIG 0.17  HD
ATOM     62 2HH2 ARG B   7      77.847 -12.152  50.172  1.00 14.07 LIG 0.17  HD
ATOM     63 HE   ARG B   7      79.127 -13.655  47.578  1.00 16.94 LIG 0.18  HD
ENDBRANCH 54 55
ENDBRANCH 53 54
ENDBRANCH 52 53
ENDBRANCH 49 52
ENDBRANCH 47 49
ENDBRANCH 41 45
ENDBRANCH 4 38
TORSDOF 16
ENDMDL
MODEL 9
USER: ADFR SOLUTION from run 6
USER: SCORE 16.364405 LL:  -4.397 LR: -11.986 RR:   0.000 FEB:  -7.214
USER: RMSD 3.719513
USER: SEED 178255
USER: STATUS no improvement in best in 6 clusters for 5 generations
USER: GENES 18
USER: genes 0 Translation |==|  0.45486 0.44336 0.45948
USER: genes 1 Rotation |==|  0.45005 0.47521 0.50099 0.99688
USER: genes 2 Torsion [N]-C--CA-[N] |==|  0.38623
USER: genes 3 Torsion [C]-CA--N-[C] |==|  0.83576
USER: genes 4 Torsion [N]-C--CA-[N] |==|  0.53808
USER: genes 5 Torsion [N]-C--CA-[N] |==|  0.48250
USER: genes 6 Torsion [N]-C--CA-[N] |==|  0.40798
USER: genes 7 Torsion [C]-CA--N-[C] |==|  0.79454
USER: genes 8 Torsion [C]-CA--CB-[CG] |==|  0.53541
USER: genes 9 Torsion [CA]-CB--CG-[CD1] |==|  0.51695
USER: genes 10 Torsion [N]-CA--C-[N] |==|  0.48037
USER: genes 11 Torsion [N]-CA--C-[N] |==|  0.75443
USER: genes 12 Torsion [C]-N--CA-[C] |==|  0.49173
USER: genes 13 Torsion [N]-CA--C-[O] |==|  0.12445
USER: genes 14 Torsion [N]-CA--CB-[CG] |==|  0.66612
USER: genes 15 Torsion [CA]-CB--CG-[CD] |==|  0.87417
USER: genes 16 Torsion [CB]-CG--CD-[NE] |==|  0.79418
USER: genes 17 Torsion [CG]-CD--NE-[HE] |==|  0.27212
ROOT
ATOM      1  C   LEU B   4      77.893 -20.615  49.210  1.00 11.33 LIG 0.24  C 
ATOM      2 O    LEU B   4      78.884 -21.096  48.642  1.00 12.90 LIG-0.27  OA
ATOM      3  N   PRO B   5      76.703 -20.619  48.639  1.00 11.12 LIG-0.34  N 
ATOM      4  CA  PRO B   5      76.525 -21.224  47.344  1.00 12.55 LIG 0.18  C 
ATOM      5  CB  PRO B   5      75.008 -21.440  47.278  1.00 13.89 LIG 0.04  C 
ATOM      6  CG  PRO B   5      74.452 -20.333  48.088  1.00 12.43 LIG 0.02  C 
ATOM      7  CD  PRO B   5      75.450 -20.064  49.170  1.00 11.21 LIG 0.13  C 
ENDROOT
BRANCH 1 8
ATOM      8  CA  LEU B   4      78.010 -20.019  50.607  1.00 11.65 LIG 0.18  C 
BRANCH 8 9
ATOM      9  N   LEU B   4      78.888 -20.849  51.401  1.00 12.22 LIG-0.35  N 
ATOM     10  C   PRO B   3      78.586 -22.123  51.593  1.00 12.52 LIG 0.24  C 
ATOM     11 O    PRO B   3      77.523 -22.625  51.216  1.00 13.02 LIG-0.27  OA
ATOM     12 H    LEU B   4      79.583 -20.454  51.716  1.00 12.22 LIG 0.16  HD
BRANCH 10 13
ATOM     13  CA  PRO B   3      79.634 -22.946  52.326  1.00 15.46 LIG 0.18  C 
ATOM     14  N   PRO B   3      79.339 -24.374  52.190  1.00 15.16 LIG-0.34  N 
ATOM     15  CD  PRO B   3      80.378 -25.083  51.427  1.00 18.06 LIG 0.13  C 
ATOM     16  C   PRO B   2      78.189 -24.852  52.651  1.00 13.99 LIG 0.24  C 
ATOM     17  CG  PRO B   3      81.117 -23.974  50.763  1.00 19.92 LIG 0.02  C 
ATOM     18  CB  PRO B   3      81.015 -22.806  51.678  1.00 18.17 LIG 0.04  C 
ATOM     19 O    PRO B   2      77.399 -24.129  53.271  1.00 12.71 LIG-0.27  OA
BRANCH 16 20
ATOM     20  CA  PRO B   2      77.842 -26.296  52.347  1.00 15.85 LIG 0.18  C 
ATOM     21  CB  PRO B   2      77.464 -26.453  50.865  1.00 19.12 LIG 0.04  C 
ATOM     22  CG  PRO B   2      76.206 -27.216  50.821  1.00 19.63 LIG 0.02  C 
ATOM     23  CD  PRO B   2      75.524 -26.967  52.112  1.00 18.19 LIG 0.13  C 
ATOM     24  N   PRO B   2      76.632 -26.695  53.044  1.00 15.71 LIG-0.34  N 
ATOM     25  C   ALA B   1      76.612 -26.745  54.370  1.00 13.25 LIG 0.24  C 
ATOM     26 O    ALA B   1      77.576 -26.415  55.059  1.00 13.75 LIG-0.27  OA
BRANCH 25 27
ATOM     27  CA  ALA B   1      75.312 -27.198  55.015  1.00 12.47 LIG 0.17  C 
ATOM     28  CB  ALA B   1      74.439 -26.006  55.306  1.00 12.30 LIG 0.04  C 
BRANCH 27 29
ATOM     29  N   ALA B   1      75.587 -27.931  56.236  1.00 12.31 LIG-0.35  N 
ATOM     30 H    ALA B   1      75.414 -27.500  56.961  1.00 12.31 LIG 0.16  HD
ATOM     31  C   ACE B   0      76.065 -29.163  56.200  1.00 14.04 LIG 0.21  C 
ATOM     32  CH3 ACE B   0      76.305 -29.828  57.521  1.00 14.78 LIG 0.12  C 
ATOM     33 O    ACE B   0      76.305 -29.715  55.127  1.00 15.52 LIG-0.27  OA
ENDBRANCH 27 29
ENDBRANCH 25 27
ENDBRANCH 16 20
ENDBRANCH 10 13
ENDBRANCH 8 9
BRANCH 8 34
ATOM     34  CB  LEU B   4      78.525 -18.585  50.516  1.00 12.59 LIG 0.04  C 
BRANCH 34 35
ATOM     35  CG  LEU B   4      78.976 -17.980  51.844  1.00 12.74 LIG-0.02  C 
ATOM     36  CD1 LEU B   4      79.320 -16.516  51.648  1.00 14.33 LIG 0.01  C 
ATOM     37  CD2 LEU B   4      77.923 -18.131  52.936  1.00 11.50 LIG 0.01  C 
ENDBRANCH 34 35
ENDBRANCH 8 34
ENDBRANCH 1 8
BRANCH 4 38
ATOM     38  C   PRO B   5      77.004 -20.289  46.251  1.00 12.26 LIG 0.24  C 
ATOM     39  N   PRO B   6      77.039 -20.759  45.009  1.00 14.33 LIG-0.34  N 
ATOM     40  CD  PRO B   6      76.695 -22.110  44.543  1.00 16.43 LIG 0.13  C 
ATOM     41  CA  PRO B   6      77.435 -19.880  43.907  1.00 15.63 LIG 0.18  C 
ATOM     42  CG  PRO B   6      77.357 -22.184  43.207  1.00 18.90 LIG 0.02  C 
ATOM     43  CB  PRO B   6      77.417 -20.803  42.682  1.00 17.20 LIG 0.04  C 
ATOM     44 O    PRO B   5      77.322 -19.116  46.504  1.00 12.24 LIG-0.27  OA
BRANCH 41 45
ATOM     45  C   PRO B   6      76.453 -18.734  43.724  1.00 14.54 LIG 0.24  C 
ATOM     46 O    PRO B   6      76.600 -17.656  44.304  1.00 15.72 LIG-0.27  OA
ATOM     47  N   ARG B   7      75.432 -18.988  42.918  1.00 15.59 LIG-0.35  N 
ATOM     48 H    ARG B   7      75.326 -19.730  42.496  1.00 15.59 LIG 0.16  HD
BRANCH 47 49
ATOM     49  CA  ARG B   7      74.380 -18.002  42.679  1.00 17.66 LIG 0.16  C 
BRANCH 49 50
ATOM     50  C   ARG B   7      73.347 -18.481  41.664  1.00 19.45 LIG 0.22  C 
ATOM     51 O    ARG B   7      72.894 -19.619  41.725  1.00 22.19 LIG-0.29  OA
ENDBRANCH 49 50
BRANCH 49 52
ATOM     52  CB  ARG B   7      75.004 -16.682  42.236  1.00 18.48 LIG 0.04  C 
BRANCH 52 53
ATOM     53  CG  ARG B   7      74.663 -15.549  43.178  1.00 19.62 LIG 0.02  C 
BRANCH 53 54
ATOM     54  CD  ARG B   7      73.201 -15.535  43.554  1.00 19.05 LIG 0.14  C 
BRANCH 54 55
ATOM     55  NE  ARG B   7      72.393 -15.055  42.440  1.00 16.94 LIG-0.23  N 
ATOM     56  CZ  ARG B   7      72.197 -13.775  42.133  1.00 14.04 LIG 0.67  C 
ATOM     57  NH1 ARG B   7      72.731 -12.806  42.859  1.00 13.87 LIG-0.23  N 
ATOM     58  NH2 ARG B   7      71.444 -13.466  41.093  1.00 14.07 LIG-0.23  N 
ATOM     59 2HH1 ARG B   7      72.594 -11.984  42.647  1.00 13.87 LIG 0.17  HD
ATOM     60 1HH1 ARG B   7      73.215 -12.999  43.543  1.00 13.87 LIG 0.17  HD
ATOM     61 1HH2 ARG B   7      71.085 -14.089  40.621  1.00 14.07 LIG 0.17  HD
ATOM     62 2HH2 ARG B   7      71.312 -12.642  40.888  1.00 14.07 LIG 0.17  HD
ATOM     63 HE   ARG B   7      72.015 -15.645  41.941  1.00 16.94 LIG 0.18  HD
ENDBRANCH 54 55
ENDBRANCH 53 54
ENDBRANCH 52 53
ENDBRANCH 49 52
ENDBRANCH 47 49
ENDBRANCH 41 45
ENDBRANCH 4 38
TORSDOF 16
ENDMDL
MODEL 10
USER: ADFR SOLUTION from run 154
USER: SCORE 16.146337 LL:  -4.659 LR: -11.827 RR:   0.000 FEB:  -7.054
USER: RMSD 2.460452
USER: SEED 153
USER: STATUS no improvement in best in 4 clusters for 5 generations
USER: GENES 18
USER: genes 0 Translation |==|  0.48836 0.43214 0.45089
USER: genes 1 Rotation |==|  0.54157 0.48811 0.45723 0.99629
USER: genes 2 Torsion [N]-C--CA-[N] |==|  0.38726
USER: genes 3 Torsion [C]-CA--N-[C] |==|  0.71002
USER: genes 4 Torsion [N]-C--CA-[N] |==|  0.37602
USER: genes 5 Torsion [N]-C--CA-[N] |==|  0.43628
USER: genes 6 Torsion [N]-C--CA-[N] |==|  0.85465
USER: genes 7 Torsion [C]-CA--N-[C] |==|  0.82040
USER: genes 8 Torsion [C]-CA--CB-[CG] |==|  0.38573
USER: genes 9 Torsion [CA]-CB--CG-[CD1] |==|  0.39365
USER: genes 10 Torsion [N]-CA--C-[N] |==|  0.44317
USER: genes 11 Torsion [N]-CA--C-[N] |==|  0.33020
USER: genes 12 Torsion [C]-N--CA-[C] |==|  0.79770
USER: genes 13 Torsion [N]-CA--C-[O] |==|  0.90265
USER: genes 14 Torsion [N]-CA--CB-[CG] |==|  0.60497
USER: genes 15 Torsion [CA]-CB--CG-[CD] |==|  0.72907
USER: genes 16 Torsion [CB]-CG--CD-[NE] |==|  0.53987
USER: genes 17 Torsion [CG]-CD--NE-[HE] |==|  0.04327
ROOT
ATOM      1  C   LEU B   4      78.395 -20.885  48.978  1.00 11.33 LIG 0.24  C 
ATOM      2 O    LEU B   4      79.292 -21.267  48.213  1.00 12.90 LIG-0.27  OA
ATOM      3  N   PRO B   5      77.219 -20.498  48.521  1.00 11.12 LIG-0.34  N 
ATOM      4  CA  PRO B   5      76.939 -20.552  47.109  1.00 12.55 LIG 0.18  C 
ATOM      5  CB  PRO B   5      75.407 -20.496  47.067  1.00 13.89 LIG 0.04  C 
ATOM      6  CG  PRO B   5      75.043 -19.694  48.255  1.00 12.43 LIG 0.02  C 
ATOM      7  CD  PRO B   5      76.076 -19.994  49.296  1.00 11.21 LIG 0.13  C 
ENDROOT
BRANCH 1 8
ATOM      8  CA  LEU B   4      78.614 -20.868  50.486  1.00 11.65 LIG 0.18  C 
BRANCH 8 9
ATOM      9  N   LEU B   4      79.354 -22.050  50.867  1.00 12.22 LIG-0.35  N 
ATOM     10  C   PRO B   3      78.725 -23.053  51.458  1.00 12.52 LIG 0.24  C 
ATOM     11 O    PRO B   3      77.542 -22.992  51.804  1.00 13.02 LIG-0.27  OA
ATOM     12 H    LEU B   4      80.193 -22.035  50.682  1.00 12.22 LIG 0.16  HD
BRANCH 10 13
ATOM     13  CA  PRO B   3      79.556 -24.303  51.698  1.00 15.46 LIG 0.18  C 
ATOM     14  N   PRO B   3      79.323 -24.812  53.052  1.00 15.16 LIG-0.34  N 
ATOM     15  CD  PRO B   3      78.678 -26.133  53.042  1.00 18.06 LIG 0.13  C 
ATOM     16  C   PRO B   2      79.606 -24.043  54.097  1.00 13.99 LIG 0.24  C 
ATOM     17  CG  PRO B   3      78.166 -26.242  51.648  1.00 19.92 LIG 0.02  C 
ATOM     18  CB  PRO B   3      79.107 -25.461  50.801  1.00 18.17 LIG 0.04  C 
ATOM     19 O    PRO B   2      80.144 -22.938  53.952  1.00 12.71 LIG-0.27  OA
BRANCH 16 20
ATOM     20  CA  PRO B   2      79.198 -24.531  55.474  1.00 15.85 LIG 0.18  C 
ATOM     21  CB  PRO B   2      77.773 -24.059  55.807  1.00 19.12 LIG 0.04  C 
ATOM     22  CG  PRO B   2      77.820 -23.473  57.156  1.00 19.63 LIG 0.02  C 
ATOM     23  CD  PRO B   2      79.211 -23.007  57.358  1.00 18.19 LIG 0.13  C 
ATOM     24  N   PRO B   2      80.007 -23.905  56.505  1.00 15.71 LIG-0.34  N 
ATOM     25  C   ALA B   1      81.310 -24.148  56.569  1.00 13.25 LIG 0.24  C 
ATOM     26 O    ALA B   1      81.892 -24.856  55.749  1.00 13.75 LIG-0.27  OA
BRANCH 25 27
ATOM     27  CA  ALA B   1      82.073 -23.471  57.695  1.00 12.47 LIG 0.17  C 
ATOM     28  CB  ALA B   1      81.681 -24.074  59.019  1.00 12.30 LIG 0.04  C 
BRANCH 27 29
ATOM     29  N   ALA B   1      81.810 -22.044  57.694  1.00 12.31 LIG-0.35  N 
ATOM     30 H    ALA B   1      81.397 -21.755  58.391  1.00 12.31 LIG 0.16  HD
ATOM     31  C   ACE B   0      82.190 -21.282  56.684  1.00 14.04 LIG 0.21  C 
ATOM     32  CH3 ACE B   0      81.874 -19.821  56.790  1.00 14.78 LIG 0.12  C 
ATOM     33 O    ACE B   0      82.765 -21.766  55.708  1.00 15.52 LIG-0.27  OA
ENDBRANCH 27 29
ENDBRANCH 25 27
ENDBRANCH 16 20
ENDBRANCH 10 13
ENDBRANCH 8 9
BRANCH 8 34
ATOM     34  CB  LEU B   4      79.349 -19.592  50.888  1.00 12.59 LIG 0.04  C 
BRANCH 34 35
ATOM     35  CG  LEU B   4      78.837 -18.933  52.167  1.00 12.74 LIG-0.02  C 
ATOM     36  CD1 LEU B   4      80.006 -18.383  52.963  1.00 14.33 LIG 0.01  C 
ATOM     37  CD2 LEU B   4      77.827 -17.828  51.885  1.00 11.50 LIG 0.01  C 
ENDBRANCH 34 35
ENDBRANCH 8 34
ENDBRANCH 1 8
BRANCH 4 38
ATOM     38  C   PRO B   5      77.561 -19.364  46.400  1.00 12.26 LIG 0.24  C 
ATOM     39  N   PRO B   6      77.760 -19.464  45.090  1.00 14.33 LIG-0.34  N 
ATOM     40  CD  PRO B   6      77.481 -20.612  44.217  1.00 16.43 LIG 0.13  C 
ATOM     41  CA  PRO B   6      78.302 -18.324  44.347  1.00 15.63 LIG 0.18  C 
ATOM     42  CG  PRO B   6      78.314 -20.330  43.012  1.00 18.90 LIG 0.02  C 
ATOM     43  CB  PRO B   6      78.445 -18.861  42.917  1.00 17.20 LIG 0.04  C 
ATOM     44 O    PRO B   5      77.845 -18.325  47.017  1.00 12.24 LIG-0.27  OA
BRANCH 41 45
ATOM     45  C   PRO B   6      77.354 -17.136  44.376  1.00 14.54 LIG 0.24  C 
ATOM     46 O    PRO B   6      76.222 -17.196  43.890  1.00 15.72 LIG-0.27  OA
ATOM     47  N   ARG B   7      77.840 -16.040  44.940  1.00 15.59 LIG-0.35  N 
ATOM     48 H    ARG B   7      78.622 -15.988  45.296  1.00 15.59 LIG 0.16  HD
BRANCH 47 49
ATOM     49  CA  ARG B   7      77.066 -14.801  45.003  1.00 17.66 LIG 0.16  C 
BRANCH 49 50
ATOM     50  C   ARG B   7      76.954 -14.110  43.648  1.00 19.45 LIG 0.22  C 
ATOM     51 O    ARG B   7      77.884 -14.146  42.850  1.00 22.19 LIG-0.29  OA
ENDBRANCH 49 50
BRANCH 49 52
ATOM     52  CB  ARG B   7      77.677 -13.866  46.041  1.00 18.48 LIG 0.04  C 
BRANCH 52 53
ATOM     53  CG  ARG B   7      76.620 -13.108  46.815  1.00 19.62 LIG 0.02  C 
BRANCH 53 54
ATOM     54  CD  ARG B   7      76.391 -11.721  46.265  1.00 19.05 LIG 0.14  C 
BRANCH 54 55
ATOM     55  NE  ARG B   7      75.636 -10.915  47.216  1.00 16.94 LIG-0.23  N 
ATOM     56  CZ  ARG B   7      75.022  -9.769  46.930  1.00 14.04 LIG 0.67  C 
ATOM     57  NH1 ARG B   7      75.070  -9.251  45.713  1.00 13.87 LIG-0.23  N 
ATOM     58  NH2 ARG B   7      74.365  -9.131  47.881  1.00 14.07 LIG-0.23  N 
ATOM     59 2HH1 ARG B   7      74.668  -8.509  45.545  1.00 13.87 LIG 0.17  HD
ATOM     60 1HH1 ARG B   7      75.503  -9.656  45.090  1.00 13.87 LIG 0.17  HD
ATOM     61 1HH2 ARG B   7      74.337  -9.455  48.677  1.00 14.07 LIG 0.17  HD
ATOM     62 2HH2 ARG B   7      73.966  -8.390  47.705  1.00 14.07 LIG 0.17  HD
ATOM     63 HE   ARG B   7      75.583 -11.202  48.025  1.00 16.94 LIG 0.18  HD
ENDBRANCH 54 55
ENDBRANCH 53 54
ENDBRANCH 52 53
ENDBRANCH 49 52
ENDBRANCH 47 49
ENDBRANCH 41 45
ENDBRANCH 4 38
TORSDOF 16
ENDMDL
