MODEL 1
USER: ADFR SOLUTION from run 106
USER: SCORE 14.366961 LL:  -3.235 LR: -12.153 RR:   0.000 FEB:  -6.783
USER: RMSD 4.200070
USER: SEED 105
USER: STATUS 1 or 2 clusters left
USER: GENES 20
USER: genes 0 Translation |==|  0.46326 0.55563 0.60373
USER: genes 1 Rotation |==|  0.45767 0.57230 0.45581 0.99095
USER: genes 2 Torsion [N]-C--CA-[N] |==|  0.36707
USER: genes 3 Torsion [C]-CA--CB-[CG] |==|  0.60201
USER: genes 4 Torsion [CA]-CB--CG-[CD1] |==|  0.34292
USER: genes 5 Torsion [C]-CA--N-[C] |==|  0.65607
USER: genes 6 Torsion [N]-C--CA-[CB] |==|  0.76104
USER: genes 7 Torsion [N]-C--CA-[N] |==|  0.79290
USER: genes 8 Torsion [C]-CA--CB-[CG] |==|  0.23459
USER: genes 9 Torsion [CA]-CB--CG-[CD1] |==|  0.15332
USER: genes 10 Torsion [C]-N--CA-[CB] |==|  0.54187
USER: genes 11 Torsion [N]-CA--CB-[CG] |==|  0.88962
USER: genes 12 Torsion [CA]-CB--CG-[OD1] |==|  0.19248
USER: genes 13 Torsion [N]-CA--C-[N] |==|  0.31019
USER: genes 14 Torsion [C]-N--CA-[C] |==|  0.78555
USER: genes 15 Torsion [N]-CA--CB-[CG] |==|  0.66177
USER: genes 16 Torsion [CA]-CB--CG-[CD1] |==|  0.59996
USER: genes 17 Torsion [N]-CA--C-[N] |==|  0.21611
USER: genes 18 Torsion [C]-N--CA-[CB] |==|  0.40844
USER: genes 19 Torsion [N]-CA--C-[OXT] |==|  0.16622
ROOT
ATOM      1  C   LEU B 341      28.074   5.435 -42.441  1.00 14.43 LIG 0.24  C 
ATOM      2 O    LEU B 341      27.132   4.960 -41.808  1.00 17.21 LIG-0.27  OA
ATOM      3  N   ASP B 342      29.089   4.706 -42.878  1.00 15.70 LIG-0.35  N 
ATOM      4 H    ASP B 342      29.704   4.996 -43.405  1.00 15.70 LIG 0.16  HD
ENDROOT
BRANCH 1 5
ATOM      5  CA  LEU B 341      28.160   6.925 -42.769  1.00 14.64 LIG 0.18  C 
BRANCH 5 6
ATOM      6  CB  LEU B 341      28.448   7.698 -41.480  1.00 15.72 LIG 0.04  C 
BRANCH 6 7
ATOM      7  CG  LEU B 341      27.743   9.040 -41.401  1.00 16.60 LIG-0.02  C 
ATOM      8  CD1 LEU B 341      26.900   9.086 -40.147  1.00 17.44 LIG 0.01  C 
ATOM      9  CD2 LEU B 341      28.731  10.204 -41.469  1.00 18.85 LIG 0.01  C 
ENDBRANCH 6 7
ENDBRANCH 5 6
BRANCH 5 10
ATOM     10  N   LEU B 341      26.920   7.455 -43.328  1.00 16.77 LIG-0.35  N 
ATOM     11  C   PRO B 340      26.913   8.066 -44.507  1.00 19.25 LIG 0.24  C 
ATOM     12 O    PRO B 340      27.895   8.153 -45.252  1.00 21.28 LIG-0.27  OA
ATOM     13 H    LEU B 341      26.224   7.336 -42.839  1.00 16.77 LIG 0.16  HD
BRANCH 11 14
ATOM     14  CA  PRO B 340      25.566   8.611 -44.927  1.00 21.04 LIG 0.18  C 
ATOM     15  N   PRO B 340      25.633   9.665 -45.966  1.00 20.95 LIG-0.34  N 
ATOM     16  CD  PRO B 340      24.792   9.343 -47.132  1.00 22.76 LIG 0.13  C 
ATOM     17  C   PHE B 339      26.253  10.812 -45.697  1.00 19.72 LIG 0.26  C 
ATOM     18  CG  PRO B 340      23.956   8.203 -46.591  1.00 24.91 LIG 0.02  C 
ATOM     19  CB  PRO B 340      24.803   7.497 -45.618  1.00 23.27 LIG 0.04  C 
ATOM     20 O    PHE B 339      26.866  10.973 -44.632  1.00 19.38 LIG-0.27  OA
BRANCH 17 21
ATOM     21  CA  PHE B 339      26.170  11.923 -46.743  1.00 21.94 LIG 0.40  C 
ATOM     22  N   PHE B 339      27.026  11.644 -47.886  1.00 23.90 LIG 0.61  N 
BRANCH 21 23
ATOM     23  CB  PHE B 339      24.733  12.093 -47.216  1.00 24.29 LIG 0.09  C 
BRANCH 23 24
ATOM     24  CG  PHE B 339      23.899  12.978 -46.335  1.00 28.97 LIG-0.06  A 
ATOM     25  CD1 PHE B 339      24.309  14.277 -46.039  1.00 31.92 LIG 0.01  A 
ATOM     26  CE1 PHE B 339      23.540  15.100 -45.226  1.00 33.96 LIG 0.00  A 
ATOM     27  CZ  PHE B 339      22.335  14.629 -44.713  1.00 35.90 LIG 0.00  A 
ATOM     28  CE2 PHE B 339      21.909  13.332 -45.009  1.00 35.56 LIG 0.00  A 
ATOM     29  CD2 PHE B 339      22.695  12.517 -45.819  1.00 33.37 LIG 0.01  A 
ENDBRANCH 23 24
ENDBRANCH 21 23
ENDBRANCH 17 21
ENDBRANCH 11 14
ENDBRANCH 5 10
ENDBRANCH 1 5
BRANCH 3 30
ATOM     30  CA  ASP B 342      29.233   3.309 -42.478  1.00 16.21 LIG 0.19  C 
BRANCH 30 31
ATOM     31  CB  ASP B 342      30.635   2.831 -42.801  1.00 18.68 LIG 0.15  C 
BRANCH 31 32
ATOM     32  CG  ASP B 342      31.159   3.331 -44.098  1.00 22.92 LIG 0.17  C 
ATOM     33 OD1  ASP B 342      31.443   4.548 -44.249  1.00 25.81 LIG-0.65  OA
ATOM     34 OD2  ASP B 342      31.281   2.456 -44.978  1.00 25.94 LIG-0.65  OA
ENDBRANCH 31 32
ENDBRANCH 30 31
BRANCH 30 35
ATOM     35  C   ASP B 342      29.065   3.136 -40.963  1.00 16.03 LIG 0.24  C 
ATOM     36  N   LEU B 343      27.966   2.478 -40.574  1.00 16.72 LIG-0.35  N 
ATOM     37 H    LEU B 343      27.286   2.352 -41.085  1.00 16.72 LIG 0.16  HD
ATOM     38 O    ASP B 342      29.950   3.493 -40.192  1.00 14.87 LIG-0.27  OA
BRANCH 36 39
ATOM     39  CA  LEU B 343      27.814   1.903 -39.232  1.00 16.14 LIG 0.18  C 
BRANCH 39 40
ATOM     40  CB  LEU B 343      26.354   1.615 -38.902  1.00 19.18 LIG 0.04  C 
BRANCH 40 41
ATOM     41  CG  LEU B 343      25.831   2.335 -37.644  1.00 20.67 LIG-0.02  C 
ATOM     42  CD1 LEU B 343      24.844   1.409 -36.911  1.00 23.87 LIG 0.01  C 
ATOM     43  CD2 LEU B 343      26.982   2.724 -36.731  1.00 22.92 LIG 0.01  C 
ENDBRANCH 40 41
ENDBRANCH 39 40
BRANCH 39 44
ATOM     44  C   LEU B 343      28.612   0.598 -39.128  1.00 14.33 LIG 0.24  C 
ATOM     45 O    LEU B 343      28.050  -0.511 -39.182  1.00 16.10 LIG-0.27  OA
ATOM     46  N   ALA B 344      29.909   0.726 -38.967  1.00 14.89 LIG-0.34  N 
ATOM     47 H    ALA B 344      30.332   1.474 -38.992  1.00 14.89 LIG 0.16  HD
BRANCH 46 48
ATOM     48  CA  ALA B 344      30.753  -0.458 -38.722  1.00 15.57 LIG 0.18  C 
ATOM     49  CB  ALA B 344      32.109  -0.274 -39.334  1.00 18.12 LIG 0.04  C 
BRANCH 48 50
ATOM     50  C   ALA B 344      30.911  -0.673 -37.221  1.00 15.03 LIG 0.20  C 
ATOM     51 OXT  ALA B 344      29.923  -0.868 -36.498  1.00 16.10 LIG-0.65  OA
ATOM     52 O    ALA B 344      32.089  -0.718 -36.777  1.00 15.80 LIG-0.65  OA
ENDBRANCH 48 50
ENDBRANCH 46 48
ENDBRANCH 39 44
ENDBRANCH 36 39
ENDBRANCH 30 35
ENDBRANCH 3 30
TORSDOF 18
ENDMDL
MODEL 2
USER: ADFR SOLUTION from run 151
USER: SCORE 15.238169 LL:  -4.183 LR: -11.972 RR:   0.000 FEB:  -6.603
USER: RMSD 4.221079
USER: SEED 150
USER: STATUS no improvement in best in 1 clusters for 5 generations
USER: GENES 20
USER: genes 0 Translation |==|  0.45000 0.54524 0.61535
USER: genes 1 Rotation |==|  0.42376 0.62150 0.40558 0.96959
USER: genes 2 Torsion [N]-C--CA-[N] |==|  0.34493
USER: genes 3 Torsion [C]-CA--CB-[CG] |==|  0.66937
USER: genes 4 Torsion [CA]-CB--CG-[CD1] |==|  0.29745
USER: genes 5 Torsion [C]-CA--N-[C] |==|  0.64744
USER: genes 6 Torsion [N]-C--CA-[CB] |==|  0.69056
USER: genes 7 Torsion [N]-C--CA-[N] |==|  0.26609
USER: genes 8 Torsion [C]-CA--CB-[CG] |==|  0.08437
USER: genes 9 Torsion [CA]-CB--CG-[CD1] |==|  0.17107
USER: genes 10 Torsion [C]-N--CA-[CB] |==|  0.51697
USER: genes 11 Torsion [N]-CA--CB-[CG] |==|  0.08402
USER: genes 12 Torsion [CA]-CB--CG-[OD1] |==|  0.09899
USER: genes 13 Torsion [N]-CA--C-[N] |==|  0.36667
USER: genes 14 Torsion [C]-N--CA-[C] |==|  0.69614
USER: genes 15 Torsion [N]-CA--CB-[CG] |==|  0.14859
USER: genes 16 Torsion [CA]-CB--CG-[CD1] |==|  0.42875
USER: genes 17 Torsion [N]-CA--C-[N] |==|  0.37123
USER: genes 18 Torsion [C]-N--CA-[CB] |==|  0.33901
USER: genes 19 Torsion [N]-CA--C-[OXT] |==|  0.29294
ROOT
ATOM      1  C   LEU B 341      27.815   5.209 -42.188  1.00 14.43 LIG 0.24  C 
ATOM      2 O    LEU B 341      26.959   5.033 -41.322  1.00 17.21 LIG-0.27  OA
ATOM      3  N   ASP B 342      28.562   4.229 -42.673  1.00 15.70 LIG-0.35  N 
ATOM      4 H    ASP B 342      29.093   4.309 -43.344  1.00 15.70 LIG 0.16  HD
ENDROOT
BRANCH 1 5
ATOM      5  CA  LEU B 341      28.102   6.590 -42.775  1.00 14.64 LIG 0.18  C 
BRANCH 5 6
ATOM      6  CB  LEU B 341      28.611   7.505 -41.659  1.00 15.72 LIG 0.04  C 
BRANCH 6 7
ATOM      7  CG  LEU B 341      27.731   8.717 -41.413  1.00 16.60 LIG-0.02  C 
ATOM      8  CD1 LEU B 341      26.979   8.530 -40.116  1.00 17.44 LIG 0.01  C 
ATOM      9  CD2 LEU B 341      28.538  10.015 -41.424  1.00 18.85 LIG 0.01  C 
ENDBRANCH 6 7
ENDBRANCH 5 6
BRANCH 5 10
ATOM     10  N   LEU B 341      26.916   7.219 -43.349  1.00 16.77 LIG-0.35  N 
ATOM     11  C   PRO B 340      26.926   7.678 -44.596  1.00 19.25 LIG 0.24  C 
ATOM     12 O    PRO B 340      27.867   7.533 -45.384  1.00 21.28 LIG-0.27  OA
ATOM     13 H    LEU B 341      26.239   7.261 -42.822  1.00 16.77 LIG 0.16  HD
BRANCH 11 14
ATOM     14  CA  PRO B 340      25.644   8.354 -45.029  1.00 21.04 LIG 0.18  C 
ATOM     15  N   PRO B 340      25.845   9.636 -45.745  1.00 20.95 LIG-0.34  N 
ATOM     16  CD  PRO B 340      25.164   9.649 -47.051  1.00 22.76 LIG 0.13  C 
ATOM     17  C   PHE B 339      26.422  10.656 -45.113  1.00 19.72 LIG 0.26  C 
ATOM     18  CG  PRO B 340      24.267   8.435 -46.932  1.00 24.91 LIG 0.02  C 
ATOM     19  CB  PRO B 340      24.981   7.478 -46.074  1.00 23.27 LIG 0.04  C 
ATOM     20 O    PHE B 339      26.890  10.520 -43.974  1.00 19.38 LIG-0.27  OA
BRANCH 17 21
ATOM     21  CA  PHE B 339      26.474  11.999 -45.840  1.00 21.94 LIG 0.40  C 
ATOM     22  N   PHE B 339      25.370  12.861 -45.447  1.00 23.90 LIG 0.61  N 
BRANCH 21 23
ATOM     23  CB  PHE B 339      27.794  12.702 -45.548  1.00 24.29 LIG 0.09  C 
BRANCH 23 24
ATOM     24  CG  PHE B 339      28.943  11.768 -45.300  1.00 28.97 LIG-0.06  A 
ATOM     25  CD1 PHE B 339      29.367  10.882 -46.288  1.00 31.92 LIG 0.01  A 
ATOM     26  CE1 PHE B 339      30.430  10.017 -46.063  1.00 33.96 LIG 0.00  A 
ATOM     27  CZ  PHE B 339      31.093  10.046 -44.840  1.00 35.90 LIG 0.00  A 
ATOM     28  CE2 PHE B 339      30.684  10.935 -43.844  1.00 35.56 LIG 0.00  A 
ATOM     29  CD2 PHE B 339      29.611  11.790 -44.083  1.00 33.37 LIG 0.01  A 
ENDBRANCH 23 24
ENDBRANCH 21 23
ENDBRANCH 17 21
ENDBRANCH 11 14
ENDBRANCH 5 10
ENDBRANCH 1 5
BRANCH 3 30
ATOM     30  CA  ASP B 342      28.528   2.898 -42.074  1.00 16.21 LIG 0.19  C 
BRANCH 30 31
ATOM     31  CB  ASP B 342      29.581   2.022 -42.725  1.00 18.68 LIG 0.15  C 
BRANCH 31 32
ATOM     32  CG  ASP B 342      30.773   2.767 -43.203  1.00 22.92 LIG 0.17  C 
ATOM     33 OD1  ASP B 342      31.211   3.759 -42.562  1.00 25.81 LIG-0.65  OA
ATOM     34 OD2  ASP B 342      31.269   2.326 -44.258  1.00 25.94 LIG-0.65  OA
ENDBRANCH 31 32
ENDBRANCH 30 31
BRANCH 30 35
ATOM     35  C   ASP B 342      28.878   2.942 -40.581  1.00 16.03 LIG 0.24  C 
ATOM     36  N   LEU B 343      28.049   2.268 -39.772  1.00 16.72 LIG-0.35  N 
ATOM     37 H    LEU B 343      27.262   2.017 -40.008  1.00 16.72 LIG 0.16  HD
ATOM     38 O    ASP B 342      29.914   3.476 -40.197  1.00 14.87 LIG-0.27  OA
BRANCH 36 39
ATOM     39  CA  LEU B 343      28.407   1.892 -38.399  1.00 16.14 LIG 0.18  C 
BRANCH 39 40
ATOM     40  CB  LEU B 343      27.328   2.300 -37.402  1.00 19.18 LIG 0.04  C 
BRANCH 40 41
ATOM     41  CG  LEU B 343      25.916   1.792 -37.748  1.00 20.67 LIG-0.02  C 
ATOM     42  CD1 LEU B 343      25.091   1.684 -36.453  1.00 23.87 LIG 0.01  C 
ATOM     43  CD2 LEU B 343      25.239   2.725 -38.739  1.00 22.92 LIG 0.01  C 
ENDBRANCH 40 41
ENDBRANCH 39 40
BRANCH 39 44
ATOM     44  C   LEU B 343      28.617   0.376 -38.310  1.00 14.33 LIG 0.24  C 
ATOM     45 O    LEU B 343      27.802  -0.421 -38.808  1.00 16.10 LIG-0.27  OA
ATOM     46  N   ALA B 344      29.693  -0.022 -37.670  1.00 14.89 LIG-0.34  N 
ATOM     47 H    ALA B 344      30.306   0.504 -37.374  1.00 14.89 LIG 0.16  HD
BRANCH 46 48
ATOM     48  CA  ALA B 344      29.923  -1.454 -37.410  1.00 15.57 LIG 0.18  C 
ATOM     49  CB  ALA B 344      31.225  -1.895 -38.007  1.00 18.12 LIG 0.04  C 
BRANCH 48 50
ATOM     50  C   ALA B 344      29.957  -1.703 -35.906  1.00 15.03 LIG 0.20  C 
ATOM     51 OXT  ALA B 344      29.004  -2.247 -35.328  1.00 16.10 LIG-0.65  OA
ATOM     52 O    ALA B 344      31.023  -1.400 -35.306  1.00 15.80 LIG-0.65  OA
ENDBRANCH 48 50
ENDBRANCH 46 48
ENDBRANCH 39 44
ENDBRANCH 36 39
ENDBRANCH 30 35
ENDBRANCH 3 30
TORSDOF 18
ENDMDL
MODEL 3
USER: ADFR SOLUTION from run 124
USER: SCORE 16.554011 LL:  -5.731 LR: -11.424 RR:   0.000 FEB:  -6.055
USER: RMSD 4.821784
USER: SEED 123
USER: STATUS no improvement in best in 2 clusters for 5 generations
USER: GENES 20
USER: genes 0 Translation |==|  0.52060 0.55869 0.63132
USER: genes 1 Rotation |==|  0.36415 0.92432 0.48244 0.72624
USER: genes 2 Torsion [N]-C--CA-[N] |==|  0.99973
USER: genes 3 Torsion [C]-CA--CB-[CG] |==|  0.49347
USER: genes 4 Torsion [CA]-CB--CG-[CD1] |==|  0.47565
USER: genes 5 Torsion [C]-CA--N-[C] |==|  0.72905
USER: genes 6 Torsion [N]-C--CA-[CB] |==|  0.20353
USER: genes 7 Torsion [N]-C--CA-[N] |==|  0.30752
USER: genes 8 Torsion [C]-CA--CB-[CG] |==|  0.21012
USER: genes 9 Torsion [CA]-CB--CG-[CD1] |==|  0.87403
USER: genes 10 Torsion [C]-N--CA-[CB] |==|  0.81111
USER: genes 11 Torsion [N]-CA--CB-[CG] |==|  0.83576
USER: genes 12 Torsion [CA]-CB--CG-[OD1] |==|  0.31668
USER: genes 13 Torsion [N]-CA--C-[N] |==|  0.21061
USER: genes 14 Torsion [C]-N--CA-[C] |==|  0.84337
USER: genes 15 Torsion [N]-CA--CB-[CG] |==|  0.74886
USER: genes 16 Torsion [CA]-CB--CG-[CD1] |==|  0.53422
USER: genes 17 Torsion [N]-CA--C-[N] |==|  0.37385
USER: genes 18 Torsion [C]-N--CA-[CB] |==|  0.23681
USER: genes 19 Torsion [N]-CA--C-[OXT] |==|  0.61671
ROOT
ATOM      1  C   LEU B 341      29.192   5.501 -41.841  1.00 14.43 LIG 0.24  C 
ATOM      2 O    LEU B 341      30.125   5.409 -41.044  1.00 17.21 LIG-0.27  OA
ATOM      3  N   ASP B 342      28.688   4.460 -42.485  1.00 15.70 LIG-0.35  N 
ATOM      4 H    ASP B 342      27.976   4.485 -42.967  1.00 15.70 LIG 0.16  HD
ENDROOT
BRANCH 1 5
ATOM      5  CA  LEU B 341      28.536   6.842 -42.168  1.00 14.64 LIG 0.18  C 
BRANCH 5 6
ATOM      6  CB  LEU B 341      27.927   7.419 -40.889  1.00 15.72 LIG 0.04  C 
BRANCH 6 7
ATOM      7  CG  LEU B 341      27.291   8.785 -41.075  1.00 16.60 LIG-0.02  C 
ATOM      8  CD1 LEU B 341      26.540   9.160 -39.819  1.00 17.44 LIG 0.01  C 
ATOM      9  CD2 LEU B 341      28.324   9.843 -41.462  1.00 18.85 LIG 0.01  C 
ENDBRANCH 6 7
ENDBRANCH 5 6
BRANCH 5 10
ATOM     10  N   LEU B 341      27.460   6.721 -43.148  1.00 16.77 LIG-0.35  N 
ATOM     11  C   PRO B 340      27.679   6.973 -44.434  1.00 19.25 LIG 0.24  C 
ATOM     12 O    PRO B 340      28.790   7.226 -44.914  1.00 21.28 LIG-0.27  OA
ATOM     13 H    LEU B 341      26.701   6.481 -42.823  1.00 16.77 LIG 0.16  HD
BRANCH 11 14
ATOM     14  CA  PRO B 340      26.456   6.861 -45.316  1.00 21.04 LIG 0.18  C 
ATOM     15  N   PRO B 340      25.574   5.714 -44.990  1.00 20.95 LIG-0.34  N 
ATOM     16  CD  PRO B 340      24.184   6.139 -44.755  1.00 22.76 LIG 0.13  C 
ATOM     17  C   PHE B 339      26.041   4.473 -45.112  1.00 19.72 LIG 0.26  C 
ATOM     18  CG  PRO B 340      24.211   7.556 -45.288  1.00 24.91 LIG 0.02  C 
ATOM     19  CB  PRO B 340      25.570   8.061 -45.045  1.00 23.27 LIG 0.04  C 
ATOM     20 O    PHE B 339      27.230   4.262 -45.391  1.00 19.38 LIG-0.27  OA
BRANCH 17 21
ATOM     21  CA  PHE B 339      25.055   3.324 -44.908  1.00 21.94 LIG 0.40  C 
ATOM     22  N   PHE B 339      24.785   2.625 -46.155  1.00 23.90 LIG 0.61  N 
BRANCH 21 23
ATOM     23  CB  PHE B 339      25.603   2.339 -43.884  1.00 24.29 LIG 0.09  C 
BRANCH 23 24
ATOM     24  CG  PHE B 339      25.508   2.817 -42.464  1.00 28.97 LIG-0.06  A 
ATOM     25  CD1 PHE B 339      25.878   4.116 -42.123  1.00 31.92 LIG 0.01  A 
ATOM     26  CE1 PHE B 339      25.790   4.563 -40.811  1.00 33.96 LIG 0.00  A 
ATOM     27  CZ  PHE B 339      25.309   3.707 -39.824  1.00 35.90 LIG 0.00  A 
ATOM     28  CE2 PHE B 339      24.927   2.406 -40.153  1.00 35.56 LIG 0.00  A 
ATOM     29  CD2 PHE B 339      25.028   1.971 -41.472  1.00 33.37 LIG 0.01  A 
ENDBRANCH 23 24
ENDBRANCH 21 23
ENDBRANCH 17 21
ENDBRANCH 11 14
ENDBRANCH 5 10
ENDBRANCH 1 5
BRANCH 3 30
ATOM     30  CA  ASP B 342      29.334   3.153 -42.414  1.00 16.21 LIG 0.19  C 
BRANCH 30 31
ATOM     31  CB  ASP B 342      30.668   3.207 -43.134  1.00 18.68 LIG 0.15  C 
BRANCH 31 32
ATOM     32  CG  ASP B 342      30.565   3.586 -44.566  1.00 22.92 LIG 0.17  C 
ATOM     33 OD1  ASP B 342      31.053   4.671 -44.979  1.00 25.81 LIG-0.65  OA
ATOM     34 OD2  ASP B 342      29.972   2.754 -45.280  1.00 25.94 LIG-0.65  OA
ENDBRANCH 31 32
ENDBRANCH 30 31
BRANCH 30 35
ATOM     35  C   ASP B 342      29.651   2.757 -40.966  1.00 16.03 LIG 0.24  C 
ATOM     36  N   LEU B 343      28.605   2.349 -40.236  1.00 16.72 LIG-0.35  N 
ATOM     37 H    LEU B 343      27.788   2.499 -40.457  1.00 16.72 LIG 0.16  HD
ATOM     38 O    ASP B 342      30.811   2.725 -40.566  1.00 14.87 LIG-0.27  OA
BRANCH 36 39
ATOM     39  CA  LEU B 343      28.752   1.600 -38.982  1.00 16.14 LIG 0.18  C 
BRANCH 39 40
ATOM     40  CB  LEU B 343      27.401   1.209 -38.394  1.00 19.18 LIG 0.04  C 
BRANCH 40 41
ATOM     41  CG  LEU B 343      26.808   2.244 -37.419  1.00 20.67 LIG-0.02  C 
ATOM     42  CD1 LEU B 343      25.623   1.605 -36.671  1.00 23.87 LIG 0.01  C 
ATOM     43  CD2 LEU B 343      27.865   2.725 -36.438  1.00 22.92 LIG 0.01  C 
ENDBRANCH 40 41
ENDBRANCH 39 40
BRANCH 39 44
ATOM     44  C   LEU B 343      29.574   0.328 -39.225  1.00 14.33 LIG 0.24  C 
ATOM     45 O    LEU B 343      29.342  -0.416 -40.196  1.00 16.10 LIG-0.27  OA
ATOM     46  N   ALA B 344      30.516   0.072 -38.347  1.00 14.89 LIG-0.34  N 
ATOM     47 H    ALA B 344      30.742   0.599 -37.707  1.00 14.89 LIG 0.16  HD
BRANCH 46 48
ATOM     48  CA  ALA B 344      31.275  -1.190 -38.410  1.00 15.57 LIG 0.18  C 
ATOM     49  CB  ALA B 344      32.428  -1.065 -39.360  1.00 18.12 LIG 0.04  C 
BRANCH 48 50
ATOM     50  C   ALA B 344      31.809  -1.537 -37.025  1.00 15.03 LIG 0.20  C 
ATOM     51 OXT  ALA B 344      32.961  -1.971 -36.876  1.00 16.10 LIG-0.65  OA
ATOM     52 O    ALA B 344      31.052  -1.289 -36.048  1.00 15.80 LIG-0.65  OA
ENDBRANCH 48 50
ENDBRANCH 46 48
ENDBRANCH 39 44
ENDBRANCH 36 39
ENDBRANCH 30 35
ENDBRANCH 3 30
TORSDOF 18
ENDMDL
MODEL 4
USER: ADFR SOLUTION from run 142
USER: SCORE 14.094660 LL:  -3.885 LR: -11.099 RR:   0.000 FEB:  -5.729
USER: RMSD 3.374101
USER: SEED 141
USER: STATUS searching
USER: GENES 20
USER: genes 0 Translation |==|  0.47368 0.55748 0.60517
USER: genes 1 Rotation |==|  0.46328 0.57361 0.44165 0.98972
USER: genes 2 Torsion [N]-C--CA-[N] |==|  0.37157
USER: genes 3 Torsion [C]-CA--CB-[CG] |==|  0.64104
USER: genes 4 Torsion [CA]-CB--CG-[CD1] |==|  0.33414
USER: genes 5 Torsion [C]-CA--N-[C] |==|  0.65025
USER: genes 6 Torsion [N]-C--CA-[CB] |==|  0.74823
USER: genes 7 Torsion [N]-C--CA-[N] |==|  0.45506
USER: genes 8 Torsion [C]-CA--CB-[CG] |==|  0.31963
USER: genes 9 Torsion [CA]-CB--CG-[CD1] |==|  0.07171
USER: genes 10 Torsion [C]-N--CA-[CB] |==|  0.54445
USER: genes 11 Torsion [N]-CA--CB-[CG] |==|  0.53697
USER: genes 12 Torsion [CA]-CB--CG-[OD1] |==|  0.06535
USER: genes 13 Torsion [N]-CA--C-[N] |==|  0.32301
USER: genes 14 Torsion [C]-N--CA-[C] |==|  0.77587
USER: genes 15 Torsion [N]-CA--CB-[CG] |==|  0.67392
USER: genes 16 Torsion [CA]-CB--CG-[CD1] |==|  0.58003
USER: genes 17 Torsion [N]-CA--C-[N] |==|  0.21985
USER: genes 18 Torsion [C]-N--CA-[CB] |==|  0.38648
USER: genes 19 Torsion [N]-CA--C-[OXT] |==|  0.68897
ROOT
ATOM      1  C   LEU B 341      28.277   5.475 -42.409  1.00 14.43 LIG 0.24  C 
ATOM      2 O    LEU B 341      27.307   5.048 -41.784  1.00 17.21 LIG-0.27  OA
ATOM      3  N   ASP B 342      29.247   4.693 -42.857  1.00 15.70 LIG-0.35  N 
ATOM      4 H    ASP B 342      29.879   4.953 -43.378  1.00 15.70 LIG 0.16  HD
ENDROOT
BRANCH 1 5
ATOM      5  CA  LEU B 341      28.453   6.962 -42.717  1.00 14.64 LIG 0.18  C 
BRANCH 5 6
ATOM      6  CB  LEU B 341      28.824   7.692 -41.425  1.00 15.72 LIG 0.04  C 
BRANCH 6 7
ATOM      7  CG  LEU B 341      27.964   8.910 -41.141  1.00 16.60 LIG-0.02  C 
ATOM      8  CD1 LEU B 341      27.260   8.725 -39.817  1.00 17.44 LIG 0.01  C 
ATOM      9  CD2 LEU B 341      28.780  10.202 -41.179  1.00 18.85 LIG 0.01  C 
ENDBRANCH 6 7
ENDBRANCH 5 6
BRANCH 5 10
ATOM     10  N   LEU B 341      27.236   7.581 -43.234  1.00 16.77 LIG-0.35  N 
ATOM     11  C   PRO B 340      27.247   8.247 -44.383  1.00 19.25 LIG 0.24  C 
ATOM     12 O    PRO B 340      28.225   8.319 -45.136  1.00 21.28 LIG-0.27  OA
ATOM     13 H    LEU B 341      26.540   7.475 -42.741  1.00 16.77 LIG 0.16  HD
BRANCH 11 14
ATOM     14  CA  PRO B 340      25.926   8.880 -44.758  1.00 21.04 LIG 0.18  C 
ATOM     15  N   PRO B 340      26.046  10.047 -45.665  1.00 20.95 LIG-0.34  N 
ATOM     16  CD  PRO B 340      25.221   9.891 -46.874  1.00 22.76 LIG 0.13  C 
ATOM     17  C   PHE B 339      26.695  11.134 -45.251  1.00 19.72 LIG 0.26  C 
ATOM     18  CG  PRO B 340      24.340   8.722 -46.486  1.00 24.91 LIG 0.02  C 
ATOM     19  CB  PRO B 340      25.146   7.880 -45.589  1.00 23.27 LIG 0.04  C 
ATOM     20 O    PHE B 339      27.290  11.148 -44.164  1.00 19.38 LIG-0.27  OA
BRANCH 17 21
ATOM     21  CA  PHE B 339      26.667  12.362 -46.160  1.00 21.94 LIG 0.40  C 
ATOM     22  N   PHE B 339      27.071  13.563 -45.445  1.00 23.90 LIG 0.61  N 
BRANCH 21 23
ATOM     23  CB  PHE B 339      27.586  12.151 -47.356  1.00 24.29 LIG 0.09  C 
BRANCH 23 24
ATOM     24  CG  PHE B 339      26.871  12.099 -48.675  1.00 28.97 LIG-0.06  A 
ATOM     25  CD1 PHE B 339      25.645  12.738 -48.846  1.00 31.92 LIG 0.01  A 
ATOM     26  CE1 PHE B 339      24.981  12.694 -50.066  1.00 33.96 LIG 0.00  A 
ATOM     27  CZ  PHE B 339      25.555  12.018 -51.137  1.00 35.90 LIG 0.00  A 
ATOM     28  CE2 PHE B 339      26.788  11.380 -50.982  1.00 35.56 LIG 0.00  A 
ATOM     29  CD2 PHE B 339      27.437  11.427 -49.751  1.00 33.37 LIG 0.01  A 
ENDBRANCH 23 24
ENDBRANCH 21 23
ENDBRANCH 17 21
ENDBRANCH 11 14
ENDBRANCH 5 10
ENDBRANCH 1 5
BRANCH 3 30
ATOM     30  CA  ASP B 342      29.307   3.285 -42.476  1.00 16.21 LIG 0.19  C 
BRANCH 30 31
ATOM     31  CB  ASP B 342      30.686   2.734 -42.784  1.00 18.68 LIG 0.15  C 
BRANCH 31 32
ATOM     32  CG  ASP B 342      30.769   1.252 -42.732  1.00 22.92 LIG 0.17  C 
ATOM     33 OD1  ASP B 342      29.739   0.546 -42.893  1.00 25.81 LIG-0.65  OA
ATOM     34 OD2  ASP B 342      31.913   0.806 -42.521  1.00 25.94 LIG-0.65  OA
ENDBRANCH 31 32
ENDBRANCH 30 31
BRANCH 30 35
ATOM     35  C   ASP B 342      29.104   3.099 -40.967  1.00 16.03 LIG 0.24  C 
ATOM     36  N   LEU B 343      28.011   2.412 -40.610  1.00 16.72 LIG-0.35  N 
ATOM     37 H    LEU B 343      27.348   2.274 -41.139  1.00 16.72 LIG 0.16  HD
ATOM     38 O    ASP B 342      29.960   3.472 -40.171  1.00 14.87 LIG-0.27  OA
BRANCH 36 39
ATOM     39  CA  LEU B 343      27.838   1.827 -39.275  1.00 16.14 LIG 0.18  C 
BRANCH 39 40
ATOM     40  CB  LEU B 343      26.370   1.581 -38.950  1.00 19.18 LIG 0.04  C 
BRANCH 40 41
ATOM     41  CG  LEU B 343      25.840   2.385 -37.747  1.00 20.67 LIG-0.02  C 
ATOM     42  CD1 LEU B 343      24.699   1.594 -37.081  1.00 23.87 LIG 0.01  C 
ATOM     43  CD2 LEU B 343      26.955   2.660 -36.753  1.00 22.92 LIG 0.01  C 
ENDBRANCH 40 41
ENDBRANCH 39 40
BRANCH 39 44
ATOM     44  C   LEU B 343      28.595   0.496 -39.185  1.00 14.33 LIG 0.24  C 
ATOM     45 O    LEU B 343      28.002  -0.593 -39.278  1.00 16.10 LIG-0.27  OA
ATOM     46  N   ALA B 344      29.892   0.581 -38.992  1.00 14.89 LIG-0.34  N 
ATOM     47 H    ALA B 344      30.337   1.316 -38.990  1.00 14.89 LIG 0.16  HD
BRANCH 46 48
ATOM     48  CA  ALA B 344      30.694  -0.633 -38.759  1.00 15.57 LIG 0.18  C 
ATOM     49  CB  ALA B 344      31.996  -0.555 -39.498  1.00 18.12 LIG 0.04  C 
BRANCH 48 50
ATOM     50  C   ALA B 344      30.978  -0.781 -37.268  1.00 15.03 LIG 0.20  C 
ATOM     51 OXT  ALA B 344      32.128  -0.650 -36.822  1.00 16.10 LIG-0.65  OA
ATOM     52 O    ALA B 344      29.983  -0.964 -36.518  1.00 15.80 LIG-0.65  OA
ENDBRANCH 48 50
ENDBRANCH 46 48
ENDBRANCH 39 44
ENDBRANCH 36 39
ENDBRANCH 30 35
ENDBRANCH 3 30
TORSDOF 18
ENDMDL
MODEL 5
USER: ADFR SOLUTION from run 194
USER: SCORE 13.887889 LL:  -3.908 LR: -11.001 RR:   0.000 FEB:  -5.632
USER: RMSD 4.304630
USER: SEED 193
USER: STATUS no improvement in best in 5 clusters for 5 generations
USER: GENES 20
USER: genes 0 Translation |==|  0.46953 0.54655 0.62671
USER: genes 1 Rotation |==|  0.49096 0.54161 0.43699 0.99418
USER: genes 2 Torsion [N]-C--CA-[N] |==|  0.29610
USER: genes 3 Torsion [C]-CA--CB-[CG] |==|  0.59675
USER: genes 4 Torsion [CA]-CB--CG-[CD1] |==|  0.44803
USER: genes 5 Torsion [C]-CA--N-[C] |==|  0.72226
USER: genes 6 Torsion [N]-C--CA-[CB] |==|  0.20128
USER: genes 7 Torsion [N]-C--CA-[N] |==|  0.46020
USER: genes 8 Torsion [C]-CA--CB-[CG] |==|  0.39629
USER: genes 9 Torsion [CA]-CB--CG-[CD1] |==|  0.09478
USER: genes 10 Torsion [C]-N--CA-[CB] |==|  0.51194
USER: genes 11 Torsion [N]-CA--CB-[CG] |==|  0.89935
USER: genes 12 Torsion [CA]-CB--CG-[OD1] |==|  0.16898
USER: genes 13 Torsion [N]-CA--C-[N] |==|  0.28515
USER: genes 14 Torsion [C]-N--CA-[C] |==|  0.82533
USER: genes 15 Torsion [N]-CA--CB-[CG] |==|  0.66629
USER: genes 16 Torsion [CA]-CB--CG-[CD1] |==|  0.62938
USER: genes 17 Torsion [N]-CA--C-[N] |==|  0.39156
USER: genes 18 Torsion [C]-N--CA-[CB] |==|  0.21159
USER: genes 19 Torsion [N]-CA--C-[OXT] |==|  0.24379
ROOT
ATOM      1  C   LEU B 341      28.196   5.237 -41.941  1.00 14.43 LIG 0.24  C 
ATOM      2 O    LEU B 341      27.140   4.785 -41.501  1.00 17.21 LIG-0.27  OA
ATOM      3  N   ASP B 342      29.207   4.470 -42.318  1.00 15.70 LIG-0.35  N 
ATOM      4 H    ASP B 342      29.912   4.758 -42.719  1.00 15.70 LIG 0.16  HD
ENDROOT
BRANCH 1 5
ATOM      5  CA  LEU B 341      28.438   6.740 -42.080  1.00 14.64 LIG 0.18  C 
BRANCH 5 6
ATOM      6  CB  LEU B 341      27.970   7.436 -40.801  1.00 15.72 LIG 0.04  C 
BRANCH 6 7
ATOM      7  CG  LEU B 341      27.369   8.810 -41.037  1.00 16.60 LIG-0.02  C 
ATOM      8  CD1 LEU B 341      26.541   9.204 -39.835  1.00 17.44 LIG 0.01  C 
ATOM      9  CD2 LEU B 341      28.441   9.850 -41.358  1.00 18.85 LIG 0.01  C 
ENDBRANCH 6 7
ENDBRANCH 5 6
BRANCH 5 10
ATOM     10  N   LEU B 341      27.702   7.331 -43.194  1.00 16.77 LIG-0.35  N 
ATOM     11  C   PRO B 340      28.305   7.580 -44.351  1.00 19.25 LIG 0.24  C 
ATOM     12 O    PRO B 340      29.469   7.259 -44.613  1.00 21.28 LIG-0.27  OA
ATOM     13 H    LEU B 341      26.874   7.495 -43.033  1.00 16.77 LIG 0.16  HD
BRANCH 11 14
ATOM     14  CA  PRO B 340      27.428   8.246 -45.388  1.00 21.04 LIG 0.18  C 
ATOM     15  N   PRO B 340      26.050   7.703 -45.458  1.00 20.95 LIG-0.34  N 
ATOM     16  CD  PRO B 340      25.035   8.761 -45.315  1.00 22.76 LIG 0.13  C 
ATOM     17  C   PHE B 339      25.863   6.431 -45.803  1.00 19.72 LIG 0.26  C 
ATOM     18  CG  PRO B 340      25.875  10.008 -45.494  1.00 24.91 LIG 0.02  C 
ATOM     19  CB  PRO B 340      27.208   9.685 -44.964  1.00 23.27 LIG 0.04  C 
ATOM     20 O    PHE B 339      26.824   5.665 -45.964  1.00 19.38 LIG-0.27  OA
BRANCH 17 21
ATOM     21  CA  PHE B 339      24.424   5.957 -46.004  1.00 21.94 LIG 0.40  C 
ATOM     22  N   PHE B 339      24.376   4.676 -46.691  1.00 23.90 LIG 0.61  N 
BRANCH 21 23
ATOM     23  CB  PHE B 339      23.719   5.838 -44.660  1.00 24.29 LIG 0.09  C 
BRANCH 23 24
ATOM     24  CG  PHE B 339      22.275   6.251 -44.687  1.00 28.97 LIG-0.06  A 
ATOM     25  CD1 PHE B 339      21.491   6.024 -45.816  1.00 31.92 LIG 0.01  A 
ATOM     26  CE1 PHE B 339      20.155   6.404 -45.845  1.00 33.96 LIG 0.00  A 
ATOM     27  CZ  PHE B 339      19.586   7.003 -44.725  1.00 35.90 LIG 0.00  A 
ATOM     28  CE2 PHE B 339      20.359   7.229 -43.584  1.00 35.56 LIG 0.00  A 
ATOM     29  CD2 PHE B 339      21.699   6.850 -43.574  1.00 33.37 LIG 0.01  A 
ENDBRANCH 23 24
ENDBRANCH 21 23
ENDBRANCH 17 21
ENDBRANCH 11 14
ENDBRANCH 5 10
ENDBRANCH 1 5
BRANCH 3 30
ATOM     30  CA  ASP B 342      29.189   3.032 -42.066  1.00 16.21 LIG 0.19  C 
BRANCH 30 31
ATOM     31  CB  ASP B 342      30.507   2.424 -42.503  1.00 18.68 LIG 0.15  C 
BRANCH 31 32
ATOM     32  CG  ASP B 342      31.084   3.045 -43.722  1.00 22.92 LIG 0.17  C 
ATOM     33 OD1  ASP B 342      31.388   4.267 -43.738  1.00 25.81 LIG-0.65  OA
ATOM     34 OD2  ASP B 342      31.227   2.264 -44.682  1.00 25.94 LIG-0.65  OA
ENDBRANCH 31 32
ENDBRANCH 30 31
BRANCH 30 35
ATOM     35  C   ASP B 342      29.055   2.723 -40.569  1.00 16.03 LIG 0.24  C 
ATOM     36  N   LEU B 343      27.837   2.344 -40.163  1.00 16.72 LIG-0.35  N 
ATOM     37 H    LEU B 343      27.124   2.472 -40.627  1.00 16.72 LIG 0.16  HD
ATOM     38 O    ASP B 342      30.042   2.728 -39.840  1.00 14.87 LIG-0.27  OA
BRANCH 36 39
ATOM     39  CA  LEU B 343      27.598   1.669 -38.882  1.00 16.14 LIG 0.18  C 
BRANCH 39 40
ATOM     40  CB  LEU B 343      26.113   1.438 -38.632  1.00 19.18 LIG 0.04  C 
BRANCH 40 41
ATOM     41  CG  LEU B 343      25.568   2.112 -37.358  1.00 20.67 LIG-0.02  C 
ATOM     42  CD1 LEU B 343      24.710   1.097 -36.582  1.00 23.87 LIG 0.01  C 
ATOM     43  CD2 LEU B 343      26.708   2.624 -36.493  1.00 22.92 LIG 0.01  C 
ENDBRANCH 40 41
ENDBRANCH 39 40
BRANCH 39 44
ATOM     44  C   LEU B 343      28.321   0.317 -38.859  1.00 14.33 LIG 0.24  C 
ATOM     45 O    LEU B 343      28.357  -0.414 -39.866  1.00 16.10 LIG-0.27  OA
ATOM     46  N   ALA B 344      28.882  -0.020 -37.720  1.00 14.89 LIG-0.34  N 
ATOM     47 H    ALA B 344      28.930   0.491 -37.031  1.00 14.89 LIG 0.16  HD
BRANCH 46 48
ATOM     48  CA  ALA B 344      29.486  -1.353 -37.550  1.00 15.57 LIG 0.18  C 
ATOM     49  CB  ALA B 344      30.811  -1.425 -38.247  1.00 18.12 LIG 0.04  C 
BRANCH 48 50
ATOM     50  C   ALA B 344      29.690  -1.637 -36.066  1.00 15.03 LIG 0.20  C 
ATOM     51 OXT  ALA B 344      28.790  -2.152 -35.385  1.00 16.10 LIG-0.65  OA
ATOM     52 O    ALA B 344      30.833  -1.394 -35.595  1.00 15.80 LIG-0.65  OA
ENDBRANCH 48 50
ENDBRANCH 46 48
ENDBRANCH 39 44
ENDBRANCH 36 39
ENDBRANCH 30 35
ENDBRANCH 3 30
TORSDOF 18
ENDMDL
MODEL 6
USER: ADFR SOLUTION from run 55
USER: SCORE 14.844516 LL:  -5.353 LR: -10.971 RR:   0.000 FEB:  -5.602
USER: RMSD 5.222892
USER: SEED 54
USER: STATUS no improvement in best in 6 clusters for 5 generations
USER: GENES 20
USER: genes 0 Translation |==|  0.41181 0.50737 0.56680
USER: genes 1 Rotation |==|  0.41576 0.52195 0.60675 0.98065
USER: genes 2 Torsion [N]-C--CA-[N] |==|  0.03621
USER: genes 3 Torsion [C]-CA--CB-[CG] |==|  0.48713
USER: genes 4 Torsion [CA]-CB--CG-[CD1] |==|  0.31616
USER: genes 5 Torsion [C]-CA--N-[C] |==|  0.60556
USER: genes 6 Torsion [N]-C--CA-[CB] |==|  0.01017
USER: genes 7 Torsion [N]-C--CA-[N] |==|  0.38591
USER: genes 8 Torsion [C]-CA--CB-[CG] |==|  0.00617
USER: genes 9 Torsion [CA]-CB--CG-[CD1] |==|  0.75209
USER: genes 10 Torsion [C]-N--CA-[CB] |==|  0.52782
USER: genes 11 Torsion [N]-CA--CB-[CG] |==|  0.92970
USER: genes 12 Torsion [CA]-CB--CG-[OD1] |==|  0.20536
USER: genes 13 Torsion [N]-CA--C-[N] |==|  0.25128
USER: genes 14 Torsion [C]-N--CA-[C] |==|  0.73428
USER: genes 15 Torsion [N]-CA--CB-[CG] |==|  0.62114
USER: genes 16 Torsion [CA]-CB--CG-[CD1] |==|  0.58978
USER: genes 17 Torsion [N]-CA--C-[N] |==|  0.25532
USER: genes 18 Torsion [C]-N--CA-[CB] |==|  0.38864
USER: genes 19 Torsion [N]-CA--C-[OXT] |==|  0.18988
ROOT
ATOM      1  C   LEU B 341      27.070   4.385 -43.244  1.00 14.43 LIG 0.24  C 
ATOM      2 O    LEU B 341      26.509   3.473 -42.639  1.00 17.21 LIG-0.27  OA
ATOM      3  N   ASP B 342      28.372   4.393 -43.490  1.00 15.70 LIG-0.35  N 
ATOM      4 H    ASP B 342      28.768   4.966 -43.994  1.00 15.70 LIG 0.16  HD
ENDROOT
BRANCH 1 5
ATOM      5  CA  LEU B 341      26.309   5.606 -43.758  1.00 14.64 LIG 0.18  C 
BRANCH 5 6
ATOM      6  CB  LEU B 341      25.063   5.132 -44.508  1.00 15.72 LIG 0.04  C 
BRANCH 6 7
ATOM      7  CG  LEU B 341      24.161   6.261 -44.973  1.00 16.60 LIG-0.02  C 
ATOM      8  CD1 LEU B 341      24.158   6.305 -46.484  1.00 17.44 LIG 0.01  C 
ATOM      9  CD2 LEU B 341      22.749   6.131 -44.402  1.00 18.85 LIG 0.01  C 
ENDBRANCH 6 7
ENDBRANCH 5 6
BRANCH 5 10
ATOM     10  N   LEU B 341      27.096   6.414 -44.687  1.00 16.77 LIG-0.35  N 
ATOM     11  C   PRO B 340      27.018   7.740 -44.669  1.00 19.25 LIG 0.24  C 
ATOM     12 O    PRO B 340      26.375   8.388 -43.836  1.00 21.28 LIG-0.27  OA
ATOM     13 H    LEU B 341      27.594   5.964 -45.224  1.00 16.77 LIG 0.16  HD
BRANCH 11 14
ATOM     14  CA  PRO B 340      27.846   8.434 -45.727  1.00 21.04 LIG 0.18  C 
ATOM     15  N   PRO B 340      29.013   9.177 -45.194  1.00 20.95 LIG-0.34  N 
ATOM     16  CD  PRO B 340      30.269   8.769 -45.846  1.00 22.76 LIG 0.13  C 
ATOM     17  C   PHE B 339      28.816  10.203 -44.369  1.00 19.72 LIG 0.26  C 
ATOM     18  CG  PRO B 340      29.749   7.984 -47.031  1.00 24.91 LIG 0.02  C 
ATOM     19  CB  PRO B 340      28.486   7.369 -46.596  1.00 23.27 LIG 0.04  C 
ATOM     20 O    PHE B 339      27.681  10.481 -43.955  1.00 19.38 LIG-0.27  OA
BRANCH 17 21
ATOM     21  CA  PHE B 339      30.036  11.029 -43.963  1.00 21.94 LIG 0.40  C 
ATOM     22  N   PHE B 339      29.734  12.453 -43.947  1.00 23.90 LIG 0.61  N 
BRANCH 21 23
ATOM     23  CB  PHE B 339      30.526  10.600 -42.587  1.00 24.29 LIG 0.09  C 
BRANCH 23 24
ATOM     24  CG  PHE B 339      29.751   9.460 -41.990  1.00 28.97 LIG-0.06  A 
ATOM     25  CD1 PHE B 339      28.622   9.699 -41.209  1.00 31.92 LIG 0.01  A 
ATOM     26  CE1 PHE B 339      27.902   8.647 -40.656  1.00 33.96 LIG 0.00  A 
ATOM     27  CZ  PHE B 339      28.301   7.337 -40.899  1.00 35.90 LIG 0.00  A 
ATOM     28  CE2 PHE B 339      29.426   7.084 -41.687  1.00 35.56 LIG 0.00  A 
ATOM     29  CD2 PHE B 339      30.142   8.149 -42.227  1.00 33.37 LIG 0.01  A 
ENDBRANCH 23 24
ENDBRANCH 21 23
ENDBRANCH 17 21
ENDBRANCH 11 14
ENDBRANCH 5 10
ENDBRANCH 1 5
BRANCH 3 30
ATOM     30  CA  ASP B 342      29.250   3.389 -42.897  1.00 16.21 LIG 0.19  C 
BRANCH 30 31
ATOM     31  CB  ASP B 342      30.696   3.773 -43.139  1.00 18.68 LIG 0.15  C 
BRANCH 31 32
ATOM     32  CG  ASP B 342      30.900   4.635 -44.331  1.00 22.92 LIG 0.17  C 
ATOM     33 OD1  ASP B 342      30.567   5.849 -44.310  1.00 25.81 LIG-0.65  OA
ATOM     34 OD2  ASP B 342      31.412   4.053 -45.307  1.00 25.94 LIG-0.65  OA
ENDBRANCH 31 32
ENDBRANCH 30 31
BRANCH 30 35
ATOM     35  C   ASP B 342      29.080   3.319 -41.374  1.00 16.03 LIG 0.24  C 
ATOM     36  N   LEU B 343      28.160   2.451 -40.933  1.00 16.72 LIG-0.35  N 
ATOM     37 H    LEU B 343      27.547   2.118 -41.436  1.00 16.72 LIG 0.16  HD
ATOM     38 O    ASP B 342      29.827   3.949 -40.632  1.00 14.87 LIG-0.27  OA
BRANCH 36 39
ATOM     39  CA  LEU B 343      28.107   1.982 -39.543  1.00 16.14 LIG 0.18  C 
BRANCH 39 40
ATOM     40  CB  LEU B 343      26.673   1.803 -39.060  1.00 19.18 LIG 0.04  C 
BRANCH 40 41
ATOM     41  CG  LEU B 343      26.406   2.343 -37.642  1.00 20.67 LIG-0.02  C 
ATOM     42  CD1 LEU B 343      25.332   1.471 -36.968  1.00 23.87 LIG 0.01  C 
ATOM     43  CD2 LEU B 343      27.685   2.350 -36.821  1.00 22.92 LIG 0.01  C 
ENDBRANCH 40 41
ENDBRANCH 39 40
BRANCH 39 44
ATOM     44  C   LEU B 343      28.844   0.643 -39.415  1.00 14.33 LIG 0.24  C 
ATOM     45 O    LEU B 343      28.256  -0.439 -39.593  1.00 16.10 LIG-0.27  OA
ATOM     46  N   ALA B 344      30.116   0.712 -39.096  1.00 14.89 LIG-0.34  N 
ATOM     47 H    ALA B 344      30.564   1.444 -39.032  1.00 14.89 LIG 0.16  HD
BRANCH 46 48
ATOM     48  CA  ALA B 344      30.885  -0.514 -38.816  1.00 15.57 LIG 0.18  C 
ATOM     49  CB  ALA B 344      32.259  -0.420 -39.408  1.00 18.12 LIG 0.04  C 
BRANCH 48 50
ATOM     50  C   ALA B 344      31.006  -0.711 -37.309  1.00 15.03 LIG 0.20  C 
ATOM     51 OXT  ALA B 344      30.013  -0.991 -36.622  1.00 16.10 LIG-0.65  OA
ATOM     52 O    ALA B 344      32.166  -0.650 -36.822  1.00 15.80 LIG-0.65  OA
ENDBRANCH 48 50
ENDBRANCH 46 48
ENDBRANCH 39 44
ENDBRANCH 36 39
ENDBRANCH 30 35
ENDBRANCH 3 30
TORSDOF 18
ENDMDL
MODEL 7
USER: ADFR SOLUTION from run 194
USER: SCORE 14.598417 LL:  -4.787 LR: -10.711 RR:   0.000 FEB:  -5.342
USER: RMSD 4.191118
USER: SEED 193
USER: STATUS no improvement in best in 5 clusters for 5 generations
USER: GENES 20
USER: genes 0 Translation |==|  0.49989 0.55865 0.62316
USER: genes 1 Rotation |==|  0.48559 0.60419 0.41309 0.98102
USER: genes 2 Torsion [N]-C--CA-[N] |==|  0.27413
USER: genes 3 Torsion [C]-CA--CB-[CG] |==|  0.66526
USER: genes 4 Torsion [CA]-CB--CG-[CD1] |==|  0.37393
USER: genes 5 Torsion [C]-CA--N-[C] |==|  0.63625
USER: genes 6 Torsion [N]-C--CA-[CB] |==|  0.24432
USER: genes 7 Torsion [N]-C--CA-[N] |==|  0.47884
USER: genes 8 Torsion [C]-CA--CB-[CG] |==|  0.73940
USER: genes 9 Torsion [CA]-CB--CG-[CD1] |==|  0.27251
USER: genes 10 Torsion [C]-N--CA-[CB] |==|  0.54521
USER: genes 11 Torsion [N]-CA--CB-[CG] |==|  0.88048
USER: genes 12 Torsion [CA]-CB--CG-[OD1] |==|  0.19741
USER: genes 13 Torsion [N]-CA--C-[N] |==|  0.30576
USER: genes 14 Torsion [C]-N--CA-[C] |==|  0.82667
USER: genes 15 Torsion [N]-CA--CB-[CG] |==|  0.69841
USER: genes 16 Torsion [CA]-CB--CG-[CD1] |==|  0.57021
USER: genes 17 Torsion [N]-CA--C-[N] |==|  0.37250
USER: genes 18 Torsion [C]-N--CA-[CB] |==|  0.27377
USER: genes 19 Torsion [N]-CA--C-[OXT] |==|  0.19708
ROOT
ATOM      1  C   LEU B 341      28.788   5.501 -42.018  1.00 14.43 LIG 0.24  C 
ATOM      2 O    LEU B 341      27.835   5.152 -41.322  1.00 17.21 LIG-0.27  OA
ATOM      3  N   ASP B 342      29.588   4.639 -42.628  1.00 15.70 LIG-0.35  N 
ATOM      4 H    ASP B 342      30.195   4.858 -43.196  1.00 15.70 LIG 0.16  HD
ENDROOT
BRANCH 1 5
ATOM      5  CA  LEU B 341      29.141   6.972 -42.231  1.00 14.64 LIG 0.18  C 
BRANCH 5 6
ATOM      6  CB  LEU B 341      28.891   7.733 -40.928  1.00 15.72 LIG 0.04  C 
BRANCH 6 7
ATOM      7  CG  LEU B 341      27.878   8.856 -41.059  1.00 16.60 LIG-0.02  C 
ATOM      8  CD1 LEU B 341      26.915   8.796 -39.897  1.00 17.44 LIG 0.01  C 
ATOM      9  CD2 LEU B 341      28.556  10.221 -41.170  1.00 18.85 LIG 0.01  C 
ENDBRANCH 6 7
ENDBRANCH 5 6
BRANCH 5 10
ATOM     10  N   LEU B 341      28.331   7.604 -43.269  1.00 16.77 LIG-0.35  N 
ATOM     11  C   PRO B 340      28.899   8.318 -44.235  1.00 19.25 LIG 0.24  C 
ATOM     12 O    PRO B 340      30.120   8.426 -44.393  1.00 21.28 LIG-0.27  OA
ATOM     13 H    LEU B 341      27.485   7.474 -43.195  1.00 16.77 LIG 0.16  HD
BRANCH 11 14
ATOM     14  CA  PRO B 340      27.927   8.957 -45.201  1.00 21.04 LIG 0.18  C 
ATOM     15  N   PRO B 340      26.631   8.248 -45.317  1.00 20.95 LIG-0.34  N 
ATOM     16  CD  PRO B 340      25.489   9.145 -45.072  1.00 22.76 LIG 0.13  C 
ATOM     17  C   PHE B 339      26.605   7.000 -45.781  1.00 19.72 LIG 0.26  C 
ATOM     18  CG  PRO B 340      26.158  10.502 -45.135  1.00 24.91 LIG 0.02  C 
ATOM     19  CB  PRO B 340      27.529  10.308 -44.642  1.00 23.27 LIG 0.04  C 
ATOM     20 O    PHE B 339      27.655   6.384 -46.018  1.00 19.38 LIG-0.27  OA
BRANCH 17 21
ATOM     21  CA  PHE B 339      25.237   6.363 -46.022  1.00 21.94 LIG 0.40  C 
ATOM     22  N   PHE B 339      25.359   5.077 -46.691  1.00 23.90 LIG 0.61  N 
BRANCH 21 23
ATOM     23  CB  PHE B 339      24.505   6.178 -44.700  1.00 24.29 LIG 0.09  C 
BRANCH 23 24
ATOM     24  CG  PHE B 339      24.695   4.825 -44.078  1.00 28.97 LIG-0.06  A 
ATOM     25  CD1 PHE B 339      25.638   4.629 -43.072  1.00 31.92 LIG 0.01  A 
ATOM     26  CE1 PHE B 339      25.816   3.379 -42.493  1.00 33.96 LIG 0.00  A 
ATOM     27  CZ  PHE B 339      25.030   2.309 -42.912  1.00 35.90 LIG 0.00  A 
ATOM     28  CE2 PHE B 339      24.075   2.493 -43.914  1.00 35.56 LIG 0.00  A 
ATOM     29  CD2 PHE B 339      23.915   3.751 -44.489  1.00 33.37 LIG 0.01  A 
ENDBRANCH 23 24
ENDBRANCH 21 23
ENDBRANCH 17 21
ENDBRANCH 11 14
ENDBRANCH 5 10
ENDBRANCH 1 5
BRANCH 3 30
ATOM     30  CA  ASP B 342      29.486   3.207 -42.362  1.00 16.21 LIG 0.19  C 
BRANCH 30 31
ATOM     31  CB  ASP B 342      30.737   2.509 -42.856  1.00 18.68 LIG 0.15  C 
BRANCH 31 32
ATOM     32  CG  ASP B 342      31.204   2.976 -44.186  1.00 22.92 LIG 0.17  C 
ATOM     33 OD1  ASP B 342      31.715   4.119 -44.321  1.00 25.81 LIG-0.65  OA
ATOM     34 OD2  ASP B 342      31.043   2.154 -45.108  1.00 25.94 LIG-0.65  OA
ENDBRANCH 31 32
ENDBRANCH 30 31
BRANCH 30 35
ATOM     35  C   ASP B 342      29.403   2.916 -40.858  1.00 16.03 LIG 0.24  C 
ATOM     36  N   LEU B 343      28.219   2.473 -40.418  1.00 16.72 LIG-0.35  N 
ATOM     37 H    LEU B 343      27.490   2.550 -40.867  1.00 16.72 LIG 0.16  HD
ATOM     38 O    ASP B 342      30.404   2.992 -40.152  1.00 14.87 LIG-0.27  OA
BRANCH 36 39
ATOM     39  CA  LEU B 343      28.049   1.807 -39.121  1.00 16.14 LIG 0.18  C 
BRANCH 39 40
ATOM     40  CB  LEU B 343      26.587   1.482 -38.838  1.00 19.18 LIG 0.04  C 
BRANCH 40 41
ATOM     41  CG  LEU B 343      25.942   2.350 -37.740  1.00 20.67 LIG-0.02  C 
ATOM     42  CD1 LEU B 343      24.771   1.573 -37.112  1.00 23.87 LIG 0.01  C 
ATOM     43  CD2 LEU B 343      26.967   2.725 -36.682  1.00 22.92 LIG 0.01  C 
ENDBRANCH 40 41
ENDBRANCH 39 40
BRANCH 39 44
ATOM     44  C   LEU B 343      28.861   0.506 -39.090  1.00 14.33 LIG 0.24  C 
ATOM     45 O    LEU B 343      28.826  -0.301 -40.036  1.00 16.10 LIG-0.27  OA
ATOM     46  N   ALA B 344      29.575   0.297 -38.007  1.00 14.89 LIG-0.34  N 
ATOM     47 H    ALA B 344      29.670   0.864 -37.369  1.00 14.89 LIG 0.16  HD
BRANCH 46 48
ATOM     48  CA  ALA B 344      30.286  -0.980 -37.816  1.00 15.57 LIG 0.18  C 
ATOM     49  CB  ALA B 344      31.729  -0.842 -38.198  1.00 18.12 LIG 0.04  C 
BRANCH 48 50
ATOM     50  C   ALA B 344      30.198  -1.401 -36.353  1.00 15.03 LIG 0.20  C 
ATOM     51 OXT  ALA B 344      29.128  -1.794 -35.866  1.00 16.10 LIG-0.65  OA
ATOM     52 O    ALA B 344      31.275  -1.400 -35.699  1.00 15.80 LIG-0.65  OA
ENDBRANCH 48 50
ENDBRANCH 46 48
ENDBRANCH 39 44
ENDBRANCH 36 39
ENDBRANCH 30 35
ENDBRANCH 3 30
TORSDOF 18
ENDMDL
MODEL 8
USER: ADFR SOLUTION from run 142
USER: SCORE 13.972878 LL:  -4.363 LR: -10.388 RR:   0.000 FEB:  -5.018
USER: RMSD 4.631710
USER: SEED 141
USER: STATUS searching
USER: GENES 20
USER: genes 0 Translation |==|  0.53438 0.56575 0.61589
USER: genes 1 Rotation |==|  0.49803 0.58993 0.33200 0.96226
USER: genes 2 Torsion [N]-C--CA-[N] |==|  0.22385
USER: genes 3 Torsion [C]-CA--CB-[CG] |==|  0.76175
USER: genes 4 Torsion [CA]-CB--CG-[CD1] |==|  0.35748
USER: genes 5 Torsion [C]-CA--N-[C] |==|  0.77754
USER: genes 6 Torsion [N]-C--CA-[CB] |==|  0.27066
USER: genes 7 Torsion [N]-C--CA-[N] |==|  0.46911
USER: genes 8 Torsion [C]-CA--CB-[CG] |==|  0.33356
USER: genes 9 Torsion [CA]-CB--CG-[CD1] |==|  0.17700
USER: genes 10 Torsion [C]-N--CA-[CB] |==|  0.54514
USER: genes 11 Torsion [N]-CA--CB-[CG] |==|  0.59043
USER: genes 12 Torsion [CA]-CB--CG-[OD1] |==|  0.95536
USER: genes 13 Torsion [N]-CA--C-[N] |==|  0.40566
USER: genes 14 Torsion [C]-N--CA-[C] |==|  0.77095
USER: genes 15 Torsion [N]-CA--CB-[CG] |==|  0.67608
USER: genes 16 Torsion [CA]-CB--CG-[CD1] |==|  0.58058
USER: genes 17 Torsion [N]-CA--C-[N] |==|  0.21665
USER: genes 18 Torsion [C]-N--CA-[CB] |==|  0.38549
USER: genes 19 Torsion [N]-CA--C-[OXT] |==|  0.68949
ROOT
ATOM      1  C   LEU B 341      29.460   5.655 -42.176  1.00 14.43 LIG 0.24  C 
ATOM      2 O    LEU B 341      28.412   5.667 -41.533  1.00 17.21 LIG-0.27  OA
ATOM      3  N   ASP B 342      29.962   4.555 -42.716  1.00 15.70 LIG-0.35  N 
ATOM      4 H    ASP B 342      30.635   4.539 -43.251  1.00 15.70 LIG 0.16  HD
ENDROOT
BRANCH 1 5
ATOM      5  CA  LEU B 341      30.290   6.919 -42.399  1.00 14.64 LIG 0.18  C 
BRANCH 5 6
ATOM      6  CB  LEU B 341      29.890   7.963 -41.354  1.00 15.72 LIG 0.04  C 
BRANCH 6 7
ATOM      7  CG  LEU B 341      28.690   8.801 -41.754  1.00 16.60 LIG-0.02  C 
ATOM      8  CD1 LEU B 341      27.674   8.783 -40.635  1.00 17.44 LIG 0.01  C 
ATOM      9  CD2 LEU B 341      29.095  10.225 -42.136  1.00 18.85 LIG 0.01  C 
ENDBRANCH 6 7
ENDBRANCH 5 6
BRANCH 5 10
ATOM     10  N   LEU B 341      30.073   7.514 -43.715  1.00 16.77 LIG-0.35  N 
ATOM     11  C   PRO B 340      30.681   7.025 -44.791  1.00 19.25 LIG 0.24  C 
ATOM     12 O    PRO B 340      31.379   6.005 -44.792  1.00 21.28 LIG-0.27  OA
ATOM     13 H    LEU B 341      29.535   8.184 -43.724  1.00 16.77 LIG 0.16  HD
BRANCH 11 14
ATOM     14  CA  PRO B 340      30.402   7.781 -46.070  1.00 21.04 LIG 0.18  C 
ATOM     15  N   PRO B 340      29.225   8.679 -46.002  1.00 20.95 LIG-0.34  N 
ATOM     16  CD  PRO B 340      29.562  10.059 -46.390  1.00 22.76 LIG 0.13  C 
ATOM     17  C   PHE B 339      28.016   8.161 -45.791  1.00 19.72 LIG 0.26  C 
ATOM     18  CG  PRO B 340      30.927   9.868 -47.018  1.00 24.91 LIG 0.02  C 
ATOM     19  CB  PRO B 340      31.551   8.741 -46.308  1.00 23.27 LIG 0.04  C 
ATOM     20 O    PHE B 339      27.872   6.955 -45.547  1.00 19.38 LIG-0.27  OA
BRANCH 17 21
ATOM     21  CA  PHE B 339      26.818   9.106 -45.875  1.00 21.94 LIG 0.40  C 
ATOM     22  N   PHE B 339      25.561   8.372 -45.884  1.00 23.90 LIG 0.61  N 
BRANCH 21 23
ATOM     23  CB  PHE B 339      26.830  10.074 -44.699  1.00 24.29 LIG 0.09  C 
BRANCH 23 24
ATOM     24  CG  PHE B 339      26.906  11.519 -45.099  1.00 28.97 LIG-0.06  A 
ATOM     25  CD1 PHE B 339      25.876  12.112 -45.827  1.00 31.92 LIG 0.01  A 
ATOM     26  CE1 PHE B 339      25.941  13.449 -46.197  1.00 33.96 LIG 0.00  A 
ATOM     27  CZ  PHE B 339      27.041  14.214 -45.820  1.00 35.90 LIG 0.00  A 
ATOM     28  CE2 PHE B 339      28.076  13.635 -45.083  1.00 35.56 LIG 0.00  A 
ATOM     29  CD2 PHE B 339      27.999  12.291 -44.727  1.00 33.37 LIG 0.01  A 
ENDBRANCH 23 24
ENDBRANCH 21 23
ENDBRANCH 17 21
ENDBRANCH 11 14
ENDBRANCH 5 10
ENDBRANCH 1 5
BRANCH 3 30
ATOM     30  CA  ASP B 342      29.379   3.248 -42.427  1.00 16.21 LIG 0.19  C 
BRANCH 30 31
ATOM     31  CB  ASP B 342      30.354   2.158 -42.827  1.00 18.68 LIG 0.15  C 
BRANCH 31 32
ATOM     32  CG  ASP B 342      29.702   0.912 -43.307  1.00 22.92 LIG 0.17  C 
ATOM     33 OD1  ASP B 342      28.481   0.699 -43.082  1.00 25.81 LIG-0.65  OA
ATOM     34 OD2  ASP B 342      30.458   0.139 -43.925  1.00 25.94 LIG-0.65  OA
ENDBRANCH 31 32
ENDBRANCH 30 31
BRANCH 30 35
ATOM     35  C   ASP B 342      29.129   3.062 -40.924  1.00 16.03 LIG 0.24  C 
ATOM     36  N   LEU B 343      28.052   2.335 -40.602  1.00 16.72 LIG-0.35  N 
ATOM     37 H    LEU B 343      27.413   2.168 -41.154  1.00 16.72 LIG 0.16  HD
ATOM     38 O    ASP B 342      29.941   3.472 -40.101  1.00 14.87 LIG-0.27  OA
BRANCH 36 39
ATOM     39  CA  LEU B 343      27.853   1.750 -39.271  1.00 16.14 LIG 0.18  C 
BRANCH 39 40
ATOM     40  CB  LEU B 343      26.380   1.489 -38.980  1.00 19.18 LIG 0.04  C 
BRANCH 40 41
ATOM     41  CG  LEU B 343      25.809   2.303 -37.804  1.00 20.67 LIG-0.02  C 
ATOM     42  CD1 LEU B 343      24.665   1.505 -37.151  1.00 23.87 LIG 0.01  C 
ATOM     43  CD2 LEU B 343      26.896   2.612 -36.787  1.00 22.92 LIG 0.01  C 
ENDBRANCH 40 41
ENDBRANCH 39 40
BRANCH 39 44
ATOM     44  C   LEU B 343      28.622   0.427 -39.161  1.00 14.33 LIG 0.24  C 
ATOM     45 O    LEU B 343      28.039  -0.668 -39.245  1.00 16.10 LIG-0.27  OA
ATOM     46  N   ALA B 344      29.916   0.526 -38.961  1.00 14.89 LIG-0.34  N 
ATOM     47 H    ALA B 344      30.355   1.266 -38.965  1.00 14.89 LIG 0.16  HD
BRANCH 46 48
ATOM     48  CA  ALA B 344      30.728  -0.677 -38.709  1.00 15.57 LIG 0.18  C 
ATOM     49  CB  ALA B 344      32.030  -0.600 -39.448  1.00 18.12 LIG 0.04  C 
BRANCH 48 50
ATOM     50  C   ALA B 344      31.012  -0.800 -37.216  1.00 15.03 LIG 0.20  C 
ATOM     51 OXT  ALA B 344      32.159  -0.650 -36.770  1.00 16.10 LIG-0.65  OA
ATOM     52 O    ALA B 344      30.018  -0.984 -36.464  1.00 15.80 LIG-0.65  OA
ENDBRANCH 48 50
ENDBRANCH 46 48
ENDBRANCH 39 44
ENDBRANCH 36 39
ENDBRANCH 30 35
ENDBRANCH 3 30
TORSDOF 18
ENDMDL
MODEL 9
USER: ADFR SOLUTION from run 4
USER: SCORE 13.562099 LL:  -4.260 LR: -10.228 RR:   0.000 FEB:  -4.859
USER: RMSD 3.514836
USER: SEED 745368
USER: STATUS 1 or 2 clusters left
USER: GENES 20
USER: genes 0 Translation |==|  0.48206 0.56472 0.57737
USER: genes 1 Rotation |==|  0.50403 0.53232 0.50284 0.99893
USER: genes 2 Torsion [N]-C--CA-[N] |==|  0.38023
USER: genes 3 Torsion [C]-CA--CB-[CG] |==|  0.56806
USER: genes 4 Torsion [CA]-CB--CG-[CD1] |==|  0.41305
USER: genes 5 Torsion [C]-CA--N-[C] |==|  0.70000
USER: genes 6 Torsion [N]-C--CA-[CB] |==|  0.71487
USER: genes 7 Torsion [N]-C--CA-[N] |==|  0.29012
USER: genes 8 Torsion [C]-CA--CB-[CG] |==|  0.05993
USER: genes 9 Torsion [CA]-CB--CG-[CD1] |==|  0.18512
USER: genes 10 Torsion [C]-N--CA-[CB] |==|  0.48945
USER: genes 11 Torsion [N]-CA--CB-[CG] |==|  0.59447
USER: genes 12 Torsion [CA]-CB--CG-[OD1] |==|  0.96336
USER: genes 13 Torsion [N]-CA--C-[N] |==|  0.45418
USER: genes 14 Torsion [C]-N--CA-[C] |==|  0.67167
USER: genes 15 Torsion [N]-CA--CB-[CG] |==|  0.79460
USER: genes 16 Torsion [CA]-CB--CG-[CD1] |==|  0.36872
USER: genes 17 Torsion [N]-CA--C-[N] |==|  0.41045
USER: genes 18 Torsion [C]-N--CA-[CB] |==|  0.22988
USER: genes 19 Torsion [N]-CA--C-[OXT] |==|  0.26532
ROOT
ATOM      1  C   LEU B 341      28.440   5.633 -43.014  1.00 14.43 LIG 0.24  C 
ATOM      2 O    LEU B 341      27.524   4.894 -42.655  1.00 17.21 LIG-0.27  OA
ATOM      3  N   ASP B 342      29.626   5.179 -43.390  1.00 15.70 LIG-0.35  N 
ATOM      4 H    ASP B 342      30.245   5.665 -43.737  1.00 15.70 LIG 0.16  HD
ENDROOT
BRANCH 1 5
ATOM      5  CA  LEU B 341      28.291   7.153 -43.046  1.00 14.64 LIG 0.18  C 
BRANCH 5 6
ATOM      6  CB  LEU B 341      28.360   7.686 -41.613  1.00 15.72 LIG 0.04  C 
BRANCH 6 7
ATOM      7  CG  LEU B 341      27.666   9.022 -41.423  1.00 16.60 LIG-0.02  C 
ATOM      8  CD1 LEU B 341      27.112   9.100 -40.019  1.00 17.44 LIG 0.01  C 
ATOM      9  CD2 LEU B 341      28.597  10.194 -41.736  1.00 18.85 LIG 0.01  C 
ENDBRANCH 6 7
ENDBRANCH 5 6
BRANCH 5 10
ATOM     10  N   LEU B 341      27.016   7.585 -43.612  1.00 16.77 LIG-0.35  N 
ATOM     11  C   PRO B 340      26.961   8.146 -44.814  1.00 19.25 LIG 0.24  C 
ATOM     12 O    PRO B 340      27.929   8.261 -45.574  1.00 21.28 LIG-0.27  OA
ATOM     13 H    LEU B 341      26.333   7.446 -43.109  1.00 16.77 LIG 0.16  HD
BRANCH 11 14
ATOM     14  CA  PRO B 340      25.580   8.592 -45.239  1.00 21.04 LIG 0.18  C 
ATOM     15  N   PRO B 340      25.561   9.853 -46.019  1.00 20.95 LIG-0.34  N 
ATOM     16  CD  PRO B 340      24.859   9.695 -47.304  1.00 22.76 LIG 0.13  C 
ATOM     17  C   PHE B 339      25.986  10.981 -45.452  1.00 19.72 LIG 0.26  C 
ATOM     18  CG  PRO B 340      24.165   8.364 -47.103  1.00 24.91 LIG 0.02  C 
ATOM     19  CB  PRO B 340      25.039   7.574 -46.223  1.00 23.27 LIG 0.04  C 
ATOM     20 O    PHE B 339      26.495  10.976 -44.322  1.00 19.38 LIG-0.27  OA
BRANCH 17 21
ATOM     21  CA  PHE B 339      25.812  12.278 -46.241  1.00 21.94 LIG 0.40  C 
ATOM     22  N   PHE B 339      24.712  13.075 -45.720  1.00 23.90 LIG 0.61  N 
BRANCH 21 23
ATOM     23  CB  PHE B 339      27.096  13.096 -46.196  1.00 24.29 LIG 0.09  C 
BRANCH 23 24
ATOM     24  CG  PHE B 339      28.323  12.291 -45.881  1.00 28.97 LIG-0.06  A 
ATOM     25  CD1 PHE B 339      28.795  11.332 -46.774  1.00 31.92 LIG 0.01  A 
ATOM     26  CE1 PHE B 339      29.931  10.585 -46.487  1.00 33.96 LIG 0.00  A 
ATOM     27  CZ  PHE B 339      30.619  10.810 -45.298  1.00 35.90 LIG 0.00  A 
ATOM     28  CE2 PHE B 339      30.161  11.774 -44.398  1.00 35.56 LIG 0.00  A 
ATOM     29  CD2 PHE B 339      29.016  12.508 -44.697  1.00 33.37 LIG 0.01  A 
ENDBRANCH 23 24
ENDBRANCH 21 23
ENDBRANCH 17 21
ENDBRANCH 11 14
ENDBRANCH 5 10
ENDBRANCH 1 5
BRANCH 3 30
ATOM     30  CA  ASP B 342      29.972   3.770 -43.230  1.00 16.21 LIG 0.19  C 
BRANCH 30 31
ATOM     31  CB  ASP B 342      31.343   3.513 -43.824  1.00 18.68 LIG 0.15  C 
BRANCH 31 32
ATOM     32  CG  ASP B 342      31.490   2.172 -44.445  1.00 22.92 LIG 0.17  C 
ATOM     33 OD1  ASP B 342      30.633   1.273 -44.240  1.00 25.81 LIG-0.65  OA
ATOM     34 OD2  ASP B 342      32.506   2.040 -45.155  1.00 25.94 LIG-0.65  OA
ENDBRANCH 31 32
ENDBRANCH 30 31
BRANCH 30 35
ATOM     35  C   ASP B 342      30.071   3.376 -41.751  1.00 16.03 LIG 0.24  C 
ATOM     36  N   LEU B 343      30.041   2.062 -41.498  1.00 16.72 LIG-0.35  N 
ATOM     37 H    LEU B 343      29.764   1.479 -42.066  1.00 16.72 LIG 0.16  HD
ATOM     38 O    ASP B 342      30.273   4.228 -40.890  1.00 14.87 LIG-0.27  OA
BRANCH 36 39
ATOM     39  CA  LEU B 343      30.481   1.485 -40.221  1.00 16.14 LIG 0.18  C 
BRANCH 39 40
ATOM     40  CB  LEU B 343      29.362   0.711 -39.534  1.00 19.18 LIG 0.04  C 
BRANCH 40 41
ATOM     41  CG  LEU B 343      28.271   1.595 -38.901  1.00 20.67 LIG-0.02  C 
ATOM     42  CD1 LEU B 343      26.889   1.053 -39.308  1.00 23.87 LIG 0.01  C 
ATOM     43  CD2 LEU B 343      28.413   1.622 -37.388  1.00 22.92 LIG 0.01  C 
ENDBRANCH 40 41
ENDBRANCH 39 40
BRANCH 39 44
ATOM     44  C   LEU B 343      31.667   0.541 -40.454  1.00 14.33 LIG 0.24  C 
ATOM     45 O    LEU B 343      31.768  -0.124 -41.501  1.00 16.10 LIG-0.27  OA
ATOM     46  N   ALA B 344      32.550   0.472 -39.485  1.00 14.89 LIG-0.34  N 
ATOM     47 H    ALA B 344      32.541   0.967 -38.782  1.00 14.89 LIG 0.16  HD
BRANCH 46 48
ATOM     48  CA  ALA B 344      33.655  -0.501 -39.547  1.00 15.57 LIG 0.18  C 
ATOM     49  CB  ALA B 344      34.782   0.034 -40.379  1.00 18.12 LIG 0.04  C 
BRANCH 48 50
ATOM     50  C   ALA B 344      34.168  -0.784 -38.140  1.00 15.03 LIG 0.20  C 
ATOM     51 OXT  ALA B 344      33.758  -1.762 -37.497  1.00 16.10 LIG-0.65  OA
ATOM     52 O    ALA B 344      35.075  -0.025 -37.704  1.00 15.80 LIG-0.65  OA
ENDBRANCH 48 50
ENDBRANCH 46 48
ENDBRANCH 39 44
ENDBRANCH 36 39
ENDBRANCH 30 35
ENDBRANCH 3 30
TORSDOF 18
ENDMDL
